# Generated by pormake.
# Topology ukv, (4)-cn, num edge types: 1
# Building blocks:
#     Node 0, Type 0, BuildingBlock: TATPOV_clean_sbu_0, # of connection points: 4
#     Node 1, Type 0, BuildingBlock: TATPOV_clean_sbu_0, # of connection points: 4
#     Node 2, Type 0, BuildingBlock: TATPOV_clean_sbu_0, # of connection points: 4
#     Node 3, Type 0, BuildingBlock: TATPOV_clean_sbu_0, # of connection points: 4
#     Node 4, Type 0, BuildingBlock: TATPOV_clean_sbu_0, # of connection points: 4
#     Node 5, Type 0, BuildingBlock: TATPOV_clean_sbu_0, # of connection points: 4
#     Node 6, Type 0, BuildingBlock: TATPOV_clean_sbu_0, # of connection points: 4
#     Node 7, Type 0, BuildingBlock: TATPOV_clean_sbu_0, # of connection points: 4
#     Node 8, Type 0, BuildingBlock: TATPOV_clean_sbu_0, # of connection points: 4
#     Node 9, Type 0, BuildingBlock: TATPOV_clean_sbu_0, # of connection points: 4
#     Node 10, Type 0, BuildingBlock: TATPOV_clean_sbu_0, # of connection points: 4
#     Node 11, Type 0, BuildingBlock: TATPOV_clean_sbu_0, # of connection points: 4
#     Node 12, Type 0, BuildingBlock: TATPOV_clean_sbu_0, # of connection points: 4
#     Node 13, Type 0, BuildingBlock: TATPOV_clean_sbu_0, # of connection points: 4
#     Node 14, Type 0, BuildingBlock: TATPOV_clean_sbu_0, # of connection points: 4
#     Node 15, Type 0, BuildingBlock: TATPOV_clean_sbu_0, # of connection points: 4
#     Node 16, Type 0, BuildingBlock: TATPOV_clean_sbu_0, # of connection points: 4
#     Node 17, Type 0, BuildingBlock: TATPOV_clean_sbu_0, # of connection points: 4
#     Node 18, Type 0, BuildingBlock: TATPOV_clean_sbu_0, # of connection points: 4
#     Node 19, Type 0, BuildingBlock: TATPOV_clean_sbu_0, # of connection points: 4
#     Node 20, Type 0, BuildingBlock: TATPOV_clean_sbu_0, # of connection points: 4
#     Node 21, Type 0, BuildingBlock: TATPOV_clean_sbu_0, # of connection points: 4
#     Node 22, Type 0, BuildingBlock: TATPOV_clean_sbu_0, # of connection points: 4
#     Node 23, Type 0, BuildingBlock: TATPOV_clean_sbu_0, # of connection points: 4
#     Node 24, Type 0, BuildingBlock: TATPOV_clean_sbu_0, # of connection points: 4
#     Node 25, Type 0, BuildingBlock: TATPOV_clean_sbu_0, # of connection points: 4
#     Node 26, Type 0, BuildingBlock: TATPOV_clean_sbu_0, # of connection points: 4
#     Node 27, Type 0, BuildingBlock: TATPOV_clean_sbu_0, # of connection points: 4
#     Node 28, Type 0, BuildingBlock: TATPOV_clean_sbu_0, # of connection points: 4
#     Node 29, Type 0, BuildingBlock: TATPOV_clean_sbu_0, # of connection points: 4
#     Node 30, Type 0, BuildingBlock: TATPOV_clean_sbu_0, # of connection points: 4
#     Node 31, Type 0, BuildingBlock: TATPOV_clean_sbu_0, # of connection points: 4
#     Node 32, Type 0, BuildingBlock: TATPOV_clean_sbu_0, # of connection points: 4
#     Node 33, Type 0, BuildingBlock: TATPOV_clean_sbu_0, # of connection points: 4
#     Node 34, Type 0, BuildingBlock: TATPOV_clean_sbu_0, # of connection points: 4
#     Node 35, Type 0, BuildingBlock: TATPOV_clean_sbu_0, # of connection points: 4
#     Edge 36, Type (0, 0), BuildingBlock: AJUNOK_clean_linker_0, # of connection points: 2
#     Edge 37, Type (0, 0), BuildingBlock: AJUNOK_clean_linker_0, # of connection points: 2
#     Edge 38, Type (0, 0), BuildingBlock: AJUNOK_clean_linker_0, # of connection points: 2
#     Edge 39, Type (0, 0), BuildingBlock: AJUNOK_clean_linker_0, # of connection points: 2
#     Edge 40, Type (0, 0), BuildingBlock: AJUNOK_clean_linker_0, # of connection points: 2
#     Edge 41, Type (0, 0), BuildingBlock: AJUNOK_clean_linker_0, # of connection points: 2
#     Edge 42, Type (0, 0), BuildingBlock: AJUNOK_clean_linker_0, # of connection points: 2
#     Edge 43, Type (0, 0), BuildingBlock: AJUNOK_clean_linker_0, # of connection points: 2
#     Edge 44, Type (0, 0), BuildingBlock: AJUNOK_clean_linker_0, # of connection points: 2
#     Edge 45, Type (0, 0), BuildingBlock: AJUNOK_clean_linker_0, # of connection points: 2
#     Edge 46, Type (0, 0), BuildingBlock: AJUNOK_clean_linker_0, # of connection points: 2
#     Edge 47, Type (0, 0), BuildingBlock: AJUNOK_clean_linker_0, # of connection points: 2
#     Edge 48, Type (0, 0), BuildingBlock: AJUNOK_clean_linker_0, # of connection points: 2
#     Edge 49, Type (0, 0), BuildingBlock: AJUNOK_clean_linker_0, # of connection points: 2
#     Edge 50, Type (0, 0), BuildingBlock: AJUNOK_clean_linker_0, # of connection points: 2
#     Edge 51, Type (0, 0), BuildingBlock: AJUNOK_clean_linker_0, # of connection points: 2
#     Edge 52, Type (0, 0), BuildingBlock: AJUNOK_clean_linker_0, # of connection points: 2
#     Edge 53, Type (0, 0), BuildingBlock: AJUNOK_clean_linker_0, # of connection points: 2
#     Edge 54, Type (0, 0), BuildingBlock: AJUNOK_clean_linker_0, # of connection points: 2
#     Edge 55, Type (0, 0), BuildingBlock: AJUNOK_clean_linker_0, # of connection points: 2
#     Edge 56, Type (0, 0), BuildingBlock: AJUNOK_clean_linker_0, # of connection points: 2
#     Edge 57, Type (0, 0), BuildingBlock: AJUNOK_clean_linker_0, # of connection points: 2
#     Edge 58, Type (0, 0), BuildingBlock: AJUNOK_clean_linker_0, # of connection points: 2
#     Edge 59, Type (0, 0), BuildingBlock: AJUNOK_clean_linker_0, # of connection points: 2
#     Edge 60, Type (0, 0), BuildingBlock: AJUNOK_clean_linker_0, # of connection points: 2
#     Edge 61, Type (0, 0), BuildingBlock: AJUNOK_clean_linker_0, # of connection points: 2
#     Edge 62, Type (0, 0), BuildingBlock: AJUNOK_clean_linker_0, # of connection points: 2
#     Edge 63, Type (0, 0), BuildingBlock: AJUNOK_clean_linker_0, # of connection points: 2
#     Edge 64, Type (0, 0), BuildingBlock: AJUNOK_clean_linker_0, # of connection points: 2
#     Edge 65, Type (0, 0), BuildingBlock: AJUNOK_clean_linker_0, # of connection points: 2
#     Edge 66, Type (0, 0), BuildingBlock: AJUNOK_clean_linker_0, # of connection points: 2
#     Edge 67, Type (0, 0), BuildingBlock: AJUNOK_clean_linker_0, # of connection points: 2
#     Edge 68, Type (0, 0), BuildingBlock: AJUNOK_clean_linker_0, # of connection points: 2
#     Edge 69, Type (0, 0), BuildingBlock: AJUNOK_clean_linker_0, # of connection points: 2
#     Edge 70, Type (0, 0), BuildingBlock: AJUNOK_clean_linker_0, # of connection points: 2
#     Edge 71, Type (0, 0), BuildingBlock: AJUNOK_clean_linker_0, # of connection points: 2
#     Edge 72, Type (0, 0), BuildingBlock: AJUNOK_clean_linker_0, # of connection points: 2
#     Edge 73, Type (0, 0), BuildingBlock: AJUNOK_clean_linker_0, # of connection points: 2
#     Edge 74, Type (0, 0), BuildingBlock: AJUNOK_clean_linker_0, # of connection points: 2
#     Edge 75, Type (0, 0), BuildingBlock: AJUNOK_clean_linker_0, # of connection points: 2
#     Edge 76, Type (0, 0), BuildingBlock: AJUNOK_clean_linker_0, # of connection points: 2
#     Edge 77, Type (0, 0), BuildingBlock: AJUNOK_clean_linker_0, # of connection points: 2
#     Edge 78, Type (0, 0), BuildingBlock: AJUNOK_clean_linker_0, # of connection points: 2
#     Edge 79, Type (0, 0), BuildingBlock: AJUNOK_clean_linker_0, # of connection points: 2
#     Edge 80, Type (0, 0), BuildingBlock: AJUNOK_clean_linker_0, # of connection points: 2
#     Edge 81, Type (0, 0), BuildingBlock: AJUNOK_clean_linker_0, # of connection points: 2
#     Edge 82, Type (0, 0), BuildingBlock: AJUNOK_clean_linker_0, # of connection points: 2
#     Edge 83, Type (0, 0), BuildingBlock: AJUNOK_clean_linker_0, # of connection points: 2
#     Edge 84, Type (0, 0), BuildingBlock: AJUNOK_clean_linker_0, # of connection points: 2
#     Edge 85, Type (0, 0), BuildingBlock: AJUNOK_clean_linker_0, # of connection points: 2
#     Edge 86, Type (0, 0), BuildingBlock: AJUNOK_clean_linker_0, # of connection points: 2
#     Edge 87, Type (0, 0), BuildingBlock: AJUNOK_clean_linker_0, # of connection points: 2
#     Edge 88, Type (0, 0), BuildingBlock: AJUNOK_clean_linker_0, # of connection points: 2
#     Edge 89, Type (0, 0), BuildingBlock: AJUNOK_clean_linker_0, # of connection points: 2
#     Edge 90, Type (0, 0), BuildingBlock: AJUNOK_clean_linker_0, # of connection points: 2
#     Edge 91, Type (0, 0), BuildingBlock: AJUNOK_clean_linker_0, # of connection points: 2
#     Edge 92, Type (0, 0), BuildingBlock: AJUNOK_clean_linker_0, # of connection points: 2
#     Edge 93, Type (0, 0), BuildingBlock: AJUNOK_clean_linker_0, # of connection points: 2
#     Edge 94, Type (0, 0), BuildingBlock: AJUNOK_clean_linker_0, # of connection points: 2
#     Edge 95, Type (0, 0), BuildingBlock: AJUNOK_clean_linker_0, # of connection points: 2
#     Edge 96, Type (0, 0), BuildingBlock: AJUNOK_clean_linker_0, # of connection points: 2
#     Edge 97, Type (0, 0), BuildingBlock: AJUNOK_clean_linker_0, # of connection points: 2
#     Edge 98, Type (0, 0), BuildingBlock: AJUNOK_clean_linker_0, # of connection points: 2
#     Edge 99, Type (0, 0), BuildingBlock: AJUNOK_clean_linker_0, # of connection points: 2
#     Edge 100, Type (0, 0), BuildingBlock: AJUNOK_clean_linker_0, # of connection points: 2
#     Edge 101, Type (0, 0), BuildingBlock: AJUNOK_clean_linker_0, # of connection points: 2
#     Edge 102, Type (0, 0), BuildingBlock: AJUNOK_clean_linker_0, # of connection points: 2
#     Edge 103, Type (0, 0), BuildingBlock: AJUNOK_clean_linker_0, # of connection points: 2
#     Edge 104, Type (0, 0), BuildingBlock: AJUNOK_clean_linker_0, # of connection points: 2
#     Edge 105, Type (0, 0), BuildingBlock: AJUNOK_clean_linker_0, # of connection points: 2
#     Edge 106, Type (0, 0), BuildingBlock: AJUNOK_clean_linker_0, # of connection points: 2
#     Edge 107, Type (0, 0), BuildingBlock: AJUNOK_clean_linker_0, # of connection points: 2
# Relax obj value: 0.222
# Max RMSD: 0.180
# Mean RMSD: 0.179
data_MOF--net-ukv--node1-TATPOV_clean_sbu_0--edge1-AJUNOK_clean_linker_0
_symmetry_space_group_name_H-M    P1
_symmetry_Int_Tables_number       1
_symmetry_cell_setting            triclinic
loop_
_symmetry_equiv_pos_as_xyz
'x, y, z'
_cell_length_a     73.297217
_cell_length_b     73.131808
_cell_length_c     15.214248
_cell_angle_alpha  89.85789
_cell_angle_beta   89.919258
_cell_angle_gamma 119.98758
loop_
_atom_site_label
_atom_site_type_symbol
_atom_site_fract_x
_atom_site_fract_y
_atom_site_fract_z
_atom_type_partial_charge
Zn0 Zn 0.28651 0.12833 0.04574 0.0
Zn1 Zn 0.25821 0.06909 0.12347 0.0
O2 O 0.28931 0.07561 0.11354 0.0
O3 O 0.29633 0.10653 0.0669 0.0
O4 O 0.24115 0.04192 0.19196 0.0
O5 O 0.26554 0.12654 0.13698 0.0
O6 O 0.25121 0.09221 0.17316 0.0
C7 C 0.30244 0.09328 0.07953 0.0
C8 C 0.25743 0.08417 0.9711 0.0
O9 O 0.24773 0.06502 -0.00453 0.0
O10 O 0.27098 0.09718 0.02352 0.0
C11 C 0.22116 0.03302 0.19401 0.0
O12 O 0.21202 0.04175 0.15033 0.0
C13 C 0.25229 0.1103 0.18073 0.0
Zn14 Zn 0.88613 0.15126 -0.01012 0.0
Zn15 Zn 0.92046 0.17373 0.051 0.0
O16 O 0.91729 0.19756 -0.0033 0.0
O17 O 0.89706 0.17509 0.89638 0.0
O18 O 0.94793 0.1861 0.11644 0.0
O19 O 0.86841 0.15139 0.08755 0.0
O20 O 0.89775 0.15667 0.1487 0.0
C21 C 0.90837 0.19403 0.922 0.0
C22 C 0.90909 0.13667 0.95117 0.0
O23 O 0.92192 0.15633 0.94543 0.0
O24 O 0.89778 0.13122 0.01876 0.0
C25 C 0.96179 0.20552 0.12207 0.0
O26 O 0.95933 0.21954 0.07754 0.0
C27 C 0.87802 0.1502 0.15436 0.0
Zn28 Zn 0.86608 0.75365 0.95058 0.0
Zn29 Zn 0.82811 0.74539 0.0616 0.0
O30 O 0.81781 0.71532 0.02231 0.0
O31 O 0.84432 0.72142 0.933 0.0
O32 O 0.80821 0.74618 0.15061 0.0
O33 O 0.88401 0.75936 0.05499 0.0
O34 O 0.85673 0.75694 0.12819 0.0
C35 C 0.82634 0.70883 0.96666 0.0
C36 C 0.84104 0.76985 0.90976 0.0
O37 O 0.82412 0.75926 0.95184 0.0
O38 O 0.85738 0.77624 0.95535 0.0
C39 C 0.8143 0.76367 0.18952 0.0
O40 O 0.83316 0.77955 0.17159 0.0
C41 C 0.87596 0.76123 0.12578 0.0
Zn42 Zn 0.10696 0.24916 0.5058 0.0
Zn43 Zn 0.07464 0.25579 0.42162 0.0
O44 O 0.09387 0.2865 0.45109 0.0
O45 O 0.11626 0.28095 0.52885 0.0
O46 O 0.04971 0.25165 0.35036 0.0
O47 O 0.11779 0.24454 0.39691 0.0
O48 O 0.09039 0.24501 0.33823 0.0
C49 C 0.10988 0.29326 0.5012 0.0
C50 C 0.06893 0.2306 0.56888 0.0
O51 O 0.06271 0.24293 0.54328 0.0
O52 O 0.07643 0.22461 0.50879 0.0
C53 C 0.03597 0.23227 0.34142 0.0
O54 O 0.03949 0.21805 0.37812 0.0
C55 C 0.10605 0.24182 0.33156 0.0
Zn56 Zn 0.69715 0.79285 0.30895 0.0
Zn57 Zn 0.73245 0.80416 0.36089 0.0
O58 O 0.70969 0.77995 0.43887 0.0
O59 O 0.67942 0.76518 0.37126 0.0
O60 O 0.75755 0.79999 0.3667 0.0
O61 O 0.70044 0.79531 0.17796 0.0
O62 O 0.73249 0.81231 0.22954 0.0
C63 C 0.69024 0.76588 0.43713 0.0
C64 C 0.72058 0.83289 0.42057 0.0
O65 O 0.73622 0.82982 0.42367 0.0
O66 O 0.70408 0.82004 0.37851 0.0
C67 C 0.75276 0.78135 0.34445 0.0
O68 O 0.73292 0.76772 0.32771 0.0
C69 C 0.71983 0.80794 0.16538 0.0
Zn70 Zn 0.15983 0.87305 0.28492 0.0
Zn71 Zn 0.1702 0.90746 0.34513 0.0
O72 O 0.18967 0.89855 0.41285 0.0
O73 O 0.1749 0.86538 0.37164 0.0
O74 O 0.18307 0.93882 0.36426 0.0
O75 O 0.17038 0.88084 0.16118 0.0
O76 O 0.16581 0.90634 0.20899 0.0
C77 C 0.18769 0.88022 0.42013 0.0
C78 C 0.12613 0.87404 0.3778 0.0
O79 O 0.14112 0.89186 0.40337 0.0
O80 O 0.12958 0.86421 0.31738 0.0
C81 C 0.1733 0.94749 0.33139 0.0
O82 O 0.1543 0.93527 0.30003 0.0
C83 C 0.16752 0.89614 0.14478 0.0
Zn84 Zn 0.70295 0.88752 0.83161 0.0
Zn85 Zn 0.73763 0.90853 0.86312 0.0
O86 O 0.71737 0.9065 0.96729 0.0
O87 O 0.6872 0.89758 0.90574 0.0
O88 O 0.7597 0.93917 0.84591 0.0
O89 O 0.6989 0.88516 0.70223 0.0
O90 O 0.73184 0.89634 0.73393 0.0
C91 C 0.69851 0.90293 0.97371 0.0
C92 C 0.73109 0.87132 0.91908 0.0
O93 O 0.74703 0.88991 0.91567 0.0
O94 O 0.71325 0.86795 0.89069 0.0
C95 C 0.75151 0.9484 0.80431 0.0
O96 O 0.73133 0.93746 0.78591 0.0
C97 C 0.71678 0.88841 0.67849 0.0
Zn98 Zn 0.08962 0.81372 0.79079 0.0
Zn99 Zn 0.06677 0.82487 0.85754 0.0
O100 O 0.06892 0.8025 0.93751 0.0
O101 O 0.08368 0.78811 0.86118 0.0
O102 O 0.03746 0.82004 0.87746 0.0
O103 O 0.08239 0.81161 0.66304 0.0
O104 O 0.07021 0.83049 0.7226 0.0
C105 C 0.07515 0.78908 0.93186 0.0
C106 C 0.1085 0.85638 0.88576 0.0
O107 O 0.08981 0.85216 0.90417 0.0
O108 O 0.11135 0.84323 0.8415 0.0
C109 C 0.02357 0.80055 0.87481 0.0
O110 O 0.02989 0.78663 0.87179 0.0
C111 C 0.07557 0.82431 0.65422 0.0
Zn112 Zn 0.17173 0.2864 0.87864 0.0
Zn113 Zn 0.17471 0.25597 0.87663 0.0
O114 O 0.19973 0.28065 0.94247 0.0
O115 O 0.20126 0.30985 0.89884 0.0
O116 O 0.18614 0.2406 0.80776 0.0
O117 O 0.15299 0.28558 0.78238 0.0
O118 O 0.15037 0.25463 0.80187 0.0
C119 C 0.20886 0.30072 0.94395 0.0
C120 C 0.1492 0.24991 0.01292 0.0
O121 O 0.15734 0.23979 0.97852 0.0
O122 O 0.15378 0.2681 0.98419 0.0
C123 C 0.19337 0.22969 0.84177 0.0
O124 O 0.19288 0.22747 0.92761 0.0
C125 C 0.14301 0.26581 0.77068 0.0
Zn126 Zn 0.87392 0.70625 0.56602 0.0
Zn127 Zn 0.90974 0.73359 0.60994 0.0
O128 O 0.9101 0.70724 0.56053 0.0
O129 O 0.87768 0.68096 0.56644 0.0
O130 O 0.9342 0.74784 0.69306 0.0
O131 O 0.85368 0.70942 0.64339 0.0
O132 O 0.88544 0.73618 0.66641 0.0
C133 C 0.89691 0.6877 0.54989 0.0
C134 C 0.9008 0.74422 0.44751 0.0
O135 O 0.91552 0.75156 0.50378 0.0
O136 O 0.884 0.72667 0.46018 0.0
C137 C 0.94151 0.76667 0.72007 0.0
O138 O 0.93293 0.77768 0.69255 0.0
C139 C 0.8655 0.72753 0.67516 0.0
Zn140 Zn 0.24279 0.12828 0.49052 0.0
Zn141 Zn 0.23634 0.15567 0.57812 0.0
O142 O 0.26488 0.17788 0.53171 0.0
O143 O 0.26188 0.15646 0.42397 0.0
O144 O 0.2256 0.17072 0.65316 0.0
O145 O 0.25479 0.12052 0.58897 0.0
O146 O 0.23847 0.13424 0.66229 0.0
C147 C 0.27062 0.17489 0.45676 0.0
C148 C 0.20891 0.12552 0.45139 0.0
O149 O 0.21746 0.14505 0.46762 0.0
O150 O 0.21085 0.1149 0.51165 0.0
C151 C 0.22565 0.1869 0.62262 0.0
O152 O 0.2326 0.19311 0.54225 0.0
C153 C 0.24705 0.1227 0.65978 0.0
Zn154 Zn 0.81314 0.10927 0.62481 0.0
Zn155 Zn 0.80705 0.07314 0.59354 0.0
O156 O 0.7801 0.07551 0.57996 0.0
O157 O 0.78349 0.10327 0.64795 0.0
O158 O 0.79461 0.04172 0.61259 0.0
O159 O 0.8361 0.1183 0.71312 0.0
O160 O 0.8307 0.08647 0.68613 0.0
C161 C 0.77219 0.08679 0.60358 0.0
C162 C 0.82755 0.10248 0.45157 0.0
O163 O 0.82255 0.08396 0.47777 0.0
O164 O 0.82394 0.11459 0.49883 0.0
C165 C 0.80263 0.03342 0.66152 0.0
O166 O 0.82187 0.04517 0.69127 0.0
C167 C 0.84123 0.1043 0.72328 0.0
Zn168 Zn 0.96738 0.44401 0.48217 0.0
Zn169 Zn 0.93176 0.41481 0.45349 0.0
O170 O 0.95264 0.41338 0.36266 0.0
O171 O 0.98458 0.43576 0.40649 0.0
O172 O 0.90917 0.3844 0.46808 0.0
O173 O 0.96973 0.44585 0.61381 0.0
O174 O 0.9364 0.42635 0.58188 0.0
C175 C 0.97252 0.42192 0.35226 0.0
C176 C 0.93479 0.45235 0.39209 0.0
O177 O 0.92178 0.43257 0.39327 0.0
O178 O 0.95318 0.45946 0.42395 0.0
C179 C 0.89626 0.3782 0.53215 0.0
O180 O 0.89519 0.39235 0.58128 0.0
C181 C 0.95067 0.43742 0.63745 0.0
Zn182 Zn 0.57158 0.5105 0.43036 0.0
Zn183 Zn 0.59817 0.50697 0.37241 0.0
O184 O 0.59567 0.53197 0.31747 0.0
O185 O 0.57759 0.54014 0.40704 0.0
O186 O 0.62887 0.5182 0.39892 0.0
O187 O 0.56589 0.49734 0.55085 0.0
O188 O 0.58064 0.4839 0.46846 0.0
C189 C 0.58791 0.54366 0.33624 0.0
C190 C 0.56734 0.48309 0.2648 0.0
O191 O 0.58679 0.48858 0.26957 0.0
O192 O 0.55914 0.48974 0.32163 0.0
C193 C 0.63734 0.53549 0.44131 0.0
O194 O 0.62586 0.54419 0.45959 0.0
C195 C 0.5698 0.48265 0.53608 0.0
Zn196 Zn 0.48827 0.04665 0.43014 0.0
Zn197 Zn 0.48335 0.07722 0.41581 0.0
O198 O 0.45483 0.04887 0.41132 0.0
O199 O 0.45987 0.02555 0.47993 0.0
O200 O 0.47487 0.09865 0.44646 0.0
O201 O 0.51517 0.06007 0.49801 0.0
O202 O 0.509 0.08645 0.49744 0.0
C203 C 0.44744 0.03018 0.44133 0.0
C204 C 0.49667 0.06632 0.25592 0.0
O205 O 0.49559 0.0813 0.29362 0.0
O206 O 0.49213 0.04951 0.29743 0.0
C207 C 0.46874 0.09694 0.52594 0.0
O208 O 0.4684 0.08196 0.57505 0.0
C209 C 0.52074 0.0789 0.51805 0.0
Zn210 Zn 0.77889 0.57741 0.8553 0.0
Zn211 Zn 0.74801 0.58477 0.75317 0.0
O212 O 0.7673 0.61521 0.78837 0.0
O213 O 0.78857 0.60951 0.87358 0.0
O214 O 0.72569 0.58192 0.6682 0.0
O215 O 0.79097 0.57194 0.75023 0.0
O216 O 0.76527 0.57383 0.68253 0.0
C217 C 0.7827 0.62191 0.84193 0.0
C218 C 0.73841 0.55978 0.90313 0.0
O219 O 0.7321 0.57117 0.86756 0.0
O220 O 0.74792 0.55393 0.8519 0.0
C221 C 0.71564 0.564 0.63101 0.0
O222 O 0.72079 0.54962 0.6498 0.0
C223 C 0.78043 0.56982 0.68133 0.0
Zn224 Zn 0.37134 0.1529 0.671 0.0
Zn225 Zn 0.40464 0.15704 0.71594 0.0
O226 O 0.38061 0.13508 0.79983 0.0
O227 O 0.3505 0.12842 0.74271 0.0
O228 O 0.42518 0.14649 0.71131 0.0
O229 O 0.37149 0.15074 0.53986 0.0
O230 O 0.40407 0.16621 0.58536 0.0
C231 C 0.3605 0.12499 0.80173 0.0
C232 C 0.40435 0.19293 0.76784 0.0
O233 O 0.41573 0.18446 0.77806 0.0
O234 O 0.38687 0.18299 0.727 0.0
C235 C 0.4396 0.15289 0.65338 0.0
O236 O 0.44338 0.16926 0.60453 0.0
C237 C 0.39088 0.16211 0.52353 0.0
Zn238 Zn 0.84076 0.2242 0.6589 0.0
Zn239 Zn 0.84679 0.25455 0.73715 0.0
O240 O 0.87254 0.24972 0.75029 0.0
O241 O 0.86833 0.22528 0.65705 0.0
O242 O 0.85852 0.28585 0.73197 0.0
O243 O 0.82882 0.2278 0.546 0.0
O244 O 0.82219 0.24465 0.64738 0.0
C245 C 0.87906 0.23803 0.717 0.0
C246 C 0.82108 0.22023 0.84145 0.0
O247 O 0.83115 0.24032 0.84557 0.0
O248 O 0.82191 0.21091 0.77198 0.0
C249 C 0.86538 0.29223 0.65452 0.0
O250 O 0.86552 0.27866 0.59839 0.0
C251 C 0.81825 0.23603 0.57217 0.0
Zn252 Zn 0.36417 0.2215 0.12172 0.0
Zn253 Zn 0.38891 0.25168 0.20057 0.0
O254 O 0.35829 0.24103 0.25329 0.0
O255 O 0.33677 0.21602 0.16449 0.0
O256 O 0.40514 0.28343 0.21385 0.0
O257 O 0.37095 0.22947 -0.00401 0.0
O258 O 0.39886 0.24912 0.07407 0.0
C259 C 0.33954 0.22699 0.2322 0.0
C260 C 0.39274 0.21694 0.25454 0.0
O261 O 0.39976 0.23629 0.27392 0.0
O262 O 0.37915 0.20853 0.19358 0.0
C263 C 0.42356 0.29311 0.18062 0.0
O264 O 0.43262 0.28211 0.15946 0.0
C265 C 0.39061 0.24135 6e-05 0.0
Zn266 Zn 0.7676 0.15191 0.31162 0.0
Zn267 Zn 0.73629 0.1476 0.24968 0.0
O268 O 0.72973 0.12212 0.33468 0.0
O269 O 0.75857 0.12113 0.312 0.0
O270 O 0.70938 0.14073 0.18955 0.0
O271 O 0.78644 0.17089 0.21721 0.0
O272 O 0.75697 0.15651 0.14318 0.0
C273 C 0.74027 0.11268 0.34421 0.0
C274 C 0.75364 0.17693 0.39485 0.0
O275 O 0.74459 0.17413 0.32099 0.0
O276 O 0.76136 0.16542 0.41582 0.0
C277 C 0.69095 0.12776 0.21657 0.0
O278 O 0.68852 0.1179 0.2917 0.0
C279 C 0.77694 0.16844 0.14531 0.0
Zn280 Zn 0.8378 0.61884 0.22997 0.0
Zn281 Zn 0.84371 0.59018 0.20637 0.0
O282 O 0.86922 0.6156 0.26895 0.0
O283 O 0.86715 0.64347 0.23417 0.0
O284 O 0.85515 0.57681 0.12334 0.0
O285 O 0.81583 0.61716 0.14885 0.0
O286 O 0.81723 0.5879 0.14515 0.0
C287 C 0.87707 0.63557 0.27084 0.0
C288 C 0.82194 0.58098 0.35801 0.0
O289 O 0.82944 0.57213 0.30976 0.0
O290 O 0.82451 0.59906 0.33802 0.0
C291 C 0.84492 0.55757 0.09991 0.0
O292 O 0.8263 0.54504 0.13458 0.0
C293 C 0.80758 0.59794 0.12775 0.0
Zn294 Zn 0.55489 0.07558 0.78378 0.0
Zn295 Zn 0.58736 0.08033 0.86481 0.0
O296 O 0.58026 0.05222 0.81044 0.0
O297 O 0.56298 0.05758 0.705 0.0
O298 O 0.61166 0.08861 0.94637 0.0
O299 O 0.53392 0.06098 0.87782 0.0
O300 O 0.56386 0.07824 0.94955 0.0
C301 C 0.57191 0.04777 0.73449 0.0
C302 C 0.5865 0.11107 0.75404 0.0
O303 O 0.5967 0.10137 0.75999 0.0
O304 O 0.57367 0.10722 0.81553 0.0
C305 C 0.62324 0.10765 0.97011 0.0
O306 O 0.62052 0.12249 0.93447 0.0
C307 C 0.54373 0.06906 0.94837 0.0
Zn308 Zn 0.96006 0.52734 0.00906 0.0
Zn309 Zn 0.9232 0.51507 0.9568 0.0
O310 O 0.94432 0.54278 0.89107 0.0
O311 O 0.9754 0.55572 0.9511 0.0
O312 O 0.89531 0.5144 0.9514 0.0
O313 O 0.95546 0.52447 0.13897 0.0
O314 O 0.9234 0.50719 0.08746 0.0
C315 C 0.96365 0.55713 0.89411 0.0
C316 C 0.93901 0.48841 0.89382 0.0
O317 O 0.92326 0.49133 0.88959 0.0
O318 O 0.95511 0.501 0.93849 0.0
C319 C 0.89261 0.52757 0.90671 0.0
O320 O 0.90663 0.53902 0.84674 0.0
C321 C 0.9361 0.51172 0.15147 0.0
Zn322 Zn 0.49154 0.44148 0.82069 0.0
Zn323 Zn 0.47573 0.4071 0.88077 0.0
O324 O 0.4504 0.41164 0.84571 0.0
O325 O 0.46831 0.44606 0.85913 0.0
O326 O 0.46294 0.37775 0.93378 0.0
O327 O 0.51657 0.45069 0.90035 0.0
O328 O 0.49333 0.42525 0.98403 0.0
C329 C 0.45082 0.42925 0.85231 0.0
C330 C 0.50041 0.41998 0.71039 0.0
O331 O 0.4975 0.4104 0.78367 0.0
O332 O 0.49121 0.43046 0.69856 0.0
C333 C 0.45307 0.37428 0.00652 0.0
O334 O 0.45052 0.38935 0.04062 0.0
C335 C 0.5115 0.44144 0.97405 0.0
Zn336 Zn 0.62957 0.78112 0.79864 0.0
Zn337 Zn 0.5995 0.74613 0.8119 0.0
O338 O 0.62449 0.74437 0.75399 0.0
O339 O 0.65267 0.77544 0.76699 0.0
O340 O 0.58192 0.71824 0.87277 0.0
O341 O 0.62968 0.79801 0.90093 0.0
O342 O 0.59898 0.76891 0.89269 0.0
C343 C 0.64419 0.75652 0.74142 0.0
C344 C 0.59236 0.76651 0.67502 0.0
O345 O 0.58385 0.74816 0.70892 0.0
O346 O 0.61022 0.78101 0.70137 0.0
C347 C 0.56296 0.71135 0.89664 0.0
O348 O 0.55409 0.72279 0.88061 0.0
C349 C 0.61035 0.78771 0.92127 0.0
Zn350 Zn 0.21258 0.79751 0.70068 0.0
Zn351 Zn 0.26291 0.8426 0.70483 0.0
O352 O 0.245 0.85446 0.66005 0.0
O353 O 0.21307 0.82555 0.66276 0.0
O354 O 0.29216 0.8654 0.73456 0.0
O355 O 0.23597 0.79766 0.77798 0.0
O356 O 0.25046 0.82973 0.82467 0.0
C357 C 0.22508 0.84534 0.64841 0.0
C358 C 0.24755 0.80572 0.60485 0.0
O359 O 0.26344 0.82413 0.60415 0.0
O360 O 0.24074 0.79794 0.6803 0.0
C361 C 0.30225 0.85802 0.77501 0.0
O362 O 0.29369 0.83741 0.78076 0.0
C363 C 0.24007 0.81017 0.84193 0.0
Zn364 Zn 0.19707 0.42331 0.62135 0.0
Zn365 Zn 0.15865 0.41738 0.71893 0.0
O366 O 0.14654 0.38699 0.68169 0.0
O367 O 0.17373 0.39173 0.6003 0.0
O368 O 0.13841 0.42026 0.79941 0.0
O369 O 0.21317 0.42704 0.72851 0.0
O370 O 0.1858 0.4262 0.79436 0.0
C371 C 0.15506 0.37984 0.62915 0.0
C372 C 0.1762 0.44242 0.57018 0.0
O373 O 0.15818 0.43205 0.60431 0.0
O374 O 0.19103 0.44779 0.62363 0.0
C375 C 0.14534 0.43751 0.84133 0.0
O376 O 0.16531 0.45188 0.83269 0.0
C377 C 0.20453 0.42897 0.79717 0.0
Zn378 Zn 0.43523 0.94295 0.21024 0.0
Zn379 Zn 0.40218 0.92162 0.14001 0.0
O380 O 0.39867 0.94403 0.21429 0.0
O381 O 0.43204 0.96834 0.21823 0.0
O382 O 0.37533 0.90449 0.07348 0.0
O383 O 0.45203 0.9398 0.11272 0.0
O384 O 0.42357 0.93126 0.03687 0.0
C385 C 0.41299 0.96288 0.23184 0.0
C386 C 0.4149 0.90365 0.28814 0.0
O387 O 0.4056 0.89986 0.2143 0.0
O388 O 0.4259 0.92262 0.31265 0.0
C389 C 0.37122 0.91229 0.00677 0.0
O390 O 0.38328 0.93246 -0.01134 0.0
C391 C 0.44269 0.93555 0.03956 0.0
Zn392 Zn 0.03443 0.48097 0.95073 0.0
Zn393 Zn 0.06601 0.48363 0.01424 0.0
O394 O 0.03884 0.45644 0.05372 0.0
O395 O 0.01156 0.45108 0.97647 0.0
O396 O 0.0891 0.47622 0.01293 0.0
O397 O 0.04434 0.49257 0.82868 0.0
O398 O 0.07276 0.5041 0.90824 0.0
C399 C 0.0192 0.44529 0.03776 0.0
C400 C 0.05476 0.50839 0.11342 0.0
O401 O 0.06827 0.50227 0.11336 0.0
O402 O 0.04084 0.50236 0.0533 0.0
C403 C 0.08422 0.45826 0.98119 0.0
O404 O 0.06459 0.44557 0.95779 0.0
C405 C 0.0637 0.50555 0.83947 0.0
Zn406 Zn 0.50687 0.55063 0.05606 0.0
Zn407 Zn 0.51636 0.58712 0.09031 0.0
O408 O 0.54203 0.58271 0.10972 0.0
O409 O 0.53527 0.55287 0.04925 0.0
O410 O 0.52935 0.61841 0.07129 0.0
O411 O 0.4869 0.54307 0.95699 0.0
O412 O 0.49186 0.57391 -0.00061 0.0
C413 C 0.54781 0.56938 0.09079 0.0
C414 C 0.49144 0.55892 0.22553 0.0
O415 O 0.50103 0.57843 0.20525 0.0
O416 O 0.49223 0.54548 0.17534 0.0
C417 C 0.51853 0.6268 0.04802 0.0
O418 O 0.49796 0.6149 0.04316 0.0
C419 C 0.48163 0.5571 0.95456 0.0
Zn420 Zn 0.02737 0.55611 0.56727 0.0
Zn421 Zn 0.05296 0.58913 0.51066 0.0
O422 O 0.03038 0.59196 0.58547 0.0
O423 O 0.00286 0.56116 0.56105 0.0
O424 O 0.06954 0.61766 0.45287 0.0
O425 O 0.03279 0.53999 0.475 0.0
O426 O 0.04518 0.56968 0.40183 0.0
C427 C 0.01054 0.57955 0.59208 0.0
C428 C 0.0644 0.57147 0.66068 0.0
O429 O 0.0714 0.58162 0.58874 0.0
O430 O 0.04499 0.56335 0.67813 0.0
C431 C 0.08914 0.63086 0.44991 0.0
O432 O 0.10228 0.62721 0.49489 0.0
C433 C 0.04006 0.55028 0.40456 0.0
Zn434 Zn 0.4329 0.51928 0.70412 0.0
Zn435 Zn 0.39827 0.49579 0.63329 0.0
O436 O 0.40125 0.47085 0.67047 0.0
O437 O 0.42265 0.49114 0.77365 0.0
O438 O 0.37113 0.48537 0.56696 0.0
O439 O 0.45218 0.52429 0.60764 0.0
O440 O 0.42188 0.51397 0.54035 0.0
C441 C 0.41138 0.47286 0.74094 0.0
C442 C 0.40859 0.5294 0.75149 0.0
O443 O 0.39642 0.50961 0.75042 0.0
O444 O 0.41794 0.53681 0.68014 0.0
C445 C 0.3549 0.46745 0.57991 0.0
O446 O 0.35538 0.45514 0.64187 0.0
C447 C 0.44202 0.52299 0.53871 0.0
Zn448 Zn 0.49684 0.94175 0.5309 0.0
Zn449 Zn 0.50809 0.9203 0.60538 0.0
O450 O 0.53218 0.95217 0.60236 0.0
O451 O 0.52271 0.96917 0.51195 0.0
O452 O 0.5233 0.90367 0.60591 0.0
O453 O 0.4831 0.92434 0.42519 0.0
O454 O 0.48258 0.90196 0.52136 0.0
C455 C 0.5362 0.96929 0.5636 0.0
C456 C 0.4827 0.92812 0.72051 0.0
O457 O 0.49397 0.91934 0.71924 0.0
O458 O 0.48098 0.93702 0.65125 0.0
C459 C 0.53848 0.91027 0.55122 0.0
O460 O 0.54376 0.92762 0.50659 0.0
C461 C 0.47586 0.90551 0.4499 0.0
Zn462 Zn 0.20701 0.37293 0.25399 0.0
Zn463 Zn 0.24365 0.40053 0.27187 0.0
O464 O 0.24203 0.37302 0.22702 0.0
O465 O 0.20998 0.34716 0.25066 0.0
O466 O 0.26986 0.41487 0.34558 0.0
O467 O 0.18966 0.37789 0.34093 0.0
O468 O 0.22151 0.40545 0.3361 0.0
C469 C 0.22859 0.35338 0.22517 0.0
C470 C 0.22929 0.40866 0.11864 0.0
O471 O 0.24646 0.41631 0.16129 0.0
O472 O 0.21304 0.39179 0.14435 0.0
C473 C 0.28152 0.43477 0.35094 0.0
O474 O 0.2767 0.44698 0.30483 0.0
C475 C 0.20216 0.39713 0.35797 0.0
Zn476 Zn 0.59407 0.81299 0.19874 0.0
Zn477 Zn 0.59164 0.84618 0.27865 0.0
O478 O 0.62309 0.86344 0.26596 0.0
O479 O 0.62369 0.83968 0.1782 0.0
O480 O 0.58242 0.86433 0.34297 0.0
O481 O 0.59126 0.79696 0.30308 0.0
O482 O 0.58282 0.81959 0.36023 0.0
C483 C 0.63295 0.85788 0.21357 0.0
C484 C 0.57139 0.82432 0.12423 0.0
O485 O 0.58235 0.84325 0.14843 0.0
O486 O 0.5652 0.81131 0.18636 0.0
C487 C 0.5675 0.85673 0.39904 0.0
O488 O 0.55694 0.83624 0.41248 0.0
C489 C 0.58367 0.80251 0.3653 0.0
Zn490 Zn 0.15581 0.79489 0.25779 0.0
Zn491 Zn 0.14617 0.75595 0.24612 0.0
O492 O 0.11997 0.75795 0.20773 0.0
O493 O 0.12624 0.78962 0.24317 0.0
O494 O 0.13598 0.7255 0.27748 0.0
O495 O 0.17208 0.80305 0.37056 0.0
O496 O 0.1661 0.77087 0.34934 0.0
C497 C 0.11398 0.77159 0.21127 0.0
C498 C 0.17609 0.78311 0.11413 0.0
O499 O 0.16571 0.76418 0.14216 0.0
O500 O 0.17364 0.79745 0.14975 0.0
C501 C 0.11792 0.70997 0.25997 0.0
O502 O 0.10483 0.7132 0.2125 0.0
C503 C 0.17542 0.78822 0.39109 0.0
C504 C 0.20692 0.98208 0.31591 0.0
C505 C 0.1848 0.97044 0.31017 0.0
C506 C 0.21848 0.00256 0.28109 0.0
C507 C 0.20841 0.01233 0.23935 0.0
H508 H 0.21554 0.975 0.34378 0.0
H509 H 0.2355 0.01048 0.2844 0.0
S510 S 0.15056 0.98988 0.2193 0.0
N511 N 0.15313 0.97113 0.26829 0.0
N512 N 0.17476 0.00957 0.20328 0.0
C513 C 0.18621 0.00142 0.23855 0.0
C514 C 0.17445 0.98052 0.27385 0.0
C515 C -0.00203 0.23266 0.17225 0.0
C516 C 0.98034 0.21224 0.18011 0.0
C517 C 0.01579 0.23921 0.22558 0.0
C518 C 0.01665 0.22557 0.28872 0.0
H519 H -0.00184 0.24362 0.12373 0.0
H520 H 0.02912 0.25493 0.21604 0.0
S521 S 0.97388 0.17123 0.34184 0.0
N522 N 0.96438 0.17895 0.26061 0.0
N523 N -0.00224 0.1912 0.36012 0.0
C524 C -0.00107 0.20531 0.29881 0.0
C525 C 0.98081 0.19866 0.24475 0.0
C526 C 0.79007 0.7922 0.30645 0.0
C527 C 0.76923 0.77603 0.32161 0.0
C528 C 0.8049 0.78785 0.26823 0.0
C529 C 0.79946 0.76718 0.24361 0.0
H530 H 0.79472 0.80851 0.31964 0.0
H531 H 0.82044 0.80101 0.25401 0.0
S532 S 0.74812 0.71871 0.28564 0.0
N533 N 0.74478 0.73815 0.32111 0.0
N534 N 0.7726 0.73001 0.24911 0.0
C535 C 0.77918 0.75066 0.26527 0.0
C536 C 0.76409 0.75508 0.30429 0.0
C537 C 0.78652 0.98023 0.76764 0.0
C538 C 0.76439 0.97034 0.7705 0.0
C539 C 0.79877 0.00049 0.73103 0.0
C540 C 0.78936 0.01157 0.69534 0.0
H541 H 0.79447 0.9722 0.79289 0.0
H542 H 0.81574 0.00747 0.73037 0.0
S543 S 0.73213 0.99347 0.69356 0.0
N544 N 0.73369 0.97381 0.73919 0.0
N545 N 0.7566 0.01159 0.67001 0.0
C546 C 0.76727 0.00198 0.69904 0.0
C547 C 0.75484 0.98148 0.73679 0.0
C548 C 0.98654 0.77167 0.85831 0.0
C549 C 0.00122 0.79342 0.85482 0.0
C550 C 0.96676 0.76334 0.8189 0.0
C551 C 0.96076 0.77643 0.77493 0.0
H552 H 0.99076 0.76075 0.88734 0.0
H553 H 0.95647 0.74636 0.81965 0.0
S554 S 0.99196 0.83491 0.76026 0.0
N555 N 0.00738 0.82824 0.81369 0.0
N556 N 0.97 0.81257 0.74025 0.0
C557 C 0.97446 0.79842 0.7782 0.0
C558 C -0.00525 0.80694 0.81813 0.0
C559 C 0.21236 0.19262 0.76575 0.0
C560 C 0.21786 0.19839 0.6771 0.0
C561 C 0.2047 0.20298 0.81862 0.0
C562 C 0.20204 0.21941 0.78486 0.0
H563 H 0.21394 0.17996 0.79487 0.0
H564 H 0.20058 0.19785 0.8862 0.0
S565 S 0.21485 0.24117 0.55781 0.0
N566 N 0.22066 0.22209 0.55864 0.0
N567 N 0.20616 0.24146 0.65764 0.0
C568 C 0.20768 0.22551 0.69655 0.0
C569 C 0.21562 0.21505 0.64285 0.0
C570 C 0.88298 0.32113 0.54415 0.0
C571 C 0.87227 0.31405 0.62486 0.0
C572 C 0.88976 0.34154 0.51302 0.0
C573 C 0.88613 0.35582 0.56115 0.0
H574 H 0.8865 0.31094 0.50483 0.0
H575 H 0.8984 0.34626 0.45154 0.0
S576 S 0.85698 0.34444 0.77284 0.0
N577 N 0.85706 0.32243 0.74979 0.0
N578 N 0.86979 0.3609 0.69139 0.0
C579 C 0.87473 0.34871 0.6406 0.0
C580 C 0.86787 0.32785 0.67254 0.0
C581 C 0.66818 0.53172 0.48555 0.0
C582 C 0.65873 0.54432 0.4794 0.0
C583 C 0.687 0.53861 0.5319 0.0
C584 C 0.69721 0.55843 0.57368 0.0
H585 H 0.66059 0.51604 0.45742 0.0
H586 H 0.69323 0.52799 0.53697 0.0
S587 S 0.68046 0.59866 0.56695 0.0
N588 N 0.6621 0.57848 0.51151 0.0
N589 N 0.69747 0.59142 0.59839 0.0
C590 C 0.68861 0.57172 0.56349 0.0
C591 C 0.66937 0.56466 0.51653 0.0
C592 C 0.46177 0.14467 0.55391 0.0
C593 C 0.44882 0.13955 0.62897 0.0
C594 C 0.46824 0.13089 0.52145 0.0
C595 C 0.46221 0.11151 0.56316 0.0
H596 H 0.46647 0.15918 0.51806 0.0
H597 H 0.47793 0.13543 0.46273 0.0
S598 S 0.42921 0.0909 0.76444 0.0
N599 N 0.43087 0.11393 0.74623 0.0
N600 N 0.44307 0.08812 0.68538 0.0
C601 C 0.44985 0.10646 0.64002 0.0
C602 C 0.44318 0.12045 0.67293 0.0
C603 C 0.44796 0.32219 0.0797 0.0
C604 C 0.43221 0.31488 0.14513 0.0
C605 C 0.45447 0.34129 0.03523 0.0
C606 C 0.44575 0.3541 0.055 0.0
H607 H 0.45493 0.31278 0.06026 0.0
H608 H 0.46644 0.346 0.98473 0.0
S609 S 0.40488 0.34289 0.22452 0.0
N610 N 0.40862 0.32245 0.22988 0.0
N611 N 0.42105 0.35851 0.14728 0.0
C612 C 0.43048 0.34737 0.12233 0.0
C613 C 0.42368 0.32776 0.1671 0.0
C614 C 0.67524 0.13675 0.08974 0.0
C615 C 0.67272 0.123 0.15972 0.0
C616 C 0.65893 0.13194 0.0301 0.0
C617 C 0.63965 0.11301 0.03713 0.0
H618 H 0.69005 0.15128 0.08014 0.0
H619 H 0.66169 0.14282 0.97652 0.0
S620 S 0.62415 0.07256 0.21262 0.0
N621 N 0.64872 0.09037 0.23613 0.0
N622 N 0.61821 0.08117 0.12274 0.0
C623 C 0.6366 0.09943 0.10817 0.0
C624 C 0.65309 0.10448 0.1699 0.0
C625 C 0.85038 0.52819 0.04848 0.0
C626 C 0.85467 0.5491 0.03913 0.0
C627 C 0.86173 0.5208 0.00046 0.0
C628 C 0.87753 0.53392 0.94015 0.0
H629 H 0.83902 0.51781 0.0968 0.0
H630 H 0.85876 0.50497 0.01375 0.0
S631 S 0.89192 0.58882 0.88013 0.0
N632 N 0.87382 0.58199 0.95748 0.0
N633 N 0.89483 0.56806 0.86575 0.0
C634 C 0.88061 0.55428 0.92467 0.0
C635 C 0.86931 0.56191 0.97474 0.0
C636 C 0.56206 0.68041 0.97089 0.0
C637 C 0.55112 0.69042 0.94042 0.0
C638 C 0.55143 0.66021 0.00831 0.0
C639 C 0.52933 0.64902 0.0164 0.0
H640 H 0.57905 0.68812 0.96504 0.0
H641 H 0.56067 0.65316 0.02905 0.0
S642 S 0.49324 0.66853 0.95086 0.0
N643 N 0.51693 0.68795 0.92423 0.0
N644 N 0.49688 0.64988 -0.00591 0.0
C645 C 0.51818 0.65905 -0.01155 0.0
C646 C 0.52908 0.67975 0.95067 0.0
C647 C 0.34423 0.90666 0.89315 0.0
C648 C 0.35424 0.89844 0.94559 0.0
C649 C 0.32792 0.89367 0.83561 0.0
C650 C 0.3212 0.87202 0.82763 0.0
H651 H 0.34869 0.92316 0.89803 0.0
H652 H 0.32022 0.90058 0.79877 0.0
S653 S 0.34445 0.84352 0.94198 0.0
N654 N 0.35764 0.86782 0.9803 0.0
N655 N 0.32731 0.84348 0.87166 0.0
C656 C 0.33184 0.86388 0.87678 0.0
C657 C 0.34824 0.87705 0.93598 0.0
C658 C 0.10896 0.42736 0.8915 0.0
C659 C 0.1306 0.44232 0.88963 0.0
C660 C 0.09425 0.43239 0.92549 0.0
C661 C 0.10052 0.45259 0.95922 0.0
H662 H 0.10315 0.41181 0.86356 0.0
H663 H 0.07773 0.42048 0.92233 0.0
S664 S 0.15558 0.49665 0.98066 0.0
N665 N 0.1578 0.4776 0.93301 0.0
N666 N 0.13011 0.48703 -0.00337 0.0
C667 C 0.12223 0.46728 0.96317 0.0
C668 C 0.13726 0.46216 0.92844 0.0
C669 C 0.11654 0.66817 0.41387 0.0
C670 C 0.09684 0.65036 0.39629 0.0
C671 C 0.12347 0.68716 0.3677 0.0
C672 C 0.11103 0.68909 0.3017 0.0
H673 H 0.12646 0.66766 0.46538 0.0
H674 H 0.13851 0.70058 0.38567 0.0
S675 S 0.0593 0.64625 0.22286 0.0
N676 N 0.06575 0.6353 0.30291 0.0
N677 N 0.0788 0.67089 0.21624 0.0
C678 C 0.09169 0.67111 0.28087 0.0
C679 C 0.0846 0.6518 0.32809 0.0
C680 C 0.31916 0.43922 0.53188 0.0
C681 C 0.33609 0.45998 0.52261 0.0
C682 C 0.30162 0.43131 0.47637 0.0
C683 C 0.30015 0.44386 0.40961 0.0
H684 H 0.3195 0.4288 0.58179 0.0
H685 H 0.2891 0.41517 0.48612 0.0
S686 S 0.33998 0.49942 0.35779 0.0
N687 N 0.35012 0.49308 0.44127 0.0
N688 N 0.31706 0.47819 0.33763 0.0
C689 C 0.31677 0.46476 0.40024 0.0
C690 C 0.33476 0.47281 0.45643 0.0
C691 C 0.53515 0.87484 0.52954 0.0
C692 C 0.54752 0.89696 0.52536 0.0
C693 C 0.542 0.86193 0.49064 0.0
C694 C 0.56149 0.87068 0.44632 0.0
H695 H 0.51961 0.86743 0.55915 0.0
H696 H 0.53157 0.84499 0.49271 0.0
S697 S 0.60123 0.92772 0.43039 0.0
N698 N 0.58116 0.92704 0.48274 0.0
N699 N 0.59414 0.90287 0.41033 0.0
C700 C 0.57456 0.89277 0.44676 0.0
C701 C 0.56755 0.90588 0.48612 0.0
C702 C 0.24935 0.1205 0.82192 0.0
C703 C 0.24764 0.11148 0.73899 0.0
C704 C 0.25163 0.11093 0.89734 0.0
C705 C 0.25184 0.09184 0.89249 0.0
H706 H 0.24971 0.13543 0.8283 0.0
H707 H 0.25361 0.11875 0.95985 0.0
S708 S 0.24544 0.0606 0.69222 0.0
N709 N 0.24463 0.08155 0.65672 0.0
N710 N 0.24858 0.0634 0.79982 0.0
C711 C 0.24893 0.082 0.81085 0.0
C712 C 0.24697 0.09192 0.73359 0.0
C713 C 0.86222 0.09705 0.83278 0.0
C714 C 0.86125 0.10985 0.76648 0.0
C715 C 0.88046 0.10432 0.8837 0.0
C716 C 0.89791 0.12483 0.87115 0.0
H717 H 0.84836 0.0822 0.84987 0.0
H718 H 0.87976 0.09507 0.94071 0.0
S719 S 0.90604 0.15915 0.67812 0.0
N720 N 0.88124 0.14011 0.67087 0.0
N721 N 0.91554 0.15393 0.76715 0.0
C722 C 0.89842 0.13565 0.79391 0.0
C723 C 0.87987 0.12827 0.74223 0.0
C724 C 0.83577 0.7295 0.7482 0.0
C725 C 0.85652 0.73968 0.71543 0.0
C726 C 0.82872 0.74049 0.80081 0.0
C727 C 0.84242 0.76183 0.82245 0.0
H728 H 0.8256 0.71264 0.73986 0.0
H729 H 0.8136 0.73154 0.83333 0.0
S730 S 0.89453 0.79729 0.72225 0.0
N731 N 0.8879 0.77359 0.68504 0.0
N732 N 0.87469 0.794 0.78486 0.0
C733 C 0.86144 0.77287 0.77602 0.0
C734 C 0.86865 0.76178 0.72309 0.0
C735 C 0.1107 0.26646 0.72208 0.0
C736 C 0.12147 0.25519 0.73358 0.0
C737 C 0.09079 0.25703 0.68245 0.0
C738 C 0.08136 0.23619 0.6509 0.0
H739 H 0.11805 0.28298 0.73989 0.0
H740 H 0.08412 0.26695 0.66707 0.0
S741 S 0.09976 0.19803 0.68997 0.0
N742 N 0.11877 0.22058 0.72902 0.0
N743 N 0.08146 0.20308 0.65455 0.0
C744 C 0.09035 0.22388 0.67517 0.0
C745 C 0.11059 0.23342 0.71495 0.0
C746 C 0.73857 0.86444 0.5193 0.0
C747 C 0.72056 0.85014 0.47204 0.0
C748 C 0.73778 0.8784 0.58019 0.0
C749 C 0.71891 0.87852 0.59671 0.0
H750 H 0.75314 0.86417 0.51261 0.0
H751 H 0.75175 0.88817 0.61865 0.0
S752 S 0.66827 0.84687 0.47853 0.0
N753 N 0.68403 0.83906 0.43703 0.0
N754 N 0.68259 0.86519 0.55117 0.0
C755 C 0.70134 0.86573 0.54374 0.0
C756 C 0.70214 0.85153 0.48169 0.0
C757 C 0.09509 0.84004 0.42448 0.0
C758 C 0.10677 0.86221 0.43195 0.0
C759 C 0.08227 0.82741 0.49328 0.0
C760 C 0.08033 0.83651 0.57129 0.0
H761 H 0.09771 0.83219 0.36984 0.0
H762 H 0.07561 0.81046 0.48888 0.0
S763 S 0.1021 0.89374 0.61192 0.0
N764 N 0.11164 0.89272 0.51482 0.0
N765 N 0.08703 0.86897 0.64347 0.0
C766 C 0.089 0.85859 0.57335 0.0
C767 C 0.10242 0.87149 0.50378 0.0
C768 C 0.74659 0.8583 0.03292 0.0
C769 C 0.73203 0.85392 0.96491 0.0
C770 C 0.74396 0.84246 0.09254 0.0
C771 C 0.72661 0.82179 0.08642 0.0
H772 H 0.75904 0.87434 0.04475 0.0
H773 H 0.75451 0.84701 0.14827 0.0
S774 S 0.68755 0.80122 0.90609 0.0
N775 N 0.70235 0.82662 0.88403 0.0
N776 N 0.69727 0.797 -0.00332 0.0
C777 C 0.71356 0.81674 0.01238 0.0
C778 C 0.71629 0.83279 0.95156 0.0
C779 C 0.12354 0.88555 -0.00392 0.0
C780 C 0.12686 0.87431 0.92897 0.0
C781 C 0.139 0.89646 0.05986 0.0
C782 C 0.158 0.89604 0.05921 0.0
H783 H 0.10821 0.88409 0.00518 0.0
H784 H 0.13477 0.90264 0.11611 0.0
S785 S 0.1774 0.87622 0.87889 0.0
N786 N 0.15305 0.86927 0.8505 0.0
N787 N 0.18163 0.88891 0.97305 0.0
C788 C 0.1629 0.88823 0.98411 0.0
C789 C 0.14736 0.87749 0.9182 0.0
C790 C 0.13982 0.2348 0.16318 0.0
C791 C 0.13428 0.24128 0.0861 0.0
C792 C 0.12911 0.23303 0.24179 0.0
C793 C 0.11262 0.23774 0.2453 0.0
H794 H 0.15358 0.23293 0.1645 0.0
H795 H 0.13485 0.22945 0.30126 0.0
S796 S 0.0892 0.25018 0.05446 0.0
N797 N 0.10915 0.24854 0.01293 0.0
N798 N 0.08887 0.24517 0.16055 0.0
C799 C 0.10537 0.24165 0.16594 0.0
C800 C 0.11633 0.2435 0.08622 0.0
C801 C 0.90377 0.75926 0.21258 0.0
C802 C 0.88749 0.76424 0.20902 0.0
C803 C 0.91038 0.75525 0.29306 0.0
C804 C 0.90124 0.75664 0.37174 0.0
H805 H 0.90998 0.75634 0.15291 0.0
H806 H 0.92111 0.7491 0.29305 0.0
S807 S 0.86222 0.7742 0.4002 0.0
N808 N 0.86546 0.7742 0.29272 0.0
N809 N 0.87813 0.76678 0.44377 0.0
C810 C 0.88712 0.76427 0.36994 0.0
C811 C 0.8802 0.76813 0.28838 0.0
C812 C 0.23746 0.13204 0.2411 0.0
C813 C 0.23677 0.11242 0.23646 0.0
C814 C 0.22512 0.13549 0.30173 0.0
C815 C 0.21202 0.11958 0.36153 0.0
H816 H 0.24852 0.1453 0.20138 0.0
H817 H 0.22781 0.1514 0.30841 0.0
S818 S 0.19882 0.06354 0.35508 0.0
N819 N 0.21771 0.07548 0.28124 0.0
N820 N 0.19446 0.08201 0.39472 0.0
C821 C 0.20849 0.09903 0.34693 0.0
C822 C 0.22114 0.09551 0.28562 0.0
C823 C 0.83093 0.1142 0.29688 0.0
C824 C 0.8403 0.11172 0.37264 0.0
C825 C 0.84333 0.127 0.22744 0.0
C826 C 0.86555 0.13803 0.23196 0.0
H827 H 0.81393 0.10665 0.29226 0.0
H828 H 0.83533 0.12826 0.1699 0.0
S829 S 0.89732 0.13742 0.42076 0.0
N830 N 0.87265 0.12155 0.45111 0.0
N831 N 0.89619 0.14578 0.32103 0.0
C832 C 0.87502 0.13564 0.3083 0.0
C833 C 0.86232 0.12245 0.37857 0.0
C834 C 0.94341 0.48921 0.36024 0.0
C835 C 0.92993 0.46741 0.34717 0.0
C836 C 0.94341 0.5041 0.30245 0.0
C837 C 0.92985 0.49775 0.22969 0.0
H838 H 0.95523 0.49481 0.41146 0.0
H839 H 0.95543 0.52051 0.31027 0.0
S840 S 0.88763 0.44302 0.18028 0.0
N841 N 0.89983 0.44051 0.26667 0.0
N842 N 0.89956 0.46856 0.15859 0.0
C843 C 0.9142 0.47628 0.22357 0.0
C844 C 0.91433 0.46105 0.28215 0.0
C845 C 0.53212 0.45788 0.20446 0.0
C846 C 0.55403 0.47016 0.19159 0.0
C847 C 0.5185 0.44776 0.13425 0.0
C848 C 0.52628 0.45005 0.04823 0.0
H849 H 0.52534 0.45657 0.26903 0.0
H850 H 0.5017 0.43893 0.14696 0.0
S851 S 0.58243 0.47924 0.97972 0.0
N852 N 0.58301 0.48292 0.087 0.0
N853 N 0.55732 0.46426 0.95422 0.0
C854 C 0.54821 0.46162 0.03465 0.0
C855 C 0.56213 0.47158 0.10658 0.0
C856 C 0.50978 0.05608 0.02941 0.0
C857 C 0.53183 0.06937 0.02633 0.0
C858 C 0.49803 0.05606 0.10208 0.0
C859 C 0.50785 0.06981 0.17257 0.0
H860 H 0.50156 0.04519 0.97638 0.0
H861 H 0.48128 0.04485 0.1043 0.0
S862 S 0.5648 0.10772 0.19797 0.0
N863 N 0.56289 0.09666 0.10136 0.0
N864 N 0.54052 0.09685 0.23662 0.0
C865 C 0.52967 0.08354 0.16975 0.0
C866 C 0.54175 0.08326 0.09693 0.0
C867 C 0.75709 0.58765 0.01604 0.0
C868 C 0.74846 0.56644 -0.00985 0.0
C869 C 0.77585 0.59765 0.06438 0.0
C870 C 0.78618 0.5866 0.08946 0.0
H871 H 0.75102 0.59731 -0.01049 0.0
H872 H 0.78304 0.61445 0.07616 0.0
S873 S 0.76473 0.52879 0.06862 0.0
N874 N 0.74781 0.53337 0.01532 0.0
N875 N 0.78283 0.55188 0.1072 0.0
C876 C 0.77548 0.56455 0.0777 0.0
C877 C 0.75643 0.55446 0.02891 0.0
C878 C 0.39851 0.22331 0.78541 0.0
C879 C 0.40929 0.21284 0.81229 0.0
C880 C 0.39544 0.23633 0.84337 0.0
C881 C 0.40327 0.23941 0.92943 0.0
H882 H 0.39034 0.21957 0.72297 0.0
H883 H 0.38466 0.24173 0.82461 0.0
S884 S 0.43871 0.22162 0.02059 0.0
N885 N 0.43237 0.21082 0.92204 0.0
N886 N 0.42697 0.23578 0.03043 0.0
C887 C 0.4175 0.23246 0.95069 0.0
C888 C 0.42038 0.2189 0.89208 0.0
C889 C 0.79052 0.18854 0.90965 0.0
C890 C 0.80979 0.20746 0.91922 0.0
C891 C 0.77999 0.17581 0.98278 0.0
C892 C 0.78871 0.18127 0.0676 0.0
H893 H 0.78341 0.18367 0.84531 0.0
H894 H 0.76498 0.16158 0.97272 0.0
S895 S 0.83961 0.22875 0.126 0.0
N896 N 0.83751 0.23077 0.01888 0.0
N897 N 0.81821 0.20678 0.15587 0.0
C898 C 0.80827 0.19999 0.07732 0.0
C899 C 0.81868 0.21312 0.00328 0.0
C900 C 0.40911 0.21123 0.38896 0.0
C901 C 0.39758 0.20324 0.31078 0.0
C902 C 0.40901 0.19761 0.45433 0.0
C903 C 0.39716 0.17555 0.44419 0.0
H904 H 0.41695 0.22798 0.40288 0.0
H905 H 0.41656 0.20435 0.51648 0.0
S906 S 0.3689 0.14686 0.24405 0.0
N907 N 0.37777 0.17194 0.22007 0.0
N908 N 0.37686 0.14649 0.34513 0.0
C909 C 0.38758 0.16749 0.363 0.0
C910 C 0.38802 0.18131 0.29561 0.0
C911 C 0.79646 0.2299 0.43971 0.0
C912 C 0.79764 0.2287 0.53141 0.0
C913 C 0.77881 0.21465 0.3942 0.0
C914 C 0.76254 0.19733 0.43926 0.0
H915 H 0.81018 0.24104 0.40242 0.0
H916 H 0.77964 0.21452 0.32306 0.0
S917 S 0.75607 0.1903 0.68029 0.0
N918 N 0.77904 0.21204 0.66674 0.0
N919 N 0.7466 0.18236 0.58043 0.0
C920 C 0.76212 0.1979 0.53123 0.0
C921 C 0.77965 0.21392 0.57771 0.0
C922 C 0.80761 0.56685 0.59306 0.0
C923 C 0.78793 0.56599 0.5967 0.0
C924 C 0.81793 0.56916 0.51275 0.0
C925 C 0.80869 0.57036 0.43414 0.0
H926 H 0.81596 0.56754 0.65277 0.0
H927 H 0.83392 0.57198 0.51298 0.0
S928 S 0.75559 0.56371 0.40491 0.0
N929 N 0.75812 0.56255 0.51231 0.0
N930 N 0.7777 0.56696 0.36179 0.0
C931 C 0.7881 0.56693 0.43571 0.0
C932 C 0.7776 0.56466 0.51708 0.0
C933 C 0.57569 0.09713 0.60309 0.0
C934 C 0.57805 0.11206 0.66683 0.0
C935 C 0.55733 0.08701 0.55235 0.0
C936 C 0.54139 0.09231 0.56049 0.0
H937 H 0.58645 0.09104 0.60099 0.0
H938 H 0.55511 0.07414 0.51027 0.0
S939 S 0.54482 0.13679 0.69006 0.0
N940 N 0.56645 0.13624 0.71519 0.0
N941 N 0.5322 0.11771 0.6179 0.0
C942 C 0.54571 0.11014 0.61056 0.0
C943 C 0.5643 0.12025 0.66278 0.0
C944 C 0.96113 0.45773 0.7782 0.0
C945 C 0.9452 0.44519 0.71808 0.0
C946 C 0.95842 0.47059 0.83877 0.0
C947 C 0.93969 0.47158 0.84149 0.0
H948 H 0.97636 0.4587 0.77475 0.0
H949 H 0.97165 0.48075 0.88017 0.0
S950 S 0.89146 0.4385 0.71114 0.0
N951 N 0.90871 0.43201 0.67515 0.0
N952 N 0.90373 0.45629 0.78839 0.0
C953 C 0.92286 0.45752 0.78808 0.0
C954 C 0.92557 0.44426 0.72676 0.0
C955 C 0.55603 0.45976 0.66961 0.0
C956 C 0.5562 0.46198 0.57799 0.0
C957 C 0.53886 0.44285 0.71224 0.0
C958 C 0.52083 0.42844 0.66496 0.0
H959 H 0.56844 0.47196 0.70893 0.0
H960 H 0.53858 0.44274 0.78338 0.0
S961 S 0.5152 0.42559 0.42293 0.0
N962 N 0.53866 0.44641 0.44017 0.0
N963 N 0.50557 0.41578 0.52114 0.0
C964 C 0.52181 0.42932 0.57293 0.0
C965 C 0.53969 0.44593 0.52925 0.0
C966 C 0.58192 0.8009 0.52791 0.0
C967 C 0.57843 0.79035 0.44754 0.0
C968 C 0.58405 0.79176 0.60499 0.0
C969 C 0.58244 0.77178 0.60377 0.0
H970 H 0.58514 0.81706 0.53014 0.0
H971 H 0.58877 0.80113 0.66448 0.0
S972 S 0.56779 0.73561 0.41423 0.0
N973 N 0.56909 0.75724 0.37405 0.0
N974 N 0.57324 0.74014 0.51998 0.0
C975 C 0.57604 0.75991 0.52652 0.0
C976 C 0.57399 0.76924 0.44778 0.0
C977 C 0.22982 0.81681 0.49273 0.0
C978 C 0.23093 0.80064 0.53842 0.0
C979 C 0.21134 0.81282 0.44915 0.0
C980 C 0.19355 0.79241 0.44723 0.0
H981 H 0.24281 0.83291 0.49467 0.0
H982 H 0.21113 0.82583 0.41584 0.0
S983 S 0.18948 0.74416 0.54693 0.0
N984 N 0.21338 0.76318 0.57276 0.0
N985 N 0.17887 0.75557 0.48894 0.0
C986 C 0.19493 0.77591 0.48827 0.0
C987 C 0.21361 0.78002 0.53351 0.0
C988 C 0.16535 0.41395 0.45797 0.0
C989 C 0.17959 0.43468 0.48541 0.0
C990 C 0.1726 0.40203 0.41331 0.0
C991 C 0.19417 0.41062 0.39386 0.0
H992 H 0.14915 0.40595 0.48061 0.0
H993 H 0.16149 0.38559 0.39994 0.0
S994 S 0.23557 0.46689 0.41945 0.0
N995 N 0.21442 0.46518 0.46594 0.0
N996 N 0.22823 0.443 0.38251 0.0
C997 C 0.2076 0.43245 0.4068 0.0
C998 C 0.20013 0.44452 0.45121 0.0
C999 C 0.43772 0.88783 0.46258 0.0
C1000 C 0.45516 0.89011 0.41455 0.0
C1001 C 0.42074 0.88758 0.41914 0.0
C1002 C 0.42056 0.88876 0.32698 0.0
H1003 H 0.43895 0.8903 0.53306 0.0
H1004 H 0.40967 0.89 0.45763 0.0
S1005 S 0.45799 0.88549 0.17353 0.0
N1006 N 0.46823 0.88714 0.2719 0.0
N1007 N 0.43547 0.88497 0.19037 0.0
C1008 C 0.43519 0.88557 0.27963 0.0
C1009 C 0.45292 0.88677 0.32358 0.0
C1010 C 0.04263 0.54525 0.24296 0.0
C1011 C 0.04481 0.54037 0.33025 0.0
C1012 C 0.04655 0.53529 0.17261 0.0
C1013 C 0.05346 0.5207 0.18733 0.0
H1014 H 0.03726 0.55633 0.22902 0.0
H1015 H 0.04392 0.53884 0.10621 0.0
S1016 S 0.06328 0.50391 0.4039 0.0
N1017 N 0.05524 0.52077 0.42762 0.0
N1018 N 0.06322 0.50262 0.29555 0.0
C1019 C 0.0566 0.51643 0.27423 0.0
C1020 C 0.05209 0.52611 0.34568 0.0
C1021 C 0.44709 0.52306 0.37722 0.0
C1022 C 0.45387 0.53317 0.45848 0.0
C1023 C 0.45934 0.53182 0.30172 0.0
C1024 C 0.47839 0.55119 0.30496 0.0
H1025 H 0.43268 0.50797 0.37257 0.0
H1026 H 0.45393 0.52328 0.24037 0.0
S1027 S 0.50187 0.58472 0.50106 0.0
N1028 N 0.48009 0.56403 0.53773 0.0
N1029 N 0.50284 0.58078 0.39469 0.0
C1030 C 0.48482 0.56193 0.38506 0.0
C1031 C 0.4726 0.5528 0.46229 0.0
C1032 C 0.07434 0.54414 0.65589 0.0
C1033 C 0.07489 0.56104 0.70242 0.0
C1034 C 0.07277 0.52655 0.70032 0.0
C1035 C 0.07282 0.52591 0.79249 0.0
H1036 H 0.07221 0.54318 0.58527 0.0
H1037 H 0.06978 0.51277 0.66273 0.0
S1038 S 0.07825 0.56797 0.94389 0.0
N1039 N 0.07795 0.57714 0.84482 0.0
N1040 N 0.07681 0.54494 0.92838 0.0
C1041 C 0.07634 0.54398 0.83912 0.0
C1042 C 0.07701 0.56143 0.79403 0.0
C1043 C 0.44369 0.53166 0.93045 0.0
C1044 C 0.46115 0.55191 0.91613 0.0
C1045 C 0.4243 0.52542 0.8901 0.0
C1046 C 0.42214 0.53885 0.82993 0.0
H1047 H 0.44522 0.52028 0.9709 0.0
H1048 H 0.41186 0.50918 0.89812 0.0
S1049 S 0.46121 0.59534 0.79059 0.0
N1050 N 0.47354 0.58693 0.85566 0.0
N1051 N 0.43737 0.5749 0.77571 0.0
C1052 C 0.4385 0.56009 0.82585 0.0
C1053 C 0.45811 0.5666 0.86869 0.0
C1054 C 0.45458 0.93169 0.7989 0.0
C1055 C 0.47241 0.92919 0.8029 0.0
C1056 C 0.44512 0.93383 0.87548 0.0
C1057 C 0.45338 0.93402 0.95912 0.0
H1058 H 0.44778 0.93189 0.73598 0.0
H1059 H 0.4313 0.93549 0.86891 0.0
S1060 S 0.50008 0.92834 0.00568 0.0
N1061 N 0.49798 0.92704 0.89758 0.0
N1062 N 0.48055 0.93149 0.04118 0.0
C1063 C 0.4713 0.93166 0.96401 0.0
C1064 C 0.4807 0.9291 0.8861 0.0
C1065 C 0.20234 0.42633 0.96 0.0
C1066 C 0.21444 0.43024 0.88326 0.0
C1067 C 0.20836 0.42097 0.03838 0.0
C1068 C 0.22682 0.41968 0.04322 0.0
H1069 H 0.18726 0.4257 0.95825 0.0
H1070 H 0.1978 0.41652 0.09437 0.0
S1071 S 0.26662 0.43346 0.8679 0.0
N1072 N 0.24782 0.43631 0.82158 0.0
N1073 N 0.25897 0.42614 0.97046 0.0
C1074 C 0.24039 0.42605 0.97071 0.0
C1075 C 0.23423 0.43141 0.89016 0.0
C1076 C 0.5788 0.78611 -0.00892 0.0
C1077 C 0.59986 0.79832 0.96332 0.0
C1078 C 0.56822 0.79545 0.03018 0.0
C1079 C 0.57843 0.81734 0.04588 0.0
H1080 H 0.57055 0.76907 0.9854 0.0
H1081 H 0.55259 0.78515 0.05658 0.0
S1082 S 0.63095 0.85695 0.9588 0.0
N1083 N 0.62874 0.83394 0.93446 0.0
N1084 N 0.60885 0.85147 0.00958 0.0
C1085 C 0.59842 0.83002 0.00753 0.0
C1086 C 0.60927 0.82049 0.96727 0.0
C1087 C 0.22173 0.81754 0.96322 0.0
C1088 C 0.22528 0.80297 0.91719 0.0
C1089 C 0.20561 0.81082 0.02545 0.0
C1090 C 0.19246 0.78924 0.04525 0.0
H1091 H 0.23101 0.83429 0.94931 0.0
H1092 H 0.20349 0.82277 0.05809 0.0
S1093 S 0.19636 0.7448 0.94794 0.0
N1094 N 0.2152 0.76606 0.89894 0.0
N1095 N 0.18482 0.75335 0.01655 0.0
C1096 C 0.19626 0.7745 0.00175 0.0
C1097 C 0.21271 0.78139 0.93789 0.0
C1098 C 0.35435 0.12156 0.96363 0.0
C1099 C 0.34877 0.11241 0.8796 0.0
C1100 C 0.33995 0.11353 0.03396 0.0
C1101 C 0.31991 0.09566 0.0235 0.0
H1102 H 0.36897 0.13627 0.9728 0.0
H1103 H 0.34376 0.12243 0.09438 0.0
S1104 S 0.29882 0.06445 0.81978 0.0
N1105 N 0.32258 0.08357 0.79193 0.0
N1106 N 0.29602 0.06794 0.92511 0.0
C1107 C 0.31506 0.08515 0.94235 0.0
C1108 C 0.32939 0.09368 0.87007 0.0
C1109 C 0.90768 0.20948 0.7772 0.0
C1110 C 0.90838 0.21105 0.86926 0.0
C1111 C 0.90107 0.22098 0.72575 0.0
C1112 C 0.89452 0.23419 0.76477 0.0
H1113 H 0.91079 0.19815 0.74512 0.0
H1114 H 0.89907 0.21782 0.65583 0.0
S1115 S 0.8979 0.24715 0.00239 0.0
N1116 N 0.90568 0.22954 -0.00364 0.0
N1117 N 0.89293 0.25106 0.90035 0.0
C1118 C 0.89784 0.23799 0.85589 0.0
C1119 C 0.90478 0.22634 0.90815 0.0
C1120 C 0.81536 0.65497 0.88749 0.0
C1121 C 0.79352 0.64421 0.87155 0.0
C1122 C 0.82587 0.6759 0.91782 0.0
C1123 C 0.81483 0.6866 0.93641 0.0
H1124 H 0.82444 0.64723 0.87546 0.0
H1125 H 0.84274 0.68366 0.92794 0.0
S1126 S 0.75748 0.66538 0.90726 0.0
N1127 N 0.76125 0.64587 0.87641 0.0
N1128 N 0.78086 0.6849 0.93619 0.0
C1129 C 0.79297 0.67595 0.92168 0.0
C1130 C 0.78236 0.65484 0.88853 0.0
C1131 C 0.15388 0.34738 0.56923 0.0
C1132 C 0.14303 0.35766 0.59786 0.0
C1133 C 0.14303 0.32658 0.53785 0.0
C1134 C 0.12095 0.31546 0.5312 0.0
H1135 H 0.17092 0.35538 0.57204 0.0
H1136 H 0.15202 0.3192 0.51787 0.0
S1137 S 0.08501 0.33504 0.59656 0.0
N1138 N 0.1088 0.35492 0.61782 0.0
N1139 N 0.08853 0.31606 0.55636 0.0
C1140 C 0.10988 0.32555 0.55852 0.0
C1141 C 0.12089 0.34657 0.59253 0.0
C1142 C 0.68957 0.76443 0.60102 0.0
C1143 C 0.67934 0.7556 0.52083 0.0
C1144 C 0.678 0.7623 0.67761 0.0
C1145 C 0.65585 0.75091 0.67723 0.0
H1146 H 0.70643 0.77511 0.60276 0.0
H1147 H 0.68637 0.77139 0.73489 0.0
S1148 S 0.62206 0.71906 0.49204 0.0
N1149 N 0.64621 0.73085 0.45147 0.0
N1150 N 0.62446 0.72655 0.5957 0.0
C1151 C 0.64571 0.73905 0.6018 0.0
C1152 C 0.65749 0.74145 0.52337 0.0
C1153 C 0.2196 0.88392 0.49768 0.0
C1154 C 0.19765 0.8748 0.49195 0.0
C1155 C 0.22858 0.87518 0.55352 0.0
C1156 C 0.21585 0.85708 0.6051 0.0
H1157 H 0.22977 0.89695 0.45489 0.0
H1158 H 0.24551 0.88187 0.55201 0.0
S1159 S 0.15756 0.82988 0.62386 0.0
N1160 N 0.16354 0.84857 0.54973 0.0
N1161 N 0.18024 0.83232 0.65492 0.0
C1162 C 0.19395 0.84901 0.60473 0.0
C1163 C 0.1849 0.85783 0.54798 0.0
C1164 C 0.67279 0.90353 0.07943 0.0
C1165 C 0.6875 0.89715 0.05932 0.0
C1166 C 0.65645 0.89216 0.14006 0.0
C1167 C 0.65389 0.87359 0.17957 0.0
H1168 H 0.67286 0.91627 0.04264 0.0
H1169 H 0.64445 0.89655 0.14823 0.0
S1170 S 0.68978 0.8519 0.15815 0.0
N1171 N 0.70012 0.87286 0.09324 0.0
N1172 N 0.66871 0.85082 0.20287 0.0
C1173 C 0.66953 0.86818 0.1661 0.0
C1174 C 0.68656 0.88017 0.10699 0.0
C1175 C 0.09317 0.75883 0.07355 0.0
C1176 C 0.0964 0.76914 0.15488 0.0
C1177 C 0.08382 0.7635 0.00313 0.0
C1178 C 0.07709 0.77839 0.01188 0.0
H1179 H 0.10002 0.74896 0.06078 0.0
H1180 H 0.08366 0.75685 0.9394 0.0
S1181 S 0.07551 0.80398 0.22003 0.0
N1182 N 0.08764 0.79083 0.24632 0.0
N1183 N 0.06951 0.7992 0.11488 0.0
C1184 C 0.0771 0.78605 0.09685 0.0
C1185 C 0.08693 0.78153 0.1682 0.0
C1186 C 0.24158 0.34741 0.08423 0.0
C1187 C 0.23218 0.3394 0.16677 0.0
C1188 C 0.23642 0.33405 0.01132 0.0
C1189 C 0.22225 0.31229 0.01961 0.0
H1190 H 0.25058 0.36429 0.07284 0.0
H1191 H 0.24159 0.34109 0.94678 0.0
S1192 S 0.19895 0.2831 0.22754 0.0
N1193 N 0.21202 0.30818 0.25673 0.0
N1194 N 0.20308 0.28284 0.12093 0.0
C1195 C 0.21595 0.30379 0.10484 0.0
C1196 C 0.22072 0.31746 0.17844 0.0
C1197 C 0.88668 0.63961 0.42774 0.0
C1198 C 0.89173 0.64795 0.34185 0.0
C1199 C 0.89138 0.65298 0.50044 0.0
C1200 C 0.90187 0.675 0.48947 0.0
H1201 H 0.87636 0.62281 0.43795 0.0
H1202 H 0.88458 0.64603 0.56365 0.0
S1203 S 0.92415 0.70434 0.28118 0.0
N1204 N 0.91167 0.67924 0.25211 0.0
N1205 N 0.92152 0.70445 0.38898 0.0
C1206 C 0.91038 0.68338 0.40611 0.0
C1207 C 0.90504 0.66978 0.3319 0.0
C1208 C 0.28435 0.19321 0.31446 0.0
C1209 C 0.28718 0.19254 0.40535 0.0
C1210 C 0.30106 0.20674 0.25979 0.0
C1211 C 0.32144 0.21978 0.29352 0.0
H1212 H 0.26935 0.1824 0.28466 0.0
H1213 H 0.29834 0.20566 0.1895 0.0
S1214 S 0.33619 0.22605 0.52945 0.0
N1215 N 0.31093 0.20794 0.52891 0.0
N1216 N 0.34277 0.23305 0.42572 0.0
C1217 C 0.32399 0.22073 0.38553 0.0
C1218 C 0.30674 0.20709 0.4416 0.0
C1219 C 0.74728 0.09993 0.57063 0.0
C1220 C 0.75381 0.0851 0.55435 0.0
C1221 C 0.73844 0.10623 0.50346 0.0
C1222 C 0.73608 0.09802 0.41806 0.0
H1223 H 0.75142 0.10867 0.63172 0.0
H1224 H 0.73647 0.11976 0.51514 0.0
S1225 S 0.74325 0.05348 0.35063 0.0
N1226 N 0.75114 0.0579 0.45394 0.0
N1227 N 0.73557 0.07066 0.32728 0.0
C1228 C 0.73886 0.0806 0.40586 0.0
C1229 C 0.74743 0.07383 0.47449 0.0
C1230 C 0.00288 0.42455 0.26708 0.0
C1231 C 0.98168 0.41947 0.26874 0.0
C1232 C 0.01435 0.4298 0.1882 0.0
C1233 C 0.0052 0.43074 0.108 0.0
H1234 H 0.0112 0.42623 0.32805 0.0
H1235 H 0.03108 0.43539 0.19211 0.0
S1236 S 0.94866 0.41311 0.07352 0.0
N1237 N 0.95077 0.41112 0.18075 0.0
N1238 N 0.97243 0.42141 0.03272 0.0
C1239 C 0.98326 0.42268 0.10704 0.0
C1240 C 0.97148 0.41702 0.18751 0.0
C1241 C 0.56946 0.57775 0.22656 0.0
C1242 C 0.56533 0.56959 0.14045 0.0
C1243 C 0.57911 0.57108 0.2885 0.0
C1244 C 0.58542 0.55642 0.26605 0.0
H1245 H 0.56315 0.5875 0.24938 0.0
H1246 H 0.57997 0.57605 0.35613 0.0
S1247 S 0.58319 0.5348 0.0428 0.0
N1248 N 0.57186 0.54932 0.03157 0.0
N1249 N 0.59057 0.53725 0.1466 0.0
C1250 C 0.58415 0.55061 0.17684 0.0
C1251 C 0.57395 0.55709 0.11431 0.0
C1252 C 0.41537 -0.00273 0.2554 0.0
C1253 C 0.40917 0.977 0.2879 0.0
C1254 C 0.42448 0.01487 0.31107 0.0
C1255 C 0.42831 0.01273 0.40031 0.0
H1256 H 0.41583 -0.0001 0.18511 0.0
H1257 H 0.43138 0.03036 0.28089 0.0
S1258 S 0.40887 0.96233 0.52124 0.0
N1259 N 0.40242 0.95519 0.41782 0.0
N1260 N 0.42024 0.98835 0.52218 0.0
C1261 C 0.4188 0.99225 0.43584 0.0
C1262 C 0.40906 0.9743 0.3794 0.0
C1263 C 0.56662 0.01127 0.73004 0.0
C1264 C 0.56973 0.02941 0.68482 0.0
C1265 C 0.55827 0.99178 0.68685 0.0
C1266 C 0.55283 0.98991 0.5972 0.0
H1267 H 0.56868 0.01164 0.80063 0.0
H1268 H 0.554 0.97783 0.72615 0.0
S1269 S 0.56415 0.03397 0.44463 0.0
N1270 N 0.57131 0.04522 0.54211 0.0
N1271 N 0.55574 0.00865 0.46107 0.0
C1272 C 0.55879 0.0085 0.54914 0.0
C1273 C 0.56715 0.02826 0.59303 0.0
C1274 C 0.97582 0.5703 0.6568 0.0
C1275 C -0.00209 0.58298 0.65946 0.0
C1276 C 0.9638 0.56456 0.73425 0.0
C1277 C 0.97358 0.57113 0.81683 0.0
H1278 H 0.96808 0.56268 0.59607 0.0
H1279 H 0.94727 0.55274 0.72972 0.0
S1280 S 0.02962 0.61081 0.8556 0.0
N1281 N 0.0281 0.60679 0.74842 0.0
N1282 N 0.00549 0.59581 0.89399 0.0
C1283 C -0.00507 0.58694 0.81838 0.0
C1284 C 0.00716 0.59295 0.73938 0.0
C1285 C 0.42018 0.4567 0.86571 0.0
C1286 C 0.41334 0.45519 0.77829 0.0
C1287 C 0.42951 0.44514 0.89491 0.0
C1288 C 0.43228 0.43164 0.83785 0.0
H1289 H 0.42021 0.4684 0.90944 0.0
H1290 H 0.43674 0.4486 0.95936 0.0
S1291 S 0.4128 0.41844 0.60937 0.0
N1292 N 0.40645 0.43621 0.64004 0.0
N1293 N 0.42423 0.41458 0.69534 0.0
C1294 C 0.42287 0.42773 0.75455 0.0
C1295 C 0.41331 0.43953 0.72454 0.0
loop_
_geom_bond_atom_site_label_1
_geom_bond_atom_site_label_2
_geom_bond_distance
_geom_bond_site_symmetry_2
_ccdc_geom_bond_type
Zn0 O3 2.031 . S
Zn0 O5 2.049 . S
Zn0 O10 2.067 . S
Zn1 O2 1.962 . S
Zn1 O4 1.986 . S
Zn1 O6 1.996 . S
Zn1 O9 1.943 . S
O2 Zn1 1.962 . S
O2 C7 1.254 . S
O3 Zn0 2.031 . S
O3 C7 1.269 . S
O4 Zn1 1.986 . S
O4 C11 1.262 . S
O5 Zn0 2.049 . S
O5 C13 1.260 . S
O6 Zn1 1.996 . S
O6 C13 1.257 . S
C7 O2 1.254 . S
C7 O3 1.269 . S
C8 O9 1.249 1_556 S
C8 O10 1.270 1_556 S
O9 Zn1 1.943 . S
O9 C8 1.249 1_554 S
O10 Zn0 2.067 . S
O10 C8 1.270 1_554 S
C11 O4 1.262 . S
C11 O12 1.232 . S
O12 C11 1.232 . S
C13 O5 1.260 . S
C13 O6 1.257 . S
Zn14 O17 2.031 . S
Zn14 O19 2.049 . S
Zn14 O24 2.067 . S
Zn15 O16 1.962 . S
Zn15 O18 1.986 . S
Zn15 O20 1.996 . S
Zn15 O23 1.943 . S
O16 Zn15 1.962 . S
O16 C21 1.254 . S
O17 Zn14 2.031 . S
O17 C21 1.269 . S
O18 Zn15 1.986 . S
O18 C25 1.262 . S
O19 Zn14 2.049 . S
O19 C27 1.260 . S
O20 Zn15 1.996 . S
O20 C27 1.257 . S
C21 O16 1.254 . S
C21 O17 1.269 . S
C22 O23 1.249 1_556 S
C22 O24 1.270 1_556 S
O23 Zn15 1.943 . S
O23 C22 1.249 1_554 S
O24 Zn14 2.067 . S
O24 C22 1.270 1_554 S
C25 O18 1.262 . S
C25 O26 1.232 . S
O26 C25 1.232 . S
C27 O19 1.260 . S
C27 O20 1.257 . S
Zn28 O31 2.031 . S
Zn28 O33 2.049 . S
Zn28 O38 2.067 . S
Zn29 O30 1.962 . S
Zn29 O32 1.986 . S
Zn29 O34 1.996 . S
Zn29 O37 1.943 . S
O30 Zn29 1.962 . S
O30 C35 1.254 . S
O31 Zn28 2.031 . S
O31 C35 1.269 . S
O32 Zn29 1.986 . S
O32 C39 1.262 . S
O33 Zn28 2.049 . S
O33 C41 1.260 . S
O34 Zn29 1.996 . S
O34 C41 1.257 . S
C35 O30 1.254 . S
C35 O31 1.269 . S
C36 O37 1.249 1_556 S
C36 O38 1.270 1_556 S
O37 Zn29 1.943 . S
O37 C36 1.249 1_554 S
O38 Zn28 2.067 . S
O38 C36 1.270 1_554 S
C39 O32 1.262 . S
C39 O40 1.232 . S
O40 C39 1.232 . S
C41 O33 1.260 . S
C41 O34 1.257 . S
Zn42 O45 2.031 . S
Zn42 O47 2.049 . S
Zn42 O52 2.067 . S
Zn43 O44 1.962 . S
Zn43 O46 1.986 . S
Zn43 O48 1.996 . S
Zn43 O51 1.943 . S
O44 Zn43 1.962 . S
O44 C49 1.254 . S
O45 Zn42 2.031 . S
O45 C49 1.269 . S
O46 Zn43 1.986 . S
O46 C53 1.262 . S
O47 Zn42 2.049 . S
O47 C55 1.260 . S
O48 Zn43 1.996 . S
O48 C55 1.257 . S
C49 O44 1.254 . S
C49 O45 1.269 . S
C50 O51 1.249 . S
C50 O52 1.270 . S
O51 Zn43 1.943 . S
O51 C50 1.249 . S
O52 Zn42 2.067 . S
O52 C50 1.270 . S
C53 O46 1.262 . S
C53 O54 1.232 . S
O54 C53 1.232 . S
C55 O47 1.260 . S
C55 O48 1.257 . S
Zn56 O59 2.031 . S
Zn56 O61 2.049 . S
Zn56 O66 2.067 . S
Zn57 O58 1.962 . S
Zn57 O60 1.986 . S
Zn57 O62 1.996 . S
Zn57 O65 1.943 . S
O58 Zn57 1.962 . S
O58 C63 1.254 . S
O59 Zn56 2.031 . S
O59 C63 1.269 . S
O60 Zn57 1.986 . S
O60 C67 1.262 . S
O61 Zn56 2.049 . S
O61 C69 1.260 . S
O62 Zn57 1.996 . S
O62 C69 1.257 . S
C63 O58 1.254 . S
C63 O59 1.269 . S
C64 O65 1.249 . S
C64 O66 1.270 . S
O65 Zn57 1.943 . S
O65 C64 1.249 . S
O66 Zn56 2.067 . S
O66 C64 1.270 . S
C67 O60 1.262 . S
C67 O68 1.232 . S
O68 C67 1.232 . S
C69 O61 1.260 . S
C69 O62 1.257 . S
Zn70 O73 2.031 . S
Zn70 O75 2.049 . S
Zn70 O80 2.067 . S
Zn71 O72 1.962 . S
Zn71 O74 1.986 . S
Zn71 O76 1.996 . S
Zn71 O79 1.943 . S
O72 Zn71 1.962 . S
O72 C77 1.254 . S
O73 Zn70 2.031 . S
O73 C77 1.269 . S
O74 Zn71 1.986 . S
O74 C81 1.262 . S
O75 Zn70 2.049 . S
O75 C83 1.260 . S
O76 Zn71 1.996 . S
O76 C83 1.257 . S
C77 O72 1.254 . S
C77 O73 1.269 . S
C78 O79 1.249 . S
C78 O80 1.270 . S
O79 Zn71 1.943 . S
O79 C78 1.249 . S
O80 Zn70 2.067 . S
O80 C78 1.270 . S
C81 O74 1.262 . S
C81 O82 1.232 . S
O82 C81 1.232 . S
C83 O75 1.260 . S
C83 O76 1.257 . S
Zn84 O87 2.031 . S
Zn84 O89 2.049 . S
Zn84 O94 2.067 . S
Zn85 O86 1.962 . S
Zn85 O88 1.986 . S
Zn85 O90 1.996 . S
Zn85 O93 1.943 . S
O86 Zn85 1.962 . S
O86 C91 1.254 . S
O87 Zn84 2.031 . S
O87 C91 1.269 . S
O88 Zn85 1.986 . S
O88 C95 1.262 . S
O89 Zn84 2.049 . S
O89 C97 1.260 . S
O90 Zn85 1.996 . S
O90 C97 1.257 . S
C91 O86 1.254 . S
C91 O87 1.269 . S
C92 O93 1.249 1_554 S
C92 O94 1.270 1_554 S
O93 Zn85 1.943 . S
O93 C92 1.249 1_556 S
O94 Zn84 2.067 . S
O94 C92 1.270 1_556 S
C95 O88 1.262 . S
C95 O96 1.232 . S
O96 C95 1.232 . S
C97 O89 1.260 . S
C97 O90 1.257 . S
Zn98 O101 2.031 . S
Zn98 O103 2.049 . S
Zn98 O108 2.067 . S
Zn99 O100 1.962 . S
Zn99 O102 1.986 . S
Zn99 O104 1.996 . S
Zn99 O107 1.943 . S
O100 Zn99 1.962 . S
O100 C105 1.254 . S
O101 Zn98 2.031 . S
O101 C105 1.269 . S
O102 Zn99 1.986 . S
O102 C109 1.262 . S
O103 Zn98 2.049 . S
O103 C111 1.260 . S
O104 Zn99 1.996 . S
O104 C111 1.257 . S
C105 O100 1.254 . S
C105 O101 1.269 . S
C106 O107 1.249 1_554 S
C106 O108 1.270 1_554 S
O107 Zn99 1.943 . S
O107 C106 1.249 1_556 S
O108 Zn98 2.067 . S
O108 C106 1.270 1_556 S
C109 O102 1.262 . S
C109 O110 1.232 . S
O110 C109 1.232 . S
C111 O103 1.260 . S
C111 O104 1.257 . S
Zn112 O115 2.031 . S
Zn112 O117 2.049 . S
Zn112 O122 2.067 . S
Zn113 O114 1.962 . S
Zn113 O116 1.986 . S
Zn113 O118 1.996 . S
Zn113 O121 1.943 . S
O114 Zn113 1.962 . S
O114 C119 1.254 . S
O115 Zn112 2.031 . S
O115 C119 1.269 . S
O116 Zn113 1.986 . S
O116 C123 1.262 . S
O117 Zn112 2.049 . S
O117 C125 1.260 . S
O118 Zn113 1.996 . S
O118 C125 1.257 . S
C119 O114 1.254 . S
C119 O115 1.269 . S
C120 O121 1.249 1_554 S
C120 O122 1.270 1_554 S
O121 Zn113 1.943 . S
O121 C120 1.249 1_556 S
O122 Zn112 2.067 . S
O122 C120 1.270 1_556 S
C123 O116 1.262 . S
C123 O124 1.232 . S
O124 C123 1.232 . S
C125 O117 1.260 . S
C125 O118 1.257 . S
Zn126 O129 2.031 . S
Zn126 O131 2.049 . S
Zn126 O136 2.067 . S
Zn127 O128 1.962 . S
Zn127 O130 1.986 . S
Zn127 O132 1.996 . S
Zn127 O135 1.943 . S
O128 Zn127 1.962 . S
O128 C133 1.254 . S
O129 Zn126 2.031 . S
O129 C133 1.269 . S
O130 Zn127 1.986 . S
O130 C137 1.262 . S
O131 Zn126 2.049 . S
O131 C139 1.260 . S
O132 Zn127 1.996 . S
O132 C139 1.257 . S
C133 O128 1.254 . S
C133 O129 1.269 . S
C134 O135 1.249 . S
C134 O136 1.270 . S
O135 Zn127 1.943 . S
O135 C134 1.249 . S
O136 Zn126 2.067 . S
O136 C134 1.270 . S
C137 O130 1.262 . S
C137 O138 1.232 . S
O138 C137 1.232 . S
C139 O131 1.260 . S
C139 O132 1.257 . S
Zn140 O143 2.031 . S
Zn140 O145 2.049 . S
Zn140 O150 2.067 . S
Zn141 O142 1.962 . S
Zn141 O144 1.986 . S
Zn141 O146 1.996 . S
Zn141 O149 1.943 . S
O142 Zn141 1.962 . S
O142 C147 1.254 . S
O143 Zn140 2.031 . S
O143 C147 1.269 . S
O144 Zn141 1.986 . S
O144 C151 1.262 . S
O145 Zn140 2.049 . S
O145 C153 1.260 . S
O146 Zn141 1.996 . S
O146 C153 1.257 . S
C147 O142 1.254 . S
C147 O143 1.269 . S
C148 O149 1.249 . S
C148 O150 1.270 . S
O149 Zn141 1.943 . S
O149 C148 1.249 . S
O150 Zn140 2.067 . S
O150 C148 1.270 . S
C151 O144 1.262 . S
C151 O152 1.232 . S
O152 C151 1.232 . S
C153 O145 1.260 . S
C153 O146 1.257 . S
Zn154 O157 2.031 . S
Zn154 O159 2.049 . S
Zn154 O164 2.067 . S
Zn155 O156 1.962 . S
Zn155 O158 1.986 . S
Zn155 O160 1.996 . S
Zn155 O163 1.943 . S
O156 Zn155 1.962 . S
O156 C161 1.254 . S
O157 Zn154 2.031 . S
O157 C161 1.269 . S
O158 Zn155 1.986 . S
O158 C165 1.262 . S
O159 Zn154 2.049 . S
O159 C167 1.260 . S
O160 Zn155 1.996 . S
O160 C167 1.257 . S
C161 O156 1.254 . S
C161 O157 1.269 . S
C162 O163 1.249 . S
C162 O164 1.270 . S
O163 Zn155 1.943 . S
O163 C162 1.249 . S
O164 Zn154 2.067 . S
O164 C162 1.270 . S
C165 O158 1.262 . S
C165 O166 1.232 . S
O166 C165 1.232 . S
C167 O159 1.260 . S
C167 O160 1.257 . S
Zn168 O171 2.031 . S
Zn168 O173 2.049 . S
Zn168 O178 2.067 . S
Zn169 O170 1.962 . S
Zn169 O172 1.986 . S
Zn169 O174 1.996 . S
Zn169 O177 1.943 . S
O170 Zn169 1.962 . S
O170 C175 1.254 . S
O171 Zn168 2.031 . S
O171 C175 1.269 . S
O172 Zn169 1.986 . S
O172 C179 1.262 . S
O173 Zn168 2.049 . S
O173 C181 1.260 . S
O174 Zn169 1.996 . S
O174 C181 1.257 . S
C175 O170 1.254 . S
C175 O171 1.269 . S
C176 O177 1.249 . S
C176 O178 1.270 . S
O177 Zn169 1.943 . S
O177 C176 1.249 . S
O178 Zn168 2.067 . S
O178 C176 1.270 . S
C179 O172 1.262 . S
C179 O180 1.232 . S
O180 C179 1.232 . S
C181 O173 1.260 . S
C181 O174 1.257 . S
Zn182 O185 2.031 . S
Zn182 O187 2.049 . S
Zn182 O192 2.067 . S
Zn183 O184 1.962 . S
Zn183 O186 1.986 . S
Zn183 O188 1.996 . S
Zn183 O191 1.943 . S
O184 Zn183 1.962 . S
O184 C189 1.254 . S
O185 Zn182 2.031 . S
O185 C189 1.269 . S
O186 Zn183 1.986 . S
O186 C193 1.262 . S
O187 Zn182 2.049 . S
O187 C195 1.260 . S
O188 Zn183 1.996 . S
O188 C195 1.257 . S
C189 O184 1.254 . S
C189 O185 1.269 . S
C190 O191 1.249 . S
C190 O192 1.270 . S
O191 Zn183 1.943 . S
O191 C190 1.249 . S
O192 Zn182 2.067 . S
O192 C190 1.270 . S
C193 O186 1.262 . S
C193 O194 1.232 . S
O194 C193 1.232 . S
C195 O187 1.260 . S
C195 O188 1.257 . S
Zn196 O199 2.031 . S
Zn196 O201 2.049 . S
Zn196 O206 2.067 . S
Zn197 O198 1.962 . S
Zn197 O200 1.986 . S
Zn197 O202 1.996 . S
Zn197 O205 1.943 . S
O198 Zn197 1.962 . S
O198 C203 1.254 . S
O199 Zn196 2.031 . S
O199 C203 1.269 . S
O200 Zn197 1.986 . S
O200 C207 1.262 . S
O201 Zn196 2.049 . S
O201 C209 1.260 . S
O202 Zn197 1.996 . S
O202 C209 1.257 . S
C203 O198 1.254 . S
C203 O199 1.269 . S
C204 O205 1.249 . S
C204 O206 1.270 . S
O205 Zn197 1.943 . S
O205 C204 1.249 . S
O206 Zn196 2.067 . S
O206 C204 1.270 . S
C207 O200 1.262 . S
C207 O208 1.232 . S
O208 C207 1.232 . S
C209 O201 1.260 . S
C209 O202 1.257 . S
Zn210 O213 2.031 . S
Zn210 O215 2.049 . S
Zn210 O220 2.067 . S
Zn211 O212 1.962 . S
Zn211 O214 1.986 . S
Zn211 O216 1.996 . S
Zn211 O219 1.943 . S
O212 Zn211 1.962 . S
O212 C217 1.254 . S
O213 Zn210 2.031 . S
O213 C217 1.269 . S
O214 Zn211 1.986 . S
O214 C221 1.262 . S
O215 Zn210 2.049 . S
O215 C223 1.260 . S
O216 Zn211 1.996 . S
O216 C223 1.257 . S
C217 O212 1.254 . S
C217 O213 1.269 . S
C218 O219 1.249 . S
C218 O220 1.270 . S
O219 Zn211 1.943 . S
O219 C218 1.249 . S
O220 Zn210 2.067 . S
O220 C218 1.270 . S
C221 O214 1.262 . S
C221 O222 1.232 . S
O222 C221 1.232 . S
C223 O215 1.260 . S
C223 O216 1.257 . S
Zn224 O227 2.031 . S
Zn224 O229 2.049 . S
Zn224 O234 2.067 . S
Zn225 O226 1.962 . S
Zn225 O228 1.986 . S
Zn225 O230 1.996 . S
Zn225 O233 1.943 . S
O226 Zn225 1.962 . S
O226 C231 1.254 . S
O227 Zn224 2.031 . S
O227 C231 1.269 . S
O228 Zn225 1.986 . S
O228 C235 1.262 . S
O229 Zn224 2.049 . S
O229 C237 1.260 . S
O230 Zn225 1.996 . S
O230 C237 1.257 . S
C231 O226 1.254 . S
C231 O227 1.269 . S
C232 O233 1.249 . S
C232 O234 1.270 . S
O233 Zn225 1.943 . S
O233 C232 1.249 . S
O234 Zn224 2.067 . S
O234 C232 1.270 . S
C235 O228 1.262 . S
C235 O236 1.232 . S
O236 C235 1.232 . S
C237 O229 1.260 . S
C237 O230 1.257 . S
Zn238 O241 2.031 . S
Zn238 O243 2.049 . S
Zn238 O248 2.067 . S
Zn239 O240 1.962 . S
Zn239 O242 1.986 . S
Zn239 O244 1.996 . S
Zn239 O247 1.943 . S
O240 Zn239 1.962 . S
O240 C245 1.254 . S
O241 Zn238 2.031 . S
O241 C245 1.269 . S
O242 Zn239 1.986 . S
O242 C249 1.262 . S
O243 Zn238 2.049 . S
O243 C251 1.260 . S
O244 Zn239 1.996 . S
O244 C251 1.257 . S
C245 O240 1.254 . S
C245 O241 1.269 . S
C246 O247 1.249 . S
C246 O248 1.270 . S
O247 Zn239 1.943 . S
O247 C246 1.249 . S
O248 Zn238 2.067 . S
O248 C246 1.270 . S
C249 O242 1.262 . S
C249 O250 1.232 . S
O250 C249 1.232 . S
C251 O243 1.260 . S
C251 O244 1.257 . S
Zn252 O255 2.031 . S
Zn252 O257 2.049 . S
Zn252 O262 2.067 . S
Zn253 O254 1.962 . S
Zn253 O256 1.986 . S
Zn253 O258 1.996 . S
Zn253 O261 1.943 . S
O254 Zn253 1.962 . S
O254 C259 1.254 . S
O255 Zn252 2.031 . S
O255 C259 1.269 . S
O256 Zn253 1.986 . S
O256 C263 1.262 . S
O257 Zn252 2.049 . S
O257 C265 1.260 . S
O258 Zn253 1.996 . S
O258 C265 1.257 . S
C259 O254 1.254 . S
C259 O255 1.269 . S
C260 O261 1.249 . S
C260 O262 1.270 . S
O261 Zn253 1.943 . S
O261 C260 1.249 . S
O262 Zn252 2.067 . S
O262 C260 1.270 . S
C263 O256 1.262 . S
C263 O264 1.232 . S
O264 C263 1.232 . S
C265 O257 1.260 . S
C265 O258 1.257 . S
Zn266 O269 2.031 . S
Zn266 O271 2.049 . S
Zn266 O276 2.067 . S
Zn267 O268 1.962 . S
Zn267 O270 1.986 . S
Zn267 O272 1.996 . S
Zn267 O275 1.943 . S
O268 Zn267 1.962 . S
O268 C273 1.254 . S
O269 Zn266 2.031 . S
O269 C273 1.269 . S
O270 Zn267 1.986 . S
O270 C277 1.262 . S
O271 Zn266 2.049 . S
O271 C279 1.260 . S
O272 Zn267 1.996 . S
O272 C279 1.257 . S
C273 O268 1.254 . S
C273 O269 1.269 . S
C274 O275 1.249 . S
C274 O276 1.270 . S
O275 Zn267 1.943 . S
O275 C274 1.249 . S
O276 Zn266 2.067 . S
O276 C274 1.270 . S
C277 O270 1.262 . S
C277 O278 1.232 . S
O278 C277 1.232 . S
C279 O271 1.260 . S
C279 O272 1.257 . S
Zn280 O283 2.031 . S
Zn280 O285 2.049 . S
Zn280 O290 2.067 . S
Zn281 O282 1.962 . S
Zn281 O284 1.986 . S
Zn281 O286 1.996 . S
Zn281 O289 1.943 . S
O282 Zn281 1.962 . S
O282 C287 1.254 . S
O283 Zn280 2.031 . S
O283 C287 1.269 . S
O284 Zn281 1.986 . S
O284 C291 1.262 . S
O285 Zn280 2.049 . S
O285 C293 1.260 . S
O286 Zn281 1.996 . S
O286 C293 1.257 . S
C287 O282 1.254 . S
C287 O283 1.269 . S
C288 O289 1.249 . S
C288 O290 1.270 . S
O289 Zn281 1.943 . S
O289 C288 1.249 . S
O290 Zn280 2.067 . S
O290 C288 1.270 . S
C291 O284 1.262 . S
C291 O292 1.232 . S
O292 C291 1.232 . S
C293 O285 1.260 . S
C293 O286 1.257 . S
Zn294 O297 2.031 . S
Zn294 O299 2.049 1_556 S
Zn294 O304 2.067 . S
Zn295 O296 1.962 . S
Zn295 O298 1.986 1_556 S
Zn295 O300 1.996 1_556 S
Zn295 O303 1.943 . S
O296 Zn295 1.962 . S
O296 C301 1.254 . S
O297 Zn294 2.031 . S
O297 C301 1.269 . S
O298 Zn295 1.986 1_554 S
O298 C305 1.262 1_554 S
O299 Zn294 2.049 1_554 S
O299 C307 1.260 . S
O300 Zn295 1.996 1_554 S
O300 C307 1.257 . S
C301 O296 1.254 . S
C301 O297 1.269 . S
C302 O303 1.249 . S
C302 O304 1.270 . S
O303 Zn295 1.943 . S
O303 C302 1.249 . S
O304 Zn294 2.067 . S
O304 C302 1.270 . S
C305 O298 1.262 1_556 S
C305 O306 1.232 . S
O306 C305 1.232 . S
C307 O299 1.260 . S
C307 O300 1.257 . S
Zn308 O311 2.031 . S
Zn308 O313 2.049 1_556 S
Zn308 O318 2.067 . S
Zn309 O310 1.962 . S
Zn309 O312 1.986 1_556 S
Zn309 O314 1.996 1_556 S
Zn309 O317 1.943 . S
O310 Zn309 1.962 . S
O310 C315 1.254 . S
O311 Zn308 2.031 . S
O311 C315 1.269 . S
O312 Zn309 1.986 1_554 S
O312 C319 1.262 1_554 S
O313 Zn308 2.049 1_554 S
O313 C321 1.260 . S
O314 Zn309 1.996 1_554 S
O314 C321 1.257 . S
C315 O310 1.254 . S
C315 O311 1.269 . S
C316 O317 1.249 . S
C316 O318 1.270 . S
O317 Zn309 1.943 . S
O317 C316 1.249 . S
O318 Zn308 2.067 . S
O318 C316 1.270 . S
C319 O312 1.262 1_556 S
C319 O320 1.232 . S
O320 C319 1.232 . S
C321 O313 1.260 . S
C321 O314 1.257 . S
Zn322 O325 2.031 . S
Zn322 O327 2.049 1_556 S
Zn322 O332 2.067 . S
Zn323 O324 1.962 . S
Zn323 O326 1.986 1_556 S
Zn323 O328 1.996 1_556 S
Zn323 O331 1.943 . S
O324 Zn323 1.962 . S
O324 C329 1.254 . S
O325 Zn322 2.031 . S
O325 C329 1.269 . S
O326 Zn323 1.986 1_554 S
O326 C333 1.262 1_554 S
O327 Zn322 2.049 1_554 S
O327 C335 1.260 . S
O328 Zn323 1.996 1_554 S
O328 C335 1.257 . S
C329 O324 1.254 . S
C329 O325 1.269 . S
C330 O331 1.249 . S
C330 O332 1.270 . S
O331 Zn323 1.943 . S
O331 C330 1.249 . S
O332 Zn322 2.067 . S
O332 C330 1.270 . S
C333 O326 1.262 1_556 S
C333 O334 1.232 . S
O334 C333 1.232 . S
C335 O327 1.260 . S
C335 O328 1.257 . S
Zn336 O339 2.031 . S
Zn336 O341 2.049 . S
Zn336 O346 2.067 . S
Zn337 O338 1.962 . S
Zn337 O340 1.986 . S
Zn337 O342 1.996 . S
Zn337 O345 1.943 . S
O338 Zn337 1.962 . S
O338 C343 1.254 . S
O339 Zn336 2.031 . S
O339 C343 1.269 . S
O340 Zn337 1.986 . S
O340 C347 1.262 . S
O341 Zn336 2.049 . S
O341 C349 1.260 . S
O342 Zn337 1.996 . S
O342 C349 1.257 . S
C343 O338 1.254 . S
C343 O339 1.269 . S
C344 O345 1.249 . S
C344 O346 1.270 . S
O345 Zn337 1.943 . S
O345 C344 1.249 . S
O346 Zn336 2.067 . S
O346 C344 1.270 . S
C347 O340 1.262 . S
C347 O348 1.232 . S
O348 C347 1.232 . S
C349 O341 1.260 . S
C349 O342 1.257 . S
Zn350 O353 2.031 . S
Zn350 O355 2.049 . S
Zn350 O360 2.067 . S
Zn351 O352 1.962 . S
Zn351 O354 1.986 . S
Zn351 O356 1.996 . S
Zn351 O359 1.943 . S
O352 Zn351 1.962 . S
O352 C357 1.254 . S
O353 Zn350 2.031 . S
O353 C357 1.269 . S
O354 Zn351 1.986 . S
O354 C361 1.262 . S
O355 Zn350 2.049 . S
O355 C363 1.260 . S
O356 Zn351 1.996 . S
O356 C363 1.257 . S
C357 O352 1.254 . S
C357 O353 1.269 . S
C358 O359 1.249 . S
C358 O360 1.270 . S
O359 Zn351 1.943 . S
O359 C358 1.249 . S
O360 Zn350 2.067 . S
O360 C358 1.270 . S
C361 O354 1.262 . S
C361 O362 1.232 . S
O362 C361 1.232 . S
C363 O355 1.260 . S
C363 O356 1.257 . S
Zn364 O367 2.031 . S
Zn364 O369 2.049 . S
Zn364 O374 2.067 . S
Zn365 O366 1.962 . S
Zn365 O368 1.986 . S
Zn365 O370 1.996 . S
Zn365 O373 1.943 . S
O366 Zn365 1.962 . S
O366 C371 1.254 . S
O367 Zn364 2.031 . S
O367 C371 1.269 . S
O368 Zn365 1.986 . S
O368 C375 1.262 . S
O369 Zn364 2.049 . S
O369 C377 1.260 . S
O370 Zn365 1.996 . S
O370 C377 1.257 . S
C371 O366 1.254 . S
C371 O367 1.269 . S
C372 O373 1.249 . S
C372 O374 1.270 . S
O373 Zn365 1.943 . S
O373 C372 1.249 . S
O374 Zn364 2.067 . S
O374 C372 1.270 . S
C375 O368 1.262 . S
C375 O376 1.232 . S
O376 C375 1.232 . S
C377 O369 1.260 . S
C377 O370 1.257 . S
Zn378 O381 2.031 . S
Zn378 O383 2.049 1_554 S
Zn378 O388 2.067 . S
Zn379 O380 1.962 . S
Zn379 O382 1.986 1_554 S
Zn379 O384 1.996 1_554 S
Zn379 O387 1.943 . S
O380 Zn379 1.962 . S
O380 C385 1.254 . S
O381 Zn378 2.031 . S
O381 C385 1.269 . S
O382 Zn379 1.986 1_556 S
O382 C389 1.262 1_556 S
O383 Zn378 2.049 1_556 S
O383 C391 1.260 . S
O384 Zn379 1.996 1_556 S
O384 C391 1.257 . S
C385 O380 1.254 . S
C385 O381 1.269 . S
C386 O387 1.249 . S
C386 O388 1.270 . S
O387 Zn379 1.943 . S
O387 C386 1.249 . S
O388 Zn378 2.067 . S
O388 C386 1.270 . S
C389 O382 1.262 1_554 S
C389 O390 1.232 . S
O390 C389 1.232 . S
C391 O383 1.260 . S
C391 O384 1.257 . S
Zn392 O395 2.031 . S
Zn392 O397 2.049 1_554 S
Zn392 O402 2.067 . S
Zn393 O394 1.962 . S
Zn393 O396 1.986 1_554 S
Zn393 O398 1.996 1_554 S
Zn393 O401 1.943 . S
O394 Zn393 1.962 . S
O394 C399 1.254 . S
O395 Zn392 2.031 . S
O395 C399 1.269 . S
O396 Zn393 1.986 1_556 S
O396 C403 1.262 1_556 S
O397 Zn392 2.049 1_556 S
O397 C405 1.260 . S
O398 Zn393 1.996 1_556 S
O398 C405 1.257 . S
C399 O394 1.254 . S
C399 O395 1.269 . S
C400 O401 1.249 . S
C400 O402 1.270 . S
O401 Zn393 1.943 . S
O401 C400 1.249 . S
O402 Zn392 2.067 . S
O402 C400 1.270 . S
C403 O396 1.262 1_554 S
C403 O404 1.232 . S
O404 C403 1.232 . S
C405 O397 1.260 . S
C405 O398 1.257 . S
Zn406 O409 2.031 . S
Zn406 O411 2.049 1_554 S
Zn406 O416 2.067 . S
Zn407 O408 1.962 . S
Zn407 O410 1.986 1_554 S
Zn407 O412 1.996 1_554 S
Zn407 O415 1.943 . S
O408 Zn407 1.962 . S
O408 C413 1.254 . S
O409 Zn406 2.031 . S
O409 C413 1.269 . S
O410 Zn407 1.986 1_556 S
O410 C417 1.262 1_556 S
O411 Zn406 2.049 1_556 S
O411 C419 1.260 . S
O412 Zn407 1.996 1_556 S
O412 C419 1.257 . S
C413 O408 1.254 . S
C413 O409 1.269 . S
C414 O415 1.249 . S
C414 O416 1.270 . S
O415 Zn407 1.943 . S
O415 C414 1.249 . S
O416 Zn406 2.067 . S
O416 C414 1.270 . S
C417 O410 1.262 1_554 S
C417 O418 1.232 . S
O418 C417 1.232 . S
C419 O411 1.260 . S
C419 O412 1.257 . S
Zn420 O423 2.031 . S
Zn420 O425 2.049 . S
Zn420 O430 2.067 . S
Zn421 O422 1.962 . S
Zn421 O424 1.986 . S
Zn421 O426 1.996 . S
Zn421 O429 1.943 . S
O422 Zn421 1.962 . S
O422 C427 1.254 . S
O423 Zn420 2.031 . S
O423 C427 1.269 . S
O424 Zn421 1.986 . S
O424 C431 1.262 . S
O425 Zn420 2.049 . S
O425 C433 1.260 . S
O426 Zn421 1.996 . S
O426 C433 1.257 . S
C427 O422 1.254 . S
C427 O423 1.269 . S
C428 O429 1.249 . S
C428 O430 1.270 . S
O429 Zn421 1.943 . S
O429 C428 1.249 . S
O430 Zn420 2.067 . S
O430 C428 1.270 . S
C431 O424 1.262 . S
C431 O432 1.232 . S
O432 C431 1.232 . S
C433 O425 1.260 . S
C433 O426 1.257 . S
Zn434 O437 2.031 . S
Zn434 O439 2.049 . S
Zn434 O444 2.067 . S
Zn435 O436 1.962 . S
Zn435 O438 1.986 . S
Zn435 O440 1.996 . S
Zn435 O443 1.943 . S
O436 Zn435 1.962 . S
O436 C441 1.254 . S
O437 Zn434 2.031 . S
O437 C441 1.269 . S
O438 Zn435 1.986 . S
O438 C445 1.262 . S
O439 Zn434 2.049 . S
O439 C447 1.260 . S
O440 Zn435 1.996 . S
O440 C447 1.257 . S
C441 O436 1.254 . S
C441 O437 1.269 . S
C442 O443 1.249 . S
C442 O444 1.270 . S
O443 Zn435 1.943 . S
O443 C442 1.249 . S
O444 Zn434 2.067 . S
O444 C442 1.270 . S
C445 O438 1.262 . S
C445 O446 1.232 . S
O446 C445 1.232 . S
C447 O439 1.260 . S
C447 O440 1.257 . S
Zn448 O451 2.031 . S
Zn448 O453 2.049 . S
Zn448 O458 2.067 . S
Zn449 O450 1.962 . S
Zn449 O452 1.986 . S
Zn449 O454 1.996 . S
Zn449 O457 1.943 . S
O450 Zn449 1.962 . S
O450 C455 1.254 . S
O451 Zn448 2.031 . S
O451 C455 1.269 . S
O452 Zn449 1.986 . S
O452 C459 1.262 . S
O453 Zn448 2.049 . S
O453 C461 1.260 . S
O454 Zn449 1.996 . S
O454 C461 1.257 . S
C455 O450 1.254 . S
C455 O451 1.269 . S
C456 O457 1.249 . S
C456 O458 1.270 . S
O457 Zn449 1.943 . S
O457 C456 1.249 . S
O458 Zn448 2.067 . S
O458 C456 1.270 . S
C459 O452 1.262 . S
C459 O460 1.232 . S
O460 C459 1.232 . S
C461 O453 1.260 . S
C461 O454 1.257 . S
Zn462 O465 2.031 . S
Zn462 O467 2.049 . S
Zn462 O472 2.067 . S
Zn463 O464 1.962 . S
Zn463 O466 1.986 . S
Zn463 O468 1.996 . S
Zn463 O471 1.943 . S
O464 Zn463 1.962 . S
O464 C469 1.254 . S
O465 Zn462 2.031 . S
O465 C469 1.269 . S
O466 Zn463 1.986 . S
O466 C473 1.262 . S
O467 Zn462 2.049 . S
O467 C475 1.260 . S
O468 Zn463 1.996 . S
O468 C475 1.257 . S
C469 O464 1.254 . S
C469 O465 1.269 . S
C470 O471 1.249 . S
C470 O472 1.270 . S
O471 Zn463 1.943 . S
O471 C470 1.249 . S
O472 Zn462 2.067 . S
O472 C470 1.270 . S
C473 O466 1.262 . S
C473 O474 1.232 . S
O474 C473 1.232 . S
C475 O467 1.260 . S
C475 O468 1.257 . S
Zn476 O479 2.031 . S
Zn476 O481 2.049 . S
Zn476 O486 2.067 . S
Zn477 O478 1.962 . S
Zn477 O480 1.986 . S
Zn477 O482 1.996 . S
Zn477 O485 1.943 . S
O478 Zn477 1.962 . S
O478 C483 1.254 . S
O479 Zn476 2.031 . S
O479 C483 1.269 . S
O480 Zn477 1.986 . S
O480 C487 1.262 . S
O481 Zn476 2.049 . S
O481 C489 1.260 . S
O482 Zn477 1.996 . S
O482 C489 1.257 . S
C483 O478 1.254 . S
C483 O479 1.269 . S
C484 O485 1.249 . S
C484 O486 1.270 . S
O485 Zn477 1.943 . S
O485 C484 1.249 . S
O486 Zn476 2.067 . S
O486 C484 1.270 . S
C487 O480 1.262 . S
C487 O488 1.232 . S
O488 C487 1.232 . S
C489 O481 1.260 . S
C489 O482 1.257 . S
Zn490 O493 2.031 . S
Zn490 O495 2.049 . S
Zn490 O500 2.067 . S
Zn491 O492 1.962 . S
Zn491 O494 1.986 . S
Zn491 O496 1.996 . S
Zn491 O499 1.943 . S
O492 Zn491 1.962 . S
O492 C497 1.254 . S
O493 Zn490 2.031 . S
O493 C497 1.269 . S
O494 Zn491 1.986 . S
O494 C501 1.262 . S
O495 Zn490 2.049 . S
O495 C503 1.260 . S
O496 Zn491 1.996 . S
O496 C503 1.257 . S
C497 O492 1.254 . S
C497 O493 1.269 . S
C498 O499 1.249 . S
C498 O500 1.270 . S
O499 Zn491 1.943 . S
O499 C498 1.249 . S
O500 Zn490 2.067 . S
O500 C498 1.270 . S
C501 O494 1.262 . S
C501 O502 1.232 . S
O502 C501 1.232 . S
C503 O495 1.260 . S
C503 O496 1.257 . S
C504 C505 1.365 1_545 S
C504 C506 1.425 . S
C504 H508 0.928 . S
C505 C504 1.365 1_565 S
C505 C514 1.429 . S
C506 C504 1.425 . S
C506 C507 1.363 . S
C506 H509 0.929 . S
C507 C506 1.363 . S
C507 C513 1.428 1_545 S
H508 C504 0.928 . S
H509 C506 0.929 . S
S510 N511 1.613 . S
S510 N512 1.610 . S
N511 S510 1.613 . S
N511 C514 1.350 . S
N512 S510 1.610 . S
N512 C513 1.351 . S
C513 C507 1.428 1_565 S
C513 N512 1.351 . S
C513 C514 1.434 . S
C514 C505 1.429 . S
C514 N511 1.350 . S
C514 C513 1.434 . S
C515 C516 1.382 . S
C515 C517 1.398 1_655 S
C515 H519 0.937 1_655 S
C516 C515 1.382 . S
C516 C525 1.429 . S
C517 C515 1.398 1_455 S
C517 C518 1.363 . S
C517 H520 0.929 . S
C518 C517 1.363 . S
C518 C524 1.423 1_455 S
H519 C515 0.937 1_455 S
H520 C517 0.929 . S
S521 N522 1.613 . S
S521 N523 1.610 . S
N522 S521 1.613 . S
N522 C525 1.350 . S
N523 S521 1.610 . S
N523 C524 1.349 . S
C524 C518 1.423 1_655 S
C524 N523 1.349 . S
C524 C525 1.443 . S
C525 C516 1.429 . S
C525 N522 1.350 . S
C525 C524 1.443 . S
C526 C527 1.369 . S
C526 C528 1.419 . S
C526 H530 0.930 . S
C527 C526 1.369 . S
C527 C536 1.429 . S
C528 C526 1.419 . S
C528 C529 1.363 . S
C528 H531 0.929 . S
C529 C528 1.363 . S
C529 C535 1.428 . S
H530 C526 0.930 . S
H531 C528 0.929 . S
S532 N533 1.613 . S
S532 N534 1.610 . S
N533 S532 1.613 . S
N533 C536 1.350 . S
N534 S532 1.610 . S
N534 C535 1.351 . S
C535 C529 1.428 . S
C535 N534 1.351 . S
C535 C536 1.434 . S
C536 C527 1.429 . S
C536 N533 1.350 . S
C536 C535 1.434 . S
C537 C538 1.369 . S
C537 C539 1.419 1_565 S
C537 H541 0.930 . S
C538 C537 1.369 . S
C538 C547 1.429 . S
C539 C537 1.419 1_545 S
C539 C540 1.363 . S
C539 H542 0.929 . S
C540 C539 1.363 . S
C540 C546 1.428 . S
H541 C537 0.930 . S
H542 C539 0.929 . S
S543 N544 1.613 1_545 S
S543 N545 1.610 . S
N544 S543 1.613 1_565 S
N544 C547 1.350 . S
N545 S543 1.610 . S
N545 C546 1.351 . S
C546 C540 1.428 . S
C546 N545 1.351 . S
C546 C547 1.434 1_545 S
C547 C538 1.429 . S
C547 N544 1.350 . S
C547 C546 1.434 1_565 S
C548 C549 1.357 1_655 S
C548 C550 1.436 . S
C548 H552 0.925 . S
C549 C548 1.357 1_455 S
C549 C558 1.429 . S
C550 C548 1.436 . S
C550 C551 1.363 . S
C550 H553 0.929 . S
C551 C550 1.363 . S
C551 C557 1.428 1_655 S
H552 C548 0.925 . S
H553 C550 0.929 . S
S554 N555 1.613 . S
S554 N556 1.610 . S
N555 S554 1.613 . S
N555 C558 1.350 . S
N556 S554 1.610 . S
N556 C557 1.351 . S
C557 C551 1.428 1_455 S
C557 N556 1.351 . S
C557 C558 1.434 . S
C558 C549 1.429 . S
C558 N555 1.350 . S
C558 C557 1.434 . S
C559 C560 1.369 . S
C559 C561 1.419 . S
C559 H563 0.930 . S
C560 C559 1.369 . S
C560 C569 1.429 . S
C561 C559 1.419 . S
C561 C562 1.363 . S
C561 H564 0.929 . S
C562 C561 1.363 . S
C562 C568 1.428 . S
H563 C559 0.930 . S
H564 C561 0.929 . S
S565 N566 1.613 . S
S565 N567 1.610 . S
N566 S565 1.613 . S
N566 C569 1.350 . S
N567 S565 1.610 . S
N567 C568 1.351 . S
C568 C562 1.428 . S
C568 N567 1.351 . S
C568 C569 1.434 . S
C569 C560 1.429 . S
C569 N566 1.350 . S
C569 C568 1.434 . S
C570 C571 1.369 . S
C570 C572 1.419 . S
C570 H574 0.930 . S
C571 C570 1.369 . S
C571 C580 1.429 . S
C572 C570 1.419 . S
C572 C573 1.363 . S
C572 H575 0.929 . S
C573 C572 1.363 . S
C573 C579 1.428 . S
H574 C570 0.930 . S
H575 C572 0.929 . S
S576 N577 1.613 . S
S576 N578 1.610 . S
N577 S576 1.613 . S
N577 C580 1.350 . S
N578 S576 1.610 . S
N578 C579 1.351 . S
C579 C573 1.428 . S
C579 N578 1.351 . S
C579 C580 1.434 . S
C580 C571 1.429 . S
C580 N577 1.350 . S
C580 C579 1.434 . S
C581 C582 1.369 . S
C581 C583 1.419 . S
C581 H585 0.930 . S
C582 C581 1.369 . S
C582 C591 1.429 . S
C583 C581 1.419 . S
C583 C584 1.363 . S
C583 H586 0.929 . S
C584 C583 1.363 . S
C584 C590 1.428 . S
H585 C581 0.930 . S
H586 C583 0.929 . S
S587 N588 1.613 . S
S587 N589 1.610 . S
N588 S587 1.613 . S
N588 C591 1.350 . S
N589 S587 1.610 . S
N589 C590 1.351 . S
C590 C584 1.428 . S
C590 N589 1.351 . S
C590 C591 1.434 . S
C591 C582 1.429 . S
C591 N588 1.350 . S
C591 C590 1.434 . S
C592 C593 1.369 . S
C592 C594 1.419 . S
C592 H596 0.930 . S
C593 C592 1.369 . S
C593 C602 1.429 . S
C594 C592 1.419 . S
C594 C595 1.363 . S
C594 H597 0.929 . S
C595 C594 1.363 . S
C595 C601 1.428 . S
H596 C592 0.930 . S
H597 C594 0.929 . S
S598 N599 1.613 . S
S598 N600 1.610 . S
N599 S598 1.613 . S
N599 C602 1.350 . S
N600 S598 1.610 . S
N600 C601 1.351 . S
C601 C595 1.428 . S
C601 N600 1.351 . S
C601 C602 1.434 . S
C602 C593 1.429 . S
C602 N599 1.350 . S
C602 C601 1.434 . S
C603 C604 1.369 . S
C603 C605 1.419 . S
C603 H607 0.930 . S
C604 C603 1.369 . S
C604 C613 1.429 . S
C605 C603 1.419 . S
C605 C606 1.363 . S
C605 H608 0.929 . S
C606 C605 1.363 . S
C606 C612 1.428 . S
H607 C603 0.930 . S
H608 C605 0.929 . S
S609 N610 1.613 . S
S609 N611 1.606 1_554 S
N610 S609 1.613 . S
N610 C613 1.350 . S
N611 S609 1.606 1_556 S
N611 C612 1.346 1_556 S
C612 C606 1.428 . S
C612 N611 1.346 1_554 S
C612 C613 1.434 . S
C613 C604 1.429 . S
C613 N610 1.350 . S
C613 C612 1.434 . S
C614 C615 1.369 . S
C614 C616 1.419 1_554 S
C614 H618 0.930 . S
C615 C614 1.369 . S
C615 C624 1.429 . S
C616 C614 1.419 1_556 S
C616 C617 1.363 1_556 S
C616 H619 0.929 . S
C617 C616 1.363 1_554 S
C617 C623 1.428 . S
H618 C614 0.930 . S
H619 C616 0.929 . S
S620 N621 1.613 . S
S620 N622 1.610 . S
N621 S620 1.613 . S
N621 C624 1.350 . S
N622 S620 1.610 . S
N622 C623 1.351 . S
C623 C617 1.428 . S
C623 N622 1.351 . S
C623 C624 1.434 . S
C624 C615 1.429 . S
C624 N621 1.350 . S
C624 C623 1.434 . S
C625 C626 1.369 . S
C625 C627 1.419 . S
C625 H629 0.930 . S
C626 C625 1.369 . S
C626 C635 1.429 . S
C627 C625 1.419 . S
C627 C628 1.363 . S
C627 H630 0.929 . S
C628 C627 1.363 . S
C628 C634 1.428 . S
H629 C625 0.930 . S
H630 C627 0.929 . S
S631 N632 1.613 . S
S631 N633 1.610 1_554 S
N632 S631 1.613 . S
N632 C635 1.350 . S
N633 S631 1.610 1_556 S
N633 C634 1.351 1_556 S
C634 C628 1.428 . S
C634 N633 1.351 1_554 S
C634 C635 1.434 . S
C635 C626 1.429 . S
C635 N632 1.350 . S
C635 C634 1.434 . S
C636 C637 1.369 . S
C636 C638 1.419 . S
C636 H640 0.930 . S
C637 C636 1.369 . S
C637 C646 1.429 . S
C638 C636 1.419 . S
C638 C639 1.363 . S
C638 H641 0.929 . S
C639 C638 1.363 . S
C639 C645 1.428 . S
H640 C636 0.930 . S
H641 C638 0.929 . S
S642 N643 1.613 . S
S642 N644 1.610 1_556 S
N643 S642 1.613 . S
N643 C646 1.350 . S
N644 S642 1.610 1_554 S
N644 C645 1.351 1_554 S
C645 C639 1.428 . S
C645 N644 1.351 1_556 S
C645 C646 1.434 . S
C646 C637 1.429 . S
C646 N643 1.350 . S
C646 C645 1.434 . S
C647 C648 1.369 . S
C647 C649 1.419 . S
C647 H651 0.930 1_556 S
C648 C647 1.369 . S
C648 C657 1.429 . S
C649 C647 1.419 . S
C649 C650 1.363 . S
C649 H652 0.929 . S
C650 C649 1.363 . S
C650 C656 1.428 . S
H651 C647 0.930 1_554 S
H652 C649 0.929 . S
S653 N654 1.613 . S
S653 N655 1.610 . S
N654 S653 1.613 . S
N654 C657 1.350 . S
N655 S653 1.610 . S
N655 C656 1.351 . S
C656 C650 1.428 . S
C656 N655 1.351 . S
C656 C657 1.434 . S
C657 C648 1.429 . S
C657 N654 1.350 . S
C657 C656 1.434 . S
C658 C659 1.369 . S
C658 C660 1.419 . S
C658 H662 0.930 . S
C659 C658 1.369 . S
C659 C668 1.429 . S
C660 C658 1.419 . S
C660 C661 1.363 . S
C660 H663 0.929 1_556 S
C661 C660 1.363 . S
C661 C667 1.428 . S
H662 C658 0.930 . S
H663 C660 0.929 1_554 S
S664 N665 1.613 . S
S664 N666 1.610 . S
N665 S664 1.613 . S
N665 C668 1.350 . S
N666 S664 1.610 . S
N666 C667 1.351 . S
C667 C661 1.428 . S
C667 N666 1.351 . S
C667 C668 1.434 . S
C668 C659 1.429 . S
C668 N665 1.350 . S
C668 C667 1.434 . S
C669 C670 1.369 . S
C669 C671 1.419 . S
C669 H673 0.930 . S
C670 C669 1.369 . S
C670 C679 1.429 . S
C671 C669 1.419 . S
C671 C672 1.363 . S
C671 H674 0.929 . S
C672 C671 1.363 . S
C672 C678 1.428 . S
H673 C669 0.930 . S
H674 C671 0.929 . S
S675 N676 1.613 . S
S675 N677 1.610 . S
N676 S675 1.613 . S
N676 C679 1.350 . S
N677 S675 1.610 . S
N677 C678 1.351 . S
C678 C672 1.428 . S
C678 N677 1.351 . S
C678 C679 1.434 . S
C679 C670 1.429 . S
C679 N676 1.350 . S
C679 C678 1.434 . S
C680 C681 1.369 . S
C680 C682 1.419 . S
C680 H684 0.930 . S
C681 C680 1.369 . S
C681 C690 1.429 . S
C682 C680 1.419 . S
C682 C683 1.363 . S
C682 H685 0.929 . S
C683 C682 1.363 . S
C683 C689 1.428 . S
H684 C680 0.930 . S
H685 C682 0.929 . S
S686 N687 1.613 . S
S686 N688 1.610 . S
N687 S686 1.613 . S
N687 C690 1.350 . S
N688 S686 1.610 . S
N688 C689 1.351 . S
C689 C683 1.428 . S
C689 N688 1.351 . S
C689 C690 1.434 . S
C690 C681 1.429 . S
C690 N687 1.350 . S
C690 C689 1.434 . S
C691 C692 1.369 . S
C691 C693 1.419 . S
C691 H695 0.930 . S
C692 C691 1.369 . S
C692 C701 1.429 . S
C693 C691 1.419 . S
C693 C694 1.363 . S
C693 H696 0.929 . S
C694 C693 1.363 . S
C694 C700 1.428 . S
H695 C691 0.930 . S
H696 C693 0.929 . S
S697 N698 1.613 . S
S697 N699 1.610 . S
N698 S697 1.613 . S
N698 C701 1.350 . S
N699 S697 1.610 . S
N699 C700 1.351 . S
C700 C694 1.428 . S
C700 N699 1.351 . S
C700 C701 1.434 . S
C701 C692 1.429 . S
C701 N698 1.350 . S
C701 C700 1.434 . S
C702 C703 1.369 . S
C702 C704 1.419 . S
C702 H706 0.930 . S
C703 C702 1.369 . S
C703 C712 1.429 . S
C704 C702 1.419 . S
C704 C705 1.363 . S
C704 H707 0.929 1_556 S
C705 C704 1.363 . S
C705 C711 1.428 . S
H706 C702 0.930 . S
H707 C704 0.929 1_554 S
S708 N709 1.613 . S
S708 N710 1.610 . S
N709 S708 1.613 . S
N709 C712 1.350 . S
N710 S708 1.610 . S
N710 C711 1.351 . S
C711 C705 1.428 . S
C711 N710 1.351 . S
C711 C712 1.434 . S
C712 C703 1.429 . S
C712 N709 1.350 . S
C712 C711 1.434 . S
C713 C714 1.369 . S
C713 C715 1.419 . S
C713 H717 0.930 . S
C714 C713 1.369 . S
C714 C723 1.429 . S
C715 C713 1.419 . S
C715 C716 1.363 . S
C715 H718 0.929 1_556 S
C716 C715 1.363 . S
C716 C722 1.428 . S
H717 C713 0.930 . S
H718 C715 0.929 1_554 S
S719 N720 1.613 . S
S719 N721 1.610 . S
N720 S719 1.613 . S
N720 C723 1.350 . S
N721 S719 1.610 . S
N721 C722 1.351 . S
C722 C716 1.428 . S
C722 N721 1.351 . S
C722 C723 1.434 . S
C723 C714 1.429 . S
C723 N720 1.350 . S
C723 C722 1.434 . S
C724 C725 1.369 . S
C724 C726 1.419 . S
C724 H728 0.930 . S
C725 C724 1.369 . S
C725 C734 1.429 . S
C726 C724 1.419 . S
C726 C727 1.363 . S
C726 H729 0.929 . S
C727 C726 1.363 . S
C727 C733 1.428 . S
H728 C724 0.930 . S
H729 C726 0.929 . S
S730 N731 1.613 . S
S730 N732 1.610 . S
N731 S730 1.613 . S
N731 C734 1.350 . S
N732 S730 1.610 . S
N732 C733 1.351 . S
C733 C727 1.428 . S
C733 N732 1.351 . S
C733 C734 1.434 . S
C734 C725 1.429 . S
C734 N731 1.350 . S
C734 C733 1.434 . S
C735 C736 1.369 . S
C735 C737 1.419 . S
C735 H739 0.930 . S
C736 C735 1.369 . S
C736 C745 1.429 . S
C737 C735 1.419 . S
C737 C738 1.363 . S
C737 H740 0.929 . S
C738 C737 1.363 . S
C738 C744 1.428 . S
H739 C735 0.930 . S
H740 C737 0.929 . S
S741 N742 1.613 . S
S741 N743 1.610 . S
N742 S741 1.613 . S
N742 C745 1.350 . S
N743 S741 1.610 . S
N743 C744 1.351 . S
C744 C738 1.428 . S
C744 N743 1.351 . S
C744 C745 1.434 . S
C745 C736 1.429 . S
C745 N742 1.350 . S
C745 C744 1.434 . S
C746 C747 1.369 . S
C746 C748 1.419 . S
C746 H750 0.930 . S
C747 C746 1.369 . S
C747 C756 1.429 . S
C748 C746 1.419 . S
C748 C749 1.363 . S
C748 H751 0.929 . S
C749 C748 1.363 . S
C749 C755 1.428 . S
H750 C746 0.930 . S
H751 C748 0.929 . S
S752 N753 1.613 . S
S752 N754 1.610 . S
N753 S752 1.613 . S
N753 C756 1.350 . S
N754 S752 1.610 . S
N754 C755 1.351 . S
C755 C749 1.428 . S
C755 N754 1.351 . S
C755 C756 1.434 . S
C756 C747 1.429 . S
C756 N753 1.350 . S
C756 C755 1.434 . S
C757 C758 1.369 . S
C757 C759 1.419 . S
C757 H761 0.930 . S
C758 C757 1.369 . S
C758 C767 1.429 . S
C759 C757 1.419 . S
C759 C760 1.363 . S
C759 H762 0.929 . S
C760 C759 1.363 . S
C760 C766 1.428 . S
H761 C757 0.930 . S
H762 C759 0.929 . S
S763 N764 1.613 . S
S763 N765 1.610 . S
N764 S763 1.613 . S
N764 C767 1.350 . S
N765 S763 1.610 . S
N765 C766 1.351 . S
C766 C760 1.428 . S
C766 N765 1.351 . S
C766 C767 1.434 . S
C767 C758 1.429 . S
C767 N764 1.350 . S
C767 C766 1.434 . S
C768 C769 1.369 . S
C768 C770 1.419 . S
C768 H772 0.930 . S
C769 C768 1.369 . S
C769 C778 1.429 . S
C770 C768 1.419 . S
C770 C771 1.363 . S
C770 H773 0.929 . S
C771 C770 1.363 . S
C771 C777 1.428 . S
H772 C768 0.930 . S
H773 C770 0.929 . S
S774 N775 1.613 . S
S774 N776 1.610 1_556 S
N775 S774 1.613 . S
N775 C778 1.350 1_556 S
N776 S774 1.610 1_554 S
N776 C777 1.351 . S
C777 C771 1.428 . S
C777 N776 1.351 . S
C777 C778 1.434 . S
C778 C769 1.429 . S
C778 N775 1.350 1_554 S
C778 C777 1.434 . S
C779 C780 1.369 . S
C779 C781 1.419 . S
C779 H783 0.930 . S
C780 C779 1.369 . S
C780 C789 1.429 . S
C781 C779 1.419 . S
C781 C782 1.363 . S
C781 H784 0.929 . S
C782 C781 1.363 . S
C782 C788 1.428 . S
H783 C779 0.930 . S
H784 C781 0.929 . S
S785 N786 1.613 . S
S785 N787 1.610 1_556 S
N786 S785 1.613 . S
N786 C789 1.350 1_556 S
N787 S785 1.610 1_554 S
N787 C788 1.351 . S
C788 C782 1.428 . S
C788 N787 1.351 . S
C788 C789 1.434 . S
C789 C780 1.429 . S
C789 N786 1.350 1_554 S
C789 C788 1.434 . S
C790 C791 1.369 . S
C790 C792 1.419 . S
C790 H794 0.930 . S
C791 C790 1.369 . S
C791 C800 1.429 . S
C792 C790 1.419 . S
C792 C793 1.363 . S
C792 H795 0.929 . S
C793 C792 1.363 . S
C793 C799 1.428 . S
H794 C790 0.930 . S
H795 C792 0.929 . S
S796 N797 1.613 . S
S796 N798 1.610 1_556 S
N797 S796 1.613 . S
N797 C800 1.350 1_556 S
N798 S796 1.610 1_554 S
N798 C799 1.351 . S
C799 C793 1.428 . S
C799 N798 1.351 . S
C799 C800 1.434 . S
C800 C791 1.429 . S
C800 N797 1.350 1_554 S
C800 C799 1.434 . S
C801 C802 1.369 . S
C801 C803 1.419 . S
C801 H805 0.930 . S
C802 C801 1.369 . S
C802 C811 1.429 . S
C803 C801 1.419 . S
C803 C804 1.363 . S
C803 H806 0.929 . S
C804 C803 1.363 . S
C804 C810 1.428 . S
H805 C801 0.930 . S
H806 C803 0.929 . S
S807 N808 1.613 . S
S807 N809 1.610 . S
N808 S807 1.613 . S
N808 C811 1.350 . S
N809 S807 1.610 . S
N809 C810 1.351 . S
C810 C804 1.428 . S
C810 N809 1.351 . S
C810 C811 1.434 . S
C811 C802 1.429 . S
C811 N808 1.350 . S
C811 C810 1.434 . S
C812 C813 1.369 . S
C812 C814 1.419 . S
C812 H816 0.930 . S
C813 C812 1.369 . S
C813 C822 1.429 . S
C814 C812 1.419 . S
C814 C815 1.363 . S
C814 H817 0.929 . S
C815 C814 1.363 . S
C815 C821 1.428 . S
H816 C812 0.930 . S
H817 C814 0.929 . S
S818 N819 1.613 . S
S818 N820 1.610 . S
N819 S818 1.613 . S
N819 C822 1.350 . S
N820 S818 1.610 . S
N820 C821 1.351 . S
C821 C815 1.428 . S
C821 N820 1.351 . S
C821 C822 1.434 . S
C822 C813 1.429 . S
C822 N819 1.350 . S
C822 C821 1.434 . S
C823 C824 1.369 . S
C823 C825 1.419 . S
C823 H827 0.930 . S
C824 C823 1.369 . S
C824 C833 1.429 . S
C825 C823 1.419 . S
C825 C826 1.363 . S
C825 H828 0.929 . S
C826 C825 1.363 . S
C826 C832 1.428 . S
H827 C823 0.930 . S
H828 C825 0.929 . S
S829 N830 1.613 . S
S829 N831 1.610 . S
N830 S829 1.613 . S
N830 C833 1.350 . S
N831 S829 1.610 . S
N831 C832 1.351 . S
C832 C826 1.428 . S
C832 N831 1.351 . S
C832 C833 1.434 . S
C833 C824 1.429 . S
C833 N830 1.350 . S
C833 C832 1.434 . S
C834 C835 1.369 . S
C834 C836 1.419 . S
C834 H838 0.930 . S
C835 C834 1.369 . S
C835 C844 1.429 . S
C836 C834 1.419 . S
C836 C837 1.363 . S
C836 H839 0.929 . S
C837 C836 1.363 . S
C837 C843 1.428 . S
H838 C834 0.930 . S
H839 C836 0.929 . S
S840 N841 1.613 . S
S840 N842 1.610 . S
N841 S840 1.613 . S
N841 C844 1.350 . S
N842 S840 1.610 . S
N842 C843 1.351 . S
C843 C837 1.428 . S
C843 N842 1.351 . S
C843 C844 1.434 . S
C844 C835 1.429 . S
C844 N841 1.350 . S
C844 C843 1.434 . S
C845 C846 1.369 . S
C845 C847 1.419 . S
C845 H849 0.930 . S
C846 C845 1.369 . S
C846 C855 1.429 . S
C847 C845 1.419 . S
C847 C848 1.363 . S
C847 H850 0.929 . S
C848 C847 1.363 . S
C848 C854 1.428 . S
H849 C845 0.930 . S
H850 C847 0.929 . S
S851 N852 1.613 . S
S851 N853 1.610 . S
N852 S851 1.613 . S
N852 C855 1.350 . S
N853 S851 1.610 . S
N853 C854 1.351 . S
C854 C848 1.428 . S
C854 N853 1.351 . S
C854 C855 1.434 . S
C855 C846 1.429 . S
C855 N852 1.350 . S
C855 C854 1.434 . S
C856 C857 1.369 . S
C856 C858 1.419 . S
C856 H860 0.930 . S
C857 C856 1.369 . S
C857 C866 1.429 . S
C858 C856 1.419 . S
C858 C859 1.363 . S
C858 H861 0.929 . S
C859 C858 1.363 . S
C859 C865 1.428 . S
H860 C856 0.930 . S
H861 C858 0.929 . S
S862 N863 1.613 . S
S862 N864 1.610 . S
N863 S862 1.613 . S
N863 C866 1.350 . S
N864 S862 1.610 . S
N864 C865 1.351 . S
C865 C859 1.428 . S
C865 N864 1.351 . S
C865 C866 1.434 . S
C866 C857 1.429 . S
C866 N863 1.350 . S
C866 C865 1.434 . S
C867 C868 1.369 . S
C867 C869 1.419 1_556 S
C867 H871 0.930 . S
C868 C867 1.369 . S
C868 C877 1.429 . S
C869 C867 1.419 1_554 S
C869 C870 1.363 . S
C869 H872 0.929 . S
C870 C869 1.363 . S
C870 C876 1.428 1_554 S
H871 C867 0.930 . S
H872 C869 0.929 . S
S873 N874 1.613 . S
S873 N875 1.610 . S
N874 S873 1.613 . S
N874 C877 1.350 . S
N875 S873 1.610 . S
N875 C876 1.351 . S
C876 C870 1.428 1_556 S
C876 N875 1.351 . S
C876 C877 1.434 . S
C877 C868 1.429 . S
C877 N874 1.350 . S
C877 C876 1.434 . S
C878 C879 1.369 . S
C878 C880 1.419 . S
C878 H882 0.930 . S
C879 C878 1.369 . S
C879 C888 1.429 . S
C880 C878 1.419 . S
C880 C881 1.363 1_556 S
C880 H883 0.929 . S
C881 C880 1.363 1_554 S
C881 C887 1.428 . S
H882 C878 0.930 . S
H883 C880 0.929 . S
S884 N885 1.613 1_554 S
S884 N886 1.610 . S
N885 S884 1.613 1_556 S
N885 C888 1.350 . S
N886 S884 1.610 . S
N886 C887 1.351 . S
C887 C881 1.428 . S
C887 N886 1.351 . S
C887 C888 1.434 1_554 S
C888 C879 1.429 . S
C888 N885 1.350 . S
C888 C887 1.434 1_556 S
C889 C890 1.369 . S
C889 C891 1.419 . S
C889 H893 0.930 . S
C890 C889 1.369 . S
C890 C899 1.429 . S
C891 C889 1.419 . S
C891 C892 1.363 1_556 S
C891 H894 0.929 1_556 S
C892 C891 1.363 1_554 S
C892 C898 1.428 1_554 S
H893 C889 0.930 . S
H894 C891 0.929 1_554 S
S895 N896 1.613 . S
S895 N897 1.610 . S
N896 S895 1.613 . S
N896 C899 1.350 . S
N897 S895 1.610 . S
N897 C898 1.351 . S
C898 C892 1.428 1_556 S
C898 N897 1.351 . S
C898 C899 1.434 . S
C899 C890 1.429 . S
C899 N896 1.350 . S
C899 C898 1.434 . S
C900 C901 1.369 . S
C900 C902 1.419 . S
C900 H904 0.930 . S
C901 C900 1.369 . S
C901 C910 1.429 . S
C902 C900 1.419 . S
C902 C903 1.363 . S
C902 H905 0.929 . S
C903 C902 1.363 . S
C903 C909 1.428 . S
H904 C900 0.930 . S
H905 C902 0.929 . S
S906 N907 1.613 . S
S906 N908 1.610 . S
N907 S906 1.613 . S
N907 C910 1.350 . S
N908 S906 1.610 . S
N908 C909 1.351 . S
C909 C903 1.428 . S
C909 N908 1.351 . S
C909 C910 1.434 . S
C910 C901 1.429 . S
C910 N907 1.350 . S
C910 C909 1.434 . S
C911 C912 1.369 . S
C911 C913 1.419 . S
C911 H915 0.930 . S
C912 C911 1.369 . S
C912 C921 1.429 . S
C913 C911 1.419 . S
C913 C914 1.363 . S
C913 H916 0.929 . S
C914 C913 1.363 . S
C914 C920 1.428 . S
H915 C911 0.930 . S
H916 C913 0.929 . S
S917 N918 1.613 . S
S917 N919 1.610 . S
N918 S917 1.613 . S
N918 C921 1.350 . S
N919 S917 1.610 . S
N919 C920 1.351 . S
C920 C914 1.428 . S
C920 N919 1.351 . S
C920 C921 1.434 . S
C921 C912 1.429 . S
C921 N918 1.350 . S
C921 C920 1.434 . S
C922 C923 1.369 . S
C922 C924 1.419 . S
C922 H926 0.930 . S
C923 C922 1.369 . S
C923 C932 1.429 . S
C924 C922 1.419 . S
C924 C925 1.363 . S
C924 H927 0.929 . S
C925 C924 1.363 . S
C925 C931 1.428 . S
H926 C922 0.930 . S
H927 C924 0.929 . S
S928 N929 1.613 . S
S928 N930 1.610 . S
N929 S928 1.613 . S
N929 C932 1.350 . S
N930 S928 1.610 . S
N930 C931 1.351 . S
C931 C925 1.428 . S
C931 N930 1.351 . S
C931 C932 1.434 . S
C932 C923 1.429 . S
C932 N929 1.350 . S
C932 C931 1.434 . S
C933 C934 1.369 . S
C933 C935 1.419 . S
C933 H937 0.930 . S
C934 C933 1.369 . S
C934 C943 1.429 . S
C935 C933 1.419 . S
C935 C936 1.363 . S
C935 H938 0.929 . S
C936 C935 1.363 . S
C936 C942 1.428 . S
H937 C933 0.930 . S
H938 C935 0.929 . S
S939 N940 1.613 . S
S939 N941 1.610 . S
N940 S939 1.613 . S
N940 C943 1.350 . S
N941 S939 1.610 . S
N941 C942 1.351 . S
C942 C936 1.428 . S
C942 N941 1.351 . S
C942 C943 1.434 . S
C943 C934 1.429 . S
C943 N940 1.350 . S
C943 C942 1.434 . S
C944 C945 1.369 . S
C944 C946 1.419 . S
C944 H948 0.930 . S
C945 C944 1.369 . S
C945 C954 1.429 . S
C946 C944 1.419 . S
C946 C947 1.363 . S
C946 H949 0.929 . S
C947 C946 1.363 . S
C947 C953 1.428 . S
H948 C944 0.930 . S
H949 C946 0.929 . S
S950 N951 1.613 . S
S950 N952 1.610 . S
N951 S950 1.613 . S
N951 C954 1.350 . S
N952 S950 1.610 . S
N952 C953 1.351 . S
C953 C947 1.428 . S
C953 N952 1.351 . S
C953 C954 1.434 . S
C954 C945 1.429 . S
C954 N951 1.350 . S
C954 C953 1.434 . S
C955 C956 1.369 . S
C955 C957 1.419 . S
C955 H959 0.930 . S
C956 C955 1.369 . S
C956 C965 1.429 . S
C957 C955 1.419 . S
C957 C958 1.363 . S
C957 H960 0.929 . S
C958 C957 1.363 . S
C958 C964 1.428 . S
H959 C955 0.930 . S
H960 C957 0.929 . S
S961 N962 1.613 . S
S961 N963 1.610 . S
N962 S961 1.613 . S
N962 C965 1.350 . S
N963 S961 1.610 . S
N963 C964 1.351 . S
C964 C958 1.428 . S
C964 N963 1.351 . S
C964 C965 1.434 . S
C965 C956 1.429 . S
C965 N962 1.350 . S
C965 C964 1.434 . S
C966 C967 1.369 . S
C966 C968 1.419 . S
C966 H970 0.930 . S
C967 C966 1.369 . S
C967 C976 1.429 . S
C968 C966 1.419 . S
C968 C969 1.363 . S
C968 H971 0.929 . S
C969 C968 1.363 . S
C969 C975 1.428 . S
H970 C966 0.930 . S
H971 C968 0.929 . S
S972 N973 1.613 . S
S972 N974 1.610 . S
N973 S972 1.613 . S
N973 C976 1.350 . S
N974 S972 1.610 . S
N974 C975 1.351 . S
C975 C969 1.428 . S
C975 N974 1.351 . S
C975 C976 1.434 . S
C976 C967 1.429 . S
C976 N973 1.350 . S
C976 C975 1.434 . S
C977 C978 1.369 . S
C977 C979 1.419 . S
C977 H981 0.930 . S
C978 C977 1.369 . S
C978 C987 1.429 . S
C979 C977 1.419 . S
C979 C980 1.363 . S
C979 H982 0.929 . S
C980 C979 1.363 . S
C980 C986 1.428 . S
H981 C977 0.930 . S
H982 C979 0.929 . S
S983 N984 1.613 . S
S983 N985 1.610 . S
N984 S983 1.613 . S
N984 C987 1.350 . S
N985 S983 1.610 . S
N985 C986 1.351 . S
C986 C980 1.428 . S
C986 N985 1.351 . S
C986 C987 1.434 . S
C987 C978 1.429 . S
C987 N984 1.350 . S
C987 C986 1.434 . S
C988 C989 1.369 . S
C988 C990 1.419 . S
C988 H992 0.930 . S
C989 C988 1.369 . S
C989 C998 1.429 . S
C990 C988 1.419 . S
C990 C991 1.363 . S
C990 H993 0.929 . S
C991 C990 1.363 . S
C991 C997 1.428 . S
H992 C988 0.930 . S
H993 C990 0.929 . S
S994 N995 1.613 . S
S994 N996 1.610 . S
N995 S994 1.613 . S
N995 C998 1.350 . S
N996 S994 1.610 . S
N996 C997 1.351 . S
C997 C991 1.428 . S
C997 N996 1.351 . S
C997 C998 1.434 . S
C998 C989 1.429 . S
C998 N995 1.350 . S
C998 C997 1.434 . S
C999 C1000 1.369 . S
C999 C1001 1.419 . S
C999 H1003 0.930 . S
C1000 C999 1.369 . S
C1000 C1009 1.429 . S
C1001 C999 1.419 . S
C1001 C1002 1.363 . S
C1001 H1004 0.929 . S
C1002 C1001 1.363 . S
C1002 C1008 1.428 . S
H1003 C999 0.930 . S
H1004 C1001 0.929 . S
S1005 N1006 1.613 . S
S1005 N1007 1.610 . S
N1006 S1005 1.613 . S
N1006 C1009 1.350 . S
N1007 S1005 1.610 . S
N1007 C1008 1.351 . S
C1008 C1002 1.428 . S
C1008 N1007 1.351 . S
C1008 C1009 1.434 . S
C1009 C1000 1.429 . S
C1009 N1006 1.350 . S
C1009 C1008 1.434 . S
C1010 C1011 1.369 . S
C1010 C1012 1.419 . S
C1010 H1014 0.930 . S
C1011 C1010 1.369 . S
C1011 C1020 1.429 . S
C1012 C1010 1.419 . S
C1012 C1013 1.363 . S
C1012 H1015 0.929 . S
C1013 C1012 1.363 . S
C1013 C1019 1.428 . S
H1014 C1010 0.930 . S
H1015 C1012 0.929 . S
S1016 N1017 1.613 . S
S1016 N1018 1.610 . S
N1017 S1016 1.613 . S
N1017 C1020 1.350 . S
N1018 S1016 1.610 . S
N1018 C1019 1.351 . S
C1019 C1013 1.428 . S
C1019 N1018 1.351 . S
C1019 C1020 1.434 . S
C1020 C1011 1.429 . S
C1020 N1017 1.350 . S
C1020 C1019 1.434 . S
C1021 C1022 1.369 . S
C1021 C1023 1.419 . S
C1021 H1025 0.930 . S
C1022 C1021 1.369 . S
C1022 C1031 1.429 . S
C1023 C1021 1.419 . S
C1023 C1024 1.363 . S
C1023 H1026 0.929 . S
C1024 C1023 1.363 . S
C1024 C1030 1.428 . S
H1025 C1021 0.930 . S
H1026 C1023 0.929 . S
S1027 N1028 1.613 . S
S1027 N1029 1.610 . S
N1028 S1027 1.613 . S
N1028 C1031 1.350 . S
N1029 S1027 1.610 . S
N1029 C1030 1.351 . S
C1030 C1024 1.428 . S
C1030 N1029 1.351 . S
C1030 C1031 1.434 . S
C1031 C1022 1.429 . S
C1031 N1028 1.350 . S
C1031 C1030 1.434 . S
C1032 C1033 1.369 . S
C1032 C1034 1.419 . S
C1032 H1036 0.930 . S
C1033 C1032 1.369 . S
C1033 C1042 1.429 . S
C1034 C1032 1.419 . S
C1034 C1035 1.363 . S
C1034 H1037 0.929 . S
C1035 C1034 1.363 . S
C1035 C1041 1.428 . S
H1036 C1032 0.930 . S
H1037 C1034 0.929 . S
S1038 N1039 1.613 . S
S1038 N1040 1.610 . S
N1039 S1038 1.613 . S
N1039 C1042 1.350 . S
N1040 S1038 1.610 . S
N1040 C1041 1.351 . S
C1041 C1035 1.428 . S
C1041 N1040 1.351 . S
C1041 C1042 1.434 . S
C1042 C1033 1.429 . S
C1042 N1039 1.350 . S
C1042 C1041 1.434 . S
C1043 C1044 1.369 . S
C1043 C1045 1.419 . S
C1043 H1047 0.930 . S
C1044 C1043 1.369 . S
C1044 C1053 1.429 . S
C1045 C1043 1.419 . S
C1045 C1046 1.363 . S
C1045 H1048 0.929 . S
C1046 C1045 1.363 . S
C1046 C1052 1.428 . S
H1047 C1043 0.930 . S
H1048 C1045 0.929 . S
S1049 N1050 1.613 . S
S1049 N1051 1.610 . S
N1050 S1049 1.613 . S
N1050 C1053 1.350 . S
N1051 S1049 1.610 . S
N1051 C1052 1.351 . S
C1052 C1046 1.428 . S
C1052 N1051 1.351 . S
C1052 C1053 1.434 . S
C1053 C1044 1.429 . S
C1053 N1050 1.350 . S
C1053 C1052 1.434 . S
C1054 C1055 1.369 . S
C1054 C1056 1.419 . S
C1054 H1058 0.930 . S
C1055 C1054 1.369 . S
C1055 C1064 1.429 . S
C1056 C1054 1.419 . S
C1056 C1057 1.363 . S
C1056 H1059 0.929 . S
C1057 C1056 1.363 . S
C1057 C1063 1.428 . S
H1058 C1054 0.930 . S
H1059 C1056 0.929 . S
S1060 N1061 1.613 . S
S1060 N1062 1.610 . S
N1061 S1060 1.613 . S
N1061 C1064 1.350 . S
N1062 S1060 1.610 . S
N1062 C1063 1.351 . S
C1063 C1057 1.428 . S
C1063 N1062 1.351 . S
C1063 C1064 1.434 . S
C1064 C1055 1.429 . S
C1064 N1061 1.350 . S
C1064 C1063 1.434 . S
C1065 C1066 1.369 1_554 S
C1065 C1067 1.419 . S
C1065 H1069 0.930 . S
C1066 C1065 1.369 1_556 S
C1066 C1075 1.429 . S
C1067 C1065 1.419 . S
C1067 C1068 1.363 . S
C1067 H1070 0.929 . S
C1068 C1067 1.363 . S
C1068 C1074 1.441 . S
H1069 C1065 0.930 . S
H1070 C1067 0.929 . S
S1071 N1072 1.613 . S
S1071 N1073 1.610 . S
N1072 S1071 1.613 . S
N1072 C1075 1.350 . S
N1073 S1071 1.610 . S
N1073 C1074 1.345 1_556 S
C1074 C1068 1.441 . S
C1074 N1073 1.345 1_554 S
C1074 C1075 1.427 1_554 S
C1075 C1066 1.429 . S
C1075 N1072 1.350 . S
C1075 C1074 1.427 1_556 S
C1076 C1077 1.369 1_554 S
C1076 C1078 1.419 . S
C1076 H1080 0.930 1_554 S
C1077 C1076 1.369 1_556 S
C1077 C1086 1.429 1_556 S
C1078 C1076 1.419 . S
C1078 C1079 1.363 . S
C1078 H1081 0.929 . S
C1079 C1078 1.363 . S
C1079 C1085 1.428 . S
H1080 C1076 0.930 1_556 S
H1081 C1078 0.929 . S
S1082 N1083 1.613 . S
S1082 N1084 1.610 . S
N1083 S1082 1.613 . S
N1083 C1086 1.350 . S
N1084 S1082 1.610 . S
N1084 C1085 1.351 . S
C1085 C1079 1.428 . S
C1085 N1084 1.351 . S
C1085 C1086 1.434 . S
C1086 C1077 1.429 1_554 S
C1086 N1083 1.350 . S
C1086 C1085 1.434 . S
C1087 C1088 1.369 1_554 S
C1087 C1089 1.419 . S
C1087 H1091 0.930 . S
C1088 C1087 1.369 1_556 S
C1088 C1097 1.429 . S
C1089 C1087 1.419 . S
C1089 C1090 1.363 . S
C1089 H1092 0.929 . S
C1090 C1089 1.363 . S
C1090 C1096 1.428 . S
H1091 C1087 0.930 . S
H1092 C1089 0.929 . S
S1093 N1094 1.613 . S
S1093 N1095 1.610 1_556 S
N1094 S1093 1.613 . S
N1094 C1097 1.350 . S
N1095 S1093 1.610 1_554 S
N1095 C1096 1.351 . S
C1096 C1090 1.428 . S
C1096 N1095 1.351 . S
C1096 C1097 1.434 1_554 S
C1097 C1088 1.429 . S
C1097 N1094 1.350 . S
C1097 C1096 1.434 1_556 S
C1098 C1099 1.369 . S
C1098 C1100 1.419 . S
C1098 H1102 0.930 . S
C1099 C1098 1.369 . S
C1099 C1108 1.429 . S
C1100 C1098 1.419 . S
C1100 C1101 1.363 . S
C1100 H1103 0.929 . S
C1101 C1100 1.363 . S
C1101 C1107 1.428 . S
H1102 C1098 0.930 . S
H1103 C1100 0.929 . S
S1104 N1105 1.613 . S
S1104 N1106 1.610 . S
N1105 S1104 1.613 . S
N1105 C1108 1.350 . S
N1106 S1104 1.610 . S
N1106 C1107 1.351 . S
C1107 C1101 1.428 . S
C1107 N1106 1.351 . S
C1107 C1108 1.434 . S
C1108 C1099 1.429 . S
C1108 N1105 1.350 . S
C1108 C1107 1.434 . S
C1109 C1110 1.369 . S
C1109 C1111 1.419 . S
C1109 H1113 0.930 . S
C1110 C1109 1.369 . S
C1110 C1119 1.429 1_556 S
C1111 C1109 1.419 . S
C1111 C1112 1.363 . S
C1111 H1114 0.929 . S
C1112 C1111 1.363 . S
C1112 C1118 1.428 . S
H1113 C1109 0.930 . S
H1114 C1111 0.929 . S
S1115 N1116 1.613 . S
S1115 N1117 1.610 1_554 S
N1116 S1115 1.613 . S
N1116 C1119 1.350 . S
N1117 S1115 1.610 1_556 S
N1117 C1118 1.351 . S
C1118 C1112 1.428 . S
C1118 N1117 1.351 . S
C1118 C1119 1.434 1_556 S
C1119 C1110 1.429 1_554 S
C1119 N1116 1.350 . S
C1119 C1118 1.434 1_554 S
C1120 C1121 1.369 . S
C1120 C1122 1.419 . S
C1120 H1124 0.930 . S
C1121 C1120 1.369 . S
C1121 C1130 1.429 . S
C1122 C1120 1.419 . S
C1122 C1123 1.363 . S
C1122 H1125 0.929 . S
C1123 C1122 1.363 . S
C1123 C1129 1.428 . S
H1124 C1120 0.930 . S
H1125 C1122 0.929 . S
S1126 N1127 1.613 . S
S1126 N1128 1.610 1_556 S
N1127 S1126 1.613 . S
N1127 C1130 1.350 . S
N1128 S1126 1.610 1_554 S
N1128 C1129 1.351 1_554 S
C1129 C1123 1.428 . S
C1129 N1128 1.351 1_556 S
C1129 C1130 1.434 . S
C1130 C1121 1.429 . S
C1130 N1127 1.350 . S
C1130 C1129 1.434 . S
C1131 C1132 1.369 . S
C1131 C1133 1.419 . S
C1131 H1135 0.930 . S
C1132 C1131 1.369 . S
C1132 C1141 1.429 . S
C1133 C1131 1.419 . S
C1133 C1134 1.363 . S
C1133 H1136 0.929 . S
C1134 C1133 1.363 . S
C1134 C1140 1.428 . S
H1135 C1131 0.930 . S
H1136 C1133 0.929 . S
S1137 N1138 1.613 . S
S1137 N1139 1.610 . S
N1138 S1137 1.613 . S
N1138 C1141 1.350 . S
N1139 S1137 1.610 . S
N1139 C1140 1.351 . S
C1140 C1134 1.428 . S
C1140 N1139 1.351 . S
C1140 C1141 1.434 . S
C1141 C1132 1.429 . S
C1141 N1138 1.350 . S
C1141 C1140 1.434 . S
C1142 C1143 1.369 . S
C1142 C1144 1.419 . S
C1142 H1146 0.930 . S
C1143 C1142 1.369 . S
C1143 C1152 1.429 . S
C1144 C1142 1.419 . S
C1144 C1145 1.363 . S
C1144 H1147 0.929 . S
C1145 C1144 1.363 . S
C1145 C1151 1.428 . S
H1146 C1142 0.930 . S
H1147 C1144 0.929 . S
S1148 N1149 1.613 . S
S1148 N1150 1.610 . S
N1149 S1148 1.613 . S
N1149 C1152 1.350 . S
N1150 S1148 1.610 . S
N1150 C1151 1.351 . S
C1151 C1145 1.428 . S
C1151 N1150 1.351 . S
C1151 C1152 1.434 . S
C1152 C1143 1.429 . S
C1152 N1149 1.350 . S
C1152 C1151 1.434 . S
C1153 C1154 1.369 . S
C1153 C1155 1.419 . S
C1153 H1157 0.930 . S
C1154 C1153 1.369 . S
C1154 C1163 1.429 . S
C1155 C1153 1.419 . S
C1155 C1156 1.363 . S
C1155 H1158 0.929 . S
C1156 C1155 1.363 . S
C1156 C1162 1.428 . S
H1157 C1153 0.930 . S
H1158 C1155 0.929 . S
S1159 N1160 1.613 . S
S1159 N1161 1.610 . S
N1160 S1159 1.613 . S
N1160 C1163 1.350 . S
N1161 S1159 1.610 . S
N1161 C1162 1.351 . S
C1162 C1156 1.428 . S
C1162 N1161 1.351 . S
C1162 C1163 1.434 . S
C1163 C1154 1.429 . S
C1163 N1160 1.350 . S
C1163 C1162 1.434 . S
C1164 C1165 1.369 . S
C1164 C1166 1.419 . S
C1164 H1168 0.930 . S
C1165 C1164 1.369 . S
C1165 C1174 1.429 . S
C1166 C1164 1.419 . S
C1166 C1167 1.363 . S
C1166 H1169 0.929 . S
C1167 C1166 1.363 . S
C1167 C1173 1.428 . S
H1168 C1164 0.930 . S
H1169 C1166 0.929 . S
S1170 N1171 1.613 . S
S1170 N1172 1.610 . S
N1171 S1170 1.613 . S
N1171 C1174 1.350 . S
N1172 S1170 1.610 . S
N1172 C1173 1.351 . S
C1173 C1167 1.428 . S
C1173 N1172 1.351 . S
C1173 C1174 1.434 . S
C1174 C1165 1.429 . S
C1174 N1171 1.350 . S
C1174 C1173 1.434 . S
C1175 C1176 1.369 . S
C1175 C1177 1.419 . S
C1175 H1179 0.930 . S
C1176 C1175 1.369 . S
C1176 C1185 1.429 . S
C1177 C1175 1.419 . S
C1177 C1178 1.363 . S
C1177 H1180 0.929 . S
C1178 C1177 1.363 . S
C1178 C1184 1.428 . S
H1179 C1175 0.930 . S
H1180 C1177 0.929 . S
S1181 N1182 1.613 . S
S1181 N1183 1.610 . S
N1182 S1181 1.613 . S
N1182 C1185 1.350 . S
N1183 S1181 1.610 . S
N1183 C1184 1.351 . S
C1184 C1178 1.428 . S
C1184 N1183 1.351 . S
C1184 C1185 1.434 . S
C1185 C1176 1.429 . S
C1185 N1182 1.350 . S
C1185 C1184 1.434 . S
C1186 C1187 1.369 . S
C1186 C1188 1.419 . S
C1186 H1190 0.930 . S
C1187 C1186 1.369 . S
C1187 C1196 1.429 . S
C1188 C1186 1.419 . S
C1188 C1189 1.363 . S
C1188 H1191 0.929 1_554 S
C1189 C1188 1.363 . S
C1189 C1195 1.428 . S
H1190 C1186 0.930 . S
H1191 C1188 0.929 1_556 S
S1192 N1193 1.613 . S
S1192 N1194 1.610 . S
N1193 S1192 1.613 . S
N1193 C1196 1.350 . S
N1194 S1192 1.610 . S
N1194 C1195 1.351 . S
C1195 C1189 1.428 . S
C1195 N1194 1.351 . S
C1195 C1196 1.434 . S
C1196 C1187 1.429 . S
C1196 N1193 1.350 . S
C1196 C1195 1.434 . S
C1197 C1198 1.369 . S
C1197 C1199 1.419 . S
C1197 H1201 0.930 . S
C1198 C1197 1.369 . S
C1198 C1207 1.429 . S
C1199 C1197 1.419 . S
C1199 C1200 1.363 . S
C1199 H1202 0.929 . S
C1200 C1199 1.363 . S
C1200 C1206 1.428 . S
H1201 C1197 0.930 . S
H1202 C1199 0.929 . S
S1203 N1204 1.613 . S
S1203 N1205 1.610 . S
N1204 S1203 1.613 . S
N1204 C1207 1.350 . S
N1205 S1203 1.610 . S
N1205 C1206 1.351 . S
C1206 C1200 1.428 . S
C1206 N1205 1.351 . S
C1206 C1207 1.434 . S
C1207 C1198 1.429 . S
C1207 N1204 1.350 . S
C1207 C1206 1.434 . S
C1208 C1209 1.369 . S
C1208 C1210 1.419 . S
C1208 H1212 0.930 . S
C1209 C1208 1.369 . S
C1209 C1218 1.429 . S
C1210 C1208 1.419 . S
C1210 C1211 1.363 . S
C1210 H1213 0.929 . S
C1211 C1210 1.363 . S
C1211 C1217 1.428 . S
H1212 C1208 0.930 . S
H1213 C1210 0.929 . S
S1214 N1215 1.613 . S
S1214 N1216 1.610 . S
N1215 S1214 1.613 . S
N1215 C1218 1.350 . S
N1216 S1214 1.610 . S
N1216 C1217 1.351 . S
C1217 C1211 1.428 . S
C1217 N1216 1.351 . S
C1217 C1218 1.434 . S
C1218 C1209 1.429 . S
C1218 N1215 1.350 . S
C1218 C1217 1.434 . S
C1219 C1220 1.369 . S
C1219 C1221 1.419 . S
C1219 H1223 0.930 . S
C1220 C1219 1.369 . S
C1220 C1229 1.429 . S
C1221 C1219 1.419 . S
C1221 C1222 1.363 . S
C1221 H1224 0.929 . S
C1222 C1221 1.363 . S
C1222 C1228 1.428 . S
H1223 C1219 0.930 . S
H1224 C1221 0.929 . S
S1225 N1226 1.613 . S
S1225 N1227 1.610 . S
N1226 S1225 1.613 . S
N1226 C1229 1.350 . S
N1227 S1225 1.610 . S
N1227 C1228 1.351 . S
C1228 C1222 1.428 . S
C1228 N1227 1.351 . S
C1228 C1229 1.434 . S
C1229 C1220 1.429 . S
C1229 N1226 1.350 . S
C1229 C1228 1.434 . S
C1230 C1231 1.369 1_455 S
C1230 C1232 1.419 . S
C1230 H1234 0.930 . S
C1231 C1230 1.369 1_655 S
C1231 C1240 1.429 . S
C1232 C1230 1.419 . S
C1232 C1233 1.363 . S
C1232 H1235 0.929 . S
C1233 C1232 1.363 . S
C1233 C1239 1.428 1_455 S
H1234 C1230 0.930 . S
H1235 C1232 0.929 . S
S1236 N1237 1.613 . S
S1236 N1238 1.610 . S
N1237 S1236 1.613 . S
N1237 C1240 1.350 . S
N1238 S1236 1.610 . S
N1238 C1239 1.351 . S
C1239 C1233 1.428 1_655 S
C1239 N1238 1.351 . S
C1239 C1240 1.434 . S
C1240 C1231 1.429 . S
C1240 N1237 1.350 . S
C1240 C1239 1.434 . S
C1241 C1242 1.369 . S
C1241 C1243 1.419 . S
C1241 H1245 0.930 . S
C1242 C1241 1.369 . S
C1242 C1251 1.429 . S
C1243 C1241 1.419 . S
C1243 C1244 1.363 . S
C1243 H1246 0.929 . S
C1244 C1243 1.363 . S
C1244 C1250 1.428 . S
H1245 C1241 0.930 . S
H1246 C1243 0.929 . S
S1247 N1248 1.613 . S
S1247 N1249 1.610 . S
N1248 S1247 1.613 . S
N1248 C1251 1.350 . S
N1249 S1247 1.610 . S
N1249 C1250 1.351 . S
C1250 C1244 1.428 . S
C1250 N1249 1.351 . S
C1250 C1251 1.434 . S
C1251 C1242 1.429 . S
C1251 N1248 1.350 . S
C1251 C1250 1.434 . S
C1252 C1253 1.367 1_545 S
C1252 C1254 1.423 . S
C1252 H1256 0.928 . S
C1253 C1252 1.367 1_565 S
C1253 C1262 1.429 . S
C1254 C1252 1.423 . S
C1254 C1255 1.363 . S
C1254 H1257 0.929 . S
C1255 C1254 1.363 . S
C1255 C1261 1.416 1_545 S
H1256 C1252 0.928 . S
H1257 C1254 0.929 . S
S1258 N1259 1.613 . S
S1258 N1260 1.610 . S
N1259 S1258 1.613 . S
N1259 C1262 1.350 . S
N1260 S1258 1.610 . S
N1260 C1261 1.341 . S
C1261 C1255 1.416 1_565 S
C1261 N1260 1.341 . S
C1261 C1262 1.459 . S
C1262 C1253 1.429 . S
C1262 N1259 1.350 . S
C1262 C1261 1.459 . S
C1263 C1264 1.369 1_565 S
C1263 C1265 1.419 . S
C1263 H1267 0.930 . S
C1264 C1263 1.369 1_545 S
C1264 C1273 1.429 . S
C1265 C1263 1.419 . S
C1265 C1266 1.363 . S
C1265 H1268 0.929 . S
C1266 C1265 1.363 . S
C1266 C1272 1.428 1_565 S
H1267 C1263 0.930 . S
H1268 C1265 0.929 . S
S1269 N1270 1.613 . S
S1269 N1271 1.610 . S
N1270 S1269 1.613 . S
N1270 C1273 1.350 . S
N1271 S1269 1.610 . S
N1271 C1272 1.351 . S
C1272 C1266 1.428 1_545 S
C1272 N1271 1.351 . S
C1272 C1273 1.434 . S
C1273 C1264 1.429 . S
C1273 N1270 1.350 . S
C1273 C1272 1.434 . S
C1274 C1275 1.336 1_655 S
C1274 C1276 1.439 . S
C1274 H1278 0.943 . S
C1275 C1274 1.336 1_455 S
C1275 C1284 1.429 . S
C1276 C1274 1.439 . S
C1276 C1277 1.363 . S
C1276 H1279 0.929 . S
C1277 C1276 1.363 . S
C1277 C1283 1.428 1_655 S
H1278 C1274 0.943 . S
H1279 C1276 0.929 . S
S1280 N1281 1.613 . S
S1280 N1282 1.610 . S
N1281 S1280 1.613 . S
N1281 C1284 1.350 . S
N1282 S1280 1.610 . S
N1282 C1283 1.351 . S
C1283 C1277 1.428 1_455 S
C1283 N1282 1.351 . S
C1283 C1284 1.434 . S
C1284 C1275 1.429 . S
C1284 N1281 1.350 . S
C1284 C1283 1.434 . S
C1285 C1286 1.369 . S
C1285 C1287 1.419 . S
C1285 H1289 0.930 . S
C1286 C1285 1.369 . S
C1286 C1295 1.429 . S
C1287 C1285 1.419 . S
C1287 C1288 1.363 . S
C1287 H1290 0.929 . S
C1288 C1287 1.363 . S
C1288 C1294 1.428 . S
H1289 C1285 0.930 . S
H1290 C1287 0.929 . S
S1291 N1292 1.613 . S
S1291 N1293 1.610 . S
N1292 S1291 1.613 . S
N1292 C1295 1.350 . S
N1293 S1291 1.610 . S
N1293 C1294 1.351 . S
C1294 C1288 1.428 . S
C1294 N1293 1.351 . S
C1294 C1295 1.434 . S
C1295 C1286 1.429 . S
C1295 N1292 1.350 . S
C1295 C1294 1.434 . S
C505 C81 1.357 . S
C507 C11 1.363 . S
C516 C25 1.357 . S
C518 C53 1.363 . S
C527 C67 1.359 . S
C529 C39 1.358 . S
C538 C95 1.359 . S
C540 C165 1.358 . S
C549 C109 1.360 . S
C551 C137 1.363 . S
C560 C151 1.359 . S
C562 C123 1.358 . S
C571 C249 1.359 . S
C573 C179 1.363 . S
C582 C193 1.361 . S
C584 C221 1.358 . S
C593 C235 1.358 . S
C595 C207 1.359 . S
C604 C263 1.357 . S
C606 C333 1.361 1_554 S
C615 C277 1.363 . S
C617 C305 1.357 1_554 S
C626 C291 1.356 . S
C628 C319 1.361 1_554 S
C637 C347 1.360 . S
C639 C417 1.363 1_556 S
C648 C389 1.357 1_556 S
C650 C361 1.363 . S
C659 C375 1.364 . S
C661 C403 1.360 1_556 S
C670 C431 1.357 . S
C672 C501 1.363 . S
C681 C445 1.362 . S
C683 C473 1.362 . S
C692 C459 1.357 . S
C694 C487 1.359 . S
C703 C153 1.123 . S
C705 C8 1.084 . S
C714 C167 1.127 . S
C716 C22 1.084 . S
C725 C139 1.134 . S
C727 C36 1.078 . S
C736 C125 1.131 . S
C738 C50 1.081 . S
C747 C64 1.067 . S
C749 C97 1.126 . S
C758 C78 1.087 . S
C760 C111 1.125 . S
C769 C92 1.067 . S
C771 C69 1.131 . S
C780 C106 1.066 . S
C782 C83 1.130 . S
C791 C120 1.066 . S
C793 C55 1.129 . S
C802 C41 1.134 . S
C804 C134 1.075 . S
C813 C13 1.133 . S
C815 C148 1.078 . S
C824 C162 1.073 . S
C826 C27 1.132 . S
C835 C176 1.087 . S
C837 C321 1.123 . S
C846 C190 1.087 . S
C848 C335 1.123 . S
C857 C307 1.134 . S
C859 C204 1.074 . S
C868 C218 1.078 . S
C870 C293 1.132 . S
C879 C232 1.087 . S
C881 C265 1.124 . S
C890 C246 1.067 . S
C892 C279 1.125 . S
C901 C260 1.066 . S
C903 C237 1.130 . S
C912 C251 1.118 . S
C914 C274 1.081 . S
C923 C223 1.134 . S
C925 C288 1.075 . S
C934 C302 1.081 . S
C936 C209 1.130 . S
C945 C181 1.120 . S
C947 C316 1.084 . S
C956 C195 1.119 . S
C958 C330 1.083 . S
C967 C489 1.118 . S
C969 C344 1.081 . S
C978 C358 1.087 . S
C980 C503 1.126 . S
C989 C372 1.087 . S
C991 C475 1.126 . S
C1000 C461 1.134 . S
C1002 C386 1.074 . S
C1011 C433 1.118 . S
C1013 C400 1.078 . S
C1022 C447 1.118 . S
C1024 C414 1.079 . S
C1033 C428 1.086 . S
C1035 C405 1.121 . S
C1044 C419 1.132 . S
C1046 C442 1.080 . S
C1055 C456 1.087 . S
C1057 C391 1.123 . S
C1066 C377 1.118 . S
C1068 C470 1.081 . S
C1077 C349 1.125 . S
C1079 C484 1.070 . S
C1088 C363 1.125 . S
C1090 C498 1.084 . S
C1099 C231 1.477 . S
C1101 C7 1.478 1_556 S
C1110 C21 1.484 1_556 S
C1112 C245 1.480 . S
C1121 C217 1.485 . S
C1123 C35 1.484 1_556 S
C1132 C371 1.480 . S
C1134 C49 1.478 . S
C1143 C63 1.478 . S
C1145 C343 1.478 . S
C1154 C77 1.477 . S
C1156 C357 1.478 . S
C1165 C91 1.478 1_554 S
C1167 C483 1.478 . S
C1176 C497 1.479 . S
C1178 C105 1.478 1_554 S
C1187 C469 1.483 . S
C1189 C119 1.479 1_554 S
C1198 C287 1.483 . S
C1200 C133 1.484 . S
C1209 C147 1.485 . S
C1211 C259 1.483 . S
C1220 C161 1.483 . S
C1222 C273 1.484 . S
C1231 C175 1.481 . S
C1233 C399 1.484 . S
C1242 C413 1.483 . S
C1244 C189 1.479 . S
C1253 C385 1.483 . S
C1255 C203 1.484 . S
C1264 C301 1.477 . S
C1266 C455 1.480 . S
C1275 C427 1.477 . S
C1277 C315 1.479 . S
C1286 C441 1.485 . S
C1288 C329 1.482 . S
