# Generated by pormake.
# Topology uou, (4)-cn, num edge types: 1
# Building blocks:
#     Node 0, Type 0, BuildingBlock: ICAMEG_clean_sbu_1, # of connection points: 4
#     Node 1, Type 0, BuildingBlock: ICAMEG_clean_sbu_1, # of connection points: 4
#     Node 2, Type 0, BuildingBlock: ICAMEG_clean_sbu_1, # of connection points: 4
#     Node 3, Type 0, BuildingBlock: ICAMEG_clean_sbu_1, # of connection points: 4
#     Node 4, Type 0, BuildingBlock: ICAMEG_clean_sbu_1, # of connection points: 4
#     Node 5, Type 0, BuildingBlock: ICAMEG_clean_sbu_1, # of connection points: 4
#     Node 6, Type 0, BuildingBlock: ICAMEG_clean_sbu_1, # of connection points: 4
#     Node 7, Type 0, BuildingBlock: ICAMEG_clean_sbu_1, # of connection points: 4
#     Node 8, Type 0, BuildingBlock: ICAMEG_clean_sbu_1, # of connection points: 4
#     Node 9, Type 0, BuildingBlock: ICAMEG_clean_sbu_1, # of connection points: 4
#     Node 10, Type 0, BuildingBlock: ICAMEG_clean_sbu_1, # of connection points: 4
#     Node 11, Type 0, BuildingBlock: ICAMEG_clean_sbu_1, # of connection points: 4
#     Node 12, Type 0, BuildingBlock: ICAMEG_clean_sbu_1, # of connection points: 4
#     Node 13, Type 0, BuildingBlock: ICAMEG_clean_sbu_1, # of connection points: 4
#     Node 14, Type 0, BuildingBlock: ICAMEG_clean_sbu_1, # of connection points: 4
#     Node 15, Type 0, BuildingBlock: ICAMEG_clean_sbu_1, # of connection points: 4
#     Edge 16, Type (0, 0), BuildingBlock: OJICUG_clean_linker_0, # of connection points: 2
#     Edge 17, Type (0, 0), BuildingBlock: OJICUG_clean_linker_0, # of connection points: 2
#     Edge 18, Type (0, 0), BuildingBlock: OJICUG_clean_linker_0, # of connection points: 2
#     Edge 19, Type (0, 0), BuildingBlock: OJICUG_clean_linker_0, # of connection points: 2
#     Edge 20, Type (0, 0), BuildingBlock: OJICUG_clean_linker_0, # of connection points: 2
#     Edge 21, Type (0, 0), BuildingBlock: OJICUG_clean_linker_0, # of connection points: 2
#     Edge 22, Type (0, 0), BuildingBlock: OJICUG_clean_linker_0, # of connection points: 2
#     Edge 23, Type (0, 0), BuildingBlock: OJICUG_clean_linker_0, # of connection points: 2
#     Edge 24, Type (0, 0), BuildingBlock: OJICUG_clean_linker_0, # of connection points: 2
#     Edge 25, Type (0, 0), BuildingBlock: OJICUG_clean_linker_0, # of connection points: 2
#     Edge 26, Type (0, 0), BuildingBlock: OJICUG_clean_linker_0, # of connection points: 2
#     Edge 27, Type (0, 0), BuildingBlock: OJICUG_clean_linker_0, # of connection points: 2
#     Edge 28, Type (0, 0), BuildingBlock: OJICUG_clean_linker_0, # of connection points: 2
#     Edge 29, Type (0, 0), BuildingBlock: OJICUG_clean_linker_0, # of connection points: 2
#     Edge 30, Type (0, 0), BuildingBlock: OJICUG_clean_linker_0, # of connection points: 2
#     Edge 31, Type (0, 0), BuildingBlock: OJICUG_clean_linker_0, # of connection points: 2
#     Edge 32, Type (0, 0), BuildingBlock: OJICUG_clean_linker_0, # of connection points: 2
#     Edge 33, Type (0, 0), BuildingBlock: OJICUG_clean_linker_0, # of connection points: 2
#     Edge 34, Type (0, 0), BuildingBlock: OJICUG_clean_linker_0, # of connection points: 2
#     Edge 35, Type (0, 0), BuildingBlock: OJICUG_clean_linker_0, # of connection points: 2
#     Edge 36, Type (0, 0), BuildingBlock: OJICUG_clean_linker_0, # of connection points: 2
#     Edge 37, Type (0, 0), BuildingBlock: OJICUG_clean_linker_0, # of connection points: 2
#     Edge 38, Type (0, 0), BuildingBlock: OJICUG_clean_linker_0, # of connection points: 2
#     Edge 39, Type (0, 0), BuildingBlock: OJICUG_clean_linker_0, # of connection points: 2
#     Edge 40, Type (0, 0), BuildingBlock: OJICUG_clean_linker_0, # of connection points: 2
#     Edge 41, Type (0, 0), BuildingBlock: OJICUG_clean_linker_0, # of connection points: 2
#     Edge 42, Type (0, 0), BuildingBlock: OJICUG_clean_linker_0, # of connection points: 2
#     Edge 43, Type (0, 0), BuildingBlock: OJICUG_clean_linker_0, # of connection points: 2
#     Edge 44, Type (0, 0), BuildingBlock: OJICUG_clean_linker_0, # of connection points: 2
#     Edge 45, Type (0, 0), BuildingBlock: OJICUG_clean_linker_0, # of connection points: 2
#     Edge 46, Type (0, 0), BuildingBlock: OJICUG_clean_linker_0, # of connection points: 2
#     Edge 47, Type (0, 0), BuildingBlock: OJICUG_clean_linker_0, # of connection points: 2
# Relax obj value: 0.027
# Max RMSD: 0.080
# Mean RMSD: 0.080
data_MOF--net-uou--node1-ICAMEG_clean_sbu_1--edge1-OJICUG_clean_linker_0
_symmetry_space_group_name_H-M    P1
_symmetry_Int_Tables_number       1
_symmetry_cell_setting            triclinic
loop_
_symmetry_equiv_pos_as_xyz
'x, y, z'
_cell_length_a     31.303101
_cell_length_b     29.734473
_cell_length_c     43.169748
_cell_angle_alpha  89.980919
_cell_angle_beta   89.869501
_cell_angle_gamma 89.996952
loop_
_atom_site_label
_atom_site_type_symbol
_atom_site_fract_x
_atom_site_fract_y
_atom_site_fract_z
_atom_type_partial_charge
Co0 Co 0.02839 0.06495 0.13226 0.0
Co1 Co 0.11428 0.12967 0.15598 0.0
O2 O 0.09 0.07848 0.1332 0.0
C3 C 0.00924 0.05553 0.06545 0.0
O4 O 0.98012 0.08671 0.06988 0.0
C5 C 0.16874 0.05297 0.17759 0.0
O6 O 0.13441 0.02822 0.18155 0.0
O7 O 0.08294 0.11145 0.19465 0.0
O8 O 0.02095 0.08465 0.17624 0.0
H9 H 0.10574 0.26504 0.22528 0.0
H10 H 0.09005 0.99503 0.1124 0.0
O11 O 0.03402 0.04443 0.08773 0.0
H12 H 0.01367 0.9295 0.20166 0.0
H13 H 0.89955 0.96981 0.10725 0.0
H14 H 0.95008 0.11106 0.15428 0.0
H15 H 0.99556 0.0054 0.18283 0.0
H16 H 0.97642 0.9878 0.10853 0.0
O17 O 0.16533 0.09336 0.16833 0.0
H18 H 0.07745 0.19974 0.19676 0.0
H19 H 0.20202 0.16819 0.16411 0.0
H20 H 0.8729 0.09454 0.15348 0.0
H21 H 0.10882 0.91876 0.13026 0.0
H22 H 0.84718 0.02342 0.12981 0.0
H23 H 0.07058 0.88557 0.17526 0.0
O24 O 0.01552 0.12773 0.11844 0.0
H25 H 0.20321 0.10196 0.06084 0.0
H26 H 0.12856 0.21675 0.12306 0.0
H27 H 0.16576 0.23932 0.0751 0.0
H28 H 0.20357 0.1817 0.04366 0.0
H29 H 0.16514 0.08084 0.10879 0.0
H30 H 0.23178 0.23251 0.19292 0.0
H31 H 0.18346 0.28172 0.22356 0.0
O32 O 0.06571 0.16838 0.14311 0.0
C33 C 0.04421 0.09874 0.1984 0.0
C34 C 0.12714 0.24385 0.21203 0.0
C35 C 0.19787 0.22557 0.19388 0.0
N36 N 0.13799 0.18024 0.17867 0.0
C37 C 0.11128 0.2069 0.19573 0.0
C38 C 0.18085 0.18902 0.17775 0.0
C39 C 0.17074 0.25317 0.21106 0.0
C40 C 0.07293 0.98061 0.13177 0.0
N41 N 0.04155 0.00454 0.14638 0.0
C42 C 0.08384 0.9375 0.14188 0.0
C43 C 0.06243 0.91893 0.16716 0.0
C44 C 0.03052 0.94357 0.182 0.0
C45 C 0.0205 0.98661 0.17128 0.0
C46 C 0.91034 1.00096 0.11757 0.0
C47 C 0.93911 0.08024 0.1438 0.0
C48 C 0.95383 0.01136 0.11835 0.0
N49 N 0.96774 0.05071 0.13127 0.0
C50 C 0.89538 0.07097 0.14348 0.0
C51 C 0.88098 0.03105 0.13022 0.0
C52 C 0.03222 0.16508 0.1266 0.0
C53 C 0.18681 0.12737 0.07431 0.0
C54 C 0.14453 0.19144 0.10933 0.0
C55 C 0.16574 0.20445 0.08228 0.0
C56 C 0.18698 0.17211 0.06468 0.0
N57 N 0.14443 0.14749 0.11861 0.0
C58 C 0.16523 0.11561 0.10149 0.0
Co59 Co 0.47823 0.93893 0.13184 0.0
Co60 Co 0.38678 0.89016 0.16075 0.0
O61 O 0.41548 0.9364 0.13546 0.0
C62 C 0.49443 0.94585 0.06441 0.0
O63 O 0.51809 0.90966 0.0676 0.0
C64 C 0.33823 0.97475 0.17701 0.0
O65 O 0.37307 0.99917 0.17507 0.0
O66 O 0.4213 0.90839 0.19773 0.0
O67 O 0.48558 0.91829 0.1757 0.0
H68 H 0.38346 0.76219 0.23674 0.0
H69 H 0.42787 0.01919 0.11416 0.0
O70 O 0.473 0.9606 0.08757 0.0
H71 H 0.52084 0.06966 0.1994 0.0
H72 H 0.61951 0.00858 0.10199 0.0
H73 H 0.54858 0.87762 0.14972 0.0
H74 H 0.52428 0.99151 0.18058 0.0
H75 H 0.54101 0.00571 0.10645 0.0
O76 O 0.33981 0.93256 0.1726 0.0
H77 H 0.4174 0.82096 0.20484 0.0
H78 H 0.29607 0.86148 0.17092 0.0
H79 H 0.62712 0.87912 0.1457 0.0
H80 H 0.4239 0.09791 0.13194 0.0
H81 H 0.66313 0.94495 0.12169 0.0
H82 H 0.47052 0.12355 0.17494 0.0
O83 O 0.47935 0.87506 0.11757 0.0
H84 H 0.29812 0.92031 0.06615 0.0
H85 H 0.36285 0.80254 0.13121 0.0
H86 H 0.32221 0.78078 0.08478 0.0
H87 H 0.2893 0.83992 0.05192 0.0
H88 H 0.33959 0.94052 0.1126 0.0
H89 H 0.26075 0.80389 0.2031 0.0
H90 H 0.30456 0.75353 0.2362 0.0
O91 O 0.43065 0.84463 0.14933 0.0
C92 C 0.46189 0.91287 0.19949 0.0
C93 C 0.36401 0.78402 0.22252 0.0
C94 C 0.29516 0.80741 0.20362 0.0
N95 N 0.35881 0.84464 0.18596 0.0
C96 C 0.38307 0.81727 0.2043 0.0
C97 C 0.31533 0.84016 0.18557 0.0
C98 C 0.31975 0.77915 0.22217 0.0
C99 C 0.4486 0.03023 0.13265 0.0
N100 N 0.47639 1.0008 0.14619 0.0
C101 C 0.44606 0.07479 0.14272 0.0
C102 C 0.47217 0.08913 0.16688 0.0
C103 C 0.50037 0.0589 0.18064 0.0
C104 C 0.50203 0.0146 0.16997 0.0
C105 C 0.6042 0.97972 0.11251 0.0
C106 C 0.56397 0.9064 0.13923 0.0
C107 C 0.55976 0.97791 0.11513 0.0
N108 N 0.54016 0.94151 0.12834 0.0
C109 C 0.60848 0.90705 0.13703 0.0
C110 C 0.62865 0.944 0.12356 0.0
C111 C 0.46087 0.84109 0.12973 0.0
C112 C 0.31231 0.89422 0.08027 0.0
C113 C 0.34914 0.82845 0.11688 0.0
C114 C 0.3259 0.81594 0.09068 0.0
C115 C 0.30741 0.84912 0.07228 0.0
N116 N 0.3538 0.87275 0.12461 0.0
C117 C 0.33578 0.90546 0.10664 0.0
Co118 Co 0.53144 0.93915 0.38684 0.0
Co119 Co 0.6232 0.8914 0.35766 0.0
O120 O 0.59419 0.93738 0.38298 0.0
C121 C 0.51587 0.94607 0.45437 0.0
O122 O 0.49244 0.90968 0.4514 0.0
C123 C 0.67131 0.97657 0.34189 0.0
O124 O 0.63664 1.00102 0.34485 0.0
O125 O 0.58825 0.90922 0.32082 0.0
O126 O 0.52397 0.91832 0.34302 0.0
H127 H 0.62721 0.76343 0.28174 0.0
H128 H 0.58091 0.02016 0.40423 0.0
O129 O 0.53685 0.96098 0.43105 0.0
H130 H 0.48663 0.06917 0.31932 0.0
H131 H 0.38963 0.00705 0.41731 0.0
H132 H 0.46163 0.87699 0.36929 0.0
H133 H 0.4844 0.991 0.3382 0.0
H134 H 0.46813 0.00516 0.41248 0.0
O135 O 0.66972 0.93422 0.34554 0.0
H136 H 0.59293 0.82186 0.31373 0.0
H137 H 0.71411 0.86358 0.34724 0.0
H138 H 0.38311 0.8775 0.37368 0.0
H139 H 0.58364 0.09892 0.3864 0.0
H140 H 0.34657 0.94288 0.39784 0.0
H141 H 0.53637 0.12384 0.34356 0.0
O142 O 0.53112 0.87531 0.40123 0.0
H143 H 0.71207 0.92269 0.45197 0.0
H144 H 0.64828 0.8041 0.38719 0.0
H145 H 0.68945 0.78286 0.4335 0.0
H146 H 0.72189 0.84241 0.46622 0.0
H147 H 0.67008 0.94236 0.40565 0.0
H148 H 0.74974 0.80635 0.31496 0.0
H149 H 0.70619 0.75555 0.28203 0.0
O150 O 0.57987 0.84542 0.3693 0.0
C151 C 0.54761 0.91322 0.31916 0.0
C152 C 0.64655 0.78545 0.29589 0.0
C153 C 0.7153 0.80953 0.31455 0.0
N154 N 0.65143 0.84613 0.33241 0.0
C155 C 0.6273 0.81852 0.31416 0.0
C156 C 0.69494 0.84207 0.33265 0.0
C157 C 0.69086 0.78102 0.2961 0.0
C158 C 0.5599 0.03087 0.38582 0.0
N159 N 0.53243 1.00101 0.37239 0.0
C160 C 0.56174 0.07546 0.37571 0.0
C161 C 0.53526 0.08939 0.35164 0.0
C162 C 0.50739 0.05873 0.33801 0.0
C163 C 0.50643 0.01441 0.34871 0.0
C164 C 0.40518 0.97838 0.40672 0.0
C165 C 0.44601 0.90557 0.37985 0.0
C166 C 0.44962 0.97713 0.4039 0.0
N167 N 0.46951 0.94098 0.39061 0.0
C168 C 0.40151 0.90567 0.38225 0.0
C169 C 0.38104 0.94236 0.3958 0.0
C170 C 0.54984 0.84155 0.38903 0.0
C171 C 0.69809 0.89642 0.43791 0.0
C172 C 0.66179 0.83018 0.40146 0.0
C173 C 0.68533 0.81796 0.42759 0.0
C174 C 0.70356 0.85138 0.44591 0.0
N175 N 0.65659 0.87441 0.39372 0.0
C176 C 0.67434 0.90735 0.41161 0.0
Co177 Co 0.98154 0.06504 0.38682 0.0
Co178 Co 0.8959 0.13046 0.36341 0.0
O179 O 0.92002 0.07905 0.38607 0.0
C180 C 1.00126 0.05562 0.45352 0.0
O181 O 0.03048 0.08662 0.44889 0.0
C182 C 0.84102 0.05426 0.34155 0.0
O183 O 0.87523 0.02945 0.33723 0.0
O184 O 0.92701 0.11228 0.32461 0.0
O185 O 0.98878 0.0846 0.34281 0.0
H186 H 0.90486 0.26638 0.2946 0.0
H187 H 0.91951 0.99569 0.407 0.0
O188 O 0.97616 0.04464 0.4314 0.0
H189 H 0.99468 0.92938 0.3175 0.0
H190 H 0.1099 0.96887 0.41135 0.0
H191 H 0.06001 0.11054 0.36448 0.0
H192 H 0.01355 0.00513 0.33619 0.0
H193 H 0.03315 0.98748 0.41038 0.0
O194 O 0.84463 0.09447 0.35111 0.0
H195 H 0.93291 0.20062 0.32276 0.0
H196 H 0.8083 0.16944 0.35549 0.0
H197 H 0.13707 0.0934 0.36497 0.0
H198 H 0.89997 0.91958 0.38928 0.0
H199 H 0.16248 0.02206 0.38856 0.0
H200 H 0.9376 0.886 0.34416 0.0
O201 O 0.99497 0.12774 0.4005 0.0
H202 H 0.80725 0.10271 0.4587 0.0
H203 H 0.88206 0.21746 0.3965 0.0
H204 H 0.84517 0.23997 0.44459 0.0
H205 H 0.80728 0.18237 0.47601 0.0
H206 H 0.84502 0.08164 0.41062 0.0
H207 H 0.77875 0.23419 0.32699 0.0
H208 H 0.82722 0.28346 0.29651 0.0
O209 O 0.94469 0.16884 0.37626 0.0
C210 C 0.96557 0.09909 0.32074 0.0
C211 C 0.88339 0.24515 0.30777 0.0
C212 C 0.81263 0.22706 0.32594 0.0
N213 N 0.87234 0.18127 0.34088 0.0
C214 C 0.89912 0.20795 0.32387 0.0
C215 C 0.82952 0.19026 0.34189 0.0
C216 C 0.83984 0.25471 0.30885 0.0
C217 C 0.93636 0.98109 0.38758 0.0
N218 N 0.96784 0.00472 0.37282 0.0
C219 C 0.92502 0.93808 0.37755 0.0
C220 C 0.94609 0.91929 0.3522 0.0
C221 C 0.9781 0.94362 0.33722 0.0
C222 C 0.98855 0.98658 0.34786 0.0
C223 C 0.09925 1.00011 0.40106 0.0
C224 C 0.07084 0.07963 0.37492 0.0
C225 C 0.05583 0.01085 0.40046 0.0
N226 N 0.04211 0.05032 0.38757 0.0
C227 C 0.1145 0.07 0.37506 0.0
C228 C 0.12873 0.02996 0.38827 0.0
C229 C 0.97838 0.16525 0.39253 0.0
C230 C 0.8237 0.1281 0.44524 0.0
C231 C 0.86607 0.19215 0.41023 0.0
C232 C 0.84502 0.20513 0.43735 0.0
C233 C 0.82374 0.1728 0.45495 0.0
N234 N 0.86597 0.14825 0.40088 0.0
C235 C 0.84512 0.11638 0.41799 0.0
Co236 Co 0.98267 0.93764 0.88667 0.0
Co237 Co 0.89678 0.87293 0.86295 0.0
O238 O 0.92106 0.92411 0.88573 0.0
C239 C 1.00183 0.94707 0.95348 0.0
O240 O 0.03094 0.91589 0.94905 0.0
C241 C 0.84232 0.94963 0.84134 0.0
O242 O 0.87665 0.97438 0.83738 0.0
O243 O 0.92812 0.89115 0.82428 0.0
O244 O 0.99011 0.91794 0.84269 0.0
H245 H 0.90531 0.73756 0.79364 0.0
H246 H 0.92102 0.00757 0.90653 0.0
O247 O 0.97705 0.95817 0.9312 0.0
H248 H 0.9974 0.0731 0.81727 0.0
H249 H 0.11152 0.03278 0.91168 0.0
H250 H 0.06098 0.89153 0.86465 0.0
H251 H 0.0155 0.99719 0.8361 0.0
H252 H 0.03465 0.0148 0.9104 0.0
O253 O 0.84573 0.90924 0.8506 0.0
H254 H 0.9336 0.80286 0.82216 0.0
H255 H 0.80904 0.83441 0.85482 0.0
H256 H 0.13816 0.90804 0.86545 0.0
H257 H 0.90225 0.08383 0.88866 0.0
H258 H 0.16389 0.97917 0.88912 0.0
H259 H 0.94049 0.11703 0.84367 0.0
O260 O 0.99554 0.87486 0.90049 0.0
H261 H 0.80785 0.90064 0.95809 0.0
H262 H 0.8825 0.78584 0.89587 0.0
H263 H 0.8453 0.76327 0.94383 0.0
H264 H 0.80749 0.8209 0.97526 0.0
H265 H 0.84592 0.92176 0.91014 0.0
H266 H 0.77927 0.77009 0.82601 0.0
H267 H 0.82759 0.72089 0.79537 0.0
O268 O 0.94535 0.83422 0.87582 0.0
C269 C 0.96685 0.90386 0.82053 0.0
C270 C 0.88392 0.75876 0.80689 0.0
C271 C 0.81319 0.77704 0.82505 0.0
N272 N 0.87307 0.82236 0.84026 0.0
C273 C 0.89977 0.7957 0.82319 0.0
C274 C 0.83021 0.81359 0.84118 0.0
C275 C 0.84031 0.74943 0.80787 0.0
C276 C 0.93814 0.02198 0.88716 0.0
N277 N 0.96952 0.99805 0.87254 0.0
C278 C 0.92723 0.0651 0.87705 0.0
C279 C 0.94864 0.08367 0.85176 0.0
C280 C 0.98055 0.05902 0.83693 0.0
C281 C 0.99057 0.01598 0.84765 0.0
C282 C 0.10073 0.00163 0.90136 0.0
C283 C 0.07195 0.92235 0.87513 0.0
C284 C 0.05723 0.99124 0.90058 0.0
N285 N 0.04333 0.95188 0.88766 0.0
C286 C 0.11568 0.93162 0.87545 0.0
C287 C 0.13009 0.97154 0.8887 0.0
C288 C 0.97884 0.83751 0.89232 0.0
C289 C 0.82425 0.87523 0.94462 0.0
C290 C 0.86653 0.81116 0.9096 0.0
C291 C 0.84531 0.79815 0.93665 0.0
C292 C 0.82408 0.83049 0.95425 0.0
N293 N 0.86663 0.8551 0.90032 0.0
C294 C 0.84584 0.88698 0.91744 0.0
Co295 Co 0.53284 0.06367 0.8871 0.0
Co296 Co 0.62429 0.11245 0.85819 0.0
O297 O 0.59558 0.06621 0.88349 0.0
C298 C 0.51664 0.05675 0.95453 0.0
O299 O 0.49298 0.09295 0.95135 0.0
C300 C 0.67283 0.02786 0.84193 0.0
O301 O 0.63799 0.00344 0.84386 0.0
O302 O 0.58976 0.09421 0.82122 0.0
O303 O 0.52548 0.08432 0.84324 0.0
H304 H 0.62759 0.24041 0.78219 0.0
H305 H 0.5832 0.98341 0.90478 0.0
O306 O 0.53807 0.04201 0.93137 0.0
H307 H 0.49022 0.93294 0.81954 0.0
H308 H 0.39155 0.99402 0.91696 0.0
H309 H 0.46248 0.12498 0.86922 0.0
H310 H 0.48678 0.01109 0.83836 0.0
H311 H 0.47006 0.99689 0.91249 0.0
O312 O 0.67125 0.07005 0.84634 0.0
H313 H 0.59365 0.18164 0.8141 0.0
H314 H 0.71499 0.14113 0.84802 0.0
H315 H 0.38394 0.12348 0.87325 0.0
H316 H 0.58717 0.9047 0.887 0.0
H317 H 0.34794 0.05764 0.89726 0.0
H318 H 0.54055 0.87905 0.844 0.0
O319 O 0.53171 0.12755 0.90137 0.0
H320 H 0.71294 0.08231 0.95279 0.0
H321 H 0.64821 0.20007 0.88773 0.0
H322 H 0.68885 0.22184 0.93416 0.0
H323 H 0.72176 0.1627 0.96702 0.0
H324 H 0.67147 0.06209 0.90634 0.0
H325 H 0.7503 0.19872 0.81583 0.0
H326 H 0.70649 0.24908 0.78274 0.0
O327 O 0.58041 0.15797 0.86961 0.0
C328 C 0.54917 0.08973 0.81945 0.0
C329 C 0.64705 0.21858 0.79641 0.0
C330 C 0.7159 0.19519 0.81531 0.0
N331 N 0.65225 0.15796 0.83298 0.0
C332 C 0.62799 0.18533 0.81464 0.0
C333 C 0.69572 0.16245 0.83336 0.0
C334 C 0.69131 0.22346 0.79677 0.0
C335 C 0.56247 0.97237 0.8863 0.0
N336 N 0.53468 0.00181 0.87275 0.0
C337 C 0.565 0.92782 0.87622 0.0
C338 C 0.5389 0.91347 0.85206 0.0
C339 C 0.51069 0.9437 0.8383 0.0
C340 C 0.50904 0.988 0.84898 0.0
C341 C 0.40686 0.02288 0.90643 0.0
C342 C 0.44709 0.09621 0.87972 0.0
C343 C 0.4513 0.02469 0.90382 0.0
N344 N 0.4709 0.06109 0.8906 0.0
C345 C 0.40258 0.09555 0.88192 0.0
C346 C 0.38241 0.0586 0.89539 0.0
C347 C 0.55019 0.16151 0.88921 0.0
C348 C 0.69875 0.10839 0.93867 0.0
C349 C 0.66192 0.17416 0.90206 0.0
C350 C 0.68516 0.18668 0.92825 0.0
C351 C 0.70365 0.1535 0.94666 0.0
N352 N 0.65726 0.12986 0.89433 0.0
C353 C 0.67528 0.09715 0.9123 0.0
Co354 Co 0.47962 0.06345 0.6321 0.0
Co355 Co 0.38785 0.1112 0.66129 0.0
O356 O 0.41687 0.06522 0.63596 0.0
C357 C 0.49518 0.05653 0.56457 0.0
O358 O 0.51861 0.09292 0.56754 0.0
C359 C 0.33974 0.02602 0.67705 0.0
O360 O 0.37442 0.00157 0.67409 0.0
O361 O 0.4228 0.09337 0.69813 0.0
O362 O 0.48709 0.08428 0.67592 0.0
H363 H 0.38385 0.23915 0.73721 0.0
H364 H 0.43015 0.98243 0.61471 0.0
O365 O 0.47421 0.04162 0.58789 0.0
H366 H 0.52444 0.93343 0.69962 0.0
H367 H 0.62143 0.99556 0.60163 0.0
H368 H 0.54943 0.12561 0.64965 0.0
H369 H 0.52666 0.01161 0.68074 0.0
H370 H 0.54293 0.99744 0.60646 0.0
O371 O 0.34134 0.06838 0.6734 0.0
H372 H 0.41812 0.18073 0.70522 0.0
H373 H 0.29695 0.13901 0.67171 0.0
H374 H 0.62795 0.12511 0.64526 0.0
H375 H 0.42742 0.90367 0.63255 0.0
H376 H 0.66448 0.05973 0.6211 0.0
H377 H 0.4747 0.87876 0.67538 0.0
O378 O 0.47994 0.12729 0.61772 0.0
H379 H 0.29899 0.07991 0.56697 0.0
H380 H 0.36277 0.1985 0.63175 0.0
H381 H 0.3216 0.21974 0.58545 0.0
H382 H 0.28916 0.16018 0.55273 0.0
H383 H 0.34097 0.06024 0.61329 0.0
H384 H 0.26131 0.19624 0.70399 0.0
H385 H 0.30487 0.24704 0.73692 0.0
O386 O 0.43119 0.15718 0.64965 0.0
C387 C 0.46345 0.08937 0.69978 0.0
C388 C 0.36451 0.21714 0.72306 0.0
C389 C 0.29575 0.19306 0.7044 0.0
N390 N 0.35963 0.15647 0.68653 0.0
C391 C 0.38375 0.18407 0.70478 0.0
C392 C 0.31611 0.16052 0.68629 0.0
C393 C 0.3202 0.22157 0.72285 0.0
C394 C 0.45117 0.97173 0.63312 0.0
N395 N 0.47863 0.00159 0.64655 0.0
C396 C 0.44933 0.92714 0.64323 0.0
C397 C 0.47581 0.91321 0.6673 0.0
C398 C 0.50368 0.94387 0.68093 0.0
C399 C 0.50464 0.98819 0.67023 0.0
C400 C 0.60588 0.02423 0.61222 0.0
C401 C 0.56505 0.09704 0.63909 0.0
C402 C 0.56144 0.02548 0.61504 0.0
N403 N 0.54155 0.06163 0.62833 0.0
C404 C 0.60954 0.09694 0.63669 0.0
C405 C 0.63002 0.06025 0.62313 0.0
C406 C 0.46121 0.16105 0.62992 0.0
C407 C 0.31297 0.10618 0.58103 0.0
C408 C 0.34926 0.17242 0.61749 0.0
C409 C 0.32572 0.18463 0.59136 0.0
C410 C 0.30749 0.15121 0.57304 0.0
N411 N 0.35447 0.12819 0.62523 0.0
C412 C 0.33672 0.09525 0.60733 0.0
Co413 Co 0.02952 0.93755 0.63211 0.0
Co414 Co 0.11516 0.87214 0.65552 0.0
O415 O 0.09104 0.92355 0.63286 0.0
C416 C 0.0098 0.94698 0.5654 0.0
O417 O 0.98058 0.91597 0.57004 0.0
C418 C 0.17004 0.94833 0.67738 0.0
O419 O 0.13583 0.97314 0.6817 0.0
O420 O 0.08405 0.89031 0.69431 0.0
O421 O 0.02228 0.91799 0.67612 0.0
H422 H 0.1062 0.73621 0.72433 0.0
H423 H 0.09155 0.00691 0.61192 0.0
O424 O 0.0349 0.95796 0.58753 0.0
H425 H 0.01638 0.07322 0.70143 0.0
H426 H 0.90116 0.03373 0.60758 0.0
H427 H 0.95104 0.89205 0.65445 0.0
H428 H 0.99751 0.99747 0.68273 0.0
H429 H 0.97791 0.01512 0.60855 0.0
O430 O 0.16642 0.90812 0.66782 0.0
H431 H 0.07815 0.80197 0.69617 0.0
H432 H 0.20276 0.83316 0.66344 0.0
H433 H 0.87399 0.9092 0.65396 0.0
H434 H 0.11109 0.08301 0.62965 0.0
H435 H 0.84858 0.98054 0.63037 0.0
H436 H 0.07346 0.11659 0.67477 0.0
O437 O 0.01609 0.87485 0.61843 0.0
H438 H 0.20381 0.89989 0.56023 0.0
H439 H 0.129 0.78513 0.62242 0.0
H440 H 0.16589 0.76262 0.57433 0.0
H441 H 0.20378 0.82023 0.54291 0.0
H442 H 0.16603 0.92095 0.60831 0.0
H443 H 0.23231 0.7684 0.69194 0.0
H444 H 0.18383 0.71913 0.72242 0.0
O445 O 0.06636 0.83375 0.64266 0.0
C446 C 0.04549 0.9035 0.69818 0.0
C447 C 0.12767 0.75744 0.71116 0.0
C448 C 0.19843 0.77553 0.69298 0.0
N449 N 0.13872 0.82132 0.67805 0.0
C450 C 0.11194 0.79464 0.69506 0.0
C451 C 0.18154 0.81233 0.67704 0.0
C452 C 0.17122 0.74788 0.71008 0.0
C453 C 0.0747 0.0215 0.63135 0.0
N454 N 0.04322 0.99788 0.64611 0.0
C455 C 0.08604 0.06452 0.64138 0.0
C456 C 0.06497 0.08331 0.66673 0.0
C457 C 0.03297 0.05897 0.68171 0.0
C458 C 0.02251 0.01602 0.67107 0.0
C459 C 0.91181 0.00249 0.61787 0.0
C460 C 0.94022 0.92297 0.64401 0.0
C461 C 0.95523 0.99174 0.61847 0.0
N462 N 0.96895 0.95228 0.63136 0.0
C463 C 0.89656 0.9326 0.64387 0.0
C464 C 0.88233 0.97264 0.63065 0.0
C465 C 0.03268 0.83735 0.6264 0.0
C466 C 0.18736 0.87449 0.57369 0.0
C467 C 0.14499 0.81044 0.60869 0.0
C468 C 0.16604 0.79747 0.58157 0.0
C469 C 0.18732 0.82979 0.56398 0.0
N470 N 0.14509 0.85434 0.61805 0.0
C471 C 0.16594 0.88621 0.60094 0.0
Co472 Co 0.52999 0.56506 0.13203 0.0
Co473 Co 0.61565 0.63044 0.1554 0.0
O474 O 0.59151 0.57908 0.13272 0.0
C475 C 0.51012 0.55568 0.06535 0.0
O476 O 0.48094 0.58672 0.07002 0.0
C477 C 0.67065 0.55427 0.17723 0.0
O478 O 0.63648 0.52945 0.18166 0.0
O479 O 0.58464 0.61212 0.19422 0.0
O480 O 0.52282 0.5846 0.17603 0.0
H481 H 0.60677 0.76602 0.22449 0.0
H482 H 0.592 0.49574 0.11179 0.0
O483 O 0.53528 0.54469 0.08743 0.0
H484 H 0.51701 0.42935 0.20137 0.0
H485 H 0.40161 0.46889 0.10764 0.0
H486 H 0.45154 0.61056 0.15441 0.0
H487 H 0.49808 0.50511 0.18268 0.0
H488 H 0.47835 0.4875 0.10854 0.0
O489 O 0.66697 0.59445 0.16761 0.0
H490 H 0.57868 0.70041 0.1962 0.0
H491 H 0.70323 0.66947 0.16325 0.0
H492 H 0.37449 0.59341 0.15399 0.0
H493 H 0.6116 0.41963 0.12952 0.0
H494 H 0.34906 0.52207 0.13045 0.0
H495 H 0.57406 0.38601 0.17467 0.0
O496 O 0.51654 0.62778 0.11836 0.0
H497 H 0.70413 0.60307 0.05999 0.0
H498 H 0.62932 0.71756 0.12238 0.0
H499 H 0.6661 0.74026 0.07428 0.0
H500 H 0.70399 0.68279 0.04276 0.0
H501 H 0.66647 0.58182 0.10809 0.0
H502 H 0.73282 0.73408 0.19186 0.0
H503 H 0.68439 0.78314 0.22253 0.0
O504 O 0.56679 0.66883 0.14265 0.0
C505 C 0.54606 0.599 0.1981 0.0
C506 C 0.62821 0.74488 0.21124 0.0
C507 C 0.69894 0.72693 0.19293 0.0
N508 N 0.63922 0.68119 0.17797 0.0
C509 C 0.61247 0.70777 0.19506 0.0
C510 C 0.68203 0.69022 0.17692 0.0
C511 C 0.67176 0.75446 0.21012 0.0
C512 C 0.57519 0.48113 0.13124 0.0
N513 N 0.54373 0.50473 0.14602 0.0
C514 C 0.58657 0.43811 0.14126 0.0
C515 C 0.56554 0.4193 0.16664 0.0
C516 C 0.53355 0.44361 0.18164 0.0
C517 C 0.52306 0.48657 0.171 0.0
C518 C 0.41227 0.50013 0.1179 0.0
C519 C 0.44071 0.57965 0.14399 0.0
C520 C 0.45569 0.51087 0.11847 0.0
N521 N 0.46943 0.55034 0.13133 0.0
C522 C 0.39704 0.57002 0.14389 0.0
C523 C 0.3828 0.52998 0.1307 0.0
C524 C 0.53311 0.66527 0.12637 0.0
C525 C 0.68769 0.62841 0.0735 0.0
C526 C 0.64531 0.69231 0.10861 0.0
C527 C 0.6663 0.70539 0.08148 0.0
C528 C 0.68758 0.67314 0.06383 0.0
N529 N 0.64548 0.64837 0.11792 0.0
C530 C 0.66633 0.61658 0.10075 0.0
Co531 Co 0.98036 0.4392 0.13225 0.0
Co532 Co 0.88861 0.39156 0.16152 0.0
O533 O 0.91762 0.43754 0.13618 0.0
C534 C 0.99568 0.44617 0.06468 0.0
O535 O 0.01913 0.40978 0.0676 0.0
C536 C 0.84047 0.4768 0.17708 0.0
O537 O 0.87508 0.5013 0.17387 0.0
O538 O 0.92363 0.40935 0.19832 0.0
O539 O 0.9879 0.4183 0.17606 0.0
H540 H 0.88463 0.26347 0.23739 0.0
H541 H 0.93101 0.52036 0.11492 0.0
O542 O 0.97484 0.46109 0.08805 0.0
H543 H 0.02562 0.56905 0.1997 0.0
H544 H 0.12219 0.50685 0.10155 0.0
H545 H 0.05012 0.37691 0.14971 0.0
H546 H 0.02762 0.49088 0.18083 0.0
H547 H 0.0437 0.5051 0.1065 0.0
O548 O 0.84212 0.43441 0.17367 0.0
H549 H 0.9189 0.32196 0.20543 0.0
H550 H 0.7977 0.36383 0.17202 0.0
H551 H 0.12863 0.37727 0.1452 0.0
H552 H 0.92851 0.59911 0.13275 0.0
H553 H 0.1652 0.44259 0.12097 0.0
H554 H 0.97595 0.62386 0.17552 0.0
O555 O 0.98055 0.37539 0.11784 0.0
H556 H 0.79967 0.42296 0.06724 0.0
H557 H 0.86344 0.3043 0.13203 0.0
H558 H 0.82221 0.2831 0.08575 0.0
H559 H 0.78977 0.3427 0.05303 0.0
H560 H 0.84172 0.44258 0.11353 0.0
H561 H 0.76208 0.30655 0.20429 0.0
H562 H 0.80565 0.25563 0.23714 0.0
O563 O 0.93189 0.34555 0.14987 0.0
C564 C 0.96428 0.41327 0.19995 0.0
C565 C 0.86529 0.28554 0.22328 0.0
C566 C 0.79652 0.30971 0.20468 0.0
N567 N 0.86039 0.3463 0.1868 0.0
C568 C 0.88452 0.31864 0.20502 0.0
C569 C 0.81687 0.34228 0.18658 0.0
C570 C 0.82098 0.28113 0.22309 0.0
C571 C 0.95209 0.53099 0.13331 0.0
N572 N 0.97951 0.50104 0.1467 0.0
C573 C 0.95038 0.57558 0.14341 0.0
C574 C 0.97695 0.58942 0.16745 0.0
C575 C 1.00479 0.55867 0.18105 0.0
C576 C 0.00561 0.51436 0.17035 0.0
C577 C 0.10663 0.4782 0.11217 0.0
C578 C 0.06576 0.40546 0.13912 0.0
C579 C 0.0622 0.47703 0.11505 0.0
N580 N 0.04228 0.44091 0.12838 0.0
C581 C 0.11025 0.40548 0.13665 0.0
C582 C 0.13074 0.44214 0.12306 0.0
C583 C 0.96183 0.34165 0.13008 0.0
C584 C 0.81364 0.39667 0.08131 0.0
C585 C 0.84993 0.3304 0.11776 0.0
C586 C 0.82636 0.3182 0.09165 0.0
C587 C 0.80813 0.35164 0.07333 0.0
N588 N 0.85516 0.37462 0.12549 0.0
C589 C 0.83743 0.40758 0.10759 0.0
Co590 Co 0.03356 0.43889 0.38725 0.0
Co591 Co 0.12502 0.39 0.35843 0.0
O592 O 0.09632 0.43624 0.38371 0.0
C593 C 0.01712 0.44575 0.45464 0.0
O594 O 0.99349 0.40956 0.45141 0.0
C595 C 0.17355 0.47452 0.34198 0.0
O596 O 0.13865 0.49889 0.34366 0.0
O597 O 0.09057 0.40828 0.32142 0.0
O598 O 0.02629 0.41832 0.34339 0.0
H599 H 0.12838 0.26219 0.28237 0.0
H600 H 0.08404 0.519 0.405 0.0
O601 O 0.03868 0.46049 0.43154 0.0
H602 H 0.9914 0.5698 0.31964 0.0
H603 H 0.89231 0.50878 0.41688 0.0
H604 H 0.96316 0.37772 0.36928 0.0
H605 H 0.98773 0.49164 0.33846 0.0
H606 H 0.97081 0.50577 0.41254 0.0
O607 O 0.17202 0.43238 0.34661 0.0
H608 H 0.09442 0.32088 0.31431 0.0
H609 H 0.21573 0.36125 0.34834 0.0
H610 H 0.88461 0.37935 0.37319 0.0
H611 H 0.08824 0.59772 0.38722 0.0
H612 H 0.84865 0.44525 0.39713 0.0
H613 H 0.04179 0.62352 0.34416 0.0
O614 O 0.03231 0.37498 0.40149 0.0
H615 H 0.21359 0.42003 0.45308 0.0
H616 H 0.14887 0.30235 0.388 0.0
H617 H 0.18945 0.28053 0.43446 0.0
H618 H 0.22235 0.33962 0.46733 0.0
H619 H 0.17219 0.4403 0.40659 0.0
H620 H 0.25106 0.30372 0.31613 0.0
H621 H 0.20728 0.25348 0.28296 0.0
O622 O 0.08111 0.34451 0.36983 0.0
C623 C 0.04999 0.41284 0.31962 0.0
C624 C 0.14782 0.28396 0.29663 0.0
C625 C 0.21666 0.30726 0.3156 0.0
N626 N 0.153 0.34449 0.33325 0.0
C627 C 0.12875 0.31717 0.31488 0.0
C628 C 0.19647 0.33997 0.33366 0.0
C629 C 0.19208 0.27907 0.29701 0.0
C630 C 0.06338 0.53011 0.38649 0.0
N631 N 0.03555 0.50077 0.37292 0.0
C632 C 0.06605 0.57467 0.37642 0.0
C633 C 0.04003 0.5891 0.35222 0.0
C634 C 0.01179 0.55896 0.33843 0.0
C635 C 0.01 0.51466 0.3491 0.0
C636 C 0.9076 0.47989 0.40639 0.0
C637 C 0.94779 0.40651 0.37975 0.0
C638 C 0.95204 0.47801 0.40384 0.0
N639 N 0.97162 0.44158 0.39066 0.0
C640 C 0.90328 0.40725 0.38188 0.0
C641 C 0.88312 0.44423 0.39531 0.0
C642 C 0.0508 0.341 0.38938 0.0
C643 C 0.1994 0.39396 0.43895 0.0
C644 C 0.16257 0.32824 0.40234 0.0
C645 C 0.18578 0.31569 0.42855 0.0
C646 C 0.20427 0.34885 0.44695 0.0
N647 N 0.15794 0.37254 0.3946 0.0
C648 C 0.17596 0.40523 0.41257 0.0
Co649 Co 0.48314 0.56492 0.38658 0.0
Co650 Co 0.39726 0.62968 0.36283 0.0
O651 O 0.42153 0.57845 0.38559 0.0
C652 C 0.50214 0.55546 0.45342 0.0
O653 O 0.53129 0.58661 0.44903 0.0
C654 C 0.34293 0.55295 0.34119 0.0
O655 O 0.3773 0.52821 0.33733 0.0
O656 O 0.42871 0.61159 0.32418 0.0
O657 O 0.49064 0.58465 0.34261 0.0
H658 H 0.40588 0.7654 0.2938 0.0
H659 H 0.42147 0.49497 0.40641 0.0
O660 O 0.47742 0.54438 0.43111 0.0
H661 H 0.49803 0.42951 0.31723 0.0
H662 H 0.61196 0.46979 0.41175 0.0
H663 H 0.56148 0.61104 0.36461 0.0
H664 H 0.51607 0.50541 0.33606 0.0
H665 H 0.53509 0.48777 0.41039 0.0
O666 O 0.34627 0.59336 0.35038 0.0
H667 H 0.43413 0.69994 0.32219 0.0
H668 H 0.30951 0.66814 0.35462 0.0
H669 H 0.63865 0.59452 0.36548 0.0
H670 H 0.40276 0.41871 0.38854 0.0
H671 H 0.66436 0.5234 0.38921 0.0
H672 H 0.44109 0.38555 0.34358 0.0
O673 O 0.49599 0.62769 0.40041 0.0
H674 H 0.30817 0.60158 0.45785 0.0
H675 H 0.38281 0.71665 0.39582 0.0
H676 H 0.34549 0.73903 0.44377 0.0
H677 H 0.30768 0.68126 0.4751 0.0
H678 H 0.34635 0.58065 0.40992 0.0
H679 H 0.27977 0.7326 0.32591 0.0
H680 H 0.32815 0.78202 0.29546 0.0
O681 O 0.44577 0.66839 0.37581 0.0
C682 C 0.46742 0.59882 0.32045 0.0
C683 C 0.38446 0.7441 0.30696 0.0
C684 C 0.3137 0.72567 0.32498 0.0
N685 N 0.37357 0.6803 0.34017 0.0
C686 C 0.4003 0.70707 0.32319 0.0
C687 C 0.3307 0.68904 0.34105 0.0
C688 C 0.34085 0.7534 0.3079 0.0
C689 C 0.43863 0.48057 0.38705 0.0
N690 N 0.47002 0.50452 0.37246 0.0
C691 C 0.42775 0.43746 0.37694 0.0
C692 C 0.44921 0.41891 0.35168 0.0
C693 C 0.48114 0.44357 0.33687 0.0
C694 C 0.49112 0.48661 0.34759 0.0
C695 C 0.60118 0.50094 0.40141 0.0
C696 C 0.57243 0.58022 0.37511 0.0
C697 C 0.55769 0.51133 0.40059 0.0
N698 N 0.5438 0.55068 0.38763 0.0
C699 C 0.61616 0.57095 0.37547 0.0
C700 C 0.63056 0.53103 0.38876 0.0
C701 C 0.47927 0.66506 0.3923 0.0
C702 C 0.32457 0.62705 0.44442 0.0
C703 C 0.36684 0.69128 0.40951 0.0
C704 C 0.34556 0.70417 0.43655 0.0
C705 C 0.32432 0.67176 0.4541 0.0
N706 N 0.36701 0.64736 0.40019 0.0
C707 C 0.34622 0.6154 0.41725 0.0
Co708 Co 0.48106 0.43754 0.88691 0.0
Co709 Co 0.39541 0.37216 0.86354 0.0
O710 O 0.41955 0.42352 0.88623 0.0
C711 C 0.50094 0.44692 0.95359 0.0
O712 O 0.53012 0.41588 0.94892 0.0
C713 C 0.3404 0.44832 0.84171 0.0
O714 O 0.37457 0.47314 0.83728 0.0
O715 O 0.42641 0.39048 0.82473 0.0
O716 O 0.48824 0.418 0.84291 0.0
H717 H 0.40429 0.23658 0.79446 0.0
H718 H 0.41905 0.50686 0.90715 0.0
O719 O 0.47578 0.45792 0.93151 0.0
H720 H 0.49404 0.57325 0.81757 0.0
H721 H 0.60945 0.53372 0.9113 0.0
H722 H 0.55951 0.39205 0.86453 0.0
H723 H 0.51297 0.49749 0.83626 0.0
H724 H 0.5327 0.51511 0.9104 0.0
O725 O 0.34409 0.40814 0.85134 0.0
H726 H 0.43237 0.30219 0.82274 0.0
H727 H 0.30782 0.33312 0.8557 0.0
H728 H 0.63657 0.4092 0.86494 0.0
H729 H 0.39945 0.58297 0.88942 0.0
H730 H 0.662 0.48054 0.88848 0.0
H731 H 0.43699 0.61659 0.84427 0.0
O732 O 0.49452 0.37482 0.90059 0.0
H733 H 0.30693 0.39952 0.95895 0.0
H734 H 0.38175 0.28504 0.89656 0.0
H735 H 0.34497 0.26234 0.94467 0.0
H736 H 0.30708 0.3198 0.97619 0.0
H737 H 0.34458 0.42078 0.91086 0.0
H738 H 0.27824 0.26851 0.82709 0.0
H739 H 0.32667 0.21946 0.79642 0.0
O740 O 0.44427 0.33377 0.87629 0.0
C741 C 0.46499 0.4036 0.82084 0.0
C742 C 0.38285 0.25772 0.80771 0.0
C743 C 0.31212 0.27566 0.82602 0.0
N744 N 0.37184 0.3214 0.84098 0.0
C745 C 0.39859 0.29483 0.82388 0.0
C746 C 0.32903 0.31238 0.84203 0.0
C747 C 0.3393 0.24814 0.80882 0.0
C748 C 0.43586 0.52147 0.8877 0.0
N749 N 0.46732 0.49787 0.87292 0.0
C750 C 0.42448 0.56449 0.87768 0.0
C751 C 0.44551 0.5833 0.8523 0.0
C752 C 0.4775 0.55899 0.8373 0.0
C753 C 0.48799 0.51603 0.84794 0.0
C754 C 0.59879 0.50248 0.90104 0.0
C755 C 0.57035 0.42296 0.87494 0.0
C756 C 0.55537 0.49173 0.90047 0.0
N757 N 0.54163 0.45227 0.88761 0.0
C758 C 0.61401 0.43259 0.87505 0.0
C759 C 0.62825 0.47263 0.88823 0.0
C760 C 0.47795 0.33733 0.89257 0.0
C761 C 0.32338 0.37418 0.94545 0.0
C762 C 0.36575 0.31029 0.91034 0.0
C763 C 0.34477 0.29721 0.93746 0.0
C764 C 0.32349 0.32945 0.95511 0.0
N765 N 0.36558 0.35422 0.90103 0.0
C766 C 0.34473 0.38601 0.91819 0.0
Co767 Co 0.03068 0.56339 0.88668 0.0
Co768 Co 0.12244 0.61102 0.8574 0.0
O769 O 0.09342 0.56505 0.88274 0.0
C770 C 0.01536 0.55642 0.95424 0.0
O771 O 0.99191 0.59281 0.95132 0.0
C772 C 0.17058 0.52578 0.84185 0.0
O773 O 0.13597 0.50129 0.84507 0.0
O774 O 0.08742 0.59324 0.8206 0.0
O775 O 0.02315 0.58429 0.84286 0.0
H776 H 0.12642 0.73912 0.78153 0.0
H777 H 0.08003 0.48223 0.90401 0.0
O778 O 0.03621 0.5415 0.93087 0.0
H779 H 0.98542 0.43355 0.81922 0.0
H780 H 0.88885 0.49575 0.91737 0.0
H781 H 0.96093 0.62569 0.86922 0.0
H782 H 0.98343 0.51172 0.8381 0.0
H783 H 0.96734 0.49749 0.91243 0.0
O784 O 0.16892 0.56817 0.84525 0.0
H785 H 0.09215 0.68063 0.81349 0.0
H786 H 0.21335 0.63876 0.84691 0.0
H787 H 0.88242 0.62533 0.87372 0.0
H788 H 0.08252 0.40348 0.88618 0.0
H789 H 0.84585 0.56001 0.89795 0.0
H790 H 0.03508 0.37873 0.84341 0.0
O791 O 0.0305 0.6272 0.90108 0.0
H792 H 0.21137 0.57963 0.95168 0.0
H793 H 0.14761 0.69829 0.88689 0.0
H794 H 0.18884 0.71948 0.93317 0.0
H795 H 0.22127 0.65989 0.9659 0.0
H796 H 0.16933 0.56 0.9054 0.0
H797 H 0.24897 0.69603 0.81464 0.0
H798 H 0.2054 0.74695 0.78178 0.0
O799 O 0.07916 0.65704 0.86906 0.0
C800 C 0.04676 0.58932 0.81898 0.0
C801 C 0.14577 0.71704 0.79565 0.0
C802 C 0.21453 0.69288 0.81425 0.0
N803 N 0.15066 0.65628 0.83213 0.0
C804 C 0.12653 0.68394 0.81391 0.0
C805 C 0.19418 0.66031 0.83234 0.0
C806 C 0.19008 0.72145 0.79583 0.0
C807 C 0.05895 0.4716 0.88562 0.0
N808 N 0.03153 0.50155 0.87222 0.0
C809 C 0.06065 0.42701 0.87552 0.0
C810 C 0.03409 0.41317 0.85148 0.0
C811 C 0.00625 0.44392 0.83788 0.0
C812 C 1.00543 0.48823 0.84858 0.0
C813 C 0.90441 0.5244 0.90676 0.0
C814 C 0.94529 0.59714 0.8798 0.0
C815 C 0.94885 0.52556 0.90387 0.0
N816 N 0.96876 0.56168 0.89054 0.0
C817 C 0.9008 0.59712 0.88227 0.0
C818 C 0.8803 0.56046 0.89586 0.0
C819 C 0.04922 0.66094 0.88885 0.0
C820 C 0.19741 0.60591 0.93762 0.0
C821 C 0.16112 0.67219 0.90116 0.0
C822 C 0.18469 0.68438 0.92727 0.0
C823 C 0.20292 0.65094 0.94559 0.0
N824 N 0.15588 0.62797 0.89343 0.0
C825 C 0.17362 0.59501 0.91134 0.0
Co826 Co 0.97748 0.56371 0.63168 0.0
Co827 Co 0.88602 0.6126 0.6605 0.0
O828 O 0.91473 0.56636 0.63522 0.0
C829 C 0.99392 0.55685 0.56429 0.0
O830 O 0.01756 0.59304 0.56752 0.0
C831 C 0.8375 0.52808 0.67695 0.0
O832 O 0.8724 0.50371 0.67527 0.0
O833 O 0.92048 0.59432 0.69751 0.0
O834 O 0.98476 0.58428 0.67554 0.0
H835 H 0.88267 0.74041 0.73655 0.0
H836 H 0.927 0.4836 0.61392 0.0
O837 O 0.97236 0.54211 0.58739 0.0
H838 H 0.01964 0.4328 0.69928 0.0
H839 H 0.11874 0.49381 0.60204 0.0
H840 H 0.04789 0.62487 0.64965 0.0
H841 H 0.02332 0.51096 0.68047 0.0
H842 H 0.04023 0.49683 0.60639 0.0
O843 O 0.83903 0.57023 0.67231 0.0
H844 H 0.91663 0.68172 0.70461 0.0
H845 H 0.79532 0.64135 0.67058 0.0
H846 H 0.12644 0.62323 0.64574 0.0
H847 H 0.9228 0.40488 0.6317 0.0
H848 H 0.1624 0.55734 0.62179 0.0
H849 H 0.96925 0.37907 0.67476 0.0
O850 O 0.97874 0.62762 0.61743 0.0
H851 H 0.79745 0.58257 0.56585 0.0
H852 H 0.86218 0.70025 0.63092 0.0
H853 H 0.8216 0.72207 0.58446 0.0
H854 H 0.7887 0.66298 0.55159 0.0
H855 H 0.83886 0.5623 0.61233 0.0
H856 H 0.75999 0.69888 0.70279 0.0
H857 H 0.80377 0.74912 0.73596 0.0
O858 O 0.92994 0.65809 0.64909 0.0
C859 C 0.96105 0.58976 0.69931 0.0
C860 C 0.86323 0.71864 0.72229 0.0
C861 C 0.79439 0.69534 0.70333 0.0
N862 N 0.85805 0.65812 0.68568 0.0
C863 C 0.8823 0.68543 0.70405 0.0
C864 C 0.81458 0.66263 0.68527 0.0
C865 C 0.81897 0.72354 0.72192 0.0
C866 C 0.94766 0.47249 0.63243 0.0
N867 N 0.97549 0.50183 0.64601 0.0
C868 C 0.94499 0.42793 0.64251 0.0
C869 C 0.971 0.4135 0.6667 0.0
C870 C 0.99925 0.44363 0.68049 0.0
C871 C 1.00104 0.48794 0.66982 0.0
C872 C 0.10345 0.5227 0.61254 0.0
C873 C 0.06326 0.59608 0.63918 0.0
C874 C 0.059 0.52459 0.61509 0.0
N875 N 0.03942 0.56102 0.62827 0.0
C876 C 0.10777 0.59534 0.63705 0.0
C877 C 0.12792 0.55836 0.62361 0.0
C878 C 0.96025 0.6616 0.62955 0.0
C879 C 0.81165 0.60864 0.57997 0.0
C880 C 0.84847 0.67436 0.61659 0.0
C881 C 0.82527 0.68691 0.59038 0.0
C882 C 0.80678 0.65375 0.57197 0.0
N883 N 0.85311 0.63006 0.62432 0.0
C884 C 0.83508 0.59737 0.60635 0.0
Co885 Co 0.52791 0.43768 0.63236 0.0
Co886 Co 0.61378 0.37293 0.65611 0.0
O887 O 0.58951 0.42416 0.63335 0.0
C888 C 0.5089 0.44714 0.56552 0.0
O889 O 0.47975 0.41599 0.56991 0.0
C890 C 0.66811 0.44965 0.67775 0.0
O891 O 0.63375 0.47439 0.6816 0.0
O892 O 0.58234 0.39101 0.69476 0.0
O893 O 0.5204 0.41795 0.67633 0.0
H894 H 0.60517 0.23721 0.72514 0.0
H895 H 0.58957 0.50763 0.61253 0.0
O896 O 0.53362 0.45823 0.58783 0.0
H897 H 0.51302 0.57309 0.70172 0.0
H898 H 0.39908 0.53281 0.6072 0.0
H899 H 0.44956 0.39156 0.65433 0.0
H900 H 0.49498 0.49719 0.68288 0.0
H901 H 0.47595 0.51483 0.60855 0.0
O902 O 0.66477 0.40924 0.66856 0.0
H903 H 0.57692 0.30267 0.69675 0.0
H904 H 0.70153 0.33446 0.66431 0.0
H905 H 0.37239 0.40808 0.65346 0.0
H906 H 0.60828 0.5839 0.6304 0.0
H907 H 0.34669 0.4792 0.62974 0.0
H908 H 0.56995 0.61706 0.67536 0.0
O909 O 0.51505 0.37492 0.61853 0.0
H910 H 0.70287 0.40103 0.56109 0.0
H911 H 0.62823 0.28595 0.62311 0.0
H912 H 0.66555 0.26357 0.57517 0.0
H913 H 0.70336 0.32134 0.54383 0.0
H914 H 0.66469 0.42195 0.60902 0.0
H915 H 0.73127 0.27 0.69303 0.0
H916 H 0.6829 0.22058 0.72347 0.0
O917 O 0.56528 0.33422 0.64313 0.0
C918 C 0.54363 0.40378 0.69849 0.0
C919 C 0.62659 0.2585 0.71197 0.0
C920 C 0.69735 0.27693 0.69396 0.0
N921 N 0.63748 0.3223 0.67876 0.0
C922 C 0.61075 0.29553 0.69574 0.0
C923 C 0.68035 0.31356 0.67789 0.0
C924 C 0.6702 0.2492 0.71103 0.0
C925 C 0.57242 0.52203 0.63189 0.0
N926 N 0.54102 0.49808 0.64648 0.0
C927 C 0.58329 0.56515 0.642 0.0
C928 C 0.56183 0.5837 0.66726 0.0
C929 C 0.52991 0.55903 0.68207 0.0
C930 C 0.51992 0.516 0.67135 0.0
C931 C 0.40986 0.50166 0.61754 0.0
C932 C 0.43861 0.42238 0.64383 0.0
C933 C 0.45336 0.49127 0.61836 0.0
N934 N 0.46725 0.45192 0.63131 0.0
C935 C 0.39488 0.43165 0.64347 0.0
C936 C 0.38049 0.47157 0.63018 0.0
C937 C 0.53177 0.33754 0.62664 0.0
C938 C 0.68647 0.37556 0.57451 0.0
C939 C 0.6442 0.31133 0.60942 0.0
C940 C 0.66548 0.29843 0.58239 0.0
C941 C 0.68672 0.33084 0.56484 0.0
N942 N 0.64403 0.35524 0.61875 0.0
C943 C 0.66482 0.3872 0.60168 0.0
C944 C 0.28983 0.04236 0.17743 0.0
C945 C 0.29548 0.99583 0.1809 0.0
H946 H 0.24555 0.09685 0.17376 0.0
C947 C 0.25912 0.96869 0.18579 0.0
H948 H 0.31701 0.06424 0.17363 0.0
C949 C 0.21804 0.9873 0.18585 0.0
C950 C 0.21225 0.03355 0.18097 0.0
H951 H 0.26221 0.93271 0.18885 0.0
H952 H 0.19082 0.9652 0.18877 0.0
C953 C 0.24872 0.06098 0.1774 0.0
C954 C 0.7199 0.04402 0.34238 0.0
C955 C 0.71405 0.99767 0.33799 0.0
H956 H 0.76438 0.09817 0.34686 0.0
C957 C 0.75027 0.97065 0.33229 0.0
H958 H 0.69284 0.06581 0.34684 0.0
C959 C 0.7914 0.98912 0.33234 0.0
C960 C 0.7974 0.0351 0.33813 0.0
H961 H 0.74702 0.93483 0.32851 0.0
H962 H 0.81852 0.96707 0.32877 0.0
C963 C 0.76107 0.06249 0.3425 0.0
C964 C 0.79302 0.0153 0.83309 0.0
C965 C 0.79881 0.96906 0.83796 0.0
H966 H 0.74885 0.0699 0.8301 0.0
C967 C 0.76235 0.94162 0.84153 0.0
H968 H 0.82024 0.0374 0.83017 0.0
C969 C 0.72123 0.96024 0.8415 0.0
C970 C 0.71558 0.00678 0.83803 0.0
H971 H 0.76551 0.90575 0.84516 0.0
H972 H 0.69405 0.93836 0.8453 0.0
C973 C 0.75195 0.03392 0.83315 0.0
C974 C 0.24999 0.9401 0.67643 0.0
C975 C 0.21366 0.96749 0.6808 0.0
H976 H 0.31821 0.93678 0.67209 0.0
C977 C 0.21966 0.01347 0.68659 0.0
H978 H 0.24667 0.90442 0.67206 0.0
C979 C 0.26079 0.03194 0.68665 0.0
C980 C 0.29701 0.00491 0.68094 0.0
H981 H 0.19254 0.03552 0.69017 0.0
H982 H 0.26404 0.06776 0.69044 0.0
C983 C 0.29116 0.95857 0.67655 0.0
C984 C 0.76154 0.47086 0.18681 0.0
C985 C 0.7977 0.49788 0.18093 0.0
H986 H 0.6933 0.46722 0.1904 0.0
C987 C 0.79179 0.54417 0.1763 0.0
H988 H 0.76484 0.43509 0.19077 0.0
C989 C 0.75059 0.56258 0.17612 0.0
C990 C 0.7143 0.53518 0.18066 0.0
H991 H 0.8188 0.56595 0.1717 0.0
H992 H 0.74722 0.59821 0.17157 0.0
C993 C 0.72038 0.48927 0.18669 0.0
C994 C 0.26295 0.56088 0.34122 0.0
C995 C 0.29945 0.53345 0.33782 0.0
H996 H 0.19464 0.56408 0.34491 0.0
C997 C 0.29373 0.48716 0.33318 0.0
H998 H 0.26607 0.59679 0.34467 0.0
C999 C 0.25268 0.46849 0.33331 0.0
C1000 C 0.21628 0.49563 0.33803 0.0
H1001 H 0.32098 0.46506 0.33041 0.0
H1002 H 0.24964 0.43247 0.33044 0.0
C1003 C 0.22186 0.5422 0.34125 0.0
C1004 C 0.24951 0.53172 0.83212 0.0
C1005 C 0.21335 0.5047 0.83801 0.0
H1006 H 0.31775 0.53537 0.82853 0.0
C1007 C 0.21927 0.45842 0.84264 0.0
H1008 H 0.2462 0.5675 0.82815 0.0
C1009 C 0.26046 0.44001 0.84283 0.0
C1010 C 0.29675 0.46741 0.83828 0.0
H1011 H 0.19225 0.43664 0.84724 0.0
H1012 H 0.26383 0.40438 0.84738 0.0
C1013 C 0.29067 0.51332 0.83225 0.0
C1014 C 0.71732 0.51545 0.68575 0.0
C1015 C 0.71159 0.46915 0.68111 0.0
H1016 H 0.76141 0.57013 0.68848 0.0
C1017 C 0.7481 0.44173 0.67772 0.0
H1018 H 0.69006 0.53754 0.68852 0.0
C1019 C 0.78919 0.4604 0.67768 0.0
C1020 C 0.79477 0.50698 0.6809 0.0
H1021 H 0.74498 0.40581 0.67427 0.0
H1022 H 0.8164 0.43852 0.67402 0.0
C1023 C 0.75837 0.53411 0.68561 0.0
C1024 C 0.96024 0.10127 0.26246 0.0
C1025 C 0.98538 0.10061 0.28933 0.0
H1026 H 0.95899 0.10065 0.2129 0.0
C1027 C 0.03025 0.1006 0.28602 0.0
H1028 H 0.92571 0.1013 0.26409 0.0
C1029 C 0.04946 0.10093 0.25666 0.0
C1030 C 0.02433 0.10039 0.22978 0.0
H1031 H 0.05072 0.10044 0.30619 0.0
H1032 H 0.084 0.10072 0.25504 0.0
C1033 C 0.97946 0.10072 0.23308 0.0
C1034 C 0.45999 0.91104 0.25795 0.0
C1035 C 0.48353 0.91159 0.23023 0.0
H1036 H 0.46148 0.91124 0.30745 0.0
C1037 C 0.52857 0.91156 0.23205 0.0
H1038 H 0.42539 0.91093 0.25754 0.0
C1039 C 0.54944 0.91149 0.26073 0.0
C1040 C 0.5259 0.91176 0.28845 0.0
H1041 H 0.54797 0.91175 0.21125 0.0
H1042 H 0.58403 0.91174 0.26113 0.0
C1043 C 0.48086 0.91127 0.28664 0.0
C1044 C 0.05082 0.90132 0.75647 0.0
C1045 C 0.02568 0.90198 0.72959 0.0
H1046 H 0.05207 0.90194 0.80603 0.0
C1047 C 0.98081 0.902 0.7329 0.0
H1048 H 0.08535 0.90129 0.75484 0.0
C1049 C 0.9616 0.90167 0.76227 0.0
C1050 C 0.98673 0.9022 0.78915 0.0
H1051 H 0.96034 0.90216 0.71273 0.0
H1052 H 0.92706 0.90188 0.76389 0.0
C1053 C 0.0316 0.90187 0.78585 0.0
C1054 C 0.46162 0.09111 0.75821 0.0
C1055 C 0.48516 0.09084 0.73049 0.0
H1056 H 0.46309 0.09085 0.80769 0.0
C1057 C 0.5302 0.09132 0.73231 0.0
H1058 H 0.42703 0.09086 0.75781 0.0
C1059 C 0.55107 0.09156 0.76099 0.0
C1060 C 0.52753 0.09101 0.78871 0.0
H1061 H 0.54958 0.09136 0.71149 0.0
H1062 H 0.58567 0.09167 0.7614 0.0
C1063 C 0.48249 0.09104 0.78689 0.0
C1064 C 0.4814 0.60067 0.23282 0.0
C1065 C 0.52627 0.60055 0.22951 0.0
H1066 H 0.42765 0.60094 0.2638 0.0
C1067 C 0.5514 0.60114 0.25639 0.0
H1068 H 0.46092 0.60057 0.21265 0.0
C1069 C 0.53219 0.60064 0.28576 0.0
C1070 C 0.48731 0.60044 0.28907 0.0
H1071 H 0.58594 0.60107 0.25476 0.0
H1072 H 0.55265 0.60051 0.30595 0.0
C1073 C 0.46218 0.60106 0.26219 0.0
C1074 C 0.98334 0.41161 0.28704 0.0
C1075 C 0.02838 0.41158 0.28887 0.0
H1076 H 0.92788 0.41185 0.25797 0.0
C1077 C 0.05193 0.41099 0.26115 0.0
H1078 H 0.96394 0.41183 0.30784 0.0
C1079 C 0.03105 0.41125 0.23246 0.0
C1080 C 0.98601 0.41179 0.23065 0.0
H1081 H 0.08652 0.41084 0.26157 0.0
H1082 H 0.05043 0.41118 0.21165 0.0
C1083 C 0.96247 0.41156 0.25837 0.0
C1084 C 0.47886 0.40196 0.73318 0.0
C1085 C 0.52374 0.40216 0.72987 0.0
H1086 H 0.42511 0.40153 0.76419 0.0
C1087 C 0.54887 0.40155 0.75675 0.0
H1088 H 0.4584 0.40209 0.713 0.0
C1089 C 0.52966 0.40193 0.78612 0.0
C1090 C 0.48479 0.40205 0.78943 0.0
H1091 H 0.5834 0.40167 0.75514 0.0
H1092 H 0.55014 0.40203 0.80629 0.0
C1093 C 0.45965 0.40146 0.76255 0.0
C1094 C 0.98 0.59135 0.78646 0.0
C1095 C 0.02504 0.5908 0.78828 0.0
H1096 H 0.92453 0.59176 0.75736 0.0
C1097 C 0.04857 0.59103 0.76056 0.0
H1098 H 0.96062 0.59142 0.80728 0.0
C1099 C 0.02771 0.59098 0.73188 0.0
C1100 C 0.98267 0.59101 0.73006 0.0
H1101 H 0.08317 0.59074 0.76095 0.0
H1102 H 0.04711 0.59076 0.71108 0.0
C1103 C 0.95912 0.59161 0.75777 0.0
C1104 C 0.03315 0.24406 0.10755 0.0
C1105 C 0.01015 0.20752 0.11982 0.0
H1106 H 0.03575 0.31542 0.10062 0.0
C1107 C 0.96917 0.2147 0.13171 0.0
H1108 H 0.06481 0.23917 0.09806 0.0
C1109 C 0.95286 0.25821 0.13373 0.0
C1110 C 0.97688 0.29543 0.12333 0.0
H1111 H 0.95111 0.18733 0.14177 0.0
H1112 H 0.92232 0.26266 0.14506 0.0
C1113 C 0.01652 0.28768 0.10902 0.0
C1114 C 0.45277 0.75755 0.13333 0.0
C1115 C 0.47649 0.79506 0.12307 0.0
H1116 H 0.45165 0.68662 0.14125 0.0
C1117 C 0.51635 0.7878 0.10897 0.0
H1118 H 0.42207 0.76162 0.14449 0.0
C1119 C 0.53345 0.74438 0.10754 0.0
C1120 C 0.51071 0.70754 0.11966 0.0
H1121 H 0.53536 0.81577 0.10068 0.0
H1122 H 0.56522 0.73988 0.09819 0.0
C1123 C 0.46954 0.71423 0.13134 0.0
C1124 C 0.5424 0.71461 0.38742 0.0
C1125 C 0.50132 0.70748 0.39913 0.0
H1126 H 0.58941 0.76251 0.37426 0.0
C1127 C 0.47826 0.74405 0.4113 0.0
H1128 H 0.56052 0.68721 0.37746 0.0
C1129 C 0.49496 0.78765 0.40989 0.0
C1130 C 0.53471 0.79535 0.39575 0.0
H1131 H 0.44653 0.7392 0.42066 0.0
H1132 H 0.47569 0.81541 0.41821 0.0
C1133 C 0.55877 0.7581 0.38546 0.0
C1134 C 0.05886 0.25745 0.38585 0.0
C1135 C 0.0351 0.29498 0.396 0.0
H1136 H 0.05998 0.18652 0.37796 0.0
C1137 C 0.99513 0.28777 0.40994 0.0
H1138 H 0.08965 0.26148 0.37481 0.0
C1139 C 0.97798 0.24437 0.41131 0.0
C1140 C 1.00077 0.20751 0.3993 0.0
H1141 H 0.97609 0.31576 0.41815 0.0
H1142 H 0.94613 0.23991 0.42055 0.0
C1143 C 0.04204 0.21415 0.38779 0.0
C1144 C 0.05819 0.74438 0.88519 0.0
C1145 C 0.03417 0.70716 0.89559 0.0
H1146 H 0.05995 0.81526 0.87715 0.0
C1147 C 0.99454 0.71492 0.9099 0.0
H1148 H 0.08873 0.73993 0.87387 0.0
C1149 C 0.97791 0.75854 0.91138 0.0
C1150 C 1.00091 0.79507 0.8991 0.0
H1151 H 0.97531 0.68717 0.91831 0.0
H1152 H 0.94625 0.76343 0.92087 0.0
C1153 C 0.04189 0.78789 0.88722 0.0
C1154 C 0.54151 0.28838 0.88759 0.0
C1155 C 0.50035 0.29506 0.89929 0.0
H1156 H 0.58898 0.24099 0.87444 0.0
C1157 C 0.47762 0.25823 0.91141 0.0
H1158 H 0.5594 0.31599 0.87768 0.0
C1159 C 0.49472 0.21481 0.90998 0.0
C1160 C 0.53457 0.20755 0.89587 0.0
H1161 H 0.44585 0.26273 0.92077 0.0
H1162 H 0.47571 0.18683 0.91828 0.0
C1163 C 0.55829 0.24506 0.88561 0.0
C1164 C 0.51609 0.21496 0.60905 0.0
C1165 C 0.47634 0.20725 0.6232 0.0
H1166 H 0.56451 0.2634 0.59827 0.0
C1167 C 0.45228 0.24449 0.63349 0.0
H1168 H 0.53535 0.18719 0.60073 0.0
C1169 C 0.46864 0.28799 0.63152 0.0
C1170 C 0.50973 0.29512 0.61981 0.0
H1171 H 0.42165 0.24008 0.64469 0.0
H1172 H 0.45053 0.31538 0.64149 0.0
C1173 C 0.53278 0.25855 0.60764 0.0
C1174 C 0.03308 0.75823 0.60762 0.0
C1175 C 0.01029 0.79508 0.61963 0.0
H1176 H 0.03497 0.68683 0.60078 0.0
C1177 C 0.96902 0.78845 0.63114 0.0
H1178 H 0.06493 0.76269 0.59838 0.0
C1179 C 0.95219 0.74515 0.63307 0.0
C1180 C 0.97595 0.70761 0.62293 0.0
H1181 H 0.95108 0.81609 0.64096 0.0
H1182 H 0.9214 0.74112 0.64411 0.0
C1183 C 0.01592 0.71483 0.60898 0.0
C1184 C 0.032 0.9638 1.0062 0.0
C1185 C 1.00263 0.97401 0.98254 0.0
H1186 H 0.05757 0.98154 0.05058 0.0
C1187 C 0.9762 0.01189 0.98616 0.0
H1188 H 0.05309 0.93507 1.00418 0.0
C1189 C 0.97906 0.03879 0.01273 0.0
C1190 C 0.00843 0.02858 0.03639 0.0
H1191 H 0.95349 0.02105 0.96835 0.0
H1192 H 0.95798 0.06752 0.01475 0.0
C1193 C 0.03486 0.99071 0.03276 0.0
C1194 C 0.48597 0.04342 1.00767 0.0
C1195 C 0.5123 0.02902 0.9831 0.0
H1196 H 0.45918 0.02853 0.05225 0.0
C1197 C 0.53176 0.98651 0.98525 0.0
H1198 H 0.47019 0.0758 1.00678 0.0
C1199 C 0.52509 0.95919 0.01127 0.0
C1200 C 0.49877 0.97359 0.03585 0.0
H1201 H 0.55188 0.97407 0.96669 0.0
H1202 H 0.54087 0.9268 0.01217 0.0
C1203 C 0.47931 0.01609 0.03369 0.0
C1204 C 0.52496 0.04349 0.51114 0.0
C1205 C 0.49916 0.02889 0.53595 0.0
H1206 H 0.55097 0.02888 0.46628 0.0
C1207 C 0.47982 0.98631 0.53393 0.0
H1208 H 0.54063 0.07594 0.51192 0.0
C1209 C 0.48609 0.95911 0.5078 0.0
C1210 C 0.5119 0.97371 0.48299 0.0
H1211 H 0.46008 0.97373 0.55266 0.0
H1212 H 0.47042 0.92666 0.50702 0.0
C1213 C 0.53124 0.01629 0.48502 0.0
C1214 C 0.97901 0.96388 0.5129 0.0
C1215 C 0.00872 0.97396 0.53635 0.0
H1216 H 0.9529 0.98177 0.46871 0.0
C1217 C 0.0352 0.01176 0.53256 0.0
H1218 H 0.95788 0.93521 0.51506 0.0
C1219 C 0.03205 0.03872 0.50603 0.0
C1220 C 1.00234 0.02864 0.48258 0.0
H1221 H 0.05816 0.02083 0.55022 0.0
H1222 H 0.05318 0.06739 0.50387 0.0
C1223 C 0.97586 0.99084 0.48637 0.0
C1224 C 0.4791 0.53879 0.01292 0.0
C1225 C 0.50888 0.52868 0.03632 0.0
H1226 H 0.45278 0.5209 0.9688 0.0
C1227 C 0.53527 0.49081 0.03252 0.0
H1228 H 0.45803 0.56751 0.01508 0.0
C1229 C 0.53196 0.46382 1.00603 0.0
C1230 C 0.50218 0.47393 0.98262 0.0
H1231 H 0.55828 0.48171 0.05014 0.0
H1232 H 0.55302 0.43509 1.00386 0.0
C1233 C 0.47579 0.5118 0.98642 0.0
C1234 C 0.02506 0.45915 0.01112 0.0
C1235 C 0.99942 0.47376 0.03601 0.0
H1236 H 0.05069 0.47371 0.96613 0.0
C1237 C 0.97997 0.51629 0.034 0.0
H1238 H 0.04079 0.42673 0.01189 0.0
C1239 C 0.98599 0.54344 1.00781 0.0
C1240 C 0.01163 0.52883 0.98292 0.0
H1241 H 0.96035 0.52888 0.05279 0.0
H1242 H 0.97025 0.57586 1.00704 0.0
C1243 C 0.03107 0.4863 0.98493 0.0
C1244 C 0.02499 0.54346 0.51128 0.0
C1245 C 0.9985 0.52907 0.53577 0.0
H1246 H 0.05214 0.52852 0.46682 0.0
C1247 C 0.97914 0.48652 0.5336 0.0
H1248 H 0.0407 0.57588 0.51218 0.0
C1249 C 0.98606 0.45914 0.50765 0.0
C1250 C 0.01255 0.47353 0.48316 0.0
H1251 H 0.9589 0.47408 0.5521 0.0
H1252 H 0.97035 0.42672 0.50674 0.0
C1253 C 0.03191 0.51608 0.48532 0.0
C1254 C 0.53478 0.51186 0.53282 0.0
C1255 C 0.50825 0.47405 0.53643 0.0
H1256 H 0.55323 0.56741 0.5042 0.0
C1257 C 0.47896 0.46388 0.51272 0.0
H1258 H 0.55744 0.52099 0.55067 0.0
C1259 C 0.47626 0.49075 0.48612 0.0
C1260 C 0.50279 0.52855 0.48251 0.0
H1261 H 0.45781 0.4352 0.51474 0.0
H1262 H 0.4536 0.48161 0.46827 0.0
C1263 C 0.53208 0.53873 0.50622 0.0
loop_
_geom_bond_atom_site_label_1
_geom_bond_atom_site_label_2
_geom_bond_distance
_geom_bond_site_symmetry_2
_ccdc_geom_bond_type
Co0 O2 2.143 . S
Co0 O8 2.074 . S
Co0 O11 2.093 1_455 S
Co0 O24 2.097 . S
Co0 N41 2.151 1_445 S
Co0 N49 2.214 1_455 S
Co1 O2 2.160 . S
Co1 O7 2.058 . S
Co1 O17 2.057 . S
Co1 O32 2.037 . S
Co1 N36 2.145 . S
Co1 N57 2.257 . S
O2 Co0 2.143 . S
O2 Co1 2.160 . S
C3 O4 1.278 . S
C3 O11 1.224 1_455 S
O4 C3 1.278 . S
C5 O6 1.245 1_545 S
C5 O17 1.232 . S
O6 C5 1.245 1_565 S
O7 Co1 2.058 . S
O7 C33 1.269 . S
O8 Co0 2.074 . S
O8 C33 1.257 . S
H9 C34 0.930 . S
H10 C40 0.930 . S
O11 Co0 2.093 1_655 S
O11 C3 1.224 1_655 S
H12 C44 0.929 . S
H13 C46 0.930 . S
H14 C47 0.930 . S
H15 C45 0.929 . S
H16 C48 0.928 . S
O17 Co1 2.057 . S
O17 C5 1.232 . S
H18 C37 0.929 . S
H19 C38 0.929 . S
H20 C50 0.931 . S
H21 C42 0.929 . S
H22 C51 0.930 . S
H23 C43 0.931 . S
O24 Co0 2.097 . S
O24 C52 1.214 . S
H25 C53 0.929 . S
H26 C54 0.929 . S
H27 C55 0.930 . S
H28 C56 0.929 . S
H29 C58 0.930 . S
H30 C35 0.930 . S
H31 C39 0.930 . S
O32 Co1 2.037 . S
O32 C52 1.234 . S
C33 O7 1.269 . S
C33 O8 1.257 . S
C34 H9 0.930 . S
C34 C37 1.388 . S
C34 C39 1.418 . S
C35 H30 0.930 . S
C35 C38 1.404 . S
C35 C39 1.353 . S
N36 Co1 2.145 . S
N36 C37 1.397 . S
N36 C38 1.334 . S
C37 H18 0.929 . S
C37 C34 1.388 . S
C37 N36 1.397 . S
C38 H19 0.929 . S
C38 C35 1.404 . S
C38 N36 1.334 . S
C39 H31 0.930 . S
C39 C34 1.418 . S
C39 C35 1.353 . S
C40 H10 0.930 . S
C40 N41 1.330 1_455 S
C40 C42 1.446 . S
N41 Co0 2.151 1_665 S
N41 C40 1.330 1_655 S
N41 C45 1.418 . S
C42 H21 0.929 . S
C42 C40 1.446 . S
C42 C43 1.332 1_455 S
C43 H23 0.931 . S
C43 C42 1.332 1_655 S
C43 C44 1.267 . S
C44 H12 0.929 . S
C44 C43 1.267 . S
C44 C45 1.251 . S
C45 H15 0.929 . S
C45 N41 1.418 . S
C45 C44 1.251 . S
C46 H13 0.930 . S
C46 C48 1.406 . S
C46 C51 1.261 . S
C47 H14 0.930 . S
C47 N49 1.325 . S
C47 C50 1.357 . S
C48 H16 0.928 . S
C48 C46 1.406 . S
C48 N49 1.261 . S
N49 Co0 2.214 1_655 S
N49 C47 1.325 . S
N49 C48 1.261 . S
C50 H20 0.931 . S
C50 C47 1.357 . S
C50 C51 1.312 . S
C51 H22 0.930 . S
C51 C46 1.261 . S
C51 C50 1.312 . S
C52 O24 1.214 . S
C52 O32 1.234 . S
C53 H25 0.929 . S
C53 C56 1.391 . S
C53 C58 1.391 . S
C54 H26 0.929 . S
C54 C55 1.390 . S
C54 N57 1.391 . S
C55 H27 0.930 . S
C55 C54 1.390 . S
C55 C56 1.392 . S
C56 H28 0.929 . S
C56 C53 1.391 . S
C56 C55 1.392 . S
N57 Co1 2.257 . S
N57 C54 1.391 . S
N57 C58 1.388 . S
C58 H29 0.930 . S
C58 C53 1.391 . S
C58 N57 1.388 . S
Co59 O61 2.143 . S
Co59 O67 2.074 . S
Co59 O70 2.093 . S
Co59 O83 2.097 . S
Co59 N100 2.151 1_565 S
Co59 N108 2.214 . S
Co60 O61 2.160 . S
Co60 O66 2.058 . S
Co60 O76 2.057 . S
Co60 O91 2.037 . S
Co60 N95 2.145 . S
Co60 N116 2.257 . S
O61 Co59 2.143 . S
O61 Co60 2.160 . S
C62 O63 1.278 . S
C62 O70 1.224 . S
O63 C62 1.278 . S
C64 O65 1.245 1_565 S
C64 O76 1.232 . S
O65 C64 1.245 1_545 S
O66 Co60 2.058 . S
O66 C92 1.269 . S
O67 Co59 2.074 . S
O67 C92 1.257 . S
H68 C93 0.930 . S
H69 C99 0.930 . S
O70 Co59 2.093 . S
O70 C62 1.224 . S
H71 C103 0.929 . S
H72 C105 0.930 . S
H73 C106 0.930 . S
H74 C104 0.929 . S
H75 C107 0.928 . S
O76 Co60 2.057 . S
O76 C64 1.232 . S
H77 C96 0.929 . S
H78 C97 0.929 . S
H79 C109 0.931 . S
H80 C101 0.929 . S
H81 C110 0.930 . S
H82 C102 0.931 . S
O83 Co59 2.097 . S
O83 C111 1.214 . S
H84 C112 0.929 . S
H85 C113 0.929 . S
H86 C114 0.930 . S
H87 C115 0.929 . S
H88 C117 0.930 . S
H89 C94 0.930 . S
H90 C98 0.930 . S
O91 Co60 2.037 . S
O91 C111 1.234 . S
C92 O66 1.269 . S
C92 O67 1.257 . S
C93 H68 0.930 . S
C93 C96 1.388 . S
C93 C98 1.418 . S
C94 H89 0.930 . S
C94 C97 1.404 . S
C94 C98 1.353 . S
N95 Co60 2.145 . S
N95 C96 1.397 . S
N95 C97 1.334 . S
C96 H77 0.929 . S
C96 C93 1.388 . S
C96 N95 1.397 . S
C97 H78 0.929 . S
C97 C94 1.404 . S
C97 N95 1.334 . S
C98 H90 0.930 . S
C98 C93 1.418 . S
C98 C94 1.353 . S
C99 H69 0.930 . S
C99 N100 1.330 . S
C99 C101 1.446 . S
N100 Co59 2.151 1_545 S
N100 C99 1.330 . S
N100 C104 1.418 . S
C101 H80 0.929 . S
C101 C99 1.446 . S
C101 C102 1.332 . S
C102 H82 0.931 . S
C102 C101 1.332 . S
C102 C103 1.267 . S
C103 H71 0.929 . S
C103 C102 1.267 . S
C103 C104 1.251 . S
C104 H74 0.929 . S
C104 N100 1.418 . S
C104 C103 1.251 . S
C105 H72 0.930 . S
C105 C107 1.406 . S
C105 C110 1.261 . S
C106 H73 0.930 . S
C106 N108 1.325 . S
C106 C109 1.357 . S
C107 H75 0.928 . S
C107 C105 1.406 . S
C107 N108 1.261 . S
N108 Co59 2.214 . S
N108 C106 1.325 . S
N108 C107 1.261 . S
C109 H79 0.931 . S
C109 C106 1.357 . S
C109 C110 1.312 . S
C110 H81 0.930 . S
C110 C105 1.261 . S
C110 C109 1.312 . S
C111 O83 1.214 . S
C111 O91 1.234 . S
C112 H84 0.929 . S
C112 C115 1.391 . S
C112 C117 1.391 . S
C113 H85 0.929 . S
C113 C114 1.390 . S
C113 N116 1.391 . S
C114 H86 0.930 . S
C114 C113 1.390 . S
C114 C115 1.392 . S
C115 H87 0.929 . S
C115 C112 1.391 . S
C115 C114 1.392 . S
N116 Co60 2.257 . S
N116 C113 1.391 . S
N116 C117 1.388 . S
C117 H88 0.930 . S
C117 C112 1.391 . S
C117 N116 1.388 . S
Co118 O120 2.143 . S
Co118 O126 2.074 . S
Co118 O129 2.093 . S
Co118 O142 2.097 . S
Co118 N159 2.151 1_565 S
Co118 N167 2.214 . S
Co119 O120 2.160 . S
Co119 O125 2.058 . S
Co119 O135 2.057 . S
Co119 O150 2.037 . S
Co119 N154 2.145 . S
Co119 N175 2.257 . S
O120 Co118 2.143 . S
O120 Co119 2.160 . S
C121 O122 1.278 . S
C121 O129 1.224 . S
O122 C121 1.278 . S
C123 O124 1.245 1_565 S
C123 O135 1.232 . S
O124 C123 1.245 1_545 S
O125 Co119 2.058 . S
O125 C151 1.269 . S
O126 Co118 2.074 . S
O126 C151 1.257 . S
H127 C152 0.930 . S
H128 C158 0.930 . S
O129 Co118 2.093 . S
O129 C121 1.224 . S
H130 C162 0.929 . S
H131 C164 0.930 . S
H132 C165 0.930 . S
H133 C163 0.929 . S
H134 C166 0.928 . S
O135 Co119 2.057 . S
O135 C123 1.232 . S
H136 C155 0.929 . S
H137 C156 0.929 . S
H138 C168 0.931 . S
H139 C160 0.929 . S
H140 C169 0.930 . S
H141 C161 0.931 . S
O142 Co118 2.097 . S
O142 C170 1.214 . S
H143 C171 0.929 . S
H144 C172 0.929 . S
H145 C173 0.930 . S
H146 C174 0.929 . S
H147 C176 0.930 . S
H148 C153 0.930 . S
H149 C157 0.930 . S
O150 Co119 2.037 . S
O150 C170 1.234 . S
C151 O125 1.269 . S
C151 O126 1.257 . S
C152 H127 0.930 . S
C152 C155 1.388 . S
C152 C157 1.418 . S
C153 H148 0.930 . S
C153 C156 1.404 . S
C153 C157 1.353 . S
N154 Co119 2.145 . S
N154 C155 1.397 . S
N154 C156 1.334 . S
C155 H136 0.929 . S
C155 C152 1.388 . S
C155 N154 1.397 . S
C156 H137 0.929 . S
C156 C153 1.404 . S
C156 N154 1.334 . S
C157 H149 0.930 . S
C157 C152 1.418 . S
C157 C153 1.353 . S
C158 H128 0.930 . S
C158 N159 1.330 . S
C158 C160 1.446 . S
N159 Co118 2.151 1_545 S
N159 C158 1.330 . S
N159 C163 1.418 . S
C160 H139 0.929 . S
C160 C158 1.446 . S
C160 C161 1.332 . S
C161 H141 0.931 . S
C161 C160 1.332 . S
C161 C162 1.267 . S
C162 H130 0.929 . S
C162 C161 1.267 . S
C162 C163 1.251 . S
C163 H133 0.929 . S
C163 N159 1.418 . S
C163 C162 1.251 . S
C164 H131 0.930 . S
C164 C166 1.406 . S
C164 C169 1.261 . S
C165 H132 0.930 . S
C165 N167 1.325 . S
C165 C168 1.357 . S
C166 H134 0.928 . S
C166 C164 1.406 . S
C166 N167 1.261 . S
N167 Co118 2.214 . S
N167 C165 1.325 . S
N167 C166 1.261 . S
C168 H138 0.931 . S
C168 C165 1.357 . S
C168 C169 1.312 . S
C169 H140 0.930 . S
C169 C164 1.261 . S
C169 C168 1.312 . S
C170 O142 1.214 . S
C170 O150 1.234 . S
C171 H143 0.929 . S
C171 C174 1.391 . S
C171 C176 1.391 . S
C172 H144 0.929 . S
C172 C173 1.390 . S
C172 N175 1.391 . S
C173 H145 0.930 . S
C173 C172 1.390 . S
C173 C174 1.392 . S
C174 H146 0.929 . S
C174 C171 1.391 . S
C174 C173 1.392 . S
N175 Co119 2.257 . S
N175 C172 1.391 . S
N175 C176 1.388 . S
C176 H147 0.930 . S
C176 C171 1.391 . S
C176 N175 1.388 . S
Co177 O179 2.143 . S
Co177 O185 2.074 . S
Co177 O188 2.093 1_655 S
Co177 O201 2.097 . S
Co177 N218 2.151 1_645 S
Co177 N226 2.214 1_655 S
Co178 O179 2.160 . S
Co178 O184 2.058 . S
Co178 O194 2.057 . S
Co178 O209 2.037 . S
Co178 N213 2.145 . S
Co178 N234 2.257 . S
O179 Co177 2.143 . S
O179 Co178 2.160 . S
C180 O181 1.278 . S
C180 O188 1.224 1_655 S
O181 C180 1.278 . S
C182 O183 1.245 1_545 S
C182 O194 1.232 . S
O183 C182 1.245 1_565 S
O184 Co178 2.058 . S
O184 C210 1.269 . S
O185 Co177 2.074 . S
O185 C210 1.257 . S
H186 C211 0.930 . S
H187 C217 0.930 . S
O188 Co177 2.093 1_455 S
O188 C180 1.224 1_455 S
H189 C221 0.929 . S
H190 C223 0.930 . S
H191 C224 0.930 . S
H192 C222 0.929 . S
H193 C225 0.928 . S
O194 Co178 2.057 . S
O194 C182 1.232 . S
H195 C214 0.929 . S
H196 C215 0.929 . S
H197 C227 0.931 . S
H198 C219 0.929 . S
H199 C228 0.930 . S
H200 C220 0.931 . S
O201 Co177 2.097 . S
O201 C229 1.214 . S
H202 C230 0.929 . S
H203 C231 0.929 . S
H204 C232 0.930 . S
H205 C233 0.929 . S
H206 C235 0.930 . S
H207 C212 0.930 . S
H208 C216 0.930 . S
O209 Co178 2.037 . S
O209 C229 1.234 . S
C210 O184 1.269 . S
C210 O185 1.257 . S
C211 H186 0.930 . S
C211 C214 1.388 . S
C211 C216 1.418 . S
C212 H207 0.930 . S
C212 C215 1.404 . S
C212 C216 1.353 . S
N213 Co178 2.145 . S
N213 C214 1.397 . S
N213 C215 1.334 . S
C214 H195 0.929 . S
C214 C211 1.388 . S
C214 N213 1.397 . S
C215 H196 0.929 . S
C215 C212 1.404 . S
C215 N213 1.334 . S
C216 H208 0.930 . S
C216 C211 1.418 . S
C216 C212 1.353 . S
C217 H187 0.930 . S
C217 N218 1.330 1_655 S
C217 C219 1.446 . S
N218 Co177 2.151 1_465 S
N218 C217 1.330 1_455 S
N218 C222 1.418 . S
C219 H198 0.929 . S
C219 C217 1.446 . S
C219 C220 1.332 1_655 S
C220 H200 0.931 . S
C220 C219 1.332 1_455 S
C220 C221 1.267 . S
C221 H189 0.929 . S
C221 C220 1.267 . S
C221 C222 1.251 . S
C222 H192 0.929 . S
C222 N218 1.418 . S
C222 C221 1.251 . S
C223 H190 0.930 . S
C223 C225 1.406 . S
C223 C228 1.261 . S
C224 H191 0.930 . S
C224 N226 1.325 . S
C224 C227 1.357 . S
C225 H193 0.928 . S
C225 C223 1.406 . S
C225 N226 1.261 . S
N226 Co177 2.214 1_455 S
N226 C224 1.325 . S
N226 C225 1.261 . S
C227 H197 0.931 . S
C227 C224 1.357 . S
C227 C228 1.312 . S
C228 H199 0.930 . S
C228 C223 1.261 . S
C228 C227 1.312 . S
C229 O201 1.214 . S
C229 O209 1.234 . S
C230 H202 0.929 . S
C230 C233 1.391 . S
C230 C235 1.391 . S
C231 H203 0.929 . S
C231 C232 1.390 . S
C231 N234 1.391 . S
C232 H204 0.930 . S
C232 C231 1.390 . S
C232 C233 1.392 . S
C233 H205 0.929 . S
C233 C230 1.391 . S
C233 C232 1.392 . S
N234 Co178 2.257 . S
N234 C231 1.391 . S
N234 C235 1.388 . S
C235 H206 0.930 . S
C235 C230 1.391 . S
C235 N234 1.388 . S
Co236 O238 2.143 . S
Co236 O244 2.074 . S
Co236 O247 2.093 1_655 S
Co236 O260 2.097 . S
Co236 N277 2.151 1_665 S
Co236 N285 2.214 1_655 S
Co237 O238 2.160 . S
Co237 O243 2.058 . S
Co237 O253 2.057 . S
Co237 O268 2.037 . S
Co237 N272 2.145 . S
Co237 N293 2.257 . S
O238 Co236 2.143 . S
O238 Co237 2.160 . S
C239 O240 1.278 . S
C239 O247 1.224 1_655 S
O240 C239 1.278 . S
C241 O242 1.245 1_565 S
C241 O253 1.232 . S
O242 C241 1.245 1_545 S
O243 Co237 2.058 . S
O243 C269 1.269 . S
O244 Co236 2.074 . S
O244 C269 1.257 . S
H245 C270 0.930 . S
H246 C276 0.930 . S
O247 Co236 2.093 1_455 S
O247 C239 1.224 1_455 S
H248 C280 0.929 . S
H249 C282 0.930 . S
H250 C283 0.930 . S
H251 C281 0.929 . S
H252 C284 0.928 . S
O253 Co237 2.057 . S
O253 C241 1.232 . S
H254 C273 0.929 . S
H255 C274 0.929 . S
H256 C286 0.931 . S
H257 C278 0.929 . S
H258 C287 0.930 . S
H259 C279 0.931 . S
O260 Co236 2.097 . S
O260 C288 1.214 . S
H261 C289 0.929 . S
H262 C290 0.929 . S
H263 C291 0.930 . S
H264 C292 0.929 . S
H265 C294 0.930 . S
H266 C271 0.930 . S
H267 C275 0.930 . S
O268 Co237 2.037 . S
O268 C288 1.234 . S
C269 O243 1.269 . S
C269 O244 1.257 . S
C270 H245 0.930 . S
C270 C273 1.388 . S
C270 C275 1.418 . S
C271 H266 0.930 . S
C271 C274 1.404 . S
C271 C275 1.353 . S
N272 Co237 2.145 . S
N272 C273 1.397 . S
N272 C274 1.334 . S
C273 H254 0.929 . S
C273 C270 1.388 . S
C273 N272 1.397 . S
C274 H255 0.929 . S
C274 C271 1.404 . S
C274 N272 1.334 . S
C275 H267 0.930 . S
C275 C270 1.418 . S
C275 C271 1.353 . S
C276 H246 0.930 . S
C276 N277 1.330 1_655 S
C276 C278 1.446 . S
N277 Co236 2.151 1_445 S
N277 C276 1.330 1_455 S
N277 C281 1.418 . S
C278 H257 0.929 . S
C278 C276 1.446 . S
C278 C279 1.332 1_655 S
C279 H259 0.931 . S
C279 C278 1.332 1_455 S
C279 C280 1.267 . S
C280 H248 0.929 . S
C280 C279 1.267 . S
C280 C281 1.251 . S
C281 H251 0.929 . S
C281 N277 1.418 . S
C281 C280 1.251 . S
C282 H249 0.930 . S
C282 C284 1.406 . S
C282 C287 1.261 . S
C283 H250 0.930 . S
C283 N285 1.325 . S
C283 C286 1.357 . S
C284 H252 0.928 . S
C284 C282 1.406 . S
C284 N285 1.261 . S
N285 Co236 2.214 1_455 S
N285 C283 1.325 . S
N285 C284 1.261 . S
C286 H256 0.931 . S
C286 C283 1.357 . S
C286 C287 1.312 . S
C287 H258 0.930 . S
C287 C282 1.261 . S
C287 C286 1.312 . S
C288 O260 1.214 . S
C288 O268 1.234 . S
C289 H261 0.929 . S
C289 C292 1.391 . S
C289 C294 1.391 . S
C290 H262 0.929 . S
C290 C291 1.390 . S
C290 N293 1.391 . S
C291 H263 0.930 . S
C291 C290 1.390 . S
C291 C292 1.392 . S
C292 H264 0.929 . S
C292 C289 1.391 . S
C292 C291 1.392 . S
N293 Co237 2.257 . S
N293 C290 1.391 . S
N293 C294 1.388 . S
C294 H265 0.930 . S
C294 C289 1.391 . S
C294 N293 1.388 . S
Co295 O297 2.143 . S
Co295 O303 2.074 . S
Co295 O306 2.093 . S
Co295 O319 2.097 . S
Co295 N336 2.151 1_545 S
Co295 N344 2.214 . S
Co296 O297 2.160 . S
Co296 O302 2.058 . S
Co296 O312 2.057 . S
Co296 O327 2.037 . S
Co296 N331 2.145 . S
Co296 N352 2.257 . S
O297 Co295 2.143 . S
O297 Co296 2.160 . S
C298 O299 1.278 . S
C298 O306 1.224 . S
O299 C298 1.278 . S
C300 O301 1.245 1_545 S
C300 O312 1.232 . S
O301 C300 1.245 1_565 S
O302 Co296 2.058 . S
O302 C328 1.269 . S
O303 Co295 2.074 . S
O303 C328 1.257 . S
H304 C329 0.930 . S
H305 C335 0.930 . S
O306 Co295 2.093 . S
O306 C298 1.224 . S
H307 C339 0.929 . S
H308 C341 0.930 . S
H309 C342 0.930 . S
H310 C340 0.929 . S
H311 C343 0.928 . S
O312 Co296 2.057 . S
O312 C300 1.232 . S
H313 C332 0.929 . S
H314 C333 0.929 . S
H315 C345 0.931 . S
H316 C337 0.929 . S
H317 C346 0.930 . S
H318 C338 0.931 . S
O319 Co295 2.097 . S
O319 C347 1.214 . S
H320 C348 0.929 . S
H321 C349 0.929 . S
H322 C350 0.930 . S
H323 C351 0.929 . S
H324 C353 0.930 . S
H325 C330 0.930 . S
H326 C334 0.930 . S
O327 Co296 2.037 . S
O327 C347 1.234 . S
C328 O302 1.269 . S
C328 O303 1.257 . S
C329 H304 0.930 . S
C329 C332 1.388 . S
C329 C334 1.418 . S
C330 H325 0.930 . S
C330 C333 1.404 . S
C330 C334 1.353 . S
N331 Co296 2.145 . S
N331 C332 1.397 . S
N331 C333 1.334 . S
C332 H313 0.929 . S
C332 C329 1.388 . S
C332 N331 1.397 . S
C333 H314 0.929 . S
C333 C330 1.404 . S
C333 N331 1.334 . S
C334 H326 0.930 . S
C334 C329 1.418 . S
C334 C330 1.353 . S
C335 H305 0.930 . S
C335 N336 1.330 . S
C335 C337 1.446 . S
N336 Co295 2.151 1_565 S
N336 C335 1.330 . S
N336 C340 1.418 . S
C337 H316 0.929 . S
C337 C335 1.446 . S
C337 C338 1.332 . S
C338 H318 0.931 . S
C338 C337 1.332 . S
C338 C339 1.267 . S
C339 H307 0.929 . S
C339 C338 1.267 . S
C339 C340 1.251 . S
C340 H310 0.929 . S
C340 N336 1.418 . S
C340 C339 1.251 . S
C341 H308 0.930 . S
C341 C343 1.406 . S
C341 C346 1.261 . S
C342 H309 0.930 . S
C342 N344 1.325 . S
C342 C345 1.357 . S
C343 H311 0.928 . S
C343 C341 1.406 . S
C343 N344 1.261 . S
N344 Co295 2.214 . S
N344 C342 1.325 . S
N344 C343 1.261 . S
C345 H315 0.931 . S
C345 C342 1.357 . S
C345 C346 1.312 . S
C346 H317 0.930 . S
C346 C341 1.261 . S
C346 C345 1.312 . S
C347 O319 1.214 . S
C347 O327 1.234 . S
C348 H320 0.929 . S
C348 C351 1.391 . S
C348 C353 1.391 . S
C349 H321 0.929 . S
C349 C350 1.390 . S
C349 N352 1.391 . S
C350 H322 0.930 . S
C350 C349 1.390 . S
C350 C351 1.392 . S
C351 H323 0.929 . S
C351 C348 1.391 . S
C351 C350 1.392 . S
N352 Co296 2.257 . S
N352 C349 1.391 . S
N352 C353 1.388 . S
C353 H324 0.930 . S
C353 C348 1.391 . S
C353 N352 1.388 . S
Co354 O356 2.143 . S
Co354 O362 2.074 . S
Co354 O365 2.093 . S
Co354 O378 2.097 . S
Co354 N395 2.151 1_545 S
Co354 N403 2.214 . S
Co355 O356 2.160 . S
Co355 O361 2.058 . S
Co355 O371 2.057 . S
Co355 O386 2.037 . S
Co355 N390 2.145 . S
Co355 N411 2.257 . S
O356 Co354 2.143 . S
O356 Co355 2.160 . S
C357 O358 1.278 . S
C357 O365 1.224 . S
O358 C357 1.278 . S
C359 O360 1.245 1_545 S
C359 O371 1.232 . S
O360 C359 1.245 1_565 S
O361 Co355 2.058 . S
O361 C387 1.269 . S
O362 Co354 2.074 . S
O362 C387 1.257 . S
H363 C388 0.930 . S
H364 C394 0.930 . S
O365 Co354 2.093 . S
O365 C357 1.224 . S
H366 C398 0.929 . S
H367 C400 0.930 . S
H368 C401 0.930 . S
H369 C399 0.929 . S
H370 C402 0.928 . S
O371 Co355 2.057 . S
O371 C359 1.232 . S
H372 C391 0.929 . S
H373 C392 0.929 . S
H374 C404 0.931 . S
H375 C396 0.929 . S
H376 C405 0.930 . S
H377 C397 0.931 . S
O378 Co354 2.097 . S
O378 C406 1.214 . S
H379 C407 0.929 . S
H380 C408 0.929 . S
H381 C409 0.930 . S
H382 C410 0.929 . S
H383 C412 0.930 . S
H384 C389 0.930 . S
H385 C393 0.930 . S
O386 Co355 2.037 . S
O386 C406 1.234 . S
C387 O361 1.269 . S
C387 O362 1.257 . S
C388 H363 0.930 . S
C388 C391 1.388 . S
C388 C393 1.418 . S
C389 H384 0.930 . S
C389 C392 1.404 . S
C389 C393 1.353 . S
N390 Co355 2.145 . S
N390 C391 1.397 . S
N390 C392 1.334 . S
C391 H372 0.929 . S
C391 C388 1.388 . S
C391 N390 1.397 . S
C392 H373 0.929 . S
C392 C389 1.404 . S
C392 N390 1.334 . S
C393 H385 0.930 . S
C393 C388 1.418 . S
C393 C389 1.353 . S
C394 H364 0.930 . S
C394 N395 1.330 . S
C394 C396 1.446 . S
N395 Co354 2.151 1_565 S
N395 C394 1.330 . S
N395 C399 1.418 . S
C396 H375 0.929 . S
C396 C394 1.446 . S
C396 C397 1.332 . S
C397 H377 0.931 . S
C397 C396 1.332 . S
C397 C398 1.267 . S
C398 H366 0.929 . S
C398 C397 1.267 . S
C398 C399 1.251 . S
C399 H369 0.929 . S
C399 N395 1.418 . S
C399 C398 1.251 . S
C400 H367 0.930 . S
C400 C402 1.406 . S
C400 C405 1.261 . S
C401 H368 0.930 . S
C401 N403 1.325 . S
C401 C404 1.357 . S
C402 H370 0.928 . S
C402 C400 1.406 . S
C402 N403 1.261 . S
N403 Co354 2.214 . S
N403 C401 1.325 . S
N403 C402 1.261 . S
C404 H374 0.931 . S
C404 C401 1.357 . S
C404 C405 1.312 . S
C405 H376 0.930 . S
C405 C400 1.261 . S
C405 C404 1.312 . S
C406 O378 1.214 . S
C406 O386 1.234 . S
C407 H379 0.929 . S
C407 C410 1.391 . S
C407 C412 1.391 . S
C408 H380 0.929 . S
C408 C409 1.390 . S
C408 N411 1.391 . S
C409 H381 0.930 . S
C409 C408 1.390 . S
C409 C410 1.392 . S
C410 H382 0.929 . S
C410 C407 1.391 . S
C410 C409 1.392 . S
N411 Co355 2.257 . S
N411 C408 1.391 . S
N411 C412 1.388 . S
C412 H383 0.930 . S
C412 C407 1.391 . S
C412 N411 1.388 . S
Co413 O415 2.143 . S
Co413 O421 2.074 . S
Co413 O424 2.093 1_455 S
Co413 O437 2.097 . S
Co413 N454 2.151 1_465 S
Co413 N462 2.214 1_455 S
Co414 O415 2.160 . S
Co414 O420 2.058 . S
Co414 O430 2.057 . S
Co414 O445 2.037 . S
Co414 N449 2.145 . S
Co414 N470 2.257 . S
O415 Co413 2.143 . S
O415 Co414 2.160 . S
C416 O417 1.278 . S
C416 O424 1.224 1_455 S
O417 C416 1.278 . S
C418 O419 1.245 1_565 S
C418 O430 1.232 . S
O419 C418 1.245 1_545 S
O420 Co414 2.058 . S
O420 C446 1.269 . S
O421 Co413 2.074 . S
O421 C446 1.257 . S
H422 C447 0.930 . S
H423 C453 0.930 . S
O424 Co413 2.093 1_655 S
O424 C416 1.224 1_655 S
H425 C457 0.929 . S
H426 C459 0.930 . S
H427 C460 0.930 . S
H428 C458 0.929 . S
H429 C461 0.928 . S
O430 Co414 2.057 . S
O430 C418 1.232 . S
H431 C450 0.929 . S
H432 C451 0.929 . S
H433 C463 0.931 . S
H434 C455 0.929 . S
H435 C464 0.930 . S
H436 C456 0.931 . S
O437 Co413 2.097 . S
O437 C465 1.214 . S
H438 C466 0.929 . S
H439 C467 0.929 . S
H440 C468 0.930 . S
H441 C469 0.929 . S
H442 C471 0.930 . S
H443 C448 0.930 . S
H444 C452 0.930 . S
O445 Co414 2.037 . S
O445 C465 1.234 . S
C446 O420 1.269 . S
C446 O421 1.257 . S
C447 H422 0.930 . S
C447 C450 1.388 . S
C447 C452 1.418 . S
C448 H443 0.930 . S
C448 C451 1.404 . S
C448 C452 1.353 . S
N449 Co414 2.145 . S
N449 C450 1.397 . S
N449 C451 1.334 . S
C450 H431 0.929 . S
C450 C447 1.388 . S
C450 N449 1.397 . S
C451 H432 0.929 . S
C451 C448 1.404 . S
C451 N449 1.334 . S
C452 H444 0.930 . S
C452 C447 1.418 . S
C452 C448 1.353 . S
C453 H423 0.930 . S
C453 N454 1.330 1_455 S
C453 C455 1.446 . S
N454 Co413 2.151 1_645 S
N454 C453 1.330 1_655 S
N454 C458 1.418 . S
C455 H434 0.929 . S
C455 C453 1.446 . S
C455 C456 1.332 1_455 S
C456 H436 0.931 . S
C456 C455 1.332 1_655 S
C456 C457 1.267 . S
C457 H425 0.929 . S
C457 C456 1.267 . S
C457 C458 1.251 . S
C458 H428 0.929 . S
C458 N454 1.418 . S
C458 C457 1.251 . S
C459 H426 0.930 . S
C459 C461 1.406 . S
C459 C464 1.261 . S
C460 H427 0.930 . S
C460 N462 1.325 . S
C460 C463 1.357 . S
C461 H429 0.928 . S
C461 C459 1.406 . S
C461 N462 1.261 . S
N462 Co413 2.214 1_655 S
N462 C460 1.325 . S
N462 C461 1.261 . S
C463 H433 0.931 . S
C463 C460 1.357 . S
C463 C464 1.312 . S
C464 H435 0.930 . S
C464 C459 1.261 . S
C464 C463 1.312 . S
C465 O437 1.214 . S
C465 O445 1.234 . S
C466 H438 0.929 . S
C466 C469 1.391 . S
C466 C471 1.391 . S
C467 H439 0.929 . S
C467 C468 1.390 . S
C467 N470 1.391 . S
C468 H440 0.930 . S
C468 C467 1.390 . S
C468 C469 1.392 . S
C469 H441 0.929 . S
C469 C466 1.391 . S
C469 C468 1.392 . S
N470 Co414 2.257 . S
N470 C467 1.391 . S
N470 C471 1.388 . S
C471 H442 0.930 . S
C471 C466 1.391 . S
C471 N470 1.388 . S
Co472 O474 2.143 . S
Co472 O480 2.074 . S
Co472 O483 2.093 . S
Co472 O496 2.097 . S
Co472 N513 2.151 . S
Co472 N521 2.214 . S
Co473 O474 2.160 . S
Co473 O479 2.058 . S
Co473 O489 2.057 . S
Co473 O504 2.037 . S
Co473 N508 2.145 . S
Co473 N529 2.257 . S
O474 Co472 2.143 . S
O474 Co473 2.160 . S
C475 O476 1.278 . S
C475 O483 1.224 . S
O476 C475 1.278 . S
C477 O478 1.245 . S
C477 O489 1.232 . S
O478 C477 1.245 . S
O479 Co473 2.058 . S
O479 C505 1.269 . S
O480 Co472 2.074 . S
O480 C505 1.257 . S
H481 C506 0.930 . S
H482 C512 0.930 . S
O483 Co472 2.093 . S
O483 C475 1.224 . S
H484 C516 0.929 . S
H485 C518 0.930 . S
H486 C519 0.930 . S
H487 C517 0.929 . S
H488 C520 0.928 . S
O489 Co473 2.057 . S
O489 C477 1.232 . S
H490 C509 0.929 . S
H491 C510 0.929 . S
H492 C522 0.931 . S
H493 C514 0.929 . S
H494 C523 0.930 . S
H495 C515 0.931 . S
O496 Co472 2.097 . S
O496 C524 1.214 . S
H497 C525 0.929 . S
H498 C526 0.929 . S
H499 C527 0.930 . S
H500 C528 0.929 . S
H501 C530 0.930 . S
H502 C507 0.930 . S
H503 C511 0.930 . S
O504 Co473 2.037 . S
O504 C524 1.234 . S
C505 O479 1.269 . S
C505 O480 1.257 . S
C506 H481 0.930 . S
C506 C509 1.388 . S
C506 C511 1.418 . S
C507 H502 0.930 . S
C507 C510 1.404 . S
C507 C511 1.353 . S
N508 Co473 2.145 . S
N508 C509 1.397 . S
N508 C510 1.334 . S
C509 H490 0.929 . S
C509 C506 1.388 . S
C509 N508 1.397 . S
C510 H491 0.929 . S
C510 C507 1.404 . S
C510 N508 1.334 . S
C511 H503 0.930 . S
C511 C506 1.418 . S
C511 C507 1.353 . S
C512 H482 0.930 . S
C512 N513 1.330 . S
C512 C514 1.446 . S
N513 Co472 2.151 . S
N513 C512 1.330 . S
N513 C517 1.418 . S
C514 H493 0.929 . S
C514 C512 1.446 . S
C514 C515 1.332 . S
C515 H495 0.931 . S
C515 C514 1.332 . S
C515 C516 1.267 . S
C516 H484 0.929 . S
C516 C515 1.267 . S
C516 C517 1.251 . S
C517 H487 0.929 . S
C517 N513 1.418 . S
C517 C516 1.251 . S
C518 H485 0.930 . S
C518 C520 1.406 . S
C518 C523 1.261 . S
C519 H486 0.930 . S
C519 N521 1.325 . S
C519 C522 1.357 . S
C520 H488 0.928 . S
C520 C518 1.406 . S
C520 N521 1.261 . S
N521 Co472 2.214 . S
N521 C519 1.325 . S
N521 C520 1.261 . S
C522 H492 0.931 . S
C522 C519 1.357 . S
C522 C523 1.312 . S
C523 H494 0.930 . S
C523 C518 1.261 . S
C523 C522 1.312 . S
C524 O496 1.214 . S
C524 O504 1.234 . S
C525 H497 0.929 . S
C525 C528 1.391 . S
C525 C530 1.391 . S
C526 H498 0.929 . S
C526 C527 1.390 . S
C526 N529 1.391 . S
C527 H499 0.930 . S
C527 C526 1.390 . S
C527 C528 1.392 . S
C528 H500 0.929 . S
C528 C525 1.391 . S
C528 C527 1.392 . S
N529 Co473 2.257 . S
N529 C526 1.391 . S
N529 C530 1.388 . S
C530 H501 0.930 . S
C530 C525 1.391 . S
C530 N529 1.388 . S
Co531 O533 2.143 . S
Co531 O539 2.074 . S
Co531 O542 2.093 1_655 S
Co531 O555 2.097 . S
Co531 N572 2.151 1_655 S
Co531 N580 2.214 1_655 S
Co532 O533 2.160 . S
Co532 O538 2.058 . S
Co532 O548 2.057 . S
Co532 O563 2.037 . S
Co532 N567 2.145 . S
Co532 N588 2.257 . S
O533 Co531 2.143 . S
O533 Co532 2.160 . S
C534 O535 1.278 . S
C534 O542 1.224 1_655 S
O535 C534 1.278 . S
C536 O537 1.245 . S
C536 O548 1.232 . S
O537 C536 1.245 . S
O538 Co532 2.058 . S
O538 C564 1.269 . S
O539 Co531 2.074 . S
O539 C564 1.257 . S
H540 C565 0.930 . S
H541 C571 0.930 . S
O542 Co531 2.093 1_455 S
O542 C534 1.224 1_455 S
H543 C575 0.929 . S
H544 C577 0.930 . S
H545 C578 0.930 . S
H546 C576 0.929 . S
H547 C579 0.928 . S
O548 Co532 2.057 . S
O548 C536 1.232 . S
H549 C568 0.929 . S
H550 C569 0.929 . S
H551 C581 0.931 . S
H552 C573 0.929 . S
H553 C582 0.930 . S
H554 C574 0.931 . S
O555 Co531 2.097 . S
O555 C583 1.214 . S
H556 C584 0.929 . S
H557 C585 0.929 . S
H558 C586 0.930 . S
H559 C587 0.929 . S
H560 C589 0.930 . S
H561 C566 0.930 . S
H562 C570 0.930 . S
O563 Co532 2.037 . S
O563 C583 1.234 . S
C564 O538 1.269 . S
C564 O539 1.257 . S
C565 H540 0.930 . S
C565 C568 1.388 . S
C565 C570 1.418 . S
C566 H561 0.930 . S
C566 C569 1.404 . S
C566 C570 1.353 . S
N567 Co532 2.145 . S
N567 C568 1.397 . S
N567 C569 1.334 . S
C568 H549 0.929 . S
C568 C565 1.388 . S
C568 N567 1.397 . S
C569 H550 0.929 . S
C569 C566 1.404 . S
C569 N567 1.334 . S
C570 H562 0.930 . S
C570 C565 1.418 . S
C570 C566 1.353 . S
C571 H541 0.930 . S
C571 N572 1.330 1_655 S
C571 C573 1.446 . S
N572 Co531 2.151 1_455 S
N572 C571 1.330 1_455 S
N572 C576 1.418 . S
C573 H552 0.929 . S
C573 C571 1.446 . S
C573 C574 1.332 1_655 S
C574 H554 0.931 . S
C574 C573 1.332 1_455 S
C574 C575 1.267 . S
C575 H543 0.929 . S
C575 C574 1.267 . S
C575 C576 1.251 . S
C576 H546 0.929 . S
C576 N572 1.418 . S
C576 C575 1.251 . S
C577 H544 0.930 . S
C577 C579 1.406 . S
C577 C582 1.261 . S
C578 H545 0.930 . S
C578 N580 1.325 . S
C578 C581 1.357 . S
C579 H547 0.928 . S
C579 C577 1.406 . S
C579 N580 1.261 . S
N580 Co531 2.214 1_455 S
N580 C578 1.325 . S
N580 C579 1.261 . S
C581 H551 0.931 . S
C581 C578 1.357 . S
C581 C582 1.312 . S
C582 H553 0.930 . S
C582 C577 1.261 . S
C582 C581 1.312 . S
C583 O555 1.214 . S
C583 O563 1.234 . S
C584 H556 0.929 . S
C584 C587 1.391 . S
C584 C589 1.391 . S
C585 H557 0.929 . S
C585 C586 1.390 . S
C585 N588 1.391 . S
C586 H558 0.930 . S
C586 C585 1.390 . S
C586 C587 1.392 . S
C587 H559 0.929 . S
C587 C584 1.391 . S
C587 C586 1.392 . S
N588 Co532 2.257 . S
N588 C585 1.391 . S
N588 C589 1.388 . S
C589 H560 0.930 . S
C589 C584 1.391 . S
C589 N588 1.388 . S
Co590 O592 2.143 . S
Co590 O598 2.074 . S
Co590 O601 2.093 1_455 S
Co590 O614 2.097 . S
Co590 N631 2.151 1_455 S
Co590 N639 2.214 1_455 S
Co591 O592 2.160 . S
Co591 O597 2.058 . S
Co591 O607 2.057 . S
Co591 O622 2.037 . S
Co591 N626 2.145 . S
Co591 N647 2.257 . S
O592 Co590 2.143 . S
O592 Co591 2.160 . S
C593 O594 1.278 . S
C593 O601 1.224 1_455 S
O594 C593 1.278 . S
C595 O596 1.245 . S
C595 O607 1.232 . S
O596 C595 1.245 . S
O597 Co591 2.058 . S
O597 C623 1.269 . S
O598 Co590 2.074 . S
O598 C623 1.257 . S
H599 C624 0.930 . S
H600 C630 0.930 . S
O601 Co590 2.093 1_655 S
O601 C593 1.224 1_655 S
H602 C634 0.929 . S
H603 C636 0.930 . S
H604 C637 0.930 . S
H605 C635 0.929 . S
H606 C638 0.928 . S
O607 Co591 2.057 . S
O607 C595 1.232 . S
H608 C627 0.929 . S
H609 C628 0.929 . S
H610 C640 0.931 . S
H611 C632 0.929 . S
H612 C641 0.930 . S
H613 C633 0.931 . S
O614 Co590 2.097 . S
O614 C642 1.214 . S
H615 C643 0.929 . S
H616 C644 0.929 . S
H617 C645 0.930 . S
H618 C646 0.929 . S
H619 C648 0.930 . S
H620 C625 0.930 . S
H621 C629 0.930 . S
O622 Co591 2.037 . S
O622 C642 1.234 . S
C623 O597 1.269 . S
C623 O598 1.257 . S
C624 H599 0.930 . S
C624 C627 1.388 . S
C624 C629 1.418 . S
C625 H620 0.930 . S
C625 C628 1.404 . S
C625 C629 1.353 . S
N626 Co591 2.145 . S
N626 C627 1.397 . S
N626 C628 1.334 . S
C627 H608 0.929 . S
C627 C624 1.388 . S
C627 N626 1.397 . S
C628 H609 0.929 . S
C628 C625 1.404 . S
C628 N626 1.334 . S
C629 H621 0.930 . S
C629 C624 1.418 . S
C629 C625 1.353 . S
C630 H600 0.930 . S
C630 N631 1.330 1_455 S
C630 C632 1.446 . S
N631 Co590 2.151 1_655 S
N631 C630 1.330 1_655 S
N631 C635 1.418 . S
C632 H611 0.929 . S
C632 C630 1.446 . S
C632 C633 1.332 1_455 S
C633 H613 0.931 . S
C633 C632 1.332 1_655 S
C633 C634 1.267 . S
C634 H602 0.929 . S
C634 C633 1.267 . S
C634 C635 1.251 . S
C635 H605 0.929 . S
C635 N631 1.418 . S
C635 C634 1.251 . S
C636 H603 0.930 . S
C636 C638 1.406 . S
C636 C641 1.261 . S
C637 H604 0.930 . S
C637 N639 1.325 . S
C637 C640 1.357 . S
C638 H606 0.928 . S
C638 C636 1.406 . S
C638 N639 1.261 . S
N639 Co590 2.214 1_655 S
N639 C637 1.325 . S
N639 C638 1.261 . S
C640 H610 0.931 . S
C640 C637 1.357 . S
C640 C641 1.312 . S
C641 H612 0.930 . S
C641 C636 1.261 . S
C641 C640 1.312 . S
C642 O614 1.214 . S
C642 O622 1.234 . S
C643 H615 0.929 . S
C643 C646 1.391 . S
C643 C648 1.391 . S
C644 H616 0.929 . S
C644 C645 1.390 . S
C644 N647 1.391 . S
C645 H617 0.930 . S
C645 C644 1.390 . S
C645 C646 1.392 . S
C646 H618 0.929 . S
C646 C643 1.391 . S
C646 C645 1.392 . S
N647 Co591 2.257 . S
N647 C644 1.391 . S
N647 C648 1.388 . S
C648 H619 0.930 . S
C648 C643 1.391 . S
C648 N647 1.388 . S
Co649 O651 2.143 . S
Co649 O657 2.074 . S
Co649 O660 2.093 . S
Co649 O673 2.097 . S
Co649 N690 2.151 . S
Co649 N698 2.214 . S
Co650 O651 2.160 . S
Co650 O656 2.058 . S
Co650 O666 2.057 . S
Co650 O681 2.037 . S
Co650 N685 2.145 . S
Co650 N706 2.257 . S
O651 Co649 2.143 . S
O651 Co650 2.160 . S
C652 O653 1.278 . S
C652 O660 1.224 . S
O653 C652 1.278 . S
C654 O655 1.245 . S
C654 O666 1.232 . S
O655 C654 1.245 . S
O656 Co650 2.058 . S
O656 C682 1.269 . S
O657 Co649 2.074 . S
O657 C682 1.257 . S
H658 C683 0.930 . S
H659 C689 0.930 . S
O660 Co649 2.093 . S
O660 C652 1.224 . S
H661 C693 0.929 . S
H662 C695 0.930 . S
H663 C696 0.930 . S
H664 C694 0.929 . S
H665 C697 0.928 . S
O666 Co650 2.057 . S
O666 C654 1.232 . S
H667 C686 0.929 . S
H668 C687 0.929 . S
H669 C699 0.931 . S
H670 C691 0.929 . S
H671 C700 0.930 . S
H672 C692 0.931 . S
O673 Co649 2.097 . S
O673 C701 1.214 . S
H674 C702 0.929 . S
H675 C703 0.929 . S
H676 C704 0.930 . S
H677 C705 0.929 . S
H678 C707 0.930 . S
H679 C684 0.930 . S
H680 C688 0.930 . S
O681 Co650 2.037 . S
O681 C701 1.234 . S
C682 O656 1.269 . S
C682 O657 1.257 . S
C683 H658 0.930 . S
C683 C686 1.388 . S
C683 C688 1.418 . S
C684 H679 0.930 . S
C684 C687 1.404 . S
C684 C688 1.353 . S
N685 Co650 2.145 . S
N685 C686 1.397 . S
N685 C687 1.334 . S
C686 H667 0.929 . S
C686 C683 1.388 . S
C686 N685 1.397 . S
C687 H668 0.929 . S
C687 C684 1.404 . S
C687 N685 1.334 . S
C688 H680 0.930 . S
C688 C683 1.418 . S
C688 C684 1.353 . S
C689 H659 0.930 . S
C689 N690 1.330 . S
C689 C691 1.446 . S
N690 Co649 2.151 . S
N690 C689 1.330 . S
N690 C694 1.418 . S
C691 H670 0.929 . S
C691 C689 1.446 . S
C691 C692 1.332 . S
C692 H672 0.931 . S
C692 C691 1.332 . S
C692 C693 1.267 . S
C693 H661 0.929 . S
C693 C692 1.267 . S
C693 C694 1.251 . S
C694 H664 0.929 . S
C694 N690 1.418 . S
C694 C693 1.251 . S
C695 H662 0.930 . S
C695 C697 1.406 . S
C695 C700 1.261 . S
C696 H663 0.930 . S
C696 N698 1.325 . S
C696 C699 1.357 . S
C697 H665 0.928 . S
C697 C695 1.406 . S
C697 N698 1.261 . S
N698 Co649 2.214 . S
N698 C696 1.325 . S
N698 C697 1.261 . S
C699 H669 0.931 . S
C699 C696 1.357 . S
C699 C700 1.312 . S
C700 H671 0.930 . S
C700 C695 1.261 . S
C700 C699 1.312 . S
C701 O673 1.214 . S
C701 O681 1.234 . S
C702 H674 0.929 . S
C702 C705 1.391 . S
C702 C707 1.391 . S
C703 H675 0.929 . S
C703 C704 1.390 . S
C703 N706 1.391 . S
C704 H676 0.930 . S
C704 C703 1.390 . S
C704 C705 1.392 . S
C705 H677 0.929 . S
C705 C702 1.391 . S
C705 C704 1.392 . S
N706 Co650 2.257 . S
N706 C703 1.391 . S
N706 C707 1.388 . S
C707 H678 0.930 . S
C707 C702 1.391 . S
C707 N706 1.388 . S
Co708 O710 2.143 . S
Co708 O716 2.074 . S
Co708 O719 2.093 . S
Co708 O732 2.097 . S
Co708 N749 2.151 . S
Co708 N757 2.214 . S
Co709 O710 2.160 . S
Co709 O715 2.058 . S
Co709 O725 2.057 . S
Co709 O740 2.037 . S
Co709 N744 2.145 . S
Co709 N765 2.257 . S
O710 Co708 2.143 . S
O710 Co709 2.160 . S
C711 O712 1.278 . S
C711 O719 1.224 . S
O712 C711 1.278 . S
C713 O714 1.245 . S
C713 O725 1.232 . S
O714 C713 1.245 . S
O715 Co709 2.058 . S
O715 C741 1.269 . S
O716 Co708 2.074 . S
O716 C741 1.257 . S
H717 C742 0.930 . S
H718 C748 0.930 . S
O719 Co708 2.093 . S
O719 C711 1.224 . S
H720 C752 0.929 . S
H721 C754 0.930 . S
H722 C755 0.930 . S
H723 C753 0.929 . S
H724 C756 0.928 . S
O725 Co709 2.057 . S
O725 C713 1.232 . S
H726 C745 0.929 . S
H727 C746 0.929 . S
H728 C758 0.931 . S
H729 C750 0.929 . S
H730 C759 0.930 . S
H731 C751 0.931 . S
O732 Co708 2.097 . S
O732 C760 1.214 . S
H733 C761 0.929 . S
H734 C762 0.929 . S
H735 C763 0.930 . S
H736 C764 0.929 . S
H737 C766 0.930 . S
H738 C743 0.930 . S
H739 C747 0.930 . S
O740 Co709 2.037 . S
O740 C760 1.234 . S
C741 O715 1.269 . S
C741 O716 1.257 . S
C742 H717 0.930 . S
C742 C745 1.388 . S
C742 C747 1.418 . S
C743 H738 0.930 . S
C743 C746 1.404 . S
C743 C747 1.353 . S
N744 Co709 2.145 . S
N744 C745 1.397 . S
N744 C746 1.334 . S
C745 H726 0.929 . S
C745 C742 1.388 . S
C745 N744 1.397 . S
C746 H727 0.929 . S
C746 C743 1.404 . S
C746 N744 1.334 . S
C747 H739 0.930 . S
C747 C742 1.418 . S
C747 C743 1.353 . S
C748 H718 0.930 . S
C748 N749 1.330 . S
C748 C750 1.446 . S
N749 Co708 2.151 . S
N749 C748 1.330 . S
N749 C753 1.418 . S
C750 H729 0.929 . S
C750 C748 1.446 . S
C750 C751 1.332 . S
C751 H731 0.931 . S
C751 C750 1.332 . S
C751 C752 1.267 . S
C752 H720 0.929 . S
C752 C751 1.267 . S
C752 C753 1.251 . S
C753 H723 0.929 . S
C753 N749 1.418 . S
C753 C752 1.251 . S
C754 H721 0.930 . S
C754 C756 1.406 . S
C754 C759 1.261 . S
C755 H722 0.930 . S
C755 N757 1.325 . S
C755 C758 1.357 . S
C756 H724 0.928 . S
C756 C754 1.406 . S
C756 N757 1.261 . S
N757 Co708 2.214 . S
N757 C755 1.325 . S
N757 C756 1.261 . S
C758 H728 0.931 . S
C758 C755 1.357 . S
C758 C759 1.312 . S
C759 H730 0.930 . S
C759 C754 1.261 . S
C759 C758 1.312 . S
C760 O732 1.214 . S
C760 O740 1.234 . S
C761 H733 0.929 . S
C761 C764 1.391 . S
C761 C766 1.391 . S
C762 H734 0.929 . S
C762 C763 1.390 . S
C762 N765 1.391 . S
C763 H735 0.930 . S
C763 C762 1.390 . S
C763 C764 1.392 . S
C764 H736 0.929 . S
C764 C761 1.391 . S
C764 C763 1.392 . S
N765 Co709 2.257 . S
N765 C762 1.391 . S
N765 C766 1.388 . S
C766 H737 0.930 . S
C766 C761 1.391 . S
C766 N765 1.388 . S
Co767 O769 2.143 . S
Co767 O775 2.074 . S
Co767 O778 2.093 1_455 S
Co767 O791 2.097 . S
Co767 N808 2.151 1_455 S
Co767 N816 2.214 1_455 S
Co768 O769 2.160 . S
Co768 O774 2.058 . S
Co768 O784 2.057 . S
Co768 O799 2.037 . S
Co768 N803 2.145 . S
Co768 N824 2.257 . S
O769 Co767 2.143 . S
O769 Co768 2.160 . S
C770 O771 1.278 . S
C770 O778 1.224 1_455 S
O771 C770 1.278 . S
C772 O773 1.245 . S
C772 O784 1.232 . S
O773 C772 1.245 . S
O774 Co768 2.058 . S
O774 C800 1.269 . S
O775 Co767 2.074 . S
O775 C800 1.257 . S
H776 C801 0.930 . S
H777 C807 0.930 . S
O778 Co767 2.093 1_655 S
O778 C770 1.224 1_655 S
H779 C811 0.929 . S
H780 C813 0.930 . S
H781 C814 0.930 . S
H782 C812 0.929 . S
H783 C815 0.928 . S
O784 Co768 2.057 . S
O784 C772 1.232 . S
H785 C804 0.929 . S
H786 C805 0.929 . S
H787 C817 0.931 . S
H788 C809 0.929 . S
H789 C818 0.930 . S
H790 C810 0.931 . S
O791 Co767 2.097 . S
O791 C819 1.214 . S
H792 C820 0.929 . S
H793 C821 0.929 . S
H794 C822 0.930 . S
H795 C823 0.929 . S
H796 C825 0.930 . S
H797 C802 0.930 . S
H798 C806 0.930 . S
O799 Co768 2.037 . S
O799 C819 1.234 . S
C800 O774 1.269 . S
C800 O775 1.257 . S
C801 H776 0.930 . S
C801 C804 1.388 . S
C801 C806 1.418 . S
C802 H797 0.930 . S
C802 C805 1.404 . S
C802 C806 1.353 . S
N803 Co768 2.145 . S
N803 C804 1.397 . S
N803 C805 1.334 . S
C804 H785 0.929 . S
C804 C801 1.388 . S
C804 N803 1.397 . S
C805 H786 0.929 . S
C805 C802 1.404 . S
C805 N803 1.334 . S
C806 H798 0.930 . S
C806 C801 1.418 . S
C806 C802 1.353 . S
C807 H777 0.930 . S
C807 N808 1.330 1_455 S
C807 C809 1.446 . S
N808 Co767 2.151 1_655 S
N808 C807 1.330 1_655 S
N808 C812 1.418 . S
C809 H788 0.929 . S
C809 C807 1.446 . S
C809 C810 1.332 1_455 S
C810 H790 0.931 . S
C810 C809 1.332 1_655 S
C810 C811 1.267 . S
C811 H779 0.929 . S
C811 C810 1.267 . S
C811 C812 1.251 . S
C812 H782 0.929 . S
C812 N808 1.418 . S
C812 C811 1.251 . S
C813 H780 0.930 . S
C813 C815 1.406 . S
C813 C818 1.261 . S
C814 H781 0.930 . S
C814 N816 1.325 . S
C814 C817 1.357 . S
C815 H783 0.928 . S
C815 C813 1.406 . S
C815 N816 1.261 . S
N816 Co767 2.214 1_655 S
N816 C814 1.325 . S
N816 C815 1.261 . S
C817 H787 0.931 . S
C817 C814 1.357 . S
C817 C818 1.312 . S
C818 H789 0.930 . S
C818 C813 1.261 . S
C818 C817 1.312 . S
C819 O791 1.214 . S
C819 O799 1.234 . S
C820 H792 0.929 . S
C820 C823 1.391 . S
C820 C825 1.391 . S
C821 H793 0.929 . S
C821 C822 1.390 . S
C821 N824 1.391 . S
C822 H794 0.930 . S
C822 C821 1.390 . S
C822 C823 1.392 . S
C823 H795 0.929 . S
C823 C820 1.391 . S
C823 C822 1.392 . S
N824 Co768 2.257 . S
N824 C821 1.391 . S
N824 C825 1.388 . S
C825 H796 0.930 . S
C825 C820 1.391 . S
C825 N824 1.388 . S
Co826 O828 2.143 . S
Co826 O834 2.074 . S
Co826 O837 2.093 1_655 S
Co826 O850 2.097 . S
Co826 N867 2.151 1_655 S
Co826 N875 2.214 1_655 S
Co827 O828 2.160 . S
Co827 O833 2.058 . S
Co827 O843 2.057 . S
Co827 O858 2.037 . S
Co827 N862 2.145 . S
Co827 N883 2.257 . S
O828 Co826 2.143 . S
O828 Co827 2.160 . S
C829 O830 1.278 . S
C829 O837 1.224 1_655 S
O830 C829 1.278 . S
C831 O832 1.245 . S
C831 O843 1.232 . S
O832 C831 1.245 . S
O833 Co827 2.058 . S
O833 C859 1.269 . S
O834 Co826 2.074 . S
O834 C859 1.257 . S
H835 C860 0.930 . S
H836 C866 0.930 . S
O837 Co826 2.093 1_455 S
O837 C829 1.224 1_455 S
H838 C870 0.929 . S
H839 C872 0.930 . S
H840 C873 0.930 . S
H841 C871 0.929 . S
H842 C874 0.928 . S
O843 Co827 2.057 . S
O843 C831 1.232 . S
H844 C863 0.929 . S
H845 C864 0.929 . S
H846 C876 0.931 . S
H847 C868 0.929 . S
H848 C877 0.930 . S
H849 C869 0.931 . S
O850 Co826 2.097 . S
O850 C878 1.214 . S
H851 C879 0.929 . S
H852 C880 0.929 . S
H853 C881 0.930 . S
H854 C882 0.929 . S
H855 C884 0.930 . S
H856 C861 0.930 . S
H857 C865 0.930 . S
O858 Co827 2.037 . S
O858 C878 1.234 . S
C859 O833 1.269 . S
C859 O834 1.257 . S
C860 H835 0.930 . S
C860 C863 1.388 . S
C860 C865 1.418 . S
C861 H856 0.930 . S
C861 C864 1.404 . S
C861 C865 1.353 . S
N862 Co827 2.145 . S
N862 C863 1.397 . S
N862 C864 1.334 . S
C863 H844 0.929 . S
C863 C860 1.388 . S
C863 N862 1.397 . S
C864 H845 0.929 . S
C864 C861 1.404 . S
C864 N862 1.334 . S
C865 H857 0.930 . S
C865 C860 1.418 . S
C865 C861 1.353 . S
C866 H836 0.930 . S
C866 N867 1.330 1_655 S
C866 C868 1.446 . S
N867 Co826 2.151 1_455 S
N867 C866 1.330 1_455 S
N867 C871 1.418 . S
C868 H847 0.929 . S
C868 C866 1.446 . S
C868 C869 1.332 1_655 S
C869 H849 0.931 . S
C869 C868 1.332 1_455 S
C869 C870 1.267 . S
C870 H838 0.929 . S
C870 C869 1.267 . S
C870 C871 1.251 . S
C871 H841 0.929 . S
C871 N867 1.418 . S
C871 C870 1.251 . S
C872 H839 0.930 . S
C872 C874 1.406 . S
C872 C877 1.261 . S
C873 H840 0.930 . S
C873 N875 1.325 . S
C873 C876 1.357 . S
C874 H842 0.928 . S
C874 C872 1.406 . S
C874 N875 1.261 . S
N875 Co826 2.214 1_455 S
N875 C873 1.325 . S
N875 C874 1.261 . S
C876 H846 0.931 . S
C876 C873 1.357 . S
C876 C877 1.312 . S
C877 H848 0.930 . S
C877 C872 1.261 . S
C877 C876 1.312 . S
C878 O850 1.214 . S
C878 O858 1.234 . S
C879 H851 0.929 . S
C879 C882 1.391 . S
C879 C884 1.391 . S
C880 H852 0.929 . S
C880 C881 1.390 . S
C880 N883 1.391 . S
C881 H853 0.930 . S
C881 C880 1.390 . S
C881 C882 1.392 . S
C882 H854 0.929 . S
C882 C879 1.391 . S
C882 C881 1.392 . S
N883 Co827 2.257 . S
N883 C880 1.391 . S
N883 C884 1.388 . S
C884 H855 0.930 . S
C884 C879 1.391 . S
C884 N883 1.388 . S
Co885 O887 2.143 . S
Co885 O893 2.074 . S
Co885 O896 2.093 . S
Co885 O909 2.097 . S
Co885 N926 2.151 . S
Co885 N934 2.214 . S
Co886 O887 2.160 . S
Co886 O892 2.058 . S
Co886 O902 2.057 . S
Co886 O917 2.037 . S
Co886 N921 2.145 . S
Co886 N942 2.257 . S
O887 Co885 2.143 . S
O887 Co886 2.160 . S
C888 O889 1.278 . S
C888 O896 1.224 . S
O889 C888 1.278 . S
C890 O891 1.245 . S
C890 O902 1.232 . S
O891 C890 1.245 . S
O892 Co886 2.058 . S
O892 C918 1.269 . S
O893 Co885 2.074 . S
O893 C918 1.257 . S
H894 C919 0.930 . S
H895 C925 0.930 . S
O896 Co885 2.093 . S
O896 C888 1.224 . S
H897 C929 0.929 . S
H898 C931 0.930 . S
H899 C932 0.930 . S
H900 C930 0.929 . S
H901 C933 0.928 . S
O902 Co886 2.057 . S
O902 C890 1.232 . S
H903 C922 0.929 . S
H904 C923 0.929 . S
H905 C935 0.931 . S
H906 C927 0.929 . S
H907 C936 0.930 . S
H908 C928 0.931 . S
O909 Co885 2.097 . S
O909 C937 1.214 . S
H910 C938 0.929 . S
H911 C939 0.929 . S
H912 C940 0.930 . S
H913 C941 0.929 . S
H914 C943 0.930 . S
H915 C920 0.930 . S
H916 C924 0.930 . S
O917 Co886 2.037 . S
O917 C937 1.234 . S
C918 O892 1.269 . S
C918 O893 1.257 . S
C919 H894 0.930 . S
C919 C922 1.388 . S
C919 C924 1.418 . S
C920 H915 0.930 . S
C920 C923 1.404 . S
C920 C924 1.353 . S
N921 Co886 2.145 . S
N921 C922 1.397 . S
N921 C923 1.334 . S
C922 H903 0.929 . S
C922 C919 1.388 . S
C922 N921 1.397 . S
C923 H904 0.929 . S
C923 C920 1.404 . S
C923 N921 1.334 . S
C924 H916 0.930 . S
C924 C919 1.418 . S
C924 C920 1.353 . S
C925 H895 0.930 . S
C925 N926 1.330 . S
C925 C927 1.446 . S
N926 Co885 2.151 . S
N926 C925 1.330 . S
N926 C930 1.418 . S
C927 H906 0.929 . S
C927 C925 1.446 . S
C927 C928 1.332 . S
C928 H908 0.931 . S
C928 C927 1.332 . S
C928 C929 1.267 . S
C929 H897 0.929 . S
C929 C928 1.267 . S
C929 C930 1.251 . S
C930 H900 0.929 . S
C930 N926 1.418 . S
C930 C929 1.251 . S
C931 H898 0.930 . S
C931 C933 1.406 . S
C931 C936 1.261 . S
C932 H899 0.930 . S
C932 N934 1.325 . S
C932 C935 1.357 . S
C933 H901 0.928 . S
C933 C931 1.406 . S
C933 N934 1.261 . S
N934 Co885 2.214 . S
N934 C932 1.325 . S
N934 C933 1.261 . S
C935 H905 0.931 . S
C935 C932 1.357 . S
C935 C936 1.312 . S
C936 H907 0.930 . S
C936 C931 1.261 . S
C936 C935 1.312 . S
C937 O909 1.214 . S
C937 O917 1.234 . S
C938 H910 0.929 . S
C938 C941 1.391 . S
C938 C943 1.391 . S
C939 H911 0.929 . S
C939 C940 1.390 . S
C939 N942 1.391 . S
C940 H912 0.930 . S
C940 C939 1.390 . S
C940 C941 1.392 . S
C941 H913 0.929 . S
C941 C938 1.391 . S
C941 C940 1.392 . S
N942 Co886 2.257 . S
N942 C939 1.391 . S
N942 C943 1.388 . S
C943 H914 0.930 . S
C943 C938 1.391 . S
C943 N942 1.388 . S
C944 C945 1.387 . S
C944 H948 0.950 . S
C944 C953 1.390 1_565 S
C945 C944 1.387 . S
C945 C947 1.387 . S
H946 C953 0.950 . S
C947 C945 1.387 . S
C947 C949 1.390 1_565 S
C947 H951 0.950 . S
H948 C944 0.950 . S
C949 C947 1.390 1_545 S
C949 C950 1.387 . S
C949 H952 0.950 . S
C950 C949 1.387 . S
C950 C953 1.387 . S
H951 C947 0.950 . S
H952 C949 0.950 . S
C953 C944 1.390 1_545 S
C953 H946 0.950 . S
C953 C950 1.387 . S
C954 C955 1.387 . S
C954 H958 0.950 . S
C954 C963 1.390 1_565 S
C955 C954 1.387 . S
C955 C957 1.387 . S
H956 C963 0.950 . S
C957 C955 1.387 . S
C957 C959 1.390 1_565 S
C957 H961 0.950 . S
H958 C954 0.950 . S
C959 C957 1.390 1_545 S
C959 C960 1.387 . S
C959 H962 0.950 . S
C960 C959 1.387 . S
C960 C963 1.387 . S
H961 C957 0.950 . S
H962 C959 0.950 . S
C963 C954 1.390 1_545 S
C963 H956 0.950 . S
C963 C960 1.387 . S
C964 C965 1.387 . S
C964 H968 0.950 . S
C964 C973 1.390 1_565 S
C965 C964 1.387 . S
C965 C967 1.387 . S
H966 C973 0.950 . S
C967 C965 1.387 . S
C967 C969 1.390 1_565 S
C967 H971 0.950 . S
H968 C964 0.950 . S
C969 C967 1.390 1_545 S
C969 C970 1.387 . S
C969 H972 0.950 . S
C970 C969 1.387 . S
C970 C973 1.387 . S
H971 C967 0.950 . S
H972 C969 0.950 . S
C973 C964 1.390 1_545 S
C973 H966 0.950 . S
C973 C970 1.387 . S
C974 C975 1.387 . S
C974 H978 0.950 . S
C974 C983 1.390 1_565 S
C975 C974 1.387 . S
C975 C977 1.387 . S
H976 C983 0.950 . S
C977 C975 1.387 . S
C977 C979 1.390 1_565 S
C977 H981 0.950 . S
H978 C974 0.950 . S
C979 C977 1.390 1_545 S
C979 C980 1.387 . S
C979 H982 0.950 . S
C980 C979 1.387 . S
C980 C983 1.387 . S
H981 C977 0.950 . S
H982 C979 0.950 . S
C983 C974 1.390 1_545 S
C983 H976 0.950 . S
C983 C980 1.387 . S
C984 C985 1.387 . S
C984 H988 0.950 . S
C984 C993 1.390 . S
C985 C984 1.387 . S
C985 C987 1.387 . S
H986 C993 0.950 . S
C987 C985 1.387 . S
C987 C989 1.390 . S
C987 H991 0.950 . S
H988 C984 0.950 . S
C989 C987 1.390 . S
C989 C990 1.387 . S
C989 H992 0.950 . S
C990 C989 1.387 . S
C990 C993 1.387 . S
H991 C987 0.950 . S
H992 C989 0.950 . S
C993 C984 1.390 . S
C993 H986 0.950 . S
C993 C990 1.387 . S
C994 C995 1.387 . S
C994 H998 0.950 . S
C994 C1003 1.390 . S
C995 C994 1.387 . S
C995 C997 1.387 . S
H996 C1003 0.950 . S
C997 C995 1.387 . S
C997 C999 1.390 . S
C997 H1001 0.950 . S
H998 C994 0.950 . S
C999 C997 1.390 . S
C999 C1000 1.387 . S
C999 H1002 0.950 . S
C1000 C999 1.387 . S
C1000 C1003 1.387 . S
H1001 C997 0.950 . S
H1002 C999 0.950 . S
C1003 C994 1.390 . S
C1003 H996 0.950 . S
C1003 C1000 1.387 . S
C1004 C1005 1.387 . S
C1004 H1008 0.950 . S
C1004 C1013 1.390 . S
C1005 C1004 1.387 . S
C1005 C1007 1.387 . S
H1006 C1013 0.950 . S
C1007 C1005 1.387 . S
C1007 C1009 1.390 . S
C1007 H1011 0.950 . S
H1008 C1004 0.950 . S
C1009 C1007 1.390 . S
C1009 C1010 1.387 . S
C1009 H1012 0.950 . S
C1010 C1009 1.387 . S
C1010 C1013 1.387 . S
H1011 C1007 0.950 . S
H1012 C1009 0.950 . S
C1013 C1004 1.390 . S
C1013 H1006 0.950 . S
C1013 C1010 1.387 . S
C1014 C1015 1.387 . S
C1014 H1018 0.950 . S
C1014 C1023 1.390 . S
C1015 C1014 1.387 . S
C1015 C1017 1.387 . S
H1016 C1023 0.950 . S
C1017 C1015 1.387 . S
C1017 C1019 1.390 . S
C1017 H1021 0.950 . S
H1018 C1014 0.950 . S
C1019 C1017 1.390 . S
C1019 C1020 1.387 . S
C1019 H1022 0.950 . S
C1020 C1019 1.387 . S
C1020 C1023 1.387 . S
H1021 C1017 0.950 . S
H1022 C1019 0.950 . S
C1023 C1014 1.390 . S
C1023 H1016 0.950 . S
C1023 C1020 1.387 . S
C1024 C1025 1.387 . S
C1024 H1028 0.938 1_545 S
C1024 C1033 1.390 1_655 S
C1025 C1024 1.387 . S
C1025 C1027 1.387 . S
H1026 C1033 0.938 1_565 S
C1027 C1025 1.387 . S
C1027 C1029 1.390 1_655 S
C1027 H1031 0.950 . S
H1028 C1024 0.938 1_565 S
C1029 C1027 1.390 1_455 S
C1029 C1030 1.387 . S
C1029 H1032 0.950 . S
C1030 C1029 1.387 . S
C1030 C1033 1.387 . S
H1031 C1027 0.950 . S
H1032 C1029 0.950 . S
C1033 C1024 1.390 1_455 S
C1033 H1026 0.938 1_545 S
C1033 C1030 1.387 . S
C1034 C1035 1.387 . S
C1034 H1038 0.938 1_565 S
C1034 C1043 1.390 . S
C1035 C1034 1.387 . S
C1035 C1037 1.387 . S
H1036 C1043 0.938 1_545 S
C1037 C1035 1.387 . S
C1037 C1039 1.390 . S
C1037 H1041 0.950 . S
H1038 C1034 0.938 1_545 S
C1039 C1037 1.390 . S
C1039 C1040 1.387 . S
C1039 H1042 0.950 . S
C1040 C1039 1.387 . S
C1040 C1043 1.387 . S
H1041 C1037 0.950 . S
H1042 C1039 0.950 . S
C1043 C1034 1.390 . S
C1043 H1036 0.938 1_565 S
C1043 C1040 1.387 . S
C1044 C1045 1.387 . S
C1044 H1048 0.938 1_565 S
C1044 C1053 1.390 1_455 S
C1045 C1044 1.387 . S
C1045 C1047 1.387 . S
H1046 C1053 0.938 1_545 S
C1047 C1045 1.387 . S
C1047 C1049 1.390 1_455 S
C1047 H1051 0.950 . S
H1048 C1044 0.938 1_545 S
C1049 C1047 1.390 1_655 S
C1049 C1050 1.387 . S
C1049 H1052 0.950 . S
C1050 C1049 1.387 . S
C1050 C1053 1.387 . S
H1051 C1047 0.950 . S
H1052 C1049 0.950 . S
C1053 C1044 1.390 1_655 S
C1053 H1046 0.938 1_565 S
C1053 C1050 1.387 . S
C1054 C1055 1.387 . S
C1054 H1058 0.950 . S
C1054 C1063 1.390 . S
C1055 C1054 1.387 . S
C1055 C1057 1.387 . S
H1056 C1063 0.950 . S
C1057 C1055 1.387 . S
C1057 C1059 1.390 . S
C1057 H1061 0.938 1_545 S
H1058 C1054 0.950 . S
C1059 C1057 1.390 . S
C1059 C1060 1.387 . S
C1059 H1062 0.938 1_545 S
C1060 C1059 1.387 . S
C1060 C1063 1.387 . S
H1061 C1057 0.938 1_565 S
H1062 C1059 0.938 1_565 S
C1063 C1054 1.390 . S
C1063 H1056 0.950 . S
C1063 C1060 1.387 . S
C1064 C1065 1.387 . S
C1064 H1068 0.950 . S
C1064 C1073 1.390 . S
C1065 C1064 1.387 . S
C1065 C1067 1.387 . S
H1066 C1073 0.950 . S
C1067 C1065 1.387 . S
C1067 C1069 1.390 . S
C1067 H1071 0.950 . S
H1068 C1064 0.950 . S
C1069 C1067 1.390 . S
C1069 C1070 1.387 . S
C1069 H1072 0.950 . S
C1070 C1069 1.387 . S
C1070 C1073 1.387 . S
H1071 C1067 0.950 . S
H1072 C1069 0.950 . S
C1073 C1064 1.390 . S
C1073 H1066 0.950 . S
C1073 C1070 1.387 . S
C1074 C1075 1.387 . S
C1074 H1078 0.950 . S
C1074 C1083 1.390 1_455 S
C1075 C1074 1.387 . S
C1075 C1077 1.387 . S
H1076 C1083 0.950 . S
C1077 C1075 1.387 . S
C1077 C1079 1.390 1_455 S
C1077 H1081 0.950 . S
H1078 C1074 0.950 . S
C1079 C1077 1.390 1_655 S
C1079 C1080 1.387 . S
C1079 H1082 0.950 . S
C1080 C1079 1.387 . S
C1080 C1083 1.387 . S
H1081 C1077 0.950 . S
H1082 C1079 0.950 . S
C1083 C1074 1.390 1_655 S
C1083 H1076 0.950 . S
C1083 C1080 1.387 . S
C1084 C1085 1.387 . S
C1084 H1088 0.950 . S
C1084 C1093 1.390 . S
C1085 C1084 1.387 . S
C1085 C1087 1.387 . S
H1086 C1093 0.950 . S
C1087 C1085 1.387 . S
C1087 C1089 1.390 . S
C1087 H1091 0.950 . S
H1088 C1084 0.950 . S
C1089 C1087 1.390 . S
C1089 C1090 1.387 . S
C1089 H1092 0.950 . S
C1090 C1089 1.387 . S
C1090 C1093 1.387 . S
H1091 C1087 0.950 . S
H1092 C1089 0.950 . S
C1093 C1084 1.390 . S
C1093 H1086 0.950 . S
C1093 C1090 1.387 . S
C1094 C1095 1.387 . S
C1094 H1098 0.950 . S
C1094 C1103 1.390 1_455 S
C1095 C1094 1.387 . S
C1095 C1097 1.387 . S
H1096 C1103 0.950 . S
C1097 C1095 1.387 . S
C1097 C1099 1.390 1_455 S
C1097 H1101 0.950 . S
H1098 C1094 0.950 . S
C1099 C1097 1.390 1_655 S
C1099 C1100 1.387 . S
C1099 H1102 0.950 . S
C1100 C1099 1.387 . S
C1100 C1103 1.387 . S
H1101 C1097 0.950 . S
H1102 C1099 0.950 . S
C1103 C1094 1.390 1_655 S
C1103 H1096 0.950 . S
C1103 C1100 1.387 . S
C1104 C1105 1.387 . S
C1104 H1108 0.950 . S
C1104 C1113 1.390 1_455 S
C1105 C1104 1.387 . S
C1105 C1107 1.387 . S
H1106 C1113 0.950 . S
C1107 C1105 1.387 . S
C1107 C1109 1.390 1_455 S
C1107 H1111 0.950 . S
H1108 C1104 0.950 . S
C1109 C1107 1.390 1_655 S
C1109 C1110 1.387 . S
C1109 H1112 0.950 . S
C1110 C1109 1.387 . S
C1110 C1113 1.387 . S
H1111 C1107 0.950 . S
H1112 C1109 0.950 . S
C1113 C1104 1.390 1_655 S
C1113 H1106 0.950 . S
C1113 C1110 1.387 . S
C1114 C1115 1.387 . S
C1114 H1118 0.950 . S
C1114 C1123 1.390 . S
C1115 C1114 1.387 . S
C1115 C1117 1.387 . S
H1116 C1123 0.950 . S
C1117 C1115 1.387 . S
C1117 C1119 1.390 . S
C1117 H1121 0.950 . S
H1118 C1114 0.950 . S
C1119 C1117 1.390 . S
C1119 C1120 1.387 . S
C1119 H1122 0.950 . S
C1120 C1119 1.387 . S
C1120 C1123 1.387 . S
H1121 C1117 0.950 . S
H1122 C1119 0.950 . S
C1123 C1114 1.390 . S
C1123 H1116 0.950 . S
C1123 C1120 1.387 . S
C1124 C1125 1.387 . S
C1124 H1128 0.950 . S
C1124 C1133 1.390 . S
C1125 C1124 1.387 . S
C1125 C1127 1.387 . S
H1126 C1133 0.950 . S
C1127 C1125 1.387 . S
C1127 C1129 1.390 . S
C1127 H1131 0.950 . S
H1128 C1124 0.950 . S
C1129 C1127 1.390 . S
C1129 C1130 1.387 . S
C1129 H1132 0.950 . S
C1130 C1129 1.387 . S
C1130 C1133 1.387 . S
H1131 C1127 0.950 . S
H1132 C1129 0.950 . S
C1133 C1124 1.390 . S
C1133 H1126 0.950 . S
C1133 C1130 1.387 . S
C1134 C1135 1.387 . S
C1134 H1138 0.950 . S
C1134 C1143 1.390 1_455 S
C1135 C1134 1.387 . S
C1135 C1137 1.387 . S
H1136 C1143 0.950 . S
C1137 C1135 1.387 . S
C1137 C1139 1.390 1_455 S
C1137 H1141 0.950 . S
H1138 C1134 0.950 . S
C1139 C1137 1.390 1_655 S
C1139 C1140 1.387 . S
C1139 H1142 0.950 . S
C1140 C1139 1.387 . S
C1140 C1143 1.387 . S
H1141 C1137 0.950 . S
H1142 C1139 0.950 . S
C1143 C1134 1.390 1_655 S
C1143 H1136 0.950 . S
C1143 C1140 1.387 . S
C1144 C1145 1.387 . S
C1144 H1148 0.950 . S
C1144 C1153 1.390 1_455 S
C1145 C1144 1.387 . S
C1145 C1147 1.387 . S
H1146 C1153 0.950 . S
C1147 C1145 1.387 . S
C1147 C1149 1.390 1_455 S
C1147 H1151 0.950 . S
H1148 C1144 0.950 . S
C1149 C1147 1.390 1_655 S
C1149 C1150 1.387 . S
C1149 H1152 0.950 . S
C1150 C1149 1.387 . S
C1150 C1153 1.387 . S
H1151 C1147 0.950 . S
H1152 C1149 0.950 . S
C1153 C1144 1.390 1_655 S
C1153 H1146 0.950 . S
C1153 C1150 1.387 . S
C1154 C1155 1.387 . S
C1154 H1158 0.950 . S
C1154 C1163 1.390 . S
C1155 C1154 1.387 . S
C1155 C1157 1.387 . S
H1156 C1163 0.950 . S
C1157 C1155 1.387 . S
C1157 C1159 1.390 . S
C1157 H1161 0.950 . S
H1158 C1154 0.950 . S
C1159 C1157 1.390 . S
C1159 C1160 1.387 . S
C1159 H1162 0.950 . S
C1160 C1159 1.387 . S
C1160 C1163 1.387 . S
H1161 C1157 0.950 . S
H1162 C1159 0.950 . S
C1163 C1154 1.390 . S
C1163 H1156 0.950 . S
C1163 C1160 1.387 . S
C1164 C1165 1.387 . S
C1164 H1168 0.950 . S
C1164 C1173 1.390 . S
C1165 C1164 1.387 . S
C1165 C1167 1.387 . S
H1166 C1173 0.950 . S
C1167 C1165 1.387 . S
C1167 C1169 1.390 . S
C1167 H1171 0.950 . S
H1168 C1164 0.950 . S
C1169 C1167 1.390 . S
C1169 C1170 1.387 . S
C1169 H1172 0.950 . S
C1170 C1169 1.387 . S
C1170 C1173 1.387 . S
H1171 C1167 0.950 . S
H1172 C1169 0.950 . S
C1173 C1164 1.390 . S
C1173 H1166 0.950 . S
C1173 C1170 1.387 . S
C1174 C1175 1.387 . S
C1174 H1178 0.950 . S
C1174 C1183 1.390 1_455 S
C1175 C1174 1.387 . S
C1175 C1177 1.387 . S
H1176 C1183 0.950 . S
C1177 C1175 1.387 . S
C1177 C1179 1.390 1_455 S
C1177 H1181 0.950 . S
H1178 C1174 0.950 . S
C1179 C1177 1.390 1_655 S
C1179 C1180 1.387 . S
C1179 H1182 0.950 . S
C1180 C1179 1.387 . S
C1180 C1183 1.387 . S
H1181 C1177 0.950 . S
H1182 C1179 0.950 . S
C1183 C1174 1.390 1_655 S
C1183 H1176 0.950 . S
C1183 C1180 1.387 . S
C1184 C1185 1.387 . S
C1184 H1188 0.950 . S
C1184 C1193 1.390 1_556 S
C1185 C1184 1.387 . S
C1185 C1187 1.387 1_665 S
H1186 C1193 0.950 . S
C1187 C1185 1.387 1_445 S
C1187 C1189 1.390 1_556 S
C1187 H1191 0.950 . S
H1188 C1184 0.950 . S
C1189 C1187 1.390 1_554 S
C1189 C1190 1.387 . S
C1189 H1192 0.950 . S
C1190 C1189 1.387 . S
C1190 C1193 1.387 1_445 S
H1191 C1187 0.950 . S
H1192 C1189 0.950 . S
C1193 C1184 1.390 1_554 S
C1193 H1186 0.950 . S
C1193 C1190 1.387 1_665 S
C1194 C1195 1.387 1_565 S
C1194 H1198 0.950 . S
C1194 C1203 1.390 1_556 S
C1195 C1194 1.387 1_545 S
C1195 C1197 1.387 . S
H1196 C1203 0.950 . S
C1197 C1195 1.387 . S
C1197 C1199 1.390 1_556 S
C1197 H1201 0.950 . S
H1198 C1194 0.950 . S
C1199 C1197 1.390 1_554 S
C1199 C1200 1.387 1_545 S
C1199 H1202 0.950 . S
C1200 C1199 1.387 1_565 S
C1200 C1203 1.387 . S
H1201 C1197 0.950 . S
H1202 C1199 0.950 . S
C1203 C1194 1.390 1_554 S
C1203 H1196 0.950 . S
C1203 C1200 1.387 . S
C1204 C1205 1.387 1_565 S
C1204 H1208 0.950 . S
C1204 C1213 1.390 . S
C1205 C1204 1.387 1_545 S
C1205 C1207 1.387 . S
H1206 C1213 0.950 . S
C1207 C1205 1.387 . S
C1207 C1209 1.390 . S
C1207 H1211 0.950 . S
H1208 C1204 0.950 . S
C1209 C1207 1.390 . S
C1209 C1210 1.387 1_545 S
C1209 H1212 0.950 . S
C1210 C1209 1.387 1_565 S
C1210 C1213 1.387 . S
H1211 C1207 0.950 . S
H1212 C1209 0.950 . S
C1213 C1204 1.390 . S
C1213 H1206 0.950 . S
C1213 C1210 1.387 . S
C1214 C1215 1.387 1_655 S
C1214 H1218 0.950 . S
C1214 C1223 1.390 . S
C1215 C1214 1.387 1_455 S
C1215 C1217 1.387 1_565 S
H1216 C1223 0.950 . S
C1217 C1215 1.387 1_545 S
C1217 C1219 1.390 . S
C1217 H1221 0.950 . S
H1218 C1214 0.950 . S
C1219 C1217 1.390 . S
C1219 C1220 1.387 1_455 S
C1219 H1222 0.950 . S
C1220 C1219 1.387 1_655 S
C1220 C1223 1.387 1_545 S
H1221 C1217 0.950 . S
H1222 C1219 0.950 . S
C1223 C1214 1.390 . S
C1223 H1216 0.950 . S
C1223 C1220 1.387 1_565 S
C1224 C1225 1.387 . S
C1224 H1228 0.950 . S
C1224 C1233 1.390 1_554 S
C1225 C1224 1.387 . S
C1225 C1227 1.387 . S
H1226 C1233 0.950 . S
C1227 C1225 1.387 . S
C1227 C1229 1.390 1_554 S
C1227 H1231 0.950 . S
H1228 C1224 0.950 . S
C1229 C1227 1.390 1_556 S
C1229 C1230 1.387 . S
C1229 H1232 0.950 . S
C1230 C1229 1.387 . S
C1230 C1233 1.387 . S
H1231 C1227 0.950 . S
H1232 C1229 0.950 . S
C1233 C1224 1.390 1_556 S
C1233 H1226 0.950 . S
C1233 C1230 1.387 . S
C1234 C1235 1.387 . S
C1234 H1238 0.950 . S
C1234 C1243 1.390 1_554 S
C1235 C1234 1.387 . S
C1235 C1237 1.387 1_655 S
H1236 C1243 0.950 . S
C1237 C1235 1.387 1_455 S
C1237 C1239 1.390 1_554 S
C1237 H1241 0.950 . S
H1238 C1234 0.950 . S
C1239 C1237 1.390 1_556 S
C1239 C1240 1.387 . S
C1239 H1242 0.950 . S
C1240 C1239 1.387 . S
C1240 C1243 1.387 1_455 S
H1241 C1237 0.950 . S
H1242 C1239 0.950 . S
C1243 C1234 1.390 1_556 S
C1243 H1236 0.950 . S
C1243 C1240 1.387 1_655 S
C1244 C1245 1.387 . S
C1244 H1248 0.950 . S
C1244 C1253 1.390 . S
C1245 C1244 1.387 . S
C1245 C1247 1.387 1_655 S
H1246 C1253 0.950 . S
C1247 C1245 1.387 1_455 S
C1247 C1249 1.390 . S
C1247 H1251 0.950 . S
H1248 C1244 0.950 . S
C1249 C1247 1.390 . S
C1249 C1250 1.387 . S
C1249 H1252 0.950 . S
C1250 C1249 1.387 . S
C1250 C1253 1.387 1_455 S
H1251 C1247 0.950 . S
H1252 C1249 0.950 . S
C1253 C1244 1.390 . S
C1253 H1246 0.950 . S
C1253 C1250 1.387 1_655 S
C1254 C1255 1.387 . S
C1254 H1258 0.950 . S
C1254 C1263 1.390 . S
C1255 C1254 1.387 . S
C1255 C1257 1.387 . S
H1256 C1263 0.950 . S
C1257 C1255 1.387 . S
C1257 C1259 1.390 . S
C1257 H1261 0.950 . S
H1258 C1254 0.950 . S
C1259 C1257 1.390 . S
C1259 C1260 1.387 . S
C1259 H1262 0.950 . S
C1260 C1259 1.387 . S
C1260 C1263 1.387 . S
H1261 C1257 0.950 . S
H1262 C1259 0.950 . S
C1263 C1254 1.390 . S
C1263 H1256 0.950 . S
C1263 C1260 1.387 . S
C945 C64 1.565 . S
C950 C5 1.565 . S
C955 C123 1.565 . S
C960 C182 1.565 . S
C965 C241 1.565 . S
C970 C300 1.565 . S
C975 C418 1.564 . S
C980 C359 1.564 . S
C985 C536 1.564 . S
C990 C477 1.564 . S
C995 C654 1.565 . S
C1000 C595 1.565 . S
C1005 C772 1.565 . S
C1010 C713 1.565 . S
C1015 C890 1.565 . S
C1020 C831 1.565 . S
C1025 C210 1.561 . S
C1030 C33 1.561 . S
C1035 C92 1.561 . S
C1040 C151 1.561 . S
C1045 C446 1.562 . S
C1050 C269 1.562 . S
C1055 C387 1.561 . S
C1060 C328 1.561 . S
C1065 C505 1.562 . S
C1070 C682 1.562 . S
C1075 C623 1.562 . S
C1080 C564 1.562 . S
C1085 C918 1.562 . S
C1090 C741 1.562 . S
C1095 C800 1.562 . S
C1100 C859 1.562 . S
C1105 C52 1.570 . S
C1110 C583 1.570 . S
C1115 C111 1.571 . S
C1120 C524 1.571 . S
C1125 C701 1.571 . S
C1130 C170 1.571 . S
C1135 C642 1.571 . S
C1140 C229 1.571 . S
C1145 C819 1.570 . S
C1150 C288 1.570 . S
C1155 C760 1.570 . S
C1160 C347 1.570 . S
C1165 C406 1.571 . S
C1170 C937 1.571 . S
C1175 C465 1.571 . S
C1180 C878 1.571 . S
C1185 C239 1.531 . S
C1190 C3 1.531 . S
C1195 C298 1.530 . S
C1200 C62 1.530 . S
C1205 C357 1.530 . S
C1210 C121 1.530 . S
C1215 C416 1.531 . S
C1220 C180 1.531 . S
C1225 C475 1.530 . S
C1230 C711 1.530 . S
C1235 C534 1.531 . S
C1240 C770 1.531 . S
C1245 C829 1.531 . S
C1250 C593 1.531 . S
C1255 C888 1.530 . S
C1260 C652 1.530 . S
