# Generated by pormake.
# Topology tfs, (6)-cn, num edge types: 1
# Building blocks:
#     Node 0, Type 0, BuildingBlock: BETFAJ_clean_sbu_0, # of connection points: 6
#     Node 1, Type 0, BuildingBlock: BETFAJ_clean_sbu_0, # of connection points: 6
#     Node 2, Type 0, BuildingBlock: BETFAJ_clean_sbu_0, # of connection points: 6
#     Node 3, Type 0, BuildingBlock: BETFAJ_clean_sbu_0, # of connection points: 6
#     Node 4, Type 0, BuildingBlock: BETFAJ_clean_sbu_0, # of connection points: 6
#     Node 5, Type 0, BuildingBlock: BETFAJ_clean_sbu_0, # of connection points: 6
#     Edge 6, Type (0, 0), BuildingBlock: XUDNAN_clean_linker_2, # of connection points: 2
#     Edge 7, Type (0, 0), BuildingBlock: XUDNAN_clean_linker_2, # of connection points: 2
#     Edge 8, Type (0, 0), BuildingBlock: XUDNAN_clean_linker_2, # of connection points: 2
#     Edge 9, Type (0, 0), BuildingBlock: XUDNAN_clean_linker_2, # of connection points: 2
#     Edge 10, Type (0, 0), BuildingBlock: XUDNAN_clean_linker_2, # of connection points: 2
#     Edge 11, Type (0, 0), BuildingBlock: XUDNAN_clean_linker_2, # of connection points: 2
#     Edge 12, Type (0, 0), BuildingBlock: XUDNAN_clean_linker_2, # of connection points: 2
#     Edge 13, Type (0, 0), BuildingBlock: XUDNAN_clean_linker_2, # of connection points: 2
#     Edge 14, Type (0, 0), BuildingBlock: XUDNAN_clean_linker_2, # of connection points: 2
#     Edge 15, Type (0, 0), BuildingBlock: XUDNAN_clean_linker_2, # of connection points: 2
#     Edge 16, Type (0, 0), BuildingBlock: XUDNAN_clean_linker_2, # of connection points: 2
#     Edge 17, Type (0, 0), BuildingBlock: XUDNAN_clean_linker_2, # of connection points: 2
#     Edge 18, Type (0, 0), BuildingBlock: XUDNAN_clean_linker_2, # of connection points: 2
#     Edge 19, Type (0, 0), BuildingBlock: XUDNAN_clean_linker_2, # of connection points: 2
#     Edge 20, Type (0, 0), BuildingBlock: XUDNAN_clean_linker_2, # of connection points: 2
#     Edge 21, Type (0, 0), BuildingBlock: XUDNAN_clean_linker_2, # of connection points: 2
#     Edge 22, Type (0, 0), BuildingBlock: XUDNAN_clean_linker_2, # of connection points: 2
#     Edge 23, Type (0, 0), BuildingBlock: XUDNAN_clean_linker_2, # of connection points: 2
# Relax obj value: 0.560
# Max RMSD: 0.461
# Mean RMSD: 0.361
data_MOF--net-tfs--node1-BETFAJ_clean_sbu_0--edge1-XUDNAN_clean_linker_2
_symmetry_space_group_name_H-M    P1
_symmetry_Int_Tables_number       1
_symmetry_cell_setting            triclinic
loop_
_symmetry_equiv_pos_as_xyz
'x, y, z'
_cell_length_a     54.212626
_cell_length_b     50.924128
_cell_length_c     12.676117
_cell_angle_alpha  98.654892
_cell_angle_beta   92.073806
_cell_angle_gamma 127.15897
loop_
_atom_site_label
_atom_site_type_symbol
_atom_site_fract_x
_atom_site_fract_y
_atom_site_fract_z
_atom_type_partial_charge
Sm0 Sm 0.34981 0.46737 0.67063 0.0
Sm1 Sm 0.33379 0.51659 0.73483 0.0
C2 C 0.37156 0.43215 0.64811 0.0
C3 C 0.36947 0.40216 0.59788 0.0
C4 C 0.35652 0.37444 0.64729 0.0
C5 C 0.35867 0.34861 0.60886 0.0
C6 C 0.37398 0.34968 0.51991 0.0
C7 C 0.38644 0.3772 0.46945 0.0
C8 C 0.38433 0.40304 0.50802 0.0
C9 C 0.32682 0.48021 0.51006 0.0
C10 C 0.27523 0.43594 0.65583 0.0
C11 C 0.32506 0.56238 0.78073 0.0
C12 C 0.32011 0.58814 0.80639 0.0
C13 C 0.3019 0.58979 0.73011 0.0
C14 C 0.29449 0.61167 0.75711 0.0
C15 C 0.30529 0.63264 0.86081 0.0
C16 C 0.32459 0.63205 0.93592 0.0
C17 C 0.33179 0.60988 0.90918 0.0
C18 C 0.32874 0.48019 0.88192 0.0
C19 C 0.40787 0.55038 0.72625 0.0
O20 O 0.35415 0.42985 0.72134 0.0
O21 O 0.37748 0.45386 0.58938 0.0
O22 O 0.34707 0.5016 0.5896 0.0
O23 O 0.31988 0.45074 0.50579 0.0
O24 O 0.29586 0.43031 0.67594 0.0
O25 O 0.28457 0.46687 0.65668 0.0
O26 O 0.31495 0.54219 0.68492 0.0
O27 O 0.34032 0.55852 0.85142 0.0
O28 O 0.35151 0.49509 0.83125 0.0
O29 O 0.30797 0.48361 0.85162 0.0
O30 O 0.38726 0.55587 0.74222 0.0
O31 O 0.39938 0.51942 0.70176 0.0
H32 H 0.34549 0.37315 0.71795 0.0
H33 H 0.34917 0.32833 0.65159 0.0
H34 H 0.39802 0.37897 0.40003 0.0
H35 H 0.3951 0.42421 0.46876 0.0
H36 H 0.29264 0.57351 0.65019 0.0
H37 H 0.27989 0.61186 0.6971 0.0
H38 H 0.3331 0.64779 0.0166 0.0
H39 H 0.34586 0.60918 0.96989 0.0
Sm40 Sm 0.87965 0.18247 0.33868 0.0
Sm41 Sm 0.80459 0.15012 0.26007 0.0
C42 C 0.94023 0.21769 0.41501 0.0
C43 C 0.97501 0.2387 0.44994 0.0
C44 C 0.98782 0.23806 0.54702 0.0
C45 C 1.02054 0.257 0.57584 0.0
C46 C 0.04152 0.27728 0.50865 0.0
C47 C 0.02856 0.27821 0.41229 0.0
C48 C 0.99594 0.25922 0.3834 0.0
C49 C 0.85319 0.14355 0.13032 0.0
C50 C 0.82212 0.10866 0.38938 0.0
C51 C 0.74662 0.1226 0.16678 0.0
C52 C 0.72225 0.12798 0.16359 0.0
C53 C 0.72578 0.15254 0.1126 0.0
C54 C 0.70158 0.15517 0.09898 0.0
C55 C 0.67279 0.13321 0.13499 0.0
C56 C 0.66961 0.10936 0.18942 0.0
C57 C 0.69394 0.10669 0.20301 0.0
C58 C 0.83162 0.19534 0.4597 0.0
C59 C 0.86186 0.22185 0.20784 0.0
O60 O 0.91853 0.19971 0.47337 0.0
O61 O 0.9293 0.21656 0.31945 0.0
O62 O 0.83879 0.14097 0.20889 0.0
O63 O 0.88271 0.16183 0.16905 0.0
O64 O 0.8522 0.13583 0.41498 0.0
O65 O 0.80101 0.10694 0.32374 0.0
O66 O 0.77197 0.14284 0.12614 0.0
O67 O 0.7524 0.11443 0.25253 0.0
O68 O 0.84496 0.19025 0.38988 0.0
O69 O 0.80251 0.17805 0.41678 0.0
O70 O 0.83291 0.19386 0.17333 0.0
O71 O 0.88108 0.22489 0.28567 0.0
H72 H 0.97255 0.22266 0.60034 0.0
H73 H 0.02939 0.25582 0.65147 0.0
H74 H 0.04358 0.29299 0.35739 0.0
H75 H 0.98711 0.26043 0.30773 0.0
H76 H 0.74707 0.16945 0.08085 0.0
H77 H 0.70545 0.17441 0.05886 0.0
H78 H 0.6479 0.09186 0.21803 0.0
H79 H 0.69023 0.08729 0.24191 0.0
Sm80 Sm 0.68731 0.82501 0.68637 0.0
Sm81 Sm 0.65196 0.85173 0.78801 0.0
C82 C 0.70852 0.79471 0.58709 0.0
C83 C 0.73886 0.80163 0.57972 0.0
C84 C 0.74637 0.79735 0.47734 0.0
C85 C 0.77415 0.80192 0.46713 0.0
C86 C 0.79496 0.8107 0.55935 0.0
C87 C 0.78789 0.81599 0.66226 0.0
C88 C 0.76009 0.81164 0.67244 0.0
C89 C 0.7056 0.85503 0.90015 0.0
C90 C 0.7184 0.90297 0.69024 0.0
C91 C 0.64432 0.88791 0.93343 0.0
C92 C 0.62867 0.89744 0.00231 0.0
C93 C 0.61038 0.87813 0.07557 0.0
C94 C 0.59527 0.88769 0.13809 0.0
C95 C 0.59886 0.9169 0.12929 0.0
C96 C 0.61876 0.93729 0.06155 0.0
C97 C 0.63361 0.92763 -0.00147 0.0
C98 C 0.63539 0.82717 0.56959 0.0
C99 C 0.61295 0.7709 0.73298 0.0
O100 O 0.70369 0.81319 0.54303 0.0
O101 O 0.69803 0.78918 0.67905 0.0
O102 O 0.67821 0.83512 0.84957 0.0
O103 O 0.72564 0.85781 0.84026 0.0
O104 O 0.71605 0.87674 0.63908 0.0
O105 O 0.70014 0.9 0.76249 0.0
O106 O 0.64563 0.86427 0.95316 0.0
O107 O 0.64457 0.89039 0.83194 0.0
O108 O 0.66185 0.84261 0.62528 0.0
O109 O 0.61666 0.82837 0.62884 0.0
O110 O 0.61443 0.79585 0.7912 0.0
O111 O 0.63571 0.77665 0.67817 0.0
H112 H 0.7303 0.78955 0.40496 0.0
H113 H 0.77852 0.79692 0.3867 0.0
H114 H 0.80351 0.82278 0.73465 0.0
H115 H 0.75496 0.81544 0.75259 0.0
H116 H 0.6069 0.85516 0.08191 0.0
H117 H 0.5794 0.87137 0.18846 0.0
H118 H 0.62108 0.95944 0.05187 0.0
H119 H 0.64823 0.94325 0.94435 0.0
Sm120 Sm 0.85372 0.55658 0.11685 0.0
Sm121 Sm 0.87598 0.52008 0.98407 0.0
C122 C 0.84152 0.58854 0.26239 0.0
C123 C 0.85105 0.62302 0.29229 0.0
C124 C 0.87064 0.64437 0.39106 0.0
C125 C 0.87851 0.67636 0.42293 0.0
C126 C 0.86739 0.68782 0.35572 0.0
C127 C 0.8488 0.66705 0.25518 0.0
C128 C 0.84058 0.6349 0.22389 0.0
C129 C 0.87853 0.5811 0.93755 0.0
C130 C 0.92512 0.58269 0.17731 0.0
C131 C 0.88793 0.48491 0.85387 0.0
C132 C 0.89155 0.45974 0.87766 0.0
C133 C 0.87384 0.42729 0.81066 0.0
C134 C 0.87437 0.40213 0.8401 0.0
C135 C 0.89279 0.40909 0.93684 0.0
C136 C 0.91042 0.44158 0.00358 0.0
C137 C 0.90974 0.46654 0.97461 0.0
C138 C 0.85667 0.49953 0.17404 0.0
C139 C 0.80677 0.4966 0.91783 0.0
O140 O 0.86328 0.58535 0.28289 0.0
O141 O 0.82312 0.56961 0.16989 0.0
O142 O 0.88794 0.57137 0.0013 0.0
O143 O 0.85585 0.58027 0.97113 0.0
O144 O 0.90023 0.57654 0.21549 0.0
O145 O 0.92314 0.56823 0.07816 0.0
O146 O 0.85968 0.47596 0.85366 0.0
O147 O 0.90983 0.51644 0.90317 0.0
O148 O 0.8442 0.50693 0.11151 0.0
O149 O 0.87675 0.49811 0.12732 0.0
O150 O 0.83224 0.50501 0.87859 0.0
O151 O 0.8082 0.50832 0.02007 0.0
H152 H 0.87968 0.6363 0.44442 0.0
H153 H 0.89297 0.69202 0.50067 0.0
H154 H 0.83957 0.67515 0.20253 0.0
H155 H 0.82564 0.61923 0.1469 0.0
H156 H 0.85911 0.42123 0.73666 0.0
H157 H 0.86057 0.37734 0.78701 0.0
H158 H 0.92432 0.44759 0.07973 0.0
H159 H 0.92294 0.49096 0.0297 0.0
Sm160 Sm 0.22921 0.8232 0.93677 0.0
Sm161 Sm 0.29952 0.86872 0.89283 0.0
C162 C 0.17286 0.79447 -0.01196 0.0
C163 C 0.14626 0.78544 0.9139 0.0
C164 C 0.11557 0.76561 0.9356 0.0
C165 C 0.09058 0.75368 0.85498 0.0
C166 C 0.09598 0.76027 0.75021 0.0
C167 C 0.12724 0.78218 0.73295 0.0
C168 C 0.1519 0.79507 0.8144 0.0
C169 C 0.23775 0.8039 0.73468 0.0
C170 C 0.25223 0.88154 0.80038 0.0
C171 C 0.35804 0.90764 0.85999 0.0
C172 C 0.38579 0.92258 0.94016 0.0
C173 C 0.38235 0.90805 0.02984 0.0
C174 C 0.40855 0.91902 0.10057 0.0
C175 C 0.43857 0.94434 0.08173 0.0
C176 C 0.44204 0.96065 -0.00308 0.0
C177 C 0.41564 0.9499 0.92652 0.0
C178 C 0.29122 0.88664 0.09483 0.0
C179 C 0.27449 0.80393 0.00175 0.0
O180 O 0.19544 0.82693 0.018 0.0
O181 O 0.18314 0.77742 0.95728 0.0
O182 O 0.25607 0.81586 0.82218 0.0
O183 O 0.21236 0.7996 0.75334 0.0
O184 O 0.23439 0.86574 0.87153 0.0
O185 O 0.27566 0.88115 0.77897 0.0
O186 O 0.34009 0.87473 0.83087 0.0
O187 O 0.34228 0.91909 0.88041 0.0
O188 O 0.27244 0.87569 0.00942 0.0
O189 O 0.31572 0.88952 0.07416 0.0
O190 O 0.29437 0.82405 0.9414 0.0
O191 O 0.25121 0.80424 0.02915 0.0
H192 H 0.11086 0.75858 0.01314 0.0
H193 H 0.0671 0.73825 0.87418 0.0
H194 H 0.13321 0.78805 0.65494 0.0
H195 H 0.17551 0.81137 0.79735 0.0
H196 H 0.35956 0.88659 0.04113 0.0
H197 H 0.40549 0.9054 0.16322 0.0
H198 H 0.46518 0.97963 0.97976 0.0
H199 H 0.41866 0.96151 0.85822 0.0
Sm200 Sm 0.44305 0.1457 0.19702 0.0
Sm201 Sm 0.48627 0.21011 0.1121 0.0
C202 C 0.40554 0.09792 0.30032 0.0
C203 C 0.37361 0.07865 0.32653 0.0
C204 C 0.3618 0.0946 0.37686 0.0
C205 C 0.33353 0.0758 0.41724 0.0
C206 C 0.3168 0.04088 0.40807 0.0
C207 C 0.32771 0.02488 0.35011 0.0
C208 C 0.35579 0.0436 0.30993 0.0
C209 C 0.42593 0.14268 0.98587 0.0
C210 C 0.43315 0.20547 0.23378 0.0
C211 C 0.51483 0.24925 0.97417 0.0
C212 C 0.54347 0.26475 0.92566 0.0
C213 C 0.54154 0.26275 0.81354 0.0
C214 C 0.56885 0.28147 0.76816 0.0
C215 C 0.59813 0.30237 0.83506 0.0
C216 C 0.60005 0.30239 0.94573 0.0
C217 C 0.5729 0.28356 -0.00922 0.0
C218 C 0.50226 0.21656 0.32777 0.0
C219 C 0.50444 0.15794 0.11295 0.0
O220 O 0.42518 0.12994 0.34716 0.0
O221 O 0.40847 0.09135 0.19979 0.0
O222 O 0.43552 0.16594 0.06602 0.0
O223 O 0.42549 0.11903 0.01465 0.0
O224 O 0.42748 0.17849 0.26315 0.0
O225 O 0.45191 0.21972 0.16282 0.0
O226 O 0.49397 0.21644 0.94419 0.0
O227 O 0.51802 0.26095 0.0774 0.0
O228 O 0.4927 0.1918 0.25254 0.0
O229 O 0.50793 0.24143 0.28724 0.0
O230 O 0.50668 0.18115 0.06841 0.0
O231 O 0.48417 0.14329 0.18005 0.0
H232 H 0.37505 0.1217 0.38954 0.0
H233 H 0.32565 0.08881 0.46052 0.0
H234 H 0.316 0.99821 0.34288 0.0
H235 H 0.3645 0.03086 0.27127 0.0
H236 H 0.51895 0.24801 0.76206 0.0
H237 H 0.56705 0.28134 0.68265 0.0
H238 H 0.62258 0.3185 -0.00169 0.0
H239 H 0.57497 0.28505 0.07718 0.0
H240 H 0.45656 0.27167 0.26424 0.0
H241 H 0.37787 0.17457 0.31663 0.0
H242 H 0.35394 0.2005 0.39369 0.0
H243 H 0.46027 0.32031 0.5153 0.0
H244 H 0.47206 0.35575 0.4572 0.0
H245 H 0.48244 0.32926 0.40525 0.0
H246 H 0.45589 0.31869 0.21326 0.0
H247 H 0.44523 0.34493 0.26462 0.0
H248 H 0.41542 0.30212 0.19152 0.0
H249 H 0.33763 0.23724 0.45813 0.0
H250 H 0.33197 0.28151 0.51648 0.0
H251 H 0.42338 0.35572 0.43412 0.0
C252 C 0.43418 0.25577 0.29134 0.0
C253 C 0.41882 0.22087 0.28271 0.0
C254 C 0.38998 0.20124 0.32172 0.0
C255 C 0.37621 0.21579 0.36547 0.0
C256 C 0.39184 0.25022 0.37183 0.0
C257 C 0.42046 0.27004 0.33728 0.0
C258 C 0.43309 0.30664 0.3569 0.0
C259 C 0.46378 0.32933 0.43851 0.0
C260 C 0.43766 0.3188 0.2502 0.0
C261 C 0.40667 0.30424 0.40479 0.0
C262 C 0.38312 0.27149 0.41286 0.0
C263 C 0.35615 0.26301 0.45329 0.0
C264 C 0.35325 0.28854 0.48704 0.0
C265 C 0.37723 0.32254 0.48125 0.0
C266 C 0.40429 0.33016 0.43901 0.0
H267 H 0.22629 0.43279 0.56139 0.0
H268 H 0.24564 0.37423 0.70926 0.0
H269 H 0.18873 0.32779 0.68656 0.0
H270 H 0.15737 0.40745 0.67557 0.0
H271 H 0.13678 0.40514 0.55528 0.0
H272 H 0.17901 0.43362 0.58187 0.0
H273 H 0.18057 0.40623 0.39552 0.0
H274 H 0.13832 0.37764 0.36834 0.0
H275 H 0.16002 0.36132 0.36153 0.0
H276 H 0.12918 0.288 0.65276 0.0
H277 H 0.0723 0.25731 0.60493 0.0
H278 H 0.09071 0.34088 0.47609 0.0
C279 C 0.21858 0.41016 0.58882 0.0
C280 C 0.24072 0.40732 0.6373 0.0
C281 C 0.22941 0.3771 0.67125 0.0
C282 C 0.19701 0.35055 0.65899 0.0
C283 C 0.17589 0.3542 0.61137 0.0
C284 C 0.18622 0.38315 0.57594 0.0
C285 C 0.15854 0.38044 0.52631 0.0
C286 C 0.1579 0.40832 0.5885 0.0
C287 C 0.15942 0.38146 0.40578 0.0
C288 C 0.131 0.34574 0.54138 0.0
C289 C 0.1416 0.33107 0.59052 0.0
C290 C 0.12069 0.29933 0.61431 0.0
C291 C 0.08824 0.28214 0.58752 0.0
C292 C 0.0765 0.29646 0.53716 0.0
C293 C 0.09853 0.32882 0.5136 0.0
H294 H 0.76688 0.04148 0.33605 0.0
H295 H 0.85617 0.10782 0.55056 0.0
H296 H 0.83892 0.0642 0.65515 0.0
H297 H 0.71398 0.99268 0.50282 0.0
H298 H 0.69465 0.95218 0.41254 0.0
H299 H 0.71283 0.98961 0.35882 0.0
H300 H 0.74348 0.97343 0.25998 0.0
H301 H 0.72987 0.93823 0.32296 0.0
H302 H 0.77108 0.97165 0.33574 0.0
H303 H 0.80949 0.01493 0.7489 0.0
H304 H 0.7747 0.9596 0.80115 0.0
H305 H 0.70906 0.92045 0.50727 0.0
C306 C 0.78266 0.04692 0.40563 0.0
C307 C 0.81207 0.07947 0.44047 0.0
C308 C 0.83264 0.08443 0.52756 0.0
C309 C 0.82323 0.05945 0.58661 0.0
C310 C 0.79373 0.02834 0.5536 0.0
C311 C 0.77434 0.02135 0.46205 0.0
C312 C 0.7459 0.98419 0.43593 0.0
C313 C 0.71501 0.97941 0.4271 0.0
C314 C 0.74768 0.96585 0.33218 0.0
C315 C 0.75063 0.97259 0.53334 0.0
C316 C 0.77865 0.99843 0.59961 0.0
C317 C 0.7878 0.99428 0.69636 0.0
C318 C 0.76794 0.96286 0.72566 0.0
C319 C 0.73951 0.93581 0.6578 0.0
C320 C 0.73088 0.94072 0.56008 0.0
H321 H 0.85608 0.7074 0.54644 0.0
H322 H 0.88737 0.73842 0.24769 0.0
H323 H 0.88526 0.78572 0.29802 0.0
H324 H 0.79958 0.7137 0.53298 0.0
H325 H 0.80312 0.72915 0.67475 0.0
H326 H 0.81686 0.70542 0.6342 0.0
H327 H 0.87196 0.75445 0.74298 0.0
H328 H 0.85825 0.77846 0.7841 0.0
H329 H 0.89223 0.79627 0.7177 0.0
H330 H 0.86891 0.82048 0.35824 0.0
H331 H 0.83572 0.83636 0.41413 0.0
H332 H 0.81267 0.78133 0.67053 0.0
C333 C 0.86402 0.72526 0.49456 0.0
C334 C 0.87236 0.71977 0.39425 0.0
C335 C 0.88122 0.74255 0.32547 0.0
C336 C 0.88036 0.76962 0.35395 0.0
C337 C 0.87068 0.77357 0.45158 0.0
C338 C 0.8628 0.75206 0.5213 0.0
C339 C 0.84742 0.75746 0.61019 0.0
C340 C 0.81483 0.7245 0.61297 0.0
C341 C 0.86874 0.77257 0.72026 0.0
C342 C 0.84517 0.78302 0.57372 0.0
C343 C 0.86002 0.79315 0.48509 0.0
C344 C 0.85783 0.81337 0.42902 0.0
C345 C 0.83875 0.82208 0.46083 0.0
C346 C 0.8216 0.80996 0.54641 0.0
C347 C 0.82613 0.79163 0.60662 0.0
H348 H 0.03764 0.69815 0.72834 0.0
H349 H 0.09396 0.77835 0.55463 0.0
H350 H 0.05822 0.73994 0.38613 0.0
H351 H 1.01654 0.63066 0.54702 0.0
H352 H 0.97587 0.60237 0.56191 0.0
H353 H 1.00419 0.63627 0.67308 0.0
H354 H 0.9728 0.65905 0.68554 0.0
H355 H 0.94347 0.62523 0.57552 0.0
H356 H 0.96245 0.66836 0.56754 0.0
H357 H 1.02075 0.6895 0.23173 0.0
H358 H 0.9757 0.63589 0.11136 0.0
H359 H 0.94095 0.59328 0.39165 0.0
C360 C 0.04229 0.70857 0.65683 0.0
C361 C 0.06994 0.74115 0.65588 0.0
C362 C 0.07422 0.75295 0.5581 0.0
C363 C 0.05379 0.73143 0.4614 0.0
C364 C 0.02822 0.69876 0.46459 0.0
C365 C 1.02149 0.68803 0.5607 0.0
C366 C 0.99169 0.65219 0.54314 0.0
C367 C 0.99746 0.62904 0.58371 0.0
C368 C 0.9661 0.65116 0.5961 0.0
C369 C 0.98398 0.64374 0.42145 0.0
C370 C 1.00533 0.6708 0.37716 0.0
C371 C 1.00356 0.66829 0.26555 0.0
C372 C 0.97836 0.63769 0.19786 0.0
C373 C 0.95539 0.61056 0.24293 0.0
C374 C 0.95856 0.61353 0.35561 0.0
H375 H 0.23415 0.87866 0.59284 0.0
H376 H 0.26725 0.93914 0.91805 0.0
H377 H 0.27244 0.98495 0.85004 0.0
H378 H 0.28177 0.93643 0.46088 0.0
H379 H 0.25399 0.92296 0.3427 0.0
H380 H 0.24626 0.89371 0.42345 0.0
H381 H 0.19263 0.88109 0.44279 0.0
H382 H 0.20175 0.9123 0.36651 0.0
H383 H 0.19206 0.91527 0.50004 0.0
H384 H 0.28903 0.02806 0.74578 0.0
H385 H 0.31567 0.06374 0.61616 0.0
H386 H 0.26383 0.97518 0.35432 0.0
C387 C 0.24105 0.90103 0.64922 0.0
C388 C 0.24996 0.90559 0.76006 0.0
C389 C 0.25987 0.93528 0.83287 0.0
C390 C 0.26263 0.96125 0.79501 0.0
C391 C 0.25427 0.95653 0.68456 0.0
C392 C 0.24286 0.92676 0.61279 0.0
C393 C 0.23921 0.92976 0.49716 0.0
C394 C 0.25641 0.92026 0.427 0.0
C395 C 0.20435 0.90833 0.44877 0.0
C396 C 0.25467 0.96702 0.51443 0.0
C397 C 0.26207 0.98177 0.6234 0.0
C398 C 0.2823 0.01675 0.66021 0.0
C399 C 0.29732 0.03699 0.58538 0.0
C400 C 0.29207 0.02213 0.47496 0.0
C401 C 0.26829 0.98707 0.43842 0.0
H402 H 0.32329 0.80168 0.04685 0.0
H403 H 0.22207 0.73925 0.96634 0.0
H404 H 0.21886 0.68826 0.93145 0.0
H405 H 0.33731 0.75875 0.85934 0.0
H406 H 0.36631 0.76118 0.94431 0.0
H407 H 0.36087 0.79281 0.97642 0.0
H408 H 0.3508 0.78051 0.16753 0.0
H409 H 0.35668 0.74908 0.1366 0.0
H410 H 0.32097 0.73795 0.18166 0.0
H411 H 0.22715 0.64552 0.87494 0.0
H412 H 0.24558 0.61188 0.82886 0.0
H413 H 0.34113 0.70021 0.96062 0.0
C414 C 0.30043 0.77715 0.02604 0.0
C415 C 0.27287 0.77434 0.01071 0.0
C416 C 0.24338 0.74193 0.9812 0.0
C417 C 0.24134 0.71281 0.96019 0.0
C418 C 0.26894 0.71641 0.97255 0.0
C419 C 0.29787 0.7476 0.00844 0.0
C420 C 0.32384 0.74416 0.0139 0.0
C421 C 0.34851 0.76548 0.94428 0.0
C422 C 0.33897 0.75348 0.13193 0.0
C423 C 0.3052 0.7066 0.96755 0.0
C424 C 0.27354 0.69113 0.94504 0.0
C425 C 0.25177 0.65714 0.89472 0.0
C426 C 0.26249 0.63831 0.86796 0.0
C427 C 0.29472 0.65335 0.89168 0.0
C428 C 0.31629 0.68794 0.94307 0.0
H429 H 0.52821 0.1367 0.24627 0.0
H430 H 0.53284 0.16408 0.93551 0.0
H431 H 0.57341 0.1571 0.90444 0.0
H432 H 0.61009 0.18137 0.31888 0.0
H433 H 0.60689 0.15058 0.38432 0.0
H434 H 0.57586 0.15423 0.37879 0.0
H435 H 0.53586 0.09086 0.28779 0.0
H436 H 0.56677 0.08696 0.29312 0.0
H437 H 0.54271 0.07451 0.16581 0.0
H438 H 0.615 0.14977 0.90877 0.0
H439 H 0.6562 0.14437 0.94973 0.0
H440 H 0.62796 0.12423 0.26239 0.0
C441 C 0.53736 0.14058 0.17084 0.0
C442 C 0.52704 0.15073 0.09282 0.0
C443 C 0.54021 0.15628 -0.00362 0.0
C444 C 0.56327 0.15229 0.97785 0.0
C445 C 0.57335 0.14292 0.05678 0.0
C446 C 0.5609 0.13713 0.15153 0.0
C447 C 0.57745 0.12925 0.22546 0.0
C448 C 0.59353 0.15542 0.33324 0.0
C449 C 0.55432 0.09325 0.24413 0.0
C450 C 0.60149 0.13221 0.15828 0.0
C451 C 0.59829 0.13968 0.06077 0.0
C452 C 0.61781 0.14409 0.98515 0.0
C453 C 0.64147 0.14127 0.00987 0.0
C454 C 0.64608 0.13445 0.11028 0.0
C455 C 0.62528 0.12938 0.18477 0.0
H456 H 0.56111 0.74614 0.83917 0.0
H457 H 0.60039 0.71378 0.61088 0.0
H458 H 0.55413 0.65466 0.59437 0.0
H459 H 0.52485 0.67277 0.9694 0.0
H460 H 0.49088 0.67056 -0.01222 0.0
H461 H 0.52807 0.71058 -0.01185 0.0
H462 H 0.50244 0.71933 0.83531 0.0
H463 H 0.46526 0.67936 0.83437 0.0
H464 H 0.48182 0.68759 0.71148 0.0
H465 H 0.50328 0.59873 0.59832 0.0
H466 H 0.4499 0.55022 0.61481 0.0
H467 H 0.44124 0.61732 0.83467 0.0
C468 C 0.56006 0.72663 0.78596 0.0
C469 C 0.58469 0.73502 0.72607 0.0
C470 C 0.58214 0.70843 0.6578 0.0
C471 C 0.55587 0.67457 0.64798 0.0
C472 C 0.53207 0.66722 0.70729 0.0
C473 C 0.53384 0.69243 0.77515 0.0
C474 C 0.50442 0.67738 0.82753 0.0
C475 C 0.51255 0.68317 0.95051 0.0
C476 C 0.48748 0.69177 0.80047 0.0
C477 C 0.48531 0.64008 0.7743 0.0
C478 C 0.50217 0.6348 0.70751 0.0
C479 C 0.48989 0.60258 0.65056 0.0
C480 C 0.4595 0.57507 0.66082 0.0
C481 C 0.44119 0.57975 0.72588 0.0
C482 C 0.45451 0.61283 0.78388 0.0
H483 H 0.84387 0.34205 0.93114 0.0
H484 H 0.94494 0.41745 0.01696 0.0
H485 H 0.94796 0.37641 0.0843 0.0
H486 H 0.83194 0.30581 0.15911 0.0
H487 H 0.80171 0.26289 0.08792 0.0
H488 H 0.80737 0.29723 0.03849 0.0
H489 H 0.81433 0.27536 0.85236 0.0
H490 H 0.80853 0.24095 0.90208 0.0
H491 H 0.84342 0.26872 0.8461 0.0
H492 H 0.94028 0.32949 0.15418 0.0
H493 H 0.92213 0.27865 0.2223 0.0
H494 H 0.82606 0.2322 0.08835 0.0
C495 C 0.86666 0.34964 0.96206 0.0
C496 C 0.89421 0.38304 0.96895 0.0
C497 C 0.92353 0.39217 0.01189 0.0
C498 C 0.92551 0.36897 0.0497 0.0
C499 C 0.898 0.33653 0.04351 0.0
C500 C 0.8691 0.32667 0.00038 0.0
C501 C 0.84308 0.29061 0.00842 0.0
C502 C 0.81966 0.28907 0.07762 0.0
C503 C 0.82637 0.26755 0.89549 0.0
C504 C 0.86193 0.28221 0.06485 0.0
C505 C 0.89356 0.30904 0.08356 0.0
C506 C 0.91559 0.30815 0.13924 0.0
C507 C 0.90503 0.27921 0.17812 0.0
C508 C 0.87271 0.25148 0.1612 0.0
C509 C 0.85097 0.25289 0.10213 0.0
H510 H 0.45264 0.90698 0.97996 0.0
H511 H 0.48085 0.98079 0.27322 0.0
H512 H 0.52354 0.97799 0.33228 0.0
H513 H 0.46709 0.85553 0.09456 0.0
H514 H 0.48089 0.84786 0.97545 0.0
H515 H 0.45212 0.85479 0.96387 0.0
H516 H 0.48827 0.90384 0.86748 0.0
H517 H 0.51706 0.89703 0.87878 0.0
H518 H 0.52785 0.9381 0.93287 0.0
H519 H 0.56656 0.97033 0.34512 0.0
H520 H 0.60403 0.95799 0.31212 0.0
H521 H 0.54323 0.8869 0.01542 0.0
C522 C 0.4678 0.92244 0.0569 0.0
C523 C 0.46421 0.94439 0.12184 0.0
C524 C 0.48391 0.96416 0.2224 0.0
C525 C 0.50788 0.9625 0.25643 0.0
C526 C 0.51104 0.94059 0.18914 0.0
C527 C 0.49123 0.9208 0.0918 0.0
C528 C 0.49985 0.90053 0.03034 0.0
C529 C 0.47341 0.86242 0.01526 0.0
C530 C 0.5088 0.91049 0.921 0.0
C531 C 0.52789 0.91199 0.1075 0.0
C532 C 0.53433 0.93519 0.19876 0.0
C533 C 0.56128 0.95161 0.27538 0.0
C534 C 0.58229 0.94446 0.25657 0.0
C535 C 0.57563 0.92087 0.16305 0.0
C536 C 0.54798 0.90412 0.08932 0.0
H537 H 0.75193 0.48516 0.94261 0.0
H538 H 0.79243 0.44687 0.74901 0.0
H539 H 0.73944 0.39408 0.6736 0.0
H540 H 0.70108 0.41705 0.02781 0.0
H541 H 0.66902 0.41911 0.02359 0.0
H542 H 0.70842 0.45698 0.03729 0.0
H543 H 0.69377 0.47014 0.86654 0.0
H544 H 0.65388 0.4324 0.85311 0.0
H545 H 0.67526 0.43884 0.74158 0.0
H546 H 0.68435 0.34108 0.65816 0.0
H547 H 0.6319 0.29481 0.69471 0.0
H548 H 0.62782 0.36854 0.89388 0.0
C549 C 0.74947 0.4662 0.88083 0.0
C550 C 0.77598 0.46981 0.85185 0.0
C551 C 0.77222 0.44456 0.77161 0.0
C552 C 0.74221 0.4145 0.72826 0.0
C553 C 0.71641 0.41071 0.76394 0.0
C554 C 0.71977 0.43635 0.83636 0.0
C555 C 0.68921 0.42474 0.8736 0.0
C556 C 0.69214 0.42974 -0.00218 0.0
C557 C 0.67733 0.44259 0.83113 0.0
C558 C 0.66879 0.3879 0.8185 0.0
C559 C 0.68448 0.38025 0.75326 0.0
C560 C 0.67142 0.34691 0.70574 0.0
C561 C 0.64181 0.32084 0.72691 0.0
C562 C 0.6262 0.3286 0.79588 0.0
C563 C 0.63939 0.36238 0.8393 0.0
H564 H 0.27106 0.4338 0.38225 0.0
H565 H 0.34092 0.54078 0.5033 0.0
H566 H 0.32907 0.55159 0.33608 0.0
H567 H 0.28705 0.4166 0.21841 0.0
H568 H 0.25896 0.39324 0.09561 0.0
H569 H 0.24551 0.39325 0.22227 0.0
H570 H 0.21677 0.41497 0.15135 0.0
H571 H 0.23057 0.41432 0.02428 0.0
H572 H 0.23803 0.45234 0.09631 0.0
H573 H 0.35418 0.54802 0.19114 0.0
H574 H 0.37318 0.5341 0.03648 0.0
H575 H 0.29081 0.42958 0.98007 0.0
C576 C 0.28221 0.4593 0.37273 0.0
C577 C 0.30849 0.48627 0.44731 0.0
C578 C 0.32173 0.51965 0.4425 0.0
C579 C 0.31484 0.52591 0.34747 0.0
C580 C 0.29697 0.49861 0.25943 0.0
C581 C 0.27699 0.46527 0.27329 0.0
C582 C 0.26718 0.44062 0.16685 0.0
C583 C 0.26464 0.40916 0.1767 0.0
C584 C 0.23634 0.42998 0.10612 0.0
C585 C 0.29411 0.46386 0.11231 0.0
C586 C 0.31015 0.49725 0.16385 0.0
C587 C 0.34011 0.52241 0.14401 0.0
C588 C 0.35171 0.51397 0.06041 0.0
C589 C 0.33256 0.48112 -0.00493 0.0
C590 C 0.30528 0.45514 0.02825 0.0
H591 H 0.88997 0.16744 0.97375 0.0
H592 H 0.79583 0.12152 0.03666 0.0
H593 H 0.78854 0.14788 0.90054 0.0
H594 H 0.91233 0.24316 0.89585 0.0
H595 H 0.92845 0.23787 0.77985 0.0
H596 H 0.9288 0.22121 0.8952 0.0
H597 H 0.89949 0.16198 0.77415 0.0
H598 H 0.8984 0.17723 0.65627 0.0
H599 H 0.8624 0.14306 0.69328 0.0
H600 H 0.79562 0.18594 0.77957 0.0
H601 H 0.79904 0.20089 0.60284 0.0
H602 H 0.88201 0.20705 0.58225 0.0
C603 C 0.86777 0.16294 0.95892 0.0
C604 C 0.84429 0.14579 0.02328 0.0
C605 C 0.81482 0.13779 -0.00476 0.0
C606 C 0.81074 0.15265 0.9189 0.0
C607 C 0.83594 0.17334 0.86687 0.0
C608 C 0.86287 0.17616 0.87943 0.0
C609 C 0.88281 0.19207 0.79391 0.0
C610 C 0.91501 0.22559 0.84428 0.0
C611 C 0.88608 0.16716 0.72502 0.0
C612 C 0.86271 0.19768 0.73065 0.0
C613 C 0.83701 0.18885 0.77958 0.0
C614 C 0.81508 0.192 0.73862 0.0
C615 C 0.81739 0.2007 0.63846 0.0
C616 C 0.84005 0.20362 0.57766 0.0
C617 C 0.86438 0.20461 0.62703 0.0
H618 H 0.64477 0.79252 0.4177 0.0
H619 H 0.62922 0.86715 0.47271 0.0
H620 H 0.65425 0.8887 0.3147 0.0
H621 H 0.71597 0.83901 0.35617 0.0
H622 H 0.71337 0.81124 0.24179 0.0
H623 H 0.68808 0.79366 0.34019 0.0
H624 H 0.6369 0.75969 0.20856 0.0
H625 H 0.66069 0.77141 0.10318 0.0
H626 H 0.63228 0.77902 0.10965 0.0
H627 H 0.68774 0.90698 0.16822 0.0
H628 H 0.71271 0.90969 0.00685 0.0
H629 H 0.70543 0.8226 0.04771 0.0
C630 C 0.64499 0.81205 0.39233 0.0
C631 C 0.63463 0.82785 0.45519 0.0
C632 C 0.63622 0.85416 0.42295 0.0
C633 C 0.65108 0.86706 0.33515 0.0
C634 C 0.66361 0.85285 0.28052 0.0
C635 C 0.65935 0.82487 0.30436 0.0
C636 C 0.67465 0.81404 0.23204 0.0
C637 C 0.69954 0.81463 0.29673 0.0
C638 C 0.64964 0.77898 0.15897 0.0
C639 C 0.68955 0.84128 0.16784 0.0
C640 C 0.6831 0.86356 0.19727 0.0
C641 C 0.69318 0.88987 0.1452 0.0
C642 C 0.70795 0.8917 0.05507 0.0
C643 C 0.71115 0.86656 0.0166 0.0
C644 C 0.70404 0.84268 0.07797 0.0
H645 H 0.83791 0.56347 0.75833 0.0
H646 H 0.92958 0.59232 0.86732 0.0
H647 H 0.93242 0.57297 0.68153 0.0
H648 H 0.81093 0.48874 0.58098 0.0
H649 H 0.789 0.49115 0.47779 0.0
H650 H 0.79516 0.51088 0.61679 0.0
H651 H 0.81993 0.56804 0.56533 0.0
H652 H 0.81373 0.54903 0.42537 0.0
H653 H 0.85255 0.58519 0.49279 0.0
H654 H 0.92101 0.54087 0.50068 0.0
H655 H 0.90421 0.51293 0.30959 0.0
H656 H 0.82162 0.50875 0.30553 0.0
C657 C 0.8591 0.56704 0.74173 0.0
C658 C 0.88362 0.57936 0.82575 0.0
C659 C 0.9107 0.58296 0.80291 0.0
C660 C 0.91237 0.57177 0.69827 0.0
C661 C 0.88689 0.55754 0.61823 0.0
C662 C 0.86116 0.55597 0.63731 0.0
C663 C 0.83654 0.53807 0.53675 0.0
C664 C 0.80611 0.50527 0.55415 0.0
C665 C 0.8303 0.56148 0.50281 0.0
C666 C 0.85297 0.53063 0.45764 0.0
C667 C 0.88136 0.54096 0.50866 0.0
C668 C 0.89943 0.53369 0.4582 0.0
C669 C 0.88944 0.51749 0.34973 0.0
C670 C 0.86202 0.50951 0.29225 0.0
C671 C 0.84299 0.51525 0.34742 0.0
H672 H 0.23531 0.8413 0.15603 0.0
H673 H 0.3321 0.92792 0.27522 0.0
H674 H 0.32815 0.91021 0.44812 0.0
H675 H 0.20421 0.83914 0.42697 0.0
H676 H 0.17801 0.79407 0.38493 0.0
H677 H 0.18947 0.81962 0.28541 0.0
H678 H 0.2051 0.78322 0.19237 0.0
H679 H 0.19811 0.76238 0.30315 0.0
H680 H 0.2362 0.78562 0.26206 0.0
H681 H 0.31917 0.87181 0.56703 0.0
H682 H 0.29697 0.83485 0.6981 0.0
H683 H 0.20326 0.78421 0.53354 0.0
C684 C 0.25472 0.85791 0.22098 0.0
C685 C 0.28391 0.88572 0.20335 0.0
C686 C 0.30961 0.90632 0.2885 0.0
C687 C 0.30777 0.8962 0.38566 0.0
C688 C 0.27969 0.8663 0.39584 0.0
C689 C 0.25289 0.84868 0.31983 0.0
C690 C 0.22576 0.81729 0.35254 0.0
C691 C 0.19779 0.81766 0.36312 0.0
C692 C 0.21573 0.78526 0.27278 0.0
C693 C 0.24159 0.82099 0.46036 0.0
C694 C 0.27321 0.84789 0.47834 0.0
C695 C 0.2941 0.85255 0.55975 0.0
C696 C 0.28154 0.83182 0.63359 0.0
C697 C 0.24891 0.81017 0.63183 0.0
C698 C 0.22847 0.80233 0.53963 0.0
H699 H 0.44647 0.12329 0.81989 0.0
H700 H 0.4103 0.1782 0.91035 0.0
H701 H 0.42595 0.20293 0.74934 0.0
H702 H 0.51324 0.18776 0.73974 0.0
H703 H 0.51379 0.16227 0.62602 0.0
H704 H 0.49543 0.14422 0.73799 0.0
H705 H 0.44487 0.09738 0.60924 0.0
H706 H 0.46058 0.11448 0.4927 0.0
H707 H 0.42513 0.10722 0.52648 0.0
H708 H 0.4536 0.22931 0.60138 0.0
H709 H 0.48166 0.24686 0.44641 0.0
H710 H 0.49854 0.17365 0.44451 0.0
C711 C 0.44061 0.13929 0.80275 0.0
C712 C 0.42696 0.1487 0.87615 0.0
C713 C 0.42049 0.17055 0.85381 0.0
C714 C 0.4295 0.1849 0.76327 0.0
C715 C 0.44481 0.17695 0.696 0.0
C716 C 0.44966 0.15406 0.71273 0.0
C717 C 0.46819 0.15144 0.63103 0.0
C718 C 0.49951 0.16206 0.68708 0.0
C719 C 0.44856 0.11554 0.56047 0.0
C720 C 0.47345 0.17693 0.56738 0.0
C721 C 0.46007 0.19159 0.60739 0.0
C722 C 0.46358 0.21751 0.56745 0.0
C723 C 0.47996 0.22767 0.48058 0.0
C724 C 0.49201 0.21142 0.43355 0.0
C725 C 0.4894 0.18634 0.47916 0.0
loop_
_geom_bond_atom_site_label_1
_geom_bond_atom_site_label_2
_geom_bond_distance
_geom_bond_site_symmetry_2
_ccdc_geom_bond_type
Sm0 C2 2.846 . S
Sm0 O20 2.543 . S
Sm0 O21 2.450 . S
Sm0 O22 2.681 . S
Sm0 O23 2.464 . S
Sm0 O24 2.396 . S
Sm0 O28 2.386 1_556 S
Sm0 O31 2.408 . S
Sm1 C11 2.846 1_556 S
Sm1 O22 2.386 . S
Sm1 O25 2.408 . S
Sm1 O26 2.543 . S
Sm1 O27 2.450 1_556 S
Sm1 O28 2.681 1_556 S
Sm1 O29 2.464 1_556 S
Sm1 O30 2.396 1_556 S
C2 Sm0 2.846 . S
C2 C3 1.506 . S
C2 O20 1.261 . S
C2 O21 1.242 . S
C3 C2 1.506 . S
C3 C4 1.358 . S
C3 C8 1.382 . S
C4 C3 1.358 . S
C4 C5 1.385 . S
C4 H32 0.930 . S
C5 C4 1.385 . S
C5 C6 1.395 . S
C5 H33 0.929 . S
C6 C5 1.395 . S
C6 C7 1.335 . S
C7 C6 1.335 . S
C7 C8 1.398 . S
C7 H34 0.930 . S
C8 C3 1.382 . S
C8 C7 1.398 . S
C8 H35 0.929 . S
C9 O22 1.271 . S
C9 O23 1.251 . S
C10 O24 1.252 . S
C10 O25 1.272 . S
C11 Sm1 2.846 1_554 S
C11 C12 1.506 . S
C11 O26 1.261 1_554 S
C11 O27 1.242 . S
C12 C11 1.506 . S
C12 C13 1.358 1_554 S
C12 C17 1.382 . S
C13 C12 1.358 1_556 S
C13 C14 1.385 . S
C13 H36 0.930 . S
C14 C13 1.385 . S
C14 C15 1.395 1_556 S
C14 H37 0.929 . S
C15 C14 1.395 1_554 S
C15 C16 1.335 . S
C16 C15 1.335 . S
C16 C17 1.398 . S
C16 H38 0.930 . S
C17 C12 1.382 . S
C17 C16 1.398 . S
C17 H39 0.929 . S
C18 O28 1.271 . S
C18 O29 1.251 . S
C19 O30 1.252 . S
C19 O31 1.272 1_554 S
O20 Sm0 2.543 . S
O20 C2 1.261 . S
O21 Sm0 2.450 . S
O21 C2 1.242 . S
O22 Sm0 2.681 . S
O22 Sm1 2.386 . S
O22 C9 1.271 . S
O23 Sm0 2.464 . S
O23 C9 1.251 . S
O24 Sm0 2.396 . S
O24 C10 1.252 . S
O25 Sm1 2.408 . S
O25 C10 1.272 . S
O26 Sm1 2.543 . S
O26 C11 1.261 1_556 S
O27 Sm1 2.450 1_554 S
O27 C11 1.242 . S
O28 Sm0 2.386 1_554 S
O28 Sm1 2.681 1_554 S
O28 C18 1.271 . S
O29 Sm1 2.464 1_554 S
O29 C18 1.251 . S
O30 Sm1 2.396 1_554 S
O30 C19 1.252 . S
O31 Sm0 2.408 . S
O31 C19 1.272 1_556 S
H32 C4 0.930 . S
H33 C5 0.929 . S
H34 C7 0.930 . S
H35 C8 0.929 . S
H36 C13 0.930 . S
H37 C14 0.929 . S
H38 C16 0.930 . S
H39 C17 0.929 . S
Sm40 C42 2.846 . S
Sm40 O60 2.543 . S
Sm40 O61 2.450 . S
Sm40 O62 2.681 1_554 S
Sm40 O63 2.464 1_554 S
Sm40 O64 2.396 . S
Sm40 O68 2.386 . S
Sm40 O71 2.408 . S
Sm41 C51 2.846 1_554 S
Sm41 O62 2.386 1_554 S
Sm41 O65 2.408 . S
Sm41 O66 2.543 1_554 S
Sm41 O67 2.450 . S
Sm41 O68 2.681 . S
Sm41 O69 2.464 . S
Sm41 O70 2.396 . S
C42 Sm40 2.846 . S
C42 C43 1.506 . S
C42 O60 1.261 . S
C42 O61 1.242 . S
C43 C42 1.506 . S
C43 C44 1.358 . S
C43 C48 1.382 . S
C44 C43 1.358 . S
C44 C45 1.385 . S
C44 H72 0.930 . S
C45 C44 1.385 . S
C45 C46 1.395 . S
C45 H73 0.929 . S
C46 C45 1.395 . S
C46 C47 1.335 . S
C47 C46 1.335 . S
C47 C48 1.398 . S
C47 H74 0.930 . S
C48 C43 1.382 . S
C48 C47 1.398 . S
C48 H75 0.929 . S
C49 O62 1.271 . S
C49 O63 1.251 . S
C50 O64 1.252 . S
C50 O65 1.272 . S
C51 Sm41 2.846 1_556 S
C51 C52 1.506 . S
C51 O66 1.261 . S
C51 O67 1.242 1_556 S
C52 C51 1.506 . S
C52 C53 1.358 . S
C52 C57 1.382 1_556 S
C53 C52 1.358 . S
C53 C54 1.385 . S
C53 H76 0.930 . S
C54 C53 1.385 . S
C54 C55 1.395 . S
C54 H77 0.929 . S
C55 C54 1.395 . S
C55 C56 1.335 . S
C56 C55 1.335 . S
C56 C57 1.398 1_556 S
C56 H78 0.930 1_556 S
C57 C52 1.382 1_554 S
C57 C56 1.398 1_554 S
C57 H79 0.929 . S
C58 O68 1.271 . S
C58 O69 1.251 . S
C59 O70 1.252 . S
C59 O71 1.272 . S
O60 Sm40 2.543 . S
O60 C42 1.261 . S
O61 Sm40 2.450 . S
O61 C42 1.242 . S
O62 Sm40 2.681 1_556 S
O62 Sm41 2.386 1_556 S
O62 C49 1.271 . S
O63 Sm40 2.464 1_556 S
O63 C49 1.251 . S
O64 Sm40 2.396 . S
O64 C50 1.252 . S
O65 Sm41 2.408 . S
O65 C50 1.272 . S
O66 Sm41 2.543 1_556 S
O66 C51 1.261 . S
O67 Sm41 2.450 . S
O67 C51 1.242 1_554 S
O68 Sm40 2.386 . S
O68 Sm41 2.681 . S
O68 C58 1.271 . S
O69 Sm41 2.464 . S
O69 C58 1.251 . S
O70 Sm41 2.396 . S
O70 C59 1.252 . S
O71 Sm40 2.408 . S
O71 C59 1.272 . S
H72 C44 0.930 . S
H73 C45 0.929 . S
H74 C47 0.930 . S
H75 C48 0.929 . S
H76 C53 0.930 . S
H77 C54 0.929 . S
H78 C56 0.930 1_554 S
H79 C57 0.929 . S
Sm80 C82 2.846 . S
Sm80 O100 2.543 . S
Sm80 O101 2.450 1_556 S
Sm80 O102 2.681 1_556 S
Sm80 O103 2.464 1_556 S
Sm80 O104 2.396 1_556 S
Sm80 O108 2.386 . S
Sm80 O111 2.408 1_556 S
Sm81 C91 2.846 . S
Sm81 O102 2.386 . S
Sm81 O105 2.408 1_554 S
Sm81 O106 2.543 . S
Sm81 O107 2.450 1_554 S
Sm81 O108 2.681 1_554 S
Sm81 O109 2.464 1_554 S
Sm81 O110 2.396 1_554 S
C82 Sm80 2.846 . S
C82 C83 1.506 . S
C82 O100 1.261 . S
C82 O101 1.242 1_556 S
C83 C82 1.506 . S
C83 C84 1.358 . S
C83 C88 1.382 . S
C84 C83 1.358 . S
C84 C85 1.385 . S
C84 H112 0.930 . S
C85 C84 1.385 . S
C85 C86 1.395 . S
C85 H113 0.929 . S
C86 C85 1.395 . S
C86 C87 1.335 . S
C87 C86 1.335 . S
C87 C88 1.398 . S
C87 H114 0.930 . S
C88 C83 1.382 . S
C88 C87 1.398 . S
C88 H115 0.929 1_556 S
C89 O102 1.271 . S
C89 O103 1.251 . S
C90 O104 1.252 1_556 S
C90 O105 1.272 . S
C91 Sm81 2.846 . S
C91 C92 1.506 . S
C91 O106 1.261 . S
C91 O107 1.242 1_554 S
C92 C91 1.506 . S
C92 C93 1.358 . S
C92 C97 1.382 . S
C93 C92 1.358 . S
C93 C94 1.385 . S
C93 H116 0.930 . S
C94 C93 1.385 . S
C94 C95 1.395 . S
C94 H117 0.929 . S
C95 C94 1.395 . S
C95 C96 1.335 . S
C96 C95 1.335 . S
C96 C97 1.398 . S
C96 H118 0.930 . S
C97 C92 1.382 . S
C97 C96 1.398 . S
C97 H119 0.929 1_554 S
C98 O108 1.271 . S
C98 O109 1.251 . S
C99 O110 1.252 1_554 S
C99 O111 1.272 . S
O100 Sm80 2.543 . S
O100 C82 1.261 . S
O101 Sm80 2.450 1_554 S
O101 C82 1.242 1_554 S
O102 Sm80 2.681 1_554 S
O102 Sm81 2.386 . S
O102 C89 1.271 . S
O103 Sm80 2.464 1_554 S
O103 C89 1.251 . S
O104 Sm80 2.396 1_554 S
O104 C90 1.252 1_554 S
O105 Sm81 2.408 1_556 S
O105 C90 1.272 . S
O106 Sm81 2.543 . S
O106 C91 1.261 . S
O107 Sm81 2.450 1_556 S
O107 C91 1.242 1_556 S
O108 Sm80 2.386 . S
O108 Sm81 2.681 1_556 S
O108 C98 1.271 . S
O109 Sm81 2.464 1_556 S
O109 C98 1.251 . S
O110 Sm81 2.396 1_556 S
O110 C99 1.252 1_556 S
O111 Sm80 2.408 1_554 S
O111 C99 1.272 . S
H112 C84 0.930 . S
H113 C85 0.929 . S
H114 C87 0.930 . S
H115 C88 0.929 1_554 S
H116 C93 0.930 . S
H117 C94 0.929 . S
H118 C96 0.930 . S
H119 C97 0.929 1_556 S
Sm120 C122 2.846 . S
Sm120 O140 2.543 . S
Sm120 O141 2.450 1_554 S
Sm120 O142 2.681 1_554 S
Sm120 O143 2.464 1_554 S
Sm120 O144 2.396 . S
Sm120 O148 2.386 . S
Sm120 O151 2.408 1_554 S
Sm121 C131 2.846 . S
Sm121 O142 2.386 . S
Sm121 O145 2.408 1_556 S
Sm121 O146 2.543 . S
Sm121 O147 2.450 1_556 S
Sm121 O148 2.681 1_556 S
Sm121 O149 2.464 1_556 S
Sm121 O150 2.396 . S
C122 Sm120 2.846 . S
C122 C123 1.506 . S
C122 O140 1.261 . S
C122 O141 1.242 1_554 S
C123 C122 1.506 . S
C123 C124 1.358 . S
C123 C128 1.382 . S
C124 C123 1.358 . S
C124 C125 1.385 . S
C124 H152 0.930 . S
C125 C124 1.385 . S
C125 C126 1.395 . S
C125 H153 0.929 . S
C126 C125 1.395 . S
C126 C127 1.335 . S
C127 C126 1.335 . S
C127 C128 1.398 . S
C127 H154 0.930 . S
C128 C123 1.382 . S
C128 C127 1.398 . S
C128 H155 0.929 1_554 S
C129 O142 1.271 . S
C129 O143 1.251 . S
C130 O144 1.252 . S
C130 O145 1.272 . S
C131 Sm121 2.846 . S
C131 C132 1.506 . S
C131 O146 1.261 . S
C131 O147 1.242 1_556 S
C132 C131 1.506 . S
C132 C133 1.358 . S
C132 C137 1.382 . S
C133 C132 1.358 . S
C133 C134 1.385 . S
C133 H156 0.930 . S
C134 C133 1.385 . S
C134 C135 1.395 . S
C134 H157 0.929 . S
C135 C134 1.395 . S
C135 C136 1.335 . S
C136 C135 1.335 . S
C136 C137 1.398 . S
C136 H158 0.930 . S
C137 C132 1.382 . S
C137 C136 1.398 . S
C137 H159 0.929 1_556 S
C138 O148 1.271 . S
C138 O149 1.251 . S
C139 O150 1.252 . S
C139 O151 1.272 . S
O140 Sm120 2.543 . S
O140 C122 1.261 . S
O141 Sm120 2.450 1_556 S
O141 C122 1.242 1_556 S
O142 Sm120 2.681 1_556 S
O142 Sm121 2.386 . S
O142 C129 1.271 . S
O143 Sm120 2.464 1_556 S
O143 C129 1.251 . S
O144 Sm120 2.396 . S
O144 C130 1.252 . S
O145 Sm121 2.408 1_554 S
O145 C130 1.272 . S
O146 Sm121 2.543 . S
O146 C131 1.261 . S
O147 Sm121 2.450 1_554 S
O147 C131 1.242 1_554 S
O148 Sm120 2.386 . S
O148 Sm121 2.681 1_554 S
O148 C138 1.271 . S
O149 Sm121 2.464 1_554 S
O149 C138 1.251 . S
O150 Sm121 2.396 . S
O150 C139 1.252 . S
O151 Sm120 2.408 1_556 S
O151 C139 1.272 . S
H152 C124 0.930 . S
H153 C125 0.929 . S
H154 C127 0.930 . S
H155 C128 0.929 1_556 S
H156 C133 0.930 . S
H157 C134 0.929 . S
H158 C136 0.930 . S
H159 C137 0.929 1_554 S
Sm160 C162 2.846 . S
Sm160 O180 2.543 1_556 S
Sm160 O181 2.450 . S
Sm160 O182 2.681 . S
Sm160 O183 2.464 . S
Sm160 O184 2.396 . S
Sm160 O188 2.386 1_556 S
Sm160 O191 2.408 . S
Sm161 C171 2.846 . S
Sm161 O182 2.386 1_554 S
Sm161 O185 2.408 . S
Sm161 O186 2.543 1_554 S
Sm161 O187 2.450 . S
Sm161 O188 2.681 . S
Sm161 O189 2.464 . S
Sm161 O190 2.396 . S
C162 Sm160 2.846 . S
C162 C163 1.506 . S
C162 O180 1.261 1_556 S
C162 O181 1.242 . S
C163 C162 1.506 . S
C163 C164 1.358 . S
C163 C168 1.382 . S
C164 C163 1.358 . S
C164 C165 1.385 . S
C164 H192 0.930 1_556 S
C165 C164 1.385 . S
C165 C166 1.395 . S
C165 H193 0.929 1_556 S
C166 C165 1.395 . S
C166 C167 1.335 . S
C167 C166 1.335 . S
C167 C168 1.398 . S
C167 H194 0.930 . S
C168 C163 1.382 . S
C168 C167 1.398 . S
C168 H195 0.929 . S
C169 O182 1.271 . S
C169 O183 1.251 . S
C170 O184 1.252 . S
C170 O185 1.272 1_556 S
C171 Sm161 2.846 . S
C171 C172 1.506 . S
C171 O186 1.261 1_554 S
C171 O187 1.242 . S
C172 C171 1.506 . S
C172 C173 1.358 . S
C172 C177 1.382 . S
C173 C172 1.358 . S
C173 C174 1.385 . S
C173 H196 0.930 1_554 S
C174 C173 1.385 . S
C174 C175 1.395 . S
C174 H197 0.929 1_554 S
C175 C174 1.395 . S
C175 C176 1.335 . S
C176 C175 1.335 . S
C176 C177 1.398 . S
C176 H198 0.930 . S
C177 C172 1.382 . S
C177 C176 1.398 . S
C177 H199 0.929 . S
C178 O188 1.271 . S
C178 O189 1.251 . S
C179 O190 1.252 . S
C179 O191 1.272 1_554 S
O180 Sm160 2.543 1_554 S
O180 C162 1.261 1_554 S
O181 Sm160 2.450 . S
O181 C162 1.242 . S
O182 Sm160 2.681 . S
O182 Sm161 2.386 1_556 S
O182 C169 1.271 . S
O183 Sm160 2.464 . S
O183 C169 1.251 . S
O184 Sm160 2.396 . S
O184 C170 1.252 . S
O185 Sm161 2.408 . S
O185 C170 1.272 1_554 S
O186 Sm161 2.543 1_556 S
O186 C171 1.261 1_556 S
O187 Sm161 2.450 . S
O187 C171 1.242 . S
O188 Sm160 2.386 1_554 S
O188 Sm161 2.681 . S
O188 C178 1.271 . S
O189 Sm161 2.464 . S
O189 C178 1.251 . S
O190 Sm161 2.396 . S
O190 C179 1.252 . S
O191 Sm160 2.408 . S
O191 C179 1.272 1_556 S
H192 C164 0.930 1_554 S
H193 C165 0.929 1_554 S
H194 C167 0.930 . S
H195 C168 0.929 . S
H196 C173 0.930 1_556 S
H197 C174 0.929 1_556 S
H198 C176 0.930 . S
H199 C177 0.929 . S
Sm200 C202 2.846 1_556 S
Sm200 O220 2.543 1_556 S
Sm200 O221 2.450 . S
Sm200 O222 2.681 . S
Sm200 O223 2.464 . S
Sm200 O224 2.396 . S
Sm200 O228 2.386 1_556 S
Sm200 O231 2.408 . S
Sm201 C211 2.846 1_554 S
Sm201 O222 2.386 1_554 S
Sm201 O225 2.408 . S
Sm201 O226 2.543 1_554 S
Sm201 O227 2.450 . S
Sm201 O228 2.681 . S
Sm201 O229 2.464 . S
Sm201 O230 2.396 . S
C202 Sm200 2.846 1_554 S
C202 C203 1.506 . S
C202 O220 1.261 . S
C202 O221 1.242 1_554 S
C203 C202 1.506 . S
C203 C204 1.358 . S
C203 C208 1.382 1_544 S
C204 C203 1.358 . S
C204 C205 1.385 1_545 S
C204 H232 0.930 . S
C205 C204 1.385 1_565 S
C205 C206 1.395 . S
C205 H233 0.926 1_565 S
C206 C205 1.395 . S
C206 C207 1.335 1_554 S
C207 C206 1.335 1_556 S
C207 C208 1.398 . S
C207 H234 0.930 . S
C208 C203 1.382 1_566 S
C208 C207 1.398 . S
C208 H235 0.929 . S
C209 O222 1.271 . S
C209 O223 1.251 . S
C210 O224 1.252 1_554 S
C210 O225 1.272 . S
C211 Sm201 2.846 1_556 S
C211 C212 1.506 . S
C211 O226 1.261 . S
C211 O227 1.242 1_556 S
C212 C211 1.506 . S
C212 C213 1.358 . S
C212 C217 1.382 1_556 S
C213 C212 1.358 . S
C213 C214 1.385 . S
C213 H236 0.930 . S
C214 C213 1.385 . S
C214 C215 1.395 . S
C214 H237 0.929 . S
C215 C214 1.395 . S
C215 C216 1.335 1_556 S
C216 C215 1.335 1_554 S
C216 C217 1.398 . S
C216 H238 0.930 . S
C217 C212 1.382 1_554 S
C217 C216 1.398 . S
C217 H239 0.929 . S
C218 O228 1.271 . S
C218 O229 1.251 . S
C219 O230 1.252 1_556 S
C219 O231 1.272 . S
O220 Sm200 2.543 1_554 S
O220 C202 1.261 . S
O221 Sm200 2.450 . S
O221 C202 1.242 1_556 S
O222 Sm200 2.681 . S
O222 Sm201 2.386 1_556 S
O222 C209 1.271 . S
O223 Sm200 2.464 . S
O223 C209 1.251 . S
O224 Sm200 2.396 . S
O224 C210 1.252 1_556 S
O225 Sm201 2.408 . S
O225 C210 1.272 . S
O226 Sm201 2.543 1_556 S
O226 C211 1.261 . S
O227 Sm201 2.450 . S
O227 C211 1.242 1_554 S
O228 Sm200 2.386 1_554 S
O228 Sm201 2.681 . S
O228 C218 1.271 . S
O229 Sm201 2.464 . S
O229 C218 1.251 . S
O230 Sm201 2.396 . S
O230 C219 1.252 1_554 S
O231 Sm200 2.408 . S
O231 C219 1.272 . S
H232 C204 0.930 . S
H233 C205 0.926 1_545 S
H234 C207 0.930 . S
H235 C208 0.929 . S
H236 C213 0.930 . S
H237 C214 0.929 . S
H238 C216 0.930 . S
H239 C217 0.929 . S
H240 C252 0.930 . S
H241 C254 0.930 . S
H242 C255 0.930 . S
H243 C259 0.959 . S
H244 C259 0.959 . S
H245 C259 0.961 . S
H246 C260 0.960 . S
H247 C260 0.961 . S
H248 C260 0.959 . S
H249 C263 0.929 . S
H250 C264 0.931 . S
H251 C266 0.930 . S
C252 H240 0.930 . S
C252 C253 1.399 . S
C252 C257 1.399 . S
C253 C252 1.399 . S
C253 C254 1.376 . S
C254 H241 0.930 . S
C254 C253 1.376 . S
C254 C255 1.388 . S
C255 H242 0.930 . S
C255 C254 1.388 . S
C255 C256 1.390 . S
C256 C255 1.390 . S
C256 C257 1.394 . S
C256 C262 1.465 . S
C257 C252 1.399 . S
C257 C256 1.394 . S
C257 C258 1.516 . S
C258 C257 1.516 . S
C258 C259 1.502 . S
C258 C260 1.561 . S
C258 C261 1.526 . S
C259 H243 0.959 . S
C259 H244 0.959 . S
C259 H245 0.961 . S
C259 C258 1.502 . S
C260 H246 0.960 . S
C260 H247 0.961 . S
C260 H248 0.959 . S
C260 C258 1.561 . S
C261 C258 1.526 . S
C261 C262 1.396 . S
C261 C266 1.390 . S
C262 C256 1.465 . S
C262 C261 1.396 . S
C262 C263 1.399 . S
C263 H249 0.929 . S
C263 C262 1.399 . S
C263 C264 1.385 . S
C264 H250 0.931 . S
C264 C263 1.385 . S
C264 C265 1.389 . S
C265 C264 1.389 . S
C265 C266 1.387 . S
C266 H251 0.930 . S
C266 C261 1.390 . S
C266 C265 1.387 . S
H267 C279 0.930 . S
H268 C281 0.930 . S
H269 C282 0.930 . S
H270 C286 0.959 . S
H271 C286 0.959 . S
H272 C286 0.961 . S
H273 C287 0.960 . S
H274 C287 0.961 . S
H275 C287 0.959 . S
H276 C290 0.929 . S
H277 C291 0.931 . S
H278 C293 0.930 . S
C279 H267 0.930 . S
C279 C280 1.399 . S
C279 C284 1.399 . S
C280 C279 1.399 . S
C280 C281 1.376 . S
C281 H268 0.930 . S
C281 C280 1.376 . S
C281 C282 1.388 . S
C282 H269 0.930 . S
C282 C281 1.388 . S
C282 C283 1.390 . S
C283 C282 1.390 . S
C283 C284 1.394 . S
C283 C289 1.465 . S
C284 C279 1.399 . S
C284 C283 1.394 . S
C284 C285 1.516 . S
C285 C284 1.516 . S
C285 C286 1.502 . S
C285 C287 1.561 . S
C285 C288 1.526 . S
C286 H270 0.959 . S
C286 H271 0.959 . S
C286 H272 0.961 . S
C286 C285 1.502 . S
C287 H273 0.960 . S
C287 H274 0.961 . S
C287 H275 0.959 . S
C287 C285 1.561 . S
C288 C285 1.526 . S
C288 C289 1.396 . S
C288 C293 1.390 . S
C289 C283 1.465 . S
C289 C288 1.396 . S
C289 C290 1.399 . S
C290 H276 0.929 . S
C290 C289 1.399 . S
C290 C291 1.385 . S
C291 H277 0.931 . S
C291 C290 1.385 . S
C291 C292 1.389 . S
C292 C291 1.389 . S
C292 C293 1.387 . S
C293 H278 0.930 . S
C293 C288 1.390 . S
C293 C292 1.387 . S
H294 C306 0.930 1_565 S
H295 C308 0.930 . S
H296 C309 0.930 . S
H297 C313 0.959 . S
H298 C313 0.959 . S
H299 C313 0.961 . S
H300 C314 0.960 . S
H301 C314 0.961 . S
H302 C314 0.959 . S
H303 C317 0.929 . S
H304 C318 0.931 . S
H305 C320 0.930 . S
C306 H294 0.930 1_545 S
C306 C307 1.399 . S
C306 C311 1.389 1_545 S
C307 C306 1.399 . S
C307 C308 1.376 . S
C308 H295 0.930 . S
C308 C307 1.376 . S
C308 C309 1.388 . S
C309 H296 0.930 . S
C309 C308 1.388 . S
C309 C310 1.390 . S
C310 C309 1.390 . S
C310 C311 1.365 1_545 S
C310 C316 1.465 . S
C311 C306 1.389 1_565 S
C311 C310 1.365 1_565 S
C311 C312 1.554 . S
C312 C311 1.554 . S
C312 C313 1.502 . S
C312 C314 1.561 . S
C312 C315 1.526 . S
C313 H297 0.959 . S
C313 H298 0.959 . S
C313 H299 0.961 . S
C313 C312 1.502 . S
C314 H300 0.960 . S
C314 H301 0.961 . S
C314 H302 0.959 . S
C314 C312 1.561 . S
C315 C312 1.526 . S
C315 C316 1.396 1_565 S
C315 C320 1.390 . S
C316 C310 1.465 . S
C316 C315 1.396 1_545 S
C316 C317 1.399 . S
C317 H303 0.929 . S
C317 C316 1.399 . S
C317 C318 1.385 . S
C318 H304 0.931 . S
C318 C317 1.385 . S
C318 C319 1.389 1_545 S
C319 C318 1.389 1_565 S
C319 C320 1.387 . S
C320 H305 0.930 . S
C320 C315 1.390 . S
C320 C319 1.387 . S
H321 C333 0.930 . S
H322 C335 0.930 . S
H323 C336 0.930 . S
H324 C340 0.959 . S
H325 C340 0.959 . S
H326 C340 0.961 . S
H327 C341 0.960 . S
H328 C341 0.961 . S
H329 C341 0.959 . S
H330 C344 0.929 . S
H331 C345 0.931 . S
H332 C347 0.930 . S
C333 H321 0.930 . S
C333 C334 1.399 . S
C333 C338 1.399 . S
C334 C333 1.399 . S
C334 C335 1.376 . S
C335 H322 0.930 . S
C335 C334 1.376 . S
C335 C336 1.388 . S
C336 H323 0.930 . S
C336 C335 1.388 . S
C336 C337 1.390 . S
C337 C336 1.390 . S
C337 C338 1.394 . S
C337 C343 1.465 . S
C338 C333 1.399 . S
C338 C337 1.394 . S
C338 C339 1.516 . S
C339 C338 1.516 . S
C339 C340 1.502 . S
C339 C341 1.561 . S
C339 C342 1.526 . S
C340 H324 0.959 . S
C340 H325 0.959 . S
C340 H326 0.961 . S
C340 C339 1.502 . S
C341 H327 0.960 . S
C341 H328 0.961 . S
C341 H329 0.959 . S
C341 C339 1.561 . S
C342 C339 1.526 . S
C342 C343 1.396 . S
C342 C347 1.390 . S
C343 C337 1.465 . S
C343 C342 1.396 . S
C343 C344 1.399 . S
C344 H330 0.929 . S
C344 C343 1.399 . S
C344 C345 1.385 . S
C345 H331 0.931 . S
C345 C344 1.385 . S
C345 C346 1.389 . S
C346 C345 1.389 . S
C346 C347 1.387 . S
C347 H332 0.930 . S
C347 C342 1.390 . S
C347 C346 1.387 . S
H348 C360 0.930 . S
H349 C362 0.930 . S
H350 C363 0.930 . S
H351 C367 0.959 1_455 S
H352 C367 0.959 . S
H353 C367 0.961 1_455 S
H354 C368 0.960 . S
H355 C368 0.961 . S
H356 C368 0.959 . S
H357 C371 0.929 . S
H358 C372 0.931 . S
H359 C374 0.930 . S
C360 H348 0.930 . S
C360 C361 1.399 . S
C360 C365 1.399 1_455 S
C361 C360 1.399 . S
C361 C362 1.376 . S
C362 H349 0.930 . S
C362 C361 1.376 . S
C362 C363 1.388 1_455 S
C363 H350 0.930 . S
C363 C362 1.388 1_655 S
C363 C364 1.390 . S
C364 C363 1.390 . S
C364 C365 1.394 . S
C364 C370 1.465 . S
C365 C360 1.399 1_655 S
C365 C364 1.394 . S
C365 C366 1.516 . S
C366 C365 1.516 . S
C366 C367 1.502 . S
C366 C368 1.561 . S
C366 C369 1.526 . S
C367 H351 0.959 1_655 S
C367 H352 0.959 . S
C367 H353 0.961 1_655 S
C367 C366 1.502 . S
C368 H354 0.960 . S
C368 H355 0.961 . S
C368 H356 0.959 . S
C368 C366 1.561 . S
C369 C366 1.526 . S
C369 C370 1.396 . S
C369 C374 1.390 . S
C370 C364 1.465 . S
C370 C369 1.396 . S
C370 C371 1.399 . S
C371 H357 0.929 . S
C371 C370 1.399 . S
C371 C372 1.385 . S
C372 H358 0.931 . S
C372 C371 1.385 . S
C372 C373 1.389 . S
C373 C372 1.389 . S
C373 C374 1.387 . S
C374 H359 0.930 . S
C374 C369 1.390 . S
C374 C373 1.387 . S
H375 C387 0.930 . S
H376 C389 0.930 . S
H377 C390 0.930 1_545 S
H378 C394 0.959 . S
H379 C394 0.959 . S
H380 C394 0.961 . S
H381 C395 0.960 . S
H382 C395 0.961 . S
H383 C395 0.959 . S
H384 C398 0.929 1_545 S
H385 C399 0.931 1_545 S
H386 C401 0.930 . S
C387 H375 0.930 . S
C387 C388 1.399 . S
C387 C392 1.399 . S
C388 C387 1.399 . S
C388 C389 1.376 . S
C389 H376 0.930 . S
C389 C388 1.376 . S
C389 C390 1.388 . S
C390 H377 0.930 1_565 S
C390 C389 1.388 . S
C390 C391 1.390 . S
C391 C390 1.390 . S
C391 C392 1.394 . S
C391 C397 1.465 . S
C392 C387 1.399 . S
C392 C391 1.394 . S
C392 C393 1.516 . S
C393 C392 1.516 . S
C393 C394 1.502 . S
C393 C395 1.561 . S
C393 C396 1.526 . S
C394 H378 0.959 . S
C394 H379 0.959 . S
C394 H380 0.961 . S
C394 C393 1.502 . S
C395 H381 0.960 . S
C395 H382 0.961 . S
C395 H383 0.959 . S
C395 C393 1.561 . S
C396 C393 1.526 . S
C396 C397 1.396 . S
C396 C401 1.390 . S
C397 C391 1.465 . S
C397 C396 1.396 . S
C397 C398 1.399 . S
C398 H384 0.929 1_565 S
C398 C397 1.399 . S
C398 C399 1.385 . S
C399 H385 0.931 1_565 S
C399 C398 1.385 . S
C399 C400 1.389 . S
C400 C399 1.389 . S
C400 C401 1.387 . S
C401 H386 0.930 . S
C401 C396 1.390 . S
C401 C400 1.387 . S
H402 C414 0.930 . S
H403 C416 0.930 . S
H404 C417 0.930 . S
H405 C421 0.959 . S
H406 C421 0.959 . S
H407 C421 0.961 . S
H408 C422 0.960 . S
H409 C422 0.961 . S
H410 C422 0.959 . S
H411 C425 0.929 . S
H412 C426 0.931 . S
H413 C428 0.930 . S
C414 H402 0.930 . S
C414 C415 1.399 . S
C414 C419 1.399 . S
C415 C414 1.399 . S
C415 C416 1.376 1_554 S
C416 H403 0.930 . S
C416 C415 1.376 1_556 S
C416 C417 1.388 . S
C417 H404 0.930 . S
C417 C416 1.388 . S
C417 C418 1.390 1_556 S
C418 C417 1.390 1_554 S
C418 C419 1.394 . S
C418 C424 1.465 . S
C419 C414 1.399 . S
C419 C418 1.394 . S
C419 C420 1.516 . S
C420 C419 1.516 . S
C420 C421 1.502 . S
C420 C422 1.561 . S
C420 C423 1.526 . S
C421 H405 0.959 . S
C421 H406 0.959 . S
C421 H407 0.961 . S
C421 C420 1.502 . S
C422 H408 0.960 . S
C422 H409 0.961 . S
C422 H410 0.959 . S
C422 C420 1.561 . S
C423 C420 1.526 . S
C423 C424 1.396 . S
C423 C428 1.390 . S
C424 C418 1.465 . S
C424 C423 1.396 . S
C424 C425 1.399 1_554 S
C425 H411 0.929 . S
C425 C424 1.399 1_556 S
C425 C426 1.385 . S
C426 H412 0.931 . S
C426 C425 1.385 . S
C426 C427 1.389 1_556 S
C427 C426 1.389 1_554 S
C427 C428 1.387 . S
C428 H413 0.930 . S
C428 C423 1.390 . S
C428 C427 1.387 . S
H429 C441 0.930 1_554 S
H430 C443 0.930 . S
H431 C444 0.930 . S
H432 C448 0.959 . S
H433 C448 0.959 . S
H434 C448 0.961 . S
H435 C449 0.960 . S
H436 C449 0.961 . S
H437 C449 0.959 . S
H438 C452 0.929 . S
H439 C453 0.931 . S
H440 C455 0.930 1_554 S
C441 H429 0.930 1_556 S
C441 C442 1.399 . S
C441 C446 1.399 . S
C442 C441 1.399 . S
C442 C443 1.376 . S
C443 H430 0.930 . S
C443 C442 1.376 . S
C443 C444 1.388 . S
C444 H431 0.930 . S
C444 C443 1.388 . S
C444 C445 1.390 . S
C445 C444 1.390 . S
C445 C446 1.394 . S
C445 C451 1.465 . S
C446 C441 1.399 . S
C446 C445 1.394 . S
C446 C447 1.516 1_556 S
C447 C446 1.516 1_554 S
C447 C448 1.502 . S
C447 C449 1.561 . S
C447 C450 1.526 1_554 S
C448 H432 0.959 . S
C448 H433 0.959 . S
C448 H434 0.961 . S
C448 C447 1.502 . S
C449 H435 0.960 . S
C449 H436 0.961 . S
C449 H437 0.959 . S
C449 C447 1.561 . S
C450 C447 1.526 1_556 S
C450 C451 1.396 . S
C450 C455 1.390 . S
C451 C445 1.465 . S
C451 C450 1.396 . S
C451 C452 1.399 . S
C452 H438 0.929 . S
C452 C451 1.399 . S
C452 C453 1.385 . S
C453 H439 0.931 . S
C453 C452 1.385 . S
C453 C454 1.389 . S
C454 C453 1.389 . S
C454 C455 1.387 . S
C455 H440 0.930 1_556 S
C455 C450 1.390 . S
C455 C454 1.387 . S
H456 C468 0.930 . S
H457 C470 0.930 . S
H458 C471 0.930 . S
H459 C475 0.959 . S
H460 C475 0.959 . S
H461 C475 0.961 . S
H462 C476 0.960 . S
H463 C476 0.961 . S
H464 C476 0.959 . S
H465 C479 0.929 . S
H466 C480 0.931 . S
H467 C482 0.930 . S
C468 H456 0.930 . S
C468 C469 1.399 . S
C468 C473 1.399 . S
C469 C468 1.399 . S
C469 C470 1.376 1_554 S
C470 H457 0.930 . S
C470 C469 1.376 1_556 S
C470 C471 1.388 . S
C471 H458 0.930 . S
C471 C470 1.388 . S
C471 C472 1.390 . S
C472 C471 1.390 . S
C472 C473 1.394 1_556 S
C472 C478 1.465 . S
C473 C468 1.399 . S
C473 C472 1.394 1_554 S
C473 C474 1.516 . S
C474 C473 1.516 . S
C474 C475 1.502 . S
C474 C476 1.561 . S
C474 C477 1.526 . S
C475 H459 0.959 . S
C475 H460 0.959 . S
C475 H461 0.961 . S
C475 C474 1.502 . S
C476 H462 0.960 . S
C476 H463 0.961 . S
C476 H464 0.959 . S
C476 C474 1.561 . S
C477 C474 1.526 . S
C477 C478 1.396 1_554 S
C477 C482 1.390 . S
C478 C472 1.465 . S
C478 C477 1.396 1_556 S
C478 C479 1.399 . S
C479 H465 0.929 . S
C479 C478 1.399 . S
C479 C480 1.385 . S
C480 H466 0.931 . S
C480 C479 1.385 . S
C480 C481 1.388 1_556 S
C481 C480 1.388 1_554 S
C481 C482 1.388 . S
C482 H467 0.930 . S
C482 C477 1.390 . S
C482 C481 1.388 . S
H483 C495 0.930 . S
H484 C497 0.930 . S
H485 C498 0.930 1_554 S
H486 C502 0.959 . S
H487 C502 0.959 . S
H488 C502 0.961 . S
H489 C503 0.960 . S
H490 C503 0.961 . S
H491 C503 0.959 . S
H492 C506 0.929 . S
H493 C507 0.931 . S
H494 C509 0.930 . S
C495 H483 0.930 . S
C495 C496 1.399 . S
C495 C500 1.399 . S
C496 C495 1.399 . S
C496 C497 1.376 . S
C497 H484 0.930 . S
C497 C496 1.376 . S
C497 C498 1.388 . S
C498 H485 0.930 1_556 S
C498 C497 1.388 . S
C498 C499 1.390 . S
C499 C498 1.390 . S
C499 C500 1.394 . S
C499 C505 1.465 . S
C500 C495 1.399 . S
C500 C499 1.394 . S
C500 C501 1.516 . S
C501 C500 1.516 . S
C501 C502 1.502 . S
C501 C503 1.561 . S
C501 C504 1.526 . S
C502 H486 0.959 . S
C502 H487 0.959 . S
C502 H488 0.961 . S
C502 C501 1.502 . S
C503 H489 0.960 . S
C503 H490 0.961 . S
C503 H491 0.959 . S
C503 C501 1.561 . S
C504 C501 1.526 . S
C504 C505 1.396 . S
C504 C509 1.390 . S
C505 C499 1.465 . S
C505 C504 1.396 . S
C505 C506 1.399 1_556 S
C506 H492 0.929 . S
C506 C505 1.399 1_554 S
C506 C507 1.385 . S
C507 H493 0.931 . S
C507 C506 1.385 . S
C507 C508 1.389 1_554 S
C508 C507 1.389 1_556 S
C508 C509 1.387 . S
C509 H494 0.930 . S
C509 C504 1.390 . S
C509 C508 1.387 . S
H510 C522 0.930 . S
H511 C524 0.930 . S
H512 C525 0.930 . S
H513 C529 0.959 1_554 S
H514 C529 0.959 . S
H515 C529 0.961 . S
H516 C530 0.960 . S
H517 C530 0.961 . S
H518 C530 0.959 . S
H519 C533 0.929 . S
H520 C534 0.931 . S
H521 C536 0.930 . S
C522 H510 0.930 . S
C522 C523 1.399 . S
C522 C527 1.399 . S
C523 C522 1.399 . S
C523 C524 1.376 . S
C524 H511 0.930 . S
C524 C523 1.376 . S
C524 C525 1.388 . S
C525 H512 0.930 . S
C525 C524 1.388 . S
C525 C526 1.390 . S
C526 C525 1.390 . S
C526 C527 1.394 . S
C526 C532 1.465 . S
C527 C522 1.399 . S
C527 C526 1.394 . S
C527 C528 1.516 . S
C528 C527 1.516 . S
C528 C529 1.502 1_554 S
C528 C530 1.561 1_554 S
C528 C531 1.526 . S
C529 H513 0.959 1_556 S
C529 H514 0.959 . S
C529 H515 0.961 . S
C529 C528 1.502 1_556 S
C530 H516 0.960 . S
C530 H517 0.961 . S
C530 H518 0.959 . S
C530 C528 1.561 1_556 S
C531 C528 1.526 . S
C531 C532 1.396 . S
C531 C536 1.390 . S
C532 C526 1.465 . S
C532 C531 1.396 . S
C532 C533 1.399 . S
C533 H519 0.929 . S
C533 C532 1.399 . S
C533 C534 1.385 . S
C534 H520 0.931 . S
C534 C533 1.385 . S
C534 C535 1.389 . S
C535 C534 1.389 . S
C535 C536 1.387 . S
C536 H521 0.930 . S
C536 C531 1.390 . S
C536 C535 1.387 . S
H537 C549 0.930 . S
H538 C551 0.930 . S
H539 C552 0.930 . S
H540 C556 0.959 1_554 S
H541 C556 0.959 . S
H542 C556 0.961 . S
H543 C557 0.960 . S
H544 C557 0.961 . S
H545 C557 0.959 . S
H546 C560 0.929 . S
H547 C561 0.931 . S
H548 C563 0.930 . S
C549 H537 0.930 . S
C549 C550 1.399 . S
C549 C554 1.399 . S
C550 C549 1.399 . S
C550 C551 1.376 . S
C551 H538 0.930 . S
C551 C550 1.376 . S
C551 C552 1.388 . S
C552 H539 0.930 . S
C552 C551 1.388 . S
C552 C553 1.390 . S
C553 C552 1.390 . S
C553 C554 1.394 . S
C553 C559 1.465 . S
C554 C549 1.399 . S
C554 C553 1.394 . S
C554 C555 1.516 . S
C555 C554 1.516 . S
C555 C556 1.502 . S
C555 C557 1.561 . S
C555 C558 1.526 . S
C556 H540 0.959 1_556 S
C556 H541 0.959 . S
C556 H542 0.961 . S
C556 C555 1.502 . S
C557 H543 0.960 . S
C557 H544 0.961 . S
C557 H545 0.959 . S
C557 C555 1.561 . S
C558 C555 1.526 . S
C558 C559 1.396 . S
C558 C563 1.390 . S
C559 C553 1.465 . S
C559 C558 1.396 . S
C559 C560 1.399 . S
C560 H546 0.929 . S
C560 C559 1.399 . S
C560 C561 1.385 . S
C561 H547 0.931 . S
C561 C560 1.385 . S
C561 C562 1.389 . S
C562 C561 1.389 . S
C562 C563 1.387 . S
C563 H548 0.930 . S
C563 C558 1.390 . S
C563 C562 1.387 . S
H564 C576 0.930 . S
H565 C578 0.930 . S
H566 C579 0.930 . S
H567 C583 0.959 . S
H568 C583 0.959 . S
H569 C583 0.961 . S
H570 C584 0.960 . S
H571 C584 0.961 . S
H572 C584 0.959 . S
H573 C587 0.929 . S
H574 C588 0.931 . S
H575 C590 0.930 . S
C576 H564 0.930 . S
C576 C577 1.399 . S
C576 C581 1.399 . S
C577 C576 1.399 . S
C577 C578 1.376 . S
C578 H565 0.930 . S
C578 C577 1.376 . S
C578 C579 1.388 . S
C579 H566 0.930 . S
C579 C578 1.388 . S
C579 C580 1.390 . S
C580 C579 1.390 . S
C580 C581 1.394 . S
C580 C586 1.465 . S
C581 C576 1.399 . S
C581 C580 1.394 . S
C581 C582 1.516 . S
C582 C581 1.516 . S
C582 C583 1.502 . S
C582 C584 1.561 . S
C582 C585 1.526 . S
C583 H567 0.959 . S
C583 H568 0.959 . S
C583 H569 0.961 . S
C583 C582 1.502 . S
C584 H570 0.960 . S
C584 H571 0.961 . S
C584 H572 0.959 . S
C584 C582 1.561 . S
C585 C582 1.526 . S
C585 C586 1.396 . S
C585 C590 1.390 . S
C586 C580 1.465 . S
C586 C585 1.396 . S
C586 C587 1.399 . S
C587 H573 0.929 . S
C587 C586 1.399 . S
C587 C588 1.385 . S
C588 H574 0.931 . S
C588 C587 1.385 . S
C588 C589 1.389 . S
C589 C588 1.389 . S
C589 C590 1.387 . S
C590 H575 0.930 . S
C590 C585 1.390 . S
C590 C589 1.387 . S
H591 C603 0.930 . S
H592 C605 0.930 . S
H593 C606 0.930 . S
H594 C610 0.959 . S
H595 C610 0.959 . S
H596 C610 0.961 . S
H597 C611 0.960 . S
H598 C611 0.961 . S
H599 C611 0.959 . S
H600 C614 0.929 . S
H601 C615 0.931 . S
H602 C617 0.930 . S
C603 H591 0.930 . S
C603 C604 1.399 . S
C603 C608 1.399 . S
C604 C603 1.399 . S
C604 C605 1.376 . S
C605 H592 0.930 . S
C605 C604 1.376 . S
C605 C606 1.388 . S
C606 H593 0.930 . S
C606 C605 1.388 . S
C606 C607 1.390 . S
C607 C606 1.390 . S
C607 C608 1.394 . S
C607 C613 1.465 . S
C608 C603 1.399 . S
C608 C607 1.394 . S
C608 C609 1.516 . S
C609 C608 1.516 . S
C609 C610 1.502 . S
C609 C611 1.561 . S
C609 C612 1.526 . S
C610 H594 0.959 . S
C610 H595 0.959 . S
C610 H596 0.961 . S
C610 C609 1.502 . S
C611 H597 0.960 . S
C611 H598 0.961 . S
C611 H599 0.959 . S
C611 C609 1.561 . S
C612 C609 1.526 . S
C612 C613 1.396 . S
C612 C617 1.390 . S
C613 C607 1.465 . S
C613 C612 1.396 . S
C613 C614 1.399 . S
C614 H600 0.929 . S
C614 C613 1.399 . S
C614 C615 1.385 . S
C615 H601 0.931 . S
C615 C614 1.385 . S
C615 C616 1.389 . S
C616 C615 1.389 . S
C616 C617 1.387 . S
C617 H602 0.930 . S
C617 C612 1.390 . S
C617 C616 1.387 . S
H618 C630 0.930 . S
H619 C632 0.930 . S
H620 C633 0.930 . S
H621 C637 0.959 . S
H622 C637 0.959 . S
H623 C637 0.961 . S
H624 C638 0.960 . S
H625 C638 0.961 . S
H626 C638 0.959 . S
H627 C641 0.929 . S
H628 C642 0.931 . S
H629 C644 0.930 . S
C630 H618 0.930 . S
C630 C631 1.399 . S
C630 C635 1.399 . S
C631 C630 1.399 . S
C631 C632 1.376 . S
C632 H619 0.930 . S
C632 C631 1.376 . S
C632 C633 1.388 . S
C633 H620 0.930 . S
C633 C632 1.388 . S
C633 C634 1.390 . S
C634 C633 1.390 . S
C634 C635 1.394 . S
C634 C640 1.465 . S
C635 C630 1.399 . S
C635 C634 1.394 . S
C635 C636 1.516 . S
C636 C635 1.516 . S
C636 C637 1.502 . S
C636 C638 1.561 . S
C636 C639 1.526 . S
C637 H621 0.959 . S
C637 H622 0.959 . S
C637 H623 0.961 . S
C637 C636 1.502 . S
C638 H624 0.960 . S
C638 H625 0.961 . S
C638 H626 0.959 . S
C638 C636 1.561 . S
C639 C636 1.526 . S
C639 C640 1.396 . S
C639 C644 1.390 . S
C640 C634 1.465 . S
C640 C639 1.396 . S
C640 C641 1.399 . S
C641 H627 0.929 . S
C641 C640 1.399 . S
C641 C642 1.385 . S
C642 H628 0.931 . S
C642 C641 1.385 . S
C642 C643 1.389 . S
C643 C642 1.389 . S
C643 C644 1.387 . S
C644 H629 0.930 . S
C644 C639 1.390 . S
C644 C643 1.387 . S
H645 C657 0.930 . S
H646 C659 0.930 . S
H647 C660 0.930 . S
H648 C664 0.959 . S
H649 C664 0.959 . S
H650 C664 0.961 . S
H651 C665 0.960 . S
H652 C665 0.961 . S
H653 C665 0.959 . S
H654 C668 0.929 . S
H655 C669 0.931 . S
H656 C671 0.930 . S
C657 H645 0.930 . S
C657 C658 1.399 . S
C657 C662 1.399 . S
C658 C657 1.399 . S
C658 C659 1.376 . S
C659 H646 0.930 . S
C659 C658 1.376 . S
C659 C660 1.388 . S
C660 H647 0.930 . S
C660 C659 1.388 . S
C660 C661 1.390 . S
C661 C660 1.390 . S
C661 C662 1.394 . S
C661 C667 1.465 . S
C662 C657 1.399 . S
C662 C661 1.394 . S
C662 C663 1.516 . S
C663 C662 1.516 . S
C663 C664 1.502 . S
C663 C665 1.561 . S
C663 C666 1.526 . S
C664 H648 0.959 . S
C664 H649 0.959 . S
C664 H650 0.961 . S
C664 C663 1.502 . S
C665 H651 0.960 . S
C665 H652 0.961 . S
C665 H653 0.959 . S
C665 C663 1.561 . S
C666 C663 1.526 . S
C666 C667 1.396 . S
C666 C671 1.390 . S
C667 C661 1.465 . S
C667 C666 1.396 . S
C667 C668 1.399 . S
C668 H654 0.929 . S
C668 C667 1.399 . S
C668 C669 1.385 . S
C669 H655 0.931 . S
C669 C668 1.385 . S
C669 C670 1.389 . S
C670 C669 1.389 . S
C670 C671 1.387 . S
C671 H656 0.930 . S
C671 C666 1.390 . S
C671 C670 1.387 . S
H672 C684 0.930 . S
H673 C686 0.930 . S
H674 C687 0.930 . S
H675 C691 0.959 . S
H676 C691 0.959 . S
H677 C691 0.961 . S
H678 C692 0.960 . S
H679 C692 0.961 . S
H680 C692 0.959 . S
H681 C695 0.929 . S
H682 C696 0.931 . S
H683 C698 0.930 . S
C684 H672 0.930 . S
C684 C685 1.399 . S
C684 C689 1.399 . S
C685 C684 1.399 . S
C685 C686 1.376 . S
C686 H673 0.930 . S
C686 C685 1.376 . S
C686 C687 1.388 . S
C687 H674 0.930 . S
C687 C686 1.388 . S
C687 C688 1.390 . S
C688 C687 1.390 . S
C688 C689 1.394 . S
C688 C694 1.465 . S
C689 C684 1.399 . S
C689 C688 1.394 . S
C689 C690 1.516 . S
C690 C689 1.516 . S
C690 C691 1.502 . S
C690 C692 1.561 . S
C690 C693 1.526 . S
C691 H675 0.959 . S
C691 H676 0.959 . S
C691 H677 0.961 . S
C691 C690 1.502 . S
C692 H678 0.960 . S
C692 H679 0.961 . S
C692 H680 0.959 . S
C692 C690 1.561 . S
C693 C690 1.526 . S
C693 C694 1.396 . S
C693 C698 1.390 . S
C694 C688 1.465 . S
C694 C693 1.396 . S
C694 C695 1.399 . S
C695 H681 0.929 . S
C695 C694 1.399 . S
C695 C696 1.385 . S
C696 H682 0.931 . S
C696 C695 1.385 . S
C696 C697 1.389 . S
C697 C696 1.389 . S
C697 C698 1.387 . S
C698 H683 0.930 . S
C698 C693 1.390 . S
C698 C697 1.387 . S
H699 C711 0.930 . S
H700 C713 0.930 . S
H701 C714 0.930 . S
H702 C718 0.959 . S
H703 C718 0.959 . S
H704 C718 0.961 . S
H705 C719 0.960 . S
H706 C719 0.961 . S
H707 C719 0.959 . S
H708 C722 0.929 . S
H709 C723 0.931 . S
H710 C725 0.930 . S
C711 H699 0.930 . S
C711 C712 1.399 . S
C711 C716 1.399 . S
C712 C711 1.399 . S
C712 C713 1.376 . S
C713 H700 0.930 . S
C713 C712 1.376 . S
C713 C714 1.388 . S
C714 H701 0.930 . S
C714 C713 1.388 . S
C714 C715 1.390 . S
C715 C714 1.390 . S
C715 C716 1.394 . S
C715 C721 1.465 . S
C716 C711 1.399 . S
C716 C715 1.394 . S
C716 C717 1.516 . S
C717 C716 1.516 . S
C717 C718 1.502 . S
C717 C719 1.561 . S
C717 C720 1.526 . S
C718 H702 0.959 . S
C718 H703 0.959 . S
C718 H704 0.961 . S
C718 C717 1.502 . S
C719 H705 0.960 . S
C719 H706 0.961 . S
C719 H707 0.959 . S
C719 C717 1.561 . S
C720 C717 1.526 . S
C720 C721 1.396 . S
C720 C725 1.390 . S
C721 C715 1.465 . S
C721 C720 1.396 . S
C721 C722 1.399 . S
C722 H708 0.929 . S
C722 C721 1.399 . S
C722 C723 1.385 . S
C723 H709 0.931 . S
C723 C722 1.385 . S
C723 C724 1.389 . S
C724 C723 1.389 . S
C724 C725 1.387 . S
C725 H710 0.930 . S
C725 C720 1.390 . S
C725 C724 1.387 . S
C253 C210 3.708 . S
C265 C6 3.606 . S
C280 C10 3.575 . S
C292 C46 3.390 1_455 S
C307 C50 3.095 . S
C319 C90 3.100 . S
C334 C126 2.400 . S
C346 C86 2.268 . S
C361 C166 2.870 . S
C373 C130 3.266 . S
C388 C170 2.637 . S
C400 C206 2.547 . S
C415 C179 2.470 . S
C427 C15 2.380 . S
C442 C219 3.193 . S
C454 C55 3.184 . S
C469 C99 3.682 . S
C481 C19 3.721 . S
C496 C135 1.968 . S
C508 C59 2.083 1_556 S
C523 C175 0.864 . S
C535 C95 0.870 . S
C550 C139 1.245 . S
C562 C215 1.259 . S
C577 C9 0.639 . S
C589 C18 0.367 . S
C604 C49 0.569 . S
C616 C58 0.528 . S
C631 C98 0.457 . S
C643 C89 0.621 . S
C658 C129 0.483 . S
C670 C138 0.245 . S
C685 C178 0.514 . S
C697 C169 0.687 . S
C712 C209 0.491 . S
C724 C218 0.381 . S
