# Generated by pormake.
# Topology uki, (4)-cn, num edge types: 1
# Building blocks:
#     Node 0, Type 0, BuildingBlock: KUFVIS_clean_sbu_0, # of connection points: 4
#     Node 1, Type 0, BuildingBlock: KUFVIS_clean_sbu_0, # of connection points: 4
#     Node 2, Type 0, BuildingBlock: KUFVIS_clean_sbu_0, # of connection points: 4
#     Node 3, Type 0, BuildingBlock: KUFVIS_clean_sbu_0, # of connection points: 4
#     Node 4, Type 0, BuildingBlock: KUFVIS_clean_sbu_0, # of connection points: 4
#     Node 5, Type 0, BuildingBlock: KUFVIS_clean_sbu_0, # of connection points: 4
#     Node 6, Type 0, BuildingBlock: KUFVIS_clean_sbu_0, # of connection points: 4
#     Node 7, Type 0, BuildingBlock: KUFVIS_clean_sbu_0, # of connection points: 4
#     Node 8, Type 0, BuildingBlock: KUFVIS_clean_sbu_0, # of connection points: 4
#     Node 9, Type 0, BuildingBlock: KUFVIS_clean_sbu_0, # of connection points: 4
#     Node 10, Type 0, BuildingBlock: KUFVIS_clean_sbu_0, # of connection points: 4
#     Node 11, Type 0, BuildingBlock: KUFVIS_clean_sbu_0, # of connection points: 4
#     Node 12, Type 0, BuildingBlock: KUFVIS_clean_sbu_0, # of connection points: 4
#     Node 13, Type 0, BuildingBlock: KUFVIS_clean_sbu_0, # of connection points: 4
#     Node 14, Type 0, BuildingBlock: KUFVIS_clean_sbu_0, # of connection points: 4
#     Node 15, Type 0, BuildingBlock: KUFVIS_clean_sbu_0, # of connection points: 4
#     Edge 16, Type (0, 0), BuildingBlock: TEMPAE_clean_linker_10, # of connection points: 2
#     Edge 17, Type (0, 0), BuildingBlock: TEMPAE_clean_linker_10, # of connection points: 2
#     Edge 18, Type (0, 0), BuildingBlock: TEMPAE_clean_linker_10, # of connection points: 2
#     Edge 19, Type (0, 0), BuildingBlock: TEMPAE_clean_linker_10, # of connection points: 2
#     Edge 20, Type (0, 0), BuildingBlock: TEMPAE_clean_linker_10, # of connection points: 2
#     Edge 21, Type (0, 0), BuildingBlock: TEMPAE_clean_linker_10, # of connection points: 2
#     Edge 22, Type (0, 0), BuildingBlock: TEMPAE_clean_linker_10, # of connection points: 2
#     Edge 23, Type (0, 0), BuildingBlock: TEMPAE_clean_linker_10, # of connection points: 2
#     Edge 24, Type (0, 0), BuildingBlock: TEMPAE_clean_linker_10, # of connection points: 2
#     Edge 25, Type (0, 0), BuildingBlock: TEMPAE_clean_linker_10, # of connection points: 2
#     Edge 26, Type (0, 0), BuildingBlock: TEMPAE_clean_linker_10, # of connection points: 2
#     Edge 27, Type (0, 0), BuildingBlock: TEMPAE_clean_linker_10, # of connection points: 2
#     Edge 28, Type (0, 0), BuildingBlock: TEMPAE_clean_linker_10, # of connection points: 2
#     Edge 29, Type (0, 0), BuildingBlock: TEMPAE_clean_linker_10, # of connection points: 2
#     Edge 30, Type (0, 0), BuildingBlock: TEMPAE_clean_linker_10, # of connection points: 2
#     Edge 31, Type (0, 0), BuildingBlock: TEMPAE_clean_linker_10, # of connection points: 2
#     Edge 32, Type (0, 0), BuildingBlock: TEMPAE_clean_linker_10, # of connection points: 2
#     Edge 33, Type (0, 0), BuildingBlock: TEMPAE_clean_linker_10, # of connection points: 2
#     Edge 34, Type (0, 0), BuildingBlock: TEMPAE_clean_linker_10, # of connection points: 2
#     Edge 35, Type (0, 0), BuildingBlock: TEMPAE_clean_linker_10, # of connection points: 2
#     Edge 36, Type (0, 0), BuildingBlock: TEMPAE_clean_linker_10, # of connection points: 2
#     Edge 37, Type (0, 0), BuildingBlock: TEMPAE_clean_linker_10, # of connection points: 2
#     Edge 38, Type (0, 0), BuildingBlock: TEMPAE_clean_linker_10, # of connection points: 2
#     Edge 39, Type (0, 0), BuildingBlock: TEMPAE_clean_linker_10, # of connection points: 2
#     Edge 40, Type (0, 0), BuildingBlock: TEMPAE_clean_linker_10, # of connection points: 2
#     Edge 41, Type (0, 0), BuildingBlock: TEMPAE_clean_linker_10, # of connection points: 2
#     Edge 42, Type (0, 0), BuildingBlock: TEMPAE_clean_linker_10, # of connection points: 2
#     Edge 43, Type (0, 0), BuildingBlock: TEMPAE_clean_linker_10, # of connection points: 2
#     Edge 44, Type (0, 0), BuildingBlock: TEMPAE_clean_linker_10, # of connection points: 2
#     Edge 45, Type (0, 0), BuildingBlock: TEMPAE_clean_linker_10, # of connection points: 2
#     Edge 46, Type (0, 0), BuildingBlock: TEMPAE_clean_linker_10, # of connection points: 2
#     Edge 47, Type (0, 0), BuildingBlock: TEMPAE_clean_linker_10, # of connection points: 2
# Relax obj value: 0.140
# Max RMSD: 0.244
# Mean RMSD: 0.244
data_MOF--net-uki--node1-KUFVIS_clean_sbu_0--edge1-TEMPAE_clean_linker_10
_symmetry_space_group_name_H-M    P1
_symmetry_Int_Tables_number       1
_symmetry_cell_setting            triclinic
loop_
_symmetry_equiv_pos_as_xyz
'x, y, z'
_cell_length_a     31.405156
_cell_length_b     31.420878
_cell_length_c     68.57911
_cell_angle_alpha  89.992718
_cell_angle_beta   89.996917
_cell_angle_gamma 89.877216
loop_
_atom_site_label
_atom_site_type_symbol
_atom_site_fract_x
_atom_site_fract_y
_atom_site_fract_z
_atom_type_partial_charge
Mn0 Mn 0.0652 0.23906 0.29898 0.0
Mn1 Mn 0.02016 0.22417 0.34315 0.0
C2 C 0.99317 0.24734 0.30241 0.0
C3 C 0.10113 0.28378 0.27769 0.0
C4 C 0.04261 0.15209 0.31585 0.0
O5 O 0.11576 0.23813 0.31724 0.0
O6 O 0.08316 0.23077 0.34626 0.0
C7 C 0.03736 0.31012 0.35892 0.0
N8 N 0.00908 0.27908 0.35405 0.0
C9 C 0.94972 0.32347 0.36307 0.0
C10 C 0.97823 0.35578 0.36833 0.0
C11 C 0.02224 0.34906 0.36624 0.0
C12 C 0.96667 0.28523 0.35599 0.0
H13 H 0.07119 0.3053 0.35712 0.0
C14 C 0.11658 0.2353 0.33573 0.0
O15 O 0.10376 0.24267 0.27589 0.0
O16 O 0.07799 0.29848 0.29183 0.0
N17 N 0.95959 0.21755 0.34262 0.0
C18 C 0.93634 0.18316 0.33689 0.0
C19 C 0.89171 0.18485 0.33789 0.0
C20 C 0.87147 0.22165 0.34497 0.0
C21 C 0.8961 0.25618 0.35129 0.0
C22 C 0.94048 0.25249 0.35012 0.0
H23 H 0.95169 0.15487 0.33133 0.0
O24 O 0.01002 0.24248 0.2853 0.0
O25 O 0.01947 0.24997 0.3171 0.0
O26 O 0.05708 0.1748 0.30191 0.0
O27 O 0.02933 0.1669 0.33212 0.0
C28 C 0.87835 0.29431 0.35845 0.0
C29 C 0.90514 0.32794 0.36432 0.0
H30 H 0.96669 0.38596 0.37387 0.0
H31 H 0.04443 0.37393 0.37016 0.0
H32 H 0.87294 0.15799 0.33308 0.0
H33 H 0.83702 0.22304 0.3455 0.0
H34 H 0.84413 0.2982 0.3594 0.0
H35 H 0.89111 0.35721 0.36968 0.0
Mn36 Mn 0.22067 0.89547 0.71154 0.0
Mn37 Mn 0.19833 0.94886 0.67 0.0
C38 C 0.22804 0.96793 0.71081 0.0
C39 C 0.26966 0.85611 0.7295 0.0
C40 C 0.13105 0.92 0.69866 0.0
O41 O 0.21693 0.84886 0.69124 0.0
O42 O 0.20708 0.88735 0.66392 0.0
C43 C 0.28236 0.93873 0.65099 0.0
N44 N 0.25091 0.96449 0.65795 0.0
C45 C 0.29094 0.02732 0.64989 0.0
C46 C 0.32359 0.00146 0.64249 0.0
C47 C 0.31928 0.95698 0.64305 0.0
C48 C 0.25477 0.00734 0.65751 0.0
H49 H 0.2794 0.90452 0.6516 0.0
C50 C 0.21296 0.85199 0.67283 0.0
O51 O 0.22903 0.85245 0.73273 0.0
O52 O 0.28128 0.88202 0.71582 0.0
N53 N 0.18933 0.00872 0.67342 0.0
C54 C 0.15495 0.02921 0.68117 0.0
C55 C 0.15447 0.07386 0.68192 0.0
C56 C 0.18904 0.09702 0.67447 0.0
C57 C 0.22345 0.07531 0.66602 0.0
C58 C 0.22196 0.03076 0.66551 0.0
H59 H 0.12826 0.01167 0.68692 0.0
O60 O 0.22634 0.94785 0.7273 0.0
O61 O 0.22807 0.94464 0.69507 0.0
O62 O 0.15599 0.90393 0.71142 0.0
O63 O 0.14326 0.93524 0.6823 0.0
C64 C 0.25943 0.09608 0.65832 0.0
C65 C 0.29317 0.07211 0.65029 0.0
H66 H 0.35224 0.01539 0.63646 0.0
H67 H 0.34446 0.9368 0.63747 0.0
H68 H 0.12763 0.09037 0.68834 0.0
H69 H 0.1888 0.13145 0.67529 0.0
H70 H 0.26163 0.13047 0.65866 0.0
H71 H 0.32083 0.08843 0.64457 0.0
Mn72 Mn 0.92527 0.76448 0.29674 0.0
Mn73 Mn 0.9699 0.77895 0.34101 0.0
C74 C 0.99739 0.75699 0.30022 0.0
C75 C 0.88997 0.71951 0.27534 0.0
C76 C 0.94638 0.85135 0.31405 0.0
O77 O 0.87463 0.76445 0.31497 0.0
O78 O 0.90705 0.77115 0.34406 0.0
C79 C 0.95424 0.69235 0.35637 0.0
N80 N 0.98196 0.72401 0.35166 0.0
C81 C 0.0421 0.68052 0.36052 0.0
C82 C 0.01417 0.64758 0.36562 0.0
C83 C 0.97005 0.65353 0.36353 0.0
C84 C 0.02447 0.7186 0.35361 0.0
H85 H 0.92034 0.69659 0.35457 0.0
C86 C 0.87371 0.76659 0.33348 0.0
O87 O 0.88681 0.76061 0.2736 0.0
O88 O 0.91333 0.70501 0.28944 0.0
N89 N 0.03035 0.78665 0.34051 0.0
C90 C 0.05298 0.82152 0.33485 0.0
C91 C 0.09764 0.82059 0.33584 0.0
C92 C 0.11852 0.78404 0.3428 0.0
C93 C 0.09451 0.74899 0.34901 0.0
C94 C 0.05007 0.75193 0.34788 0.0
H95 H 0.03714 0.84961 0.32937 0.0
O96 O 0.98059 0.762 0.2831 0.0
O97 O 0.97102 0.75379 0.31485 0.0
O98 O 0.93252 0.82881 0.29992 0.0
O99 O 0.9597 0.8363 0.33027 0.0
C100 C 0.11293 0.71104 0.35602 0.0
C101 C 0.08675 0.67682 0.36175 0.0
H102 H 0.02625 0.61749 0.37102 0.0
H103 H 0.94831 0.62817 0.36732 0.0
H104 H 0.11593 0.84784 0.33109 0.0
H105 H 0.15299 0.78324 0.34331 0.0
H106 H 0.14721 0.70773 0.35694 0.0
H107 H 0.1013 0.64769 0.36699 0.0
Mn108 Mn 0.76881 0.09794 0.70678 0.0
Mn109 Mn 0.78807 0.03905 0.6667 0.0
C110 C 0.75584 0.0262 0.70771 0.0
C111 C 0.72161 0.14274 0.72293 0.0
C112 C 0.85657 0.06752 0.69502 0.0
O113 O 0.77878 0.14168 0.68552 0.0
O114 O 0.77931 0.0997 0.65892 0.0
C115 C 0.70348 0.04728 0.64801 0.0
N116 N 0.73514 0.02223 0.65531 0.0
C117 C 0.69484 0.95871 0.64882 0.0
C118 C 0.66211 0.98381 0.64097 0.0
C119 C 0.66641 0.02829 0.6406 0.0
C120 C 0.73117 0.97941 0.65587 0.0
H121 H 0.70632 0.08149 0.648 0.0
C122 C 0.77887 0.13636 0.66712 0.0
O123 O 0.76214 0.1438 0.72682 0.0
O124 O 0.70924 0.1166 0.70949 0.0
N125 N 0.79658 0.97965 0.67183 0.0
C126 C 0.8308 0.9599 0.68012 0.0
C127 C 0.83106 0.9154 0.68198 0.0
C128 C 0.79646 0.89156 0.67505 0.0
C129 C 0.7622 0.91241 0.66604 0.0
C130 C 0.76388 0.95684 0.66444 0.0
H131 H 0.85763 0.97786 0.68538 0.0
O132 O 0.75747 0.0481 0.72371 0.0
O133 O 0.75875 0.04758 0.69151 0.0
O134 O 0.83221 0.08415 0.70784 0.0
O135 O 0.84387 0.05376 0.67842 0.0
C136 C 0.72619 0.8909 0.65882 0.0
C137 C 0.6925 0.91404 0.65026 0.0
H138 H 0.63334 0.96931 0.63537 0.0
H139 H 0.6411 0.04791 0.63475 0.0
H140 H 0.85781 0.89955 0.68881 0.0
H141 H 0.79658 0.85727 0.67668 0.0
H142 H 0.7239 0.8566 0.65995 0.0
H143 H 0.66476 0.89718 0.64497 0.0
Mn144 Mn 0.06622 0.26547 0.95318 0.0
Mn145 Mn 0.00091 0.25817 0.91429 0.0
C146 C 0.99639 0.24673 0.95771 0.0
C147 C 0.11619 0.23235 0.97307 0.0
C148 C 0.02484 0.34198 0.93342 0.0
O149 O 0.10681 0.26715 0.93031 0.0
O150 O 0.06155 0.25647 0.90528 0.0
C151 C 0.02203 0.16965 0.90308 0.0
N152 N 0.99256 0.19932 0.9084 0.0
C153 C 0.93641 0.14733 0.90764 0.0
C154 C 0.96609 0.11634 0.90194 0.0
C155 C 0.00909 0.12755 0.89968 0.0
C156 C 0.95112 0.18885 0.91067 0.0
H157 H 0.05519 0.178 0.90157 0.0
C158 C 0.09905 0.26195 0.91225 0.0
O159 O 0.11399 0.27365 0.9722 0.0
O160 O 0.09037 0.211 0.96211 0.0
N161 N 0.94151 0.25903 0.92061 0.0
C162 C 0.91719 0.2923 0.92689 0.0
C163 C 0.87357 0.2861 0.93037 0.0
C164 C 0.85534 0.24591 0.9272 0.0
C165 C 0.88081 0.21239 0.92036 0.0
C166 C 0.92401 0.22056 0.91697 0.0
H167 H 0.93106 0.32318 0.92949 0.0
O168 O 0.01918 0.26004 0.97221 0.0
O169 O 0.01588 0.24263 0.94103 0.0
O170 O 0.04781 0.32644 0.94708 0.0
O171 O 0.00706 0.31942 0.92018 0.0
C172 C 0.86521 0.17097 0.91716 0.0
C173 C 0.89299 0.13847 0.91081 0.0
H174 H 0.9563 0.08375 0.89946 0.0
H175 H 0.03225 0.10373 0.89544 0.0
H176 H 0.85412 0.31214 0.93564 0.0
H177 H 0.8218 0.24111 0.93014 0.0
H178 H 0.832 0.16365 0.91976 0.0
H179 H 0.88073 0.10662 0.90864 0.0
Mn180 Mn 0.2611 0.94034 0.05295 0.0
Mn181 Mn 0.2605 0.00114 0.09346 0.0
C182 C 0.24987 0.01212 0.05035 0.0
C183 C 0.22392 0.89648 0.03166 0.0
C184 C 0.34149 0.97371 0.07321 0.0
O185 O 0.25653 0.89682 0.07449 0.0
O186 O 0.25758 0.93948 0.10086 0.0
C187 C 0.17204 0.98183 0.10541 0.0
N188 N 0.20226 0.0108 0.10032 0.0
C189 C 0.15185 0.06839 0.10264 0.0
C190 C 0.12029 0.0392 0.10807 0.0
C191 C 0.13044 0.99574 0.10946 0.0
C192 C 0.19283 0.0527 0.09894 0.0
H193 H 0.17957 0.94834 0.10629 0.0
C194 C 0.25609 0.90265 0.09283 0.0
O195 O 0.26522 0.89438 0.03278 0.0
O196 O 0.20481 0.92348 0.04294 0.0
N197 N 0.26304 0.06119 0.08886 0.0
C198 C 0.297 0.08514 0.08319 0.0
C199 C 0.29198 0.12927 0.0808 0.0
C200 C 0.25229 0.14834 0.08445 0.0
C201 C 0.21812 0.1232 0.09075 0.0
C202 C 0.22512 0.07944 0.09306 0.0
H203 H 0.32749 0.07062 0.08021 0.0
O204 O 0.26166 0.99004 0.03533 0.0
O205 O 0.24298 0.99106 0.06645 0.0
O206 O 0.32384 0.95131 0.05988 0.0
O207 O 0.32075 0.99344 0.08649 0.0
C208 C 0.1772 0.13971 0.09452 0.0
C209 C 0.14409 0.11233 0.10045 0.0
H210 H 0.08809 0.04976 0.11106 0.0
H211 H 0.10619 0.97299 0.11353 0.0
H212 H 0.31855 0.14847 0.07599 0.0
H213 H 0.24839 0.1823 0.08234 0.0
H214 H 0.17075 0.17337 0.09273 0.0
H215 H 0.11267 0.12535 0.10314 0.0
Mn216 Mn 0.93278 0.73727 0.95076 0.0
Mn217 Mn -0.00132 0.74045 0.91197 0.0
C218 C 0.0035 0.75223 0.95516 0.0
C219 C 0.88533 0.77169 0.97146 0.0
C220 C 0.97239 0.65848 0.93145 0.0
O221 O 0.89168 0.74012 0.92813 0.0
O222 O 0.93798 0.73985 0.90303 0.0
C223 C 0.97586 0.82744 0.89904 0.0
N224 N 0.00585 0.79891 0.905 0.0
C225 C 0.06089 0.852 0.90348 0.0
C226 C 0.03064 0.88186 0.89717 0.0
C227 C 0.98794 0.86952 0.89495 0.0
C228 C 0.04703 0.81045 0.90719 0.0
H229 H 0.94294 0.81821 0.89749 0.0
C230 C 0.90004 0.73995 0.90997 0.0
O231 O 0.88517 0.73044 0.96992 0.0
O232 O 0.912 0.79242 0.96066 0.0
N233 N 0.05812 0.74124 0.91815 0.0
C234 C 0.08312 0.70889 0.92487 0.0
C235 C 0.12657 0.71627 0.92831 0.0
C236 C 0.14394 0.75663 0.9246 0.0
C237 C 0.11779 0.78912 0.91727 0.0
C238 C 0.07478 0.7798 0.91398 0.0
H239 H 0.06987 0.67791 0.92789 0.0
O240 O 0.98044 0.73876 0.96955 0.0
O241 O 0.98407 0.75801 0.93856 0.0
O242 O 0.94731 0.67528 0.94399 0.0
O243 O 0.99355 0.67996 0.91893 0.0
C244 C 0.13251 0.83062 0.91346 0.0
C245 C 0.10409 0.86203 0.90657 0.0
H246 H 0.03977 0.91443 0.89414 0.0
H247 H 0.96436 0.89244 0.8902 0.0
H248 H 0.14655 0.69101 0.93394 0.0
H249 H 0.17735 0.76235 0.9275 0.0
H250 H 0.16554 0.83884 0.91598 0.0
H251 H 0.11569 0.89394 0.90389 0.0
Mn252 Mn 0.73854 0.05949 0.05474 0.0
Mn253 Mn 0.73962 0.99696 0.09467 0.0
C254 C 0.75149 0.98821 0.05152 0.0
C255 C 0.77501 0.10485 0.03389 0.0
C256 C 0.65856 0.02246 0.07408 0.0
O257 O 0.74179 0.10223 0.0766 0.0
O258 O 0.73927 0.05847 0.10256 0.0
C259 C 0.82644 0.02014 0.10766 0.0
N260 N 0.79794 0.98992 0.10204 0.0
C261 C 0.85097 0.93477 0.10455 0.0
C262 C 0.88078 0.96527 0.11051 0.0
C263 C 0.86845 0.00813 0.11206 0.0
C264 C 0.80948 0.94857 0.10049 0.0
H265 H 0.81727 0.05319 0.10869 0.0
C266 C 0.74073 0.09566 0.09487 0.0
O267 O 0.73366 0.10607 0.0349 0.0
O268 O 0.79455 0.07798 0.04506 0.0
N269 N 0.74026 0.937 0.08966 0.0
C270 C 0.70783 0.91158 0.08348 0.0
C271 C 0.71513 0.86784 0.08086 0.0
C272 C 0.75551 0.8506 0.08483 0.0
C273 C 0.78807 0.87719 0.09165 0.0
C274 C 0.77883 0.92049 0.09412 0.0
H275 H 0.67687 0.92472 0.08019 0.0
O276 O 0.73934 0.01069 0.03669 0.0
O277 O 0.75774 0.00863 0.06785 0.0
O278 O 0.67594 0.04678 0.06138 0.0
O279 O 0.67943 0.00206 0.08711 0.0
C280 C 0.82954 0.86255 0.09576 0.0
C281 C 0.86097 0.89132 0.1022 0.0
H282 H 0.91329 0.95618 0.1138 0.0
H283 H 0.89134 0.0319 0.11655 0.0
H284 H 0.68981 0.84753 0.07563 0.0
H285 H 0.76117 0.81695 0.08256 0.0
H286 H 0.83771 0.8293 0.09386 0.0
H287 H 0.89283 0.87975 0.10517 0.0
Mn288 Mn 0.59945 0.72083 0.78479 0.0
Mn289 Mn 0.54446 0.69869 0.82585 0.0
C290 C 0.52718 0.73058 0.78523 0.0
C291 C 0.64007 0.76906 0.76716 0.0
C292 C 0.5722 0.63162 0.79682 0.0
O293 O 0.64552 0.71524 0.80528 0.0
O294 O 0.60612 0.70531 0.83233 0.0
C295 C 0.55643 0.78145 0.8457 0.0
N296 N 0.52998 0.75117 0.83832 0.0
C297 C 0.46805 0.79271 0.84653 0.0
C298 C 0.49462 0.82416 0.85438 0.0
C299 C 0.539 0.8185 0.85395 0.0
C300 C 0.48723 0.75632 0.83864 0.0
H301 H 0.59058 0.77747 0.84521 0.0
C302 C 0.64185 0.7107 0.82365 0.0
O303 O 0.64295 0.72843 0.76379 0.0
O304 O 0.61443 0.78107 0.78091 0.0
N305 N 0.48444 0.69183 0.82201 0.0
C306 C 0.46321 0.65872 0.81363 0.0
C307 C 0.41857 0.65981 0.81257 0.0
C308 C 0.39618 0.69462 0.82035 0.0
C309 C 0.41861 0.72772 0.8294 0.0
C310 C 0.4631 0.72471 0.83017 0.0
H311 H 0.48015 0.63187 0.80761 0.0
O312 O 0.5476 0.72849 0.76883 0.0
O313 O 0.55011 0.72934 0.80107 0.0
O314 O 0.58941 0.65651 0.7844 0.0
O315 O 0.5568 0.64368 0.81317 0.0
C316 C 0.39863 0.7639 0.8374 0.0
C317 C 0.42333 0.79638 0.84595 0.0
H318 H 0.48132 0.85292 0.86063 0.0
H319 H 0.55972 0.84276 0.85986 0.0
H320 H 0.4015 0.634 0.80567 0.0
H321 H 0.36177 0.69561 0.8193 0.0
H322 H 0.36432 0.76725 0.8369 0.0
H323 H 0.40762 0.82424 0.85188 0.0
Mn324 Mn 0.72586 0.41195 0.2115 0.0
Mn325 Mn 0.73088 0.46511 0.16885 0.0
C326 C 0.74507 0.4822 0.21133 0.0
C327 C 0.76086 0.36854 0.23395 0.0
C328 C 0.64834 0.45068 0.1908 0.0
O329 O 0.7249 0.36457 0.19164 0.0
O330 O 0.7281 0.40233 0.16379 0.0
C331 C 0.81644 0.43498 0.15697 0.0
N332 N 0.78933 0.46765 0.16111 0.0
C333 C 0.84438 0.51939 0.15547 0.0
C334 C 0.87275 0.48631 0.15098 0.0
C335 C 0.85872 0.44393 0.15175 0.0
C336 C 0.80251 0.50856 0.16042 0.0
H337 H 0.80596 0.40232 0.15771 0.0
C338 C 0.7263 0.36702 0.17314 0.0
O339 O 0.71945 0.37014 0.23357 0.0
O340 O 0.78097 0.39141 0.22129 0.0
N341 N 0.73437 0.52578 0.17123 0.0
C342 C 0.70362 0.55395 0.1768 0.0
C343 C 0.71291 0.59763 0.17733 0.0
C344 C 0.75359 0.61197 0.17199 0.0
C345 C 0.78452 0.5825 0.16601 0.0
C346 C 0.77331 0.53937 0.16561 0.0
H347 H 0.67255 0.54313 0.18125 0.0
O348 O 0.73167 0.46431 0.2272 0.0
O349 O 0.74851 0.45785 0.19601 0.0
O350 O 0.66395 0.42867 0.20484 0.0
O351 O 0.67053 0.46495 0.17659 0.0
C352 C 0.82632 0.59415 0.16086 0.0
C353 C 0.85622 0.56262 0.15559 0.0
H354 H 0.90548 0.49306 0.14709 0.0
H355 H 0.8805 0.4182 0.14842 0.0
H356 H 0.6889 0.62015 0.18203 0.0
H357 H 0.76082 0.64563 0.17267 0.0
H358 H 0.83597 0.62722 0.16114 0.0
H359 H 0.88841 0.57194 0.15187 0.0
Mn360 Mn 0.39129 0.27266 0.78299 0.0
Mn361 Mn 0.45111 0.28966 0.82298 0.0
C362 C 0.46326 0.26026 0.78149 0.0
C363 C 0.34657 0.22608 0.76649 0.0
C364 C 0.42117 0.35977 0.79576 0.0
O365 O 0.34792 0.28092 0.80464 0.0
O366 O 0.39075 0.28011 0.83095 0.0
C367 C 0.44411 0.20385 0.84051 0.0
N368 N 0.4687 0.23612 0.83355 0.0
C369 C 0.5328 0.19587 0.83925 0.0
C370 C 0.50818 0.16248 0.84674 0.0
C371 C 0.46364 0.16647 0.84733 0.0
C372 C 0.51157 0.23247 0.83276 0.0
H373 H 0.40985 0.20648 0.8407 0.0
C374 C 0.35381 0.27992 0.82301 0.0
O375 O 0.34491 0.26679 0.76309 0.0
O376 O 0.37329 0.21319 0.77961 0.0
N377 N 0.51033 0.29882 0.81767 0.0
C378 C 0.52956 0.3337 0.80981 0.0
C379 C 0.57405 0.33443 0.80782 0.0
C380 C 0.59841 0.29961 0.81422 0.0
C381 C 0.57808 0.26461 0.8228 0.0
C382 C 0.53364 0.26584 0.82454 0.0
H383 H 0.51121 0.36074 0.80499 0.0
O384 O 0.44093 0.26279 0.76565 0.0
O385 O 0.44222 0.26198 0.79782 0.0
O386 O 0.40436 0.3362 0.78271 0.0
O387 O 0.43556 0.34605 0.81209 0.0
C388 C 0.60012 0.22835 0.82948 0.0
C389 C 0.57749 0.19395 0.83764 0.0
H390 H 0.5231 0.13348 0.8519 0.0
H391 H 0.44439 0.14066 0.85291 0.0
H392 H 0.5895 0.36173 0.80133 0.0
H393 H 0.63269 0.30014 0.81254 0.0
H394 H 0.63446 0.22643 0.82826 0.0
H395 H 0.59476 0.16603 0.84251 0.0
Mn396 Mn 0.26488 0.5895 0.21075 0.0
Mn397 Mn 0.25957 0.53358 0.16886 0.0
C398 C 0.24585 0.51923 0.21158 0.0
C399 C 0.23005 0.63426 0.23266 0.0
C400 C 0.3423 0.5497 0.19039 0.0
O401 O 0.26543 0.63554 0.19023 0.0
O402 O 0.26209 0.59601 0.1629 0.0
C403 C 0.17377 0.56259 0.15678 0.0
N404 N 0.20105 0.53031 0.1613 0.0
C405 C 0.14615 0.47801 0.15653 0.0
C406 C 0.11758 0.51067 0.15165 0.0
C407 C 0.13146 0.55314 0.1518 0.0
C408 C 0.18802 0.48932 0.16121 0.0
H409 H 0.18413 0.59532 0.15704 0.0
C410 C 0.26385 0.63189 0.17179 0.0
O411 O 0.27146 0.63272 0.23221 0.0
O412 O 0.20983 0.61053 0.22038 0.0
N413 N 0.25634 0.47308 0.17209 0.0
C414 C 0.28727 0.44542 0.17799 0.0
C415 C 0.27816 0.40175 0.17914 0.0
C416 C 0.23748 0.38691 0.1741 0.0
C417 C 0.20637 0.41585 0.16779 0.0
C418 C 0.2174 0.45898 0.16676 0.0
H419 H 0.31834 0.45664 0.1822 0.0
O420 O 0.2594 0.53817 0.22717 0.0
O421 O 0.24219 0.54258 0.19594 0.0
O422 O 0.32676 0.57253 0.20417 0.0
O423 O 0.32001 0.53446 0.17643 0.0
C424 C 0.16456 0.40371 0.1629 0.0
C425 C 0.13447 0.43476 0.15727 0.0
H426 H 0.08484 0.50355 0.14794 0.0
H427 H 0.10953 0.57855 0.14817 0.0
H428 H 0.30231 0.37964 0.18409 0.0
H429 H 0.23041 0.35328 0.17525 0.0
H430 H 0.15505 0.37063 0.16366 0.0
H431 H 0.10228 0.42508 0.15377 0.0
Mn432 Mn 0.55604 0.76097 0.44418 0.0
Mn433 Mn 0.49456 0.75629 0.40399 0.0
C434 C 0.4847 0.74802 0.44726 0.0
C435 C 0.6012 0.72628 0.46573 0.0
C436 C 0.52087 0.83917 0.42279 0.0
O437 O 0.59915 0.75548 0.42257 0.0
O438 O 0.55621 0.75374 0.39628 0.0
C439 C 0.51533 0.66749 0.39307 0.0
N440 N 0.48588 0.69754 0.39796 0.0
C441 C 0.42922 0.64617 0.39656 0.0
C442 C 0.4589 0.61476 0.39135 0.0
C443 C 0.50214 0.62549 0.38961 0.0
C444 C 0.44418 0.68758 0.39964 0.0
H445 H 0.54866 0.67545 0.39193 0.0
C446 C 0.59316 0.75333 0.40427 0.0
O447 O 0.60229 0.7675 0.46406 0.0
O448 O 0.57434 0.70587 0.45492 0.0
N449 N 0.43461 0.7581 0.40906 0.0
C450 C 0.41028 0.79171 0.41493 0.0
C451 C 0.36641 0.78602 0.41786 0.0
C452 C 0.34796 0.74595 0.41462 0.0
C453 C 0.3735 0.71204 0.40825 0.0
C454 C 0.41698 0.71972 0.40538 0.0
H455 H 0.42435 0.82245 0.41766 0.0
O456 O 0.50663 0.76185 0.46195 0.0
O457 O 0.50569 0.74067 0.43118 0.0
O458 O 0.54372 0.82283 0.43632 0.0
O459 O 0.50116 0.8172 0.40996 0.0
C460 C 0.3577 0.67071 0.40505 0.0
C461 C 0.38553 0.6378 0.39919 0.0
H462 H 0.44892 0.58225 0.38884 0.0
H463 H 0.52528 0.60137 0.38572 0.0
H464 H 0.34692 0.81234 0.42279 0.0
H465 H 0.31422 0.74154 0.41716 0.0
H466 H 0.32427 0.66376 0.40726 0.0
H467 H 0.37308 0.60604 0.39698 0.0
Mn468 Mn 0.76468 0.43561 0.54244 0.0
Mn469 Mn 0.75791 0.49644 0.58286 0.0
C470 C 0.74659 0.50606 0.53964 0.0
C471 C 0.73106 0.38817 0.52149 0.0
C472 C 0.84158 0.47335 0.56325 0.0
O473 O 0.76595 0.39255 0.56431 0.0
O474 O 0.75547 0.43494 0.59041 0.0
C475 C 0.66908 0.47561 0.59357 0.0
N476 N 0.69912 0.50511 0.58893 0.0
C477 C 0.64778 0.56192 0.59092 0.0
C478 C 0.6164 0.53219 0.59593 0.0
C479 C 0.6271 0.48884 0.59724 0.0
C480 C 0.68916 0.54689 0.5876 0.0
H481 H 0.67704 0.44221 0.59434 0.0
C482 C 0.76071 0.39827 0.58253 0.0
O483 O 0.77241 0.38985 0.52235 0.0
O484 O 0.70994 0.4132 0.53296 0.0
N485 N 0.75952 0.55642 0.57793 0.0
C486 C 0.7931 0.58081 0.57218 0.0
C487 C 0.78741 0.62481 0.56964 0.0
C488 C 0.7474 0.64332 0.57318 0.0
C489 C 0.71356 0.61772 0.57946 0.0
C490 C 0.72123 0.57412 0.58193 0.0
H491 H 0.82383 0.56674 0.56927 0.0
O492 O 0.7597 0.48486 0.52458 0.0
O493 O 0.74231 0.4847 0.55581 0.0
O494 O 0.82586 0.45239 0.549 0.0
O495 O 0.81913 0.48992 0.57689 0.0
C496 C 0.67228 0.63361 0.58295 0.0
C497 C 0.63942 0.60573 0.58868 0.0
H498 H 0.5839 0.54222 0.59861 0.0
H499 H 0.60298 0.46566 0.60095 0.0
H500 H 0.8137 0.64436 0.56481 0.0
H501 H 0.74298 0.67717 0.57095 0.0
H502 H 0.66532 0.66714 0.58104 0.0
H503 H 0.60768 0.61825 0.59109 0.0
Mn504 Mn 0.44078 0.23537 0.44385 0.0
Mn505 Mn 0.49837 0.23894 0.40243 0.0
C506 C 0.51256 0.2475 0.44542 0.0
C507 C 0.39793 0.27049 0.46628 0.0
C508 C 0.47317 0.15657 0.42199 0.0
O509 O 0.39564 0.2411 0.42312 0.0
O510 O 0.43607 0.24197 0.396 0.0
C511 C 0.47729 0.32785 0.39179 0.0
N512 N 0.50694 0.29758 0.3961 0.0
C513 C 0.56382 0.34849 0.39352 0.0
C514 C 0.53392 0.38011 0.38889 0.0
C515 C 0.49047 0.36973 0.38803 0.0
C516 C 0.54884 0.30721 0.39694 0.0
H517 H 0.44382 0.32016 0.39133 0.0
C518 C 0.3999 0.24288 0.40471 0.0
O519 O 0.39639 0.22929 0.46461 0.0
O520 O 0.42395 0.29069 0.45494 0.0
N521 N 0.55876 0.23663 0.4062 0.0
C522 C 0.5834 0.20276 0.41146 0.0
C523 C 0.62759 0.20806 0.41341 0.0
C524 C 0.64601 0.24799 0.4098 0.0
C525 C 0.62012 0.28215 0.40403 0.0
C526 C 0.57632 0.27486 0.40214 0.0
H527 H 0.56938 0.17212 0.41446 0.0
O528 O 0.49193 0.23416 0.4606 0.0
O529 O 0.49008 0.25497 0.42978 0.0
O530 O 0.45175 0.17337 0.43588 0.0
O531 O 0.49185 0.17814 0.4087 0.0
C532 C 0.63593 0.32335 0.40049 0.0
C533 C 0.60781 0.35649 0.39523 0.0
H534 H 0.54392 0.41254 0.38614 0.0
H535 H 0.46718 0.39403 0.38459 0.0
H536 H 0.64735 0.18153 0.41786 0.0
H537 H 0.68002 0.2521 0.41159 0.0
H538 H 0.6696 0.33001 0.40197 0.0
H539 H 0.62029 0.38814 0.39273 0.0
Mn540 Mn 0.23827 0.55726 0.54795 0.0
Mn541 Mn 0.24042 0.4922 0.58709 0.0
C542 C 0.25258 0.48629 0.54398 0.0
C543 C 0.27282 0.60401 0.52704 0.0
C544 C 0.1589 0.5193 0.56735 0.0
O545 O 0.24149 0.59874 0.57039 0.0
O546 O 0.24053 0.55306 0.59573 0.0
C547 C 0.3276 0.51385 0.60012 0.0
N548 N 0.29875 0.48422 0.59421 0.0
C549 C 0.35117 0.42837 0.59611 0.0
C550 C 0.38134 0.45824 0.60236 0.0
C551 C 0.36949 0.50116 0.60436 0.0
C552 C 0.30981 0.44282 0.59225 0.0
H553 H 0.31876 0.54694 0.60149 0.0
C554 C 0.2412 0.5908 0.58859 0.0
O555 O 0.23157 0.60447 0.52863 0.0
O556 O 0.29359 0.57732 0.53788 0.0
N557 N 0.24055 0.43265 0.58118 0.0
C558 C 0.20798 0.40805 0.57448 0.0
C559 C 0.21488 0.36444 0.57125 0.0
C560 C 0.255 0.3465 0.57512 0.0
C561 C 0.28773 0.37225 0.58242 0.0
C562 C 0.27889 0.41545 0.58551 0.0
H563 H 0.17718 0.42173 0.57132 0.0
O564 O 0.2394 0.50912 0.52943 0.0
O565 O 0.25846 0.50605 0.56048 0.0
O566 O 0.17616 0.54378 0.55474 0.0
O567 O 0.17997 0.49809 0.58002 0.0
C568 C 0.32903 0.35694 0.58639 0.0
C569 C 0.36072 0.38497 0.59324 0.0
H570 H 0.41377 0.44864 0.60551 0.0
H571 H 0.39266 0.52444 0.60907 0.0
H572 H 0.18943 0.34477 0.56564 0.0
H573 H 0.26036 0.31296 0.57237 0.0
H574 H 0.33688 0.32375 0.58402 0.0
H575 H 0.39247 0.37291 0.59604 0.0
C576 C 0.12932 0.35554 0.27031 0.0
C577 C 0.12358 0.31324 0.2645 0.0
C578 C 0.15013 0.3847 0.25826 0.0
C579 C 0.16505 0.37142 0.23975 0.0
C580 C 0.15896 0.32886 0.23362 0.0
C581 C 0.13856 0.29999 0.24621 0.0
C582 C 0.15651 0.4297 0.2655 0.0
C583 C 0.17391 0.314 0.21383 0.0
C584 C 0.18517 0.46922 0.20951 0.0
C585 C 0.22814 0.47642 0.21363 0.0
C586 C 0.16503 0.43202 0.21597 0.0
C587 C 0.18824 0.40247 0.22742 0.0
C588 C 0.23242 0.40837 0.23042 0.0
C589 C 0.25177 0.44558 0.2236 0.0
C590 C 0.11809 0.42638 0.21211 0.0
C591 C 0.25832 0.37787 0.24264 0.0
H592 H 0.11797 0.36587 0.28447 0.0
H593 H 0.13384 0.26731 0.24164 0.0
H594 H 0.19098 0.43736 0.26586 0.0
H595 H 0.14102 0.45259 0.25542 0.0
H596 H 0.14321 0.43468 0.28034 0.0
H597 H 0.16542 0.28027 0.21098 0.0
H598 H 0.1597 0.33419 0.20225 0.0
H599 H 0.20897 0.31742 0.2127 0.0
H600 H 0.16671 0.49381 0.2023 0.0
H601 H 0.28492 0.45175 0.22701 0.0
H602 H 0.09992 0.43315 0.22564 0.0
H603 H 0.11118 0.39308 0.2078 0.0
H604 H 0.10652 0.44811 0.20047 0.0
H605 H 0.25052 0.38279 0.25826 0.0
H606 H 0.29308 0.3828 0.24067 0.0
H607 H 0.2506 0.3444 0.23898 0.0
C608 C 0.46681 0.7792 0.79186 0.0
C609 C 0.48162 0.74028 0.78467 0.0
C610 C 0.42622 0.79423 0.78678 0.0
C611 C 0.40078 0.77019 0.77376 0.0
C612 C 0.41438 0.72919 0.76785 0.0
C613 C 0.45502 0.71499 0.77317 0.0
C614 C 0.41261 0.83776 0.79368 0.0
C615 C 0.38825 0.7023 0.75412 0.0
C616 C 0.29151 0.8104 0.75797 0.0
C617 C 0.30206 0.83272 0.74091 0.0
C618 C 0.32326 0.78987 0.76904 0.0
C619 C 0.36615 0.79162 0.76275 0.0
C620 C 0.37669 0.81373 0.74542 0.0
C621 C 0.34459 0.834 0.73479 0.0
C622 C 0.3111 0.76661 0.78747 0.0
C623 C 0.42203 0.81615 0.73806 0.0
H624 H 0.48799 0.79912 0.80035 0.0
H625 H 0.467 0.68509 0.76744 0.0
H626 H 0.41686 0.86104 0.78166 0.0
H627 H 0.37846 0.83787 0.79778 0.0
H628 H 0.43172 0.84855 0.80638 0.0
H629 H 0.39866 0.66848 0.7543 0.0
H630 H 0.35395 0.70384 0.75789 0.0
H631 H 0.39193 0.71463 0.73905 0.0
H632 H 0.25866 0.80947 0.76278 0.0
H633 H 0.35299 0.851 0.72159 0.0
H634 H 0.32835 0.78034 0.8001 0.0
H635 H 0.32071 0.73269 0.78642 0.0
H636 H 0.27634 0.76824 0.7904 0.0
H637 H 0.44263 0.83135 0.74919 0.0
H638 H 0.42471 0.83459 0.72429 0.0
H639 H 0.43463 0.78363 0.73544 0.0
C640 C 0.73923 0.55657 0.22236 0.0
C641 C 0.76278 0.52514 0.21274 0.0
C642 C 0.75867 0.59411 0.22873 0.0
C643 C 0.80285 0.59978 0.22562 0.0
C644 C 0.82591 0.56964 0.21443 0.0
C645 C 0.80571 0.53211 0.20844 0.0
C646 C 0.7329 0.62521 0.24068 0.0
C647 C 0.87283 0.57503 0.21044 0.0
C648 C 0.85276 0.70264 0.24386 0.0
C649 C 0.86765 0.6898 0.26223 0.0
C650 C 0.8324 0.67348 0.23139 0.0
C651 C 0.8262 0.63108 0.23774 0.0
C652 C 0.84106 0.61822 0.25633 0.0
C653 C 0.86187 0.64763 0.26824 0.0
C654 C 0.81757 0.68786 0.21152 0.0
C655 C 0.83456 0.57342 0.26382 0.0
H656 H 0.70611 0.55061 0.22591 0.0
H657 H 0.82411 0.50711 0.2015 0.0
H658 H 0.74062 0.62083 0.25635 0.0
H659 H 0.74079 0.6585 0.23676 0.0
H660 H 0.69812 0.62037 0.23873 0.0
H661 H 0.88421 0.5529 0.19892 0.0
H662 H 0.8798 0.60817 0.20588 0.0
H663 H 0.89112 0.56861 0.22397 0.0
H664 H 0.85753 0.73521 0.23914 0.0
H665 H 0.87314 0.63763 0.28246 0.0
H666 H 0.78247 0.68483 0.21043 0.0
H667 H 0.8315 0.66713 0.20006 0.0
H668 H 0.82645 0.7214 0.20843 0.0
H669 H 0.80007 0.56585 0.26421 0.0
H670 H 0.8478 0.56881 0.2787 0.0
H671 H 0.85004 0.55024 0.25388 0.0
C672 C 0.5253 0.21258 0.78577 0.0
C673 C 0.50893 0.2519 0.7799 0.0
C674 C 0.56616 0.19975 0.77995 0.0
C675 C 0.5904 0.22663 0.76763 0.0
C676 C 0.57516 0.26788 0.76307 0.0
C677 C 0.53414 0.2797 0.76897 0.0
C678 C 0.58141 0.15574 0.78534 0.0
C679 C 0.60018 0.29786 0.75029 0.0
C680 C 0.70011 0.1889 0.75126 0.0
C681 C 0.6898 0.168 0.73381 0.0
C682 C 0.6683 0.2091 0.76241 0.0
C683 C 0.62553 0.20811 0.75588 0.0
C684 C 0.61541 0.18822 0.73796 0.0
C685 C 0.64762 0.16855 0.72718 0.0
C686 C 0.68016 0.23043 0.78135 0.0
C687 C 0.57025 0.18669 0.73033 0.0
H688 H 0.50518 0.19082 0.79386 0.0
H689 H 0.52095 0.30995 0.76428 0.0
H690 H 0.57828 0.13444 0.77251 0.0
H691 H 0.61548 0.15631 0.78956 0.0
H692 H 0.56264 0.14204 0.79755 0.0
H693 H 0.58879 0.33121 0.75179 0.0
H694 H 0.6346 0.29666 0.75387 0.0
H695 H 0.59649 0.28819 0.73482 0.0
H696 H 0.7327 0.18848 0.75645 0.0
H697 H 0.63946 0.15278 0.71363 0.0
H698 H 0.66648 0.21231 0.79372 0.0
H699 H 0.66661 0.26303 0.78197 0.0
H700 H 0.7152 0.23235 0.78336 0.0
H701 H 0.54956 0.16963 0.74085 0.0
H702 H 0.56797 0.1704 0.71599 0.0
H703 H 0.55742 0.21942 0.72871 0.0
C704 C 0.19469 0.0684 0.04977 0.0
C705 C 0.23719 0.05646 0.04714 0.0
C706 C 0.17896 0.10598 0.04138 0.0
C707 C 0.20623 0.13116 0.02966 0.0
C708 C 0.25017 0.12134 0.0287 0.0
C709 C 0.26501 0.0836 0.03722 0.0
C710 C 0.13211 0.11588 0.04319 0.0
C711 C 0.28054 0.1478 0.01676 0.0
C712 C 0.1539 0.16666 0.98286 0.0
C713 C 0.14453 0.20943 0.98665 0.0
C714 C 0.17513 0.14152 0.99656 0.0
C715 C 0.1873 0.15954 0.01465 0.0
C716 C 0.17978 0.20329 0.01828 0.0
C717 C 0.15842 0.22791 0.00414 0.0
C718 C 0.18303 0.09512 0.99189 0.0
C719 C 0.19246 0.22358 0.03735 0.0
H720 H 0.17304 0.04682 0.05709 0.0
H721 H 0.29787 0.07394 0.03509 0.0
H722 H 0.12696 0.15047 0.04536 0.0
H723 H 0.11568 0.10656 0.02951 0.0
H724 H 0.11726 0.09836 0.0555 0.0
H725 H 0.31416 0.14203 0.02107 0.0
H726 H 0.27703 0.13935 0.00113 0.0
H727 H 0.27339 0.18222 0.0183 0.0
H728 H 0.14356 0.1524 0.96926 0.0
H729 H 0.15094 0.26096 0.00715 0.0
H730 H 0.16552 0.07471 0.00237 0.0
H731 H 0.2174 0.08756 0.99333 0.0
H732 H 0.17271 0.08657 0.9769 0.0
H733 H 0.16963 0.21391 0.04887 0.0
H734 H 0.19233 0.25887 0.03641 0.0
H735 H 0.22454 0.21273 0.04199 0.0
C736 C 0.15564 0.86336 0.02218 0.0
C737 C 0.19876 0.87019 0.0181 0.0
C738 C 0.12949 0.84151 0.00911 0.0
C739 C 0.14672 0.82652 0.99131 0.0
C740 C 0.19046 0.83267 0.98715 0.0
C741 C 0.21621 0.85424 0.00074 0.0
C742 C 0.08314 0.83507 0.01431 0.0
C743 C 0.20962 0.81743 0.96821 0.0
C744 C 0.07378 0.7431 0.97075 0.0
C745 C 0.04624 0.76822 0.95956 0.0
C746 C 0.10992 0.76079 0.97951 0.0
C747 C 0.11801 0.80482 0.9773 0.0
C748 C 0.09204 0.82952 0.96473 0.0
C749 C 0.05589 0.81103 0.95627 0.0
C750 C 0.13665 0.7333 0.9928 0.0
C751 C 0.10001 0.87639 0.96171 0.0
H752 H 0.14213 0.87537 0.03566 0.0
H753 H 0.24953 0.85981 0.99752 0.0
H754 H 0.06257 0.8514 0.00347 0.0
H755 H 0.07515 0.80071 0.0139 0.0
H756 H 0.07521 0.84757 0.02902 0.0
H757 H 0.2445 0.82305 0.96754 0.0
H758 H 0.20352 0.78294 0.96623 0.0
H759 H 0.19426 0.83415 0.95581 0.0
H760 H 0.06572 0.71009 0.9735 0.0
H761 H 0.03379 0.83066 0.94808 0.0
H762 H 0.12797 0.74001 0.00818 0.0
H763 H 0.17099 0.74048 0.99105 0.0
H764 H 0.13152 0.69887 0.98999 0.0
H765 H 0.09077 0.8941 0.97506 0.0
H766 H 0.0814 0.88927 0.94925 0.0
H767 H 0.13432 0.88237 0.95907 0.0
C768 C 0.85083 0.83825 0.98251 0.0
C769 C 0.85848 0.79488 0.98556 0.0
C770 C 0.83005 0.86292 0.99654 0.0
C771 C 0.81684 0.84383 0.01425 0.0
C772 C 0.82321 0.79968 0.01724 0.0
C773 C 0.84391 0.77553 0.00274 0.0
C774 C 0.82327 0.9098 0.99256 0.0
C775 C 0.80976 0.77839 0.03597 0.0
C776 C 0.80731 0.93248 0.05064 0.0
C777 C 0.76479 0.94421 0.04787 0.0
C778 C 0.82371 0.89568 0.04181 0.0
C779 C 0.79715 0.87125 0.02942 0.0
C780 C 0.75319 0.88082 0.0282 0.0
C781 C 0.73763 0.9176 0.03728 0.0
C782 C 0.8705 0.88587 0.04393 0.0
C783 C 0.72361 0.85537 0.0154 0.0
H784 H 0.8618 0.85321 0.96918 0.0
H785 H 0.85017 0.74201 0.00519 0.0
H786 H 0.78901 0.91795 0.99391 0.0
H787 H 0.84085 0.92903 0.00347 0.0
H788 H 0.83424 0.91924 0.97778 0.0
H789 H 0.81083 0.74314 0.03482 0.0
H790 H 0.8314 0.78833 0.04791 0.0
H791 H 0.77709 0.78829 0.04017 0.0
H792 H 0.82847 0.95369 0.05847 0.0
H793 H 0.70478 0.92714 0.03503 0.0
H794 H 0.8876 0.89663 0.03066 0.0
H795 H 0.87578 0.85112 0.04545 0.0
H796 H 0.88455 0.90226 0.05676 0.0
H797 H 0.72827 0.86498 -3e-05 0.0
H798 H 0.6897 0.86089 0.01929 0.0
H799 H 0.73058 0.82083 0.01649 0.0
C800 C 0.84255 0.13977 0.02479 0.0
C801 C 0.7998 0.13165 0.02042 0.0
C802 C 0.86876 0.16129 0.01164 0.0
C803 C 0.85196 0.17466 0.99348 0.0
C804 C 0.80849 0.16753 0.9891 0.0
C805 C 0.78266 0.14625 0.00276 0.0
C806 C 0.9148 0.16886 0.01709 0.0
C807 C 0.78976 0.18114 0.96981 0.0
C808 C 0.92532 0.25677 0.97228 0.0
C809 C 0.95349 0.23094 0.9618 0.0
C810 C 0.88873 0.23965 0.98088 0.0
C811 C 0.88096 0.19544 0.97931 0.0
C812 C 0.90765 0.1699 0.96741 0.0
C813 C 0.94416 0.18789 0.95905 0.0
C814 C 0.86116 0.26804 0.99338 0.0
C815 C 0.90004 0.12279 0.96509 0.0
H816 H 0.85576 0.12879 0.03851 0.0
H817 H 0.74964 0.13966 0.99932 0.0
H818 H 0.93602 0.15195 0.00672 0.0
H819 H 0.92231 0.20328 0.01615 0.0
H820 H 0.92232 0.15771 0.03207 0.0
H821 H 0.75478 0.1762 0.96922 0.0
H822 H 0.79664 0.21521 0.96701 0.0
H823 H 0.80477 0.16266 0.95785 0.0
H824 H 0.93316 0.28999 0.97461 0.0
H825 H 0.96674 0.16777 0.9514 0.0
H826 H 0.86932 0.26293 0.00895 0.0
H827 H 0.82697 0.2603 0.9915 0.0
H828 H 0.86603 0.30223 0.9899 0.0
H829 H 0.90885 0.10618 0.9788 0.0
H830 H 0.9192 0.10908 0.953 0.0
H831 H 0.86587 0.1164 0.96227 0.0
C832 C 0.68464 0.79026 0.73829 0.0
C833 C 0.6633 0.8011 0.75558 0.0
C834 C 0.70408 0.82183 0.72677 0.0
C835 C 0.70203 0.86486 0.73282 0.0
C836 C 0.68121 0.87566 0.75045 0.0
C837 C 0.66217 0.8437 0.76157 0.0
C838 C 0.72619 0.80936 0.70808 0.0
C839 C 0.67854 0.92117 0.75755 0.0
C840 C 0.77464 0.95529 0.72029 0.0
C841 C 0.74751 0.98057 0.709 0.0
C842 C 0.76237 0.91445 0.72613 0.0
C843 C 0.72137 0.89946 0.72109 0.0
C844 C 0.69532 0.92363 0.70832 0.0
C845 C 0.70854 0.96437 0.70262 0.0
C846 C 0.79141 0.88959 0.73948 0.0
C847 C 0.65166 0.90854 0.70238 0.0
H848 H 0.68547 0.75734 0.73359 0.0
H849 H 0.64596 0.8523 0.77496 0.0
H850 H 0.70987 0.82444 0.6955 0.0
H851 H 0.75946 0.82115 0.70812 0.0
H852 H 0.72659 0.77435 0.70586 0.0
H853 H 0.66128 0.92403 0.77163 0.0
H854 H 0.711 0.93437 0.75947 0.0
H855 H 0.66191 0.94114 0.74658 0.0
H856 H 0.80459 0.96837 0.72537 0.0
H857 H 0.68728 0.98457 0.69425 0.0
H858 H 0.79046 0.85512 0.73605 0.0
H859 H 0.78061 0.89368 0.75477 0.0
H860 H 0.82489 0.90078 0.73844 0.0
H861 H 0.65231 0.87426 0.69855 0.0
H862 H 0.6391 0.9268 0.68974 0.0
H863 H 0.62935 0.91262 0.71479 0.0
C864 C 0.93298 0.29649 0.30845 0.0
C865 C 0.94733 0.2558 0.30344 0.0
C866 C 0.89259 0.31057 0.30246 0.0
C867 C 0.86704 0.28359 0.29077 0.0
C868 C 0.87899 0.24049 0.2883 0.0
C869 C 0.91955 0.22733 0.2943 0.0
C870 C 0.88018 0.35619 0.3062 0.0
C871 C 0.85187 0.21005 0.27673 0.0
C872 C 0.76786 0.32874 0.2658 0.0
C873 C 0.7855 0.34324 0.24822 0.0
C874 C 0.7936 0.3085 0.27991 0.0
C875 C 0.83771 0.30307 0.27625 0.0
C876 C 0.85509 0.31662 0.25822 0.0
C877 C 0.82881 0.3363 0.24452 0.0
C878 C 0.77379 0.29446 0.29888 0.0
C879 C 0.90183 0.31113 0.25342 0.0
H880 H 0.95474 0.31862 0.31534 0.0
H881 H 0.93087 0.19578 0.29044 0.0
H882 H 0.88795 0.3756 0.29315 0.0
H883 H 0.84547 0.35896 0.30889 0.0
H884 H 0.89764 0.36954 0.31889 0.0
H885 H 0.85974 0.17642 0.28026 0.0
H886 H 0.81752 0.21561 0.27957 0.0
H887 H 0.85768 0.21512 0.26094 0.0
H888 H 0.7344 0.33426 0.26876 0.0
H889 H 0.84258 0.34697 0.23087 0.0
H890 H 0.77876 0.31957 0.31001 0.0
H891 H 0.7886 0.26471 0.3044 0.0
H892 H 0.73895 0.28941 0.29731 0.0
H893 H 0.92163 0.32799 0.26435 0.0
H894 H 0.91006 0.32365 0.23875 0.0
H895 H 0.91062 0.27694 0.25389 0.0
C896 C 0.27437 0.02995 0.70454 0.0
C897 C 0.23554 0.01384 0.71114 0.0
C898 C 0.28719 0.0712 0.70961 0.0
C899 C 0.26086 0.09609 0.72196 0.0
C900 C 0.21982 0.08125 0.72703 0.0
C901 C 0.20799 0.03983 0.72187 0.0
C902 C 0.33093 0.08602 0.70363 0.0
C903 C 0.19034 0.10698 0.73982 0.0
C904 C 0.32058 0.15242 0.76207 0.0
C905 C 0.32111 0.19465 0.75554 0.0
C906 C 0.30053 0.12051 0.75133 0.0
C907 C 0.28019 0.13096 0.73354 0.0
C908 C 0.27931 0.17376 0.72707 0.0
C909 C 0.2999 0.2053 0.7382 0.0
C910 C 0.302 0.0753 0.75891 0.0
C911 C 0.25759 0.18592 0.70824 0.0
H912 H 0.29597 0.00929 0.69659 0.0
H913 H 0.1781 0.0269 0.72711 0.0
H914 H 0.33039 0.12012 0.69949 0.0
H915 H 0.35308 0.08242 0.71614 0.0
H916 H 0.34362 0.06719 0.6912 0.0
H917 H 0.15686 0.09595 0.73853 0.0
H918 H 0.20033 0.10352 0.75526 0.0
H919 H 0.19174 0.14127 0.73605 0.0
H920 H 0.33658 0.144 0.77555 0.0
H921 H 0.30034 0.23793 0.73308 0.0
H922 H 0.31842 0.05444 0.74823 0.0
H923 H 0.26922 0.06292 0.76084 0.0
H924 H 0.31891 0.07274 0.7731 0.0
H925 H 0.27517 0.17194 0.69575 0.0
H926 H 0.256 0.22097 0.70623 0.0
H927 H 0.22481 0.17287 0.7078 0.0
C928 C 0.07108 0.7771 0.29223 0.0
C929 C 0.04322 0.74855 0.30127 0.0
C930 C 0.11172 0.764 0.28631 0.0
C931 C 0.12367 0.7209 0.28876 0.0
C932 C 0.098 0.69383 0.30035 0.0
C933 C 0.05755 0.70783 0.30626 0.0
C934 C 0.13898 0.79455 0.27487 0.0
C935 C 0.11039 0.64818 0.30406 0.0
C936 C 0.16241 0.66785 0.24269 0.0
C937 C 0.20554 0.66044 0.24662 0.0
C938 C 0.13606 0.68799 0.25623 0.0
C939 C 0.1532 0.70151 0.2743 0.0
C940 C 0.1972 0.69578 0.27815 0.0
C941 C 0.223 0.67509 0.2642 0.0
C942 C 0.08946 0.69381 0.25123 0.0
C943 C 0.21678 0.70986 0.29716 0.0
H944 H 0.05979 0.80867 0.28839 0.0
H945 H 0.03572 0.68564 0.31307 0.0
H946 H 0.1733 0.78892 0.27776 0.0
H947 H 0.13333 0.78966 0.25905 0.0
H948 H 0.1311 0.82814 0.27845 0.0
H949 H 0.09267 0.63467 0.31664 0.0
H950 H 0.10298 0.6289 0.29093 0.0
H951 H 0.14504 0.64545 0.30692 0.0
H952 H 0.14882 0.65709 0.22902 0.0
H953 H 0.25633 0.66922 0.26733 0.0
H954 H 0.08089 0.72806 0.25167 0.0
H955 H 0.06933 0.67707 0.26207 0.0
H956 H 0.08144 0.68138 0.23651 0.0
H957 H 0.20186 0.73957 0.30265 0.0
H958 H 0.25162 0.71497 0.29564 0.0
H959 H 0.21178 0.68472 0.30828 0.0
C960 C 0.68757 0.55827 0.53962 0.0
C961 C 0.73067 0.54934 0.53661 0.0
C962 C 0.66923 0.59536 0.53195 0.0
C963 C 0.69445 0.62301 0.52044 0.0
C964 C 0.73882 0.61585 0.51887 0.0
C965 C 0.75632 0.57865 0.52678 0.0
C966 C 0.62199 0.6024 0.53435 0.0
C967 C 0.76694 0.64466 0.5069 0.0
C968 C 0.63842 0.66006 0.47486 0.0
C969 C 0.62871 0.70245 0.47926 0.0
C970 C 0.66072 0.63451 0.48801 0.0
C971 C 0.67325 0.65161 0.50623 0.0
C972 C 0.66463 0.69482 0.51063 0.0
C973 C 0.64256 0.72001 0.49694 0.0
C974 C 0.66991 0.58876 0.48252 0.0
C975 C 0.67724 0.71387 0.52997 0.0
H976 H 0.66762 0.5349 0.5468 0.0
H977 H 0.78963 0.57121 0.5243 0.0
H978 H 0.61509 0.63637 0.5374 0.0
H979 H 0.60548 0.59381 0.52059 0.0
H980 H 0.60862 0.58269 0.54632 0.0
H981 H 0.80112 0.64031 0.5106 0.0
H982 H 0.76264 0.63718 0.49121 0.0
H983 H 0.75823 0.67855 0.50908 0.0
H984 H 0.62806 0.6466 0.46109 0.0
H985 H 0.63472 0.75277 0.50039 0.0
H986 H 0.65344 0.567 0.49277 0.0
H987 H 0.70455 0.58221 0.4836 0.0
H988 H 0.65933 0.58106 0.46747 0.0
H989 H 0.65677 0.70053 0.54165 0.0
H990 H 0.67376 0.74906 0.53006 0.0
H991 H 0.71064 0.70555 0.53365 0.0
C992 C 0.66538 0.35067 0.51167 0.0
C993 C 0.7079 0.36065 0.50768 0.0
C994 C 0.64033 0.32903 0.4981 0.0
C995 C 0.65812 0.31723 0.4799 0.0
C996 C 0.70153 0.32589 0.47595 0.0
C997 C 0.72612 0.34747 0.49 0.0
C998 C 0.59434 0.31989 0.5031 0.0
C999 C 0.72144 0.31394 0.45668 0.0
C1000 C 0.58529 0.23586 0.45801 0.0
C1001 C 0.55637 0.26228 0.44826 0.0
C1002 C 0.62243 0.25257 0.46631 0.0
C1003 C 0.62999 0.29689 0.4652 0.0
C1004 C 0.60304 0.32283 0.45362 0.0
C1005 C 0.56601 0.30528 0.44554 0.0
C1006 C 0.65062 0.22364 0.47824 0.0
C1007 C 0.61051 0.37003 0.45165 0.0
H1008 H 0.65131 0.3605 0.5254 0.0
H1009 H 0.75895 0.35548 0.48683 0.0
H1010 H 0.57302 0.33681 0.49277 0.0
H1011 H 0.58781 0.28534 0.50171 0.0
H1012 H 0.58597 0.32998 0.51815 0.0
H1013 H 0.7567 0.3165 0.45708 0.0
H1014 H 0.71263 0.28103 0.45247 0.0
H1015 H 0.70926 0.33549 0.44513 0.0
H1016 H 0.57742 0.20262 0.46024 0.0
H1017 H 0.54303 0.32586 0.43841 0.0
H1018 H 0.64251 0.22725 0.4939 0.0
H1019 H 0.68466 0.23213 0.47643 0.0
H1020 H 0.64625 0.18971 0.47415 0.0
H1021 H 0.60076 0.38618 0.46534 0.0
H1022 H 0.59189 0.3839 0.43941 0.0
H1023 H 0.64476 0.37676 0.44925 0.0
C1024 C 0.31117 0.43352 0.54333 0.0
C1025 C 0.26842 0.44336 0.53986 0.0
C1026 C 0.32979 0.39729 0.53496 0.0
C1027 C 0.30528 0.37151 0.52229 0.0
C1028 C 0.26118 0.37952 0.52008 0.0
C1029 C 0.24336 0.41575 0.52876 0.0
C1030 C 0.3767 0.38932 0.53802 0.0
C1031 C 0.23385 0.35285 0.50676 0.0
C1032 C 0.36401 0.33763 0.47685 0.0
C1033 C 0.37169 0.29441 0.48034 0.0
C1034 C 0.34182 0.36257 0.4903 0.0
C1035 C 0.32733 0.34397 0.50789 0.0
C1036 C 0.33433 0.30011 0.51146 0.0
C1037 C 0.35628 0.2756 0.49749 0.0
C1038 C 0.33448 0.40911 0.48573 0.0
C1039 C 0.31963 0.27952 0.53016 0.0
H1040 H 0.33074 0.45562 0.5515 0.0
H1041 H 0.21035 0.42389 0.52592 0.0
H1042 H 0.38295 0.35492 0.5403 0.0
H1043 H 0.39451 0.39937 0.52483 0.0
H1044 H 0.38924 0.40731 0.55073 0.0
H1045 H 0.19939 0.35741 0.50981 0.0
H1046 H 0.23996 0.3622 0.49141 0.0
H1047 H 0.2417 0.31857 0.50821 0.0
H1048 H 0.37556 0.35216 0.46352 0.0
H1049 H 0.36248 0.24218 0.50023 0.0
H1050 H 0.3505 0.42922 0.49681 0.0
H1051 H 0.29995 0.41656 0.48628 0.0
H1052 H 0.34673 0.41815 0.47111 0.0
H1053 H 0.33734 0.29327 0.54265 0.0
H1054 H 0.32466 0.24452 0.53007 0.0
H1055 H 0.28537 0.28618 0.53268 0.0
C1056 C 0.43241 0.68925 0.44843 0.0
C1057 C 0.44159 0.73236 0.45114 0.0
C1058 C 0.39673 0.67082 0.45733 0.0
C1059 C 0.37089 0.69592 0.46979 0.0
C1060 C 0.37801 0.74028 0.47112 0.0
C1061 C 0.4136 0.75793 0.46187 0.0
C1062 C 0.38956 0.62362 0.4551 0.0
C1063 C 0.35122 0.76827 0.48416 0.0
C1064 C 0.27642 0.64528 0.49575 0.0
C1065 C 0.29585 0.63098 0.51298 0.0
C1066 C 0.3002 0.66685 0.48144 0.0
C1067 C 0.34401 0.67466 0.4847 0.0
C1068 C 0.3632 0.66154 0.50241 0.0
C1069 C 0.33896 0.63961 0.51622 0.0
C1070 C 0.27895 0.67993 0.46262 0.0
C1071 C 0.40969 0.66986 0.50667 0.0
H1072 H 0.45479 0.66929 0.44059 0.0
H1073 H 0.42122 0.79122 0.46413 0.0
H1074 H 0.40078 0.60699 0.46843 0.0
H1075 H 0.35517 0.61664 0.45336 0.0
H1076 H 0.40708 0.61046 0.44237 0.0
H1077 H 0.35505 0.8025 0.4805 0.0
H1078 H 0.31704 0.75983 0.48307 0.0
H1079 H 0.36116 0.76351 0.49954 0.0
H1080 H 0.24313 0.63822 0.49315 0.0
H1081 H 0.35396 0.62879 0.52958 0.0
H1082 H 0.29182 0.66052 0.45045 0.0
H1083 H 0.28597 0.7137 0.4592 0.0
H1084 H 0.24387 0.6756 0.46317 0.0
H1085 H 0.42988 0.65311 0.49583 0.0
H1086 H 0.41915 0.65903 0.52148 0.0
H1087 H 0.41655 0.70438 0.50544 0.0
C1088 C 0.35543 0.21994 0.37638 0.0
C1089 C 0.36054 0.24533 0.39299 0.0
C1090 C 0.31618 0.21845 0.36652 0.0
C1091 C 0.28182 0.24405 0.3731 0.0
C1092 C 0.28759 0.27117 0.38938 0.0
C1093 C 0.32664 0.2709 0.39932 0.0
C1094 C 0.31097 0.1883 0.34956 0.0
C1095 C 0.25233 0.30001 0.39648 0.0
C1096 C 0.19019 0.26471 0.33804 0.0
C1097 C 0.15853 0.23778 0.34545 0.0
C1098 C 0.2303 0.26746 0.34701 0.0
C1099 C 0.23942 0.24158 0.3634 0.0
C1100 C 0.2077 0.21384 0.37076 0.0
C1101 C 0.16736 0.21282 0.36189 0.0
C1102 C 0.26267 0.29847 0.33912 0.0
C1103 C 0.21651 0.18493 0.38788 0.0
H1104 H 0.38153 0.1998 0.37163 0.0
H1105 H 0.33071 0.29071 0.41213 0.0
H1106 H 0.28585 0.16464 0.35298 0.0
H1107 H 0.30049 0.20593 0.3364 0.0
H1108 H 0.34091 0.171 0.34608 0.0
H1109 H 0.26307 0.3216 0.40831 0.0
H1110 H 0.23995 0.31957 0.38424 0.0
H1111 H 0.22546 0.28063 0.40203 0.0
H1112 H 0.18327 0.28431 0.32541 0.0
H1113 H 0.14303 0.1917 0.36752 0.0
H1114 H 0.29177 0.28122 0.33444 0.0
H1115 H 0.27226 0.32106 0.35075 0.0
H1116 H 0.25025 0.31696 0.32652 0.0
H1117 H 0.24494 0.16495 0.38485 0.0
H1118 H 0.18919 0.16373 0.39121 0.0
H1119 H 0.22367 0.20418 0.40103 0.0
C1120 C 0.26255 0.66449 0.59781 0.0
C1121 C 0.2398 0.62733 0.60209 0.0
C1122 C 0.25954 0.70043 0.60989 0.0
C1123 C 0.23197 0.69962 0.62623 0.0
C1124 C 0.20903 0.66205 0.63063 0.0
C1125 C 0.21378 0.62607 0.61867 0.0
C1126 C 0.28559 0.73938 0.60506 0.0
C1127 C 0.17843 0.66031 0.6476 0.0
C1128 C 0.24609 0.78108 0.66666 0.0
C1129 C 0.21702 0.81277 0.66111 0.0
C1130 C 0.25161 0.74426 0.65534 0.0
C1131 C 0.22644 0.73842 0.63843 0.0
C1132 C 0.19636 0.76996 0.63301 0.0
C1133 C 0.19255 0.80715 0.64424 0.0
C1134 C 0.28494 0.71205 0.66127 0.0
C1135 C 0.1681 0.76435 0.61539 0.0
H1136 H 0.28286 0.66535 0.58503 0.0
H1137 H 0.1958 0.59747 0.62184 0.0
H1138 H 0.26418 0.76623 0.60124 0.0
H1139 H 0.30444 0.7493 0.61796 0.0
H1140 H 0.3077 0.73379 0.59267 0.0
H1141 H 0.16306 0.62866 0.64907 0.0
H1142 H 0.19528 0.66772 0.66139 0.0
H1143 H 0.15321 0.68476 0.64568 0.0
H1144 H 0.26539 0.78564 0.6796 0.0
H1145 H 0.16989 0.83155 0.64002 0.0
H1146 H 0.30829 0.70778 0.64928 0.0
H1147 H 0.26991 0.68067 0.66391 0.0
H1148 H 0.30235 0.72171 0.67465 0.0
H1149 H 0.18778 0.76268 0.60199 0.0
H1150 H 0.14481 0.79077 0.61376 0.0
H1151 H 0.15038 0.73391 0.61651 0.0
C1152 C 0.66567 0.72514 0.39742 0.0
C1153 C 0.63146 0.75112 0.39185 0.0
C1154 C 0.70416 0.72559 0.38704 0.0
C1155 C 0.70904 0.75386 0.37111 0.0
C1156 C 0.67425 0.77969 0.36523 0.0
C1157 C 0.63555 0.7775 0.37551 0.0
C1158 C 0.73989 0.69651 0.3934 0.0
C1159 C 0.67852 0.81101 0.34865 0.0
C1160 C 0.82291 0.78706 0.35996 0.0
C1161 C 0.83179 0.76328 0.34317 0.0
C1162 C 0.7827 0.7851 0.3689 0.0
C1163 C 0.75113 0.7576 0.36122 0.0
C1164 C 0.76024 0.73299 0.34443 0.0
C1165 C 0.80023 0.73666 0.33542 0.0
C1166 C 0.7739 0.81266 0.38648 0.0
C1167 C 0.72802 0.70227 0.33618 0.0
H1168 H 0.66236 0.7046 0.41004 0.0
H1169 H 0.6092 0.79795 0.37137 0.0
H1170 H 0.7522 0.67821 0.38075 0.0
H1171 H 0.76667 0.71567 0.39919 0.0
H1172 H 0.72965 0.67374 0.40486 0.0
H1173 H 0.64815 0.82785 0.34551 0.0
H1174 H 0.70314 0.835 0.35233 0.0
H1175 H 0.68921 0.79449 0.33523 0.0
H1176 H 0.84714 0.80795 0.36586 0.0
H1177 H 0.80717 0.71797 0.32251 0.0
H1178 H 0.76743 0.79238 0.39938 0.0
H1179 H 0.74508 0.83239 0.38391 0.0
H1180 H 0.80097 0.83405 0.38997 0.0
H1181 H 0.71915 0.67853 0.34744 0.0
H1182 H 0.74026 0.68511 0.32316 0.0
H1183 H 0.69853 0.71951 0.33204 0.0
C1184 C 0.75334 0.17422 0.63728 0.0
C1185 C 0.77684 0.17467 0.65465 0.0
C1186 C 0.74924 0.21106 0.62585 0.0
C1187 C 0.77047 0.24878 0.63156 0.0
C1188 C 0.79499 0.24912 0.64889 0.0
C1189 C 0.79725 0.21224 0.66041 0.0
C1190 C 0.72183 0.20976 0.60777 0.0
C1191 C 0.81929 0.28824 0.65513 0.0
C1192 C 0.79316 0.32871 0.59141 0.0
C1193 C 0.76288 0.36045 0.59524 0.0
C1194 C 0.79654 0.29268 0.60338 0.0
C1195 C 0.7679 0.28754 0.61914 0.0
C1196 C 0.73684 0.3193 0.62292 0.0
C1197 C 0.73523 0.35585 0.61111 0.0
C1198 C 0.83102 0.26032 0.59925 0.0
C1199 C 0.70493 0.31433 0.63922 0.0
H1200 H 0.73721 0.14533 0.63288 0.0
H1201 H 0.81564 0.21256 0.67379 0.0
H1202 H 0.69729 0.23519 0.60844 0.0
H1203 H 0.74158 0.21588 0.59466 0.0
H1204 H 0.70564 0.17861 0.60592 0.0
H1205 H 0.83778 0.28291 0.66872 0.0
H1206 H 0.84159 0.29798 0.6434 0.0
H1207 H 0.79699 0.31513 0.65755 0.0
H1208 H 0.81491 0.33256 0.57926 0.0
H1209 H 0.7117 0.38035 0.614 0.0
H1210 H 0.81655 0.22916 0.5956 0.0
H1211 H 0.85094 0.25556 0.61244 0.0
H1212 H 0.85197 0.27009 0.58699 0.0
H1213 H 0.68689 0.28429 0.63727 0.0
H1214 H 0.68199 0.34125 0.63984 0.0
H1215 H 0.72165 0.31216 0.65343 0.0
C1216 C 0.13824 0.23657 0.88263 0.0
C1217 C 0.13538 0.26416 0.89862 0.0
C1218 C 0.1735 0.23801 0.87001 0.0
C1219 C 0.20571 0.26885 0.87308 0.0
C1220 C 0.20224 0.29751 0.88894 0.0
C1221 C 0.16751 0.2943 0.90171 0.0
C1222 C 0.17673 0.20607 0.85364 0.0
C1223 C 0.2351 0.33174 0.89236 0.0
C1224 C 0.31756 0.25347 0.85308 0.0
C1225 C 0.31598 0.27719 0.83579 0.0
C1226 C 0.2815 0.24943 0.86504 0.0
C1227 C 0.24341 0.27092 0.85994 0.0
C1228 C 0.24183 0.29544 0.84262 0.0
C1229 C 0.27794 0.29767 0.83057 0.0
C1230 C 0.28413 0.22199 0.88308 0.0
C1231 C 0.2023 0.31999 0.83701 0.0
H1232 H 0.11346 0.21315 0.8803 0.0
H1233 H 0.16502 0.316 0.91395 0.0
H1234 H 0.17794 0.22273 0.8394 0.0
H1235 H 0.2067 0.18754 0.85507 0.0
H1236 H 0.14948 0.18357 0.85348 0.0
H1237 H 0.22646 0.35297 0.9047 0.0
H1238 H 0.26648 0.31704 0.89551 0.0
H1239 H 0.23886 0.3514 0.87902 0.0
H1240 H 0.34678 0.23729 0.85707 0.0
H1241 H 0.27673 0.31625 0.81725 0.0
H1242 H 0.25829 0.19795 0.88294 0.0
H1243 H 0.27958 0.24186 0.89628 0.0
H1244 H 0.3152 0.20522 0.8843 0.0
H1245 H 0.17502 0.29797 0.83529 0.0
H1246 H 0.20646 0.33801 0.8232 0.0
H1247 H 0.19388 0.34274 0.84878 0.0
C1248 C 0.23719 0.70574 0.16671 0.0
C1249 C 0.26209 0.67148 0.1602 0.0
C1250 C 0.23471 0.74371 0.15599 0.0
C1251 C 0.25894 0.74809 0.1387 0.0
C1252 C 0.28461 0.71371 0.1322 0.0
C1253 C 0.28524 0.67546 0.14285 0.0
C1254 C 0.20577 0.77893 0.16305 0.0
C1255 C 0.31187 0.71757 0.11415 0.0
C1256 C 0.22813 0.83043 0.10055 0.0
C1257 C 0.2549 0.86447 0.10535 0.0
C1258 C 0.22831 0.79281 0.1116 0.0
C1259 C 0.25717 0.78854 0.12735 0.0
C1260 C 0.28438 0.82289 0.13222 0.0
C1261 C 0.28235 0.86079 0.12135 0.0
C1262 C 0.1977 0.75761 0.10637 0.0
C1263 C 0.31644 0.81916 0.14853 0.0
H1264 H 0.21892 0.70247 0.18004 0.0
H1265 H 0.3047 0.64904 0.1379 0.0
H1266 H 0.22466 0.80785 0.1663 0.0
H1267 H 0.18266 0.7875 0.15145 0.0
H1268 H 0.18783 0.76983 0.17637 0.0
H1269 H 0.33139 0.6886 0.11153 0.0
H1270 H 0.29149 0.72322 0.1012 0.0
H1271 H 0.33346 0.74532 0.11555 0.0
H1272 H 0.20679 0.83342 0.08819 0.0
H1273 H 0.30344 0.88696 0.12488 0.0
H1274 H 0.17865 0.74854 0.11935 0.0
H1275 H 0.21562 0.72894 0.10168 0.0
H1276 H 0.17559 0.76697 0.09447 0.0
H1277 H 0.29996 0.81274 0.16253 0.0
H1278 H 0.33587 0.84844 0.1502 0.0
H1279 H 0.33811 0.7919 0.14571 0.0
C1280 C 0.86605 0.71184 0.87972 0.0
C1281 C 0.86383 0.73788 0.89627 0.0
C1282 C 0.83052 0.70655 0.86751 0.0
C1283 C 0.79238 0.72899 0.87163 0.0
C1284 C 0.79053 0.75649 0.88798 0.0
C1285 C 0.82606 0.76 0.90031 0.0
C1286 C 0.83338 0.67603 0.85056 0.0
C1287 C 0.75097 0.78203 0.89252 0.0
C1288 C 0.7126 0.74331 0.83045 0.0
C1289 C 0.68079 0.71417 0.83563 0.0
C1290 C 0.74892 0.74872 0.84211 0.0
C1291 C 0.7542 0.72335 0.85901 0.0
C1292 C 0.72262 0.6931 0.86403 0.0
C1293 C 0.68588 0.68942 0.85246 0.0
C1294 C 0.78114 0.78224 0.83659 0.0
C1295 C 0.72767 0.66459 0.8816 0.0
H1296 H 0.8951 0.6943 0.87673 0.0
H1297 H 0.82442 0.7803 0.91307 0.0
H1298 H 0.80901 0.65075 0.85218 0.0
H1299 H 0.82659 0.69292 0.8367 0.0
H1300 H 0.86523 0.66078 0.84943 0.0
H1301 H 0.75564 0.80392 0.90506 0.0
H1302 H 0.74143 0.80104 0.8796 0.0
H1303 H 0.72422 0.76031 0.89596 0.0
H1304 H 0.70845 0.76286 0.81755 0.0
H1305 H 0.66139 0.66673 0.8564 0.0
H1306 H 0.81281 0.76741 0.83428 0.0
H1307 H 0.78454 0.80551 0.84866 0.0
H1308 H 0.77202 0.79969 0.82313 0.0
H1309 H 0.75841 0.64719 0.88078 0.0
H1310 H 0.70147 0.64104 0.88284 0.0
H1311 H 0.72832 0.68404 0.89509 0.0
C1312 C 0.76825 0.16719 0.10391 0.0
C1313 C 0.74046 0.13337 0.10767 0.0
C1314 C 0.76669 0.20462 0.11506 0.0
C1315 C 0.73546 0.20893 0.12983 0.0
C1316 C 0.70726 0.17475 0.13367 0.0
C1317 C 0.71062 0.13701 0.12275 0.0
C1318 C 0.79833 0.23962 0.11095 0.0
C1319 C 0.67273 0.17856 0.14889 0.0
C1320 C 0.75099 0.29201 0.16949 0.0
C1321 C 0.72795 0.32668 0.16206 0.0
C1322 C 0.75398 0.25364 0.15909 0.0
C1323 C 0.7322 0.24935 0.14113 0.0
C1324 C 0.70814 0.28404 0.13375 0.0
C1325 C 0.70694 0.3226 0.14415 0.0
C1326 C 0.78115 0.21803 0.16714 0.0
C1327 C 0.68348 0.28033 0.11493 0.0
H1328 H 0.7914 0.16423 0.09225 0.0
H1329 H 0.68877 0.11099 0.12546 0.0
H1330 H 0.78143 0.26842 0.10567 0.0
H1331 H 0.81523 0.24852 0.12456 0.0
H1332 H 0.82229 0.23015 0.09984 0.0
H1333 H 0.6531 0.14928 0.14996 0.0
H1334 H 0.68695 0.18511 0.16338 0.0
H1335 H 0.65156 0.20579 0.14531 0.0
H1336 H 0.76765 0.29528 0.18326 0.0
H1337 H 0.68889 0.34931 0.13847 0.0
H1338 H 0.80629 0.20947 0.15646 0.0
H1339 H 0.7615 0.18921 0.16952 0.0
H1340 H 0.79661 0.22674 0.18115 0.0
H1341 H 0.70569 0.27486 0.10261 0.0
H1342 H 0.66435 0.30931 0.11179 0.0
H1343 H 0.66177 0.25254 0.11561 0.0
C1344 C 0.98528 0.90748 0.29653 0.0
C1345 C 0.95473 0.89642 0.31048 0.0
C1346 C 0.00092 0.94913 0.29545 0.0
C1347 C 0.9845 0.98042 0.30825 0.0
C1348 C 0.95174 0.96977 0.3216 0.0
C1349 C 0.9379 0.92746 0.32286 0.0
C1350 C 0.03679 0.95893 0.2815 0.0
C1351 C 0.93251 0.00264 0.33505 0.0
C1352 C 0.0498 0.07551 0.32409 0.0
C1353 C 0.03357 0.1073 0.31194 0.0
C1354 C 0.03572 0.03338 0.32228 0.0
C1355 C 0.00331 0.02364 0.30861 0.0
C1356 C 0.98739 0.05573 0.29609 0.0
C1357 C 0.00327 0.0972 0.29772 0.0
C1358 C 0.05441 -0.00035 0.33545 0.0
C1359 C 0.95189 0.04689 0.28182 0.0
H1360 H -0.00109 0.88289 0.28733 0.0
H1361 H 0.91461 0.91842 0.33377 0.0
H1362 H 0.02878 0.987 0.2724 0.0
H1363 H 0.06588 0.96697 0.2899 0.0
H1364 H 0.04416 0.93167 0.27174 0.0
H1365 H 0.90409 0.99033 0.34285 0.0
H1366 H 0.95644 0.01255 0.34603 0.0
H1367 H 0.92318 0.03145 0.3267 0.0
H1368 H 0.07291 0.0838 0.3352 0.0
H1369 H 0.99011 0.12235 0.2887 0.0
H1370 H 0.0641 0.9714 0.3268 0.0
H1371 H 0.03005 0.98903 0.34609 0.0
H1372 H 0.08251 0.01145 0.34366 0.0
H1373 H 0.9602 0.01951 0.27234 0.0
H1374 H 0.9447 0.07483 0.27244 0.0
H1375 H 0.9226 0.03817 0.28993 0.0
C1376 C 0.93447 0.06092 0.68932 0.0
C1377 C 0.89906 0.05363 0.70118 0.0
C1378 C 0.97266 0.03878 0.69254 0.0
C1379 C 0.97437 0.00709 0.70725 0.0
C1380 C 0.93909 0.00092 0.71974 0.0
C1381 C 0.90206 0.025 0.71678 0.0
C1382 C 0.01033 0.04753 0.67945 0.0
C1383 C 0.93901 0.96644 0.73508 0.0
C1384 C 0.05297 0.92117 0.69324 0.0
C1385 C 0.08804 0.93217 0.7047 0.0
C1386 C 0.01423 0.94303 0.69525 0.0
C1387 C 0.01162 0.97805 0.70824 0.0
C1388 C 0.04641 0.98773 0.72055 0.0
C1389 C 0.08404 0.96398 0.71888 0.0
C1390 C 0.97713 0.93061 0.68247 0.0
C1391 C 0.04555 0.02567 0.73406 0.0
H1392 H 0.93176 0.08274 0.67713 0.0
H1393 H 0.87409 0.01864 0.72559 0.0
H1394 H 0.03989 0.05061 0.68821 0.0
H1395 H 0.01491 0.0205 0.66926 0.0
H1396 H 0.0059 0.07702 0.67074 0.0
H1397 H 0.91124 0.96916 0.74505 0.0
H1398 H 0.93776 0.93489 0.72782 0.0
H1399 H 0.96864 0.96738 0.74386 0.0
H1400 H 0.05651 0.89696 0.68209 0.0
H1401 H 0.11176 0.97315 0.72733 0.0
H1402 H 0.97308 0.95451 0.6707 0.0
H1403 H 0.94716 0.92999 0.69105 0.0
H1404 H 0.98195 0.89892 0.67563 0.0
H1405 H 0.04749 0.05527 0.72527 0.0
H1406 H 0.07262 0.02532 0.74449 0.0
H1407 H 0.01534 0.02691 0.7424 0.0
C1408 C 0.03851 0.41538 0.94621 0.0
C1409 C 0.01708 0.38847 0.93318 0.0
C1410 C 0.03068 0.45932 0.94633 0.0
C1411 C 0.00059 0.47667 0.93318 0.0
C1412 C 0.97871 0.44977 0.92006 0.0
C1413 C 0.98731 0.40603 0.92017 0.0
C1414 C 0.0548 0.48723 0.96044 0.0
C1415 C 0.9463 0.46723 0.90586 0.0
C1416 C 0.95434 0.58575 0.94403 0.0
C1417 C 0.97865 0.61177 0.9317 0.0
C1418 C 0.96103 0.54161 0.94464 0.0
C1419 C 0.9929 0.5232 0.93272 0.0
C1420 C 0.01745 0.54917 0.92022 0.0
C1421 C 0.00996 0.59308 0.91981 0.0
C1422 C 0.93411 0.51468 0.95806 0.0
C1423 C 0.05181 0.53061 0.90733 0.0
H1424 H 0.06157 0.40218 0.95631 0.0
H1425 H 0.97038 0.38557 0.9101 0.0
H1426 H 0.0737 0.51112 0.95228 0.0
H1427 H 0.03215 0.50498 0.96984 0.0
H1428 H 0.07669 0.46866 0.96992 0.0
H1429 H 0.93123 0.44183 0.89697 0.0
H1430 H 0.92097 0.48465 0.91385 0.0
H1431 H 0.96175 0.4903 0.89588 0.0
H1432 H 0.93005 0.59983 0.95324 0.0
H1433 H 0.02908 0.6128 0.91027 0.0
H1434 H 0.95477 0.4977 0.96864 0.0
H1435 H 0.91693 0.49015 0.94952 0.0
H1436 H 0.91042 0.53389 0.96629 0.0
H1437 H 0.07588 0.51389 0.91638 0.0
H1438 H 0.06822 0.55528 0.8985 0.0
H1439 H 0.03786 0.50673 0.89729 0.0
C1440 C 0.41357 0.95888 0.0588 0.0
C1441 C 0.38832 0.97935 0.07286 0.0
C1442 C 0.4577 0.96574 0.05802 0.0
C1443 C 0.47687 0.99382 0.07154 0.0
C1444 C 0.45163 0.01459 0.08571 0.0
C1445 C 0.40778 0.007 0.08625 0.0
C1446 C 0.48385 0.9428 0.0428 0.0
C1447 C 0.47098 0.04481 0.10038 0.0
C1448 C 0.59351 0.98262 0.0842 0.0
C1449 C 0.61195 0.01561 0.07328 0.0
C1450 C 0.54977 0.97452 0.08332 0.0
C1451 C 0.52359 0.00042 0.07147 0.0
C1452 C 0.54178 0.03378 0.06038 0.0
C1453 C 0.58586 0.04085 0.06133 0.0
C1454 C 0.53153 0.93846 0.09525 0.0
C1455 C 0.51459 0.06234 0.04777 0.0
H1456 H 0.39889 0.93757 0.04837 0.0
H1457 H 0.38872 0.02317 0.09716 0.0
H1458 H 0.5012 0.96617 0.03366 0.0
H1459 H 0.5081 0.92245 0.05001 0.0
H1460 H 0.46401 0.92252 0.03316 0.0
H1461 H 0.44666 0.05948 0.11005 0.0
H1462 H 0.49442 0.02761 0.10958 0.0
H1463 H 0.48837 0.07057 0.09273 0.0
H1464 H 0.61327 0.96273 0.09342 0.0
H1465 H 0.59978 0.06639 0.05285 0.0
H1466 H 0.51333 0.91651 0.08573 0.0
H1467 H 0.50901 0.95126 0.10626 0.0
H1468 H 0.55659 0.91992 0.10294 0.0
H1469 H 0.49626 0.043 0.03717 0.0
H1470 H 0.5338 0.08605 0.03961 0.0
H1471 H 0.49117 0.07959 0.05697 0.0
C1472 C 0.46362 0.40646 0.77464 0.0
C1473 C 0.43476 0.40261 0.79012 0.0
C1474 C 0.48808 0.44336 0.77236 0.0
C1475 C 0.48202 0.4777 0.7854 0.0
C1476 C 0.44996 0.47532 0.79993 0.0
C1477 C 0.42747 0.43721 0.80247 0.0
C1478 C 0.52293 0.44391 0.75719 0.0
C1479 C 0.44129 0.51206 0.81357 0.0
C1480 C 0.56888 0.55328 0.80122 0.0
C1481 C 0.55888 0.5894 0.79025 0.0
C1482 C 0.54636 0.51525 0.79847 0.0
C1483 C 0.51165 0.51442 0.78524 0.0
C1484 C 0.5029 0.55034 0.77347 0.0
C1485 C 0.52731 0.58724 0.77586 0.0
C1486 C 0.55782 0.47689 0.81067 0.0
C1487 C 0.46533 0.55136 0.75974 0.0
H1488 H 0.46998 0.37908 0.76544 0.0
H1489 H 0.40548 0.43382 0.81456 0.0
H1490 H 0.52296 0.47443 0.74907 0.0
H1491 H 0.55426 0.44096 0.76457 0.0
H1492 H 0.51978 0.41732 0.74662 0.0
H1493 H 0.4114 0.50751 0.82198 0.0
H1494 H 0.46801 0.51524 0.82405 0.0
H1495 H 0.43899 0.54236 0.80531 0.0
H1496 H 0.59292 0.5554 0.81253 0.0
H1497 H 0.51892 0.61576 0.7678 0.0
H1498 H 0.55833 0.44768 0.80157 0.0
H1499 H 0.53345 0.47229 0.82219 0.0
H1500 H 0.58935 0.48053 0.81782 0.0
H1501 H 0.46397 0.52197 0.75082 0.0
H1502 H 0.46629 0.57933 0.74983 0.0
H1503 H 0.43548 0.55297 0.76838 0.0
C1504 C 0.57459 0.44635 0.20517 0.0
C1505 C 0.60291 0.46383 0.19154 0.0
C1506 C 0.53211 0.46051 0.20626 0.0
C1507 C 0.51803 0.49354 0.19372 0.0
C1508 C 0.5466 0.51165 0.18016 0.0
C1509 C 0.5883 0.49615 0.17902 0.0
C1510 C 0.50211 0.43971 0.22055 0.0
C1511 C 0.53306 0.5473 0.1667 0.0
C1512 C 0.40238 0.50375 0.17906 0.0
C1513 C 0.38778 0.53675 0.1912 0.0
C1514 C 0.44412 0.4884 0.18034 0.0
C1515 C 0.47273 0.50733 0.19365 0.0
C1516 C 0.45866 0.54106 0.20578 0.0
C1517 C 0.41615 0.55508 0.20458 0.0
C1518 C 0.45765 0.452 0.16731 0.0
C1519 C 0.4887 0.56273 0.21978 0.0
H1520 H 0.58547 0.42139 0.21489 0.0
H1521 H 0.60964 0.51 0.16837 0.0
H1522 H 0.488 0.46402 0.23034 0.0
H1523 H 0.47547 0.42451 0.21254 0.0
H1524 H 0.51822 0.41515 0.22959 0.0
H1525 H 0.56011 0.56027 0.15814 0.0
H1526 H 0.50854 0.53563 0.15638 0.0
H1527 H 0.51853 0.57361 0.17522 0.0
H1528 H 0.381 0.48923 0.16862 0.0
H1529 H 0.40527 0.58057 0.214 0.0
H1530 H 0.47218 0.42618 0.17614 0.0
H1531 H 0.48216 0.46308 0.15685 0.0
H1532 H 0.43059 0.43855 0.15891 0.0
H1533 H 0.50281 0.53902 0.22989 0.0
H1534 H 0.47262 0.58784 0.2285 0.0
H1535 H 0.51533 0.57741 0.21157 0.0
C1536 C 0.50811 0.09105 0.40884 0.0
C1537 C 0.47877 0.10976 0.42172 0.0
C1538 C 0.51571 0.04713 0.40904 0.0
C1539 C 0.49312 0.02116 0.42229 0.0
C1540 C 0.46304 0.03958 0.43516 0.0
C1541 C 0.45634 0.08373 0.43478 0.0
C1542 C 0.54817 0.02857 0.39516 0.0
C1543 C 0.43804 0.01264 0.44933 0.0
C1544 C 0.48418 0.90408 0.41002 0.0
C1545 C 0.51496 0.88594 0.42236 0.0
C1546 C 0.47654 0.94799 0.40999 0.0
C1547 C 0.50056 0.97455 0.42244 0.0
C1548 C 0.532 0.95669 0.43478 0.0
C1549 C 0.53873 0.91253 0.43466 0.0
C1550 C 0.44258 0.96592 0.39669 0.0
C1551 C 0.55851 0.98425 0.44809 0.0
H1552 H 0.52576 0.11076 0.39872 0.0
H1553 H 0.43356 0.09782 0.44476 0.0
H1554 H 0.57333 0.01161 0.40346 0.0
H1555 H 0.53277 0.00489 0.38547 0.0
H1556 H 0.56348 0.05329 0.38595 0.0
H1557 H 0.41561 0.03186 0.45826 0.0
H1558 H 0.41962 0.98818 0.44129 0.0
H1559 H 0.46012 0.99557 0.45926 0.0
H1560 H 0.46547 0.88393 0.4005 0.0
H1561 H 0.56261 0.89887 0.44421 0.0
H1562 H 0.45689 0.9891 0.38642 0.0
H1563 H 0.41838 0.98332 0.4054 0.0
H1564 H 0.42625 0.9408 0.38811 0.0
H1565 H 0.57607 0.00828 0.4394 0.0
H1566 H 0.58185 0.96543 0.45671 0.0
H1567 H 0.53753 0.00185 0.45832 0.0
C1568 C 0.91511 0.45872 0.55073 0.0
C1569 C 0.8882 0.48003 0.56385 0.0
C1570 C 0.95922 0.46542 0.55102 0.0
C1571 C 0.97674 0.49427 0.56465 0.0
C1572 C 0.94985 0.51601 0.57787 0.0
C1573 C 0.90593 0.5085 0.57736 0.0
C1574 C 0.98712 0.44146 0.53681 0.0
C1575 C 0.96747 0.54716 0.59256 0.0
C1576 C 0.09283 0.48228 0.57842 0.0
C1577 C 0.11211 0.51383 0.56694 0.0
C1578 C 0.04881 0.47552 0.57775 0.0
C1579 C 0.02338 0.5011 0.5654 0.0
C1580 C 0.04241 0.53325 0.5539 0.0
C1581 C 0.08662 0.53916 0.55476 0.0
C1582 C 0.02956 0.4408 0.59017 0.0
C1583 C 0.01606 0.56132 0.54068 0.0
H1584 H 0.90176 0.43662 0.54026 0.0
H1585 H 0.88548 0.52531 0.58751 0.0
H1586 H 0.00539 0.46421 0.52771 0.0
H1587 H 0.01059 0.42176 0.54488 0.0
H1588 H 0.96846 0.42037 0.52703 0.0
H1589 H 0.94209 0.56216 0.60153 0.0
H1590 H 0.99012 0.5307 0.60244 0.0
H1591 H 0.98543 0.57263 0.58497 0.0
H1592 H 0.11216 0.46239 0.58784 0.0
H1593 H 0.10116 0.56367 0.54586 0.0
H1594 H 0.01269 0.41754 0.58078 0.0
H1595 H 0.00567 0.4546 0.60028 0.0
H1596 H 0.05388 0.42349 0.59889 0.0
H1597 H -0.00097 0.54153 0.5298 0.0
H1598 H 0.03573 0.58511 0.5328 0.0
H1599 H 0.99156 0.57844 0.54932 0.0
loop_
_geom_bond_atom_site_label_1
_geom_bond_atom_site_label_2
_geom_bond_distance
_geom_bond_site_symmetry_2
_ccdc_geom_bond_type
Mn0 O5 2.095 . S
Mn0 O15 2.162 . S
Mn0 O16 2.297 . S
Mn0 O24 2.385 . S
Mn0 O25 2.209 . S
Mn0 O26 2.094 . S
Mn1 O6 2.121 . S
Mn1 N8 2.257 1_455 S
Mn1 N17 2.282 1_455 S
Mn1 O25 2.215 . S
Mn1 O27 2.117 . S
C2 O24 1.234 . S
C2 O25 1.283 . S
C3 O15 1.281 . S
C3 O16 1.236 . S
C4 O26 1.240 . S
C4 O27 1.264 . S
O5 Mn0 2.095 . S
O5 C14 1.250 . S
O6 Mn1 2.121 . S
O6 C14 1.258 . S
C7 N8 1.326 1_455 S
C7 C11 1.460 1_455 S
C7 H13 0.929 . S
N8 Mn1 2.257 1_655 S
N8 C7 1.326 1_655 S
N8 C12 1.362 . S
C9 C10 1.258 . S
C9 C12 1.431 . S
C9 C29 1.449 . S
C10 C9 1.258 . S
C10 C11 1.477 . S
C10 H30 0.931 . S
C11 C7 1.460 1_655 S
C11 C10 1.477 . S
C11 H31 0.930 . S
C12 N8 1.362 . S
C12 C9 1.431 . S
C12 C22 1.476 . S
H13 C7 0.929 . S
C14 O5 1.250 . S
C14 O6 1.258 . S
O15 Mn0 2.162 . S
O15 C3 1.281 . S
O16 Mn0 2.297 . S
O16 C3 1.236 . S
N17 Mn1 2.282 1_655 S
N17 C18 1.328 . S
N17 C22 1.318 . S
C18 N17 1.328 . S
C18 C19 1.457 . S
C18 H23 0.929 . S
C19 C18 1.457 . S
C19 C20 1.291 . S
C19 H32 0.931 . S
C20 C19 1.291 . S
C20 C21 1.373 . S
C20 H33 0.929 . S
C21 C20 1.373 . S
C21 C22 1.396 . S
C21 C28 1.403 . S
C22 C12 1.476 . S
C22 N17 1.318 . S
C22 C21 1.396 . S
H23 C18 0.929 . S
O24 Mn0 2.385 . S
O24 C2 1.234 . S
O25 Mn0 2.209 . S
O25 Mn1 2.215 . S
O25 C2 1.283 . S
O26 Mn0 2.094 . S
O26 C4 1.240 . S
O27 Mn1 2.117 . S
O27 C4 1.264 . S
C28 C21 1.403 . S
C28 C29 1.399 . S
C28 H34 0.929 . S
C29 C9 1.449 . S
C29 C28 1.399 . S
C29 H35 0.930 . S
H30 C10 0.931 . S
H31 C11 0.930 . S
H32 C19 0.931 . S
H33 C20 0.929 . S
H34 C28 0.929 . S
H35 C29 0.930 . S
Mn36 O41 2.095 . S
Mn36 O51 2.162 . S
Mn36 O52 2.297 . S
Mn36 O60 2.385 . S
Mn36 O61 2.209 . S
Mn36 O62 2.094 . S
Mn37 O42 2.121 . S
Mn37 N44 2.257 1_565 S
Mn37 N53 2.282 1_565 S
Mn37 O61 2.215 . S
Mn37 O63 2.117 . S
C38 O60 1.234 . S
C38 O61 1.283 . S
C39 O51 1.281 . S
C39 O52 1.236 . S
C40 O62 1.240 . S
C40 O63 1.264 . S
O41 Mn36 2.095 . S
O41 C50 1.250 . S
O42 Mn37 2.121 . S
O42 C50 1.258 . S
C43 N44 1.326 1_565 S
C43 C47 1.460 1_565 S
C43 H49 0.929 . S
N44 Mn37 2.257 1_545 S
N44 C43 1.326 1_545 S
N44 C48 1.362 . S
C45 C46 1.258 . S
C45 C48 1.431 . S
C45 C65 1.449 . S
C46 C45 1.258 . S
C46 C47 1.477 . S
C46 H66 0.931 . S
C47 C43 1.460 1_545 S
C47 C46 1.477 . S
C47 H67 0.930 . S
C48 N44 1.362 . S
C48 C45 1.431 . S
C48 C58 1.476 . S
H49 C43 0.929 . S
C50 O41 1.250 . S
C50 O42 1.258 . S
O51 Mn36 2.162 . S
O51 C39 1.281 . S
O52 Mn36 2.297 . S
O52 C39 1.236 . S
N53 Mn37 2.282 1_545 S
N53 C54 1.328 . S
N53 C58 1.318 . S
C54 N53 1.328 . S
C54 C55 1.457 . S
C54 H59 0.929 . S
C55 C54 1.457 . S
C55 C56 1.291 . S
C55 H68 0.931 . S
C56 C55 1.291 . S
C56 C57 1.373 . S
C56 H69 0.929 . S
C57 C56 1.373 . S
C57 C58 1.396 . S
C57 C64 1.403 . S
C58 C48 1.476 . S
C58 N53 1.318 . S
C58 C57 1.396 . S
H59 C54 0.929 . S
O60 Mn36 2.385 . S
O60 C38 1.234 . S
O61 Mn36 2.209 . S
O61 Mn37 2.215 . S
O61 C38 1.283 . S
O62 Mn36 2.094 . S
O62 C40 1.240 . S
O63 Mn37 2.117 . S
O63 C40 1.264 . S
C64 C57 1.403 . S
C64 C65 1.399 . S
C64 H70 0.929 . S
C65 C45 1.449 . S
C65 C64 1.399 . S
C65 H71 0.930 . S
H66 C46 0.931 . S
H67 C47 0.930 . S
H68 C55 0.931 . S
H69 C56 0.929 . S
H70 C64 0.929 . S
H71 C65 0.930 . S
Mn72 O77 2.095 . S
Mn72 O87 2.162 . S
Mn72 O88 2.297 . S
Mn72 O96 2.385 . S
Mn72 O97 2.209 . S
Mn72 O98 2.094 . S
Mn73 O78 2.121 . S
Mn73 N80 2.257 1_655 S
Mn73 N89 2.282 1_655 S
Mn73 O97 2.215 . S
Mn73 O99 2.117 . S
C74 O96 1.234 . S
C74 O97 1.283 . S
C75 O87 1.281 . S
C75 O88 1.236 . S
C76 O98 1.240 . S
C76 O99 1.264 . S
O77 Mn72 2.095 . S
O77 C86 1.250 . S
O78 Mn73 2.121 . S
O78 C86 1.258 . S
C79 N80 1.326 1_655 S
C79 C83 1.460 1_655 S
C79 H85 0.929 . S
N80 Mn73 2.257 1_455 S
N80 C79 1.326 1_455 S
N80 C84 1.362 . S
C81 C82 1.258 . S
C81 C84 1.431 . S
C81 C101 1.449 . S
C82 C81 1.258 . S
C82 C83 1.477 . S
C82 H102 0.931 . S
C83 C79 1.460 1_455 S
C83 C82 1.477 . S
C83 H103 0.930 . S
C84 N80 1.362 . S
C84 C81 1.431 . S
C84 C94 1.476 . S
H85 C79 0.929 . S
C86 O77 1.250 . S
C86 O78 1.258 . S
O87 Mn72 2.162 . S
O87 C75 1.281 . S
O88 Mn72 2.297 . S
O88 C75 1.236 . S
N89 Mn73 2.282 1_455 S
N89 C90 1.328 . S
N89 C94 1.318 . S
C90 N89 1.328 . S
C90 C91 1.457 . S
C90 H95 0.929 . S
C91 C90 1.457 . S
C91 C92 1.291 . S
C91 H104 0.931 . S
C92 C91 1.291 . S
C92 C93 1.373 . S
C92 H105 0.929 . S
C93 C92 1.373 . S
C93 C94 1.396 . S
C93 C100 1.403 . S
C94 C84 1.476 . S
C94 N89 1.318 . S
C94 C93 1.396 . S
H95 C90 0.929 . S
O96 Mn72 2.385 . S
O96 C74 1.234 . S
O97 Mn72 2.209 . S
O97 Mn73 2.215 . S
O97 C74 1.283 . S
O98 Mn72 2.094 . S
O98 C76 1.240 . S
O99 Mn73 2.117 . S
O99 C76 1.264 . S
C100 C93 1.403 . S
C100 C101 1.399 . S
C100 H106 0.929 . S
C101 C81 1.449 . S
C101 C100 1.399 . S
C101 H107 0.930 . S
H102 C82 0.931 . S
H103 C83 0.930 . S
H104 C91 0.931 . S
H105 C92 0.929 . S
H106 C100 0.929 . S
H107 C101 0.930 . S
Mn108 O113 2.095 . S
Mn108 O123 2.162 . S
Mn108 O124 2.297 . S
Mn108 O132 2.385 . S
Mn108 O133 2.209 . S
Mn108 O134 2.094 . S
Mn109 O114 2.121 . S
Mn109 N116 2.257 1_545 S
Mn109 N125 2.282 1_545 S
Mn109 O133 2.215 . S
Mn109 O135 2.117 . S
C110 O132 1.234 . S
C110 O133 1.283 . S
C111 O123 1.281 . S
C111 O124 1.236 . S
C112 O134 1.240 . S
C112 O135 1.264 . S
O113 Mn108 2.095 . S
O113 C122 1.250 . S
O114 Mn109 2.121 . S
O114 C122 1.258 . S
C115 N116 1.326 1_545 S
C115 C119 1.460 1_545 S
C115 H121 0.929 . S
N116 Mn109 2.257 1_565 S
N116 C115 1.326 1_565 S
N116 C120 1.362 . S
C117 C118 1.258 . S
C117 C120 1.431 . S
C117 C137 1.449 . S
C118 C117 1.258 . S
C118 C119 1.477 . S
C118 H138 0.931 . S
C119 C115 1.460 1_565 S
C119 C118 1.477 . S
C119 H139 0.930 . S
C120 N116 1.362 . S
C120 C117 1.431 . S
C120 C130 1.476 . S
H121 C115 0.929 . S
C122 O113 1.250 . S
C122 O114 1.258 . S
O123 Mn108 2.162 . S
O123 C111 1.281 . S
O124 Mn108 2.297 . S
O124 C111 1.236 . S
N125 Mn109 2.282 1_565 S
N125 C126 1.328 . S
N125 C130 1.318 . S
C126 N125 1.328 . S
C126 C127 1.457 . S
C126 H131 0.929 . S
C127 C126 1.457 . S
C127 C128 1.291 . S
C127 H140 0.931 . S
C128 C127 1.291 . S
C128 C129 1.373 . S
C128 H141 0.929 . S
C129 C128 1.373 . S
C129 C130 1.396 . S
C129 C136 1.403 . S
C130 C120 1.476 . S
C130 N125 1.318 . S
C130 C129 1.396 . S
H131 C126 0.929 . S
O132 Mn108 2.385 . S
O132 C110 1.234 . S
O133 Mn108 2.209 . S
O133 Mn109 2.215 . S
O133 C110 1.283 . S
O134 Mn108 2.094 . S
O134 C112 1.240 . S
O135 Mn109 2.117 . S
O135 C112 1.264 . S
C136 C129 1.403 . S
C136 C137 1.399 . S
C136 H142 0.929 . S
C137 C117 1.449 . S
C137 C136 1.399 . S
C137 H143 0.930 . S
H138 C118 0.931 . S
H139 C119 0.930 . S
H140 C127 0.931 . S
H141 C128 0.929 . S
H142 C136 0.929 . S
H143 C137 0.930 . S
Mn144 O149 2.095 . S
Mn144 O159 2.162 . S
Mn144 O160 2.297 . S
Mn144 O168 2.385 . S
Mn144 O169 2.209 . S
Mn144 O170 2.094 . S
Mn145 O150 2.121 . S
Mn145 N152 2.257 1_455 S
Mn145 N161 2.282 1_455 S
Mn145 O169 2.215 . S
Mn145 O171 2.117 . S
C146 O168 1.234 . S
C146 O169 1.283 . S
C147 O159 1.281 . S
C147 O160 1.236 . S
C148 O170 1.240 . S
C148 O171 1.264 . S
O149 Mn144 2.095 . S
O149 C158 1.250 . S
O150 Mn145 2.121 . S
O150 C158 1.258 . S
C151 N152 1.326 1_455 S
C151 C155 1.460 1_455 S
C151 H157 0.929 . S
N152 Mn145 2.257 1_655 S
N152 C151 1.326 1_655 S
N152 C156 1.362 . S
C153 C154 1.258 . S
C153 C156 1.431 . S
C153 C173 1.449 . S
C154 C153 1.258 . S
C154 C155 1.477 . S
C154 H174 0.931 . S
C155 C151 1.460 1_655 S
C155 C154 1.477 . S
C155 H175 0.930 . S
C156 N152 1.362 . S
C156 C153 1.431 . S
C156 C166 1.476 . S
H157 C151 0.929 . S
C158 O149 1.250 . S
C158 O150 1.258 . S
O159 Mn144 2.162 . S
O159 C147 1.281 . S
O160 Mn144 2.297 . S
O160 C147 1.236 . S
N161 Mn145 2.282 1_655 S
N161 C162 1.328 . S
N161 C166 1.318 . S
C162 N161 1.328 . S
C162 C163 1.457 . S
C162 H167 0.929 . S
C163 C162 1.457 . S
C163 C164 1.291 . S
C163 H176 0.931 . S
C164 C163 1.291 . S
C164 C165 1.373 . S
C164 H177 0.929 . S
C165 C164 1.373 . S
C165 C166 1.396 . S
C165 C172 1.403 . S
C166 C156 1.476 . S
C166 N161 1.318 . S
C166 C165 1.396 . S
H167 C162 0.929 . S
O168 Mn144 2.385 . S
O168 C146 1.234 . S
O169 Mn144 2.209 . S
O169 Mn145 2.215 . S
O169 C146 1.283 . S
O170 Mn144 2.094 . S
O170 C148 1.240 . S
O171 Mn145 2.117 . S
O171 C148 1.264 . S
C172 C165 1.403 . S
C172 C173 1.399 . S
C172 H178 0.929 . S
C173 C153 1.449 . S
C173 C172 1.399 . S
C173 H179 0.930 . S
H174 C154 0.931 . S
H175 C155 0.930 . S
H176 C163 0.931 . S
H177 C164 0.929 . S
H178 C172 0.929 . S
H179 C173 0.930 . S
Mn180 O185 2.095 . S
Mn180 O195 2.162 . S
Mn180 O196 2.297 . S
Mn180 O204 2.385 . S
Mn180 O205 2.209 . S
Mn180 O206 2.094 . S
Mn181 O186 2.121 . S
Mn181 N188 2.257 1_565 S
Mn181 N197 2.282 1_565 S
Mn181 O205 2.215 . S
Mn181 O207 2.117 . S
C182 O204 1.234 . S
C182 O205 1.283 . S
C183 O195 1.281 . S
C183 O196 1.236 . S
C184 O206 1.240 . S
C184 O207 1.264 . S
O185 Mn180 2.095 . S
O185 C194 1.250 . S
O186 Mn181 2.121 . S
O186 C194 1.258 . S
C187 N188 1.326 1_565 S
C187 C191 1.460 1_565 S
C187 H193 0.929 . S
N188 Mn181 2.257 1_545 S
N188 C187 1.326 1_545 S
N188 C192 1.362 . S
C189 C190 1.258 . S
C189 C192 1.431 . S
C189 C209 1.449 . S
C190 C189 1.258 . S
C190 C191 1.477 . S
C190 H210 0.931 . S
C191 C187 1.460 1_545 S
C191 C190 1.477 . S
C191 H211 0.930 . S
C192 N188 1.362 . S
C192 C189 1.431 . S
C192 C202 1.476 . S
H193 C187 0.929 . S
C194 O185 1.250 . S
C194 O186 1.258 . S
O195 Mn180 2.162 . S
O195 C183 1.281 . S
O196 Mn180 2.297 . S
O196 C183 1.236 . S
N197 Mn181 2.282 1_545 S
N197 C198 1.328 . S
N197 C202 1.318 . S
C198 N197 1.328 . S
C198 C199 1.457 . S
C198 H203 0.929 . S
C199 C198 1.457 . S
C199 C200 1.291 . S
C199 H212 0.931 . S
C200 C199 1.291 . S
C200 C201 1.373 . S
C200 H213 0.929 . S
C201 C200 1.373 . S
C201 C202 1.396 . S
C201 C208 1.403 . S
C202 C192 1.476 . S
C202 N197 1.318 . S
C202 C201 1.396 . S
H203 C198 0.929 . S
O204 Mn180 2.385 . S
O204 C182 1.234 . S
O205 Mn180 2.209 . S
O205 Mn181 2.215 . S
O205 C182 1.283 . S
O206 Mn180 2.094 . S
O206 C184 1.240 . S
O207 Mn181 2.117 . S
O207 C184 1.264 . S
C208 C201 1.403 . S
C208 C209 1.399 . S
C208 H214 0.929 . S
C209 C189 1.449 . S
C209 C208 1.399 . S
C209 H215 0.930 . S
H210 C190 0.931 . S
H211 C191 0.930 . S
H212 C199 0.931 . S
H213 C200 0.929 . S
H214 C208 0.929 . S
H215 C209 0.930 . S
Mn216 O221 2.095 . S
Mn216 O231 2.162 . S
Mn216 O232 2.297 . S
Mn216 O240 2.385 . S
Mn216 O241 2.209 . S
Mn216 O242 2.094 . S
Mn217 O222 2.121 . S
Mn217 N224 2.257 1_655 S
Mn217 N233 2.282 1_655 S
Mn217 O241 2.215 . S
Mn217 O243 2.117 . S
C218 O240 1.234 . S
C218 O241 1.283 . S
C219 O231 1.281 . S
C219 O232 1.236 . S
C220 O242 1.240 . S
C220 O243 1.264 . S
O221 Mn216 2.095 . S
O221 C230 1.250 . S
O222 Mn217 2.121 . S
O222 C230 1.258 . S
C223 N224 1.326 1_655 S
C223 C227 1.460 1_655 S
C223 H229 0.929 . S
N224 Mn217 2.257 1_455 S
N224 C223 1.326 1_455 S
N224 C228 1.362 . S
C225 C226 1.258 . S
C225 C228 1.431 . S
C225 C245 1.449 . S
C226 C225 1.258 . S
C226 C227 1.477 . S
C226 H246 0.931 . S
C227 C223 1.460 1_455 S
C227 C226 1.477 . S
C227 H247 0.930 . S
C228 N224 1.362 . S
C228 C225 1.431 . S
C228 C238 1.476 . S
H229 C223 0.929 . S
C230 O221 1.250 . S
C230 O222 1.258 . S
O231 Mn216 2.162 . S
O231 C219 1.281 . S
O232 Mn216 2.297 . S
O232 C219 1.236 . S
N233 Mn217 2.282 1_455 S
N233 C234 1.328 . S
N233 C238 1.318 . S
C234 N233 1.328 . S
C234 C235 1.457 . S
C234 H239 0.929 . S
C235 C234 1.457 . S
C235 C236 1.291 . S
C235 H248 0.931 . S
C236 C235 1.291 . S
C236 C237 1.373 . S
C236 H249 0.929 . S
C237 C236 1.373 . S
C237 C238 1.396 . S
C237 C244 1.403 . S
C238 C228 1.476 . S
C238 N233 1.318 . S
C238 C237 1.396 . S
H239 C234 0.929 . S
O240 Mn216 2.385 . S
O240 C218 1.234 . S
O241 Mn216 2.209 . S
O241 Mn217 2.215 . S
O241 C218 1.283 . S
O242 Mn216 2.094 . S
O242 C220 1.240 . S
O243 Mn217 2.117 . S
O243 C220 1.264 . S
C244 C237 1.403 . S
C244 C245 1.399 . S
C244 H250 0.929 . S
C245 C225 1.449 . S
C245 C244 1.399 . S
C245 H251 0.930 . S
H246 C226 0.931 . S
H247 C227 0.930 . S
H248 C235 0.931 . S
H249 C236 0.929 . S
H250 C244 0.929 . S
H251 C245 0.930 . S
Mn252 O257 2.095 . S
Mn252 O267 2.162 . S
Mn252 O268 2.297 . S
Mn252 O276 2.385 . S
Mn252 O277 2.209 . S
Mn252 O278 2.094 . S
Mn253 O258 2.121 . S
Mn253 N260 2.257 1_545 S
Mn253 N269 2.282 1_545 S
Mn253 O277 2.215 . S
Mn253 O279 2.117 . S
C254 O276 1.234 . S
C254 O277 1.283 . S
C255 O267 1.281 . S
C255 O268 1.236 . S
C256 O278 1.240 . S
C256 O279 1.264 . S
O257 Mn252 2.095 . S
O257 C266 1.250 . S
O258 Mn253 2.121 . S
O258 C266 1.258 . S
C259 N260 1.326 1_545 S
C259 C263 1.460 1_545 S
C259 H265 0.929 . S
N260 Mn253 2.257 1_565 S
N260 C259 1.326 1_565 S
N260 C264 1.362 . S
C261 C262 1.258 . S
C261 C264 1.431 . S
C261 C281 1.449 . S
C262 C261 1.258 . S
C262 C263 1.477 . S
C262 H282 0.931 . S
C263 C259 1.460 1_565 S
C263 C262 1.477 . S
C263 H283 0.930 . S
C264 N260 1.362 . S
C264 C261 1.431 . S
C264 C274 1.476 . S
H265 C259 0.929 . S
C266 O257 1.250 . S
C266 O258 1.258 . S
O267 Mn252 2.162 . S
O267 C255 1.281 . S
O268 Mn252 2.297 . S
O268 C255 1.236 . S
N269 Mn253 2.282 1_565 S
N269 C270 1.328 . S
N269 C274 1.318 . S
C270 N269 1.328 . S
C270 C271 1.457 . S
C270 H275 0.929 . S
C271 C270 1.457 . S
C271 C272 1.291 . S
C271 H284 0.931 . S
C272 C271 1.291 . S
C272 C273 1.373 . S
C272 H285 0.929 . S
C273 C272 1.373 . S
C273 C274 1.396 . S
C273 C280 1.403 . S
C274 C264 1.476 . S
C274 N269 1.318 . S
C274 C273 1.396 . S
H275 C270 0.929 . S
O276 Mn252 2.385 . S
O276 C254 1.234 . S
O277 Mn252 2.209 . S
O277 Mn253 2.215 . S
O277 C254 1.283 . S
O278 Mn252 2.094 . S
O278 C256 1.240 . S
O279 Mn253 2.117 . S
O279 C256 1.264 . S
C280 C273 1.403 . S
C280 C281 1.399 . S
C280 H286 0.929 . S
C281 C261 1.449 . S
C281 C280 1.399 . S
C281 H287 0.930 . S
H282 C262 0.931 . S
H283 C263 0.930 . S
H284 C271 0.931 . S
H285 C272 0.929 . S
H286 C280 0.929 . S
H287 C281 0.930 . S
Mn288 O293 2.095 . S
Mn288 O303 2.162 . S
Mn288 O304 2.297 . S
Mn288 O312 2.385 . S
Mn288 O313 2.209 . S
Mn288 O314 2.094 . S
Mn289 O294 2.121 . S
Mn289 N296 2.257 . S
Mn289 N305 2.282 . S
Mn289 O313 2.215 . S
Mn289 O315 2.117 . S
C290 O312 1.234 . S
C290 O313 1.283 . S
C291 O303 1.281 . S
C291 O304 1.236 . S
C292 O314 1.240 . S
C292 O315 1.264 . S
O293 Mn288 2.095 . S
O293 C302 1.250 . S
O294 Mn289 2.121 . S
O294 C302 1.258 . S
C295 N296 1.326 . S
C295 C299 1.460 . S
C295 H301 0.929 . S
N296 Mn289 2.257 . S
N296 C295 1.326 . S
N296 C300 1.362 . S
C297 C298 1.258 . S
C297 C300 1.431 . S
C297 C317 1.449 . S
C298 C297 1.258 . S
C298 C299 1.477 . S
C298 H318 0.931 . S
C299 C295 1.460 . S
C299 C298 1.477 . S
C299 H319 0.930 . S
C300 N296 1.362 . S
C300 C297 1.431 . S
C300 C310 1.476 . S
H301 C295 0.929 . S
C302 O293 1.250 . S
C302 O294 1.258 . S
O303 Mn288 2.162 . S
O303 C291 1.281 . S
O304 Mn288 2.297 . S
O304 C291 1.236 . S
N305 Mn289 2.282 . S
N305 C306 1.328 . S
N305 C310 1.318 . S
C306 N305 1.328 . S
C306 C307 1.457 . S
C306 H311 0.929 . S
C307 C306 1.457 . S
C307 C308 1.291 . S
C307 H320 0.931 . S
C308 C307 1.291 . S
C308 C309 1.373 . S
C308 H321 0.929 . S
C309 C308 1.373 . S
C309 C310 1.396 . S
C309 C316 1.403 . S
C310 C300 1.476 . S
C310 N305 1.318 . S
C310 C309 1.396 . S
H311 C306 0.929 . S
O312 Mn288 2.385 . S
O312 C290 1.234 . S
O313 Mn288 2.209 . S
O313 Mn289 2.215 . S
O313 C290 1.283 . S
O314 Mn288 2.094 . S
O314 C292 1.240 . S
O315 Mn289 2.117 . S
O315 C292 1.264 . S
C316 C309 1.403 . S
C316 C317 1.399 . S
C316 H322 0.929 . S
C317 C297 1.449 . S
C317 C316 1.399 . S
C317 H323 0.930 . S
H318 C298 0.931 . S
H319 C299 0.930 . S
H320 C307 0.931 . S
H321 C308 0.929 . S
H322 C316 0.929 . S
H323 C317 0.930 . S
Mn324 O329 2.095 . S
Mn324 O339 2.162 . S
Mn324 O340 2.297 . S
Mn324 O348 2.385 . S
Mn324 O349 2.209 . S
Mn324 O350 2.094 . S
Mn325 O330 2.121 . S
Mn325 N332 2.257 . S
Mn325 N341 2.282 . S
Mn325 O349 2.215 . S
Mn325 O351 2.117 . S
C326 O348 1.234 . S
C326 O349 1.283 . S
C327 O339 1.281 . S
C327 O340 1.236 . S
C328 O350 1.240 . S
C328 O351 1.264 . S
O329 Mn324 2.095 . S
O329 C338 1.250 . S
O330 Mn325 2.121 . S
O330 C338 1.258 . S
C331 N332 1.326 . S
C331 C335 1.460 . S
C331 H337 0.929 . S
N332 Mn325 2.257 . S
N332 C331 1.326 . S
N332 C336 1.362 . S
C333 C334 1.258 . S
C333 C336 1.431 . S
C333 C353 1.449 . S
C334 C333 1.258 . S
C334 C335 1.477 . S
C334 H354 0.931 . S
C335 C331 1.460 . S
C335 C334 1.477 . S
C335 H355 0.930 . S
C336 N332 1.362 . S
C336 C333 1.431 . S
C336 C346 1.476 . S
H337 C331 0.929 . S
C338 O329 1.250 . S
C338 O330 1.258 . S
O339 Mn324 2.162 . S
O339 C327 1.281 . S
O340 Mn324 2.297 . S
O340 C327 1.236 . S
N341 Mn325 2.282 . S
N341 C342 1.328 . S
N341 C346 1.318 . S
C342 N341 1.328 . S
C342 C343 1.457 . S
C342 H347 0.929 . S
C343 C342 1.457 . S
C343 C344 1.291 . S
C343 H356 0.931 . S
C344 C343 1.291 . S
C344 C345 1.373 . S
C344 H357 0.929 . S
C345 C344 1.373 . S
C345 C346 1.396 . S
C345 C352 1.403 . S
C346 C336 1.476 . S
C346 N341 1.318 . S
C346 C345 1.396 . S
H347 C342 0.929 . S
O348 Mn324 2.385 . S
O348 C326 1.234 . S
O349 Mn324 2.209 . S
O349 Mn325 2.215 . S
O349 C326 1.283 . S
O350 Mn324 2.094 . S
O350 C328 1.240 . S
O351 Mn325 2.117 . S
O351 C328 1.264 . S
C352 C345 1.403 . S
C352 C353 1.399 . S
C352 H358 0.929 . S
C353 C333 1.449 . S
C353 C352 1.399 . S
C353 H359 0.930 . S
H354 C334 0.931 . S
H355 C335 0.930 . S
H356 C343 0.931 . S
H357 C344 0.929 . S
H358 C352 0.929 . S
H359 C353 0.930 . S
Mn360 O365 2.095 . S
Mn360 O375 2.162 . S
Mn360 O376 2.297 . S
Mn360 O384 2.385 . S
Mn360 O385 2.209 . S
Mn360 O386 2.094 . S
Mn361 O366 2.121 . S
Mn361 N368 2.257 . S
Mn361 N377 2.282 . S
Mn361 O385 2.215 . S
Mn361 O387 2.117 . S
C362 O384 1.234 . S
C362 O385 1.283 . S
C363 O375 1.281 . S
C363 O376 1.236 . S
C364 O386 1.240 . S
C364 O387 1.264 . S
O365 Mn360 2.095 . S
O365 C374 1.250 . S
O366 Mn361 2.121 . S
O366 C374 1.258 . S
C367 N368 1.326 . S
C367 C371 1.460 . S
C367 H373 0.929 . S
N368 Mn361 2.257 . S
N368 C367 1.326 . S
N368 C372 1.362 . S
C369 C370 1.258 . S
C369 C372 1.431 . S
C369 C389 1.449 . S
C370 C369 1.258 . S
C370 C371 1.477 . S
C370 H390 0.931 . S
C371 C367 1.460 . S
C371 C370 1.477 . S
C371 H391 0.930 . S
C372 N368 1.362 . S
C372 C369 1.431 . S
C372 C382 1.476 . S
H373 C367 0.929 . S
C374 O365 1.250 . S
C374 O366 1.258 . S
O375 Mn360 2.162 . S
O375 C363 1.281 . S
O376 Mn360 2.297 . S
O376 C363 1.236 . S
N377 Mn361 2.282 . S
N377 C378 1.328 . S
N377 C382 1.318 . S
C378 N377 1.328 . S
C378 C379 1.457 . S
C378 H383 0.929 . S
C379 C378 1.457 . S
C379 C380 1.291 . S
C379 H392 0.931 . S
C380 C379 1.291 . S
C380 C381 1.373 . S
C380 H393 0.929 . S
C381 C380 1.373 . S
C381 C382 1.396 . S
C381 C388 1.403 . S
C382 C372 1.476 . S
C382 N377 1.318 . S
C382 C381 1.396 . S
H383 C378 0.929 . S
O384 Mn360 2.385 . S
O384 C362 1.234 . S
O385 Mn360 2.209 . S
O385 Mn361 2.215 . S
O385 C362 1.283 . S
O386 Mn360 2.094 . S
O386 C364 1.240 . S
O387 Mn361 2.117 . S
O387 C364 1.264 . S
C388 C381 1.403 . S
C388 C389 1.399 . S
C388 H394 0.929 . S
C389 C369 1.449 . S
C389 C388 1.399 . S
C389 H395 0.930 . S
H390 C370 0.931 . S
H391 C371 0.930 . S
H392 C379 0.931 . S
H393 C380 0.929 . S
H394 C388 0.929 . S
H395 C389 0.930 . S
Mn396 O401 2.095 . S
Mn396 O411 2.162 . S
Mn396 O412 2.297 . S
Mn396 O420 2.385 . S
Mn396 O421 2.209 . S
Mn396 O422 2.094 . S
Mn397 O402 2.121 . S
Mn397 N404 2.257 . S
Mn397 N413 2.282 . S
Mn397 O421 2.215 . S
Mn397 O423 2.117 . S
C398 O420 1.234 . S
C398 O421 1.283 . S
C399 O411 1.281 . S
C399 O412 1.236 . S
C400 O422 1.240 . S
C400 O423 1.264 . S
O401 Mn396 2.095 . S
O401 C410 1.250 . S
O402 Mn397 2.121 . S
O402 C410 1.258 . S
C403 N404 1.326 . S
C403 C407 1.460 . S
C403 H409 0.929 . S
N404 Mn397 2.257 . S
N404 C403 1.326 . S
N404 C408 1.362 . S
C405 C406 1.258 . S
C405 C408 1.431 . S
C405 C425 1.449 . S
C406 C405 1.258 . S
C406 C407 1.477 . S
C406 H426 0.931 . S
C407 C403 1.460 . S
C407 C406 1.477 . S
C407 H427 0.930 . S
C408 N404 1.362 . S
C408 C405 1.431 . S
C408 C418 1.476 . S
H409 C403 0.929 . S
C410 O401 1.250 . S
C410 O402 1.258 . S
O411 Mn396 2.162 . S
O411 C399 1.281 . S
O412 Mn396 2.297 . S
O412 C399 1.236 . S
N413 Mn397 2.282 . S
N413 C414 1.328 . S
N413 C418 1.318 . S
C414 N413 1.328 . S
C414 C415 1.457 . S
C414 H419 0.929 . S
C415 C414 1.457 . S
C415 C416 1.291 . S
C415 H428 0.931 . S
C416 C415 1.291 . S
C416 C417 1.373 . S
C416 H429 0.929 . S
C417 C416 1.373 . S
C417 C418 1.396 . S
C417 C424 1.403 . S
C418 C408 1.476 . S
C418 N413 1.318 . S
C418 C417 1.396 . S
H419 C414 0.929 . S
O420 Mn396 2.385 . S
O420 C398 1.234 . S
O421 Mn396 2.209 . S
O421 Mn397 2.215 . S
O421 C398 1.283 . S
O422 Mn396 2.094 . S
O422 C400 1.240 . S
O423 Mn397 2.117 . S
O423 C400 1.264 . S
C424 C417 1.403 . S
C424 C425 1.399 . S
C424 H430 0.929 . S
C425 C405 1.449 . S
C425 C424 1.399 . S
C425 H431 0.930 . S
H426 C406 0.931 . S
H427 C407 0.930 . S
H428 C415 0.931 . S
H429 C416 0.929 . S
H430 C424 0.929 . S
H431 C425 0.930 . S
Mn432 O437 2.095 . S
Mn432 O447 2.162 . S
Mn432 O448 2.297 . S
Mn432 O456 2.385 . S
Mn432 O457 2.209 . S
Mn432 O458 2.094 . S
Mn433 O438 2.121 . S
Mn433 N440 2.257 . S
Mn433 N449 2.282 . S
Mn433 O457 2.215 . S
Mn433 O459 2.117 . S
C434 O456 1.234 . S
C434 O457 1.283 . S
C435 O447 1.281 . S
C435 O448 1.236 . S
C436 O458 1.240 . S
C436 O459 1.264 . S
O437 Mn432 2.095 . S
O437 C446 1.250 . S
O438 Mn433 2.121 . S
O438 C446 1.258 . S
C439 N440 1.326 . S
C439 C443 1.460 . S
C439 H445 0.929 . S
N440 Mn433 2.257 . S
N440 C439 1.326 . S
N440 C444 1.362 . S
C441 C442 1.258 . S
C441 C444 1.431 . S
C441 C461 1.449 . S
C442 C441 1.258 . S
C442 C443 1.477 . S
C442 H462 0.931 . S
C443 C439 1.460 . S
C443 C442 1.477 . S
C443 H463 0.930 . S
C444 N440 1.362 . S
C444 C441 1.431 . S
C444 C454 1.476 . S
H445 C439 0.929 . S
C446 O437 1.250 . S
C446 O438 1.258 . S
O447 Mn432 2.162 . S
O447 C435 1.281 . S
O448 Mn432 2.297 . S
O448 C435 1.236 . S
N449 Mn433 2.282 . S
N449 C450 1.328 . S
N449 C454 1.318 . S
C450 N449 1.328 . S
C450 C451 1.457 . S
C450 H455 0.929 . S
C451 C450 1.457 . S
C451 C452 1.291 . S
C451 H464 0.931 . S
C452 C451 1.291 . S
C452 C453 1.373 . S
C452 H465 0.929 . S
C453 C452 1.373 . S
C453 C454 1.396 . S
C453 C460 1.403 . S
C454 C444 1.476 . S
C454 N449 1.318 . S
C454 C453 1.396 . S
H455 C450 0.929 . S
O456 Mn432 2.385 . S
O456 C434 1.234 . S
O457 Mn432 2.209 . S
O457 Mn433 2.215 . S
O457 C434 1.283 . S
O458 Mn432 2.094 . S
O458 C436 1.240 . S
O459 Mn433 2.117 . S
O459 C436 1.264 . S
C460 C453 1.403 . S
C460 C461 1.399 . S
C460 H466 0.929 . S
C461 C441 1.449 . S
C461 C460 1.399 . S
C461 H467 0.930 . S
H462 C442 0.931 . S
H463 C443 0.930 . S
H464 C451 0.931 . S
H465 C452 0.929 . S
H466 C460 0.929 . S
H467 C461 0.930 . S
Mn468 O473 2.095 . S
Mn468 O483 2.162 . S
Mn468 O484 2.297 . S
Mn468 O492 2.385 . S
Mn468 O493 2.209 . S
Mn468 O494 2.094 . S
Mn469 O474 2.121 . S
Mn469 N476 2.257 . S
Mn469 N485 2.282 . S
Mn469 O493 2.215 . S
Mn469 O495 2.117 . S
C470 O492 1.234 . S
C470 O493 1.283 . S
C471 O483 1.281 . S
C471 O484 1.236 . S
C472 O494 1.240 . S
C472 O495 1.264 . S
O473 Mn468 2.095 . S
O473 C482 1.250 . S
O474 Mn469 2.121 . S
O474 C482 1.258 . S
C475 N476 1.326 . S
C475 C479 1.460 . S
C475 H481 0.929 . S
N476 Mn469 2.257 . S
N476 C475 1.326 . S
N476 C480 1.362 . S
C477 C478 1.258 . S
C477 C480 1.431 . S
C477 C497 1.449 . S
C478 C477 1.258 . S
C478 C479 1.477 . S
C478 H498 0.931 . S
C479 C475 1.460 . S
C479 C478 1.477 . S
C479 H499 0.930 . S
C480 N476 1.362 . S
C480 C477 1.431 . S
C480 C490 1.476 . S
H481 C475 0.929 . S
C482 O473 1.250 . S
C482 O474 1.258 . S
O483 Mn468 2.162 . S
O483 C471 1.281 . S
O484 Mn468 2.297 . S
O484 C471 1.236 . S
N485 Mn469 2.282 . S
N485 C486 1.328 . S
N485 C490 1.318 . S
C486 N485 1.328 . S
C486 C487 1.457 . S
C486 H491 0.929 . S
C487 C486 1.457 . S
C487 C488 1.291 . S
C487 H500 0.931 . S
C488 C487 1.291 . S
C488 C489 1.373 . S
C488 H501 0.929 . S
C489 C488 1.373 . S
C489 C490 1.396 . S
C489 C496 1.403 . S
C490 C480 1.476 . S
C490 N485 1.318 . S
C490 C489 1.396 . S
H491 C486 0.929 . S
O492 Mn468 2.385 . S
O492 C470 1.234 . S
O493 Mn468 2.209 . S
O493 Mn469 2.215 . S
O493 C470 1.283 . S
O494 Mn468 2.094 . S
O494 C472 1.240 . S
O495 Mn469 2.117 . S
O495 C472 1.264 . S
C496 C489 1.403 . S
C496 C497 1.399 . S
C496 H502 0.929 . S
C497 C477 1.449 . S
C497 C496 1.399 . S
C497 H503 0.930 . S
H498 C478 0.931 . S
H499 C479 0.930 . S
H500 C487 0.931 . S
H501 C488 0.929 . S
H502 C496 0.929 . S
H503 C497 0.930 . S
Mn504 O509 2.095 . S
Mn504 O519 2.162 . S
Mn504 O520 2.297 . S
Mn504 O528 2.385 . S
Mn504 O529 2.209 . S
Mn504 O530 2.094 . S
Mn505 O510 2.121 . S
Mn505 N512 2.257 . S
Mn505 N521 2.282 . S
Mn505 O529 2.215 . S
Mn505 O531 2.117 . S
C506 O528 1.234 . S
C506 O529 1.283 . S
C507 O519 1.281 . S
C507 O520 1.236 . S
C508 O530 1.240 . S
C508 O531 1.264 . S
O509 Mn504 2.095 . S
O509 C518 1.250 . S
O510 Mn505 2.121 . S
O510 C518 1.258 . S
C511 N512 1.326 . S
C511 C515 1.460 . S
C511 H517 0.929 . S
N512 Mn505 2.257 . S
N512 C511 1.326 . S
N512 C516 1.362 . S
C513 C514 1.258 . S
C513 C516 1.431 . S
C513 C533 1.449 . S
C514 C513 1.258 . S
C514 C515 1.477 . S
C514 H534 0.931 . S
C515 C511 1.460 . S
C515 C514 1.477 . S
C515 H535 0.930 . S
C516 N512 1.362 . S
C516 C513 1.431 . S
C516 C526 1.476 . S
H517 C511 0.929 . S
C518 O509 1.250 . S
C518 O510 1.258 . S
O519 Mn504 2.162 . S
O519 C507 1.281 . S
O520 Mn504 2.297 . S
O520 C507 1.236 . S
N521 Mn505 2.282 . S
N521 C522 1.328 . S
N521 C526 1.318 . S
C522 N521 1.328 . S
C522 C523 1.457 . S
C522 H527 0.929 . S
C523 C522 1.457 . S
C523 C524 1.291 . S
C523 H536 0.931 . S
C524 C523 1.291 . S
C524 C525 1.373 . S
C524 H537 0.929 . S
C525 C524 1.373 . S
C525 C526 1.396 . S
C525 C532 1.403 . S
C526 C516 1.476 . S
C526 N521 1.318 . S
C526 C525 1.396 . S
H527 C522 0.929 . S
O528 Mn504 2.385 . S
O528 C506 1.234 . S
O529 Mn504 2.209 . S
O529 Mn505 2.215 . S
O529 C506 1.283 . S
O530 Mn504 2.094 . S
O530 C508 1.240 . S
O531 Mn505 2.117 . S
O531 C508 1.264 . S
C532 C525 1.403 . S
C532 C533 1.399 . S
C532 H538 0.929 . S
C533 C513 1.449 . S
C533 C532 1.399 . S
C533 H539 0.930 . S
H534 C514 0.931 . S
H535 C515 0.930 . S
H536 C523 0.931 . S
H537 C524 0.929 . S
H538 C532 0.929 . S
H539 C533 0.930 . S
Mn540 O545 2.095 . S
Mn540 O555 2.162 . S
Mn540 O556 2.297 . S
Mn540 O564 2.385 . S
Mn540 O565 2.209 . S
Mn540 O566 2.094 . S
Mn541 O546 2.121 . S
Mn541 N548 2.257 . S
Mn541 N557 2.282 . S
Mn541 O565 2.215 . S
Mn541 O567 2.117 . S
C542 O564 1.234 . S
C542 O565 1.283 . S
C543 O555 1.281 . S
C543 O556 1.236 . S
C544 O566 1.240 . S
C544 O567 1.264 . S
O545 Mn540 2.095 . S
O545 C554 1.250 . S
O546 Mn541 2.121 . S
O546 C554 1.258 . S
C547 N548 1.326 . S
C547 C551 1.460 . S
C547 H553 0.929 . S
N548 Mn541 2.257 . S
N548 C547 1.326 . S
N548 C552 1.362 . S
C549 C550 1.258 . S
C549 C552 1.431 . S
C549 C569 1.449 . S
C550 C549 1.258 . S
C550 C551 1.477 . S
C550 H570 0.931 . S
C551 C547 1.460 . S
C551 C550 1.477 . S
C551 H571 0.930 . S
C552 N548 1.362 . S
C552 C549 1.431 . S
C552 C562 1.476 . S
H553 C547 0.929 . S
C554 O545 1.250 . S
C554 O546 1.258 . S
O555 Mn540 2.162 . S
O555 C543 1.281 . S
O556 Mn540 2.297 . S
O556 C543 1.236 . S
N557 Mn541 2.282 . S
N557 C558 1.328 . S
N557 C562 1.318 . S
C558 N557 1.328 . S
C558 C559 1.457 . S
C558 H563 0.929 . S
C559 C558 1.457 . S
C559 C560 1.291 . S
C559 H572 0.931 . S
C560 C559 1.291 . S
C560 C561 1.373 . S
C560 H573 0.929 . S
C561 C560 1.373 . S
C561 C562 1.396 . S
C561 C568 1.403 . S
C562 C552 1.476 . S
C562 N557 1.318 . S
C562 C561 1.396 . S
H563 C558 0.929 . S
O564 Mn540 2.385 . S
O564 C542 1.234 . S
O565 Mn540 2.209 . S
O565 Mn541 2.215 . S
O565 C542 1.283 . S
O566 Mn540 2.094 . S
O566 C544 1.240 . S
O567 Mn541 2.117 . S
O567 C544 1.264 . S
C568 C561 1.403 . S
C568 C569 1.399 . S
C568 H574 0.929 . S
C569 C549 1.449 . S
C569 C568 1.399 . S
C569 H575 0.930 . S
H570 C550 0.931 . S
H571 C551 0.930 . S
H572 C559 0.931 . S
H573 C560 0.929 . S
H574 C568 0.929 . S
H575 C569 0.930 . S
C576 C577 1.391 . S
C576 C578 1.394 . S
C576 H592 0.931 . S
C577 C576 1.391 . S
C577 C581 1.376 . S
C578 C576 1.394 . S
C578 C579 1.369 . S
C578 C582 1.531 . S
C579 C578 1.369 . S
C579 C580 1.410 . S
C579 C587 1.503 . S
C580 C579 1.410 . S
C580 C581 1.392 . S
C580 C583 1.511 . S
C581 C577 1.376 . S
C581 C580 1.392 . S
C581 H593 0.929 . S
C582 C578 1.531 . S
C582 H594 0.960 . S
C582 H595 0.962 . S
C582 H596 0.960 . S
C583 C580 1.511 . S
C583 H597 0.961 . S
C583 H598 0.961 . S
C583 H599 0.961 . S
C584 C585 1.370 . S
C584 C586 1.363 . S
C584 H600 0.931 . S
C585 C584 1.370 . S
C585 C589 1.408 . S
C586 C584 1.363 . S
C586 C587 1.370 . S
C586 C590 1.524 . S
C587 C579 1.503 . S
C587 C586 1.370 . S
C587 C588 1.403 . S
C588 C587 1.403 . S
C588 C589 1.404 . S
C588 C591 1.539 . S
C589 C585 1.408 . S
C589 C588 1.404 . S
C589 H601 0.930 . S
C590 C586 1.524 . S
C590 H602 0.956 . S
C590 H603 0.961 . S
C590 H604 0.961 . S
C591 C588 1.539 . S
C591 H605 0.958 . S
C591 H606 0.961 . S
C591 H607 0.960 . S
H592 C576 0.931 . S
H593 C581 0.929 . S
H594 C582 0.960 . S
H595 C582 0.962 . S
H596 C582 0.960 . S
H597 C583 0.961 . S
H598 C583 0.961 . S
H599 C583 0.961 . S
H600 C584 0.931 . S
H601 C589 0.930 . S
H602 C590 0.956 . S
H603 C590 0.961 . S
H604 C590 0.961 . S
H605 C591 0.958 . S
H606 C591 0.961 . S
H607 C591 0.960 . S
C608 C609 1.391 . S
C608 C610 1.394 . S
C608 H624 0.931 . S
C609 C608 1.391 . S
C609 C613 1.376 . S
C610 C608 1.394 . S
C610 C611 1.369 . S
C610 C614 1.531 . S
C611 C610 1.369 . S
C611 C612 1.410 . S
C611 C619 1.503 . S
C612 C611 1.410 . S
C612 C613 1.392 . S
C612 C615 1.511 . S
C613 C609 1.376 . S
C613 C612 1.392 . S
C613 H625 0.929 . S
C614 C610 1.531 . S
C614 H626 0.960 . S
C614 H627 0.962 . S
C614 H628 0.960 . S
C615 C612 1.511 . S
C615 H629 0.961 . S
C615 H630 0.961 . S
C615 H631 0.961 . S
C616 C617 1.370 . S
C616 C618 1.363 . S
C616 H632 0.931 . S
C617 C616 1.370 . S
C617 C621 1.408 . S
C618 C616 1.363 . S
C618 C619 1.370 . S
C618 C622 1.524 . S
C619 C611 1.503 . S
C619 C618 1.370 . S
C619 C620 1.403 . S
C620 C619 1.403 . S
C620 C621 1.404 . S
C620 C623 1.539 . S
C621 C617 1.408 . S
C621 C620 1.404 . S
C621 H633 0.930 . S
C622 C618 1.524 . S
C622 H634 0.956 . S
C622 H635 0.961 . S
C622 H636 0.961 . S
C623 C620 1.539 . S
C623 H637 0.958 . S
C623 H638 0.961 . S
C623 H639 0.960 . S
H624 C608 0.931 . S
H625 C613 0.929 . S
H626 C614 0.960 . S
H627 C614 0.962 . S
H628 C614 0.960 . S
H629 C615 0.961 . S
H630 C615 0.961 . S
H631 C615 0.961 . S
H632 C616 0.931 . S
H633 C621 0.930 . S
H634 C622 0.956 . S
H635 C622 0.961 . S
H636 C622 0.961 . S
H637 C623 0.958 . S
H638 C623 0.961 . S
H639 C623 0.960 . S
C640 C641 1.391 . S
C640 C642 1.394 . S
C640 H656 0.931 . S
C641 C640 1.391 . S
C641 C645 1.376 . S
C642 C640 1.394 . S
C642 C643 1.369 . S
C642 C646 1.531 . S
C643 C642 1.369 . S
C643 C644 1.410 . S
C643 C651 1.503 . S
C644 C643 1.410 . S
C644 C645 1.392 . S
C644 C647 1.511 . S
C645 C641 1.376 . S
C645 C644 1.392 . S
C645 H657 0.929 . S
C646 C642 1.531 . S
C646 H658 0.960 . S
C646 H659 0.962 . S
C646 H660 0.960 . S
C647 C644 1.511 . S
C647 H661 0.961 . S
C647 H662 0.961 . S
C647 H663 0.961 . S
C648 C649 1.370 . S
C648 C650 1.363 . S
C648 H664 0.931 . S
C649 C648 1.370 . S
C649 C653 1.408 . S
C650 C648 1.363 . S
C650 C651 1.370 . S
C650 C654 1.524 . S
C651 C643 1.503 . S
C651 C650 1.370 . S
C651 C652 1.403 . S
C652 C651 1.403 . S
C652 C653 1.404 . S
C652 C655 1.539 . S
C653 C649 1.408 . S
C653 C652 1.404 . S
C653 H665 0.930 . S
C654 C650 1.524 . S
C654 H666 0.956 . S
C654 H667 0.961 . S
C654 H668 0.961 . S
C655 C652 1.539 . S
C655 H669 0.958 . S
C655 H670 0.961 . S
C655 H671 0.960 . S
H656 C640 0.931 . S
H657 C645 0.929 . S
H658 C646 0.960 . S
H659 C646 0.962 . S
H660 C646 0.960 . S
H661 C647 0.961 . S
H662 C647 0.961 . S
H663 C647 0.961 . S
H664 C648 0.931 . S
H665 C653 0.930 . S
H666 C654 0.956 . S
H667 C654 0.961 . S
H668 C654 0.961 . S
H669 C655 0.958 . S
H670 C655 0.961 . S
H671 C655 0.960 . S
C672 C673 1.391 . S
C672 C674 1.394 . S
C672 H688 0.931 . S
C673 C672 1.391 . S
C673 C677 1.376 . S
C674 C672 1.394 . S
C674 C675 1.369 . S
C674 C678 1.531 . S
C675 C674 1.369 . S
C675 C676 1.410 . S
C675 C683 1.503 . S
C676 C675 1.410 . S
C676 C677 1.392 . S
C676 C679 1.511 . S
C677 C673 1.376 . S
C677 C676 1.392 . S
C677 H689 0.929 . S
C678 C674 1.531 . S
C678 H690 0.960 . S
C678 H691 0.962 . S
C678 H692 0.960 . S
C679 C676 1.511 . S
C679 H693 0.961 . S
C679 H694 0.961 . S
C679 H695 0.961 . S
C680 C681 1.370 . S
C680 C682 1.363 . S
C680 H696 0.931 . S
C681 C680 1.370 . S
C681 C685 1.408 . S
C682 C680 1.363 . S
C682 C683 1.370 . S
C682 C686 1.524 . S
C683 C675 1.503 . S
C683 C682 1.370 . S
C683 C684 1.403 . S
C684 C683 1.403 . S
C684 C685 1.404 . S
C684 C687 1.539 . S
C685 C681 1.408 . S
C685 C684 1.404 . S
C685 H697 0.930 . S
C686 C682 1.524 . S
C686 H698 0.956 . S
C686 H699 0.961 . S
C686 H700 0.961 . S
C687 C684 1.539 . S
C687 H701 0.958 . S
C687 H702 0.961 . S
C687 H703 0.960 . S
H688 C672 0.931 . S
H689 C677 0.929 . S
H690 C678 0.960 . S
H691 C678 0.962 . S
H692 C678 0.960 . S
H693 C679 0.961 . S
H694 C679 0.961 . S
H695 C679 0.961 . S
H696 C680 0.931 . S
H697 C685 0.930 . S
H698 C686 0.956 . S
H699 C686 0.961 . S
H700 C686 0.961 . S
H701 C687 0.958 . S
H702 C687 0.961 . S
H703 C687 0.960 . S
C704 C705 1.391 . S
C704 C706 1.394 . S
C704 H720 0.931 . S
C705 C704 1.391 . S
C705 C709 1.376 . S
C706 C704 1.394 . S
C706 C707 1.369 . S
C706 C710 1.531 . S
C707 C706 1.369 . S
C707 C708 1.410 . S
C707 C715 1.503 . S
C708 C707 1.410 . S
C708 C709 1.392 . S
C708 C711 1.511 1_554 S
C709 C705 1.376 . S
C709 C708 1.392 . S
C709 H721 0.929 . S
C710 C706 1.531 . S
C710 H722 0.960 . S
C710 H723 0.962 . S
C710 H724 0.960 . S
C711 C708 1.511 1_556 S
C711 H725 0.961 . S
C711 H726 0.961 . S
C711 H727 0.961 1_556 S
C712 C713 1.370 . S
C712 C714 1.363 . S
C712 H728 0.931 . S
C713 C712 1.370 . S
C713 C717 1.408 1_556 S
C714 C712 1.363 . S
C714 C715 1.370 1_556 S
C714 C718 1.524 . S
C715 C707 1.503 . S
C715 C714 1.370 1_554 S
C715 C716 1.403 . S
C716 C715 1.403 . S
C716 C717 1.404 . S
C716 C719 1.539 . S
C717 C713 1.408 1_554 S
C717 C716 1.404 . S
C717 H729 0.930 . S
C718 C714 1.524 . S
C718 H730 0.956 . S
C718 H731 0.961 . S
C718 H732 0.961 . S
C719 C716 1.539 . S
C719 H733 0.958 . S
C719 H734 0.961 . S
C719 H735 0.960 . S
H720 C704 0.931 . S
H721 C709 0.929 . S
H722 C710 0.960 . S
H723 C710 0.962 . S
H724 C710 0.960 . S
H725 C711 0.961 . S
H726 C711 0.961 . S
H727 C711 0.961 1_554 S
H728 C712 0.931 . S
H729 C717 0.930 . S
H730 C718 0.956 . S
H731 C718 0.961 . S
H732 C718 0.961 . S
H733 C719 0.958 . S
H734 C719 0.961 . S
H735 C719 0.960 . S
C736 C737 1.391 . S
C736 C738 1.394 . S
C736 H752 0.931 . S
C737 C736 1.391 . S
C737 C741 1.376 1_554 S
C738 C736 1.394 . S
C738 C739 1.369 1_554 S
C738 C742 1.531 . S
C739 C738 1.369 1_556 S
C739 C740 1.410 . S
C739 C747 1.503 . S
C740 C739 1.410 . S
C740 C741 1.392 . S
C740 C743 1.511 . S
C741 C737 1.376 1_556 S
C741 C740 1.392 . S
C741 H753 0.929 . S
C742 C738 1.531 . S
C742 H754 0.960 . S
C742 H755 0.962 . S
C742 H756 0.960 . S
C743 C740 1.511 . S
C743 H757 0.961 . S
C743 H758 0.961 . S
C743 H759 0.961 . S
C744 C745 1.368 1_455 S
C744 C746 1.363 . S
C744 H760 0.931 . S
C745 C744 1.368 1_655 S
C745 C749 1.408 1_655 S
C746 C744 1.363 . S
C746 C747 1.370 . S
C746 C750 1.524 1_556 S
C747 C739 1.503 . S
C747 C746 1.370 . S
C747 C748 1.403 . S
C748 C747 1.403 . S
C748 C749 1.404 . S
C748 C751 1.539 . S
C749 C745 1.408 1_455 S
C749 C748 1.404 . S
C749 H761 0.930 1_455 S
C750 C746 1.524 1_554 S
C750 H762 0.956 . S
C750 H763 0.961 1_554 S
C750 H764 0.961 . S
C751 C748 1.539 . S
C751 H765 0.958 . S
C751 H766 0.961 . S
C751 H767 0.960 . S
H752 C736 0.931 . S
H753 C741 0.929 . S
H754 C742 0.960 . S
H755 C742 0.962 . S
H756 C742 0.960 . S
H757 C743 0.961 . S
H758 C743 0.961 . S
H759 C743 0.961 . S
H760 C744 0.931 . S
H761 C749 0.930 1_655 S
H762 C750 0.956 . S
H763 C750 0.961 1_556 S
H764 C750 0.961 . S
H765 C751 0.958 . S
H766 C751 0.961 . S
H767 C751 0.960 . S
C768 C769 1.391 . S
C768 C770 1.394 1_556 S
C768 H784 0.931 . S
C769 C768 1.391 . S
C769 C773 1.376 . S
C770 C768 1.394 1_554 S
C770 C771 1.369 . S
C770 C774 1.531 . S
C771 C770 1.369 . S
C771 C772 1.410 1_554 S
C771 C779 1.503 . S
C772 C771 1.410 1_556 S
C772 C773 1.392 . S
C772 C775 1.511 . S
C773 C769 1.376 . S
C773 C772 1.392 . S
C773 H785 0.929 . S
C774 C770 1.531 . S
C774 H786 0.960 . S
C774 H787 0.962 . S
C774 H788 0.960 . S
C775 C772 1.511 . S
C775 H789 0.971 . S
C775 H790 0.961 1_556 S
C775 H791 0.961 . S
C776 C777 1.356 1_565 S
C776 C778 1.363 . S
C776 H792 0.931 . S
C777 C776 1.356 1_545 S
C777 C781 1.408 1_545 S
C778 C776 1.363 . S
C778 C779 1.370 . S
C778 C782 1.524 . S
C779 C771 1.503 . S
C779 C778 1.370 . S
C779 C780 1.398 1_554 S
C780 C779 1.398 1_556 S
C780 C781 1.420 1_556 S
C780 C783 1.546 . S
C781 C777 1.408 1_565 S
C781 C780 1.420 1_554 S
C781 H793 0.913 1_565 S
C782 C778 1.524 . S
C782 H794 0.956 . S
C782 H795 0.961 . S
C782 H796 0.961 . S
C783 C780 1.546 . S
C783 H797 0.958 . S
C783 H798 0.961 . S
C783 H799 0.960 . S
H784 C768 0.931 . S
H785 C773 0.929 . S
H786 C774 0.960 . S
H787 C774 0.962 . S
H788 C774 0.960 . S
H789 C775 0.971 . S
H790 C775 0.961 1_554 S
H791 C775 0.961 . S
H792 C776 0.931 . S
H793 C781 0.913 1_545 S
H794 C782 0.956 . S
H795 C782 0.961 . S
H796 C782 0.961 . S
H797 C783 0.958 . S
H798 C783 0.961 . S
H799 C783 0.960 . S
C800 C801 1.391 . S
C800 C802 1.394 . S
C800 H816 0.931 . S
C801 C800 1.391 . S
C801 C805 1.376 1_554 S
C802 C800 1.394 . S
C802 C803 1.369 1_554 S
C802 C806 1.531 . S
C803 C802 1.369 1_556 S
C803 C804 1.410 . S
C803 C811 1.503 . S
C804 C803 1.410 . S
C804 C805 1.392 . S
C804 C807 1.511 . S
C805 C801 1.376 1_556 S
C805 C804 1.392 . S
C805 H817 0.929 . S
C806 C802 1.531 . S
C806 H818 0.960 . S
C806 H819 0.962 . S
C806 H820 0.960 . S
C807 C804 1.511 . S
C807 H821 0.961 . S
C807 H822 0.961 . S
C807 H823 0.961 . S
C808 C809 1.370 1_655 S
C808 C810 1.363 . S
C808 H824 0.931 . S
C809 C808 1.370 1_455 S
C809 C813 1.408 1_455 S
C810 C808 1.363 . S
C810 C811 1.370 . S
C810 C814 1.524 1_556 S
C811 C803 1.503 . S
C811 C810 1.370 . S
C811 C812 1.403 . S
C812 C811 1.403 . S
C812 C813 1.404 . S
C812 C815 1.539 . S
C813 C809 1.408 1_655 S
C813 C812 1.404 . S
C813 H825 0.930 1_655 S
C814 C810 1.524 1_554 S
C814 H826 0.956 . S
C814 H827 0.961 1_554 S
C814 H828 0.961 . S
C815 C812 1.539 . S
C815 H829 0.958 . S
C815 H830 0.961 . S
C815 H831 0.960 . S
H816 C800 0.931 . S
H817 C805 0.929 . S
H818 C806 0.960 . S
H819 C806 0.962 . S
H820 C806 0.960 . S
H821 C807 0.961 . S
H822 C807 0.961 . S
H823 C807 0.961 . S
H824 C808 0.931 . S
H825 C813 0.930 1_455 S
H826 C814 0.956 . S
H827 C814 0.961 1_556 S
H828 C814 0.961 . S
H829 C815 0.958 . S
H830 C815 0.961 . S
H831 C815 0.960 . S
C832 C833 1.391 . S
C832 C834 1.394 . S
C832 H848 0.931 . S
C833 C832 1.391 . S
C833 C837 1.376 . S
C834 C832 1.394 . S
C834 C835 1.369 . S
C834 C838 1.531 . S
C835 C834 1.369 . S
C835 C836 1.410 . S
C835 C843 1.503 . S
C836 C835 1.410 . S
C836 C837 1.392 . S
C836 C839 1.511 . S
C837 C833 1.376 . S
C837 C836 1.392 . S
C837 H849 0.929 . S
C838 C834 1.531 . S
C838 H850 0.960 . S
C838 H851 0.962 . S
C838 H852 0.960 . S
C839 C836 1.511 . S
C839 H853 0.961 . S
C839 H854 0.961 . S
C839 H855 0.961 . S
C840 C841 1.370 . S
C840 C842 1.363 . S
C840 H856 0.931 1_565 S
C841 C840 1.370 . S
C841 C845 1.409 . S
C842 C840 1.363 . S
C842 C843 1.370 . S
C842 C846 1.524 . S
C843 C835 1.503 . S
C843 C842 1.370 . S
C843 C844 1.403 . S
C844 C843 1.403 . S
C844 C845 1.404 . S
C844 C847 1.539 . S
C845 C841 1.409 . S
C845 C844 1.404 . S
C845 H857 0.930 . S
C846 C842 1.524 . S
C846 H858 0.956 . S
C846 H859 0.961 . S
C846 H860 0.961 . S
C847 C844 1.539 . S
C847 H861 0.958 . S
C847 H862 0.961 . S
C847 H863 0.960 . S
H848 C832 0.931 . S
H849 C837 0.929 . S
H850 C838 0.960 . S
H851 C838 0.962 . S
H852 C838 0.960 . S
H853 C839 0.961 . S
H854 C839 0.961 . S
H855 C839 0.961 . S
H856 C840 0.931 1_545 S
H857 C845 0.930 . S
H858 C846 0.956 . S
H859 C846 0.961 . S
H860 C846 0.961 . S
H861 C847 0.958 . S
H862 C847 0.961 . S
H863 C847 0.960 . S
C864 C865 1.391 1_655 S
C864 C866 1.394 . S
C864 H880 0.931 . S
C865 C864 1.391 1_455 S
C865 C869 1.376 1_455 S
C866 C864 1.394 . S
C866 C867 1.369 . S
C866 C870 1.531 . S
C867 C866 1.369 . S
C867 C868 1.410 . S
C867 C875 1.503 . S
C868 C867 1.410 . S
C868 C869 1.392 . S
C868 C871 1.511 . S
C869 C865 1.376 1_655 S
C869 C868 1.392 . S
C869 H881 0.929 1_655 S
C870 C866 1.531 . S
C870 H882 0.960 . S
C870 H883 0.962 . S
C870 H884 0.960 . S
C871 C868 1.511 . S
C871 H885 0.961 . S
C871 H886 0.961 . S
C871 H887 0.961 . S
C872 C873 1.370 . S
C872 C874 1.363 . S
C872 H888 0.931 . S
C873 C872 1.370 . S
C873 C877 1.408 . S
C874 C872 1.363 . S
C874 C875 1.370 . S
C874 C878 1.524 . S
C875 C867 1.503 . S
C875 C874 1.370 . S
C875 C876 1.403 . S
C876 C875 1.403 . S
C876 C877 1.404 . S
C876 C879 1.539 . S
C877 C873 1.408 . S
C877 C876 1.404 . S
C877 H889 0.930 . S
C878 C874 1.524 . S
C878 H890 0.956 . S
C878 H891 0.961 . S
C878 H892 0.961 . S
C879 C876 1.539 . S
C879 H893 0.958 . S
C879 H894 0.961 . S
C879 H895 0.960 . S
H880 C864 0.931 . S
H881 C869 0.929 1_455 S
H882 C870 0.960 . S
H883 C870 0.962 . S
H884 C870 0.960 . S
H885 C871 0.961 . S
H886 C871 0.961 . S
H887 C871 0.961 . S
H888 C872 0.931 . S
H889 C877 0.930 . S
H890 C878 0.956 . S
H891 C878 0.961 . S
H892 C878 0.961 . S
H893 C879 0.958 . S
H894 C879 0.961 . S
H895 C879 0.960 . S
C896 C897 1.394 . S
C896 C898 1.394 . S
C896 H912 0.931 1_545 S
C897 C896 1.394 . S
C897 C901 1.391 . S
C898 C896 1.394 . S
C898 C899 1.369 . S
C898 C902 1.531 . S
C899 C898 1.369 . S
C899 C900 1.410 . S
C899 C907 1.503 . S
C900 C899 1.410 . S
C900 C901 1.392 . S
C900 C903 1.511 . S
C901 C897 1.391 . S
C901 C900 1.392 . S
C901 H913 0.929 . S
C902 C898 1.531 . S
C902 H914 0.960 . S
C902 H915 0.962 . S
C902 H916 0.960 . S
C903 C900 1.511 . S
C903 H917 0.961 . S
C903 H918 0.961 . S
C903 H919 0.961 . S
C904 C905 1.370 . S
C904 C906 1.363 . S
C904 H920 0.931 . S
C905 C904 1.370 . S
C905 C909 1.408 . S
C906 C904 1.363 . S
C906 C907 1.370 . S
C906 C910 1.524 . S
C907 C899 1.503 . S
C907 C906 1.370 . S
C907 C908 1.403 . S
C908 C907 1.403 . S
C908 C909 1.404 . S
C908 C911 1.539 . S
C909 C905 1.408 . S
C909 C908 1.404 . S
C909 H921 0.930 . S
C910 C906 1.524 . S
C910 H922 0.956 . S
C910 H923 0.961 . S
C910 H924 0.961 . S
C911 C908 1.539 . S
C911 H925 0.958 . S
C911 H926 0.961 . S
C911 H927 0.960 . S
H912 C896 0.931 1_565 S
H913 C901 0.929 . S
H914 C902 0.960 . S
H915 C902 0.962 . S
H916 C902 0.960 . S
H917 C903 0.961 . S
H918 C903 0.961 . S
H919 C903 0.961 . S
H920 C904 0.931 . S
H921 C909 0.930 . S
H922 C910 0.956 . S
H923 C910 0.961 . S
H924 C910 0.961 . S
H925 C911 0.958 . S
H926 C911 0.961 . S
H927 C911 0.960 . S
C928 C929 1.391 . S
C928 C930 1.394 . S
C928 H944 0.931 . S
C929 C928 1.391 . S
C929 C933 1.376 . S
C930 C928 1.394 . S
C930 C931 1.369 . S
C930 C934 1.531 . S
C931 C930 1.369 . S
C931 C932 1.410 . S
C931 C939 1.503 . S
C932 C931 1.410 . S
C932 C933 1.392 . S
C932 C935 1.511 . S
C933 C929 1.376 . S
C933 C932 1.392 . S
C933 H945 0.929 1_455 S
C934 C930 1.531 . S
C934 H946 0.960 . S
C934 H947 0.962 . S
C934 H948 0.960 . S
C935 C932 1.511 . S
C935 H949 0.961 . S
C935 H950 0.961 . S
C935 H951 0.961 . S
C936 C937 1.370 . S
C936 C938 1.363 . S
C936 H952 0.931 . S
C937 C936 1.370 . S
C937 C941 1.408 . S
C938 C936 1.363 . S
C938 C939 1.370 . S
C938 C942 1.524 . S
C939 C931 1.503 . S
C939 C938 1.370 . S
C939 C940 1.403 . S
C940 C939 1.403 . S
C940 C941 1.404 . S
C940 C943 1.539 . S
C941 C937 1.408 . S
C941 C940 1.404 . S
C941 H953 0.930 . S
C942 C938 1.524 . S
C942 H954 0.956 . S
C942 H955 0.961 . S
C942 H956 0.961 . S
C943 C940 1.539 . S
C943 H957 0.958 . S
C943 H958 0.961 . S
C943 H959 0.960 . S
H944 C928 0.931 . S
H945 C933 0.929 1_655 S
H946 C934 0.960 . S
H947 C934 0.962 . S
H948 C934 0.960 . S
H949 C935 0.961 . S
H950 C935 0.961 . S
H951 C935 0.961 . S
H952 C936 0.931 . S
H953 C941 0.930 . S
H954 C942 0.956 . S
H955 C942 0.961 . S
H956 C942 0.961 . S
H957 C943 0.958 . S
H958 C943 0.961 . S
H959 C943 0.960 . S
C960 C961 1.391 . S
C960 C962 1.394 . S
C960 H976 0.931 . S
C961 C960 1.391 . S
C961 C965 1.376 . S
C962 C960 1.394 . S
C962 C963 1.369 . S
C962 C966 1.531 . S
C963 C962 1.369 . S
C963 C964 1.410 . S
C963 C971 1.503 . S
C964 C963 1.410 . S
C964 C965 1.392 . S
C964 C967 1.511 . S
C965 C961 1.376 . S
C965 C964 1.392 . S
C965 H977 0.929 . S
C966 C962 1.531 . S
C966 H978 0.960 . S
C966 H979 0.962 . S
C966 H980 0.960 . S
C967 C964 1.511 . S
C967 H981 0.961 . S
C967 H982 0.961 . S
C967 H983 0.961 . S
C968 C969 1.370 . S
C968 C970 1.363 . S
C968 H984 0.931 . S
C969 C968 1.370 . S
C969 C973 1.408 . S
C970 C968 1.363 . S
C970 C971 1.370 . S
C970 C974 1.524 . S
C971 C963 1.503 . S
C971 C970 1.370 . S
C971 C972 1.403 . S
C972 C971 1.403 . S
C972 C973 1.404 . S
C972 C975 1.539 . S
C973 C969 1.408 . S
C973 C972 1.404 . S
C973 H985 0.930 . S
C974 C970 1.524 . S
C974 H986 0.956 . S
C974 H987 0.961 . S
C974 H988 0.961 . S
C975 C972 1.539 . S
C975 H989 0.958 . S
C975 H990 0.961 . S
C975 H991 0.960 . S
H976 C960 0.931 . S
H977 C965 0.929 . S
H978 C966 0.960 . S
H979 C966 0.962 . S
H980 C966 0.960 . S
H981 C967 0.961 . S
H982 C967 0.961 . S
H983 C967 0.961 . S
H984 C968 0.931 . S
H985 C973 0.930 . S
H986 C974 0.956 . S
H987 C974 0.961 . S
H988 C974 0.961 . S
H989 C975 0.958 . S
H990 C975 0.961 . S
H991 C975 0.960 . S
C992 C993 1.391 . S
C992 C994 1.394 . S
C992 H1008 0.931 . S
C993 C992 1.391 . S
C993 C997 1.376 . S
C994 C992 1.394 . S
C994 C995 1.369 . S
C994 C998 1.531 . S
C995 C994 1.369 . S
C995 C996 1.410 . S
C995 C1003 1.503 . S
C996 C995 1.410 . S
C996 C997 1.392 . S
C996 C999 1.511 . S
C997 C993 1.376 . S
C997 C996 1.392 . S
C997 H1009 0.929 . S
C998 C994 1.531 . S
C998 H1010 0.960 . S
C998 H1011 0.962 . S
C998 H1012 0.960 . S
C999 C996 1.511 . S
C999 H1013 0.961 . S
C999 H1014 0.961 . S
C999 H1015 0.961 . S
C1000 C1001 1.370 . S
C1000 C1002 1.363 . S
C1000 H1016 0.931 . S
C1001 C1000 1.370 . S
C1001 C1005 1.408 . S
C1002 C1000 1.363 . S
C1002 C1003 1.370 . S
C1002 C1006 1.524 . S
C1003 C995 1.503 . S
C1003 C1002 1.370 . S
C1003 C1004 1.403 . S
C1004 C1003 1.403 . S
C1004 C1005 1.404 . S
C1004 C1007 1.539 . S
C1005 C1001 1.408 . S
C1005 C1004 1.404 . S
C1005 H1017 0.930 . S
C1006 C1002 1.524 . S
C1006 H1018 0.956 . S
C1006 H1019 0.961 . S
C1006 H1020 0.961 . S
C1007 C1004 1.539 . S
C1007 H1021 0.958 . S
C1007 H1022 0.961 . S
C1007 H1023 0.960 . S
H1008 C992 0.931 . S
H1009 C997 0.929 . S
H1010 C998 0.960 . S
H1011 C998 0.962 . S
H1012 C998 0.960 . S
H1013 C999 0.961 . S
H1014 C999 0.961 . S
H1015 C999 0.961 . S
H1016 C1000 0.931 . S
H1017 C1005 0.930 . S
H1018 C1006 0.956 . S
H1019 C1006 0.961 . S
H1020 C1006 0.961 . S
H1021 C1007 0.958 . S
H1022 C1007 0.961 . S
H1023 C1007 0.960 . S
C1024 C1025 1.391 . S
C1024 C1026 1.394 . S
C1024 H1040 0.931 . S
C1025 C1024 1.391 . S
C1025 C1029 1.376 . S
C1026 C1024 1.394 . S
C1026 C1027 1.369 . S
C1026 C1030 1.531 . S
C1027 C1026 1.369 . S
C1027 C1028 1.410 . S
C1027 C1035 1.503 . S
C1028 C1027 1.410 . S
C1028 C1029 1.392 . S
C1028 C1031 1.511 . S
C1029 C1025 1.376 . S
C1029 C1028 1.392 . S
C1029 H1041 0.929 . S
C1030 C1026 1.531 . S
C1030 H1042 0.960 . S
C1030 H1043 0.962 . S
C1030 H1044 0.960 . S
C1031 C1028 1.511 . S
C1031 H1045 0.961 . S
C1031 H1046 0.961 . S
C1031 H1047 0.961 . S
C1032 C1033 1.370 . S
C1032 C1034 1.363 . S
C1032 H1048 0.931 . S
C1033 C1032 1.370 . S
C1033 C1037 1.408 . S
C1034 C1032 1.363 . S
C1034 C1035 1.370 . S
C1034 C1038 1.524 . S
C1035 C1027 1.503 . S
C1035 C1034 1.370 . S
C1035 C1036 1.403 . S
C1036 C1035 1.403 . S
C1036 C1037 1.404 . S
C1036 C1039 1.539 . S
C1037 C1033 1.408 . S
C1037 C1036 1.404 . S
C1037 H1049 0.930 . S
C1038 C1034 1.524 . S
C1038 H1050 0.956 . S
C1038 H1051 0.961 . S
C1038 H1052 0.961 . S
C1039 C1036 1.539 . S
C1039 H1053 0.958 . S
C1039 H1054 0.961 . S
C1039 H1055 0.960 . S
H1040 C1024 0.931 . S
H1041 C1029 0.929 . S
H1042 C1030 0.960 . S
H1043 C1030 0.962 . S
H1044 C1030 0.960 . S
H1045 C1031 0.961 . S
H1046 C1031 0.961 . S
H1047 C1031 0.961 . S
H1048 C1032 0.931 . S
H1049 C1037 0.930 . S
H1050 C1038 0.956 . S
H1051 C1038 0.961 . S
H1052 C1038 0.961 . S
H1053 C1039 0.958 . S
H1054 C1039 0.961 . S
H1055 C1039 0.960 . S
C1056 C1057 1.391 . S
C1056 C1058 1.394 . S
C1056 H1072 0.931 . S
C1057 C1056 1.391 . S
C1057 C1061 1.376 . S
C1058 C1056 1.394 . S
C1058 C1059 1.369 . S
C1058 C1062 1.531 . S
C1059 C1058 1.369 . S
C1059 C1060 1.410 . S
C1059 C1067 1.503 . S
C1060 C1059 1.410 . S
C1060 C1061 1.392 . S
C1060 C1063 1.511 . S
C1061 C1057 1.376 . S
C1061 C1060 1.392 . S
C1061 H1073 0.929 . S
C1062 C1058 1.531 . S
C1062 H1074 0.960 . S
C1062 H1075 0.962 . S
C1062 H1076 0.960 . S
C1063 C1060 1.511 . S
C1063 H1077 0.961 . S
C1063 H1078 0.961 . S
C1063 H1079 0.961 . S
C1064 C1065 1.370 . S
C1064 C1066 1.363 . S
C1064 H1080 0.931 . S
C1065 C1064 1.370 . S
C1065 C1069 1.408 . S
C1066 C1064 1.363 . S
C1066 C1067 1.370 . S
C1066 C1070 1.524 . S
C1067 C1059 1.503 . S
C1067 C1066 1.370 . S
C1067 C1068 1.403 . S
C1068 C1067 1.403 . S
C1068 C1069 1.404 . S
C1068 C1071 1.539 . S
C1069 C1065 1.408 . S
C1069 C1068 1.404 . S
C1069 H1081 0.930 . S
C1070 C1066 1.524 . S
C1070 H1082 0.956 . S
C1070 H1083 0.961 . S
C1070 H1084 0.961 . S
C1071 C1068 1.539 . S
C1071 H1085 0.958 . S
C1071 H1086 0.961 . S
C1071 H1087 0.960 . S
H1072 C1056 0.931 . S
H1073 C1061 0.929 . S
H1074 C1062 0.960 . S
H1075 C1062 0.962 . S
H1076 C1062 0.960 . S
H1077 C1063 0.961 . S
H1078 C1063 0.961 . S
H1079 C1063 0.961 . S
H1080 C1064 0.931 . S
H1081 C1069 0.930 . S
H1082 C1070 0.956 . S
H1083 C1070 0.961 . S
H1084 C1070 0.961 . S
H1085 C1071 0.958 . S
H1086 C1071 0.961 . S
H1087 C1071 0.960 . S
C1088 C1089 1.391 . S
C1088 C1090 1.394 . S
C1088 H1104 0.931 . S
C1089 C1088 1.391 . S
C1089 C1093 1.376 . S
C1090 C1088 1.394 . S
C1090 C1091 1.369 . S
C1090 C1094 1.531 . S
C1091 C1090 1.369 . S
C1091 C1092 1.410 . S
C1091 C1099 1.503 . S
C1092 C1091 1.410 . S
C1092 C1093 1.392 . S
C1092 C1095 1.511 . S
C1093 C1089 1.376 . S
C1093 C1092 1.392 . S
C1093 H1105 0.929 . S
C1094 C1090 1.531 . S
C1094 H1106 0.960 . S
C1094 H1107 0.962 . S
C1094 H1108 0.960 . S
C1095 C1092 1.511 . S
C1095 H1109 0.961 . S
C1095 H1110 0.961 . S
C1095 H1111 0.961 . S
C1096 C1097 1.370 . S
C1096 C1098 1.363 . S
C1096 H1112 0.931 . S
C1097 C1096 1.370 . S
C1097 C1101 1.408 . S
C1098 C1096 1.363 . S
C1098 C1099 1.370 . S
C1098 C1102 1.524 . S
C1099 C1091 1.503 . S
C1099 C1098 1.370 . S
C1099 C1100 1.403 . S
C1100 C1099 1.403 . S
C1100 C1101 1.404 . S
C1100 C1103 1.539 . S
C1101 C1097 1.408 . S
C1101 C1100 1.404 . S
C1101 H1113 0.930 . S
C1102 C1098 1.524 . S
C1102 H1114 0.956 . S
C1102 H1115 0.961 . S
C1102 H1116 0.961 . S
C1103 C1100 1.539 . S
C1103 H1117 0.958 . S
C1103 H1118 0.961 . S
C1103 H1119 0.960 . S
H1104 C1088 0.931 . S
H1105 C1093 0.929 . S
H1106 C1094 0.960 . S
H1107 C1094 0.962 . S
H1108 C1094 0.960 . S
H1109 C1095 0.961 . S
H1110 C1095 0.961 . S
H1111 C1095 0.961 . S
H1112 C1096 0.931 . S
H1113 C1101 0.930 . S
H1114 C1102 0.956 . S
H1115 C1102 0.961 . S
H1116 C1102 0.961 . S
H1117 C1103 0.958 . S
H1118 C1103 0.961 . S
H1119 C1103 0.960 . S
C1120 C1121 1.391 . S
C1120 C1122 1.394 . S
C1120 H1136 0.931 . S
C1121 C1120 1.391 . S
C1121 C1125 1.376 . S
C1122 C1120 1.394 . S
C1122 C1123 1.369 . S
C1122 C1126 1.531 . S
C1123 C1122 1.369 . S
C1123 C1124 1.410 . S
C1123 C1131 1.503 . S
C1124 C1123 1.410 . S
C1124 C1125 1.392 . S
C1124 C1127 1.511 . S
C1125 C1121 1.376 . S
C1125 C1124 1.392 . S
C1125 H1137 0.929 . S
C1126 C1122 1.531 . S
C1126 H1138 0.960 . S
C1126 H1139 0.962 . S
C1126 H1140 0.960 . S
C1127 C1124 1.511 . S
C1127 H1141 0.961 . S
C1127 H1142 0.961 . S
C1127 H1143 0.961 . S
C1128 C1129 1.370 . S
C1128 C1130 1.363 . S
C1128 H1144 0.931 . S
C1129 C1128 1.370 . S
C1129 C1133 1.408 . S
C1130 C1128 1.363 . S
C1130 C1131 1.370 . S
C1130 C1134 1.524 . S
C1131 C1123 1.503 . S
C1131 C1130 1.370 . S
C1131 C1132 1.403 . S
C1132 C1131 1.403 . S
C1132 C1133 1.404 . S
C1132 C1135 1.539 . S
C1133 C1129 1.408 . S
C1133 C1132 1.404 . S
C1133 H1145 0.930 . S
C1134 C1130 1.524 . S
C1134 H1146 0.956 . S
C1134 H1147 0.961 . S
C1134 H1148 0.961 . S
C1135 C1132 1.539 . S
C1135 H1149 0.958 . S
C1135 H1150 0.961 . S
C1135 H1151 0.960 . S
H1136 C1120 0.931 . S
H1137 C1125 0.929 . S
H1138 C1126 0.960 . S
H1139 C1126 0.962 . S
H1140 C1126 0.960 . S
H1141 C1127 0.961 . S
H1142 C1127 0.961 . S
H1143 C1127 0.961 . S
H1144 C1128 0.931 . S
H1145 C1133 0.930 . S
H1146 C1134 0.956 . S
H1147 C1134 0.961 . S
H1148 C1134 0.961 . S
H1149 C1135 0.958 . S
H1150 C1135 0.961 . S
H1151 C1135 0.960 . S
C1152 C1153 1.391 . S
C1152 C1154 1.394 . S
C1152 H1168 0.931 . S
C1153 C1152 1.391 . S
C1153 C1157 1.376 . S
C1154 C1152 1.394 . S
C1154 C1155 1.369 . S
C1154 C1158 1.531 . S
C1155 C1154 1.369 . S
C1155 C1156 1.410 . S
C1155 C1163 1.503 . S
C1156 C1155 1.410 . S
C1156 C1157 1.392 . S
C1156 C1159 1.511 . S
C1157 C1153 1.376 . S
C1157 C1156 1.392 . S
C1157 H1169 0.929 . S
C1158 C1154 1.531 . S
C1158 H1170 0.960 . S
C1158 H1171 0.962 . S
C1158 H1172 0.960 . S
C1159 C1156 1.511 . S
C1159 H1173 0.961 . S
C1159 H1174 0.961 . S
C1159 H1175 0.961 . S
C1160 C1161 1.370 . S
C1160 C1162 1.363 . S
C1160 H1176 0.931 . S
C1161 C1160 1.370 . S
C1161 C1165 1.408 . S
C1162 C1160 1.363 . S
C1162 C1163 1.370 . S
C1162 C1166 1.524 . S
C1163 C1155 1.503 . S
C1163 C1162 1.370 . S
C1163 C1164 1.403 . S
C1164 C1163 1.403 . S
C1164 C1165 1.404 . S
C1164 C1167 1.539 . S
C1165 C1161 1.408 . S
C1165 C1164 1.404 . S
C1165 H1177 0.930 . S
C1166 C1162 1.524 . S
C1166 H1178 0.956 . S
C1166 H1179 0.961 . S
C1166 H1180 0.961 . S
C1167 C1164 1.539 . S
C1167 H1181 0.958 . S
C1167 H1182 0.961 . S
C1167 H1183 0.960 . S
H1168 C1152 0.931 . S
H1169 C1157 0.929 . S
H1170 C1158 0.960 . S
H1171 C1158 0.962 . S
H1172 C1158 0.960 . S
H1173 C1159 0.961 . S
H1174 C1159 0.961 . S
H1175 C1159 0.961 . S
H1176 C1160 0.931 . S
H1177 C1165 0.930 . S
H1178 C1166 0.956 . S
H1179 C1166 0.961 . S
H1180 C1166 0.961 . S
H1181 C1167 0.958 . S
H1182 C1167 0.961 . S
H1183 C1167 0.960 . S
C1184 C1185 1.391 . S
C1184 C1186 1.394 . S
C1184 H1200 0.931 . S
C1185 C1184 1.391 . S
C1185 C1189 1.376 . S
C1186 C1184 1.394 . S
C1186 C1187 1.369 . S
C1186 C1190 1.531 . S
C1187 C1186 1.369 . S
C1187 C1188 1.410 . S
C1187 C1195 1.503 . S
C1188 C1187 1.410 . S
C1188 C1189 1.392 . S
C1188 C1191 1.511 . S
C1189 C1185 1.376 . S
C1189 C1188 1.392 . S
C1189 H1201 0.929 . S
C1190 C1186 1.531 . S
C1190 H1202 0.960 . S
C1190 H1203 0.962 . S
C1190 H1204 0.960 . S
C1191 C1188 1.511 . S
C1191 H1205 0.961 . S
C1191 H1206 0.961 . S
C1191 H1207 0.961 . S
C1192 C1193 1.370 . S
C1192 C1194 1.363 . S
C1192 H1208 0.931 . S
C1193 C1192 1.370 . S
C1193 C1197 1.408 . S
C1194 C1192 1.363 . S
C1194 C1195 1.370 . S
C1194 C1198 1.524 . S
C1195 C1187 1.503 . S
C1195 C1194 1.370 . S
C1195 C1196 1.403 . S
C1196 C1195 1.403 . S
C1196 C1197 1.404 . S
C1196 C1199 1.539 . S
C1197 C1193 1.408 . S
C1197 C1196 1.404 . S
C1197 H1209 0.930 . S
C1198 C1194 1.524 . S
C1198 H1210 0.956 . S
C1198 H1211 0.961 . S
C1198 H1212 0.961 . S
C1199 C1196 1.539 . S
C1199 H1213 0.958 . S
C1199 H1214 0.961 . S
C1199 H1215 0.960 . S
H1200 C1184 0.931 . S
H1201 C1189 0.929 . S
H1202 C1190 0.960 . S
H1203 C1190 0.962 . S
H1204 C1190 0.960 . S
H1205 C1191 0.961 . S
H1206 C1191 0.961 . S
H1207 C1191 0.961 . S
H1208 C1192 0.931 . S
H1209 C1197 0.930 . S
H1210 C1198 0.956 . S
H1211 C1198 0.961 . S
H1212 C1198 0.961 . S
H1213 C1199 0.958 . S
H1214 C1199 0.961 . S
H1215 C1199 0.960 . S
C1216 C1217 1.391 . S
C1216 C1218 1.394 . S
C1216 H1232 0.931 . S
C1217 C1216 1.391 . S
C1217 C1221 1.376 . S
C1218 C1216 1.394 . S
C1218 C1219 1.369 . S
C1218 C1222 1.531 . S
C1219 C1218 1.369 . S
C1219 C1220 1.410 . S
C1219 C1227 1.503 . S
C1220 C1219 1.410 . S
C1220 C1221 1.392 . S
C1220 C1223 1.511 . S
C1221 C1217 1.376 . S
C1221 C1220 1.392 . S
C1221 H1233 0.929 . S
C1222 C1218 1.531 . S
C1222 H1234 0.960 . S
C1222 H1235 0.962 . S
C1222 H1236 0.960 . S
C1223 C1220 1.511 . S
C1223 H1237 0.961 . S
C1223 H1238 0.961 . S
C1223 H1239 0.961 . S
C1224 C1225 1.370 . S
C1224 C1226 1.363 . S
C1224 H1240 0.931 . S
C1225 C1224 1.370 . S
C1225 C1229 1.408 . S
C1226 C1224 1.363 . S
C1226 C1227 1.370 . S
C1226 C1230 1.524 . S
C1227 C1219 1.503 . S
C1227 C1226 1.370 . S
C1227 C1228 1.403 . S
C1228 C1227 1.403 . S
C1228 C1229 1.404 . S
C1228 C1231 1.539 . S
C1229 C1225 1.408 . S
C1229 C1228 1.404 . S
C1229 H1241 0.930 . S
C1230 C1226 1.524 . S
C1230 H1242 0.956 . S
C1230 H1243 0.961 . S
C1230 H1244 0.961 . S
C1231 C1228 1.539 . S
C1231 H1245 0.958 . S
C1231 H1246 0.961 . S
C1231 H1247 0.960 . S
H1232 C1216 0.931 . S
H1233 C1221 0.929 . S
H1234 C1222 0.960 . S
H1235 C1222 0.962 . S
H1236 C1222 0.960 . S
H1237 C1223 0.961 . S
H1238 C1223 0.961 . S
H1239 C1223 0.961 . S
H1240 C1224 0.931 . S
H1241 C1229 0.930 . S
H1242 C1230 0.956 . S
H1243 C1230 0.961 . S
H1244 C1230 0.961 . S
H1245 C1231 0.958 . S
H1246 C1231 0.961 . S
H1247 C1231 0.960 . S
C1248 C1249 1.391 . S
C1248 C1250 1.394 . S
C1248 H1264 0.931 . S
C1249 C1248 1.391 . S
C1249 C1253 1.376 . S
C1250 C1248 1.394 . S
C1250 C1251 1.369 . S
C1250 C1254 1.531 . S
C1251 C1250 1.369 . S
C1251 C1252 1.410 . S
C1251 C1259 1.503 . S
C1252 C1251 1.410 . S
C1252 C1253 1.392 . S
C1252 C1255 1.511 . S
C1253 C1249 1.376 . S
C1253 C1252 1.392 . S
C1253 H1265 0.929 . S
C1254 C1250 1.531 . S
C1254 H1266 0.960 . S
C1254 H1267 0.962 . S
C1254 H1268 0.960 . S
C1255 C1252 1.511 . S
C1255 H1269 0.961 . S
C1255 H1270 0.961 . S
C1255 H1271 0.961 . S
C1256 C1257 1.370 . S
C1256 C1258 1.363 . S
C1256 H1272 0.931 . S
C1257 C1256 1.370 . S
C1257 C1261 1.408 . S
C1258 C1256 1.363 . S
C1258 C1259 1.370 . S
C1258 C1262 1.524 . S
C1259 C1251 1.503 . S
C1259 C1258 1.370 . S
C1259 C1260 1.403 . S
C1260 C1259 1.403 . S
C1260 C1261 1.404 . S
C1260 C1263 1.539 . S
C1261 C1257 1.408 . S
C1261 C1260 1.404 . S
C1261 H1273 0.930 . S
C1262 C1258 1.524 . S
C1262 H1274 0.956 . S
C1262 H1275 0.961 . S
C1262 H1276 0.961 . S
C1263 C1260 1.539 . S
C1263 H1277 0.958 . S
C1263 H1278 0.961 . S
C1263 H1279 0.960 . S
H1264 C1248 0.931 . S
H1265 C1253 0.929 . S
H1266 C1254 0.960 . S
H1267 C1254 0.962 . S
H1268 C1254 0.960 . S
H1269 C1255 0.961 . S
H1270 C1255 0.961 . S
H1271 C1255 0.961 . S
H1272 C1256 0.931 . S
H1273 C1261 0.930 . S
H1274 C1262 0.956 . S
H1275 C1262 0.961 . S
H1276 C1262 0.961 . S
H1277 C1263 0.958 . S
H1278 C1263 0.961 . S
H1279 C1263 0.960 . S
C1280 C1281 1.391 . S
C1280 C1282 1.394 . S
C1280 H1296 0.931 . S
C1281 C1280 1.391 . S
C1281 C1285 1.376 . S
C1282 C1280 1.394 . S
C1282 C1283 1.369 . S
C1282 C1286 1.531 . S
C1283 C1282 1.369 . S
C1283 C1284 1.410 . S
C1283 C1291 1.503 . S
C1284 C1283 1.410 . S
C1284 C1285 1.392 . S
C1284 C1287 1.511 . S
C1285 C1281 1.376 . S
C1285 C1284 1.392 . S
C1285 H1297 0.929 . S
C1286 C1282 1.531 . S
C1286 H1298 0.960 . S
C1286 H1299 0.962 . S
C1286 H1300 0.960 . S
C1287 C1284 1.511 . S
C1287 H1301 0.961 . S
C1287 H1302 0.961 . S
C1287 H1303 0.961 . S
C1288 C1289 1.370 . S
C1288 C1290 1.363 . S
C1288 H1304 0.931 . S
C1289 C1288 1.370 . S
C1289 C1293 1.408 . S
C1290 C1288 1.363 . S
C1290 C1291 1.370 . S
C1290 C1294 1.524 . S
C1291 C1283 1.503 . S
C1291 C1290 1.370 . S
C1291 C1292 1.403 . S
C1292 C1291 1.403 . S
C1292 C1293 1.404 . S
C1292 C1295 1.539 . S
C1293 C1289 1.408 . S
C1293 C1292 1.404 . S
C1293 H1305 0.930 . S
C1294 C1290 1.524 . S
C1294 H1306 0.956 . S
C1294 H1307 0.961 . S
C1294 H1308 0.961 . S
C1295 C1292 1.539 . S
C1295 H1309 0.958 . S
C1295 H1310 0.961 . S
C1295 H1311 0.960 . S
H1296 C1280 0.931 . S
H1297 C1285 0.929 . S
H1298 C1286 0.960 . S
H1299 C1286 0.962 . S
H1300 C1286 0.960 . S
H1301 C1287 0.961 . S
H1302 C1287 0.961 . S
H1303 C1287 0.961 . S
H1304 C1288 0.931 . S
H1305 C1293 0.930 . S
H1306 C1294 0.956 . S
H1307 C1294 0.961 . S
H1308 C1294 0.961 . S
H1309 C1295 0.958 . S
H1310 C1295 0.961 . S
H1311 C1295 0.960 . S
C1312 C1313 1.391 . S
C1312 C1314 1.394 . S
C1312 H1328 0.931 . S
C1313 C1312 1.391 . S
C1313 C1317 1.376 . S
C1314 C1312 1.394 . S
C1314 C1315 1.369 . S
C1314 C1318 1.531 . S
C1315 C1314 1.369 . S
C1315 C1316 1.410 . S
C1315 C1323 1.503 . S
C1316 C1315 1.410 . S
C1316 C1317 1.392 . S
C1316 C1319 1.511 . S
C1317 C1313 1.376 . S
C1317 C1316 1.392 . S
C1317 H1329 0.929 . S
C1318 C1314 1.531 . S
C1318 H1330 0.960 . S
C1318 H1331 0.962 . S
C1318 H1332 0.960 . S
C1319 C1316 1.511 . S
C1319 H1333 0.961 . S
C1319 H1334 0.961 . S
C1319 H1335 0.961 . S
C1320 C1321 1.370 . S
C1320 C1322 1.363 . S
C1320 H1336 0.931 . S
C1321 C1320 1.370 . S
C1321 C1325 1.408 . S
C1322 C1320 1.363 . S
C1322 C1323 1.370 . S
C1322 C1326 1.524 . S
C1323 C1315 1.503 . S
C1323 C1322 1.370 . S
C1323 C1324 1.403 . S
C1324 C1323 1.403 . S
C1324 C1325 1.404 . S
C1324 C1327 1.539 . S
C1325 C1321 1.408 . S
C1325 C1324 1.404 . S
C1325 H1337 0.930 . S
C1326 C1322 1.524 . S
C1326 H1338 0.956 . S
C1326 H1339 0.961 . S
C1326 H1340 0.961 . S
C1327 C1324 1.539 . S
C1327 H1341 0.958 . S
C1327 H1342 0.961 . S
C1327 H1343 0.960 . S
H1328 C1312 0.931 . S
H1329 C1317 0.929 . S
H1330 C1318 0.960 . S
H1331 C1318 0.962 . S
H1332 C1318 0.960 . S
H1333 C1319 0.961 . S
H1334 C1319 0.961 . S
H1335 C1319 0.961 . S
H1336 C1320 0.931 . S
H1337 C1325 0.930 . S
H1338 C1326 0.956 . S
H1339 C1326 0.961 . S
H1340 C1326 0.961 . S
H1341 C1327 0.958 . S
H1342 C1327 0.961 . S
H1343 C1327 0.960 . S
C1344 C1345 1.391 . S
C1344 C1346 1.394 . S
C1344 H1360 0.931 . S
C1345 C1344 1.391 . S
C1345 C1349 1.376 . S
C1346 C1344 1.394 . S
C1346 C1347 1.369 . S
C1346 C1350 1.531 1_655 S
C1347 C1346 1.369 . S
C1347 C1348 1.410 . S
C1347 C1355 1.503 1_665 S
C1348 C1347 1.410 . S
C1348 C1349 1.392 . S
C1348 C1351 1.511 1_565 S
C1349 C1345 1.376 . S
C1349 C1348 1.392 . S
C1349 H1361 0.929 . S
C1350 C1346 1.531 1_455 S
C1350 H1362 0.960 . S
C1350 H1363 0.962 . S
C1350 H1364 0.960 . S
C1351 C1348 1.511 1_545 S
C1351 H1365 0.961 . S
C1351 H1366 0.961 . S
C1351 H1367 0.961 . S
C1352 C1353 1.370 . S
C1352 C1354 1.363 . S
C1352 H1368 0.931 . S
C1353 C1352 1.370 . S
C1353 C1357 1.408 . S
C1354 C1352 1.363 . S
C1354 C1355 1.370 . S
C1354 C1358 1.524 1_545 S
C1355 C1347 1.503 1_445 S
C1355 C1354 1.370 . S
C1355 C1356 1.403 . S
C1356 C1355 1.403 . S
C1356 C1357 1.404 . S
C1356 C1359 1.539 1_455 S
C1357 C1353 1.408 . S
C1357 C1356 1.404 . S
C1357 H1369 0.930 . S
C1358 C1354 1.524 1_565 S
C1358 H1370 0.956 . S
C1358 H1371 0.961 . S
C1358 H1372 0.961 . S
C1359 C1356 1.539 1_655 S
C1359 H1373 0.958 . S
C1359 H1374 0.961 . S
C1359 H1375 0.960 . S
H1360 C1344 0.931 . S
H1361 C1349 0.929 . S
H1362 C1350 0.960 . S
H1363 C1350 0.962 . S
H1364 C1350 0.960 . S
H1365 C1351 0.961 . S
H1366 C1351 0.961 . S
H1367 C1351 0.961 . S
H1368 C1352 0.931 . S
H1369 C1357 0.930 . S
H1370 C1358 0.956 . S
H1371 C1358 0.961 . S
H1372 C1358 0.961 . S
H1373 C1359 0.958 . S
H1374 C1359 0.961 . S
H1375 C1359 0.960 . S
C1376 C1377 1.391 . S
C1376 C1378 1.394 . S
C1376 H1392 0.931 . S
C1377 C1376 1.391 . S
C1377 C1381 1.376 . S
C1378 C1376 1.394 . S
C1378 C1379 1.369 . S
C1378 C1382 1.531 1_655 S
C1379 C1378 1.369 . S
C1379 C1380 1.410 . S
C1379 C1387 1.503 1_645 S
C1380 C1379 1.410 . S
C1380 C1381 1.392 . S
C1380 C1383 1.511 1_545 S
C1381 C1377 1.376 . S
C1381 C1380 1.392 . S
C1381 H1393 0.929 . S
C1382 C1378 1.531 1_455 S
C1382 H1394 0.960 . S
C1382 H1395 0.962 . S
C1382 H1396 0.960 . S
C1383 C1380 1.511 1_565 S
C1383 H1397 0.961 . S
C1383 H1398 0.961 . S
C1383 H1399 0.961 . S
C1384 C1385 1.370 . S
C1384 C1386 1.363 . S
C1384 H1400 0.931 . S
C1385 C1384 1.370 . S
C1385 C1389 1.408 . S
C1386 C1384 1.363 . S
C1386 C1387 1.370 . S
C1386 C1390 1.524 1_455 S
C1387 C1379 1.503 1_465 S
C1387 C1386 1.370 . S
C1387 C1388 1.403 . S
C1388 C1387 1.403 . S
C1388 C1389 1.404 . S
C1388 C1391 1.539 1_565 S
C1389 C1385 1.408 . S
C1389 C1388 1.404 . S
C1389 H1401 0.930 . S
C1390 C1386 1.524 1_655 S
C1390 H1402 0.956 . S
C1390 H1403 0.961 . S
C1390 H1404 0.961 1_655 S
C1391 C1388 1.539 1_545 S
C1391 H1405 0.958 . S
C1391 H1406 0.961 1_545 S
C1391 H1407 0.960 . S
H1392 C1376 0.931 . S
H1393 C1381 0.929 . S
H1394 C1382 0.960 . S
H1395 C1382 0.962 . S
H1396 C1382 0.960 . S
H1397 C1383 0.961 . S
H1398 C1383 0.961 . S
H1399 C1383 0.961 . S
H1400 C1384 0.931 . S
H1401 C1389 0.930 . S
H1402 C1390 0.956 . S
H1403 C1390 0.961 . S
H1404 C1390 0.961 1_455 S
H1405 C1391 0.958 . S
H1406 C1391 0.961 1_565 S
H1407 C1391 0.960 . S
C1408 C1409 1.391 . S
C1408 C1410 1.394 . S
C1408 H1424 0.931 . S
C1409 C1408 1.391 . S
C1409 C1413 1.376 . S
C1410 C1408 1.394 . S
C1410 C1411 1.369 . S
C1410 C1414 1.531 1_556 S
C1411 C1410 1.369 . S
C1411 C1412 1.410 . S
C1411 C1419 1.503 1_455 S
C1412 C1411 1.410 . S
C1412 C1413 1.392 . S
C1412 C1415 1.511 1_455 S
C1413 C1409 1.376 . S
C1413 C1412 1.392 . S
C1413 H1425 0.929 . S
C1414 C1410 1.531 1_554 S
C1414 H1426 0.960 1_554 S
C1414 H1427 0.962 . S
C1414 H1428 0.960 . S
C1415 C1412 1.511 1_655 S
C1415 H1429 0.961 . S
C1415 H1430 0.961 . S
C1415 H1431 0.961 1_655 S
C1416 C1417 1.370 . S
C1416 C1418 1.363 . S
C1416 H1432 0.931 . S
C1417 C1416 1.370 . S
C1417 C1421 1.408 . S
C1418 C1416 1.363 . S
C1418 C1419 1.370 . S
C1418 C1422 1.524 . S
C1419 C1411 1.503 1_655 S
C1419 C1418 1.370 . S
C1419 C1420 1.403 1_655 S
C1420 C1419 1.403 1_455 S
C1420 C1421 1.404 1_455 S
C1420 C1423 1.539 . S
C1421 C1417 1.408 . S
C1421 C1420 1.404 1_655 S
C1421 H1433 0.930 . S
C1422 C1418 1.524 . S
C1422 H1434 0.956 . S
C1422 H1435 0.961 . S
C1422 H1436 0.961 . S
C1423 C1420 1.539 . S
C1423 H1437 0.958 . S
C1423 H1438 0.961 . S
C1423 H1439 0.960 . S
H1424 C1408 0.931 . S
H1425 C1413 0.929 . S
H1426 C1414 0.960 1_556 S
H1427 C1414 0.962 . S
H1428 C1414 0.960 . S
H1429 C1415 0.961 . S
H1430 C1415 0.961 . S
H1431 C1415 0.961 1_455 S
H1432 C1416 0.931 . S
H1433 C1421 0.930 . S
H1434 C1422 0.956 . S
H1435 C1422 0.961 . S
H1436 C1422 0.961 . S
H1437 C1423 0.958 . S
H1438 C1423 0.961 . S
H1439 C1423 0.960 . S
C1440 C1441 1.391 . S
C1440 C1442 1.394 . S
C1440 H1456 0.931 . S
C1441 C1440 1.391 . S
C1441 C1445 1.376 . S
C1442 C1440 1.394 . S
C1442 C1443 1.369 . S
C1442 C1446 1.531 1_564 S
C1443 C1442 1.369 . S
C1443 C1444 1.410 . S
C1443 C1451 1.503 1_565 S
C1444 C1443 1.410 . S
C1444 C1445 1.392 . S
C1444 C1447 1.511 . S
C1445 C1441 1.376 . S
C1445 C1444 1.392 . S
C1445 H1457 0.929 . S
C1446 C1442 1.531 1_546 S
C1446 H1458 0.960 . S
C1446 H1459 0.962 1_545 S
C1446 H1460 0.960 . S
C1447 C1444 1.511 . S
C1447 H1461 0.961 . S
C1447 H1462 0.961 . S
C1447 H1463 0.961 1_565 S
C1448 C1449 1.370 . S
C1448 C1450 1.363 . S
C1448 H1464 0.931 . S
C1449 C1448 1.370 . S
C1449 C1453 1.408 . S
C1450 C1448 1.363 . S
C1450 C1451 1.370 . S
C1450 C1454 1.524 1_545 S
C1451 C1443 1.503 1_545 S
C1451 C1450 1.370 . S
C1451 C1452 1.403 . S
C1452 C1451 1.403 . S
C1452 C1453 1.404 . S
C1452 C1455 1.539 . S
C1453 C1449 1.408 . S
C1453 C1452 1.404 . S
C1453 H1465 0.930 . S
C1454 C1450 1.524 1_565 S
C1454 H1466 0.956 . S
C1454 H1467 0.961 . S
C1454 H1468 0.961 . S
C1455 C1452 1.539 . S
C1455 H1469 0.958 . S
C1455 H1470 0.961 . S
C1455 H1471 0.960 . S
H1456 C1440 0.931 . S
H1457 C1445 0.929 . S
H1458 C1446 0.960 . S
H1459 C1446 0.962 1_565 S
H1460 C1446 0.960 . S
H1461 C1447 0.961 . S
H1462 C1447 0.961 . S
H1463 C1447 0.961 1_545 S
H1464 C1448 0.931 . S
H1465 C1453 0.930 . S
H1466 C1454 0.956 . S
H1467 C1454 0.961 . S
H1468 C1454 0.961 . S
H1469 C1455 0.958 . S
H1470 C1455 0.961 . S
H1471 C1455 0.960 . S
C1472 C1473 1.391 . S
C1472 C1474 1.394 . S
C1472 H1488 0.931 . S
C1473 C1472 1.391 . S
C1473 C1477 1.376 . S
C1474 C1472 1.394 . S
C1474 C1475 1.369 . S
C1474 C1478 1.531 . S
C1475 C1474 1.369 . S
C1475 C1476 1.410 . S
C1475 C1483 1.503 . S
C1476 C1475 1.410 . S
C1476 C1477 1.392 . S
C1476 C1479 1.511 . S
C1477 C1473 1.376 . S
C1477 C1476 1.392 . S
C1477 H1489 0.929 . S
C1478 C1474 1.531 . S
C1478 H1490 0.960 . S
C1478 H1491 0.962 . S
C1478 H1492 0.960 . S
C1479 C1476 1.511 . S
C1479 H1493 0.961 . S
C1479 H1494 0.961 . S
C1479 H1495 0.961 . S
C1480 C1481 1.370 . S
C1480 C1482 1.363 . S
C1480 H1496 0.931 . S
C1481 C1480 1.370 . S
C1481 C1485 1.408 . S
C1482 C1480 1.363 . S
C1482 C1483 1.370 . S
C1482 C1486 1.524 . S
C1483 C1475 1.503 . S
C1483 C1482 1.370 . S
C1483 C1484 1.403 . S
C1484 C1483 1.403 . S
C1484 C1485 1.404 . S
C1484 C1487 1.539 . S
C1485 C1481 1.408 . S
C1485 C1484 1.404 . S
C1485 H1497 0.930 . S
C1486 C1482 1.524 . S
C1486 H1498 0.956 . S
C1486 H1499 0.961 . S
C1486 H1500 0.961 . S
C1487 C1484 1.539 . S
C1487 H1501 0.958 . S
C1487 H1502 0.961 . S
C1487 H1503 0.960 . S
H1488 C1472 0.931 . S
H1489 C1477 0.929 . S
H1490 C1478 0.960 . S
H1491 C1478 0.962 . S
H1492 C1478 0.960 . S
H1493 C1479 0.961 . S
H1494 C1479 0.961 . S
H1495 C1479 0.961 . S
H1496 C1480 0.931 . S
H1497 C1485 0.930 . S
H1498 C1486 0.956 . S
H1499 C1486 0.961 . S
H1500 C1486 0.961 . S
H1501 C1487 0.958 . S
H1502 C1487 0.961 . S
H1503 C1487 0.960 . S
C1504 C1505 1.391 . S
C1504 C1506 1.394 . S
C1504 H1520 0.931 . S
C1505 C1504 1.391 . S
C1505 C1509 1.376 . S
C1506 C1504 1.394 . S
C1506 C1507 1.369 . S
C1506 C1510 1.531 . S
C1507 C1506 1.369 . S
C1507 C1508 1.410 . S
C1507 C1515 1.503 . S
C1508 C1507 1.410 . S
C1508 C1509 1.392 . S
C1508 C1511 1.511 . S
C1509 C1505 1.376 . S
C1509 C1508 1.392 . S
C1509 H1521 0.929 . S
C1510 C1506 1.531 . S
C1510 H1522 0.960 . S
C1510 H1523 0.962 . S
C1510 H1524 0.960 . S
C1511 C1508 1.511 . S
C1511 H1525 0.961 . S
C1511 H1526 0.961 . S
C1511 H1527 0.961 . S
C1512 C1513 1.370 . S
C1512 C1514 1.363 . S
C1512 H1528 0.931 . S
C1513 C1512 1.370 . S
C1513 C1517 1.408 . S
C1514 C1512 1.363 . S
C1514 C1515 1.370 . S
C1514 C1518 1.524 . S
C1515 C1507 1.503 . S
C1515 C1514 1.370 . S
C1515 C1516 1.403 . S
C1516 C1515 1.403 . S
C1516 C1517 1.404 . S
C1516 C1519 1.539 . S
C1517 C1513 1.408 . S
C1517 C1516 1.404 . S
C1517 H1529 0.930 . S
C1518 C1514 1.524 . S
C1518 H1530 0.956 . S
C1518 H1531 0.961 . S
C1518 H1532 0.961 . S
C1519 C1516 1.539 . S
C1519 H1533 0.958 . S
C1519 H1534 0.961 . S
C1519 H1535 0.960 . S
H1520 C1504 0.931 . S
H1521 C1509 0.929 . S
H1522 C1510 0.960 . S
H1523 C1510 0.962 . S
H1524 C1510 0.960 . S
H1525 C1511 0.961 . S
H1526 C1511 0.961 . S
H1527 C1511 0.961 . S
H1528 C1512 0.931 . S
H1529 C1517 0.930 . S
H1530 C1518 0.956 . S
H1531 C1518 0.961 . S
H1532 C1518 0.961 . S
H1533 C1519 0.958 . S
H1534 C1519 0.961 . S
H1535 C1519 0.960 . S
C1536 C1537 1.391 . S
C1536 C1538 1.394 . S
C1536 H1552 0.931 . S
C1537 C1536 1.391 . S
C1537 C1541 1.376 . S
C1538 C1536 1.394 . S
C1538 C1539 1.369 . S
C1538 C1542 1.531 . S
C1539 C1538 1.369 . S
C1539 C1540 1.410 . S
C1539 C1547 1.503 1_545 S
C1540 C1539 1.410 . S
C1540 C1541 1.392 . S
C1540 C1543 1.511 1_545 S
C1541 C1537 1.376 . S
C1541 C1540 1.392 . S
C1541 H1553 0.929 . S
C1542 C1538 1.531 . S
C1542 H1554 0.960 . S
C1542 H1555 0.962 . S
C1542 H1556 0.960 . S
C1543 C1540 1.511 1_565 S
C1543 H1557 0.961 . S
C1543 H1558 0.961 . S
C1543 H1559 0.961 . S
C1544 C1545 1.370 . S
C1544 C1546 1.363 . S
C1544 H1560 0.931 . S
C1545 C1544 1.370 . S
C1545 C1549 1.408 . S
C1546 C1544 1.363 . S
C1546 C1547 1.370 . S
C1546 C1550 1.524 . S
C1547 C1539 1.503 1_565 S
C1547 C1546 1.370 . S
C1547 C1548 1.403 . S
C1548 C1547 1.403 . S
C1548 C1549 1.404 . S
C1548 C1551 1.539 1_565 S
C1549 C1545 1.408 . S
C1549 C1548 1.404 . S
C1549 H1561 0.930 . S
C1550 C1546 1.524 . S
C1550 H1562 0.956 . S
C1550 H1563 0.961 . S
C1550 H1564 0.961 . S
C1551 C1548 1.539 1_545 S
C1551 H1565 0.958 . S
C1551 H1566 0.961 . S
C1551 H1567 0.960 . S
H1552 C1536 0.931 . S
H1553 C1541 0.929 . S
H1554 C1542 0.960 . S
H1555 C1542 0.962 . S
H1556 C1542 0.960 . S
H1557 C1543 0.961 . S
H1558 C1543 0.961 . S
H1559 C1543 0.961 . S
H1560 C1544 0.931 . S
H1561 C1549 0.930 . S
H1562 C1550 0.956 . S
H1563 C1550 0.961 . S
H1564 C1550 0.961 . S
H1565 C1551 0.958 . S
H1566 C1551 0.961 . S
H1567 C1551 0.960 . S
C1568 C1569 1.391 . S
C1568 C1570 1.394 . S
C1568 H1584 0.931 . S
C1569 C1568 1.391 . S
C1569 C1573 1.376 . S
C1570 C1568 1.394 . S
C1570 C1571 1.369 . S
C1570 C1574 1.531 1_655 S
C1571 C1570 1.369 . S
C1571 C1572 1.410 . S
C1571 C1579 1.503 1_655 S
C1572 C1571 1.410 . S
C1572 C1573 1.392 . S
C1572 C1575 1.511 . S
C1573 C1569 1.376 . S
C1573 C1572 1.392 . S
C1573 H1585 0.929 . S
C1574 C1570 1.531 1_455 S
C1574 H1586 0.960 . S
C1574 H1587 0.962 . S
C1574 H1588 0.960 . S
C1575 C1572 1.511 . S
C1575 H1589 0.961 . S
C1575 H1590 0.961 . S
C1575 H1591 0.961 . S
C1576 C1577 1.370 . S
C1576 C1578 1.363 . S
C1576 H1592 0.931 . S
C1577 C1576 1.370 . S
C1577 C1581 1.408 . S
C1578 C1576 1.363 . S
C1578 C1579 1.370 . S
C1578 C1582 1.524 . S
C1579 C1571 1.503 1_455 S
C1579 C1578 1.370 . S
C1579 C1580 1.403 . S
C1580 C1579 1.403 . S
C1580 C1581 1.404 . S
C1580 C1583 1.539 1_455 S
C1581 C1577 1.408 . S
C1581 C1580 1.404 . S
C1581 H1593 0.930 . S
C1582 C1578 1.524 . S
C1582 H1594 0.956 . S
C1582 H1595 0.961 . S
C1582 H1596 0.961 . S
C1583 C1580 1.539 1_655 S
C1583 H1597 0.954 1_655 S
C1583 H1598 0.961 . S
C1583 H1599 0.960 . S
H1584 C1568 0.931 . S
H1585 C1573 0.929 . S
H1586 C1574 0.960 . S
H1587 C1574 0.962 . S
H1588 C1574 0.960 . S
H1589 C1575 0.961 . S
H1590 C1575 0.961 . S
H1591 C1575 0.961 . S
H1592 C1576 0.931 . S
H1593 C1581 0.930 . S
H1594 C1582 0.956 . S
H1595 C1582 0.961 . S
H1596 C1582 0.961 . S
H1597 C1583 0.954 1_455 S
H1598 C1583 0.961 . S
H1599 C1583 0.960 . S
C577 C3 1.095 . S
C585 C398 1.080 . S
C609 C290 1.113 . S
C617 C39 1.095 . S
C641 C326 1.081 . S
C649 C75 1.092 . S
C673 C362 1.056 . S
C681 C111 1.099 . S
C705 C182 1.107 1_545 S
C713 C147 1.115 . S
C737 C183 1.092 . S
C745 C218 1.110 . S
C769 C219 1.079 . S
C777 C254 1.095 . S
C801 C255 1.095 . S
C809 C146 1.108 . S
C833 C291 1.113 . S
C841 C110 1.108 1_565 S
C865 C2 1.115 . S
C873 C327 1.096 . S
C897 C38 1.109 1_545 S
C905 C363 1.112 . S
C929 C74 1.120 1_455 S
C937 C399 1.112 . S
C961 C470 1.124 . S
C969 C435 1.113 . S
C993 C471 1.090 . S
C1001 C506 1.106 . S
C1025 C542 1.091 . S
C1033 C507 1.114 . S
C1057 C434 1.102 . S
C1065 C543 1.093 . S
C1089 C518 1.568 . S
C1097 C14 1.575 . S
C1121 C554 1.574 . S
C1129 C50 1.576 . S
C1153 C446 1.588 . S
C1161 C86 1.588 . S
C1185 C122 1.590 . S
C1193 C482 1.581 . S
C1217 C158 1.562 . S
C1225 C374 1.577 . S
C1249 C410 1.572 . S
C1257 C194 1.575 . S
C1281 C230 1.572 . S
C1289 C302 1.577 . S
C1313 C266 1.573 . S
C1321 C338 1.576 . S
C1345 C76 1.287 . S
C1353 C4 1.241 . S
C1377 C112 1.280 . S
C1385 C40 1.253 . S
C1409 C148 1.275 . S
C1417 C220 1.232 . S
C1441 C184 1.204 . S
C1449 C256 1.263 . S
C1473 C364 1.278 . S
C1481 C292 1.248 . S
C1505 C328 1.227 . S
C1513 C400 1.268 . S
C1537 C508 1.233 . S
C1545 C436 1.265 . S
C1569 C472 1.241 . S
C1577 C544 1.266 . S
