# Generated by pormake.
# Topology crs, (6)-cn, num edge types: 1
# Building blocks:
#     Node 0, Type 0, BuildingBlock: BETGAK_clean_sbu_0, # of connection points: 6
#     Node 1, Type 0, BuildingBlock: BETGAK_clean_sbu_0, # of connection points: 6
#     Node 2, Type 0, BuildingBlock: BETGAK_clean_sbu_0, # of connection points: 6
#     Node 3, Type 0, BuildingBlock: BETGAK_clean_sbu_0, # of connection points: 6
#     Node 4, Type 0, BuildingBlock: BETGAK_clean_sbu_0, # of connection points: 6
#     Node 5, Type 0, BuildingBlock: BETGAK_clean_sbu_0, # of connection points: 6
#     Node 6, Type 0, BuildingBlock: BETGAK_clean_sbu_0, # of connection points: 6
#     Node 7, Type 0, BuildingBlock: BETGAK_clean_sbu_0, # of connection points: 6
#     Node 8, Type 0, BuildingBlock: BETGAK_clean_sbu_0, # of connection points: 6
#     Node 9, Type 0, BuildingBlock: BETGAK_clean_sbu_0, # of connection points: 6
#     Node 10, Type 0, BuildingBlock: BETGAK_clean_sbu_0, # of connection points: 6
#     Node 11, Type 0, BuildingBlock: BETGAK_clean_sbu_0, # of connection points: 6
#     Node 12, Type 0, BuildingBlock: BETGAK_clean_sbu_0, # of connection points: 6
#     Node 13, Type 0, BuildingBlock: BETGAK_clean_sbu_0, # of connection points: 6
#     Node 14, Type 0, BuildingBlock: BETGAK_clean_sbu_0, # of connection points: 6
#     Node 15, Type 0, BuildingBlock: BETGAK_clean_sbu_0, # of connection points: 6
#     Edge 16, Type (0, 0), BuildingBlock: UVAHIK_clean_linker_0, # of connection points: 2
#     Edge 17, Type (0, 0), BuildingBlock: UVAHIK_clean_linker_0, # of connection points: 2
#     Edge 18, Type (0, 0), BuildingBlock: UVAHIK_clean_linker_0, # of connection points: 2
#     Edge 19, Type (0, 0), BuildingBlock: UVAHIK_clean_linker_0, # of connection points: 2
#     Edge 20, Type (0, 0), BuildingBlock: UVAHIK_clean_linker_0, # of connection points: 2
#     Edge 21, Type (0, 0), BuildingBlock: UVAHIK_clean_linker_0, # of connection points: 2
#     Edge 22, Type (0, 0), BuildingBlock: UVAHIK_clean_linker_0, # of connection points: 2
#     Edge 23, Type (0, 0), BuildingBlock: UVAHIK_clean_linker_0, # of connection points: 2
#     Edge 24, Type (0, 0), BuildingBlock: UVAHIK_clean_linker_0, # of connection points: 2
#     Edge 25, Type (0, 0), BuildingBlock: UVAHIK_clean_linker_0, # of connection points: 2
#     Edge 26, Type (0, 0), BuildingBlock: UVAHIK_clean_linker_0, # of connection points: 2
#     Edge 27, Type (0, 0), BuildingBlock: UVAHIK_clean_linker_0, # of connection points: 2
#     Edge 28, Type (0, 0), BuildingBlock: UVAHIK_clean_linker_0, # of connection points: 2
#     Edge 29, Type (0, 0), BuildingBlock: UVAHIK_clean_linker_0, # of connection points: 2
#     Edge 30, Type (0, 0), BuildingBlock: UVAHIK_clean_linker_0, # of connection points: 2
#     Edge 31, Type (0, 0), BuildingBlock: UVAHIK_clean_linker_0, # of connection points: 2
#     Edge 32, Type (0, 0), BuildingBlock: UVAHIK_clean_linker_0, # of connection points: 2
#     Edge 33, Type (0, 0), BuildingBlock: UVAHIK_clean_linker_0, # of connection points: 2
#     Edge 34, Type (0, 0), BuildingBlock: UVAHIK_clean_linker_0, # of connection points: 2
#     Edge 35, Type (0, 0), BuildingBlock: UVAHIK_clean_linker_0, # of connection points: 2
#     Edge 36, Type (0, 0), BuildingBlock: UVAHIK_clean_linker_0, # of connection points: 2
#     Edge 37, Type (0, 0), BuildingBlock: UVAHIK_clean_linker_0, # of connection points: 2
#     Edge 38, Type (0, 0), BuildingBlock: UVAHIK_clean_linker_0, # of connection points: 2
#     Edge 39, Type (0, 0), BuildingBlock: UVAHIK_clean_linker_0, # of connection points: 2
#     Edge 40, Type (0, 0), BuildingBlock: UVAHIK_clean_linker_0, # of connection points: 2
#     Edge 41, Type (0, 0), BuildingBlock: UVAHIK_clean_linker_0, # of connection points: 2
#     Edge 42, Type (0, 0), BuildingBlock: UVAHIK_clean_linker_0, # of connection points: 2
#     Edge 43, Type (0, 0), BuildingBlock: UVAHIK_clean_linker_0, # of connection points: 2
#     Edge 44, Type (0, 0), BuildingBlock: UVAHIK_clean_linker_0, # of connection points: 2
#     Edge 45, Type (0, 0), BuildingBlock: UVAHIK_clean_linker_0, # of connection points: 2
#     Edge 46, Type (0, 0), BuildingBlock: UVAHIK_clean_linker_0, # of connection points: 2
#     Edge 47, Type (0, 0), BuildingBlock: UVAHIK_clean_linker_0, # of connection points: 2
#     Edge 48, Type (0, 0), BuildingBlock: UVAHIK_clean_linker_0, # of connection points: 2
#     Edge 49, Type (0, 0), BuildingBlock: UVAHIK_clean_linker_0, # of connection points: 2
#     Edge 50, Type (0, 0), BuildingBlock: UVAHIK_clean_linker_0, # of connection points: 2
#     Edge 51, Type (0, 0), BuildingBlock: UVAHIK_clean_linker_0, # of connection points: 2
#     Edge 52, Type (0, 0), BuildingBlock: UVAHIK_clean_linker_0, # of connection points: 2
#     Edge 53, Type (0, 0), BuildingBlock: UVAHIK_clean_linker_0, # of connection points: 2
#     Edge 54, Type (0, 0), BuildingBlock: UVAHIK_clean_linker_0, # of connection points: 2
#     Edge 55, Type (0, 0), BuildingBlock: UVAHIK_clean_linker_0, # of connection points: 2
#     Edge 56, Type (0, 0), BuildingBlock: UVAHIK_clean_linker_0, # of connection points: 2
#     Edge 57, Type (0, 0), BuildingBlock: UVAHIK_clean_linker_0, # of connection points: 2
#     Edge 58, Type (0, 0), BuildingBlock: UVAHIK_clean_linker_0, # of connection points: 2
#     Edge 59, Type (0, 0), BuildingBlock: UVAHIK_clean_linker_0, # of connection points: 2
#     Edge 60, Type (0, 0), BuildingBlock: UVAHIK_clean_linker_0, # of connection points: 2
#     Edge 61, Type (0, 0), BuildingBlock: UVAHIK_clean_linker_0, # of connection points: 2
#     Edge 62, Type (0, 0), BuildingBlock: UVAHIK_clean_linker_0, # of connection points: 2
#     Edge 63, Type (0, 0), BuildingBlock: UVAHIK_clean_linker_0, # of connection points: 2
# Relax obj value: 0.420
# Max RMSD: 0.344
# Mean RMSD: 0.285
data_MOF--net-crs--node1-BETGAK_clean_sbu_0--edge1-UVAHIK_clean_linker_0
_symmetry_space_group_name_H-M    P1
_symmetry_Int_Tables_number       1
_symmetry_cell_setting            triclinic
loop_
_symmetry_equiv_pos_as_xyz
'x, y, z'
_cell_length_a     66.200765
_cell_length_b     66.892538
_cell_length_c     57.304997
_cell_angle_alpha  76.280458
_cell_angle_beta   78.590451
_cell_angle_gamma 67.667889
loop_
_atom_site_label
_atom_site_type_symbol
_atom_site_fract_x
_atom_site_fract_y
_atom_site_fract_z
_atom_type_partial_charge
La0 La 0.97113 0.99852 0.04036 0.0
La1 La 0.01054 1.00208 1.00421 0.0
C2 C 0.93687 0.99135 0.06122 0.0
C3 C 0.92868 0.9739 0.06107 0.0
C4 C 0.91973 0.96405 0.08288 0.0
C5 C 0.91529 0.94505 0.08394 0.0
C6 C 0.91985 0.93559 0.06319 0.0
C7 C 0.92806 0.94597 0.04114 0.0
C8 C 0.93246 0.96498 0.04008 0.0
C9 C 0.00627 0.99309 0.05935 0.0
C10 C 0.00221 0.95833 1.01312 0.0
C11 C 0.04463 0.00964 0.98355 0.0
C12 C 0.05377 0.02563 0.98631 0.0
C13 C 0.06357 0.03633 0.9659 0.0
C14 C 0.06966 0.05366 0.96774 0.0
C15 C 0.0661 0.06049 0.9901 0.0
C16 C 0.05681 0.04928 1.01067 0.0
C17 C 0.05056 0.03212 1.00873 0.0
C18 C 0.9756 1.00695 0.98523 0.0
C19 C 0.97988 0.04196 0.03186 0.0
O20 O 0.95501 0.98451 0.07126 0.0
O21 O 0.9374 1.00529 0.04089 0.0
O22 O 0.98627 1.00174 0.06911 0.0
O23 O 0.00594 0.98648 0.04064 0.0
O24 O 0.98301 0.96822 0.02517 0.0
O25 O 0.01743 0.96752 1.0057 0.0
O26 O 0.02586 0.01835 0.9745 0.0
O27 O 0.04464 0.99383 1.00216 0.0
O28 O -0.00434 0.99859 0.97547 0.0
O29 O 0.97575 0.01387 1.00382 0.0
O30 O -0.00081 0.03177 0.02029 0.0
O31 O 0.96438 0.03311 0.03878 0.0
H32 H 0.91698 0.97058 0.09929 0.0
H33 H 0.90904 0.93732 0.10119 0.0
H34 H 0.93139 0.93922 0.02479 0.0
H35 H 0.93954 0.97221 0.02306 0.0
H36 H 0.06581 0.03177 0.94838 0.0
H37 H 0.07646 0.06216 0.95147 0.0
H38 H 0.0541 0.05394 0.0282 0.0
H39 H 0.04261 0.0244 0.02463 0.0
La40 La -0.00811 0.27466 0.27761 0.0
La41 La 0.98363 0.24112 0.25836 0.0
C42 C -0.01128 0.30688 0.29559 0.0
C43 C -0.01035 0.31197 0.31901 0.0
C44 C 0.00878 0.30202 0.33069 0.0
C45 C 0.0103 0.30909 0.35116 0.0
C46 C -0.0073 0.32616 0.36045 0.0
C47 C 0.97324 0.33544 0.34936 0.0
C48 C 0.97178 0.32847 0.32878 0.0
C49 C 0.02332 0.23553 0.28257 0.0
C50 C 0.96373 0.24671 0.31123 0.0
C51 C 0.98627 0.20893 0.24052 0.0
C52 C 0.98668 0.20269 0.21721 0.0
C53 C 0.96693 0.20595 0.20871 0.0
C54 C 0.96718 0.19729 0.18867 0.0
C55 C 0.98717 0.18504 0.1767 0.0
C56 C 0.00696 0.18244 0.18468 0.0
C57 C 0.00671 0.1911 0.20476 0.0
C58 C 0.95243 0.28056 0.25351 0.0
C59 C 0.01175 0.26906 0.22479 0.0
O60 O 0.00702 0.2944 0.28509 0.0
O61 O 0.97176 0.30213 0.29361 0.0
O62 O 0.02629 0.25395 0.28008 0.0
O63 O 0.00296 0.23915 0.28501 0.0
O64 O 0.9685 0.26487 0.30664 0.0
O65 O 0.97166 0.2325 0.29623 0.0
O66 O 0.96784 0.22278 0.24907 0.0
O67 O 0.00341 0.21259 0.24409 0.0
O68 O 0.9491 0.26227 0.2564 0.0
O69 O 0.97282 0.27652 0.25092 0.0
O70 O 0.00724 0.25073 0.22941 0.0
O71 O 0.00336 0.28339 0.23965 0.0
H72 H 0.02284 0.28919 0.32367 0.0
H73 H 0.0254 0.30146 0.35949 0.0
H74 H 0.95948 0.34876 0.35594 0.0
H75 H 0.95692 0.3365 0.32002 0.0
H76 H 0.95117 0.2145 0.21805 0.0
H77 H 0.95162 0.19937 0.18328 0.0
H78 H 0.02266 0.17333 0.17571 0.0
H79 H 0.0222 0.18811 0.21098 0.0
La80 La 0.73037 0.24754 0.49831 0.0
La81 La 0.74085 0.27555 0.52727 0.0
C82 C 0.71601 0.22336 0.48413 0.0
C83 C 0.69752 0.21552 0.49313 0.0
C84 C 0.68505 0.21482 0.47645 0.0
C85 C 0.6661 0.20953 0.4845 0.0
C86 C 0.65941 0.20473 0.50939 0.0
C87 C 0.67203 0.20519 0.52612 0.0
C88 C 0.69085 0.21078 0.51803 0.0
C89 C 0.72979 0.28691 0.47558 0.0
C90 C 0.69466 0.27076 0.53943 0.0
C91 C 0.74919 0.30599 0.53697 0.0
C92 C 0.76889 0.30751 0.54373 0.0
C93 C 0.7731 0.3019 0.56799 0.0
C94 C 0.79199 0.30304 0.57411 0.0
C95 C 0.80699 0.30984 0.55611 0.0
C96 C 0.80276 0.31545 0.53188 0.0
C97 C 0.78388 0.31438 0.52577 0.0
C98 C 0.75106 0.2338 0.55013 0.0
C99 C 0.77832 0.24752 0.49067 0.0
O100 O 0.71016 0.2446 0.47651 0.0
O101 O 0.73247 0.21565 0.49719 0.0
O102 O 0.73637 0.26979 0.46544 0.0
O103 O 0.72284 0.28194 0.49758 0.0
O104 O 0.70212 0.25496 0.52633 0.0
O105 O 0.706 0.28323 0.53981 0.0
O106 O 0.73921 0.29404 0.5529 0.0
O107 O 0.7508 0.30278 0.51484 0.0
O108 O 0.7542 0.24902 0.55781 0.0
O109 O 0.74343 0.24273 0.53038 0.0
O110 O 0.77111 0.26408 0.50277 0.0
O111 O 0.76591 0.23636 0.48921 0.0
H112 H 0.6898 0.2187 0.45718 0.0
H113 H 0.65681 0.20893 0.47126 0.0
H114 H 0.66713 0.20159 0.54538 0.0
H115 H 0.69986 0.2118 0.53123 0.0
H116 H 0.76183 0.29662 0.58228 0.0
H117 H 0.79485 0.29862 0.59293 0.0
H118 H 0.81376 0.32123 0.51767 0.0
H119 H 0.78101 0.31904 0.50695 0.0
La120 La 0.72159 0.00813 0.75614 0.0
La121 La 0.75755 0.01381 0.77492 0.0
C122 C 0.68734 0.01332 0.73885 0.0
C123 C 0.68034 0.01474 0.71534 0.0
C124 C 0.68426 0.9956 0.70636 0.0
C125 C 0.67528 0.99676 0.68578 0.0
C126 C 0.66209 0.01706 0.67371 0.0
C127 C 0.65889 0.03629 0.68215 0.0
C128 C 0.66784 0.03512 0.7028 0.0
C129 C 0.76048 0.97717 0.74948 0.0
C130 C 0.74788 0.0384 0.72293 0.0
C131 C 0.79124 0.00953 0.79272 0.0
C132 C 0.7987 1.00592 0.81654 0.0
C133 C 0.8025 0.02303 0.82304 0.0
C134 C 0.81148 0.01965 0.84431 0.0
C135 C 0.81706 0.999 0.85955 0.0
C136 C 0.81271 0.98199 0.85341 0.0
C137 C 0.8036 0.98541 0.8321 0.0
C138 C 0.71825 0.04451 0.78127 0.0
C139 C 0.73186 0.98333 0.80796 0.0
O140 O 0.70073 0.99428 0.74836 0.0
O141 O 0.69243 0.02962 0.74169 0.0
O142 O 0.74184 0.97435 0.75242 0.0
O143 O 0.75695 0.99733 0.74769 0.0
O144 O 0.72963 0.03359 0.7276 0.0
O145 O 0.7635 0.02884 0.73739 0.0
O146 O 0.77598 0.02839 0.78631 0.0
O147 O 0.78814 0.99332 0.78667 0.0
O148 O 0.73668 0.04785 0.77741 0.0
O149 O 0.72228 0.02426 0.78347 0.0
O150 O 0.75031 0.98769 0.80272 0.0
O151 O 0.7158 0.99348 0.7941 0.0
H152 H 0.69364 0.97958 0.71567 0.0
H153 H 0.67781 0.98158 0.68006 0.0
H154 H 0.64902 0.05221 0.67312 0.0
H155 H 0.66443 0.05013 0.70937 0.0
H156 H 0.79912 0.03892 0.81126 0.0
H157 H 0.81499 0.03299 0.84822 0.0
H158 H 0.81673 0.96593 0.86485 0.0
H159 H 0.80089 0.97187 0.82758 0.0
La160 La 0.48954 0.7752 0.27443 0.0
La161 La 0.48217 0.73954 0.25769 0.0
C162 C 0.48569 0.80954 0.28876 0.0
C163 C 0.4866 0.81691 0.31058 0.0
C164 C 0.48613 0.80379 0.33363 0.0
C165 C 0.48846 0.8109 0.35377 0.0
C166 C 0.4915 0.8311 0.35101 0.0
C167 C 0.49151 0.84426 0.32789 0.0
C168 C 0.48909 0.83722 0.30791 0.0
C169 C 0.52136 0.73643 0.28112 0.0
C170 C 0.46198 0.74757 0.30989 0.0
C171 C 0.4856 0.70555 0.24292 0.0
C172 C 0.48485 0.69852 0.22077 0.0
C173 C 0.49051 0.70922 0.1976 0.0
C174 C 0.48902 0.70223 0.17698 0.0
C175 C 0.48163 0.68461 0.1793 0.0
C176 C 0.47612 0.67397 0.20261 0.0
C177 C 0.47773 0.68086 0.22309 0.0
C178 C 0.45062 0.77864 0.25074 0.0
C179 C 0.50994 0.76682 0.22229 0.0
O180 O 0.50424 0.79632 0.27962 0.0
O181 O 0.46908 0.80355 0.28853 0.0
O182 O 0.52406 0.75509 0.27773 0.0
O183 O 0.50108 0.7398 0.28352 0.0
O184 O 0.4662 0.7661 0.30416 0.0
O185 O 0.47059 0.73248 0.29594 0.0
O186 O 0.46708 0.71894 0.2519 0.0
O187 O 0.50239 0.71102 0.24381 0.0
O188 O 0.44762 0.76011 0.25432 0.0
O189 O 0.47093 0.77488 0.24841 0.0
O190 O 0.50581 0.74826 0.22817 0.0
O191 O 0.50114 0.78206 0.23608 0.0
H192 H 0.48432 0.78797 0.33596 0.0
H193 H 0.48846 0.80038 0.37134 0.0
H194 H 0.49343 0.86006 0.32522 0.0
H195 H 0.48947 0.84755 0.29024 0.0
H196 H 0.49592 0.72301 0.19546 0.0
H197 H 0.49328 0.71081 0.15926 0.0
H198 H 0.47075 0.66012 0.20505 0.0
H199 H 0.47332 0.6724 0.24084 0.0
La200 La 0.22841 0.74473 0.49792 0.0
La201 La 0.2386 0.77482 0.52531 0.0
C202 C 0.21478 0.71777 0.48859 0.0
C203 C 0.1959 0.71086 0.49996 0.0
C204 C 0.17443 0.72641 0.50177 0.0
C205 C 0.1566 0.71976 0.51207 0.0
C206 C 0.15985 0.69748 0.52096 0.0
C207 C 0.18134 0.68201 0.52003 0.0
C208 C 0.19924 0.68866 0.50952 0.0
C209 C 0.22566 0.78431 0.47433 0.0
C210 C 0.19289 0.76908 0.53922 0.0
C211 C 0.24796 0.80582 0.53181 0.0
C212 C 0.26947 0.80798 0.53085 0.0
C213 C 0.27599 0.80989 0.55182 0.0
C214 C 0.29689 0.8106 0.55137 0.0
C215 C 0.31155 0.80951 0.5299 0.0
C216 C 0.30497 0.80766 0.50893 0.0
C217 C 0.28415 0.80692 0.50937 0.0
C218 C 0.24914 0.73318 0.54852 0.0
C219 C 0.27579 0.74686 0.48814 0.0
O220 O 0.20992 0.73815 0.47708 0.0
O221 O 0.23094 0.71184 0.50175 0.0
O222 O 0.23188 0.76715 0.46423 0.0
O223 O 0.21997 0.77923 0.49671 0.0
O224 O 0.19996 0.75356 0.52568 0.0
O225 O 0.20429 0.78149 0.53973 0.0
O226 O 0.24315 0.79136 0.54971 0.0
O227 O 0.2429 0.8049 0.5112 0.0
O228 O 0.2515 0.74865 0.55655 0.0
O229 O 0.2423 0.74197 0.52843 0.0
O230 O 0.26845 0.76343 0.50024 0.0
O231 O 0.26377 0.73511 0.48716 0.0
H232 H 0.17131 0.74374 0.49503 0.0
H233 H 0.14019 0.73199 0.51278 0.0
H234 H 0.18423 0.66469 0.52658 0.0
H235 H 0.21564 0.67644 0.50855 0.0
H236 H 0.26498 0.8107 0.56857 0.0
H237 H 0.30142 0.81241 0.56771 0.0
H238 H 0.31599 0.80667 0.49218 0.0
H239 H 0.27972 0.80531 0.49288 0.0
La240 La 0.21901 0.50912 0.75711 0.0
La241 La 0.2565 0.51393 0.77436 0.0
C242 C 0.18354 0.515 0.74194 0.0
C243 C 0.1753 0.51817 0.71889 0.0
C244 C 0.18968 0.51243 0.69804 0.0
C245 C 0.1813 0.51366 0.67693 0.0
C246 C 0.15845 0.52075 0.67638 0.0
C247 C 0.1442 0.52709 0.69718 0.0
C248 C 0.15257 0.5258 0.71821 0.0
C249 C 0.2577 0.47835 0.74874 0.0
C250 C 0.24462 0.53953 0.72305 0.0
C251 C 0.29231 0.50773 0.78895 0.0
C252 C 0.30185 0.50309 0.81151 0.0
C253 C 0.28869 0.50843 0.83315 0.0
C254 C 0.29848 0.50606 0.85366 0.0
C255 C 0.32155 0.49825 0.85279 0.0
C256 C 0.33453 0.49215 0.83126 0.0
C257 C 0.32475 0.49456 0.81085 0.0
C258 C 0.2178 0.54473 0.78268 0.0
C259 C 0.23066 0.48395 0.80864 0.0
O260 O 0.19803 0.4957 0.74875 0.0
O261 O 0.18872 0.53095 0.74556 0.0
O262 O 0.23908 0.47534 0.75271 0.0
O263 O 0.25406 0.49847 0.74725 0.0
O264 O 0.22637 0.53473 0.72836 0.0
O265 O 0.26076 0.52982 0.73684 0.0
O266 O 0.27713 0.52702 0.78402 0.0
O267 O 0.28742 0.49208 0.7841 0.0
O268 O 0.23644 0.54771 0.77888 0.0
O269 O 0.2214 0.52462 0.78422 0.0
O270 O 0.24909 0.48839 0.80308 0.0
O271 O 0.21444 0.49386 0.79494 0.0
H272 H 0.20732 0.50656 0.69828 0.0
H273 H 0.19268 0.50886 0.66115 0.0
H274 H 0.12654 0.53229 0.69752 0.0
H275 H 0.14127 0.53019 0.7342 0.0
H276 H 0.27092 0.51496 0.83398 0.0
H277 H 0.28804 0.51068 0.87003 0.0
H278 H 0.35231 0.48641 0.8298 0.0
H279 H 0.33513 0.49043 0.79425 0.0
La280 La 0.97218 0.50383 0.53828 0.0
La281 La 0.00799 0.50966 0.49814 0.0
C282 C 0.9404 0.49441 0.5636 0.0
C283 C 0.93212 0.47666 0.56492 0.0
C284 C 0.92653 0.46533 0.58764 0.0
C285 C 0.92138 0.4466 0.58944 0.0
C286 C 0.92172 0.43892 0.5685 0.0
C287 C 0.92676 0.45069 0.5457 0.0
C288 C 0.93199 0.46937 0.54392 0.0
C289 C 0.00919 0.49961 0.55255 0.0
C290 C 0.00125 0.46516 0.50809 0.0
C291 C 0.03971 0.52037 0.47533 0.0
C292 C 0.0472 0.53721 0.47973 0.0
C293 C 0.03785 0.55933 0.46885 0.0
C294 C 0.04072 0.57595 0.4772 0.0
C295 C 0.05303 0.57075 0.49654 0.0
C296 C 0.06374 0.54857 0.50614 0.0
C297 C 0.06095 0.53198 0.49774 0.0
C298 C 0.97125 0.51373 0.4836 0.0
C299 C 0.97882 0.54825 0.52832 0.0
O300 O 0.95986 0.48786 0.57073 0.0
O301 O 0.93839 0.50913 0.54365 0.0
O302 O -0.01008 0.50773 0.56422 0.0
O303 O 0.00727 0.493 0.53454 0.0
O304 O 0.98292 0.4743 0.52195 0.0
O305 O 0.01573 0.47505 0.49894 0.0
O306 O 0.02035 0.52784 0.4676 0.0
O307 O 0.04204 0.50295 0.49245 0.0
O308 O -0.00944 0.50632 0.47163 0.0
O309 O 0.97296 0.5203 0.50177 0.0
O310 O -0.00254 0.53876 0.5152 0.0
O311 O 0.96407 0.53861 0.53672 0.0
H312 H 0.92683 0.47058 0.60403 0.0
H313 H 0.91777 0.43778 0.60726 0.0
H314 H 0.92682 0.44539 0.52922 0.0
H315 H 0.93648 0.47774 0.52616 0.0
H316 H 0.0273 0.56393 0.4548 0.0
H317 H 0.03238 0.59289 0.46934 0.0
H318 H 0.07397 0.54404 0.52047 0.0
H319 H 0.06874 0.5151 0.50619 0.0
La320 La 0.23089 0.2525 1.00285 0.0
La321 La 0.24586 0.26999 0.03517 0.0
C322 C 0.22304 0.2293 0.97966 0.0
C323 C 0.20501 0.22085 0.98355 0.0
C324 C 0.1979 0.21758 0.96379 0.0
C325 C 0.17975 0.21095 0.96724 0.0
C326 C 0.16849 0.20752 0.99052 0.0
C327 C 0.17567 0.21086 1.01027 0.0
C328 C 0.19374 0.21755 1.00679 0.0
C329 C 0.22345 0.2952 0.99011 0.0
C330 C 0.19644 0.27091 0.04505 0.0
C331 C 0.25443 0.29311 0.05776 0.0
C332 C 0.27297 0.30102 0.05256 0.0
C333 C 0.28255 0.30242 0.07154 0.0
C334 C 0.30179 0.30744 0.06664 0.0
C335 C 0.31172 0.31104 0.04268 0.0
C336 C 0.30191 0.30981 0.02373 0.0
C337 C 0.28273 0.30483 0.02864 0.0
C338 C 0.25316 0.22723 0.0478 0.0
C339 C 0.28031 0.2516 0.99301 0.0
O340 O 0.21712 0.25065 0.97382 0.0
O341 O 0.23658 0.22119 0.99616 0.0
O342 O 0.21007 0.28577 0.98855 0.0
O343 O 0.24051 0.28064 0.99804 0.0
O344 O 0.20228 0.257 0.02994 0.0
O345 O 0.21037 0.27968 0.04819 0.0
O346 O 0.26 0.2718 0.06395 0.0
O347 O 0.24029 0.30129 0.04188 0.0
O348 O 0.26653 0.23656 0.04967 0.0
O349 O 0.2362 0.24193 0.03991 0.0
O350 O 0.27446 0.26544 1.00816 0.0
O351 O 0.26637 0.24289 0.98979 0.0
H352 H 0.20629 0.2203 0.94572 0.0
H353 H 0.17472 0.20819 0.95175 0.0
H354 H 0.16719 0.2085 0.02835 0.0
H355 H 0.19879 0.22033 0.02222 0.0
H356 H 0.27538 0.29923 0.09012 0.0
H357 H 0.30884 0.3086 0.08158 0.0
H358 H 0.30929 0.31228 1.00513 0.0
H359 H 0.27581 0.30349 1.01373 0.0
La360 La 0.22017 1.00645 0.25936 0.0
La361 La 0.2576 0.01141 0.27606 0.0
C362 C 0.18507 0.01226 0.24342 0.0
C363 C 0.17766 0.01386 0.22009 0.0
C364 C 0.18052 0.99479 0.21156 0.0
C365 C 0.17167 0.99624 0.19079 0.0
C366 C 0.15965 0.01678 0.17806 0.0
C367 C 0.15731 0.0359 0.1862 0.0
C368 C 0.16616 0.03444 0.20704 0.0
C369 C 0.25859 0.97515 0.2513 0.0
C370 C 0.24606 0.03598 0.22454 0.0
C371 C 0.29324 1.00598 0.2906 0.0
C372 C 0.30185 1.00534 0.31259 0.0
C373 C 0.32083 0.01054 0.30998 0.0
C374 C 0.32908 0.01118 0.33025 0.0
C375 C 0.31847 1.00662 0.35362 0.0
C376 C 0.29959 1.001 0.35628 0.0
C377 C 0.29123 1.00048 0.33585 0.0
C378 C 0.21892 0.04248 0.28435 0.0
C379 C 0.23168 0.98179 0.31085 0.0
O380 O 0.19836 0.9931 0.25278 0.0
O381 O 0.19071 0.02833 0.24589 0.0
O382 O 0.23977 0.9726 0.25503 0.0
O383 O 0.25539 0.99523 0.24941 0.0
O384 O 0.22744 0.03196 0.23058 0.0
O385 O 0.26241 0.02578 0.23797 0.0
O386 O 0.27969 0.02504 0.28147 0.0
O387 O 0.28687 0.98984 0.29007 0.0
O388 O 0.23763 0.04528 0.28064 0.0
O389 O 0.22248 0.02239 0.28607 0.0
O390 O 0.25029 0.98591 0.30493 0.0
O391 O 0.21535 0.99191 0.29737 0.0
H392 H 0.18908 0.97864 0.2213 0.0
H393 H 0.17346 0.98117 0.18532 0.0
H394 H 0.14831 0.05198 0.17669 0.0
H395 H 0.16356 0.04942 0.21325 0.0
H396 H 0.32923 0.01431 0.29216 0.0
H397 H 0.34388 0.01514 0.32761 0.0
H398 H 0.29106 0.99747 0.37406 0.0
H399 H 0.27644 0.99654 0.33816 0.0
La400 La 0.49291 0.27685 0.77562 0.0
La401 La 0.48197 0.24445 0.75722 0.0
C402 C 0.49194 0.30828 0.79363 0.0
C403 C 0.49005 0.31414 0.81757 0.0
C404 C 0.5091 0.31027 0.82784 0.0
C405 C 0.50765 0.31783 0.84907 0.0
C406 C 0.48711 0.32963 0.86049 0.0
C407 C 0.468 0.33306 0.85055 0.0
C408 C 0.46945 0.32544 0.8293 0.0
C409 C 0.52375 0.23755 0.77791 0.0
C410 C 0.4641 0.24987 0.81063 0.0
C411 C 0.48069 0.21334 0.74051 0.0
C412 C 0.48702 0.20188 0.71975 0.0
C413 C 0.48486 0.21332 0.69586 0.0
C414 C 0.48649 0.20218 0.67732 0.0
C415 C 0.49012 0.17953 0.68248 0.0
C416 C 0.49374 0.16799 0.70608 0.0
C417 C 0.4922 0.17907 0.72451 0.0
C418 C 0.45113 0.28377 0.75607 0.0
C419 C 0.51113 0.27072 0.72269 0.0
O420 O 0.51 0.29279 0.7871 0.0
O421 O 0.47457 0.30686 0.78748 0.0
O422 O 0.52743 0.25575 0.77423 0.0
O423 O 0.50328 0.24151 0.78219 0.0
O424 O 0.47092 0.26679 0.80639 0.0
O425 O 0.46926 0.23669 0.79481 0.0
O426 O 0.46605 0.23318 0.73789 0.0
O427 O 0.49601 0.21116 0.75324 0.0
O428 O 0.44744 0.26549 0.76095 0.0
O429 O 0.47154 0.27982 0.75079 0.0
O430 O 0.50604 0.25269 0.72799 0.0
O431 O 0.50389 0.28517 0.73742 0.0
H432 H 0.52526 0.30194 0.8191 0.0
H433 H 0.52273 0.3152 0.85596 0.0
H434 H 0.45191 0.34192 0.859 0.0
H435 H 0.45446 0.32889 0.82177 0.0
H436 H 0.48084 0.23097 0.69176 0.0
H437 H 0.48361 0.21149 0.65929 0.0
H438 H 0.49693 0.15048 0.7105 0.0
H439 H 0.49391 0.16995 0.7428 0.0
La440 La -0.00944 0.77618 0.7758 0.0
La441 La 0.98281 0.74065 0.75913 0.0
C442 C 0.98713 0.81033 0.79029 0.0
C443 C -0.01165 0.81739 0.81223 0.0
C444 C 0.98486 0.80561 0.83551 0.0
C445 C 0.98703 0.81251 0.85588 0.0
C446 C -0.00705 0.83114 0.85319 0.0
C447 C -0.00381 0.8429 0.82979 0.0
C448 C -0.00609 0.83609 0.80956 0.0
C449 C 0.02206 0.73724 0.78277 0.0
C450 C 0.96255 0.74898 0.81123 0.0
C451 C 0.986 0.70653 0.74475 0.0
C452 C 0.98578 0.69874 0.72291 0.0
C453 C -0.00931 0.70951 0.69949 0.0
C454 C -0.01044 0.70178 0.67922 0.0
C455 C 0.98331 0.68334 0.68214 0.0
C456 C 0.97869 0.67257 0.70569 0.0
C457 C 0.97991 0.6802 0.72582 0.0
C458 C 0.95152 0.7799 0.75228 0.0
C459 C 0.01072 0.76773 0.72357 0.0
O460 O 0.00555 0.79715 0.78085 0.0
O461 O 0.97039 0.80454 0.79006 0.0
O462 O 0.02493 0.7558 0.77942 0.0
O463 O 0.00175 0.74078 0.78507 0.0
O464 O 0.96696 0.76741 0.80545 0.0
O465 O 0.97106 0.73382 0.79736 0.0
O466 O 0.96744 0.7205 0.75285 0.0
O467 O 0.0029 0.7117 0.74596 0.0
O468 O 0.94828 0.76147 0.75606 0.0
O469 O 0.97187 0.77593 0.74988 0.0
O470 O 0.00637 0.74928 0.72946 0.0
O471 O 0.00219 0.78292 0.73743 0.0
H472 H 0.98069 0.79102 0.8379 0.0
H473 H 0.98454 0.80305 0.87366 0.0
H474 H 0.00037 0.85752 0.8271 0.0
H475 H -0.00335 0.84538 0.79173 0.0
H476 H -0.00483 0.72394 0.69691 0.0
H477 H -0.00687 0.71048 0.6613 0.0
H478 H 0.97422 0.6581 0.70861 0.0
H479 H 0.97612 0.67165 0.74376 0.0
La480 La 0.72234 0.50863 0.2576 0.0
La481 La 0.75824 0.51479 0.27612 0.0
C482 C 0.68782 0.51312 0.24126 0.0
C483 C 0.67982 0.51397 0.21855 0.0
C484 C 0.6776 0.4951 0.2143 0.0
C485 C 0.66736 0.49616 0.19475 0.0
C486 C 0.65892 0.51616 0.179 0.0
C487 C 0.66185 0.5349 0.1827 0.0
C488 C 0.67215 0.53384 0.20231 0.0
C489 C 0.7613 0.47781 0.251 0.0
C490 C 0.74797 0.53943 0.22407 0.0
C491 C 0.79258 0.51042 0.29274 0.0
C492 C 0.80192 0.50406 0.31576 0.0
C493 C 0.78851 0.50599 0.33799 0.0
C494 C 0.79788 0.50214 0.35926 0.0
C495 C 0.82078 0.4962 0.35858 0.0
C496 C 0.8341 0.49353 0.33631 0.0
C497 C 0.82474 0.49743 0.31515 0.0
C498 C 0.71898 0.54554 0.28188 0.0
C499 C 0.73261 0.48453 0.30984 0.0
O500 O 0.70161 0.49426 0.25054 0.0
O501 O 0.69296 0.52965 0.2433 0.0
O502 O 0.74271 0.47491 0.25393 0.0
O503 O 0.7577 0.49802 0.24908 0.0
O504 O 0.73016 0.53388 0.22855 0.0
O505 O 0.76341 0.5307 0.23879 0.0
O506 O 0.7757 0.52869 0.29012 0.0
O507 O 0.79024 0.49494 0.28442 0.0
O508 O 0.73741 0.54897 0.27779 0.0
O509 O 0.72298 0.52522 0.28451 0.0
O510 O 0.75086 0.48926 0.30471 0.0
O511 O 0.71681 0.49402 0.29559 0.0
H512 H 0.68302 0.47962 0.22667 0.0
H513 H 0.66507 0.48148 0.19275 0.0
H514 H 0.6557 0.55052 0.17077 0.0
H515 H 0.67346 0.54872 0.20516 0.0
H516 H 0.77082 0.51102 0.3388 0.0
H517 H 0.7872 0.50411 0.37614 0.0
H518 H 0.85173 0.48932 0.335 0.0
H519 H 0.83531 0.49594 0.29812 0.0
La520 La 0.72859 0.74774 0.99749 0.0
La521 La 0.73867 0.776 0.02647 0.0
C522 C 0.71389 0.72374 0.98348 0.0
C523 C 0.69565 0.7156 0.99328 0.0
C524 C 0.68172 0.71607 0.9775 0.0
C525 C 0.66307 0.71041 0.9866 0.0
C526 C 0.65819 0.70401 1.01162 0.0
C527 C 0.67221 0.70339 0.0274 0.0
C528 C 0.69068 0.70936 1.01831 0.0
C529 C 0.72697 0.78748 0.97525 0.0
C530 C 0.69326 0.76989 0.03982 0.0
C531 C 0.74734 0.80664 0.03504 0.0
C532 C 0.76844 0.80821 0.03736 0.0
C533 C 0.77225 0.8107 0.05955 0.0
C534 C 0.79259 0.81112 0.06223 0.0
C535 C 0.80942 0.80916 0.0427 0.0
C536 C 0.80562 0.8066 0.02053 0.0
C537 C 0.78534 0.80616 1.01786 0.0
C538 C 0.74969 0.73414 0.04908 0.0
C539 C 0.77627 0.74849 0.98942 0.0
O540 O 0.70772 0.74505 0.97629 0.0
O541 O 0.73095 0.71593 0.99568 0.0
O542 O 0.73415 0.77049 0.96481 0.0
O543 O 0.72027 0.7821 0.99722 0.0
O544 O 0.70086 0.75431 0.02637 0.0
O545 O 0.70423 0.7827 0.0402 0.0
O546 O 0.74057 0.79286 0.05213 0.0
O547 O 0.74476 0.80536 1.01339 0.0
O548 O 0.75232 0.74957 0.05687 0.0
O549 O 0.74196 0.74296 0.02933 0.0
O550 O 0.76886 0.76491 1.00174 0.0
O551 O 0.76409 0.73714 0.98784 0.0
H552 H 0.68511 0.72113 0.95816 0.0
H553 H 0.65263 0.71071 0.97405 0.0
H554 H 0.6687 0.69859 0.04676 0.0
H555 H 0.70077 0.70949 0.03091 0.0
H556 H 0.75949 0.81227 0.07483 0.0
H557 H 0.79497 0.81349 0.0794 0.0
H558 H 0.81834 0.80494 1.00523 0.0
H559 H 0.783 0.80412 1.00051 0.0
La560 La 0.47164 0.99548 0.54191 0.0
La561 La 0.50856 1.00329 0.50428 0.0
C562 C 0.4392 0.98476 0.56224 0.0
C563 C 0.43187 0.96819 0.55735 0.0
C564 C 0.42524 0.95387 0.57665 0.0
C565 C 0.42232 0.93549 0.57241 0.0
C566 C 0.42614 0.9311 0.54877 0.0
C567 C 0.43185 0.94605 0.52937 0.0
C568 C 0.43472 0.96439 0.53363 0.0
C569 C 0.50771 0.98942 0.55932 0.0
C570 C 0.50219 0.95919 0.50914 0.0
C571 C 0.54068 0.01434 0.48336 0.0
C572 C 0.54862 0.03049 0.48824 0.0
C573 C 0.55455 0.04535 0.46906 0.0
C574 C 0.55909 0.0627 0.4737 0.0
C575 C 0.55796 0.06534 0.49767 0.0
C576 C 0.55255 0.05001 0.51681 0.0
C577 C 0.54768 0.03296 0.51212 0.0
C578 C 0.47232 0.00931 0.48721 0.0
C579 C 0.4785 0.03937 0.53729 0.0
O580 O 0.45821 0.97664 0.57076 0.0
O581 O 0.4377 1.00203 0.54512 0.0
O582 O 0.48811 0.99628 0.57083 0.0
O583 O 0.50661 0.98463 0.53971 0.0
O584 O 0.48344 0.96755 0.52273 0.0
O585 O 0.51666 0.96929 0.50185 0.0
O586 O 0.52134 0.02279 0.47556 0.0
O587 O 0.54254 0.99673 0.50009 0.0
O588 O 0.49184 1.00221 0.47563 0.0
O589 O 0.47361 0.01425 0.50663 0.0
O590 O 0.49721 0.03095 0.52369 0.0
O591 O 0.46391 0.0294 0.54458 0.0
H592 H 0.42315 0.95644 0.59508 0.0
H593 H 0.4174 0.92454 0.58768 0.0
H594 H 0.43511 0.94308 0.51098 0.0
H595 H 0.44023 0.97497 0.51845 0.0
H596 H 0.55489 0.044 0.4505 0.0
H597 H 0.5628 0.07441 0.45848 0.0
H598 H 0.55178 0.05129 0.53547 0.0
H599 H 0.54251 0.02213 0.52719 0.0
La600 La 0.46459 0.50839 0.03464 0.0
La601 La 0.50822 0.50665 1.00415 0.0
C602 C 0.42846 0.50323 0.04952 0.0
C603 C 0.42123 0.48653 0.0446 0.0
C604 C 0.41492 0.47197 0.06394 0.0
C605 C 0.41308 0.45302 0.05979 0.0
C606 C 0.41743 0.44841 0.03622 0.0
C607 C 0.42255 0.46359 1.01677 0.0
C608 C 0.42455 0.48238 0.02096 0.0
C609 C 0.49708 0.50078 0.05912 0.0
C610 C 0.49554 0.46574 1.0111 0.0
C611 C 0.54471 0.51116 0.98962 0.0
C612 C 0.55255 0.52792 0.99354 0.0
C613 C 0.55043 0.5471 0.97613 0.0
C614 C 0.55381 0.5648 0.98142 0.0
C615 C 0.55956 0.56363 1.00415 0.0
C616 C 0.56277 0.54407 0.02114 0.0
C617 C 0.55946 0.52633 1.0158 0.0
C618 C 0.47549 0.51495 0.97968 0.0
C619 C 0.47695 0.54962 0.027 0.0
O620 O 0.44498 0.49515 0.06242 0.0
O621 O 0.43107 0.5183 0.031 0.0
O622 O 0.47659 0.51128 0.06595 0.0
O623 O 0.49844 0.49352 0.04022 0.0
O624 O 0.47583 0.47784 0.02016 0.0
O625 O 0.51244 0.47264 1.00599 0.0
O626 O 0.52857 0.51867 0.97622 0.0
O627 O 0.54147 0.49696 1.00881 0.0
O628 O 0.49587 0.5042 0.97271 0.0
O629 O 0.47442 0.52182 0.99872 0.0
O630 O 0.49672 0.53759 1.01795 0.0
O631 O 0.46016 0.54253 0.03233 0.0
H632 H 0.41254 0.47468 0.08235 0.0
H633 H 0.40872 0.44171 0.07507 0.0
H634 H 0.42625 0.46033 0.99848 0.0
H635 H 0.42998 0.49294 1.00582 0.0
H636 H 0.54523 0.5488 0.95876 0.0
H637 H 0.55114 0.57969 0.96797 0.0
H638 H 0.56769 0.54253 0.03861 0.0
H639 H 0.56168 0.51164 0.02938 0.0
C640 C 0.96119 0.06918 0.05979 0.0
C641 C 0.97723 0.06213 0.04049 0.0
C642 C 0.96131 0.08568 0.07085 0.0
C643 C 0.9604 0.12632 0.08681 0.0
H644 H 0.01822 0.12172 0.09734 0.0
C645 C 0.97203 0.18391 0.14013 0.0
C646 C 0.98722 0.17374 0.15716 0.0
C647 C 0.97096 0.17252 0.12309 0.0
C648 C 0.00194 0.12321 0.09461 0.0
H649 H 0.00501 0.06798 1.01658 0.0
H650 H 0.00482 0.09707 0.03543 0.0
H651 H 0.01496 0.09828 0.07273 0.0
H652 H 0.01331 0.14357 0.1694 0.0
H653 H 0.0115 0.12381 0.13977 0.0
H654 H 0.9474 0.15061 0.1096 0.0
C655 C -0.00743 0.08942 0.04251 0.0
C656 C 6e-05 0.10996 0.08021 0.0
C657 C -0.00745 0.07285 0.03157 0.0
C658 C 0.00167 0.15208 0.15631 0.0
C659 C 0.00061 0.14071 0.13929 0.0
C660 C 0.96229 0.13958 0.10125 0.0
C661 C 0.97738 0.0956 0.06275 0.0
C662 C 0.97926 0.11111 0.07639 0.0
C663 C 0.98507 0.15068 0.12264 0.0
C664 C 0.98309 0.13794 0.10564 0.0
H665 H 0.94926 0.06117 0.06724 0.0
H666 H 0.94947 0.08984 0.08651 0.0
H667 H 0.94413 0.12784 0.08404 0.0
H668 H 0.96086 0.20067 0.14005 0.0
H669 H 0.95902 0.18081 0.1103 0.0
C670 C 0.80784 0.22814 0.46009 0.0
C671 C 0.80044 0.24298 0.47634 0.0
C672 C 0.82743 0.22612 0.44444 0.0
C673 C 0.86285 0.25843 0.41498 0.0
H674 H 0.90462 0.20342 0.39808 0.0
C675 C 0.94194 0.25632 0.35066 0.0
C676 C 0.9484 0.24285 0.33309 0.0
C677 C 0.92563 0.25445 0.36984 0.0
C678 C 0.89302 0.21895 0.40243 0.0
H679 H 0.8086 0.26648 0.48964 0.0
H680 H 0.8426 0.26281 0.46263 0.0
H681 H 0.87294 0.20334 0.42844 0.0
H682 H 0.94318 0.21636 0.32238 0.0
H683 H 0.91446 0.21336 0.35555 0.0
H684 H 0.88239 0.27418 0.38874 0.0
C685 C 0.8331 0.25301 0.46164 0.0
C686 C 0.87487 0.21889 0.41987 0.0
C687 C 0.81361 0.255 0.47727 0.0
C688 C 0.93869 0.22693 0.33565 0.0
C689 C 0.92223 0.22517 0.35477 0.0
C690 C 0.88085 0.25852 0.39752 0.0
C691 C 0.84002 0.23893 0.44464 0.0
C692 C 0.85959 0.23865 0.4264 0.0
C693 C 0.91516 0.23921 0.37187 0.0
C694 C 0.89625 0.2388 0.39098 0.0
H695 H 0.79814 0.21864 0.45881 0.0
H696 H 0.83223 0.21519 0.4315 0.0
H697 H 0.85117 0.27401 0.41916 0.0
H698 H 0.94917 0.26866 0.34939 0.0
H699 H 0.92104 0.2652 0.38294 0.0
C700 C 0.76669 0.06484 0.70018 0.0
C701 C 0.75032 0.05577 0.70194 0.0
C702 C 0.76763 0.08283 0.68213 0.0
C703 C 0.75111 0.11402 0.62247 0.0
H704 H 0.75513 0.16259 0.64472 0.0
C705 C 0.74237 0.19893 0.55952 0.0
C706 C 0.75345 0.21148 0.5642 0.0
C707 C 0.7426 0.17911 0.57503 0.0
C708 C 0.75446 0.14911 0.63792 0.0
H709 H 0.72255 0.05817 0.68535 0.0
H710 H 0.72454 0.08934 0.65345 0.0
H711 H 0.75492 0.1295 0.67343 0.0
H712 H 0.77448 0.21258 0.588 0.0
H713 H 0.77599 0.17776 0.61413 0.0
H714 H 0.75116 0.13339 0.58682 0.0
C715 C 0.73656 0.08253 0.66622 0.0
C716 C 0.7542 0.1301 0.65454 0.0
C717 C 0.73541 0.06469 0.68455 0.0
C718 C 0.7656 0.20335 0.58402 0.0
C719 C 0.76621 0.18343 0.59922 0.0
C720 C 0.75172 0.13296 0.60568 0.0
C721 C 0.75242 0.0921 0.66511 0.0
C722 C 0.75258 0.11228 0.64708 0.0
C723 C 0.75425 0.1712 0.59542 0.0
C724 C 0.75349 0.15082 0.61313 0.0
H725 H 0.77843 0.05852 0.71325 0.0
H726 H 0.78019 0.08965 0.68164 0.0
H727 H 0.74994 0.10053 0.61611 0.0
H728 H 0.73284 0.20486 0.54446 0.0
H729 H 0.73301 0.17043 0.57142 0.0
C730 C 0.93535 0.01657 0.9834 0.0
C731 C 0.9572 1.00251 0.97942 0.0
C732 C 0.91847 0.01302 0.97546 0.0
C733 C 0.91191 0.98603 0.92955 0.0
H734 H 0.85127 1.00145 0.95901 0.0
C735 C 0.84796 0.97592 0.88426 0.0
C736 C 0.82928 0.99492 0.88036 0.0
C737 C 0.86179 0.9738 0.90089 0.0
C738 C 0.86817 0.99705 0.95064 0.0
H739 H 0.97845 0.97281 0.96594 0.0
H740 H 0.94917 0.966 0.95326 0.0
H741 H 0.87914 1.00335 0.98008 0.0
H742 H 0.80945 0.02572 0.8924 0.0
H743 H 0.83382 0.02215 0.92122 0.0
H744 H 0.9011 0.98 0.90006 0.0
C745 C 0.94496 0.98033 0.96142 0.0
C746 C 0.8841 0.99822 0.96263 0.0
C747 C 0.96177 0.98416 0.96881 0.0
C748 C 0.82391 0.01103 0.89473 0.0
C749 C 0.83775 0.00889 0.91142 0.0
C750 C 0.89611 0.98469 0.91774 0.0
C751 C 0.92321 0.99515 0.96376 0.0
C752 C 0.90617 0.99286 0.95211 0.0
C753 C 0.85726 0.99063 0.91401 0.0
C754 C 0.87404 0.99034 0.92801 0.0
H755 H 0.93149 0.03078 0.99165 0.0
H756 H 0.90192 0.02482 0.9775 0.0
H757 H 0.92856 0.98235 0.9205 0.0
H758 H 0.85264 0.96324 0.87343 0.0
H759 H 0.87656 0.95938 0.90276 0.0
C760 C 0.04681 0.98354 0.05844 0.0
C761 C 0.02513 0.99667 0.06526 0.0
C762 C 0.06449 0.98726 0.06431 0.0
C763 C 0.07886 0.02857 0.08454 0.0
H764 H 0.12306 0.97771 0.11615 0.0
C765 C 0.12641 0.03255 0.15581 0.0
C766 C 0.14814 0.018 0.15768 0.0
C767 C 0.11445 0.03174 0.13875 0.0
C768 C 0.11117 0.99208 0.1069 0.0
H769 H 0.00475 0.02417 0.08303 0.0
H770 H 0.0354 0.03055 0.09342 0.0
H771 H 0.09637 0.97259 0.09658 0.0
H772 H 0.17484 0.99221 0.14191 0.0
H773 H 0.15384 0.99069 0.1122 0.0
H774 H 0.09314 0.04807 0.09578 0.0
C775 C 0.03893 0.01755 0.08336 0.0
C776 C 0.09585 0.98913 0.09567 0.0
C777 C 0.02135 0.0137 0.07771 0.0
C778 C 0.15799 1.00337 0.14124 0.0
C779 C 0.146 1.00252 0.1242 0.0
C780 C 0.09417 0.03152 0.0958 0.0
C781 C 0.0607 1.00428 0.07693 0.0
C782 C 0.0791 0.00736 0.08506 0.0
C783 C 0.12392 0.01632 0.12317 0.0
C784 C 0.11007 0.01331 0.10775 0.0
H785 H 0.05007 0.97029 0.04885 0.0
H786 H 0.0811 0.97683 0.05904 0.0
H787 H 0.0664 0.04293 0.07606 0.0
H788 H 0.11818 0.04381 0.16838 0.0
H789 H 0.09738 0.0424 0.13868 0.0
C790 C 0.02101 0.43631 0.48218 0.0
C791 C 0.00371 0.44488 0.4998 0.0
C792 C 0.02112 0.41959 0.47134 0.0
C793 C 0.98219 0.39936 0.45608 0.0
H794 H 0.03437 0.35168 0.43747 0.0
C795 C 0.97798 0.34081 0.39933 0.0
C796 C -0.00486 0.33533 0.38052 0.0
C797 C 0.97972 0.35105 0.41712 0.0
C798 C 0.01966 0.365 0.44237 0.0
H799 H 0.97378 0.44144 0.52098 0.0
H800 H 0.97397 0.41244 0.50204 0.0
H801 H 0.03666 0.375 0.46309 0.0
H802 H 0.02767 0.3361 0.36574 0.0
H803 H 0.03057 0.35425 0.39637 0.0
H804 H 0.96531 0.39008 0.43472 0.0
C805 C 0.98728 0.41886 0.49638 0.0
C806 C 0.02098 0.3783 0.45712 0.0
C807 C 0.98725 0.43544 0.50731 0.0
C808 C 0.01428 0.33983 0.3802 0.0
C809 C 0.01596 0.35021 0.39784 0.0
C810 C 0.9809 0.3862 0.4412 0.0
C811 C 0.00389 0.41116 0.47781 0.0
C812 C 0.00231 0.39578 0.4639 0.0
C813 C -0.00142 0.35624 0.41636 0.0
C814 C -0.00033 0.36901 0.43388 0.0
H815 H 0.03395 0.44318 0.47593 0.0
H816 H 0.03409 0.41409 0.45699 0.0
H817 H 0.96757 0.41292 0.46066 0.0
H818 H 0.96313 0.3373 0.40022 0.0
H819 H 0.96618 0.35506 0.43135 0.0
C820 C 0.66127 0.26018 0.55561 0.0
C821 C 0.67336 0.27362 0.55522 0.0
C822 C 0.6422 0.26147 0.57183 0.0
C823 C 0.59934 0.29647 0.61207 0.0
H824 H 0.59322 0.24121 0.646 0.0
C825 C 0.53605 0.29012 0.69704 0.0
C826 C 0.52655 0.27389 0.70064 0.0
C827 C 0.55251 0.2914 0.67778 0.0
C828 C 0.5944 0.25683 0.63645 0.0
H829 H 0.67431 0.29951 0.57126 0.0
H830 H 0.64102 0.30174 0.59957 0.0
H831 H 0.62436 0.24114 0.61529 0.0
H832 H 0.52626 0.2469 0.68605 0.0
H833 H 0.55448 0.24946 0.65224 0.0
H834 H 0.56935 0.31216 0.63334 0.0
C835 C 0.64629 0.29025 0.5872 0.0
C836 C 0.61234 0.25678 0.61882 0.0
C837 C 0.66545 0.2889 0.571 0.0
C838 C 0.5333 0.25953 0.68395 0.0
C839 C 0.54965 0.26088 0.66463 0.0
C840 C 0.58129 0.29653 0.62968 0.0
C841 C 0.63461 0.2763 0.58808 0.0
C842 C 0.61511 0.27658 0.60643 0.0
C843 C 0.55983 0.27654 0.66155 0.0
C844 C 0.5786 0.2767 0.64217 0.0
H845 H 0.66669 0.24834 0.54364 0.0
H846 H 0.63343 0.25073 0.57171 0.0
H847 H 0.60082 0.31203 0.6027 0.0
H848 H 0.53135 0.30138 0.7096 0.0
H849 H 0.56005 0.30354 0.67618 0.0
C850 C 0.7488 0.94999 0.83827 0.0
C851 C 0.72981 0.96599 0.82907 0.0
C852 C 0.74737 0.93249 0.85678 0.0
C853 C 0.70875 0.90258 0.888 0.0
H854 H 0.7546 0.87287 0.93017 0.0
C855 C 0.71138 0.82882 0.96961 0.0
C856 C 0.72725 0.80949 0.96276 0.0
C857 C 0.71066 0.84946 0.95584 0.0
C858 C 0.7416 0.88115 0.91863 0.0
H859 H 0.69429 0.97645 0.83273 0.0
H860 H 0.69159 0.94662 0.86586 0.0
H861 H 0.75461 0.9066 0.9021 0.0
H862 H 0.75537 0.79653 0.93697 0.0
H863 H 0.75464 0.83254 0.91364 0.0
H864 H 0.69563 0.87708 0.90527 0.0
C865 C 0.70777 0.94705 0.85824 0.0
C866 C 0.74169 0.90038 0.90225 0.0
C867 C 0.70925 0.96435 0.83933 0.0
C868 C 0.74289 0.81118 0.94259 0.0
C869 C 0.74253 0.83173 0.92927 0.0
C870 C 0.70842 0.8836 0.90478 0.0
C871 C 0.72684 0.9306 0.86708 0.0
C872 C 0.72555 0.91118 0.88622 0.0
C873 C 0.72619 0.85103 0.93548 0.0
C874 C 0.72505 0.87253 0.91993 0.0
H875 H 0.76495 0.95054 0.83059 0.0
H876 H 0.76256 0.92009 0.86241 0.0
H877 H 0.6962 0.90996 0.87588 0.0
H878 H 0.69909 0.82795 0.98503 0.0
H879 H 0.69791 0.86416 0.96094 0.0
C880 C 0.16783 0.28961 0.0766 0.0
C881 C 0.17506 0.27452 0.06069 0.0
C882 C 0.14839 0.29175 0.09249 0.0
C883 C 0.09744 0.27731 0.10499 0.0
H884 H 0.09765 0.28417 0.17023 0.0
C885 C 0.03528 0.25894 0.18621 0.0
C886 C 0.0272 0.27313 0.20318 0.0
C887 C 0.05161 0.26142 0.16726 0.0
C888 C 0.09719 0.28254 0.152 0.0
H889 H 0.16723 0.25008 0.04882 0.0
H890 H 0.13385 0.25343 0.07674 0.0
H891 H 0.1293 0.2843 0.14023 0.0
H892 H 0.0296 0.30147 0.21305 0.0
H893 H 0.05808 0.30571 0.18006 0.0
H894 H 0.06553 0.27486 0.11714 0.0
C895 C 0.14285 0.26399 0.0767 0.0
C896 C 0.11535 0.28268 0.13472 0.0
C897 C 0.16215 0.26196 0.06072 0.0
C898 C 0.0354 0.29024 0.20032 0.0
C899 C 0.05185 0.2926 0.1815 0.0
C900 C 0.07935 0.27699 0.12234 0.0
C901 C 0.13577 0.27875 0.093 0.0
C902 C 0.11583 0.27988 0.11101 0.0
C903 C 0.06038 0.27802 0.16496 0.0
C904 C 0.07907 0.27946 0.1461 0.0
H905 H 0.17729 0.29962 0.07697 0.0
H906 H 0.1433 0.30357 0.10446 0.0
H907 H 0.09697 0.27552 0.08683 0.0
H908 H 0.02938 0.24556 0.18787 0.0
H909 H 0.05793 0.24982 0.15493 0.0
C910 C 0.74721 0.45726 0.34655 0.0
C911 C 0.73042 0.46756 0.33139 0.0
C912 C 0.74649 0.43959 0.36517 0.0
C913 C 0.74915 0.39334 0.39002 0.0
H914 H 0.69523 0.3888 0.4282 0.0
C915 C 0.74214 0.31026 0.43927 0.0
C916 C 0.73032 0.30871 0.46246 0.0
C917 C 0.74223 0.33058 0.42578 0.0
C918 C 0.71048 0.38989 0.41789 0.0
H919 H 0.69925 0.46768 0.32468 0.0
H920 H 0.69808 0.43681 0.35705 0.0
H921 H 0.69461 0.42308 0.40058 0.0
H922 H 0.7094 0.32734 0.48983 0.0
H923 H 0.70942 0.3632 0.46605 0.0
H924 H 0.76501 0.36021 0.4071 0.0
C925 C 0.71174 0.44253 0.35467 0.0
C926 C 0.71008 0.40947 0.40184 0.0
C927 C 0.71246 0.46022 0.33599 0.0
C928 C 0.7187 0.32804 0.47201 0.0
C929 C 0.71861 0.34855 0.45834 0.0
C930 C 0.74951 0.3738 0.40591 0.0
C931 C 0.72898 0.43166 0.36921 0.0
C932 C 0.72939 0.41139 0.38748 0.0
C933 C 0.73038 0.35005 0.435 0.0
C934 C 0.73015 0.37166 0.41982 0.0
H935 H 0.76126 0.46248 0.34369 0.0
H936 H 0.75988 0.43193 0.37624 0.0
H937 H 0.76431 0.39403 0.37914 0.0
H938 H 0.75127 0.29568 0.43137 0.0
H939 H 0.75123 0.33105 0.4078 0.0
C940 C 0.54827 0.98099 0.55697 0.0
C941 C 0.52656 0.99304 0.56518 0.0
C942 C 0.56589 0.9849 0.56276 0.0
C943 C 0.57917 0.02625 0.58405 0.0
H944 H 0.62609 0.97618 0.61246 0.0
C945 C 0.62799 0.03143 0.65308 0.0
C946 C 0.65015 0.01779 0.65391 0.0
C947 C 0.61577 0.03014 0.6366 0.0
C948 C 0.61342 0.99037 0.60408 0.0
H949 H 0.50607 0.01871 0.58552 0.0
H950 H 0.53659 0.02555 0.59554 0.0
H951 H 0.5993 0.97025 0.59376 0.0
H952 H 0.67719 0.99307 0.63696 0.0
H953 H 0.65573 0.99072 0.60823 0.0
H954 H 0.59281 0.04635 0.59512 0.0
C955 C 0.54017 0.01321 0.58454 0.0
C956 C 0.59804 0.98694 0.59337 0.0
C957 C 0.52269 0.00911 0.57905 0.0
C958 C 0.66006 1.00355 0.63707 0.0
C959 C 0.64779 1.00221 0.6206 0.0
C960 C 0.59454 0.02967 0.5947 0.0
C961 C 0.56197 1.00113 0.57656 0.0
C962 C 0.58034 1.00483 0.58399 0.0
C963 C 0.62537 0.01514 0.62055 0.0
C964 C 0.61142 0.01175 0.60556 0.0
H965 H 0.55159 0.96851 0.54624 0.0
H966 H 0.58253 0.97537 0.55634 0.0
H967 H 0.56592 0.04038 0.57657 0.0
H968 H 0.61971 0.04233 0.666 0.0
H969 H 0.59846 0.0401 0.63733 0.0
C970 C 0.02202 0.93068 0.98591 0.0
C971 C 0.00505 0.93819 1.00427 0.0
C972 C 0.02213 0.9146 0.97406 0.0
C973 C 0.98324 0.89379 0.95889 0.0
H974 H 0.03633 0.85132 0.93265 0.0
C975 C 0.98056 0.83941 0.89545 0.0
C976 C -0.00416 0.83847 0.87449 0.0
C977 C 0.98247 0.84802 0.91461 0.0
C978 C 0.02135 0.86314 0.9398 0.0
H979 H 0.97591 0.93333 0.02588 0.0
H980 H 0.97616 0.90524 1.00532 0.0
H981 H 0.03867 0.87232 0.96089 0.0
H982 H 0.02572 0.84476 0.85776 0.0
H983 H 0.0289 0.85999 0.89087 0.0
H984 H 0.96598 0.88505 0.93733 0.0
C985 C -0.01088 0.91213 0.99972 0.0
C986 C 0.02269 0.87516 0.95599 0.0
C987 C -0.01096 0.92818 1.01159 0.0
C988 C 0.0135 0.84554 0.87351 0.0
C989 C 0.01547 0.85404 0.89264 0.0
C990 C 0.9819 0.88175 0.94272 0.0
C991 C 0.0053 0.90562 0.98032 0.0
C992 C 0.00371 0.89095 0.96537 0.0
C993 C -0.00019 0.8557 0.91329 0.0
C994 C 0.00099 0.8666 0.93258 0.0
H995 H 0.03459 0.93805 0.9797 0.0
H996 H 0.03476 0.91013 0.95908 0.0
H997 H 0.96831 0.90603 0.96545 0.0
H998 H 0.96672 0.83416 0.89673 0.0
H999 H 0.97025 0.84887 0.93036 0.0
C1000 C 0.09055 0.0829 0.97843 0.0
C1001 C 0.0715 0.07963 0.99174 0.0
C1002 C 0.09532 0.10125 0.97928 0.0
C1003 C 0.09454 0.14745 0.97322 0.0
H1004 H 0.09576 0.16006 0.03547 0.0
C1005 C 0.13392 0.2083 0.97823 0.0
C1006 C 0.14996 0.19949 0.99426 0.0
C1007 C 0.11805 0.19884 0.98004 0.0
C1008 C 0.0953 0.15686 1.01796 0.0
H1009 H 0.04251 0.09307 1.01645 0.0
H1010 H 0.05118 0.12501 1.01831 0.0
H1011 H 0.08057 0.13246 0.03362 0.0
H1012 H 0.16129 0.1747 0.02554 0.0
H1013 H 0.13392 0.15793 0.02844 0.0
H1014 H 0.11043 0.17071 0.95754 0.0
C1015 C 0.06232 0.11332 1.00719 0.0
C1016 C 0.08648 0.1412 1.0169 0.0
C1017 C 0.05746 0.09499 1.00621 0.0
C1018 C 0.14904 0.18191 1.01302 0.0
C1019 C 0.13326 0.17238 1.01475 0.0
C1020 C 0.10332 0.16307 0.97426 0.0
C1021 C 0.08121 0.11668 0.99355 0.0
C1022 C 0.08683 0.13579 0.99456 0.0
C1023 C 0.11804 0.1803 0.99781 0.0
C1024 C 0.10453 0.16736 0.99669 0.0
H1025 H 0.10194 0.07116 0.96751 0.0
H1026 H 0.11028 0.10318 0.96904 0.0
H1027 H 0.09464 0.14382 0.95574 0.0
H1028 H 0.13402 0.22215 0.96391 0.0
H1029 H 0.10629 0.20552 0.96698 0.0
C1030 C 0.67742 0.55857 0.2872 0.0
C1031 C 0.69703 0.56319 0.28161 0.0
C1032 C 0.6569 0.57574 0.28647 0.0
C1033 C 0.63169 0.63476 0.25999 0.0
H1034 H 0.58373 0.63536 0.31145 0.0
C1035 C 0.56139 0.7148 0.27531 0.0
C1036 C 0.53969 0.71503 0.28111 0.0
C1037 C 0.57909 0.69506 0.2746 0.0
C1038 C 0.59684 0.6353 0.29675 0.0
H1039 H 0.71052 0.58934 0.27104 0.0
H1040 H 0.6751 0.61902 0.26989 0.0
H1041 H 0.61746 0.6029 0.31158 0.0
H1042 H 0.5195 0.69462 0.291 0.0
H1043 H 0.55071 0.65977 0.28987 0.0
H1044 H 0.61143 0.66716 0.24535 0.0
C1045 C 0.67536 0.60227 0.27454 0.0
C1046 C 0.61618 0.61669 0.29682 0.0
C1047 C 0.69572 0.58522 0.27539 0.0
C1048 C 0.53607 0.69493 0.28644 0.0
C1049 C 0.55393 0.67501 0.28588 0.0
C1050 C 0.61247 0.65326 0.25993 0.0
C1051 C 0.65564 0.59783 0.27994 0.0
C1052 C 0.63408 0.61642 0.27874 0.0
C1053 C 0.57568 0.67488 0.27973 0.0
C1054 C 0.59498 0.65404 0.27861 0.0
H1055 H 0.67794 0.54173 0.29207 0.0
H1056 H 0.64205 0.57172 0.29064 0.0
H1057 H 0.64487 0.63496 0.24544 0.0
H1058 H 0.56475 0.72998 0.27116 0.0
H1059 H 0.59557 0.69563 0.27024 0.0
C1060 C 0.34002 0.82605 0.50998 0.0
C1061 C 0.33311 0.81164 0.52904 0.0
C1062 C 0.35892 0.83032 0.5105 0.0
C1063 C 0.38902 0.83278 0.55565 0.0
H1064 H 0.42184 0.85513 0.4984 0.0
C1065 C 0.43213 0.89087 0.56051 0.0
C1066 C 0.42452 0.91084 0.5444 0.0
C1067 C 0.42919 0.87215 0.55732 0.0
C1068 C 0.41302 0.84868 0.51458 0.0
H1069 H 0.34146 0.78897 0.56255 0.0
H1070 H 0.37474 0.79631 0.56343 0.0
H1071 H 0.40182 0.83203 0.49512 0.0
H1072 H 0.40884 0.92652 0.51164 0.0
H1073 H 0.40376 0.8939 0.50608 0.0
H1074 H 0.39928 0.85026 0.57488 0.0
C1075 C 0.36528 0.80464 0.54832 0.0
C1076 C 0.40153 0.83553 0.51272 0.0
C1077 C 0.34623 0.80048 0.54787 0.0
C1078 C 0.415 0.91138 0.5243 0.0
C1079 C 0.41221 0.89264 0.52103 0.0
C1080 C 0.40064 0.84575 0.55754 0.0
C1081 C 0.37141 0.82018 0.53005 0.0
C1082 C 0.38843 0.82847 0.533 0.0
C1083 C 0.41876 0.87301 0.53785 0.0
C1084 C 0.41178 0.85475 0.5368 0.0
H1085 H 0.33013 0.83502 0.49533 0.0
H1086 H 0.36287 0.84268 0.49634 0.0
H1087 H 0.379 0.82779 0.57163 0.0
H1088 H 0.44007 0.88977 0.5758 0.0
H1089 H 0.43453 0.85715 0.57043 0.0
C1090 C 0.03626 0.6957 0.78937 0.0
C1091 C 0.04014 0.7156 0.785 0.0
C1092 C 0.05392 0.67553 0.79113 0.0
C1093 C 0.11231 0.65121 0.80323 0.0
H1094 H 0.11688 0.60534 0.76979 0.0
C1095 C 0.19506 0.5842 0.78232 0.0
C1096 C 0.19604 0.56245 0.78503 0.0
C1097 C 0.17485 0.60132 0.78421 0.0
C1098 C 0.11571 0.61785 0.77953 0.0
H1099 H 0.06549 0.72998 0.77882 0.0
H1100 H 0.09597 0.69521 0.78188 0.0
H1101 H 0.08345 0.63811 0.7698 0.0
H1102 H 0.17652 0.54154 0.79188 0.0
H1103 H 0.14091 0.57168 0.79504 0.0
H1104 H 0.14456 0.63134 0.81264 0.0
C1105 C 0.07942 0.69495 0.78428 0.0
C1106 C 0.09654 0.63663 0.77954 0.0
C1107 C 0.0619 0.71495 0.7824 0.0
C1108 C 0.17626 0.55817 0.78962 0.0
C1109 C 0.15589 0.57543 0.79136 0.0
C1110 C 0.13137 0.63255 0.80321 0.0
C1111 C 0.07574 0.67494 0.7888 0.0
C1112 C 0.09485 0.65379 0.7909 0.0
C1113 C 0.15497 0.59723 0.78883 0.0
C1114 C 0.13358 0.61586 0.79087 0.0
H1115 H 0.01963 0.69572 0.79145 0.0
H1116 H 0.0505 0.66042 0.79468 0.0
H1117 H 0.11139 0.66382 0.81269 0.0
H1118 H 0.20998 0.58807 0.77862 0.0
H1119 H 0.17481 0.6179 0.78172 0.0
C1120 C 0.82365 0.32333 0.58185 0.0
C1121 C 0.8262 0.31268 0.56254 0.0
C1122 C 0.84064 0.32927 0.58558 0.0
C1123 C 0.88523 0.34561 0.54939 0.0
H1124 H 0.89373 0.35333 0.61127 0.0
C1125 C 0.92909 0.4034 0.55519 0.0
C1126 C 0.91687 0.41867 0.57045 0.0
C1127 C 0.92385 0.38481 0.55639 0.0
C1128 C 0.89163 0.35116 0.59387 0.0
H1129 H 0.84915 0.29806 0.53336 0.0
H1130 H 0.87894 0.30845 0.5399 0.0
H1131 H 0.87436 0.329 0.6101 0.0
H1132 H 0.88988 0.42621 0.59919 0.0
H1133 H 0.88072 0.39387 0.60123 0.0
H1134 H 0.90152 0.36853 0.53316 0.0
C1135 C 0.86365 0.31256 0.55187 0.0
C1136 C 0.88057 0.33725 0.5932 0.0
C1137 C 0.84661 0.30667 0.5481 0.0
C1138 C 0.89977 0.41463 0.5874 0.0
C1139 C 0.89459 0.39604 0.58864 0.0
C1140 C 0.89632 0.35946 0.55007 0.0
C1141 C 0.86055 0.32462 0.57011 0.0
C1142 C 0.87647 0.33505 0.57096 0.0
C1143 C 0.90636 0.3811 0.57292 0.0
C1144 C 0.89883 0.36306 0.57232 0.0
H1145 H 0.80805 0.32834 0.59315 0.0
H1146 H 0.83758 0.33881 0.59959 0.0
H1147 H 0.88215 0.34449 0.53196 0.0
H1148 H 0.94266 0.40586 0.54226 0.0
H1149 H 0.93329 0.37347 0.54418 0.0
C1150 C 0.30022 0.96044 0.24503 0.0
C1151 C 0.28005 0.95699 0.24896 0.0
C1152 C 0.32022 0.94269 0.24332 0.0
C1153 C 0.34293 0.8856 0.23087 0.0
H1154 H 0.39133 0.87792 0.26472 0.0
C1155 C 0.41085 0.80164 0.25124 0.0
C1156 C 0.43278 0.80045 0.24868 0.0
C1157 C 0.39365 0.82191 0.24953 0.0
C1158 C 0.37809 0.87997 0.25488 0.0
H1159 H 0.26504 0.93229 0.25438 0.0
H1160 H 0.2995 0.90166 0.25144 0.0
H1161 H 0.35871 0.91145 0.2647 0.0
H1162 H 0.45393 0.81967 0.2424 0.0
H1163 H 0.42369 0.85536 0.23953 0.0
H1164 H 0.36194 0.85412 0.22136 0.0
C1165 C 0.3001 0.91796 0.24932 0.0
C1166 C 0.35939 0.89921 0.25486 0.0
C1167 C 0.28028 0.93556 0.25115 0.0
C1168 C 0.43716 0.82008 0.24449 0.0
C1169 C 0.41985 0.84049 0.24293 0.0
C1170 C 0.36151 0.86647 0.23092 0.0
C1171 C 0.32038 0.92121 0.24528 0.0
C1172 C 0.34134 0.90202 0.24331 0.0
C1173 C 0.39785 0.84164 0.24527 0.0
C1174 C 0.37914 0.86313 0.24337 0.0
H1175 H 0.30054 0.9768 0.24331 0.0
H1176 H 0.33552 0.9458 0.24012 0.0
H1177 H 0.32962 0.88741 0.22127 0.0
H1178 H 0.4069 0.78682 0.25464 0.0
H1179 H 0.37694 0.82208 0.25187 0.0
C1180 C 0.29925 0.46448 0.74252 0.0
C1181 C 0.27939 0.46036 0.74937 0.0
C1182 C 0.31954 0.44705 0.74384 0.0
C1183 C 0.34401 0.3895 0.77461 0.0
H1184 H 0.39091 0.38405 0.72126 0.0
C1185 C 0.41182 0.30668 0.76466 0.0
C1186 C 0.43355 0.30561 0.75625 0.0
C1187 C 0.3947 0.32688 0.76475 0.0
C1188 C 0.37814 0.38549 0.7365 0.0
H1189 H 0.26522 0.43483 0.7627 0.0
H1190 H 0.30031 0.40467 0.76501 0.0
H1191 H 0.35782 0.41718 0.71952 0.0
H1192 H 0.45444 0.32497 0.74133 0.0
H1193 H 0.42429 0.36063 0.74149 0.0
H1194 H 0.36398 0.35787 0.79153 0.0
C1195 C 0.30037 0.42126 0.75885 0.0
C1196 C 0.35916 0.40447 0.73548 0.0
C1197 C 0.28022 0.43856 0.75734 0.0
C1198 C 0.43783 0.32531 0.74795 0.0
C1199 C 0.42056 0.34569 0.74793 0.0
C1200 C 0.36291 0.37066 0.77567 0.0
C1201 C 0.32032 0.42523 0.75226 0.0
C1202 C 0.34161 0.40642 0.75427 0.0
C1203 C 0.39875 0.3467 0.75642 0.0
C1204 C 0.37999 0.36809 0.75636 0.0
H1205 H 0.29908 0.48114 0.73622 0.0
H1206 H 0.33461 0.45067 0.73867 0.0
H1207 H 0.33106 0.39067 0.78966 0.0
H1208 H 0.40795 0.2918 0.77114 0.0
H1209 H 0.37814 0.32692 0.77099 0.0
C1210 C 0.16264 0.78893 0.56874 0.0
C1211 C 0.17174 0.77186 0.55524 0.0
C1212 C 0.14351 0.79059 0.58502 0.0
C1213 C 0.09605 0.7707 0.60236 0.0
H1214 H 0.09418 0.78566 0.6643 0.0
C1215 C 0.0348 0.75541 0.6861 0.0
C1216 C 0.02598 0.77106 0.70144 0.0
C1217 C 0.05091 0.75735 0.66667 0.0
C1218 C 0.09426 0.78177 0.64697 0.0
H1219 H 0.16754 0.74327 0.54819 0.0
H1220 H 0.13448 0.74602 0.57663 0.0
H1221 H 0.12533 0.78564 0.63351 0.0
H1222 H 0.02676 0.80145 0.70781 0.0
H1223 H 0.05473 0.80488 0.67389 0.0
H1224 H 0.06514 0.76638 0.61615 0.0
C1225 C 0.14188 0.75838 0.57441 0.0
C1226 C 0.11215 0.78178 0.62925 0.0
C1227 C 0.16096 0.75676 0.55809 0.0
C1228 C 0.03318 0.78907 0.69641 0.0
C1229 C 0.04936 0.79096 0.67705 0.0
C1230 C 0.07819 0.77061 0.62014 0.0
C1231 C 0.133 0.77518 0.58831 0.0
C1232 C 0.11338 0.77611 0.60674 0.0
C1233 C 0.05868 0.77494 0.66216 0.0
C1234 C 0.07713 0.77602 0.64273 0.0
H1235 H 0.17041 0.80093 0.56696 0.0
H1236 H 0.13697 0.80397 0.59509 0.0
H1237 H 0.09623 0.76659 0.58513 0.0
H1238 H 0.02969 0.7413 0.68942 0.0
H1239 H 0.05785 0.74462 0.65571 0.0
C1240 C 0.24666 0.95383 0.34698 0.0
C1241 C 0.22955 0.96479 0.33233 0.0
C1242 C 0.24578 0.93612 0.3655 0.0
C1243 C 0.24735 0.89014 0.39022 0.0
H1244 H 0.1929 0.88649 0.42777 0.0
C1245 C 0.2388 0.80739 0.43833 0.0
C1246 C 0.22634 0.80601 0.46114 0.0
C1247 C 0.23935 0.82764 0.42507 0.0
C1248 C 0.20831 0.88731 0.41766 0.0
H1249 H 0.1977 0.96607 0.32633 0.0
H1250 H 0.19629 0.93513 0.35832 0.0
H1251 H 0.19312 0.92083 0.40104 0.0
H1252 H 0.20445 0.82482 0.4879 0.0
H1253 H 0.20548 0.86046 0.46471 0.0
H1254 H 0.26257 0.85671 0.40681 0.0
C1255 C 0.21031 0.94035 0.35575 0.0
C1256 C 0.20839 0.90695 0.40209 0.0
C1257 C 0.21116 0.95809 0.33727 0.0
C1258 C 0.21435 0.8254 0.47044 0.0
C1259 C 0.21482 0.84579 0.45707 0.0
C1260 C 0.24726 0.87056 0.40573 0.0
C1261 C 0.2278 0.92883 0.36983 0.0
C1262 C 0.22787 0.90855 0.38789 0.0
C1263 C 0.22736 0.84716 0.43417 0.0
C1264 C 0.22768 0.86872 0.41936 0.0
H1265 H 0.26103 0.95857 0.34382 0.0
H1266 H 0.25938 0.92795 0.37622 0.0
H1267 H 0.26264 0.89058 0.37945 0.0
H1268 H 0.24816 0.79275 0.43063 0.0
H1269 H 0.24887 0.82801 0.40737 0.0
C1270 C -0.00234 0.673 0.64087 0.0
C1271 C 0.98138 0.67518 0.66097 0.0
C1272 C -0.00342 0.6635 0.62202 0.0
C1273 C 0.95871 0.64748 0.59608 0.0
H1274 H 0.01219 0.60257 0.57458 0.0
C1275 C 0.959 0.57681 0.55456 0.0
C1276 C 0.97632 0.56841 0.53691 0.0
C1277 C 0.95875 0.59349 0.56555 0.0
C1278 C -0.00283 0.61535 0.57999 0.0
H1279 H 0.95063 0.67018 0.67637 0.0
H1280 H 0.94893 0.65338 0.64393 0.0
H1281 H 0.01365 0.62531 0.60123 0.0
H1282 H 0.00631 0.57191 0.51604 0.0
H1283 H 0.00555 0.60131 0.53477 0.0
H1284 H 0.94215 0.63705 0.57536 0.0
C1285 C 0.96249 0.65905 0.64253 0.0
C1286 C -0.00199 0.62841 0.59531 0.0
C1287 C 0.96361 0.66845 0.66133 0.0
C1288 C -0.00726 0.57792 0.5296 0.0
C1289 C -0.00754 0.59463 0.54052 0.0
C1290 C 0.95787 0.63441 0.58078 0.0
C1291 C 0.97911 0.65614 0.6228 0.0
C1292 C 0.9787 0.64428 0.60402 0.0
C1293 C 0.97579 0.6022 0.55911 0.0
C1294 C 0.977 0.61785 0.57298 0.0
H1295 H 0.01159 0.67796 0.6401 0.0
H1296 H 0.00955 0.66169 0.60698 0.0
H1297 H 0.9436 0.65986 0.60205 0.0
H1298 H 0.94613 0.56984 0.56072 0.0
H1299 H 0.94575 0.59879 0.57995 0.0
C1300 C 0.31083 0.75482 0.47499 0.0
C1301 C 0.29781 0.74277 0.47363 0.0
C1302 C 0.33027 0.75326 0.4594 0.0
C1303 C 0.37281 0.71982 0.41799 0.0
H1304 H 0.37931 0.77552 0.38663 0.0
C1305 C 0.43745 0.72759 0.33495 0.0
C1306 C 0.44647 0.74414 0.33173 0.0
C1307 C 0.42085 0.72595 0.3539 0.0
C1308 C 0.37808 0.75975 0.39549 0.0
H1309 H 0.29579 0.71877 0.45537 0.0
H1310 H 0.32996 0.71591 0.42822 0.0
H1311 H 0.3479 0.77493 0.41666 0.0
H1312 H 0.44581 0.77129 0.3467 0.0
H1313 H 0.41746 0.768 0.38016 0.0
H1314 H 0.40311 0.70461 0.39692 0.0
C1315 C 0.32497 0.72662 0.44142 0.0
C1316 C 0.35995 0.75944 0.4127 0.0
C1317 C 0.30536 0.72829 0.45697 0.0
C1318 C 0.43913 0.75844 0.34852 0.0
C1319 C 0.42269 0.75665 0.36762 0.0
C1320 C 0.39112 0.72011 0.4009 0.0
C1321 C 0.33737 0.73949 0.44209 0.0
C1322 C 0.35702 0.7395 0.42412 0.0
C1323 C 0.41295 0.74069 0.37029 0.0
C1324 C 0.39398 0.74011 0.38931 0.0
H1325 H 0.3058 0.76592 0.48775 0.0
H1326 H 0.33963 0.76309 0.46072 0.0
H1327 H 0.37114 0.70418 0.42663 0.0
H1328 H 0.44258 0.71638 0.32227 0.0
H1329 H 0.41366 0.71361 0.35508 0.0
C1330 C 0.23069 0.0644 0.18889 0.0
C1331 C 0.24822 0.05283 0.20288 0.0
C1332 C 0.2318 0.08172 0.16995 0.0
C1333 C 0.27049 0.1074 0.12995 0.0
H1334 H 0.21817 0.15969 0.12457 0.0
C1335 C 0.27199 0.19149 0.07393 0.0
C1336 C 0.25372 0.20537 0.06189 0.0
C1337 C 0.27175 0.17177 0.08914 0.0
C1338 C 0.23286 0.14513 0.1255 0.0
H1339 H 0.28096 0.05022 0.20738 0.0
H1340 H 0.28285 0.08045 0.1745 0.0
H1341 H 0.21705 0.12743 0.1545 0.0
H1342 H 0.22112 0.20913 0.05579 0.0
H1343 H 0.22077 0.1746 0.08196 0.0
H1344 H 0.28635 0.12527 0.10109 0.0
C1345 C 0.26828 0.07599 0.178 0.0
C1346 C 0.23221 0.12657 0.14274 0.0
C1347 C 0.26716 0.05866 0.19696 0.0
C1348 C 0.23546 0.19878 0.06479 0.0
C1349 C 0.2352 0.17907 0.08001 0.0
C1350 C 0.27113 0.12599 0.11268 0.0
C1351 C 0.25048 0.088 0.16445 0.0
C1352 C 0.25105 0.10746 0.14533 0.0
C1353 C 0.25321 0.16543 0.0927 0.0
C1354 C 0.25235 0.14519 0.1103 0.0
H1355 H 0.21584 0.06038 0.19284 0.0
H1356 H 0.21792 0.09031 0.1597 0.0
H1357 H 0.28523 0.09292 0.13114 0.0
H1358 H 0.2863 0.19613 0.07209 0.0
H1359 H 0.28584 0.16188 0.09875 0.0
C1360 C 0.80603 0.72985 0.95847 0.0
C1361 C 0.79839 0.74435 0.97511 0.0
C1362 C 0.82567 0.7282 0.94299 0.0
C1363 C 0.86054 0.7611 0.91429 0.0
H1364 H 0.90376 0.7063 0.89852 0.0
C1365 C 0.93959 0.76013 0.84973 0.0
C1366 C 0.94695 0.74571 0.83306 0.0
C1367 C 0.92316 0.75841 0.86887 0.0
C1368 C 0.89176 0.72179 0.90249 0.0
H1369 H 0.80625 0.76755 0.98929 0.0
H1370 H 0.84015 0.76473 0.96237 0.0
H1371 H 0.87187 0.70582 0.92832 0.0
H1372 H 0.94306 0.71785 0.82382 0.0
H1373 H 0.91417 0.7152 0.85668 0.0
H1374 H 0.87981 0.77722 0.8881 0.0
C1375 C 0.83083 0.75488 0.96102 0.0
C1376 C 0.87349 0.72148 0.91964 0.0
C1377 C 0.81137 0.75642 0.97655 0.0
C1378 C 0.93792 0.72915 0.83641 0.0
C1379 C 0.92134 0.72757 0.85539 0.0
C1380 C 0.87863 0.76144 0.89701 0.0
C1381 C 0.83801 0.7411 0.9437 0.0
C1382 C 0.85768 0.74114 0.92576 0.0
C1383 C 0.91345 0.7424 0.8717 0.0
C1384 C 0.89454 0.74181 0.89082 0.0
H1385 H 0.7965 0.72031 0.95681 0.0
H1386 H 0.83071 0.71747 0.92979 0.0
H1387 H 0.84847 0.77658 0.91825 0.0
H1388 H 0.94626 0.773 0.84779 0.0
H1389 H 0.91793 0.76983 0.88132 0.0
C1390 C 0.26418 0.5647 0.6984 0.0
C1391 C 0.24669 0.55683 0.70186 0.0
C1392 C 0.26502 0.58255 0.68014 0.0
C1393 C 0.24421 0.61588 0.6227 0.0
H1394 H 0.25668 0.66117 0.64237 0.0
C1395 C 0.23594 0.70106 0.56089 0.0
C1396 C 0.25043 0.71126 0.5628 0.0
C1397 C 0.23587 0.68142 0.57654 0.0
C1398 C 0.25356 0.64858 0.6363 0.0
H1399 H 0.21676 0.56121 0.68805 0.0
H1400 H 0.21841 0.59227 0.65594 0.0
H1401 H 0.25628 0.6283 0.6714 0.0
H1402 H 0.27648 0.70881 0.58208 0.0
H1403 H 0.27713 0.67429 0.60859 0.0
H1404 H 0.24177 0.63609 0.58744 0.0
C1405 C 0.23145 0.58458 0.66747 0.0
C1406 C 0.25325 0.6297 0.65308 0.0
C1407 C 0.23048 0.5668 0.68594 0.0
C1408 C 0.26515 0.70126 0.58021 0.0
C1409 C 0.26532 0.68155 0.5956 0.0
C1410 C 0.24475 0.63474 0.60576 0.0
C1411 C 0.2485 0.59296 0.66468 0.0
C1412 C 0.24866 0.61305 0.64652 0.0
C1413 C 0.25039 0.67152 0.59439 0.0
C1414 C 0.24956 0.65135 0.61228 0.0
H1415 H 0.27697 0.55749 0.71026 0.0
H1416 H 0.27855 0.58838 0.67828 0.0
H1417 H 0.24072 0.60331 0.61702 0.0
H1418 H 0.22392 0.70879 0.54817 0.0
H1419 H 0.22389 0.67448 0.5752 0.0
C1420 C 0.33476 0.02512 0.374 0.0
C1421 C 0.3274 0.00781 0.37488 0.0
C1422 C 0.34558 0.02513 0.39254 0.0
C1423 C 0.37984 0.98642 0.43833 0.0
H1424 H 0.37872 0.04026 0.45376 0.0
C1425 C 0.45519 0.99417 0.46418 0.0
C1426 C 0.45265 0.00784 0.4805 0.0
C1427 C 0.43684 0.99279 0.45715 0.0
C1428 C 0.37902 0.02499 0.4501 0.0
H1429 H 0.32453 0.9775 0.39658 0.0
H1430 H 0.34329 0.97762 0.42931 0.0
H1431 H 0.35036 0.04132 0.43167 0.0
H1432 H 0.42908 0.03063 0.50256 0.0
H1433 H 0.39672 0.02822 0.4903 0.0
H1434 H 0.40864 0.97013 0.45655 0.0
C1435 C 0.34093 0.99105 0.41403 0.0
C1436 C 0.36289 0.02564 0.43716 0.0
C1437 C 0.33003 0.99107 0.3954 0.0
C1438 C 0.43141 0.01991 0.49 0.0
C1439 C 0.41295 0.01859 0.4829 0.0
C1440 C 0.39589 0.98575 0.45138 0.0
C1441 C 0.34928 0.00785 0.41254 0.0
C1442 C 0.36361 1.00651 0.4303 0.0
C1443 C 0.41547 1.00514 0.4662 0.0
C1444 C 0.39618 1.00516 0.45657 0.0
H1445 H 0.33266 0.03844 0.3586 0.0
H1446 H 0.35197 0.03822 0.39057 0.0
H1447 H 0.38097 0.97136 0.43335 0.0
H1448 H 0.47142 0.98457 0.45669 0.0
H1449 H 0.43945 0.98257 0.44395 0.0
C1450 C 0.84098 0.80099 0.06576 0.0
C1451 C 0.8303 0.81138 0.04494 0.0
C1452 C 0.85913 0.80544 0.069 0.0
C1453 C 0.8971 0.83602 0.03838 0.0
H1454 H 0.88757 0.85265 0.1011 0.0
C1455 C 0.89692 0.91183 0.07715 0.0
C1456 C 0.9163 0.91481 0.06461 0.0
C1457 C 0.89308 0.89264 0.07772 0.0
C1458 C 0.89057 0.84797 0.08354 0.0
H1459 H 0.83079 0.83368 1.0107 0.0
H1460 H 0.86186 0.84186 1.01651 0.0
H1461 H 0.86924 0.82942 0.09485 0.0
H1462 H 0.9474 0.8997 0.04377 0.0
H1463 H 0.94068 0.86599 0.04476 0.0
H1464 H 0.91669 0.85639 0.02645 0.0
C1465 C 0.85678 0.82984 0.03014 0.0
C1466 C 0.88031 0.83435 0.08002 0.0
C1467 C 0.83881 0.82528 0.02684 0.0
C1468 C 0.93212 0.89794 0.05323 0.0
C1469 C 0.92832 0.87864 0.05388 0.0
C1470 C 0.90713 0.84989 0.04181 0.0
C1471 C 0.86675 0.82052 0.05158 0.0
C1472 C 0.88249 0.82924 0.05702 0.0
C1473 C 0.90861 0.87592 0.06587 0.0
C1474 C 0.90296 0.85696 0.06407 0.0
H1475 H 0.83495 0.78989 0.0798 0.0
H1476 H 0.86665 0.79773 0.08555 0.0
H1477 H 0.89957 0.83188 0.02061 0.0
H1478 H 0.88436 0.92466 0.08586 0.0
H1479 H 0.87747 0.89136 0.08661 0.0
C1480 C 0.62033 0.21023 0.50724 0.0
C1481 C 0.63995 0.19809 0.51755 0.0
C1482 C 0.6035 0.20168 0.51113 0.0
C1483 C 0.58584 0.17005 0.50071 0.0
H1484 H 0.57582 0.12619 0.55493 0.0
C1485 C 0.57785 0.09211 0.48773 0.0
C1486 C 0.56194 0.08423 0.50267 0.0
C1487 C 0.58143 0.11001 0.49216 0.0
C1488 C 0.57808 0.13868 0.53978 0.0
H1489 H 0.65673 0.16856 0.54163 0.0
H1490 H 0.62772 0.15323 0.54786 0.0
H1491 H 0.59103 0.15244 0.56092 0.0
H1492 H 0.53736 0.08909 0.53414 0.0
H1493 H 0.54402 0.12016 0.54214 0.0
H1494 H 0.57369 0.15582 0.47941 0.0
C1495 C 0.625 0.16951 0.53716 0.0
C1496 C 0.58691 0.15359 0.54316 0.0
C1497 C 0.64172 0.1782 0.53349 0.0
C1498 C 0.54985 0.0946 0.52235 0.0
C1499 C 0.55357 0.11245 0.52691 0.0
C1500 C 0.57704 0.1552 0.49737 0.0
C1501 C 0.60617 0.18069 0.52507 0.0
C1502 C 0.59178 0.1688 0.5234 0.0
C1503 C 0.5693 0.12038 0.51173 0.0
C1504 C 0.57404 0.13877 0.5166 0.0
H1505 H 0.61848 0.22584 0.49522 0.0
H1506 H 0.58897 0.2109 0.50202 0.0
H1507 H 0.5895 0.18138 0.48502 0.0
H1508 H 0.58786 0.08424 0.4728 0.0
H1509 H 0.59407 0.11546 0.48052 0.0
C1510 C 0.78334 0.43813 0.25266 0.0
C1511 C 0.78293 0.45977 0.24922 0.0
C1512 C 0.80322 0.42057 0.25119 0.0
C1513 C 0.86236 0.40215 0.25606 0.0
H1514 H 0.86473 0.35656 0.22346 0.0
C1515 C 0.93954 0.32198 0.2476 0.0
C1516 C 0.93485 0.30253 0.2516 0.0
C1517 C 0.92245 0.34255 0.24581 0.0
C1518 C 0.86435 0.36903 0.23279 0.0
H1519 H 0.80323 0.47997 0.24154 0.0
H1520 H 0.83838 0.44897 0.23922 0.0
H1521 H 0.83258 0.39002 0.2228 0.0
H1522 H 0.90863 0.28939 0.25725 0.0
H1523 H 0.87908 0.3249 0.2542 0.0
H1524 H 0.89411 0.38076 0.26642 0.0
C1525 C 0.82312 0.44571 0.24312 0.0
C1526 C 0.84589 0.38828 0.23237 0.0
C1527 C 0.80303 0.46345 0.24442 0.0
C1528 C 0.91282 0.30406 0.25395 0.0
C1529 C 0.89586 0.32448 0.25206 0.0
C1530 C 0.88093 0.38276 0.25651 0.0
C1531 C 0.8234 0.42405 0.24627 0.0
C1532 C 0.84436 0.40488 0.24449 0.0
C1533 C 0.90038 0.34406 0.24778 0.0
C1534 C 0.8819 0.36571 0.24537 0.0
H1535 H 0.76818 0.43466 0.25658 0.0
H1536 H 0.80276 0.40414 0.25418 0.0
H1537 H 0.8617 0.41457 0.26564 0.0
H1538 H 0.95638 0.32129 0.24578 0.0
H1539 H 0.92654 0.35728 0.24245 0.0
C1540 C 0.05788 0.60691 0.49188 0.0
C1541 C 0.05453 0.5883 0.50698 0.0
C1542 C 0.06123 0.62242 0.50171 0.0
C1543 C 0.0888 0.62358 0.54758 0.0
H1544 H 0.06494 0.68682 0.52799 0.0
C1545 C 0.13981 0.67491 0.55022 0.0
C1546 C 0.14076 0.69016 0.52886 0.0
C1547 C 0.12304 0.66605 0.5558 0.0
C1548 C 0.07181 0.66919 0.53366 0.0
H1549 H 0.04964 0.57257 0.54428 0.0
H1550 H 0.0571 0.599 0.56138 0.0
H1551 H 0.04577 0.66417 0.52144 0.0
H1552 H 0.12462 0.70879 0.49709 0.0
H1553 H 0.09614 0.69282 0.50607 0.0
H1554 H 0.11597 0.62802 0.55743 0.0
C1555 C 0.05709 0.60148 0.54199 0.0
C1556 C 0.0607 0.65631 0.5301 0.0
C1557 C 0.0533 0.5862 0.53219 0.0
C1558 C 0.12414 0.6972 0.5138 0.0
C1559 C 0.10765 0.68811 0.51912 0.0
C1560 C 0.10017 0.63638 0.55064 0.0
C1561 C 0.06152 0.61947 0.52675 0.0
C1562 C 0.06963 0.63336 0.53611 0.0
C1563 C 0.10721 0.67193 0.53984 0.0
C1564 C 0.09237 0.65927 0.5426 0.0
H1565 H 0.0589 0.60899 0.47241 0.0
H1566 H 0.0649 0.63605 0.48959 0.0
H1567 H 0.09605 0.60586 0.55222 0.0
H1568 H 0.15233 0.66947 0.56227 0.0
H1569 H 0.12298 0.65399 0.57217 0.0
C1570 C 0.67672 0.05766 0.78672 0.0
C1571 C 0.69637 0.06219 0.78053 0.0
C1572 C 0.65625 0.07486 0.78565 0.0
C1573 C 0.631 0.13279 0.75654 0.0
H1574 H 0.58455 0.1368 0.81029 0.0
C1575 C 0.56307 0.21489 0.76895 0.0
C1576 C 0.54139 0.21578 0.77738 0.0
C1577 C 0.58023 0.19478 0.76833 0.0
C1578 C 0.59719 0.13577 0.79493 0.0
H1579 H 0.71002 0.08819 0.76836 0.0
H1580 H 0.67464 0.11794 0.76636 0.0
H1581 H 0.61781 0.10385 0.81104 0.0
H1582 H 0.52069 0.19619 0.79202 0.0
H1583 H 0.5509 0.16069 0.79083 0.0
H1584 H 0.61075 0.16464 0.74049 0.0
C1585 C 0.67487 0.10121 0.77192 0.0
C1586 C 0.61626 0.11688 0.79538 0.0
C1587 C 0.69518 0.08414 0.77323 0.0
C1588 C 0.53723 0.19599 0.78527 0.0
C1589 C 0.55455 0.1757 0.78473 0.0
C1590 C 0.612 0.15153 0.75604 0.0
C1591 C 0.65512 0.09686 0.77804 0.0
C1592 C 0.63366 0.11546 0.77647 0.0
C1593 C 0.57629 0.17487 0.77613 0.0
C1594 C 0.59509 0.15359 0.77552 0.0
H1595 H 0.67717 0.04086 0.7924 0.0
H1596 H 0.64133 0.07096 0.7904 0.0
H1597 H 0.64386 0.13203 0.74142 0.0
H1598 H 0.56685 0.22983 0.76281 0.0
H1599 H 0.59675 0.19488 0.76206 0.0
C1600 C 0.76587 0.56661 0.20128 0.0
C1601 C 0.75013 0.55677 0.20291 0.0
C1602 C 0.76655 0.58453 0.183 0.0
C1603 C 0.75107 0.61416 0.12261 0.0
H1604 H 0.75202 0.66431 0.14447 0.0
C1605 C 0.74226 0.69855 0.05814 0.0
C1606 C 0.75228 0.71182 0.06332 0.0
C1607 C 0.74248 0.67881 0.07385 0.0
C1608 C 0.75222 0.6504 0.13778 0.0
H1609 H 0.72322 0.55776 0.18584 0.0
H1610 H 0.72478 0.58881 0.15352 0.0
H1611 H 0.75201 0.6314 0.17358 0.0
H1612 H 0.77169 0.71415 0.08816 0.0
H1613 H 0.77329 0.67949 0.11463 0.0
H1614 H 0.75185 0.63294 0.08667 0.0
C1615 C 0.7365 0.58265 0.16659 0.0
C1616 C 0.75205 0.63149 0.15464 0.0
C1617 C 0.73559 0.56488 0.18516 0.0
C1618 C 0.76356 0.7044 0.08379 0.0
C1619 C 0.76421 0.68457 0.0992 0.0
C1620 C 0.7516 0.63302 0.10559 0.0
C1621 C 0.75171 0.59297 0.1656 0.0
C1622 C 0.75157 0.61309 0.14731 0.0
C1623 C 0.75315 0.67169 0.09495 0.0
C1624 C 0.75232 0.65144 0.11289 0.0
H1625 H 0.77731 0.56094 0.2146 0.0
H1626 H 0.77861 0.59195 0.18262 0.0
H1627 H 0.75077 0.60022 0.11637 0.0
H1628 H 0.7336 0.70383 0.04244 0.0
H1629 H 0.73367 0.66957 0.06981 0.0
C1630 C 0.95522 0.49285 0.46694 0.0
C1631 C 0.95198 0.50963 0.47956 0.0
C1632 C 0.93732 0.48935 0.4616 0.0
C1633 C 0.88137 0.51961 0.44816 0.0
H1634 H 0.88158 0.4618 0.44699 0.0
C1635 C 0.82096 0.50987 0.39579 0.0
C1636 C 0.83084 0.49429 0.38043 0.0
C1637 C 0.83202 0.51004 0.41416 0.0
C1638 C 0.88125 0.47807 0.44718 0.0
H1639 H 0.92763 0.53546 0.49726 0.0
H1640 H 0.89598 0.52971 0.48733 0.0
H1641 H 0.90812 0.46528 0.46849 0.0
H1642 H 0.85933 0.46566 0.37354 0.0
H1643 H 0.87881 0.46628 0.40497 0.0
H1644 H 0.8554 0.53241 0.42579 0.0
C1645 C 0.91245 0.51919 0.48173 0.0
C1646 C 0.8964 0.48005 0.45957 0.0
C1647 C 0.93048 0.52247 0.48744 0.0
C1648 C 0.85141 0.4781 0.38479 0.0
C1649 C 0.86247 0.4783 0.40308 0.0
C1650 C 0.8663 0.51763 0.43566 0.0
C1651 C 0.91573 0.50278 0.46844 0.0
C1652 C 0.89708 0.50081 0.45953 0.0
C1653 C 0.85319 0.49464 0.41756 0.0
C1654 C 0.86653 0.49679 0.43434 0.0
H1655 H 0.97166 0.48254 0.46089 0.0
H1656 H 0.94043 0.47674 0.45113 0.0
H1657 H 0.88162 0.53582 0.44759 0.0
H1658 H 0.80517 0.52263 0.39289 0.0
H1659 H 0.82424 0.52265 0.42521 0.0
C1660 C 0.12997 0.53719 0.64756 0.0
C1661 C 0.14929 0.52036 0.65488 0.0
C1662 C 0.11956 0.53542 0.6296 0.0
C1663 C 0.11363 0.49302 0.60367 0.0
H1664 H 0.0776 0.54389 0.56293 0.0
C1665 C 0.05009 0.48803 0.55079 0.0
C1666 C 0.02894 0.50281 0.5566 0.0
C1667 C 0.06853 0.49035 0.55678 0.0
C1668 C 0.0877 0.52951 0.57402 0.0
H1669 H 0.17349 0.48899 0.64813 0.0
H1670 H 0.15557 0.48614 0.61632 0.0
H1671 H 0.10409 0.54774 0.58396 0.0
H1672 H 0.01039 0.53229 0.57169 0.0
H1673 H 0.04245 0.53671 0.58148 0.0
H1674 H 0.09671 0.47499 0.59411 0.0
C1675 C 0.14826 0.50054 0.6248 0.0
C1676 C 0.10283 0.5317 0.58619 0.0
C1677 C 0.15866 0.5023 0.64284 0.0
C1678 C 0.02654 0.52055 0.56726 0.0
C1679 C 0.04491 0.52318 0.57266 0.0
C1680 C 0.09861 0.49081 0.59127 0.0
C1681 C 0.12827 0.51682 0.6184 0.0
C1682 C 0.11538 0.51367 0.60192 0.0
C1683 C 0.06605 0.50783 0.56802 0.0
C1684 C 0.08492 0.50922 0.57703 0.0
H1685 H 0.1225 0.55147 0.65623 0.0
H1686 H 0.10409 0.5482 0.62538 0.0
H1687 H 0.12286 0.4788 0.61577 0.0
H1688 H 0.05228 0.4743 0.54244 0.0
H1689 H 0.08466 0.47836 0.5529 0.0
C1690 C 0.53451 0.75452 0.18504 0.0
C1691 C 0.5254 0.77018 0.20037 0.0
C1692 C 0.55083 0.75649 0.16587 0.0
C1693 C 0.59424 0.78082 0.14722 0.0
H1694 H 0.59682 0.76638 0.0848 0.0
C1695 C 0.66304 0.78894 0.06991 0.0
C1696 C 0.67218 0.77226 0.05588 0.0
C1697 C 0.64389 0.79029 0.08609 0.0
C1698 C 0.59649 0.77027 0.1022 0.0
H1699 H 0.52594 0.80059 0.207 0.0
H1700 H 0.5543 0.80403 0.17355 0.0
H1701 H 0.56553 0.76587 0.11542 0.0
H1702 H 0.66796 0.74413 0.0477 0.0
H1703 H 0.63499 0.74621 0.0761 0.0
H1704 H 0.62535 0.78473 0.13436 0.0
C1705 C 0.54896 0.7901 0.17651 0.0
C1706 C 0.5785 0.77001 0.11975 0.0
C1707 C 0.53255 0.78821 0.19559 0.0
C1708 C 0.66142 0.75723 0.05812 0.0
C1709 C 0.64235 0.75851 0.07437 0.0
C1710 C 0.61226 0.78096 0.12975 0.0
C1711 C 0.55855 0.77409 0.16164 0.0
C1712 C 0.57719 0.7752 0.14252 0.0
C1713 C 0.63342 0.77493 0.08877 0.0
C1714 C 0.61372 0.77559 0.10702 0.0
H1715 H 0.52945 0.7404 0.18818 0.0
H1716 H 0.55796 0.74377 0.1549 0.0
H1717 H 0.59396 0.78454 0.1647 0.0
H1718 H 0.67076 0.80088 0.0686 0.0
H1719 H 0.63731 0.8034 0.09653 0.0
C1720 C 0.62544 0.53545 0.15722 0.0
C1721 C 0.64529 0.51769 0.16043 0.0
C1722 C 0.61088 0.53536 0.14267 0.0
C1723 C 0.60442 0.50797 0.09671 0.0
H1724 H 0.54433 0.5232 0.12794 0.0
C1725 C 0.53651 0.48757 0.0666 0.0
C1726 C 0.5153 0.50343 0.06769 0.0
C1727 C 0.55331 0.49014 0.07582 0.0
C1728 C 0.56095 0.51919 0.11875 0.0
H1729 H 0.66608 0.48669 0.14939 0.0
H1730 H 0.64043 0.48635 0.12431 0.0
H1731 H 0.57212 0.52713 0.14664 0.0
H1732 H 0.49507 0.53477 0.07823 0.0
H1733 H 0.5244 0.53973 0.09324 0.0
H1734 H 0.59305 0.49981 0.06888 0.0
C1735 C 0.63618 0.50037 0.13302 0.0
C1736 C 0.5769 0.52149 0.12947 0.0
C1737 C 0.65078 0.50046 0.14758 0.0
C1738 C 0.51125 0.52214 0.07744 0.0
C1739 C 0.52804 0.52494 0.08613 0.0
C1740 C 0.58836 0.50571 0.0859 0.0
C1741 C 0.61576 0.5175 0.13101 0.0
C1742 C 0.59883 0.5159 0.11864 0.0
C1743 C 0.54919 0.50883 0.08582 0.0
C1744 C 0.56644 0.51128 0.09685 0.0
H1745 H 0.62059 0.54892 0.16694 0.0
H1746 H 0.59543 0.54899 0.14115 0.0
H1747 H 0.62116 0.50365 0.08786 0.0
H1748 H 0.53995 0.473 0.05915 0.0
H1749 H 0.56939 0.47736 0.07546 0.0
C1750 C 0.40666 0.42742 1.01313 0.0
C1751 C 0.41724 0.42755 0.032 0.0
C1752 C 0.4048 0.40801 1.01053 0.0
C1753 C 0.40006 0.35831 0.04956 0.0
H1754 H 0.39166 0.34668 0.98971 0.0
C1755 C 0.34908 0.30572 0.05196 0.0
C1756 C 0.33194 0.31663 0.03739 0.0
C1757 C 0.36722 0.31241 0.04819 0.0
C1758 C 0.39415 0.34957 1.00656 0.0
H1759 H 0.43613 0.40725 0.06137 0.0
H1760 H 0.43287 0.37326 0.05685 0.0
H1761 H 0.41106 0.37165 0.98833 0.0
H1762 H 0.3208 0.3424 1.00678 0.0
H1763 H 0.35217 0.35428 1.00043 0.0
H1764 H 0.38209 0.33742 0.0678 0.0
C1765 C 0.42556 0.38823 0.04444 0.0
C1766 C 0.40522 0.36386 1.00577 0.0
C1767 C 0.42729 0.40768 0.04714 0.0
C1768 C 0.33383 0.33357 1.0182 0.0
C1769 C 0.35191 0.34028 1.01446 0.0
C1770 C 0.38905 0.34405 0.05034 0.0
C1771 C 0.4136 0.38834 0.02667 0.0
C1772 C 0.40731 0.36919 0.02726 0.0
C1773 C 0.3685 0.33018 0.02983 0.0
C1774 C 0.38503 0.34039 0.02884 0.0
H1775 H 0.39887 0.44252 1.00113 0.0
H1776 H 0.39525 0.40876 0.99682 0.0
H1777 H 0.40119 0.36218 0.06646 0.0
H1778 H 0.34826 0.29228 0.06657 0.0
H1779 H 0.37989 0.30416 0.06014 0.0
C1780 C 0.06311 0.21312 0.28264 0.0
C1781 C 0.04136 0.21385 0.28465 0.0
C1782 C 0.0806 0.1931 0.28456 0.0
C1783 C 0.09801 0.13489 0.27909 0.0
H1784 H 0.14519 0.12924 0.31373 0.0
C1785 C 0.17737 0.05617 0.29032 0.0
C1786 C 0.19719 0.06029 0.28646 0.0
C1787 C 0.15703 0.0735 0.29172 0.0
C1788 C 0.13225 0.13055 0.30386 0.0
H1789 H 0.02089 0.19407 0.28996 0.0
H1790 H 0.05173 0.15872 0.29328 0.0
H1791 H 0.11205 0.16174 0.31337 0.0
H1792 H 0.21123 0.08574 0.28097 0.0
H1793 H 0.17608 0.11572 0.2835 0.0
H1794 H 0.11857 0.10365 0.26935 0.0
C1795 C 0.05515 0.17379 0.29019 0.0
C1796 C 0.1132 0.14923 0.30365 0.0
C1797 C 0.0375 0.19399 0.28838 0.0
C1798 C 0.19626 0.08198 0.28412 0.0
C1799 C 0.17606 0.09919 0.28569 0.0
C1800 C 0.11717 0.11608 0.27932 0.0
C1801 C 0.07693 0.17312 0.28852 0.0
C1802 C 0.09602 0.15195 0.29078 0.0
C1803 C 0.15614 0.09524 0.28957 0.0
C1804 C 0.13476 0.11394 0.29124 0.0
H1805 H 0.0667 0.22811 0.27955 0.0
H1806 H 0.09713 0.19332 0.28265 0.0
H1807 H 0.08515 0.13646 0.26893 0.0
H1808 H 0.17759 0.03959 0.29224 0.0
H1809 H 0.14202 0.06985 0.29483 0.0
C1810 C 0.24138 0.32315 0.97054 0.0
C1811 C 0.22275 0.3169 0.97542 0.0
C1812 C 0.24131 0.34262 0.95453 0.0
C1813 C 0.21298 0.38128 0.9032 0.0
H1814 H 0.24239 0.41847 0.91273 0.0
C1815 C 0.20893 0.46224 0.83681 0.0
C1816 C 0.22837 0.46716 0.83032 0.0
C1817 C 0.20746 0.44515 0.85592 0.0
C1818 C 0.23426 0.40817 0.90966 0.0
H1819 H 0.18915 0.32657 0.96807 0.0
H1820 H 0.18888 0.36059 0.94044 0.0
H1821 H 0.24129 0.38656 0.94361 0.0
H1822 H 0.2614 0.45811 0.83935 0.0
H1823 H 0.25891 0.42825 0.87241 0.0
H1824 H 0.2062 0.40258 0.86918 0.0
C1825 C 0.20372 0.35032 0.94859 0.0
C1826 C 0.23363 0.38984 0.92741 0.0
C1827 C 0.20381 0.33088 0.96459 0.0
C1828 C 0.24611 0.45489 0.84386 0.0
C1829 C 0.24466 0.43776 0.86295 0.0
C1830 C 0.21365 0.39954 0.88548 0.0
C1831 C 0.2226 0.35628 0.94298 0.0
C1832 C 0.22298 0.37613 0.92442 0.0
C1833 C 0.22541 0.43244 0.86905 0.0
C1834 C 0.22431 0.41326 0.88839 0.0
H1835 H 0.25629 0.31262 0.97843 0.0
H1836 H 0.25621 0.34654 0.95053 0.0
H1837 H 0.20502 0.37089 0.89998 0.0
H1838 H 0.19489 0.47135 0.82688 0.0
H1839 H 0.19222 0.44185 0.86033 0.0
C1840 C 0.3083 0.23433 0.96009 0.0
C1841 C 0.30171 0.24809 0.97741 0.0
C1842 C 0.32769 0.23257 0.94417 0.0
C1843 C 0.3645 0.26367 0.91624 0.0
H1844 H 0.40467 0.20847 0.89828 0.0
C1845 C 0.44354 0.25979 0.85054 0.0
C1846 C 0.44899 0.24653 0.8329 0.0
C1847 C 0.42735 0.25837 0.87005 0.0
C1848 C 0.39353 0.22406 0.90291 0.0
H1849 H 0.31081 0.27024 0.99199 0.0
H1850 H 0.34442 0.26712 0.96434 0.0
H1851 H 0.37286 0.20891 0.92848 0.0
H1852 H 0.44205 0.22089 0.82243 0.0
H1853 H 0.41366 0.21871 0.85603 0.0
H1854 H 0.38465 0.27898 0.89034 0.0
C1855 C 0.33452 0.25788 0.96287 0.0
C1856 C 0.3753 0.22429 0.92026 0.0
C1857 C 0.31526 0.25955 0.97884 0.0
C1858 C 0.43839 0.2313 0.83571 0.0
C1859 C 0.4221 0.22998 0.85511 0.0
C1860 C 0.3826 0.26347 0.8988 0.0
C1861 C 0.34082 0.24462 0.94511 0.0
C1862 C 0.36054 0.24411 0.92709 0.0
C1863 C 0.41606 0.24377 0.87233 0.0
C1864 C 0.39735 0.24369 0.8918 0.0
H1865 H 0.29827 0.22528 0.95848 0.0
H1866 H 0.33201 0.22231 0.9306 0.0
H1867 H 0.35326 0.27928 0.92077 0.0
H1868 H 0.45142 0.27165 0.84903 0.0
H1869 H 0.42349 0.26894 0.88319 0.0
C1870 C 0.45991 0.49628 0.95917 0.0
C1871 C 0.45678 0.51383 0.97053 0.0
C1872 C 0.44222 0.49442 0.95121 0.0
C1873 C 0.38846 0.52674 0.93091 0.0
H1874 H 0.38279 0.4697 0.93979 0.0
C1875 C 0.32408 0.51585 0.88573 0.0
C1876 C 0.33225 0.498 0.87339 0.0
C1877 C 0.33602 0.51725 0.9025 0.0
C1878 C 0.38416 0.48574 0.9371 0.0
H1879 H 0.43299 0.54342 0.98216 0.0
H1880 H 0.40187 0.54048 0.96765 0.0
H1881 H 0.41036 0.47367 0.95918 0.0
H1882 H 0.35852 0.46681 0.87038 0.0
H1883 H 0.37959 0.46949 0.89902 0.0
H1884 H 0.36302 0.53867 0.90794 0.0
C1885 C 0.41801 0.52807 0.96513 0.0
C1886 C 0.39993 0.48801 0.94825 0.0
C1887 C 0.43572 0.52974 0.97345 0.0
C1888 C 0.35194 0.48095 0.87929 0.0
C1889 C 0.3639 0.48237 0.89596 0.0
C1890 C 0.37279 0.52445 0.91961 0.0
C1891 C 0.42108 0.51026 0.9541 0.0
C1892 C 0.40259 0.50843 0.94479 0.0
C1893 C 0.35641 0.50084 0.90726 0.0
C1894 C 0.37081 0.50381 0.92209 0.0
H1895 H 0.476 0.48375 0.9568 0.0
H1896 H 0.44518 0.48071 0.94246 0.0
H1897 H 0.39025 0.54264 0.92775 0.0
H1898 H 0.30902 0.52932 0.88156 0.0
H1899 H 0.32959 0.53152 0.91118 0.0
C1900 C 0.64221 0.67617 0.03567 0.0
C1901 C 0.63918 0.6968 0.02091 0.0
C1902 C 0.62541 0.66747 0.0409 0.0
C1903 C 0.58771 0.65097 0.05112 0.0
H1904 H 0.56403 0.65927 0.99145 0.0
C1905 C 0.55357 0.58911 0.03279 0.0
C1906 C 0.56206 0.58288 1.01003 0.0
C1907 C 0.55579 0.60751 0.03801 0.0
C1908 C 0.57037 0.65686 1.00834 0.0
H1909 H 0.6157 0.72561 1.00217 0.0
H1910 H 0.58594 0.71077 1.01194 0.0
H1911 H 0.58096 0.68426 0.99583 0.0
H1912 H 0.57989 0.59069 0.97517 0.0
H1913 H 0.58413 0.62234 0.98432 0.0
H1914 H 0.57894 0.62218 0.06253 0.0
C1915 C 0.60151 0.70092 1.01881 0.0
C1916 C 0.57982 0.67142 1.01105 0.0
C1917 C 0.61848 0.70946 1.01324 0.0
C1918 C 0.57281 0.59533 0.99268 0.0
C1919 C 0.5751 0.61357 0.9979 0.0
C1920 C 0.57849 0.63619 0.04826 0.0
C1921 C 0.60512 0.67939 0.03169 0.0
C1922 C 0.5897 0.66796 0.03195 0.0
C1923 C 0.56662 0.6199 0.0206 0.0
C1924 C 0.57087 0.63833 0.02627 0.0
H1925 H 0.65808 0.6661 0.04174 0.0
H1926 H 0.629 0.65075 0.0506 0.0
H1927 H 0.5946 0.64819 0.06774 0.0
H1928 H 0.54502 0.5799 0.04644 0.0
H1929 H 0.54906 0.61202 0.05563 0.0
C1930 C 0.93849 0.82128 0.74648 0.0
C1931 C 0.93384 0.80172 0.75204 0.0
C1932 C 0.92137 0.8417 0.74684 0.0
C1933 C 0.86311 0.86603 0.77243 0.0
H1934 H 0.86086 0.91597 0.72082 0.0
C1935 C 0.78228 0.9372 0.75582 0.0
C1936 C 0.78201 0.95891 0.74992 0.0
C1937 C 0.80211 0.91948 0.7569 0.0
C1938 C 0.8614 0.9023 0.73557 0.0
H1939 H 0.90768 0.78823 0.76213 0.0
H1940 H 0.87803 0.82353 0.76266 0.0
H1941 H 0.89326 0.88222 0.72114 0.0
H1942 H 0.80241 0.97908 0.74024 0.0
H1943 H 0.83745 0.94781 0.74204 0.0
H1944 H 0.83125 0.88577 0.78669 0.0
C1945 C 0.89481 0.82326 0.7583 0.0
C1946 C 0.87997 0.88294 0.73575 0.0
C1947 C 0.91182 0.80299 0.75782 0.0
C1948 C 0.80214 0.96251 0.74489 0.0
C1949 C 0.82216 0.94462 0.74582 0.0
C1950 C 0.84466 0.88528 0.77225 0.0
C1951 C 0.8993 0.84291 0.75297 0.0
C1952 C 0.8808 0.86437 0.75387 0.0
C1953 C 0.82234 0.92286 0.75206 0.0
C1954 C 0.84327 0.90349 0.75351 0.0
H1955 H 0.95533 0.82079 0.74193 0.0
H1956 H 0.92543 0.85649 0.74272 0.0
H1957 H 0.86339 0.85229 0.78702 0.0
H1958 H 0.76707 0.93384 0.75975 0.0
H1959 H 0.80155 0.90301 0.7613 0.0
C1960 C 0.49825 0.17112 0.64023 0.0
C1961 C 0.48803 0.16827 0.66412 0.0
C1962 C 0.49593 0.16035 0.62323 0.0
C1963 C 0.46003 0.13413 0.61088 0.0
H1964 H 0.51199 0.10033 0.57345 0.0
C1965 C 0.46158 0.0636 0.56844 0.0
C1966 C 0.4755 0.05907 0.54697 0.0
C1967 C 0.46146 0.08008 0.57966 0.0
C1968 C 0.49721 0.11003 0.58335 0.0
H1969 H 0.46685 0.15248 0.68871 0.0
H1970 H 0.46288 0.13377 0.65924 0.0
H1971 H 0.51529 0.12344 0.59855 0.0
H1972 H 0.49919 0.0692 0.51959 0.0
H1973 H 0.49818 0.09857 0.5386 0.0
H1974 H 0.44194 0.12062 0.59596 0.0
C1975 C 0.47269 0.14425 0.65357 0.0
C1976 C 0.49915 0.12324 0.5978 0.0
C1977 C 0.4752 0.15476 0.67054 0.0
C1978 C 0.4884 0.07215 0.53626 0.0
C1979 C 0.48803 0.08883 0.54729 0.0
C1980 C 0.45806 0.12107 0.59633 0.0
C1981 C 0.48303 0.14687 0.62974 0.0
C1982 C 0.48066 0.135 0.61217 0.0
C1983 C 0.47505 0.09259 0.56949 0.0
C1984 C 0.47669 0.10844 0.5828 0.0
H1985 H 0.50822 0.18144 0.6348 0.0
H1986 H 0.50405 0.16271 0.60496 0.0
H1987 H 0.44542 0.14333 0.62145 0.0
H1988 H 0.45162 0.05368 0.57729 0.0
H1989 H 0.45142 0.08231 0.59688 0.0
C1990 C 0.49995 0.32806 0.89966 0.0
C1991 C 0.4859 0.33953 0.88166 0.0
C1992 C 0.50036 0.33825 0.91817 0.0
C1993 C 0.47009 0.38708 0.94789 0.0
H1994 H 0.5281 0.37901 0.96135 0.0
C1995 C 0.51361 0.4375 0.98441 0.0
C1996 C 0.49737 0.44559 1.00307 0.0
C1997 C 0.51273 0.42124 0.97356 0.0
C1998 C 0.51177 0.38148 0.9578 0.0
H1999 H 0.46089 0.3706 0.86943 0.0
H2000 H 0.46163 0.38833 0.90157 0.0
H2001 H 0.52436 0.35745 0.93477 0.0
H2002 H 0.46847 0.44176 0.0263 0.0
H2003 H 0.46708 0.4132 1.00763 0.0
H2004 H 0.45757 0.41189 0.96995 0.0
C2005 C 0.47212 0.37134 0.90163 0.0
C2006 C 0.50959 0.3689 0.94278 0.0
C2007 C 0.4717 0.36116 0.88315 0.0
C2008 C 0.48103 0.4361 1.01168 0.0
C2009 C 0.48018 0.4198 1.0009 0.0
C2010 C 0.47227 0.3997 0.96288 0.0
C2011 C 0.48675 0.36016 0.91913 0.0
C2012 C 0.48876 0.37185 0.93722 0.0
C2013 C 0.49566 0.41259 0.98123 0.0
C2014 C 0.49319 0.39739 0.96761 0.0
H2015 H 0.51085 0.31127 0.89927 0.0
H2016 H 0.51154 0.32902 0.93158 0.0
H2017 H 0.45377 0.38956 0.94429 0.0
H2018 H 0.52629 0.44459 0.9772 0.0
H2019 H 0.5248 0.4163 0.9583 0.0
C2020 C 0.5113 0.84792 0.36911 0.0
C2021 C 0.49508 0.8385 0.37186 0.0
C2022 C 0.51383 0.85638 0.38795 0.0
C2023 C 0.48273 0.87966 0.44159 0.0
H2024 H 0.54005 0.87627 0.45243 0.0
C2025 C 0.49131 0.92737 0.50839 0.0
C2026 C 0.50537 0.9395 0.49926 0.0
C2027 C 0.49167 0.91116 0.4966 0.0
C2028 C 0.52392 0.87742 0.44959 0.0
H2029 H 0.46922 0.82996 0.39687 0.0
H2030 H 0.47373 0.84467 0.43002 0.0
H2031 H 0.53749 0.85476 0.42492 0.0
H2032 H 0.53172 0.94321 0.47133 0.0
H2033 H 0.5324 0.91498 0.45079 0.0
H2034 H 0.46912 0.90279 0.46569 0.0
C2035 C 0.48436 0.84566 0.41312 0.0
C2036 C 0.52245 0.86509 0.43383 0.0
C2037 C 0.48189 0.83708 0.39423 0.0
C2038 C 0.52072 0.93414 0.47892 0.0
C2039 C 0.52113 0.91789 0.46715 0.0
C2040 C 0.4842 0.892 0.45735 0.0
C2041 C 0.50021 0.85564 0.41008 0.0
C2042 C 0.50183 0.86646 0.42919 0.0
C2043 C 0.50621 0.90661 0.47547 0.0
C2044 C 0.50481 0.89142 0.46111 0.0
H2045 H 0.52193 0.84899 0.35221 0.0
H2046 H 0.52603 0.86415 0.38485 0.0
H2047 H 0.46659 0.8813 0.43824 0.0
H2048 H 0.47957 0.93081 0.52429 0.0
H2049 H 0.48023 0.90251 0.50376 0.0
C2050 C 0.45665 0.58014 0.0505 0.0
C2051 C 0.47476 0.57016 0.03447 0.0
C2052 C 0.45653 0.59707 0.06097 0.0
C2053 C 0.49564 0.61679 0.07758 0.0
H2054 H 0.44274 0.66383 0.09608 0.0
C2055 C 0.49654 0.67413 0.13824 0.0
C2056 C 0.47968 0.67705 0.15773 0.0
C2057 C 0.49553 0.66493 0.11913 0.0
C2058 C 0.45767 0.65076 0.09107 0.0
H2059 H 0.5063 0.57122 1.01558 0.0
H2060 H 0.50573 0.60114 0.0333 0.0
H2061 H 0.4414 0.64098 0.06935 0.0
H2062 H 0.44794 0.67381 0.17174 0.0
H2063 H 0.4463 0.65754 0.13876 0.0
H2064 H 0.51178 0.62612 0.0998 0.0
C2065 C 0.49193 0.59544 0.03833 0.0
C2066 C 0.45689 0.63766 0.07576 0.0
C2067 C 0.49213 0.57841 0.028 0.0
C2068 C 0.46135 0.67149 0.15716 0.0
C2069 C 0.46029 0.6624 0.13808 0.0
C2070 C 0.49642 0.6299 0.09285 0.0
C2071 C 0.47446 0.6045 0.05553 0.0
C2072 C 0.47576 0.6202 0.06927 0.0
C2073 C 0.47754 0.65862 0.11904 0.0
C2074 C 0.47733 0.64671 0.10025 0.0
H2075 H 0.44307 0.57412 0.056 0.0
H2076 H 0.44289 0.60352 0.0743 0.0
H2077 H 0.51042 0.60328 0.07328 0.0
H2078 H 0.5109 0.6782 0.13819 0.0
H2079 H 0.50898 0.66244 0.10462 0.0
loop_
_geom_bond_atom_site_label_1
_geom_bond_atom_site_label_2
_geom_bond_distance
_geom_bond_site_symmetry_2
_ccdc_geom_bond_type
La0 C2 2.928 . S
La0 O20 2.521 . S
La0 O21 2.628 . S
La0 O22 2.554 1_655 S
La0 O23 2.757 1_655 S
La0 O24 2.470 1_654 S
La0 O29 2.482 1_564 S
La0 O31 2.503 1_565 S
La1 C11 2.928 . S
La1 O23 2.482 1_546 S
La1 O25 2.503 1_545 S
La1 O26 2.521 . S
La1 O27 2.628 . S
La1 O28 2.554 1_455 S
La1 O29 2.757 1_455 S
La1 O30 2.470 1_456 S
C2 La0 2.928 . S
C2 C3 1.503 . S
C2 O20 1.261 . S
C2 O21 1.243 . S
C3 C2 1.503 . S
C3 C4 1.394 . S
C3 C8 1.373 . S
C4 C3 1.394 . S
C4 C5 1.380 . S
C4 H32 0.930 . S
C5 C4 1.380 . S
C5 C6 1.376 . S
C5 H33 0.930 . S
C6 C5 1.376 . S
C6 C7 1.370 . S
C7 C6 1.370 . S
C7 C8 1.396 . S
C7 H34 0.966 . S
C8 C3 1.373 . S
C8 C7 1.396 . S
C8 H35 0.929 1_554 S
C9 O22 1.240 . S
C9 O23 1.289 . S
C10 O24 1.258 . S
C10 O25 1.256 . S
C11 La1 2.928 . S
C11 C12 1.503 . S
C11 O26 1.261 . S
C11 O27 1.243 . S
C12 C11 1.503 . S
C12 C13 1.394 . S
C12 C17 1.373 . S
C13 C12 1.394 . S
C13 C14 1.380 . S
C13 H36 0.930 . S
C14 C13 1.380 . S
C14 C15 1.376 . S
C14 H37 0.930 . S
C15 C14 1.376 . S
C15 C16 1.370 . S
C16 C15 1.370 . S
C16 C17 1.396 . S
C16 H38 0.950 . S
C17 C12 1.373 . S
C17 C16 1.396 . S
C17 H39 0.929 1_556 S
C18 O28 1.240 . S
C18 O29 1.289 . S
C19 O30 1.258 . S
C19 O31 1.256 . S
O20 La0 2.521 . S
O20 C2 1.261 . S
O21 La0 2.628 . S
O21 C2 1.243 . S
O22 La0 2.554 1_455 S
O22 C9 1.240 . S
O23 La0 2.757 1_455 S
O23 La1 2.482 1_564 S
O23 C9 1.289 . S
O24 La0 2.470 1_456 S
O24 C10 1.258 . S
O25 La1 2.503 1_565 S
O25 C10 1.256 . S
O26 La1 2.521 . S
O26 C11 1.261 . S
O27 La1 2.628 . S
O27 C11 1.243 . S
O28 La1 2.554 1_655 S
O28 C18 1.240 . S
O29 La0 2.482 1_546 S
O29 La1 2.757 1_655 S
O29 C18 1.289 . S
O30 La1 2.470 1_654 S
O30 C19 1.258 . S
O31 La0 2.503 1_545 S
O31 C19 1.256 . S
H32 C4 0.930 . S
H33 C5 0.930 . S
H34 C7 0.966 . S
H35 C8 0.929 1_556 S
H36 C13 0.930 . S
H37 C14 0.930 . S
H38 C16 0.950 . S
H39 C17 0.929 1_554 S
La40 C42 2.928 . S
La40 O60 2.521 . S
La40 O61 2.628 1_455 S
La40 O62 2.554 . S
La40 O63 2.757 . S
La40 O64 2.470 1_455 S
La40 O69 2.482 1_455 S
La40 O71 2.503 . S
La41 C51 2.928 . S
La41 O63 2.482 1_655 S
La41 O65 2.503 . S
La41 O66 2.521 . S
La41 O67 2.628 1_655 S
La41 O68 2.554 . S
La41 O69 2.757 . S
La41 O70 2.470 1_655 S
C42 La40 2.928 . S
C42 C43 1.503 . S
C42 O60 1.261 . S
C42 O61 1.243 1_455 S
C43 C42 1.503 . S
C43 C44 1.394 . S
C43 C48 1.373 1_455 S
C44 C43 1.394 . S
C44 C45 1.380 . S
C44 H72 0.930 . S
C45 C44 1.380 . S
C45 C46 1.376 1_455 S
C45 H73 0.930 . S
C46 C45 1.376 1_655 S
C46 C47 1.370 . S
C47 C46 1.370 . S
C47 C48 1.396 . S
C47 H74 0.929 . S
C48 C43 1.373 1_655 S
C48 C47 1.396 . S
C48 H75 0.929 . S
C49 O62 1.240 . S
C49 O63 1.289 . S
C50 O64 1.258 . S
C50 O65 1.256 . S
C51 La41 2.928 . S
C51 C52 1.503 . S
C51 O66 1.261 . S
C51 O67 1.243 1_655 S
C52 C51 1.503 . S
C52 C53 1.394 . S
C52 C57 1.373 1_655 S
C53 C52 1.394 . S
C53 C54 1.380 . S
C53 H76 0.930 . S
C54 C53 1.380 . S
C54 C55 1.376 1_655 S
C54 H77 0.930 . S
C55 C54 1.376 1_455 S
C55 C56 1.370 . S
C56 C55 1.370 . S
C56 C57 1.396 . S
C56 H78 0.929 . S
C57 C52 1.373 1_455 S
C57 C56 1.396 . S
C57 H79 0.929 . S
C58 O68 1.240 . S
C58 O69 1.289 . S
C59 O70 1.258 . S
C59 O71 1.256 . S
O60 La40 2.521 . S
O60 C42 1.261 . S
O61 La40 2.628 1_655 S
O61 C42 1.243 1_655 S
O62 La40 2.554 . S
O62 C49 1.240 . S
O63 La40 2.757 . S
O63 La41 2.482 1_455 S
O63 C49 1.289 . S
O64 La40 2.470 1_655 S
O64 C50 1.258 . S
O65 La41 2.503 . S
O65 C50 1.256 . S
O66 La41 2.521 . S
O66 C51 1.261 . S
O67 La41 2.628 1_455 S
O67 C51 1.243 1_455 S
O68 La41 2.554 . S
O68 C58 1.240 . S
O69 La40 2.482 1_655 S
O69 La41 2.757 . S
O69 C58 1.289 . S
O70 La41 2.470 1_455 S
O70 C59 1.258 . S
O71 La40 2.503 . S
O71 C59 1.256 . S
H72 C44 0.930 . S
H73 C45 0.930 . S
H74 C47 0.929 . S
H75 C48 0.929 . S
H76 C53 0.930 . S
H77 C54 0.930 . S
H78 C56 0.929 . S
H79 C57 0.929 . S
La80 C82 2.928 . S
La80 O100 2.521 . S
La80 O101 2.628 . S
La80 O102 2.554 . S
La80 O103 2.757 . S
La80 O104 2.470 . S
La80 O109 2.482 . S
La80 O111 2.503 . S
La81 C91 2.928 . S
La81 O103 2.482 . S
La81 O105 2.503 . S
La81 O106 2.521 . S
La81 O107 2.628 . S
La81 O108 2.554 . S
La81 O109 2.757 . S
La81 O110 2.470 . S
C82 La80 2.928 . S
C82 C83 1.503 . S
C82 O100 1.261 . S
C82 O101 1.243 . S
C83 C82 1.503 . S
C83 C84 1.394 . S
C83 C88 1.373 . S
C84 C83 1.394 . S
C84 C85 1.380 . S
C84 H112 0.930 . S
C85 C84 1.380 . S
C85 C86 1.376 . S
C85 H113 0.930 . S
C86 C85 1.376 . S
C86 C87 1.370 . S
C87 C86 1.370 . S
C87 C88 1.396 . S
C87 H114 0.929 . S
C88 C83 1.373 . S
C88 C87 1.396 . S
C88 H115 0.929 . S
C89 O102 1.240 . S
C89 O103 1.289 . S
C90 O104 1.258 . S
C90 O105 1.256 . S
C91 La81 2.928 . S
C91 C92 1.503 . S
C91 O106 1.261 . S
C91 O107 1.243 . S
C92 C91 1.503 . S
C92 C93 1.394 . S
C92 C97 1.373 . S
C93 C92 1.394 . S
C93 C94 1.380 . S
C93 H116 0.930 . S
C94 C93 1.380 . S
C94 C95 1.376 . S
C94 H117 0.930 . S
C95 C94 1.376 . S
C95 C96 1.370 . S
C96 C95 1.370 . S
C96 C97 1.396 . S
C96 H118 0.929 . S
C97 C92 1.373 . S
C97 C96 1.396 . S
C97 H119 0.929 . S
C98 O108 1.240 . S
C98 O109 1.289 . S
C99 O110 1.258 . S
C99 O111 1.256 . S
O100 La80 2.521 . S
O100 C82 1.261 . S
O101 La80 2.628 . S
O101 C82 1.243 . S
O102 La80 2.554 . S
O102 C89 1.240 . S
O103 La80 2.757 . S
O103 La81 2.482 . S
O103 C89 1.289 . S
O104 La80 2.470 . S
O104 C90 1.258 . S
O105 La81 2.503 . S
O105 C90 1.256 . S
O106 La81 2.521 . S
O106 C91 1.261 . S
O107 La81 2.628 . S
O107 C91 1.243 . S
O108 La81 2.554 . S
O108 C98 1.240 . S
O109 La80 2.482 . S
O109 La81 2.757 . S
O109 C98 1.289 . S
O110 La81 2.470 . S
O110 C99 1.258 . S
O111 La80 2.503 . S
O111 C99 1.256 . S
H112 C84 0.930 . S
H113 C85 0.930 . S
H114 C87 0.929 . S
H115 C88 0.929 . S
H116 C93 0.930 . S
H117 C94 0.930 . S
H118 C96 0.929 . S
H119 C97 0.929 . S
La120 C122 2.928 . S
La120 O140 2.521 . S
La120 O141 2.628 1_565 S
La120 O142 2.554 . S
La120 O143 2.757 . S
La120 O144 2.470 1_565 S
La120 O149 2.482 1_565 S
La120 O151 2.503 . S
La121 C131 2.928 . S
La121 O143 2.482 1_545 S
La121 O145 2.503 . S
La121 O146 2.521 . S
La121 O147 2.628 1_545 S
La121 O148 2.554 . S
La121 O149 2.757 . S
La121 O150 2.470 1_545 S
C122 La120 2.928 . S
C122 C123 1.501 . S
C122 O140 1.261 . S
C122 O141 1.243 1_565 S
C123 C122 1.501 . S
C123 C124 1.404 . S
C123 C128 1.365 1_565 S
C124 C123 1.404 . S
C124 C125 1.380 . S
C124 H152 0.930 . S
C125 C124 1.380 . S
C125 C126 1.376 1_565 S
C125 H153 0.930 . S
C126 C125 1.376 1_545 S
C126 C127 1.370 . S
C127 C126 1.370 . S
C127 C128 1.396 . S
C127 H154 0.929 . S
C128 C123 1.365 1_545 S
C128 C127 1.396 . S
C128 H155 0.929 . S
C129 O142 1.240 . S
C129 O143 1.289 . S
C130 O144 1.258 . S
C130 O145 1.256 . S
C131 La121 2.928 . S
C131 C132 1.499 . S
C131 O146 1.261 . S
C131 O147 1.243 1_545 S
C132 C131 1.499 . S
C132 C133 1.417 . S
C132 C137 1.355 1_545 S
C133 C132 1.417 . S
C133 C134 1.380 . S
C133 H156 0.930 . S
C134 C133 1.380 . S
C134 C135 1.376 1_545 S
C134 H157 0.930 . S
C135 C134 1.376 1_565 S
C135 C136 1.370 . S
C136 C135 1.370 . S
C136 C137 1.396 . S
C136 H158 0.929 . S
C137 C132 1.355 1_565 S
C137 C136 1.396 . S
C137 H159 0.929 . S
C138 O148 1.240 . S
C138 O149 1.289 . S
C139 O150 1.258 . S
C139 O151 1.256 . S
O140 La120 2.521 . S
O140 C122 1.261 . S
O141 La120 2.628 1_545 S
O141 C122 1.243 1_545 S
O142 La120 2.554 . S
O142 C129 1.240 . S
O143 La120 2.757 . S
O143 La121 2.482 1_565 S
O143 C129 1.289 . S
O144 La120 2.470 1_545 S
O144 C130 1.258 . S
O145 La121 2.503 . S
O145 C130 1.256 . S
O146 La121 2.521 . S
O146 C131 1.261 . S
O147 La121 2.628 1_565 S
O147 C131 1.243 1_565 S
O148 La121 2.554 . S
O148 C138 1.240 . S
O149 La120 2.482 1_545 S
O149 La121 2.757 . S
O149 C138 1.289 . S
O150 La121 2.470 1_565 S
O150 C139 1.258 . S
O151 La120 2.503 . S
O151 C139 1.256 . S
H152 C124 0.930 . S
H153 C125 0.930 . S
H154 C127 0.929 . S
H155 C128 0.929 . S
H156 C133 0.930 . S
H157 C134 0.930 . S
H158 C136 0.929 . S
H159 C137 0.929 . S
La160 C162 2.928 . S
La160 O180 2.521 . S
La160 O181 2.628 . S
La160 O182 2.554 . S
La160 O183 2.757 . S
La160 O184 2.470 . S
La160 O189 2.482 . S
La160 O191 2.503 . S
La161 C171 2.928 . S
La161 O183 2.482 . S
La161 O185 2.503 . S
La161 O186 2.521 . S
La161 O187 2.628 . S
La161 O188 2.554 . S
La161 O189 2.757 . S
La161 O190 2.470 . S
C162 La160 2.928 . S
C162 C163 1.503 . S
C162 O180 1.261 . S
C162 O181 1.243 . S
C163 C162 1.503 . S
C163 C164 1.394 . S
C163 C168 1.373 . S
C164 C163 1.394 . S
C164 C165 1.380 . S
C164 H192 0.930 . S
C165 C164 1.380 . S
C165 C166 1.376 . S
C165 H193 0.930 . S
C166 C165 1.376 . S
C166 C167 1.370 . S
C167 C166 1.370 . S
C167 C168 1.396 . S
C167 H194 0.929 . S
C168 C163 1.373 . S
C168 C167 1.396 . S
C168 H195 0.929 . S
C169 O182 1.240 . S
C169 O183 1.289 . S
C170 O184 1.258 . S
C170 O185 1.256 . S
C171 La161 2.928 . S
C171 C172 1.503 . S
C171 O186 1.261 . S
C171 O187 1.243 . S
C172 C171 1.503 . S
C172 C173 1.394 . S
C172 C177 1.373 . S
C173 C172 1.394 . S
C173 C174 1.380 . S
C173 H196 0.930 . S
C174 C173 1.380 . S
C174 C175 1.376 . S
C174 H197 0.930 . S
C175 C174 1.376 . S
C175 C176 1.370 . S
C176 C175 1.370 . S
C176 C177 1.396 . S
C176 H198 0.929 . S
C177 C172 1.373 . S
C177 C176 1.396 . S
C177 H199 0.929 . S
C178 O188 1.240 . S
C178 O189 1.289 . S
C179 O190 1.258 . S
C179 O191 1.256 . S
O180 La160 2.521 . S
O180 C162 1.261 . S
O181 La160 2.628 . S
O181 C162 1.243 . S
O182 La160 2.554 . S
O182 C169 1.240 . S
O183 La160 2.757 . S
O183 La161 2.482 . S
O183 C169 1.289 . S
O184 La160 2.470 . S
O184 C170 1.258 . S
O185 La161 2.503 . S
O185 C170 1.256 . S
O186 La161 2.521 . S
O186 C171 1.261 . S
O187 La161 2.628 . S
O187 C171 1.243 . S
O188 La161 2.554 . S
O188 C178 1.240 . S
O189 La160 2.482 . S
O189 La161 2.757 . S
O189 C178 1.289 . S
O190 La161 2.470 . S
O190 C179 1.258 . S
O191 La160 2.503 . S
O191 C179 1.256 . S
H192 C164 0.930 . S
H193 C165 0.930 . S
H194 C167 0.929 . S
H195 C168 0.929 . S
H196 C173 0.930 . S
H197 C174 0.930 . S
H198 C176 0.929 . S
H199 C177 0.929 . S
La200 C202 2.928 . S
La200 O220 2.521 . S
La200 O221 2.628 . S
La200 O222 2.554 . S
La200 O223 2.757 . S
La200 O224 2.470 . S
La200 O229 2.482 . S
La200 O231 2.503 . S
La201 C211 2.928 . S
La201 O223 2.482 . S
La201 O225 2.503 . S
La201 O226 2.521 . S
La201 O227 2.628 . S
La201 O228 2.554 . S
La201 O229 2.757 . S
La201 O230 2.470 . S
C202 La200 2.928 . S
C202 C203 1.503 . S
C202 O220 1.261 . S
C202 O221 1.243 . S
C203 C202 1.503 . S
C203 C204 1.394 . S
C203 C208 1.373 . S
C204 C203 1.394 . S
C204 C205 1.380 . S
C204 H232 0.930 . S
C205 C204 1.380 . S
C205 C206 1.376 . S
C205 H233 0.930 . S
C206 C205 1.376 . S
C206 C207 1.370 . S
C207 C206 1.370 . S
C207 C208 1.396 . S
C207 H234 0.929 . S
C208 C203 1.373 . S
C208 C207 1.396 . S
C208 H235 0.929 . S
C209 O222 1.240 . S
C209 O223 1.289 . S
C210 O224 1.258 . S
C210 O225 1.256 . S
C211 La201 2.928 . S
C211 C212 1.503 . S
C211 O226 1.261 . S
C211 O227 1.243 . S
C212 C211 1.503 . S
C212 C213 1.394 . S
C212 C217 1.373 . S
C213 C212 1.394 . S
C213 C214 1.380 . S
C213 H236 0.930 . S
C214 C213 1.380 . S
C214 C215 1.376 . S
C214 H237 0.930 . S
C215 C214 1.376 . S
C215 C216 1.370 . S
C216 C215 1.370 . S
C216 C217 1.396 . S
C216 H238 0.929 . S
C217 C212 1.373 . S
C217 C216 1.396 . S
C217 H239 0.929 . S
C218 O228 1.240 . S
C218 O229 1.289 . S
C219 O230 1.258 . S
C219 O231 1.256 . S
O220 La200 2.521 . S
O220 C202 1.261 . S
O221 La200 2.628 . S
O221 C202 1.243 . S
O222 La200 2.554 . S
O222 C209 1.240 . S
O223 La200 2.757 . S
O223 La201 2.482 . S
O223 C209 1.289 . S
O224 La200 2.470 . S
O224 C210 1.258 . S
O225 La201 2.503 . S
O225 C210 1.256 . S
O226 La201 2.521 . S
O226 C211 1.261 . S
O227 La201 2.628 . S
O227 C211 1.243 . S
O228 La201 2.554 . S
O228 C218 1.240 . S
O229 La200 2.482 . S
O229 La201 2.757 . S
O229 C218 1.289 . S
O230 La201 2.470 . S
O230 C219 1.258 . S
O231 La200 2.503 . S
O231 C219 1.256 . S
H232 C204 0.930 . S
H233 C205 0.930 . S
H234 C207 0.929 . S
H235 C208 0.929 . S
H236 C213 0.930 . S
H237 C214 0.930 . S
H238 C216 0.929 . S
H239 C217 0.929 . S
La240 C242 2.928 . S
La240 O260 2.521 . S
La240 O261 2.628 . S
La240 O262 2.554 . S
La240 O263 2.757 . S
La240 O264 2.470 . S
La240 O269 2.482 . S
La240 O271 2.503 . S
La241 C251 2.928 . S
La241 O263 2.482 . S
La241 O265 2.503 . S
La241 O266 2.521 . S
La241 O267 2.628 . S
La241 O268 2.554 . S
La241 O269 2.757 . S
La241 O270 2.470 . S
C242 La240 2.928 . S
C242 C243 1.503 . S
C242 O260 1.261 . S
C242 O261 1.243 . S
C243 C242 1.503 . S
C243 C244 1.394 . S
C243 C248 1.373 . S
C244 C243 1.394 . S
C244 C245 1.380 . S
C244 H272 0.930 . S
C245 C244 1.380 . S
C245 C246 1.376 . S
C245 H273 0.930 . S
C246 C245 1.376 . S
C246 C247 1.370 . S
C247 C246 1.370 . S
C247 C248 1.396 . S
C247 H274 0.929 . S
C248 C243 1.373 . S
C248 C247 1.396 . S
C248 H275 0.929 . S
C249 O262 1.240 . S
C249 O263 1.289 . S
C250 O264 1.258 . S
C250 O265 1.256 . S
C251 La241 2.928 . S
C251 C252 1.503 . S
C251 O266 1.261 . S
C251 O267 1.243 . S
C252 C251 1.503 . S
C252 C253 1.394 . S
C252 C257 1.373 . S
C253 C252 1.394 . S
C253 C254 1.380 . S
C253 H276 0.930 . S
C254 C253 1.380 . S
C254 C255 1.376 . S
C254 H277 0.930 . S
C255 C254 1.376 . S
C255 C256 1.370 . S
C256 C255 1.370 . S
C256 C257 1.396 . S
C256 H278 0.929 . S
C257 C252 1.373 . S
C257 C256 1.396 . S
C257 H279 0.929 . S
C258 O268 1.240 . S
C258 O269 1.289 . S
C259 O270 1.258 . S
C259 O271 1.256 . S
O260 La240 2.521 . S
O260 C242 1.261 . S
O261 La240 2.628 . S
O261 C242 1.243 . S
O262 La240 2.554 . S
O262 C249 1.240 . S
O263 La240 2.757 . S
O263 La241 2.482 . S
O263 C249 1.289 . S
O264 La240 2.470 . S
O264 C250 1.258 . S
O265 La241 2.503 . S
O265 C250 1.256 . S
O266 La241 2.521 . S
O266 C251 1.261 . S
O267 La241 2.628 . S
O267 C251 1.243 . S
O268 La241 2.554 . S
O268 C258 1.240 . S
O269 La240 2.482 . S
O269 La241 2.757 . S
O269 C258 1.289 . S
O270 La241 2.470 . S
O270 C259 1.258 . S
O271 La240 2.503 . S
O271 C259 1.256 . S
H272 C244 0.930 . S
H273 C245 0.930 . S
H274 C247 0.929 . S
H275 C248 0.929 . S
H276 C253 0.930 . S
H277 C254 0.930 . S
H278 C256 0.929 . S
H279 C257 0.929 . S
La280 C282 2.928 . S
La280 O300 2.521 . S
La280 O301 2.628 . S
La280 O302 2.554 1_655 S
La280 O303 2.757 1_655 S
La280 O304 2.470 1_655 S
La280 O309 2.482 . S
La280 O311 2.503 . S
La281 C291 2.928 . S
La281 O303 2.482 . S
La281 O305 2.503 . S
La281 O306 2.521 . S
La281 O307 2.628 . S
La281 O308 2.554 1_455 S
La281 O309 2.757 1_455 S
La281 O310 2.470 1_455 S
C282 La280 2.928 . S
C282 C283 1.503 . S
C282 O300 1.261 . S
C282 O301 1.243 . S
C283 C282 1.503 . S
C283 C284 1.394 . S
C283 C288 1.373 . S
C284 C283 1.394 . S
C284 C285 1.380 . S
C284 H312 0.930 . S
C285 C284 1.380 . S
C285 C286 1.376 . S
C285 H313 0.930 . S
C286 C285 1.376 . S
C286 C287 1.370 . S
C287 C286 1.370 . S
C287 C288 1.396 . S
C287 H314 0.929 . S
C288 C283 1.373 . S
C288 C287 1.396 . S
C288 H315 0.929 . S
C289 O302 1.240 . S
C289 O303 1.289 . S
C290 O304 1.258 . S
C290 O305 1.256 . S
C291 La281 2.928 . S
C291 C292 1.503 . S
C291 O306 1.261 . S
C291 O307 1.243 . S
C292 C291 1.503 . S
C292 C293 1.394 . S
C292 C297 1.373 . S
C293 C292 1.394 . S
C293 C294 1.380 . S
C293 H316 0.930 . S
C294 C293 1.380 . S
C294 C295 1.376 . S
C294 H317 0.930 . S
C295 C294 1.376 . S
C295 C296 1.370 . S
C296 C295 1.370 . S
C296 C297 1.396 . S
C296 H318 0.929 . S
C297 C292 1.373 . S
C297 C296 1.396 . S
C297 H319 0.929 . S
C298 O308 1.240 . S
C298 O309 1.289 . S
C299 O310 1.258 . S
C299 O311 1.256 . S
O300 La280 2.521 . S
O300 C282 1.261 . S
O301 La280 2.628 . S
O301 C282 1.243 . S
O302 La280 2.554 1_455 S
O302 C289 1.240 . S
O303 La280 2.757 1_455 S
O303 La281 2.482 . S
O303 C289 1.289 . S
O304 La280 2.470 1_455 S
O304 C290 1.258 . S
O305 La281 2.503 . S
O305 C290 1.256 . S
O306 La281 2.521 . S
O306 C291 1.261 . S
O307 La281 2.628 . S
O307 C291 1.243 . S
O308 La281 2.554 1_655 S
O308 C298 1.240 . S
O309 La280 2.482 . S
O309 La281 2.757 1_655 S
O309 C298 1.289 . S
O310 La281 2.470 1_655 S
O310 C299 1.258 . S
O311 La280 2.503 . S
O311 C299 1.256 . S
H312 C284 0.930 . S
H313 C285 0.930 . S
H314 C287 0.929 . S
H315 C288 0.929 . S
H316 C293 0.930 . S
H317 C294 0.930 . S
H318 C296 0.929 . S
H319 C297 0.929 . S
La320 C322 2.928 . S
La320 O340 2.521 . S
La320 O341 2.617 1_556 S
La320 O342 2.554 . S
La320 O343 2.757 . S
La320 O344 2.470 1_556 S
La320 O349 2.482 1_556 S
La320 O351 2.503 . S
La321 C331 2.928 . S
La321 O343 2.482 1_554 S
La321 O345 2.503 . S
La321 O346 2.521 . S
La321 O347 2.622 1_554 S
La321 O348 2.554 . S
La321 O349 2.757 . S
La321 O350 2.470 1_554 S
C322 La320 2.928 . S
C322 C323 1.503 . S
C322 O340 1.261 . S
C322 O341 1.208 1_556 S
C323 C322 1.503 . S
C323 C324 1.394 . S
C323 C328 1.373 1_556 S
C324 C323 1.394 . S
C324 C325 1.380 . S
C324 H352 0.930 . S
C325 C324 1.380 . S
C325 C326 1.376 . S
C325 H353 0.930 . S
C326 C325 1.376 . S
C326 C327 1.370 1_556 S
C327 C326 1.370 1_554 S
C327 C328 1.396 . S
C327 H354 0.929 . S
C328 C323 1.373 1_554 S
C328 C327 1.396 . S
C328 H355 0.929 . S
C329 O342 1.240 . S
C329 O343 1.289 . S
C330 O344 1.258 . S
C330 O345 1.256 . S
C331 La321 2.928 . S
C331 C332 1.503 . S
C331 O346 1.261 . S
C331 O347 1.225 1_554 S
C332 C331 1.503 . S
C332 C333 1.394 . S
C332 C337 1.373 1_554 S
C333 C332 1.394 . S
C333 C334 1.380 . S
C333 H356 0.930 . S
C334 C333 1.380 . S
C334 C335 1.376 . S
C334 H357 0.930 . S
C335 C334 1.376 . S
C335 C336 1.370 1_554 S
C336 C335 1.370 1_556 S
C336 C337 1.396 . S
C336 H358 0.929 . S
C337 C332 1.373 1_556 S
C337 C336 1.396 . S
C337 H359 0.929 . S
C338 O348 1.240 . S
C338 O349 1.289 . S
C339 O350 1.258 . S
C339 O351 1.256 . S
O340 La320 2.521 . S
O340 C322 1.261 . S
O341 La320 2.617 1_554 S
O341 C322 1.208 1_554 S
O342 La320 2.554 . S
O342 C329 1.240 . S
O343 La320 2.757 . S
O343 La321 2.482 1_556 S
O343 C329 1.289 . S
O344 La320 2.470 1_554 S
O344 C330 1.258 . S
O345 La321 2.503 . S
O345 C330 1.256 . S
O346 La321 2.521 . S
O346 C331 1.261 . S
O347 La321 2.622 1_556 S
O347 C331 1.225 1_556 S
O348 La321 2.554 . S
O348 C338 1.240 . S
O349 La320 2.482 1_554 S
O349 La321 2.757 . S
O349 C338 1.289 . S
O350 La321 2.470 1_556 S
O350 C339 1.258 . S
O351 La320 2.503 . S
O351 C339 1.256 . S
H352 C324 0.930 . S
H353 C325 0.930 . S
H354 C327 0.929 . S
H355 C328 0.929 . S
H356 C333 0.930 . S
H357 C334 0.930 . S
H358 C336 0.929 . S
H359 C337 0.929 . S
La360 C362 2.928 . S
La360 O380 2.521 . S
La360 O381 2.628 1_565 S
La360 O382 2.554 . S
La360 O383 2.757 . S
La360 O384 2.470 1_565 S
La360 O389 2.482 1_565 S
La360 O391 2.503 . S
La361 C371 2.928 . S
La361 O383 2.482 1_545 S
La361 O385 2.503 . S
La361 O386 2.521 . S
La361 O387 2.628 1_545 S
La361 O388 2.554 . S
La361 O389 2.757 . S
La361 O390 2.470 1_545 S
C362 La360 2.928 . S
C362 C363 1.501 . S
C362 O380 1.261 . S
C362 O381 1.243 1_565 S
C363 C362 1.501 . S
C363 C364 1.404 . S
C363 C368 1.365 1_565 S
C364 C363 1.404 . S
C364 C365 1.380 . S
C364 H392 0.930 . S
C365 C364 1.380 . S
C365 C366 1.376 1_565 S
C365 H393 0.930 . S
C366 C365 1.376 1_545 S
C366 C367 1.370 . S
C367 C366 1.370 . S
C367 C368 1.396 . S
C367 H394 0.929 . S
C368 C363 1.365 1_545 S
C368 C367 1.396 . S
C368 H395 0.929 . S
C369 O382 1.240 . S
C369 O383 1.289 . S
C370 O384 1.258 . S
C370 O385 1.256 . S
C371 La361 2.928 . S
C371 C372 1.499 . S
C371 O386 1.261 . S
C371 O387 1.243 1_545 S
C372 C371 1.499 . S
C372 C373 1.417 . S
C372 C377 1.355 1_545 S
C373 C372 1.417 . S
C373 C374 1.380 . S
C373 H396 0.930 . S
C374 C373 1.380 . S
C374 C375 1.376 1_545 S
C374 H397 0.930 . S
C375 C374 1.376 1_565 S
C375 C376 1.370 . S
C376 C375 1.370 . S
C376 C377 1.396 . S
C376 H398 0.929 . S
C377 C372 1.355 1_565 S
C377 C376 1.396 . S
C377 H399 0.929 . S
C378 O388 1.240 . S
C378 O389 1.289 . S
C379 O390 1.258 . S
C379 O391 1.256 . S
O380 La360 2.521 . S
O380 C362 1.261 . S
O381 La360 2.628 1_545 S
O381 C362 1.243 1_545 S
O382 La360 2.554 . S
O382 C369 1.240 . S
O383 La360 2.757 . S
O383 La361 2.482 1_565 S
O383 C369 1.289 . S
O384 La360 2.470 1_545 S
O384 C370 1.258 . S
O385 La361 2.503 . S
O385 C370 1.256 . S
O386 La361 2.521 . S
O386 C371 1.261 . S
O387 La361 2.628 1_565 S
O387 C371 1.243 1_565 S
O388 La361 2.554 . S
O388 C378 1.240 . S
O389 La360 2.482 1_545 S
O389 La361 2.757 . S
O389 C378 1.289 . S
O390 La361 2.470 1_565 S
O390 C379 1.258 . S
O391 La360 2.503 . S
O391 C379 1.256 . S
H392 C364 0.930 . S
H393 C365 0.930 . S
H394 C367 0.929 . S
H395 C368 0.929 . S
H396 C373 0.930 . S
H397 C374 0.930 . S
H398 C376 0.929 . S
H399 C377 0.929 . S
La400 C402 2.928 . S
La400 O420 2.521 . S
La400 O421 2.628 . S
La400 O422 2.554 . S
La400 O423 2.757 . S
La400 O424 2.470 . S
La400 O429 2.482 . S
La400 O431 2.503 . S
La401 C411 2.928 . S
La401 O423 2.482 . S
La401 O425 2.503 . S
La401 O426 2.521 . S
La401 O427 2.628 . S
La401 O428 2.554 . S
La401 O429 2.757 . S
La401 O430 2.470 . S
C402 La400 2.928 . S
C402 C403 1.503 . S
C402 O420 1.261 . S
C402 O421 1.243 . S
C403 C402 1.503 . S
C403 C404 1.394 . S
C403 C408 1.373 . S
C404 C403 1.394 . S
C404 C405 1.380 . S
C404 H432 0.930 . S
C405 C404 1.380 . S
C405 C406 1.376 . S
C405 H433 0.930 . S
C406 C405 1.376 . S
C406 C407 1.370 . S
C407 C406 1.370 . S
C407 C408 1.396 . S
C407 H434 0.929 . S
C408 C403 1.373 . S
C408 C407 1.396 . S
C408 H435 0.929 . S
C409 O422 1.240 . S
C409 O423 1.289 . S
C410 O424 1.258 . S
C410 O425 1.256 . S
C411 La401 2.928 . S
C411 C412 1.503 . S
C411 O426 1.261 . S
C411 O427 1.243 . S
C412 C411 1.503 . S
C412 C413 1.394 . S
C412 C417 1.373 . S
C413 C412 1.394 . S
C413 C414 1.380 . S
C413 H436 0.930 . S
C414 C413 1.380 . S
C414 C415 1.376 . S
C414 H437 0.930 . S
C415 C414 1.376 . S
C415 C416 1.370 . S
C416 C415 1.370 . S
C416 C417 1.396 . S
C416 H438 0.929 . S
C417 C412 1.373 . S
C417 C416 1.396 . S
C417 H439 0.929 . S
C418 O428 1.240 . S
C418 O429 1.289 . S
C419 O430 1.258 . S
C419 O431 1.256 . S
O420 La400 2.521 . S
O420 C402 1.261 . S
O421 La400 2.628 . S
O421 C402 1.243 . S
O422 La400 2.554 . S
O422 C409 1.240 . S
O423 La400 2.757 . S
O423 La401 2.482 . S
O423 C409 1.289 . S
O424 La400 2.470 . S
O424 C410 1.258 . S
O425 La401 2.503 . S
O425 C410 1.256 . S
O426 La401 2.521 . S
O426 C411 1.261 . S
O427 La401 2.628 . S
O427 C411 1.243 . S
O428 La401 2.554 . S
O428 C418 1.240 . S
O429 La400 2.482 . S
O429 La401 2.757 . S
O429 C418 1.289 . S
O430 La401 2.470 . S
O430 C419 1.258 . S
O431 La400 2.503 . S
O431 C419 1.256 . S
H432 C404 0.930 . S
H433 C405 0.930 . S
H434 C407 0.929 . S
H435 C408 0.929 . S
H436 C413 0.930 . S
H437 C414 0.930 . S
H438 C416 0.929 . S
H439 C417 0.929 . S
La440 C442 2.928 . S
La440 O460 2.521 . S
La440 O461 2.628 1_455 S
La440 O462 2.554 . S
La440 O463 2.757 . S
La440 O464 2.470 1_455 S
La440 O469 2.482 1_455 S
La440 O471 2.503 . S
La441 C451 2.928 . S
La441 O463 2.482 1_655 S
La441 O465 2.503 . S
La441 O466 2.521 . S
La441 O467 2.628 1_655 S
La441 O468 2.554 . S
La441 O469 2.757 . S
La441 O470 2.470 1_655 S
C442 La440 2.928 . S
C442 C443 1.503 . S
C442 O460 1.261 . S
C442 O461 1.243 1_455 S
C443 C442 1.503 . S
C443 C444 1.394 . S
C443 C448 1.373 1_455 S
C444 C443 1.394 . S
C444 C445 1.380 . S
C444 H472 0.930 . S
C445 C444 1.380 . S
C445 C446 1.376 1_455 S
C445 H473 0.930 . S
C446 C445 1.376 1_655 S
C446 C447 1.370 . S
C447 C446 1.370 . S
C447 C448 1.396 . S
C447 H474 0.929 . S
C448 C443 1.373 1_655 S
C448 C447 1.396 . S
C448 H475 0.929 . S
C449 O462 1.240 . S
C449 O463 1.289 . S
C450 O464 1.258 . S
C450 O465 1.256 . S
C451 La441 2.928 . S
C451 C452 1.503 . S
C451 O466 1.261 . S
C451 O467 1.243 1_655 S
C452 C451 1.503 . S
C452 C453 1.394 . S
C452 C457 1.373 1_655 S
C453 C452 1.394 . S
C453 C454 1.380 . S
C453 H476 0.930 . S
C454 C453 1.380 . S
C454 C455 1.376 1_655 S
C454 H477 0.930 . S
C455 C454 1.376 1_455 S
C455 C456 1.370 . S
C456 C455 1.370 . S
C456 C457 1.396 . S
C456 H478 0.929 . S
C457 C452 1.373 1_455 S
C457 C456 1.396 . S
C457 H479 0.929 . S
C458 O468 1.240 . S
C458 O469 1.289 . S
C459 O470 1.258 . S
C459 O471 1.256 . S
O460 La440 2.521 . S
O460 C442 1.261 . S
O461 La440 2.628 1_655 S
O461 C442 1.243 1_655 S
O462 La440 2.554 . S
O462 C449 1.240 . S
O463 La440 2.757 . S
O463 La441 2.482 1_455 S
O463 C449 1.289 . S
O464 La440 2.470 1_655 S
O464 C450 1.258 . S
O465 La441 2.503 . S
O465 C450 1.256 . S
O466 La441 2.521 . S
O466 C451 1.261 . S
O467 La441 2.628 1_455 S
O467 C451 1.243 1_455 S
O468 La441 2.554 . S
O468 C458 1.240 . S
O469 La440 2.482 1_655 S
O469 La441 2.757 . S
O469 C458 1.289 . S
O470 La441 2.470 1_455 S
O470 C459 1.258 . S
O471 La440 2.503 . S
O471 C459 1.256 . S
H472 C444 0.930 . S
H473 C445 0.930 . S
H474 C447 0.929 . S
H475 C448 0.929 . S
H476 C453 0.930 . S
H477 C454 0.930 . S
H478 C456 0.929 . S
H479 C457 0.929 . S
La480 C482 2.928 . S
La480 O500 2.521 . S
La480 O501 2.628 . S
La480 O502 2.554 . S
La480 O503 2.757 . S
La480 O504 2.470 . S
La480 O509 2.482 . S
La480 O511 2.503 . S
La481 C491 2.928 . S
La481 O503 2.482 . S
La481 O505 2.503 . S
La481 O506 2.521 . S
La481 O507 2.628 . S
La481 O508 2.554 . S
La481 O509 2.757 . S
La481 O510 2.470 . S
C482 La480 2.928 . S
C482 C483 1.503 . S
C482 O500 1.261 . S
C482 O501 1.243 . S
C483 C482 1.503 . S
C483 C484 1.394 . S
C483 C488 1.373 . S
C484 C483 1.394 . S
C484 C485 1.380 . S
C484 H512 0.930 . S
C485 C484 1.380 . S
C485 C486 1.376 . S
C485 H513 0.930 . S
C486 C485 1.376 . S
C486 C487 1.370 . S
C487 C486 1.370 . S
C487 C488 1.396 . S
C487 H514 0.929 . S
C488 C483 1.373 . S
C488 C487 1.396 . S
C488 H515 0.929 . S
C489 O502 1.240 . S
C489 O503 1.289 . S
C490 O504 1.258 . S
C490 O505 1.256 . S
C491 La481 2.928 . S
C491 C492 1.503 . S
C491 O506 1.261 . S
C491 O507 1.243 . S
C492 C491 1.503 . S
C492 C493 1.394 . S
C492 C497 1.373 . S
C493 C492 1.394 . S
C493 C494 1.380 . S
C493 H516 0.930 . S
C494 C493 1.380 . S
C494 C495 1.376 . S
C494 H517 0.930 . S
C495 C494 1.376 . S
C495 C496 1.370 . S
C496 C495 1.370 . S
C496 C497 1.396 . S
C496 H518 0.929 . S
C497 C492 1.373 . S
C497 C496 1.396 . S
C497 H519 0.929 . S
C498 O508 1.240 . S
C498 O509 1.289 . S
C499 O510 1.258 . S
C499 O511 1.256 . S
O500 La480 2.521 . S
O500 C482 1.261 . S
O501 La480 2.628 . S
O501 C482 1.243 . S
O502 La480 2.554 . S
O502 C489 1.240 . S
O503 La480 2.757 . S
O503 La481 2.482 . S
O503 C489 1.289 . S
O504 La480 2.470 . S
O504 C490 1.258 . S
O505 La481 2.503 . S
O505 C490 1.256 . S
O506 La481 2.521 . S
O506 C491 1.261 . S
O507 La481 2.628 . S
O507 C491 1.243 . S
O508 La481 2.554 . S
O508 C498 1.240 . S
O509 La480 2.482 . S
O509 La481 2.757 . S
O509 C498 1.289 . S
O510 La481 2.470 . S
O510 C499 1.258 . S
O511 La480 2.503 . S
O511 C499 1.256 . S
H512 C484 0.930 . S
H513 C485 0.930 . S
H514 C487 0.929 . S
H515 C488 0.929 . S
H516 C493 0.930 . S
H517 C494 0.930 . S
H518 C496 0.929 . S
H519 C497 0.929 . S
La520 C522 2.928 . S
La520 O540 2.521 . S
La520 O541 2.617 1_556 S
La520 O542 2.554 . S
La520 O543 2.757 . S
La520 O544 2.470 1_556 S
La520 O549 2.482 1_556 S
La520 O551 2.503 . S
La521 C531 2.928 . S
La521 O543 2.482 1_554 S
La521 O545 2.503 . S
La521 O546 2.521 . S
La521 O547 2.622 1_554 S
La521 O548 2.554 . S
La521 O549 2.757 . S
La521 O550 2.470 1_554 S
C522 La520 2.928 . S
C522 C523 1.503 . S
C522 O540 1.261 . S
C522 O541 1.208 1_556 S
C523 C522 1.503 . S
C523 C524 1.394 . S
C523 C528 1.373 1_556 S
C524 C523 1.394 . S
C524 C525 1.380 . S
C524 H552 0.930 . S
C525 C524 1.380 . S
C525 C526 1.376 . S
C525 H553 0.930 . S
C526 C525 1.376 . S
C526 C527 1.370 1_556 S
C527 C526 1.370 1_554 S
C527 C528 1.396 . S
C527 H554 0.929 . S
C528 C523 1.373 1_554 S
C528 C527 1.396 . S
C528 H555 0.929 . S
C529 O542 1.240 . S
C529 O543 1.289 . S
C530 O544 1.258 . S
C530 O545 1.256 . S
C531 La521 2.928 . S
C531 C532 1.503 . S
C531 O546 1.261 . S
C531 O547 1.225 1_554 S
C532 C531 1.503 . S
C532 C533 1.394 . S
C532 C537 1.373 1_554 S
C533 C532 1.394 . S
C533 C534 1.380 . S
C533 H556 0.930 . S
C534 C533 1.380 . S
C534 C535 1.376 . S
C534 H557 0.930 . S
C535 C534 1.376 . S
C535 C536 1.370 1_554 S
C536 C535 1.370 1_556 S
C536 C537 1.396 . S
C536 H558 0.929 . S
C537 C532 1.373 1_556 S
C537 C536 1.396 . S
C537 H559 0.929 . S
C538 O548 1.240 . S
C538 O549 1.289 . S
C539 O550 1.258 . S
C539 O551 1.256 . S
O540 La520 2.521 . S
O540 C522 1.261 . S
O541 La520 2.617 1_554 S
O541 C522 1.208 1_554 S
O542 La520 2.554 . S
O542 C529 1.240 . S
O543 La520 2.757 . S
O543 La521 2.482 1_556 S
O543 C529 1.289 . S
O544 La520 2.470 1_554 S
O544 C530 1.258 . S
O545 La521 2.503 . S
O545 C530 1.256 . S
O546 La521 2.521 . S
O546 C531 1.261 . S
O547 La521 2.622 1_556 S
O547 C531 1.225 1_556 S
O548 La521 2.554 . S
O548 C538 1.240 . S
O549 La520 2.482 1_554 S
O549 La521 2.757 . S
O549 C538 1.289 . S
O550 La521 2.470 1_556 S
O550 C539 1.258 . S
O551 La520 2.503 . S
O551 C539 1.256 . S
H552 C524 0.930 . S
H553 C525 0.930 . S
H554 C527 0.929 . S
H555 C528 0.929 . S
H556 C533 0.930 . S
H557 C534 0.930 . S
H558 C536 0.929 . S
H559 C537 0.929 . S
La560 C562 2.928 . S
La560 O580 2.521 . S
La560 O581 2.628 . S
La560 O582 2.554 . S
La560 O583 2.757 . S
La560 O584 2.470 . S
La560 O589 2.482 1_565 S
La560 O591 2.503 1_565 S
La561 C571 2.928 . S
La561 O583 2.482 1_545 S
La561 O585 2.503 1_545 S
La561 O586 2.521 . S
La561 O587 2.628 . S
La561 O588 2.554 . S
La561 O589 2.757 . S
La561 O590 2.470 . S
C562 La560 2.928 . S
C562 C563 1.503 . S
C562 O580 1.261 . S
C562 O581 1.243 . S
C563 C562 1.503 . S
C563 C564 1.394 . S
C563 C568 1.373 . S
C564 C563 1.394 . S
C564 C565 1.380 . S
C564 H592 0.930 . S
C565 C564 1.380 . S
C565 C566 1.376 . S
C565 H593 0.930 . S
C566 C565 1.376 . S
C566 C567 1.370 . S
C567 C566 1.370 . S
C567 C568 1.396 . S
C567 H594 0.929 . S
C568 C563 1.373 . S
C568 C567 1.396 . S
C568 H595 0.929 . S
C569 O582 1.240 . S
C569 O583 1.289 . S
C570 O584 1.258 . S
C570 O585 1.256 . S
C571 La561 2.928 . S
C571 C572 1.503 . S
C571 O586 1.261 . S
C571 O587 1.243 . S
C572 C571 1.503 . S
C572 C573 1.394 . S
C572 C577 1.373 . S
C573 C572 1.394 . S
C573 C574 1.380 . S
C573 H596 0.930 . S
C574 C573 1.380 . S
C574 C575 1.376 . S
C574 H597 0.930 . S
C575 C574 1.376 . S
C575 C576 1.370 . S
C576 C575 1.370 . S
C576 C577 1.396 . S
C576 H598 0.929 . S
C577 C572 1.373 . S
C577 C576 1.396 . S
C577 H599 0.929 . S
C578 O588 1.240 . S
C578 O589 1.289 . S
C579 O590 1.258 . S
C579 O591 1.256 . S
O580 La560 2.521 . S
O580 C562 1.261 . S
O581 La560 2.628 . S
O581 C562 1.243 . S
O582 La560 2.554 . S
O582 C569 1.240 . S
O583 La560 2.757 . S
O583 La561 2.482 1_565 S
O583 C569 1.289 . S
O584 La560 2.470 . S
O584 C570 1.258 . S
O585 La561 2.503 1_565 S
O585 C570 1.256 . S
O586 La561 2.521 . S
O586 C571 1.261 . S
O587 La561 2.628 . S
O587 C571 1.243 . S
O588 La561 2.554 . S
O588 C578 1.240 . S
O589 La560 2.482 1_545 S
O589 La561 2.757 . S
O589 C578 1.289 . S
O590 La561 2.470 . S
O590 C579 1.258 . S
O591 La560 2.503 1_545 S
O591 C579 1.256 . S
H592 C564 0.930 . S
H593 C565 0.930 . S
H594 C567 0.929 . S
H595 C568 0.929 . S
H596 C573 0.930 . S
H597 C574 0.930 . S
H598 C576 0.929 . S
H599 C577 0.929 . S
La600 C602 2.928 . S
La600 O620 2.521 . S
La600 O621 2.628 . S
La600 O622 2.554 . S
La600 O623 2.757 . S
La600 O624 2.470 1_554 S
La600 O629 2.482 1_554 S
La600 O631 2.503 . S
La601 C611 2.928 . S
La601 O623 2.482 1_556 S
La601 O625 2.503 . S
La601 O626 2.521 . S
La601 O627 2.628 . S
La601 O628 2.554 . S
La601 O629 2.757 . S
La601 O630 2.470 1_556 S
C602 La600 2.928 . S
C602 C603 1.503 . S
C602 O620 1.261 . S
C602 O621 1.243 . S
C603 C602 1.503 . S
C603 C604 1.394 . S
C603 C608 1.373 . S
C604 C603 1.394 . S
C604 C605 1.380 . S
C604 H632 0.930 . S
C605 C604 1.380 . S
C605 C606 1.376 . S
C605 H633 0.930 . S
C606 C605 1.376 . S
C606 C607 1.370 . S
C607 C606 1.370 . S
C607 C608 1.396 . S
C607 H634 0.968 . S
C608 C603 1.373 . S
C608 C607 1.396 . S
C608 H635 0.929 1_554 S
C609 O622 1.240 . S
C609 O623 1.289 . S
C610 O624 1.258 . S
C610 O625 1.256 . S
C611 La601 2.928 . S
C611 C612 1.503 . S
C611 O626 1.261 . S
C611 O627 1.243 . S
C612 C611 1.503 . S
C612 C613 1.394 . S
C612 C617 1.373 . S
C613 C612 1.394 . S
C613 C614 1.380 . S
C613 H636 0.930 . S
C614 C613 1.380 . S
C614 C615 1.376 . S
C614 H637 0.930 . S
C615 C614 1.376 . S
C615 C616 1.370 . S
C616 C615 1.370 . S
C616 C617 1.396 . S
C616 H638 0.949 . S
C617 C612 1.373 . S
C617 C616 1.396 . S
C617 H639 0.929 1_556 S
C618 O628 1.240 . S
C618 O629 1.289 . S
C619 O630 1.258 . S
C619 O631 1.256 . S
O620 La600 2.521 . S
O620 C602 1.261 . S
O621 La600 2.628 . S
O621 C602 1.243 . S
O622 La600 2.554 . S
O622 C609 1.240 . S
O623 La600 2.757 . S
O623 La601 2.482 1_554 S
O623 C609 1.289 . S
O624 La600 2.470 1_556 S
O624 C610 1.258 . S
O625 La601 2.503 . S
O625 C610 1.256 . S
O626 La601 2.521 . S
O626 C611 1.261 . S
O627 La601 2.628 . S
O627 C611 1.243 . S
O628 La601 2.554 . S
O628 C618 1.240 . S
O629 La600 2.482 1_556 S
O629 La601 2.757 . S
O629 C618 1.289 . S
O630 La601 2.470 1_554 S
O630 C619 1.258 . S
O631 La600 2.503 . S
O631 C619 1.256 . S
H632 C604 0.930 . S
H633 C605 0.930 . S
H634 C607 0.968 . S
H635 C608 0.929 1_556 S
H636 C613 0.930 . S
H637 C614 0.930 . S
H638 C616 0.949 . S
H639 C617 0.929 1_554 S
C640 C641 1.349 . S
C640 C642 1.313 1_655 S
C640 H665 0.950 1_655 S
C641 C640 1.349 . S
C641 C657 1.349 . S
C642 C640 1.313 1_455 S
C642 C661 1.425 1_455 S
C642 H666 0.968 . S
C643 C660 1.574 . S
C643 C662 1.368 . S
C643 H667 0.949 . S
H644 C648 0.949 . S
C645 C646 1.349 1_655 S
C645 C647 1.327 . S
C645 H668 0.950 . S
C646 C645 1.349 1_455 S
C646 C658 1.349 . S
C647 C645 1.327 . S
C647 C663 1.426 1_655 S
C647 H669 0.950 . S
C648 H644 0.949 . S
C648 C656 1.574 . S
C648 C664 1.368 1_455 S
H649 C657 0.950 . S
H650 C655 0.950 . S
H651 C656 0.949 . S
H652 C658 0.950 . S
H653 C659 0.950 . S
H654 C660 0.949 . S
C655 H650 0.950 . S
C655 C657 1.327 . S
C655 C661 1.429 . S
C656 C648 1.574 . S
C656 H651 0.949 . S
C656 C662 1.368 1_455 S
C657 C641 1.349 . S
C657 H649 0.950 . S
C657 C655 1.327 . S
C658 C646 1.349 . S
C658 H652 0.950 . S
C658 C659 1.327 . S
C659 H653 0.950 . S
C659 C658 1.327 . S
C659 C663 1.446 . S
C660 C643 1.574 . S
C660 H654 0.949 . S
C660 C664 1.368 . S
C661 C642 1.425 1_655 S
C661 C655 1.429 . S
C661 C662 1.523 . S
C662 C643 1.368 . S
C662 C656 1.368 1_655 S
C662 C661 1.523 . S
C663 C647 1.426 1_455 S
C663 C659 1.446 . S
C663 C664 1.510 1_455 S
C664 C648 1.368 1_655 S
C664 C660 1.368 . S
C664 C663 1.510 1_655 S
H665 C640 0.950 1_455 S
H666 C642 0.968 . S
H667 C643 0.949 . S
H668 C645 0.950 . S
H669 C647 0.950 . S
C670 C671 1.349 . S
C670 C672 1.327 . S
C670 H695 0.950 . S
C671 C670 1.349 . S
C671 C687 1.349 . S
C672 C670 1.327 . S
C672 C691 1.429 . S
C672 H696 0.950 . S
C673 C690 1.574 . S
C673 C692 1.368 . S
C673 H697 0.949 . S
H674 C678 0.949 . S
C675 C676 1.349 . S
C675 C677 1.327 . S
C675 H698 0.950 . S
C676 C675 1.349 . S
C676 C688 1.349 . S
C677 C675 1.327 . S
C677 C693 1.429 . S
C677 H699 0.950 . S
C678 H674 0.949 . S
C678 C686 1.574 . S
C678 C694 1.368 . S
H679 C687 0.950 . S
H680 C685 0.950 . S
H681 C686 0.949 . S
H682 C688 0.950 . S
H683 C689 0.950 . S
H684 C690 0.949 . S
C685 H680 0.950 . S
C685 C687 1.327 . S
C685 C691 1.429 . S
C686 C678 1.574 . S
C686 H681 0.949 . S
C686 C692 1.368 . S
C687 C671 1.349 . S
C687 H679 0.950 . S
C687 C685 1.327 . S
C688 C676 1.349 . S
C688 H682 0.950 . S
C688 C689 1.327 . S
C689 H683 0.950 . S
C689 C688 1.327 . S
C689 C693 1.429 . S
C690 C673 1.574 . S
C690 H684 0.949 . S
C690 C694 1.368 . S
C691 C672 1.429 . S
C691 C685 1.429 . S
C691 C692 1.523 . S
C692 C673 1.368 . S
C692 C686 1.368 . S
C692 C691 1.523 . S
C693 C677 1.429 . S
C693 C689 1.429 . S
C693 C694 1.523 . S
C694 C678 1.368 . S
C694 C690 1.368 . S
C694 C693 1.523 . S
H695 C670 0.950 . S
H696 C672 0.950 . S
H697 C673 0.949 . S
H698 C675 0.950 . S
H699 C677 0.950 . S
C700 C701 1.349 . S
C700 C702 1.327 . S
C700 H725 0.950 . S
C701 C700 1.349 . S
C701 C717 1.349 . S
C702 C700 1.327 . S
C702 C721 1.429 . S
C702 H726 0.950 . S
C703 C720 1.574 . S
C703 C722 1.368 . S
C703 H727 0.949 . S
H704 C708 0.949 . S
C705 C706 1.349 . S
C705 C707 1.327 . S
C705 H728 0.950 . S
C706 C705 1.349 . S
C706 C718 1.349 . S
C707 C705 1.327 . S
C707 C723 1.429 . S
C707 H729 0.950 . S
C708 H704 0.949 . S
C708 C716 1.574 . S
C708 C724 1.368 . S
H709 C717 0.950 . S
H710 C715 0.950 . S
H711 C716 0.949 . S
H712 C718 0.950 . S
H713 C719 0.950 . S
H714 C720 0.949 . S
C715 H710 0.950 . S
C715 C717 1.327 . S
C715 C721 1.429 . S
C716 C708 1.574 . S
C716 H711 0.949 . S
C716 C722 1.368 . S
C717 C701 1.349 . S
C717 H709 0.950 . S
C717 C715 1.327 . S
C718 C706 1.349 . S
C718 H712 0.950 . S
C718 C719 1.327 . S
C719 H713 0.950 . S
C719 C718 1.327 . S
C719 C723 1.429 . S
C720 C703 1.574 . S
C720 H714 0.949 . S
C720 C724 1.368 . S
C721 C702 1.429 . S
C721 C715 1.429 . S
C721 C722 1.523 . S
C722 C703 1.368 . S
C722 C716 1.368 . S
C722 C721 1.523 . S
C723 C707 1.429 . S
C723 C719 1.429 . S
C723 C724 1.523 . S
C724 C708 1.368 . S
C724 C720 1.368 . S
C724 C723 1.523 . S
H725 C700 0.950 . S
H726 C702 0.950 . S
H727 C703 0.949 . S
H728 C705 0.950 . S
H729 C707 0.950 . S
C730 C731 1.349 . S
C730 C732 1.327 . S
C730 H755 0.950 . S
C731 C730 1.349 . S
C731 C747 1.349 . S
C732 C730 1.327 . S
C732 C751 1.429 . S
C732 H756 0.950 . S
C733 C750 1.574 . S
C733 C752 1.368 . S
C733 H757 0.949 . S
H734 C738 0.978 . S
C735 C736 1.349 1_545 S
C735 C737 1.327 . S
C735 H758 0.950 . S
C736 C735 1.349 1_565 S
C736 C748 1.349 . S
C737 C735 1.327 . S
C737 C753 1.429 . S
C737 H759 0.950 . S
C738 H734 0.978 . S
C738 C746 1.549 1_565 S
C738 C754 1.363 1_565 S
H739 C747 0.950 . S
H740 C745 0.950 . S
H741 C746 0.950 . S
H742 C748 0.950 . S
H743 C749 0.950 . S
H744 C750 0.949 . S
C745 H740 0.950 . S
C745 C747 1.327 . S
C745 C751 1.429 . S
C746 C738 1.549 1_545 S
C746 H741 0.950 . S
C746 C752 1.368 . S
C747 C731 1.349 . S
C747 H739 0.950 . S
C747 C745 1.327 . S
C748 C736 1.349 . S
C748 H742 0.950 . S
C748 C749 1.327 . S
C749 H743 0.950 . S
C749 C748 1.327 . S
C749 C753 1.409 1_565 S
C750 C733 1.574 . S
C750 H744 0.949 . S
C750 C754 1.368 . S
C751 C732 1.429 . S
C751 C745 1.429 . S
C751 C752 1.523 . S
C752 C733 1.368 . S
C752 C746 1.368 . S
C752 C751 1.523 . S
C753 C737 1.429 . S
C753 C749 1.409 1_545 S
C753 C754 1.541 . S
C754 C738 1.363 1_545 S
C754 C750 1.368 . S
C754 C753 1.541 . S
H755 C730 0.950 . S
H756 C732 0.950 . S
H757 C733 0.949 . S
H758 C735 0.950 . S
H759 C737 0.950 . S
C760 C761 1.349 . S
C760 C762 1.327 . S
C760 H785 0.950 . S
C761 C760 1.349 . S
C761 C777 1.349 . S
C762 C760 1.327 . S
C762 C781 1.429 . S
C762 H786 0.950 . S
C763 C780 1.574 . S
C763 C782 1.368 1_545 S
C763 H787 0.949 . S
H764 C768 0.949 . S
C765 C766 1.349 . S
C765 C767 1.327 . S
C765 H788 0.950 . S
C766 C765 1.349 . S
C766 C778 1.349 1_545 S
C767 C765 1.327 . S
C767 C783 1.411 1_545 S
C767 H789 0.950 . S
C768 H764 0.949 . S
C768 C776 1.574 . S
C768 C784 1.368 . S
H769 C777 0.950 1_545 S
H770 C775 0.984 . S
H771 C776 0.949 . S
H772 C778 0.950 . S
H773 C779 0.950 . S
H774 C780 0.949 . S
C775 H770 0.984 . S
C775 C777 1.309 1_545 S
C775 C781 1.414 1_545 S
C776 C768 1.574 . S
C776 H771 0.949 . S
C776 C782 1.368 . S
C777 C761 1.349 . S
C777 H769 0.950 1_565 S
C777 C775 1.309 1_565 S
C778 C766 1.349 1_565 S
C778 H772 0.950 . S
C778 C779 1.327 . S
C779 H773 0.950 . S
C779 C778 1.327 . S
C779 C783 1.436 . S
C780 C763 1.574 . S
C780 H774 0.949 . S
C780 C784 1.368 1_545 S
C781 C762 1.429 . S
C781 C775 1.414 1_565 S
C781 C782 1.523 . S
C782 C763 1.368 1_565 S
C782 C776 1.368 . S
C782 C781 1.523 . S
C783 C767 1.411 1_565 S
C783 C779 1.436 . S
C783 C784 1.532 . S
C784 C768 1.368 . S
C784 C780 1.368 1_565 S
C784 C783 1.532 . S
H785 C760 0.950 . S
H786 C762 0.950 . S
H787 C763 0.949 . S
H788 C765 0.950 . S
H789 C767 0.950 . S
C790 C791 1.349 . S
C790 C792 1.327 . S
C790 H815 0.950 . S
C791 C790 1.349 . S
C791 C807 1.349 1_455 S
C792 C790 1.327 . S
C792 C811 1.429 . S
C792 H816 0.950 . S
C793 C810 1.574 . S
C793 C812 1.368 1_655 S
C793 H817 0.949 . S
H794 C798 0.949 . S
C795 C796 1.349 . S
C795 C797 1.327 . S
C795 H818 0.950 . S
C796 C795 1.349 . S
C796 C808 1.349 1_655 S
C797 C795 1.327 . S
C797 C813 1.438 . S
C797 H819 0.950 . S
C798 H794 0.949 . S
C798 C806 1.574 . S
C798 C814 1.368 . S
H799 C807 0.950 . S
H800 C805 0.950 . S
H801 C806 0.949 . S
H802 C808 0.950 . S
H803 C809 0.950 . S
H804 C810 0.949 . S
C805 H800 0.950 . S
C805 C807 1.327 . S
C805 C811 1.429 1_655 S
C806 C798 1.574 . S
C806 H801 0.949 . S
C806 C812 1.368 . S
C807 C791 1.349 1_655 S
C807 H799 0.950 . S
C807 C805 1.327 . S
C808 C796 1.349 1_455 S
C808 H802 0.950 . S
C808 C809 1.327 . S
C809 H803 0.950 . S
C809 C808 1.327 . S
C809 C813 1.425 1_455 S
C810 C793 1.574 . S
C810 H804 0.949 . S
C810 C814 1.368 1_655 S
C811 C792 1.429 . S
C811 C805 1.429 1_455 S
C811 C812 1.523 . S
C812 C793 1.368 1_455 S
C812 C806 1.368 . S
C812 C811 1.523 . S
C813 C797 1.438 . S
C813 C809 1.425 1_655 S
C813 C814 1.518 1_655 S
C814 C798 1.368 . S
C814 C810 1.368 1_455 S
C814 C813 1.518 1_455 S
H815 C790 0.950 . S
H816 C792 0.950 . S
H817 C793 0.949 . S
H818 C795 0.950 . S
H819 C797 0.950 . S
C820 C821 1.349 . S
C820 C822 1.327 . S
C820 H845 0.950 . S
C821 C820 1.349 . S
C821 C837 1.349 . S
C822 C820 1.327 . S
C822 C841 1.429 . S
C822 H846 0.950 . S
C823 C840 1.574 . S
C823 C842 1.368 . S
C823 H847 0.949 . S
H824 C828 0.949 . S
C825 C826 1.349 . S
C825 C827 1.327 . S
C825 H848 0.950 . S
C826 C825 1.349 . S
C826 C838 1.349 . S
C827 C825 1.327 . S
C827 C843 1.429 . S
C827 H849 0.950 . S
C828 H824 0.949 . S
C828 C836 1.574 . S
C828 C844 1.368 . S
H829 C837 0.950 . S
H830 C835 0.950 . S
H831 C836 0.949 . S
H832 C838 0.950 . S
H833 C839 0.950 . S
H834 C840 0.949 . S
C835 H830 0.950 . S
C835 C837 1.327 . S
C835 C841 1.429 . S
C836 C828 1.574 . S
C836 H831 0.949 . S
C836 C842 1.368 . S
C837 C821 1.349 . S
C837 H829 0.950 . S
C837 C835 1.327 . S
C838 C826 1.349 . S
C838 H832 0.950 . S
C838 C839 1.327 . S
C839 H833 0.950 . S
C839 C838 1.327 . S
C839 C843 1.429 . S
C840 C823 1.574 . S
C840 H834 0.949 . S
C840 C844 1.368 . S
C841 C822 1.429 . S
C841 C835 1.429 . S
C841 C842 1.523 . S
C842 C823 1.368 . S
C842 C836 1.368 . S
C842 C841 1.523 . S
C843 C827 1.429 . S
C843 C839 1.429 . S
C843 C844 1.523 . S
C844 C828 1.368 . S
C844 C840 1.368 . S
C844 C843 1.523 . S
H845 C820 0.950 . S
H846 C822 0.950 . S
H847 C823 0.949 . S
H848 C825 0.950 . S
H849 C827 0.950 . S
C850 C851 1.349 . S
C850 C852 1.327 . S
C850 H875 0.950 . S
C851 C850 1.349 . S
C851 C867 1.349 . S
C852 C850 1.327 . S
C852 C871 1.429 . S
C852 H876 0.950 . S
C853 C870 1.574 . S
C853 C872 1.368 . S
C853 H877 0.949 . S
H854 C858 0.949 . S
C855 C856 1.349 . S
C855 C857 1.327 . S
C855 H878 0.950 . S
C856 C855 1.349 . S
C856 C868 1.349 . S
C857 C855 1.327 . S
C857 C873 1.429 . S
C857 H879 0.950 . S
C858 H854 0.949 . S
C858 C866 1.574 . S
C858 C874 1.368 . S
H859 C867 0.950 . S
H860 C865 0.950 . S
H861 C866 0.949 . S
H862 C868 0.950 . S
H863 C869 0.950 . S
H864 C870 0.949 . S
C865 H860 0.950 . S
C865 C867 1.327 . S
C865 C871 1.429 . S
C866 C858 1.574 . S
C866 H861 0.949 . S
C866 C872 1.368 . S
C867 C851 1.349 . S
C867 H859 0.950 . S
C867 C865 1.327 . S
C868 C856 1.349 . S
C868 H862 0.950 . S
C868 C869 1.327 . S
C869 H863 0.950 . S
C869 C868 1.327 . S
C869 C873 1.429 . S
C870 C853 1.574 . S
C870 H864 0.949 . S
C870 C874 1.368 . S
C871 C852 1.429 . S
C871 C865 1.429 . S
C871 C872 1.523 . S
C872 C853 1.368 . S
C872 C866 1.368 . S
C872 C871 1.523 . S
C873 C857 1.429 . S
C873 C869 1.429 . S
C873 C874 1.523 . S
C874 C858 1.368 . S
C874 C870 1.368 . S
C874 C873 1.523 . S
H875 C850 0.950 . S
H876 C852 0.950 . S
H877 C853 0.949 . S
H878 C855 0.950 . S
H879 C857 0.950 . S
C880 C881 1.349 . S
C880 C882 1.327 . S
C880 H905 0.950 . S
C881 C880 1.349 . S
C881 C897 1.349 . S
C882 C880 1.327 . S
C882 C901 1.429 . S
C882 H906 0.950 . S
C883 C900 1.574 . S
C883 C902 1.368 . S
C883 H907 0.949 . S
H884 C888 0.949 . S
C885 C886 1.349 . S
C885 C887 1.327 . S
C885 H908 0.950 . S
C886 C885 1.349 . S
C886 C898 1.349 . S
C887 C885 1.327 . S
C887 C903 1.429 . S
C887 H909 0.950 . S
C888 H884 0.949 . S
C888 C896 1.574 . S
C888 C904 1.368 . S
H889 C897 0.950 . S
H890 C895 0.950 . S
H891 C896 0.949 . S
H892 C898 0.950 . S
H893 C899 0.950 . S
H894 C900 0.949 . S
C895 H890 0.950 . S
C895 C897 1.327 . S
C895 C901 1.429 . S
C896 C888 1.574 . S
C896 H891 0.949 . S
C896 C902 1.368 . S
C897 C881 1.349 . S
C897 H889 0.950 . S
C897 C895 1.327 . S
C898 C886 1.349 . S
C898 H892 0.950 . S
C898 C899 1.327 . S
C899 H893 0.950 . S
C899 C898 1.327 . S
C899 C903 1.429 . S
C900 C883 1.574 . S
C900 H894 0.949 . S
C900 C904 1.368 . S
C901 C882 1.429 . S
C901 C895 1.429 . S
C901 C902 1.523 . S
C902 C883 1.368 . S
C902 C896 1.368 . S
C902 C901 1.523 . S
C903 C887 1.429 . S
C903 C899 1.429 . S
C903 C904 1.523 . S
C904 C888 1.368 . S
C904 C900 1.368 . S
C904 C903 1.523 . S
H905 C880 0.950 . S
H906 C882 0.950 . S
H907 C883 0.949 . S
H908 C885 0.950 . S
H909 C887 0.950 . S
C910 C911 1.349 . S
C910 C912 1.327 . S
C910 H935 0.950 . S
C911 C910 1.349 . S
C911 C927 1.349 . S
C912 C910 1.327 . S
C912 C931 1.429 . S
C912 H936 0.950 . S
C913 C930 1.574 . S
C913 C932 1.368 . S
C913 H937 0.949 . S
H914 C918 0.949 . S
C915 C916 1.349 . S
C915 C917 1.327 . S
C915 H938 0.950 . S
C916 C915 1.349 . S
C916 C928 1.349 . S
C917 C915 1.327 . S
C917 C933 1.429 . S
C917 H939 0.950 . S
C918 H914 0.949 . S
C918 C926 1.574 . S
C918 C934 1.368 . S
H919 C927 0.950 . S
H920 C925 0.950 . S
H921 C926 0.949 . S
H922 C928 0.950 . S
H923 C929 0.950 . S
H924 C930 0.949 . S
C925 H920 0.950 . S
C925 C927 1.327 . S
C925 C931 1.429 . S
C926 C918 1.574 . S
C926 H921 0.949 . S
C926 C932 1.368 . S
C927 C911 1.349 . S
C927 H919 0.950 . S
C927 C925 1.327 . S
C928 C916 1.349 . S
C928 H922 0.950 . S
C928 C929 1.327 . S
C929 H923 0.950 . S
C929 C928 1.327 . S
C929 C933 1.429 . S
C930 C913 1.574 . S
C930 H924 0.949 . S
C930 C934 1.368 . S
C931 C912 1.429 . S
C931 C925 1.429 . S
C931 C932 1.523 . S
C932 C913 1.368 . S
C932 C926 1.368 . S
C932 C931 1.523 . S
C933 C917 1.429 . S
C933 C929 1.429 . S
C933 C934 1.523 . S
C934 C918 1.368 . S
C934 C930 1.368 . S
C934 C933 1.523 . S
H935 C910 0.950 . S
H936 C912 0.950 . S
H937 C913 0.949 . S
H938 C915 0.950 . S
H939 C917 0.950 . S
C940 C941 1.349 . S
C940 C942 1.327 . S
C940 H965 0.950 . S
C941 C940 1.349 . S
C941 C957 1.349 . S
C942 C940 1.327 . S
C942 C961 1.429 . S
C942 H966 0.950 . S
C943 C960 1.574 . S
C943 C962 1.368 1_545 S
C943 H967 0.949 . S
H944 C948 0.949 . S
C945 C946 1.349 . S
C945 C947 1.327 . S
C945 H968 0.950 . S
C946 C945 1.349 . S
C946 C958 1.349 1_545 S
C947 C945 1.327 . S
C947 C963 1.412 1_545 S
C947 H969 0.950 . S
C948 H944 0.949 . S
C948 C956 1.574 . S
C948 C964 1.368 . S
H949 C957 0.950 1_545 S
H950 C955 0.931 1_545 S
H951 C956 0.949 . S
H952 C958 0.950 . S
H953 C959 0.950 . S
H954 C960 0.949 . S
C955 H950 0.931 1_565 S
C955 C957 1.338 . S
C955 C961 1.436 . S
C956 C948 1.574 . S
C956 H951 0.949 . S
C956 C962 1.368 . S
C957 C941 1.349 . S
C957 H949 0.950 1_565 S
C957 C955 1.338 . S
C958 C946 1.349 1_565 S
C958 H952 0.950 . S
C958 C959 1.327 . S
C959 H953 0.950 . S
C959 C958 1.327 . S
C959 C963 1.435 . S
C960 C943 1.574 . S
C960 H954 0.949 . S
C960 C964 1.368 1_545 S
C961 C942 1.429 . S
C961 C955 1.436 . S
C961 C962 1.523 . S
C962 C943 1.368 1_565 S
C962 C956 1.368 . S
C962 C961 1.523 . S
C963 C947 1.412 1_565 S
C963 C959 1.435 . S
C963 C964 1.532 . S
C964 C948 1.368 . S
C964 C960 1.368 1_565 S
C964 C963 1.532 . S
H965 C940 0.950 . S
H966 C942 0.950 . S
H967 C943 0.949 . S
H968 C945 0.950 . S
H969 C947 0.950 . S
C970 C971 1.349 . S
C970 C972 1.327 . S
C970 H995 0.950 . S
C971 C970 1.349 . S
C971 C987 1.349 . S
C972 C970 1.327 . S
C972 C991 1.429 . S
C972 H996 0.950 . S
C973 C990 1.574 . S
C973 C992 1.368 1_655 S
C973 H997 0.949 . S
H974 C978 0.949 . S
C975 C976 1.349 . S
C975 C977 1.327 . S
C975 H998 0.950 . S
C976 C975 1.349 . S
C976 C988 1.349 1_655 S
C977 C975 1.327 . S
C977 C993 1.435 . S
C977 H999 0.950 . S
C978 H974 0.949 . S
C978 C986 1.574 . S
C978 C994 1.368 . S
H979 C987 0.950 . S
H980 C985 0.950 1_655 S
H981 C986 0.949 . S
H982 C988 0.950 . S
H983 C989 0.950 . S
H984 C990 0.949 . S
C985 H980 0.950 1_455 S
C985 C987 1.327 . S
C985 C991 1.429 . S
C986 C978 1.574 . S
C986 H981 0.949 . S
C986 C992 1.368 . S
C987 C971 1.349 . S
C987 H979 0.950 . S
C987 C985 1.327 . S
C988 C976 1.349 1_455 S
C988 H982 0.950 . S
C988 C989 1.327 . S
C989 H983 0.950 . S
C989 C988 1.327 . S
C989 C993 1.427 1_455 S
C990 C973 1.574 . S
C990 H984 0.949 . S
C990 C994 1.368 1_655 S
C991 C972 1.429 . S
C991 C985 1.429 . S
C991 C992 1.523 . S
C992 C973 1.368 1_455 S
C992 C986 1.368 . S
C992 C991 1.523 . S
C993 C977 1.435 . S
C993 C989 1.427 1_655 S
C993 C994 1.518 1_655 S
C994 C978 1.368 . S
C994 C990 1.368 1_455 S
C994 C993 1.518 1_455 S
H995 C970 0.950 . S
H996 C972 0.950 . S
H997 C973 0.949 . S
H998 C975 0.950 . S
H999 C977 0.950 . S
C1000 C1001 1.349 . S
C1000 C1002 1.327 . S
C1000 H1025 0.950 . S
C1001 C1000 1.349 . S
C1001 C1017 1.349 . S
C1002 C1000 1.327 . S
C1002 C1021 1.429 . S
C1002 H1026 0.950 . S
C1003 C1020 1.574 . S
C1003 C1022 1.368 . S
C1003 H1027 0.949 . S
H1004 C1008 0.949 1_554 S
C1005 C1006 1.349 . S
C1005 C1007 1.327 . S
C1005 H1028 0.950 . S
C1006 C1005 1.349 . S
C1006 C1018 1.349 1_556 S
C1007 C1005 1.327 . S
C1007 C1023 1.429 . S
C1007 H1029 0.950 . S
C1008 H1004 0.949 1_556 S
C1008 C1016 1.574 . S
C1008 C1024 1.368 . S
H1009 C1017 0.950 . S
H1010 C1015 0.950 . S
H1011 C1016 0.949 . S
H1012 C1018 0.950 . S
H1013 C1019 0.950 1_554 S
H1014 C1020 0.949 . S
C1015 H1010 0.950 . S
C1015 C1017 1.327 . S
C1015 C1021 1.429 . S
C1016 C1008 1.574 . S
C1016 H1011 0.949 . S
C1016 C1022 1.368 . S
C1017 C1001 1.349 . S
C1017 H1009 0.950 . S
C1017 C1015 1.327 . S
C1018 C1006 1.349 1_554 S
C1018 H1012 0.950 . S
C1018 C1019 1.328 1_554 S
C1019 H1013 0.950 1_556 S
C1019 C1018 1.328 1_556 S
C1019 C1023 1.428 . S
C1020 C1003 1.574 . S
C1020 H1014 0.949 . S
C1020 C1024 1.368 . S
C1021 C1002 1.429 . S
C1021 C1015 1.429 . S
C1021 C1022 1.523 . S
C1022 C1003 1.368 . S
C1022 C1016 1.368 . S
C1022 C1021 1.523 . S
C1023 C1007 1.429 . S
C1023 C1019 1.428 . S
C1023 C1024 1.523 . S
C1024 C1008 1.368 . S
C1024 C1020 1.368 . S
C1024 C1023 1.523 . S
H1025 C1000 0.950 . S
H1026 C1002 0.950 . S
H1027 C1003 0.949 . S
H1028 C1005 0.950 . S
H1029 C1007 0.950 . S
C1030 C1031 1.349 . S
C1030 C1032 1.327 . S
C1030 H1055 0.950 . S
C1031 C1030 1.349 . S
C1031 C1047 1.349 . S
C1032 C1030 1.327 . S
C1032 C1051 1.429 . S
C1032 H1056 0.950 . S
C1033 C1050 1.574 . S
C1033 C1052 1.368 . S
C1033 H1057 0.949 . S
H1034 C1038 0.949 . S
C1035 C1036 1.349 . S
C1035 C1037 1.327 . S
C1035 H1058 0.950 . S
C1036 C1035 1.349 . S
C1036 C1048 1.349 . S
C1037 C1035 1.327 . S
C1037 C1053 1.429 . S
C1037 H1059 0.950 . S
C1038 H1034 0.949 . S
C1038 C1046 1.574 . S
C1038 C1054 1.368 . S
H1039 C1047 0.950 . S
H1040 C1045 0.950 . S
H1041 C1046 0.949 . S
H1042 C1048 0.950 . S
H1043 C1049 0.950 . S
H1044 C1050 0.949 . S
C1045 H1040 0.950 . S
C1045 C1047 1.327 . S
C1045 C1051 1.429 . S
C1046 C1038 1.574 . S
C1046 H1041 0.949 . S
C1046 C1052 1.368 . S
C1047 C1031 1.349 . S
C1047 H1039 0.950 . S
C1047 C1045 1.327 . S
C1048 C1036 1.349 . S
C1048 H1042 0.950 . S
C1048 C1049 1.327 . S
C1049 H1043 0.950 . S
C1049 C1048 1.327 . S
C1049 C1053 1.429 . S
C1050 C1033 1.574 . S
C1050 H1044 0.949 . S
C1050 C1054 1.368 . S
C1051 C1032 1.429 . S
C1051 C1045 1.429 . S
C1051 C1052 1.523 . S
C1052 C1033 1.368 . S
C1052 C1046 1.368 . S
C1052 C1051 1.523 . S
C1053 C1037 1.429 . S
C1053 C1049 1.429 . S
C1053 C1054 1.523 . S
C1054 C1038 1.368 . S
C1054 C1050 1.368 . S
C1054 C1053 1.523 . S
H1055 C1030 0.950 . S
H1056 C1032 0.950 . S
H1057 C1033 0.949 . S
H1058 C1035 0.950 . S
H1059 C1037 0.950 . S
C1060 C1061 1.349 . S
C1060 C1062 1.327 . S
C1060 H1085 0.950 . S
C1061 C1060 1.349 . S
C1061 C1077 1.349 . S
C1062 C1060 1.327 . S
C1062 C1081 1.429 . S
C1062 H1086 0.950 . S
C1063 C1080 1.574 . S
C1063 C1082 1.368 . S
C1063 H1087 0.949 . S
H1064 C1068 0.949 . S
C1065 C1066 1.349 . S
C1065 C1067 1.327 . S
C1065 H1088 0.950 . S
C1066 C1065 1.349 . S
C1066 C1078 1.349 . S
C1067 C1065 1.327 . S
C1067 C1083 1.429 . S
C1067 H1089 0.950 . S
C1068 H1064 0.949 . S
C1068 C1076 1.574 . S
C1068 C1084 1.368 . S
H1069 C1077 0.950 . S
H1070 C1075 0.950 . S
H1071 C1076 0.949 . S
H1072 C1078 0.950 . S
H1073 C1079 0.950 . S
H1074 C1080 0.949 . S
C1075 H1070 0.950 . S
C1075 C1077 1.327 . S
C1075 C1081 1.429 . S
C1076 C1068 1.574 . S
C1076 H1071 0.949 . S
C1076 C1082 1.368 . S
C1077 C1061 1.349 . S
C1077 H1069 0.950 . S
C1077 C1075 1.327 . S
C1078 C1066 1.349 . S
C1078 H1072 0.950 . S
C1078 C1079 1.327 . S
C1079 H1073 0.950 . S
C1079 C1078 1.327 . S
C1079 C1083 1.429 . S
C1080 C1063 1.574 . S
C1080 H1074 0.949 . S
C1080 C1084 1.368 . S
C1081 C1062 1.429 . S
C1081 C1075 1.429 . S
C1081 C1082 1.523 . S
C1082 C1063 1.368 . S
C1082 C1076 1.368 . S
C1082 C1081 1.523 . S
C1083 C1067 1.429 . S
C1083 C1079 1.429 . S
C1083 C1084 1.523 . S
C1084 C1068 1.368 . S
C1084 C1080 1.368 . S
C1084 C1083 1.523 . S
H1085 C1060 0.950 . S
H1086 C1062 0.950 . S
H1087 C1063 0.949 . S
H1088 C1065 0.950 . S
H1089 C1067 0.950 . S
C1090 C1091 1.349 . S
C1090 C1092 1.327 . S
C1090 H1115 0.950 . S
C1091 C1090 1.349 . S
C1091 C1107 1.349 . S
C1092 C1090 1.327 . S
C1092 C1111 1.429 . S
C1092 H1116 0.950 . S
C1093 C1110 1.574 . S
C1093 C1112 1.368 . S
C1093 H1117 0.949 . S
H1094 C1098 0.949 . S
C1095 C1096 1.349 . S
C1095 C1097 1.327 . S
C1095 H1118 0.950 . S
C1096 C1095 1.349 . S
C1096 C1108 1.349 . S
C1097 C1095 1.327 . S
C1097 C1113 1.429 . S
C1097 H1119 0.950 . S
C1098 H1094 0.949 . S
C1098 C1106 1.574 . S
C1098 C1114 1.368 . S
H1099 C1107 0.950 . S
H1100 C1105 0.950 . S
H1101 C1106 0.949 . S
H1102 C1108 0.950 . S
H1103 C1109 0.950 . S
H1104 C1110 0.949 . S
C1105 H1100 0.950 . S
C1105 C1107 1.327 . S
C1105 C1111 1.429 . S
C1106 C1098 1.574 . S
C1106 H1101 0.949 . S
C1106 C1112 1.368 . S
C1107 C1091 1.349 . S
C1107 H1099 0.950 . S
C1107 C1105 1.327 . S
C1108 C1096 1.349 . S
C1108 H1102 0.950 . S
C1108 C1109 1.327 . S
C1109 H1103 0.950 . S
C1109 C1108 1.327 . S
C1109 C1113 1.429 . S
C1110 C1093 1.574 . S
C1110 H1104 0.949 . S
C1110 C1114 1.368 . S
C1111 C1092 1.429 . S
C1111 C1105 1.429 . S
C1111 C1112 1.523 . S
C1112 C1093 1.368 . S
C1112 C1106 1.368 . S
C1112 C1111 1.523 . S
C1113 C1097 1.429 . S
C1113 C1109 1.429 . S
C1113 C1114 1.523 . S
C1114 C1098 1.368 . S
C1114 C1110 1.368 . S
C1114 C1113 1.523 . S
H1115 C1090 0.950 . S
H1116 C1092 0.950 . S
H1117 C1093 0.949 . S
H1118 C1095 0.950 . S
H1119 C1097 0.950 . S
C1120 C1121 1.349 . S
C1120 C1122 1.327 . S
C1120 H1145 0.950 . S
C1121 C1120 1.349 . S
C1121 C1137 1.349 . S
C1122 C1120 1.327 . S
C1122 C1141 1.429 . S
C1122 H1146 0.950 . S
C1123 C1140 1.574 . S
C1123 C1142 1.368 . S
C1123 H1147 0.949 . S
H1124 C1128 0.949 . S
C1125 C1126 1.349 . S
C1125 C1127 1.327 . S
C1125 H1148 0.950 . S
C1126 C1125 1.349 . S
C1126 C1138 1.349 . S
C1127 C1125 1.327 . S
C1127 C1143 1.429 . S
C1127 H1149 0.950 . S
C1128 H1124 0.949 . S
C1128 C1136 1.574 . S
C1128 C1144 1.368 . S
H1129 C1137 0.950 . S
H1130 C1135 0.950 . S
H1131 C1136 0.949 . S
H1132 C1138 0.950 . S
H1133 C1139 0.950 . S
H1134 C1140 0.949 . S
C1135 H1130 0.950 . S
C1135 C1137 1.327 . S
C1135 C1141 1.429 . S
C1136 C1128 1.574 . S
C1136 H1131 0.949 . S
C1136 C1142 1.368 . S
C1137 C1121 1.349 . S
C1137 H1129 0.950 . S
C1137 C1135 1.327 . S
C1138 C1126 1.349 . S
C1138 H1132 0.950 . S
C1138 C1139 1.327 . S
C1139 H1133 0.950 . S
C1139 C1138 1.327 . S
C1139 C1143 1.429 . S
C1140 C1123 1.574 . S
C1140 H1134 0.949 . S
C1140 C1144 1.368 . S
C1141 C1122 1.429 . S
C1141 C1135 1.429 . S
C1141 C1142 1.523 . S
C1142 C1123 1.368 . S
C1142 C1136 1.368 . S
C1142 C1141 1.523 . S
C1143 C1127 1.429 . S
C1143 C1139 1.429 . S
C1143 C1144 1.523 . S
C1144 C1128 1.368 . S
C1144 C1140 1.368 . S
C1144 C1143 1.523 . S
H1145 C1120 0.950 . S
H1146 C1122 0.950 . S
H1147 C1123 0.949 . S
H1148 C1125 0.950 . S
H1149 C1127 0.950 . S
C1150 C1151 1.349 . S
C1150 C1152 1.327 . S
C1150 H1175 0.950 . S
C1151 C1150 1.349 . S
C1151 C1167 1.349 . S
C1152 C1150 1.327 . S
C1152 C1171 1.429 . S
C1152 H1176 0.950 . S
C1153 C1170 1.574 . S
C1153 C1172 1.368 . S
C1153 H1177 0.949 . S
H1154 C1158 0.949 . S
C1155 C1156 1.349 . S
C1155 C1157 1.327 . S
C1155 H1178 0.950 . S
C1156 C1155 1.349 . S
C1156 C1168 1.349 . S
C1157 C1155 1.327 . S
C1157 C1173 1.429 . S
C1157 H1179 0.950 . S
C1158 H1154 0.949 . S
C1158 C1166 1.574 . S
C1158 C1174 1.368 . S
H1159 C1167 0.950 . S
H1160 C1165 0.950 . S
H1161 C1166 0.949 . S
H1162 C1168 0.950 . S
H1163 C1169 0.950 . S
H1164 C1170 0.949 . S
C1165 H1160 0.950 . S
C1165 C1167 1.327 . S
C1165 C1171 1.429 . S
C1166 C1158 1.574 . S
C1166 H1161 0.949 . S
C1166 C1172 1.368 . S
C1167 C1151 1.349 . S
C1167 H1159 0.950 . S
C1167 C1165 1.327 . S
C1168 C1156 1.349 . S
C1168 H1162 0.950 . S
C1168 C1169 1.327 . S
C1169 H1163 0.950 . S
C1169 C1168 1.327 . S
C1169 C1173 1.429 . S
C1170 C1153 1.574 . S
C1170 H1164 0.949 . S
C1170 C1174 1.368 . S
C1171 C1152 1.429 . S
C1171 C1165 1.429 . S
C1171 C1172 1.523 . S
C1172 C1153 1.368 . S
C1172 C1166 1.368 . S
C1172 C1171 1.523 . S
C1173 C1157 1.429 . S
C1173 C1169 1.429 . S
C1173 C1174 1.523 . S
C1174 C1158 1.368 . S
C1174 C1170 1.368 . S
C1174 C1173 1.523 . S
H1175 C1150 0.950 . S
H1176 C1152 0.950 . S
H1177 C1153 0.949 . S
H1178 C1155 0.950 . S
H1179 C1157 0.950 . S
C1180 C1181 1.349 . S
C1180 C1182 1.327 . S
C1180 H1205 0.950 . S
C1181 C1180 1.349 . S
C1181 C1197 1.349 . S
C1182 C1180 1.327 . S
C1182 C1201 1.429 . S
C1182 H1206 0.950 . S
C1183 C1200 1.574 . S
C1183 C1202 1.368 . S
C1183 H1207 0.949 . S
H1184 C1188 0.949 . S
C1185 C1186 1.349 . S
C1185 C1187 1.327 . S
C1185 H1208 0.950 . S
C1186 C1185 1.349 . S
C1186 C1198 1.349 . S
C1187 C1185 1.327 . S
C1187 C1203 1.429 . S
C1187 H1209 0.950 . S
C1188 H1184 0.949 . S
C1188 C1196 1.574 . S
C1188 C1204 1.368 . S
H1189 C1197 0.950 . S
H1190 C1195 0.950 . S
H1191 C1196 0.949 . S
H1192 C1198 0.950 . S
H1193 C1199 0.950 . S
H1194 C1200 0.949 . S
C1195 H1190 0.950 . S
C1195 C1197 1.327 . S
C1195 C1201 1.429 . S
C1196 C1188 1.574 . S
C1196 H1191 0.949 . S
C1196 C1202 1.368 . S
C1197 C1181 1.349 . S
C1197 H1189 0.950 . S
C1197 C1195 1.327 . S
C1198 C1186 1.349 . S
C1198 H1192 0.950 . S
C1198 C1199 1.327 . S
C1199 H1193 0.950 . S
C1199 C1198 1.327 . S
C1199 C1203 1.429 . S
C1200 C1183 1.574 . S
C1200 H1194 0.949 . S
C1200 C1204 1.368 . S
C1201 C1182 1.429 . S
C1201 C1195 1.429 . S
C1201 C1202 1.523 . S
C1202 C1183 1.368 . S
C1202 C1196 1.368 . S
C1202 C1201 1.523 . S
C1203 C1187 1.429 . S
C1203 C1199 1.429 . S
C1203 C1204 1.523 . S
C1204 C1188 1.368 . S
C1204 C1200 1.368 . S
C1204 C1203 1.523 . S
H1205 C1180 0.950 . S
H1206 C1182 0.950 . S
H1207 C1183 0.949 . S
H1208 C1185 0.950 . S
H1209 C1187 0.950 . S
C1210 C1211 1.349 . S
C1210 C1212 1.327 . S
C1210 H1235 0.950 . S
C1211 C1210 1.349 . S
C1211 C1227 1.349 . S
C1212 C1210 1.327 . S
C1212 C1231 1.429 . S
C1212 H1236 0.950 . S
C1213 C1230 1.574 . S
C1213 C1232 1.368 . S
C1213 H1237 0.949 . S
H1214 C1218 0.949 . S
C1215 C1216 1.349 . S
C1215 C1217 1.327 . S
C1215 H1238 0.950 . S
C1216 C1215 1.349 . S
C1216 C1228 1.349 . S
C1217 C1215 1.327 . S
C1217 C1233 1.429 . S
C1217 H1239 0.950 . S
C1218 H1214 0.949 . S
C1218 C1226 1.574 . S
C1218 C1234 1.368 . S
H1219 C1227 0.950 . S
H1220 C1225 0.950 . S
H1221 C1226 0.949 . S
H1222 C1228 0.950 . S
H1223 C1229 0.950 . S
H1224 C1230 0.949 . S
C1225 H1220 0.950 . S
C1225 C1227 1.327 . S
C1225 C1231 1.429 . S
C1226 C1218 1.574 . S
C1226 H1221 0.949 . S
C1226 C1232 1.368 . S
C1227 C1211 1.349 . S
C1227 H1219 0.950 . S
C1227 C1225 1.327 . S
C1228 C1216 1.349 . S
C1228 H1222 0.950 . S
C1228 C1229 1.327 . S
C1229 H1223 0.950 . S
C1229 C1228 1.327 . S
C1229 C1233 1.429 . S
C1230 C1213 1.574 . S
C1230 H1224 0.949 . S
C1230 C1234 1.368 . S
C1231 C1212 1.429 . S
C1231 C1225 1.429 . S
C1231 C1232 1.523 . S
C1232 C1213 1.368 . S
C1232 C1226 1.368 . S
C1232 C1231 1.523 . S
C1233 C1217 1.429 . S
C1233 C1229 1.429 . S
C1233 C1234 1.523 . S
C1234 C1218 1.368 . S
C1234 C1230 1.368 . S
C1234 C1233 1.523 . S
H1235 C1210 0.950 . S
H1236 C1212 0.950 . S
H1237 C1213 0.949 . S
H1238 C1215 0.950 . S
H1239 C1217 0.950 . S
C1240 C1241 1.349 . S
C1240 C1242 1.327 . S
C1240 H1265 0.950 . S
C1241 C1240 1.349 . S
C1241 C1257 1.349 . S
C1242 C1240 1.327 . S
C1242 C1261 1.429 . S
C1242 H1266 0.950 . S
C1243 C1260 1.574 . S
C1243 C1262 1.368 . S
C1243 H1267 0.949 . S
H1244 C1248 0.949 . S
C1245 C1246 1.349 . S
C1245 C1247 1.327 . S
C1245 H1268 0.950 . S
C1246 C1245 1.349 . S
C1246 C1258 1.349 . S
C1247 C1245 1.327 . S
C1247 C1263 1.429 . S
C1247 H1269 0.950 . S
C1248 H1244 0.949 . S
C1248 C1256 1.574 . S
C1248 C1264 1.368 . S
H1249 C1257 0.950 . S
H1250 C1255 0.950 . S
H1251 C1256 0.949 . S
H1252 C1258 0.950 . S
H1253 C1259 0.950 . S
H1254 C1260 0.949 . S
C1255 H1250 0.950 . S
C1255 C1257 1.327 . S
C1255 C1261 1.429 . S
C1256 C1248 1.574 . S
C1256 H1251 0.949 . S
C1256 C1262 1.368 . S
C1257 C1241 1.349 . S
C1257 H1249 0.950 . S
C1257 C1255 1.327 . S
C1258 C1246 1.349 . S
C1258 H1252 0.950 . S
C1258 C1259 1.327 . S
C1259 H1253 0.950 . S
C1259 C1258 1.327 . S
C1259 C1263 1.429 . S
C1260 C1243 1.574 . S
C1260 H1254 0.949 . S
C1260 C1264 1.368 . S
C1261 C1242 1.429 . S
C1261 C1255 1.429 . S
C1261 C1262 1.523 . S
C1262 C1243 1.368 . S
C1262 C1256 1.368 . S
C1262 C1261 1.523 . S
C1263 C1247 1.429 . S
C1263 C1259 1.429 . S
C1263 C1264 1.523 . S
C1264 C1248 1.368 . S
C1264 C1260 1.368 . S
C1264 C1263 1.523 . S
H1265 C1240 0.950 . S
H1266 C1242 0.950 . S
H1267 C1243 0.949 . S
H1268 C1245 0.950 . S
H1269 C1247 0.950 . S
C1270 C1271 1.349 . S
C1270 C1272 1.327 . S
C1270 H1295 0.950 . S
C1271 C1270 1.349 . S
C1271 C1287 1.349 1_455 S
C1272 C1270 1.327 . S
C1272 C1291 1.445 . S
C1272 H1296 0.950 . S
C1273 C1290 1.574 . S
C1273 C1292 1.368 . S
C1273 H1297 0.949 . S
H1274 C1278 0.949 . S
C1275 C1276 1.349 . S
C1275 C1277 1.327 . S
C1275 H1298 0.950 . S
C1276 C1275 1.349 . S
C1276 C1288 1.349 . S
C1277 C1275 1.327 . S
C1277 C1293 1.429 . S
C1277 H1299 0.950 . S
C1278 H1274 0.949 . S
C1278 C1286 1.574 . S
C1278 C1294 1.368 1_455 S
H1279 C1287 0.950 . S
H1280 C1285 0.950 . S
H1281 C1286 0.949 . S
H1282 C1288 0.950 . S
H1283 C1289 0.950 1_455 S
H1284 C1290 0.949 . S
C1285 H1280 0.950 . S
C1285 C1287 1.327 . S
C1285 C1291 1.427 1_655 S
C1286 C1278 1.574 . S
C1286 H1281 0.949 . S
C1286 C1292 1.368 1_455 S
C1287 C1271 1.349 1_655 S
C1287 H1279 0.950 . S
C1287 C1285 1.327 . S
C1288 C1276 1.349 . S
C1288 H1282 0.950 . S
C1288 C1289 1.327 . S
C1289 H1283 0.950 1_655 S
C1289 C1288 1.327 . S
C1289 C1293 1.429 . S
C1290 C1273 1.574 . S
C1290 H1284 0.949 . S
C1290 C1294 1.368 . S
C1291 C1272 1.445 . S
C1291 C1285 1.427 1_455 S
C1291 C1292 1.510 1_455 S
C1292 C1273 1.368 . S
C1292 C1286 1.368 1_655 S
C1292 C1291 1.510 1_655 S
C1293 C1277 1.429 . S
C1293 C1289 1.429 . S
C1293 C1294 1.523 . S
C1294 C1278 1.368 1_655 S
C1294 C1290 1.368 . S
C1294 C1293 1.523 . S
H1295 C1270 0.950 . S
H1296 C1272 0.950 . S
H1297 C1273 0.949 . S
H1298 C1275 0.950 . S
H1299 C1277 0.950 . S
C1300 C1301 1.349 . S
C1300 C1302 1.327 . S
C1300 H1325 0.950 . S
C1301 C1300 1.349 . S
C1301 C1317 1.349 . S
C1302 C1300 1.327 . S
C1302 C1321 1.429 . S
C1302 H1326 0.950 . S
C1303 C1320 1.574 . S
C1303 C1322 1.368 . S
C1303 H1327 0.949 . S
H1304 C1308 0.949 . S
C1305 C1306 1.349 . S
C1305 C1307 1.327 . S
C1305 H1328 0.950 . S
C1306 C1305 1.349 . S
C1306 C1318 1.349 . S
C1307 C1305 1.327 . S
C1307 C1323 1.429 . S
C1307 H1329 0.950 . S
C1308 H1304 0.949 . S
C1308 C1316 1.574 . S
C1308 C1324 1.368 . S
H1309 C1317 0.950 . S
H1310 C1315 0.950 . S
H1311 C1316 0.949 . S
H1312 C1318 0.950 . S
H1313 C1319 0.950 . S
H1314 C1320 0.949 . S
C1315 H1310 0.950 . S
C1315 C1317 1.327 . S
C1315 C1321 1.429 . S
C1316 C1308 1.574 . S
C1316 H1311 0.949 . S
C1316 C1322 1.368 . S
C1317 C1301 1.349 . S
C1317 H1309 0.950 . S
C1317 C1315 1.327 . S
C1318 C1306 1.349 . S
C1318 H1312 0.950 . S
C1318 C1319 1.327 . S
C1319 H1313 0.950 . S
C1319 C1318 1.327 . S
C1319 C1323 1.429 . S
C1320 C1303 1.574 . S
C1320 H1314 0.949 . S
C1320 C1324 1.368 . S
C1321 C1302 1.429 . S
C1321 C1315 1.429 . S
C1321 C1322 1.523 . S
C1322 C1303 1.368 . S
C1322 C1316 1.368 . S
C1322 C1321 1.523 . S
C1323 C1307 1.429 . S
C1323 C1319 1.429 . S
C1323 C1324 1.523 . S
C1324 C1308 1.368 . S
C1324 C1320 1.368 . S
C1324 C1323 1.523 . S
H1325 C1300 0.950 . S
H1326 C1302 0.950 . S
H1327 C1303 0.949 . S
H1328 C1305 0.950 . S
H1329 C1307 0.950 . S
C1330 C1331 1.349 . S
C1330 C1332 1.327 . S
C1330 H1355 0.950 . S
C1331 C1330 1.349 . S
C1331 C1347 1.349 . S
C1332 C1330 1.327 . S
C1332 C1351 1.429 . S
C1332 H1356 0.950 . S
C1333 C1350 1.574 . S
C1333 C1352 1.368 . S
C1333 H1357 0.949 . S
H1334 C1338 0.949 . S
C1335 C1336 1.349 . S
C1335 C1337 1.327 . S
C1335 H1358 0.950 . S
C1336 C1335 1.349 . S
C1336 C1348 1.349 . S
C1337 C1335 1.327 . S
C1337 C1353 1.429 . S
C1337 H1359 0.950 . S
C1338 H1334 0.949 . S
C1338 C1346 1.574 . S
C1338 C1354 1.368 . S
H1339 C1347 0.950 . S
H1340 C1345 0.950 . S
H1341 C1346 0.949 . S
H1342 C1348 0.950 . S
H1343 C1349 0.950 . S
H1344 C1350 0.949 . S
C1345 H1340 0.950 . S
C1345 C1347 1.327 . S
C1345 C1351 1.429 . S
C1346 C1338 1.574 . S
C1346 H1341 0.949 . S
C1346 C1352 1.368 . S
C1347 C1331 1.349 . S
C1347 H1339 0.950 . S
C1347 C1345 1.327 . S
C1348 C1336 1.349 . S
C1348 H1342 0.950 . S
C1348 C1349 1.327 . S
C1349 H1343 0.950 . S
C1349 C1348 1.327 . S
C1349 C1353 1.429 . S
C1350 C1333 1.574 . S
C1350 H1344 0.949 . S
C1350 C1354 1.368 . S
C1351 C1332 1.429 . S
C1351 C1345 1.429 . S
C1351 C1352 1.523 . S
C1352 C1333 1.368 . S
C1352 C1346 1.368 . S
C1352 C1351 1.523 . S
C1353 C1337 1.429 . S
C1353 C1349 1.429 . S
C1353 C1354 1.523 . S
C1354 C1338 1.368 . S
C1354 C1350 1.368 . S
C1354 C1353 1.523 . S
H1355 C1330 0.950 . S
H1356 C1332 0.950 . S
H1357 C1333 0.949 . S
H1358 C1335 0.950 . S
H1359 C1337 0.950 . S
C1360 C1361 1.349 . S
C1360 C1362 1.327 . S
C1360 H1385 0.950 . S
C1361 C1360 1.349 . S
C1361 C1377 1.349 . S
C1362 C1360 1.327 . S
C1362 C1381 1.429 . S
C1362 H1386 0.950 . S
C1363 C1380 1.574 . S
C1363 C1382 1.368 . S
C1363 H1387 0.949 . S
H1364 C1368 0.949 . S
C1365 C1366 1.349 . S
C1365 C1367 1.327 . S
C1365 H1388 0.950 . S
C1366 C1365 1.349 . S
C1366 C1378 1.349 . S
C1367 C1365 1.327 . S
C1367 C1383 1.429 . S
C1367 H1389 0.950 . S
C1368 H1364 0.949 . S
C1368 C1376 1.574 . S
C1368 C1384 1.368 . S
H1369 C1377 0.950 . S
H1370 C1375 0.950 . S
H1371 C1376 0.949 . S
H1372 C1378 0.950 . S
H1373 C1379 0.950 . S
H1374 C1380 0.949 . S
C1375 H1370 0.950 . S
C1375 C1377 1.327 . S
C1375 C1381 1.429 . S
C1376 C1368 1.574 . S
C1376 H1371 0.949 . S
C1376 C1382 1.368 . S
C1377 C1361 1.349 . S
C1377 H1369 0.950 . S
C1377 C1375 1.327 . S
C1378 C1366 1.349 . S
C1378 H1372 0.950 . S
C1378 C1379 1.327 . S
C1379 H1373 0.950 . S
C1379 C1378 1.327 . S
C1379 C1383 1.429 . S
C1380 C1363 1.574 . S
C1380 H1374 0.949 . S
C1380 C1384 1.368 . S
C1381 C1362 1.429 . S
C1381 C1375 1.429 . S
C1381 C1382 1.523 . S
C1382 C1363 1.368 . S
C1382 C1376 1.368 . S
C1382 C1381 1.523 . S
C1383 C1367 1.429 . S
C1383 C1379 1.429 . S
C1383 C1384 1.523 . S
C1384 C1368 1.368 . S
C1384 C1380 1.368 . S
C1384 C1383 1.523 . S
H1385 C1360 0.950 . S
H1386 C1362 0.950 . S
H1387 C1363 0.949 . S
H1388 C1365 0.950 . S
H1389 C1367 0.950 . S
C1390 C1391 1.349 . S
C1390 C1392 1.327 . S
C1390 H1415 0.950 . S
C1391 C1390 1.349 . S
C1391 C1407 1.349 . S
C1392 C1390 1.327 . S
C1392 C1411 1.429 . S
C1392 H1416 0.950 . S
C1393 C1410 1.574 . S
C1393 C1412 1.368 . S
C1393 H1417 0.949 . S
H1394 C1398 0.949 . S
C1395 C1396 1.349 . S
C1395 C1397 1.327 . S
C1395 H1418 0.950 . S
C1396 C1395 1.349 . S
C1396 C1408 1.349 . S
C1397 C1395 1.327 . S
C1397 C1413 1.429 . S
C1397 H1419 0.950 . S
C1398 H1394 0.949 . S
C1398 C1406 1.574 . S
C1398 C1414 1.368 . S
H1399 C1407 0.950 . S
H1400 C1405 0.950 . S
H1401 C1406 0.949 . S
H1402 C1408 0.950 . S
H1403 C1409 0.950 . S
H1404 C1410 0.949 . S
C1405 H1400 0.950 . S
C1405 C1407 1.327 . S
C1405 C1411 1.429 . S
C1406 C1398 1.574 . S
C1406 H1401 0.949 . S
C1406 C1412 1.368 . S
C1407 C1391 1.349 . S
C1407 H1399 0.950 . S
C1407 C1405 1.327 . S
C1408 C1396 1.349 . S
C1408 H1402 0.950 . S
C1408 C1409 1.327 . S
C1409 H1403 0.950 . S
C1409 C1408 1.327 . S
C1409 C1413 1.429 . S
C1410 C1393 1.574 . S
C1410 H1404 0.949 . S
C1410 C1414 1.368 . S
C1411 C1392 1.429 . S
C1411 C1405 1.429 . S
C1411 C1412 1.523 . S
C1412 C1393 1.368 . S
C1412 C1406 1.368 . S
C1412 C1411 1.523 . S
C1413 C1397 1.429 . S
C1413 C1409 1.429 . S
C1413 C1414 1.523 . S
C1414 C1398 1.368 . S
C1414 C1410 1.368 . S
C1414 C1413 1.523 . S
H1415 C1390 0.950 . S
H1416 C1392 0.950 . S
H1417 C1393 0.949 . S
H1418 C1395 0.950 . S
H1419 C1397 0.950 . S
C1420 C1421 1.349 . S
C1420 C1422 1.325 1_565 S
C1420 H1445 0.950 . S
C1421 C1420 1.349 . S
C1421 C1437 1.349 . S
C1422 C1420 1.325 1_545 S
C1422 C1441 1.421 . S
C1422 H1446 0.950 . S
C1423 C1440 1.574 . S
C1423 C1442 1.368 . S
C1423 H1447 0.949 . S
H1424 C1428 0.949 . S
C1425 C1426 1.349 . S
C1425 C1427 1.327 . S
C1425 H1448 0.950 . S
C1426 C1425 1.349 . S
C1426 C1438 1.349 . S
C1427 C1425 1.327 . S
C1427 C1443 1.429 . S
C1427 H1449 0.950 . S
C1428 H1424 0.949 . S
C1428 C1436 1.574 . S
C1428 C1444 1.368 . S
H1429 C1437 0.950 . S
H1430 C1435 0.950 . S
H1431 C1436 0.949 . S
H1432 C1438 0.950 . S
H1433 C1439 0.950 . S
H1434 C1440 0.949 . S
C1435 H1430 0.950 . S
C1435 C1437 1.327 . S
C1435 C1441 1.419 1_565 S
C1436 C1428 1.574 . S
C1436 H1431 0.949 . S
C1436 C1442 1.368 . S
C1437 C1421 1.349 . S
C1437 H1429 0.950 . S
C1437 C1435 1.327 . S
C1438 C1426 1.349 . S
C1438 H1432 0.950 . S
C1438 C1439 1.327 . S
C1439 H1433 0.950 . S
C1439 C1438 1.327 . S
C1439 C1443 1.429 . S
C1440 C1423 1.574 . S
C1440 H1434 0.949 . S
C1440 C1444 1.368 . S
C1441 C1422 1.421 . S
C1441 C1435 1.419 1_545 S
C1441 C1442 1.541 . S
C1442 C1423 1.368 . S
C1442 C1436 1.368 . S
C1442 C1441 1.541 . S
C1443 C1427 1.429 . S
C1443 C1439 1.429 . S
C1443 C1444 1.523 . S
C1444 C1428 1.368 . S
C1444 C1440 1.368 . S
C1444 C1443 1.523 . S
H1445 C1420 0.950 . S
H1446 C1422 0.950 . S
H1447 C1423 0.949 . S
H1448 C1425 0.950 . S
H1449 C1427 0.950 . S
C1450 C1451 1.349 . S
C1450 C1452 1.327 . S
C1450 H1475 0.950 . S
C1451 C1450 1.349 . S
C1451 C1467 1.349 1_554 S
C1452 C1450 1.327 . S
C1452 C1471 1.429 . S
C1452 H1476 0.950 . S
C1453 C1470 1.574 . S
C1453 C1472 1.368 . S
C1453 H1477 0.949 1_554 S
H1454 C1458 0.949 . S
C1455 C1456 1.349 . S
C1455 C1457 1.327 . S
C1455 H1478 0.950 . S
C1456 C1455 1.349 . S
C1456 C1468 1.349 . S
C1457 C1455 1.327 . S
C1457 C1473 1.429 . S
C1457 H1479 0.950 . S
C1458 H1454 0.949 . S
C1458 C1466 1.574 . S
C1458 C1474 1.368 . S
H1459 C1467 0.950 . S
H1460 C1465 0.950 1_556 S
H1461 C1466 0.949 . S
H1462 C1468 0.950 . S
H1463 C1469 0.950 . S
H1464 C1470 0.949 . S
C1465 H1460 0.950 1_554 S
C1465 C1467 1.327 1_554 S
C1465 C1471 1.429 . S
C1466 C1458 1.574 . S
C1466 H1461 0.949 . S
C1466 C1472 1.368 . S
C1467 C1451 1.349 1_556 S
C1467 H1459 0.950 . S
C1467 C1465 1.327 1_556 S
C1468 C1456 1.349 . S
C1468 H1462 0.950 . S
C1468 C1469 1.327 . S
C1469 H1463 0.950 . S
C1469 C1468 1.327 . S
C1469 C1473 1.429 . S
C1470 C1453 1.574 . S
C1470 H1464 0.949 . S
C1470 C1474 1.368 . S
C1471 C1452 1.429 . S
C1471 C1465 1.429 . S
C1471 C1472 1.523 . S
C1472 C1453 1.368 . S
C1472 C1466 1.368 . S
C1472 C1471 1.523 . S
C1473 C1457 1.429 . S
C1473 C1469 1.429 . S
C1473 C1474 1.523 . S
C1474 C1458 1.368 . S
C1474 C1470 1.368 . S
C1474 C1473 1.523 . S
H1475 C1450 0.950 . S
H1476 C1452 0.950 . S
H1477 C1453 0.949 1_556 S
H1478 C1455 0.950 . S
H1479 C1457 0.950 . S
C1480 C1481 1.349 . S
C1480 C1482 1.327 . S
C1480 H1505 0.950 . S
C1481 C1480 1.349 . S
C1481 C1497 1.349 . S
C1482 C1480 1.327 . S
C1482 C1501 1.429 . S
C1482 H1506 0.950 . S
C1483 C1500 1.574 . S
C1483 C1502 1.368 . S
C1483 H1507 0.949 . S
H1484 C1488 0.949 . S
C1485 C1486 1.349 . S
C1485 C1487 1.327 . S
C1485 H1508 0.950 . S
C1486 C1485 1.349 . S
C1486 C1498 1.349 . S
C1487 C1485 1.327 . S
C1487 C1503 1.429 . S
C1487 H1509 0.950 . S
C1488 H1484 0.949 . S
C1488 C1496 1.574 . S
C1488 C1504 1.368 . S
H1489 C1497 0.950 . S
H1490 C1495 0.950 . S
H1491 C1496 0.949 . S
H1492 C1498 0.950 . S
H1493 C1499 0.950 . S
H1494 C1500 0.949 . S
C1495 H1490 0.950 . S
C1495 C1497 1.327 . S
C1495 C1501 1.429 . S
C1496 C1488 1.574 . S
C1496 H1491 0.949 . S
C1496 C1502 1.368 . S
C1497 C1481 1.349 . S
C1497 H1489 0.950 . S
C1497 C1495 1.327 . S
C1498 C1486 1.349 . S
C1498 H1492 0.950 . S
C1498 C1499 1.327 . S
C1499 H1493 0.950 . S
C1499 C1498 1.327 . S
C1499 C1503 1.429 . S
C1500 C1483 1.574 . S
C1500 H1494 0.949 . S
C1500 C1504 1.368 . S
C1501 C1482 1.429 . S
C1501 C1495 1.429 . S
C1501 C1502 1.523 . S
C1502 C1483 1.368 . S
C1502 C1496 1.368 . S
C1502 C1501 1.523 . S
C1503 C1487 1.429 . S
C1503 C1499 1.429 . S
C1503 C1504 1.523 . S
C1504 C1488 1.368 . S
C1504 C1500 1.368 . S
C1504 C1503 1.523 . S
H1505 C1480 0.950 . S
H1506 C1482 0.950 . S
H1507 C1483 0.949 . S
H1508 C1485 0.950 . S
H1509 C1487 0.950 . S
C1510 C1511 1.349 . S
C1510 C1512 1.327 . S
C1510 H1535 0.950 . S
C1511 C1510 1.349 . S
C1511 C1527 1.349 . S
C1512 C1510 1.327 . S
C1512 C1531 1.429 . S
C1512 H1536 0.950 . S
C1513 C1530 1.574 . S
C1513 C1532 1.368 . S
C1513 H1537 0.949 . S
H1514 C1518 0.949 . S
C1515 C1516 1.349 . S
C1515 C1517 1.327 . S
C1515 H1538 0.950 . S
C1516 C1515 1.349 . S
C1516 C1528 1.349 . S
C1517 C1515 1.327 . S
C1517 C1533 1.429 . S
C1517 H1539 0.950 . S
C1518 H1514 0.949 . S
C1518 C1526 1.574 . S
C1518 C1534 1.368 . S
H1519 C1527 0.950 . S
H1520 C1525 0.950 . S
H1521 C1526 0.949 . S
H1522 C1528 0.950 . S
H1523 C1529 0.950 . S
H1524 C1530 0.949 . S
C1525 H1520 0.950 . S
C1525 C1527 1.327 . S
C1525 C1531 1.429 . S
C1526 C1518 1.574 . S
C1526 H1521 0.949 . S
C1526 C1532 1.368 . S
C1527 C1511 1.349 . S
C1527 H1519 0.950 . S
C1527 C1525 1.327 . S
C1528 C1516 1.349 . S
C1528 H1522 0.950 . S
C1528 C1529 1.327 . S
C1529 H1523 0.950 . S
C1529 C1528 1.327 . S
C1529 C1533 1.429 . S
C1530 C1513 1.574 . S
C1530 H1524 0.949 . S
C1530 C1534 1.368 . S
C1531 C1512 1.429 . S
C1531 C1525 1.429 . S
C1531 C1532 1.523 . S
C1532 C1513 1.368 . S
C1532 C1526 1.368 . S
C1532 C1531 1.523 . S
C1533 C1517 1.429 . S
C1533 C1529 1.429 . S
C1533 C1534 1.523 . S
C1534 C1518 1.368 . S
C1534 C1530 1.368 . S
C1534 C1533 1.523 . S
H1535 C1510 0.950 . S
H1536 C1512 0.950 . S
H1537 C1513 0.949 . S
H1538 C1515 0.950 . S
H1539 C1517 0.950 . S
C1540 C1541 1.349 . S
C1540 C1542 1.327 . S
C1540 H1565 0.950 . S
C1541 C1540 1.349 . S
C1541 C1557 1.349 . S
C1542 C1540 1.327 . S
C1542 C1561 1.429 . S
C1542 H1566 0.950 . S
C1543 C1560 1.574 . S
C1543 C1562 1.368 . S
C1543 H1567 0.949 . S
H1544 C1548 0.949 . S
C1545 C1546 1.349 . S
C1545 C1547 1.327 . S
C1545 H1568 0.950 . S
C1546 C1545 1.349 . S
C1546 C1558 1.349 . S
C1547 C1545 1.327 . S
C1547 C1563 1.429 . S
C1547 H1569 0.950 . S
C1548 H1544 0.949 . S
C1548 C1556 1.574 . S
C1548 C1564 1.368 . S
H1549 C1557 0.950 . S
H1550 C1555 0.950 . S
H1551 C1556 0.949 . S
H1552 C1558 0.950 . S
H1553 C1559 0.950 . S
H1554 C1560 0.949 . S
C1555 H1550 0.950 . S
C1555 C1557 1.327 . S
C1555 C1561 1.429 . S
C1556 C1548 1.574 . S
C1556 H1551 0.949 . S
C1556 C1562 1.368 . S
C1557 C1541 1.349 . S
C1557 H1549 0.950 . S
C1557 C1555 1.327 . S
C1558 C1546 1.349 . S
C1558 H1552 0.950 . S
C1558 C1559 1.327 . S
C1559 H1553 0.950 . S
C1559 C1558 1.327 . S
C1559 C1563 1.429 . S
C1560 C1543 1.574 . S
C1560 H1554 0.949 . S
C1560 C1564 1.368 . S
C1561 C1542 1.429 . S
C1561 C1555 1.429 . S
C1561 C1562 1.523 . S
C1562 C1543 1.368 . S
C1562 C1556 1.368 . S
C1562 C1561 1.523 . S
C1563 C1547 1.429 . S
C1563 C1559 1.429 . S
C1563 C1564 1.523 . S
C1564 C1548 1.368 . S
C1564 C1560 1.368 . S
C1564 C1563 1.523 . S
H1565 C1540 0.950 . S
H1566 C1542 0.950 . S
H1567 C1543 0.949 . S
H1568 C1545 0.950 . S
H1569 C1547 0.950 . S
C1570 C1571 1.349 . S
C1570 C1572 1.327 . S
C1570 H1595 0.950 . S
C1571 C1570 1.349 . S
C1571 C1587 1.349 . S
C1572 C1570 1.327 . S
C1572 C1591 1.429 . S
C1572 H1596 0.950 . S
C1573 C1590 1.574 . S
C1573 C1592 1.368 . S
C1573 H1597 0.949 . S
H1574 C1578 0.949 . S
C1575 C1576 1.349 . S
C1575 C1577 1.327 . S
C1575 H1598 0.950 . S
C1576 C1575 1.349 . S
C1576 C1588 1.349 . S
C1577 C1575 1.327 . S
C1577 C1593 1.429 . S
C1577 H1599 0.950 . S
C1578 H1574 0.949 . S
C1578 C1586 1.574 . S
C1578 C1594 1.368 . S
H1579 C1587 0.950 . S
H1580 C1585 0.950 . S
H1581 C1586 0.949 . S
H1582 C1588 0.950 . S
H1583 C1589 0.950 . S
H1584 C1590 0.949 . S
C1585 H1580 0.950 . S
C1585 C1587 1.327 . S
C1585 C1591 1.429 . S
C1586 C1578 1.574 . S
C1586 H1581 0.949 . S
C1586 C1592 1.368 . S
C1587 C1571 1.349 . S
C1587 H1579 0.950 . S
C1587 C1585 1.327 . S
C1588 C1576 1.349 . S
C1588 H1582 0.950 . S
C1588 C1589 1.327 . S
C1589 H1583 0.950 . S
C1589 C1588 1.327 . S
C1589 C1593 1.429 . S
C1590 C1573 1.574 . S
C1590 H1584 0.949 . S
C1590 C1594 1.368 . S
C1591 C1572 1.429 . S
C1591 C1585 1.429 . S
C1591 C1592 1.523 . S
C1592 C1573 1.368 . S
C1592 C1586 1.368 . S
C1592 C1591 1.523 . S
C1593 C1577 1.429 . S
C1593 C1589 1.429 . S
C1593 C1594 1.523 . S
C1594 C1578 1.368 . S
C1594 C1590 1.368 . S
C1594 C1593 1.523 . S
H1595 C1570 0.950 . S
H1596 C1572 0.950 . S
H1597 C1573 0.949 . S
H1598 C1575 0.950 . S
H1599 C1577 0.950 . S
C1600 C1601 1.349 . S
C1600 C1602 1.327 . S
C1600 H1625 0.950 . S
C1601 C1600 1.349 . S
C1601 C1617 1.349 . S
C1602 C1600 1.327 . S
C1602 C1621 1.429 . S
C1602 H1626 0.950 . S
C1603 C1620 1.574 . S
C1603 C1622 1.368 . S
C1603 H1627 0.949 . S
H1604 C1608 0.949 . S
C1605 C1606 1.349 . S
C1605 C1607 1.327 . S
C1605 H1628 0.950 . S
C1606 C1605 1.349 . S
C1606 C1618 1.349 . S
C1607 C1605 1.327 . S
C1607 C1623 1.429 . S
C1607 H1629 0.950 . S
C1608 H1604 0.949 . S
C1608 C1616 1.574 . S
C1608 C1624 1.368 . S
H1609 C1617 0.950 . S
H1610 C1615 0.950 . S
H1611 C1616 0.949 . S
H1612 C1618 0.950 . S
H1613 C1619 0.950 . S
H1614 C1620 0.949 . S
C1615 H1610 0.950 . S
C1615 C1617 1.327 . S
C1615 C1621 1.429 . S
C1616 C1608 1.574 . S
C1616 H1611 0.949 . S
C1616 C1622 1.368 . S
C1617 C1601 1.349 . S
C1617 H1609 0.950 . S
C1617 C1615 1.327 . S
C1618 C1606 1.349 . S
C1618 H1612 0.950 . S
C1618 C1619 1.327 . S
C1619 H1613 0.950 . S
C1619 C1618 1.327 . S
C1619 C1623 1.429 . S
C1620 C1603 1.574 . S
C1620 H1614 0.949 . S
C1620 C1624 1.368 . S
C1621 C1602 1.429 . S
C1621 C1615 1.429 . S
C1621 C1622 1.523 . S
C1622 C1603 1.368 . S
C1622 C1616 1.368 . S
C1622 C1621 1.523 . S
C1623 C1607 1.429 . S
C1623 C1619 1.429 . S
C1623 C1624 1.523 . S
C1624 C1608 1.368 . S
C1624 C1620 1.368 . S
C1624 C1623 1.523 . S
H1625 C1600 0.950 . S
H1626 C1602 0.950 . S
H1627 C1603 0.949 . S
H1628 C1605 0.950 . S
H1629 C1607 0.950 . S
C1630 C1631 1.349 . S
C1630 C1632 1.327 . S
C1630 H1655 0.950 . S
C1631 C1630 1.349 . S
C1631 C1647 1.349 . S
C1632 C1630 1.327 . S
C1632 C1651 1.429 . S
C1632 H1656 0.950 . S
C1633 C1650 1.574 . S
C1633 C1652 1.368 . S
C1633 H1657 0.949 . S
H1634 C1638 0.949 . S
C1635 C1636 1.349 . S
C1635 C1637 1.327 . S
C1635 H1658 0.950 . S
C1636 C1635 1.349 . S
C1636 C1648 1.349 . S
C1637 C1635 1.327 . S
C1637 C1653 1.429 . S
C1637 H1659 0.950 . S
C1638 H1634 0.949 . S
C1638 C1646 1.574 . S
C1638 C1654 1.368 . S
H1639 C1647 0.950 . S
H1640 C1645 0.950 . S
H1641 C1646 0.949 . S
H1642 C1648 0.950 . S
H1643 C1649 0.950 . S
H1644 C1650 0.949 . S
C1645 H1640 0.950 . S
C1645 C1647 1.327 . S
C1645 C1651 1.429 . S
C1646 C1638 1.574 . S
C1646 H1641 0.949 . S
C1646 C1652 1.368 . S
C1647 C1631 1.349 . S
C1647 H1639 0.950 . S
C1647 C1645 1.327 . S
C1648 C1636 1.349 . S
C1648 H1642 0.950 . S
C1648 C1649 1.327 . S
C1649 H1643 0.950 . S
C1649 C1648 1.327 . S
C1649 C1653 1.429 . S
C1650 C1633 1.574 . S
C1650 H1644 0.949 . S
C1650 C1654 1.368 . S
C1651 C1632 1.429 . S
C1651 C1645 1.429 . S
C1651 C1652 1.523 . S
C1652 C1633 1.368 . S
C1652 C1646 1.368 . S
C1652 C1651 1.523 . S
C1653 C1637 1.429 . S
C1653 C1649 1.429 . S
C1653 C1654 1.523 . S
C1654 C1638 1.368 . S
C1654 C1650 1.368 . S
C1654 C1653 1.523 . S
H1655 C1630 0.950 . S
H1656 C1632 0.950 . S
H1657 C1633 0.949 . S
H1658 C1635 0.950 . S
H1659 C1637 0.950 . S
C1660 C1661 1.349 . S
C1660 C1662 1.327 . S
C1660 H1685 0.950 . S
C1661 C1660 1.349 . S
C1661 C1677 1.349 . S
C1662 C1660 1.327 . S
C1662 C1681 1.429 . S
C1662 H1686 0.950 . S
C1663 C1680 1.574 . S
C1663 C1682 1.368 . S
C1663 H1687 0.949 . S
H1664 C1668 0.949 . S
C1665 C1666 1.349 . S
C1665 C1667 1.327 . S
C1665 H1688 0.950 . S
C1666 C1665 1.349 . S
C1666 C1678 1.349 . S
C1667 C1665 1.327 . S
C1667 C1683 1.429 . S
C1667 H1689 0.950 . S
C1668 H1664 0.949 . S
C1668 C1676 1.574 . S
C1668 C1684 1.368 . S
H1669 C1677 0.950 . S
H1670 C1675 0.950 . S
H1671 C1676 0.949 . S
H1672 C1678 0.950 . S
H1673 C1679 0.950 . S
H1674 C1680 0.949 . S
C1675 H1670 0.950 . S
C1675 C1677 1.327 . S
C1675 C1681 1.429 . S
C1676 C1668 1.574 . S
C1676 H1671 0.949 . S
C1676 C1682 1.368 . S
C1677 C1661 1.349 . S
C1677 H1669 0.950 . S
C1677 C1675 1.327 . S
C1678 C1666 1.349 . S
C1678 H1672 0.950 . S
C1678 C1679 1.327 . S
C1679 H1673 0.950 . S
C1679 C1678 1.327 . S
C1679 C1683 1.429 . S
C1680 C1663 1.574 . S
C1680 H1674 0.949 . S
C1680 C1684 1.368 . S
C1681 C1662 1.429 . S
C1681 C1675 1.429 . S
C1681 C1682 1.523 . S
C1682 C1663 1.368 . S
C1682 C1676 1.368 . S
C1682 C1681 1.523 . S
C1683 C1667 1.429 . S
C1683 C1679 1.429 . S
C1683 C1684 1.523 . S
C1684 C1668 1.368 . S
C1684 C1680 1.368 . S
C1684 C1683 1.523 . S
H1685 C1660 0.950 . S
H1686 C1662 0.950 . S
H1687 C1663 0.949 . S
H1688 C1665 0.950 . S
H1689 C1667 0.950 . S
C1690 C1691 1.349 . S
C1690 C1692 1.327 . S
C1690 H1715 0.950 . S
C1691 C1690 1.349 . S
C1691 C1707 1.349 . S
C1692 C1690 1.327 . S
C1692 C1711 1.429 . S
C1692 H1716 0.950 . S
C1693 C1710 1.574 . S
C1693 C1712 1.368 . S
C1693 H1717 0.949 . S
H1694 C1698 0.949 . S
C1695 C1696 1.349 . S
C1695 C1697 1.327 . S
C1695 H1718 0.950 . S
C1696 C1695 1.349 . S
C1696 C1708 1.349 . S
C1697 C1695 1.327 . S
C1697 C1713 1.429 . S
C1697 H1719 0.950 . S
C1698 H1694 0.949 . S
C1698 C1706 1.574 . S
C1698 C1714 1.368 . S
H1699 C1707 0.950 . S
H1700 C1705 0.950 . S
H1701 C1706 0.949 . S
H1702 C1708 0.950 . S
H1703 C1709 0.950 . S
H1704 C1710 0.949 . S
C1705 H1700 0.950 . S
C1705 C1707 1.327 . S
C1705 C1711 1.429 . S
C1706 C1698 1.574 . S
C1706 H1701 0.949 . S
C1706 C1712 1.368 . S
C1707 C1691 1.349 . S
C1707 H1699 0.950 . S
C1707 C1705 1.327 . S
C1708 C1696 1.349 . S
C1708 H1702 0.950 . S
C1708 C1709 1.327 . S
C1709 H1703 0.950 . S
C1709 C1708 1.327 . S
C1709 C1713 1.429 . S
C1710 C1693 1.574 . S
C1710 H1704 0.949 . S
C1710 C1714 1.368 . S
C1711 C1692 1.429 . S
C1711 C1705 1.429 . S
C1711 C1712 1.523 . S
C1712 C1693 1.368 . S
C1712 C1706 1.368 . S
C1712 C1711 1.523 . S
C1713 C1697 1.429 . S
C1713 C1709 1.429 . S
C1713 C1714 1.523 . S
C1714 C1698 1.368 . S
C1714 C1710 1.368 . S
C1714 C1713 1.523 . S
H1715 C1690 0.950 . S
H1716 C1692 0.950 . S
H1717 C1693 0.949 . S
H1718 C1695 0.950 . S
H1719 C1697 0.950 . S
C1720 C1721 1.349 . S
C1720 C1722 1.327 . S
C1720 H1745 0.950 . S
C1721 C1720 1.349 . S
C1721 C1737 1.349 . S
C1722 C1720 1.327 . S
C1722 C1741 1.429 . S
C1722 H1746 0.950 . S
C1723 C1740 1.574 . S
C1723 C1742 1.368 . S
C1723 H1747 0.949 . S
H1724 C1728 0.949 . S
C1725 C1726 1.349 . S
C1725 C1727 1.327 . S
C1725 H1748 0.950 . S
C1726 C1725 1.349 . S
C1726 C1738 1.349 . S
C1727 C1725 1.327 . S
C1727 C1743 1.429 . S
C1727 H1749 0.950 . S
C1728 H1724 0.949 . S
C1728 C1736 1.574 . S
C1728 C1744 1.368 . S
H1729 C1737 0.950 . S
H1730 C1735 0.950 . S
H1731 C1736 0.949 . S
H1732 C1738 0.950 . S
H1733 C1739 0.950 . S
H1734 C1740 0.949 . S
C1735 H1730 0.950 . S
C1735 C1737 1.327 . S
C1735 C1741 1.429 . S
C1736 C1728 1.574 . S
C1736 H1731 0.949 . S
C1736 C1742 1.368 . S
C1737 C1721 1.349 . S
C1737 H1729 0.950 . S
C1737 C1735 1.327 . S
C1738 C1726 1.349 . S
C1738 H1732 0.950 . S
C1738 C1739 1.327 . S
C1739 H1733 0.950 . S
C1739 C1738 1.327 . S
C1739 C1743 1.429 . S
C1740 C1723 1.574 . S
C1740 H1734 0.949 . S
C1740 C1744 1.368 . S
C1741 C1722 1.429 . S
C1741 C1735 1.429 . S
C1741 C1742 1.523 . S
C1742 C1723 1.368 . S
C1742 C1736 1.368 . S
C1742 C1741 1.523 . S
C1743 C1727 1.429 . S
C1743 C1739 1.429 . S
C1743 C1744 1.523 . S
C1744 C1728 1.368 . S
C1744 C1740 1.368 . S
C1744 C1743 1.523 . S
H1745 C1720 0.950 . S
H1746 C1722 0.950 . S
H1747 C1723 0.949 . S
H1748 C1725 0.950 . S
H1749 C1727 0.950 . S
C1750 C1751 1.349 . S
C1750 C1752 1.327 . S
C1750 H1775 0.950 . S
C1751 C1750 1.349 . S
C1751 C1767 1.349 . S
C1752 C1750 1.327 . S
C1752 C1771 1.429 . S
C1752 H1776 0.950 . S
C1753 C1770 1.574 . S
C1753 C1772 1.368 . S
C1753 H1777 0.949 . S
H1754 C1758 0.949 1_556 S
C1755 C1756 1.349 . S
C1755 C1757 1.327 . S
C1755 H1778 0.950 . S
C1756 C1755 1.349 . S
C1756 C1768 1.349 1_554 S
C1757 C1755 1.327 . S
C1757 C1773 1.429 . S
C1757 H1779 0.950 . S
C1758 H1754 0.949 1_554 S
C1758 C1766 1.574 . S
C1758 C1774 1.368 . S
H1759 C1767 0.950 . S
H1760 C1765 0.950 . S
H1761 C1766 0.949 1_556 S
H1762 C1768 0.950 . S
H1763 C1769 0.950 . S
H1764 C1770 0.949 . S
C1765 H1760 0.950 . S
C1765 C1767 1.327 . S
C1765 C1771 1.429 . S
C1766 C1758 1.574 . S
C1766 H1761 0.949 1_554 S
C1766 C1772 1.368 . S
C1767 C1751 1.349 . S
C1767 H1759 0.950 . S
C1767 C1765 1.327 . S
C1768 C1756 1.349 1_556 S
C1768 H1762 0.950 . S
C1768 C1769 1.327 . S
C1769 H1763 0.950 . S
C1769 C1768 1.327 . S
C1769 C1773 1.429 1_556 S
C1770 C1753 1.574 . S
C1770 H1764 0.949 . S
C1770 C1774 1.368 . S
C1771 C1752 1.429 . S
C1771 C1765 1.429 . S
C1771 C1772 1.523 . S
C1772 C1753 1.368 . S
C1772 C1766 1.368 . S
C1772 C1771 1.523 . S
C1773 C1757 1.429 . S
C1773 C1769 1.429 1_554 S
C1773 C1774 1.523 . S
C1774 C1758 1.368 . S
C1774 C1770 1.368 . S
C1774 C1773 1.523 . S
H1775 C1750 0.950 . S
H1776 C1752 0.950 . S
H1777 C1753 0.949 . S
H1778 C1755 0.950 . S
H1779 C1757 0.950 . S
C1780 C1781 1.349 . S
C1780 C1782 1.327 . S
C1780 H1805 0.950 . S
C1781 C1780 1.349 . S
C1781 C1797 1.349 . S
C1782 C1780 1.327 . S
C1782 C1801 1.429 . S
C1782 H1806 0.950 . S
C1783 C1800 1.574 . S
C1783 C1802 1.368 . S
C1783 H1807 0.949 . S
H1784 C1788 0.949 . S
C1785 C1786 1.349 . S
C1785 C1787 1.327 . S
C1785 H1808 0.950 . S
C1786 C1785 1.349 . S
C1786 C1798 1.349 . S
C1787 C1785 1.327 . S
C1787 C1803 1.429 . S
C1787 H1809 0.950 . S
C1788 H1784 0.949 . S
C1788 C1796 1.574 . S
C1788 C1804 1.368 . S
H1789 C1797 0.950 . S
H1790 C1795 0.950 . S
H1791 C1796 0.949 . S
H1792 C1798 0.950 . S
H1793 C1799 0.950 . S
H1794 C1800 0.949 . S
C1795 H1790 0.950 . S
C1795 C1797 1.327 . S
C1795 C1801 1.429 . S
C1796 C1788 1.574 . S
C1796 H1791 0.949 . S
C1796 C1802 1.368 . S
C1797 C1781 1.349 . S
C1797 H1789 0.950 . S
C1797 C1795 1.327 . S
C1798 C1786 1.349 . S
C1798 H1792 0.950 . S
C1798 C1799 1.327 . S
C1799 H1793 0.950 . S
C1799 C1798 1.327 . S
C1799 C1803 1.429 . S
C1800 C1783 1.574 . S
C1800 H1794 0.949 . S
C1800 C1804 1.368 . S
C1801 C1782 1.429 . S
C1801 C1795 1.429 . S
C1801 C1802 1.523 . S
C1802 C1783 1.368 . S
C1802 C1796 1.368 . S
C1802 C1801 1.523 . S
C1803 C1787 1.429 . S
C1803 C1799 1.429 . S
C1803 C1804 1.523 . S
C1804 C1788 1.368 . S
C1804 C1800 1.368 . S
C1804 C1803 1.523 . S
H1805 C1780 0.950 . S
H1806 C1782 0.950 . S
H1807 C1783 0.949 . S
H1808 C1785 0.950 . S
H1809 C1787 0.950 . S
C1810 C1811 1.349 . S
C1810 C1812 1.327 . S
C1810 H1835 0.950 . S
C1811 C1810 1.349 . S
C1811 C1827 1.349 . S
C1812 C1810 1.327 . S
C1812 C1831 1.429 . S
C1812 H1836 0.950 . S
C1813 C1830 1.574 . S
C1813 C1832 1.368 . S
C1813 H1837 0.949 . S
H1814 C1818 0.949 . S
C1815 C1816 1.349 . S
C1815 C1817 1.327 . S
C1815 H1838 0.950 . S
C1816 C1815 1.349 . S
C1816 C1828 1.349 . S
C1817 C1815 1.327 . S
C1817 C1833 1.429 . S
C1817 H1839 0.950 . S
C1818 H1814 0.949 . S
C1818 C1826 1.574 . S
C1818 C1834 1.368 . S
H1819 C1827 0.950 . S
H1820 C1825 0.950 . S
H1821 C1826 0.949 . S
H1822 C1828 0.950 . S
H1823 C1829 0.950 . S
H1824 C1830 0.949 . S
C1825 H1820 0.950 . S
C1825 C1827 1.327 . S
C1825 C1831 1.429 . S
C1826 C1818 1.574 . S
C1826 H1821 0.949 . S
C1826 C1832 1.368 . S
C1827 C1811 1.349 . S
C1827 H1819 0.950 . S
C1827 C1825 1.327 . S
C1828 C1816 1.349 . S
C1828 H1822 0.950 . S
C1828 C1829 1.327 . S
C1829 H1823 0.950 . S
C1829 C1828 1.327 . S
C1829 C1833 1.429 . S
C1830 C1813 1.574 . S
C1830 H1824 0.949 . S
C1830 C1834 1.368 . S
C1831 C1812 1.429 . S
C1831 C1825 1.429 . S
C1831 C1832 1.523 . S
C1832 C1813 1.368 . S
C1832 C1826 1.368 . S
C1832 C1831 1.523 . S
C1833 C1817 1.429 . S
C1833 C1829 1.429 . S
C1833 C1834 1.523 . S
C1834 C1818 1.368 . S
C1834 C1830 1.368 . S
C1834 C1833 1.523 . S
H1835 C1810 0.950 . S
H1836 C1812 0.950 . S
H1837 C1813 0.949 . S
H1838 C1815 0.950 . S
H1839 C1817 0.950 . S
C1840 C1841 1.349 . S
C1840 C1842 1.327 . S
C1840 H1865 0.950 . S
C1841 C1840 1.349 . S
C1841 C1857 1.349 . S
C1842 C1840 1.327 . S
C1842 C1861 1.429 . S
C1842 H1866 0.950 . S
C1843 C1860 1.574 . S
C1843 C1862 1.368 . S
C1843 H1867 0.949 . S
H1844 C1848 0.949 . S
C1845 C1846 1.349 . S
C1845 C1847 1.327 . S
C1845 H1868 0.950 . S
C1846 C1845 1.349 . S
C1846 C1858 1.349 . S
C1847 C1845 1.327 . S
C1847 C1863 1.429 . S
C1847 H1869 0.950 . S
C1848 H1844 0.949 . S
C1848 C1856 1.574 . S
C1848 C1864 1.368 . S
H1849 C1857 0.950 . S
H1850 C1855 0.950 . S
H1851 C1856 0.949 . S
H1852 C1858 0.950 . S
H1853 C1859 0.950 . S
H1854 C1860 0.949 . S
C1855 H1850 0.950 . S
C1855 C1857 1.327 . S
C1855 C1861 1.429 . S
C1856 C1848 1.574 . S
C1856 H1851 0.949 . S
C1856 C1862 1.368 . S
C1857 C1841 1.349 . S
C1857 H1849 0.950 . S
C1857 C1855 1.327 . S
C1858 C1846 1.349 . S
C1858 H1852 0.950 . S
C1858 C1859 1.327 . S
C1859 H1853 0.950 . S
C1859 C1858 1.327 . S
C1859 C1863 1.429 . S
C1860 C1843 1.574 . S
C1860 H1854 0.949 . S
C1860 C1864 1.368 . S
C1861 C1842 1.429 . S
C1861 C1855 1.429 . S
C1861 C1862 1.523 . S
C1862 C1843 1.368 . S
C1862 C1856 1.368 . S
C1862 C1861 1.523 . S
C1863 C1847 1.429 . S
C1863 C1859 1.429 . S
C1863 C1864 1.523 . S
C1864 C1848 1.368 . S
C1864 C1860 1.368 . S
C1864 C1863 1.523 . S
H1865 C1840 0.950 . S
H1866 C1842 0.950 . S
H1867 C1843 0.949 . S
H1868 C1845 0.950 . S
H1869 C1847 0.950 . S
C1870 C1871 1.349 . S
C1870 C1872 1.327 . S
C1870 H1895 0.950 . S
C1871 C1870 1.349 . S
C1871 C1887 1.349 . S
C1872 C1870 1.327 . S
C1872 C1891 1.429 . S
C1872 H1896 0.950 . S
C1873 C1890 1.574 . S
C1873 C1892 1.368 . S
C1873 H1897 0.949 . S
H1874 C1878 0.949 . S
C1875 C1876 1.349 . S
C1875 C1877 1.327 . S
C1875 H1898 0.950 . S
C1876 C1875 1.349 . S
C1876 C1888 1.349 . S
C1877 C1875 1.327 . S
C1877 C1893 1.429 . S
C1877 H1899 0.950 . S
C1878 H1874 0.949 . S
C1878 C1886 1.574 . S
C1878 C1894 1.368 . S
H1879 C1887 0.950 . S
H1880 C1885 0.950 . S
H1881 C1886 0.949 . S
H1882 C1888 0.950 . S
H1883 C1889 0.950 . S
H1884 C1890 0.949 . S
C1885 H1880 0.950 . S
C1885 C1887 1.327 . S
C1885 C1891 1.429 . S
C1886 C1878 1.574 . S
C1886 H1881 0.949 . S
C1886 C1892 1.368 . S
C1887 C1871 1.349 . S
C1887 H1879 0.950 . S
C1887 C1885 1.327 . S
C1888 C1876 1.349 . S
C1888 H1882 0.950 . S
C1888 C1889 1.327 . S
C1889 H1883 0.950 . S
C1889 C1888 1.327 . S
C1889 C1893 1.429 . S
C1890 C1873 1.574 . S
C1890 H1884 0.949 . S
C1890 C1894 1.368 . S
C1891 C1872 1.429 . S
C1891 C1885 1.429 . S
C1891 C1892 1.523 . S
C1892 C1873 1.368 . S
C1892 C1886 1.368 . S
C1892 C1891 1.523 . S
C1893 C1877 1.429 . S
C1893 C1889 1.429 . S
C1893 C1894 1.523 . S
C1894 C1878 1.368 . S
C1894 C1890 1.368 . S
C1894 C1893 1.523 . S
H1895 C1870 0.950 . S
H1896 C1872 0.950 . S
H1897 C1873 0.949 . S
H1898 C1875 0.950 . S
H1899 C1877 0.950 . S
C1900 C1901 1.349 . S
C1900 C1902 1.327 . S
C1900 H1925 0.950 . S
C1901 C1900 1.349 . S
C1901 C1917 1.349 . S
C1902 C1900 1.327 . S
C1902 C1921 1.429 . S
C1902 H1926 0.950 . S
C1903 C1920 1.574 . S
C1903 C1922 1.368 . S
C1903 H1927 0.949 . S
H1904 C1908 0.949 . S
C1905 C1906 1.349 . S
C1905 C1907 1.327 . S
C1905 H1928 0.950 . S
C1906 C1905 1.349 . S
C1906 C1918 1.349 . S
C1907 C1905 1.327 . S
C1907 C1923 1.429 . S
C1907 H1929 0.950 . S
C1908 H1904 0.949 . S
C1908 C1916 1.574 . S
C1908 C1924 1.368 . S
H1909 C1917 0.962 . S
H1910 C1915 0.950 . S
H1911 C1916 0.949 . S
H1912 C1918 0.950 . S
H1913 C1919 0.950 . S
H1914 C1920 0.949 . S
C1915 H1910 0.950 . S
C1915 C1917 1.327 . S
C1915 C1921 1.429 . S
C1916 C1908 1.574 . S
C1916 H1911 0.949 . S
C1916 C1922 1.368 . S
C1917 C1901 1.349 . S
C1917 H1909 0.962 . S
C1917 C1915 1.327 . S
C1918 C1906 1.349 . S
C1918 H1912 0.950 . S
C1918 C1919 1.327 . S
C1919 H1913 0.950 . S
C1919 C1918 1.327 . S
C1919 C1923 1.429 . S
C1920 C1903 1.574 . S
C1920 H1914 0.949 . S
C1920 C1924 1.368 . S
C1921 C1902 1.429 . S
C1921 C1915 1.429 . S
C1921 C1922 1.523 . S
C1922 C1903 1.368 . S
C1922 C1916 1.368 . S
C1922 C1921 1.523 . S
C1923 C1907 1.429 . S
C1923 C1919 1.429 . S
C1923 C1924 1.523 . S
C1924 C1908 1.368 . S
C1924 C1920 1.368 . S
C1924 C1923 1.523 . S
H1925 C1900 0.950 . S
H1926 C1902 0.950 . S
H1927 C1903 0.949 . S
H1928 C1905 0.950 . S
H1929 C1907 0.950 . S
C1930 C1931 1.349 . S
C1930 C1932 1.327 . S
C1930 H1955 0.950 . S
C1931 C1930 1.349 . S
C1931 C1947 1.349 . S
C1932 C1930 1.327 . S
C1932 C1951 1.429 . S
C1932 H1956 0.950 . S
C1933 C1950 1.574 . S
C1933 C1952 1.368 . S
C1933 H1957 0.949 . S
H1934 C1938 0.949 . S
C1935 C1936 1.349 . S
C1935 C1937 1.327 . S
C1935 H1958 0.950 . S
C1936 C1935 1.349 . S
C1936 C1948 1.349 . S
C1937 C1935 1.327 . S
C1937 C1953 1.429 . S
C1937 H1959 0.950 . S
C1938 H1934 0.949 . S
C1938 C1946 1.574 . S
C1938 C1954 1.368 . S
H1939 C1947 0.950 . S
H1940 C1945 0.950 . S
H1941 C1946 0.949 . S
H1942 C1948 0.950 . S
H1943 C1949 0.950 . S
H1944 C1950 0.949 . S
C1945 H1940 0.950 . S
C1945 C1947 1.327 . S
C1945 C1951 1.429 . S
C1946 C1938 1.574 . S
C1946 H1941 0.949 . S
C1946 C1952 1.368 . S
C1947 C1931 1.349 . S
C1947 H1939 0.950 . S
C1947 C1945 1.327 . S
C1948 C1936 1.349 . S
C1948 H1942 0.950 . S
C1948 C1949 1.327 . S
C1949 H1943 0.950 . S
C1949 C1948 1.327 . S
C1949 C1953 1.429 . S
C1950 C1933 1.574 . S
C1950 H1944 0.949 . S
C1950 C1954 1.368 . S
C1951 C1932 1.429 . S
C1951 C1945 1.429 . S
C1951 C1952 1.523 . S
C1952 C1933 1.368 . S
C1952 C1946 1.368 . S
C1952 C1951 1.523 . S
C1953 C1937 1.429 . S
C1953 C1949 1.429 . S
C1953 C1954 1.523 . S
C1954 C1938 1.368 . S
C1954 C1950 1.368 . S
C1954 C1953 1.523 . S
H1955 C1930 0.950 . S
H1956 C1932 0.950 . S
H1957 C1933 0.949 . S
H1958 C1935 0.950 . S
H1959 C1937 0.950 . S
C1960 C1961 1.349 . S
C1960 C1962 1.327 . S
C1960 H1985 0.950 . S
C1961 C1960 1.349 . S
C1961 C1977 1.349 . S
C1962 C1960 1.327 . S
C1962 C1981 1.429 . S
C1962 H1986 0.950 . S
C1963 C1980 1.574 . S
C1963 C1982 1.368 . S
C1963 H1987 0.949 . S
H1964 C1968 0.949 . S
C1965 C1966 1.349 . S
C1965 C1967 1.327 . S
C1965 H1988 0.950 . S
C1966 C1965 1.349 . S
C1966 C1978 1.349 . S
C1967 C1965 1.327 . S
C1967 C1983 1.429 . S
C1967 H1989 0.950 . S
C1968 H1964 0.949 . S
C1968 C1976 1.574 . S
C1968 C1984 1.368 . S
H1969 C1977 0.950 . S
H1970 C1975 0.950 . S
H1971 C1976 0.949 . S
H1972 C1978 0.950 . S
H1973 C1979 0.950 . S
H1974 C1980 0.949 . S
C1975 H1970 0.950 . S
C1975 C1977 1.327 . S
C1975 C1981 1.429 . S
C1976 C1968 1.574 . S
C1976 H1971 0.949 . S
C1976 C1982 1.368 . S
C1977 C1961 1.349 . S
C1977 H1969 0.950 . S
C1977 C1975 1.327 . S
C1978 C1966 1.349 . S
C1978 H1972 0.950 . S
C1978 C1979 1.327 . S
C1979 H1973 0.950 . S
C1979 C1978 1.327 . S
C1979 C1983 1.429 . S
C1980 C1963 1.574 . S
C1980 H1974 0.949 . S
C1980 C1984 1.368 . S
C1981 C1962 1.429 . S
C1981 C1975 1.429 . S
C1981 C1982 1.523 . S
C1982 C1963 1.368 . S
C1982 C1976 1.368 . S
C1982 C1981 1.523 . S
C1983 C1967 1.429 . S
C1983 C1979 1.429 . S
C1983 C1984 1.523 . S
C1984 C1968 1.368 . S
C1984 C1980 1.368 . S
C1984 C1983 1.523 . S
H1985 C1960 0.950 . S
H1986 C1962 0.950 . S
H1987 C1963 0.949 . S
H1988 C1965 0.950 . S
H1989 C1967 0.950 . S
C1990 C1991 1.349 . S
C1990 C1992 1.327 . S
C1990 H2015 0.950 . S
C1991 C1990 1.349 . S
C1991 C2007 1.349 . S
C1992 C1990 1.327 . S
C1992 C2011 1.429 . S
C1992 H2016 0.950 . S
C1993 C2010 1.574 . S
C1993 C2012 1.368 . S
C1993 H2017 0.949 . S
H1994 C1998 0.949 . S
C1995 C1996 1.349 . S
C1995 C1997 1.327 . S
C1995 H2018 0.950 . S
C1996 C1995 1.349 . S
C1996 C2008 1.349 . S
C1997 C1995 1.327 . S
C1997 C2013 1.429 . S
C1997 H2019 0.950 . S
C1998 H1994 0.949 . S
C1998 C2006 1.574 . S
C1998 C2014 1.368 . S
H1999 C2007 0.950 . S
H2000 C2005 0.950 . S
H2001 C2006 0.949 . S
H2002 C2008 0.950 . S
H2003 C2009 0.950 . S
H2004 C2010 0.949 . S
C2005 H2000 0.950 . S
C2005 C2007 1.327 . S
C2005 C2011 1.429 . S
C2006 C1998 1.574 . S
C2006 H2001 0.949 . S
C2006 C2012 1.368 . S
C2007 C1991 1.349 . S
C2007 H1999 0.950 . S
C2007 C2005 1.327 . S
C2008 C1996 1.349 . S
C2008 H2002 0.950 . S
C2008 C2009 1.327 . S
C2009 H2003 0.950 . S
C2009 C2008 1.327 . S
C2009 C2013 1.429 . S
C2010 C1993 1.574 . S
C2010 H2004 0.949 . S
C2010 C2014 1.368 . S
C2011 C1992 1.429 . S
C2011 C2005 1.429 . S
C2011 C2012 1.523 . S
C2012 C1993 1.368 . S
C2012 C2006 1.368 . S
C2012 C2011 1.523 . S
C2013 C1997 1.429 . S
C2013 C2009 1.429 . S
C2013 C2014 1.523 . S
C2014 C1998 1.368 . S
C2014 C2010 1.368 . S
C2014 C2013 1.523 . S
H2015 C1990 0.950 . S
H2016 C1992 0.950 . S
H2017 C1993 0.949 . S
H2018 C1995 0.950 . S
H2019 C1997 0.950 . S
C2020 C2021 1.349 . S
C2020 C2022 1.327 . S
C2020 H2045 0.950 . S
C2021 C2020 1.349 . S
C2021 C2037 1.349 . S
C2022 C2020 1.327 . S
C2022 C2041 1.429 . S
C2022 H2046 0.950 . S
C2023 C2040 1.574 . S
C2023 C2042 1.368 . S
C2023 H2047 0.949 . S
H2024 C2028 0.949 . S
C2025 C2026 1.349 . S
C2025 C2027 1.327 . S
C2025 H2048 0.950 . S
C2026 C2025 1.349 . S
C2026 C2038 1.349 . S
C2027 C2025 1.327 . S
C2027 C2043 1.429 . S
C2027 H2049 0.950 . S
C2028 H2024 0.949 . S
C2028 C2036 1.574 . S
C2028 C2044 1.368 . S
H2029 C2037 0.950 . S
H2030 C2035 0.950 . S
H2031 C2036 0.949 . S
H2032 C2038 0.950 . S
H2033 C2039 0.950 . S
H2034 C2040 0.949 . S
C2035 H2030 0.950 . S
C2035 C2037 1.327 . S
C2035 C2041 1.429 . S
C2036 C2028 1.574 . S
C2036 H2031 0.949 . S
C2036 C2042 1.368 . S
C2037 C2021 1.349 . S
C2037 H2029 0.950 . S
C2037 C2035 1.327 . S
C2038 C2026 1.349 . S
C2038 H2032 0.950 . S
C2038 C2039 1.327 . S
C2039 H2033 0.950 . S
C2039 C2038 1.327 . S
C2039 C2043 1.429 . S
C2040 C2023 1.574 . S
C2040 H2034 0.949 . S
C2040 C2044 1.368 . S
C2041 C2022 1.429 . S
C2041 C2035 1.429 . S
C2041 C2042 1.523 . S
C2042 C2023 1.368 . S
C2042 C2036 1.368 . S
C2042 C2041 1.523 . S
C2043 C2027 1.429 . S
C2043 C2039 1.429 . S
C2043 C2044 1.523 . S
C2044 C2028 1.368 . S
C2044 C2040 1.368 . S
C2044 C2043 1.523 . S
H2045 C2020 0.950 . S
H2046 C2022 0.950 . S
H2047 C2023 0.949 . S
H2048 C2025 0.950 . S
H2049 C2027 0.950 . S
C2050 C2051 1.349 . S
C2050 C2052 1.327 . S
C2050 H2075 0.950 . S
C2051 C2050 1.349 . S
C2051 C2067 1.349 . S
C2052 C2050 1.327 . S
C2052 C2071 1.429 . S
C2052 H2076 0.950 . S
C2053 C2070 1.574 . S
C2053 C2072 1.368 . S
C2053 H2077 0.949 . S
H2054 C2058 0.949 . S
C2055 C2056 1.349 . S
C2055 C2057 1.327 . S
C2055 H2078 0.950 . S
C2056 C2055 1.349 . S
C2056 C2068 1.349 . S
C2057 C2055 1.327 . S
C2057 C2073 1.429 . S
C2057 H2079 0.950 . S
C2058 H2054 0.949 . S
C2058 C2066 1.574 . S
C2058 C2074 1.368 . S
H2059 C2067 0.950 . S
H2060 C2065 0.950 . S
H2061 C2066 0.949 . S
H2062 C2068 0.950 . S
H2063 C2069 0.950 . S
H2064 C2070 0.949 . S
C2065 H2060 0.950 . S
C2065 C2067 1.327 . S
C2065 C2071 1.429 . S
C2066 C2058 1.574 . S
C2066 H2061 0.949 . S
C2066 C2072 1.368 . S
C2067 C2051 1.349 . S
C2067 H2059 0.950 . S
C2067 C2065 1.327 . S
C2068 C2056 1.349 . S
C2068 H2062 0.950 . S
C2068 C2069 1.327 . S
C2069 H2063 0.950 . S
C2069 C2068 1.327 . S
C2069 C2073 1.429 . S
C2070 C2053 1.574 . S
C2070 H2064 0.949 . S
C2070 C2074 1.368 . S
C2071 C2052 1.429 . S
C2071 C2065 1.429 . S
C2071 C2072 1.523 . S
C2072 C2053 1.368 . S
C2072 C2066 1.368 . S
C2072 C2071 1.523 . S
C2073 C2057 1.429 . S
C2073 C2069 1.429 . S
C2073 C2074 1.523 . S
C2074 C2058 1.368 . S
C2074 C2070 1.368 . S
C2074 C2073 1.523 . S
H2075 C2050 0.950 . S
H2076 C2052 0.950 . S
H2077 C2053 0.949 . S
H2078 C2055 0.950 . S
H2079 C2057 0.950 . S
C641 C19 0.921 . S
C646 C55 0.908 . S
C671 C99 1.772 . S
C676 C50 1.749 . S
C701 C130 2.044 . S
C706 C98 2.040 . S
C731 C18 1.002 . S
C736 C135 0.998 . S
C761 C9 1.002 . S
C766 C366 0.998 . S
C791 C290 0.921 . S
C796 C46 0.908 . S
C821 C90 1.772 . S
C826 C419 1.749 . S
C851 C139 2.044 . S
C856 C529 2.040 . S
C881 C330 1.772 . S
C886 C59 1.750 . S
C911 C499 2.044 . S
C916 C89 2.040 . S
C941 C569 1.002 . S
C946 C126 0.998 . S
C971 C10 0.921 . S
C976 C446 0.908 . S
C1001 C15 0.669 . S
C1006 C326 0.628 . S
C1031 C498 1.443 . S
C1036 C169 1.448 . S
C1061 C215 0.628 . S
C1066 C566 0.669 . S
C1091 C449 1.448 . S
C1096 C258 1.443 . S
C1121 C95 0.628 . S
C1126 C286 0.669 . S
C1151 C369 1.443 . S
C1156 C178 1.447 . S
C1181 C249 1.443 . S
C1186 C418 1.447 . S
C1211 C210 1.772 . S
C1216 C459 1.749 . S
C1241 C379 2.044 . S
C1246 C209 2.040 . S
C1271 C455 0.908 . S
C1276 C299 0.921 . S
C1301 C219 1.772 . S
C1306 C170 1.749 . S
C1331 C370 2.044 . S
C1336 C338 2.040 . S
C1361 C539 1.772 . S
C1366 C450 1.749 . S
C1391 C250 2.044 . S
C1396 C218 2.040 . S
C1421 C375 0.998 . S
C1426 C578 1.002 . S
C1451 C535 0.628 . S
C1456 C6 0.669 . S
C1481 C86 0.628 . S
C1486 C575 0.669 . S
C1511 C489 1.443 . S
C1516 C58 1.448 . S
C1541 C295 0.669 . S
C1546 C206 0.628 . S
C1571 C138 1.443 . S
C1576 C409 1.448 . S
C1601 C490 2.044 . S
C1606 C538 2.040 . S
C1631 C298 1.002 . S
C1636 C495 0.998 . S
C1661 C246 0.998 . S
C1666 C289 1.002 . S
C1691 C179 1.749 . S
C1696 C530 1.772 . S
C1721 C486 0.998 . S
C1726 C609 1.001 . S
C1751 C606 0.669 . S
C1756 C335 0.628 . S
C1781 C49 1.447 . S
C1786 C378 1.443 . S
C1811 C329 2.040 . S
C1816 C259 2.044 . S
C1841 C339 1.772 . S
C1846 C410 1.749 . S
C1871 C618 1.002 . S
C1876 C255 0.998 . S
C1901 C526 0.628 . S
C1906 C615 0.669 . S
C1931 C458 1.448 . S
C1936 C129 1.443 . S
C1961 C415 0.908 . S
C1966 C579 0.921 . S
C1991 C406 0.908 . S
C1996 C610 0.921 . S
C2021 C166 0.908 . S
C2026 C570 0.921 . S
C2051 C619 0.921 . S
C2056 C175 0.908 . S
