# Generated by pormake.
# Topology ana, (4)-cn, num edge types: 1
# Building blocks:
#     Node 0, Type 0, BuildingBlock: CEKHIL_clean_sbu_0, # of connection points: 4
#     Node 1, Type 0, BuildingBlock: CEKHIL_clean_sbu_0, # of connection points: 4
#     Node 2, Type 0, BuildingBlock: CEKHIL_clean_sbu_0, # of connection points: 4
#     Node 3, Type 0, BuildingBlock: CEKHIL_clean_sbu_0, # of connection points: 4
#     Node 4, Type 0, BuildingBlock: CEKHIL_clean_sbu_0, # of connection points: 4
#     Node 5, Type 0, BuildingBlock: CEKHIL_clean_sbu_0, # of connection points: 4
#     Node 6, Type 0, BuildingBlock: CEKHIL_clean_sbu_0, # of connection points: 4
#     Node 7, Type 0, BuildingBlock: CEKHIL_clean_sbu_0, # of connection points: 4
#     Node 8, Type 0, BuildingBlock: CEKHIL_clean_sbu_0, # of connection points: 4
#     Node 9, Type 0, BuildingBlock: CEKHIL_clean_sbu_0, # of connection points: 4
#     Node 10, Type 0, BuildingBlock: CEKHIL_clean_sbu_0, # of connection points: 4
#     Node 11, Type 0, BuildingBlock: CEKHIL_clean_sbu_0, # of connection points: 4
#     Node 12, Type 0, BuildingBlock: CEKHIL_clean_sbu_0, # of connection points: 4
#     Node 13, Type 0, BuildingBlock: CEKHIL_clean_sbu_0, # of connection points: 4
#     Node 14, Type 0, BuildingBlock: CEKHIL_clean_sbu_0, # of connection points: 4
#     Node 15, Type 0, BuildingBlock: CEKHIL_clean_sbu_0, # of connection points: 4
#     Node 16, Type 0, BuildingBlock: CEKHIL_clean_sbu_0, # of connection points: 4
#     Node 17, Type 0, BuildingBlock: CEKHIL_clean_sbu_0, # of connection points: 4
#     Node 18, Type 0, BuildingBlock: CEKHIL_clean_sbu_0, # of connection points: 4
#     Node 19, Type 0, BuildingBlock: CEKHIL_clean_sbu_0, # of connection points: 4
#     Node 20, Type 0, BuildingBlock: CEKHIL_clean_sbu_0, # of connection points: 4
#     Node 21, Type 0, BuildingBlock: CEKHIL_clean_sbu_0, # of connection points: 4
#     Node 22, Type 0, BuildingBlock: CEKHIL_clean_sbu_0, # of connection points: 4
#     Node 23, Type 0, BuildingBlock: CEKHIL_clean_sbu_0, # of connection points: 4
#     Node 24, Type 0, BuildingBlock: CEKHIL_clean_sbu_0, # of connection points: 4
#     Node 25, Type 0, BuildingBlock: CEKHIL_clean_sbu_0, # of connection points: 4
#     Node 26, Type 0, BuildingBlock: CEKHIL_clean_sbu_0, # of connection points: 4
#     Node 27, Type 0, BuildingBlock: CEKHIL_clean_sbu_0, # of connection points: 4
#     Node 28, Type 0, BuildingBlock: CEKHIL_clean_sbu_0, # of connection points: 4
#     Node 29, Type 0, BuildingBlock: CEKHIL_clean_sbu_0, # of connection points: 4
#     Node 30, Type 0, BuildingBlock: CEKHIL_clean_sbu_0, # of connection points: 4
#     Node 31, Type 0, BuildingBlock: CEKHIL_clean_sbu_0, # of connection points: 4
#     Node 32, Type 0, BuildingBlock: CEKHIL_clean_sbu_0, # of connection points: 4
#     Node 33, Type 0, BuildingBlock: CEKHIL_clean_sbu_0, # of connection points: 4
#     Node 34, Type 0, BuildingBlock: CEKHIL_clean_sbu_0, # of connection points: 4
#     Node 35, Type 0, BuildingBlock: CEKHIL_clean_sbu_0, # of connection points: 4
#     Node 36, Type 0, BuildingBlock: CEKHIL_clean_sbu_0, # of connection points: 4
#     Node 37, Type 0, BuildingBlock: CEKHIL_clean_sbu_0, # of connection points: 4
#     Node 38, Type 0, BuildingBlock: CEKHIL_clean_sbu_0, # of connection points: 4
#     Node 39, Type 0, BuildingBlock: CEKHIL_clean_sbu_0, # of connection points: 4
#     Node 40, Type 0, BuildingBlock: CEKHIL_clean_sbu_0, # of connection points: 4
#     Node 41, Type 0, BuildingBlock: CEKHIL_clean_sbu_0, # of connection points: 4
#     Node 42, Type 0, BuildingBlock: CEKHIL_clean_sbu_0, # of connection points: 4
#     Node 43, Type 0, BuildingBlock: CEKHIL_clean_sbu_0, # of connection points: 4
#     Node 44, Type 0, BuildingBlock: CEKHIL_clean_sbu_0, # of connection points: 4
#     Node 45, Type 0, BuildingBlock: CEKHIL_clean_sbu_0, # of connection points: 4
#     Node 46, Type 0, BuildingBlock: CEKHIL_clean_sbu_0, # of connection points: 4
#     Node 47, Type 0, BuildingBlock: CEKHIL_clean_sbu_0, # of connection points: 4
#     Edge 48, Type (0, 0), BuildingBlock: CIFDUS_clean_linker_0, # of connection points: 2
#     Edge 49, Type (0, 0), BuildingBlock: CIFDUS_clean_linker_0, # of connection points: 2
#     Edge 50, Type (0, 0), BuildingBlock: CIFDUS_clean_linker_0, # of connection points: 2
#     Edge 51, Type (0, 0), BuildingBlock: CIFDUS_clean_linker_0, # of connection points: 2
#     Edge 52, Type (0, 0), BuildingBlock: CIFDUS_clean_linker_0, # of connection points: 2
#     Edge 53, Type (0, 0), BuildingBlock: CIFDUS_clean_linker_0, # of connection points: 2
#     Edge 54, Type (0, 0), BuildingBlock: CIFDUS_clean_linker_0, # of connection points: 2
#     Edge 55, Type (0, 0), BuildingBlock: CIFDUS_clean_linker_0, # of connection points: 2
#     Edge 56, Type (0, 0), BuildingBlock: CIFDUS_clean_linker_0, # of connection points: 2
#     Edge 57, Type (0, 0), BuildingBlock: CIFDUS_clean_linker_0, # of connection points: 2
#     Edge 58, Type (0, 0), BuildingBlock: CIFDUS_clean_linker_0, # of connection points: 2
#     Edge 59, Type (0, 0), BuildingBlock: CIFDUS_clean_linker_0, # of connection points: 2
#     Edge 60, Type (0, 0), BuildingBlock: CIFDUS_clean_linker_0, # of connection points: 2
#     Edge 61, Type (0, 0), BuildingBlock: CIFDUS_clean_linker_0, # of connection points: 2
#     Edge 62, Type (0, 0), BuildingBlock: CIFDUS_clean_linker_0, # of connection points: 2
#     Edge 63, Type (0, 0), BuildingBlock: CIFDUS_clean_linker_0, # of connection points: 2
#     Edge 64, Type (0, 0), BuildingBlock: CIFDUS_clean_linker_0, # of connection points: 2
#     Edge 65, Type (0, 0), BuildingBlock: CIFDUS_clean_linker_0, # of connection points: 2
#     Edge 66, Type (0, 0), BuildingBlock: CIFDUS_clean_linker_0, # of connection points: 2
#     Edge 67, Type (0, 0), BuildingBlock: CIFDUS_clean_linker_0, # of connection points: 2
#     Edge 68, Type (0, 0), BuildingBlock: CIFDUS_clean_linker_0, # of connection points: 2
#     Edge 69, Type (0, 0), BuildingBlock: CIFDUS_clean_linker_0, # of connection points: 2
#     Edge 70, Type (0, 0), BuildingBlock: CIFDUS_clean_linker_0, # of connection points: 2
#     Edge 71, Type (0, 0), BuildingBlock: CIFDUS_clean_linker_0, # of connection points: 2
#     Edge 72, Type (0, 0), BuildingBlock: CIFDUS_clean_linker_0, # of connection points: 2
#     Edge 73, Type (0, 0), BuildingBlock: CIFDUS_clean_linker_0, # of connection points: 2
#     Edge 74, Type (0, 0), BuildingBlock: CIFDUS_clean_linker_0, # of connection points: 2
#     Edge 75, Type (0, 0), BuildingBlock: CIFDUS_clean_linker_0, # of connection points: 2
#     Edge 76, Type (0, 0), BuildingBlock: CIFDUS_clean_linker_0, # of connection points: 2
#     Edge 77, Type (0, 0), BuildingBlock: CIFDUS_clean_linker_0, # of connection points: 2
#     Edge 78, Type (0, 0), BuildingBlock: CIFDUS_clean_linker_0, # of connection points: 2
#     Edge 79, Type (0, 0), BuildingBlock: CIFDUS_clean_linker_0, # of connection points: 2
#     Edge 80, Type (0, 0), BuildingBlock: CIFDUS_clean_linker_0, # of connection points: 2
#     Edge 81, Type (0, 0), BuildingBlock: CIFDUS_clean_linker_0, # of connection points: 2
#     Edge 82, Type (0, 0), BuildingBlock: CIFDUS_clean_linker_0, # of connection points: 2
#     Edge 83, Type (0, 0), BuildingBlock: CIFDUS_clean_linker_0, # of connection points: 2
#     Edge 84, Type (0, 0), BuildingBlock: CIFDUS_clean_linker_0, # of connection points: 2
#     Edge 85, Type (0, 0), BuildingBlock: CIFDUS_clean_linker_0, # of connection points: 2
#     Edge 86, Type (0, 0), BuildingBlock: CIFDUS_clean_linker_0, # of connection points: 2
#     Edge 87, Type (0, 0), BuildingBlock: CIFDUS_clean_linker_0, # of connection points: 2
#     Edge 88, Type (0, 0), BuildingBlock: CIFDUS_clean_linker_0, # of connection points: 2
#     Edge 89, Type (0, 0), BuildingBlock: CIFDUS_clean_linker_0, # of connection points: 2
#     Edge 90, Type (0, 0), BuildingBlock: CIFDUS_clean_linker_0, # of connection points: 2
#     Edge 91, Type (0, 0), BuildingBlock: CIFDUS_clean_linker_0, # of connection points: 2
#     Edge 92, Type (0, 0), BuildingBlock: CIFDUS_clean_linker_0, # of connection points: 2
#     Edge 93, Type (0, 0), BuildingBlock: CIFDUS_clean_linker_0, # of connection points: 2
#     Edge 94, Type (0, 0), BuildingBlock: CIFDUS_clean_linker_0, # of connection points: 2
#     Edge 95, Type (0, 0), BuildingBlock: CIFDUS_clean_linker_0, # of connection points: 2
#     Edge 96, Type (0, 0), BuildingBlock: CIFDUS_clean_linker_0, # of connection points: 2
#     Edge 97, Type (0, 0), BuildingBlock: CIFDUS_clean_linker_0, # of connection points: 2
#     Edge 98, Type (0, 0), BuildingBlock: CIFDUS_clean_linker_0, # of connection points: 2
#     Edge 99, Type (0, 0), BuildingBlock: CIFDUS_clean_linker_0, # of connection points: 2
#     Edge 100, Type (0, 0), BuildingBlock: CIFDUS_clean_linker_0, # of connection points: 2
#     Edge 101, Type (0, 0), BuildingBlock: CIFDUS_clean_linker_0, # of connection points: 2
#     Edge 102, Type (0, 0), BuildingBlock: CIFDUS_clean_linker_0, # of connection points: 2
#     Edge 103, Type (0, 0), BuildingBlock: CIFDUS_clean_linker_0, # of connection points: 2
#     Edge 104, Type (0, 0), BuildingBlock: CIFDUS_clean_linker_0, # of connection points: 2
#     Edge 105, Type (0, 0), BuildingBlock: CIFDUS_clean_linker_0, # of connection points: 2
#     Edge 106, Type (0, 0), BuildingBlock: CIFDUS_clean_linker_0, # of connection points: 2
#     Edge 107, Type (0, 0), BuildingBlock: CIFDUS_clean_linker_0, # of connection points: 2
#     Edge 108, Type (0, 0), BuildingBlock: CIFDUS_clean_linker_0, # of connection points: 2
#     Edge 109, Type (0, 0), BuildingBlock: CIFDUS_clean_linker_0, # of connection points: 2
#     Edge 110, Type (0, 0), BuildingBlock: CIFDUS_clean_linker_0, # of connection points: 2
#     Edge 111, Type (0, 0), BuildingBlock: CIFDUS_clean_linker_0, # of connection points: 2
#     Edge 112, Type (0, 0), BuildingBlock: CIFDUS_clean_linker_0, # of connection points: 2
#     Edge 113, Type (0, 0), BuildingBlock: CIFDUS_clean_linker_0, # of connection points: 2
#     Edge 114, Type (0, 0), BuildingBlock: CIFDUS_clean_linker_0, # of connection points: 2
#     Edge 115, Type (0, 0), BuildingBlock: CIFDUS_clean_linker_0, # of connection points: 2
#     Edge 116, Type (0, 0), BuildingBlock: CIFDUS_clean_linker_0, # of connection points: 2
#     Edge 117, Type (0, 0), BuildingBlock: CIFDUS_clean_linker_0, # of connection points: 2
#     Edge 118, Type (0, 0), BuildingBlock: CIFDUS_clean_linker_0, # of connection points: 2
#     Edge 119, Type (0, 0), BuildingBlock: CIFDUS_clean_linker_0, # of connection points: 2
#     Edge 120, Type (0, 0), BuildingBlock: CIFDUS_clean_linker_0, # of connection points: 2
#     Edge 121, Type (0, 0), BuildingBlock: CIFDUS_clean_linker_0, # of connection points: 2
#     Edge 122, Type (0, 0), BuildingBlock: CIFDUS_clean_linker_0, # of connection points: 2
#     Edge 123, Type (0, 0), BuildingBlock: CIFDUS_clean_linker_0, # of connection points: 2
#     Edge 124, Type (0, 0), BuildingBlock: CIFDUS_clean_linker_0, # of connection points: 2
#     Edge 125, Type (0, 0), BuildingBlock: CIFDUS_clean_linker_0, # of connection points: 2
#     Edge 126, Type (0, 0), BuildingBlock: CIFDUS_clean_linker_0, # of connection points: 2
#     Edge 127, Type (0, 0), BuildingBlock: CIFDUS_clean_linker_0, # of connection points: 2
#     Edge 128, Type (0, 0), BuildingBlock: CIFDUS_clean_linker_0, # of connection points: 2
#     Edge 129, Type (0, 0), BuildingBlock: CIFDUS_clean_linker_0, # of connection points: 2
#     Edge 130, Type (0, 0), BuildingBlock: CIFDUS_clean_linker_0, # of connection points: 2
#     Edge 131, Type (0, 0), BuildingBlock: CIFDUS_clean_linker_0, # of connection points: 2
#     Edge 132, Type (0, 0), BuildingBlock: CIFDUS_clean_linker_0, # of connection points: 2
#     Edge 133, Type (0, 0), BuildingBlock: CIFDUS_clean_linker_0, # of connection points: 2
#     Edge 134, Type (0, 0), BuildingBlock: CIFDUS_clean_linker_0, # of connection points: 2
#     Edge 135, Type (0, 0), BuildingBlock: CIFDUS_clean_linker_0, # of connection points: 2
#     Edge 136, Type (0, 0), BuildingBlock: CIFDUS_clean_linker_0, # of connection points: 2
#     Edge 137, Type (0, 0), BuildingBlock: CIFDUS_clean_linker_0, # of connection points: 2
#     Edge 138, Type (0, 0), BuildingBlock: CIFDUS_clean_linker_0, # of connection points: 2
#     Edge 139, Type (0, 0), BuildingBlock: CIFDUS_clean_linker_0, # of connection points: 2
#     Edge 140, Type (0, 0), BuildingBlock: CIFDUS_clean_linker_0, # of connection points: 2
#     Edge 141, Type (0, 0), BuildingBlock: CIFDUS_clean_linker_0, # of connection points: 2
#     Edge 142, Type (0, 0), BuildingBlock: CIFDUS_clean_linker_0, # of connection points: 2
#     Edge 143, Type (0, 0), BuildingBlock: CIFDUS_clean_linker_0, # of connection points: 2
# Relax obj value: 0.099
# Max RMSD: 0.122
# Mean RMSD: 0.112
data_MOF--net-ana--node1-CEKHIL_clean_sbu_0--edge1-CIFDUS_clean_linker_0
_symmetry_space_group_name_H-M    P1
_symmetry_Int_Tables_number       1
_symmetry_cell_setting            triclinic
loop_
_symmetry_equiv_pos_as_xyz
'x, y, z'
_cell_length_a     57.147331
_cell_length_b     55.989362
_cell_length_c     56.068296
_cell_angle_alpha  90.122057
_cell_angle_beta   90.045103
_cell_angle_gamma 90.340402
loop_
_atom_site_label
_atom_site_type_symbol
_atom_site_fract_x
_atom_site_fract_y
_atom_site_fract_z
_atom_type_partial_charge
Co0 Co 0.13002 0.17752 0.41554 0.0
O1 O 0.16331 0.17681 0.42049 0.0
O2 O 0.14222 0.14624 0.40742 0.0
C3 C 0.12964 0.21273 0.39608 0.0
O4 O 0.09559 0.17194 0.4069 0.0
Co5 Co 0.09886 0.21772 0.43654 0.0
O6 O 0.07731 0.20718 0.41076 0.0
C7 C 0.11485 0.17825 0.46763 0.0
C8 C 0.16273 0.15496 0.41272 0.0
C9 C 0.07818 0.18589 0.40281 0.0
O10 O 0.12444 0.1676 0.44975 0.0
O11 O 0.10488 0.19863 0.4661 0.0
O12 O 0.13461 0.19314 0.38474 0.0
O13 O 0.12697 0.21067 0.41883 0.0
Co14 Co 0.08011 0.8736 0.66518 0.0
O15 O 0.10533 0.87525 0.68795 0.0
O16 O 0.06798 0.88174 0.6963 0.0
C17 C 0.09026 0.83876 0.64826 0.0
O18 O 0.04933 0.87255 0.64677 0.0
Co19 Co 0.09017 0.87559 0.61096 0.0
O20 O 0.05711 0.86463 0.60826 0.0
C21 C 0.09529 0.91911 0.63999 0.0
C22 C 0.0895 0.88031 0.70373 0.0
C23 C 0.04276 0.86684 0.62551 0.0
O24 O 0.08507 0.90831 0.65735 0.0
O25 O 0.10092 0.90861 0.62052 0.0
O26 O 0.07871 0.83909 0.66819 0.0
O27 O 0.0974 0.85932 0.64055 0.0
Co28 Co 0.37041 0.82241 0.90528 0.0
O29 O 0.33758 0.81602 0.9049 0.0
O30 O 0.35353 0.8499 0.89253 0.0
C31 C 0.38061 0.78706 0.88918 0.0
O32 O 0.40446 0.83391 0.90209 0.0
Co33 Co 0.40139 0.79032 0.93714 0.0
O34 O 0.42635 0.80405 0.91678 0.0
C35 C 0.37359 0.82829 0.95949 0.0
C36 C 0.33476 0.8369 0.89557 0.0
C37 C 0.42435 0.82347 0.90511 0.0
O38 O 0.3679 0.83585 0.93863 0.0
O39 O 0.38555 0.80931 0.96279 0.0
O40 O 0.37421 0.80465 0.87567 0.0
O41 O 0.3784 0.7906 0.91185 0.0
Co42 Co 0.42327 0.12415 0.16494 0.0
O43 O 0.39532 0.12369 0.184 0.0
O44 O 0.43054 0.11354 0.19689 0.0
C45 C 0.41756 0.1607 0.14923 0.0
O46 O 0.4561 0.12322 0.15073 0.0
Co47 Co 0.41973 0.12582 0.10993 0.0
O48 O 0.45391 0.13245 0.11177 0.0
C49 C 0.40782 0.08151 0.13528 0.0
C50 C 0.40844 0.11662 0.20146 0.0
C51 C 0.46574 0.12833 0.1306 0.0
O52 O 0.41686 0.0903 0.1544 0.0
O53 O 0.40505 0.09358 0.11612 0.0
O54 O 0.42679 0.15835 0.17026 0.0
O55 O 0.41019 0.14115 0.13935 0.0
Co56 Co 0.12372 0.83004 0.07605 0.0
O57 O 0.0901 0.82986 0.07458 0.0
O58 O 0.11062 0.83688 0.10732 0.0
C59 C 0.12897 0.85218 0.04278 0.0
O60 O 0.15865 0.83275 0.08401 0.0
Co61 Co 0.1529 0.80767 0.03452 0.0
O62 O 0.17988 0.82142 0.05204 0.0
C63 C 0.12983 0.7764 0.0701 0.0
C64 C 0.09021 0.83511 0.09711 0.0
C65 C 0.17829 0.82986 0.07308 0.0
O66 O 0.12389 0.79451 0.08295 0.0
O67 O 0.13943 0.77835 0.04956 0.0
O68 O 0.12457 0.86262 0.06301 0.0
O69 O 0.12818 0.82922 0.04311 0.0
Co70 Co 0.41587 0.89236 0.34427 0.0
O71 O 0.43557 0.88905 0.37174 0.0
O72 O 0.44678 0.88165 0.33466 0.0
C73 C 0.40106 0.92833 0.35313 0.0
O74 O 0.40002 0.89463 0.31171 0.0
Co75 Co 0.36217 0.89327 0.35168 0.0
O76 O 0.36246 0.90479 0.31814 0.0
C77 C 0.38683 0.84767 0.35525 0.0
C78 C 0.45191 0.88216 0.35729 0.0
C79 C 0.37983 0.90162 0.30423 0.0
O80 O 0.40539 0.85825 0.34776 0.0
O81 O 0.36787 0.85875 0.3601 0.0
O82 O 0.42154 0.92645 0.3433 0.0
O83 O 0.39162 0.90849 0.36019 0.0
Co84 Co 0.3841 0.15971 0.57355 0.0
O85 O 0.41712 0.16354 0.56901 0.0
O86 O 0.40082 0.14754 0.6011 0.0
C87 C 0.37708 0.14505 0.53675 0.0
O88 O 0.35059 0.15166 0.5836 0.0
Co89 Co 0.34938 0.18809 0.54163 0.0
O90 O 0.32551 0.16761 0.55703 0.0
C91 C 0.37466 0.21262 0.5807 0.0
C92 C 0.41977 0.15356 0.58966 0.0
C93 C 0.32983 0.15468 0.57516 0.0
O94 O 0.38246 0.19257 0.58853 0.0
O95 O 0.36297 0.21455 0.56132 0.0
O96 O 0.38418 0.1309 0.55359 0.0
O97 O 0.37624 0.16739 0.5422 0.0
Co98 Co 0.09118 0.12455 0.84575 0.0
O99 O 0.06782 0.12865 0.87001 0.0
O100 O 0.06229 0.13582 0.83159 0.0
C101 C 0.10354 0.08827 0.85722 0.0
O102 O 0.11104 0.12124 0.81562 0.0
Co103 Co 0.14371 0.12064 0.86029 0.0
O104 O 0.14704 0.1096 0.82686 0.0
C105 C 0.11987 0.16699 0.86313 0.0
C106 C 0.05379 0.13531 0.85312 0.0
C107 C 0.13165 0.11328 0.81082 0.0
O108 O 0.10244 0.1584 0.85125 0.0
O109 O 0.13697 0.15426 0.8704 0.0
O110 O 0.08471 0.09031 0.84439 0.0
O111 O 0.11248 0.10808 0.86484 0.0
Co112 Co 0.17956 0.40677 0.13522 0.0
O113 O 0.20347 0.38342 0.13111 0.0
O114 O 0.20767 0.42172 0.12224 0.0
C115 C 0.16928 0.39635 0.17248 0.0
O116 O 0.15794 0.43558 0.13828 0.0
Co117 Co 0.12859 0.38741 0.14067 0.0
O118 O 0.12298 0.42102 0.15033 0.0
C119 C 0.15089 0.38689 0.09366 0.0
C120 C 0.21678 0.40045 0.12328 0.0
C121 C 0.13691 0.43842 0.14619 0.0
O122 O 0.16758 0.39992 0.10205 0.0
O123 O 0.13472 0.37783 0.10664 0.0
O124 O 0.18737 0.40995 0.16885 0.0
O125 O 0.15998 0.38711 0.15352 0.0
Co126 Co 0.6835 0.08964 0.86728 0.0
O127 O 0.70789 0.11335 0.86775 0.0
O128 O 0.71103 0.07718 0.88319 0.0
C129 C 0.67411 0.09338 0.82855 0.0
O130 O 0.66211 0.06029 0.86882 0.0
Co131 Co 0.63251 0.10519 0.85765 0.0
O132 O 0.62806 0.07051 0.85149 0.0
C133 C 0.65299 0.11403 0.90496 0.0
C134 C 0.72079 0.09771 0.87846 0.0
C135 C 0.64202 0.05486 0.85971 0.0
O136 O 0.67102 0.10202 0.89852 0.0
O137 O 0.6362 0.11901 0.8907 0.0
O138 O 0.69191 0.0807 0.8351 0.0
O139 O 0.66425 0.10573 0.84531 0.0
Co140 Co 0.84013 0.91788 0.38418 0.0
O141 O 0.86699 0.93791 0.38957 0.0
O142 O 0.83345 0.9501 0.3739 0.0
C143 C 0.84106 0.90025 0.42018 0.0
O144 O 0.80827 0.90278 0.37736 0.0
Co145 Co 0.84494 0.86362 0.38206 0.0
O146 O 0.81041 0.86382 0.3863 0.0
C147 C 0.85933 0.89159 0.34052 0.0
C148 C 0.85459 0.95519 0.38098 0.0
C149 C 0.79859 0.88235 0.38123 0.0
O150 O 0.85143 0.91009 0.35129 0.0
O151 O 0.85995 0.87094 0.35027 0.0
O152 O 0.83134 0.92094 0.41723 0.0
O153 O 0.85178 0.89162 0.40169 0.0
Co154 Co 0.85065 0.08266 0.121 0.0
O155 O 0.87501 0.05979 0.12602 0.0
O156 O 0.83813 0.05458 0.13698 0.0
C157 C 0.8591 0.09051 0.08263 0.0
O158 O 0.82083 0.10265 0.11741 0.0
Co159 Co 0.866 0.13502 0.11009 0.0
O160 O 0.83235 0.13801 0.10211 0.0
C161 C 0.87297 0.1152 0.15781 0.0
C162 C 0.85933 0.0462 0.13578 0.0
C163 C 0.81633 0.12314 0.10793 0.0
O164 O 0.85874 0.09806 0.1526 0.0
O165 O 0.88017 0.13047 0.1425 0.0
O166 O 0.8467 0.07179 0.08808 0.0
O167 O 0.86803 0.10197 0.10047 0.0
Co168 Co 0.34115 0.58005 0.62001 0.0
O169 O 0.36649 0.55779 0.62269 0.0
O170 O 0.33022 0.55132 0.63535 0.0
C171 C 0.34736 0.5899 0.58168 0.0
O172 O 0.31029 0.59812 0.61947 0.0
Co173 Co 0.35105 0.63366 0.61038 0.0
O174 O 0.31671 0.63506 0.60521 0.0
C175 C 0.36359 0.61248 0.6565 0.0
C176 C 0.35145 0.54352 0.63267 0.0
C177 C 0.30288 0.61838 0.61182 0.0
O178 O 0.35041 0.59441 0.65164 0.0
O179 O 0.36809 0.62902 0.64142 0.0
O180 O 0.3359 0.57051 0.58694 0.0
O181 O 0.35646 0.6013 0.59951 0.0
Co182 Co 0.16688 0.60299 0.36705 0.0
O183 O 0.18785 0.62978 0.36379 0.0
O184 O 0.19753 0.59491 0.37943 0.0
C185 C 0.15243 0.60501 0.32975 0.0
O186 O 0.15052 0.57084 0.3718 0.0
Co187 Co 0.11337 0.60926 0.36341 0.0
O188 O 0.11364 0.57412 0.35835 0.0
C189 C 0.13745 0.62302 0.4079 0.0
C190 C 0.20392 0.61623 0.37278 0.0
C191 C 0.13085 0.56153 0.3653 0.0
O192 O 0.15659 0.61436 0.39953 0.0
O193 O 0.11856 0.6243 0.39567 0.0
O194 O 0.17221 0.59456 0.33396 0.0
O195 O 0.14299 0.61575 0.34778 0.0
Co196 Co 0.33505 0.3967 0.87413 0.0
O197 O 0.31361 0.37015 0.87788 0.0
O198 O 0.30614 0.40764 0.88795 0.0
C199 C 0.34563 0.38853 0.83633 0.0
O200 O 0.35163 0.42902 0.87235 0.0
Co201 Co 0.38811 0.3905 0.86493 0.0
O202 O 0.38738 0.42482 0.85638 0.0
C203 C 0.36954 0.38555 0.91391 0.0
C204 C 0.29885 0.38569 0.8861 0.0
C205 C 0.37063 0.43785 0.86361 0.0
O206 O 0.3488 0.39046 0.90659 0.0
O207 O 0.38737 0.38405 0.90018 0.0
O208 O 0.32626 0.39965 0.84088 0.0
O209 O 0.35703 0.38082 0.85469 0.0
Co210 Co 0.86372 0.83264 0.594 0.0
O211 O 0.86869 0.80866 0.61788 0.0
O212 O 0.87678 0.80427 0.57948 0.0
C213 C 0.82718 0.84288 0.60498 0.0
O214 O 0.8599 0.85294 0.5641 0.0
Co215 Co 0.85677 0.88563 0.60904 0.0
O216 O 0.84615 0.88876 0.57548 0.0
C217 C 0.90338 0.86402 0.61276 0.0
C218 C 0.87643 0.79516 0.6008 0.0
C219 C 0.85087 0.87342 0.55936 0.0
O220 O 0.89611 0.84603 0.60037 0.0
O221 O 0.88983 0.88066 0.61999 0.0
O222 O 0.83061 0.82403 0.5919 0.0
O223 O 0.84589 0.85312 0.61309 0.0
Co224 Co 0.91183 0.13344 0.33441 0.0
O225 O 0.88509 0.1317 0.31354 0.0
O226 O 0.92167 0.12413 0.30284 0.0
C227 C 0.90313 0.16882 0.35111 0.0
O228 O 0.94401 0.13432 0.35046 0.0
Co229 Co 0.90571 0.13324 0.38942 0.0
O230 O 0.94001 0.13781 0.39031 0.0
C231 C 0.89733 0.0892 0.36205 0.0
C232 C 0.89972 0.12558 0.29694 0.0
C233 C 0.95258 0.13666 0.37161 0.0
O234 O 0.90625 0.099 0.3434 0.0
O235 O 0.89402 0.10035 0.38168 0.0
O236 O 0.91348 0.16801 0.33051 0.0
O237 O 0.89655 0.1485 0.35981 0.0
Co238 Co 0.6449 0.16953 0.08541 0.0
O239 O 0.64175 0.19129 0.11173 0.0
O240 O 0.63416 0.20028 0.07407 0.0
C241 C 0.68056 0.15539 0.09519 0.0
O242 O 0.64692 0.15202 0.05354 0.0
Co243 Co 0.64667 0.11528 0.09484 0.0
O244 O 0.657 0.11399 0.06098 0.0
C245 C 0.60181 0.14009 0.09915 0.0
C246 C 0.63495 0.20702 0.09628 0.0
C247 C 0.65361 0.13123 0.04657 0.0
O248 O 0.61156 0.15869 0.09004 0.0
O249 O 0.61321 0.12125 0.10461 0.0
O250 O 0.67833 0.1755 0.08392 0.0
O251 O 0.66118 0.1458 0.10254 0.0
Co252 Co 0.59578 0.87436 0.84324 0.0
O253 O 0.62267 0.8792 0.82328 0.0
O254 O 0.58599 0.88525 0.81205 0.0
C255 C 0.60649 0.83832 0.85704 0.0
O256 O 0.5635 0.86989 0.85858 0.0
Co257 Co 0.60164 0.87034 0.89818 0.0
O258 O 0.5698 0.85632 0.89581 0.0
C259 C 0.6093 0.91652 0.87436 0.0
C260 C 0.60811 0.8851 0.80658 0.0
C261 C 0.55638 0.86008 0.87807 0.0
O262 O 0.59924 0.90826 0.85544 0.0
O263 O 0.61363 0.9036 0.89263 0.0
O264 O 0.59632 0.84013 0.8364 0.0
O265 O 0.61165 0.85827 0.86746 0.0
Co266 Co 0.89035 0.1652 0.92031 0.0
O267 O 0.88979 0.13854 0.94191 0.0
O268 O 0.87646 0.17477 0.95011 0.0
C269 C 0.92783 0.16099 0.90855 0.0
O270 O 0.88856 0.19728 0.90351 0.0
Co271 Co 0.89725 0.15841 0.86627 0.0
O272 O 0.90109 0.19369 0.86576 0.0
C273 C 0.85171 0.14654 0.88771 0.0
C274 C 0.8803 0.15305 0.95715 0.0
C275 C 0.89444 0.2064 0.88335 0.0
O276 O 0.85877 0.15551 0.90755 0.0
O277 O 0.86474 0.14452 0.86927 0.0
O278 O 0.92272 0.17178 0.92836 0.0
O279 O 0.91037 0.15113 0.89742 0.0
Co280 Co 0.57485 0.10349 0.66262 0.0
O281 O 0.5519 0.10605 0.63783 0.0
O282 O 0.54883 0.12268 0.67359 0.0
C283 C 0.58001 0.0637 0.65927 0.0
O284 O 0.59469 0.10392 0.69289 0.0
Co285 Co 0.62516 0.08684 0.65016 0.0
O286 O 0.62844 0.08492 0.68527 0.0
C287 C 0.61028 0.13555 0.63755 0.0
C288 C 0.53977 0.11879 0.65263 0.0
C289 C 0.61427 0.0949 0.6997 0.0
O290 O 0.59146 0.13272 0.64986 0.0
O291 O 0.62492 0.11871 0.63386 0.0
O292 O 0.56266 0.07216 0.67155 0.0
O293 O 0.5922 0.07934 0.64771 0.0
Co294 Co 0.61692 0.84001 0.4126 0.0
O295 O 0.62026 0.86582 0.43521 0.0
O296 O 0.6251 0.82747 0.44355 0.0
C297 C 0.58273 0.85182 0.39653 0.0
O298 O 0.61425 0.80845 0.39469 0.0
Co299 Co 0.6179 0.84919 0.35831 0.0
O300 O 0.60683 0.81551 0.35599 0.0
C301 C 0.66175 0.85202 0.38571 0.0
C302 C 0.62489 0.8495 0.45092 0.0
C303 C 0.60875 0.80127 0.37358 0.0
O304 O 0.65095 0.84323 0.40381 0.0
O305 O 0.65134 0.85781 0.36634 0.0
O306 O 0.58319 0.84017 0.41652 0.0
O307 O 0.60295 0.85809 0.3881 0.0
Co308 Co 0.92787 0.88094 0.15913 0.0
O309 O 0.9463 0.88022 0.13042 0.0
O310 O 0.95694 0.86404 0.1647 0.0
C311 C 0.91859 0.92012 0.15732 0.0
O312 O 0.91395 0.87878 0.19263 0.0
Co313 Co 0.87479 0.89358 0.15738 0.0
O314 O 0.87882 0.89678 0.19232 0.0
C315 C 0.89117 0.8468 0.13967 0.0
C316 C 0.96183 0.86849 0.14249 0.0
C317 C 0.89592 0.88735 0.20338 0.0
O318 O 0.91152 0.85043 0.14896 0.0
O319 O 0.87507 0.86262 0.13942 0.0
O320 O 0.93867 0.91356 0.16597 0.0
O321 O 0.90599 0.90321 0.1483 0.0
Co322 Co 0.83739 0.59529 0.86786 0.0
O323 O 0.81272 0.6183 0.86989 0.0
O324 O 0.80883 0.57999 0.87897 0.0
C325 C 0.85126 0.60564 0.83165 0.0
O326 O 0.85907 0.56645 0.86699 0.0
Co327 Co 0.88899 0.61398 0.86606 0.0
O328 O 0.89514 0.58012 0.85787 0.0
C329 C 0.86149 0.61856 0.90984 0.0
C330 C 0.79947 0.60108 0.87759 0.0
C331 C 0.88057 0.56304 0.86097 0.0
O332 O 0.84662 0.60322 0.90177 0.0
O333 O 0.87818 0.62727 0.89734 0.0
O334 O 0.83292 0.59187 0.83334 0.0
O335 O 0.85841 0.61485 0.85146 0.0
Co336 Co 0.34344 0.91168 0.11916 0.0
O337 O 0.36903 0.93436 0.11929 0.0
O338 O 0.33186 0.94328 0.12595 0.0
C339 C 0.35336 0.89271 0.08512 0.0
O340 O 0.31205 0.89402 0.11933 0.0
Co341 Co 0.35157 0.85704 0.12263 0.0
O342 O 0.31779 0.85463 0.11469 0.0
C343 C 0.36082 0.88809 0.16411 0.0
C344 C 0.35341 0.95051 0.12381 0.0
C345 C 0.30429 0.87265 0.11581 0.0
O346 O 0.34923 0.9051 0.15419 0.0
O347 O 0.3656 0.8685 0.15341 0.0
O348 O 0.34194 0.91271 0.08426 0.0
O349 O 0.36002 0.88614 0.10608 0.0
Co350 Co 0.16952 0.0987 0.63334 0.0
O351 O 0.18887 0.12679 0.63279 0.0
O352 O 0.19981 0.09121 0.61969 0.0
C353 C 0.15684 0.10324 0.67113 0.0
O354 O 0.15437 0.06563 0.63179 0.0
Co355 Co 0.1159 0.10352 0.6395 0.0
O356 O 0.11723 0.06854 0.64471 0.0
C357 C 0.13762 0.11587 0.59346 0.0
C358 C 0.20491 0.11365 0.62314 0.0
C359 C 0.13479 0.05615 0.63828 0.0
O360 O 0.15705 0.10704 0.60081 0.0
O361 O 0.11959 0.11791 0.60686 0.0
O362 O 0.17694 0.09343 0.66678 0.0
O363 O 0.14614 0.11191 0.65279 0.0
Co364 Co 0.16251 0.91796 0.87646 0.0
O365 O 0.13446 0.93645 0.87531 0.0
O366 O 0.16995 0.95032 0.86686 0.0
C367 C 0.15541 0.90092 0.91211 0.0
O368 O 0.19539 0.90381 0.87652 0.0
Co369 Co 0.15739 0.86273 0.87579 0.0
O370 O 0.19181 0.86393 0.88052 0.0
C371 C 0.14624 0.89034 0.83311 0.0
C372 C 0.14758 0.95421 0.86875 0.0
C373 C 0.20428 0.88285 0.87899 0.0
O374 O 0.15729 0.90828 0.84213 0.0
O375 O 0.14184 0.87122 0.84478 0.0
O376 O 0.16453 0.9222 0.91104 0.0
O377 O 0.14884 0.89194 0.89194 0.0
Co378 Co 0.65823 0.41909 0.39248 0.0
O379 O 0.63394 0.44214 0.38898 0.0
O380 O 0.67089 0.44828 0.37865 0.0
C381 C 0.64919 0.40867 0.43014 0.0
O382 O 0.68798 0.39891 0.39478 0.0
Co383 Co 0.64289 0.3661 0.39992 0.0
O384 O 0.67661 0.36238 0.40719 0.0
C385 C 0.63598 0.3891 0.35358 0.0
C386 C 0.64965 0.45645 0.38035 0.0
C387 C 0.69257 0.37766 0.40236 0.0
O388 O 0.65029 0.40587 0.35975 0.0
O389 O 0.62869 0.373 0.36797 0.0
O390 O 0.66186 0.42759 0.42621 0.0
O391 O 0.64061 0.39849 0.41139 0.0
Co392 Co 0.81417 0.41754 0.63287 0.0
O393 O 0.79086 0.39259 0.63466 0.0
O394 O 0.78603 0.42733 0.61648 0.0
C395 C 0.82531 0.4161 0.67147 0.0
O396 O 0.83355 0.44794 0.62829 0.0
Co397 Co 0.86658 0.40657 0.64224 0.0
O398 O 0.8699 0.44184 0.64228 0.0
C399 C 0.84515 0.39227 0.59656 0.0
C400 C 0.77748 0.40657 0.62232 0.0
C401 C 0.85415 0.45554 0.63393 0.0
O402 O 0.8265 0.40373 0.60214 0.0
O403 O 0.86238 0.38965 0.61092 0.0
O404 O 0.80667 0.4278 0.6653 0.0
O405 O 0.83509 0.40394 0.65467 0.0
Co406 Co 0.67016 0.58704 0.13793 0.0
O407 O 0.69372 0.61185 0.13872 0.0
O408 O 0.6994 0.57495 0.12578 0.0
C409 C 0.65589 0.59342 0.17491 0.0
O410 O 0.65113 0.55626 0.1354 0.0
Co411 Co 0.61718 0.59816 0.1412 0.0
O412 O 0.61274 0.56304 0.14116 0.0
C413 C 0.64295 0.6088 0.09689 0.0
C414 C 0.70792 0.59617 0.12978 0.0
C415 C 0.62983 0.54904 0.13752 0.0
O416 O 0.66071 0.5972 0.10475 0.0
O417 O 0.62482 0.61296 0.10961 0.0
O418 O 0.67475 0.58091 0.17182 0.0
O419 O 0.64752 0.60332 0.15597 0.0
Co420 Co 0.64019 0.67113 0.91846 0.0
O421 O 0.67278 0.67694 0.92445 0.0
O422 O 0.6583 0.6427 0.91119 0.0
C423 C 0.63477 0.70569 0.8986 0.0
O424 O 0.60758 0.65896 0.90924 0.0
Co425 Co 0.60167 0.70554 0.93704 0.0
O426 O 0.58266 0.68978 0.91188 0.0
C427 C 0.62345 0.67026 0.96982 0.0
C428 C 0.67662 0.65541 0.91694 0.0
C429 C 0.58768 0.66876 0.90493 0.0
O430 O 0.63531 0.66083 0.95268 0.0
O431 O 0.61046 0.68865 0.9672 0.0
O432 O 0.64294 0.68715 0.88748 0.0
O433 O 0.63141 0.7031 0.92116 0.0
Co434 Co 0.59607 0.36526 0.17789 0.0
O435 O 0.62327 0.36675 0.19832 0.0
O436 O 0.58727 0.37649 0.20914 0.0
C437 C 0.60258 0.32861 0.16275 0.0
O438 O 0.56353 0.36512 0.1628 0.0
Co439 Co 0.60042 0.36355 0.12323 0.0
O440 O 0.56596 0.35995 0.12308 0.0
C441 C 0.60952 0.40877 0.14799 0.0
C442 C 0.60921 0.37433 0.21485 0.0
C443 C 0.5541 0.36224 0.14213 0.0
O444 O 0.60257 0.39903 0.16746 0.0
O445 O 0.61122 0.39742 0.12825 0.0
O446 O 0.5928 0.33134 0.18348 0.0
O447 O 0.61021 0.34799 0.1527 0.0
Co448 Co 0.86479 0.33235 0.41947 0.0
O449 O 0.83171 0.3276 0.42285 0.0
O450 O 0.84828 0.36183 0.41251 0.0
C451 C 0.87087 0.29862 0.39839 0.0
O452 O 0.89835 0.34352 0.41326 0.0
Co453 Co 0.90034 0.2958 0.44005 0.0
O454 O 0.92175 0.31156 0.41703 0.0
C455 C 0.87695 0.33031 0.47226 0.0
C456 C 0.82919 0.34972 0.41662 0.0
C457 C 0.91806 0.33288 0.41021 0.0
O458 O 0.8674 0.34095 0.45439 0.0
O459 O 0.88941 0.31146 0.47021 0.0
O460 O 0.86383 0.31783 0.38763 0.0
O461 O 0.87238 0.30004 0.42128 0.0
Co462 Co 0.91799 0.6303 0.66545 0.0
O463 O 0.89012 0.62675 0.68409 0.0
O464 O 0.92561 0.61669 0.69635 0.0
C465 C 0.91116 0.66807 0.65369 0.0
O466 O 0.95061 0.63224 0.65055 0.0
Co467 Co 0.91184 0.63581 0.61119 0.0
O468 O 0.94545 0.64506 0.61286 0.0
C469 C 0.90384 0.58909 0.63277 0.0
C470 C 0.90326 0.61806 0.70072 0.0
C471 C 0.95861 0.64009 0.63053 0.0
O472 O 0.91287 0.59746 0.65202 0.0
O473 O 0.89953 0.60205 0.61452 0.0
O474 O 0.9206 0.66362 0.67424 0.0
O475 O 0.90376 0.64949 0.64197 0.0
Co476 Co 0.61 0.32213 0.58496 0.0
O477 O 0.57741 0.31655 0.57877 0.0
O478 O 0.5914 0.33241 0.61208 0.0
C479 C 0.61737 0.33842 0.54909 0.0
O480 O 0.64255 0.33184 0.59694 0.0
Co481 Co 0.64848 0.29811 0.55447 0.0
O482 O 0.66771 0.32501 0.56692 0.0
C483 C 0.62279 0.26987 0.59071 0.0
C484 C 0.57328 0.32584 0.59952 0.0
C485 C 0.66249 0.33495 0.58664 0.0
O486 O 0.61292 0.28895 0.59859 0.0
O487 O 0.63634 0.2697 0.57252 0.0
O488 O 0.60894 0.35148 0.56619 0.0
O489 O 0.61966 0.31599 0.55372 0.0
Co490 Co 0.92623 0.38925 0.83442 0.0
O491 O 0.94845 0.38593 0.85976 0.0
O492 O 0.95609 0.37866 0.82172 0.0
C493 C 0.91286 0.42534 0.84528 0.0
O494 O 0.90727 0.3917 0.8036 0.0
Co495 Co 0.87366 0.39045 0.84754 0.0
O496 O 0.87038 0.40109 0.81395 0.0
C497 C 0.89857 0.34488 0.84915 0.0
C498 C 0.96342 0.37939 0.84373 0.0
C499 C 0.88628 0.39822 0.79827 0.0
O500 O 0.91607 0.35517 0.83905 0.0
O501 O 0.88042 0.35622 0.85614 0.0
O502 O 0.93202 0.4233 0.83304 0.0
O503 O 0.90388 0.40549 0.85292 0.0
Co504 Co 0.88064 0.66083 0.08377 0.0
O505 O 0.91325 0.66304 0.07618 0.0
O506 O 0.89931 0.64921 0.11032 0.0
C507 C 0.87026 0.64476 0.04833 0.0
O508 O 0.84783 0.65482 0.09714 0.0
Co509 Co 0.84421 0.68889 0.05375 0.0
O510 O 0.82126 0.66869 0.07088 0.0
C511 C 0.87391 0.71438 0.08886 0.0
C512 C 0.91739 0.65385 0.09693 0.0
C513 C 0.82665 0.65717 0.08962 0.0
O514 O 0.88153 0.69441 0.09707 0.0
O515 O 0.86049 0.71582 0.07063 0.0
O516 O 0.87808 0.63117 0.0653 0.0
O517 O 0.87045 0.66734 0.05284 0.0
Co518 Co 0.57805 0.61816 0.34464 0.0
O519 O 0.55405 0.62324 0.36801 0.0
O520 O 0.55051 0.63193 0.32968 0.0
C521 C 0.58723 0.58061 0.35522 0.0
O522 O 0.59927 0.61419 0.31549 0.0
Co523 Co 0.62908 0.61099 0.3626 0.0
O524 O 0.63379 0.60054 0.32914 0.0
C525 C 0.60823 0.65873 0.36451 0.0
C526 C 0.54119 0.63145 0.35087 0.0
C527 C 0.61974 0.60515 0.31209 0.0
O528 O 0.59114 0.65106 0.35158 0.0
O529 O 0.62416 0.64503 0.37275 0.0
O530 O 0.5692 0.58465 0.34174 0.0
O531 O 0.59717 0.59939 0.3642 0.0
Co532 Co 0.65671 0.88862 0.63197 0.0
O533 O 0.67701 0.86143 0.63057 0.0
O534 O 0.68674 0.89798 0.6189 0.0
C535 C 0.64377 0.88331 0.6695 0.0
O536 O 0.64049 0.92097 0.63176 0.0
Co537 Co 0.60318 0.88035 0.63719 0.0
O538 O 0.60342 0.91518 0.6441 0.0
C539 C 0.62614 0.86965 0.59166 0.0
C540 C 0.69268 0.87576 0.62178 0.0
C541 C 0.62053 0.92892 0.63883 0.0
O542 O 0.64457 0.88069 0.59906 0.0
O543 O 0.60842 0.8654 0.60497 0.0
O544 O 0.6639 0.89344 0.66559 0.0
O545 O 0.63364 0.87418 0.65093 0.0
Co546 Co 0.37934 0.33072 0.09824 0.0
O547 O 0.38271 0.31226 0.12705 0.0
O548 O 0.39336 0.30032 0.09096 0.0
C549 C 0.3421 0.34231 0.10379 0.0
O550 O 0.37761 0.34353 0.06431 0.0
Co551 Co 0.37188 0.38534 0.0994 0.0
O552 O 0.36675 0.38211 0.06463 0.0
C553 C 0.41883 0.36646 0.10863 0.0
C554 C 0.39156 0.29569 0.11358 0.0
C555 C 0.37146 0.36282 0.05366 0.0
O556 O 0.41125 0.34535 0.10377 0.0
O557 O 0.40577 0.38493 0.10896 0.0
O558 O 0.34687 0.32121 0.09551 0.0
O559 O 0.35992 0.35484 0.11101 0.0
Co560 Co 0.41992 0.62049 0.82854 0.0
O561 O 0.39161 0.61673 0.81028 0.0
O562 O 0.42753 0.61257 0.79593 0.0
C563 C 0.4105 0.65502 0.84657 0.0
O564 O 0.45306 0.62421 0.84154 0.0
Co565 Co 0.41814 0.61808 0.88349 0.0
O566 O 0.45195 0.62616 0.88166 0.0
C567 C 0.40995 0.57473 0.85552 0.0
C568 C 0.40506 0.61241 0.79217 0.0
C569 C 0.46302 0.62702 0.86196 0.0
O570 O 0.41842 0.58558 0.83725 0.0
O571 O 0.40593 0.58532 0.87533 0.0
O572 O 0.41873 0.65486 0.82499 0.0
O573 O 0.40574 0.63425 0.85556 0.0
Co574 Co 0.13333 0.67238 0.59056 0.0
O575 O 0.13008 0.69219 0.61823 0.0
O576 O 0.11688 0.70135 0.58218 0.0
C577 C 0.17151 0.66409 0.59523 0.0
O578 O 0.13444 0.65644 0.55779 0.0
Co579 Co 0.14371 0.61902 0.59734 0.0
O580 O 0.1517 0.62082 0.56288 0.0
C581 C 0.09665 0.63639 0.60807 0.0
C582 C 0.11928 0.70716 0.60455 0.0
C583 C 0.14427 0.63752 0.54947 0.0
O584 O 0.10276 0.65633 0.5986 0.0
O585 O 0.11103 0.6192 0.61109 0.0
O586 O 0.16485 0.6839 0.58541 0.0
O587 O 0.15494 0.65115 0.60448 0.0
Co588 Co 0.08586 0.37676 0.33165 0.0
O589 O 0.11318 0.38019 0.31206 0.0
O590 O 0.07667 0.38394 0.29928 0.0
C591 C 0.09685 0.34273 0.34961 0.0
O592 O 0.05338 0.37307 0.34616 0.0
Co593 Co 0.0898 0.37986 0.38648 0.0
O594 O 0.05599 0.37159 0.3862 0.0
C595 C 0.09603 0.42317 0.35797 0.0
C596 C 0.09893 0.38385 0.29442 0.0
C597 C 0.0442 0.37049 0.36694 0.0
O598 O 0.08748 0.4119 0.33989 0.0
O599 O 0.10073 0.41288 0.37774 0.0
O600 O 0.08737 0.34227 0.32857 0.0
O601 O 0.10145 0.36375 0.35815 0.0
Co602 Co 0.37958 0.66592 0.41988 0.0
O603 O 0.38102 0.6392 0.44148 0.0
O604 O 0.36672 0.67489 0.45029 0.0
C605 C 0.41661 0.66305 0.40621 0.0
O606 O 0.37571 0.69814 0.4036 0.0
Co607 Co 0.38375 0.66075 0.36573 0.0
O608 O 0.38806 0.6959 0.36576 0.0
C609 C 0.33951 0.64717 0.38895 0.0
C610 C 0.37148 0.6533 0.45709 0.0
C611 C 0.38133 0.70798 0.38371 0.0
O612 O 0.34787 0.65467 0.40887 0.0
O613 O 0.35119 0.64722 0.36948 0.0
O614 O 0.412 0.67375 0.42622 0.0
O615 O 0.39898 0.65268 0.39578 0.0
Co616 Co 0.08046 0.6105 0.15656 0.0
O617 O 0.05608 0.61232 0.1331 0.0
O618 O 0.05228 0.62327 0.17088 0.0
C619 C 0.09234 0.57321 0.14762 0.0
O620 O 0.10152 0.61008 0.186 0.0
Co621 Co 0.13239 0.60465 0.14069 0.0
O622 O 0.1368 0.59645 0.17474 0.0
C623 C 0.10845 0.65081 0.13427 0.0
C624 C 0.04288 0.62088 0.14985 0.0
C625 C 0.12209 0.60208 0.19085 0.0
O626 O 0.09135 0.64367 0.14744 0.0
O627 O 0.12531 0.63722 0.12799 0.0
O628 O 0.07424 0.57647 0.16126 0.0
O629 O 0.10091 0.59225 0.13803 0.0
Co630 Co 0.12155 0.34382 0.91944 0.0
O631 O 0.12399 0.36674 0.94511 0.0
O632 O 0.13436 0.32871 0.94732 0.0
C633 C 0.08474 0.35243 0.90823 0.0
O634 O 0.1208 0.31463 0.89796 0.0
Co635 Co 0.11523 0.35867 0.8667 0.0
O636 O 0.108 0.32425 0.86137 0.0
C637 C 0.1608 0.36587 0.89042 0.0
C638 C 0.13199 0.34923 0.95787 0.0
C639 C 0.11366 0.3088 0.87697 0.0
O640 O 0.15381 0.35294 0.90798 0.0
O641 O 0.14738 0.37218 0.87326 0.0
O642 O 0.08863 0.33879 0.92648 0.0
O643 O 0.10303 0.36237 0.8988 0.0
Co644 Co 0.41435 0.3775 0.66216 0.0
O645 O 0.43842 0.37356 0.63866 0.0
O646 O 0.44009 0.35944 0.67551 0.0
C647 C 0.40863 0.41679 0.65614 0.0
O648 O 0.39308 0.37907 0.69147 0.0
Co649 Co 0.36428 0.39281 0.6462 0.0
O650 O 0.35961 0.39721 0.68084 0.0
C651 C 0.38093 0.34405 0.63618 0.0
C652 C 0.45002 0.36199 0.65478 0.0
C653 C 0.37321 0.38861 0.69663 0.0
O654 O 0.39859 0.34725 0.65018 0.0
O655 O 0.36667 0.36074 0.63079 0.0
O656 O 0.42583 0.40975 0.6695 0.0
O657 O 0.39728 0.40011 0.64516 0.0
Co658 Co 0.32559 0.10195 0.36043 0.0
O659 O 0.30479 0.12825 0.365 0.0
O660 O 0.29703 0.09112 0.37616 0.0
C661 C 0.33518 0.10958 0.32216 0.0
O662 O 0.34344 0.07048 0.35762 0.0
Co663 Co 0.37813 0.11468 0.35079 0.0
O664 O 0.37915 0.08011 0.3432 0.0
C665 C 0.35813 0.12223 0.39815 0.0
C666 C 0.29055 0.11337 0.37519 0.0
C667 C 0.36352 0.06474 0.34883 0.0
O668 O 0.34043 0.10914 0.39239 0.0
O669 O 0.37382 0.12889 0.38329 0.0
O670 O 0.31575 0.09844 0.32706 0.0
O671 O 0.34618 0.11819 0.34036 0.0
H672 H 0.10115 0.29881 0.33013 0.0
H673 H 0.10732 0.33697 0.39679 0.0
H674 H 0.11814 0.29993 0.41707 0.0
H675 H 0.12563 0.25671 0.41574 0.0
H676 H 0.12109 0.21907 0.34865 0.0
H677 H 0.10995 0.25601 0.32853 0.0
C678 C 0.10479 0.299 0.34912 0.0
C679 C 0.10331 0.32051 0.36202 0.0
C680 C 0.11138 0.2778 0.3605 0.0
C681 C 0.10835 0.3206 0.38652 0.0
C682 C 0.11452 0.29945 0.3981 0.0
C683 C 0.12226 0.25663 0.3967 0.0
C684 C 0.12413 0.23523 0.38367 0.0
C685 C 0.11609 0.27796 0.38525 0.0
C686 C 0.11987 0.23536 0.35902 0.0
C687 C 0.11341 0.25644 0.34754 0.0
H688 H 0.00582 0.88453 0.6504 0.0
H689 H 0.02301 0.8408 0.58949 0.0
H690 H 0.98148 0.83514 0.58075 0.0
H691 H 0.94018 0.84341 0.5898 0.0
H692 H 0.92319 0.889 0.64942 0.0
H693 H 0.96462 0.89306 0.65924 0.0
C694 C 1.00047 0.87365 0.6353 0.0
C695 C 0.01751 0.86311 0.62065 0.0
C696 C 0.97655 0.87085 0.63007 0.0
C697 C 0.01027 0.84925 0.60099 0.0
C698 C 0.98651 0.84596 0.59599 0.0
C699 C 0.94555 0.85413 0.60501 0.0
C700 C 0.92858 0.86588 0.61882 0.0
C701 C 0.96948 0.85679 0.61032 0.0
C702 C 0.93587 0.87988 0.63837 0.0
C703 C 0.95957 0.88218 0.64405 0.0
H704 H 0.3825 0.74346 0.91063 0.0
H705 H 0.39782 0.78009 0.84477 0.0
H706 H 0.40967 0.74257 0.82639 0.0
H707 H 0.41377 0.69934 0.82823 0.0
H708 H 0.3967 0.66163 0.89299 0.0
H709 H 0.38747 0.69959 0.91267 0.0
C710 C 0.38865 0.74318 0.89233 0.0
C711 C 0.38924 0.76445 0.87902 0.0
C712 C 0.39495 0.72138 0.88167 0.0
C713 C 0.39708 0.76391 0.85531 0.0
C714 C 0.40386 0.74247 0.84478 0.0
C715 C 0.40816 0.69938 0.84671 0.0
C716 C 0.40584 0.67772 0.85913 0.0
C717 C 0.40254 0.72109 0.85767 0.0
C718 C 0.39852 0.67809 0.88303 0.0
C719 C 0.39325 0.69978 0.89427 0.0
H720 H 0.4922 0.1528 0.09876 0.0
H721 H 0.49739 0.10468 0.15848 0.0
H722 H 0.53997 0.10356 0.15385 0.0
H723 H 0.57578 0.11573 0.13213 0.0
H724 H 0.57014 0.16568 0.0739 0.0
H725 H 0.52776 0.16653 0.07861 0.0
C726 C 0.50264 0.14206 0.11078 0.0
C727 C 0.49161 0.12869 0.1288 0.0
C728 C 0.52707 0.14177 0.10822 0.0
C729 C 0.50544 0.11518 0.14447 0.0
C730 C 0.52978 0.11445 0.14177 0.0
C731 C 0.56523 0.12674 0.12046 0.0
C732 C 0.57611 0.14048 0.10258 0.0
C733 C 0.54079 0.12755 0.12358 0.0
C734 C 0.56224 0.15495 0.08783 0.0
C735 C 0.53798 0.15543 0.09047 0.0
H736 H 0.13376 0.66783 0.09754 0.0
H737 H 0.08373 0.68973 0.15073 0.0
H738 H 0.08571 0.73086 0.13575 0.0
H739 H 0.10243 0.76072 0.1075 0.0
H740 H 0.15164 0.73667 0.05416 0.0
H741 H 0.14914 0.69637 0.06937 0.0
C742 C 0.12331 0.68154 0.10602 0.0
C743 C 0.10882 0.67572 0.12539 0.0
C744 C 0.12436 0.70486 0.09724 0.0
C745 C 0.09511 0.69373 0.13581 0.0
C746 C 0.09626 0.71726 0.12727 0.0
C747 C 0.11254 0.74663 0.09923 0.0
C748 C 0.12716 0.75186 0.07966 0.0
C749 C 0.11094 0.72307 0.108 0.0
C750 C 0.14007 0.73331 0.06909 0.0
C751 C 0.13876 0.71015 0.07782 0.0
H752 H 0.49467 0.88224 0.33495 0.0
H753 H 0.46032 0.86499 0.40131 0.0
H754 H 0.49752 0.85333 0.41876 0.0
H755 H 0.53973 0.849 0.41586 0.0
H756 H 0.57549 0.86813 0.35092 0.0
H757 H 0.53795 0.87813 0.33223 0.0
C758 C 0.49541 0.87579 0.35316 0.0
C759 C 0.47478 0.87449 0.36682 0.0
C760 C 0.5171 0.86957 0.36338 0.0
C761 C 0.47596 0.86631 0.39046 0.0
C762 C 0.49722 0.8596 0.40048 0.0
C763 C 0.53935 0.85527 0.39757 0.0
C764 C 0.56033 0.85777 0.38478 0.0
C765 C 0.51789 0.86133 0.3872 0.0
C766 C 0.55954 0.8661 0.36116 0.0
C767 C 0.53809 0.87179 0.35048 0.0
H768 H 0.35053 0.25355 0.57719 0.0
H769 H 0.4076 0.22143 0.61573 0.0
H770 H 0.41458 0.25926 0.6369 0.0
H771 H 0.40494 0.30207 0.64329 0.0
H772 H 0.34712 0.33246 0.60405 0.0
H773 H 0.34016 0.29464 0.58435 0.0
C774 C 0.36459 0.25471 0.59017 0.0
C775 C 0.37868 0.23476 0.59466 0.0
C776 C 0.36842 0.27628 0.60216 0.0
C777 C 0.3965 0.23656 0.6119 0.0
C778 C 0.40054 0.2582 0.62394 0.0
C779 C 0.39078 0.30037 0.6305 0.0
C780 C 0.37669 0.32028 0.62519 0.0
C781 C 0.38669 0.27829 0.61906 0.0
C782 C 0.35835 0.31763 0.60859 0.0
C783 C 0.35429 0.29594 0.59721 0.0
H784 H 0.03657 0.14991 0.89533 0.0
H785 H 0.01591 0.13409 0.82303 0.0
H786 H 0.97475 0.14068 0.83355 0.0
H787 H 0.94446 0.14939 0.86415 0.0
H788 H 0.96646 0.16702 0.93576 0.0
H789 H 0.00719 0.16128 0.92468 0.0
C790 C 0.02307 0.14801 0.88183 0.0
C791 C 0.0292 0.14133 0.85852 0.0
C792 C 0.99964 0.15205 0.88794 0.0
C793 C 0.01158 0.13926 0.84112 0.0
C794 C 0.98806 0.14291 0.84716 0.0
C795 C 0.95823 0.15202 0.87724 0.0
C796 C 0.95242 0.15843 0.90079 0.0
C797 C 0.98184 0.14905 0.87063 0.0
C798 C 0.97042 0.16208 0.91752 0.0
C799 C 0.99375 0.15876 0.91123 0.0
H800 H 0.36311 0.10883 0.2133 0.0
H801 H 0.43189 0.11822 0.24378 0.0
H802 H 0.41512 0.11756 0.28391 0.0
H803 H 0.38078 0.11594 0.31007 0.0
H804 H 0.31231 0.10352 0.27993 0.0
H805 H 0.32905 0.10405 0.23975 0.0
C806 C 0.37442 0.11058 0.22876 0.0
C807 C 0.39867 0.11373 0.22564 0.0
C808 C 0.36469 0.10989 0.25173 0.0
C809 C 0.41319 0.1157 0.24576 0.0
C810 C 0.40359 0.11547 0.26868 0.0
C811 C 0.3695 0.11327 0.29476 0.0
C812 C 0.34531 0.10987 0.29794 0.0
C813 C 0.37935 0.11287 0.27184 0.0
C814 C 0.33098 0.10624 0.27789 0.0
C815 C 0.34054 0.10652 0.25495 0.0
H816 H 0.14688 0.14683 0.48527 0.0
H817 H 0.08337 0.18407 0.50333 0.0
H818 H 0.08432 0.16728 0.54335 0.0
H819 H 0.10377 0.1434 0.57374 0.0
H820 H 0.16835 0.10749 0.55687 0.0
H821 H 0.16637 0.12238 0.516 0.0
C822 C 0.13316 0.15106 0.49793 0.0
C823 C 0.11511 0.1667 0.49133 0.0
C824 C 0.13405 0.14171 0.5212 0.0
C825 C 0.09756 0.17222 0.508 0.0
C826 C 0.09806 0.16261 0.5309 0.0
C827 C 0.11737 0.13866 0.56113 0.0
C828 C 0.13615 0.12431 0.56844 0.0
C829 C 0.11634 0.14756 0.53778 0.0
C830 C 0.15369 0.11856 0.55181 0.0
C831 C 0.15258 0.12705 0.52838 0.0
H832 H 0.10449 0.8764 0.81502 0.0
H833 H 0.17089 0.90738 0.79526 0.0
H834 H 0.15907 0.90738 0.75323 0.0
H835 H 0.1303 0.89702 0.72202 0.0
H836 H 0.06261 0.86935 0.74221 0.0
H837 H 0.07429 0.86979 0.78424 0.0
C838 C 0.11629 0.88318 0.80145 0.0
C839 C 0.13861 0.89157 0.80802 0.0
C840 C 0.10911 0.88376 0.7775 0.0
C841 C 0.15365 0.90078 0.79049 0.0
C842 C 0.14691 0.90074 0.76651 0.0
C843 C 0.11809 0.89127 0.73569 0.0
C844 C 0.09573 0.88297 0.72913 0.0
C845 C 0.12477 0.89206 0.75979 0.0
C846 C 0.0799 0.87586 0.74692 0.0
C847 C 0.08662 0.87599 0.7709 0.0
H848 H 0.38288 0.81877 0.0061 0.0
H849 H 0.34882 0.87017 0.96063 0.0
H850 H 0.3391 0.89445 0.99544 0.0
H851 H 0.34121 0.90166 0.03887 0.0
H852 H 0.37564 0.85006 0.08375 0.0
H853 H 0.3842 0.82538 0.04907 0.0
C854 C 0.37325 0.83523 0.00371 0.0
C855 C 0.36671 0.84259 0.98068 0.0
C856 C 0.36782 0.84917 0.02374 0.0
C857 C 0.35417 0.86401 0.97809 0.0
C858 C 0.34861 0.87796 0.99801 0.0
C859 C 0.35053 0.88498 0.04103 0.0
C860 C 0.35783 0.87777 0.06386 0.0
C861 C 0.3555 0.87081 0.02092 0.0
C862 C 0.36985 0.85609 0.06638 0.0
C863 C 0.37477 0.84193 0.04655 0.0
H864 H 0.4029 0.88012 0.26775 0.0
H865 H 0.34725 0.92967 0.28266 0.0
H866 H 0.33752 0.93149 0.24027 0.0
H867 H 0.3429 0.91661 0.19922 0.0
H868 H 0.39715 0.86517 0.1851 0.0
H869 H 0.40932 0.86659 0.2267 0.0
C870 C 0.38887 0.89158 0.26168 0.0
C871 C 0.37579 0.90465 0.27834 0.0
C872 C 0.38294 0.89205 0.23736 0.0
C873 C 0.3575 0.91926 0.2702 0.0
C874 C 0.3519 0.92032 0.24595 0.0
C875 C 0.35753 0.90592 0.20523 0.0
C876 C 0.36893 0.89068 0.18909 0.0
C877 C 0.36418 0.9064 0.22941 0.0
C878 C 0.38783 0.87686 0.19719 0.0
C879 C 0.39488 0.87768 0.22099 0.0
H880 H 0.37745 0.17145 0.49691 0.0
H881 H 0.36413 0.10005 0.52237 0.0
H882 H 0.35525 0.08685 0.48154 0.0
H883 H 0.35258 0.09568 0.43829 0.0
H884 H 0.36975 0.16644 0.41336 0.0
H885 H 0.37568 0.18 0.45437 0.0
C886 C 0.37246 0.15301 0.49355 0.0
C887 C 0.37131 0.13673 0.51251 0.0
C888 C 0.3681 0.14552 0.47014 0.0
C889 C 0.36515 0.11285 0.50794 0.0
C890 C 0.36005 0.10534 0.48466 0.0
C891 C 0.35744 0.11407 0.44198 0.0
C892 C 0.36065 0.13014 0.42302 0.0
C893 C 0.36163 0.12151 0.46558 0.0
C894 C 0.36728 0.15384 0.42779 0.0
C895 C 0.37065 0.16157 0.45117 0.0
H896 H 0.10815 0.12535 0.76989 0.0
H897 H 0.17025 0.08972 0.79524 0.0
H898 H 0.18272 0.08262 0.75447 0.0
H899 H 0.17711 0.08771 0.71171 0.0
H900 H 0.11575 0.12369 0.6855 0.0
H901 H 0.10186 0.12927 0.72644 0.0
C902 C 0.12434 0.11594 0.76649 0.0
C903 C 0.13829 0.10831 0.78572 0.0
C904 C 0.13162 0.11197 0.74283 0.0
C905 C 0.15922 0.09607 0.7809 0.0
C906 C 0.16641 0.09191 0.75754 0.0
C907 C 0.16062 0.09666 0.71491 0.0
C908 C 0.14755 0.10537 0.69563 0.0
C909 C 0.1529 0.1 0.7384 0.0
C910 C 0.12619 0.11687 0.70008 0.0
C911 C 0.11825 0.1201 0.72348 0.0
H912 H 0.13274 0.83353 0.99868 0.0
H913 H 0.13911 0.89988 0.03747 0.0
H914 H 0.14917 0.92075 0.00041 0.0
H915 H 0.1552 0.92004 0.95674 0.0
H916 H 0.14682 0.85362 0.91837 0.0
H917 H 0.13866 0.83276 0.95564 0.0
C918 C 0.13641 0.85256 0.9991 0.0
C919 C 0.13521 0.86517 0.02077 0.0
C920 C 0.14184 0.86436 0.97781 0.0
C921 C 0.13987 0.88982 0.02097 0.0
C922 C 0.14565 0.90171 -0.00019 0.0
C923 C 0.15175 0.90097 0.95661 0.0
C924 C 0.15164 0.88835 0.93488 0.0
C925 C 0.14658 0.88916 0.9781 0.0
C926 C 0.14694 0.86371 0.93488 0.0
C927 C 0.14227 0.85178 0.95617 0.0
H928 H 0.32615 0.38785 0.11206 0.0
H929 H 0.30309 0.31559 0.09785 0.0
H930 H 0.26252 0.32784 0.10085 0.0
H931 H 0.23356 0.35814 0.10945 0.0
H932 H 0.25493 0.43082 0.12317 0.0
H933 H 0.29615 0.4195 0.11798 0.0
C934 C 0.3122 0.37487 0.10959 0.0
C935 C 0.31767 0.35078 0.10499 0.0
C936 C 0.28864 0.3821 0.11114 0.0
C937 C 0.29943 0.3342 0.10151 0.0
C938 C 0.27616 0.34117 0.10321 0.0
C939 C 0.24721 0.3716 0.11112 0.0
C940 C 0.2413 0.3952 0.11688 0.0
C941 C 0.2706 0.36494 0.10827 0.0
C942 C 0.25911 0.41251 0.11867 0.0
C943 C 0.28265 0.40599 0.11588 0.0
H944 H 0.74281 0.14028 0.87428 0.0
H945 H 0.75495 0.06675 0.89324 0.0
H946 H 0.79688 0.07521 0.89771 0.0
H947 H 0.8304 0.10362 0.89495 0.0
H948 H 0.81743 0.17689 0.87605 0.0
H949 H 0.77547 0.16849 0.87271 0.0
C950 C 0.75457 0.12608 0.87953 0.0
C951 C 0.74578 0.1029 0.88337 0.0
C952 C 0.77854 0.13105 0.88187 0.0
C953 C 0.76127 0.08477 0.89027 0.0
C954 C 0.78525 0.08958 0.8927 0.0
C955 C 0.81826 0.1176 0.89004 0.0
C956 C 0.82673 0.14074 0.88545 0.0
C957 C 0.79413 0.11261 0.8883 0.0
C958 C 0.8111 0.15892 0.87938 0.0
C959 C 0.78718 0.15413 0.87756 0.0
H960 H 0.15159 0.48056 0.12632 0.0
H961 H 0.10123 0.45076 0.17552 0.0
H962 H 0.08321 0.4897 0.18042 0.0
H963 H 0.0806 0.53189 0.16976 0.0
H964 H 0.13033 0.56217 0.12034 0.0
H965 H 0.14963 0.5235 0.1165 0.0
C966 C 0.13684 0.48268 0.13829 0.0
C967 C 0.12771 0.46273 0.15038 0.0
C968 C 0.12626 0.50519 0.14086 0.0
C969 C 0.10849 0.46576 0.16576 0.0
C970 C 0.09813 0.48803 0.16862 0.0
C971 C 0.09565 0.53003 0.15814 0.0
C972 C 0.10392 0.5498 0.14527 0.0
C973 C 0.10664 0.50779 0.15601 0.0
C974 C 0.12355 0.54716 0.1304 0.0
C975 C 0.13463 0.52506 0.12821 0.0
H976 H 0.68944 0.8841 0.36217 0.0
H977 H 0.69182 0.82646 0.41308 0.0
H978 H 0.73426 0.83049 0.4158 0.0
H979 H 0.77075 0.85022 0.40375 0.0
H980 H 0.76856 0.90955 0.35487 0.0
H981 H 0.72605 0.90509 0.35137 0.0
C982 C 0.69929 0.87239 0.37379 0.0
C983 C 0.68749 0.85491 0.38728 0.0
C984 C 0.72372 0.87513 0.37566 0.0
C985 C 0.70045 0.8401 0.40254 0.0
C986 C 0.72474 0.84234 0.40407 0.0
C987 C 0.76098 0.86213 0.39227 0.0
C988 C 0.77281 0.88005 0.37944 0.0
C989 C 0.73656 0.85977 0.39071 0.0
C990 C 0.75986 0.89561 0.36495 0.0
C991 C 0.73557 0.89303 0.3629 0.0
H992 H 0.87407 0.93618 0.15247 0.0
H993 H 0.94526 0.96028 0.1624 0.0
H994 H 0.93274 0.00178 0.15835 0.0
H995 H 0.90213 0.03081 0.14879 0.0
H996 H 0.83069 0.00711 0.14014 0.0
H997 H 0.84265 0.96575 0.14727 0.0
C998 C 0.88681 0.95053 0.15395 0.0
C999 C 0.91062 0.94519 0.15741 0.0
C1000 C 0.87943 0.97434 0.15182 0.0
C1001 C 0.92687 0.96395 0.15966 0.0
C1002 C 0.91972 0.98766 0.15728 0.0
C1003 C 0.88913 0.01661 0.14874 0.0
C1004 C 0.8656 0.0219 0.14368 0.0
C1005 C 0.89614 0.993 0.15288 0.0
C1006 C 0.84889 0.00344 0.144 0.0
C1007 C 0.85576 0.97981 0.14792 0.0
H1008 H 0.19203 0.62474 0.61552 0.0
H1009 H 0.20743 0.68928 0.57634 0.0
H1010 H 0.24897 0.68071 0.57795 0.0
H1011 H 0.28107 0.65568 0.59083 0.0
H1012 H 0.26699 0.59077 0.62981 0.0
H1013 H 0.22494 0.5987 0.62787 0.0
C1014 C 0.20452 0.63684 0.60732 0.0
C1015 C 0.19659 0.65768 0.59595 0.0
C1016 C 0.22866 0.63182 0.60829 0.0
C1017 C 0.21297 0.67316 0.5853 0.0
C1018 C 0.23681 0.6683 0.5862 0.0
C1019 C 0.26889 0.64321 0.59899 0.0
C1020 C 0.27729 0.62274 0.61058 0.0
C1021 C 0.24485 0.64781 0.59776 0.0
C1022 C 0.26108 0.60672 0.62079 0.0
C1023 C 0.237 0.61125 0.6197 0.0
H1024 H 0.12676 0.45024 0.3836 0.0
H1025 H 0.07496 0.45462 0.32775 0.0
H1026 H 0.08112 0.49776 0.32521 0.0
H1027 H 0.10076 0.53432 0.33926 0.0
H1028 H 0.15408 0.52976 0.39356 0.0
H1029 H 0.14785 0.48658 0.39624 0.0
C1030 C 0.11678 0.46064 0.37091 0.0
C1031 C 0.10026 0.44924 0.35604 0.0
C1032 C 0.1207 0.4854 0.36926 0.0
C1033 C 0.08777 0.46293 0.33941 0.0
C1034 C 0.09124 0.48762 0.33798 0.0
C1035 C 0.11099 0.52388 0.35172 0.0
C1036 C 0.12771 0.53527 0.36635 0.0
C1037 C 0.10758 0.49904 0.35289 0.0
C1038 C 0.14111 0.52144 0.3821 0.0
C1039 C 0.1375 0.49676 0.38369 0.0
H1040 H 0.37798 0.54912 0.88075 0.0
H1041 H 0.43017 0.54236 0.82561 0.0
H1042 H 0.42222 0.49951 0.82282 0.0
H1043 H 0.40113 0.46381 0.83675 0.0
H1044 H 0.34763 0.47091 0.89058 0.0
H1045 H 0.35525 0.51381 0.89298 0.0
C1046 C 0.38765 0.53825 0.86818 0.0
C1047 C 0.40483 0.54885 0.85361 0.0
C1048 C 0.38269 0.51371 0.86635 0.0
C1049 C 0.41691 0.53462 0.83707 0.0
C1050 C 0.41238 0.51011 0.83548 0.0
C1051 C 0.39108 0.47475 0.84895 0.0
C1052 C 0.37396 0.46411 0.86358 0.0
C1053 C 0.39541 0.49945 0.85012 0.0
C1054 C 0.36088 0.47862 0.87907 0.0
C1055 C 0.3653 0.50315 0.88055 0.0
H1056 H 0.89933 0.68495 0.6093 0.0
H1057 H 0.91293 0.70715 0.68184 0.0
H1058 H 0.90395 0.7482 0.67166 0.0
H1059 H 0.89097 0.77776 0.64288 0.0
H1060 H 0.87892 0.75733 0.56973 0.0
H1061 H 0.88872 0.71579 0.5793 0.0
C1062 C 0.90036 0.69884 0.62278 0.0
C1063 C 0.9066 0.69294 0.64632 0.0
C1064 C 0.89546 0.72274 0.61673 0.0
C1065 C 0.90816 0.71114 0.66358 0.0
C1066 C 0.90298 0.73468 0.65782 0.0
C1067 C 0.89056 0.76424 0.62899 0.0
C1068 C 0.88404 0.77049 0.60572 0.0
C1069 C 0.89642 0.74064 0.63456 0.0
C1070 C 0.88391 0.75289 0.58781 0.0
C1071 C 0.88941 0.72915 0.59331 0.0
H1072 H 0.98097 0.17028 0.35261 0.0
H1073 H 0.98051 0.10903 0.39892 0.0
H1074 H 0.02134 0.11678 0.40998 0.0
H1075 H 0.05543 0.14395 0.41029 0.0
H1076 H 0.05385 0.20804 0.36794 0.0
H1077 H 0.01588 0.19629 0.35128 0.0
C1078 C 0.99011 0.15837 0.36464 0.0
C1079 C 0.97804 0.13901 0.37479 0.0
C1080 C 0.01316 0.16366 0.3718 0.0
C1081 C 0.98967 0.12395 0.39083 0.0
C1082 C 0.01293 0.12844 0.39721 0.0
C1083 C 0.04695 0.15499 0.397 0.0
C1084 C 0.05732 0.17672 0.39022 0.0
C1085 C 0.02463 0.14866 0.38837 0.0
C1086 C 0.04606 0.19121 0.37336 0.0
C1087 C 0.02437 0.18454 0.3639 0.0
H1088 H 0.62089 0.22021 0.14011 0.0
H1089 H 0.63401 0.24818 0.06979 0.0
H1090 H 0.62507 0.28864 0.08394 0.0
H1091 H 0.61463 0.31621 0.11704 0.0
H1092 H 0.59976 0.28676 0.18655 0.0
H1093 H 0.60822 0.24681 0.17197 0.0
C1094 C 0.62178 0.23516 0.12785 0.0
C1095 C 0.62833 0.23131 0.10404 0.0
C1096 C 0.61632 0.25813 0.13601 0.0
C1097 C 0.62903 0.25075 0.08825 0.0
C1098 C 0.62399 0.27387 0.09635 0.0
C1099 C 0.61321 0.301 0.12891 0.0
C1100 C 0.60675 0.30449 0.15289 0.0
C1101 C 0.6178 0.27782 0.12029 0.0
C1102 C 0.6047 0.28461 0.16802 0.0
C1103 C 0.60959 0.26171 0.15973 0.0
H1104 H 0.46578 0.80135 0.90025 0.0
H1105 H 0.43261 0.8693 0.88827 0.0
H1106 H 0.47049 0.88656 0.87634 0.0
H1107 H 0.51404 0.88277 0.87261 0.0
H1108 H 0.54573 0.81464 0.88733 0.0
H1109 H 0.50739 0.79698 0.89479 0.0
C1110 C 0.46665 0.81998 0.89501 0.0
C1111 C 0.44635 0.83408 0.89554 0.0
C1112 C 0.48835 0.82974 0.88868 0.0
C1113 C 0.44795 0.85804 0.88818 0.0
C1114 C 0.46963 0.86792 0.88143 0.0
C1115 C 0.51235 0.86401 0.87709 0.0
C1116 C 0.53257 0.84994 0.87948 0.0
C1117 C 0.49009 0.85404 0.88206 0.0
C1118 C 0.53035 0.82573 0.88551 0.0
C1119 C 0.50847 0.81566 0.88981 0.0
H1120 H 0.91581 0.23371 0.84971 0.0
H1121 H 0.86923 0.23798 0.91011 0.0
H1122 H 0.86567 0.28105 0.90445 0.0
H1123 H 0.87589 0.31767 0.88231 0.0
H1124 H 0.92401 0.31328 0.82318 0.0
H1125 H 0.92674 0.27018 0.82834 0.0
C1126 C 0.90483 0.24404 0.86162 0.0
C1127 C 0.89275 0.2326 0.88024 0.0
C1128 C 0.9031 0.26883 0.85847 0.0
C1129 C 0.87881 0.24633 0.89567 0.0
C1130 C 0.87669 0.27097 0.8924 0.0
C1131 C 0.88686 0.30723 0.8705 0.0
C1132 C 0.89963 0.31867 0.85234 0.0
C1133 C 0.88874 0.28242 0.87384 0.0
C1134 C 0.91403 0.30495 0.83736 0.0
C1135 C 0.9156 0.28027 0.84026 0.0
H1136 H 0.43407 0.14723 0.63593 0.0
H1137 H 0.45872 0.14825 0.56317 0.0
H1138 H 0.49802 0.13844 0.57642 0.0
H1139 H 0.52519 0.12826 0.6082 0.0
H1140 H 0.50232 0.12906 0.68141 0.0
H1141 H 0.46263 0.13978 0.66859 0.0
C1142 C 0.44811 0.14531 0.62307 0.0
C1143 C 0.44347 0.14827 0.59861 0.0
C1144 C 0.47096 0.14009 0.63087 0.0
C1145 C 0.46183 0.14607 0.5821 0.0
C1146 C 0.48433 0.14043 0.58963 0.0
C1147 C 0.51154 0.13091 0.62137 0.0
C1148 C 0.51652 0.1277 0.64564 0.0
C1149 C 0.48905 0.13724 0.6139 0.0
C1150 C 0.49883 0.13151 0.66258 0.0
C1151 C 0.47615 0.13749 0.65524 0.0
H1152 H 0.62615 0.76456 0.39966 0.0
H1153 H 0.584 0.77977 0.3377 0.0
H1154 H 0.57936 0.73704 0.32994 0.0
H1155 H 0.58806 0.69534 0.3402 0.0
H1156 H 0.63204 0.68035 0.40092 0.0
H1157 H 0.63514 0.72296 0.40969 0.0
C1158 C 0.61581 0.75853 0.38455 0.0
C1159 C 0.60539 0.77534 0.36933 0.0
C1160 C 0.61362 0.73395 0.3799 0.0
C1161 C 0.59229 0.76721 0.34965 0.0
C1162 C 0.5896 0.74277 0.34521 0.0
C1163 C 0.59823 0.70138 0.35542 0.0
C1164 C 0.60978 0.68463 0.36988 0.0
C1165 C 0.60031 0.72598 0.36013 0.0
C1166 C 0.62307 0.69282 0.3894 0.0
C1167 C 0.62482 0.71721 0.39448 0.0
H1168 H 0.04762 0.84179 0.07743 0.0
H1169 H 0.08287 0.83934 0.14542 0.0
H1170 H 0.04592 0.84817 0.1658 0.0
H1171 H 0.00355 0.85776 0.164 0.0
H1172 H 0.96975 0.86229 0.09531 0.0
H1173 H 0.00611 0.85135 0.07556 0.0
C1174 C 0.04726 0.84303 0.09674 0.0
C1175 C 0.06797 0.83982 0.10989 0.0
C1176 C 0.02615 0.84853 0.10822 0.0
C1177 C 0.06717 0.84174 0.13487 0.0
C1178 C 0.04604 0.84678 0.14652 0.0
C1179 C 0.00417 0.85617 0.14473 0.0
C1180 C 0.98395 0.8608 0.13114 0.0
C1181 C 0.02541 0.85036 0.13336 0.0
C1182 C 0.98505 0.85892 0.10618 0.0
C1183 C 0.00585 0.85264 0.09485 0.0
H1184 H 0.66356 0.89806 0.71079 0.0
H1185 H 0.59928 0.86959 0.68167 0.0
H1186 H 0.58156 0.87 0.72142 0.0
H1187 H 0.58515 0.87658 0.7649 0.0
H1188 H 0.65046 0.90269 0.79374 0.0
H1189 H 0.66686 0.90546 0.75363 0.0
C1190 C 0.64563 0.89202 0.7131 0.0
C1191 C 0.63279 0.88371 0.69335 0.0
C1192 C 0.63572 0.89201 0.73597 0.0
C1193 C 0.60959 0.87593 0.69664 0.0
C1194 C 0.59943 0.87623 0.71935 0.0
C1195 C 0.60282 0.88325 0.76229 0.0
C1196 C 0.61658 0.88953 0.78215 0.0
C1197 C 0.61241 0.88403 0.73919 0.0
C1198 C 0.63958 0.89776 0.77866 0.0
C1199 C 0.64898 0.89927 0.75577 0.0
H1200 H 0.86544 0.85099 0.5184 0.0
H1201 H 0.82413 0.91023 0.54386 0.0
H1202 H 0.81613 0.92225 0.50311 0.0
H1203 H 0.82217 0.91747 0.46057 0.0
H1204 H 0.86431 0.85961 0.43392 0.0
H1205 H 0.87033 0.84531 0.4748 0.0
C1206 C 0.8546 0.86645 0.51501 0.0
C1207 C 0.84563 0.87979 0.53427 0.0
C1208 C 0.85015 0.87351 0.49135 0.0
C1209 C 0.83155 0.89976 0.5295 0.0
C1210 C 0.82686 0.90665 0.50616 0.0
C1211 C 0.83255 0.9016 0.4636 0.0
C1212 C 0.8429 0.8897 0.44426 0.0
C1213 C 0.83628 0.89386 0.487 0.0
C1214 C 0.85619 0.86912 0.44854 0.0
C1215 C 0.8597 0.86101 0.47191 0.0
H1216 H 0.84981 0.10413 0.19871 0.0
H1217 H 0.91552 0.13147 0.17221 0.0
H1218 H 0.9302 0.13563 0.21294 0.0
H1219 H 0.92404 0.1325 0.25617 0.0
H1220 H 0.85719 0.10865 0.28292 0.0
H1221 H 0.84326 0.10201 0.24212 0.0
C1222 C 0.86736 0.11089 0.20192 0.0
C1223 C 0.88158 0.11745 0.18255 0.0
C1224 C 0.87546 0.11387 0.22542 0.0
C1225 C 0.9042 0.12645 0.18688 0.0
C1226 C 0.91264 0.12877 0.21014 0.0
C1227 C 0.90649 0.12569 0.253 0.0
C1228 C 0.89168 0.12093 0.27239 0.0
C1229 C 0.89838 0.12267 0.22954 0.0
C1230 C 0.86886 0.11247 0.26817 0.0
C1231 C 0.86091 0.10866 0.24489 0.0
H1232 H 0.67693 0.09591 0.94251 0.0
H1233 H 0.62496 0.14855 0.9246 0.0
H1234 H 0.62151 0.15956 0.96672 0.0
H1235 H 0.63239 0.15323 0.00893 0.0
H1236 H 0.6827 0.09878 0.02637 0.0
H1237 H 0.68772 0.08961 0.98416 0.0
C1238 C 0.66495 0.10993 0.94773 0.0
C1239 C 0.65128 0.12142 0.93035 0.0
C1240 C 0.66271 0.11582 0.97196 0.0
C1241 C 0.63566 0.13935 0.93758 0.0
C1242 C 0.63369 0.14568 0.96167 0.0
C1243 C 0.64458 0.1395 0.00344 0.0
C1244 C 0.65715 0.12671 0.02078 0.0
C1245 C 0.64701 0.13391 0.97906 0.0
C1246 C 0.6727 0.10879 0.01341 0.0
C1247 C 0.67561 0.10355 0.98926 0.0
H1248 H 0.63375 0.11222 0.8099 0.0
H1249 H 0.6953 0.07181 0.7914 0.0
H1250 H 0.68193 0.06847 0.75044 0.0
H1251 H 0.65329 0.07676 0.71988 0.0
H1252 H 0.59127 0.11702 0.73685 0.0
H1253 H 0.60425 0.12051 0.77839 0.0
C1254 C 0.64421 0.10279 0.79684 0.0
C1255 C 0.66551 0.09233 0.80372 0.0
C1256 C 0.63634 0.10079 0.77308 0.0
C1257 C 0.67884 0.08002 0.78664 0.0
C1258 C 0.67122 0.07807 0.76317 0.0
C1259 C 0.64249 0.08633 0.73255 0.0
C1260 C 0.62134 0.09665 0.72513 0.0
C1261 C 0.65004 0.08833 0.75621 0.0
C1262 C 0.60764 0.10887 0.74201 0.0
C1263 C 0.61508 0.11092 0.76578 0.0
H1264 H 0.61191 0.82386 0.4896 0.0
H1265 H 0.64583 0.88947 0.46862 0.0
H1266 H 0.65062 0.90088 0.51054 0.0
H1267 H 0.6438 0.89279 0.55317 0.0
H1268 H 0.60608 0.82921 0.57382 0.0
H1269 H 0.60406 0.81635 0.53212 0.0
C1270 C 0.62054 0.84053 0.49429 0.0
C1271 C 0.62871 0.85573 0.47619 0.0
C1272 C 0.62238 0.84737 0.51836 0.0
C1273 C 0.63945 0.87751 0.48235 0.0
C1274 C 0.64217 0.88402 0.50628 0.0
C1275 C 0.63527 0.87607 0.54849 0.0
C1276 C 0.62519 0.8619 0.56647 0.0
C1277 C 0.6335 0.86919 0.52443 0.0
C1278 C 0.61387 0.84044 0.56022 0.0
C1279 C 0.61277 0.83306 0.53642 0.0
H1280 H 0.88624 0.86182 0.31277 0.0
H1281 H 0.8483 0.92837 0.31132 0.0
H1282 H 0.85738 0.9333 0.2694 0.0
H1283 H 0.87418 0.91814 0.23259 0.0
H1284 H 0.91344 0.85266 0.23288 0.0
H1285 H 0.90605 0.84806 0.27578 0.0
C1286 C 0.88007 0.87741 0.30327 0.0
C1287 C 0.86644 0.89455 0.31525 0.0
C1288 C 0.88558 0.88039 0.27894 0.0
C1289 C 0.85881 0.91483 0.3027 0.0
C1290 C 0.86395 0.91771 0.27863 0.0
C1291 C 0.88124 0.90291 0.24207 0.0
C1292 C 0.89409 0.88564 0.22961 0.0
C1293 C 0.87704 0.9005 0.26653 0.0
C1294 C 0.9035 0.86622 0.24215 0.0
C1295 C 0.89915 0.86352 0.26662 0.0
H1296 H 0.87118 0.10814 0.97239 0.0
H1297 H 0.878 0.18094 0.99683 0.0
H1298 H 0.87253 0.16794 0.03808 0.0
H1299 H 0.86708 0.13566 0.06721 0.0
H1300 H 0.85705 0.06331 0.04255 0.0
H1301 H 0.86262 0.07628 0.00128 0.0
C1302 C 0.87137 0.12113 0.98677 0.0
C1303 C 0.87517 0.14539 0.98171 0.0
C1304 C 0.86778 0.11359 0.01034 0.0
C1305 C 0.87506 0.16215 0.00037 0.0
C1306 C 0.87204 0.15473 0.02394 0.0
C1307 C 0.86608 0.12277 0.05279 0.0
C1308 C 0.86191 0.09857 0.05783 0.0
C1309 C 0.86862 0.13046 0.02914 0.0
C1310 C 0.86031 0.08206 0.03901 0.0
C1311 C 0.8635 0.08945 0.01546 0.0
H1312 H 0.78377 0.64231 0.89569 0.0
H1313 H 0.76129 0.57091 0.87777 0.0
H1314 H 0.72097 0.58089 0.88923 0.0
H1315 H 0.69184 0.611 0.90269 0.0
H1316 H 0.71622 0.68158 0.92221 0.0
H1317 H 0.75601 0.67074 0.912 0.0
C1318 C 0.77004 0.6289 0.89429 0.0
C1319 C 0.77534 0.60605 0.88558 0.0
C1320 C 0.74722 0.63463 0.90127 0.0
C1321 C 0.75754 0.58868 0.88435 0.0
C1322 C 0.73452 0.59441 0.89086 0.0
C1323 C 0.70592 0.62388 0.90492 0.0
C1324 C 0.70093 0.64715 0.91304 0.0
C1325 C 0.72909 0.61746 0.89913 0.0
C1326 C 0.71943 0.66358 0.91596 0.0
C1327 C 0.74226 0.65745 0.91004 0.0
H1328 H 0.28141 0.83026 0.11053 0.0
H1329 H 0.26964 0.90635 0.11192 0.0
H1330 H 0.22855 0.89981 0.10141 0.0
H1331 H 0.19664 0.8724 0.08823 0.0
H1332 H 0.20983 0.79678 0.0851 0.0
H1333 H 0.2495 0.80315 0.10016 0.0
C1334 C 0.26989 0.84548 0.10877 0.0
C1335 C 0.27879 0.86878 0.11183 0.0
C1336 C 0.24642 0.84163 0.10239 0.0
C1337 C 0.26339 0.88819 0.1096 0.0
C1338 C 0.23985 0.88448 0.10353 0.0
C1339 C 0.20813 0.85739 0.0914 0.0
C1340 C 0.20045 0.83415 0.08581 0.0
C1341 C 0.23125 0.86129 0.09942 0.0
C1342 C 0.21548 0.81478 0.08946 0.0
C1343 C 0.23815 0.81843 0.09794 0.0
H1344 H 0.85899 0.52032 0.87185 0.0
H1345 H 0.92156 0.55036 0.84024 0.0
H1346 H 0.93643 0.51068 0.83263 0.0
H1347 H 0.93226 0.46774 0.83481 0.0
H1348 H 0.8708 0.43615 0.86662 0.0
H1349 H 0.85493 0.47614 0.87425 0.0
C1350 C 0.87586 0.51815 0.8633 0.0
C1351 C 0.8891 0.53843 0.85676 0.0
C1352 C 0.88455 0.49503 0.85899 0.0
C1353 C 0.91097 0.53522 0.8457 0.0
C1354 C 0.91955 0.51248 0.84124 0.0
C1355 C 0.91534 0.46951 0.84339 0.0
C1356 C 0.9027 0.44905 0.85012 0.0
C1357 C 0.90654 0.49233 0.84781 0.0
C1358 C 0.88087 0.45169 0.86131 0.0
C1359 C 0.87182 0.47453 0.86564 0.0
H1360 H 0.24709 0.09166 0.61606 0.0
H1361 H 0.21283 0.16011 0.61319 0.0
H1362 H 0.24875 0.17885 0.5991 0.0
H1363 H 0.28928 0.17575 0.58592 0.0
H1364 H 0.3252 0.10853 0.59068 0.0
H1365 H 0.28942 0.08932 0.60594 0.0
C1366 C 0.24759 0.11066 0.61236 0.0
C1367 C 0.22728 0.12444 0.61542 0.0
C1368 C 0.26858 0.12153 0.60467 0.0
C1369 C 0.2282 0.14911 0.61094 0.0
C1370 C 0.24873 0.15987 0.60285 0.0
C1371 C 0.28928 0.15692 0.59051 0.0
C1372 C 0.30962 0.14347 0.58709 0.0
C1373 C 0.2689 0.14624 0.59945 0.0
C1374 C 0.30966 0.1192 0.59333 0.0
C1375 C 0.2892 0.10823 0.60187 0.0
H1376 H 0.16717 0.99814 0.87504 0.0
H1377 H 0.10413 0.96233 0.85177 0.0
H1378 H 0.08507 0.00072 0.84556 0.0
H1379 H 0.08586 0.04436 0.84787 0.0
H1380 H 0.14779 0.08041 0.8738 0.0
H1381 H 0.16769 0.04215 0.87799 0.0
C1382 C 0.14935 0.99886 0.86839 0.0
C1383 C 0.13706 0.97758 0.86375 0.0
C1384 C 0.13825 0.021 0.86555 0.0
C1385 C 0.11388 0.97858 0.8555 0.0
C1386 C 0.10297 0.00048 0.85197 0.0
C1387 C 0.10372 0.04383 0.85442 0.0
C1388 C 0.11535 0.06515 0.86043 0.0
C1389 C 0.11489 0.02179 0.85717 0.0
C1390 C 0.13843 0.06422 0.86906 0.0
C1391 C 0.14986 0.04235 0.87141 0.0
H1392 H 0.7883 0.32681 0.42342 0.0
H1393 H 0.81666 0.39519 0.40265 0.0
H1394 H 0.77685 0.41031 0.39628 0.0
H1395 H 0.73364 0.40349 0.39617 0.0
H1396 H 0.70717 0.33399 0.41685 0.0
H1397 H 0.74654 0.32011 0.42352 0.0
C1398 C 0.7859 0.34508 0.41757 0.0
C1399 C 0.80544 0.35983 0.41354 0.0
C1400 C 0.76318 0.35348 0.4138 0.0
C1401 C 0.80188 0.38345 0.40593 0.0
C1402 C 0.77912 0.39207 0.40224 0.0
C1403 C 0.73651 0.38532 0.4021 0.0
C1404 C 0.71721 0.36993 0.40592 0.0
C1405 C 0.75956 0.37717 0.40601 0.0
C1406 C 0.72143 0.34641 0.41368 0.0
C1407 C 0.74404 0.33833 0.41757 0.0
H1408 H 0.89307 0.47876 0.64941 0.0
H1409 H 0.82891 0.48998 0.61041 0.0
H1410 H 0.83942 0.53205 0.60478 0.0
H1411 H 0.86651 0.56612 0.6122 0.0
H1412 H 0.92942 0.55422 0.65296 0.0
H1413 H 0.91987 0.5119 0.65629 0.0
C1414 C 0.88134 0.49029 0.63957 0.0
C1415 C 0.86021 0.48112 0.63037 0.0
C1416 C 0.88736 0.5144 0.63659 0.0
C1417 C 0.84526 0.49653 0.6178 0.0
C1418 C 0.85129 0.52059 0.6145 0.0
C1419 C 0.87822 0.55413 0.62148 0.0
C1420 C 0.89868 0.56322 0.63224 0.0
C1421 C 0.87228 0.52978 0.62392 0.0
C1422 C 0.91356 0.54762 0.64457 0.0
C1423 C 0.90809 0.52343 0.64653 0.0
H1424 H 0.64428 0.51427 0.16712 0.0
H1425 H 0.60391 0.52688 0.10357 0.0
H1426 H 0.59513 0.48406 0.10016 0.0
H1427 H 0.59834 0.44309 0.11595 0.0
H1428 H 0.63508 0.43133 0.18201 0.0
H1429 H 0.64597 0.47364 0.1839 0.0
C1430 C 0.63367 0.50748 0.15252 0.0
C1431 C 0.62488 0.52337 0.13547 0.0
C1432 C 0.62805 0.48306 0.15122 0.0
C1433 C 0.61084 0.51474 0.11679 0.0
C1434 C 0.60585 0.49034 0.11486 0.0
C1435 C 0.60883 0.44986 0.13064 0.0
C1436 C 0.6161 0.43424 0.14871 0.0
C1437 C 0.61429 0.47434 0.13203 0.0
C1438 C 0.62932 0.44315 0.16792 0.0
C1439 C 0.63556 0.46728 0.16899 0.0
H1440 H 0.62923 0.74839 0.91966 0.0
H1441 H 0.62764 0.71376 0.8509 0.0
H1442 H 0.61768 0.75183 0.8319 0.0
H1443 H 0.60983 0.79514 0.83511 0.0
H1444 H 0.61416 0.82949 0.90396 0.0
H1445 H 0.62253 0.79124 0.92275 0.0
C1446 C 0.62664 0.74913 0.9005 0.0
C1447 C 0.62904 0.72835 0.88667 0.0
C1448 C 0.62139 0.77101 0.88979 0.0
C1449 C 0.62591 0.72959 0.86187 0.0
C1450 C 0.62018 0.75131 0.85105 0.0
C1451 C 0.61252 0.79416 0.85423 0.0
C1452 C 0.61127 0.81504 0.86818 0.0
C1453 C 0.61791 0.77215 0.86486 0.0
C1454 C 0.61505 0.81367 0.89287 0.0
C1455 C 0.61983 0.79181 0.90362 0.0
H1456 H 0.52705 0.38848 0.11287 0.0
H1457 H 0.52395 0.33407 0.167 0.0
H1458 H 0.48153 0.33014 0.16119 0.0
H1459 H 0.44555 0.34134 0.13946 0.0
H1460 H 0.44822 0.39868 0.08838 0.0
H1461 H 0.49058 0.40249 0.09417 0.0
C1462 C 0.51697 0.37591 0.12346 0.0
C1463 C 0.52842 0.36142 0.14017 0.0
C1464 C 0.49261 0.37427 0.12048 0.0
C1465 C 0.51534 0.3454 0.15408 0.0
C1466 C 0.49117 0.34309 0.15068 0.0
C1467 C 0.45549 0.35471 0.12974 0.0
C1468 C 0.44402 0.36958 0.11336 0.0
C1469 C 0.47966 0.35727 0.13375 0.0
C1470 C 0.45682 0.38709 0.10106 0.0
C1471 C 0.48099 0.38921 0.10433 0.0
H1472 H 0.90038 0.21301 0.33153 0.0
H1473 H 0.89473 0.17526 0.39831 0.0
H1474 H 0.88502 0.2124 0.41881 0.0
H1475 H 0.87705 0.25515 0.4176 0.0
H1476 H 0.88021 0.29302 0.35076 0.0
H1477 H 0.89191 0.25622 0.3303 0.0
C1478 C 0.89718 0.21302 0.35059 0.0
C1479 C 0.89832 0.19151 0.36345 0.0
C1480 C 0.89102 0.23436 0.36216 0.0
C1481 C 0.89389 0.19161 0.38806 0.0
C1482 C 0.88834 0.21282 0.39978 0.0
C1483 C 0.88036 0.25539 0.39855 0.0
C1484 C 0.87781 0.27671 0.38567 0.0
C1485 C 0.88667 0.23421 0.38697 0.0
C1486 C 0.88198 0.27675 0.361 0.0
C1487 C 0.88872 0.25576 0.34935 0.0
H1488 H 0.99434 0.61117 0.64514 0.0
H1489 H 0.97971 0.67669 0.60781 0.0
H1490 H 0.02108 0.68159 0.59833 0.0
H1491 H 0.06086 0.66657 0.59887 0.0
H1492 H 0.07631 0.59999 0.63406 0.0
H1493 H 0.03522 0.59609 0.64598 0.0
C1494 C 1.00036 0.62664 0.63523 0.0
C1495 C 0.98406 0.64361 0.62724 0.0
C1496 C 0.02423 0.629 0.62918 0.0
C1497 C 0.99195 0.66339 0.61408 0.0
C1498 C 0.01558 0.66618 0.60862 0.0
C1499 C 0.05539 0.65117 0.60921 0.0
C1500 C 0.07178 0.63358 0.61547 0.0
C1501 C 0.0318 0.64893 0.61575 0.0
C1502 C 0.06413 0.61377 0.62884 0.0
C1503 C 0.04061 0.61156 0.63574 0.0
H1504 H 0.64497 0.22776 0.58357 0.0
H1505 H 0.58974 0.25994 0.62494 0.0
H1506 H 0.58088 0.22124 0.64309 0.0
H1507 H 0.58841 0.17802 0.64655 0.0
H1508 H 0.64409 0.14665 0.60506 0.0
H1509 H 0.65301 0.18534 0.58761 0.0
C1510 C 0.63098 0.22642 0.59657 0.0
C1511 C 0.618 0.24679 0.60277 0.0
C1512 C 0.62597 0.2042 0.60689 0.0
C1513 C 0.60008 0.24461 0.61983 0.0
C1514 C 0.59494 0.22245 0.63017 0.0
C1515 C 0.60248 0.17963 0.63367 0.0
C1516 C 0.61549 0.15933 0.62714 0.0
C1517 C 0.60769 0.20208 0.62371 0.0
C1518 C 0.63376 0.16187 0.61052 0.0
C1519 C 0.63891 0.18403 0.60047 0.0
H1520 H 0.07155 0.36543 0.86318 0.0
H1521 H 0.04431 0.34682 0.93252 0.0
H1522 H 0.00448 0.35286 0.91832 0.0
H1523 H 0.97745 0.36434 0.88681 0.0
H1524 H 0.00344 0.38106 0.81661 0.0
H1525 H 0.04373 0.37453 0.83038 0.0
C1526 C 0.05685 0.36275 0.87512 0.0
C1527 C 0.06083 0.35592 0.89893 0.0
C1528 C 0.03384 0.36578 0.86666 0.0
C1529 C 0.04168 0.35211 0.91414 0.0
C1530 C 0.01889 0.35557 0.90605 0.0
C1531 C 0.99192 0.36648 0.87446 0.0
C1532 C 0.98757 0.37338 0.85081 0.0
C1533 C 0.0148 0.36251 0.88243 0.0
C1534 C 0.00642 0.37572 0.83492 0.0
C1535 C 0.02942 0.37212 0.84283 0.0
H1536 H 0.85347 0.75735 0.08336 0.0
H1537 H 0.90903 0.72232 0.12171 0.0
H1538 H 0.91982 0.76036 0.14062 0.0
H1539 H 0.9133 0.80385 0.14602 0.0
H1540 H 0.8567 0.8374 0.10771 0.0
H1541 H 0.84668 0.79961 0.08896 0.0
C1542 C 0.86802 0.75793 0.09579 0.0
C1543 C 0.88048 0.737 0.10099 0.0
C1544 C 0.87399 0.77965 0.10661 0.0
C1545 C 0.89909 0.73816 0.1174 0.0
C1546 C 0.90531 0.75992 0.12816 0.0
C1547 C 0.89883 0.80286 0.13352 0.0
C1548 C 0.88578 0.82349 0.12835 0.0
C1549 C 0.89288 0.78083 0.12286 0.0
C1550 C 0.86698 0.82185 0.1122 0.0
C1551 C 0.86122 0.80023 0.10139 0.0
H1552 H 0.4325 0.64973 0.36188 0.0
H1553 H 0.4558 0.67036 0.43229 0.0
H1554 H 0.49624 0.66344 0.42093 0.0
H1555 H 0.52494 0.64951 0.39201 0.0
H1556 H 0.5032 0.63062 0.3208 0.0
H1557 H 0.46232 0.63912 0.33128 0.0
C1558 C 0.44649 0.65281 0.37463 0.0
C1559 C 0.44108 0.66032 0.39798 0.0
C1560 C 0.46998 0.64912 0.36785 0.0
C1561 C 0.4594 0.66455 0.41423 0.0
C1562 C 0.48258 0.66055 0.40778 0.0
C1563 C 0.51127 0.64743 0.37871 0.0
C1564 C 0.51698 0.63924 0.35577 0.0
C1565 C 0.48804 0.65254 0.38479 0.0
C1566 C 0.49919 0.63695 0.3386 0.0
C1567 C 0.47583 0.64168 0.34463 0.0
H1568 H 0.83847 0.59125 0.7872 0.0
H1569 H 0.89438 0.62599 0.82595 0.0
H1570 H 0.91685 0.63031 0.78922 0.0
H1571 H 0.9198 0.62614 0.74547 0.0
H1572 H 0.86242 0.59447 0.70654 0.0
H1573 H 0.84156 0.58668 0.74378 0.0
C1574 C 0.8556 0.5997 0.7876 0.0
C1575 C 0.8647 0.60829 0.80926 0.0
C1576 C 0.86825 0.60255 0.76631 0.0
C1577 C 0.8869 0.61927 0.80949 0.0
C1578 C 0.89982 0.62171 0.78849 0.0
C1579 C 0.90294 0.61714 0.7453 0.0
C1580 C 0.89268 0.61067 0.72347 0.0
C1581 C 0.89061 0.6136 0.76674 0.0
C1582 C 0.87061 0.5995 0.72326 0.0
C1583 C 0.85865 0.59515 0.7445 0.0
H1584 H 0.61012 0.63616 0.07565 0.0
H1585 H 0.67619 0.60175 0.06198 0.0
H1586 H 0.67584 0.61696 0.02105 0.0
H1587 H 0.65673 0.64075 0.9892 0.0
H1588 H 0.59102 0.67532 0.00461 0.0
H1589 H 0.59135 0.65919 0.0447 0.0
C1590 C 0.6245 0.63186 0.06381 0.0
C1591 C 0.64313 0.61779 0.07198 0.0
C1592 C 0.62426 0.64072 0.0405 0.0
C1593 C 0.66159 0.61257 0.05623 0.0
C1594 C 0.6614 0.62124 0.03279 0.0
C1595 C 0.64247 0.64461 0.00133 0.0
C1596 C 0.62397 0.65935 0.99386 0.0
C1597 C 0.64281 0.63542 0.02472 0.0
C1598 C 0.60564 0.66426 0.00986 0.0
C1599 C 0.60574 0.655 0.03284 0.0
H1600 H 0.58395 0.37418 0.2556 0.0
H1601 H 0.65359 0.38632 0.22853 0.0
H1602 H 0.66785 0.39407 0.26904 0.0
H1603 H 0.66073 0.39565 0.31257 0.0
H1604 H 0.59171 0.37969 0.33937 0.0
H1605 H 0.57692 0.37537 0.29869 0.0
C1606 C 0.60221 0.3787 0.25858 0.0
C1607 C 0.61769 0.37975 0.23917 0.0
C1608 C 0.61038 0.38242 0.28192 0.0
C1609 C 0.64136 0.38533 0.24326 0.0
C1610 C 0.64951 0.3898 0.2664 0.0
C1611 C 0.64243 0.39147 0.30938 0.0
C1612 C 0.62727 0.38807 0.32882 0.0
C1613 C 0.63422 0.38817 0.28591 0.0
C1614 C 0.60368 0.38231 0.3246 0.0
C1615 C 0.59522 0.37984 0.30138 0.0
H1616 H 0.87839 0.36202 0.58006 0.0
H1617 H 0.8165 0.4 0.55805 0.0
H1618 H 0.82103 0.38464 0.51749 0.0
H1619 H 0.84291 0.36061 0.4881 0.0
H1620 H 0.90419 0.32214 0.51112 0.0
H1621 H 0.89953 0.33765 0.55136 0.0
C1622 C 0.86584 0.36699 0.56645 0.0
C1623 C 0.84721 0.38224 0.57215 0.0
C1624 C 0.86847 0.35805 0.54325 0.0
C1625 C 0.83103 0.38826 0.55423 0.0
C1626 C 0.83363 0.37954 0.53098 0.0
C1627 C 0.85527 0.35571 0.50192 0.0
C1628 C 0.87388 0.34025 0.49654 0.0
C1629 C 0.85237 0.3645 0.52525 0.0
C1630 C 0.88963 0.3339 0.51472 0.0
C1631 C 0.88702 0.34279 0.53778 0.0
H1632 H 0.84803 0.42108 0.7813 0.0
H1633 H 0.90949 0.38304 0.75816 0.0
H1634 H 0.89639 0.38593 0.7167 0.0
H1635 H 0.86636 0.39745 0.68732 0.0
H1636 H 0.80523 0.43574 0.71087 0.0
H1637 H 0.81937 0.43452 0.75195 0.0
C1638 C 0.85865 0.41345 0.76722 0.0
C1639 C 0.87962 0.40163 0.77291 0.0
C1640 C 0.85101 0.41513 0.74351 0.0
C1641 C 0.89328 0.39221 0.75434 0.0
C1642 C 0.88575 0.39377 0.73062 0.0
C1643 C 0.85619 0.40561 0.70143 0.0
C1644 C 0.83466 0.4165 0.69607 0.0
C1645 C 0.86447 0.40489 0.72505 0.0
C1646 C 0.8218 0.42719 0.71452 0.0
C1647 C 0.82986 0.42647 0.73802 0.0
H1648 H 0.85624 0.59163 0.94984 0.0
H1649 H 0.86272 0.66417 0.92494 0.0
H1650 H 0.86315 0.67881 0.96599 0.0
H1651 H 0.8651 0.67085 0.00853 0.0
H1652 H 0.86281 0.59835 0.03427 0.0
H1653 H 0.85713 0.5837 0.99338 0.0
C1654 C 0.8574 0.61062 0.95355 0.0
C1655 C 0.85944 0.62689 0.9346 0.0
C1656 C 0.85857 0.61883 0.97726 0.0
C1657 C 0.86125 0.65142 0.93939 0.0
C1658 C 0.8615 0.65977 0.96279 0.0
C1659 C 0.86307 0.65184 0.00528 0.0
C1660 C 0.86441 0.63568 0.02433 0.0
C1661 C 0.86069 0.64362 0.98182 0.0
C1662 C 0.8619 0.61111 0.01982 0.0
C1663 C 0.85871 0.60276 0.99647 0.0
H1664 H 0.6014 0.62023 0.26938 0.0
H1665 H 0.65672 0.57753 0.29959 0.0
H1666 H 0.67205 0.56953 0.26005 0.0
H1667 H 0.67093 0.57559 0.217 0.0
H1668 H 0.61641 0.61851 0.18602 0.0
H1669 H 0.59963 0.62532 0.22558 0.0
C1670 C 0.61671 0.60907 0.26728 0.0
C1671 C 0.62793 0.59973 0.28755 0.0
C1672 C 0.62569 0.60458 0.24431 0.0
C1673 C 0.6478 0.58526 0.28443 0.0
C1674 C 0.65662 0.58058 0.26176 0.0
C1675 C 0.65531 0.58634 0.21887 0.0
C1676 C 0.64501 0.59659 0.19863 0.0
C1677 C 0.64589 0.59033 0.24162 0.0
C1678 C 0.62473 0.61045 0.20136 0.0
C1679 C 0.61513 0.61437 0.22398 0.0
H1680 H 0.63012 0.38404 0.53824 0.0
H1681 H 0.6188 0.31427 0.50736 0.0
H1682 H 0.62762 0.3299 0.46778 0.0
H1683 H 0.63759 0.36344 0.44186 0.0
H1684 H 0.65176 0.43277 0.47239 0.0
H1685 H 0.6429 0.41732 0.51226 0.0
C1686 C 0.6296 0.37235 0.52279 0.0
C1687 C 0.62361 0.34815 0.52557 0.0
C1688 C 0.6352 0.38135 0.50011 0.0
C1689 C 0.62336 0.333 0.50558 0.0
C1690 C 0.62834 0.34191 0.48296 0.0
C1691 C 0.63877 0.37515 0.45724 0.0
C1692 C 0.64507 0.39921 0.45426 0.0
C1693 C 0.63413 0.36606 0.48 0.0
C1694 C 0.6469 0.41414 0.47434 0.0
C1695 C 0.64178 0.40535 0.49708 0.0
H1696 H 0.73397 0.89997 0.62452 0.0
H1697 H 0.70395 0.83147 0.60638 0.0
H1698 H 0.74292 0.81546 0.59869 0.0
H1699 H 0.78557 0.82051 0.59838 0.0
H1700 H 0.816 0.88792 0.61973 0.0
H1701 H 0.77697 0.90476 0.62501 0.0
C1702 C 0.73604 0.88163 0.61865 0.0
C1703 C 0.71622 0.86693 0.61584 0.0
C1704 C 0.75857 0.87231 0.61504 0.0
C1705 C 0.71903 0.84308 0.60865 0.0
C1706 C 0.74128 0.83392 0.60427 0.0
C1707 C 0.78364 0.8389 0.60413 0.0
C1708 C 0.80361 0.85296 0.60857 0.0
C1709 C 0.76118 0.84829 0.60764 0.0
C1710 C 0.80088 0.8767 0.61624 0.0
C1711 C 0.77856 0.88637 0.61921 0.0
H1712 H 0.2385 0.60295 0.40357 0.0
H1713 H 0.22461 0.64725 0.34241 0.0
H1714 H 0.26561 0.65955 0.34097 0.0
H1715 H 0.30556 0.65797 0.35718 0.0
H1716 H 0.31892 0.61724 0.42079 0.0
H1717 H 0.27822 0.60319 0.42123 0.0
C1718 C 0.24453 0.61531 0.39 0.0
C1719 C 0.22862 0.62414 0.3731 0.0
C1720 C 0.26808 0.62286 0.38967 0.0
C1721 C 0.23652 0.64034 0.35572 0.0
C1722 C 0.25999 0.6473 0.3548 0.0
C1723 C 0.29952 0.64589 0.371 0.0
C1724 C 0.31514 0.63836 0.38873 0.0
C1725 C 0.27593 0.63868 0.37165 0.0
C1726 C 0.30711 0.62314 0.4069 0.0
C1727 C 0.28388 0.61514 0.40716 0.0
H1728 H 0.61686 0.04188 0.63763 0.0
H1729 H 0.55469 0.0276 0.67901 0.0
H1730 H 0.56197 0.9848 0.67647 0.0
H1731 H 0.58531 0.9515 0.66189 0.0
H1732 H 0.64791 0.96517 0.62095 0.0
H1733 H 0.64117 0.00819 0.62402 0.0
C1734 C 0.60496 0.02938 0.64613 0.0
C1735 C 0.5852 0.0379 0.65839 0.0
C1736 C 0.60928 0.00472 0.64465 0.0
C1737 C 0.57 0.02152 0.66944 0.0
C1738 C 0.57413 0.99703 0.66797 0.0
C1739 C 0.5975 0.96383 0.65355 0.0
C1740 C 0.61699 0.95505 0.64101 0.0
C1741 C 0.59359 0.98845 0.65548 0.0
C1742 C 0.63274 0.97139 0.63066 0.0
C1743 C 0.62888 0.996 0.63239 0.0
H1744 H 0.19891 0.34069 0.90431 0.0
H1745 H 0.17803 0.4084 0.87488 0.0
H1746 H 0.21894 0.42134 0.87315 0.0
H1747 H 0.26074 0.4128 0.87845 0.0
H1748 H 0.28204 0.34354 0.90352 0.0
H1749 H 0.24096 0.33178 0.90873 0.0
C1750 C 0.20338 0.35832 0.89768 0.0
C1751 C 0.18555 0.37363 0.88982 0.0
C1752 C 0.227 0.36532 0.89598 0.0
C1753 C 0.1915 0.3963 0.88093 0.0
C1754 C 0.21486 0.40372 0.88 0.0
C1755 C 0.25634 0.39525 0.88535 0.0
C1756 C 0.27427 0.37913 0.89089 0.0
C1757 C 0.23276 0.38832 0.88729 0.0
C1758 C 0.26844 0.35625 0.89926 0.0
C1759 C 0.24499 0.34953 0.90218 0.0
H1760 H 0.36511 0.43351 0.64809 0.0
H1761 H 0.4362 0.45639 0.66087 0.0
H1762 H 0.42465 0.49813 0.65538 0.0
H1763 H 0.39451 0.52772 0.64491 0.0
H1764 H 0.32298 0.50462 0.63518 0.0
H1765 H 0.33445 0.46317 0.64188 0.0
C1766 C 0.37806 0.44761 0.64982 0.0
C1767 C 0.4015 0.44196 0.65458 0.0
C1768 C 0.37118 0.47143 0.64723 0.0
C1769 C 0.41804 0.46041 0.65715 0.0
C1770 C 0.41145 0.48421 0.65397 0.0
C1771 C 0.38145 0.51358 0.64446 0.0
C1772 C 0.35801 0.51905 0.63933 0.0
C1773 C 0.38811 0.48988 0.6487 0.0
C1774 C 0.34113 0.50075 0.63912 0.0
C1775 C 0.34769 0.47708 0.64282 0.0
H1776 H 0.77477 0.10291 0.12386 0.0
H1777 H 0.80252 0.15992 0.08008 0.0
H1778 H 0.76342 0.17401 0.0721 0.0
H1779 H 0.72158 0.17148 0.07802 0.0
H1780 H 0.69203 0.11542 0.12134 0.0
H1781 H 0.73141 0.09965 0.12884 0.0
C1782 C 0.77222 0.11833 0.11252 0.0
C1783 C 0.79179 0.1304 0.10289 0.0
C1784 C 0.74933 0.12663 0.10789 0.0
C1785 C 0.78801 0.15035 0.08812 0.0
C1786 C 0.76556 0.15848 0.0834 0.0
C1787 C 0.72365 0.15576 0.08909 0.0
C1788 C 0.70392 0.14475 0.09922 0.0
C1789 C 0.74616 0.14695 0.09334 0.0
C1790 C 0.70698 0.12429 0.11337 0.0
C1791 C 0.7295 0.1153 0.11767 0.0
H1792 H 0.65457 0.01881 0.88954 0.0
H1793 H 0.61187 0.03434 0.82808 0.0
H1794 H 0.59796 0.99304 0.827 0.0
H1795 H 0.59762 0.95248 0.8437 0.0
H1796 H 0.63904 0.93754 0.90633 0.0
H1797 H 0.65352 0.9785 0.90679 0.0
C1798 C 0.64233 0.01309 0.87585 0.0
C1799 C 0.63433 0.02959 0.85891 0.0
C1800 C 0.634 0.98941 0.87561 0.0
C1801 C 0.61824 0.022 0.84142 0.0
C1802 C 0.61027 0.99837 0.84076 0.0
C1803 C 0.60976 0.95818 0.85749 0.0
C1804 C 0.61714 0.94186 0.87494 0.0
C1805 C 0.61794 0.98193 0.85783 0.0
C1806 C 0.63287 0.94967 0.89271 0.0
C1807 C 0.64129 0.97312 0.89297 0.0
H1808 H 0.90038 0.05627 0.39688 0.0
H1809 H 0.87713 0.06603 0.32442 0.0
H1810 H 0.8608 0.02543 0.32396 0.0
H1811 H 0.85207 0.98746 0.34494 0.0
H1812 H 0.8787 0.97704 0.41608 0.0
H1813 H 0.89465 0.01764 0.41646 0.0
C1814 C 0.89186 0.04941 0.38096 0.0
C1815 C 0.88977 0.06403 0.36079 0.0
C1816 C 0.88295 0.02604 0.38071 0.0
C1817 C 0.879 0.05495 0.34012 0.0
C1818 C 0.86954 0.03184 0.33991 0.0
C1819 C 0.86132 0.99424 0.36047 0.0
C1820 C 0.86401 0.97963 0.38058 0.0
C1821 C 0.87117 0.01731 0.36022 0.0
C1822 C 0.87641 0.98817 0.40047 0.0
C1823 C 0.88552 0.01131 0.40069 0.0
H1824 H 0.39609 0.25369 0.08976 0.0
H1825 H 0.40236 0.28541 0.15968 0.0
H1826 H 0.41243 0.24658 0.17656 0.0
H1827 H 0.41797 0.20344 0.17172 0.0
H1828 H 0.40892 0.17101 0.10246 0.0
H1829 H 0.4015 0.2103 0.08496 0.0
C1830 C 0.39985 0.2521 0.10865 0.0
C1831 C 0.39856 0.27236 0.12347 0.0
C1832 C 0.40504 0.2296 0.11833 0.0
C1833 C 0.40318 0.27004 0.14795 0.0
C1834 C 0.40895 0.24786 0.1576 0.0
C1835 C 0.41455 0.205 0.15276 0.0
C1836 C 0.41406 0.18441 0.13836 0.0
C1837 C 0.40972 0.2275 0.143 0.0
C1838 C 0.40934 0.18663 0.11389 0.0
C1839 C 0.40511 0.20907 0.1039 0.0
H1840 H 0.55911 0.6809 0.86858 0.0
H1841 H 0.5729 0.625 0.91928 0.0
H1842 H 0.53569 0.60555 0.90905 0.0
H1843 H 0.49699 0.60767 0.88943 0.0
H1844 H 0.4844 0.66204 0.83676 0.0
H1845 H 0.5235 0.67882 0.84369 0.0
C1846 C 0.55416 0.66412 0.87688 0.0
C1847 C 0.56848 0.65439 0.89472 0.0
C1848 C 0.53291 0.65298 0.87072 0.0
C1849 C 0.56212 0.63266 0.90538 0.0
C1850 C 0.54078 0.62168 0.89969 0.0
C1851 C 0.5031 0.62286 0.87915 0.0
C1852 C 0.48793 0.63381 0.86281 0.0
C1853 C 0.5257 0.63214 0.88297 0.0
C1854 C 0.49592 0.65334 0.84938 0.0
C1855 C 0.51817 0.66301 0.85345 0.0
H1856 H 0.11783 0.75083 0.5833 0.0
H1857 H 0.10113 0.71356 0.64839 0.0
H1858 H 0.08926 0.75095 0.66711 0.0
H1859 H 0.08582 0.79429 0.66587 0.0
H1860 H 0.10529 0.83269 0.60225 0.0
H1861 H 0.11395 0.79491 0.58201 0.0
C1862 C 0.11128 0.75099 0.60145 0.0
C1863 C 0.11025 0.72961 0.61449 0.0
C1864 C 0.10524 0.77273 0.61241 0.0
C1865 C 0.10211 0.7299 0.6381 0.0
C1866 C 0.09535 0.75124 0.64881 0.0
C1867 C 0.09182 0.7944 0.64752 0.0
C1868 C 0.09495 0.81618 0.63556 0.0
C1869 C 0.09722 0.77278 0.63628 0.0
C1870 C 0.10287 0.81609 0.61185 0.0
C1871 C 0.10778 0.79451 0.60028 0.0
H1872 H 0.01177 0.38973 0.3964 0.0
H1873 H 0.02109 0.33662 0.34153 0.0
H1874 H 0.98154 0.3212 0.3487 0.0
H1875 H 0.94608 0.32019 0.37375 0.0
H1876 H 0.93547 0.375 0.42661 0.0
H1877 H 0.9736 0.39278 0.41689 0.0
C1878 C 0.00489 0.37506 0.38578 0.0
C1879 C 0.01923 0.36409 0.36867 0.0
C1880 C 0.98202 0.36662 0.38971 0.0
C1881 C 0.01024 0.34529 0.35477 0.0
C1882 C 0.98771 0.33642 0.35895 0.0
C1883 C 0.95197 0.33635 0.38269 0.0
C1884 C 0.93826 0.34629 0.4009 0.0
C1885 C 0.9737 0.34656 0.3768 0.0
C1886 C 0.94581 0.36723 0.41241 0.0
C1887 C 0.96764 0.37724 0.407 0.0
H1888 H 0.3621 0.81918 0.38583 0.0
H1889 H 0.41366 0.81717 0.32967 0.0
H1890 H 0.41608 0.77389 0.33314 0.0
H1891 H 0.40404 0.73661 0.3523 0.0
H1892 H 0.3543 0.73829 0.41011 0.0
H1893 H 0.35075 0.78159 0.4059 0.0
C1894 C 0.37374 0.80921 0.3743 0.0
C1895 C 0.38761 0.82137 0.35748 0.0
C1896 C 0.37547 0.78426 0.37673 0.0
C1897 C 0.40287 0.80826 0.34285 0.0
C1898 C 0.40425 0.78349 0.34477 0.0
C1899 C 0.39235 0.74643 0.36392 0.0
C1900 C 0.37938 0.73423 0.38139 0.0
C1901 C 0.39071 0.77132 0.36169 0.0
C1902 C 0.36455 0.74727 0.39654 0.0
C1903 C 0.36246 0.77203 0.3941 0.0
H1904 H 0.02415 0.62917 0.10669 0.0
H1905 H 0.00681 0.62791 0.18149 0.0
H1906 H 0.966 0.6376 0.17198 0.0
H1907 H 0.93508 0.64597 0.14185 0.0
H1908 H 0.95426 0.64878 0.06742 0.0
H1909 H 0.99442 0.63889 0.07735 0.0
C1910 C 0.01146 0.63099 0.12096 0.0
C1911 C 0.01842 0.62766 0.14472 0.0
C1912 C 0.9883 0.63682 0.11538 0.0
C1913 C 0.00185 0.63041 0.16302 0.0
C1914 C 0.97852 0.63588 0.15757 0.0
C1915 C 0.9481 0.64439 0.12788 0.0
C1916 C 0.94165 0.64805 0.10393 0.0
C1917 C 0.9715 0.63903 0.13376 0.0
C1918 C 0.95873 0.64615 0.086 0.0
C1919 C 0.98174 0.64044 0.09163 0.0
H1920 H 0.13459 0.27227 0.90003 0.0
H1921 H 0.08961 0.28755 0.84016 0.0
H1922 H 0.08689 0.24488 0.83093 0.0
H1923 H 0.09747 0.20314 0.83994 0.0
H1924 H 0.14375 0.18879 0.89907 0.0
H1925 H 0.14563 0.23121 0.90854 0.0
C1926 C 0.12413 0.26633 0.88497 0.0
C1927 C 0.11227 0.28309 0.87086 0.0
C1928 C 0.12284 0.2419 0.87964 0.0
C1929 C 0.099 0.27503 0.85127 0.0
C1930 C 0.09737 0.25063 0.84603 0.0
C1931 C 0.10788 0.20932 0.85494 0.0
C1932 C 0.12044 0.19281 0.86877 0.0
C1933 C 0.10922 0.23389 0.86011 0.0
C1934 C 0.13402 0.20111 0.88803 0.0
C1935 C 0.13509 0.22537 0.89351 0.0
H1936 H 0.55676 0.33447 0.64472 0.0
H1937 H 0.53504 0.32706 0.57128 0.0
H1938 H 0.49502 0.33666 0.58214 0.0
H1939 H 0.46644 0.349 0.61186 0.0
H1940 H 0.48644 0.35468 0.68577 0.0
H1941 H 0.52675 0.34366 0.6755 0.0
C1942 C 0.5432 0.33485 0.63119 0.0
C1943 C 0.54893 0.33023 0.6072 0.0
C1944 C 0.51992 0.34006 0.63762 0.0
C1945 C 0.53114 0.33052 0.58987 0.0
C1946 C 0.50822 0.33607 0.59603 0.0
C1947 C 0.4796 0.34767 0.62575 0.0
C1948 C 0.47363 0.35285 0.64946 0.0
C1949 C 0.50247 0.34113 0.61975 0.0
C1950 C 0.49069 0.35073 0.66736 0.0
C1951 C 0.51373 0.34456 0.66147 0.0
H1952 H 0.14342 0.39318 0.28133 0.0
H1953 H 0.07451 0.38007 0.25253 0.0
H1954 H 0.09034 0.38142 0.21195 0.0
H1955 H 0.12414 0.38583 0.18474 0.0
H1956 H 0.19237 0.40123 0.2142 0.0
H1957 H 0.17651 0.39905 0.2545 0.0
C1958 C 0.13183 0.39069 0.26617 0.0
C1959 C 0.10787 0.38646 0.26988 0.0
C1960 C 0.14099 0.39164 0.24304 0.0
C1961 C 0.09303 0.38346 0.25009 0.0
C1962 C 0.10209 0.38409 0.22692 0.0
C1963 C 0.13549 0.38859 0.20001 0.0
C1964 C 0.15939 0.39357 0.19657 0.0
C1965 C 0.1261 0.38801 0.22318 0.0
C1966 C 0.1739 0.39735 0.21646 0.0
C1967 C 0.16486 0.39617 0.23948 0.0
H1968 H 0.34738 0.35533 0.9442 0.0
H1969 H 0.4003 0.41036 0.94092 0.0
H1970 H 0.40558 0.40837 0.98421 0.0
H1971 H 0.39427 0.39167 0.02312 0.0
H1972 H 0.34437 0.33383 0.02623 0.0
H1973 H 0.33876 0.33593 0.98287 0.0
C1974 C 0.36011 0.36673 0.95308 0.0
C1975 C 0.37335 0.38307 0.93968 0.0
C1976 C 0.36355 0.36493 0.97783 0.0
C1977 C 0.39001 0.39764 0.95107 0.0
C1978 C 0.39297 0.39655 0.97575 0.0
C1979 C 0.38233 0.37947 0.01417 0.0
C1980 C 0.36962 0.36274 0.02756 0.0
C1981 C 0.37974 0.38037 0.98931 0.0
C1982 C 0.35434 0.34678 0.01603 0.0
C1983 C 0.35108 0.34805 0.99135 0.0
H1984 H 0.34695 0.5944 0.69819 0.0
H1985 H 0.4049 0.63385 0.66819 0.0
H1986 H 0.42378 0.63563 0.70724 0.0
H1987 H 0.42349 0.6267 0.75016 0.0
H1988 H 0.36395 0.59061 0.7809 0.0
H1989 H 0.34609 0.58653 0.74137 0.0
C1990 C 0.36372 0.60334 0.70024 0.0
C1991 C 0.37452 0.61397 0.68036 0.0
C1992 C 0.37423 0.60479 0.72286 0.0
C1993 C 0.39615 0.6257 0.68327 0.0
C1994 C 0.40702 0.62663 0.70557 0.0
C1995 C 0.40673 0.61773 0.74809 0.0
C1996 C 0.39511 0.60873 0.76822 0.0
C1997 C 0.3962 0.61629 0.72549 0.0
C1998 C 0.37319 0.59759 0.76552 0.0
C1999 C 0.36298 0.5953 0.74298 0.0
H2000 H 0.11759 0.6566 0.51384 0.0
H2001 H 0.17738 0.61164 0.52654 0.0
H2002 H 0.18156 0.60473 0.48383 0.0
H2003 H 0.16722 0.60968 0.4431 0.0
H2004 H 0.10599 0.65247 0.43002 0.0
H2005 H 0.10348 0.66208 0.47252 0.0
C2006 C 0.13162 0.64546 0.5072 0.0
C2007 C 0.14708 0.63458 0.52337 0.0
C2008 C 0.13364 0.6411 0.48254 0.0
C2009 C 0.1651 0.62005 0.51451 0.0
C2010 C 0.16755 0.61612 0.49007 0.0
C2011 C 0.15346 0.62134 0.44946 0.0
C2012 C 0.13685 0.63036 0.43334 0.0
C2013 C 0.15177 0.6263 0.47395 0.0
C2014 C 0.11898 0.64521 0.44202 0.0
C2015 C 0.11752 0.65071 0.46634 0.0
H2016 H 0.10087 0.61969 0.23107 0.0
H2017 H 0.16004 0.57819 0.20738 0.0
H2018 H 0.17373 0.57465 0.2482 0.0
H2019 H 0.17006 0.58439 0.29028 0.0
H2020 H 0.11182 0.62636 0.31496 0.0
H2021 H 0.09655 0.62849 0.27414 0.0
C2022 C 0.11668 0.60978 0.23486 0.0
C2023 C 0.12947 0.59943 0.21606 0.0
C2024 C 0.12468 0.6079 0.25854 0.0
C2025 C 0.14993 0.58661 0.22137 0.0
C2026 C 0.1578 0.58449 0.24476 0.0
C2027 C 0.15395 0.59392 0.2868 0.0
C2028 C 0.14216 0.6053 0.30557 0.0
C2029 C 0.14548 0.59526 0.26341 0.0
C2030 C 0.12126 0.6175 0.30076 0.0
C2031 C 0.11255 0.61875 0.27743 0.0
H2032 H 0.13941 0.34619 0.07002 0.0
H2033 H 0.16003 0.41954 0.05915 0.0
H2034 H 0.15616 0.41449 0.01595 0.0
H2035 H 0.14558 0.38945 0.98131 0.0
H2036 H 0.12836 0.31517 0.99203 0.0
H2037 H 0.13239 0.3202 0.03517 0.0
C2038 C 0.14309 0.36099 0.05812 0.0
C2039 C 0.14973 0.38324 0.06763 0.0
C2040 C 0.14147 0.35777 0.03332 0.0
C2041 C 0.15487 0.40224 0.05214 0.0
C2042 C 0.15261 0.39939 0.02748 0.0
C2043 C 0.14287 0.37438 0.99314 0.0
C2044 C 0.13652 0.35204 0.98362 0.0
C2045 C 0.14573 0.37728 0.01787 0.0
C2046 C 0.13333 0.33253 0.99901 0.0
C2047 C 0.13552 0.33542 0.02366 0.0
H2048 H 0.32424 0.4031 0.79615 0.0
H2049 H 0.38698 0.36887 0.82128 0.0
H2050 H 0.4013 0.36566 0.78019 0.0
H2051 H 0.39581 0.37287 0.73695 0.0
H2052 H 0.33244 0.4073 0.71308 0.0
H2053 H 0.3187 0.41006 0.75382 0.0
C2054 C 0.34106 0.39492 0.79269 0.0
C2055 C 0.35452 0.38625 0.8117 0.0
C2056 C 0.34911 0.39315 0.76919 0.0
C2057 C 0.37627 0.37567 0.8069 0.0
C2058 C 0.38446 0.37385 0.78342 0.0
C2059 C 0.379 0.38095 0.74066 0.0
C2060 C 0.36527 0.38982 0.7218 0.0
C2061 C 0.37101 0.38256 0.76438 0.0
C2062 C 0.3435 0.40026 0.72706 0.0
C2063 C 0.33553 0.4019 0.75043 0.0
H2064 H 0.3622 0.60819 0.47182 0.0
H2065 H 0.36946 0.68067 0.49706 0.0
H2066 H 0.3627 0.66744 0.53803 0.0
H2067 H 0.35559 0.6351 0.56673 0.0
H2068 H 0.3454 0.56306 0.54127 0.0
H2069 H 0.35231 0.57623 0.50027 0.0
C2070 C 0.36229 0.62103 0.48634 0.0
C2071 C 0.36654 0.64529 0.48158 0.0
C2072 C 0.35785 0.61338 0.50973 0.0
C2073 C 0.36623 0.66188 0.50038 0.0
C2074 C 0.36243 0.65433 0.52378 0.0
C2075 C 0.35485 0.62233 0.55218 0.0
C2076 C 0.35023 0.59815 0.55693 0.0
C2077 C 0.35835 0.63011 0.52867 0.0
C2078 C 0.34894 0.58179 0.53796 0.0
C2079 C 0.35296 0.58929 0.51456 0.0
H2080 H 0.20676 0.17206 0.41688 0.0
H2081 H 0.16815 0.10845 0.39768 0.0
H2082 H 0.20472 0.08874 0.38624 0.0
H2083 H 0.24773 0.09092 0.37887 0.0
H2084 H 0.28466 0.15621 0.39584 0.0
H2085 H 0.24882 0.17381 0.41108 0.0
C2086 C 0.20628 0.15377 0.41045 0.0
C2087 C 0.18473 0.14179 0.40811 0.0
C2088 C 0.22717 0.14288 0.40335 0.0
C2089 C 0.18452 0.11812 0.39965 0.0
C2090 C 0.20543 0.10686 0.39304 0.0
C2091 C 0.24787 0.10886 0.3862 0.0
C2092 C 0.26876 0.12231 0.38614 0.0
C2093 C 0.22687 0.11923 0.39439 0.0
C2094 C 0.26874 0.1456 0.39548 0.0
C2095 C 0.24826 0.15569 0.40424 0.0
H2096 H 0.74707 0.37723 0.64528 0.0
H2097 H 0.75633 0.41723 0.58032 0.0
H2098 H 0.7206 0.39936 0.56383 0.0
H2099 H 0.6886 0.36979 0.56674 0.0
H2100 H 0.67749 0.332 0.63265 0.0
H2101 H 0.71192 0.35173 0.65017 0.0
C2102 C 0.74104 0.38222 0.62764 0.0
C2103 C 0.75434 0.39829 0.61389 0.0
C2104 C 0.72026 0.37221 0.61849 0.0
C2105 C 0.7463 0.40491 0.5912 0.0
C2106 C 0.72596 0.39461 0.58174 0.0
C2107 C 0.6936 0.36619 0.58505 0.0
C2108 C 0.68082 0.34938 0.59839 0.0
C2109 C 0.71309 0.37788 0.59504 0.0
C2110 C 0.68713 0.34495 0.62215 0.0
C2111 C 0.70686 0.35611 0.63207 0.0
H2112 H 0.41086 0.96664 0.3264 0.0
H2113 H 0.36396 0.94188 0.3813 0.0
H2114 H 0.34644 0.98182 0.38381 0.0
H2115 H 0.34673 0.02478 0.37201 0.0
H2116 H 0.39424 0.04778 0.31659 0.0
H2117 H 0.40903 0.00749 0.31254 0.0
C2118 C 0.39677 0.96992 0.33892 0.0
C2119 C 0.38897 0.95154 0.35393 0.0
C2120 C 0.38688 0.99266 0.34015 0.0
C2121 C 0.37035 0.95589 0.36967 0.0
C2122 C 0.36038 0.9787 0.37111 0.0
C2123 C 0.36006 0.02082 0.35885 0.0
C2124 C 0.36962 0.03938 0.34492 0.0
C2125 C 0.36878 0.99739 0.35667 0.0
C2126 C 0.38686 0.03397 0.32787 0.0
C2127 C 0.39536 0.0109 0.32548 0.0
H2128 H 0.80879 0.61255 0.0867 0.0
H2129 H 0.80033 0.68028 0.12205 0.0
H2130 H 0.7631 0.66675 0.13913 0.0
H2131 H 0.73135 0.63708 0.14072 0.0
H2132 H 0.73928 0.56946 0.10464 0.0
H2133 H 0.77832 0.58135 0.09123 0.0
C2134 C 0.79899 0.62399 0.09868 0.0
C2135 C 0.80721 0.64717 0.10351 0.0
C2136 C 0.7774 0.61624 0.10795 0.0
C2137 C 0.79433 0.66222 0.11851 0.0
C2138 C 0.77301 0.65456 0.12807 0.0
C2139 C 0.7417 0.62486 0.1301 0.0
C2140 C 0.73232 0.60253 0.12347 0.0
C2141 C 0.76409 0.63184 0.12239 0.0
C2142 C 0.74604 0.58681 0.10989 0.0
C2143 C 0.76837 0.5936 0.10219 0.0
H2144 H 0.63177 0.56678 0.36638 0.0
H2145 H 0.56245 0.53964 0.35141 0.0
H2146 H 0.5761 0.49884 0.35669 0.0
H2147 H 0.60717 0.47098 0.36655 0.0
H2148 H 0.67721 0.49684 0.37962 0.0
H2149 H 0.66403 0.5381 0.37354 0.0
C2150 C 0.61972 0.5519 0.36431 0.0
C2151 C 0.59608 0.55618 0.35875 0.0
C2152 C 0.62785 0.52834 0.3668 0.0
C2153 C 0.58069 0.53677 0.35577 0.0
C2154 C 0.58848 0.51345 0.35875 0.0
C2155 C 0.61962 0.48564 0.36791 0.0
C2156 C 0.64306 0.48099 0.3737 0.0
C2157 C 0.61194 0.50905 0.36435 0.0
C2158 C 0.65908 0.50005 0.37509 0.0
C2159 C 0.65149 0.5236 0.3718 0.0
H2160 H 0.22844 0.84267 0.87021 0.0
H2161 H 0.23822 0.91655 0.88994 0.0
H2162 H 0.28041 0.90979 0.89476 0.0
H2163 H 0.31418 0.88148 0.8964 0.0
H2164 H 0.3022 0.80765 0.87745 0.0
H2165 H 0.26136 0.81587 0.86912 0.0
C2166 C 0.23972 0.85741 0.87553 0.0
C2167 C 0.23009 0.87998 0.88005 0.0
C2168 C 0.26369 0.85335 0.87842 0.0
C2169 C 0.24515 0.89892 0.88644 0.0
C2170 C 0.26927 0.89504 0.88926 0.0
C2171 C 0.30263 0.86741 0.89006 0.0
C2172 C 0.31112 0.84395 0.88772 0.0
C2173 C 0.27873 0.87216 0.8857 0.0
C2174 C 0.296 0.82578 0.87964 0.0
C2175 C 0.27262 0.83044 0.87487 0.0
H2176 H 0.39385 0.96973 0.14061 0.0
H2177 H 0.32702 0.98837 0.11045 0.0
H2178 H 0.33821 0.03064 0.11052 0.0
H2179 H 0.36743 0.06229 0.11852 0.0
H2180 H 0.43259 0.04409 0.15247 0.0
H2181 H 0.42175 0.00169 0.15163 0.0
C2182 C 0.38176 0.98311 0.13414 0.0
C2183 C 0.35975 0.97604 0.12537 0.0
C2184 C 0.38808 0.00741 0.13487 0.0
C2185 C 0.34405 0.99348 0.11734 0.0
C2186 C 0.35048 0.0176 0.11729 0.0
C2187 C 0.3792 0.04896 0.12569 0.0
C2188 C 0.40085 0.05611 0.13528 0.0
C2189 C 0.3725 0.02477 0.12587 0.0
C2190 C 0.41584 0.03887 0.14496 0.0
C2191 C 0.40967 0.01468 0.14445 0.0
H2192 H 0.12895 0.9453 0.61736 0.0
H2193 H 0.07328 0.95081 0.66905 0.0
H2194 H 0.08111 0.99344 0.67353 0.0
H2195 H 0.10303 0.02928 0.6622 0.0
H2196 H 0.15977 0.02402 0.61176 0.0
H2197 H 0.15244 0.9811 0.60758 0.0
C2198 C 0.11851 0.95586 0.62954 0.0
C2199 C 0.10042 0.94492 0.64268 0.0
C2200 C 0.12336 0.98036 0.63235 0.0
C2201 C 0.08729 0.95877 0.65871 0.0
C2202 C 0.09174 0.98316 0.66128 0.0
C2203 C 0.11386 0.01876 0.65032 0.0
C2204 C 0.1318 0.02988 0.63717 0.0
C2205 C 0.10964 0.99415 0.64812 0.0
C2206 C 0.14587 0.0159 0.62213 0.0
C2207 C 0.14161 0.99138 0.61964 0.0
loop_
_geom_bond_atom_site_label_1
_geom_bond_atom_site_label_2
_geom_bond_distance
_geom_bond_site_symmetry_2
_ccdc_geom_bond_type
Co0 O1 2.216 . S
Co0 O2 2.091 . S
Co0 O4 2.004 . S
Co0 O10 2.021 . S
Co0 O12 2.137 . S
Co0 O13 2.244 . S
O1 Co0 2.216 . S
O1 C8 1.247 . S
O2 Co0 2.091 . S
O2 C8 1.261 . S
C3 O12 1.247 . S
C3 O13 1.272 . S
O4 Co0 2.004 . S
O4 C9 1.259 . S
Co5 O6 2.061 . S
Co5 O11 2.052 . S
Co5 O13 2.135 . S
O6 Co5 2.061 . S
O6 C9 1.235 . S
C7 O10 1.238 . S
C7 O11 1.241 . S
C8 O1 1.247 . S
C8 O2 1.261 . S
C9 O4 1.259 . S
C9 O6 1.235 . S
O10 Co0 2.021 . S
O10 C7 1.238 . S
O11 Co5 2.052 . S
O11 C7 1.241 . S
O12 Co0 2.137 . S
O12 C3 1.247 . S
O13 Co0 2.244 . S
O13 C3 1.272 . S
O13 Co5 2.135 . S
Co14 O15 2.216 . S
Co14 O16 2.091 . S
Co14 O18 2.004 . S
Co14 O24 2.021 . S
Co14 O26 2.137 . S
Co14 O27 2.244 . S
O15 Co14 2.216 . S
O15 C22 1.247 . S
O16 Co14 2.091 . S
O16 C22 1.261 . S
C17 O26 1.247 . S
C17 O27 1.272 . S
O18 Co14 2.004 . S
O18 C23 1.259 . S
Co19 O20 2.061 . S
Co19 O25 2.052 . S
Co19 O27 2.135 . S
O20 Co19 2.061 . S
O20 C23 1.235 . S
C21 O24 1.238 . S
C21 O25 1.241 . S
C22 O15 1.247 . S
C22 O16 1.261 . S
C23 O18 1.259 . S
C23 O20 1.235 . S
O24 Co14 2.021 . S
O24 C21 1.238 . S
O25 Co19 2.052 . S
O25 C21 1.241 . S
O26 Co14 2.137 . S
O26 C17 1.247 . S
O27 Co14 2.244 . S
O27 C17 1.272 . S
O27 Co19 2.135 . S
Co28 O29 2.216 . S
Co28 O30 2.091 . S
Co28 O32 2.004 . S
Co28 O38 2.021 . S
Co28 O40 2.137 . S
Co28 O41 2.244 . S
O29 Co28 2.216 . S
O29 C36 1.247 . S
O30 Co28 2.091 . S
O30 C36 1.261 . S
C31 O40 1.247 . S
C31 O41 1.272 . S
O32 Co28 2.004 . S
O32 C37 1.259 . S
Co33 O34 2.061 . S
Co33 O39 2.052 . S
Co33 O41 2.135 . S
O34 Co33 2.061 . S
O34 C37 1.235 . S
C35 O38 1.238 . S
C35 O39 1.241 . S
C36 O29 1.247 . S
C36 O30 1.261 . S
C37 O32 1.259 . S
C37 O34 1.235 . S
O38 Co28 2.021 . S
O38 C35 1.238 . S
O39 Co33 2.052 . S
O39 C35 1.241 . S
O40 Co28 2.137 . S
O40 C31 1.247 . S
O41 Co28 2.244 . S
O41 C31 1.272 . S
O41 Co33 2.135 . S
Co42 O43 2.216 . S
Co42 O44 2.091 . S
Co42 O46 2.004 . S
Co42 O52 2.021 . S
Co42 O54 2.137 . S
Co42 O55 2.244 . S
O43 Co42 2.216 . S
O43 C50 1.247 . S
O44 Co42 2.091 . S
O44 C50 1.261 . S
C45 O54 1.247 . S
C45 O55 1.272 . S
O46 Co42 2.004 . S
O46 C51 1.259 . S
Co47 O48 2.061 . S
Co47 O53 2.052 . S
Co47 O55 2.135 . S
O48 Co47 2.061 . S
O48 C51 1.235 . S
C49 O52 1.238 . S
C49 O53 1.241 . S
C50 O43 1.247 . S
C50 O44 1.261 . S
C51 O46 1.259 . S
C51 O48 1.235 . S
O52 Co42 2.021 . S
O52 C49 1.238 . S
O53 Co47 2.052 . S
O53 C49 1.241 . S
O54 Co42 2.137 . S
O54 C45 1.247 . S
O55 Co42 2.244 . S
O55 C45 1.272 . S
O55 Co47 2.135 . S
Co56 O57 2.216 . S
Co56 O58 2.091 . S
Co56 O60 2.004 . S
Co56 O66 2.021 . S
Co56 O68 2.137 . S
Co56 O69 2.244 . S
O57 Co56 2.216 . S
O57 C64 1.247 . S
O58 Co56 2.091 . S
O58 C64 1.261 . S
C59 O68 1.247 . S
C59 O69 1.272 . S
O60 Co56 2.004 . S
O60 C65 1.259 . S
Co61 O62 2.061 . S
Co61 O67 2.052 . S
Co61 O69 2.135 . S
O62 Co61 2.061 . S
O62 C65 1.235 . S
C63 O66 1.238 . S
C63 O67 1.241 . S
C64 O57 1.247 . S
C64 O58 1.261 . S
C65 O60 1.259 . S
C65 O62 1.235 . S
O66 Co56 2.021 . S
O66 C63 1.238 . S
O67 Co61 2.052 . S
O67 C63 1.241 . S
O68 Co56 2.137 . S
O68 C59 1.247 . S
O69 Co56 2.244 . S
O69 C59 1.272 . S
O69 Co61 2.135 . S
Co70 O71 2.216 . S
Co70 O72 2.091 . S
Co70 O74 2.004 . S
Co70 O80 2.021 . S
Co70 O82 2.137 . S
Co70 O83 2.244 . S
O71 Co70 2.216 . S
O71 C78 1.247 . S
O72 Co70 2.091 . S
O72 C78 1.261 . S
C73 O82 1.247 . S
C73 O83 1.272 . S
O74 Co70 2.004 . S
O74 C79 1.259 . S
Co75 O76 2.061 . S
Co75 O81 2.052 . S
Co75 O83 2.135 . S
O76 Co75 2.061 . S
O76 C79 1.235 . S
C77 O80 1.238 . S
C77 O81 1.241 . S
C78 O71 1.247 . S
C78 O72 1.261 . S
C79 O74 1.259 . S
C79 O76 1.235 . S
O80 Co70 2.021 . S
O80 C77 1.238 . S
O81 Co75 2.052 . S
O81 C77 1.241 . S
O82 Co70 2.137 . S
O82 C73 1.247 . S
O83 Co70 2.244 . S
O83 C73 1.272 . S
O83 Co75 2.135 . S
Co84 O85 2.216 . S
Co84 O86 2.091 . S
Co84 O88 2.004 . S
Co84 O94 2.021 . S
Co84 O96 2.137 . S
Co84 O97 2.244 . S
O85 Co84 2.216 . S
O85 C92 1.247 . S
O86 Co84 2.091 . S
O86 C92 1.261 . S
C87 O96 1.247 . S
C87 O97 1.272 . S
O88 Co84 2.004 . S
O88 C93 1.259 . S
Co89 O90 2.061 . S
Co89 O95 2.052 . S
Co89 O97 2.135 . S
O90 Co89 2.061 . S
O90 C93 1.235 . S
C91 O94 1.238 . S
C91 O95 1.241 . S
C92 O85 1.247 . S
C92 O86 1.261 . S
C93 O88 1.259 . S
C93 O90 1.235 . S
O94 Co84 2.021 . S
O94 C91 1.238 . S
O95 Co89 2.052 . S
O95 C91 1.241 . S
O96 Co84 2.137 . S
O96 C87 1.247 . S
O97 Co84 2.244 . S
O97 C87 1.272 . S
O97 Co89 2.135 . S
Co98 O99 2.216 . S
Co98 O100 2.091 . S
Co98 O102 2.004 . S
Co98 O108 2.021 . S
Co98 O110 2.137 . S
Co98 O111 2.244 . S
O99 Co98 2.216 . S
O99 C106 1.247 . S
O100 Co98 2.091 . S
O100 C106 1.261 . S
C101 O110 1.247 . S
C101 O111 1.272 . S
O102 Co98 2.004 . S
O102 C107 1.259 . S
Co103 O104 2.061 . S
Co103 O109 2.052 . S
Co103 O111 2.135 . S
O104 Co103 2.061 . S
O104 C107 1.235 . S
C105 O108 1.238 . S
C105 O109 1.241 . S
C106 O99 1.247 . S
C106 O100 1.261 . S
C107 O102 1.259 . S
C107 O104 1.235 . S
O108 Co98 2.021 . S
O108 C105 1.238 . S
O109 Co103 2.052 . S
O109 C105 1.241 . S
O110 Co98 2.137 . S
O110 C101 1.247 . S
O111 Co98 2.244 . S
O111 C101 1.272 . S
O111 Co103 2.135 . S
Co112 O113 2.216 . S
Co112 O114 2.091 . S
Co112 O116 2.004 . S
Co112 O122 2.021 . S
Co112 O124 2.137 . S
Co112 O125 2.244 . S
O113 Co112 2.216 . S
O113 C120 1.247 . S
O114 Co112 2.091 . S
O114 C120 1.261 . S
C115 O124 1.247 . S
C115 O125 1.272 . S
O116 Co112 2.004 . S
O116 C121 1.259 . S
Co117 O118 2.061 . S
Co117 O123 2.052 . S
Co117 O125 2.135 . S
O118 Co117 2.061 . S
O118 C121 1.235 . S
C119 O122 1.238 . S
C119 O123 1.241 . S
C120 O113 1.247 . S
C120 O114 1.261 . S
C121 O116 1.259 . S
C121 O118 1.235 . S
O122 Co112 2.021 . S
O122 C119 1.238 . S
O123 Co117 2.052 . S
O123 C119 1.241 . S
O124 Co112 2.137 . S
O124 C115 1.247 . S
O125 Co112 2.244 . S
O125 C115 1.272 . S
O125 Co117 2.135 . S
Co126 O127 2.216 . S
Co126 O128 2.091 . S
Co126 O130 2.004 . S
Co126 O136 2.021 . S
Co126 O138 2.137 . S
Co126 O139 2.244 . S
O127 Co126 2.216 . S
O127 C134 1.247 . S
O128 Co126 2.091 . S
O128 C134 1.261 . S
C129 O138 1.247 . S
C129 O139 1.272 . S
O130 Co126 2.004 . S
O130 C135 1.259 . S
Co131 O132 2.061 . S
Co131 O137 2.052 . S
Co131 O139 2.135 . S
O132 Co131 2.061 . S
O132 C135 1.235 . S
C133 O136 1.238 . S
C133 O137 1.241 . S
C134 O127 1.247 . S
C134 O128 1.261 . S
C135 O130 1.259 . S
C135 O132 1.235 . S
O136 Co126 2.021 . S
O136 C133 1.238 . S
O137 Co131 2.052 . S
O137 C133 1.241 . S
O138 Co126 2.137 . S
O138 C129 1.247 . S
O139 Co126 2.244 . S
O139 C129 1.272 . S
O139 Co131 2.135 . S
Co140 O141 2.216 . S
Co140 O142 2.091 . S
Co140 O144 2.004 . S
Co140 O150 2.021 . S
Co140 O152 2.137 . S
Co140 O153 2.244 . S
O141 Co140 2.216 . S
O141 C148 1.247 . S
O142 Co140 2.091 . S
O142 C148 1.261 . S
C143 O152 1.247 . S
C143 O153 1.272 . S
O144 Co140 2.004 . S
O144 C149 1.259 . S
Co145 O146 2.061 . S
Co145 O151 2.052 . S
Co145 O153 2.135 . S
O146 Co145 2.061 . S
O146 C149 1.235 . S
C147 O150 1.238 . S
C147 O151 1.241 . S
C148 O141 1.247 . S
C148 O142 1.261 . S
C149 O144 1.259 . S
C149 O146 1.235 . S
O150 Co140 2.021 . S
O150 C147 1.238 . S
O151 Co145 2.052 . S
O151 C147 1.241 . S
O152 Co140 2.137 . S
O152 C143 1.247 . S
O153 Co140 2.244 . S
O153 C143 1.272 . S
O153 Co145 2.135 . S
Co154 O155 2.216 . S
Co154 O156 2.091 . S
Co154 O158 2.004 . S
Co154 O164 2.021 . S
Co154 O166 2.137 . S
Co154 O167 2.244 . S
O155 Co154 2.216 . S
O155 C162 1.247 . S
O156 Co154 2.091 . S
O156 C162 1.261 . S
C157 O166 1.247 . S
C157 O167 1.272 . S
O158 Co154 2.004 . S
O158 C163 1.259 . S
Co159 O160 2.061 . S
Co159 O165 2.052 . S
Co159 O167 2.135 . S
O160 Co159 2.061 . S
O160 C163 1.235 . S
C161 O164 1.238 . S
C161 O165 1.241 . S
C162 O155 1.247 . S
C162 O156 1.261 . S
C163 O158 1.259 . S
C163 O160 1.235 . S
O164 Co154 2.021 . S
O164 C161 1.238 . S
O165 Co159 2.052 . S
O165 C161 1.241 . S
O166 Co154 2.137 . S
O166 C157 1.247 . S
O167 Co154 2.244 . S
O167 C157 1.272 . S
O167 Co159 2.135 . S
Co168 O169 2.216 . S
Co168 O170 2.091 . S
Co168 O172 2.004 . S
Co168 O178 2.021 . S
Co168 O180 2.137 . S
Co168 O181 2.244 . S
O169 Co168 2.216 . S
O169 C176 1.247 . S
O170 Co168 2.091 . S
O170 C176 1.261 . S
C171 O180 1.247 . S
C171 O181 1.272 . S
O172 Co168 2.004 . S
O172 C177 1.259 . S
Co173 O174 2.061 . S
Co173 O179 2.052 . S
Co173 O181 2.135 . S
O174 Co173 2.061 . S
O174 C177 1.235 . S
C175 O178 1.238 . S
C175 O179 1.241 . S
C176 O169 1.247 . S
C176 O170 1.261 . S
C177 O172 1.259 . S
C177 O174 1.235 . S
O178 Co168 2.021 . S
O178 C175 1.238 . S
O179 Co173 2.052 . S
O179 C175 1.241 . S
O180 Co168 2.137 . S
O180 C171 1.247 . S
O181 Co168 2.244 . S
O181 C171 1.272 . S
O181 Co173 2.135 . S
Co182 O183 2.216 . S
Co182 O184 2.091 . S
Co182 O186 2.004 . S
Co182 O192 2.021 . S
Co182 O194 2.137 . S
Co182 O195 2.244 . S
O183 Co182 2.216 . S
O183 C190 1.247 . S
O184 Co182 2.091 . S
O184 C190 1.261 . S
C185 O194 1.247 . S
C185 O195 1.272 . S
O186 Co182 2.004 . S
O186 C191 1.259 . S
Co187 O188 2.061 . S
Co187 O193 2.052 . S
Co187 O195 2.135 . S
O188 Co187 2.061 . S
O188 C191 1.235 . S
C189 O192 1.238 . S
C189 O193 1.241 . S
C190 O183 1.247 . S
C190 O184 1.261 . S
C191 O186 1.259 . S
C191 O188 1.235 . S
O192 Co182 2.021 . S
O192 C189 1.238 . S
O193 Co187 2.052 . S
O193 C189 1.241 . S
O194 Co182 2.137 . S
O194 C185 1.247 . S
O195 Co182 2.244 . S
O195 C185 1.272 . S
O195 Co187 2.135 . S
Co196 O197 2.216 . S
Co196 O198 2.091 . S
Co196 O200 2.004 . S
Co196 O206 2.021 . S
Co196 O208 2.137 . S
Co196 O209 2.244 . S
O197 Co196 2.216 . S
O197 C204 1.247 . S
O198 Co196 2.091 . S
O198 C204 1.261 . S
C199 O208 1.247 . S
C199 O209 1.272 . S
O200 Co196 2.004 . S
O200 C205 1.259 . S
Co201 O202 2.061 . S
Co201 O207 2.052 . S
Co201 O209 2.135 . S
O202 Co201 2.061 . S
O202 C205 1.235 . S
C203 O206 1.238 . S
C203 O207 1.241 . S
C204 O197 1.247 . S
C204 O198 1.261 . S
C205 O200 1.259 . S
C205 O202 1.235 . S
O206 Co196 2.021 . S
O206 C203 1.238 . S
O207 Co201 2.052 . S
O207 C203 1.241 . S
O208 Co196 2.137 . S
O208 C199 1.247 . S
O209 Co196 2.244 . S
O209 C199 1.272 . S
O209 Co201 2.135 . S
Co210 O211 2.216 . S
Co210 O212 2.091 . S
Co210 O214 2.004 . S
Co210 O220 2.021 . S
Co210 O222 2.137 . S
Co210 O223 2.244 . S
O211 Co210 2.216 . S
O211 C218 1.247 . S
O212 Co210 2.091 . S
O212 C218 1.261 . S
C213 O222 1.247 . S
C213 O223 1.272 . S
O214 Co210 2.004 . S
O214 C219 1.259 . S
Co215 O216 2.061 . S
Co215 O221 2.052 . S
Co215 O223 2.135 . S
O216 Co215 2.061 . S
O216 C219 1.235 . S
C217 O220 1.238 . S
C217 O221 1.241 . S
C218 O211 1.247 . S
C218 O212 1.261 . S
C219 O214 1.259 . S
C219 O216 1.235 . S
O220 Co210 2.021 . S
O220 C217 1.238 . S
O221 Co215 2.052 . S
O221 C217 1.241 . S
O222 Co210 2.137 . S
O222 C213 1.247 . S
O223 Co210 2.244 . S
O223 C213 1.272 . S
O223 Co215 2.135 . S
Co224 O225 2.216 . S
Co224 O226 2.091 . S
Co224 O228 2.004 . S
Co224 O234 2.021 . S
Co224 O236 2.137 . S
Co224 O237 2.244 . S
O225 Co224 2.216 . S
O225 C232 1.247 . S
O226 Co224 2.091 . S
O226 C232 1.261 . S
C227 O236 1.247 . S
C227 O237 1.272 . S
O228 Co224 2.004 . S
O228 C233 1.259 . S
Co229 O230 2.061 . S
Co229 O235 2.052 . S
Co229 O237 2.135 . S
O230 Co229 2.061 . S
O230 C233 1.235 . S
C231 O234 1.238 . S
C231 O235 1.241 . S
C232 O225 1.247 . S
C232 O226 1.261 . S
C233 O228 1.259 . S
C233 O230 1.235 . S
O234 Co224 2.021 . S
O234 C231 1.238 . S
O235 Co229 2.052 . S
O235 C231 1.241 . S
O236 Co224 2.137 . S
O236 C227 1.247 . S
O237 Co224 2.244 . S
O237 C227 1.272 . S
O237 Co229 2.135 . S
Co238 O239 2.216 . S
Co238 O240 2.091 . S
Co238 O242 2.004 . S
Co238 O248 2.021 . S
Co238 O250 2.137 . S
Co238 O251 2.244 . S
O239 Co238 2.216 . S
O239 C246 1.247 . S
O240 Co238 2.091 . S
O240 C246 1.261 . S
C241 O250 1.247 . S
C241 O251 1.272 . S
O242 Co238 2.004 . S
O242 C247 1.259 . S
Co243 O244 2.061 . S
Co243 O249 2.052 . S
Co243 O251 2.135 . S
O244 Co243 2.061 . S
O244 C247 1.235 . S
C245 O248 1.238 . S
C245 O249 1.241 . S
C246 O239 1.247 . S
C246 O240 1.261 . S
C247 O242 1.259 . S
C247 O244 1.235 . S
O248 Co238 2.021 . S
O248 C245 1.238 . S
O249 Co243 2.052 . S
O249 C245 1.241 . S
O250 Co238 2.137 . S
O250 C241 1.247 . S
O251 Co238 2.244 . S
O251 C241 1.272 . S
O251 Co243 2.135 . S
Co252 O253 2.216 . S
Co252 O254 2.091 . S
Co252 O256 2.004 . S
Co252 O262 2.021 . S
Co252 O264 2.137 . S
Co252 O265 2.244 . S
O253 Co252 2.216 . S
O253 C260 1.247 . S
O254 Co252 2.091 . S
O254 C260 1.261 . S
C255 O264 1.247 . S
C255 O265 1.272 . S
O256 Co252 2.004 . S
O256 C261 1.259 . S
Co257 O258 2.061 . S
Co257 O263 2.052 . S
Co257 O265 2.135 . S
O258 Co257 2.061 . S
O258 C261 1.235 . S
C259 O262 1.238 . S
C259 O263 1.241 . S
C260 O253 1.247 . S
C260 O254 1.261 . S
C261 O256 1.259 . S
C261 O258 1.235 . S
O262 Co252 2.021 . S
O262 C259 1.238 . S
O263 Co257 2.052 . S
O263 C259 1.241 . S
O264 Co252 2.137 . S
O264 C255 1.247 . S
O265 Co252 2.244 . S
O265 C255 1.272 . S
O265 Co257 2.135 . S
Co266 O267 2.216 . S
Co266 O268 2.091 . S
Co266 O270 2.004 . S
Co266 O276 2.021 . S
Co266 O278 2.137 . S
Co266 O279 2.244 . S
O267 Co266 2.216 . S
O267 C274 1.247 . S
O268 Co266 2.091 . S
O268 C274 1.261 . S
C269 O278 1.247 . S
C269 O279 1.272 . S
O270 Co266 2.004 . S
O270 C275 1.259 . S
Co271 O272 2.061 . S
Co271 O277 2.052 . S
Co271 O279 2.135 . S
O272 Co271 2.061 . S
O272 C275 1.235 . S
C273 O276 1.238 . S
C273 O277 1.241 . S
C274 O267 1.247 . S
C274 O268 1.261 . S
C275 O270 1.259 . S
C275 O272 1.235 . S
O276 Co266 2.021 . S
O276 C273 1.238 . S
O277 Co271 2.052 . S
O277 C273 1.241 . S
O278 Co266 2.137 . S
O278 C269 1.247 . S
O279 Co266 2.244 . S
O279 C269 1.272 . S
O279 Co271 2.135 . S
Co280 O281 2.216 . S
Co280 O282 2.091 . S
Co280 O284 2.004 . S
Co280 O290 2.021 . S
Co280 O292 2.137 . S
Co280 O293 2.244 . S
O281 Co280 2.216 . S
O281 C288 1.247 . S
O282 Co280 2.091 . S
O282 C288 1.261 . S
C283 O292 1.247 . S
C283 O293 1.272 . S
O284 Co280 2.004 . S
O284 C289 1.259 . S
Co285 O286 2.061 . S
Co285 O291 2.052 . S
Co285 O293 2.135 . S
O286 Co285 2.061 . S
O286 C289 1.235 . S
C287 O290 1.238 . S
C287 O291 1.241 . S
C288 O281 1.247 . S
C288 O282 1.261 . S
C289 O284 1.259 . S
C289 O286 1.235 . S
O290 Co280 2.021 . S
O290 C287 1.238 . S
O291 Co285 2.052 . S
O291 C287 1.241 . S
O292 Co280 2.137 . S
O292 C283 1.247 . S
O293 Co280 2.244 . S
O293 C283 1.272 . S
O293 Co285 2.135 . S
Co294 O295 2.216 . S
Co294 O296 2.091 . S
Co294 O298 2.004 . S
Co294 O304 2.021 . S
Co294 O306 2.137 . S
Co294 O307 2.244 . S
O295 Co294 2.216 . S
O295 C302 1.247 . S
O296 Co294 2.091 . S
O296 C302 1.261 . S
C297 O306 1.247 . S
C297 O307 1.272 . S
O298 Co294 2.004 . S
O298 C303 1.259 . S
Co299 O300 2.061 . S
Co299 O305 2.052 . S
Co299 O307 2.135 . S
O300 Co299 2.061 . S
O300 C303 1.235 . S
C301 O304 1.238 . S
C301 O305 1.241 . S
C302 O295 1.247 . S
C302 O296 1.261 . S
C303 O298 1.259 . S
C303 O300 1.235 . S
O304 Co294 2.021 . S
O304 C301 1.238 . S
O305 Co299 2.052 . S
O305 C301 1.241 . S
O306 Co294 2.137 . S
O306 C297 1.247 . S
O307 Co294 2.244 . S
O307 C297 1.272 . S
O307 Co299 2.135 . S
Co308 O309 2.216 . S
Co308 O310 2.091 . S
Co308 O312 2.004 . S
Co308 O318 2.021 . S
Co308 O320 2.137 . S
Co308 O321 2.244 . S
O309 Co308 2.216 . S
O309 C316 1.247 . S
O310 Co308 2.091 . S
O310 C316 1.261 . S
C311 O320 1.247 . S
C311 O321 1.272 . S
O312 Co308 2.004 . S
O312 C317 1.259 . S
Co313 O314 2.061 . S
Co313 O319 2.052 . S
Co313 O321 2.135 . S
O314 Co313 2.061 . S
O314 C317 1.235 . S
C315 O318 1.238 . S
C315 O319 1.241 . S
C316 O309 1.247 . S
C316 O310 1.261 . S
C317 O312 1.259 . S
C317 O314 1.235 . S
O318 Co308 2.021 . S
O318 C315 1.238 . S
O319 Co313 2.052 . S
O319 C315 1.241 . S
O320 Co308 2.137 . S
O320 C311 1.247 . S
O321 Co308 2.244 . S
O321 C311 1.272 . S
O321 Co313 2.135 . S
Co322 O323 2.216 . S
Co322 O324 2.091 . S
Co322 O326 2.004 . S
Co322 O332 2.021 . S
Co322 O334 2.137 . S
Co322 O335 2.244 . S
O323 Co322 2.216 . S
O323 C330 1.247 . S
O324 Co322 2.091 . S
O324 C330 1.261 . S
C325 O334 1.247 . S
C325 O335 1.272 . S
O326 Co322 2.004 . S
O326 C331 1.259 . S
Co327 O328 2.061 . S
Co327 O333 2.052 . S
Co327 O335 2.135 . S
O328 Co327 2.061 . S
O328 C331 1.235 . S
C329 O332 1.238 . S
C329 O333 1.241 . S
C330 O323 1.247 . S
C330 O324 1.261 . S
C331 O326 1.259 . S
C331 O328 1.235 . S
O332 Co322 2.021 . S
O332 C329 1.238 . S
O333 Co327 2.052 . S
O333 C329 1.241 . S
O334 Co322 2.137 . S
O334 C325 1.247 . S
O335 Co322 2.244 . S
O335 C325 1.272 . S
O335 Co327 2.135 . S
Co336 O337 2.216 . S
Co336 O338 2.091 . S
Co336 O340 2.004 . S
Co336 O346 2.021 . S
Co336 O348 2.137 . S
Co336 O349 2.244 . S
O337 Co336 2.216 . S
O337 C344 1.247 . S
O338 Co336 2.091 . S
O338 C344 1.261 . S
C339 O348 1.247 . S
C339 O349 1.272 . S
O340 Co336 2.004 . S
O340 C345 1.259 . S
Co341 O342 2.061 . S
Co341 O347 2.052 . S
Co341 O349 2.135 . S
O342 Co341 2.061 . S
O342 C345 1.235 . S
C343 O346 1.238 . S
C343 O347 1.241 . S
C344 O337 1.247 . S
C344 O338 1.261 . S
C345 O340 1.259 . S
C345 O342 1.235 . S
O346 Co336 2.021 . S
O346 C343 1.238 . S
O347 Co341 2.052 . S
O347 C343 1.241 . S
O348 Co336 2.137 . S
O348 C339 1.247 . S
O349 Co336 2.244 . S
O349 C339 1.272 . S
O349 Co341 2.135 . S
Co350 O351 2.216 . S
Co350 O352 2.091 . S
Co350 O354 2.004 . S
Co350 O360 2.021 . S
Co350 O362 2.137 . S
Co350 O363 2.244 . S
O351 Co350 2.216 . S
O351 C358 1.247 . S
O352 Co350 2.091 . S
O352 C358 1.261 . S
C353 O362 1.247 . S
C353 O363 1.272 . S
O354 Co350 2.004 . S
O354 C359 1.259 . S
Co355 O356 2.061 . S
Co355 O361 2.052 . S
Co355 O363 2.135 . S
O356 Co355 2.061 . S
O356 C359 1.235 . S
C357 O360 1.238 . S
C357 O361 1.241 . S
C358 O351 1.247 . S
C358 O352 1.261 . S
C359 O354 1.259 . S
C359 O356 1.235 . S
O360 Co350 2.021 . S
O360 C357 1.238 . S
O361 Co355 2.052 . S
O361 C357 1.241 . S
O362 Co350 2.137 . S
O362 C353 1.247 . S
O363 Co350 2.244 . S
O363 C353 1.272 . S
O363 Co355 2.135 . S
Co364 O365 2.216 . S
Co364 O366 2.091 . S
Co364 O368 2.004 . S
Co364 O374 2.021 . S
Co364 O376 2.137 . S
Co364 O377 2.244 . S
O365 Co364 2.216 . S
O365 C372 1.247 . S
O366 Co364 2.091 . S
O366 C372 1.261 . S
C367 O376 1.247 . S
C367 O377 1.272 . S
O368 Co364 2.004 . S
O368 C373 1.259 . S
Co369 O370 2.061 . S
Co369 O375 2.052 . S
Co369 O377 2.135 . S
O370 Co369 2.061 . S
O370 C373 1.235 . S
C371 O374 1.238 . S
C371 O375 1.241 . S
C372 O365 1.247 . S
C372 O366 1.261 . S
C373 O368 1.259 . S
C373 O370 1.235 . S
O374 Co364 2.021 . S
O374 C371 1.238 . S
O375 Co369 2.052 . S
O375 C371 1.241 . S
O376 Co364 2.137 . S
O376 C367 1.247 . S
O377 Co364 2.244 . S
O377 C367 1.272 . S
O377 Co369 2.135 . S
Co378 O379 2.216 . S
Co378 O380 2.091 . S
Co378 O382 2.004 . S
Co378 O388 2.021 . S
Co378 O390 2.137 . S
Co378 O391 2.244 . S
O379 Co378 2.216 . S
O379 C386 1.247 . S
O380 Co378 2.091 . S
O380 C386 1.261 . S
C381 O390 1.247 . S
C381 O391 1.272 . S
O382 Co378 2.004 . S
O382 C387 1.259 . S
Co383 O384 2.061 . S
Co383 O389 2.052 . S
Co383 O391 2.135 . S
O384 Co383 2.061 . S
O384 C387 1.235 . S
C385 O388 1.238 . S
C385 O389 1.241 . S
C386 O379 1.247 . S
C386 O380 1.261 . S
C387 O382 1.259 . S
C387 O384 1.235 . S
O388 Co378 2.021 . S
O388 C385 1.238 . S
O389 Co383 2.052 . S
O389 C385 1.241 . S
O390 Co378 2.137 . S
O390 C381 1.247 . S
O391 Co378 2.244 . S
O391 C381 1.272 . S
O391 Co383 2.135 . S
Co392 O393 2.216 . S
Co392 O394 2.091 . S
Co392 O396 2.004 . S
Co392 O402 2.021 . S
Co392 O404 2.137 . S
Co392 O405 2.244 . S
O393 Co392 2.216 . S
O393 C400 1.247 . S
O394 Co392 2.091 . S
O394 C400 1.261 . S
C395 O404 1.247 . S
C395 O405 1.272 . S
O396 Co392 2.004 . S
O396 C401 1.259 . S
Co397 O398 2.061 . S
Co397 O403 2.052 . S
Co397 O405 2.135 . S
O398 Co397 2.061 . S
O398 C401 1.235 . S
C399 O402 1.238 . S
C399 O403 1.241 . S
C400 O393 1.247 . S
C400 O394 1.261 . S
C401 O396 1.259 . S
C401 O398 1.235 . S
O402 Co392 2.021 . S
O402 C399 1.238 . S
O403 Co397 2.052 . S
O403 C399 1.241 . S
O404 Co392 2.137 . S
O404 C395 1.247 . S
O405 Co392 2.244 . S
O405 C395 1.272 . S
O405 Co397 2.135 . S
Co406 O407 2.216 . S
Co406 O408 2.091 . S
Co406 O410 2.004 . S
Co406 O416 2.021 . S
Co406 O418 2.137 . S
Co406 O419 2.244 . S
O407 Co406 2.216 . S
O407 C414 1.247 . S
O408 Co406 2.091 . S
O408 C414 1.261 . S
C409 O418 1.247 . S
C409 O419 1.272 . S
O410 Co406 2.004 . S
O410 C415 1.259 . S
Co411 O412 2.061 . S
Co411 O417 2.052 . S
Co411 O419 2.135 . S
O412 Co411 2.061 . S
O412 C415 1.235 . S
C413 O416 1.238 . S
C413 O417 1.241 . S
C414 O407 1.247 . S
C414 O408 1.261 . S
C415 O410 1.259 . S
C415 O412 1.235 . S
O416 Co406 2.021 . S
O416 C413 1.238 . S
O417 Co411 2.052 . S
O417 C413 1.241 . S
O418 Co406 2.137 . S
O418 C409 1.247 . S
O419 Co406 2.244 . S
O419 C409 1.272 . S
O419 Co411 2.135 . S
Co420 O421 2.216 . S
Co420 O422 2.091 . S
Co420 O424 2.004 . S
Co420 O430 2.021 . S
Co420 O432 2.137 . S
Co420 O433 2.244 . S
O421 Co420 2.216 . S
O421 C428 1.247 . S
O422 Co420 2.091 . S
O422 C428 1.261 . S
C423 O432 1.247 . S
C423 O433 1.272 . S
O424 Co420 2.004 . S
O424 C429 1.259 . S
Co425 O426 2.061 . S
Co425 O431 2.052 . S
Co425 O433 2.135 . S
O426 Co425 2.061 . S
O426 C429 1.235 . S
C427 O430 1.238 . S
C427 O431 1.241 . S
C428 O421 1.247 . S
C428 O422 1.261 . S
C429 O424 1.259 . S
C429 O426 1.235 . S
O430 Co420 2.021 . S
O430 C427 1.238 . S
O431 Co425 2.052 . S
O431 C427 1.241 . S
O432 Co420 2.137 . S
O432 C423 1.247 . S
O433 Co420 2.244 . S
O433 C423 1.272 . S
O433 Co425 2.135 . S
Co434 O435 2.216 . S
Co434 O436 2.091 . S
Co434 O438 2.004 . S
Co434 O444 2.021 . S
Co434 O446 2.137 . S
Co434 O447 2.244 . S
O435 Co434 2.216 . S
O435 C442 1.247 . S
O436 Co434 2.091 . S
O436 C442 1.261 . S
C437 O446 1.247 . S
C437 O447 1.272 . S
O438 Co434 2.004 . S
O438 C443 1.259 . S
Co439 O440 2.061 . S
Co439 O445 2.052 . S
Co439 O447 2.135 . S
O440 Co439 2.061 . S
O440 C443 1.235 . S
C441 O444 1.238 . S
C441 O445 1.241 . S
C442 O435 1.247 . S
C442 O436 1.261 . S
C443 O438 1.259 . S
C443 O440 1.235 . S
O444 Co434 2.021 . S
O444 C441 1.238 . S
O445 Co439 2.052 . S
O445 C441 1.241 . S
O446 Co434 2.137 . S
O446 C437 1.247 . S
O447 Co434 2.244 . S
O447 C437 1.272 . S
O447 Co439 2.135 . S
Co448 O449 2.216 . S
Co448 O450 2.091 . S
Co448 O452 2.004 . S
Co448 O458 2.021 . S
Co448 O460 2.137 . S
Co448 O461 2.244 . S
O449 Co448 2.216 . S
O449 C456 1.247 . S
O450 Co448 2.091 . S
O450 C456 1.261 . S
C451 O460 1.247 . S
C451 O461 1.272 . S
O452 Co448 2.004 . S
O452 C457 1.259 . S
Co453 O454 2.061 . S
Co453 O459 2.052 . S
Co453 O461 2.135 . S
O454 Co453 2.061 . S
O454 C457 1.235 . S
C455 O458 1.238 . S
C455 O459 1.241 . S
C456 O449 1.247 . S
C456 O450 1.261 . S
C457 O452 1.259 . S
C457 O454 1.235 . S
O458 Co448 2.021 . S
O458 C455 1.238 . S
O459 Co453 2.052 . S
O459 C455 1.241 . S
O460 Co448 2.137 . S
O460 C451 1.247 . S
O461 Co448 2.244 . S
O461 C451 1.272 . S
O461 Co453 2.135 . S
Co462 O463 2.216 . S
Co462 O464 2.091 . S
Co462 O466 2.004 . S
Co462 O472 2.021 . S
Co462 O474 2.137 . S
Co462 O475 2.244 . S
O463 Co462 2.216 . S
O463 C470 1.247 . S
O464 Co462 2.091 . S
O464 C470 1.261 . S
C465 O474 1.247 . S
C465 O475 1.272 . S
O466 Co462 2.004 . S
O466 C471 1.259 . S
Co467 O468 2.061 . S
Co467 O473 2.052 . S
Co467 O475 2.135 . S
O468 Co467 2.061 . S
O468 C471 1.235 . S
C469 O472 1.238 . S
C469 O473 1.241 . S
C470 O463 1.247 . S
C470 O464 1.261 . S
C471 O466 1.259 . S
C471 O468 1.235 . S
O472 Co462 2.021 . S
O472 C469 1.238 . S
O473 Co467 2.052 . S
O473 C469 1.241 . S
O474 Co462 2.137 . S
O474 C465 1.247 . S
O475 Co462 2.244 . S
O475 C465 1.272 . S
O475 Co467 2.135 . S
Co476 O477 2.216 . S
Co476 O478 2.091 . S
Co476 O480 2.004 . S
Co476 O486 2.021 . S
Co476 O488 2.137 . S
Co476 O489 2.244 . S
O477 Co476 2.216 . S
O477 C484 1.247 . S
O478 Co476 2.091 . S
O478 C484 1.261 . S
C479 O488 1.247 . S
C479 O489 1.272 . S
O480 Co476 2.004 . S
O480 C485 1.259 . S
Co481 O482 2.061 . S
Co481 O487 2.052 . S
Co481 O489 2.135 . S
O482 Co481 2.061 . S
O482 C485 1.235 . S
C483 O486 1.238 . S
C483 O487 1.241 . S
C484 O477 1.247 . S
C484 O478 1.261 . S
C485 O480 1.259 . S
C485 O482 1.235 . S
O486 Co476 2.021 . S
O486 C483 1.238 . S
O487 Co481 2.052 . S
O487 C483 1.241 . S
O488 Co476 2.137 . S
O488 C479 1.247 . S
O489 Co476 2.244 . S
O489 C479 1.272 . S
O489 Co481 2.135 . S
Co490 O491 2.216 . S
Co490 O492 2.091 . S
Co490 O494 2.004 . S
Co490 O500 2.021 . S
Co490 O502 2.137 . S
Co490 O503 2.244 . S
O491 Co490 2.216 . S
O491 C498 1.247 . S
O492 Co490 2.091 . S
O492 C498 1.261 . S
C493 O502 1.247 . S
C493 O503 1.272 . S
O494 Co490 2.004 . S
O494 C499 1.259 . S
Co495 O496 2.061 . S
Co495 O501 2.052 . S
Co495 O503 2.135 . S
O496 Co495 2.061 . S
O496 C499 1.235 . S
C497 O500 1.238 . S
C497 O501 1.241 . S
C498 O491 1.247 . S
C498 O492 1.261 . S
C499 O494 1.259 . S
C499 O496 1.235 . S
O500 Co490 2.021 . S
O500 C497 1.238 . S
O501 Co495 2.052 . S
O501 C497 1.241 . S
O502 Co490 2.137 . S
O502 C493 1.247 . S
O503 Co490 2.244 . S
O503 C493 1.272 . S
O503 Co495 2.135 . S
Co504 O505 2.216 . S
Co504 O506 2.091 . S
Co504 O508 2.004 . S
Co504 O514 2.021 . S
Co504 O516 2.137 . S
Co504 O517 2.244 . S
O505 Co504 2.216 . S
O505 C512 1.247 . S
O506 Co504 2.091 . S
O506 C512 1.261 . S
C507 O516 1.247 . S
C507 O517 1.272 . S
O508 Co504 2.004 . S
O508 C513 1.259 . S
Co509 O510 2.061 . S
Co509 O515 2.052 . S
Co509 O517 2.135 . S
O510 Co509 2.061 . S
O510 C513 1.235 . S
C511 O514 1.238 . S
C511 O515 1.241 . S
C512 O505 1.247 . S
C512 O506 1.261 . S
C513 O508 1.259 . S
C513 O510 1.235 . S
O514 Co504 2.021 . S
O514 C511 1.238 . S
O515 Co509 2.052 . S
O515 C511 1.241 . S
O516 Co504 2.137 . S
O516 C507 1.247 . S
O517 Co504 2.244 . S
O517 C507 1.272 . S
O517 Co509 2.135 . S
Co518 O519 2.216 . S
Co518 O520 2.091 . S
Co518 O522 2.004 . S
Co518 O528 2.021 . S
Co518 O530 2.137 . S
Co518 O531 2.244 . S
O519 Co518 2.216 . S
O519 C526 1.247 . S
O520 Co518 2.091 . S
O520 C526 1.261 . S
C521 O530 1.247 . S
C521 O531 1.272 . S
O522 Co518 2.004 . S
O522 C527 1.259 . S
Co523 O524 2.061 . S
Co523 O529 2.052 . S
Co523 O531 2.135 . S
O524 Co523 2.061 . S
O524 C527 1.235 . S
C525 O528 1.238 . S
C525 O529 1.241 . S
C526 O519 1.247 . S
C526 O520 1.261 . S
C527 O522 1.259 . S
C527 O524 1.235 . S
O528 Co518 2.021 . S
O528 C525 1.238 . S
O529 Co523 2.052 . S
O529 C525 1.241 . S
O530 Co518 2.137 . S
O530 C521 1.247 . S
O531 Co518 2.244 . S
O531 C521 1.272 . S
O531 Co523 2.135 . S
Co532 O533 2.216 . S
Co532 O534 2.091 . S
Co532 O536 2.004 . S
Co532 O542 2.021 . S
Co532 O544 2.137 . S
Co532 O545 2.244 . S
O533 Co532 2.216 . S
O533 C540 1.247 . S
O534 Co532 2.091 . S
O534 C540 1.261 . S
C535 O544 1.247 . S
C535 O545 1.272 . S
O536 Co532 2.004 . S
O536 C541 1.259 . S
Co537 O538 2.061 . S
Co537 O543 2.052 . S
Co537 O545 2.135 . S
O538 Co537 2.061 . S
O538 C541 1.235 . S
C539 O542 1.238 . S
C539 O543 1.241 . S
C540 O533 1.247 . S
C540 O534 1.261 . S
C541 O536 1.259 . S
C541 O538 1.235 . S
O542 Co532 2.021 . S
O542 C539 1.238 . S
O543 Co537 2.052 . S
O543 C539 1.241 . S
O544 Co532 2.137 . S
O544 C535 1.247 . S
O545 Co532 2.244 . S
O545 C535 1.272 . S
O545 Co537 2.135 . S
Co546 O547 2.216 . S
Co546 O548 2.091 . S
Co546 O550 2.004 . S
Co546 O556 2.021 . S
Co546 O558 2.137 . S
Co546 O559 2.244 . S
O547 Co546 2.216 . S
O547 C554 1.247 . S
O548 Co546 2.091 . S
O548 C554 1.261 . S
C549 O558 1.247 . S
C549 O559 1.272 . S
O550 Co546 2.004 . S
O550 C555 1.259 . S
Co551 O552 2.061 . S
Co551 O557 2.052 . S
Co551 O559 2.135 . S
O552 Co551 2.061 . S
O552 C555 1.235 . S
C553 O556 1.238 . S
C553 O557 1.241 . S
C554 O547 1.247 . S
C554 O548 1.261 . S
C555 O550 1.259 . S
C555 O552 1.235 . S
O556 Co546 2.021 . S
O556 C553 1.238 . S
O557 Co551 2.052 . S
O557 C553 1.241 . S
O558 Co546 2.137 . S
O558 C549 1.247 . S
O559 Co546 2.244 . S
O559 C549 1.272 . S
O559 Co551 2.135 . S
Co560 O561 2.216 . S
Co560 O562 2.091 . S
Co560 O564 2.004 . S
Co560 O570 2.021 . S
Co560 O572 2.137 . S
Co560 O573 2.244 . S
O561 Co560 2.216 . S
O561 C568 1.247 . S
O562 Co560 2.091 . S
O562 C568 1.261 . S
C563 O572 1.247 . S
C563 O573 1.272 . S
O564 Co560 2.004 . S
O564 C569 1.259 . S
Co565 O566 2.061 . S
Co565 O571 2.052 . S
Co565 O573 2.135 . S
O566 Co565 2.061 . S
O566 C569 1.235 . S
C567 O570 1.238 . S
C567 O571 1.241 . S
C568 O561 1.247 . S
C568 O562 1.261 . S
C569 O564 1.259 . S
C569 O566 1.235 . S
O570 Co560 2.021 . S
O570 C567 1.238 . S
O571 Co565 2.052 . S
O571 C567 1.241 . S
O572 Co560 2.137 . S
O572 C563 1.247 . S
O573 Co560 2.244 . S
O573 C563 1.272 . S
O573 Co565 2.135 . S
Co574 O575 2.216 . S
Co574 O576 2.091 . S
Co574 O578 2.004 . S
Co574 O584 2.021 . S
Co574 O586 2.137 . S
Co574 O587 2.244 . S
O575 Co574 2.216 . S
O575 C582 1.247 . S
O576 Co574 2.091 . S
O576 C582 1.261 . S
C577 O586 1.247 . S
C577 O587 1.272 . S
O578 Co574 2.004 . S
O578 C583 1.259 . S
Co579 O580 2.061 . S
Co579 O585 2.052 . S
Co579 O587 2.135 . S
O580 Co579 2.061 . S
O580 C583 1.235 . S
C581 O584 1.238 . S
C581 O585 1.241 . S
C582 O575 1.247 . S
C582 O576 1.261 . S
C583 O578 1.259 . S
C583 O580 1.235 . S
O584 Co574 2.021 . S
O584 C581 1.238 . S
O585 Co579 2.052 . S
O585 C581 1.241 . S
O586 Co574 2.137 . S
O586 C577 1.247 . S
O587 Co574 2.244 . S
O587 C577 1.272 . S
O587 Co579 2.135 . S
Co588 O589 2.216 . S
Co588 O590 2.091 . S
Co588 O592 2.004 . S
Co588 O598 2.021 . S
Co588 O600 2.137 . S
Co588 O601 2.244 . S
O589 Co588 2.216 . S
O589 C596 1.247 . S
O590 Co588 2.091 . S
O590 C596 1.261 . S
C591 O600 1.247 . S
C591 O601 1.272 . S
O592 Co588 2.004 . S
O592 C597 1.259 . S
Co593 O594 2.061 . S
Co593 O599 2.052 . S
Co593 O601 2.135 . S
O594 Co593 2.061 . S
O594 C597 1.235 . S
C595 O598 1.238 . S
C595 O599 1.241 . S
C596 O589 1.247 . S
C596 O590 1.261 . S
C597 O592 1.259 . S
C597 O594 1.235 . S
O598 Co588 2.021 . S
O598 C595 1.238 . S
O599 Co593 2.052 . S
O599 C595 1.241 . S
O600 Co588 2.137 . S
O600 C591 1.247 . S
O601 Co588 2.244 . S
O601 C591 1.272 . S
O601 Co593 2.135 . S
Co602 O603 2.216 . S
Co602 O604 2.091 . S
Co602 O606 2.004 . S
Co602 O612 2.021 . S
Co602 O614 2.137 . S
Co602 O615 2.244 . S
O603 Co602 2.216 . S
O603 C610 1.247 . S
O604 Co602 2.091 . S
O604 C610 1.261 . S
C605 O614 1.247 . S
C605 O615 1.272 . S
O606 Co602 2.004 . S
O606 C611 1.259 . S
Co607 O608 2.061 . S
Co607 O613 2.052 . S
Co607 O615 2.135 . S
O608 Co607 2.061 . S
O608 C611 1.235 . S
C609 O612 1.238 . S
C609 O613 1.241 . S
C610 O603 1.247 . S
C610 O604 1.261 . S
C611 O606 1.259 . S
C611 O608 1.235 . S
O612 Co602 2.021 . S
O612 C609 1.238 . S
O613 Co607 2.052 . S
O613 C609 1.241 . S
O614 Co602 2.137 . S
O614 C605 1.247 . S
O615 Co602 2.244 . S
O615 C605 1.272 . S
O615 Co607 2.135 . S
Co616 O617 2.216 . S
Co616 O618 2.091 . S
Co616 O620 2.004 . S
Co616 O626 2.021 . S
Co616 O628 2.137 . S
Co616 O629 2.244 . S
O617 Co616 2.216 . S
O617 C624 1.247 . S
O618 Co616 2.091 . S
O618 C624 1.261 . S
C619 O628 1.247 . S
C619 O629 1.272 . S
O620 Co616 2.004 . S
O620 C625 1.259 . S
Co621 O622 2.061 . S
Co621 O627 2.052 . S
Co621 O629 2.135 . S
O622 Co621 2.061 . S
O622 C625 1.235 . S
C623 O626 1.238 . S
C623 O627 1.241 . S
C624 O617 1.247 . S
C624 O618 1.261 . S
C625 O620 1.259 . S
C625 O622 1.235 . S
O626 Co616 2.021 . S
O626 C623 1.238 . S
O627 Co621 2.052 . S
O627 C623 1.241 . S
O628 Co616 2.137 . S
O628 C619 1.247 . S
O629 Co616 2.244 . S
O629 C619 1.272 . S
O629 Co621 2.135 . S
Co630 O631 2.216 . S
Co630 O632 2.091 . S
Co630 O634 2.004 . S
Co630 O640 2.021 . S
Co630 O642 2.137 . S
Co630 O643 2.244 . S
O631 Co630 2.216 . S
O631 C638 1.247 . S
O632 Co630 2.091 . S
O632 C638 1.261 . S
C633 O642 1.247 . S
C633 O643 1.272 . S
O634 Co630 2.004 . S
O634 C639 1.259 . S
Co635 O636 2.061 . S
Co635 O641 2.052 . S
Co635 O643 2.135 . S
O636 Co635 2.061 . S
O636 C639 1.235 . S
C637 O640 1.238 . S
C637 O641 1.241 . S
C638 O631 1.247 . S
C638 O632 1.261 . S
C639 O634 1.259 . S
C639 O636 1.235 . S
O640 Co630 2.021 . S
O640 C637 1.238 . S
O641 Co635 2.052 . S
O641 C637 1.241 . S
O642 Co630 2.137 . S
O642 C633 1.247 . S
O643 Co630 2.244 . S
O643 C633 1.272 . S
O643 Co635 2.135 . S
Co644 O645 2.216 . S
Co644 O646 2.091 . S
Co644 O648 2.004 . S
Co644 O654 2.021 . S
Co644 O656 2.137 . S
Co644 O657 2.244 . S
O645 Co644 2.216 . S
O645 C652 1.247 . S
O646 Co644 2.091 . S
O646 C652 1.261 . S
C647 O656 1.247 . S
C647 O657 1.272 . S
O648 Co644 2.004 . S
O648 C653 1.259 . S
Co649 O650 2.061 . S
Co649 O655 2.052 . S
Co649 O657 2.135 . S
O650 Co649 2.061 . S
O650 C653 1.235 . S
C651 O654 1.238 . S
C651 O655 1.241 . S
C652 O645 1.247 . S
C652 O646 1.261 . S
C653 O648 1.259 . S
C653 O650 1.235 . S
O654 Co644 2.021 . S
O654 C651 1.238 . S
O655 Co649 2.052 . S
O655 C651 1.241 . S
O656 Co644 2.137 . S
O656 C647 1.247 . S
O657 Co644 2.244 . S
O657 C647 1.272 . S
O657 Co649 2.135 . S
Co658 O659 2.216 . S
Co658 O660 2.091 . S
Co658 O662 2.004 . S
Co658 O668 2.021 . S
Co658 O670 2.137 . S
Co658 O671 2.244 . S
O659 Co658 2.216 . S
O659 C666 1.247 . S
O660 Co658 2.091 . S
O660 C666 1.261 . S
C661 O670 1.247 . S
C661 O671 1.272 . S
O662 Co658 2.004 . S
O662 C667 1.259 . S
Co663 O664 2.061 . S
Co663 O669 2.052 . S
Co663 O671 2.135 . S
O664 Co663 2.061 . S
O664 C667 1.235 . S
C665 O668 1.238 . S
C665 O669 1.241 . S
C666 O659 1.247 . S
C666 O660 1.261 . S
C667 O662 1.259 . S
C667 O664 1.235 . S
O668 Co658 2.021 . S
O668 C665 1.238 . S
O669 Co663 2.052 . S
O669 C665 1.241 . S
O670 Co658 2.137 . S
O670 C661 1.247 . S
O671 Co658 2.244 . S
O671 C661 1.272 . S
O671 Co663 2.135 . S
H672 C678 0.930 . S
H673 C681 0.930 . S
H674 C682 0.930 . S
H675 C683 0.930 . S
H676 C686 0.930 . S
H677 C687 0.930 . S
C678 H672 0.930 . S
C678 C679 1.355 . S
C678 C680 1.415 . S
C679 C678 1.355 . S
C679 C681 1.419 . S
C680 C678 1.415 . S
C680 C685 1.425 . S
C680 C687 1.409 . S
C681 H673 0.930 . S
C681 C679 1.419 . S
C681 C682 1.362 . S
C682 H674 0.930 . S
C682 C681 1.362 . S
C682 C685 1.409 . S
C683 H675 0.930 . S
C683 C684 1.355 . S
C683 C685 1.415 . S
C684 C683 1.355 . S
C684 C686 1.419 . S
C685 C680 1.425 . S
C685 C682 1.409 . S
C685 C683 1.415 . S
C686 H676 0.930 . S
C686 C684 1.419 . S
C686 C687 1.362 . S
C687 H677 0.930 . S
C687 C680 1.409 . S
C687 C686 1.362 . S
H688 C694 0.930 . S
H689 C697 0.930 . S
H690 C698 0.929 1_655 S
H691 C699 0.930 . S
H692 C702 0.930 . S
H693 C703 0.930 . S
C694 H688 0.930 . S
C694 C695 1.355 . S
C694 C696 1.415 1_455 S
C695 C694 1.355 . S
C695 C697 1.419 . S
C696 C694 1.415 1_655 S
C696 C701 1.425 . S
C696 C703 1.409 . S
C697 H689 0.930 . S
C697 C695 1.419 . S
C697 C698 1.375 . S
C698 H690 0.929 1_455 S
C698 C697 1.375 . S
C698 C701 1.398 1_455 S
C699 H691 0.930 . S
C699 C700 1.355 . S
C699 C701 1.415 . S
C700 C699 1.355 . S
C700 C702 1.419 . S
C701 C696 1.425 . S
C701 C698 1.398 1_655 S
C701 C699 1.415 . S
C702 H692 0.930 . S
C702 C700 1.419 . S
C702 C703 1.362 . S
C703 H693 0.930 . S
C703 C696 1.409 . S
C703 C702 1.362 . S
H704 C710 0.930 . S
H705 C713 0.930 . S
H706 C714 0.930 . S
H707 C715 0.930 . S
H708 C718 0.930 . S
H709 C719 0.930 . S
C710 H704 0.930 . S
C710 C711 1.355 . S
C710 C712 1.415 . S
C711 C710 1.355 . S
C711 C713 1.419 . S
C712 C710 1.415 . S
C712 C717 1.425 . S
C712 C719 1.409 . S
C713 H705 0.930 . S
C713 C711 1.419 . S
C713 C714 1.362 . S
C714 H706 0.930 . S
C714 C713 1.362 . S
C714 C717 1.409 . S
C715 H707 0.930 . S
C715 C716 1.355 . S
C715 C717 1.415 . S
C716 C715 1.355 . S
C716 C718 1.419 . S
C717 C712 1.425 . S
C717 C714 1.409 . S
C717 C715 1.415 . S
C718 H708 0.930 . S
C718 C716 1.419 . S
C718 C719 1.362 . S
C719 H709 0.930 . S
C719 C712 1.409 . S
C719 C718 1.362 . S
H720 C726 0.930 . S
H721 C729 0.930 . S
H722 C730 0.930 . S
H723 C731 0.930 . S
H724 C734 0.930 . S
H725 C735 0.930 . S
C726 H720 0.930 . S
C726 C727 1.355 . S
C726 C728 1.415 . S
C727 C726 1.355 . S
C727 C729 1.419 . S
C728 C726 1.415 . S
C728 C733 1.425 . S
C728 C735 1.409 . S
C729 H721 0.930 . S
C729 C727 1.419 . S
C729 C730 1.362 . S
C730 H722 0.930 . S
C730 C729 1.362 . S
C730 C733 1.409 . S
C731 H723 0.930 . S
C731 C732 1.355 . S
C731 C733 1.415 . S
C732 C731 1.355 . S
C732 C734 1.419 . S
C733 C728 1.425 . S
C733 C730 1.409 . S
C733 C731 1.415 . S
C734 H724 0.930 . S
C734 C732 1.419 . S
C734 C735 1.362 . S
C735 H725 0.930 . S
C735 C728 1.409 . S
C735 C734 1.362 . S
H736 C742 0.930 . S
H737 C745 0.930 . S
H738 C746 0.930 . S
H739 C747 0.930 . S
H740 C750 0.930 . S
H741 C751 0.930 . S
C742 H736 0.930 . S
C742 C743 1.355 . S
C742 C744 1.415 . S
C743 C742 1.355 . S
C743 C745 1.419 . S
C744 C742 1.415 . S
C744 C749 1.425 . S
C744 C751 1.409 . S
C745 H737 0.930 . S
C745 C743 1.419 . S
C745 C746 1.362 . S
C746 H738 0.930 . S
C746 C745 1.362 . S
C746 C749 1.409 . S
C747 H739 0.930 . S
C747 C748 1.355 . S
C747 C749 1.415 . S
C748 C747 1.355 . S
C748 C750 1.419 . S
C749 C744 1.425 . S
C749 C746 1.409 . S
C749 C747 1.415 . S
C750 H740 0.930 . S
C750 C748 1.419 . S
C750 C751 1.362 . S
C751 H741 0.930 . S
C751 C744 1.409 . S
C751 C750 1.362 . S
H752 C758 0.930 . S
H753 C761 0.930 . S
H754 C762 0.930 . S
H755 C763 0.930 . S
H756 C766 0.930 . S
H757 C767 0.930 . S
C758 H752 0.930 . S
C758 C759 1.355 . S
C758 C760 1.415 . S
C759 C758 1.355 . S
C759 C761 1.419 . S
C760 C758 1.415 . S
C760 C765 1.425 . S
C760 C767 1.409 . S
C761 H753 0.930 . S
C761 C759 1.419 . S
C761 C762 1.362 . S
C762 H754 0.930 . S
C762 C761 1.362 . S
C762 C765 1.409 . S
C763 H755 0.930 . S
C763 C764 1.355 . S
C763 C765 1.415 . S
C764 C763 1.355 . S
C764 C766 1.419 . S
C765 C760 1.425 . S
C765 C762 1.409 . S
C765 C763 1.415 . S
C766 H756 0.930 . S
C766 C764 1.419 . S
C766 C767 1.362 . S
C767 H757 0.930 . S
C767 C760 1.409 . S
C767 C766 1.362 . S
H768 C774 0.930 . S
H769 C777 0.930 . S
H770 C778 0.930 . S
H771 C779 0.930 . S
H772 C782 0.930 . S
H773 C783 0.930 . S
C774 H768 0.930 . S
C774 C775 1.355 . S
C774 C776 1.415 . S
C775 C774 1.355 . S
C775 C777 1.419 . S
C776 C774 1.415 . S
C776 C781 1.425 . S
C776 C783 1.409 . S
C777 H769 0.930 . S
C777 C775 1.419 . S
C777 C778 1.362 . S
C778 H770 0.930 . S
C778 C777 1.362 . S
C778 C781 1.409 . S
C779 H771 0.930 . S
C779 C780 1.355 . S
C779 C781 1.415 . S
C780 C779 1.355 . S
C780 C782 1.419 . S
C781 C776 1.425 . S
C781 C778 1.409 . S
C781 C779 1.415 . S
C782 H772 0.930 . S
C782 C780 1.419 . S
C782 C783 1.362 . S
C783 H773 0.930 . S
C783 C776 1.409 . S
C783 C782 1.362 . S
H784 C790 0.930 . S
H785 C793 0.930 . S
H786 C794 0.930 . S
H787 C795 0.930 . S
H788 C798 0.930 . S
H789 C799 0.930 . S
C790 H784 0.930 . S
C790 C791 1.355 . S
C790 C792 1.415 1_455 S
C791 C790 1.355 . S
C791 C793 1.419 . S
C792 C790 1.415 1_655 S
C792 C797 1.425 . S
C792 C799 1.409 . S
C793 H785 0.930 . S
C793 C791 1.419 . S
C793 C794 1.362 1_455 S
C794 H786 0.930 . S
C794 C793 1.362 1_655 S
C794 C797 1.409 . S
C795 H787 0.930 . S
C795 C796 1.355 . S
C795 C797 1.415 . S
C796 C795 1.355 . S
C796 C798 1.419 . S
C797 C792 1.425 . S
C797 C794 1.409 . S
C797 C795 1.415 . S
C798 H788 0.930 . S
C798 C796 1.419 . S
C798 C799 1.362 . S
C799 H789 0.930 . S
C799 C792 1.409 . S
C799 C798 1.362 . S
H800 C806 0.930 . S
H801 C809 0.930 . S
H802 C810 0.930 . S
H803 C811 0.930 . S
H804 C814 0.930 . S
H805 C815 0.930 . S
C806 H800 0.930 . S
C806 C807 1.355 . S
C806 C808 1.415 . S
C807 C806 1.355 . S
C807 C809 1.419 . S
C808 C806 1.415 . S
C808 C813 1.425 . S
C808 C815 1.409 . S
C809 H801 0.930 . S
C809 C807 1.419 . S
C809 C810 1.362 . S
C810 H802 0.930 . S
C810 C809 1.362 . S
C810 C813 1.409 . S
C811 H803 0.930 . S
C811 C812 1.355 . S
C811 C813 1.415 . S
C812 C811 1.355 . S
C812 C814 1.419 . S
C813 C808 1.425 . S
C813 C810 1.409 . S
C813 C811 1.415 . S
C814 H804 0.930 . S
C814 C812 1.419 . S
C814 C815 1.362 . S
C815 H805 0.930 . S
C815 C808 1.409 . S
C815 C814 1.362 . S
H816 C822 0.930 . S
H817 C825 0.930 . S
H818 C826 0.930 . S
H819 C827 0.930 . S
H820 C830 0.930 . S
H821 C831 0.930 . S
C822 H816 0.930 . S
C822 C823 1.355 . S
C822 C824 1.415 . S
C823 C822 1.355 . S
C823 C825 1.419 . S
C824 C822 1.415 . S
C824 C829 1.425 . S
C824 C831 1.409 . S
C825 H817 0.930 . S
C825 C823 1.419 . S
C825 C826 1.362 . S
C826 H818 0.930 . S
C826 C825 1.362 . S
C826 C829 1.409 . S
C827 H819 0.930 . S
C827 C828 1.355 . S
C827 C829 1.415 . S
C828 C827 1.355 . S
C828 C830 1.419 . S
C829 C824 1.425 . S
C829 C826 1.409 . S
C829 C827 1.415 . S
C830 H820 0.930 . S
C830 C828 1.419 . S
C830 C831 1.362 . S
C831 H821 0.930 . S
C831 C824 1.409 . S
C831 C830 1.362 . S
H832 C838 0.930 . S
H833 C841 0.930 . S
H834 C842 0.930 . S
H835 C843 0.930 . S
H836 C846 0.930 . S
H837 C847 0.930 . S
C838 H832 0.930 . S
C838 C839 1.355 . S
C838 C840 1.415 . S
C839 C838 1.355 . S
C839 C841 1.419 . S
C840 C838 1.415 . S
C840 C845 1.425 . S
C840 C847 1.409 . S
C841 H833 0.930 . S
C841 C839 1.419 . S
C841 C842 1.362 . S
C842 H834 0.930 . S
C842 C841 1.362 . S
C842 C845 1.409 . S
C843 H835 0.930 . S
C843 C844 1.355 . S
C843 C845 1.415 . S
C844 C843 1.355 . S
C844 C846 1.419 . S
C845 C840 1.425 . S
C845 C842 1.409 . S
C845 C843 1.415 . S
C846 H836 0.930 . S
C846 C844 1.419 . S
C846 C847 1.362 . S
C847 H837 0.930 . S
C847 C840 1.409 . S
C847 C846 1.362 . S
H848 C854 0.930 . S
H849 C857 0.930 . S
H850 C858 0.930 . S
H851 C859 0.930 . S
H852 C862 0.930 . S
H853 C863 0.930 . S
C854 H848 0.930 . S
C854 C855 1.355 . S
C854 C856 1.415 1_556 S
C855 C854 1.355 . S
C855 C857 1.419 . S
C856 C854 1.415 1_554 S
C856 C861 1.425 . S
C856 C863 1.409 . S
C857 H849 0.930 . S
C857 C855 1.419 . S
C857 C858 1.362 1_556 S
C858 H850 0.930 . S
C858 C857 1.362 1_554 S
C858 C861 1.409 . S
C859 H851 0.930 . S
C859 C860 1.355 . S
C859 C861 1.415 . S
C860 C859 1.355 . S
C860 C862 1.419 . S
C861 C856 1.425 . S
C861 C858 1.409 . S
C861 C859 1.415 . S
C862 H852 0.930 . S
C862 C860 1.419 . S
C862 C863 1.362 . S
C863 H853 0.930 . S
C863 C856 1.409 . S
C863 C862 1.362 . S
H864 C870 0.930 . S
H865 C873 0.930 . S
H866 C874 0.930 . S
H867 C875 0.930 . S
H868 C878 0.930 . S
H869 C879 0.930 . S
C870 H864 0.930 . S
C870 C871 1.355 . S
C870 C872 1.415 . S
C871 C870 1.355 . S
C871 C873 1.419 . S
C872 C870 1.415 . S
C872 C877 1.425 . S
C872 C879 1.409 . S
C873 H865 0.930 . S
C873 C871 1.419 . S
C873 C874 1.362 . S
C874 H866 0.930 . S
C874 C873 1.362 . S
C874 C877 1.409 . S
C875 H867 0.930 . S
C875 C876 1.355 . S
C875 C877 1.415 . S
C876 C875 1.355 . S
C876 C878 1.419 . S
C877 C872 1.425 . S
C877 C874 1.409 . S
C877 C875 1.415 . S
C878 H868 0.930 . S
C878 C876 1.419 . S
C878 C879 1.362 . S
C879 H869 0.930 . S
C879 C872 1.409 . S
C879 C878 1.362 . S
H880 C886 0.930 . S
H881 C889 0.930 . S
H882 C890 0.930 . S
H883 C891 0.930 . S
H884 C894 0.930 . S
H885 C895 0.930 . S
C886 H880 0.930 . S
C886 C887 1.355 . S
C886 C888 1.415 . S
C887 C886 1.355 . S
C887 C889 1.419 . S
C888 C886 1.415 . S
C888 C893 1.425 . S
C888 C895 1.409 . S
C889 H881 0.930 . S
C889 C887 1.419 . S
C889 C890 1.362 . S
C890 H882 0.930 . S
C890 C889 1.362 . S
C890 C893 1.409 . S
C891 H883 0.930 . S
C891 C892 1.355 . S
C891 C893 1.415 . S
C892 C891 1.355 . S
C892 C894 1.419 . S
C893 C888 1.425 . S
C893 C890 1.409 . S
C893 C891 1.415 . S
C894 H884 0.930 . S
C894 C892 1.419 . S
C894 C895 1.362 . S
C895 H885 0.930 . S
C895 C888 1.409 . S
C895 C894 1.362 . S
H896 C902 0.930 . S
H897 C905 0.930 . S
H898 C906 0.930 . S
H899 C907 0.930 . S
H900 C910 0.930 . S
H901 C911 0.930 . S
C902 H896 0.930 . S
C902 C903 1.355 . S
C902 C904 1.415 . S
C903 C902 1.355 . S
C903 C905 1.419 . S
C904 C902 1.415 . S
C904 C909 1.425 . S
C904 C911 1.409 . S
C905 H897 0.930 . S
C905 C903 1.419 . S
C905 C906 1.362 . S
C906 H898 0.930 . S
C906 C905 1.362 . S
C906 C909 1.409 . S
C907 H899 0.930 . S
C907 C908 1.355 . S
C907 C909 1.415 . S
C908 C907 1.355 . S
C908 C910 1.419 . S
C909 C904 1.425 . S
C909 C906 1.409 . S
C909 C907 1.415 . S
C910 H900 0.930 . S
C910 C908 1.419 . S
C910 C911 1.362 . S
C911 H901 0.930 . S
C911 C904 1.409 . S
C911 C910 1.362 . S
H912 C918 0.930 . S
H913 C921 0.930 . S
H914 C922 0.930 . S
H915 C923 0.930 . S
H916 C926 0.930 . S
H917 C927 0.930 . S
C918 H912 0.930 . S
C918 C919 1.355 . S
C918 C920 1.415 1_554 S
C919 C918 1.355 . S
C919 C921 1.419 . S
C920 C918 1.415 1_556 S
C920 C925 1.425 . S
C920 C927 1.409 . S
C921 H913 0.930 . S
C921 C919 1.419 . S
C921 C922 1.362 1_554 S
C922 H914 0.930 . S
C922 C921 1.362 1_556 S
C922 C925 1.409 . S
C923 H915 0.930 . S
C923 C924 1.355 . S
C923 C925 1.415 . S
C924 C923 1.355 . S
C924 C926 1.419 . S
C925 C920 1.425 . S
C925 C922 1.409 . S
C925 C923 1.415 . S
C926 H916 0.930 . S
C926 C924 1.419 . S
C926 C927 1.362 . S
C927 H917 0.930 . S
C927 C920 1.409 . S
C927 C926 1.362 . S
H928 C934 0.930 . S
H929 C937 0.930 . S
H930 C938 0.930 . S
H931 C939 0.930 . S
H932 C942 0.930 . S
H933 C943 0.930 . S
C934 H928 0.930 . S
C934 C935 1.355 . S
C934 C936 1.415 . S
C935 C934 1.355 . S
C935 C937 1.419 . S
C936 C934 1.415 . S
C936 C941 1.425 . S
C936 C943 1.409 . S
C937 H929 0.930 . S
C937 C935 1.419 . S
C937 C938 1.362 . S
C938 H930 0.930 . S
C938 C937 1.362 . S
C938 C941 1.409 . S
C939 H931 0.930 . S
C939 C940 1.355 . S
C939 C941 1.415 . S
C940 C939 1.355 . S
C940 C942 1.419 . S
C941 C936 1.425 . S
C941 C938 1.409 . S
C941 C939 1.415 . S
C942 H932 0.930 . S
C942 C940 1.419 . S
C942 C943 1.362 . S
C943 H933 0.930 . S
C943 C936 1.409 . S
C943 C942 1.362 . S
H944 C950 0.930 . S
H945 C953 0.930 . S
H946 C954 0.930 . S
H947 C955 0.930 . S
H948 C958 0.930 . S
H949 C959 0.930 . S
C950 H944 0.930 . S
C950 C951 1.355 . S
C950 C952 1.415 . S
C951 C950 1.355 . S
C951 C953 1.419 . S
C952 C950 1.415 . S
C952 C957 1.425 . S
C952 C959 1.409 . S
C953 H945 0.930 . S
C953 C951 1.419 . S
C953 C954 1.362 . S
C954 H946 0.930 . S
C954 C953 1.362 . S
C954 C957 1.409 . S
C955 H947 0.930 . S
C955 C956 1.355 . S
C955 C957 1.415 . S
C956 C955 1.355 . S
C956 C958 1.419 . S
C957 C952 1.425 . S
C957 C954 1.409 . S
C957 C955 1.415 . S
C958 H948 0.930 . S
C958 C956 1.419 . S
C958 C959 1.362 . S
C959 H949 0.930 . S
C959 C952 1.409 . S
C959 C958 1.362 . S
H960 C966 0.930 . S
H961 C969 0.930 . S
H962 C970 0.930 . S
H963 C971 0.930 . S
H964 C974 0.930 . S
H965 C975 0.930 . S
C966 H960 0.930 . S
C966 C967 1.355 . S
C966 C968 1.415 . S
C967 C966 1.355 . S
C967 C969 1.419 . S
C968 C966 1.415 . S
C968 C973 1.425 . S
C968 C975 1.409 . S
C969 H961 0.930 . S
C969 C967 1.419 . S
C969 C970 1.362 . S
C970 H962 0.930 . S
C970 C969 1.362 . S
C970 C973 1.409 . S
C971 H963 0.930 . S
C971 C972 1.355 . S
C971 C973 1.415 . S
C972 C971 1.355 . S
C972 C974 1.419 . S
C973 C968 1.425 . S
C973 C970 1.409 . S
C973 C971 1.415 . S
C974 H964 0.930 . S
C974 C972 1.419 . S
C974 C975 1.362 . S
C975 H965 0.930 . S
C975 C968 1.409 . S
C975 C974 1.362 . S
H976 C982 0.930 . S
H977 C985 0.930 . S
H978 C986 0.930 . S
H979 C987 0.930 . S
H980 C990 0.930 . S
H981 C991 0.930 . S
C982 H976 0.930 . S
C982 C983 1.355 . S
C982 C984 1.415 . S
C983 C982 1.355 . S
C983 C985 1.419 . S
C984 C982 1.415 . S
C984 C989 1.425 . S
C984 C991 1.409 . S
C985 H977 0.930 . S
C985 C983 1.419 . S
C985 C986 1.362 . S
C986 H978 0.930 . S
C986 C985 1.362 . S
C986 C989 1.409 . S
C987 H979 0.930 . S
C987 C988 1.355 . S
C987 C989 1.415 . S
C988 C987 1.355 . S
C988 C990 1.419 . S
C989 C984 1.425 . S
C989 C986 1.409 . S
C989 C987 1.415 . S
C990 H980 0.930 . S
C990 C988 1.419 . S
C990 C991 1.362 . S
C991 H981 0.930 . S
C991 C984 1.409 . S
C991 C990 1.362 . S
H992 C998 0.930 . S
H993 C1001 0.930 . S
H994 C1002 0.930 . S
H995 C1003 0.930 . S
H996 C1006 0.930 . S
H997 C1007 0.930 . S
C998 H992 0.930 . S
C998 C999 1.355 . S
C998 C1000 1.415 . S
C999 C998 1.355 . S
C999 C1001 1.419 . S
C1000 C998 1.415 . S
C1000 C1005 1.425 . S
C1000 C1007 1.409 . S
C1001 H993 0.930 . S
C1001 C999 1.419 . S
C1001 C1002 1.362 . S
C1002 H994 0.930 . S
C1002 C1001 1.362 . S
C1002 C1005 1.409 . S
C1003 H995 0.930 . S
C1003 C1004 1.355 . S
C1003 C1005 1.415 1_545 S
C1004 C1003 1.355 . S
C1004 C1006 1.419 . S
C1005 C1000 1.425 . S
C1005 C1002 1.409 . S
C1005 C1003 1.415 1_565 S
C1006 H996 0.930 . S
C1006 C1004 1.419 . S
C1006 C1007 1.362 1_545 S
C1007 H997 0.930 . S
C1007 C1000 1.409 . S
C1007 C1006 1.362 1_565 S
H1008 C1014 0.930 . S
H1009 C1017 0.930 . S
H1010 C1018 0.930 . S
H1011 C1019 0.930 . S
H1012 C1022 0.930 . S
H1013 C1023 0.930 . S
C1014 H1008 0.930 . S
C1014 C1015 1.355 . S
C1014 C1016 1.415 . S
C1015 C1014 1.355 . S
C1015 C1017 1.419 . S
C1016 C1014 1.415 . S
C1016 C1021 1.425 . S
C1016 C1023 1.409 . S
C1017 H1009 0.930 . S
C1017 C1015 1.419 . S
C1017 C1018 1.362 . S
C1018 H1010 0.930 . S
C1018 C1017 1.362 . S
C1018 C1021 1.409 . S
C1019 H1011 0.930 . S
C1019 C1020 1.355 . S
C1019 C1021 1.415 . S
C1020 C1019 1.355 . S
C1020 C1022 1.419 . S
C1021 C1016 1.425 . S
C1021 C1018 1.409 . S
C1021 C1019 1.415 . S
C1022 H1012 0.930 . S
C1022 C1020 1.419 . S
C1022 C1023 1.362 . S
C1023 H1013 0.930 . S
C1023 C1016 1.409 . S
C1023 C1022 1.362 . S
H1024 C1030 0.930 . S
H1025 C1033 0.930 . S
H1026 C1034 0.930 . S
H1027 C1035 0.930 . S
H1028 C1038 0.930 . S
H1029 C1039 0.930 . S
C1030 H1024 0.930 . S
C1030 C1031 1.355 . S
C1030 C1032 1.415 . S
C1031 C1030 1.355 . S
C1031 C1033 1.419 . S
C1032 C1030 1.415 . S
C1032 C1037 1.425 . S
C1032 C1039 1.409 . S
C1033 H1025 0.930 . S
C1033 C1031 1.419 . S
C1033 C1034 1.362 . S
C1034 H1026 0.930 . S
C1034 C1033 1.362 . S
C1034 C1037 1.409 . S
C1035 H1027 0.930 . S
C1035 C1036 1.355 . S
C1035 C1037 1.415 . S
C1036 C1035 1.355 . S
C1036 C1038 1.419 . S
C1037 C1032 1.425 . S
C1037 C1034 1.409 . S
C1037 C1035 1.415 . S
C1038 H1028 0.930 . S
C1038 C1036 1.419 . S
C1038 C1039 1.362 . S
C1039 H1029 0.930 . S
C1039 C1032 1.409 . S
C1039 C1038 1.362 . S
H1040 C1046 0.930 . S
H1041 C1049 0.930 . S
H1042 C1050 0.930 . S
H1043 C1051 0.930 . S
H1044 C1054 0.930 . S
H1045 C1055 0.930 . S
C1046 H1040 0.930 . S
C1046 C1047 1.355 . S
C1046 C1048 1.415 . S
C1047 C1046 1.355 . S
C1047 C1049 1.419 . S
C1048 C1046 1.415 . S
C1048 C1053 1.425 . S
C1048 C1055 1.409 . S
C1049 H1041 0.930 . S
C1049 C1047 1.419 . S
C1049 C1050 1.362 . S
C1050 H1042 0.930 . S
C1050 C1049 1.362 . S
C1050 C1053 1.409 . S
C1051 H1043 0.930 . S
C1051 C1052 1.355 . S
C1051 C1053 1.415 . S
C1052 C1051 1.355 . S
C1052 C1054 1.419 . S
C1053 C1048 1.425 . S
C1053 C1050 1.409 . S
C1053 C1051 1.415 . S
C1054 H1044 0.930 . S
C1054 C1052 1.419 . S
C1054 C1055 1.362 . S
C1055 H1045 0.930 . S
C1055 C1048 1.409 . S
C1055 C1054 1.362 . S
H1056 C1062 0.930 . S
H1057 C1065 0.930 . S
H1058 C1066 0.930 . S
H1059 C1067 0.930 . S
H1060 C1070 0.930 . S
H1061 C1071 0.930 . S
C1062 H1056 0.930 . S
C1062 C1063 1.355 . S
C1062 C1064 1.415 . S
C1063 C1062 1.355 . S
C1063 C1065 1.419 . S
C1064 C1062 1.415 . S
C1064 C1069 1.425 . S
C1064 C1071 1.409 . S
C1065 H1057 0.930 . S
C1065 C1063 1.419 . S
C1065 C1066 1.362 . S
C1066 H1058 0.930 . S
C1066 C1065 1.362 . S
C1066 C1069 1.409 . S
C1067 H1059 0.930 . S
C1067 C1068 1.355 . S
C1067 C1069 1.415 . S
C1068 C1067 1.355 . S
C1068 C1070 1.419 . S
C1069 C1064 1.425 . S
C1069 C1066 1.409 . S
C1069 C1067 1.415 . S
C1070 H1060 0.930 . S
C1070 C1068 1.419 . S
C1070 C1071 1.362 . S
C1071 H1061 0.930 . S
C1071 C1064 1.409 . S
C1071 C1070 1.362 . S
H1072 C1078 0.930 . S
H1073 C1081 0.930 . S
H1074 C1082 0.930 . S
H1075 C1083 0.930 . S
H1076 C1086 0.930 . S
H1077 C1087 0.930 . S
C1078 H1072 0.930 . S
C1078 C1079 1.355 . S
C1078 C1080 1.415 1_655 S
C1079 C1078 1.355 . S
C1079 C1081 1.419 . S
C1080 C1078 1.415 1_455 S
C1080 C1085 1.425 . S
C1080 C1087 1.409 . S
C1081 H1073 0.930 . S
C1081 C1079 1.419 . S
C1081 C1082 1.362 1_655 S
C1082 H1074 0.930 . S
C1082 C1081 1.362 1_455 S
C1082 C1085 1.409 . S
C1083 H1075 0.930 . S
C1083 C1084 1.355 . S
C1083 C1085 1.415 . S
C1084 C1083 1.355 . S
C1084 C1086 1.419 . S
C1085 C1080 1.425 . S
C1085 C1082 1.409 . S
C1085 C1083 1.415 . S
C1086 H1076 0.930 . S
C1086 C1084 1.419 . S
C1086 C1087 1.362 . S
C1087 H1077 0.930 . S
C1087 C1080 1.409 . S
C1087 C1086 1.362 . S
H1088 C1094 0.930 . S
H1089 C1097 0.930 . S
H1090 C1098 0.930 . S
H1091 C1099 0.930 . S
H1092 C1102 0.930 . S
H1093 C1103 0.930 . S
C1094 H1088 0.930 . S
C1094 C1095 1.355 . S
C1094 C1096 1.415 . S
C1095 C1094 1.355 . S
C1095 C1097 1.419 . S
C1096 C1094 1.415 . S
C1096 C1101 1.425 . S
C1096 C1103 1.409 . S
C1097 H1089 0.930 . S
C1097 C1095 1.419 . S
C1097 C1098 1.362 . S
C1098 H1090 0.930 . S
C1098 C1097 1.362 . S
C1098 C1101 1.409 . S
C1099 H1091 0.930 . S
C1099 C1100 1.355 . S
C1099 C1101 1.415 . S
C1100 C1099 1.355 . S
C1100 C1102 1.419 . S
C1101 C1096 1.425 . S
C1101 C1098 1.409 . S
C1101 C1099 1.415 . S
C1102 H1092 0.930 . S
C1102 C1100 1.419 . S
C1102 C1103 1.362 . S
C1103 H1093 0.930 . S
C1103 C1096 1.409 . S
C1103 C1102 1.362 . S
H1104 C1110 0.930 . S
H1105 C1113 0.930 . S
H1106 C1114 0.930 . S
H1107 C1115 0.930 . S
H1108 C1118 0.930 . S
H1109 C1119 0.930 . S
C1110 H1104 0.930 . S
C1110 C1111 1.355 . S
C1110 C1112 1.415 . S
C1111 C1110 1.355 . S
C1111 C1113 1.419 . S
C1112 C1110 1.415 . S
C1112 C1117 1.425 . S
C1112 C1119 1.409 . S
C1113 H1105 0.930 . S
C1113 C1111 1.419 . S
C1113 C1114 1.362 . S
C1114 H1106 0.930 . S
C1114 C1113 1.362 . S
C1114 C1117 1.409 . S
C1115 H1107 0.930 . S
C1115 C1116 1.355 . S
C1115 C1117 1.415 . S
C1116 C1115 1.355 . S
C1116 C1118 1.419 . S
C1117 C1112 1.425 . S
C1117 C1114 1.409 . S
C1117 C1115 1.415 . S
C1118 H1108 0.930 . S
C1118 C1116 1.419 . S
C1118 C1119 1.362 . S
C1119 H1109 0.930 . S
C1119 C1112 1.409 . S
C1119 C1118 1.362 . S
H1120 C1126 0.930 . S
H1121 C1129 0.930 . S
H1122 C1130 0.930 . S
H1123 C1131 0.930 . S
H1124 C1134 0.930 . S
H1125 C1135 0.930 . S
C1126 H1120 0.930 . S
C1126 C1127 1.355 . S
C1126 C1128 1.415 . S
C1127 C1126 1.355 . S
C1127 C1129 1.419 . S
C1128 C1126 1.415 . S
C1128 C1133 1.425 . S
C1128 C1135 1.409 . S
C1129 H1121 0.930 . S
C1129 C1127 1.419 . S
C1129 C1130 1.362 . S
C1130 H1122 0.930 . S
C1130 C1129 1.362 . S
C1130 C1133 1.409 . S
C1131 H1123 0.930 . S
C1131 C1132 1.355 . S
C1131 C1133 1.415 . S
C1132 C1131 1.355 . S
C1132 C1134 1.419 . S
C1133 C1128 1.425 . S
C1133 C1130 1.409 . S
C1133 C1131 1.415 . S
C1134 H1124 0.930 . S
C1134 C1132 1.419 . S
C1134 C1135 1.362 . S
C1135 H1125 0.930 . S
C1135 C1128 1.409 . S
C1135 C1134 1.362 . S
H1136 C1142 0.930 . S
H1137 C1145 0.930 . S
H1138 C1146 0.930 . S
H1139 C1147 0.930 . S
H1140 C1150 0.930 . S
H1141 C1151 0.930 . S
C1142 H1136 0.930 . S
C1142 C1143 1.355 . S
C1142 C1144 1.415 . S
C1143 C1142 1.355 . S
C1143 C1145 1.419 . S
C1144 C1142 1.415 . S
C1144 C1149 1.425 . S
C1144 C1151 1.409 . S
C1145 H1137 0.930 . S
C1145 C1143 1.419 . S
C1145 C1146 1.362 . S
C1146 H1138 0.930 . S
C1146 C1145 1.362 . S
C1146 C1149 1.409 . S
C1147 H1139 0.930 . S
C1147 C1148 1.355 . S
C1147 C1149 1.415 . S
C1148 C1147 1.355 . S
C1148 C1150 1.419 . S
C1149 C1144 1.425 . S
C1149 C1146 1.409 . S
C1149 C1147 1.415 . S
C1150 H1140 0.930 . S
C1150 C1148 1.419 . S
C1150 C1151 1.362 . S
C1151 H1141 0.930 . S
C1151 C1144 1.409 . S
C1151 C1150 1.362 . S
H1152 C1158 0.930 . S
H1153 C1161 0.930 . S
H1154 C1162 0.930 . S
H1155 C1163 0.930 . S
H1156 C1166 0.930 . S
H1157 C1167 0.930 . S
C1158 H1152 0.930 . S
C1158 C1159 1.355 . S
C1158 C1160 1.415 . S
C1159 C1158 1.355 . S
C1159 C1161 1.419 . S
C1160 C1158 1.415 . S
C1160 C1165 1.425 . S
C1160 C1167 1.409 . S
C1161 H1153 0.930 . S
C1161 C1159 1.419 . S
C1161 C1162 1.362 . S
C1162 H1154 0.930 . S
C1162 C1161 1.362 . S
C1162 C1165 1.409 . S
C1163 H1155 0.930 . S
C1163 C1164 1.355 . S
C1163 C1165 1.415 . S
C1164 C1163 1.355 . S
C1164 C1166 1.419 . S
C1165 C1160 1.425 . S
C1165 C1162 1.409 . S
C1165 C1163 1.415 . S
C1166 H1156 0.930 . S
C1166 C1164 1.419 . S
C1166 C1167 1.362 . S
C1167 H1157 0.930 . S
C1167 C1160 1.409 . S
C1167 C1166 1.362 . S
H1168 C1174 0.930 . S
H1169 C1177 0.930 . S
H1170 C1178 0.930 . S
H1171 C1179 0.930 . S
H1172 C1182 0.930 . S
H1173 C1183 0.925 1_455 S
C1174 H1168 0.930 . S
C1174 C1175 1.355 . S
C1174 C1176 1.415 . S
C1175 C1174 1.355 . S
C1175 C1177 1.419 . S
C1176 C1174 1.415 . S
C1176 C1181 1.425 . S
C1176 C1183 1.382 1_455 S
C1177 H1169 0.930 . S
C1177 C1175 1.419 . S
C1177 C1178 1.362 . S
C1178 H1170 0.930 . S
C1178 C1177 1.362 . S
C1178 C1181 1.409 . S
C1179 H1171 0.930 . S
C1179 C1180 1.355 . S
C1179 C1181 1.415 1_655 S
C1180 C1179 1.355 . S
C1180 C1182 1.419 . S
C1181 C1176 1.425 . S
C1181 C1178 1.409 . S
C1181 C1179 1.415 1_455 S
C1182 H1172 0.930 . S
C1182 C1180 1.419 . S
C1182 C1183 1.395 . S
C1183 H1173 0.925 1_655 S
C1183 C1176 1.382 1_655 S
C1183 C1182 1.395 . S
H1184 C1190 0.930 . S
H1185 C1193 0.930 . S
H1186 C1194 0.930 . S
H1187 C1195 0.930 . S
H1188 C1198 0.930 . S
H1189 C1199 0.930 . S
C1190 H1184 0.930 . S
C1190 C1191 1.355 . S
C1190 C1192 1.415 . S
C1191 C1190 1.355 . S
C1191 C1193 1.419 . S
C1192 C1190 1.415 . S
C1192 C1197 1.425 . S
C1192 C1199 1.409 . S
C1193 H1185 0.930 . S
C1193 C1191 1.419 . S
C1193 C1194 1.362 . S
C1194 H1186 0.930 . S
C1194 C1193 1.362 . S
C1194 C1197 1.409 . S
C1195 H1187 0.930 . S
C1195 C1196 1.355 . S
C1195 C1197 1.415 . S
C1196 C1195 1.355 . S
C1196 C1198 1.419 . S
C1197 C1192 1.425 . S
C1197 C1194 1.409 . S
C1197 C1195 1.415 . S
C1198 H1188 0.930 . S
C1198 C1196 1.419 . S
C1198 C1199 1.362 . S
C1199 H1189 0.930 . S
C1199 C1192 1.409 . S
C1199 C1198 1.362 . S
H1200 C1206 0.930 . S
H1201 C1209 0.930 . S
H1202 C1210 0.930 . S
H1203 C1211 0.930 . S
H1204 C1214 0.930 . S
H1205 C1215 0.930 . S
C1206 H1200 0.930 . S
C1206 C1207 1.355 . S
C1206 C1208 1.415 . S
C1207 C1206 1.355 . S
C1207 C1209 1.419 . S
C1208 C1206 1.415 . S
C1208 C1213 1.425 . S
C1208 C1215 1.409 . S
C1209 H1201 0.930 . S
C1209 C1207 1.419 . S
C1209 C1210 1.362 . S
C1210 H1202 0.930 . S
C1210 C1209 1.362 . S
C1210 C1213 1.409 . S
C1211 H1203 0.930 . S
C1211 C1212 1.355 . S
C1211 C1213 1.415 . S
C1212 C1211 1.355 . S
C1212 C1214 1.419 . S
C1213 C1208 1.425 . S
C1213 C1210 1.409 . S
C1213 C1211 1.415 . S
C1214 H1204 0.930 . S
C1214 C1212 1.419 . S
C1214 C1215 1.362 . S
C1215 H1205 0.930 . S
C1215 C1208 1.409 . S
C1215 C1214 1.362 . S
H1216 C1222 0.930 . S
H1217 C1225 0.930 . S
H1218 C1226 0.930 . S
H1219 C1227 0.930 . S
H1220 C1230 0.930 . S
H1221 C1231 0.930 . S
C1222 H1216 0.930 . S
C1222 C1223 1.355 . S
C1222 C1224 1.415 . S
C1223 C1222 1.355 . S
C1223 C1225 1.419 . S
C1224 C1222 1.415 . S
C1224 C1229 1.425 . S
C1224 C1231 1.409 . S
C1225 H1217 0.930 . S
C1225 C1223 1.419 . S
C1225 C1226 1.362 . S
C1226 H1218 0.930 . S
C1226 C1225 1.362 . S
C1226 C1229 1.409 . S
C1227 H1219 0.930 . S
C1227 C1228 1.355 . S
C1227 C1229 1.415 . S
C1228 C1227 1.355 . S
C1228 C1230 1.419 . S
C1229 C1224 1.425 . S
C1229 C1226 1.409 . S
C1229 C1227 1.415 . S
C1230 H1220 0.930 . S
C1230 C1228 1.419 . S
C1230 C1231 1.362 . S
C1231 H1221 0.930 . S
C1231 C1224 1.409 . S
C1231 C1230 1.362 . S
H1232 C1238 0.930 . S
H1233 C1241 0.930 . S
H1234 C1242 0.930 . S
H1235 C1243 0.930 . S
H1236 C1246 0.930 . S
H1237 C1247 0.936 . S
C1238 H1232 0.930 . S
C1238 C1239 1.355 . S
C1238 C1240 1.415 . S
C1239 C1238 1.355 . S
C1239 C1241 1.419 . S
C1240 C1238 1.415 . S
C1240 C1245 1.425 . S
C1240 C1247 1.437 . S
C1241 H1233 0.930 . S
C1241 C1239 1.419 . S
C1241 C1242 1.362 . S
C1242 H1234 0.930 . S
C1242 C1241 1.362 . S
C1242 C1245 1.409 . S
C1243 H1235 0.930 . S
C1243 C1244 1.355 . S
C1243 C1245 1.415 1_554 S
C1244 C1243 1.355 . S
C1244 C1246 1.419 . S
C1245 C1240 1.425 . S
C1245 C1242 1.409 . S
C1245 C1243 1.415 1_556 S
C1246 H1236 0.930 . S
C1246 C1244 1.419 . S
C1246 C1247 1.329 1_554 S
C1247 H1237 0.936 . S
C1247 C1240 1.437 . S
C1247 C1246 1.329 1_556 S
H1248 C1254 0.930 . S
H1249 C1257 0.930 . S
H1250 C1258 0.930 . S
H1251 C1259 0.930 . S
H1252 C1262 0.930 . S
H1253 C1263 0.930 . S
C1254 H1248 0.930 . S
C1254 C1255 1.355 . S
C1254 C1256 1.415 . S
C1255 C1254 1.355 . S
C1255 C1257 1.419 . S
C1256 C1254 1.415 . S
C1256 C1261 1.425 . S
C1256 C1263 1.409 . S
C1257 H1249 0.930 . S
C1257 C1255 1.419 . S
C1257 C1258 1.362 . S
C1258 H1250 0.930 . S
C1258 C1257 1.362 . S
C1258 C1261 1.409 . S
C1259 H1251 0.930 . S
C1259 C1260 1.355 . S
C1259 C1261 1.415 . S
C1260 C1259 1.355 . S
C1260 C1262 1.419 . S
C1261 C1256 1.425 . S
C1261 C1258 1.409 . S
C1261 C1259 1.415 . S
C1262 H1252 0.930 . S
C1262 C1260 1.419 . S
C1262 C1263 1.362 . S
C1263 H1253 0.930 . S
C1263 C1256 1.409 . S
C1263 C1262 1.362 . S
H1264 C1270 0.930 . S
H1265 C1273 0.930 . S
H1266 C1274 0.930 . S
H1267 C1275 0.930 . S
H1268 C1278 0.930 . S
H1269 C1279 0.930 . S
C1270 H1264 0.930 . S
C1270 C1271 1.355 . S
C1270 C1272 1.415 . S
C1271 C1270 1.355 . S
C1271 C1273 1.419 . S
C1272 C1270 1.415 . S
C1272 C1277 1.425 . S
C1272 C1279 1.409 . S
C1273 H1265 0.930 . S
C1273 C1271 1.419 . S
C1273 C1274 1.362 . S
C1274 H1266 0.930 . S
C1274 C1273 1.362 . S
C1274 C1277 1.409 . S
C1275 H1267 0.930 . S
C1275 C1276 1.355 . S
C1275 C1277 1.415 . S
C1276 C1275 1.355 . S
C1276 C1278 1.419 . S
C1277 C1272 1.425 . S
C1277 C1274 1.409 . S
C1277 C1275 1.415 . S
C1278 H1268 0.930 . S
C1278 C1276 1.419 . S
C1278 C1279 1.362 . S
C1279 H1269 0.930 . S
C1279 C1272 1.409 . S
C1279 C1278 1.362 . S
H1280 C1286 0.930 . S
H1281 C1289 0.930 . S
H1282 C1290 0.930 . S
H1283 C1291 0.930 . S
H1284 C1294 0.930 . S
H1285 C1295 0.930 . S
C1286 H1280 0.930 . S
C1286 C1287 1.355 . S
C1286 C1288 1.415 . S
C1287 C1286 1.355 . S
C1287 C1289 1.419 . S
C1288 C1286 1.415 . S
C1288 C1293 1.425 . S
C1288 C1295 1.409 . S
C1289 H1281 0.930 . S
C1289 C1287 1.419 . S
C1289 C1290 1.362 . S
C1290 H1282 0.930 . S
C1290 C1289 1.362 . S
C1290 C1293 1.409 . S
C1291 H1283 0.930 . S
C1291 C1292 1.355 . S
C1291 C1293 1.415 . S
C1292 C1291 1.355 . S
C1292 C1294 1.419 . S
C1293 C1288 1.425 . S
C1293 C1290 1.409 . S
C1293 C1291 1.415 . S
C1294 H1284 0.930 . S
C1294 C1292 1.419 . S
C1294 C1295 1.362 . S
C1295 H1285 0.930 . S
C1295 C1288 1.409 . S
C1295 C1294 1.362 . S
H1296 C1302 0.930 . S
H1297 C1305 0.930 . S
H1298 C1306 0.930 . S
H1299 C1307 0.930 . S
H1300 C1310 0.930 . S
H1301 C1311 0.930 . S
C1302 H1296 0.930 . S
C1302 C1303 1.355 . S
C1302 C1304 1.415 1_556 S
C1303 C1302 1.355 . S
C1303 C1305 1.419 . S
C1304 C1302 1.415 1_554 S
C1304 C1309 1.425 . S
C1304 C1311 1.409 . S
C1305 H1297 0.930 . S
C1305 C1303 1.419 . S
C1305 C1306 1.362 1_556 S
C1306 H1298 0.930 . S
C1306 C1305 1.362 1_554 S
C1306 C1309 1.409 . S
C1307 H1299 0.930 . S
C1307 C1308 1.355 . S
C1307 C1309 1.415 . S
C1308 C1307 1.355 . S
C1308 C1310 1.419 . S
C1309 C1304 1.425 . S
C1309 C1306 1.409 . S
C1309 C1307 1.415 . S
C1310 H1300 0.930 . S
C1310 C1308 1.419 . S
C1310 C1311 1.362 . S
C1311 H1301 0.930 . S
C1311 C1304 1.409 . S
C1311 C1310 1.362 . S
H1312 C1318 0.930 . S
H1313 C1321 0.930 . S
H1314 C1322 0.930 . S
H1315 C1323 0.930 . S
H1316 C1326 0.930 . S
H1317 C1327 0.930 . S
C1318 H1312 0.930 . S
C1318 C1319 1.355 . S
C1318 C1320 1.415 . S
C1319 C1318 1.355 . S
C1319 C1321 1.419 . S
C1320 C1318 1.415 . S
C1320 C1325 1.425 . S
C1320 C1327 1.409 . S
C1321 H1313 0.930 . S
C1321 C1319 1.419 . S
C1321 C1322 1.362 . S
C1322 H1314 0.930 . S
C1322 C1321 1.362 . S
C1322 C1325 1.409 . S
C1323 H1315 0.930 . S
C1323 C1324 1.355 . S
C1323 C1325 1.415 . S
C1324 C1323 1.355 . S
C1324 C1326 1.419 . S
C1325 C1320 1.425 . S
C1325 C1322 1.409 . S
C1325 C1323 1.415 . S
C1326 H1316 0.930 . S
C1326 C1324 1.419 . S
C1326 C1327 1.362 . S
C1327 H1317 0.930 . S
C1327 C1320 1.409 . S
C1327 C1326 1.362 . S
H1328 C1334 0.930 . S
H1329 C1337 0.930 . S
H1330 C1338 0.930 . S
H1331 C1339 0.930 . S
H1332 C1342 0.930 . S
H1333 C1343 0.930 . S
C1334 H1328 0.930 . S
C1334 C1335 1.355 . S
C1334 C1336 1.415 . S
C1335 C1334 1.355 . S
C1335 C1337 1.419 . S
C1336 C1334 1.415 . S
C1336 C1341 1.425 . S
C1336 C1343 1.409 . S
C1337 H1329 0.930 . S
C1337 C1335 1.419 . S
C1337 C1338 1.362 . S
C1338 H1330 0.930 . S
C1338 C1337 1.362 . S
C1338 C1341 1.409 . S
C1339 H1331 0.930 . S
C1339 C1340 1.355 . S
C1339 C1341 1.415 . S
C1340 C1339 1.355 . S
C1340 C1342 1.419 . S
C1341 C1336 1.425 . S
C1341 C1338 1.409 . S
C1341 C1339 1.415 . S
C1342 H1332 0.930 . S
C1342 C1340 1.419 . S
C1342 C1343 1.362 . S
C1343 H1333 0.930 . S
C1343 C1336 1.409 . S
C1343 C1342 1.362 . S
H1344 C1350 0.930 . S
H1345 C1353 0.930 . S
H1346 C1354 0.930 . S
H1347 C1355 0.930 . S
H1348 C1358 0.930 . S
H1349 C1359 0.930 . S
C1350 H1344 0.930 . S
C1350 C1351 1.355 . S
C1350 C1352 1.415 . S
C1351 C1350 1.355 . S
C1351 C1353 1.419 . S
C1352 C1350 1.415 . S
C1352 C1357 1.425 . S
C1352 C1359 1.409 . S
C1353 H1345 0.930 . S
C1353 C1351 1.419 . S
C1353 C1354 1.362 . S
C1354 H1346 0.930 . S
C1354 C1353 1.362 . S
C1354 C1357 1.409 . S
C1355 H1347 0.930 . S
C1355 C1356 1.355 . S
C1355 C1357 1.415 . S
C1356 C1355 1.355 . S
C1356 C1358 1.419 . S
C1357 C1352 1.425 . S
C1357 C1354 1.409 . S
C1357 C1355 1.415 . S
C1358 H1348 0.930 . S
C1358 C1356 1.419 . S
C1358 C1359 1.362 . S
C1359 H1349 0.930 . S
C1359 C1352 1.409 . S
C1359 C1358 1.362 . S
H1360 C1366 0.930 . S
H1361 C1369 0.930 . S
H1362 C1370 0.930 . S
H1363 C1371 0.930 . S
H1364 C1374 0.930 . S
H1365 C1375 0.930 . S
C1366 H1360 0.930 . S
C1366 C1367 1.355 . S
C1366 C1368 1.415 . S
C1367 C1366 1.355 . S
C1367 C1369 1.419 . S
C1368 C1366 1.415 . S
C1368 C1373 1.425 . S
C1368 C1375 1.409 . S
C1369 H1361 0.930 . S
C1369 C1367 1.419 . S
C1369 C1370 1.362 . S
C1370 H1362 0.930 . S
C1370 C1369 1.362 . S
C1370 C1373 1.409 . S
C1371 H1363 0.930 . S
C1371 C1372 1.355 . S
C1371 C1373 1.415 . S
C1372 C1371 1.355 . S
C1372 C1374 1.419 . S
C1373 C1368 1.425 . S
C1373 C1370 1.409 . S
C1373 C1371 1.415 . S
C1374 H1364 0.930 . S
C1374 C1372 1.419 . S
C1374 C1375 1.362 . S
C1375 H1365 0.930 . S
C1375 C1368 1.409 . S
C1375 C1374 1.362 . S
H1376 C1382 0.930 . S
H1377 C1385 0.930 . S
H1378 C1386 0.930 . S
H1379 C1387 0.930 . S
H1380 C1390 0.930 . S
H1381 C1391 0.930 . S
C1382 H1376 0.930 . S
C1382 C1383 1.355 . S
C1382 C1384 1.415 1_565 S
C1383 C1382 1.355 . S
C1383 C1385 1.419 . S
C1384 C1382 1.415 1_545 S
C1384 C1389 1.425 . S
C1384 C1391 1.409 . S
C1385 H1377 0.930 . S
C1385 C1383 1.419 . S
C1385 C1386 1.362 1_565 S
C1386 H1378 0.930 . S
C1386 C1385 1.362 1_545 S
C1386 C1389 1.409 . S
C1387 H1379 0.930 . S
C1387 C1388 1.355 . S
C1387 C1389 1.415 . S
C1388 C1387 1.355 . S
C1388 C1390 1.419 . S
C1389 C1384 1.425 . S
C1389 C1386 1.409 . S
C1389 C1387 1.415 . S
C1390 H1380 0.930 . S
C1390 C1388 1.419 . S
C1390 C1391 1.362 . S
C1391 H1381 0.930 . S
C1391 C1384 1.409 . S
C1391 C1390 1.362 . S
H1392 C1398 0.930 . S
H1393 C1401 0.930 . S
H1394 C1402 0.930 . S
H1395 C1403 0.930 . S
H1396 C1406 0.930 . S
H1397 C1407 0.930 . S
C1398 H1392 0.930 . S
C1398 C1399 1.355 . S
C1398 C1400 1.415 . S
C1399 C1398 1.355 . S
C1399 C1401 1.419 . S
C1400 C1398 1.415 . S
C1400 C1405 1.425 . S
C1400 C1407 1.409 . S
C1401 H1393 0.930 . S
C1401 C1399 1.419 . S
C1401 C1402 1.362 . S
C1402 H1394 0.930 . S
C1402 C1401 1.362 . S
C1402 C1405 1.409 . S
C1403 H1395 0.930 . S
C1403 C1404 1.355 . S
C1403 C1405 1.415 . S
C1404 C1403 1.355 . S
C1404 C1406 1.419 . S
C1405 C1400 1.425 . S
C1405 C1402 1.409 . S
C1405 C1403 1.415 . S
C1406 H1396 0.930 . S
C1406 C1404 1.419 . S
C1406 C1407 1.362 . S
C1407 H1397 0.930 . S
C1407 C1400 1.409 . S
C1407 C1406 1.362 . S
H1408 C1414 0.930 . S
H1409 C1417 0.930 . S
H1410 C1418 0.930 . S
H1411 C1419 0.930 . S
H1412 C1422 0.930 . S
H1413 C1423 0.930 . S
C1414 H1408 0.930 . S
C1414 C1415 1.355 . S
C1414 C1416 1.415 . S
C1415 C1414 1.355 . S
C1415 C1417 1.419 . S
C1416 C1414 1.415 . S
C1416 C1421 1.425 . S
C1416 C1423 1.409 . S
C1417 H1409 0.930 . S
C1417 C1415 1.419 . S
C1417 C1418 1.362 . S
C1418 H1410 0.930 . S
C1418 C1417 1.362 . S
C1418 C1421 1.409 . S
C1419 H1411 0.930 . S
C1419 C1420 1.355 . S
C1419 C1421 1.415 . S
C1420 C1419 1.355 . S
C1420 C1422 1.419 . S
C1421 C1416 1.425 . S
C1421 C1418 1.409 . S
C1421 C1419 1.415 . S
C1422 H1412 0.930 . S
C1422 C1420 1.419 . S
C1422 C1423 1.362 . S
C1423 H1413 0.930 . S
C1423 C1416 1.409 . S
C1423 C1422 1.362 . S
H1424 C1430 0.930 . S
H1425 C1433 0.930 . S
H1426 C1434 0.930 . S
H1427 C1435 0.930 . S
H1428 C1438 0.930 . S
H1429 C1439 0.930 . S
C1430 H1424 0.930 . S
C1430 C1431 1.355 . S
C1430 C1432 1.415 . S
C1431 C1430 1.355 . S
C1431 C1433 1.419 . S
C1432 C1430 1.415 . S
C1432 C1437 1.425 . S
C1432 C1439 1.409 . S
C1433 H1425 0.930 . S
C1433 C1431 1.419 . S
C1433 C1434 1.362 . S
C1434 H1426 0.930 . S
C1434 C1433 1.362 . S
C1434 C1437 1.409 . S
C1435 H1427 0.930 . S
C1435 C1436 1.355 . S
C1435 C1437 1.415 . S
C1436 C1435 1.355 . S
C1436 C1438 1.419 . S
C1437 C1432 1.425 . S
C1437 C1434 1.409 . S
C1437 C1435 1.415 . S
C1438 H1428 0.930 . S
C1438 C1436 1.419 . S
C1438 C1439 1.362 . S
C1439 H1429 0.930 . S
C1439 C1432 1.409 . S
C1439 C1438 1.362 . S
H1440 C1446 0.930 . S
H1441 C1449 0.930 . S
H1442 C1450 0.930 . S
H1443 C1451 0.930 . S
H1444 C1454 0.930 . S
H1445 C1455 0.930 . S
C1446 H1440 0.930 . S
C1446 C1447 1.355 . S
C1446 C1448 1.415 . S
C1447 C1446 1.355 . S
C1447 C1449 1.419 . S
C1448 C1446 1.415 . S
C1448 C1453 1.425 . S
C1448 C1455 1.409 . S
C1449 H1441 0.930 . S
C1449 C1447 1.419 . S
C1449 C1450 1.362 . S
C1450 H1442 0.930 . S
C1450 C1449 1.362 . S
C1450 C1453 1.409 . S
C1451 H1443 0.930 . S
C1451 C1452 1.355 . S
C1451 C1453 1.415 . S
C1452 C1451 1.355 . S
C1452 C1454 1.419 . S
C1453 C1448 1.425 . S
C1453 C1450 1.409 . S
C1453 C1451 1.415 . S
C1454 H1444 0.930 . S
C1454 C1452 1.419 . S
C1454 C1455 1.362 . S
C1455 H1445 0.930 . S
C1455 C1448 1.409 . S
C1455 C1454 1.362 . S
H1456 C1462 0.930 . S
H1457 C1465 0.930 . S
H1458 C1466 0.930 . S
H1459 C1467 0.930 . S
H1460 C1470 0.930 . S
H1461 C1471 0.930 . S
C1462 H1456 0.930 . S
C1462 C1463 1.355 . S
C1462 C1464 1.415 . S
C1463 C1462 1.355 . S
C1463 C1465 1.419 . S
C1464 C1462 1.415 . S
C1464 C1469 1.425 . S
C1464 C1471 1.409 . S
C1465 H1457 0.930 . S
C1465 C1463 1.419 . S
C1465 C1466 1.362 . S
C1466 H1458 0.930 . S
C1466 C1465 1.362 . S
C1466 C1469 1.409 . S
C1467 H1459 0.930 . S
C1467 C1468 1.355 . S
C1467 C1469 1.415 . S
C1468 C1467 1.355 . S
C1468 C1470 1.419 . S
C1469 C1464 1.425 . S
C1469 C1466 1.409 . S
C1469 C1467 1.415 . S
C1470 H1460 0.930 . S
C1470 C1468 1.419 . S
C1470 C1471 1.362 . S
C1471 H1461 0.930 . S
C1471 C1464 1.409 . S
C1471 C1470 1.362 . S
H1472 C1478 0.930 . S
H1473 C1481 0.930 . S
H1474 C1482 0.930 . S
H1475 C1483 0.930 . S
H1476 C1486 0.930 . S
H1477 C1487 0.930 . S
C1478 H1472 0.930 . S
C1478 C1479 1.355 . S
C1478 C1480 1.415 . S
C1479 C1478 1.355 . S
C1479 C1481 1.419 . S
C1480 C1478 1.415 . S
C1480 C1485 1.425 . S
C1480 C1487 1.409 . S
C1481 H1473 0.930 . S
C1481 C1479 1.419 . S
C1481 C1482 1.362 . S
C1482 H1474 0.930 . S
C1482 C1481 1.362 . S
C1482 C1485 1.409 . S
C1483 H1475 0.930 . S
C1483 C1484 1.355 . S
C1483 C1485 1.415 . S
C1484 C1483 1.355 . S
C1484 C1486 1.419 . S
C1485 C1480 1.425 . S
C1485 C1482 1.409 . S
C1485 C1483 1.415 . S
C1486 H1476 0.930 . S
C1486 C1484 1.419 . S
C1486 C1487 1.362 . S
C1487 H1477 0.930 . S
C1487 C1480 1.409 . S
C1487 C1486 1.362 . S
H1488 C1494 0.930 . S
H1489 C1497 0.930 . S
H1490 C1498 0.930 . S
H1491 C1499 0.930 . S
H1492 C1502 0.930 . S
H1493 C1503 0.930 . S
C1494 H1488 0.930 . S
C1494 C1495 1.355 . S
C1494 C1496 1.415 1_655 S
C1495 C1494 1.355 . S
C1495 C1497 1.419 . S
C1496 C1494 1.415 1_455 S
C1496 C1501 1.425 . S
C1496 C1503 1.409 . S
C1497 H1489 0.930 . S
C1497 C1495 1.419 . S
C1497 C1498 1.362 1_655 S
C1498 H1490 0.930 . S
C1498 C1497 1.362 1_455 S
C1498 C1501 1.409 . S
C1499 H1491 0.930 . S
C1499 C1500 1.355 . S
C1499 C1501 1.415 . S
C1500 C1499 1.355 . S
C1500 C1502 1.419 . S
C1501 C1496 1.425 . S
C1501 C1498 1.409 . S
C1501 C1499 1.415 . S
C1502 H1492 0.930 . S
C1502 C1500 1.419 . S
C1502 C1503 1.362 . S
C1503 H1493 0.930 . S
C1503 C1496 1.409 . S
C1503 C1502 1.362 . S
H1504 C1510 0.930 . S
H1505 C1513 0.930 . S
H1506 C1514 0.930 . S
H1507 C1515 0.930 . S
H1508 C1518 0.930 . S
H1509 C1519 0.930 . S
C1510 H1504 0.930 . S
C1510 C1511 1.355 . S
C1510 C1512 1.415 . S
C1511 C1510 1.355 . S
C1511 C1513 1.419 . S
C1512 C1510 1.415 . S
C1512 C1517 1.425 . S
C1512 C1519 1.409 . S
C1513 H1505 0.930 . S
C1513 C1511 1.419 . S
C1513 C1514 1.362 . S
C1514 H1506 0.930 . S
C1514 C1513 1.362 . S
C1514 C1517 1.409 . S
C1515 H1507 0.930 . S
C1515 C1516 1.355 . S
C1515 C1517 1.415 . S
C1516 C1515 1.355 . S
C1516 C1518 1.419 . S
C1517 C1512 1.425 . S
C1517 C1514 1.409 . S
C1517 C1515 1.415 . S
C1518 H1508 0.930 . S
C1518 C1516 1.419 . S
C1518 C1519 1.362 . S
C1519 H1509 0.930 . S
C1519 C1512 1.409 . S
C1519 C1518 1.362 . S
H1520 C1526 0.930 . S
H1521 C1529 0.930 . S
H1522 C1530 0.930 . S
H1523 C1531 0.930 . S
H1524 C1534 0.930 . S
H1525 C1535 0.930 . S
C1526 H1520 0.930 . S
C1526 C1527 1.355 . S
C1526 C1528 1.415 . S
C1527 C1526 1.355 . S
C1527 C1529 1.419 . S
C1528 C1526 1.415 . S
C1528 C1533 1.425 . S
C1528 C1535 1.409 . S
C1529 H1521 0.930 . S
C1529 C1527 1.419 . S
C1529 C1530 1.362 . S
C1530 H1522 0.930 . S
C1530 C1529 1.362 . S
C1530 C1533 1.409 . S
C1531 H1523 0.930 . S
C1531 C1532 1.355 . S
C1531 C1533 1.415 1_655 S
C1532 C1531 1.355 . S
C1532 C1534 1.419 . S
C1533 C1528 1.425 . S
C1533 C1530 1.409 . S
C1533 C1531 1.415 1_455 S
C1534 H1524 0.930 . S
C1534 C1532 1.419 . S
C1534 C1535 1.362 1_655 S
C1535 H1525 0.930 . S
C1535 C1528 1.409 . S
C1535 C1534 1.362 1_455 S
H1536 C1542 0.930 . S
H1537 C1545 0.930 . S
H1538 C1546 0.930 . S
H1539 C1547 0.930 . S
H1540 C1550 0.930 . S
H1541 C1551 0.930 . S
C1542 H1536 0.930 . S
C1542 C1543 1.355 . S
C1542 C1544 1.415 . S
C1543 C1542 1.355 . S
C1543 C1545 1.419 . S
C1544 C1542 1.415 . S
C1544 C1549 1.425 . S
C1544 C1551 1.409 . S
C1545 H1537 0.930 . S
C1545 C1543 1.419 . S
C1545 C1546 1.362 . S
C1546 H1538 0.930 . S
C1546 C1545 1.362 . S
C1546 C1549 1.409 . S
C1547 H1539 0.930 . S
C1547 C1548 1.355 . S
C1547 C1549 1.415 . S
C1548 C1547 1.355 . S
C1548 C1550 1.419 . S
C1549 C1544 1.425 . S
C1549 C1546 1.409 . S
C1549 C1547 1.415 . S
C1550 H1540 0.930 . S
C1550 C1548 1.419 . S
C1550 C1551 1.362 . S
C1551 H1541 0.930 . S
C1551 C1544 1.409 . S
C1551 C1550 1.362 . S
H1552 C1558 0.930 . S
H1553 C1561 0.930 . S
H1554 C1562 0.930 . S
H1555 C1563 0.930 . S
H1556 C1566 0.930 . S
H1557 C1567 0.930 . S
C1558 H1552 0.930 . S
C1558 C1559 1.355 . S
C1558 C1560 1.415 . S
C1559 C1558 1.355 . S
C1559 C1561 1.419 . S
C1560 C1558 1.415 . S
C1560 C1565 1.425 . S
C1560 C1567 1.409 . S
C1561 H1553 0.930 . S
C1561 C1559 1.419 . S
C1561 C1562 1.362 . S
C1562 H1554 0.930 . S
C1562 C1561 1.362 . S
C1562 C1565 1.409 . S
C1563 H1555 0.930 . S
C1563 C1564 1.355 . S
C1563 C1565 1.415 . S
C1564 C1563 1.355 . S
C1564 C1566 1.419 . S
C1565 C1560 1.425 . S
C1565 C1562 1.409 . S
C1565 C1563 1.415 . S
C1566 H1556 0.930 . S
C1566 C1564 1.419 . S
C1566 C1567 1.362 . S
C1567 H1557 0.930 . S
C1567 C1560 1.409 . S
C1567 C1566 1.362 . S
H1568 C1574 0.930 . S
H1569 C1577 0.930 . S
H1570 C1578 0.930 . S
H1571 C1579 0.930 . S
H1572 C1582 0.930 . S
H1573 C1583 0.930 . S
C1574 H1568 0.930 . S
C1574 C1575 1.355 . S
C1574 C1576 1.415 . S
C1575 C1574 1.355 . S
C1575 C1577 1.419 . S
C1576 C1574 1.415 . S
C1576 C1581 1.425 . S
C1576 C1583 1.409 . S
C1577 H1569 0.930 . S
C1577 C1575 1.419 . S
C1577 C1578 1.362 . S
C1578 H1570 0.930 . S
C1578 C1577 1.362 . S
C1578 C1581 1.409 . S
C1579 H1571 0.930 . S
C1579 C1580 1.355 . S
C1579 C1581 1.415 . S
C1580 C1579 1.355 . S
C1580 C1582 1.419 . S
C1581 C1576 1.425 . S
C1581 C1578 1.409 . S
C1581 C1579 1.415 . S
C1582 H1572 0.930 . S
C1582 C1580 1.419 . S
C1582 C1583 1.362 . S
C1583 H1573 0.930 . S
C1583 C1576 1.409 . S
C1583 C1582 1.362 . S
H1584 C1590 0.930 . S
H1585 C1593 0.930 . S
H1586 C1594 0.930 . S
H1587 C1595 0.930 . S
H1588 C1598 0.930 . S
H1589 C1599 0.930 . S
C1590 H1584 0.930 . S
C1590 C1591 1.355 . S
C1590 C1592 1.415 . S
C1591 C1590 1.355 . S
C1591 C1593 1.419 . S
C1592 C1590 1.415 . S
C1592 C1597 1.425 . S
C1592 C1599 1.409 . S
C1593 H1585 0.930 . S
C1593 C1591 1.419 . S
C1593 C1594 1.362 . S
C1594 H1586 0.930 . S
C1594 C1593 1.362 . S
C1594 C1597 1.409 . S
C1595 H1587 0.930 . S
C1595 C1596 1.355 . S
C1595 C1597 1.415 1_556 S
C1596 C1595 1.355 . S
C1596 C1598 1.419 . S
C1597 C1592 1.425 . S
C1597 C1594 1.409 . S
C1597 C1595 1.415 1_554 S
C1598 H1588 0.930 . S
C1598 C1596 1.419 . S
C1598 C1599 1.362 1_556 S
C1599 H1589 0.930 . S
C1599 C1592 1.409 . S
C1599 C1598 1.362 1_554 S
H1600 C1606 0.930 . S
H1601 C1609 0.930 . S
H1602 C1610 0.930 . S
H1603 C1611 0.930 . S
H1604 C1614 0.930 . S
H1605 C1615 0.930 . S
C1606 H1600 0.930 . S
C1606 C1607 1.355 . S
C1606 C1608 1.415 . S
C1607 C1606 1.355 . S
C1607 C1609 1.419 . S
C1608 C1606 1.415 . S
C1608 C1613 1.425 . S
C1608 C1615 1.409 . S
C1609 H1601 0.930 . S
C1609 C1607 1.419 . S
C1609 C1610 1.362 . S
C1610 H1602 0.930 . S
C1610 C1609 1.362 . S
C1610 C1613 1.409 . S
C1611 H1603 0.930 . S
C1611 C1612 1.355 . S
C1611 C1613 1.415 . S
C1612 C1611 1.355 . S
C1612 C1614 1.419 . S
C1613 C1608 1.425 . S
C1613 C1610 1.409 . S
C1613 C1611 1.415 . S
C1614 H1604 0.930 . S
C1614 C1612 1.419 . S
C1614 C1615 1.362 . S
C1615 H1605 0.930 . S
C1615 C1608 1.409 . S
C1615 C1614 1.362 . S
H1616 C1622 0.930 . S
H1617 C1625 0.930 . S
H1618 C1626 0.930 . S
H1619 C1627 0.930 . S
H1620 C1630 0.930 . S
H1621 C1631 0.930 . S
C1622 H1616 0.930 . S
C1622 C1623 1.355 . S
C1622 C1624 1.415 . S
C1623 C1622 1.355 . S
C1623 C1625 1.419 . S
C1624 C1622 1.415 . S
C1624 C1629 1.425 . S
C1624 C1631 1.409 . S
C1625 H1617 0.930 . S
C1625 C1623 1.419 . S
C1625 C1626 1.362 . S
C1626 H1618 0.930 . S
C1626 C1625 1.362 . S
C1626 C1629 1.409 . S
C1627 H1619 0.930 . S
C1627 C1628 1.355 . S
C1627 C1629 1.415 . S
C1628 C1627 1.355 . S
C1628 C1630 1.419 . S
C1629 C1624 1.425 . S
C1629 C1626 1.409 . S
C1629 C1627 1.415 . S
C1630 H1620 0.930 . S
C1630 C1628 1.419 . S
C1630 C1631 1.362 . S
C1631 H1621 0.930 . S
C1631 C1624 1.409 . S
C1631 C1630 1.362 . S
H1632 C1638 0.930 . S
H1633 C1641 0.930 . S
H1634 C1642 0.930 . S
H1635 C1643 0.930 . S
H1636 C1646 0.930 . S
H1637 C1647 0.930 . S
C1638 H1632 0.930 . S
C1638 C1639 1.355 . S
C1638 C1640 1.415 . S
C1639 C1638 1.355 . S
C1639 C1641 1.419 . S
C1640 C1638 1.415 . S
C1640 C1645 1.425 . S
C1640 C1647 1.409 . S
C1641 H1633 0.930 . S
C1641 C1639 1.419 . S
C1641 C1642 1.362 . S
C1642 H1634 0.930 . S
C1642 C1641 1.362 . S
C1642 C1645 1.409 . S
C1643 H1635 0.930 . S
C1643 C1644 1.355 . S
C1643 C1645 1.415 . S
C1644 C1643 1.355 . S
C1644 C1646 1.419 . S
C1645 C1640 1.425 . S
C1645 C1642 1.409 . S
C1645 C1643 1.415 . S
C1646 H1636 0.930 . S
C1646 C1644 1.419 . S
C1646 C1647 1.362 . S
C1647 H1637 0.930 . S
C1647 C1640 1.409 . S
C1647 C1646 1.362 . S
H1648 C1654 0.930 . S
H1649 C1657 0.930 . S
H1650 C1658 0.930 . S
H1651 C1659 0.930 . S
H1652 C1662 0.930 . S
H1653 C1663 0.930 1_556 S
C1654 H1648 0.930 . S
C1654 C1655 1.355 . S
C1654 C1656 1.415 . S
C1655 C1654 1.355 . S
C1655 C1657 1.419 . S
C1656 C1654 1.415 . S
C1656 C1661 1.425 . S
C1656 C1663 1.409 1_556 S
C1657 H1649 0.930 . S
C1657 C1655 1.419 . S
C1657 C1658 1.362 . S
C1658 H1650 0.930 . S
C1658 C1657 1.362 . S
C1658 C1661 1.409 . S
C1659 H1651 0.930 . S
C1659 C1660 1.355 . S
C1659 C1661 1.415 1_554 S
C1660 C1659 1.355 . S
C1660 C1662 1.419 . S
C1661 C1656 1.425 . S
C1661 C1658 1.409 . S
C1661 C1659 1.415 1_556 S
C1662 H1652 0.930 . S
C1662 C1660 1.419 . S
C1662 C1663 1.362 . S
C1663 H1653 0.930 1_554 S
C1663 C1656 1.409 1_554 S
C1663 C1662 1.362 . S
H1664 C1670 0.930 . S
H1665 C1673 0.930 . S
H1666 C1674 0.930 . S
H1667 C1675 0.930 . S
H1668 C1678 0.930 . S
H1669 C1679 0.930 . S
C1670 H1664 0.930 . S
C1670 C1671 1.355 . S
C1670 C1672 1.415 . S
C1671 C1670 1.355 . S
C1671 C1673 1.419 . S
C1672 C1670 1.415 . S
C1672 C1677 1.425 . S
C1672 C1679 1.409 . S
C1673 H1665 0.930 . S
C1673 C1671 1.419 . S
C1673 C1674 1.362 . S
C1674 H1666 0.930 . S
C1674 C1673 1.362 . S
C1674 C1677 1.409 . S
C1675 H1667 0.930 . S
C1675 C1676 1.355 . S
C1675 C1677 1.415 . S
C1676 C1675 1.355 . S
C1676 C1678 1.419 . S
C1677 C1672 1.425 . S
C1677 C1674 1.409 . S
C1677 C1675 1.415 . S
C1678 H1668 0.930 . S
C1678 C1676 1.419 . S
C1678 C1679 1.362 . S
C1679 H1669 0.930 . S
C1679 C1672 1.409 . S
C1679 C1678 1.362 . S
H1680 C1686 0.930 . S
H1681 C1689 0.930 . S
H1682 C1690 0.930 . S
H1683 C1691 0.930 . S
H1684 C1694 0.930 . S
H1685 C1695 0.930 . S
C1686 H1680 0.930 . S
C1686 C1687 1.355 . S
C1686 C1688 1.415 . S
C1687 C1686 1.355 . S
C1687 C1689 1.419 . S
C1688 C1686 1.415 . S
C1688 C1693 1.425 . S
C1688 C1695 1.409 . S
C1689 H1681 0.930 . S
C1689 C1687 1.419 . S
C1689 C1690 1.362 . S
C1690 H1682 0.930 . S
C1690 C1689 1.362 . S
C1690 C1693 1.409 . S
C1691 H1683 0.930 . S
C1691 C1692 1.355 . S
C1691 C1693 1.415 . S
C1692 C1691 1.355 . S
C1692 C1694 1.419 . S
C1693 C1688 1.425 . S
C1693 C1690 1.409 . S
C1693 C1691 1.415 . S
C1694 H1684 0.930 . S
C1694 C1692 1.419 . S
C1694 C1695 1.362 . S
C1695 H1685 0.930 . S
C1695 C1688 1.409 . S
C1695 C1694 1.362 . S
H1696 C1702 0.930 . S
H1697 C1705 0.930 . S
H1698 C1706 0.930 . S
H1699 C1707 0.930 . S
H1700 C1710 0.930 . S
H1701 C1711 0.930 . S
C1702 H1696 0.930 . S
C1702 C1703 1.355 . S
C1702 C1704 1.415 . S
C1703 C1702 1.355 . S
C1703 C1705 1.419 . S
C1704 C1702 1.415 . S
C1704 C1709 1.425 . S
C1704 C1711 1.409 . S
C1705 H1697 0.930 . S
C1705 C1703 1.419 . S
C1705 C1706 1.362 . S
C1706 H1698 0.930 . S
C1706 C1705 1.362 . S
C1706 C1709 1.409 . S
C1707 H1699 0.930 . S
C1707 C1708 1.355 . S
C1707 C1709 1.415 . S
C1708 C1707 1.355 . S
C1708 C1710 1.419 . S
C1709 C1704 1.425 . S
C1709 C1706 1.409 . S
C1709 C1707 1.415 . S
C1710 H1700 0.930 . S
C1710 C1708 1.419 . S
C1710 C1711 1.362 . S
C1711 H1701 0.930 . S
C1711 C1704 1.409 . S
C1711 C1710 1.362 . S
H1712 C1718 0.930 . S
H1713 C1721 0.930 . S
H1714 C1722 0.930 . S
H1715 C1723 0.930 . S
H1716 C1726 0.930 . S
H1717 C1727 0.930 . S
C1718 H1712 0.930 . S
C1718 C1719 1.355 . S
C1718 C1720 1.415 . S
C1719 C1718 1.355 . S
C1719 C1721 1.419 . S
C1720 C1718 1.415 . S
C1720 C1725 1.425 . S
C1720 C1727 1.409 . S
C1721 H1713 0.930 . S
C1721 C1719 1.419 . S
C1721 C1722 1.362 . S
C1722 H1714 0.930 . S
C1722 C1721 1.362 . S
C1722 C1725 1.409 . S
C1723 H1715 0.930 . S
C1723 C1724 1.355 . S
C1723 C1725 1.415 . S
C1724 C1723 1.355 . S
C1724 C1726 1.419 . S
C1725 C1720 1.425 . S
C1725 C1722 1.409 . S
C1725 C1723 1.415 . S
C1726 H1716 0.930 . S
C1726 C1724 1.419 . S
C1726 C1727 1.362 . S
C1727 H1717 0.930 . S
C1727 C1720 1.409 . S
C1727 C1726 1.362 . S
H1728 C1734 0.930 . S
H1729 C1737 0.930 . S
H1730 C1738 0.930 . S
H1731 C1739 0.930 . S
H1732 C1742 0.930 . S
H1733 C1743 0.930 . S
C1734 H1728 0.930 . S
C1734 C1735 1.355 . S
C1734 C1736 1.415 . S
C1735 C1734 1.355 . S
C1735 C1737 1.419 . S
C1736 C1734 1.415 . S
C1736 C1741 1.425 . S
C1736 C1743 1.409 . S
C1737 H1729 0.930 . S
C1737 C1735 1.419 . S
C1737 C1738 1.362 . S
C1738 H1730 0.930 . S
C1738 C1737 1.362 . S
C1738 C1741 1.409 . S
C1739 H1731 0.930 . S
C1739 C1740 1.355 . S
C1739 C1741 1.415 1_565 S
C1740 C1739 1.355 . S
C1740 C1742 1.419 . S
C1741 C1736 1.425 . S
C1741 C1738 1.409 . S
C1741 C1739 1.415 1_545 S
C1742 H1732 0.930 . S
C1742 C1740 1.419 . S
C1742 C1743 1.362 1_565 S
C1743 H1733 0.930 . S
C1743 C1736 1.409 . S
C1743 C1742 1.362 1_545 S
H1744 C1750 0.930 . S
H1745 C1753 0.930 . S
H1746 C1754 0.930 . S
H1747 C1755 0.930 . S
H1748 C1758 0.930 . S
H1749 C1759 0.930 . S
C1750 H1744 0.930 . S
C1750 C1751 1.355 . S
C1750 C1752 1.415 . S
C1751 C1750 1.355 . S
C1751 C1753 1.419 . S
C1752 C1750 1.415 . S
C1752 C1757 1.425 . S
C1752 C1759 1.409 . S
C1753 H1745 0.930 . S
C1753 C1751 1.419 . S
C1753 C1754 1.362 . S
C1754 H1746 0.930 . S
C1754 C1753 1.362 . S
C1754 C1757 1.409 . S
C1755 H1747 0.930 . S
C1755 C1756 1.355 . S
C1755 C1757 1.415 . S
C1756 C1755 1.355 . S
C1756 C1758 1.419 . S
C1757 C1752 1.425 . S
C1757 C1754 1.409 . S
C1757 C1755 1.415 . S
C1758 H1748 0.930 . S
C1758 C1756 1.419 . S
C1758 C1759 1.362 . S
C1759 H1749 0.930 . S
C1759 C1752 1.409 . S
C1759 C1758 1.362 . S
H1760 C1766 0.930 . S
H1761 C1769 0.930 . S
H1762 C1770 0.930 . S
H1763 C1771 0.930 . S
H1764 C1774 0.930 . S
H1765 C1775 0.930 . S
C1766 H1760 0.930 . S
C1766 C1767 1.355 . S
C1766 C1768 1.415 . S
C1767 C1766 1.355 . S
C1767 C1769 1.419 . S
C1768 C1766 1.415 . S
C1768 C1773 1.425 . S
C1768 C1775 1.409 . S
C1769 H1761 0.930 . S
C1769 C1767 1.419 . S
C1769 C1770 1.362 . S
C1770 H1762 0.930 . S
C1770 C1769 1.362 . S
C1770 C1773 1.409 . S
C1771 H1763 0.930 . S
C1771 C1772 1.355 . S
C1771 C1773 1.415 . S
C1772 C1771 1.355 . S
C1772 C1774 1.419 . S
C1773 C1768 1.425 . S
C1773 C1770 1.409 . S
C1773 C1771 1.415 . S
C1774 H1764 0.930 . S
C1774 C1772 1.419 . S
C1774 C1775 1.362 . S
C1775 H1765 0.930 . S
C1775 C1768 1.409 . S
C1775 C1774 1.362 . S
H1776 C1782 0.930 . S
H1777 C1785 0.930 . S
H1778 C1786 0.930 . S
H1779 C1787 0.930 . S
H1780 C1790 0.930 . S
H1781 C1791 0.930 . S
C1782 H1776 0.930 . S
C1782 C1783 1.355 . S
C1782 C1784 1.415 . S
C1783 C1782 1.355 . S
C1783 C1785 1.419 . S
C1784 C1782 1.415 . S
C1784 C1789 1.425 . S
C1784 C1791 1.409 . S
C1785 H1777 0.930 . S
C1785 C1783 1.419 . S
C1785 C1786 1.362 . S
C1786 H1778 0.930 . S
C1786 C1785 1.362 . S
C1786 C1789 1.409 . S
C1787 H1779 0.930 . S
C1787 C1788 1.355 . S
C1787 C1789 1.415 . S
C1788 C1787 1.355 . S
C1788 C1790 1.419 . S
C1789 C1784 1.425 . S
C1789 C1786 1.409 . S
C1789 C1787 1.415 . S
C1790 H1780 0.930 . S
C1790 C1788 1.419 . S
C1790 C1791 1.362 . S
C1791 H1781 0.930 . S
C1791 C1784 1.409 . S
C1791 C1790 1.362 . S
H1792 C1798 0.930 . S
H1793 C1801 0.930 . S
H1794 C1802 0.929 1_565 S
H1795 C1803 0.930 . S
H1796 C1806 0.930 . S
H1797 C1807 0.930 . S
C1798 H1792 0.930 . S
C1798 C1799 1.355 . S
C1798 C1800 1.415 1_545 S
C1799 C1798 1.355 . S
C1799 C1801 1.419 . S
C1800 C1798 1.415 1_565 S
C1800 C1805 1.425 . S
C1800 C1807 1.409 . S
C1801 H1793 0.930 . S
C1801 C1799 1.419 . S
C1801 C1802 1.370 . S
C1802 H1794 0.929 1_545 S
C1802 C1801 1.370 . S
C1802 C1805 1.402 1_545 S
C1803 H1795 0.930 . S
C1803 C1804 1.355 . S
C1803 C1805 1.415 . S
C1804 C1803 1.355 . S
C1804 C1806 1.419 . S
C1805 C1800 1.425 . S
C1805 C1802 1.402 1_565 S
C1805 C1803 1.415 . S
C1806 H1796 0.930 . S
C1806 C1804 1.419 . S
C1806 C1807 1.362 . S
C1807 H1797 0.930 . S
C1807 C1800 1.409 . S
C1807 C1806 1.362 . S
H1808 C1814 0.930 . S
H1809 C1817 0.930 . S
H1810 C1818 0.930 . S
H1811 C1819 0.930 . S
H1812 C1822 0.930 . S
H1813 C1823 0.930 . S
C1814 H1808 0.930 . S
C1814 C1815 1.355 . S
C1814 C1816 1.415 . S
C1815 C1814 1.355 . S
C1815 C1817 1.419 . S
C1816 C1814 1.415 . S
C1816 C1821 1.425 . S
C1816 C1823 1.409 . S
C1817 H1809 0.930 . S
C1817 C1815 1.419 . S
C1817 C1818 1.362 . S
C1818 H1810 0.930 . S
C1818 C1817 1.362 . S
C1818 C1821 1.409 . S
C1819 H1811 0.930 . S
C1819 C1820 1.355 . S
C1819 C1821 1.415 1_565 S
C1820 C1819 1.355 . S
C1820 C1822 1.419 . S
C1821 C1816 1.425 . S
C1821 C1818 1.409 . S
C1821 C1819 1.415 1_545 S
C1822 H1812 0.930 . S
C1822 C1820 1.419 . S
C1822 C1823 1.362 1_565 S
C1823 H1813 0.930 . S
C1823 C1816 1.409 . S
C1823 C1822 1.362 1_545 S
H1824 C1830 0.930 . S
H1825 C1833 0.930 . S
H1826 C1834 0.930 . S
H1827 C1835 0.930 . S
H1828 C1838 0.930 . S
H1829 C1839 0.930 . S
C1830 H1824 0.930 . S
C1830 C1831 1.355 . S
C1830 C1832 1.415 . S
C1831 C1830 1.355 . S
C1831 C1833 1.419 . S
C1832 C1830 1.415 . S
C1832 C1837 1.425 . S
C1832 C1839 1.409 . S
C1833 H1825 0.930 . S
C1833 C1831 1.419 . S
C1833 C1834 1.362 . S
C1834 H1826 0.930 . S
C1834 C1833 1.362 . S
C1834 C1837 1.409 . S
C1835 H1827 0.930 . S
C1835 C1836 1.355 . S
C1835 C1837 1.415 . S
C1836 C1835 1.355 . S
C1836 C1838 1.419 . S
C1837 C1832 1.425 . S
C1837 C1834 1.409 . S
C1837 C1835 1.415 . S
C1838 H1828 0.930 . S
C1838 C1836 1.419 . S
C1838 C1839 1.362 . S
C1839 H1829 0.930 . S
C1839 C1832 1.409 . S
C1839 C1838 1.362 . S
H1840 C1846 0.930 . S
H1841 C1849 0.930 . S
H1842 C1850 0.930 . S
H1843 C1851 0.930 . S
H1844 C1854 0.930 . S
H1845 C1855 0.930 . S
C1846 H1840 0.930 . S
C1846 C1847 1.355 . S
C1846 C1848 1.415 . S
C1847 C1846 1.355 . S
C1847 C1849 1.419 . S
C1848 C1846 1.415 . S
C1848 C1853 1.425 . S
C1848 C1855 1.409 . S
C1849 H1841 0.930 . S
C1849 C1847 1.419 . S
C1849 C1850 1.362 . S
C1850 H1842 0.930 . S
C1850 C1849 1.362 . S
C1850 C1853 1.409 . S
C1851 H1843 0.930 . S
C1851 C1852 1.355 . S
C1851 C1853 1.415 . S
C1852 C1851 1.355 . S
C1852 C1854 1.419 . S
C1853 C1848 1.425 . S
C1853 C1850 1.409 . S
C1853 C1851 1.415 . S
C1854 H1844 0.930 . S
C1854 C1852 1.419 . S
C1854 C1855 1.362 . S
C1855 H1845 0.930 . S
C1855 C1848 1.409 . S
C1855 C1854 1.362 . S
H1856 C1862 0.930 . S
H1857 C1865 0.930 . S
H1858 C1866 0.930 . S
H1859 C1867 0.930 . S
H1860 C1870 0.930 . S
H1861 C1871 0.930 . S
C1862 H1856 0.930 . S
C1862 C1863 1.355 . S
C1862 C1864 1.415 . S
C1863 C1862 1.355 . S
C1863 C1865 1.419 . S
C1864 C1862 1.415 . S
C1864 C1869 1.425 . S
C1864 C1871 1.409 . S
C1865 H1857 0.930 . S
C1865 C1863 1.419 . S
C1865 C1866 1.362 . S
C1866 H1858 0.930 . S
C1866 C1865 1.362 . S
C1866 C1869 1.409 . S
C1867 H1859 0.930 . S
C1867 C1868 1.355 . S
C1867 C1869 1.415 . S
C1868 C1867 1.355 . S
C1868 C1870 1.419 . S
C1869 C1864 1.425 . S
C1869 C1866 1.409 . S
C1869 C1867 1.415 . S
C1870 H1860 0.930 . S
C1870 C1868 1.419 . S
C1870 C1871 1.362 . S
C1871 H1861 0.930 . S
C1871 C1864 1.409 . S
C1871 C1870 1.362 . S
H1872 C1878 0.930 . S
H1873 C1881 0.930 . S
H1874 C1882 0.930 . S
H1875 C1883 0.930 . S
H1876 C1886 0.930 . S
H1877 C1887 0.930 . S
C1878 H1872 0.930 . S
C1878 C1879 1.355 . S
C1878 C1880 1.415 1_455 S
C1879 C1878 1.355 . S
C1879 C1881 1.419 . S
C1880 C1878 1.415 1_655 S
C1880 C1885 1.425 . S
C1880 C1887 1.409 . S
C1881 H1873 0.930 . S
C1881 C1879 1.419 . S
C1881 C1882 1.362 1_455 S
C1882 H1874 0.930 . S
C1882 C1881 1.362 1_655 S
C1882 C1885 1.409 . S
C1883 H1875 0.930 . S
C1883 C1884 1.355 . S
C1883 C1885 1.415 . S
C1884 C1883 1.355 . S
C1884 C1886 1.419 . S
C1885 C1880 1.425 . S
C1885 C1882 1.409 . S
C1885 C1883 1.415 . S
C1886 H1876 0.930 . S
C1886 C1884 1.419 . S
C1886 C1887 1.362 . S
C1887 H1877 0.930 . S
C1887 C1880 1.409 . S
C1887 C1886 1.362 . S
H1888 C1894 0.930 . S
H1889 C1897 0.930 . S
H1890 C1898 0.930 . S
H1891 C1899 0.930 . S
H1892 C1902 0.930 . S
H1893 C1903 0.930 . S
C1894 H1888 0.930 . S
C1894 C1895 1.355 . S
C1894 C1896 1.415 . S
C1895 C1894 1.355 . S
C1895 C1897 1.419 . S
C1896 C1894 1.415 . S
C1896 C1901 1.425 . S
C1896 C1903 1.409 . S
C1897 H1889 0.930 . S
C1897 C1895 1.419 . S
C1897 C1898 1.362 . S
C1898 H1890 0.930 . S
C1898 C1897 1.362 . S
C1898 C1901 1.409 . S
C1899 H1891 0.930 . S
C1899 C1900 1.355 . S
C1899 C1901 1.415 . S
C1900 C1899 1.355 . S
C1900 C1902 1.419 . S
C1901 C1896 1.425 . S
C1901 C1898 1.409 . S
C1901 C1899 1.415 . S
C1902 H1892 0.930 . S
C1902 C1900 1.419 . S
C1902 C1903 1.362 . S
C1903 H1893 0.930 . S
C1903 C1896 1.409 . S
C1903 C1902 1.362 . S
H1904 C1910 0.930 . S
H1905 C1913 0.930 . S
H1906 C1914 0.930 . S
H1907 C1915 0.930 . S
H1908 C1918 0.930 . S
H1909 C1919 0.930 . S
C1910 H1904 0.930 . S
C1910 C1911 1.355 . S
C1910 C1912 1.415 1_455 S
C1911 C1910 1.355 . S
C1911 C1913 1.419 . S
C1912 C1910 1.415 1_655 S
C1912 C1917 1.425 . S
C1912 C1919 1.409 . S
C1913 H1905 0.930 . S
C1913 C1911 1.419 . S
C1913 C1914 1.362 1_455 S
C1914 H1906 0.930 . S
C1914 C1913 1.362 1_655 S
C1914 C1917 1.409 . S
C1915 H1907 0.930 . S
C1915 C1916 1.355 . S
C1915 C1917 1.415 . S
C1916 C1915 1.355 . S
C1916 C1918 1.419 . S
C1917 C1912 1.425 . S
C1917 C1914 1.409 . S
C1917 C1915 1.415 . S
C1918 H1908 0.930 . S
C1918 C1916 1.419 . S
C1918 C1919 1.362 . S
C1919 H1909 0.930 . S
C1919 C1912 1.409 . S
C1919 C1918 1.362 . S
H1920 C1926 0.930 . S
H1921 C1929 0.930 . S
H1922 C1930 0.930 . S
H1923 C1931 0.930 . S
H1924 C1934 0.930 . S
H1925 C1935 0.930 . S
C1926 H1920 0.930 . S
C1926 C1927 1.355 . S
C1926 C1928 1.415 . S
C1927 C1926 1.355 . S
C1927 C1929 1.419 . S
C1928 C1926 1.415 . S
C1928 C1933 1.425 . S
C1928 C1935 1.409 . S
C1929 H1921 0.930 . S
C1929 C1927 1.419 . S
C1929 C1930 1.362 . S
C1930 H1922 0.930 . S
C1930 C1929 1.362 . S
C1930 C1933 1.409 . S
C1931 H1923 0.930 . S
C1931 C1932 1.355 . S
C1931 C1933 1.415 . S
C1932 C1931 1.355 . S
C1932 C1934 1.419 . S
C1933 C1928 1.425 . S
C1933 C1930 1.409 . S
C1933 C1931 1.415 . S
C1934 H1924 0.930 . S
C1934 C1932 1.419 . S
C1934 C1935 1.362 . S
C1935 H1925 0.930 . S
C1935 C1928 1.409 . S
C1935 C1934 1.362 . S
H1936 C1942 0.930 . S
H1937 C1945 0.930 . S
H1938 C1946 0.930 . S
H1939 C1947 0.930 . S
H1940 C1950 0.930 . S
H1941 C1951 0.930 . S
C1942 H1936 0.930 . S
C1942 C1943 1.355 . S
C1942 C1944 1.415 . S
C1943 C1942 1.355 . S
C1943 C1945 1.419 . S
C1944 C1942 1.415 . S
C1944 C1949 1.425 . S
C1944 C1951 1.409 . S
C1945 H1937 0.930 . S
C1945 C1943 1.419 . S
C1945 C1946 1.362 . S
C1946 H1938 0.930 . S
C1946 C1945 1.362 . S
C1946 C1949 1.409 . S
C1947 H1939 0.930 . S
C1947 C1948 1.355 . S
C1947 C1949 1.415 . S
C1948 C1947 1.355 . S
C1948 C1950 1.419 . S
C1949 C1944 1.425 . S
C1949 C1946 1.409 . S
C1949 C1947 1.415 . S
C1950 H1940 0.930 . S
C1950 C1948 1.419 . S
C1950 C1951 1.362 . S
C1951 H1941 0.930 . S
C1951 C1944 1.409 . S
C1951 C1950 1.362 . S
H1952 C1958 0.930 . S
H1953 C1961 0.930 . S
H1954 C1962 0.930 . S
H1955 C1963 0.930 . S
H1956 C1966 0.930 . S
H1957 C1967 0.930 . S
C1958 H1952 0.930 . S
C1958 C1959 1.355 . S
C1958 C1960 1.415 . S
C1959 C1958 1.355 . S
C1959 C1961 1.419 . S
C1960 C1958 1.415 . S
C1960 C1965 1.425 . S
C1960 C1967 1.409 . S
C1961 H1953 0.930 . S
C1961 C1959 1.419 . S
C1961 C1962 1.362 . S
C1962 H1954 0.930 . S
C1962 C1961 1.362 . S
C1962 C1965 1.409 . S
C1963 H1955 0.930 . S
C1963 C1964 1.355 . S
C1963 C1965 1.415 . S
C1964 C1963 1.355 . S
C1964 C1966 1.419 . S
C1965 C1960 1.425 . S
C1965 C1962 1.409 . S
C1965 C1963 1.415 . S
C1966 H1956 0.930 . S
C1966 C1964 1.419 . S
C1966 C1967 1.362 . S
C1967 H1957 0.930 . S
C1967 C1960 1.409 . S
C1967 C1966 1.362 . S
H1968 C1974 0.930 . S
H1969 C1977 0.930 . S
H1970 C1978 0.930 . S
H1971 C1979 0.930 . S
H1972 C1982 0.930 . S
H1973 C1983 0.930 . S
C1974 H1968 0.930 . S
C1974 C1975 1.355 . S
C1974 C1976 1.415 . S
C1975 C1974 1.355 . S
C1975 C1977 1.419 . S
C1976 C1974 1.415 . S
C1976 C1981 1.425 . S
C1976 C1983 1.409 . S
C1977 H1969 0.930 . S
C1977 C1975 1.419 . S
C1977 C1978 1.362 . S
C1978 H1970 0.930 . S
C1978 C1977 1.362 . S
C1978 C1981 1.409 . S
C1979 H1971 0.930 . S
C1979 C1980 1.355 . S
C1979 C1981 1.415 1_554 S
C1980 C1979 1.355 . S
C1980 C1982 1.419 . S
C1981 C1976 1.425 . S
C1981 C1978 1.409 . S
C1981 C1979 1.415 1_556 S
C1982 H1972 0.930 . S
C1982 C1980 1.419 . S
C1982 C1983 1.362 1_554 S
C1983 H1973 0.930 . S
C1983 C1976 1.409 . S
C1983 C1982 1.362 1_556 S
H1984 C1990 0.930 . S
H1985 C1993 0.930 . S
H1986 C1994 0.930 . S
H1987 C1995 0.930 . S
H1988 C1998 0.930 . S
H1989 C1999 0.930 . S
C1990 H1984 0.930 . S
C1990 C1991 1.355 . S
C1990 C1992 1.415 . S
C1991 C1990 1.355 . S
C1991 C1993 1.419 . S
C1992 C1990 1.415 . S
C1992 C1997 1.425 . S
C1992 C1999 1.409 . S
C1993 H1985 0.930 . S
C1993 C1991 1.419 . S
C1993 C1994 1.362 . S
C1994 H1986 0.930 . S
C1994 C1993 1.362 . S
C1994 C1997 1.409 . S
C1995 H1987 0.930 . S
C1995 C1996 1.355 . S
C1995 C1997 1.415 . S
C1996 C1995 1.355 . S
C1996 C1998 1.419 . S
C1997 C1992 1.425 . S
C1997 C1994 1.409 . S
C1997 C1995 1.415 . S
C1998 H1988 0.930 . S
C1998 C1996 1.419 . S
C1998 C1999 1.362 . S
C1999 H1989 0.930 . S
C1999 C1992 1.409 . S
C1999 C1998 1.362 . S
H2000 C2006 0.930 . S
H2001 C2009 0.930 . S
H2002 C2010 0.930 . S
H2003 C2011 0.930 . S
H2004 C2014 0.930 . S
H2005 C2015 0.930 . S
C2006 H2000 0.930 . S
C2006 C2007 1.355 . S
C2006 C2008 1.415 . S
C2007 C2006 1.355 . S
C2007 C2009 1.419 . S
C2008 C2006 1.415 . S
C2008 C2013 1.425 . S
C2008 C2015 1.409 . S
C2009 H2001 0.930 . S
C2009 C2007 1.419 . S
C2009 C2010 1.362 . S
C2010 H2002 0.930 . S
C2010 C2009 1.362 . S
C2010 C2013 1.409 . S
C2011 H2003 0.930 . S
C2011 C2012 1.355 . S
C2011 C2013 1.415 . S
C2012 C2011 1.355 . S
C2012 C2014 1.419 . S
C2013 C2008 1.425 . S
C2013 C2010 1.409 . S
C2013 C2011 1.415 . S
C2014 H2004 0.930 . S
C2014 C2012 1.419 . S
C2014 C2015 1.362 . S
C2015 H2005 0.930 . S
C2015 C2008 1.409 . S
C2015 C2014 1.362 . S
H2016 C2022 0.930 . S
H2017 C2025 0.930 . S
H2018 C2026 0.930 . S
H2019 C2027 0.930 . S
H2020 C2030 0.930 . S
H2021 C2031 0.930 . S
C2022 H2016 0.930 . S
C2022 C2023 1.355 . S
C2022 C2024 1.415 . S
C2023 C2022 1.355 . S
C2023 C2025 1.419 . S
C2024 C2022 1.415 . S
C2024 C2029 1.425 . S
C2024 C2031 1.409 . S
C2025 H2017 0.930 . S
C2025 C2023 1.419 . S
C2025 C2026 1.362 . S
C2026 H2018 0.930 . S
C2026 C2025 1.362 . S
C2026 C2029 1.409 . S
C2027 H2019 0.930 . S
C2027 C2028 1.355 . S
C2027 C2029 1.415 . S
C2028 C2027 1.355 . S
C2028 C2030 1.419 . S
C2029 C2024 1.425 . S
C2029 C2026 1.409 . S
C2029 C2027 1.415 . S
C2030 H2020 0.930 . S
C2030 C2028 1.419 . S
C2030 C2031 1.362 . S
C2031 H2021 0.930 . S
C2031 C2024 1.409 . S
C2031 C2030 1.362 . S
H2032 C2038 0.930 . S
H2033 C2041 0.930 . S
H2034 C2042 0.930 . S
H2035 C2043 0.930 . S
H2036 C2046 0.930 . S
H2037 C2047 0.930 . S
C2038 H2032 0.930 . S
C2038 C2039 1.355 . S
C2038 C2040 1.415 . S
C2039 C2038 1.355 . S
C2039 C2041 1.419 . S
C2040 C2038 1.415 . S
C2040 C2045 1.425 . S
C2040 C2047 1.409 . S
C2041 H2033 0.930 . S
C2041 C2039 1.419 . S
C2041 C2042 1.362 . S
C2042 H2034 0.930 . S
C2042 C2041 1.362 . S
C2042 C2045 1.409 . S
C2043 H2035 0.930 . S
C2043 C2044 1.355 . S
C2043 C2045 1.415 1_556 S
C2044 C2043 1.355 . S
C2044 C2046 1.419 . S
C2045 C2040 1.425 . S
C2045 C2042 1.409 . S
C2045 C2043 1.415 1_554 S
C2046 H2036 0.930 . S
C2046 C2044 1.419 . S
C2046 C2047 1.362 1_556 S
C2047 H2037 0.930 . S
C2047 C2040 1.409 . S
C2047 C2046 1.362 1_554 S
H2048 C2054 0.930 . S
H2049 C2057 0.930 . S
H2050 C2058 0.930 . S
H2051 C2059 0.930 . S
H2052 C2062 0.930 . S
H2053 C2063 0.930 . S
C2054 H2048 0.930 . S
C2054 C2055 1.355 . S
C2054 C2056 1.415 . S
C2055 C2054 1.355 . S
C2055 C2057 1.419 . S
C2056 C2054 1.415 . S
C2056 C2061 1.425 . S
C2056 C2063 1.409 . S
C2057 H2049 0.930 . S
C2057 C2055 1.419 . S
C2057 C2058 1.362 . S
C2058 H2050 0.930 . S
C2058 C2057 1.362 . S
C2058 C2061 1.409 . S
C2059 H2051 0.930 . S
C2059 C2060 1.355 . S
C2059 C2061 1.415 . S
C2060 C2059 1.355 . S
C2060 C2062 1.419 . S
C2061 C2056 1.425 . S
C2061 C2058 1.409 . S
C2061 C2059 1.415 . S
C2062 H2052 0.930 . S
C2062 C2060 1.419 . S
C2062 C2063 1.362 . S
C2063 H2053 0.930 . S
C2063 C2056 1.409 . S
C2063 C2062 1.362 . S
H2064 C2070 0.930 . S
H2065 C2073 0.930 . S
H2066 C2074 0.930 . S
H2067 C2075 0.930 . S
H2068 C2078 0.930 . S
H2069 C2079 0.930 . S
C2070 H2064 0.930 . S
C2070 C2071 1.355 . S
C2070 C2072 1.415 . S
C2071 C2070 1.355 . S
C2071 C2073 1.419 . S
C2072 C2070 1.415 . S
C2072 C2077 1.425 . S
C2072 C2079 1.409 . S
C2073 H2065 0.930 . S
C2073 C2071 1.419 . S
C2073 C2074 1.362 . S
C2074 H2066 0.930 . S
C2074 C2073 1.362 . S
C2074 C2077 1.409 . S
C2075 H2067 0.930 . S
C2075 C2076 1.355 . S
C2075 C2077 1.415 . S
C2076 C2075 1.355 . S
C2076 C2078 1.419 . S
C2077 C2072 1.425 . S
C2077 C2074 1.409 . S
C2077 C2075 1.415 . S
C2078 H2068 0.930 . S
C2078 C2076 1.419 . S
C2078 C2079 1.362 . S
C2079 H2069 0.930 . S
C2079 C2072 1.409 . S
C2079 C2078 1.362 . S
H2080 C2086 0.930 . S
H2081 C2089 0.930 . S
H2082 C2090 0.930 . S
H2083 C2091 0.930 . S
H2084 C2094 0.930 . S
H2085 C2095 0.930 . S
C2086 H2080 0.930 . S
C2086 C2087 1.355 . S
C2086 C2088 1.415 . S
C2087 C2086 1.355 . S
C2087 C2089 1.419 . S
C2088 C2086 1.415 . S
C2088 C2093 1.425 . S
C2088 C2095 1.409 . S
C2089 H2081 0.930 . S
C2089 C2087 1.419 . S
C2089 C2090 1.362 . S
C2090 H2082 0.930 . S
C2090 C2089 1.362 . S
C2090 C2093 1.409 . S
C2091 H2083 0.930 . S
C2091 C2092 1.355 . S
C2091 C2093 1.415 . S
C2092 C2091 1.355 . S
C2092 C2094 1.419 . S
C2093 C2088 1.425 . S
C2093 C2090 1.409 . S
C2093 C2091 1.415 . S
C2094 H2084 0.930 . S
C2094 C2092 1.419 . S
C2094 C2095 1.362 . S
C2095 H2085 0.930 . S
C2095 C2088 1.409 . S
C2095 C2094 1.362 . S
H2096 C2102 0.930 . S
H2097 C2105 0.930 . S
H2098 C2106 0.930 . S
H2099 C2107 0.930 . S
H2100 C2110 0.930 . S
H2101 C2111 0.930 . S
C2102 H2096 0.930 . S
C2102 C2103 1.355 . S
C2102 C2104 1.415 . S
C2103 C2102 1.355 . S
C2103 C2105 1.419 . S
C2104 C2102 1.415 . S
C2104 C2109 1.425 . S
C2104 C2111 1.409 . S
C2105 H2097 0.930 . S
C2105 C2103 1.419 . S
C2105 C2106 1.362 . S
C2106 H2098 0.930 . S
C2106 C2105 1.362 . S
C2106 C2109 1.409 . S
C2107 H2099 0.930 . S
C2107 C2108 1.355 . S
C2107 C2109 1.415 . S
C2108 C2107 1.355 . S
C2108 C2110 1.419 . S
C2109 C2104 1.425 . S
C2109 C2106 1.409 . S
C2109 C2107 1.415 . S
C2110 H2100 0.930 . S
C2110 C2108 1.419 . S
C2110 C2111 1.362 . S
C2111 H2101 0.930 . S
C2111 C2104 1.409 . S
C2111 C2110 1.362 . S
H2112 C2118 0.930 . S
H2113 C2121 0.930 . S
H2114 C2122 0.930 . S
H2115 C2123 0.930 . S
H2116 C2126 0.930 . S
H2117 C2127 0.933 . S
C2118 H2112 0.930 . S
C2118 C2119 1.355 . S
C2118 C2120 1.415 . S
C2119 C2118 1.355 . S
C2119 C2121 1.419 . S
C2120 C2118 1.415 . S
C2120 C2125 1.425 . S
C2120 C2127 1.420 . S
C2121 H2113 0.930 . S
C2121 C2119 1.419 . S
C2121 C2122 1.362 . S
C2122 H2114 0.930 . S
C2122 C2121 1.362 . S
C2122 C2125 1.409 . S
C2123 H2115 0.930 . S
C2123 C2124 1.355 . S
C2123 C2125 1.415 1_545 S
C2124 C2123 1.355 . S
C2124 C2126 1.419 . S
C2125 C2120 1.425 . S
C2125 C2122 1.409 . S
C2125 C2123 1.415 1_565 S
C2126 H2116 0.930 . S
C2126 C2124 1.419 . S
C2126 C2127 1.349 1_545 S
C2127 H2117 0.933 . S
C2127 C2120 1.420 . S
C2127 C2126 1.349 1_565 S
H2128 C2134 0.930 . S
H2129 C2137 0.930 . S
H2130 C2138 0.930 . S
H2131 C2139 0.930 . S
H2132 C2142 0.930 . S
H2133 C2143 0.930 . S
C2134 H2128 0.930 . S
C2134 C2135 1.355 . S
C2134 C2136 1.415 . S
C2135 C2134 1.355 . S
C2135 C2137 1.419 . S
C2136 C2134 1.415 . S
C2136 C2141 1.425 . S
C2136 C2143 1.409 . S
C2137 H2129 0.930 . S
C2137 C2135 1.419 . S
C2137 C2138 1.362 . S
C2138 H2130 0.930 . S
C2138 C2137 1.362 . S
C2138 C2141 1.409 . S
C2139 H2131 0.930 . S
C2139 C2140 1.355 . S
C2139 C2141 1.415 . S
C2140 C2139 1.355 . S
C2140 C2142 1.419 . S
C2141 C2136 1.425 . S
C2141 C2138 1.409 . S
C2141 C2139 1.415 . S
C2142 H2132 0.930 . S
C2142 C2140 1.419 . S
C2142 C2143 1.362 . S
C2143 H2133 0.930 . S
C2143 C2136 1.409 . S
C2143 C2142 1.362 . S
H2144 C2150 0.930 . S
H2145 C2153 0.930 . S
H2146 C2154 0.930 . S
H2147 C2155 0.930 . S
H2148 C2158 0.930 . S
H2149 C2159 0.930 . S
C2150 H2144 0.930 . S
C2150 C2151 1.355 . S
C2150 C2152 1.415 . S
C2151 C2150 1.355 . S
C2151 C2153 1.419 . S
C2152 C2150 1.415 . S
C2152 C2157 1.425 . S
C2152 C2159 1.409 . S
C2153 H2145 0.930 . S
C2153 C2151 1.419 . S
C2153 C2154 1.362 . S
C2154 H2146 0.930 . S
C2154 C2153 1.362 . S
C2154 C2157 1.409 . S
C2155 H2147 0.930 . S
C2155 C2156 1.355 . S
C2155 C2157 1.415 . S
C2156 C2155 1.355 . S
C2156 C2158 1.419 . S
C2157 C2152 1.425 . S
C2157 C2154 1.409 . S
C2157 C2155 1.415 . S
C2158 H2148 0.930 . S
C2158 C2156 1.419 . S
C2158 C2159 1.362 . S
C2159 H2149 0.930 . S
C2159 C2152 1.409 . S
C2159 C2158 1.362 . S
H2160 C2166 0.930 . S
H2161 C2169 0.930 . S
H2162 C2170 0.930 . S
H2163 C2171 0.930 . S
H2164 C2174 0.930 . S
H2165 C2175 0.930 . S
C2166 H2160 0.930 . S
C2166 C2167 1.355 . S
C2166 C2168 1.415 . S
C2167 C2166 1.355 . S
C2167 C2169 1.419 . S
C2168 C2166 1.415 . S
C2168 C2173 1.425 . S
C2168 C2175 1.409 . S
C2169 H2161 0.930 . S
C2169 C2167 1.419 . S
C2169 C2170 1.362 . S
C2170 H2162 0.930 . S
C2170 C2169 1.362 . S
C2170 C2173 1.409 . S
C2171 H2163 0.930 . S
C2171 C2172 1.355 . S
C2171 C2173 1.415 . S
C2172 C2171 1.355 . S
C2172 C2174 1.419 . S
C2173 C2168 1.425 . S
C2173 C2170 1.409 . S
C2173 C2171 1.415 . S
C2174 H2164 0.930 . S
C2174 C2172 1.419 . S
C2174 C2175 1.362 . S
C2175 H2165 0.930 . S
C2175 C2168 1.409 . S
C2175 C2174 1.362 . S
H2176 C2182 0.930 . S
H2177 C2185 0.930 . S
H2178 C2186 0.930 . S
H2179 C2187 0.930 . S
H2180 C2190 0.930 . S
H2181 C2191 0.930 . S
C2182 H2176 0.930 . S
C2182 C2183 1.355 . S
C2182 C2184 1.415 1_565 S
C2183 C2182 1.355 . S
C2183 C2185 1.419 . S
C2184 C2182 1.415 1_545 S
C2184 C2189 1.425 . S
C2184 C2191 1.409 . S
C2185 H2177 0.930 . S
C2185 C2183 1.419 . S
C2185 C2186 1.362 1_565 S
C2186 H2178 0.930 . S
C2186 C2185 1.362 1_545 S
C2186 C2189 1.409 . S
C2187 H2179 0.930 . S
C2187 C2188 1.355 . S
C2187 C2189 1.415 . S
C2188 C2187 1.355 . S
C2188 C2190 1.419 . S
C2189 C2184 1.425 . S
C2189 C2186 1.409 . S
C2189 C2187 1.415 . S
C2190 H2180 0.930 . S
C2190 C2188 1.419 . S
C2190 C2191 1.362 . S
C2191 H2181 0.930 . S
C2191 C2184 1.409 . S
C2191 C2190 1.362 . S
H2192 C2198 0.930 . S
H2193 C2201 0.930 . S
H2194 C2202 0.930 . S
H2195 C2203 0.930 . S
H2196 C2206 0.930 . S
H2197 C2207 0.930 . S
C2198 H2192 0.930 . S
C2198 C2199 1.355 . S
C2198 C2200 1.415 . S
C2199 C2198 1.355 . S
C2199 C2201 1.419 . S
C2200 C2198 1.415 . S
C2200 C2205 1.425 . S
C2200 C2207 1.409 . S
C2201 H2193 0.930 . S
C2201 C2199 1.419 . S
C2201 C2202 1.362 . S
C2202 H2194 0.930 . S
C2202 C2201 1.362 . S
C2202 C2205 1.409 . S
C2203 H2195 0.930 . S
C2203 C2204 1.355 . S
C2203 C2205 1.415 1_545 S
C2204 C2203 1.355 . S
C2204 C2206 1.419 . S
C2205 C2200 1.425 . S
C2205 C2202 1.409 . S
C2205 C2203 1.415 1_565 S
C2206 H2196 0.930 . S
C2206 C2204 1.419 . S
C2206 C2207 1.362 1_545 S
C2207 H2197 0.930 . S
C2207 C2200 1.409 . S
C2207 C2206 1.362 1_565 S
C679 C591 1.409 . S
C684 C3 1.413 . S
C695 C23 1.405 . S
C700 C217 1.416 . S
C711 C31 1.403 . S
C716 C563 1.404 . S
C727 C51 1.418 . S
C732 C245 1.402 . S
C743 C623 1.416 . S
C748 C63 1.372 . S
C759 C78 1.412 . S
C764 C297 1.417 . S
C775 C91 1.393 . S
C780 C651 1.392 . S
C791 C106 1.365 . S
C796 C269 1.345 . S
C807 C50 1.372 . S
C812 C661 1.357 . S
C823 C7 1.343 . S
C828 C357 1.398 . S
C839 C371 1.391 . S
C844 C22 1.379 . S
C855 C35 1.368 . S
C860 C339 1.371 . S
C871 C79 1.427 . S
C876 C343 1.421 . S
C887 C87 1.409 . S
C892 C665 1.415 . S
C903 C107 1.422 . S
C908 C353 1.426 . S
C919 C59 1.415 . S
C924 C367 1.402 . S
C935 C549 1.387 . S
C940 C120 1.385 . S
C951 C134 1.379 . S
C956 C273 1.392 . S
C967 C121 1.393 . S
C972 C619 1.408 . S
C983 C301 1.412 . S
C988 C149 1.430 . S
C999 C311 1.357 . S
C1004 C162 1.378 . S
C1015 C577 1.394 . S
C1020 C177 1.434 . S
C1031 C595 1.406 . S
C1036 C191 1.421 . S
C1047 C567 1.419 . S
C1052 C205 1.439 . S
C1063 C465 1.345 . S
C1068 C218 1.345 . S
C1079 C233 1.426 . S
C1084 C9 1.340 . S
C1095 C246 1.355 . S
C1100 C437 1.331 . S
C1111 C37 1.421 . S
C1116 C261 1.418 . S
C1127 C275 1.372 . S
C1132 C497 1.356 . S
C1143 C92 1.388 . S
C1148 C288 1.371 . S
C1159 C303 1.361 . S
C1164 C525 1.368 . S
C1175 C64 1.425 . S
C1180 C316 1.428 . S
C1191 C535 1.391 . S
C1196 C260 1.386 . S
C1207 C219 1.383 . S
C1212 C143 1.389 . S
C1223 C161 1.382 . S
C1228 C232 1.391 . S
C1239 C133 1.379 . S
C1244 C247 1.384 . S
C1255 C129 1.382 . S
C1260 C289 1.421 . S
C1271 C302 1.365 . S
C1276 C539 1.356 . S
C1287 C147 1.428 . S
C1292 C317 1.416 . S
C1303 C274 1.328 . S
C1308 C157 1.305 . S
C1319 C330 1.374 . S
C1324 C428 1.387 . S
C1335 C345 1.444 . S
C1340 C65 1.404 . S
C1351 C331 1.389 . S
C1356 C493 1.406 . S
C1367 C358 1.402 . S
C1372 C93 1.344 . S
C1383 C372 1.386 . S
C1388 C101 1.392 . S
C1399 C456 1.421 . S
C1404 C387 1.403 . S
C1415 C401 1.396 . S
C1420 C469 1.379 . S
C1431 C415 1.417 . S
C1436 C441 1.419 . S
C1447 C423 1.414 . S
C1452 C255 1.398 . S
C1463 C443 1.409 . S
C1468 C553 1.393 . S
C1479 C227 1.387 . S
C1484 C451 1.403 . S
C1495 C471 1.402 . S
C1500 C581 1.413 . S
C1511 C483 1.378 . S
C1516 C287 1.391 . S
C1527 C633 1.362 . S
C1532 C498 1.366 . S
C1543 C511 1.398 . S
C1548 C315 1.391 . S
C1559 C605 1.372 . S
C1564 C526 1.372 . S
C1575 C325 1.374 . S
C1580 C470 1.400 . S
C1591 C413 1.401 . S
C1596 C427 1.344 . S
C1607 C442 1.408 . S
C1612 C385 1.398 . S
C1623 C399 1.403 . S
C1628 C455 1.347 . S
C1639 C499 1.432 . S
C1644 C395 1.391 . S
C1655 C329 1.403 . S
C1660 C507 1.411 . S
C1671 C527 1.417 . S
C1676 C409 1.424 . S
C1687 C479 1.410 . S
C1692 C381 1.365 . S
C1703 C540 1.403 . S
C1708 C213 1.403 . S
C1719 C190 1.377 . S
C1724 C609 1.389 . S
C1735 C283 1.395 . S
C1740 C541 1.407 . S
C1751 C637 1.404 . S
C1756 C204 1.404 . S
C1767 C647 1.340 . S
C1772 C176 1.367 . S
C1783 C163 1.422 . S
C1788 C241 1.420 . S
C1799 C135 1.422 . S
C1804 C259 1.430 . S
C1815 C231 1.405 . S
C1820 C148 1.390 . S
C1831 C554 1.370 . S
C1836 C45 1.371 . S
C1847 C429 1.350 . S
C1852 C569 1.432 . S
C1863 C582 1.385 . S
C1868 C17 1.367 . S
C1879 C597 1.419 . S
C1884 C457 1.390 . S
C1895 C77 1.377 . S
C1900 C611 1.378 . S
C1911 C624 1.385 . S
C1916 C512 1.401 . S
C1927 C639 1.368 . S
C1932 C105 1.383 . S
C1943 C484 1.381 . S
C1948 C652 1.379 . S
C1959 C596 1.370 . S
C1964 C115 1.345 . S
C1975 C203 1.372 . S
C1980 C555 1.391 . S
C1991 C175 1.379 . S
C1996 C568 1.390 . S
C2007 C583 1.388 . S
C2012 C189 1.401 . S
C2023 C625 1.411 . S
C2028 C185 1.396 . S
C2039 C119 1.359 . S
C2044 C638 1.348 . S
C2055 C199 1.404 . S
C2060 C653 1.411 . S
C2071 C610 1.342 . S
C2076 C171 1.350 . S
C2087 C8 1.401 . S
C2092 C666 1.388 . S
C2103 C400 1.387 . S
C2108 C485 1.355 . S
C2119 C73 1.413 . S
C2124 C667 1.406 . S
C2135 C513 1.345 . S
C2140 C414 1.395 . S
C2151 C521 1.359 . S
C2156 C386 1.358 . S
C2167 C373 1.400 . S
C2172 C36 1.412 . S
C2183 C344 1.353 . S
C2188 C49 1.366 . S
C2199 C21 1.408 . S
C2204 C359 1.427 . S
