# Generated by pormake.
# Topology zft, (5)-cn, num edge types: 1
# Building blocks:
#     Node 0, Type 0, BuildingBlock: BEQFEK_clean_sbu_0, # of connection points: 5
#     Node 1, Type 0, BuildingBlock: BEQFEK_clean_sbu_0, # of connection points: 5
#     Node 2, Type 0, BuildingBlock: BEQFEK_clean_sbu_0, # of connection points: 5
#     Node 3, Type 0, BuildingBlock: BEQFEK_clean_sbu_0, # of connection points: 5
#     Node 4, Type 0, BuildingBlock: BEQFEK_clean_sbu_0, # of connection points: 5
#     Node 5, Type 0, BuildingBlock: BEQFEK_clean_sbu_0, # of connection points: 5
#     Node 6, Type 0, BuildingBlock: BEQFEK_clean_sbu_0, # of connection points: 5
#     Node 7, Type 0, BuildingBlock: BEQFEK_clean_sbu_0, # of connection points: 5
#     Edge 8, Type (0, 0), BuildingBlock: AJUNOK_clean_linker_0, # of connection points: 2
#     Edge 9, Type (0, 0), BuildingBlock: AJUNOK_clean_linker_0, # of connection points: 2
#     Edge 10, Type (0, 0), BuildingBlock: AJUNOK_clean_linker_0, # of connection points: 2
#     Edge 11, Type (0, 0), BuildingBlock: AJUNOK_clean_linker_0, # of connection points: 2
#     Edge 12, Type (0, 0), BuildingBlock: AJUNOK_clean_linker_0, # of connection points: 2
#     Edge 13, Type (0, 0), BuildingBlock: AJUNOK_clean_linker_0, # of connection points: 2
#     Edge 14, Type (0, 0), BuildingBlock: AJUNOK_clean_linker_0, # of connection points: 2
#     Edge 15, Type (0, 0), BuildingBlock: AJUNOK_clean_linker_0, # of connection points: 2
#     Edge 16, Type (0, 0), BuildingBlock: AJUNOK_clean_linker_0, # of connection points: 2
#     Edge 17, Type (0, 0), BuildingBlock: AJUNOK_clean_linker_0, # of connection points: 2
#     Edge 18, Type (0, 0), BuildingBlock: AJUNOK_clean_linker_0, # of connection points: 2
#     Edge 19, Type (0, 0), BuildingBlock: AJUNOK_clean_linker_0, # of connection points: 2
#     Edge 20, Type (0, 0), BuildingBlock: AJUNOK_clean_linker_0, # of connection points: 2
#     Edge 21, Type (0, 0), BuildingBlock: AJUNOK_clean_linker_0, # of connection points: 2
#     Edge 22, Type (0, 0), BuildingBlock: AJUNOK_clean_linker_0, # of connection points: 2
#     Edge 23, Type (0, 0), BuildingBlock: AJUNOK_clean_linker_0, # of connection points: 2
#     Edge 24, Type (0, 0), BuildingBlock: AJUNOK_clean_linker_0, # of connection points: 2
#     Edge 25, Type (0, 0), BuildingBlock: AJUNOK_clean_linker_0, # of connection points: 2
#     Edge 26, Type (0, 0), BuildingBlock: AJUNOK_clean_linker_0, # of connection points: 2
#     Edge 27, Type (0, 0), BuildingBlock: AJUNOK_clean_linker_0, # of connection points: 2
# Relax obj value: 0.044
# Max RMSD: 0.117
# Mean RMSD: 0.117
data_MOF--net-zft--node1-BEQFEK_clean_sbu_0--edge1-AJUNOK_clean_linker_0
_symmetry_space_group_name_H-M    P1
_symmetry_Int_Tables_number       1
_symmetry_cell_setting            triclinic
loop_
_symmetry_equiv_pos_as_xyz
'x, y, z'
_cell_length_a     22.105155
_cell_length_b     22.117425
_cell_length_c     40.988666
_cell_angle_alpha  89.949887
_cell_angle_beta   90.0147
_cell_angle_gamma 90.175011
loop_
_atom_site_label
_atom_site_type_symbol
_atom_site_fract_x
_atom_site_fract_y
_atom_site_fract_z
_atom_type_partial_charge
Co0 Co 0.02706 0.27493 0.19119 0.0
Co1 Co 0.13801 0.34577 0.16191 0.0
C2 C 0.01622 0.34301 0.12867 0.0
O3 O 0.99247 0.30987 0.15069 0.0
O4 O 0.07102 0.36058 0.13074 0.0
C5 C 0.90741 0.24654 0.21799 0.0
O6 O 0.88799 0.29423 0.20205 0.0
C7 C 0.20403 0.45599 0.14296 0.0
C8 C 0.29596 0.42083 0.13448 0.0
C9 C 0.26233 0.47377 0.13388 0.0
N10 N 0.20412 0.39611 0.14883 0.0
N11 N 0.25914 0.37533 0.14352 0.0
C12 C 0.14921 0.49461 0.14752 0.0
H13 H 0.11535 0.47103 0.163 0.0
H14 H 0.16174 0.53849 0.15881 0.0
H15 H 0.12813 0.50334 0.12341 0.0
C16 C 0.05722 0.35107 0.24854 0.0
N17 N 0.066 0.3342 0.21731 0.0
N18 N 0.11436 0.36187 0.2058 0.0
C19 C 0.13867 0.39611 0.22972 0.0
C20 C 0.1029 0.39078 0.25739 0.0
C21 C 0.00832 0.32653 0.27006 0.0
H22 H 0.01204 0.27657 0.27128 0.0
H23 H 0.96365 0.33769 0.25935 0.0
H24 H 0.0111 0.34541 0.2951 0.0
O25 O 0.08543 0.21113 0.17882 0.0
O26 O 0.16361 0.26016 0.1573 0.0
H27 H 0.22988 0.40559 0.21246 0.0
H28 H 0.21525 0.44328 0.25082 0.0
C29 C 0.19612 0.43166 0.22661 0.0
H30 H 0.18669 0.47441 0.21349 0.0
H31 H 0.27158 0.33014 0.14616 0.0
O32 O 0.96308 0.23259 0.21642 0.0
C33 C 0.13728 0.21102 0.16529 0.0
Co34 Co 0.2244 0.52722 0.4402 0.0
Co35 Co 0.15263 0.63841 0.41182 0.0
C36 C 0.15258 0.5149 0.37927 0.0
O37 O 0.18512 0.49132 0.40152 0.0
O38 O 0.13693 0.57037 0.38057 0.0
C39 C 0.25007 0.4101 0.46978 0.0
O40 O 0.19709 0.39333 0.45837 0.0
C41 C 0.04334 0.70372 0.39048 0.0
C42 C 0.07168 0.7991 0.39554 0.0
C43 C 0.02293 0.76276 0.38721 0.0
N44 N 0.10108 0.70516 0.40088 0.0
N45 N 0.11781 0.76236 0.40365 0.0
C46 C 0.01054 0.64669 0.38187 0.0
H47 H 0.009 0.61635 0.40344 0.0
H48 H 0.96423 0.65533 0.37267 0.0
H49 H 0.03617 0.62328 0.36249 0.0
C50 C 0.1522 0.5587 0.499 0.0
N51 N 0.16806 0.56729 0.46755 0.0
N52 N 0.13843 0.61416 0.45589 0.0
C53 C 0.10311 0.63702 0.47971 0.0
C54 C 0.11061 0.60255 0.50769 0.0
C55 C 0.17833 0.51111 0.52075 0.0
H56 H 0.22837 0.51184 0.51891 0.0
H57 H 0.16207 0.46611 0.5126 0.0
H58 H 0.16492 0.51794 0.54657 0.0
O59 O 0.28695 0.58393 0.42424 0.0
O60 O 0.23842 0.66532 0.40625 0.0
H61 H 0.08883 0.72979 0.4672 0.0
H62 H 0.03887 0.70201 0.49878 0.0
C63 C 0.06218 0.69027 0.47569 0.0
H64 H 0.02751 0.67972 0.457 0.0
H65 H 0.16059 0.77633 0.41143 0.0
O66 O 0.26855 0.46376 0.46467 0.0
C67 C 0.28728 0.63654 0.41164 0.0
Co68 Co 0.96854 0.7206 0.68965 0.0
Co69 Co 0.85867 0.64949 0.65994 0.0
C70 C 0.9825 0.64993 0.62842 0.0
O71 O 0.00547 0.68407 0.6502 0.0
O72 O 0.92728 0.6334 0.62975 0.0
C73 C 0.08631 0.75297 0.7181 0.0
O74 O 0.10876 0.70544 0.70324 0.0
C75 C 0.79346 0.53799 0.64211 0.0
C76 C 0.70164 0.57258 0.63253 0.0
C77 C 0.73535 0.51973 0.63321 0.0
N78 N 0.79336 0.59825 0.64673 0.0
N79 N 0.7384 0.61866 0.64073 0.0
C80 C 0.84768 0.49916 0.64801 0.0
H81 H 0.88183 0.52376 0.66281 0.0
H82 H 0.83431 0.45663 0.6605 0.0
H83 H 0.86857 0.4874 0.62428 0.0
C84 C 0.93584 0.64729 0.74764 0.0
N85 N 0.92822 0.6629 0.71611 0.0
N86 N 0.88079 0.63419 0.70425 0.0
C87 C 0.85649 0.59969 0.72811 0.0
C88 C 0.8907 0.60671 0.75624 0.0
C89 C 0.98579 0.67048 0.76889 0.0
H90 H 0.02987 0.66131 0.75701 0.0
H91 H 0.98526 0.64894 0.79334 0.0
H92 H 0.98127 0.72016 0.77164 0.0
O93 O 0.91077 0.78361 0.67607 0.0
O94 O 0.83215 0.7354 0.65469 0.0
H95 H 0.77811 0.55632 0.7493 0.0
H96 H 0.80926 0.51944 0.71411 0.0
C97 C 0.7991 0.56408 0.72504 0.0
H98 H 0.76657 0.58819 0.70915 0.0
H99 H 0.7259 0.66394 0.64252 0.0
O100 O 0.03029 0.7645 0.71536 0.0
C101 C 0.85877 0.78437 0.66278 0.0
Co102 Co 0.77894 0.46483 0.94034 0.0
Co103 Co 0.84907 0.35566 0.91021 0.0
C104 C 0.84472 0.47929 0.87792 0.0
O105 O 0.81394 0.50353 0.9007 0.0
O106 O 0.85991 0.42381 0.87926 0.0
C107 C 0.71405 0.57341 0.95941 0.0
O108 O 0.71778 0.58946 0.92861 0.0
C109 C 0.95802 0.29526 0.88634 0.0
C110 C 0.93172 0.19886 0.88876 0.0
C111 C 0.97936 0.23715 0.88113 0.0
N112 N 0.90076 0.29135 0.89717 0.0
N113 N 0.88513 0.23366 0.89835 0.0
C114 C 0.98971 0.35387 0.87956 0.0
H115 H 0.96237 0.38086 0.86223 0.0
H116 H 0.99359 0.38018 0.90251 0.0
H117 H 0.0351 0.34699 0.86871 0.0
C118 C 0.85679 0.43524 0.99673 0.0
N119 N 0.83889 0.42629 0.96568 0.0
N120 N 0.86718 0.37903 0.9537 0.0
C121 C 0.90335 0.35577 0.97705 0.0
C122 C 0.89802 0.39083 1.00495 0.0
C123 C 0.83188 0.48305 0.0187 0.0
H124 H 0.78343 0.47331 0.02351 0.0
H125 H 0.8349 0.52768 0.00641 0.0
H126 H 0.85649 0.48491 0.04228 0.0
O127 O 0.71537 0.40642 0.92672 0.0
O128 O 0.76442 0.32758 0.90648 0.0
H129 H 0.91265 0.26273 0.96378 0.0
H130 H 0.96275 0.28662 0.99632 0.0
C131 C 0.94119 0.30032 0.97302 0.0
H132 H 0.97712 0.3094 0.95479 0.0
H133 H 0.84287 0.21805 0.90602 0.0
O134 O 0.73764 0.52397 0.96847 0.0
C135 C 0.71522 0.35414 0.9137 0.0
Co136 Co 0.52504 0.22071 0.57252 0.0
Co137 Co 0.63665 0.14904 0.60028 0.0
C138 C 0.51337 0.1487 0.63317 0.0
O139 O 0.48877 0.1809 0.61109 0.0
O140 O 0.56907 0.13424 0.63158 0.0
C141 C 0.40632 0.25213 0.54642 0.0
O142 O 0.38627 0.20482 0.56257 0.0
C143 C 0.70088 0.03728 0.61947 0.0
C144 C 0.79456 0.07078 0.62472 0.0
C145 C 0.75912 0.01925 0.62771 0.0
N146 N 0.70208 0.09664 0.61202 0.0
N147 N 0.75831 0.11621 0.61513 0.0
C148 C 0.64457 0.99953 0.62019 0.0
H149 H 0.60364 0.02817 0.61905 0.0
H150 H 0.64396 0.96893 0.59879 0.0
H151 H 0.6437 0.97119 0.64255 0.0
C152 C 0.55627 0.14951 0.51353 0.0
N153 N 0.56512 0.16474 0.54502 0.0
N154 N 0.61214 0.13502 0.55642 0.0
C155 C 0.63483 0.10015 0.5324 0.0
C156 C 0.60009 0.10804 0.50455 0.0
C157 C 0.50599 0.17334 0.49281 0.0
H158 H 0.46211 0.16358 0.50484 0.0
H159 H 0.506 0.15272 0.46814 0.0
H160 H 0.51057 0.22314 0.49055 0.0
O161 O 0.58212 0.28298 0.58858 0.0
O162 O 0.66426 0.23455 0.60567 0.0
H163 H 0.72631 0.08854 0.54859 0.0
H164 H 0.70861 0.04976 0.51099 0.0
C165 C 0.69095 0.06285 0.53531 0.0
H166 H 0.68052 0.02117 0.54925 0.0
H167 H 0.77187 0.1608 0.61098 0.0
O168 O 0.46232 0.26517 0.54761 0.0
C169 C 0.63515 0.28337 0.60071 0.0
Co170 Co 0.27621 0.0271 0.82347 0.0
Co171 Co 0.34799 0.13961 0.8497 0.0
C172 C 0.34021 0.02145 0.88688 0.0
O173 O 0.31026 0.99409 0.86474 0.0
O174 O 0.3566 0.07626 0.88336 0.0
C175 C 0.24372 0.90835 0.79594 0.0
O176 O 0.29408 0.88705 0.80843 0.0
C177 C 0.45776 0.20137 0.87221 0.0
C178 C 0.4332 0.29764 0.86668 0.0
C179 C 0.47993 0.25972 0.87592 0.0
N180 N 0.40091 0.20472 0.8607 0.0
N181 N 0.38635 0.26237 0.85765 0.0
C182 C 0.48815 0.14324 0.88113 0.0
H183 H 0.46036 0.11909 0.89951 0.0
H184 H 0.49111 0.11392 0.85924 0.0
H185 H 0.5338 0.15068 0.8916 0.0
C186 C 0.35318 0.05146 0.76532 0.0
N187 N 0.33646 0.06225 0.79642 0.0
N188 N 0.36586 0.11007 0.80725 0.0
C189 C 0.40192 0.13132 0.78329 0.0
C190 C 0.39524 0.09475 0.75608 0.0
C191 C 0.32589 0.00364 0.7441 0.0
H192 H 0.27595 0.00838 0.74401 0.0
H193 H 0.33701 0.95855 0.75427 0.0
H194 H 0.34304 0.00652 0.71869 0.0
O195 O 0.21413 0.08813 0.83481 0.0
O196 O 0.26397 0.16924 0.85211 0.0
H197 H 0.41126 0.22574 0.79343 0.0
H198 H 0.46244 0.19827 0.76238 0.0
C199 C 0.43995 0.1872 0.78584 0.0
H200 H 0.47517 0.18035 0.80472 0.0
H201 H 0.34457 0.27761 0.8492 0.0
O202 O 0.23091 0.96386 0.7996 0.0
C203 C 0.21457 0.14198 0.84578 0.0
Co204 Co 0.46659 0.78053 0.07236 0.0
Co205 Co 0.35556 0.84528 0.1048 0.0
C206 C 0.48147 0.84476 0.13506 0.0
O207 O 0.50503 0.81587 0.11144 0.0
O208 O 0.42541 0.85817 0.13506 0.0
C209 C 0.56231 0.70105 0.05272 0.0
O210 O 0.55495 0.67847 0.08213 0.0
C211 C 0.29286 0.95493 0.12636 0.0
C212 C 0.19836 0.92334 0.13105 0.0
C213 C 0.23471 0.97428 0.13361 0.0
N214 N 0.29065 0.89561 0.11915 0.0
N215 N 0.23409 0.87695 0.1222 0.0
C216 C 0.35018 0.99116 0.1276 0.0
H217 H 0.36534 0.00155 0.10241 0.0
H218 H 0.34397 0.03393 0.1413 0.0
H219 H 0.38633 0.96455 0.13941 0.0
C220 C 0.42985 0.85794 0.01704 0.0
N221 N 0.42327 0.83887 0.04805 0.0
N222 N 0.37566 0.86509 0.061 0.0
C223 C 0.34987 0.90105 0.0383 0.0
C224 C 0.38367 0.89786 0.00983 0.0
C225 C 0.4804 0.83937 0.9951 0.0
H226 H 0.4749 0.79087 0.98883 0.0
H227 H 0.52395 0.84513 0.0082 0.0
H228 H 0.48151 0.86646 0.97232 0.0
O229 O 0.41223 0.7141 0.08703 0.0
O230 O 0.33065 0.75877 0.10773 0.0
H231 H 0.25893 0.90534 0.05642 0.0
H232 H 0.27115 0.94633 0.01882 0.0
C233 C 0.29136 0.93394 0.04269 0.0
H234 H 0.29956 0.97599 0.05669 0.0
H235 H 0.21974 0.83267 0.11785 0.0
O236 O 0.52958 0.74517 0.04388 0.0
C237 C 0.36012 0.71125 0.1003 0.0
Co238 Co 0.72367 0.97009 0.32309 0.0
Co239 Co 0.65338 0.8583 0.35139 0.0
C240 C 0.65052 0.98119 0.38368 0.0
O241 O 0.68385 0.00581 0.36203 0.0
O242 O 0.63613 0.92548 0.38194 0.0
C243 C 0.74945 0.08836 0.29407 0.0
O244 O 0.69746 0.10571 0.30637 0.0
C245 C 0.54241 0.79297 0.36914 0.0
C246 C 0.57623 0.7003 0.37687 0.0
C247 C 0.52375 0.73466 0.37736 0.0
N248 N 0.60246 0.79237 0.36379 0.0
N249 N 0.62246 0.73692 0.36867 0.0
C250 C 0.50425 0.84812 0.36466 0.0
H251 H 0.52801 0.88174 0.34911 0.0
H252 H 0.46006 0.83605 0.35354 0.0
H253 H 0.49597 0.8692 0.3888 0.0
C254 C 0.65082 0.938 0.26441 0.0
N255 N 0.66713 0.9295 0.2958 0.0
N256 N 0.63941 0.88105 0.30718 0.0
C257 C 0.60571 0.85654 0.28309 0.0
C258 C 0.61141 0.89217 0.25544 0.0
C259 C 0.67439 0.98758 0.24305 0.0
H260 H 0.72456 0.98715 0.24332 0.0
H261 H 0.65915 0.03173 0.25281 0.0
H262 H 0.65818 0.98271 0.21755 0.0
O263 O 0.78778 0.91304 0.33778 0.0
O264 O 0.73873 0.83342 0.35758 0.0
H265 H 0.59555 0.76553 0.3005 0.0
H266 H 0.55921 0.77998 0.26173 0.0
C267 C 0.56996 0.79922 0.28604 0.0
H268 H 0.52676 0.8088 0.29869 0.0
H269 H 0.66758 0.72403 0.36619 0.0
O270 O 0.76692 0.03425 0.29844 0.0
C271 C 0.78798 0.86092 0.35108 0.0
C272 C 0.07684 0.46659 0.30004 0.0
C273 C 0.11327 0.41855 0.28962 0.0
C274 C 0.08874 0.49642 0.32955 0.0
C275 C 0.13704 0.47875 0.34985 0.0
H276 H 0.03986 0.48212 0.28487 0.0
H277 H 0.06022 0.53399 0.33626 0.0
S278 S 0.24342 0.35242 0.33364 0.0
N279 N 0.19755 0.35253 0.30184 0.0
N280 N 0.22015 0.40785 0.35747 0.0
C281 C 0.17242 0.42902 0.34 0.0
C282 C 0.1605 0.39916 0.30981 0.0
C283 C 0.06352 0.67383 0.58775 0.0
C284 C 0.01888 0.63363 0.59937 0.0
C285 C 0.09371 0.66304 0.55823 0.0
C286 C 0.08109 0.6112 0.53966 0.0
H287 H 0.0736 0.71512 0.6009 0.0
H288 H 0.12651 0.69584 0.5496 0.0
S289 S 0.97225 0.48952 0.56027 0.0
N290 N 0.96608 0.53834 0.59055 0.0
N291 N 0.02388 0.51782 0.53539 0.0
C292 C 0.03856 0.56951 0.55149 0.0
C293 C 0.00713 0.58082 0.58127 0.0
C294 C 0.87532 0.48263 0.81921 0.0
C295 C 0.85946 0.51408 0.84789 0.0
C296 C 0.88555 0.51312 0.78977 0.0
C297 C 0.88141 0.57625 0.78794 0.0
H298 H 0.87851 0.43377 0.81919 0.0
H299 H 0.89666 0.4871 0.7682 0.0
S300 S 0.8431 0.68056 0.85542 0.0
N301 N 0.84106 0.61271 0.87229 0.0
N302 N 0.8613 0.66977 0.81677 0.0
C303 C 0.86679 0.60862 0.81626 0.0
C304 C 0.85556 0.5776 0.84628 0.0
C305 C 0.97282 0.41671 0.04827 0.0
C306 C 0.92531 0.3799 0.03723 0.0
C307 C 1.00083 0.4055 0.07837 0.0
C308 C 0.98166 0.35756 0.09863 0.0
H309 H 0.98912 0.45365 0.03325 0.0
H310 H 0.03826 0.43424 0.08562 0.0
S311 S 0.85643 0.25015 0.08068 0.0
N312 N 0.85863 0.29533 0.0486 0.0
N313 N 0.91034 0.2742 0.10543 0.0
C314 C 0.93267 0.32163 0.08805 0.0
C315 C 0.90479 0.33276 0.05723 0.0
C316 C 0.60317 0.01478 0.47078 0.0
C317 C 0.6082 0.07786 0.47274 0.0
C318 C 0.6146 0.98435 0.4415 0.0
C319 C 0.63258 0.01586 0.41315 0.0
H320 H 0.59106 0.9887 0.49222 0.0
H321 H 0.61117 0.93549 0.44146 0.0
S322 S 0.65022 0.18238 0.4058 0.0
N323 N 0.63018 0.17148 0.44419 0.0
N324 N 0.65254 0.11458 0.38897 0.0
C325 C 0.63652 0.0794 0.41477 0.0
C326 C 0.62412 0.11034 0.44461 0.0
C327 C 0.46999 0.0706 0.71248 0.0
C328 C 0.42087 0.10512 0.72333 0.0
C329 C 0.49849 0.08377 0.68271 0.0
C330 C 0.4783 0.13149 0.66266 0.0
H331 H 0.48753 0.03439 0.72754 0.0
H332 H 0.5373 0.05699 0.67564 0.0
S333 S 0.34886 0.23319 0.68025 0.0
N334 N 0.35163 0.18719 0.71197 0.0
N335 N 0.40421 0.21192 0.65579 0.0
C336 C 0.42755 0.16485 0.67296 0.0
C337 C 0.39913 0.15172 0.70341 0.0
C338 C 0.36322 0.89713 0.94984 0.0
C339 C 0.37306 0.92986 0.97873 0.0
C340 C 0.3529 0.92697 0.92013 0.0
C341 C 0.35306 0.99056 0.91827 0.0
H342 H 0.36293 0.84815 0.95032 0.0
H343 H 0.34498 0.90002 0.89848 0.0
S344 S 0.37738 0.09633 0.98758 0.0
N345 N 0.38274 0.0284 1.00403 0.0
N346 N 0.36387 0.08503 0.94844 0.0
C347 C 0.36344 0.0236 0.94719 0.0
C348 C 0.3732 0.9931 0.97738 0.0
C349 C 0.53057 0.91625 0.2152 0.0
C350 C 0.58208 0.88278 0.22353 0.0
C351 C 0.49913 0.90467 0.18613 0.0
C352 C 0.51864 0.85969 0.16419 0.0
H353 H 0.51364 0.95055 0.23168 0.0
H354 H 0.4588 0.93068 0.18107 0.0
S355 S 0.65295 0.76101 0.17508 0.0
N356 N 0.6524 0.80415 0.20795 0.0
N357 N 0.59426 0.78241 0.153 0.0
C358 C 0.57144 0.82712 0.17206 0.0
C359 C 0.6029 0.83863 0.20184 0.0
C360 C 0.17255 0.04323 0.16788 0.0
C361 C 0.21341 0.03573 0.14197 0.0
C362 C 0.14927 0.10028 0.17564 0.0
C363 C 0.16593 0.15211 0.15776 0.0
H364 H 0.15833 0.00459 0.18226 0.0
H365 H 0.11769 0.10367 0.19576 0.0
S366 S 0.26729 0.15565 0.08558 0.0
N367 N 0.26616 0.08398 0.09685 0.0
N368 N 0.22401 0.19161 0.11199 0.0
C369 C 0.20674 0.14518 0.13167 0.0
C370 C 0.22996 0.08687 0.12358 0.0
C371 C 0.41804 0.74659 0.40019 0.0
C372 C 0.46198 0.71084 0.38444 0.0
C373 C 0.36071 0.72307 0.40813 0.0
C374 C 0.34597 0.66251 0.40145 0.0
H375 H 0.42825 0.79242 0.40748 0.0
H376 H 0.32853 0.7518 0.42058 0.0
S377 S 0.44257 0.55071 0.35899 0.0
N378 N 0.48458 0.61243 0.36089 0.0
N379 N 0.37816 0.56802 0.377 0.0
C380 C 0.38896 0.62648 0.38551 0.0
C381 C 0.44664 0.65061 0.37684 0.0
C382 C 0.76182 0.90578 0.62276 0.0
C383 C 0.78098 0.95904 0.63851 0.0
C384 C 0.78571 0.84915 0.6314 0.0
C385 C 0.83016 0.84377 0.65584 0.0
H386 H 0.72994 0.90786 0.60279 0.0
H387 H 0.77068 0.80962 0.61804 0.0
S388 S 0.89187 0.96923 0.70626 0.0
N389 N 0.8442 0.00241 0.68099 0.0
N390 N 0.88939 0.89662 0.6971 0.0
C391 C 0.84845 0.89665 0.67233 0.0
C392 C 0.82396 0.95407 0.66362 0.0
C393 C 0.546 0.32481 0.9104 0.0
C394 C 0.54064 0.27968 0.88651 0.0
C395 C 0.60275 0.3473 0.91968 0.0
C396 C 0.65636 0.3257 0.90527 0.0
H397 H 0.50591 0.34314 0.9219 0.0
H398 H 0.60447 0.38242 0.93806 0.0
S399 S 0.66591 0.21042 0.8396 0.0
N400 N 0.59284 0.21641 0.84722 0.0
N401 N 0.69983 0.25742 0.86504 0.0
C402 C 0.65145 0.28026 0.88131 0.0
C403 C 0.59351 0.25769 0.87176 0.0
C404 C 0.72257 0.35579 0.60424 0.0
C405 C 0.66158 0.34207 0.61054 0.0
C406 C 0.74666 0.41303 0.61179 0.0
C407 C 0.711 0.45799 0.62671 0.0
H408 H 0.75128 0.32283 0.59238 0.0
H409 H 0.79287 0.42235 0.60481 0.0
S410 S 0.54987 0.44162 0.65109 0.0
N411 N 0.56682 0.37638 0.63392 0.0
N412 N 0.61221 0.48272 0.64921 0.0
C413 C 0.65033 0.44372 0.63398 0.0
C414 C 0.62567 0.38608 0.62574 0.0
C415 C 0.10296 0.15117 0.83762 0.0
C416 C 0.15605 0.17131 0.85326 0.0
C417 C 0.04614 0.17385 0.84635 0.0
C418 C 0.04028 0.21755 0.87096 0.0
H419 H 0.10516 0.11697 0.81875 0.0
H420 H 0.00638 0.15663 0.83394 0.0
S421 S 0.16421 0.2821 0.92113 0.0
N422 N 0.19864 0.23641 0.89532 0.0
N423 N 0.09149 0.2776 0.91225 0.0
C424 C 0.09273 0.23804 0.8869 0.0
C425 C 0.15074 0.2154 0.87784 0.0
C426 C 0.27386 0.63769 0.1042 0.0
C427 C 0.33533 0.65122 0.10903 0.0
C428 C 0.25033 0.58035 0.112 0.0
C429 C 0.28694 0.53505 0.12599 0.0
H430 H 0.24408 0.67113 0.09353 0.0
H431 H 0.20353 0.57153 0.10614 0.0
S432 S 0.45072 0.55015 0.14531 0.0
N433 N 0.43229 0.61584 0.12906 0.0
N434 N 0.38804 0.5094 0.14516 0.0
C435 C 0.34851 0.54883 0.13133 0.0
C436 C 0.37262 0.60657 0.12264 0.0
C437 C 0.90064 0.85414 0.34528 0.0
C438 C 0.84688 0.83293 0.35986 0.0
C439 C 0.9572 0.83057 0.35404 0.0
C440 C 0.96227 0.78473 0.37761 0.0
H441 H 0.89919 0.88943 0.32695 0.0
H442 H 0.99734 0.84837 0.34224 0.0
S443 S 0.83662 0.71713 0.42536 0.0
N444 N 0.80307 0.76494 0.40029 0.0
N445 N 0.90962 0.72208 0.41723 0.0
C446 C 0.90926 0.76365 0.39279 0.0
C447 C 0.85152 0.78727 0.38373 0.0
C448 C 0.84844 0.11492 0.26839 0.0
C449 C 0.78801 0.1306 0.27495 0.0
C450 C 0.88633 0.15292 0.25024 0.0
C451 C 0.8655 0.20821 0.23751 0.0
H452 H 0.86702 0.07287 0.27746 0.0
H453 H 0.93239 0.13831 0.246 0.0
S454 S 0.71078 0.27057 0.24751 0.0
N455 N 0.70888 0.20551 0.26727 0.0
N456 N 0.7801 0.27692 0.23288 0.0
C457 C 0.8051 0.22465 0.24384 0.0
C458 C 0.76645 0.18595 0.26262 0.0
C459 C 0.3869 0.34446 0.51287 0.0
C460 C 0.36484 0.29054 0.52682 0.0
C461 C 0.34943 0.38238 0.49452 0.0
C462 C 0.28824 0.36795 0.48901 0.0
H463 H 0.43361 0.35802 0.51626 0.0
H464 H 0.36892 0.42335 0.48448 0.0
S465 S 0.20767 0.23198 0.51996 0.0
N466 N 0.27742 0.22457 0.53377 0.0
N467 N 0.20703 0.29582 0.49906 0.0
C468 C 0.26544 0.314 0.50258 0.0
C469 C 0.30366 0.27539 0.52154 0.0
C470 C 0.18483 0.77526 0.74624 0.0
C471 C 0.1255 0.7929 0.73823 0.0
C472 C 0.22253 0.81239 0.76525 0.0
C473 C 0.20259 0.86888 0.77672 0.0
H474 H 0.20238 0.73231 0.73788 0.0
H475 H 0.26789 0.79691 0.77063 0.0
S476 S 0.05082 0.93619 0.76287 0.0
N477 N 0.04846 0.87082 0.74358 0.0
N478 N 0.11904 0.94028 0.77904 0.0
C479 C 0.14325 0.887 0.76897 0.0
C480 C 0.10481 0.84912 0.74983 0.0
C481 C 0.66723 0.58554 0.01455 0.0
C482 C 0.67883 0.60944 0.98327 0.0
C483 C 0.6309 0.61623 0.03704 0.0
C484 C 0.60459 0.67222 0.02929 0.0
H485 H 0.68521 0.54197 0.02164 0.0
H486 H 0.62234 0.595 0.06041 0.0
S487 S 0.62574 0.75753 0.95191 0.0
N488 N 0.6643 0.69455 0.94653 0.0
N489 N 0.59666 0.75258 0.98888 0.0
C490 C 0.61771 0.69781 0.99856 0.0
C491 C 0.6546 0.66637 0.97556 0.0
loop_
_geom_bond_atom_site_label_1
_geom_bond_atom_site_label_2
_geom_bond_distance
_geom_bond_site_symmetry_2
_ccdc_geom_bond_type
Co0 O3 1.970 1_455 S
Co0 N17 1.989 . S
Co0 O25 1.967 . S
Co0 O32 1.920 1_455 S
Co1 O4 1.966 . S
Co1 N10 2.022 . S
Co1 N18 1.993 . S
Co1 O26 1.941 . S
C2 O3 1.258 1_455 S
C2 O4 1.263 . S
O3 Co0 1.970 1_655 S
O3 C2 1.258 1_655 S
O4 Co1 1.966 . S
O4 C2 1.263 . S
C5 O6 1.235 . S
C5 O32 1.289 . S
O6 C5 1.235 . S
C7 C9 1.400 . S
C7 N10 1.351 . S
C7 C12 1.501 . S
C8 C9 1.387 . S
C8 N11 1.341 . S
C9 C7 1.400 . S
C9 C8 1.387 . S
N10 Co1 2.022 . S
N10 C7 1.351 . S
N10 N11 1.365 . S
N11 C8 1.341 . S
N11 N10 1.365 . S
N11 H31 0.862 . S
C12 C7 1.501 . S
C12 H13 0.961 . S
C12 H14 0.961 . S
C12 H15 0.960 . S
H13 C12 0.961 . S
H14 C12 0.961 . S
H15 C12 0.960 . S
C16 N17 1.342 . S
C16 C20 1.401 . S
C16 C21 1.499 . S
N17 Co0 1.989 . S
N17 C16 1.342 . S
N17 N18 1.388 . S
N18 Co1 1.993 . S
N18 N17 1.388 . S
N18 C19 1.346 . S
C19 N18 1.346 . S
C19 C20 1.396 . S
C19 C29 1.510 . S
C20 C16 1.401 . S
C20 C19 1.396 . S
C21 C16 1.499 . S
C21 H22 0.959 . S
C21 H23 0.960 1_455 S
C21 H24 0.961 . S
H22 C21 0.959 . S
H23 C21 0.960 1_655 S
H24 C21 0.961 . S
O25 Co0 1.967 . S
O25 C33 1.258 . S
O26 Co1 1.941 . S
O26 C33 1.266 . S
H27 C29 0.959 . S
H28 C29 0.961 . S
C29 C19 1.510 . S
C29 H27 0.959 . S
C29 H28 0.961 . S
C29 H30 0.960 . S
H30 C29 0.960 . S
H31 N11 0.862 . S
O32 Co0 1.920 1_655 S
O32 C5 1.289 . S
C33 O25 1.258 . S
C33 O26 1.266 . S
Co34 O37 1.970 . S
Co34 N51 1.989 . S
Co34 O59 1.967 . S
Co34 O66 1.920 . S
Co35 O38 1.966 . S
Co35 N44 2.022 . S
Co35 N52 1.993 . S
Co35 O60 1.941 . S
C36 O37 1.258 . S
C36 O38 1.263 . S
O37 Co34 1.970 . S
O37 C36 1.258 . S
O38 Co35 1.966 . S
O38 C36 1.263 . S
C39 O40 1.235 . S
C39 O66 1.289 . S
O40 C39 1.235 . S
C41 C43 1.400 . S
C41 N44 1.351 1_655 S
C41 C46 1.501 . S
C42 C43 1.387 . S
C42 N45 1.341 1_655 S
C43 C41 1.400 . S
C43 C42 1.387 . S
N44 Co35 2.022 . S
N44 C41 1.351 1_455 S
N44 N45 1.365 . S
N45 C42 1.341 1_455 S
N45 N44 1.365 . S
N45 H65 0.862 . S
C46 C41 1.501 . S
C46 H47 0.961 1_655 S
C46 H48 0.961 . S
C46 H49 0.960 . S
H47 C46 0.961 1_455 S
H48 C46 0.961 . S
H49 C46 0.960 . S
C50 N51 1.342 . S
C50 C54 1.401 . S
C50 C55 1.499 . S
N51 Co34 1.989 . S
N51 C50 1.342 . S
N51 N52 1.388 . S
N52 Co35 1.993 . S
N52 N51 1.388 . S
N52 C53 1.346 . S
C53 N52 1.346 . S
C53 C54 1.396 . S
C53 C63 1.510 . S
C54 C50 1.401 . S
C54 C53 1.396 . S
C55 C50 1.499 . S
C55 H56 0.959 . S
C55 H57 0.960 . S
C55 H58 0.961 . S
H56 C55 0.959 . S
H57 C55 0.960 . S
H58 C55 0.961 . S
O59 Co34 1.967 . S
O59 C67 1.258 . S
O60 Co35 1.941 . S
O60 C67 1.266 . S
H61 C63 0.959 . S
H62 C63 0.961 1_655 S
C63 C53 1.510 . S
C63 H61 0.959 . S
C63 H62 0.961 1_455 S
C63 H64 0.960 . S
H64 C63 0.960 . S
H65 N45 0.862 . S
O66 Co34 1.920 . S
O66 C39 1.289 . S
C67 O59 1.258 . S
C67 O60 1.266 . S
Co68 O71 1.970 . S
Co68 N85 1.989 . S
Co68 O93 1.967 . S
Co68 O100 1.920 1_655 S
Co69 O72 1.966 . S
Co69 N78 2.022 . S
Co69 N86 1.993 . S
Co69 O94 1.941 . S
C70 O71 1.258 . S
C70 O72 1.263 . S
O71 Co68 1.970 . S
O71 C70 1.258 . S
O72 Co69 1.966 . S
O72 C70 1.263 . S
C73 O74 1.235 . S
C73 O100 1.289 . S
O74 C73 1.235 . S
C75 C77 1.400 . S
C75 N78 1.351 . S
C75 C80 1.501 . S
C76 C77 1.387 . S
C76 N79 1.341 . S
C77 C75 1.400 . S
C77 C76 1.387 . S
N78 Co69 2.022 . S
N78 C75 1.351 . S
N78 N79 1.365 . S
N79 C76 1.341 . S
N79 N78 1.365 . S
N79 H99 0.862 . S
C80 C75 1.501 . S
C80 H81 0.961 . S
C80 H82 0.961 . S
C80 H83 0.960 . S
H81 C80 0.961 . S
H82 C80 0.961 . S
H83 C80 0.960 . S
C84 N85 1.342 . S
C84 C88 1.401 . S
C84 C89 1.499 . S
N85 Co68 1.989 . S
N85 C84 1.342 . S
N85 N86 1.388 . S
N86 Co69 1.993 . S
N86 N85 1.388 . S
N86 C87 1.346 . S
C87 N86 1.346 . S
C87 C88 1.396 . S
C87 C97 1.510 . S
C88 C84 1.401 . S
C88 C87 1.396 . S
C89 C84 1.499 . S
C89 H90 0.959 . S
C89 H91 0.960 . S
C89 H92 0.961 . S
H90 C89 0.959 . S
H91 C89 0.960 . S
H92 C89 0.961 . S
O93 Co68 1.967 . S
O93 C101 1.258 . S
O94 Co69 1.941 . S
O94 C101 1.266 . S
H95 C97 0.959 . S
H96 C97 0.961 . S
C97 C87 1.510 . S
C97 H95 0.959 . S
C97 H96 0.961 . S
C97 H98 0.960 . S
H98 C97 0.960 . S
H99 N79 0.862 . S
O100 Co68 1.920 1_455 S
O100 C73 1.289 . S
C101 O93 1.258 . S
C101 O94 1.266 . S
Co102 O105 1.970 . S
Co102 N119 1.989 . S
Co102 O127 1.967 . S
Co102 O134 1.920 . S
Co103 O106 1.966 . S
Co103 N112 2.022 . S
Co103 N120 1.993 . S
Co103 O128 1.941 . S
C104 O105 1.258 . S
C104 O106 1.263 . S
O105 Co102 1.970 . S
O105 C104 1.258 . S
O106 Co103 1.966 . S
O106 C104 1.263 . S
C107 O108 1.235 . S
C107 O134 1.289 . S
O108 C107 1.235 . S
C109 C111 1.400 1_655 S
C109 N112 1.351 . S
C109 C114 1.501 1_655 S
C110 C111 1.387 . S
C110 N113 1.341 1_455 S
C111 C109 1.400 1_455 S
C111 C110 1.387 . S
N112 Co103 2.022 . S
N112 C109 1.351 . S
N112 N113 1.365 . S
N113 C110 1.341 1_655 S
N113 N112 1.365 . S
N113 H133 0.862 . S
C114 C109 1.501 1_455 S
C114 H115 0.961 1_455 S
C114 H116 0.961 . S
C114 H117 0.960 . S
H115 C114 0.961 1_655 S
H116 C114 0.961 . S
H117 C114 0.960 . S
C118 N119 1.342 1_554 S
C118 C122 1.401 . S
C118 C123 1.499 . S
N119 Co102 1.989 . S
N119 C118 1.342 1_556 S
N119 N120 1.388 . S
N120 Co103 1.993 . S
N120 N119 1.388 . S
N120 C121 1.346 . S
C121 N120 1.346 . S
C121 C122 1.396 1_556 S
C121 C131 1.510 . S
C122 C118 1.401 . S
C122 C121 1.396 1_554 S
C123 C118 1.499 . S
C123 H124 0.959 . S
C123 H125 0.960 . S
C123 H126 0.961 . S
H124 C123 0.959 . S
H125 C123 0.960 . S
H126 C123 0.961 . S
O127 Co102 1.967 . S
O127 C135 1.258 . S
O128 Co103 1.941 . S
O128 C135 1.266 . S
H129 C131 0.959 . S
H130 C131 0.961 1_455 S
C131 C121 1.510 . S
C131 H129 0.959 . S
C131 H130 0.961 1_655 S
C131 H132 0.960 . S
H132 C131 0.960 . S
H133 N113 0.862 . S
O134 Co102 1.920 . S
O134 C107 1.289 . S
C135 O127 1.258 . S
C135 O128 1.266 . S
Co136 O139 1.970 . S
Co136 N153 1.989 . S
Co136 O161 1.967 . S
Co136 O168 1.920 . S
Co137 O140 1.966 . S
Co137 N146 2.022 . S
Co137 N154 1.993 . S
Co137 O162 1.941 . S
C138 O139 1.258 . S
C138 O140 1.263 . S
O139 Co136 1.970 . S
O139 C138 1.258 . S
O140 Co137 1.966 . S
O140 C138 1.263 . S
C141 O142 1.235 . S
C141 O168 1.289 . S
O142 C141 1.235 . S
C143 C145 1.400 . S
C143 N146 1.351 1_565 S
C143 C148 1.501 . S
C144 C145 1.387 . S
C144 N147 1.341 1_565 S
C145 C143 1.400 . S
C145 C144 1.387 . S
N146 Co137 2.022 . S
N146 C143 1.351 1_545 S
N146 N147 1.365 . S
N147 C144 1.341 1_545 S
N147 N146 1.365 . S
N147 H167 0.862 . S
C148 C143 1.501 . S
C148 H149 0.961 1_565 S
C148 H150 0.961 . S
C148 H151 0.960 . S
H149 C148 0.961 1_545 S
H150 C148 0.961 . S
H151 C148 0.960 . S
C152 N153 1.342 . S
C152 C156 1.401 . S
C152 C157 1.499 . S
N153 Co136 1.989 . S
N153 C152 1.342 . S
N153 N154 1.388 . S
N154 Co137 1.993 . S
N154 N153 1.388 . S
N154 C155 1.346 . S
C155 N154 1.346 . S
C155 C156 1.396 . S
C155 C165 1.510 . S
C156 C152 1.401 . S
C156 C155 1.396 . S
C157 C152 1.499 . S
C157 H158 0.959 . S
C157 H159 0.960 . S
C157 H160 0.961 . S
H158 C157 0.959 . S
H159 C157 0.960 . S
H160 C157 0.961 . S
O161 Co136 1.967 . S
O161 C169 1.258 . S
O162 Co137 1.941 . S
O162 C169 1.266 . S
H163 C165 0.959 . S
H164 C165 0.961 1_565 S
C165 C155 1.510 . S
C165 H163 0.959 . S
C165 H164 0.961 1_545 S
C165 H166 0.960 . S
H166 C165 0.960 . S
H167 N147 0.862 . S
O168 Co136 1.920 . S
O168 C141 1.289 . S
C169 O161 1.258 . S
C169 O162 1.266 . S
Co170 O173 1.970 1_545 S
Co170 N187 1.989 . S
Co170 O195 1.967 . S
Co170 O202 1.920 1_545 S
Co171 O174 1.966 . S
Co171 N180 2.022 . S
Co171 N188 1.993 . S
Co171 O196 1.941 . S
C172 O173 1.258 1_545 S
C172 O174 1.263 . S
O173 Co170 1.970 1_565 S
O173 C172 1.258 1_565 S
O174 Co171 1.966 . S
O174 C172 1.263 . S
C175 O176 1.235 . S
C175 O202 1.289 . S
O176 C175 1.235 . S
C177 C179 1.400 . S
C177 N180 1.351 . S
C177 C182 1.501 . S
C178 C179 1.387 . S
C178 N181 1.341 . S
C179 C177 1.400 . S
C179 C178 1.387 . S
N180 Co171 2.022 . S
N180 C177 1.351 . S
N180 N181 1.365 . S
N181 C178 1.341 . S
N181 N180 1.365 . S
N181 H201 0.862 . S
C182 C177 1.501 . S
C182 H183 0.961 . S
C182 H184 0.961 . S
C182 H185 0.960 . S
H183 C182 0.961 . S
H184 C182 0.961 . S
H185 C182 0.960 . S
C186 N187 1.342 . S
C186 C190 1.401 . S
C186 C191 1.499 . S
N187 Co170 1.989 . S
N187 C186 1.342 . S
N187 N188 1.388 . S
N188 Co171 1.993 . S
N188 N187 1.388 . S
N188 C189 1.346 . S
C189 N188 1.346 . S
C189 C190 1.396 . S
C189 C199 1.510 . S
C190 C186 1.401 . S
C190 C189 1.396 . S
C191 C186 1.499 . S
C191 H192 0.959 . S
C191 H193 0.960 1_545 S
C191 H194 0.961 . S
H192 C191 0.959 . S
H193 C191 0.960 1_565 S
H194 C191 0.961 . S
O195 Co170 1.967 . S
O195 C203 1.258 . S
O196 Co171 1.941 . S
O196 C203 1.266 . S
H197 C199 0.959 . S
H198 C199 0.961 . S
C199 C189 1.510 . S
C199 H197 0.959 . S
C199 H198 0.961 . S
C199 H200 0.960 . S
H200 C199 0.960 . S
H201 N181 0.862 . S
O202 Co170 1.920 1_565 S
O202 C175 1.289 . S
C203 O195 1.258 . S
C203 O196 1.266 . S
Co204 O207 1.970 . S
Co204 N221 1.989 . S
Co204 O229 1.967 . S
Co204 O236 1.920 . S
Co205 O208 1.966 . S
Co205 N214 2.022 . S
Co205 N222 1.993 . S
Co205 O230 1.941 . S
C206 O207 1.258 . S
C206 O208 1.263 . S
O207 Co204 1.970 . S
O207 C206 1.258 . S
O208 Co205 1.966 . S
O208 C206 1.263 . S
C209 O210 1.235 . S
C209 O236 1.289 . S
O210 C209 1.235 . S
C211 C213 1.400 1_565 S
C211 N214 1.351 . S
C211 C216 1.501 1_565 S
C212 C213 1.387 . S
C212 N215 1.341 1_545 S
C213 C211 1.400 1_545 S
C213 C212 1.387 . S
N214 Co205 2.022 . S
N214 C211 1.351 . S
N214 N215 1.365 . S
N215 C212 1.341 1_565 S
N215 N214 1.365 . S
N215 H235 0.862 . S
C216 C211 1.501 1_545 S
C216 H217 0.961 1_545 S
C216 H218 0.961 . S
C216 H219 0.960 . S
H217 C216 0.961 1_565 S
H218 C216 0.961 . S
H219 C216 0.960 . S
C220 N221 1.342 1_556 S
C220 C224 1.401 . S
C220 C225 1.499 . S
N221 Co204 1.989 . S
N221 C220 1.342 1_554 S
N221 N222 1.388 . S
N222 Co205 1.993 . S
N222 N221 1.388 . S
N222 C223 1.346 . S
C223 N222 1.346 . S
C223 C224 1.396 1_554 S
C223 C233 1.510 . S
C224 C220 1.401 . S
C224 C223 1.396 1_556 S
C225 C220 1.499 . S
C225 H226 0.959 . S
C225 H227 0.960 . S
C225 H228 0.961 . S
H226 C225 0.959 . S
H227 C225 0.960 . S
H228 C225 0.961 . S
O229 Co204 1.967 . S
O229 C237 1.258 . S
O230 Co205 1.941 . S
O230 C237 1.266 . S
H231 C233 0.959 . S
H232 C233 0.961 1_545 S
C233 C223 1.510 . S
C233 H231 0.959 . S
C233 H232 0.961 1_565 S
C233 H234 0.960 . S
H234 C233 0.960 . S
H235 N215 0.862 . S
O236 Co204 1.920 . S
O236 C209 1.289 . S
C237 O229 1.258 . S
C237 O230 1.266 . S
Co238 O241 1.970 . S
Co238 N255 1.989 . S
Co238 O263 1.967 . S
Co238 O270 1.920 1_565 S
Co239 O242 1.966 . S
Co239 N248 2.022 . S
Co239 N256 1.993 . S
Co239 O264 1.941 . S
C240 O241 1.258 . S
C240 O242 1.263 . S
O241 Co238 1.970 . S
O241 C240 1.258 . S
O242 Co239 1.966 . S
O242 C240 1.263 . S
C243 O244 1.235 . S
C243 O270 1.289 . S
O244 C243 1.235 . S
C245 C247 1.400 . S
C245 N248 1.351 . S
C245 C250 1.501 . S
C246 C247 1.387 . S
C246 N249 1.341 . S
C247 C245 1.400 . S
C247 C246 1.387 . S
N248 Co239 2.022 . S
N248 C245 1.351 . S
N248 N249 1.365 . S
N249 C246 1.341 . S
N249 N248 1.365 . S
N249 H269 0.862 . S
C250 C245 1.501 . S
C250 H251 0.961 . S
C250 H252 0.961 . S
C250 H253 0.960 . S
H251 C250 0.961 . S
H252 C250 0.961 . S
H253 C250 0.960 . S
C254 N255 1.342 . S
C254 C258 1.401 . S
C254 C259 1.499 . S
N255 Co238 1.989 . S
N255 C254 1.342 . S
N255 N256 1.388 . S
N256 Co239 1.993 . S
N256 N255 1.388 . S
N256 C257 1.346 . S
C257 N256 1.346 . S
C257 C258 1.396 . S
C257 C267 1.510 . S
C258 C254 1.401 . S
C258 C257 1.396 . S
C259 C254 1.499 . S
C259 H260 0.959 . S
C259 H261 0.960 . S
C259 H262 0.961 . S
H260 C259 0.959 . S
H261 C259 0.960 . S
H262 C259 0.961 . S
O263 Co238 1.967 . S
O263 C271 1.258 . S
O264 Co239 1.941 . S
O264 C271 1.266 . S
H265 C267 0.959 . S
H266 C267 0.961 . S
C267 C257 1.510 . S
C267 H265 0.959 . S
C267 H266 0.961 . S
C267 H268 0.960 . S
H268 C267 0.960 . S
H269 N249 0.862 . S
O270 Co238 1.920 1_545 S
O270 C243 1.289 . S
C271 O263 1.258 . S
C271 O264 1.266 . S
C272 C273 1.369 . S
C272 C274 1.419 . S
C272 H276 0.930 . S
C273 C272 1.369 . S
C273 C282 1.429 . S
C274 C272 1.419 . S
C274 C275 1.363 . S
C274 H277 0.929 . S
C275 C274 1.363 . S
C275 C281 1.428 . S
H276 C272 0.930 . S
H277 C274 0.929 . S
S278 N279 1.613 . S
S278 N280 1.610 . S
N279 S278 1.613 . S
N279 C282 1.350 . S
N280 S278 1.610 . S
N280 C281 1.351 . S
C281 C275 1.428 . S
C281 N280 1.351 . S
C281 C282 1.434 . S
C282 C273 1.429 . S
C282 N279 1.350 . S
C282 C281 1.434 . S
C283 C284 1.367 1_655 S
C283 C285 1.419 1_655 S
C283 H287 0.930 . S
C284 C283 1.367 1_455 S
C284 C293 1.434 . S
C285 C283 1.419 1_455 S
C285 C286 1.363 . S
C285 H288 0.929 1_455 S
C286 C285 1.363 . S
C286 C292 1.428 . S
H287 C283 0.930 . S
H288 C285 0.929 1_655 S
S289 N290 1.613 . S
S289 N291 1.610 . S
N290 S289 1.613 . S
N290 C293 1.350 . S
N291 S289 1.610 . S
N291 C292 1.351 . S
C292 C286 1.428 . S
C292 N291 1.351 . S
C292 C293 1.434 . S
C293 C284 1.434 . S
C293 N290 1.350 . S
C293 C292 1.434 . S
C294 C295 1.369 . S
C294 C296 1.419 . S
C294 H298 0.930 . S
C295 C294 1.369 . S
C295 C304 1.429 . S
C296 C294 1.419 . S
C296 C297 1.363 . S
C296 H299 0.929 . S
C297 C296 1.363 . S
C297 C303 1.428 . S
H298 C294 0.930 . S
H299 C296 0.929 . S
S300 N301 1.613 . S
S300 N302 1.610 . S
N301 S300 1.613 . S
N301 C304 1.350 . S
N302 S300 1.610 . S
N302 C303 1.351 . S
C303 C297 1.428 . S
C303 N302 1.351 . S
C303 C304 1.434 . S
C304 C295 1.429 . S
C304 N301 1.350 . S
C304 C303 1.434 . S
C305 C306 1.369 . S
C305 C307 1.419 1_655 S
C305 H309 0.930 . S
C306 C305 1.369 . S
C306 C315 1.429 . S
C307 C305 1.419 1_455 S
C307 C308 1.363 1_455 S
C307 H310 0.929 . S
C308 C307 1.363 1_655 S
C308 C314 1.428 . S
H309 C305 0.930 . S
H310 C307 0.929 . S
S311 N312 1.613 . S
S311 N313 1.610 . S
N312 S311 1.613 . S
N312 C315 1.350 . S
N313 S311 1.610 . S
N313 C314 1.351 . S
C314 C308 1.428 . S
C314 N313 1.351 . S
C314 C315 1.434 . S
C315 C306 1.429 . S
C315 N312 1.350 . S
C315 C314 1.434 . S
C316 C317 1.369 . S
C316 C318 1.419 1_545 S
C316 H320 0.930 1_545 S
C317 C316 1.369 . S
C317 C326 1.429 . S
C318 C316 1.419 1_565 S
C318 C319 1.361 1_565 S
C318 H321 0.929 . S
C319 C318 1.361 1_545 S
C319 C325 1.432 . S
H320 C316 0.930 1_565 S
H321 C318 0.929 . S
S322 N323 1.613 . S
S322 N324 1.610 . S
N323 S322 1.613 . S
N323 C326 1.350 . S
N324 S322 1.610 . S
N324 C325 1.351 . S
C325 C319 1.432 . S
C325 N324 1.351 . S
C325 C326 1.434 . S
C326 C317 1.429 . S
C326 N323 1.350 . S
C326 C325 1.434 . S
C327 C328 1.369 . S
C327 C329 1.419 . S
C327 H331 0.930 . S
C328 C327 1.369 . S
C328 C337 1.429 . S
C329 C327 1.419 . S
C329 C330 1.363 . S
C329 H332 0.929 . S
C330 C329 1.363 . S
C330 C336 1.428 . S
H331 C327 0.930 . S
H332 C329 0.929 . S
S333 N334 1.613 . S
S333 N335 1.610 . S
N334 S333 1.613 . S
N334 C337 1.350 . S
N335 S333 1.610 . S
N335 C336 1.351 . S
C336 C330 1.428 . S
C336 N335 1.351 . S
C336 C337 1.434 . S
C337 C328 1.429 . S
C337 N334 1.350 . S
C337 C336 1.434 . S
C338 C339 1.369 . S
C338 C340 1.419 . S
C338 H342 0.930 . S
C339 C338 1.369 . S
C339 C348 1.429 . S
C340 C338 1.419 . S
C340 C341 1.363 . S
C340 H343 0.929 . S
C341 C340 1.363 . S
C341 C347 1.428 1_565 S
H342 C338 0.930 . S
H343 C340 0.929 . S
S344 N345 1.613 . S
S344 N346 1.610 . S
N345 S344 1.613 . S
N345 C348 1.350 1_545 S
N346 S344 1.610 . S
N346 C347 1.351 . S
C347 C341 1.428 1_545 S
C347 N346 1.351 . S
C347 C348 1.434 1_545 S
C348 C339 1.429 . S
C348 N345 1.350 1_565 S
C348 C347 1.434 1_565 S
C349 C350 1.369 . S
C349 C351 1.419 . S
C349 H353 0.930 . S
C350 C349 1.369 . S
C350 C359 1.429 . S
C351 C349 1.419 . S
C351 C352 1.363 . S
C351 H354 0.929 . S
C352 C351 1.363 . S
C352 C358 1.428 . S
H353 C349 0.930 . S
H354 C351 0.929 . S
S355 N356 1.613 . S
S355 N357 1.610 . S
N356 S355 1.613 . S
N356 C359 1.350 . S
N357 S355 1.610 . S
N357 C358 1.351 . S
C358 C352 1.428 . S
C358 N357 1.351 . S
C358 C359 1.434 . S
C359 C350 1.429 . S
C359 N356 1.350 . S
C359 C358 1.434 . S
C360 C361 1.369 . S
C360 C362 1.419 . S
C360 H364 0.930 . S
C361 C360 1.369 . S
C361 C370 1.429 . S
C362 C360 1.419 . S
C362 C363 1.363 . S
C362 H365 0.929 . S
C363 C362 1.363 . S
C363 C369 1.428 . S
H364 C360 0.930 . S
H365 C362 0.929 . S
S366 N367 1.613 . S
S366 N368 1.610 . S
N367 S366 1.613 . S
N367 C370 1.350 . S
N368 S366 1.610 . S
N368 C369 1.351 . S
C369 C363 1.428 . S
C369 N368 1.351 . S
C369 C370 1.434 . S
C370 C361 1.429 . S
C370 N367 1.350 . S
C370 C369 1.434 . S
C371 C372 1.369 . S
C371 C373 1.419 . S
C371 H375 0.930 . S
C372 C371 1.369 . S
C372 C381 1.429 . S
C373 C371 1.419 . S
C373 C374 1.363 . S
C373 H376 0.929 . S
C374 C373 1.363 . S
C374 C380 1.428 . S
H375 C371 0.930 . S
H376 C373 0.929 . S
S377 N378 1.613 . S
S377 N379 1.610 . S
N378 S377 1.613 . S
N378 C381 1.350 . S
N379 S377 1.610 . S
N379 C380 1.351 . S
C380 C374 1.428 . S
C380 N379 1.351 . S
C380 C381 1.434 . S
C381 C372 1.429 . S
C381 N378 1.350 . S
C381 C380 1.434 . S
C382 C383 1.369 . S
C382 C384 1.419 . S
C382 H386 0.930 . S
C383 C382 1.369 . S
C383 C392 1.429 . S
C384 C382 1.419 . S
C384 C385 1.363 . S
C384 H387 0.929 . S
C385 C384 1.363 . S
C385 C391 1.428 . S
H386 C382 0.930 . S
H387 C384 0.929 . S
S388 N389 1.613 . S
S388 N390 1.610 . S
N389 S388 1.613 . S
N389 C392 1.350 . S
N390 S388 1.610 . S
N390 C391 1.351 . S
C391 C385 1.428 . S
C391 N390 1.351 . S
C391 C392 1.434 . S
C392 C383 1.429 . S
C392 N389 1.350 . S
C392 C391 1.434 . S
C393 C394 1.369 . S
C393 C395 1.419 . S
C393 H397 0.930 . S
C394 C393 1.369 . S
C394 C403 1.429 . S
C395 C393 1.419 . S
C395 C396 1.363 . S
C395 H398 0.929 . S
C396 C395 1.363 . S
C396 C402 1.428 . S
H397 C393 0.930 . S
H398 C395 0.929 . S
S399 N400 1.613 . S
S399 N401 1.610 . S
N400 S399 1.613 . S
N400 C403 1.350 . S
N401 S399 1.610 . S
N401 C402 1.351 . S
C402 C396 1.428 . S
C402 N401 1.351 . S
C402 C403 1.434 . S
C403 C394 1.429 . S
C403 N400 1.350 . S
C403 C402 1.434 . S
C404 C405 1.369 . S
C404 C406 1.419 . S
C404 H408 0.930 . S
C405 C404 1.369 . S
C405 C414 1.429 . S
C406 C404 1.419 . S
C406 C407 1.363 . S
C406 H409 0.929 . S
C407 C406 1.363 . S
C407 C413 1.428 . S
H408 C404 0.930 . S
H409 C406 0.929 . S
S410 N411 1.613 . S
S410 N412 1.610 . S
N411 S410 1.613 . S
N411 C414 1.350 . S
N412 S410 1.610 . S
N412 C413 1.351 . S
C413 C407 1.428 . S
C413 N412 1.351 . S
C413 C414 1.434 . S
C414 C405 1.429 . S
C414 N411 1.350 . S
C414 C413 1.434 . S
C415 C416 1.369 . S
C415 C417 1.419 . S
C415 H419 0.930 . S
C416 C415 1.369 . S
C416 C425 1.429 . S
C417 C415 1.419 . S
C417 C418 1.363 . S
C417 H420 0.929 . S
C418 C417 1.363 . S
C418 C424 1.428 . S
H419 C415 0.930 . S
H420 C417 0.929 . S
S421 N422 1.613 . S
S421 N423 1.610 . S
N422 S421 1.613 . S
N422 C425 1.350 . S
N423 S421 1.610 . S
N423 C424 1.351 . S
C424 C418 1.428 . S
C424 N423 1.351 . S
C424 C425 1.434 . S
C425 C416 1.429 . S
C425 N422 1.350 . S
C425 C424 1.434 . S
C426 C427 1.369 . S
C426 C428 1.419 . S
C426 H430 0.930 . S
C427 C426 1.369 . S
C427 C436 1.429 . S
C428 C426 1.419 . S
C428 C429 1.363 . S
C428 H431 0.929 . S
C429 C428 1.363 . S
C429 C435 1.428 . S
H430 C426 0.930 . S
H431 C428 0.929 . S
S432 N433 1.613 . S
S432 N434 1.610 . S
N433 S432 1.613 . S
N433 C436 1.350 . S
N434 S432 1.610 . S
N434 C435 1.351 . S
C435 C429 1.428 . S
C435 N434 1.351 . S
C435 C436 1.434 . S
C436 C427 1.429 . S
C436 N433 1.350 . S
C436 C435 1.434 . S
C437 C438 1.369 . S
C437 C439 1.419 . S
C437 H441 0.930 . S
C438 C437 1.369 . S
C438 C447 1.429 . S
C439 C437 1.419 . S
C439 C440 1.363 . S
C439 H442 0.929 . S
C440 C439 1.363 . S
C440 C446 1.428 . S
H441 C437 0.930 . S
H442 C439 0.929 . S
S443 N444 1.613 . S
S443 N445 1.610 . S
N444 S443 1.613 . S
N444 C447 1.350 . S
N445 S443 1.610 . S
N445 C446 1.351 . S
C446 C440 1.428 . S
C446 N445 1.351 . S
C446 C447 1.434 . S
C447 C438 1.429 . S
C447 N444 1.350 . S
C447 C446 1.434 . S
C448 C449 1.369 . S
C448 C450 1.419 . S
C448 H452 0.930 . S
C449 C448 1.369 . S
C449 C458 1.429 . S
C450 C448 1.419 . S
C450 C451 1.363 . S
C450 H453 0.929 . S
C451 C450 1.363 . S
C451 C457 1.428 . S
H452 C448 0.930 . S
H453 C450 0.929 . S
S454 N455 1.613 . S
S454 N456 1.610 . S
N455 S454 1.613 . S
N455 C458 1.350 . S
N456 S454 1.610 . S
N456 C457 1.351 . S
C457 C451 1.428 . S
C457 N456 1.351 . S
C457 C458 1.434 . S
C458 C449 1.429 . S
C458 N455 1.350 . S
C458 C457 1.434 . S
C459 C460 1.369 . S
C459 C461 1.419 . S
C459 H463 0.930 . S
C460 C459 1.369 . S
C460 C469 1.429 . S
C461 C459 1.419 . S
C461 C462 1.363 . S
C461 H464 0.929 . S
C462 C461 1.363 . S
C462 C468 1.428 . S
H463 C459 0.930 . S
H464 C461 0.929 . S
S465 N466 1.613 . S
S465 N467 1.610 . S
N466 S465 1.613 . S
N466 C469 1.350 . S
N467 S465 1.610 . S
N467 C468 1.351 . S
C468 C462 1.428 . S
C468 N467 1.351 . S
C468 C469 1.434 . S
C469 C460 1.429 . S
C469 N466 1.350 . S
C469 C468 1.434 . S
C470 C471 1.369 . S
C470 C472 1.419 . S
C470 H474 0.930 . S
C471 C470 1.369 . S
C471 C480 1.429 . S
C472 C470 1.419 . S
C472 C473 1.363 . S
C472 H475 0.929 . S
C473 C472 1.363 . S
C473 C479 1.428 . S
H474 C470 0.930 . S
H475 C472 0.929 . S
S476 N477 1.613 . S
S476 N478 1.610 . S
N477 S476 1.613 . S
N477 C480 1.350 . S
N478 S476 1.610 . S
N478 C479 1.351 . S
C479 C473 1.428 . S
C479 N478 1.351 . S
C479 C480 1.434 . S
C480 C471 1.429 . S
C480 N477 1.350 . S
C480 C479 1.434 . S
C481 C482 1.369 1_554 S
C481 C483 1.419 . S
C481 H485 0.930 . S
C482 C481 1.369 1_556 S
C482 C491 1.429 . S
C483 C481 1.419 . S
C483 C484 1.363 . S
C483 H486 0.929 . S
C484 C483 1.363 . S
C484 C490 1.428 1_554 S
H485 C481 0.930 . S
H486 C483 0.929 . S
S487 N488 1.613 . S
S487 N489 1.610 . S
N488 S487 1.613 . S
N488 C491 1.350 . S
N489 S487 1.610 . S
N489 C490 1.351 . S
C490 C484 1.428 1_556 S
C490 N489 1.351 . S
C490 C491 1.434 . S
C491 C482 1.429 . S
C491 N488 1.350 . S
C491 C490 1.434 . S
C273 C20 1.365 . S
C275 C36 1.366 . S
C284 C70 1.362 1_455 S
C286 C54 1.364 . S
C295 C104 1.366 . S
C297 C88 1.365 . S
C306 C122 1.365 . S
C308 C2 1.366 1_655 S
C317 C156 1.365 . S
C319 C240 1.364 1_545 S
C328 C190 1.363 . S
C330 C138 1.366 . S
C339 C224 1.362 . S
C341 C172 1.365 1_565 S
C350 C258 1.363 . S
C352 C206 1.366 . S
C361 C213 1.388 . S
C363 C33 1.421 . S
C372 C247 1.385 . S
C374 C67 1.421 . S
C383 C145 1.387 . S
C385 C101 1.424 . S
C394 C179 1.391 . S
C396 C135 1.424 . S
C405 C169 1.421 . S
C407 C77 1.385 . S
C416 C203 1.421 . S
C418 C111 1.389 . S
C427 C237 1.422 . S
C429 C9 1.384 . S
C438 C271 1.421 . S
C440 C43 1.389 . S
C449 C243 1.627 . S
C451 C5 1.628 . S
C460 C141 1.627 . S
C462 C39 1.627 . S
C471 C73 1.630 . S
C473 C175 1.629 . S
C482 C107 1.628 . S
C484 C209 1.627 . S
