# Generated by pormake.
# Topology whw, (6)-cn, num edge types: 1
# Building blocks:
#     Node 0, Type 0, BuildingBlock: INOVEN_clean_sbu_0, # of connection points: 6
#     Node 1, Type 0, BuildingBlock: INOVEN_clean_sbu_0, # of connection points: 6
#     Node 2, Type 0, BuildingBlock: INOVEN_clean_sbu_0, # of connection points: 6
#     Node 3, Type 0, BuildingBlock: INOVEN_clean_sbu_0, # of connection points: 6
#     Node 4, Type 0, BuildingBlock: INOVEN_clean_sbu_0, # of connection points: 6
#     Node 5, Type 0, BuildingBlock: INOVEN_clean_sbu_0, # of connection points: 6
#     Node 6, Type 0, BuildingBlock: INOVEN_clean_sbu_0, # of connection points: 6
#     Node 7, Type 0, BuildingBlock: INOVEN_clean_sbu_0, # of connection points: 6
#     Node 8, Type 0, BuildingBlock: INOVEN_clean_sbu_0, # of connection points: 6
#     Node 9, Type 0, BuildingBlock: INOVEN_clean_sbu_0, # of connection points: 6
#     Node 10, Type 0, BuildingBlock: INOVEN_clean_sbu_0, # of connection points: 6
#     Node 11, Type 0, BuildingBlock: INOVEN_clean_sbu_0, # of connection points: 6
#     Node 12, Type 0, BuildingBlock: INOVEN_clean_sbu_0, # of connection points: 6
#     Node 13, Type 0, BuildingBlock: INOVEN_clean_sbu_0, # of connection points: 6
#     Node 14, Type 0, BuildingBlock: INOVEN_clean_sbu_0, # of connection points: 6
#     Node 15, Type 0, BuildingBlock: INOVEN_clean_sbu_0, # of connection points: 6
#     Edge 16, Type (0, 0), BuildingBlock: OJICUG_clean_linker_0, # of connection points: 2
#     Edge 17, Type (0, 0), BuildingBlock: OJICUG_clean_linker_0, # of connection points: 2
#     Edge 18, Type (0, 0), BuildingBlock: OJICUG_clean_linker_0, # of connection points: 2
#     Edge 19, Type (0, 0), BuildingBlock: OJICUG_clean_linker_0, # of connection points: 2
#     Edge 20, Type (0, 0), BuildingBlock: OJICUG_clean_linker_0, # of connection points: 2
#     Edge 21, Type (0, 0), BuildingBlock: OJICUG_clean_linker_0, # of connection points: 2
#     Edge 22, Type (0, 0), BuildingBlock: OJICUG_clean_linker_0, # of connection points: 2
#     Edge 23, Type (0, 0), BuildingBlock: OJICUG_clean_linker_0, # of connection points: 2
#     Edge 24, Type (0, 0), BuildingBlock: OJICUG_clean_linker_0, # of connection points: 2
#     Edge 25, Type (0, 0), BuildingBlock: OJICUG_clean_linker_0, # of connection points: 2
#     Edge 26, Type (0, 0), BuildingBlock: OJICUG_clean_linker_0, # of connection points: 2
#     Edge 27, Type (0, 0), BuildingBlock: OJICUG_clean_linker_0, # of connection points: 2
#     Edge 28, Type (0, 0), BuildingBlock: OJICUG_clean_linker_0, # of connection points: 2
#     Edge 29, Type (0, 0), BuildingBlock: OJICUG_clean_linker_0, # of connection points: 2
#     Edge 30, Type (0, 0), BuildingBlock: OJICUG_clean_linker_0, # of connection points: 2
#     Edge 31, Type (0, 0), BuildingBlock: OJICUG_clean_linker_0, # of connection points: 2
#     Edge 32, Type (0, 0), BuildingBlock: OJICUG_clean_linker_0, # of connection points: 2
#     Edge 33, Type (0, 0), BuildingBlock: OJICUG_clean_linker_0, # of connection points: 2
#     Edge 34, Type (0, 0), BuildingBlock: OJICUG_clean_linker_0, # of connection points: 2
#     Edge 35, Type (0, 0), BuildingBlock: OJICUG_clean_linker_0, # of connection points: 2
#     Edge 36, Type (0, 0), BuildingBlock: OJICUG_clean_linker_0, # of connection points: 2
#     Edge 37, Type (0, 0), BuildingBlock: OJICUG_clean_linker_0, # of connection points: 2
#     Edge 38, Type (0, 0), BuildingBlock: OJICUG_clean_linker_0, # of connection points: 2
#     Edge 39, Type (0, 0), BuildingBlock: OJICUG_clean_linker_0, # of connection points: 2
#     Edge 40, Type (0, 0), BuildingBlock: OJICUG_clean_linker_0, # of connection points: 2
#     Edge 41, Type (0, 0), BuildingBlock: OJICUG_clean_linker_0, # of connection points: 2
#     Edge 42, Type (0, 0), BuildingBlock: OJICUG_clean_linker_0, # of connection points: 2
#     Edge 43, Type (0, 0), BuildingBlock: OJICUG_clean_linker_0, # of connection points: 2
#     Edge 44, Type (0, 0), BuildingBlock: OJICUG_clean_linker_0, # of connection points: 2
#     Edge 45, Type (0, 0), BuildingBlock: OJICUG_clean_linker_0, # of connection points: 2
#     Edge 46, Type (0, 0), BuildingBlock: OJICUG_clean_linker_0, # of connection points: 2
#     Edge 47, Type (0, 0), BuildingBlock: OJICUG_clean_linker_0, # of connection points: 2
#     Edge 48, Type (0, 0), BuildingBlock: OJICUG_clean_linker_0, # of connection points: 2
#     Edge 49, Type (0, 0), BuildingBlock: OJICUG_clean_linker_0, # of connection points: 2
#     Edge 50, Type (0, 0), BuildingBlock: OJICUG_clean_linker_0, # of connection points: 2
#     Edge 51, Type (0, 0), BuildingBlock: OJICUG_clean_linker_0, # of connection points: 2
#     Edge 52, Type (0, 0), BuildingBlock: OJICUG_clean_linker_0, # of connection points: 2
#     Edge 53, Type (0, 0), BuildingBlock: OJICUG_clean_linker_0, # of connection points: 2
#     Edge 54, Type (0, 0), BuildingBlock: OJICUG_clean_linker_0, # of connection points: 2
#     Edge 55, Type (0, 0), BuildingBlock: OJICUG_clean_linker_0, # of connection points: 2
#     Edge 56, Type (0, 0), BuildingBlock: OJICUG_clean_linker_0, # of connection points: 2
#     Edge 57, Type (0, 0), BuildingBlock: OJICUG_clean_linker_0, # of connection points: 2
#     Edge 58, Type (0, 0), BuildingBlock: OJICUG_clean_linker_0, # of connection points: 2
#     Edge 59, Type (0, 0), BuildingBlock: OJICUG_clean_linker_0, # of connection points: 2
#     Edge 60, Type (0, 0), BuildingBlock: OJICUG_clean_linker_0, # of connection points: 2
#     Edge 61, Type (0, 0), BuildingBlock: OJICUG_clean_linker_0, # of connection points: 2
#     Edge 62, Type (0, 0), BuildingBlock: OJICUG_clean_linker_0, # of connection points: 2
#     Edge 63, Type (0, 0), BuildingBlock: OJICUG_clean_linker_0, # of connection points: 2
# Relax obj value: 0.523
# Max RMSD: 0.269
# Mean RMSD: 0.234
data_MOF--net-whw--node1-INOVEN_clean_sbu_0--edge1-OJICUG_clean_linker_0
_symmetry_space_group_name_H-M    P1
_symmetry_Int_Tables_number       1
_symmetry_cell_setting            triclinic
loop_
_symmetry_equiv_pos_as_xyz
'x, y, z'
_cell_length_a     34.242019
_cell_length_b     33.748696
_cell_length_c     26.002244
_cell_angle_alpha  91.108045
_cell_angle_beta   73.328153
_cell_angle_gamma 103.29314
loop_
_atom_site_label
_atom_site_type_symbol
_atom_site_fract_x
_atom_site_fract_y
_atom_site_fract_z
_atom_type_partial_charge
Gd0 Gd 0.03561 0.08899 0.24324 0.0
Gd1 Gd 0.0019 0.12187 0.15017 0.0
C2 C 0.9354 0.08291 0.26022 0.0
C3 C 0.06199 0.09325 0.32863 0.0
C4 C 0.06377 0.11458 0.37978 0.0
C5 C 0.05323 0.09178 0.42858 0.0
C6 C 0.08177 0.15671 0.37934 0.0
C7 C 0.08124 0.15188 0.47398 0.0
C8 C 0.09028 0.17499 0.42551 0.0
C9 C 0.06158 0.11004 0.4748 0.0
C10 C 0.01932 0.03554 0.16854 0.0
C11 C 0.10002 0.11398 0.1275 0.0
C12 C -0.01851 0.14172 1.06727 0.0
C13 C 0.96992 0.15439 1.01978 0.0
C14 C -0.02843 0.19558 1.00953 0.0
C15 C 0.95563 0.12559 0.98545 0.0
C16 C 0.94458 0.17906 0.93191 0.0
C17 C 0.94326 0.13772 0.94214 0.0
C18 C 0.95916 0.20771 0.96641 0.0
C19 C 0.00808 0.16771 0.23354 0.0
O20 O 0.96671 0.08525 0.28178 0.0
O21 O 0.94073 0.09106 0.20866 0.0
O22 O 0.02773 0.06707 0.32581 0.0
O23 O 0.08226 0.11427 0.28325 0.0
O24 O 0.04182 0.02968 0.19961 0.0
O25 O 0.00252 0.06433 0.18525 0.0
O26 O 0.0692 0.11988 0.10922 0.0
O27 O 0.09572 0.10388 0.17781 0.0
O28 O 0.00618 0.16736 0.08953 0.0
O29 O 0.96828 0.10467 0.08976 0.0
O30 O -0.01892 0.16809 0.20741 0.0
O31 O 0.03392 0.14747 0.21027 0.0
H32 H 0.0397 0.0593 0.43061 0.0
H33 H 0.09077 0.17551 0.34263 0.0
H34 H 0.10557 0.20707 0.42232 0.0
H35 H 0.05294 0.09097 0.51116 0.0
H36 H -0.01823 0.21853 1.03555 0.0
H37 H 0.95375 0.09355 0.99227 0.0
H38 H 0.93174 0.11438 0.91744 0.0
H39 H 0.96116 0.23977 0.96014 0.0
Gd40 Gd 0.13717 0.75937 0.51668 0.0
Gd41 Gd 0.12142 0.67517 0.47829 0.0
C42 C 0.11036 0.68133 0.60595 0.0
C43 C 0.15095 0.82868 0.55955 0.0
C44 C 0.15738 0.84249 0.61069 0.0
C45 C 0.18488 0.8801 0.61193 0.0
C46 C 0.1385 0.81744 0.65762 0.0
C47 C 0.16945 0.87033 0.70854 0.0
C48 C 0.14447 0.83123 0.70618 0.0
C49 C 0.19086 0.89402 0.66064 0.0
C50 C 0.20099 0.74723 0.43466 0.0
C51 C 0.11339 0.74881 0.40458 0.0
C52 C 0.13282 0.60895 0.4314 0.0
C53 C 0.15918 0.59786 0.38063 0.0
C54 C 0.14106 0.5678 0.3512 0.0
C55 C 0.20105 0.61926 0.35894 0.0
C56 C 0.20386 0.58566 0.27501 0.0
C57 C 0.22332 0.61317 0.30647 0.0
C58 C 0.16314 0.56175 0.2988 0.0
C59 C 0.04839 0.6979 0.52749 0.0
O60 O 0.12227 0.72145 0.59589 0.0
O61 O 0.10959 0.65657 0.56608 0.0
O62 O 0.18065 0.81258 0.53038 0.0
O63 O 0.11313 0.80837 0.56009 0.0
O64 O 0.18819 0.7804 0.44212 0.0
O65 O 0.18073 0.721 0.47392 0.0
O66 O 0.12248 0.71236 0.40437 0.0
O67 O 0.11075 0.77068 0.44833 0.0
O68 O 0.10379 0.62707 0.42723 0.0
O69 O 0.15225 0.62527 0.46611 0.0
O70 O 0.05305 0.66074 0.52826 0.0
O71 O 0.08303 0.71946 0.50118 0.0
H72 H 0.20083 0.89912 0.57547 0.0
H73 H 0.11806 0.78781 0.6571 0.0
H74 H 0.12698 0.81239 0.74239 0.0
H75 H 0.21035 0.92415 0.66134 0.0
H76 H 0.10887 0.55076 0.36751 0.0
H77 H 0.2158 0.64205 0.38155 0.0
H78 H 0.25471 0.63181 0.28942 0.0
H79 H 0.14679 0.54083 0.27559 0.0
Gd80 Gd 0.4543 0.84496 0.70463 0.0
Gd81 Gd 0.54339 0.87947 0.70096 0.0
C82 C 0.52756 0.8307 0.59758 0.0
C83 C 0.37906 0.83389 0.69677 0.0
C84 C 0.35798 0.8471 0.66101 0.0
C85 C 0.31575 0.82885 0.6665 0.0
C86 C 0.37966 0.87861 0.62204 0.0
C87 C 0.31772 0.87196 0.59163 0.0
C88 C 0.35968 0.89106 0.58776 0.0
C89 C 0.2957 0.8411 0.63181 0.0
C90 C 0.49115 0.79383 0.74207 0.0
C91 C 0.47003 0.8586 0.82066 0.0
C92 C 0.61658 0.90952 0.71239 0.0
C93 C 0.63603 0.91317 0.75634 0.0
C94 C 0.64785 0.95176 0.77585 0.0
C95 C 0.64075 0.87871 0.78115 0.0
C96 C 0.66511 0.9212 0.8474 0.0
C97 C 0.65524 0.88274 0.82633 0.0
C98 C 0.66217 0.95581 0.82112 0.0
C99 C 0.51524 0.92531 0.64227 0.0
O100 O 0.48828 0.83508 0.61663 0.0
O101 O 0.55422 0.84092 0.62694 0.0
O102 O 0.40349 0.80911 0.67721 0.0
O103 O 0.39563 0.86297 0.72354 0.0
O104 O 0.45094 0.79046 0.75854 0.0
O105 O 0.50681 0.81885 0.70317 0.0
O106 O 0.5108 0.86847 0.79358 0.0
O107 O 0.44174 0.85332 0.79412 0.0
O108 O 0.58831 0.93075 0.71685 0.0
O109 O 0.60595 0.87305 0.69508 0.0
O110 O 0.55171 0.91737 0.62863 0.0
O111 O 0.49375 0.90907 0.68899 0.0
H112 H 0.29856 0.80471 0.69695 0.0
H113 H 0.41229 0.89298 0.61745 0.0
H114 H 0.37785 0.91421 0.55637 0.0
H115 H 0.26347 0.82581 0.63539 0.0
H116 H 0.6444 0.97859 0.75722 0.0
H117 H 0.63189 0.84852 0.76699 0.0
H118 H 0.65668 0.85548 0.84633 0.0
H119 H 0.66979 0.9858 0.83647 0.0
Gd120 Gd 0.37189 0.19593 0.8965 0.0
Gd121 Gd 0.40044 0.28334 0.85818 0.0
C122 C 0.37796 0.26661 0.98521 0.0
C123 C 0.34727 0.1242 0.9437 0.0
C124 C 0.34308 0.11022 0.99814 0.0
C125 C 0.31189 0.07575 1.02262 0.0
C126 C 0.36621 0.13469 1.02837 0.0
C127 C 0.32505 0.09228 0.10818 0.0
C128 C 0.35733 0.12577 0.08293 0.0
C129 C 0.30309 0.06657 1.07756 0.0
C130 C 0.31844 0.22351 0.85461 0.0
C131 C 0.41827 0.21248 0.77132 0.0
C132 C 0.40382 0.35491 0.82102 0.0
C133 C 0.38036 0.37104 0.79072 0.0
C134 C 0.40075 0.40392 0.75362 0.0
C135 C 0.33812 0.35234 0.79651 0.0
C136 C 0.33964 0.39349 0.72034 0.0
C137 C 0.31771 0.36372 0.76191 0.0
C138 C 0.38052 0.41529 0.71884 0.0
C139 C 0.45713 0.25664 0.89408 0.0
O140 O 0.37635 0.22771 0.97459 0.0
O141 O 0.38041 0.29305 0.94705 0.0
O142 O 0.32172 0.14707 0.94147 0.0
O143 O 0.38557 0.13873 0.91309 0.0
O144 O 0.3287 0.18909 0.84429 0.0
O145 O 0.3373 0.24244 0.88627 0.0
O146 O 0.41006 0.24935 0.7788 0.0
O147 O 0.41126 0.18725 0.81306 0.0
O148 O 0.42814 0.33167 0.79533 0.0
O149 O 0.38202 0.34043 0.86947 0.0
O150 O 0.45501 0.29447 0.8937 0.0
O151 O 0.43375 0.23713 0.86825 0.0
H152 H 0.29341 0.05693 0.99975 0.0
H153 H 0.39007 0.16159 1.0103 0.0
H154 H 0.37529 0.1455 0.10563 0.0
H155 H 0.27825 0.04045 0.09642 0.0
H156 H 0.43318 0.41907 0.7492 0.0
H157 H 0.32173 0.32734 0.8257 0.0
H158 H 0.28626 0.34656 0.76432 0.0
H159 H 0.39877 0.43819 0.68717 0.0
Gd160 Gd 0.00407 0.85915 1.00697 0.0
Gd161 Gd 0.97027 0.89192 0.91377 0.0
C162 C 0.90549 0.86529 1.02888 0.0
C163 C 0.02426 0.83917 0.09005 0.0
C164 C 0.03567 0.8265 0.13774 0.0
C165 C 0.03266 0.78515 0.14917 0.0
C166 C 0.05122 0.85543 0.17106 0.0
C167 C 0.06095 0.80182 0.22573 0.0
C168 C 0.06356 0.8433 0.21443 0.0
C169 C 0.04507 0.77303 0.19232 0.0
C170 C -0.001 0.81375 0.92289 0.0
C171 C 0.0706 0.89909 0.89746 0.0
C172 C 0.94432 0.88781 0.82801 0.0
C173 C 0.94262 0.8663 0.77695 0.0
C174 C 0.95278 0.88898 0.72814 0.0
C175 C 0.92506 0.82406 0.7775 0.0
C176 C 0.92524 0.82854 0.68293 0.0
C177 C 0.91659 0.80555 0.73141 0.0
C178 C 0.94447 0.87049 0.68202 0.0
C179 C -0.01454 0.94501 0.98938 0.0
O180 O 0.93638 0.86005 1.04751 0.0
O181 O 0.90994 0.87549 0.97856 0.0
O182 O -6e-05 0.81348 1.06734 0.0
O183 O 0.03717 0.87633 1.06791 0.0
O184 O 0.02589 0.81362 0.94928 0.0
O185 O -0.02734 0.83347 0.94619 0.0
O186 O 0.03936 0.89639 0.87567 0.0
O187 O 0.06515 0.89085 0.94904 0.0
O188 O -0.0213 0.91373 0.83095 0.0
O189 O 0.9237 0.86703 0.87346 0.0
O190 O 0.96322 0.95093 0.95801 0.0
O191 O 0.00253 0.91646 0.97242 0.0
H192 H 0.02136 0.76204 0.12405 0.0
H193 H 0.05417 0.88757 0.16339 0.0
H194 H 0.07607 0.86671 0.2383 0.0
H195 H 0.04205 0.74087 0.19949 0.0
H196 H 0.96598 0.92153 0.72602 0.0
H197 H 0.91637 0.80535 0.81422 0.0
H198 H 0.90165 0.77338 0.73468 0.0
H199 H 0.95279 0.88948 0.64565 0.0
Gd200 Gd 0.40185 0.80876 0.1784 0.0
Gd201 Gd 0.3828 0.72346 0.14422 0.0
C202 C 0.41202 0.73627 0.25276 0.0
C203 C 0.39187 0.87554 0.22458 0.0
C204 C 0.36544 0.88609 0.27577 0.0
C205 C 0.38382 0.91417 0.30723 0.0
C206 C 0.32303 0.86577 0.29587 0.0
C207 C 0.31997 0.89602 0.38196 0.0
C208 C 0.30042 0.87066 0.34862 0.0
C209 C 0.3613 0.9192 0.35985 0.0
C210 C 0.47295 0.78397 0.12615 0.0
C211 C 0.40999 0.79997 1.0518 0.0
C212 C 0.36496 0.65406 0.10324 0.0
C213 C 0.35825 0.64151 1.05184 0.0
C214 C 0.32786 0.60612 1.05017 0.0
C215 C 0.3791 0.66654 1.00526 0.0
C216 C 0.34314 0.61811 0.95389 0.0
C217 C 0.37164 0.65497 0.95671 0.0
C218 C 0.32025 0.59446 1.00147 0.0
C219 C 0.32232 0.73804 0.22856 0.0
O220 O 0.40478 0.77347 0.25165 0.0
O221 O 0.41096 0.71251 0.21116 0.0
O222 O 0.42091 0.85724 0.22824 0.0
O223 O 0.37237 0.85959 0.18977 0.0
O224 O 0.46936 0.82154 0.12542 0.0
O225 O 0.4386 0.76334 0.15463 0.0
O226 O 0.3977 0.76005 1.06376 0.0
O227 O 0.41168 0.82573 0.09049 0.0
O228 O 0.33667 0.67212 0.13181 0.0
O229 O 0.40338 0.67207 0.10314 0.0
O230 O 0.33459 0.70458 0.22149 0.0
O231 O 0.34121 0.76332 0.1878 0.0
H232 H 0.41641 0.93038 0.29222 0.0
H233 H 0.30799 0.84464 0.27173 0.0
H234 H 0.26851 0.85282 0.36427 0.0
H235 H 0.37764 0.93868 0.38441 0.0
H236 H 0.31056 0.58718 0.08636 0.0
H237 H 0.40197 0.69448 1.00603 0.0
H238 H 0.39052 0.67362 0.92084 0.0
H239 H 0.29805 0.56604 1.00052 0.0
Gd240 Gd 0.45935 0.09743 0.4563 0.0
Gd241 Gd 0.54887 0.1305 0.452 0.0
C242 C 0.53222 0.11785 0.3362 0.0
C243 C 0.38492 0.07067 0.4471 0.0
C244 C 0.36432 0.07504 0.40643 0.0
C245 C 0.32892 0.04538 0.40389 0.0
C246 C 0.38172 0.10732 0.36762 0.0
C247 C 0.33008 0.07869 0.32163 0.0
C248 C 0.36451 0.10928 0.32568 0.0
C249 C 0.31205 0.04691 0.36127 0.0
C250 C 0.48679 0.04991 0.51403 0.0
C251 C 0.47661 0.146 0.55906 0.0
C252 C 0.6244 0.14127 0.4588 0.0
C253 C 0.647 0.13005 0.49407 0.0
C254 C 0.68807 0.15195 0.48941 0.0
C255 C 0.62803 0.09738 0.53206 0.0
C256 C 0.69009 0.11029 0.5633 0.0
C257 C 0.64945 0.08747 0.56626 0.0
C258 C 0.7095 0.14224 0.52398 0.0
C259 C 0.51285 0.18255 0.41462 0.0
O260 O 0.49148 0.1092 0.36358 0.0
O261 O 0.5606 0.12178 0.36254 0.0
O262 O 0.4142 0.05019 0.43282 0.0
O263 O 0.39579 0.10383 0.47151 0.0
O264 O 0.45028 0.05764 0.52729 0.0
O265 O 0.50848 0.06668 0.46774 0.0
O266 O 0.51549 0.14054 0.54019 0.0
O267 O 0.45006 0.13672 0.52952 0.0
O268 O 0.60062 0.16681 0.47724 0.0
O269 O 0.60679 0.1111 0.4344 0.0
O270 O 0.55292 0.1852 0.39785 0.0
O271 O 0.49705 0.15765 0.45361 0.0
H272 H 0.31503 0.02059 0.43404 0.0
H273 H 0.40933 0.13027 0.36886 0.0
H274 H 0.37943 0.13366 0.29495 0.0
H275 H 0.28558 0.02301 0.35867 0.0
H276 H 0.7032 0.17706 0.4598 0.0
H277 H 0.59632 0.08018 0.53609 0.0
H278 H 0.63324 0.06331 0.59699 0.0
H279 H 0.74067 0.16036 0.52109 0.0
Gd280 Gd 0.09439 0.1994 0.79616 0.0
Gd281 Gd 0.12211 0.28726 0.76221 0.0
C282 C 0.07483 0.26751 0.8864 0.0
C283 C 0.09096 0.12693 0.83055 0.0
C284 C 0.11541 0.11057 0.85924 0.0
C285 C 0.09505 0.08048 0.90036 0.0
C286 C 0.15855 0.12762 0.84922 0.0
C287 C 0.15801 0.09251 0.92975 0.0
C288 C 0.17984 0.11853 0.88412 0.0
C289 C 0.1163 0.07116 0.93517 0.0
C290 C 0.03817 0.22548 0.75894 0.0
C291 C 0.1196 0.22012 0.66981 0.0
C292 C 0.14699 0.36086 0.72059 0.0
C293 C 0.15211 0.38124 0.66885 0.0
C294 C 0.19267 0.39575 0.63393 0.0
C295 C 0.11724 0.38407 0.65226 0.0
C296 C 0.16328 0.41047 0.56423 0.0
C297 C 0.12282 0.39867 0.60028 0.0
C298 C 0.19822 0.40993 0.58179 0.0
C299 C 0.17513 0.25867 0.80426 0.0
O300 O 0.0837 0.23105 0.87724 0.0
O301 O 0.08153 0.29355 0.84572 0.0
O302 O 0.06702 0.15001 0.85769 0.0
O303 O 0.11168 0.14186 0.78198 0.0
O304 O 0.04101 0.18791 0.75904 0.0
O305 O 0.06027 0.24532 0.78626 0.0
O306 O 0.11884 0.25831 0.68236 0.0
O307 O 0.11847 0.19328 0.70675 0.0
O308 O 0.17219 0.33676 0.71904 0.0
O309 O 0.1087 0.34562 0.75082 0.0
O310 O 0.16391 0.29246 0.81621 0.0
O311 O 0.15735 0.24084 0.77099 0.0
H312 H 0.06194 0.06652 0.9081 0.0
H313 H 0.17503 0.15016 0.81672 0.0
H314 H 0.21191 0.13524 0.87884 0.0
H315 H 0.09833 0.05101 0.97002 0.0
H316 H 0.22008 0.39442 0.64618 0.0
H317 H 0.08562 0.37352 0.67849 0.0
H318 H 0.09539 0.39848 0.58734 0.0
H319 H 0.22967 0.4191 0.55459 0.0
Gd320 Gd 0.88355 0.30561 0.67965 0.0
Gd321 Gd 0.86779 0.22129 0.64175 0.0
C322 C 0.89257 0.23224 0.75292 0.0
C323 C 0.87189 0.37177 0.72663 0.0
C324 C 0.84503 0.38244 0.77729 0.0
C325 C 0.86209 0.41351 0.80638 0.0
C326 C 0.80376 0.35964 0.79924 0.0
C327 C 0.79985 0.39366 0.88307 0.0
C328 C 0.78121 0.3653 0.85171 0.0
C329 C 0.83972 0.41915 0.85885 0.0
C330 C 0.95662 0.28356 0.62905 0.0
C331 C 0.89391 0.29896 0.55226 0.0
C332 C 0.8535 0.15195 0.59909 0.0
C333 C 0.84741 0.13829 0.54776 0.0
C334 C 0.82016 0.10063 0.54607 0.0
C335 C 0.86638 0.16357 0.50105 0.0
C336 C 0.83591 0.11091 0.44948 0.0
C337 C 0.86069 0.15001 0.45228 0.0
C338 C 0.81443 0.08694 0.49715 0.0
C339 C 0.80452 0.23351 0.72436 0.0
O340 O 0.88329 0.26861 0.75326 0.0
O341 O 0.89497 0.21025 0.70933 0.0
O342 O 0.90082 0.35361 0.73108 0.0
O343 O 0.85282 0.35557 0.69152 0.0
O344 O 0.95166 0.32064 0.62898 0.0
O345 O 0.92238 0.26157 0.65595 0.0
O346 O 0.88247 0.25888 0.56248 0.0
O347 O 0.89452 0.32389 0.59199 0.0
O348 O 0.82396 0.16847 0.62778 0.0
O349 O 0.89136 0.17184 0.59899 0.0
O350 O 0.81758 0.20047 0.71707 0.0
O351 O 0.82424 0.25957 0.68474 0.0
H352 H 0.89376 0.43171 0.78977 0.0
H353 H 0.78981 0.3361 0.77683 0.0
H354 H 0.75036 0.34564 0.86887 0.0
H355 H 0.85537 0.44109 0.88172 0.0
H356 H 0.8042 0.08139 0.58234 0.0
H357 H 0.88669 0.19321 0.5019 0.0
H358 H 0.87827 0.16904 0.41626 0.0
H359 H 0.79511 0.05679 0.49611 0.0
Gd360 Gd 0.60367 0.6949 0.29697 0.0
Gd361 Gd 0.63334 0.78215 0.25971 0.0
C362 C 0.5858 0.76501 0.38458 0.0
C363 C 0.599 0.62275 0.3335 0.0
C364 C 0.62192 0.60593 0.36395 0.0
C365 C 0.6008 0.57338 0.40135 0.0
C366 C 0.66431 0.62389 0.35829 0.0
C367 C 0.66158 0.58278 0.43512 0.0
C368 C 0.68418 0.61219 0.39334 0.0
C369 C 0.62053 0.56166 0.43653 0.0
C370 C 0.54783 0.72205 0.25997 0.0
C371 C 0.62716 0.71284 0.16997 0.0
C372 C 0.66009 0.85513 0.21597 0.0
C373 C 0.66435 0.87581 0.16479 0.0
C374 C 0.70453 0.89052 0.12908 0.0
C375 C 0.629 0.87942 0.14987 0.0
C376 C 0.67376 0.90768 1.06192 0.0
C377 C 0.63368 0.89519 0.09878 0.0
C378 C 0.70921 0.90614 1.0779 0.0
C379 C 0.68541 0.7533 0.30315 0.0
O380 O 0.59388 0.72814 0.37687 0.0
O381 O 0.59306 0.79037 0.34291 0.0
O382 O 0.57503 0.64626 0.35926 0.0
O383 O 0.62113 0.63735 0.28521 0.0
O384 O 0.54959 0.68415 0.26087 0.0
O385 O 0.57093 0.74164 0.28618 0.0
O386 O 0.62831 0.75164 0.18104 0.0
O387 O 0.62515 0.68633 0.20784 0.0
O388 O 0.68412 0.82964 0.21299 0.0
O389 O 0.62215 0.84147 0.24812 0.0
O390 O 0.67519 0.78767 0.31363 0.0
O391 O 0.66725 0.7351 0.27044 0.0
H392 H 0.56824 0.55883 0.40573 0.0
H393 H 0.68124 0.64862 0.32887 0.0
H394 H 0.71577 0.62886 0.39105 0.0
H395 H 0.60181 0.53908 0.46842 0.0
H396 H 0.73229 0.88862 0.14011 0.0
H397 H 0.5977 0.8689 0.17686 0.0
H398 H 0.60579 0.89569 0.08725 0.0
H399 H 0.74043 0.91594 1.05029 0.0
Gd400 Gd 0.62059 0.25494 1.01355 0.0
Gd401 Gd 0.60323 0.16972 0.97811 0.0
C402 C 0.59342 0.17789 0.10532 0.0
C403 C 0.63692 0.32421 1.05539 0.0
C404 C 0.64402 0.33668 0.10663 0.0
C405 C 0.67469 0.37194 0.10797 0.0
C406 C 0.6234 0.31169 0.15329 0.0
C407 C 0.65999 0.36001 0.20415 0.0
C408 C 0.63127 0.32323 0.20163 0.0
C409 C 0.68272 0.38356 0.15645 0.0
C410 C 0.68246 0.24139 0.93014 0.0
C411 C 0.59302 0.24236 0.90383 0.0
C412 C 0.61525 0.10395 0.93048 0.0
C413 C 0.64254 0.09495 0.8789 0.0
C414 C 0.625 0.06796 0.84562 0.0
C415 C 0.68481 0.11609 0.86007 0.0
C416 C 0.68948 0.08836 0.77233 0.0
C417 C 0.70812 0.11294 0.80705 0.0
C418 C 0.64821 0.06475 0.79274 0.0
C419 C 0.53126 0.19368 1.02888 0.0
O420 O 0.60557 0.21788 0.09375 0.0
O421 O 0.59229 0.15232 1.06627 0.0
O422 O 0.66574 0.30722 1.02582 0.0
O423 O 0.59863 0.30528 1.05596 0.0
O424 O 0.66974 0.27462 0.93714 0.0
O425 O 0.66315 0.2158 0.97044 0.0
O426 O 0.60084 0.20539 0.90476 0.0
O427 O 0.59307 0.26579 0.94593 0.0
O428 O 0.58553 0.12145 0.92724 0.0
O429 O 0.63403 0.11977 0.96604 0.0
O430 O 0.53517 0.15619 1.02958 0.0
O431 O 0.56583 0.21448 1.00131 0.0
H432 H 0.69189 0.3908 1.07168 0.0
H433 H 0.6004 0.28377 0.15275 0.0
H434 H 0.61253 0.30464 0.23761 0.0
H435 H 0.70511 0.41191 0.15715 0.0
H436 H 0.59249 0.05132 0.85945 0.0
H437 H 0.69917 0.13654 0.88548 0.0
H438 H 0.7398 0.13147 0.79229 0.0
H439 H 0.63252 0.04642 0.76663 0.0
Gd440 Gd 0.88326 0.69193 0.39569 0.0
Gd441 Gd 0.90796 0.78009 0.36165 0.0
C442 C 0.88624 0.75934 0.48779 0.0
C443 C 0.86307 0.61802 0.43552 0.0
C444 C 0.86707 0.59813 0.48226 0.0
C445 C 0.84401 0.55823 0.49918 0.0
C446 C 0.89243 0.61989 0.51184 0.0
C447 C 0.8716 0.56224 0.57561 0.0
C448 C 0.89513 0.60192 0.55781 0.0
C449 C 0.84594 0.5404 0.54618 0.0
C450 C 0.82768 0.71799 0.35589 0.0
C451 C 0.9285 0.71262 0.27103 0.0
C452 C 0.90827 0.85197 0.32865 0.0
C453 C 0.88403 0.86762 0.29892 0.0
C454 C 0.90447 0.89802 0.25821 0.0
C455 C 0.84118 0.84977 0.30763 0.0
C456 C 0.84251 0.88475 0.22659 0.0
C457 C 0.82043 0.85839 0.27181 0.0
C458 C 0.88374 0.90687 0.22249 0.0
C459 C 0.96662 0.7559 0.39623 0.0
O460 O 0.88799 0.7214 0.47482 0.0
O461 O 0.88583 0.78587 0.45141 0.0
O462 O 0.83756 0.64255 0.44645 0.0
O463 O 0.89835 0.63347 0.39877 0.0
O464 O 0.839 0.68421 0.34471 0.0
O465 O 0.8461 0.73683 0.38793 0.0
O466 O 0.91832 0.74852 0.28049 0.0
O467 O 0.92346 0.68705 0.31155 0.0
O468 O 0.93425 0.83062 0.3017 0.0
O469 O 0.88679 0.83568 0.37638 0.0
O470 O 0.96244 0.79309 0.39709 0.0
O471 O 0.94404 0.73561 0.36982 0.0
H472 H 0.82387 0.54137 0.47684 0.0
H473 H 0.90915 0.65114 0.5002 0.0
H474 H 0.91418 0.61973 0.58084 0.0
H475 H 0.82711 0.51001 0.55995 0.0
H476 H 0.93733 0.91262 0.25148 0.0
H477 H 0.82457 0.82702 0.33982 0.0
H478 H 0.78871 0.84108 0.27605 0.0
H479 H 0.90192 0.92729 0.18798 0.0
Gd480 Gd 0.53387 0.57667 0.74987 0.0
Gd481 Gd 0.509 0.61195 0.6507 0.0
C482 C 0.43842 0.58444 0.76641 0.0
C483 C 0.56108 0.58139 0.8345 0.0
C484 C 0.56393 0.60339 0.88507 0.0
C485 C 0.55324 0.58142 0.93455 0.0
C486 C 0.58334 0.64532 0.88318 0.0
C487 C 0.58382 0.64183 0.97765 0.0
C488 C 0.59306 0.66411 0.92846 0.0
C489 C 0.56274 0.60025 0.97995 0.0
C490 C 0.51091 0.52296 0.67847 0.0
C491 C 0.59919 0.5925 0.63173 0.0
C492 C 0.47693 0.62912 0.57651 0.0
C493 C 0.47796 0.65034 0.52556 0.0
C494 C 0.463 0.68606 0.52742 0.0
C495 C 0.48718 0.63172 0.47594 0.0
C496 C 0.46329 0.68212 0.4327 0.0
C497 C 0.48018 0.64742 0.43036 0.0
C498 C 0.45587 0.70169 0.48193 0.0
C499 C 0.55025 0.66503 0.7086 0.0
O500 O 0.46697 0.57828 0.78883 0.0
O501 O 0.44661 0.59547 0.71498 0.0
O502 O 0.5265 0.5551 0.83256 0.0
O503 O 0.58115 0.60201 0.78866 0.0
O504 O 0.53581 0.51692 0.7061 0.0
O505 O 0.49771 0.55393 0.69413 0.0
O506 O 0.56879 0.59388 0.6102 0.0
O507 O 0.59479 0.59245 0.68385 0.0
O508 O 0.47599 0.64964 0.62009 0.0
O509 O 0.49556 0.59888 0.57419 0.0
O510 O 0.55582 0.6699 0.65719 0.0
O511 O 0.52279 0.63307 0.72491 0.0
H512 H 0.53867 0.54913 0.93778 0.0
H513 H 0.59258 0.66353 0.84595 0.0
H514 H 0.60943 0.69592 0.92395 0.0
H515 H 0.55384 0.58177 1.01686 0.0
H516 H 0.45489 0.70108 0.56488 0.0
H517 H 0.49841 0.60401 0.47266 0.0
H518 H 0.48741 0.63167 0.39343 0.0
H519 H 0.44256 0.72814 0.48647 0.0
Gd520 Gd 0.94171 0.34786 0.20686 0.0
Gd521 Gd 0.03063 0.37359 0.20535 0.0
C522 C 0.01361 0.32639 0.10298 0.0
C523 C 0.86771 0.34328 0.1975 0.0
C524 C 0.84604 0.35546 0.16175 0.0
C525 C 0.80408 0.33578 0.16788 0.0
C526 C 0.86652 0.38683 0.12217 0.0
C527 C 0.80401 0.37667 0.09216 0.0
C528 C 0.8456 0.39747 0.08773 0.0
C529 C 0.78316 0.34622 0.13318 0.0
C530 C 0.96753 0.29196 0.25276 0.0
C531 C 0.95709 0.36113 0.32349 0.0
C532 C 0.10475 0.39897 0.21608 0.0
C533 C 0.12488 0.40294 0.25925 0.0
C534 C 0.14299 0.44211 0.27209 0.0
C535 C 0.12395 0.36884 0.29001 0.0
C536 C 0.15525 0.41354 0.34902 0.0
C537 C 0.13922 0.37415 0.33452 0.0
C538 C 0.15785 0.44744 0.31689 0.0
C539 C 0.00863 0.42364 0.14414 0.0
O540 O -0.0241 0.33491 0.12005 0.0
O541 O 0.03924 0.3333 0.13375 0.0
O542 O 0.8887 0.31521 0.18103 0.0
O543 O 0.88751 0.37305 0.2203 0.0
O544 O 0.92874 0.29436 0.26579 0.0
O545 O -0.01164 0.31436 0.21177 0.0
O546 O -0.00231 0.36614 0.29742 0.0
O547 O 0.92975 0.35937 0.29591 0.0
O548 O 0.07874 0.42251 0.21915 0.0
O549 O 0.09108 0.36218 0.20164 0.0
O550 O 0.04273 0.4111 0.13081 0.0
O551 O -0.0139 0.40911 0.19109 0.0
H552 H 0.78778 0.31177 0.1988 0.0
H553 H 0.8989 0.4024 0.11712 0.0
H554 H 0.86281 0.42043 1.05573 0.0
H555 H 0.75122 0.32967 0.13726 0.0
H556 H 0.14402 0.46869 0.24863 0.0
H557 H 0.1101 0.33827 0.28101 0.0
H558 H 0.13645 0.34758 0.35923 0.0
H559 H 0.17022 0.47802 0.32739 0.0
Gd560 Gd 0.49416 0.36552 0.50655 0.0
Gd561 Gd 0.46951 0.40071 0.40717 0.0
C562 C 0.40358 0.38392 0.52476 0.0
C563 C 0.52624 0.34873 0.58094 0.0
C564 C 0.5257 0.3275 0.63163 0.0
C565 C 0.5415 0.29224 0.6293 0.0
C566 C 0.51609 0.34574 0.68148 0.0
C567 C 0.54116 0.29594 0.72406 0.0
C568 C 0.52347 0.33015 0.72685 0.0
C569 C 0.54902 0.27672 0.67458 0.0
C570 C 0.45393 0.31208 0.44808 0.0
C571 C 0.56508 0.3937 0.39127 0.0
C572 C 0.44269 0.39644 0.32223 0.0
C573 C 0.43994 0.37463 0.27151 0.0
C574 C 0.45159 0.39664 0.22189 0.0
C575 C 0.41969 0.33294 0.27331 0.0
C576 C 0.4204 0.33678 0.17843 0.0
C577 C 0.41014 0.31443 0.2278 0.0
C578 C 0.44227 0.37809 0.17624 0.0
C579 C 0.4916 0.45426 0.47932 0.0
O580 O 0.43387 0.38288 0.54667 0.0
O581 O 0.40835 0.38401 0.47257 0.0
O582 O 0.52783 0.3285 0.53703 0.0
O583 O 0.50682 0.3784 0.58358 0.0
O584 O 0.44815 0.30722 0.49954 0.0
O585 O 0.481 0.34434 0.43185 0.0
O586 O 0.53656 0.39952 0.36857 0.0
O587 O 0.55675 0.38271 0.44273 0.0
O588 O 0.47728 0.42258 0.32446 0.0
O589 O 0.42243 0.37573 0.36794 0.0
O590 O 0.46679 0.46023 0.45154 0.0
O591 O 0.50507 0.4235 0.46338 0.0
H592 H 0.54995 0.27754 0.59165 0.0
H593 H 0.50422 0.37309 0.68511 0.0
H594 H 0.51586 0.34558 0.76399 0.0
H595 H 0.56295 0.25067 0.66969 0.0
H596 H 0.46681 0.42878 0.21872 0.0
H597 H 0.40968 0.31471 0.31062 0.0
H598 H 0.39313 0.28283 0.23225 0.0
H599 H 0.45195 0.39659 0.13922 0.0
Gd600 Gd -0.02693 0.60593 0.95241 0.0
Gd601 Gd 0.06175 0.63095 0.95148 0.0
C602 C 0.04718 0.61791 0.83446 0.0
C603 C 0.90029 0.58105 0.9377 0.0
C604 C 0.88724 0.57665 0.88886 0.0
C605 C 0.85639 0.54243 0.88448 0.0
C606 C 0.91101 0.60198 0.84334 0.0
C607 C 0.87635 0.55646 0.7883 0.0
C608 C 0.90555 0.59197 0.79344 0.0
C609 C 0.85073 0.53243 0.83433 0.0
C610 C -0.00587 0.5554 1.01391 0.0
C611 C -0.01042 0.65315 1.05481 0.0
C612 C 0.13547 0.635 0.96143 0.0
C613 C 0.15719 0.62284 0.99713 0.0
C614 C 0.19925 0.64235 0.99063 0.0
C615 C 0.13673 0.5916 1.03691 0.0
C616 C 0.19947 0.60162 1.06638 0.0
C617 C 0.15777 0.58097 1.07119 0.0
C618 C 0.22029 0.6319 1.02514 0.0
C619 C 0.03672 0.6871 0.90491 0.0
O620 O 0.00657 0.61266 0.86043 0.0
O621 O 0.0744 0.6198 0.86224 0.0
O622 O 0.92413 0.55665 0.94125 0.0
O623 O 0.91407 0.61831 0.95054 0.0
O624 O 0.96021 0.56833 1.02717 0.0
O625 O 0.01698 0.56993 0.96709 0.0
O626 O 0.02727 0.6445 1.03795 0.0
O627 O 0.96396 0.64611 1.02402 0.0
O628 O 0.11469 0.66326 0.97768 0.0
O629 O 0.11553 0.60522 0.9388 0.0
O630 O 0.07537 0.68428 0.89207 0.0
O631 O 0.0157 0.66498 0.9461 0.0
H632 H 0.83826 0.52244 0.91936 0.0
H633 H 0.93521 0.62838 0.84584 0.0
H634 H 0.92489 0.61155 0.75857 0.0
H635 H 0.82777 0.50515 0.83116 0.0
H636 H 0.21553 0.66623 0.95953 0.0
H637 H 0.10427 0.57614 1.0422 0.0
H638 H 0.14058 0.55813 0.10335 0.0
H639 H 0.25232 0.64833 1.02075 0.0
C640 C 0.14302 0.07208 1.07125 0.0
C641 C 0.13852 0.11121 0.08677 0.0
H642 H 0.15621 0.03464 1.00418 0.0
C643 C 0.15978 0.14476 1.05093 0.0
H644 H 0.127 0.04581 0.09878 0.0
C645 C 0.17746 0.13843 0.99703 0.0
C646 C 0.17153 0.09847 0.97902 0.0
H647 H 0.157 0.17523 1.06259 0.0
H648 H 0.18764 0.16459 0.96886 0.0
C649 C 0.15989 0.06567 1.01701 0.0
C650 C 0.10589 0.74202 0.3104 0.0
C651 C 0.10133 0.7631 0.35821 0.0
H652 H 0.09804 0.73779 0.2315 0.0
C653 C 0.08371 0.79727 0.36188 0.0
H654 H 0.11942 0.71568 0.30577 0.0
C655 C 0.07069 0.80971 0.31939 0.0
C656 C 0.07509 0.78862 0.27144 0.0
H657 H 0.0792 0.81415 0.39812 0.0
H658 H 0.05634 0.83551 0.32478 0.0
C659 C 0.09317 0.75462 0.26774 0.0
C660 C 0.31003 0.92565 0.47241 0.0
C661 C 0.30173 0.89209 0.44117 0.0
H662 H 0.3204 0.94559 0.54698 0.0
C663 C 0.28559 0.85293 0.4667 0.0
H664 H 0.32164 0.95618 0.45411 0.0
C665 C 0.28496 0.84684 0.51984 0.0
C666 C 0.30049 0.87981 0.54787 0.0
H667 H 0.27857 0.82632 0.44403 0.0
H668 H 0.27747 0.81584 0.53625 0.0
C669 C 0.30937 0.91957 0.52554 0.0
C670 C 0.42149 0.20731 0.67215 0.0
C671 C 0.43527 0.19822 0.7157 0.0
H672 H 0.42261 0.19729 0.58961 0.0
C673 C 0.46395 0.17293 0.70643 0.0
H674 H 0.39937 0.22649 0.67757 0.0
C675 C 0.47822 0.15707 0.65559 0.0
C676 C 0.46314 0.16472 0.61264 0.0
H677 H 0.47546 0.1653 0.73877 0.0
H678 H 0.50019 0.13775 0.65037 0.0
C679 C 0.43465 0.19027 0.62173 0.0
C680 C 0.82617 0.83863 0.15799 0.0
C681 C 0.83023 0.87844 0.17649 0.0
H682 H 0.84958 0.80283 0.09268 0.0
C683 C 0.8417 0.91135 0.13871 0.0
H684 H 0.81615 0.81238 0.18598 0.0
C685 C 0.86019 0.90557 0.08469 0.0
C686 C 0.86639 0.86693 1.06916 0.0
H687 H 0.84394 0.94223 0.15192 0.0
H688 H 0.87593 0.93216 1.05762 0.0
C689 C 0.84549 0.83295 0.10437 0.0
C690 C 0.89908 0.23842 0.84753 0.0
C691 C 0.90462 0.21794 0.79925 0.0
H692 H 0.90593 0.24205 0.9269 0.0
C693 C 0.92299 0.18426 0.79517 0.0
H694 H 0.88487 0.26433 0.85248 0.0
C695 C 0.93588 0.17176 0.83772 0.0
C696 C 0.93052 0.19227 0.88616 0.0
H697 H 0.9282 0.16783 0.75856 0.0
H698 H 0.95087 0.14641 0.832 0.0
C699 C 0.91161 0.22572 0.89028 0.0
C700 C 0.70395 0.05999 0.68122 0.0
C701 C 0.70837 0.09365 0.71343 0.0
H702 H 0.69557 0.039 0.60605 0.0
C703 C 0.72019 0.13313 0.68921 0.0
H704 H 0.69619 0.02931 0.69857 0.0
C705 C 0.72009 0.13872 0.63626 0.0
C706 C 0.70813 0.10486 0.60721 0.0
H707 H 0.72415 0.15973 0.71291 0.0
H708 H 0.72411 0.16943 0.62079 0.0
C709 C 0.70368 0.06556 0.62834 0.0
C710 C 0.56987 0.7869 0.53431 0.0
C711 C 0.54134 0.81241 0.54372 0.0
H712 H 0.60502 0.75079 0.47808 0.0
C713 C 0.52618 0.82023 0.5009 0.0
H714 H 0.58196 0.77975 0.56631 0.0
C715 C 0.54036 0.80456 0.44991 0.0
C716 C 0.56898 0.77919 0.44034 0.0
H717 H 0.50416 0.83952 0.50637 0.0
H718 H 0.52879 0.81234 0.41771 0.0
C719 C 0.58291 0.76999 0.48372 0.0
C720 C 0.65999 0.54807 0.51937 0.0
C721 C 0.67387 0.58348 0.48533 0.0
H722 H 0.62442 0.52368 0.59861 0.0
C723 C 0.68153 0.62157 0.50831 0.0
H724 H 0.65542 0.51824 0.50276 0.0
C725 C 0.66331 0.62461 0.56304 0.0
C726 C 0.63909 0.5895 0.59439 0.0
H727 H 0.69366 0.64959 0.48344 0.0
H728 H 0.66189 0.65452 0.57831 0.0
C729 C 0.6421 0.55116 0.57429 0.0
C730 C 0.56736 0.22804 0.82132 0.0
C731 C 0.57984 0.25592 0.85789 0.0
H732 H 0.54405 0.21779 0.7528 0.0
C733 C 0.57834 0.29674 0.85093 0.0
H734 H 0.56729 0.19618 0.8257 0.0
C735 C 0.56565 0.30948 0.80827 0.0
C736 C 0.55327 0.28174 0.77126 0.0
H737 H 0.58756 0.31919 0.87817 0.0
H738 H 0.56647 0.34149 0.80391 0.0
C739 C 0.55405 0.24062 0.77907 0.0
C740 C 0.77133 0.34765 1.02183 0.0
C741 C 0.78602 0.38204 1.04822 0.0
H742 H 0.76372 0.32443 0.94779 0.0
C743 C 0.79226 0.42101 1.0249 0.0
H744 H 0.76586 0.3172 1.03907 0.0
C745 C 0.79044 0.42527 0.97242 0.0
C746 C 0.78316 0.39063 0.94252 0.0
H747 H 0.80248 0.44804 1.04519 0.0
H748 H 0.7991 0.45552 0.95346 0.0
C749 C 0.76997 0.35189 0.96923 0.0
C750 C 0.93337 0.7115 0.171 0.0
C751 C 0.94562 0.69976 0.21462 0.0
H752 H 0.93665 0.7055 0.08719 0.0
C753 C -0.0267 0.6734 0.20447 0.0
H754 H 0.91197 0.73148 0.17704 0.0
C755 C -0.01149 0.65954 0.15266 0.0
C756 C -0.02465 0.67022 0.10937 0.0
H757 H -0.0164 0.66364 0.23679 0.0
H758 H 0.00974 0.63941 0.14686 0.0
C759 C 0.94744 0.6964 0.11942 0.0
C760 C 0.33906 0.35147 0.59272 0.0
C761 C 0.3634 0.38665 0.56163 0.0
H762 H 0.30773 0.32645 0.67204 0.0
C763 C 0.35974 0.42493 0.58145 0.0
H764 H 0.34094 0.3216 0.57757 0.0
C765 C 0.34087 0.42796 0.63613 0.0
C766 C 0.3271 0.3926 0.67027 0.0
H767 H 0.37753 0.45246 0.55727 0.0
H768 H 0.34491 0.45783 0.6527 0.0
C769 C 0.31994 0.35448 0.64721 0.0
C770 C 0.45155 0.73775 0.37702 0.0
C771 C 0.4515 0.69647 0.38532 0.0
H772 H 0.43908 0.78247 0.32998 0.0
C773 C 0.43856 0.66872 0.34865 0.0
H774 H 0.46199 0.76057 0.40302 0.0
C775 C 0.42603 0.6816 0.30592 0.0
C776 C 0.4253 0.7226 0.29854 0.0
H777 H 0.4371 0.6366 0.35338 0.0
H778 H 0.41629 0.65913 0.27902 0.0
C779 C 0.43843 0.7505 0.33469 0.0
C780 C 0.21319 0.55338 0.18625 0.0
C781 C 0.22088 0.5882 0.21568 0.0
H782 H 0.20063 0.5303 0.11389 0.0
C783 C 0.23438 0.62679 0.18861 0.0
H784 H 0.20424 0.52323 0.20563 0.0
C785 C 0.23282 0.6308 0.13606 0.0
C786 C 0.21766 0.59631 0.11014 0.0
H787 H 0.24094 0.65432 0.20983 0.0
H788 H 0.23849 0.6612 0.11855 0.0
C789 C 0.21121 0.55741 0.13382 0.0
C790 C 0.03049 0.30724 0.95288 0.0
C791 C 0.05774 0.28047 0.94276 0.0
H792 H -0.00576 0.34131 1.01066 0.0
C793 C 0.06959 0.26821 0.98646 0.0
H794 H 0.02055 0.31741 0.92047 0.0
C795 C 0.05549 0.28312 1.03813 0.0
C796 C 0.0279 0.30961 1.04823 0.0
H797 H 0.09066 0.2479 0.98043 0.0
H798 H 0.06595 0.27359 1.07042 0.0
C799 C 0.01519 0.32089 1.00483 0.0
C800 C 0.95704 0.23039 0.3102 0.0
C801 C -0.01577 0.26371 0.27727 0.0
H802 H 0.94844 0.16736 0.32985 0.0
C803 C 0.02738 0.26526 0.25934 0.0
H804 H 0.92396 0.22934 0.32709 0.0
C805 C 0.04118 0.22995 0.26268 0.0
C806 C 0.01083 0.19348 0.27843 0.0
H807 H 0.04936 0.29155 0.23641 0.0
H808 H 0.07302 0.22956 0.23996 0.0
C809 C -0.0286 0.19525 0.31297 0.0
C810 C -0.01619 0.69726 0.43546 0.0
C811 C -0.01815 0.73828 0.4361 0.0
H812 H 0.00365 0.65043 0.46832 0.0
C813 C -0.0071 0.76226 0.4768 0.0
H814 H -0.02494 0.67804 0.40484 0.0
C815 C 0.00808 0.74621 0.51419 0.0
C816 C 0.01328 0.70609 0.511 0.0
H817 H -0.00898 0.79389 0.47883 0.0
H818 H 0.01983 0.76642 0.54207 0.0
C819 C -0.00094 0.68115 0.47288 0.0
C820 C 0.51283 0.69912 0.78454 0.0
C821 C 0.5497 0.70025 0.74207 0.0
H822 H 0.46259 0.72899 0.8158 0.0
C823 C 0.57446 0.73778 0.71828 0.0
H824 H 0.49418 0.6706 0.80578 0.0
C825 C 0.55678 0.77127 0.72515 0.0
C826 C 0.5147 0.76681 0.75576 0.0
H827 H 0.60373 0.73959 0.68703 0.0
H828 H 0.57379 0.79834 0.69988 0.0
C829 C 0.49439 0.7323 0.79009 0.0
C830 C 0.48213 0.17875 0.97448 0.0
C831 C 0.49619 0.20282 1.01338 0.0
H832 H 0.46194 0.17792 0.90364 0.0
C833 C 0.4926 0.24349 1.0163 0.0
H834 H 0.48554 0.14763 0.9701 0.0
C835 C 0.48014 0.26103 0.97727 0.0
C836 C 0.4698 0.23788 0.93558 0.0
H837 H 0.50418 0.263 1.04492 0.0
H838 H 0.47984 0.29306 0.97887 0.0
C839 C 0.46964 0.19634 0.93547 0.0
C840 C 0.96495 0.75126 0.89522 0.0
C841 C -0.004 0.78718 0.87887 0.0
H842 H 0.95533 0.6896 0.92209 0.0
C843 C 0.03519 0.78454 0.84452 0.0
H844 H 0.93337 0.75248 0.91809 0.0
C845 C 0.04848 0.74877 0.84723 0.0
C846 C 0.02066 0.7159 0.88043 0.0
H847 H 0.0587 0.8121 0.82757 0.0
H848 H 0.08137 0.74902 0.83018 0.0
C849 C -0.02222 0.71541 0.89869 0.0
C850 C 0.53807 0.78251 0.2153 0.0
C851 C 0.53561 0.74053 0.21781 0.0
H852 H 0.52307 0.8311 0.17914 0.0
C853 C 0.52335 0.71643 0.17796 0.0
H854 H 0.54769 0.80175 0.24534 0.0
C855 C 0.51072 0.73347 0.13873 0.0
C856 C 0.50863 0.77457 0.13989 0.0
H857 H 0.52216 0.68408 0.17809 0.0
H858 H 0.49754 0.71337 0.11183 0.0
C859 C 0.52512 0.79953 0.17628 0.0
C860 C 0.5106 0.24472 0.36712 0.0
C861 C 0.48975 0.20997 0.40079 0.0
H862 H 0.5115 0.30671 0.35213 0.0
C863 C 0.44755 0.2056 0.43079 0.0
H864 H 0.54254 0.24798 0.34189 0.0
C865 C 0.43015 0.23928 0.43789 0.0
C866 C 0.45522 0.27687 0.41467 0.0
H867 H 0.43014 0.17828 0.45531 0.0
H868 H 0.40065 0.23741 0.46871 0.0
C869 C 0.49246 0.27812 0.37281 0.0
C870 C 0.01227 0.21904 0.67812 0.0
C871 C 0.02448 0.24348 0.71776 0.0
H872 H -0.01598 0.21441 0.61413 0.0
C873 C 0.0246 0.28501 0.71643 0.0
H874 H 0.01286 0.18707 0.67729 0.0
C875 C 0.00918 0.30099 0.67906 0.0
C876 C -0.00723 0.27541 0.64309 0.0
H877 H 0.03428 0.30457 0.74617 0.0
H878 H 0.00564 0.3321 0.68269 0.0
C879 C -0.00296 0.23498 0.64073 0.0
C880 C 0.01323 0.0326 1.07508 0.0
C881 C 0.01261 0.01211 0.12202 0.0
H882 H 0.00417 0.02754 0.99652 0.0
C883 C 0.00185 0.96947 0.1255 0.0
H884 H 0.02267 0.06539 1.07071 0.0
C885 C -0.00865 0.94785 0.08296 0.0
C886 C -0.00802 0.96836 1.03603 0.0
H887 H 0.00035 0.95292 0.16158 0.0
H888 H -0.01802 0.91504 0.08726 0.0
C889 C 0.00268 0.01099 1.03259 0.0
C890 C 0.26178 0.72067 0.37689 0.0
C891 C 0.23075 0.74224 0.38183 0.0
H892 H 0.31551 0.70366 0.32471 0.0
C893 C 0.23126 0.76462 0.33596 0.0
H894 H 0.263 0.70409 0.41143 0.0
C895 C 0.26163 0.765 0.28624 0.0
C896 C 0.29267 0.74342 0.28131 0.0
H897 H 0.20794 0.78207 0.3385 0.0
H898 H 0.2603 0.78141 0.25164 0.0
C899 C 0.29219 0.72111 0.32723 0.0
C900 C 0.46548 0.00298 0.59603 0.0
C901 C 0.49529 0.01848 0.54629 0.0
H902 H 0.4477 0.96152 0.66528 0.0
C903 C 0.53094 0.00269 0.5288 0.0
H904 H 0.43745 0.01444 0.61098 0.0
C905 C 0.53652 0.97217 0.56015 0.0
C906 C 0.50673 0.95668 0.60992 0.0
H907 H 0.55433 0.01369 0.49094 0.0
H908 H 0.56455 0.9607 0.54519 0.0
C909 C 0.47108 0.97249 0.62742 0.0
C910 C 0.26034 0.26046 0.87148 0.0
C911 C 0.28235 0.23339 0.84125 0.0
H912 H 0.20901 0.28939 0.88348 0.0
C913 C 0.26842 0.21408 0.79914 0.0
H914 H 0.27007 0.27546 0.90448 0.0
C915 C 0.23348 0.222 0.7871 0.0
C916 C 0.21136 0.24893 0.81745 0.0
H917 H 0.28471 0.19293 0.77525 0.0
H918 H 0.22391 0.20718 0.7539 0.0
C919 C 0.22531 0.26826 0.85956 0.0
C920 C 0.71176 0.25746 0.83122 0.0
C921 C 0.71222 0.23617 0.87743 0.0
H922 H 0.74042 0.27407 0.74682 0.0
C923 C 0.74446 0.21622 0.87291 0.0
H924 H 0.68754 0.27376 0.83348 0.0
C925 C 0.77507 0.21712 0.82328 0.0
C926 C 0.77461 0.23842 0.77709 0.0
H927 H 0.74651 0.20067 0.90774 0.0
H928 H 0.79931 0.20086 0.82102 0.0
C929 C 0.74238 0.25838 0.78161 0.0
C930 C 0.76919 0.75434 0.37241 0.0
C931 C 0.79148 0.72743 0.34234 0.0
H932 H 0.7181 0.78346 0.38344 0.0
C933 C 0.77793 0.70809 0.29997 0.0
H934 H 0.77851 0.7692 0.40575 0.0
C935 C 0.74321 0.71601 0.28736 0.0
C936 C 0.72106 0.74311 0.31727 0.0
H937 H 0.79441 0.687 0.27626 0.0
H938 H 0.73386 0.70113 0.25405 0.0
C939 C 0.7345 0.76229 0.35978 0.0
C940 C 0.47291 0.51004 0.60882 0.0
C941 C 0.50509 0.50333 0.62895 0.0
H942 H 0.44418 0.50129 0.54473 0.0
C943 C 0.53305 0.4813 0.59888 0.0
H944 H 0.45069 0.52683 0.63141 0.0
C945 C 0.52941 0.46704 0.54913 0.0
C946 C 0.49725 0.47376 0.52899 0.0
H947 H 0.55803 0.47565 0.61331 0.0
H948 H 0.55167 0.4503 0.52652 0.0
C949 C 0.46922 0.49571 0.55911 0.0
C950 C 0.03221 0.50289 1.03002 0.0
C951 C -0.00121 0.52196 1.04684 0.0
H952 H 0.06097 0.45685 1.04737 0.0
C953 C 0.9679 0.50812 0.09632 0.0
H954 H 0.05639 0.51261 0.99238 0.0
C955 C 0.9703 0.47605 0.12811 0.0
C956 C 0.00375 0.457 0.11129 0.0
H957 H 0.94154 0.52212 0.11068 0.0
H958 H 0.94615 0.46634 0.16577 0.0
C959 C 0.0346 0.47082 1.06178 0.0
C960 C 0.0937 0.21184 0.53461 0.0
C961 C 0.09332 0.17067 0.52266 0.0
H962 H 0.10267 0.25985 0.58895 0.0
C963 C 0.10492 0.14745 0.55793 0.0
H964 H 0.0847 0.23102 0.50932 0.0
C965 C 0.11509 0.16407 0.60385 0.0
C966 C 0.11448 0.20479 0.61651 0.0
H967 H 0.1063 0.11611 0.5502 0.0
H968 H 0.12278 0.14448 0.63011 0.0
C969 C 0.10419 0.22859 0.58056 0.0
C970 C 0.15005 0.92539 0.76706 0.0
C971 C 0.16406 0.88909 0.76114 0.0
H972 H 0.10821 0.95757 0.81812 0.0
C973 C 0.15927 0.86533 0.80736 0.0
H974 H 0.15358 0.94459 0.73234 0.0
C975 C 0.13341 0.87315 0.85681 0.0
C976 C 0.11245 0.90461 0.85974 0.0
H977 H 0.1705 0.8376 0.80389 0.0
H978 H 0.12494 0.85102 0.89016 0.0
C979 C 0.12391 0.93289 0.81623 0.0
C980 C 0.40724 0.79576 0.95397 0.0
C981 C 0.42461 0.81614 0.99303 0.0
H982 H 0.40663 0.79353 0.87135 0.0
C983 C 0.45765 0.85133 0.97446 0.0
H984 H 0.3822 0.76848 0.96569 0.0
C985 C 0.47299 0.86507 0.91922 0.0
C986 C 0.45481 0.84515 0.88049 0.0
H987 H 0.47254 0.86782 1.0026 0.0
H988 H 0.49881 0.89166 0.907 0.0
C989 C 0.42141 0.81036 0.89936 0.0
C990 C 0.31136 0.11439 0.25295 0.0
C991 C 0.31666 0.07827 0.27277 0.0
H992 H 0.30911 0.14675 0.18447 0.0
C993 C 0.31667 0.04414 0.24097 0.0
H994 H 0.31083 0.14088 0.27714 0.0
C995 C 0.31584 0.04752 0.18791 0.0
C996 C 0.31501 0.08504 0.16653 0.0
H997 H 0.32097 0.01604 0.25552 0.0
H998 H 0.31931 0.02197 0.16251 0.0
C999 C 0.31051 0.11774 0.20013 0.0
C1000 C 0.89072 0.81554 0.55356 0.0
C1001 C 0.89176 0.7749 0.54084 0.0
H1002 H 0.89927 0.86364 0.60709 0.0
C1003 C 0.90261 0.75141 0.57657 0.0
H1004 H 0.88258 0.83489 0.5275 0.0
C1005 C 0.9132 0.7684 0.62238 0.0
C1006 C 0.91313 0.80948 0.63438 0.0
H1007 H 0.90443 0.72022 0.56816 0.0
H1008 H 0.92259 0.74946 0.64752 0.0
C1009 C 0.901 0.83238 0.59931 0.0
C1010 C 0.84655 0.11644 0.35061 0.0
C1011 C 0.84162 0.09244 0.39668 0.0
H1012 H 0.88115 0.13118 0.26796 0.0
C1013 C 0.85575 0.05621 0.39054 0.0
H1014 H 0.83523 0.14412 0.35425 0.0
C1015 C 0.8821 0.049 0.34138 0.0
C1016 C 0.89362 0.07746 0.29808 0.0
H1017 H 0.85213 0.03683 0.42513 0.0
H1018 H 0.89784 0.02432 0.33935 0.0
C1019 C 0.87262 0.1089 0.30116 0.0
C1020 C 0.59571 0.18133 0.20344 0.0
C1021 C 0.57841 0.1614 0.16404 0.0
H1022 H 0.59607 0.18286 0.28619 0.0
C1023 C 0.54511 0.12635 0.18224 0.0
H1024 H 0.62095 0.20848 0.19204 0.0
C1025 C 0.52947 0.11233 0.23741 0.0
C1026 C 0.54762 0.13176 0.27646 0.0
H1027 H 0.53025 0.1102 0.15387 0.0
H1028 H 0.50349 0.08586 0.2493 0.0
C1029 C 0.58126 0.16641 0.25795 0.0
C1030 C 0.65173 0.94571 0.94037 0.0
C1031 C 0.6738 0.92421 0.89983 0.0
H1032 H 0.63483 0.95764 1.02404 0.0
C1033 C 0.70019 0.9018 0.91173 0.0
H1034 H 0.63094 0.96301 0.93227 0.0
C1035 C 0.7023 0.89869 0.96415 0.0
C1036 C 0.67788 0.91778 1.00545 0.0
H1037 H 0.71775 0.88527 0.88097 0.0
H1038 H 0.721 0.87927 0.97291 0.0
C1039 C 0.65367 0.9424 0.99286 0.0
C1040 C 0.60025 0.70311 1.03516 0.0
C1041 C 0.59715 0.66121 1.02543 0.0
H1042 H 0.61261 0.75236 0.08672 0.0
C1043 C 0.60737 0.63787 1.06202 0.0
H1044 H 0.59242 0.72253 1.00891 0.0
C1045 C 0.61874 0.65509 0.10699 0.0
C1046 C 0.62083 0.6966 0.11743 0.0
H1047 H 0.60674 0.60593 1.05608 0.0
H1048 H 0.62522 0.63536 0.13428 0.0
C1049 C 0.61202 0.72047 0.08012 0.0
C1050 C 0.62309 0.42507 0.31281 0.0
C1051 C 0.60682 0.39526 0.35499 0.0
H1052 H 0.65565 0.43752 0.22987 0.0
C1053 C 0.62316 0.36057 0.35193 0.0
H1054 H 0.61129 0.45244 0.31508 0.0
C1055 C 0.64883 0.35186 0.30284 0.0
C1056 C 0.65746 0.37769 0.25711 0.0
H1057 H 0.61122 0.33739 0.38446 0.0
H1058 H 0.65631 0.32224 0.29883 0.0
C1059 C 0.6488 0.4165 0.26397 0.0
C1060 C 0.96 0.36448 0.42182 0.0
C1061 C 0.94028 0.34748 0.38303 0.0
H1062 H 0.96021 0.36396 0.50489 0.0
C1063 C 0.90467 0.31463 0.4012 0.0
H1064 H -0.01237 0.38936 0.40995 0.0
C1065 C 0.88993 0.29888 0.45525 0.0
C1066 C 0.90899 0.31638 0.49431 0.0
H1067 H 0.88868 0.30001 0.37301 0.0
H1068 H 0.86322 0.27302 0.46656 0.0
C1069 C 0.9441 0.34982 0.47657 0.0
C1070 C 0.83451 0.53861 0.72347 0.0
C1071 C 0.87323 0.54539 0.73447 0.0
H1072 H 0.80372 0.53803 0.66235 0.0
C1073 C 0.91008 0.54766 0.69217 0.0
H1074 H 0.80574 0.53663 0.75564 0.0
C1075 C 0.90892 0.5484 0.63924 0.0
C1076 C 0.87088 0.54663 0.62815 0.0
H1077 H 0.94018 0.55204 0.7 0.0
H1078 H 0.93813 0.55391 0.60708 0.0
C1079 C 0.83335 0.53922 0.67029 0.0
C1080 C 0.40331 0.27567 0.12097 0.0
C1081 C 0.40735 0.31772 0.13032 0.0
H1082 H 0.3904 0.22652 1.06958 0.0
C1083 C 0.39832 0.3415 0.09304 0.0
H1084 H 0.4102 0.2559 0.14775 0.0
C1085 C 0.38717 0.32451 1.04782 0.0
C1086 C 0.38412 0.28283 1.03781 0.0
H1087 H 0.39971 0.37359 0.09862 0.0
H1088 H 0.38162 0.34453 1.02 0.0
C1089 C 0.39176 0.25857 1.07578 0.0
C1090 C 0.35477 0.62642 0.85511 0.0
C1091 C 0.34604 0.60053 0.90081 0.0
H1092 H 0.39242 0.64094 0.77351 0.0
C1093 C 0.35481 0.56177 0.89396 0.0
H1094 H 0.34722 0.65601 0.85914 0.0
C1095 C 0.38055 0.55323 0.84512 0.0
C1096 C 0.39681 0.58304 0.80294 0.0
H1097 H 0.3479 0.54073 0.92805 0.0
H1098 H 0.39233 0.52585 0.84285 0.0
C1099 C 0.38048 0.61775 0.80603 0.0
C1100 C 0.11552 0.67939 0.7024 0.0
C1101 C 0.09511 0.66364 0.66384 0.0
H1102 H 0.11786 0.67653 0.78406 0.0
C1103 C 0.0587 0.63156 0.68198 0.0
H1104 H 0.14327 0.70417 0.69078 0.0
C1105 C 0.04291 0.61655 0.73662 0.0
C1106 C 0.064 0.6317 0.77487 0.0
H1107 H 0.04153 0.6188 0.6541 0.0
H1108 H 0.01424 0.59288 0.74882 0.0
C1109 C 0.10083 0.66322 0.75628 0.0
C1110 C 0.14482 0.44431 0.43807 0.0
C1111 C 0.16445 0.41905 0.40088 0.0
H1112 H 0.12919 0.46144 0.51989 0.0
C1113 C 0.18837 0.39536 0.41607 0.0
H1114 H 0.12594 0.46261 0.42721 0.0
C1115 C 0.19049 0.39499 0.46873 0.0
C1116 C 0.16828 0.41791 0.50694 0.0
H1117 H 0.20382 0.37578 0.38785 0.0
H1118 H 0.20719 0.37472 0.48038 0.0
C1119 C 0.14646 0.44351 0.49095 0.0
loop_
_geom_bond_atom_site_label_1
_geom_bond_atom_site_label_2
_geom_bond_distance
_geom_bond_site_symmetry_2
_ccdc_geom_bond_type
Gd0 C3 2.818 . S
Gd0 O20 2.377 . S
Gd0 O22 2.448 . S
Gd0 O23 2.506 . S
Gd0 O24 2.435 . S
Gd0 O25 2.717 . S
Gd0 O27 2.395 . S
Gd0 O31 2.327 . S
Gd1 C12 2.818 . S
Gd1 O21 2.395 . S
Gd1 O25 2.327 1_655 S
Gd1 O26 2.377 1_655 S
Gd1 O28 2.448 . S
Gd1 O29 2.506 . S
Gd1 O30 2.435 1_655 S
Gd1 O31 2.717 1_655 S
C2 O20 1.240 1_655 S
C2 O21 1.240 . S
C3 Gd0 2.818 . S
C3 C4 1.510 . S
C3 O22 1.249 . S
C3 O23 1.252 . S
C4 C3 1.510 . S
C4 C5 1.404 . S
C4 C6 1.352 . S
C5 C4 1.404 . S
C5 C9 1.389 . S
C5 H32 0.930 . S
C6 C4 1.352 . S
C6 C8 1.374 . S
C6 H33 0.931 . S
C7 C8 1.359 . S
C7 C9 1.364 . S
C8 C6 1.374 . S
C8 C7 1.359 . S
C8 H34 0.931 . S
C9 C5 1.389 . S
C9 C7 1.364 . S
C9 H35 0.931 . S
C10 O24 1.256 . S
C10 O25 1.257 . S
C11 O26 1.240 . S
C11 O27 1.240 . S
C12 Gd1 2.818 . S
C12 C13 1.510 1_554 S
C12 O28 1.249 . S
C12 O29 1.252 . S
C13 C12 1.510 1_556 S
C13 C14 1.404 . S
C13 C15 1.352 . S
C14 C13 1.404 . S
C14 C18 1.389 . S
C14 H36 0.930 . S
C15 C13 1.352 . S
C15 C17 1.374 . S
C15 H37 0.931 . S
C16 C17 1.359 . S
C16 C18 1.364 . S
C17 C15 1.374 . S
C17 C16 1.359 . S
C17 H38 0.931 . S
C18 C14 1.389 . S
C18 C16 1.364 . S
C18 H39 0.931 . S
C19 O30 1.256 . S
C19 O31 1.257 . S
O20 Gd0 2.377 . S
O20 C2 1.240 1_455 S
O21 Gd1 2.395 . S
O21 C2 1.240 . S
O22 Gd0 2.448 . S
O22 C3 1.249 . S
O23 Gd0 2.506 . S
O23 C3 1.252 . S
O24 Gd0 2.435 . S
O24 C10 1.256 . S
O25 Gd0 2.717 . S
O25 Gd1 2.327 1_455 S
O25 C10 1.257 . S
O26 Gd1 2.377 1_455 S
O26 C11 1.240 . S
O27 Gd0 2.395 . S
O27 C11 1.240 . S
O28 Gd1 2.448 . S
O28 C12 1.249 . S
O29 Gd1 2.506 . S
O29 C12 1.252 . S
O30 Gd1 2.435 1_455 S
O30 C19 1.256 . S
O31 Gd0 2.327 . S
O31 Gd1 2.717 1_455 S
O31 C19 1.257 . S
H32 C5 0.930 . S
H33 C6 0.931 . S
H34 C8 0.931 . S
H35 C9 0.931 . S
H36 C14 0.930 . S
H37 C15 0.931 . S
H38 C17 0.931 . S
H39 C18 0.931 . S
Gd40 C43 2.818 . S
Gd40 O60 2.377 . S
Gd40 O62 2.448 . S
Gd40 O63 2.506 . S
Gd40 O64 2.435 . S
Gd40 O65 2.717 . S
Gd40 O67 2.395 . S
Gd40 O71 2.327 . S
Gd41 C52 2.818 . S
Gd41 O61 2.395 . S
Gd41 O65 2.327 . S
Gd41 O66 2.377 . S
Gd41 O68 2.448 . S
Gd41 O69 2.506 . S
Gd41 O70 2.435 . S
Gd41 O71 2.717 . S
C42 O60 1.240 . S
C42 O61 1.240 . S
C43 Gd40 2.818 . S
C43 C44 1.510 . S
C43 O62 1.249 . S
C43 O63 1.252 . S
C44 C43 1.510 . S
C44 C45 1.404 . S
C44 C46 1.352 . S
C45 C44 1.404 . S
C45 C49 1.389 . S
C45 H72 0.930 . S
C46 C44 1.352 . S
C46 C48 1.374 . S
C46 H73 0.931 . S
C47 C48 1.359 . S
C47 C49 1.364 . S
C48 C46 1.374 . S
C48 C47 1.359 . S
C48 H74 0.931 . S
C49 C45 1.389 . S
C49 C47 1.364 . S
C49 H75 0.931 . S
C50 O64 1.256 . S
C50 O65 1.257 . S
C51 O66 1.240 . S
C51 O67 1.240 . S
C52 Gd41 2.818 . S
C52 C53 1.510 . S
C52 O68 1.249 . S
C52 O69 1.252 . S
C53 C52 1.510 . S
C53 C54 1.404 . S
C53 C55 1.352 . S
C54 C53 1.404 . S
C54 C58 1.389 . S
C54 H76 0.930 . S
C55 C53 1.352 . S
C55 C57 1.374 . S
C55 H77 0.931 . S
C56 C57 1.359 . S
C56 C58 1.364 . S
C57 C55 1.374 . S
C57 C56 1.359 . S
C57 H78 0.931 . S
C58 C54 1.389 . S
C58 C56 1.364 . S
C58 H79 0.931 . S
C59 O70 1.256 . S
C59 O71 1.257 . S
O60 Gd40 2.377 . S
O60 C42 1.240 . S
O61 Gd41 2.395 . S
O61 C42 1.240 . S
O62 Gd40 2.448 . S
O62 C43 1.249 . S
O63 Gd40 2.506 . S
O63 C43 1.252 . S
O64 Gd40 2.435 . S
O64 C50 1.256 . S
O65 Gd40 2.717 . S
O65 Gd41 2.327 . S
O65 C50 1.257 . S
O66 Gd41 2.377 . S
O66 C51 1.240 . S
O67 Gd40 2.395 . S
O67 C51 1.240 . S
O68 Gd41 2.448 . S
O68 C52 1.249 . S
O69 Gd41 2.506 . S
O69 C52 1.252 . S
O70 Gd41 2.435 . S
O70 C59 1.256 . S
O71 Gd40 2.327 . S
O71 Gd41 2.717 . S
O71 C59 1.257 . S
H72 C45 0.930 . S
H73 C46 0.931 . S
H74 C48 0.931 . S
H75 C49 0.931 . S
H76 C54 0.930 . S
H77 C55 0.931 . S
H78 C57 0.931 . S
H79 C58 0.931 . S
Gd80 C83 2.818 . S
Gd80 O100 2.377 . S
Gd80 O102 2.448 . S
Gd80 O103 2.506 . S
Gd80 O104 2.435 . S
Gd80 O105 2.717 . S
Gd80 O107 2.395 . S
Gd80 O111 2.327 . S
Gd81 C92 2.818 . S
Gd81 O101 2.395 . S
Gd81 O105 2.327 . S
Gd81 O106 2.377 . S
Gd81 O108 2.448 . S
Gd81 O109 2.506 . S
Gd81 O110 2.435 . S
Gd81 O111 2.717 . S
C82 O100 1.240 . S
C82 O101 1.240 . S
C83 Gd80 2.818 . S
C83 C84 1.510 . S
C83 O102 1.249 . S
C83 O103 1.252 . S
C84 C83 1.510 . S
C84 C85 1.404 . S
C84 C86 1.352 . S
C85 C84 1.404 . S
C85 C89 1.389 . S
C85 H112 0.930 . S
C86 C84 1.352 . S
C86 C88 1.374 . S
C86 H113 0.931 . S
C87 C88 1.359 . S
C87 C89 1.364 . S
C88 C86 1.374 . S
C88 C87 1.359 . S
C88 H114 0.931 . S
C89 C85 1.389 . S
C89 C87 1.364 . S
C89 H115 0.931 . S
C90 O104 1.256 . S
C90 O105 1.257 . S
C91 O106 1.240 . S
C91 O107 1.240 . S
C92 Gd81 2.818 . S
C92 C93 1.510 . S
C92 O108 1.249 . S
C92 O109 1.252 . S
C93 C92 1.510 . S
C93 C94 1.404 . S
C93 C95 1.352 . S
C94 C93 1.404 . S
C94 C98 1.389 . S
C94 H116 0.930 1_565 S
C95 C93 1.352 . S
C95 C97 1.374 . S
C95 H117 0.931 . S
C96 C97 1.359 . S
C96 C98 1.364 . S
C97 C95 1.374 . S
C97 C96 1.359 . S
C97 H118 0.931 . S
C98 C94 1.389 . S
C98 C96 1.364 . S
C98 H119 0.931 1_565 S
C99 O110 1.256 . S
C99 O111 1.257 . S
O100 Gd80 2.377 . S
O100 C82 1.240 . S
O101 Gd81 2.395 . S
O101 C82 1.240 . S
O102 Gd80 2.448 . S
O102 C83 1.249 . S
O103 Gd80 2.506 . S
O103 C83 1.252 . S
O104 Gd80 2.435 . S
O104 C90 1.256 . S
O105 Gd80 2.717 . S
O105 Gd81 2.327 . S
O105 C90 1.257 . S
O106 Gd81 2.377 . S
O106 C91 1.240 . S
O107 Gd80 2.395 . S
O107 C91 1.240 . S
O108 Gd81 2.448 . S
O108 C92 1.249 . S
O109 Gd81 2.506 . S
O109 C92 1.252 . S
O110 Gd81 2.435 . S
O110 C99 1.256 . S
O111 Gd80 2.327 . S
O111 Gd81 2.717 . S
O111 C99 1.257 . S
H112 C85 0.930 . S
H113 C86 0.931 . S
H114 C88 0.931 . S
H115 C89 0.931 . S
H116 C94 0.930 1_545 S
H117 C95 0.931 . S
H118 C97 0.931 . S
H119 C98 0.931 1_545 S
Gd120 C123 2.818 . S
Gd120 O140 2.377 . S
Gd120 O142 2.448 . S
Gd120 O143 2.506 . S
Gd120 O144 2.435 . S
Gd120 O145 2.717 . S
Gd120 O147 2.395 . S
Gd120 O151 2.327 . S
Gd121 C132 2.818 . S
Gd121 O141 2.395 . S
Gd121 O145 2.327 . S
Gd121 O146 2.377 . S
Gd121 O148 2.448 . S
Gd121 O149 2.506 . S
Gd121 O150 2.435 . S
Gd121 O151 2.717 . S
C122 O140 1.240 . S
C122 O141 1.240 . S
C123 Gd120 2.818 . S
C123 C124 1.510 1_556 S
C123 O142 1.249 . S
C123 O143 1.252 . S
C124 C123 1.510 1_554 S
C124 C125 1.404 . S
C124 C126 1.352 . S
C125 C124 1.404 . S
C125 C129 1.389 . S
C125 H152 0.930 . S
C126 C124 1.352 . S
C126 C128 1.374 . S
C126 H153 0.931 . S
C127 C128 1.359 . S
C127 C129 1.364 . S
C128 C126 1.374 . S
C128 C127 1.359 . S
C128 H154 0.931 . S
C129 C125 1.389 . S
C129 C127 1.364 . S
C129 H155 0.931 . S
C130 O144 1.256 . S
C130 O145 1.257 . S
C131 O146 1.240 . S
C131 O147 1.240 . S
C132 Gd121 2.818 . S
C132 C133 1.510 . S
C132 O148 1.249 . S
C132 O149 1.252 . S
C133 C132 1.510 . S
C133 C134 1.404 . S
C133 C135 1.352 . S
C134 C133 1.404 . S
C134 C138 1.389 . S
C134 H156 0.930 . S
C135 C133 1.352 . S
C135 C137 1.374 . S
C135 H157 0.931 . S
C136 C137 1.359 . S
C136 C138 1.364 . S
C137 C135 1.374 . S
C137 C136 1.359 . S
C137 H158 0.931 . S
C138 C134 1.389 . S
C138 C136 1.364 . S
C138 H159 0.931 . S
C139 O150 1.256 . S
C139 O151 1.257 . S
O140 Gd120 2.377 . S
O140 C122 1.240 . S
O141 Gd121 2.395 . S
O141 C122 1.240 . S
O142 Gd120 2.448 . S
O142 C123 1.249 . S
O143 Gd120 2.506 . S
O143 C123 1.252 . S
O144 Gd120 2.435 . S
O144 C130 1.256 . S
O145 Gd120 2.717 . S
O145 Gd121 2.327 . S
O145 C130 1.257 . S
O146 Gd121 2.377 . S
O146 C131 1.240 . S
O147 Gd120 2.395 . S
O147 C131 1.240 . S
O148 Gd121 2.448 . S
O148 C132 1.249 . S
O149 Gd121 2.506 . S
O149 C132 1.252 . S
O150 Gd121 2.435 . S
O150 C139 1.256 . S
O151 Gd120 2.327 . S
O151 Gd121 2.717 . S
O151 C139 1.257 . S
H152 C125 0.930 . S
H153 C126 0.931 . S
H154 C128 0.931 . S
H155 C129 0.931 . S
H156 C134 0.930 . S
H157 C135 0.931 . S
H158 C137 0.931 . S
H159 C138 0.931 . S
Gd160 C163 2.818 . S
Gd160 O180 2.377 . S
Gd160 O182 2.448 . S
Gd160 O183 2.506 . S
Gd160 O184 2.435 . S
Gd160 O185 2.717 . S
Gd160 O187 2.395 . S
Gd160 O191 2.327 . S
Gd161 C172 2.818 . S
Gd161 O181 2.395 . S
Gd161 O185 2.327 1_655 S
Gd161 O186 2.377 1_655 S
Gd161 O188 2.448 . S
Gd161 O189 2.506 . S
Gd161 O190 2.435 . S
Gd161 O191 2.717 1_655 S
C162 O180 1.240 1_655 S
C162 O181 1.240 . S
C163 Gd160 2.818 . S
C163 C164 1.510 1_556 S
C163 O182 1.249 . S
C163 O183 1.252 . S
C164 C163 1.510 1_554 S
C164 C165 1.404 . S
C164 C166 1.352 . S
C165 C164 1.404 . S
C165 C169 1.389 . S
C165 H192 0.930 . S
C166 C164 1.352 . S
C166 C168 1.374 . S
C166 H193 0.931 . S
C167 C168 1.359 . S
C167 C169 1.364 . S
C168 C166 1.374 . S
C168 C167 1.359 . S
C168 H194 0.931 . S
C169 C165 1.389 . S
C169 C167 1.364 . S
C169 H195 0.931 . S
C170 O184 1.256 . S
C170 O185 1.257 . S
C171 O186 1.240 . S
C171 O187 1.240 . S
C172 Gd161 2.818 . S
C172 C173 1.510 . S
C172 O188 1.249 . S
C172 O189 1.252 . S
C173 C172 1.510 . S
C173 C174 1.404 . S
C173 C175 1.352 . S
C174 C173 1.404 . S
C174 C178 1.389 . S
C174 H196 0.930 . S
C175 C173 1.352 . S
C175 C177 1.374 . S
C175 H197 0.931 . S
C176 C177 1.359 . S
C176 C178 1.364 . S
C177 C175 1.374 . S
C177 C176 1.359 . S
C177 H198 0.931 . S
C178 C174 1.389 . S
C178 C176 1.364 . S
C178 H199 0.931 . S
C179 O190 1.256 1_455 S
C179 O191 1.257 . S
O180 Gd160 2.377 . S
O180 C162 1.240 1_455 S
O181 Gd161 2.395 . S
O181 C162 1.240 . S
O182 Gd160 2.448 . S
O182 C163 1.249 . S
O183 Gd160 2.506 . S
O183 C163 1.252 . S
O184 Gd160 2.435 . S
O184 C170 1.256 . S
O185 Gd160 2.717 . S
O185 Gd161 2.327 1_455 S
O185 C170 1.257 . S
O186 Gd161 2.377 1_455 S
O186 C171 1.240 . S
O187 Gd160 2.395 . S
O187 C171 1.240 . S
O188 Gd161 2.448 . S
O188 C172 1.249 . S
O189 Gd161 2.506 . S
O189 C172 1.252 . S
O190 Gd161 2.435 . S
O190 C179 1.256 1_655 S
O191 Gd160 2.327 . S
O191 Gd161 2.717 1_455 S
O191 C179 1.257 . S
H192 C165 0.930 . S
H193 C166 0.931 . S
H194 C168 0.931 . S
H195 C169 0.931 . S
H196 C174 0.930 . S
H197 C175 0.931 . S
H198 C177 0.931 . S
H199 C178 0.931 . S
Gd200 C203 2.818 . S
Gd200 O220 2.377 . S
Gd200 O222 2.448 . S
Gd200 O223 2.506 . S
Gd200 O224 2.435 . S
Gd200 O225 2.717 . S
Gd200 O227 2.395 . S
Gd200 O231 2.327 . S
Gd201 C212 2.818 1_554 S
Gd201 O221 2.395 . S
Gd201 O225 2.327 . S
Gd201 O226 2.377 . S
Gd201 O228 2.448 . S
Gd201 O229 2.506 1_554 S
Gd201 O230 2.435 . S
Gd201 O231 2.717 . S
C202 O220 1.240 . S
C202 O221 1.240 . S
C203 Gd200 2.818 . S
C203 C204 1.510 . S
C203 O222 1.249 . S
C203 O223 1.252 . S
C204 C203 1.510 . S
C204 C205 1.404 . S
C204 C206 1.352 . S
C205 C204 1.404 . S
C205 C209 1.389 . S
C205 H232 0.930 . S
C206 C204 1.352 . S
C206 C208 1.374 . S
C206 H233 0.931 . S
C207 C208 1.359 . S
C207 C209 1.364 . S
C208 C206 1.374 . S
C208 C207 1.359 . S
C208 H234 0.931 . S
C209 C205 1.389 . S
C209 C207 1.364 . S
C209 H235 0.931 . S
C210 O224 1.256 . S
C210 O225 1.257 . S
C211 O226 1.240 . S
C211 O227 1.240 . S
C212 Gd201 2.818 1_556 S
C212 C213 1.510 . S
C212 O228 1.249 1_556 S
C212 O229 1.252 . S
C213 C212 1.510 . S
C213 C214 1.404 . S
C213 C215 1.352 . S
C214 C213 1.404 . S
C214 C218 1.389 . S
C214 H236 0.930 . S
C215 C213 1.352 . S
C215 C217 1.374 . S
C215 H237 0.931 . S
C216 C217 1.359 . S
C216 C218 1.364 . S
C217 C215 1.374 . S
C217 C216 1.359 . S
C217 H238 0.931 . S
C218 C214 1.389 . S
C218 C216 1.364 . S
C218 H239 0.931 . S
C219 O230 1.256 . S
C219 O231 1.257 . S
O220 Gd200 2.377 . S
O220 C202 1.240 . S
O221 Gd201 2.395 . S
O221 C202 1.240 . S
O222 Gd200 2.448 . S
O222 C203 1.249 . S
O223 Gd200 2.506 . S
O223 C203 1.252 . S
O224 Gd200 2.435 . S
O224 C210 1.256 . S
O225 Gd200 2.717 . S
O225 Gd201 2.327 . S
O225 C210 1.257 . S
O226 Gd201 2.377 . S
O226 C211 1.240 . S
O227 Gd200 2.395 . S
O227 C211 1.240 . S
O228 Gd201 2.448 . S
O228 C212 1.249 1_554 S
O229 Gd201 2.506 1_556 S
O229 C212 1.252 . S
O230 Gd201 2.435 . S
O230 C219 1.256 . S
O231 Gd200 2.327 . S
O231 Gd201 2.717 . S
O231 C219 1.257 . S
H232 C205 0.930 . S
H233 C206 0.931 . S
H234 C208 0.931 . S
H235 C209 0.931 . S
H236 C214 0.930 . S
H237 C215 0.931 . S
H238 C217 0.931 . S
H239 C218 0.931 . S
Gd240 C243 2.818 . S
Gd240 O260 2.377 . S
Gd240 O262 2.448 . S
Gd240 O263 2.506 . S
Gd240 O264 2.435 . S
Gd240 O265 2.717 . S
Gd240 O267 2.395 . S
Gd240 O271 2.327 . S
Gd241 C252 2.818 . S
Gd241 O261 2.395 . S
Gd241 O265 2.327 . S
Gd241 O266 2.377 . S
Gd241 O268 2.448 . S
Gd241 O269 2.506 . S
Gd241 O270 2.435 . S
Gd241 O271 2.717 . S
C242 O260 1.240 . S
C242 O261 1.240 . S
C243 Gd240 2.818 . S
C243 C244 1.510 . S
C243 O262 1.249 . S
C243 O263 1.252 . S
C244 C243 1.510 . S
C244 C245 1.404 . S
C244 C246 1.352 . S
C245 C244 1.404 . S
C245 C249 1.389 . S
C245 H272 0.909 1_545 S
C246 C244 1.352 . S
C246 C248 1.374 . S
C246 H273 0.931 . S
C247 C248 1.359 . S
C247 C249 1.364 . S
C248 C246 1.374 . S
C248 C247 1.359 . S
C248 H274 0.931 . S
C249 C245 1.389 . S
C249 C247 1.364 . S
C249 H275 0.931 1_545 S
C250 O264 1.256 . S
C250 O265 1.257 . S
C251 O266 1.240 . S
C251 O267 1.240 . S
C252 Gd241 2.818 . S
C252 C253 1.510 . S
C252 O268 1.249 . S
C252 O269 1.252 . S
C253 C252 1.510 . S
C253 C254 1.404 . S
C253 C255 1.352 . S
C254 C253 1.404 . S
C254 C258 1.389 . S
C254 H276 0.930 . S
C255 C253 1.352 . S
C255 C257 1.374 . S
C255 H277 0.931 . S
C256 C257 1.359 . S
C256 C258 1.364 . S
C257 C255 1.374 . S
C257 C256 1.359 . S
C257 H278 0.931 . S
C258 C254 1.389 . S
C258 C256 1.364 . S
C258 H279 0.931 . S
C259 O270 1.256 . S
C259 O271 1.257 . S
O260 Gd240 2.377 . S
O260 C242 1.240 . S
O261 Gd241 2.395 . S
O261 C242 1.240 . S
O262 Gd240 2.448 . S
O262 C243 1.249 . S
O263 Gd240 2.506 . S
O263 C243 1.252 . S
O264 Gd240 2.435 . S
O264 C250 1.256 . S
O265 Gd240 2.717 . S
O265 Gd241 2.327 . S
O265 C250 1.257 . S
O266 Gd241 2.377 . S
O266 C251 1.240 . S
O267 Gd240 2.395 . S
O267 C251 1.240 . S
O268 Gd241 2.448 . S
O268 C252 1.249 . S
O269 Gd241 2.506 . S
O269 C252 1.252 . S
O270 Gd241 2.435 . S
O270 C259 1.256 . S
O271 Gd240 2.327 . S
O271 Gd241 2.717 . S
O271 C259 1.257 . S
H272 C245 0.909 1_565 S
H273 C246 0.931 . S
H274 C248 0.931 . S
H275 C249 0.931 1_565 S
H276 C254 0.930 . S
H277 C255 0.931 . S
H278 C257 0.931 . S
H279 C258 0.931 . S
Gd280 C283 2.818 . S
Gd280 O300 2.377 . S
Gd280 O302 2.448 . S
Gd280 O303 2.506 . S
Gd280 O304 2.435 . S
Gd280 O305 2.717 . S
Gd280 O307 2.395 . S
Gd280 O311 2.327 . S
Gd281 C292 2.818 . S
Gd281 O301 2.395 . S
Gd281 O305 2.327 . S
Gd281 O306 2.377 . S
Gd281 O308 2.448 . S
Gd281 O309 2.506 . S
Gd281 O310 2.435 . S
Gd281 O311 2.717 . S
C282 O300 1.240 . S
C282 O301 1.240 . S
C283 Gd280 2.818 . S
C283 C284 1.510 . S
C283 O302 1.249 . S
C283 O303 1.252 . S
C284 C283 1.510 . S
C284 C285 1.404 . S
C284 C286 1.352 . S
C285 C284 1.404 . S
C285 C289 1.389 . S
C285 H312 0.930 . S
C286 C284 1.352 . S
C286 C288 1.374 . S
C286 H313 0.931 . S
C287 C288 1.359 . S
C287 C289 1.364 . S
C288 C286 1.374 . S
C288 C287 1.359 . S
C288 H314 0.931 . S
C289 C285 1.389 . S
C289 C287 1.364 . S
C289 H315 0.931 . S
C290 O304 1.256 . S
C290 O305 1.257 . S
C291 O306 1.240 . S
C291 O307 1.240 . S
C292 Gd281 2.818 . S
C292 C293 1.510 . S
C292 O308 1.249 . S
C292 O309 1.252 . S
C293 C292 1.510 . S
C293 C294 1.404 . S
C293 C295 1.352 . S
C294 C293 1.404 . S
C294 C298 1.389 . S
C294 H316 0.930 . S
C295 C293 1.352 . S
C295 C297 1.374 . S
C295 H317 0.931 . S
C296 C297 1.359 . S
C296 C298 1.364 . S
C297 C295 1.374 . S
C297 C296 1.359 . S
C297 H318 0.931 . S
C298 C294 1.389 . S
C298 C296 1.364 . S
C298 H319 0.931 . S
C299 O310 1.256 . S
C299 O311 1.257 . S
O300 Gd280 2.377 . S
O300 C282 1.240 . S
O301 Gd281 2.395 . S
O301 C282 1.240 . S
O302 Gd280 2.448 . S
O302 C283 1.249 . S
O303 Gd280 2.506 . S
O303 C283 1.252 . S
O304 Gd280 2.435 . S
O304 C290 1.256 . S
O305 Gd280 2.717 . S
O305 Gd281 2.327 . S
O305 C290 1.257 . S
O306 Gd281 2.377 . S
O306 C291 1.240 . S
O307 Gd280 2.395 . S
O307 C291 1.240 . S
O308 Gd281 2.448 . S
O308 C292 1.249 . S
O309 Gd281 2.506 . S
O309 C292 1.252 . S
O310 Gd281 2.435 . S
O310 C299 1.256 . S
O311 Gd280 2.327 . S
O311 Gd281 2.717 . S
O311 C299 1.257 . S
H312 C285 0.930 . S
H313 C286 0.931 . S
H314 C288 0.931 . S
H315 C289 0.931 . S
H316 C294 0.930 . S
H317 C295 0.931 . S
H318 C297 0.931 . S
H319 C298 0.931 . S
Gd320 C323 2.818 . S
Gd320 O340 2.377 . S
Gd320 O342 2.448 . S
Gd320 O343 2.506 . S
Gd320 O344 2.435 . S
Gd320 O345 2.717 . S
Gd320 O347 2.395 . S
Gd320 O351 2.327 . S
Gd321 C332 2.818 . S
Gd321 O341 2.395 . S
Gd321 O345 2.327 . S
Gd321 O346 2.377 . S
Gd321 O348 2.448 . S
Gd321 O349 2.506 . S
Gd321 O350 2.435 . S
Gd321 O351 2.717 . S
C322 O340 1.240 . S
C322 O341 1.240 . S
C323 Gd320 2.818 . S
C323 C324 1.510 . S
C323 O342 1.249 . S
C323 O343 1.252 . S
C324 C323 1.510 . S
C324 C325 1.404 . S
C324 C326 1.352 . S
C325 C324 1.404 . S
C325 C329 1.389 . S
C325 H352 0.930 . S
C326 C324 1.352 . S
C326 C328 1.374 . S
C326 H353 0.931 . S
C327 C328 1.359 . S
C327 C329 1.364 . S
C328 C326 1.374 . S
C328 C327 1.359 . S
C328 H354 0.931 . S
C329 C325 1.389 . S
C329 C327 1.364 . S
C329 H355 0.931 . S
C330 O344 1.256 . S
C330 O345 1.257 . S
C331 O346 1.240 . S
C331 O347 1.240 . S
C332 Gd321 2.818 . S
C332 C333 1.510 . S
C332 O348 1.249 . S
C332 O349 1.252 . S
C333 C332 1.510 . S
C333 C334 1.404 . S
C333 C335 1.352 . S
C334 C333 1.404 . S
C334 C338 1.389 . S
C334 H356 0.930 . S
C335 C333 1.352 . S
C335 C337 1.374 . S
C335 H357 0.931 . S
C336 C337 1.359 . S
C336 C338 1.364 . S
C337 C335 1.374 . S
C337 C336 1.359 . S
C337 H358 0.931 . S
C338 C334 1.389 . S
C338 C336 1.364 . S
C338 H359 0.931 . S
C339 O350 1.256 . S
C339 O351 1.257 . S
O340 Gd320 2.377 . S
O340 C322 1.240 . S
O341 Gd321 2.395 . S
O341 C322 1.240 . S
O342 Gd320 2.448 . S
O342 C323 1.249 . S
O343 Gd320 2.506 . S
O343 C323 1.252 . S
O344 Gd320 2.435 . S
O344 C330 1.256 . S
O345 Gd320 2.717 . S
O345 Gd321 2.327 . S
O345 C330 1.257 . S
O346 Gd321 2.377 . S
O346 C331 1.240 . S
O347 Gd320 2.395 . S
O347 C331 1.240 . S
O348 Gd321 2.448 . S
O348 C332 1.249 . S
O349 Gd321 2.506 . S
O349 C332 1.252 . S
O350 Gd321 2.435 . S
O350 C339 1.256 . S
O351 Gd320 2.327 . S
O351 Gd321 2.717 . S
O351 C339 1.257 . S
H352 C325 0.930 . S
H353 C326 0.931 . S
H354 C328 0.931 . S
H355 C329 0.931 . S
H356 C334 0.930 . S
H357 C335 0.931 . S
H358 C337 0.931 . S
H359 C338 0.931 . S
Gd360 C363 2.818 . S
Gd360 O380 2.377 . S
Gd360 O382 2.448 . S
Gd360 O383 2.506 . S
Gd360 O384 2.435 . S
Gd360 O385 2.717 . S
Gd360 O387 2.395 . S
Gd360 O391 2.327 . S
Gd361 C372 2.818 . S
Gd361 O381 2.395 . S
Gd361 O385 2.327 . S
Gd361 O386 2.377 . S
Gd361 O388 2.448 . S
Gd361 O389 2.506 . S
Gd361 O390 2.435 . S
Gd361 O391 2.717 . S
C362 O380 1.240 . S
C362 O381 1.240 . S
C363 Gd360 2.818 . S
C363 C364 1.510 . S
C363 O382 1.249 . S
C363 O383 1.252 . S
C364 C363 1.510 . S
C364 C365 1.404 . S
C364 C366 1.352 . S
C365 C364 1.404 . S
C365 C369 1.389 . S
C365 H392 0.930 . S
C366 C364 1.352 . S
C366 C368 1.374 . S
C366 H393 0.931 . S
C367 C368 1.359 . S
C367 C369 1.364 . S
C368 C366 1.374 . S
C368 C367 1.359 . S
C368 H394 0.931 . S
C369 C365 1.389 . S
C369 C367 1.364 . S
C369 H395 0.931 . S
C370 O384 1.256 . S
C370 O385 1.257 . S
C371 O386 1.240 . S
C371 O387 1.240 . S
C372 Gd361 2.818 . S
C372 C373 1.510 1_554 S
C372 O388 1.249 . S
C372 O389 1.252 . S
C373 C372 1.510 1_556 S
C373 C374 1.404 . S
C373 C375 1.352 . S
C374 C373 1.404 . S
C374 C378 1.389 . S
C374 H396 0.930 . S
C375 C373 1.352 . S
C375 C377 1.374 . S
C375 H397 0.931 . S
C376 C377 1.359 . S
C376 C378 1.364 . S
C377 C375 1.374 . S
C377 C376 1.359 . S
C377 H398 0.931 . S
C378 C374 1.389 . S
C378 C376 1.364 . S
C378 H399 0.931 . S
C379 O390 1.256 . S
C379 O391 1.257 . S
O380 Gd360 2.377 . S
O380 C362 1.240 . S
O381 Gd361 2.395 . S
O381 C362 1.240 . S
O382 Gd360 2.448 . S
O382 C363 1.249 . S
O383 Gd360 2.506 . S
O383 C363 1.252 . S
O384 Gd360 2.435 . S
O384 C370 1.256 . S
O385 Gd360 2.717 . S
O385 Gd361 2.327 . S
O385 C370 1.257 . S
O386 Gd361 2.377 . S
O386 C371 1.240 . S
O387 Gd360 2.395 . S
O387 C371 1.240 . S
O388 Gd361 2.448 . S
O388 C372 1.249 . S
O389 Gd361 2.506 . S
O389 C372 1.252 . S
O390 Gd361 2.435 . S
O390 C379 1.256 . S
O391 Gd360 2.327 . S
O391 Gd361 2.717 . S
O391 C379 1.257 . S
H392 C365 0.930 . S
H393 C366 0.931 . S
H394 C368 0.931 . S
H395 C369 0.931 . S
H396 C374 0.930 . S
H397 C375 0.931 . S
H398 C377 0.931 . S
H399 C378 0.931 . S
Gd400 C403 2.818 1_556 S
Gd400 O420 2.377 . S
Gd400 O422 2.448 . S
Gd400 O423 2.506 1_556 S
Gd400 O424 2.435 . S
Gd400 O425 2.717 . S
Gd400 O427 2.395 . S
Gd400 O431 2.327 . S
Gd401 C412 2.818 . S
Gd401 O421 2.395 . S
Gd401 O425 2.327 . S
Gd401 O426 2.377 . S
Gd401 O428 2.448 . S
Gd401 O429 2.506 . S
Gd401 O430 2.435 . S
Gd401 O431 2.717 . S
C402 O420 1.240 . S
C402 O421 1.240 . S
C403 Gd400 2.818 1_554 S
C403 C404 1.510 . S
C403 O422 1.249 1_554 S
C403 O423 1.252 . S
C404 C403 1.510 . S
C404 C405 1.404 . S
C404 C406 1.352 . S
C405 C404 1.404 . S
C405 C409 1.389 . S
C405 H432 0.930 . S
C406 C404 1.352 . S
C406 C408 1.374 . S
C406 H433 0.931 . S
C407 C408 1.359 . S
C407 C409 1.364 . S
C408 C406 1.374 . S
C408 C407 1.359 . S
C408 H434 0.931 . S
C409 C405 1.389 . S
C409 C407 1.364 . S
C409 H435 0.931 . S
C410 O424 1.256 . S
C410 O425 1.257 . S
C411 O426 1.240 . S
C411 O427 1.240 . S
C412 Gd401 2.818 . S
C412 C413 1.510 . S
C412 O428 1.249 . S
C412 O429 1.252 . S
C413 C412 1.510 . S
C413 C414 1.404 . S
C413 C415 1.352 . S
C414 C413 1.404 . S
C414 C418 1.389 . S
C414 H436 0.930 . S
C415 C413 1.352 . S
C415 C417 1.374 . S
C415 H437 0.931 . S
C416 C417 1.359 . S
C416 C418 1.364 . S
C417 C415 1.374 . S
C417 C416 1.359 . S
C417 H438 0.931 . S
C418 C414 1.389 . S
C418 C416 1.364 . S
C418 H439 0.931 . S
C419 O430 1.256 . S
C419 O431 1.257 . S
O420 Gd400 2.377 . S
O420 C402 1.240 . S
O421 Gd401 2.395 . S
O421 C402 1.240 . S
O422 Gd400 2.448 . S
O422 C403 1.249 1_556 S
O423 Gd400 2.506 1_554 S
O423 C403 1.252 . S
O424 Gd400 2.435 . S
O424 C410 1.256 . S
O425 Gd400 2.717 . S
O425 Gd401 2.327 . S
O425 C410 1.257 . S
O426 Gd401 2.377 . S
O426 C411 1.240 . S
O427 Gd400 2.395 . S
O427 C411 1.240 . S
O428 Gd401 2.448 . S
O428 C412 1.249 . S
O429 Gd401 2.506 . S
O429 C412 1.252 . S
O430 Gd401 2.435 . S
O430 C419 1.256 . S
O431 Gd400 2.327 . S
O431 Gd401 2.717 . S
O431 C419 1.257 . S
H432 C405 0.930 . S
H433 C406 0.931 . S
H434 C408 0.931 . S
H435 C409 0.931 . S
H436 C414 0.930 . S
H437 C415 0.931 . S
H438 C417 0.931 . S
H439 C418 0.931 . S
Gd440 C443 2.818 . S
Gd440 O460 2.377 . S
Gd440 O462 2.448 . S
Gd440 O463 2.506 . S
Gd440 O464 2.435 . S
Gd440 O465 2.717 . S
Gd440 O467 2.395 . S
Gd440 O471 2.327 . S
Gd441 C452 2.818 . S
Gd441 O461 2.395 . S
Gd441 O465 2.327 . S
Gd441 O466 2.377 . S
Gd441 O468 2.448 . S
Gd441 O469 2.506 . S
Gd441 O470 2.435 . S
Gd441 O471 2.717 . S
C442 O460 1.240 . S
C442 O461 1.240 . S
C443 Gd440 2.818 . S
C443 C444 1.510 . S
C443 O462 1.249 . S
C443 O463 1.252 . S
C444 C443 1.510 . S
C444 C445 1.404 . S
C444 C446 1.352 . S
C445 C444 1.404 . S
C445 C449 1.389 . S
C445 H472 0.930 . S
C446 C444 1.352 . S
C446 C448 1.374 . S
C446 H473 0.931 . S
C447 C448 1.359 . S
C447 C449 1.364 . S
C448 C446 1.374 . S
C448 C447 1.359 . S
C448 H474 0.931 . S
C449 C445 1.389 . S
C449 C447 1.364 . S
C449 H475 0.931 . S
C450 O464 1.256 . S
C450 O465 1.257 . S
C451 O466 1.240 . S
C451 O467 1.240 . S
C452 Gd441 2.818 . S
C452 C453 1.510 . S
C452 O468 1.249 . S
C452 O469 1.252 . S
C453 C452 1.510 . S
C453 C454 1.404 . S
C453 C455 1.352 . S
C454 C453 1.404 . S
C454 C458 1.389 . S
C454 H476 0.930 . S
C455 C453 1.352 . S
C455 C457 1.374 . S
C455 H477 0.931 . S
C456 C457 1.359 . S
C456 C458 1.364 . S
C457 C455 1.374 . S
C457 C456 1.359 . S
C457 H478 0.931 . S
C458 C454 1.389 . S
C458 C456 1.364 . S
C458 H479 0.931 . S
C459 O470 1.256 . S
C459 O471 1.257 . S
O460 Gd440 2.377 . S
O460 C442 1.240 . S
O461 Gd441 2.395 . S
O461 C442 1.240 . S
O462 Gd440 2.448 . S
O462 C443 1.249 . S
O463 Gd440 2.506 . S
O463 C443 1.252 . S
O464 Gd440 2.435 . S
O464 C450 1.256 . S
O465 Gd440 2.717 . S
O465 Gd441 2.327 . S
O465 C450 1.257 . S
O466 Gd441 2.377 . S
O466 C451 1.240 . S
O467 Gd440 2.395 . S
O467 C451 1.240 . S
O468 Gd441 2.448 . S
O468 C452 1.249 . S
O469 Gd441 2.506 . S
O469 C452 1.252 . S
O470 Gd441 2.435 . S
O470 C459 1.256 . S
O471 Gd440 2.327 . S
O471 Gd441 2.717 . S
O471 C459 1.257 . S
H472 C445 0.930 . S
H473 C446 0.931 . S
H474 C448 0.931 . S
H475 C449 0.931 . S
H476 C454 0.930 . S
H477 C455 0.931 . S
H478 C457 0.931 . S
H479 C458 0.931 . S
Gd480 C483 2.818 . S
Gd480 O500 2.377 . S
Gd480 O502 2.448 . S
Gd480 O503 2.506 . S
Gd480 O504 2.435 . S
Gd480 O505 2.717 . S
Gd480 O507 2.395 . S
Gd480 O511 2.327 . S
Gd481 C492 2.818 . S
Gd481 O501 2.395 . S
Gd481 O505 2.327 . S
Gd481 O506 2.377 . S
Gd481 O508 2.448 . S
Gd481 O509 2.506 . S
Gd481 O510 2.435 . S
Gd481 O511 2.717 . S
C482 O500 1.240 . S
C482 O501 1.240 . S
C483 Gd480 2.818 . S
C483 C484 1.510 . S
C483 O502 1.249 . S
C483 O503 1.252 . S
C484 C483 1.510 . S
C484 C485 1.404 . S
C484 C486 1.352 . S
C485 C484 1.404 . S
C485 C489 1.389 . S
C485 H512 0.930 . S
C486 C484 1.352 . S
C486 C488 1.374 . S
C486 H513 0.931 . S
C487 C488 1.359 . S
C487 C489 1.364 . S
C488 C486 1.374 . S
C488 C487 1.359 . S
C488 H514 0.931 . S
C489 C485 1.389 . S
C489 C487 1.364 . S
C489 H515 0.931 . S
C490 O504 1.256 . S
C490 O505 1.257 . S
C491 O506 1.240 . S
C491 O507 1.240 . S
C492 Gd481 2.818 . S
C492 C493 1.510 . S
C492 O508 1.249 . S
C492 O509 1.252 . S
C493 C492 1.510 . S
C493 C494 1.404 . S
C493 C495 1.352 . S
C494 C493 1.404 . S
C494 C498 1.389 . S
C494 H516 0.930 . S
C495 C493 1.352 . S
C495 C497 1.374 . S
C495 H517 0.931 . S
C496 C497 1.359 . S
C496 C498 1.364 . S
C497 C495 1.374 . S
C497 C496 1.359 . S
C497 H518 0.931 . S
C498 C494 1.389 . S
C498 C496 1.364 . S
C498 H519 0.931 . S
C499 O510 1.256 . S
C499 O511 1.257 . S
O500 Gd480 2.377 . S
O500 C482 1.240 . S
O501 Gd481 2.395 . S
O501 C482 1.240 . S
O502 Gd480 2.448 . S
O502 C483 1.249 . S
O503 Gd480 2.506 . S
O503 C483 1.252 . S
O504 Gd480 2.435 . S
O504 C490 1.256 . S
O505 Gd480 2.717 . S
O505 Gd481 2.327 . S
O505 C490 1.257 . S
O506 Gd481 2.377 . S
O506 C491 1.240 . S
O507 Gd480 2.395 . S
O507 C491 1.240 . S
O508 Gd481 2.448 . S
O508 C492 1.249 . S
O509 Gd481 2.506 . S
O509 C492 1.252 . S
O510 Gd481 2.435 . S
O510 C499 1.256 . S
O511 Gd480 2.327 . S
O511 Gd481 2.717 . S
O511 C499 1.257 . S
H512 C485 0.930 . S
H513 C486 0.931 . S
H514 C488 0.931 . S
H515 C489 0.931 . S
H516 C494 0.930 . S
H517 C495 0.931 . S
H518 C497 0.931 . S
H519 C498 0.931 . S
Gd520 C523 2.818 1_455 S
Gd520 O540 2.377 . S
Gd520 O542 2.448 1_455 S
Gd520 O543 2.506 1_455 S
Gd520 O544 2.435 . S
Gd520 O545 2.717 . S
Gd520 O547 2.395 1_455 S
Gd520 O551 2.327 . S
Gd521 C532 2.818 . S
Gd521 O541 2.395 . S
Gd521 O545 2.327 . S
Gd521 O546 2.377 . S
Gd521 O548 2.448 . S
Gd521 O549 2.506 . S
Gd521 O550 2.435 . S
Gd521 O551 2.717 . S
C522 O540 1.240 . S
C522 O541 1.240 . S
C523 Gd520 2.818 1_655 S
C523 C524 1.510 1_554 S
C523 O542 1.249 . S
C523 O543 1.252 . S
C524 C523 1.510 1_556 S
C524 C525 1.404 . S
C524 C526 1.352 . S
C525 C524 1.404 . S
C525 C529 1.389 . S
C525 H552 0.930 . S
C526 C524 1.352 . S
C526 C528 1.374 . S
C526 H553 0.931 . S
C527 C528 1.359 . S
C527 C529 1.364 . S
C528 C526 1.374 . S
C528 C527 1.359 . S
C528 H554 0.931 . S
C529 C525 1.389 . S
C529 C527 1.364 . S
C529 H555 0.931 . S
C530 O544 1.256 . S
C530 O545 1.257 . S
C531 O546 1.240 . S
C531 O547 1.240 1_455 S
C532 Gd521 2.818 . S
C532 C533 1.510 . S
C532 O548 1.249 . S
C532 O549 1.252 . S
C533 C532 1.510 . S
C533 C534 1.404 . S
C533 C535 1.352 . S
C534 C533 1.404 . S
C534 C538 1.389 . S
C534 H556 0.930 . S
C535 C533 1.352 . S
C535 C537 1.374 . S
C535 H557 0.931 . S
C536 C537 1.359 . S
C536 C538 1.364 . S
C537 C535 1.374 . S
C537 C536 1.359 . S
C537 H558 0.931 . S
C538 C534 1.389 . S
C538 C536 1.364 . S
C538 H559 0.931 . S
C539 O550 1.256 . S
C539 O551 1.257 . S
O540 Gd520 2.377 . S
O540 C522 1.240 . S
O541 Gd521 2.395 . S
O541 C522 1.240 . S
O542 Gd520 2.448 1_655 S
O542 C523 1.249 . S
O543 Gd520 2.506 1_655 S
O543 C523 1.252 . S
O544 Gd520 2.435 . S
O544 C530 1.256 . S
O545 Gd520 2.717 . S
O545 Gd521 2.327 . S
O545 C530 1.257 . S
O546 Gd521 2.377 . S
O546 C531 1.240 . S
O547 Gd520 2.395 1_655 S
O547 C531 1.240 1_655 S
O548 Gd521 2.448 . S
O548 C532 1.249 . S
O549 Gd521 2.506 . S
O549 C532 1.252 . S
O550 Gd521 2.435 . S
O550 C539 1.256 . S
O551 Gd520 2.327 . S
O551 Gd521 2.717 . S
O551 C539 1.257 . S
H552 C525 0.930 . S
H553 C526 0.931 . S
H554 C528 0.931 . S
H555 C529 0.931 . S
H556 C534 0.930 . S
H557 C535 0.931 . S
H558 C537 0.931 . S
H559 C538 0.931 . S
Gd560 C563 2.818 . S
Gd560 O580 2.377 . S
Gd560 O582 2.448 . S
Gd560 O583 2.506 . S
Gd560 O584 2.435 . S
Gd560 O585 2.717 . S
Gd560 O587 2.395 . S
Gd560 O591 2.327 . S
Gd561 C572 2.818 . S
Gd561 O581 2.395 . S
Gd561 O585 2.327 . S
Gd561 O586 2.377 . S
Gd561 O588 2.448 . S
Gd561 O589 2.506 . S
Gd561 O590 2.435 . S
Gd561 O591 2.717 . S
C562 O580 1.240 . S
C562 O581 1.240 . S
C563 Gd560 2.818 . S
C563 C564 1.510 . S
C563 O582 1.249 . S
C563 O583 1.252 . S
C564 C563 1.510 . S
C564 C565 1.404 . S
C564 C566 1.352 . S
C565 C564 1.404 . S
C565 C569 1.389 . S
C565 H592 0.930 . S
C566 C564 1.352 . S
C566 C568 1.374 . S
C566 H593 0.931 . S
C567 C568 1.359 . S
C567 C569 1.364 . S
C568 C566 1.374 . S
C568 C567 1.359 . S
C568 H594 0.931 . S
C569 C565 1.389 . S
C569 C567 1.364 . S
C569 H595 0.931 . S
C570 O584 1.256 . S
C570 O585 1.257 . S
C571 O586 1.240 . S
C571 O587 1.240 . S
C572 Gd561 2.818 . S
C572 C573 1.510 . S
C572 O588 1.249 . S
C572 O589 1.252 . S
C573 C572 1.510 . S
C573 C574 1.404 . S
C573 C575 1.352 . S
C574 C573 1.404 . S
C574 C578 1.389 . S
C574 H596 0.930 . S
C575 C573 1.352 . S
C575 C577 1.374 . S
C575 H597 0.931 . S
C576 C577 1.359 . S
C576 C578 1.364 . S
C577 C575 1.374 . S
C577 C576 1.359 . S
C577 H598 0.931 . S
C578 C574 1.389 . S
C578 C576 1.364 . S
C578 H599 0.931 . S
C579 O590 1.256 . S
C579 O591 1.257 . S
O580 Gd560 2.377 . S
O580 C562 1.240 . S
O581 Gd561 2.395 . S
O581 C562 1.240 . S
O582 Gd560 2.448 . S
O582 C563 1.249 . S
O583 Gd560 2.506 . S
O583 C563 1.252 . S
O584 Gd560 2.435 . S
O584 C570 1.256 . S
O585 Gd560 2.717 . S
O585 Gd561 2.327 . S
O585 C570 1.257 . S
O586 Gd561 2.377 . S
O586 C571 1.240 . S
O587 Gd560 2.395 . S
O587 C571 1.240 . S
O588 Gd561 2.448 . S
O588 C572 1.249 . S
O589 Gd561 2.506 . S
O589 C572 1.252 . S
O590 Gd561 2.435 . S
O590 C579 1.256 . S
O591 Gd560 2.327 . S
O591 Gd561 2.717 . S
O591 C579 1.257 . S
H592 C565 0.930 . S
H593 C566 0.931 . S
H594 C568 0.931 . S
H595 C569 0.931 . S
H596 C574 0.930 . S
H597 C575 0.931 . S
H598 C577 0.931 . S
H599 C578 0.931 . S
Gd600 C603 2.818 . S
Gd600 O620 2.377 1_655 S
Gd600 O622 2.448 . S
Gd600 O623 2.506 . S
Gd600 O624 2.435 . S
Gd600 O625 2.717 1_655 S
Gd600 O627 2.395 . S
Gd600 O631 2.327 . S
Gd601 C612 2.818 . S
Gd601 O621 2.395 . S
Gd601 O625 2.327 . S
Gd601 O626 2.377 1_455 S
Gd601 O628 2.448 . S
Gd601 O629 2.506 . S
Gd601 O630 2.435 . S
Gd601 O631 2.717 1_455 S
C602 O620 1.240 . S
C602 O621 1.240 . S
C603 Gd600 2.818 . S
C603 C604 1.510 . S
C603 O622 1.249 . S
C603 O623 1.252 . S
C604 C603 1.510 . S
C604 C605 1.404 . S
C604 C606 1.352 . S
C605 C604 1.404 . S
C605 C609 1.389 . S
C605 H632 0.930 . S
C606 C604 1.352 . S
C606 C608 1.374 . S
C606 H633 0.931 . S
C607 C608 1.359 . S
C607 C609 1.364 . S
C608 C606 1.374 . S
C608 C607 1.359 . S
C608 H634 0.931 . S
C609 C605 1.389 . S
C609 C607 1.364 . S
C609 H635 0.931 . S
C610 O624 1.256 . S
C610 O625 1.257 1_655 S
C611 O626 1.240 . S
C611 O627 1.240 . S
C612 Gd601 2.818 . S
C612 C613 1.510 1_556 S
C612 O628 1.249 . S
C612 O629 1.252 . S
C613 C612 1.510 1_554 S
C613 C614 1.404 . S
C613 C615 1.352 . S
C614 C613 1.404 . S
C614 C618 1.389 . S
C614 H636 0.930 . S
C615 C613 1.352 . S
C615 C617 1.374 . S
C615 H637 0.931 . S
C616 C617 1.359 . S
C616 C618 1.364 . S
C617 C615 1.374 . S
C617 C616 1.359 . S
C617 H638 0.931 . S
C618 C614 1.389 . S
C618 C616 1.364 . S
C618 H639 0.931 . S
C619 O630 1.256 . S
C619 O631 1.257 1_455 S
O620 Gd600 2.377 1_455 S
O620 C602 1.240 . S
O621 Gd601 2.395 . S
O621 C602 1.240 . S
O622 Gd600 2.448 . S
O622 C603 1.249 . S
O623 Gd600 2.506 . S
O623 C603 1.252 . S
O624 Gd600 2.435 . S
O624 C610 1.256 . S
O625 Gd600 2.717 1_455 S
O625 Gd601 2.327 . S
O625 C610 1.257 1_455 S
O626 Gd601 2.377 1_655 S
O626 C611 1.240 . S
O627 Gd600 2.395 . S
O627 C611 1.240 . S
O628 Gd601 2.448 . S
O628 C612 1.249 . S
O629 Gd601 2.506 . S
O629 C612 1.252 . S
O630 Gd601 2.435 . S
O630 C619 1.256 . S
O631 Gd600 2.327 . S
O631 Gd601 2.717 1_655 S
O631 C619 1.257 1_655 S
H632 C605 0.930 . S
H633 C606 0.931 . S
H634 C608 0.931 . S
H635 C609 0.931 . S
H636 C614 0.930 . S
H637 C615 0.931 . S
H638 C617 0.931 . S
H639 C618 0.931 . S
C640 C641 1.387 . S
C640 H644 0.950 . S
C640 C649 1.390 1_554 S
C641 C640 1.387 . S
C641 C643 1.387 1_554 S
H642 C649 0.950 . S
C643 C641 1.387 1_556 S
C643 C645 1.390 . S
C643 H647 0.950 . S
H644 C640 0.950 . S
C645 C643 1.390 . S
C645 C646 1.387 . S
C645 H648 0.950 . S
C646 C645 1.387 . S
C646 C649 1.387 . S
H647 C643 0.950 . S
H648 C645 0.950 . S
C649 C640 1.390 1_556 S
C649 H642 0.950 . S
C649 C646 1.387 . S
C650 C651 1.387 . S
C650 H654 0.950 . S
C650 C659 1.390 . S
C651 C650 1.387 . S
C651 C653 1.387 . S
H652 C659 0.950 . S
C653 C651 1.387 . S
C653 C655 1.390 . S
C653 H657 0.950 . S
H654 C650 0.950 . S
C655 C653 1.390 . S
C655 C656 1.387 . S
C655 H658 0.950 . S
C656 C655 1.387 . S
C656 C659 1.387 . S
H657 C653 0.950 . S
H658 C655 0.950 . S
C659 C650 1.390 . S
C659 H652 0.950 . S
C659 C656 1.387 . S
C660 C661 1.387 . S
C660 H664 0.950 . S
C660 C669 1.390 . S
C661 C660 1.387 . S
C661 C663 1.387 . S
H662 C669 0.950 . S
C663 C661 1.387 . S
C663 C665 1.390 . S
C663 H667 0.950 . S
H664 C660 0.950 . S
C665 C663 1.390 . S
C665 C666 1.387 . S
C665 H668 0.950 . S
C666 C665 1.387 . S
C666 C669 1.387 . S
H667 C663 0.950 . S
H668 C665 0.950 . S
C669 C660 1.390 . S
C669 H662 0.950 . S
C669 C666 1.387 . S
C670 C671 1.387 . S
C670 H674 0.950 . S
C670 C679 1.390 . S
C671 C670 1.387 . S
C671 C673 1.387 . S
H672 C679 0.950 . S
C673 C671 1.387 . S
C673 C675 1.390 . S
C673 H677 0.950 . S
H674 C670 0.950 . S
C675 C673 1.390 . S
C675 C676 1.387 . S
C675 H678 0.950 . S
C676 C675 1.387 . S
C676 C679 1.387 . S
H677 C673 0.950 . S
H678 C675 0.950 . S
C679 C670 1.390 . S
C679 H672 0.950 . S
C679 C676 1.387 . S
C680 C681 1.387 . S
C680 H684 0.950 . S
C680 C689 1.390 . S
C681 C680 1.387 . S
C681 C683 1.387 . S
H682 C689 0.950 . S
C683 C681 1.387 . S
C683 C685 1.390 1_554 S
C683 H687 0.950 . S
H684 C680 0.950 . S
C685 C683 1.390 1_556 S
C685 C686 1.387 . S
C685 H688 0.950 . S
C686 C685 1.387 . S
C686 C689 1.387 1_556 S
H687 C683 0.950 . S
H688 C685 0.950 . S
C689 C680 1.390 . S
C689 H682 0.950 . S
C689 C686 1.387 1_554 S
C690 C691 1.387 . S
C690 H694 0.950 . S
C690 C699 1.390 . S
C691 C690 1.387 . S
C691 C693 1.387 . S
H692 C699 0.950 . S
C693 C691 1.387 . S
C693 C695 1.390 . S
C693 H697 0.950 . S
H694 C690 0.950 . S
C695 C693 1.390 . S
C695 C696 1.387 . S
C695 H698 0.950 . S
C696 C695 1.387 . S
C696 C699 1.387 . S
H697 C693 0.950 . S
H698 C695 0.950 . S
C699 C690 1.390 . S
C699 H692 0.950 . S
C699 C696 1.387 . S
C700 C701 1.387 . S
C700 H704 0.950 . S
C700 C709 1.390 . S
C701 C700 1.387 . S
C701 C703 1.387 . S
H702 C709 0.950 . S
C703 C701 1.387 . S
C703 C705 1.390 . S
C703 H707 0.950 . S
H704 C700 0.950 . S
C705 C703 1.390 . S
C705 C706 1.387 . S
C705 H708 0.950 . S
C706 C705 1.387 . S
C706 C709 1.387 . S
H707 C703 0.950 . S
H708 C705 0.950 . S
C709 C700 1.390 . S
C709 H702 0.950 . S
C709 C706 1.387 . S
C710 C711 1.387 . S
C710 H714 0.950 . S
C710 C719 1.390 . S
C711 C710 1.387 . S
C711 C713 1.387 . S
H712 C719 0.950 . S
C713 C711 1.387 . S
C713 C715 1.390 . S
C713 H717 0.950 . S
H714 C710 0.950 . S
C715 C713 1.390 . S
C715 C716 1.387 . S
C715 H718 0.950 . S
C716 C715 1.387 . S
C716 C719 1.387 . S
H717 C713 0.950 . S
H718 C715 0.950 . S
C719 C710 1.390 . S
C719 H712 0.950 . S
C719 C716 1.387 . S
C720 C721 1.387 . S
C720 H724 0.950 . S
C720 C729 1.390 . S
C721 C720 1.387 . S
C721 C723 1.387 . S
H722 C729 0.950 . S
C723 C721 1.387 . S
C723 C725 1.390 . S
C723 H727 0.950 . S
H724 C720 0.950 . S
C725 C723 1.390 . S
C725 C726 1.387 . S
C725 H728 0.950 . S
C726 C725 1.387 . S
C726 C729 1.387 . S
H727 C723 0.950 . S
H728 C725 0.950 . S
C729 C720 1.390 . S
C729 H722 0.950 . S
C729 C726 1.387 . S
C730 C731 1.387 . S
C730 H734 0.950 . S
C730 C739 1.390 . S
C731 C730 1.387 . S
C731 C733 1.387 . S
H732 C739 0.950 . S
C733 C731 1.387 . S
C733 C735 1.390 . S
C733 H737 0.950 . S
H734 C730 0.950 . S
C735 C733 1.390 . S
C735 C736 1.387 . S
C735 H738 0.950 . S
C736 C735 1.387 . S
C736 C739 1.387 . S
H737 C733 0.950 . S
H738 C735 0.950 . S
C739 C730 1.390 . S
C739 H732 0.950 . S
C739 C736 1.387 . S
C740 C741 1.387 . S
C740 H744 0.950 . S
C740 C749 1.390 . S
C741 C740 1.387 . S
C741 C743 1.387 . S
H742 C749 0.950 . S
C743 C741 1.387 . S
C743 C745 1.390 . S
C743 H747 0.950 . S
H744 C740 0.950 . S
C745 C743 1.390 . S
C745 C746 1.387 . S
C745 H748 0.950 . S
C746 C745 1.387 . S
C746 C749 1.387 . S
H747 C743 0.950 . S
H748 C745 0.950 . S
C749 C740 1.390 . S
C749 H742 0.950 . S
C749 C746 1.387 . S
C750 C751 1.387 . S
C750 H754 0.950 . S
C750 C759 1.390 . S
C751 C750 1.387 . S
C751 C753 1.387 . S
H752 C759 0.950 . S
C753 C751 1.387 . S
C753 C755 1.390 . S
C753 H757 0.950 . S
H754 C750 0.950 . S
C755 C753 1.390 . S
C755 C756 1.387 . S
C755 H758 0.950 . S
C756 C755 1.387 . S
C756 C759 1.387 . S
H757 C753 0.950 . S
H758 C755 0.950 . S
C759 C750 1.390 . S
C759 H752 0.950 . S
C759 C756 1.387 . S
C760 C761 1.387 . S
C760 H764 0.950 . S
C760 C769 1.390 . S
C761 C760 1.387 . S
C761 C763 1.387 . S
H762 C769 0.950 . S
C763 C761 1.387 . S
C763 C765 1.390 . S
C763 H767 0.950 . S
H764 C760 0.950 . S
C765 C763 1.390 . S
C765 C766 1.387 . S
C765 H768 0.950 . S
C766 C765 1.387 . S
C766 C769 1.387 . S
H767 C763 0.950 . S
H768 C765 0.950 . S
C769 C760 1.390 . S
C769 H762 0.950 . S
C769 C766 1.387 . S
C770 C771 1.387 . S
C770 H774 0.950 . S
C770 C779 1.390 . S
C771 C770 1.387 . S
C771 C773 1.387 . S
H772 C779 0.950 . S
C773 C771 1.387 . S
C773 C775 1.390 . S
C773 H777 0.950 . S
H774 C770 0.950 . S
C775 C773 1.390 . S
C775 C776 1.387 . S
C775 H778 0.950 . S
C776 C775 1.387 . S
C776 C779 1.387 . S
H777 C773 0.950 . S
H778 C775 0.950 . S
C779 C770 1.390 . S
C779 H772 0.950 . S
C779 C776 1.387 . S
C780 C781 1.387 . S
C780 H784 0.950 . S
C780 C789 1.390 . S
C781 C780 1.387 . S
C781 C783 1.387 . S
H782 C789 0.950 . S
C783 C781 1.387 . S
C783 C785 1.390 . S
C783 H787 0.950 . S
H784 C780 0.950 . S
C785 C783 1.390 . S
C785 C786 1.387 . S
C785 H788 0.950 . S
C786 C785 1.387 . S
C786 C789 1.387 . S
H787 C783 0.950 . S
H788 C785 0.950 . S
C789 C780 1.390 . S
C789 H782 0.950 . S
C789 C786 1.387 . S
C790 C791 1.387 . S
C790 H794 0.950 . S
C790 C799 1.390 . S
C791 C790 1.387 . S
C791 C793 1.387 . S
H792 C799 0.950 . S
C793 C791 1.387 . S
C793 C795 1.390 . S
C793 H797 0.950 . S
H794 C790 0.950 . S
C795 C793 1.390 . S
C795 C796 1.387 . S
C795 H798 0.950 . S
C796 C795 1.387 . S
C796 C799 1.387 . S
H797 C793 0.950 . S
H798 C795 0.950 . S
C799 C790 1.390 . S
C799 H792 0.950 . S
C799 C796 1.387 . S
C800 C801 1.387 . S
C800 H804 0.950 . S
C800 C809 1.390 . S
C801 C800 1.387 . S
C801 C803 1.387 . S
H802 C809 0.950 . S
C803 C801 1.387 . S
C803 C805 1.390 . S
C803 H807 0.950 . S
H804 C800 0.950 . S
C805 C803 1.390 . S
C805 C806 1.387 . S
C805 H808 0.950 . S
C806 C805 1.387 . S
C806 C809 1.387 . S
H807 C803 0.950 . S
H808 C805 0.950 . S
C809 C800 1.390 . S
C809 H802 0.950 . S
C809 C806 1.387 . S
C810 C811 1.387 . S
C810 H814 0.950 . S
C810 C819 1.390 1_655 S
C811 C810 1.387 . S
C811 C813 1.387 1_655 S
H812 C819 0.950 . S
C813 C811 1.387 1_455 S
C813 C815 1.390 . S
C813 H817 0.950 . S
H814 C810 0.950 . S
C815 C813 1.390 . S
C815 C816 1.387 . S
C815 H818 0.950 . S
C816 C815 1.387 . S
C816 C819 1.387 . S
H817 C813 0.950 . S
H818 C815 0.950 . S
C819 C810 1.390 1_455 S
C819 H812 0.950 . S
C819 C816 1.387 . S
C820 C821 1.387 . S
C820 H824 0.950 . S
C820 C829 1.390 . S
C821 C820 1.387 . S
C821 C823 1.387 . S
H822 C829 0.950 . S
C823 C821 1.387 . S
C823 C825 1.390 . S
C823 H827 0.950 . S
H824 C820 0.950 . S
C825 C823 1.390 . S
C825 C826 1.387 . S
C825 H828 0.950 . S
C826 C825 1.387 . S
C826 C829 1.387 . S
H827 C823 0.950 . S
H828 C825 0.950 . S
C829 C820 1.390 . S
C829 H822 0.950 . S
C829 C826 1.387 . S
C830 C831 1.387 . S
C830 H834 0.950 . S
C830 C839 1.390 . S
C831 C830 1.387 . S
C831 C833 1.387 . S
H832 C839 0.950 . S
C833 C831 1.387 . S
C833 C835 1.390 . S
C833 H837 0.950 . S
H834 C830 0.950 . S
C835 C833 1.390 . S
C835 C836 1.387 . S
C835 H838 0.950 . S
C836 C835 1.387 . S
C836 C839 1.387 . S
H837 C833 0.950 . S
H838 C835 0.950 . S
C839 C830 1.390 . S
C839 H832 0.950 . S
C839 C836 1.387 . S
C840 C841 1.387 . S
C840 H844 0.950 . S
C840 C849 1.390 . S
C841 C840 1.387 . S
C841 C843 1.387 1_455 S
H842 C849 0.950 . S
C843 C841 1.387 1_655 S
C843 C845 1.390 . S
C843 H847 0.950 . S
H844 C840 0.950 . S
C845 C843 1.390 . S
C845 C846 1.387 . S
C845 H848 0.950 . S
C846 C845 1.387 . S
C846 C849 1.387 1_655 S
H847 C843 0.950 . S
H848 C845 0.950 . S
C849 C840 1.390 . S
C849 H842 0.950 . S
C849 C846 1.387 1_455 S
C850 C851 1.387 . S
C850 H854 0.950 . S
C850 C859 1.390 . S
C851 C850 1.387 . S
C851 C853 1.387 . S
H852 C859 0.950 . S
C853 C851 1.387 . S
C853 C855 1.390 . S
C853 H857 0.950 . S
H854 C850 0.950 . S
C855 C853 1.390 . S
C855 C856 1.387 . S
C855 H858 0.950 . S
C856 C855 1.387 . S
C856 C859 1.387 . S
H857 C853 0.950 . S
H858 C855 0.950 . S
C859 C850 1.390 . S
C859 H852 0.950 . S
C859 C856 1.387 . S
C860 C861 1.387 . S
C860 H864 0.950 . S
C860 C869 1.390 . S
C861 C860 1.387 . S
C861 C863 1.387 . S
H862 C869 0.950 . S
C863 C861 1.387 . S
C863 C865 1.390 . S
C863 H867 0.950 . S
H864 C860 0.950 . S
C865 C863 1.390 . S
C865 C866 1.387 . S
C865 H868 0.950 . S
C866 C865 1.387 . S
C866 C869 1.387 . S
H867 C863 0.950 . S
H868 C865 0.950 . S
C869 C860 1.390 . S
C869 H862 0.950 . S
C869 C866 1.387 . S
C870 C871 1.387 . S
C870 H874 0.950 . S
C870 C879 1.390 . S
C871 C870 1.387 . S
C871 C873 1.387 . S
H872 C879 0.950 . S
C873 C871 1.387 . S
C873 C875 1.390 . S
C873 H877 0.950 . S
H874 C870 0.950 . S
C875 C873 1.390 . S
C875 C876 1.387 . S
C875 H878 0.950 . S
C876 C875 1.387 . S
C876 C879 1.387 . S
H877 C873 0.950 . S
H878 C875 0.950 . S
C879 C870 1.390 . S
C879 H872 0.950 . S
C879 C876 1.387 . S
C880 C881 1.387 . S
C880 H884 0.950 . S
C880 C889 1.390 1_554 S
C881 C880 1.387 . S
C881 C883 1.387 1_545 S
H882 C889 0.950 . S
C883 C881 1.387 1_565 S
C883 C885 1.390 1_554 S
C883 H887 0.950 . S
H884 C880 0.950 . S
C885 C883 1.390 1_556 S
C885 C886 1.387 . S
C885 H888 0.950 . S
C886 C885 1.387 . S
C886 C889 1.387 1_565 S
H887 C883 0.950 . S
H888 C885 0.950 . S
C889 C880 1.390 1_556 S
C889 H882 0.950 . S
C889 C886 1.387 1_545 S
C890 C891 1.387 . S
C890 H894 0.950 . S
C890 C899 1.390 . S
C891 C890 1.387 . S
C891 C893 1.387 . S
H892 C899 0.950 . S
C893 C891 1.387 . S
C893 C895 1.390 . S
C893 H897 0.950 . S
H894 C890 0.950 . S
C895 C893 1.390 . S
C895 C896 1.387 . S
C895 H898 0.950 . S
C896 C895 1.387 . S
C896 C899 1.387 . S
H897 C893 0.950 . S
H898 C895 0.950 . S
C899 C890 1.390 . S
C899 H892 0.950 . S
C899 C896 1.387 . S
C900 C901 1.387 1_545 S
C900 H904 0.950 . S
C900 C909 1.390 . S
C901 C900 1.387 1_565 S
C901 C903 1.387 . S
H902 C909 0.950 . S
C903 C901 1.387 . S
C903 C905 1.390 . S
C903 H907 0.950 . S
H904 C900 0.950 . S
C905 C903 1.390 . S
C905 C906 1.387 1_565 S
C905 H908 0.950 . S
C906 C905 1.387 1_545 S
C906 C909 1.387 . S
H907 C903 0.950 . S
H908 C905 0.950 . S
C909 C900 1.390 . S
C909 H902 0.950 . S
C909 C906 1.387 . S
C910 C911 1.387 . S
C910 H914 0.950 . S
C910 C919 1.390 . S
C911 C910 1.387 . S
C911 C913 1.387 . S
H912 C919 0.950 . S
C913 C911 1.387 . S
C913 C915 1.390 . S
C913 H917 0.950 . S
H914 C910 0.950 . S
C915 C913 1.390 . S
C915 C916 1.387 . S
C915 H918 0.950 . S
C916 C915 1.387 . S
C916 C919 1.387 . S
H917 C913 0.950 . S
H918 C915 0.950 . S
C919 C910 1.390 . S
C919 H912 0.950 . S
C919 C916 1.387 . S
C920 C921 1.387 . S
C920 H924 0.950 . S
C920 C929 1.390 . S
C921 C920 1.387 . S
C921 C923 1.387 . S
H922 C929 0.950 . S
C923 C921 1.387 . S
C923 C925 1.390 . S
C923 H927 0.950 . S
H924 C920 0.950 . S
C925 C923 1.390 . S
C925 C926 1.387 . S
C925 H928 0.950 . S
C926 C925 1.387 . S
C926 C929 1.387 . S
H927 C923 0.950 . S
H928 C925 0.950 . S
C929 C920 1.390 . S
C929 H922 0.950 . S
C929 C926 1.387 . S
C930 C931 1.387 . S
C930 H934 0.950 . S
C930 C939 1.390 . S
C931 C930 1.387 . S
C931 C933 1.387 . S
H932 C939 0.950 . S
C933 C931 1.387 . S
C933 C935 1.390 . S
C933 H937 0.950 . S
H934 C930 0.950 . S
C935 C933 1.390 . S
C935 C936 1.387 . S
C935 H938 0.950 . S
C936 C935 1.387 . S
C936 C939 1.387 . S
H937 C933 0.950 . S
H938 C935 0.950 . S
C939 C930 1.390 . S
C939 H932 0.950 . S
C939 C936 1.387 . S
C940 C941 1.387 . S
C940 H944 0.950 . S
C940 C949 1.390 . S
C941 C940 1.387 . S
C941 C943 1.387 . S
H942 C949 0.950 . S
C943 C941 1.387 . S
C943 C945 1.390 . S
C943 H947 0.950 . S
H944 C940 0.950 . S
C945 C943 1.390 . S
C945 C946 1.387 . S
C945 H948 0.950 . S
C946 C945 1.387 . S
C946 C949 1.387 . S
H947 C943 0.950 . S
H948 C945 0.950 . S
C949 C940 1.390 . S
C949 H942 0.950 . S
C949 C946 1.387 . S
C950 C951 1.387 . S
C950 H954 0.950 . S
C950 C959 1.390 1_556 S
C951 C950 1.387 . S
C951 C953 1.387 . S
H952 C959 0.950 . S
C953 C951 1.387 . S
C953 C955 1.390 1_556 S
C953 H957 0.950 . S
H954 C950 0.950 . S
C955 C953 1.390 1_554 S
C955 C956 1.387 . S
C955 H958 0.950 . S
C956 C955 1.387 . S
C956 C959 1.387 . S
H957 C953 0.950 . S
H958 C955 0.950 . S
C959 C950 1.390 1_554 S
C959 H952 0.950 . S
C959 C956 1.387 . S
C960 C961 1.387 . S
C960 H964 0.950 . S
C960 C969 1.390 . S
C961 C960 1.387 . S
C961 C963 1.387 . S
H962 C969 0.950 . S
C963 C961 1.387 . S
C963 C965 1.390 . S
C963 H967 0.950 . S
H964 C960 0.950 . S
C965 C963 1.390 . S
C965 C966 1.387 . S
C965 H968 0.950 . S
C966 C965 1.387 . S
C966 C969 1.387 . S
H967 C963 0.950 . S
H968 C965 0.950 . S
C969 C960 1.390 . S
C969 H962 0.950 . S
C969 C966 1.387 . S
C970 C971 1.387 . S
C970 H974 0.950 . S
C970 C979 1.390 . S
C971 C970 1.387 . S
C971 C973 1.387 . S
H972 C979 0.950 . S
C973 C971 1.387 . S
C973 C975 1.390 . S
C973 H977 0.950 . S
H974 C970 0.950 . S
C975 C973 1.390 . S
C975 C976 1.387 . S
C975 H978 0.950 . S
C976 C975 1.387 . S
C976 C979 1.387 . S
H977 C973 0.950 . S
H978 C975 0.950 . S
C979 C970 1.390 . S
C979 H972 0.950 . S
C979 C976 1.387 . S
C980 C981 1.387 . S
C980 H984 0.950 . S
C980 C989 1.390 . S
C981 C980 1.387 . S
C981 C983 1.387 . S
H982 C989 0.950 . S
C983 C981 1.387 . S
C983 C985 1.390 . S
C983 H987 0.950 . S
H984 C980 0.950 . S
C985 C983 1.390 . S
C985 C986 1.387 . S
C985 H988 0.950 . S
C986 C985 1.387 . S
C986 C989 1.387 . S
H987 C983 0.950 . S
H988 C985 0.950 . S
C989 C980 1.390 . S
C989 H982 0.950 . S
C989 C986 1.387 . S
C990 C991 1.387 . S
C990 H994 0.950 . S
C990 C999 1.390 . S
C991 C990 1.387 . S
C991 C993 1.387 . S
H992 C999 0.950 . S
C993 C991 1.387 . S
C993 C995 1.390 . S
C993 H997 0.950 . S
H994 C990 0.950 . S
C995 C993 1.390 . S
C995 C996 1.387 . S
C995 H998 0.950 . S
C996 C995 1.387 . S
C996 C999 1.387 . S
H997 C993 0.950 . S
H998 C995 0.950 . S
C999 C990 1.390 . S
C999 H992 0.950 . S
C999 C996 1.387 . S
C1000 C1001 1.387 . S
C1000 H1004 0.950 . S
C1000 C1009 1.390 . S
C1001 C1000 1.387 . S
C1001 C1003 1.387 . S
H1002 C1009 0.950 . S
C1003 C1001 1.387 . S
C1003 C1005 1.390 . S
C1003 H1007 0.950 . S
H1004 C1000 0.950 . S
C1005 C1003 1.390 . S
C1005 C1006 1.387 . S
C1005 H1008 0.950 . S
C1006 C1005 1.387 . S
C1006 C1009 1.387 . S
H1007 C1003 0.950 . S
H1008 C1005 0.950 . S
C1009 C1000 1.390 . S
C1009 H1002 0.950 . S
C1009 C1006 1.387 . S
C1010 C1011 1.387 . S
C1010 H1014 0.950 . S
C1010 C1019 1.390 . S
C1011 C1010 1.387 . S
C1011 C1013 1.387 . S
H1012 C1019 0.950 1_455 S
C1013 C1011 1.387 . S
C1013 C1015 1.390 . S
C1013 H1017 0.950 . S
H1014 C1010 0.950 . S
C1015 C1013 1.390 . S
C1015 C1016 1.387 . S
C1015 H1018 0.950 . S
C1016 C1015 1.387 . S
C1016 C1019 1.387 . S
H1017 C1013 0.950 . S
H1018 C1015 0.950 . S
C1019 C1010 1.390 . S
C1019 H1012 0.950 1_655 S
C1019 C1016 1.387 . S
C1020 C1021 1.387 . S
C1020 H1024 0.950 . S
C1020 C1029 1.390 . S
C1021 C1020 1.387 . S
C1021 C1023 1.387 . S
H1022 C1029 0.950 . S
C1023 C1021 1.387 . S
C1023 C1025 1.390 . S
C1023 H1027 0.950 . S
H1024 C1020 0.950 . S
C1025 C1023 1.390 . S
C1025 C1026 1.387 . S
C1025 H1028 0.950 . S
C1026 C1025 1.387 . S
C1026 C1029 1.387 . S
H1027 C1023 0.950 . S
H1028 C1025 0.950 . S
C1029 C1020 1.390 . S
C1029 H1022 0.950 . S
C1029 C1026 1.387 . S
C1030 C1031 1.387 . S
C1030 H1034 0.950 . S
C1030 C1039 1.390 . S
C1031 C1030 1.387 . S
C1031 C1033 1.387 . S
H1032 C1039 0.950 . S
C1033 C1031 1.387 . S
C1033 C1035 1.390 . S
C1033 H1037 0.950 . S
H1034 C1030 0.950 . S
C1035 C1033 1.390 . S
C1035 C1036 1.387 . S
C1035 H1038 0.950 . S
C1036 C1035 1.387 . S
C1036 C1039 1.387 . S
H1037 C1033 0.950 . S
H1038 C1035 0.950 . S
C1039 C1030 1.390 . S
C1039 H1032 0.950 . S
C1039 C1036 1.387 . S
C1040 C1041 1.387 . S
C1040 H1044 0.950 . S
C1040 C1049 1.390 . S
C1041 C1040 1.387 . S
C1041 C1043 1.387 . S
H1042 C1049 0.950 . S
C1043 C1041 1.387 . S
C1043 C1045 1.390 . S
C1043 H1047 0.950 . S
H1044 C1040 0.950 . S
C1045 C1043 1.390 . S
C1045 C1046 1.391 . S
C1045 H1048 0.950 1_556 S
C1046 C1045 1.391 . S
C1046 C1049 1.401 . S
H1047 C1043 0.950 . S
H1048 C1045 0.950 1_554 S
C1049 C1040 1.390 . S
C1049 H1042 0.950 . S
C1049 C1046 1.401 . S
C1050 C1051 1.387 . S
C1050 H1054 0.950 . S
C1050 C1059 1.390 . S
C1051 C1050 1.387 . S
C1051 C1053 1.387 . S
H1052 C1059 0.950 . S
C1053 C1051 1.387 . S
C1053 C1055 1.390 . S
C1053 H1057 0.950 . S
H1054 C1050 0.950 . S
C1055 C1053 1.390 . S
C1055 C1056 1.387 . S
C1055 H1058 0.950 . S
C1056 C1055 1.387 . S
C1056 C1059 1.387 . S
H1057 C1053 0.950 . S
H1058 C1055 0.950 . S
C1059 C1050 1.390 . S
C1059 H1052 0.950 . S
C1059 C1056 1.387 . S
C1060 C1061 1.387 . S
C1060 H1064 0.950 . S
C1060 C1069 1.390 . S
C1061 C1060 1.387 . S
C1061 C1063 1.387 . S
H1062 C1069 0.950 . S
C1063 C1061 1.387 . S
C1063 C1065 1.390 . S
C1063 H1067 0.950 1_655 S
H1064 C1060 0.950 . S
C1065 C1063 1.390 . S
C1065 C1066 1.387 . S
C1065 H1068 0.950 . S
C1066 C1065 1.387 . S
C1066 C1069 1.387 . S
H1067 C1063 0.950 1_455 S
H1068 C1065 0.950 . S
C1069 C1060 1.390 . S
C1069 H1062 0.950 . S
C1069 C1066 1.387 . S
C1070 C1071 1.387 . S
C1070 H1074 0.950 . S
C1070 C1079 1.390 . S
C1071 C1070 1.387 . S
C1071 C1073 1.387 . S
H1072 C1079 0.950 . S
C1073 C1071 1.387 . S
C1073 C1075 1.390 . S
C1073 H1077 0.950 . S
H1074 C1070 0.950 . S
C1075 C1073 1.390 . S
C1075 C1076 1.387 . S
C1075 H1078 0.950 . S
C1076 C1075 1.387 . S
C1076 C1079 1.387 . S
H1077 C1073 0.950 . S
H1078 C1075 0.950 . S
C1079 C1070 1.390 . S
C1079 H1072 0.950 . S
C1079 C1076 1.387 . S
C1080 C1081 1.387 . S
C1080 H1084 0.950 . S
C1080 C1089 1.390 . S
C1081 C1080 1.387 . S
C1081 C1083 1.387 . S
H1082 C1089 0.950 . S
C1083 C1081 1.387 . S
C1083 C1085 1.390 . S
C1083 H1087 0.950 . S
H1084 C1080 0.950 . S
C1085 C1083 1.390 . S
C1085 C1086 1.390 . S
C1085 H1088 0.950 1_554 S
C1086 C1085 1.390 . S
C1086 C1089 1.407 . S
H1087 C1083 0.950 . S
H1088 C1085 0.950 1_556 S
C1089 C1080 1.390 . S
C1089 H1082 0.950 . S
C1089 C1086 1.407 . S
C1090 C1091 1.387 . S
C1090 H1094 0.950 . S
C1090 C1099 1.390 . S
C1091 C1090 1.387 . S
C1091 C1093 1.387 . S
H1092 C1099 0.950 . S
C1093 C1091 1.387 . S
C1093 C1095 1.390 . S
C1093 H1097 0.950 . S
H1094 C1090 0.950 . S
C1095 C1093 1.390 . S
C1095 C1096 1.387 . S
C1095 H1098 0.950 . S
C1096 C1095 1.387 . S
C1096 C1099 1.387 . S
H1097 C1093 0.950 . S
H1098 C1095 0.950 . S
C1099 C1090 1.390 . S
C1099 H1092 0.950 . S
C1099 C1096 1.387 . S
C1100 C1101 1.387 . S
C1100 H1104 0.950 . S
C1100 C1109 1.390 . S
C1101 C1100 1.387 . S
C1101 C1103 1.387 . S
H1102 C1109 0.950 . S
C1103 C1101 1.387 . S
C1103 C1105 1.390 . S
C1103 H1107 0.950 . S
H1104 C1100 0.950 . S
C1105 C1103 1.390 . S
C1105 C1106 1.387 . S
C1105 H1108 0.950 . S
C1106 C1105 1.387 . S
C1106 C1109 1.387 . S
H1107 C1103 0.950 . S
H1108 C1105 0.950 . S
C1109 C1100 1.390 . S
C1109 H1102 0.950 . S
C1109 C1106 1.387 . S
C1110 C1111 1.387 . S
C1110 H1114 0.950 . S
C1110 C1119 1.390 . S
C1111 C1110 1.387 . S
C1111 C1113 1.387 . S
H1112 C1119 0.950 . S
C1113 C1111 1.387 . S
C1113 C1115 1.390 . S
C1113 H1117 0.950 . S
H1114 C1110 0.950 . S
C1115 C1113 1.390 . S
C1115 C1116 1.387 . S
C1115 H1118 0.950 . S
C1116 C1115 1.387 . S
C1116 C1119 1.387 . S
H1117 C1113 0.950 . S
H1118 C1115 0.950 . S
C1119 C1110 1.390 . S
C1119 H1112 0.950 . S
C1119 C1116 1.387 . S
C641 C11 0.381 . S
C646 C287 0.686 . S
C651 C51 2.111 . S
C656 C167 2.118 . S
C661 C207 1.364 . S
C666 C87 1.199 . S
C671 C131 2.998 . S
C676 C251 2.909 . S
C681 C456 0.688 . S
C686 C162 0.382 . S
C691 C322 2.110 . S
C696 C16 2.118 . S
C701 C416 1.369 . S
C706 C256 1.206 . S
C711 C82 2.908 . S
C716 C362 2.997 . S
C721 C367 0.685 . S
C726 C491 0.380 . S
C731 C411 2.111 . S
C736 C567 2.118 . S
C741 C527 1.206 . S
C746 C327 1.369 . S
C751 C451 2.997 . S
C756 C611 2.909 1_554 S
C761 C562 0.384 . S
C766 C136 0.690 . S
C771 C496 2.119 . S
C776 C202 2.110 . S
C781 C56 1.370 . S
C786 C616 1.207 . S
C791 C282 2.997 . S
C796 C522 2.909 1_556 S
C801 C530 0.951 . S
C806 C19 0.969 . S
C811 C459 1.650 . S
C816 C59 1.320 . S
C821 C499 0.968 . S
C826 C90 0.953 . S
C831 C419 1.319 . S
C836 C139 1.649 . S
C841 C170 0.969 . S
C846 C619 0.951 1_655 S
C851 C370 1.651 . S
C856 C210 1.325 . S
C861 C259 0.947 . S
C866 C570 0.972 . S
C871 C290 1.650 . S
C876 C330 1.320 1_455 S
C881 C10 1.970 . S
C886 C179 1.970 . S
C891 C50 2.372 . S
C896 C219 2.372 . S
C901 C250 2.052 1_565 S
C906 C99 2.052 1_545 S
C911 C130 1.634 . S
C916 C299 1.634 . S
C921 C410 2.372 . S
C926 C339 2.372 . S
C931 C450 1.636 . S
C936 C379 1.636 . S
C941 C490 1.970 . S
C946 C579 1.970 . S
C951 C610 2.048 1_455 S
C956 C539 2.047 . S
C961 C7 2.833 . S
C966 C291 2.915 . S
C971 C47 1.057 . S
C976 C171 1.161 . S
C981 C211 3.684 1_556 S
C986 C91 3.650 . S
C991 C247 0.902 . S
C996 C127 0.909 . S
C1001 C442 2.916 . S
C1006 C176 2.834 . S
C1011 C336 1.055 . S
C1016 C2 1.160 . S
C1021 C402 3.684 1_554 S
C1026 C242 3.650 . S
C1031 C96 0.908 . S
C1036 C376 0.913 . S
C1041 C487 2.834 . S
C1046 C371 2.898 1_556 S
C1051 C571 1.161 . S
C1056 C407 1.057 . S
C1061 C531 3.651 1_655 S
C1066 C331 3.684 . S
C1071 C607 0.908 . S
C1076 C447 0.914 . S
C1081 C576 2.833 . S
C1086 C122 2.895 1_554 S
C1091 C216 1.057 . S
C1096 C482 1.162 . S
C1101 C42 3.684 . S
C1106 C602 3.651 . S
C1111 C536 0.906 . S
C1116 C296 0.911 . S
