# Generated by pormake.
# Topology und, (4)-cn, num edge types: 1
# Building blocks:
#     Node 0, Type 0, BuildingBlock: TATPOV_clean_sbu_0, # of connection points: 4
#     Node 1, Type 0, BuildingBlock: TATPOV_clean_sbu_0, # of connection points: 4
#     Node 2, Type 0, BuildingBlock: TATPOV_clean_sbu_0, # of connection points: 4
#     Node 3, Type 0, BuildingBlock: TATPOV_clean_sbu_0, # of connection points: 4
#     Node 4, Type 0, BuildingBlock: TATPOV_clean_sbu_0, # of connection points: 4
#     Node 5, Type 0, BuildingBlock: TATPOV_clean_sbu_0, # of connection points: 4
#     Node 6, Type 0, BuildingBlock: TATPOV_clean_sbu_0, # of connection points: 4
#     Node 7, Type 0, BuildingBlock: TATPOV_clean_sbu_0, # of connection points: 4
#     Node 8, Type 0, BuildingBlock: TATPOV_clean_sbu_0, # of connection points: 4
#     Node 9, Type 0, BuildingBlock: TATPOV_clean_sbu_0, # of connection points: 4
#     Node 10, Type 0, BuildingBlock: TATPOV_clean_sbu_0, # of connection points: 4
#     Node 11, Type 0, BuildingBlock: TATPOV_clean_sbu_0, # of connection points: 4
#     Node 12, Type 0, BuildingBlock: TATPOV_clean_sbu_0, # of connection points: 4
#     Node 13, Type 0, BuildingBlock: TATPOV_clean_sbu_0, # of connection points: 4
#     Node 14, Type 0, BuildingBlock: TATPOV_clean_sbu_0, # of connection points: 4
#     Node 15, Type 0, BuildingBlock: TATPOV_clean_sbu_0, # of connection points: 4
#     Edge 16, Type (0, 0), BuildingBlock: XIVTED_clean_linker_0, # of connection points: 2
#     Edge 17, Type (0, 0), BuildingBlock: XIVTED_clean_linker_0, # of connection points: 2
#     Edge 18, Type (0, 0), BuildingBlock: XIVTED_clean_linker_0, # of connection points: 2
#     Edge 19, Type (0, 0), BuildingBlock: XIVTED_clean_linker_0, # of connection points: 2
#     Edge 20, Type (0, 0), BuildingBlock: XIVTED_clean_linker_0, # of connection points: 2
#     Edge 21, Type (0, 0), BuildingBlock: XIVTED_clean_linker_0, # of connection points: 2
#     Edge 22, Type (0, 0), BuildingBlock: XIVTED_clean_linker_0, # of connection points: 2
#     Edge 23, Type (0, 0), BuildingBlock: XIVTED_clean_linker_0, # of connection points: 2
#     Edge 24, Type (0, 0), BuildingBlock: XIVTED_clean_linker_0, # of connection points: 2
#     Edge 25, Type (0, 0), BuildingBlock: XIVTED_clean_linker_0, # of connection points: 2
#     Edge 26, Type (0, 0), BuildingBlock: XIVTED_clean_linker_0, # of connection points: 2
#     Edge 27, Type (0, 0), BuildingBlock: XIVTED_clean_linker_0, # of connection points: 2
#     Edge 28, Type (0, 0), BuildingBlock: XIVTED_clean_linker_0, # of connection points: 2
#     Edge 29, Type (0, 0), BuildingBlock: XIVTED_clean_linker_0, # of connection points: 2
#     Edge 30, Type (0, 0), BuildingBlock: XIVTED_clean_linker_0, # of connection points: 2
#     Edge 31, Type (0, 0), BuildingBlock: XIVTED_clean_linker_0, # of connection points: 2
#     Edge 32, Type (0, 0), BuildingBlock: XIVTED_clean_linker_0, # of connection points: 2
#     Edge 33, Type (0, 0), BuildingBlock: XIVTED_clean_linker_0, # of connection points: 2
#     Edge 34, Type (0, 0), BuildingBlock: XIVTED_clean_linker_0, # of connection points: 2
#     Edge 35, Type (0, 0), BuildingBlock: XIVTED_clean_linker_0, # of connection points: 2
#     Edge 36, Type (0, 0), BuildingBlock: XIVTED_clean_linker_0, # of connection points: 2
#     Edge 37, Type (0, 0), BuildingBlock: XIVTED_clean_linker_0, # of connection points: 2
#     Edge 38, Type (0, 0), BuildingBlock: XIVTED_clean_linker_0, # of connection points: 2
#     Edge 39, Type (0, 0), BuildingBlock: XIVTED_clean_linker_0, # of connection points: 2
#     Edge 40, Type (0, 0), BuildingBlock: XIVTED_clean_linker_0, # of connection points: 2
#     Edge 41, Type (0, 0), BuildingBlock: XIVTED_clean_linker_0, # of connection points: 2
#     Edge 42, Type (0, 0), BuildingBlock: XIVTED_clean_linker_0, # of connection points: 2
#     Edge 43, Type (0, 0), BuildingBlock: XIVTED_clean_linker_0, # of connection points: 2
#     Edge 44, Type (0, 0), BuildingBlock: XIVTED_clean_linker_0, # of connection points: 2
#     Edge 45, Type (0, 0), BuildingBlock: XIVTED_clean_linker_0, # of connection points: 2
#     Edge 46, Type (0, 0), BuildingBlock: XIVTED_clean_linker_0, # of connection points: 2
#     Edge 47, Type (0, 0), BuildingBlock: XIVTED_clean_linker_0, # of connection points: 2
# Relax obj value: 0.104
# Max RMSD: 0.161
# Mean RMSD: 0.161
data_MOF--net-und--node1-TATPOV_clean_sbu_0--edge1-XIVTED_clean_linker_0
_symmetry_space_group_name_H-M    P1
_symmetry_Int_Tables_number       1
_symmetry_cell_setting            triclinic
loop_
_symmetry_equiv_pos_as_xyz
'x, y, z'
_cell_length_a     60.630055
_cell_length_b     60.650369
_cell_length_c     21.047739
_cell_angle_alpha  89.916998
_cell_angle_beta   90.062178
_cell_angle_gamma 93.171222
loop_
_atom_site_label
_atom_site_type_symbol
_atom_site_fract_x
_atom_site_fract_y
_atom_site_fract_z
_atom_type_partial_charge
Zn0 Zn 0.28192 0.33742 0.00085 0.0
Zn1 Zn 0.23823 0.34246 -0.00018 0.0
O2 O 0.24495 0.32435 0.07961 0.0
O3 O 0.2807 0.31996 0.08158 0.0
O4 O 0.20622 0.34959 0.00982 0.0
O5 O 0.2886 0.37025 0.00033 0.0
O6 O 0.25305 0.37332 0.98433 0.0
C7 C 0.2617 0.31611 0.10516 0.0
C8 C 0.25706 0.31539 0.89648 0.0
O9 O 0.24004 0.32277 0.92266 0.0
O10 O 0.27618 0.32018 0.91887 0.0
C11 C 0.19302 0.33993 0.04915 0.0
O12 O 0.19952 0.32303 0.08187 0.0
C13 C 0.27257 0.38206 -0.01175 0.0
Zn14 Zn 0.91202 0.97034 0.22126 0.0
Zn15 Zn 0.9073 0.01409 0.22755 0.0
O16 O 0.92133 0.00781 0.14138 0.0
O17 O 0.92521 0.97211 0.13406 0.0
O18 O 0.90013 0.04602 0.2192 0.0
O19 O 0.87944 0.96402 0.23474 0.0
O20 O 0.8773 -0.0005 0.2537 0.0
C21 C 0.92802 0.99132 0.11101 0.0
C22 C 0.93892 0.99461 0.31811 0.0
O23 O 0.93037 0.01183 0.29658 0.0
O24 O 0.93315 0.97569 0.296 0.0
C25 C 0.91081 0.05958 0.18299 0.0
O26 O 0.92891 0.05356 0.15532 0.0
C27 C 0.86838 0.98003 0.25205 0.0
Zn28 Zn 0.21567 0.66885 0.49681 0.0
Zn29 Zn 0.25957 0.66529 0.49837 0.0
O30 O 0.25114 0.6832 0.57561 0.0
O31 O 0.21525 0.68646 0.57756 0.0
O32 O 0.29118 0.66043 0.51948 0.0
O33 O 0.21081 0.63568 0.49624 0.0
O34 O 0.24662 0.63385 0.48224 0.0
C35 C 0.23418 0.69087 0.60113 0.0
C36 C 0.24123 0.69149 0.39321 0.0
O37 O 0.25839 0.68462 0.42016 0.0
O38 O 0.22213 0.68623 0.41504 0.0
C39 C 0.30551 0.65207 0.4843 0.0
O40 O 0.30048 0.64707 0.42513 0.0
C41 C 0.22737 0.62446 0.48529 0.0
Zn42 Zn 0.58166 0.04108 0.74256 0.0
Zn43 Zn 0.58788 0.99807 0.73817 0.0
O44 O 0.56903 0.0063 0.66202 0.0
O45 O 0.56423 0.04191 0.66165 0.0
O46 O 0.59542 0.96751 0.71299 0.0
O47 O 0.61436 0.0487 0.74533 0.0
O48 O 0.6183 0.01314 0.75832 0.0
C49 C 0.56051 0.02302 0.63738 0.0
C50 C 0.56031 0.01294 0.84366 0.0
O51 O 0.56831 0.99653 0.81588 0.0
O52 O 0.56445 0.03243 0.82307 0.0
C53 C 0.59759 0.9503 0.74633 0.0
O54 O 0.59432 0.95099 0.80796 0.0
C55 C 0.62652 0.03289 0.75698 0.0
Zn56 Zn 0.715 0.67033 0.00402 0.0
Zn57 Zn 0.75808 0.66421 0.00082 0.0
O58 O 0.75004 0.68302 0.92445 0.0
O59 O 0.71443 0.68789 0.92332 0.0
O60 O 0.7888 0.65695 0.97617 0.0
O61 O 0.70756 0.63762 0.00623 0.0
O62 O 0.74309 0.63368 0.01996 0.0
C63 C 0.7334 0.69157 0.89944 0.0
C64 C 0.74259 0.69158 0.10624 0.0
O65 O 0.75916 0.6837 0.07886 0.0
O66 O 0.7232 0.68739 0.08499 0.0
C67 C 0.80547 0.65311 0.01017 0.0
O68 O 0.80404 0.65426 0.07234 0.0
C69 C 0.72334 0.62545 0.01809 0.0
Zn70 Zn 0.08307 0.03855 0.73578 0.0
Zn71 Zn 0.08803 0.99499 0.73965 0.0
O72 O 0.06859 0.00331 0.81384 0.0
O73 O 0.06424 0.03901 0.81427 0.0
O74 O 0.09364 0.96384 0.76417 0.0
O75 O 0.11607 0.04466 0.73838 0.0
O76 O 0.11927 0.00898 0.72603 0.0
C77 C 0.06 0.02006 0.83783 0.0
C78 C 0.0628 0.01178 0.63061 0.0
O79 O 0.06977 0.99496 0.65906 0.0
O80 O 0.06714 0.03106 0.65238 0.0
C81 C 0.1 0.94807 0.73044 0.0
O82 O 0.10286 0.95097 0.66907 0.0
C83 C 0.12801 0.02851 0.72901 0.0
Zn84 Zn 0.78628 0.34325 0.4854 0.0
Zn85 Zn 0.74271 0.34939 0.48856 0.0
O86 O 0.74926 0.33411 0.40434 0.0
O87 O 0.78485 0.32923 0.39922 0.0
O88 O 0.71102 0.3571 0.47752 0.0
O89 O 0.79339 0.37579 0.4969 0.0
O90 O 0.7579 0.37931 0.51292 0.0
C91 C 0.76571 0.32664 0.37549 0.0
C92 C 0.76058 0.31817 0.58314 0.0
O93 O 0.74383 0.32711 0.55997 0.0
O94 O 0.77977 0.323 0.56144 0.0
C95 C 0.69747 0.34592 0.44245 0.0
O96 O 0.70338 0.32729 0.41772 0.0
C97 C 0.77765 0.38757 0.51209 0.0
Zn98 Zn 0.41132 0.97002 0.25468 0.0
Zn99 Zn 0.40593 0.01395 0.24978 0.0
O100 O 0.42143 0.00798 0.3342 0.0
O101 O 0.42591 0.97231 0.34015 0.0
O102 O 0.3993 0.04611 0.25595 0.0
O103 O 0.3785 0.96379 0.24555 0.0
O104 O 0.37538 0.99935 0.22963 0.0
C105 C 0.42884 0.9915 0.36324 0.0
C106 C 0.43616 0.99436 0.15468 0.0
O107 O 0.42762 0.01134 0.17758 0.0
O108 O 0.43118 0.97533 0.17732 0.0
C109 C 0.41036 0.05979 0.29086 0.0
O110 O 0.42807 0.0535 0.32021 0.0
C111 C 0.36679 0.97975 0.23166 0.0
Zn112 Zn 0.78413 0.84087 0.51703 0.0
Zn113 Zn 0.7404 0.84634 0.51208 0.0
O114 O 0.74647 0.83106 0.59675 0.0
O115 O 0.78212 0.82656 0.60286 0.0
O116 O 0.70859 0.85401 0.52026 0.0
O117 O 0.79095 0.87354 0.50669 0.0
O118 O 0.75545 0.87644 0.48917 0.0
C119 C 0.76293 0.82371 0.62598 0.0
C120 C 0.75932 0.81562 0.41802 0.0
O121 O 0.7423 0.82418 0.44073 0.0
O122 O 0.77837 0.82078 0.44033 0.0
C123 C 0.69476 0.8438 0.55671 0.0
O124 O 0.70039 0.82581 0.58588 0.0
C125 C 0.77504 0.88507 0.4911 0.0
Zn126 Zn 0.40986 0.46712 0.7262 0.0
Zn127 Zn 0.40495 0.51101 0.72904 0.0
O128 O 0.41885 0.50373 0.64346 0.0
O129 O 0.42284 0.468 0.63858 0.0
O130 O 0.39838 0.543 0.71786 0.0
O131 O 0.37726 0.46126 0.74076 0.0
O132 O 0.37482 0.49693 0.75604 0.0
C133 C 0.42553 0.48702 0.61414 0.0
C134 C 0.43674 0.49239 0.82091 0.0
O135 O 0.42797 0.50933 0.7983 0.0
O136 O 0.43117 0.47325 0.8001 0.0
C137 C 0.40999 0.55599 0.68219 0.0
O138 O 0.42828 0.54924 0.65735 0.0
C139 C 0.36604 0.47739 0.75627 0.0
Zn140 Zn 0.71338 0.17381 -0.00035 0.0
Zn141 Zn 0.75651 0.16749 0.00334 0.0
O142 O 0.74855 0.18642 0.07921 0.0
O143 O 0.71294 0.1913 0.08054 0.0
O144 O 0.78724 0.16026 0.02792 0.0
O145 O 0.70587 0.14107 -0.00307 0.0
O146 O 0.74143 0.13703 0.98442 0.0
C147 C 0.73196 0.19501 0.10421 0.0
C148 C 0.74117 0.19492 0.89757 0.0
O149 O 0.75764 0.18686 0.92506 0.0
O150 O 0.72174 0.19097 0.91878 0.0
C151 C 0.8035 0.15566 -0.00665 0.0
O152 O 0.80146 0.15588 0.93121 0.0
C153 C 0.72165 0.12886 -0.01444 0.0
Zn154 Zn 0.09171 0.53755 0.23916 0.0
Zn155 Zn 0.09543 0.49351 0.24219 0.0
O156 O 0.08094 0.50085 0.15704 0.0
O157 O 0.07761 0.53673 0.15311 0.0
O158 O 0.10119 0.46117 0.23393 0.0
O159 O 0.12455 0.54269 0.25002 0.0
O160 O 0.12612 0.50697 0.26655 0.0
C161 C 0.07428 0.51781 0.12863 0.0
C162 C 0.06515 0.51339 0.33623 0.0
O163 O 0.0731 0.49618 0.31283 0.0
O164 O 0.07118 0.5324 0.31515 0.0
C165 C 0.09056 0.44823 0.19587 0.0
O166 O 0.07372 0.45539 0.16418 0.0
C167 C 0.13544 0.52628 0.26512 0.0
Zn168 Zn 0.21707 0.16524 0.48885 0.0
Zn169 Zn 0.26089 0.16072 0.49054 0.0
O170 O 0.25356 0.17614 0.40663 0.0
O171 O 0.21775 0.18003 0.40386 0.0
O172 O 0.29305 0.15437 0.48082 0.0
O173 O 0.21119 0.13245 0.49765 0.0
O174 O 0.24687 0.13008 0.51358 0.0
C175 C 0.23664 0.18332 0.37916 0.0
C176 C 0.24197 0.1906 0.58696 0.0
O177 O 0.25898 0.18255 0.56267 0.0
O178 O 0.22283 0.18504 0.56596 0.0
C179 C 0.30606 0.16498 0.4429 0.0
O180 O 0.29913 0.18215 0.41226 0.0
C181 C 0.22739 0.12114 0.51188 0.0
Zn182 Zn 0.57988 0.53729 0.23891 0.0
Zn183 Zn 0.586 0.4942 0.24326 0.0
O184 O 0.56591 0.50196 0.31689 0.0
O185 O 0.56093 0.53754 0.31697 0.0
O186 O 0.59318 0.46354 0.26863 0.0
O187 O 0.61262 0.54482 0.24178 0.0
O188 O 0.61674 0.50932 0.22848 0.0
C189 C 0.5569 0.51855 0.34044 0.0
C190 C 0.56041 0.50971 0.13393 0.0
O191 O 0.56782 0.49315 0.16266 0.0
O192 O 0.56424 0.52911 0.15548 0.0
C193 C 0.59932 0.44776 0.23454 0.0
O194 O 0.6006 0.45024 0.17261 0.0
C195 C 0.62495 0.52905 0.23173 0.0
Zn196 Zn 0.2805 0.84158 0.98243 0.0
Zn197 Zn 0.23675 0.84598 -0.01356 0.0
O198 O 0.24361 0.83049 0.90274 0.0
O199 O 0.27938 0.82667 0.8977 0.0
O200 O 0.20478 0.85274 0.97523 0.0
O201 O 0.28651 0.87437 -0.0098 0.0
O202 O 0.25097 0.8766 0.00845 0.0
C203 C 0.26029 0.82335 0.87423 0.0
C204 C 0.25613 0.81629 0.08245 0.0
O205 O 0.23886 0.82417 0.05896 0.0
O206 O 0.27508 0.82196 0.06028 0.0
C207 C 0.1916 0.84147 0.93927 0.0
O208 O 0.19798 0.82303 0.91442 0.0
C209 C 0.27038 0.88563 0.00538 0.0
Zn210 Zn 0.91956 0.4735 0.75158 0.0
Zn211 Zn 0.91389 0.51673 0.75271 0.0
O212 O 0.93284 0.50973 0.83067 0.0
O213 O 0.93762 0.47407 0.83107 0.0
O214 O 0.90535 0.54806 0.76763 0.0
O215 O 0.88696 0.46567 0.75238 0.0
O216 O 0.88338 0.50112 0.73644 0.0
C217 C 0.94147 0.49299 0.85504 0.0
C218 C 0.94061 0.49954 0.64705 0.0
O219 O 0.93328 0.51638 0.67437 0.0
O220 O 0.93607 0.4803 0.66892 0.0
C221 C 0.91469 0.56115 0.80782 0.0
O222 O 0.93259 0.55536 0.83712 0.0
C223 C 0.87491 0.4815 0.74021 0.0
H224 H 0.22338 0.30267 0.1664 0.0
H225 H 0.27472 0.19546 0.31482 0.0
H226 H 0.29231 0.28884 0.15211 0.0
H227 H 0.20568 0.20903 0.32689 0.0
H228 H 0.2812 0.2287 0.25066 0.0
H229 H 0.2167 0.26864 0.22676 0.0
C230 C 0.23718 0.29266 0.17663 0.0
C231 C 0.25838 0.29854 0.15342 0.0
C232 C 0.2646 0.2243 0.26691 0.0
C233 C 0.25079 0.25933 0.22171 0.0
C234 C 0.26085 0.2052 0.30316 0.0
C235 C 0.2397 0.19962 0.32728 0.0
C236 C 0.24706 0.23789 0.25473 0.0
C237 C 0.2223 0.21274 0.30981 0.0
C238 C 0.23332 0.27311 0.2107 0.0
C239 C 0.27566 0.28497 0.1688 0.0
N240 N 0.22643 0.23142 0.27527 0.0
N241 N 0.27144 0.2659 0.2015 0.0
H242 H 0.96012 0.9614 0.37648 0.0
H243 H 0.04604 0.04405 0.55721 0.0
H244 H 0.95929 0.03248 0.36588 0.0
H245 H 0.0438 0.97325 0.58207 0.0
H246 H 0.01626 0.03975 0.47981 0.0
H247 H 0.99197 0.96517 0.44738 0.0
C248 C 0.96653 0.97782 0.38936 0.0
C249 C 0.95698 0.99667 0.36522 0.0
C250 C 0.02236 0.02513 0.50185 0.0
C251 C 0.99361 0.00106 0.44579 0.0
C252 C 0.03947 0.02755 0.54586 0.0
C253 C 0.04732 0.00898 0.57664 0.0
C254 C 0.01296 0.00399 0.48846 0.0
C255 C 0.03823 0.98803 0.55967 0.0
C256 C 0.98478 0.97994 0.42965 0.0
C257 C 0.96604 0.01749 0.38348 0.0
N258 N 0.02138 0.98611 0.51703 0.0
N259 N 0.98389 0.01912 0.42254 0.0
H260 H 0.27235 0.70425 0.66219 0.0
H261 H 0.22159 0.81108 0.81301 0.0
H262 H 0.20339 0.7181 0.64759 0.0
H263 H 0.29083 0.79789 0.8194 0.0
H264 H 0.21461 0.77786 0.74921 0.0
H265 H 0.27903 0.73812 0.7228 0.0
C266 C 0.25851 0.71422 0.67265 0.0
C267 C 0.23729 0.70839 0.64937 0.0
C268 C 0.23136 0.78236 0.76411 0.0
C269 C 0.24495 0.74749 0.71762 0.0
C270 C 0.23539 0.80143 0.80015 0.0
C271 C 0.25677 0.8071 0.82258 0.0
C272 C 0.24884 0.76889 0.75049 0.0
C273 C 0.27404 0.7941 0.80366 0.0
C274 C 0.2624 0.7337 0.70672 0.0
C275 C 0.22002 0.72194 0.66455 0.0
N276 N 0.26965 0.77545 0.76938 0.0
N277 N 0.22427 0.74099 0.69729 0.0
H278 H 0.45368 0.03277 0.1025 0.0
H279 H 0.54268 0.97361 0.8913 0.0
H280 H 0.45867 0.96202 0.09664 0.0
H281 H 0.54056 0.04428 0.91302 0.0
H282 H 0.51213 0.96871 0.96676 0.0
H283 H 0.48497 0.03701 0.03016 0.0
C284 C 0.46122 0.0181 0.08558 0.0
C285 C 0.45355 0.99701 0.10579 0.0
C286 C 0.51848 0.98527 0.95526 0.0
C287 C 0.4896 0.00177 0.02345 0.0
C288 C 0.53601 0.98808 0.9125 0.0
C289 C 0.54411 0.00939 0.89549 0.0
C290 C 0.50901 0.00391 0.98092 0.0
C291 C 0.53479 0.02753 0.92437 0.0
C292 C 0.4792 0.02054 0.04456 0.0
C293 C 0.46404 0.97861 0.08236 0.0
N294 N 0.51765 0.02437 0.96527 0.0
N295 N 0.48158 0.98142 0.04252 0.0
H296 H 0.2895 0.79655 0.14435 0.0
H297 H 0.20818 0.70923 0.3248 0.0
H298 H 0.21836 0.79575 0.13081 0.0
H299 H 0.27921 0.71135 0.34392 0.0
H300 H 0.21175 0.73981 0.24969 0.0
H301 H 0.2861 0.76504 0.21635 0.0
C302 C 0.27314 0.78988 0.15692 0.0
C303 C 0.25417 0.79881 0.13139 0.0
C304 C 0.22657 0.73352 0.27001 0.0
C305 C 0.2502 0.76252 0.2133 0.0
C306 C 0.22456 0.71595 0.31269 0.0
C307 C 0.24344 0.70778 0.34105 0.0
C308 C 0.24759 0.74303 0.25556 0.0
C309 C 0.26421 0.71713 0.32333 0.0
C310 C 0.27123 0.7718 0.19784 0.0
C311 C 0.23343 0.78945 0.1494 0.0
N312 N 0.26572 0.73437 0.28201 0.0
N313 N 0.23201 0.77175 0.18908 0.0
H314 H 0.45357 0.96121 0.42271 0.0
H315 H 0.53352 0.05352 0.58766 0.0
H316 H 0.44145 0.03071 0.42097 0.0
H317 H 0.54649 0.98425 0.58057 0.0
H318 H 0.49962 0.04568 0.5271 0.0
H319 H 0.4863 0.96924 0.48761 0.0
C320 C 0.45752 0.97813 0.43694 0.0
C321 C 0.44493 0.99537 0.41532 0.0
C322 C 0.50998 0.03224 0.53843 0.0
C323 C 0.48272 0.00473 0.48847 0.0
C324 C 0.52948 0.03674 0.57239 0.0
C325 C 0.54283 0.0195 0.58957 0.0
C326 C 0.5038 0.01036 0.52166 0.0
C327 C 0.53669 0.99806 0.56866 0.0
C328 C 0.47639 0.98273 0.47344 0.0
C329 C 0.45085 0.01694 0.43562 0.0
N330 N 0.51753 0.99408 0.53627 0.0
N331 N 0.46949 0.02105 0.47044 0.0
H332 H 0.28035 0.20942 0.63651 0.0
H333 H 0.2187 0.29787 0.84338 0.0
H334 H 0.20938 0.21214 0.64659 0.0
H335 H 0.28966 0.29532 0.8325 0.0
H336 H 0.21496 0.26729 0.76818 0.0
H337 H 0.28409 0.24098 0.70828 0.0
C338 C 0.26555 0.21651 0.65425 0.0
C339 C 0.24452 0.20813 0.63543 0.0
C340 C 0.23135 0.27352 0.78197 0.0
C341 C 0.2487 0.24442 0.71692 0.0
C342 C 0.2335 0.29108 0.82462 0.0
C343 C 0.25452 0.2991 0.84459 0.0
C344 C 0.25035 0.2639 0.75924 0.0
C345 C 0.27311 0.28962 0.81869 0.0
C346 C 0.2677 0.23462 0.69493 0.0
C347 C 0.22593 0.21805 0.65977 0.0
N348 N 0.27058 0.27243 0.77768 0.0
N349 N 0.22846 0.23572 0.6991 0.0
H350 H 0.04664 0.9816 0.89729 0.0
H351 H 0.93931 0.03042 0.05052 0.0
H352 H 0.03154 0.05018 0.88177 0.0
H353 H 0.95277 0.96123 0.05134 0.0
H354 H 0.972 0.038 -0.01518 0.0
H355 H 0.01248 0.97425 0.95603 0.0
C356 C 0.03631 0.99521 0.90708 0.0
C357 C 0.04193 0.01654 0.88427 0.0
C358 C 0.96764 0.02113 -0.00119 0.0
C359 C 0.00249 0.0081 0.95049 0.0
C360 C 0.94887 0.01675 0.03594 0.0
C361 C 0.94351 0.99521 0.05757 0.0
C362 C 0.98112 0.00384 0.98337 0.0
C363 C 0.95636 0.97813 0.03639 0.0
C364 C 0.01666 0.99094 0.94008 0.0
C365 C 0.02788 0.03349 0.89849 0.0
N366 N 0.97475 0.98287 0.00124 0.0
N367 N 0.00871 0.02888 0.93038 0.0
H368 H 0.77208 0.70444 0.84022 0.0
H369 H 0.72387 0.81224 0.68627 0.0
H370 H 0.70342 0.7196 0.85212 0.0
H371 H 0.79285 0.7979 0.68285 0.0
H372 H 0.71613 0.77924 0.75064 0.0
H373 H 0.77965 0.73832 0.78001 0.0
C374 C 0.7585 0.71469 0.82926 0.0
C375 C 0.73709 0.70921 0.85162 0.0
C376 C 0.73298 0.78344 0.73629 0.0
C377 C 0.74578 0.74833 0.78382 0.0
C378 C 0.73746 0.80239 0.69993 0.0
C379 C 0.75899 0.80766 0.67813 0.0
C380 C 0.75016 0.76968 0.75086 0.0
C381 C 0.77596 0.79441 0.69806 0.0
C382 C 0.76289 0.73418 0.79543 0.0
C383 C 0.72018 0.72316 0.83589 0.0
N384 N 0.77113 0.77588 0.73261 0.0
N385 N 0.72492 0.74219 0.80335 0.0
H386 H 0.79564 0.30118 0.31747 0.0
H387 H 0.70198 0.22276 0.15264 0.0
H388 H 0.72653 0.31505 0.31595 0.0
H389 H 0.77092 0.2084 0.16117 0.0
H390 H 0.71047 0.25673 0.21209 0.0
H391 H 0.78706 0.26849 0.25308 0.0
C392 C 0.77871 0.29763 0.30257 0.0
C393 C 0.76172 0.31069 0.32321 0.0
C394 C 0.7237 0.24606 0.20131 0.0
C395 C 0.75171 0.27294 0.25071 0.0
C396 C 0.71882 0.22651 0.16801 0.0
C397 C 0.73578 0.21275 0.15155 0.0
C398 C 0.74568 0.25186 0.21814 0.0
C399 C 0.75732 0.21854 0.17253 0.0
C400 C 0.77378 0.27878 0.26639 0.0
C401 C 0.74011 0.30527 0.30209 0.0
N402 N 0.76166 0.23774 0.20427 0.0
N403 N 0.73568 0.28664 0.26765 0.0
H404 H 0.78042 0.21175 0.84772 0.0
H405 H 0.72181 0.30055 0.63317 0.0
H406 H 0.70971 0.21498 0.82891 0.0
H407 H 0.79253 0.29551 0.64257 0.0
H408 H 0.7172 0.26935 0.70608 0.0
H409 H 0.78536 0.24188 0.77087 0.0
C410 C 0.76594 0.21859 0.8269 0.0
C411 C 0.74462 0.21092 0.8451 0.0
C412 C 0.73373 0.2751 0.69229 0.0
C413 C 0.75015 0.24555 0.75796 0.0
C414 C 0.73638 0.29301 0.65095 0.0
C415 C 0.75758 0.30066 0.63167 0.0
C416 C 0.75242 0.26476 0.71461 0.0
C417 C 0.77586 0.29017 0.6561 0.0
C418 C 0.76878 0.23587 0.78331 0.0
C419 C 0.72647 0.22043 0.81661 0.0
N420 N 0.77285 0.27272 0.69622 0.0
N421 N 0.72966 0.23734 0.77482 0.0
H422 H 0.78162 0.70956 0.15485 0.0
H423 H 0.72099 0.79721 0.36731 0.0
H424 H 0.71082 0.71074 0.17547 0.0
H425 H 0.7919 0.79366 0.35942 0.0
H426 H 0.71715 0.76585 0.29505 0.0
H427 H 0.78599 0.73996 0.23087 0.0
C428 C 0.76702 0.716 0.17593 0.0
C429 C 0.74582 0.70768 0.15843 0.0
C430 C 0.73356 0.77195 0.30902 0.0
C431 C 0.75068 0.74262 0.24455 0.0
C432 C 0.73577 0.78997 0.34998 0.0
C433 C 0.75679 0.79808 0.36954 0.0
C434 C 0.75251 0.76197 0.28733 0.0
C435 C 0.77535 0.78795 0.34566 0.0
C436 C 0.76951 0.73344 0.21902 0.0
C437 C 0.72748 0.7167 0.18719 0.0
N438 N 0.77277 0.77039 0.30589 0.0
N439 N 0.73034 0.73376 0.22844 0.0
H440 H 0.54306 0.47065 0.08431 0.0
H441 H 0.45599 0.53088 0.86801 0.0
H442 H 0.54217 0.5414 0.06167 0.0
H443 H 0.45904 0.46 0.87958 0.0
H444 H 0.48777 0.5349 0.93897 0.0
H445 H 0.51322 0.46618 0.00637 0.0
C446 C 0.53683 0.48522 0.06232 0.0
C447 C 0.545 0.50643 0.07997 0.0
C448 C 0.48148 0.51846 0.92603 0.0
C449 C 0.51069 0.50145 -0.00837 0.0
C450 C 0.46323 0.51615 0.88581 0.0
C451 C 0.45481 0.49507 0.86784 0.0
C452 C 0.49137 0.49955 0.9486 0.0
C453 C 0.46496 0.47658 0.89219 0.0
C454 C 0.51971 0.48266 0.01812 0.0
C455 C 0.53629 0.52472 0.04994 0.0
N456 N 0.48272 0.47926 0.93131 0.0
N457 N 0.51949 0.52181 0.00768 0.0
H458 H 0.04536 0.47539 0.38502 0.0
H459 H 0.95913 0.53809 0.59711 0.0
H460 H 0.04397 0.54644 0.39509 0.0
H461 H 0.95896 0.46718 0.57802 0.0
H462 H 0.98948 0.54171 0.52074 0.0
H463 H 0.01369 0.47222 0.45637 0.0
C464 C 0.03852 0.49034 0.40263 0.0
C465 C 0.04735 0.51121 0.38401 0.0
C466 C 0.98267 0.52537 0.53297 0.0
C467 C 0.01089 0.5077 0.46518 0.0
C468 C 0.96525 0.5233 0.57626 0.0
C469 C 0.95658 0.5023 0.59435 0.0
C470 C 0.99147 0.5063 0.5078 0.0
C471 C 0.9652 0.48371 0.56585 0.0
C472 C 0.02033 0.48851 0.44307 0.0
C473 C 0.03772 0.53 0.40818 0.0
N474 N 0.98226 0.48615 0.52438 0.0
N475 N 0.01998 0.52779 0.44744 0.0
H476 H 0.06237 0.47977 0.06391 0.0
H477 H 0.95529 0.5313 0.91554 0.0
H478 H 0.04916 0.54891 0.07459 0.0
H479 H 0.9691 0.46242 0.90036 0.0
H480 H 0.98955 0.53796 0.9748 0.0
H481 H 0.02933 0.47339 -0.00116 0.0
C482 C 0.05276 0.49368 0.05171 0.0
C483 C 0.05834 0.51483 0.07582 0.0
C484 C 0.98503 0.52136 0.95876 0.0
C485 C 0.0203 0.50758 0.00226 0.0
C486 C 0.96535 0.51751 0.92534 0.0
C487 C 0.95937 0.49631 0.90231 0.0
C488 C 0.99885 0.50389 0.96933 0.0
C489 C 0.97303 0.47905 0.91701 0.0
C490 C 0.03378 0.49 0.01493 0.0
C491 C 0.04542 0.53228 0.05759 0.0
N492 N 0.99222 0.48326 0.94916 0.0
N493 N 0.02683 0.52821 0.02263 0.0
H494 H 0.44983 0.45643 0.55467 0.0
H495 H 0.52913 0.54878 0.38734 0.0
H496 H 0.43691 0.52575 0.5521 0.0
H497 H 0.54235 0.47956 0.3953 0.0
H498 H 0.49486 0.54072 0.44582 0.0
H499 H 0.48208 0.46433 0.48783 0.0
C500 C 0.45347 0.47326 0.53898 0.0
C501 C 0.44087 0.49053 0.56017 0.0
C502 C 0.50533 0.52733 0.43504 0.0
C503 C 0.47812 0.49974 0.48489 0.0
C504 C 0.52504 0.53195 0.40228 0.0
C505 C 0.53863 0.51481 0.38619 0.0
C506 C 0.49918 0.50542 0.45174 0.0
C507 C 0.53239 0.49331 0.40652 0.0
C508 C 0.47207 0.47779 0.50139 0.0
C509 C 0.44637 0.51197 0.53794 0.0
N510 N 0.51306 0.48922 0.43788 0.0
N511 N 0.46478 0.51603 0.50223 0.0
H512 H 0.11671 0.4227 0.26788 0.0
H513 H 0.16882 0.36731 0.97693 0.0
H514 H 0.08615 0.42622 0.08317 0.0
H515 H 0.17098 0.33683 0.16207 0.0
H516 H 0.13868 0.38936 0.0137 0.0
H517 H 0.13708 0.39136 0.23111 0.0
C518 C 0.11402 0.41662 0.21997 0.0
C519 C 0.09987 0.42711 0.17835 0.0
C520 C 0.14548 0.37751 0.04581 0.0
C521 C 0.1234 0.39176 0.13571 0.0
C522 C 0.16269 0.365 0.02494 0.0
C523 C 0.17248 0.35037 0.06669 0.0
C524 C 0.13849 0.37579 0.10928 0.0
C525 C 0.16389 0.34794 0.12837 0.0
C526 C 0.12557 0.39873 0.19909 0.0
C527 C 0.09691 0.41858 0.11677 0.0
N528 N 0.14768 0.3609 0.1483 0.0
N529 N 0.10897 0.40168 0.09679 0.0
H530 H 0.7563 0.90326 0.38759 0.0
H531 H 0.8523 0.99759 0.36003 0.0
H532 H 0.80572 0.91641 0.53216 0.0
H533 H 0.83571 0.95078 0.21118 0.0
H534 H 0.82157 0.98138 0.42368 0.0
H535 H 0.77223 0.93465 0.32599 0.0
C536 C 0.76991 0.91333 0.40757 0.0
C537 C 0.77999 0.90719 0.46443 0.0
C538 C 0.82421 0.97531 0.37606 0.0
C539 C 0.79781 0.94299 0.39523 0.0
C540 C 0.8416 0.98455 0.33969 0.0
C541 C 0.84658 0.97524 0.28082 0.0
C542 C 0.81155 0.95709 0.3524 0.0
C543 C 0.83245 0.9582 0.25674 0.0
C544 C 0.77897 0.93111 0.37235 0.0
C545 C 0.7977 0.92056 0.48808 0.0
N546 N 0.81564 0.94947 0.293 0.0
N547 N 0.80625 0.93776 0.45295 0.0
H548 H 0.31787 0.65522 0.60901 0.0
H549 H 0.41912 0.57766 0.57046 0.0
H550 H 0.33967 0.63152 0.42742 0.0
H551 H 0.37862 0.58001 0.73856 0.0
H552 H 0.39779 0.60658 0.52252 0.0
H553 H 0.348 0.63701 0.66046 0.0
C554 C 0.32919 0.6465 0.5797 0.0
C555 C 0.32595 0.64453 0.51379 0.0
C556 C 0.39389 0.60101 0.57033 0.0
C557 C 0.36053 0.62374 0.57274 0.0
C558 C 0.40611 0.58464 0.59792 0.0
C559 C 0.40042 0.57627 0.65831 0.0
C560 C 0.37614 0.60925 0.60385 0.0
C561 C 0.38337 0.58584 0.69162 0.0
C562 C 0.34636 0.63609 0.60926 0.0
C563 C 0.34135 0.63322 0.47841 0.0
N564 N 0.37172 0.60172 0.66376 0.0
N565 N 0.35788 0.62302 0.50845 0.0
H566 H 0.74214 0.10797 0.8897 0.0
H567 H 0.65763 0.06244 0.70906 0.0
H568 H 0.68866 0.09949 0.02399 0.0
H569 H 0.6452 0.01629 0.8625 0.0
H570 H 0.68956 0.07853 0.76738 0.0
H571 H 0.72608 0.0766 0.82844 0.0
C572 C 0.72754 0.09894 0.90767 0.0
C573 C 0.71643 0.10644 0.96127 0.0
C574 C 0.6804 0.06429 0.7871 0.0
C575 C 0.69826 0.07083 0.89209 0.0
C576 C 0.66217 0.0552 0.75397 0.0
C577 C 0.64891 0.03809 0.78123 0.0
C578 C 0.68473 0.05673 0.84873 0.0
C579 C 0.6552 0.02942 0.83991 0.0
C580 C 0.71836 0.08121 0.87251 0.0
C581 C 0.69749 0.09433 0.98237 0.0
N582 N 0.67223 0.0394 0.87297 0.0
N583 N 0.68883 0.0772 0.94724 0.0
H584 H 0.15154 0.50951 0.37427 0.0
H585 H 0.24742 0.60417 0.3878 0.0
H586 H 0.16887 0.5535 0.21896 0.0
H587 H 0.19783 0.59318 0.53281 0.0
H588 H 0.2325 0.57104 0.33226 0.0
H589 H 0.1828 0.52596 0.43543 0.0
C590 C 0.16255 0.5219 0.352 0.0
C591 C 0.15762 0.53045 0.29204 0.0
C592 C 0.22554 0.57544 0.37761 0.0
C593 C 0.19321 0.54888 0.36081 0.0
C594 C 0.23404 0.59422 0.4094 0.0
C595 C 0.22353 0.60147 0.46426 0.0
C596 C 0.20682 0.56373 0.40192 0.0
C597 C 0.20614 0.58819 0.4901 0.0
C598 C 0.18025 0.53128 0.38694 0.0
C599 C 0.17212 0.54668 0.2654 0.0
N600 N 0.1981 0.57004 0.45819 0.0
N601 N 0.18918 0.55561 0.30036 0.0
H602 H 0.61006 0.91185 0.80245 0.0
H603 H 0.67439 0.87662 0.49461 0.0
H604 H 0.60482 0.94381 0.62001 0.0
H605 H 0.66974 0.83629 0.66367 0.0
H606 H 0.64575 0.89918 0.53681 0.0
H607 H 0.62885 0.88192 0.75089 0.0
C608 C 0.61258 0.91244 0.75153 0.0
C609 C 0.6062 0.93057 0.71573 0.0
C610 C 0.65071 0.88519 0.56437 0.0
C611 C 0.62774 0.89651 0.65658 0.0
C612 C 0.66707 0.8723 0.5402 0.0
C613 C 0.67465 0.85474 0.576 0.0
C614 C 0.64212 0.88075 0.62535 0.0
C615 C 0.66446 0.84976 0.63459 0.0
C616 C 0.62329 0.89535 0.7221 0.0
C617 C 0.60975 0.93037 0.6498 0.0
N618 N 0.64899 0.86297 0.65802 0.0
N619 N 0.62051 0.9138 0.62258 0.0
H620 H 0.34861 0.49713 0.85941 0.0
H621 H 0.30265 0.41249 0.03707 0.0
H622 H 0.33436 0.44651 0.71932 0.0
H623 H 0.25446 0.40252 0.88767 0.0
H624 H 0.31822 0.44508 0.98094 0.0
H625 H 0.31778 0.48163 0.92411 0.0
C626 C 0.33845 0.4833 0.84117 0.0
C627 C 0.34414 0.47276 0.78468 0.0
C628 C 0.30364 0.43634 0.96176 0.0
C629 C 0.3092 0.45521 0.85773 0.0
C630 C 0.29485 0.4177 -0.00637 0.0
C631 C 0.27739 0.40485 0.9666 0.0
C632 C 0.29538 0.44154 0.90153 0.0
C633 C 0.26793 0.4121 0.90998 0.0
C634 C 0.32103 0.47443 0.87823 0.0
C635 C 0.33062 0.45484 0.76316 0.0
N636 N 0.2776 0.42953 0.87794 0.0
N637 N 0.31386 0.44644 0.80014 0.0
H638 H 0.8121 0.15287 0.12036 0.0
H639 H 0.91926 0.08374 0.07484 0.0
H640 H 0.84036 0.1397 0.93695 0.0
H641 H 0.87793 0.08084 0.24183 0.0
H642 H 0.89658 0.11227 0.03073 0.0
H643 H 0.84227 0.13463 0.17114 0.0
C644 C 0.82478 0.14637 0.09065 0.0
C645 C 0.82345 0.14746 0.0241 0.0
C646 C 0.89274 0.10562 0.07746 0.0
C647 C 0.85811 0.12653 0.08233 0.0
C648 C 0.90574 0.08946 0.1029 0.0
C649 C 0.90027 0.07971 0.16179 0.0
C650 C 0.87434 0.11221 0.11152 0.0
C651 C 0.88256 0.08772 0.19594 0.0
C652 C 0.84201 0.13594 0.11981 0.0
C653 C 0.84058 0.139 -0.01167 0.0
N654 N 0.87012 0.10337 0.17008 0.0
N655 N 0.85711 0.12865 0.01791 0.0
H656 H 0.84334 0.63896 0.06579 0.0
H657 H 0.88114 0.58156 0.749 0.0
H658 H 0.8128 0.64852 0.88308 0.0
H659 H 0.92102 0.584 0.9191 0.0
H660 H 0.85762 0.60861 0.79555 0.0
H661 H 0.87357 0.6212 0.0124 0.0
C662 C 0.84311 0.63759 0.01449 0.0
C663 C 0.82532 0.64493 0.97903 0.0
C664 C 0.87171 0.60351 0.82242 0.0
C665 C 0.85971 0.62455 0.91776 0.0
C666 C 0.88515 0.58806 0.79578 0.0
C667 C 0.90291 0.58034 0.83047 0.0
C668 C 0.87581 0.61102 0.88469 0.0
C669 C 0.90743 0.58944 0.89075 0.0
C670 C 0.86038 0.62747 0.98402 0.0
C671 C 0.82599 0.64284 0.91258 0.0
N672 N 0.89372 0.60402 0.91644 0.0
N673 N 0.84271 0.63261 0.88429 0.0
H674 H 0.20101 0.08805 0.46088 0.0
H675 H 0.15112 0.00665 0.64031 0.0
H676 H 0.24203 0.10468 0.62303 0.0
H677 H 0.1569 0.06129 0.77129 0.0
H678 H 0.18427 0.02165 0.58497 0.0
H679 H 0.18461 0.05634 0.51929 0.0
C680 C 0.20715 0.08445 0.50792 0.0
C681 C 0.22279 0.09885 0.53745 0.0
C682 C 0.17863 0.02988 0.62711 0.0
C683 C 0.20374 0.06326 0.60504 0.0
C684 C 0.15986 0.02131 0.65894 0.0
C685 C 0.15111 0.03308 0.70951 0.0
C686 C 0.1887 0.05011 0.64688 0.0
C687 C 0.16298 0.052 0.73171 0.0
C688 C 0.19789 0.06633 0.54116 0.0
C689 C 0.23005 0.09378 0.59875 0.0
N690 N 0.18107 0.06012 0.69966 0.0
N691 N 0.21984 0.07682 0.63159 0.0
H692 H 0.67552 0.37888 0.49832 0.0
H693 H 0.61716 0.41158 0.17988 0.0
H694 H 0.67422 0.33667 0.33333 0.0
H695 H 0.60154 0.43954 0.36189 0.0
H696 H 0.6364 0.38262 0.23496 0.0
H697 H 0.64668 0.40003 0.45037 0.0
C698 C 0.66888 0.37385 0.45244 0.0
C699 C 0.67739 0.35614 0.41951 0.0
C700 C 0.62844 0.39492 0.26275 0.0
C701 C 0.64473 0.38052 0.36368 0.0
C702 C 0.61749 0.41146 0.23133 0.0
C703 C 0.60804 0.42824 0.26621 0.0
C704 C 0.63015 0.39536 0.32936 0.0
C705 C 0.60884 0.42715 0.33287 0.0
C706 C 0.65241 0.38591 0.42504 0.0
C707 C 0.66814 0.35025 0.3603 0.0
N708 N 0.62 0.41123 0.36216 0.0
N709 N 0.65258 0.36269 0.33367 0.0
H710 H 0.34598 0.00052 0.13561 0.0
H711 H 0.29803 0.91799 0.95564 0.0
H712 H 0.33698 0.94736 0.27107 0.0
H713 H 0.25446 0.90314 0.11347 0.0
H714 H 0.31394 0.94998 0.01361 0.0
H715 H 0.3139 0.98512 0.07587 0.0
C716 C 0.33675 0.9861 0.15405 0.0
C717 C 0.34429 0.97486 0.20747 0.0
C718 C 0.30025 0.9403 0.03451 0.0
C719 C 0.30793 0.9574 0.13995 0.0
C720 C 0.29128 0.92201 0.00156 0.0
C721 C 0.27505 0.90801 0.03015 0.0
C722 C 0.29346 0.94399 0.09721 0.0
C723 C 0.26694 0.91368 0.08995 0.0
C724 C 0.31861 0.9773 0.11978 0.0
C725 C 0.33185 0.95624 0.22939 0.0
N726 N 0.27683 0.93082 0.12267 0.0
N727 N 0.31438 0.9479 0.19503 0.0
H728 H 0.75855 0.40614 0.61447 0.0
H729 H 0.84465 0.45132 0.78946 0.0
H730 H 0.80944 0.41817 0.47369 0.0
H731 H 0.85449 0.49903 0.63872 0.0
H732 H 0.81199 0.43556 0.73387 0.0
H733 H 0.77495 0.43688 0.67774 0.0
C734 C 0.77264 0.4158 0.59574 0.0
C735 C 0.78295 0.40951 0.53947 0.0
C736 C 0.82075 0.45006 0.71427 0.0
C737 C 0.80151 0.44437 0.61088 0.0
C738 C 0.83941 0.45895 0.74581 0.0
C739 C 0.85219 0.47638 0.71833 0.0
C740 C 0.81547 0.45818 0.65393 0.0
C741 C 0.84494 0.48561 0.6614 0.0
C742 C 0.78201 0.43317 0.63199 0.0
C743 C 0.80124 0.42239 0.51735 0.0
N744 N 0.82748 0.47585 0.62973 0.0
N745 N 0.81012 0.43913 0.55353 0.0
H746 H 0.33164 0.13843 0.5134 0.0
H747 H 0.38248 0.08399 0.22056 0.0
H748 H 0.3273 0.16903 0.32894 0.0
H749 H 0.41585 0.08276 0.4016 0.0
H750 H 0.36166 0.11491 0.25813 0.0
H751 H 0.36229 0.11746 0.47464 0.0
C752 C 0.33742 0.14101 0.46512 0.0
C753 C 0.32688 0.15534 0.42416 0.0
C754 C 0.37389 0.10816 0.28908 0.0
C755 C 0.36142 0.13112 0.37929 0.0
C756 C 0.38569 0.09051 0.26776 0.0
C757 C 0.40076 0.08077 0.30821 0.0
C758 C 0.37674 0.11562 0.35181 0.0
C759 C 0.40437 0.08983 0.36892 0.0
C760 C 0.35491 0.12912 0.44313 0.0
C761 C 0.335 0.15814 0.36206 0.0
N762 N 0.39205 0.10645 0.38948 0.0
N763 N 0.35148 0.14573 0.34099 0.0
H764 H 0.65494 0.55874 0.28434 0.0
H765 H 0.7424 0.60487 0.11728 0.0
H766 H 0.64589 0.51234 0.13036 0.0
H767 H 0.69159 0.59565 0.97478 0.0
H768 H 0.72563 0.57329 0.17648 0.0
H769 H 0.68797 0.57488 0.23137 0.0
C770 C 0.66043 0.55146 0.24054 0.0
C771 C 0.6478 0.53429 0.21143 0.0
C772 C 0.7187 0.57777 0.13112 0.0
C773 C 0.68491 0.55295 0.14996 0.0
C774 C 0.72828 0.59562 0.09715 0.0
C775 C 0.71807 0.60296 0.04173 0.0
C776 C 0.69912 0.56713 0.10853 0.0
C777 C 0.69972 0.5906 0.01782 0.0
C778 C 0.67929 0.56056 0.21049 0.0
C779 C 0.65535 0.52553 0.1543 0.0
N780 N 0.69064 0.57337 0.05181 0.0
N781 N 0.673 0.53553 0.12406 0.0
H782 H 0.16959 0.83229 0.82802 0.0
H783 H 0.09824 0.93853 0.85725 0.0
H784 H 0.16896 0.87436 -0.00686 0.0
H785 H 0.1181 0.91171 0.6775 0.0
H786 H 0.11517 0.90831 0.91188 0.0
H787 H 0.14187 0.8546 0.77809 0.0
C788 C 0.16323 0.84588 0.85443 0.0
C789 C 0.17177 0.85168 0.91455 0.0
C790 C 0.11558 0.9089 0.86045 0.0
C791 C 0.14018 0.87715 0.8577 0.0
C792 C 0.1059 0.92614 0.82908 0.0
C793 C 0.10712 0.92792 0.76259 0.0
C794 C 0.12649 0.89321 0.82526 0.0
C795 C 0.11702 0.91115 0.72881 0.0
C796 C 0.14754 0.85866 0.82569 0.0
C797 C 0.163 0.86948 0.94646 0.0
N798 N 0.12656 0.89459 0.76059 0.0
N799 N 0.1478 0.8817 0.91743 0.0
loop_
_geom_bond_atom_site_label_1
_geom_bond_atom_site_label_2
_geom_bond_distance
_geom_bond_site_symmetry_2
_ccdc_geom_bond_type
Zn0 O3 2.031 1_556 S
Zn0 O5 2.049 . S
Zn0 O10 2.067 . S
Zn1 O2 1.962 . S
Zn1 O4 1.986 . S
Zn1 O6 1.996 . S
Zn1 O9 1.943 1_554 S
O2 Zn1 1.962 . S
O2 C7 1.254 . S
O3 Zn0 2.031 1_554 S
O3 C7 1.269 . S
O4 Zn1 1.986 . S
O4 C11 1.262 . S
O5 Zn0 2.049 . S
O5 C13 1.260 . S
O6 Zn1 1.996 . S
O6 C13 1.257 1_554 S
C7 O2 1.254 . S
C7 O3 1.269 . S
C8 O9 1.249 . S
C8 O10 1.270 . S
O9 Zn1 1.943 1_556 S
O9 C8 1.249 . S
O10 Zn0 2.067 . S
O10 C8 1.270 . S
C11 O4 1.262 . S
C11 O12 1.232 . S
O12 C11 1.232 . S
C13 O5 1.260 . S
C13 O6 1.257 1_556 S
Zn14 O17 2.031 . S
Zn14 O19 2.049 . S
Zn14 O24 2.067 . S
Zn15 O16 1.962 . S
Zn15 O18 1.986 . S
Zn15 O20 1.996 1_545 S
Zn15 O23 1.943 . S
O16 Zn15 1.962 . S
O16 C21 1.254 1_545 S
O17 Zn14 2.031 . S
O17 C21 1.269 . S
O18 Zn15 1.986 . S
O18 C25 1.262 . S
O19 Zn14 2.049 . S
O19 C27 1.260 . S
O20 Zn15 1.996 1_565 S
O20 C27 1.257 . S
C21 O16 1.254 1_565 S
C21 O17 1.269 . S
C22 O23 1.249 . S
C22 O24 1.270 1_545 S
O23 Zn15 1.943 . S
O23 C22 1.249 . S
O24 Zn14 2.067 . S
O24 C22 1.270 1_565 S
C25 O18 1.262 . S
C25 O26 1.232 . S
O26 C25 1.232 . S
C27 O19 1.260 . S
C27 O20 1.257 . S
Zn28 O31 2.031 . S
Zn28 O33 2.049 . S
Zn28 O38 2.067 . S
Zn29 O30 1.962 . S
Zn29 O32 1.986 . S
Zn29 O34 1.996 . S
Zn29 O37 1.943 . S
O30 Zn29 1.962 . S
O30 C35 1.254 . S
O31 Zn28 2.031 . S
O31 C35 1.269 . S
O32 Zn29 1.986 . S
O32 C39 1.262 . S
O33 Zn28 2.049 . S
O33 C41 1.260 . S
O34 Zn29 1.996 . S
O34 C41 1.257 . S
C35 O30 1.254 . S
C35 O31 1.269 . S
C36 O37 1.249 . S
C36 O38 1.270 . S
O37 Zn29 1.943 . S
O37 C36 1.249 . S
O38 Zn28 2.067 . S
O38 C36 1.270 . S
C39 O32 1.262 . S
C39 O40 1.232 . S
O40 C39 1.232 . S
C41 O33 1.260 . S
C41 O34 1.257 . S
Zn42 O45 2.031 . S
Zn42 O47 2.049 . S
Zn42 O52 2.067 . S
Zn43 O44 1.962 1_565 S
Zn43 O46 1.986 . S
Zn43 O48 1.996 1_565 S
Zn43 O51 1.943 . S
O44 Zn43 1.962 1_545 S
O44 C49 1.254 . S
O45 Zn42 2.031 . S
O45 C49 1.269 . S
O46 Zn43 1.986 . S
O46 C53 1.262 . S
O47 Zn42 2.049 . S
O47 C55 1.260 . S
O48 Zn43 1.996 1_545 S
O48 C55 1.257 . S
C49 O44 1.254 . S
C49 O45 1.269 . S
C50 O51 1.249 1_545 S
C50 O52 1.270 . S
O51 Zn43 1.943 . S
O51 C50 1.249 1_565 S
O52 Zn42 2.067 . S
O52 C50 1.270 . S
C53 O46 1.262 . S
C53 O54 1.232 . S
O54 C53 1.232 . S
C55 O47 1.260 . S
C55 O48 1.257 . S
Zn56 O59 2.031 1_554 S
Zn56 O61 2.049 . S
Zn56 O66 2.067 . S
Zn57 O58 1.962 . S
Zn57 O60 1.986 . S
Zn57 O62 1.996 1_556 S
Zn57 O65 1.943 1_556 S
O58 Zn57 1.962 . S
O58 C63 1.254 . S
O59 Zn56 2.031 1_556 S
O59 C63 1.269 . S
O60 Zn57 1.986 . S
O60 C67 1.262 . S
O61 Zn56 2.049 . S
O61 C69 1.260 . S
O62 Zn57 1.996 1_554 S
O62 C69 1.257 . S
C63 O58 1.254 . S
C63 O59 1.269 . S
C64 O65 1.249 . S
C64 O66 1.270 . S
O65 Zn57 1.943 1_554 S
O65 C64 1.249 . S
O66 Zn56 2.067 . S
O66 C64 1.270 . S
C67 O60 1.262 . S
C67 O68 1.232 . S
O68 C67 1.232 . S
C69 O61 1.260 . S
C69 O62 1.257 . S
Zn70 O73 2.031 . S
Zn70 O75 2.049 . S
Zn70 O80 2.067 . S
Zn71 O72 1.962 1_565 S
Zn71 O74 1.986 . S
Zn71 O76 1.996 1_565 S
Zn71 O79 1.943 . S
O72 Zn71 1.962 1_545 S
O72 C77 1.254 . S
O73 Zn70 2.031 . S
O73 C77 1.269 . S
O74 Zn71 1.986 . S
O74 C81 1.262 . S
O75 Zn70 2.049 . S
O75 C83 1.260 . S
O76 Zn71 1.996 1_545 S
O76 C83 1.257 . S
C77 O72 1.254 . S
C77 O73 1.269 . S
C78 O79 1.249 1_545 S
C78 O80 1.270 . S
O79 Zn71 1.943 . S
O79 C78 1.249 1_565 S
O80 Zn70 2.067 . S
O80 C78 1.270 . S
C81 O74 1.262 . S
C81 O82 1.232 . S
O82 C81 1.232 . S
C83 O75 1.260 . S
C83 O76 1.257 . S
Zn84 O87 2.031 . S
Zn84 O89 2.049 . S
Zn84 O94 2.067 . S
Zn85 O86 1.962 . S
Zn85 O88 1.986 . S
Zn85 O90 1.996 . S
Zn85 O93 1.943 . S
O86 Zn85 1.962 . S
O86 C91 1.254 . S
O87 Zn84 2.031 . S
O87 C91 1.269 . S
O88 Zn85 1.986 . S
O88 C95 1.262 . S
O89 Zn84 2.049 . S
O89 C97 1.260 . S
O90 Zn85 1.996 . S
O90 C97 1.257 . S
C91 O86 1.254 . S
C91 O87 1.269 . S
C92 O93 1.249 . S
C92 O94 1.270 . S
O93 Zn85 1.943 . S
O93 C92 1.249 . S
O94 Zn84 2.067 . S
O94 C92 1.270 . S
C95 O88 1.262 . S
C95 O96 1.232 . S
O96 C95 1.232 . S
C97 O89 1.260 . S
C97 O90 1.257 . S
Zn98 O101 2.031 . S
Zn98 O103 2.049 . S
Zn98 O108 2.067 . S
Zn99 O100 1.962 . S
Zn99 O102 1.986 . S
Zn99 O104 1.996 1_545 S
Zn99 O107 1.943 . S
O100 Zn99 1.962 . S
O100 C105 1.254 1_545 S
O101 Zn98 2.031 . S
O101 C105 1.269 . S
O102 Zn99 1.986 . S
O102 C109 1.262 . S
O103 Zn98 2.049 . S
O103 C111 1.260 . S
O104 Zn99 1.996 1_565 S
O104 C111 1.257 . S
C105 O100 1.254 1_565 S
C105 O101 1.269 . S
C106 O107 1.249 . S
C106 O108 1.270 1_545 S
O107 Zn99 1.943 . S
O107 C106 1.249 . S
O108 Zn98 2.067 . S
O108 C106 1.270 1_565 S
C109 O102 1.262 . S
C109 O110 1.232 . S
O110 C109 1.232 . S
C111 O103 1.260 . S
C111 O104 1.257 . S
Zn112 O115 2.031 . S
Zn112 O117 2.049 . S
Zn112 O122 2.067 . S
Zn113 O114 1.962 . S
Zn113 O116 1.986 . S
Zn113 O118 1.996 . S
Zn113 O121 1.943 . S
O114 Zn113 1.962 . S
O114 C119 1.254 . S
O115 Zn112 2.031 . S
O115 C119 1.269 . S
O116 Zn113 1.986 . S
O116 C123 1.262 . S
O117 Zn112 2.049 . S
O117 C125 1.260 . S
O118 Zn113 1.996 . S
O118 C125 1.257 . S
C119 O114 1.254 . S
C119 O115 1.269 . S
C120 O121 1.249 . S
C120 O122 1.270 . S
O121 Zn113 1.943 . S
O121 C120 1.249 . S
O122 Zn112 2.067 . S
O122 C120 1.270 . S
C123 O116 1.262 . S
C123 O124 1.232 . S
O124 C123 1.232 . S
C125 O117 1.260 . S
C125 O118 1.257 . S
Zn126 O129 2.031 . S
Zn126 O131 2.049 . S
Zn126 O136 2.067 . S
Zn127 O128 1.962 . S
Zn127 O130 1.986 . S
Zn127 O132 1.996 . S
Zn127 O135 1.943 . S
O128 Zn127 1.962 . S
O128 C133 1.254 . S
O129 Zn126 2.031 . S
O129 C133 1.269 . S
O130 Zn127 1.986 . S
O130 C137 1.262 . S
O131 Zn126 2.049 . S
O131 C139 1.260 . S
O132 Zn127 1.996 . S
O132 C139 1.257 . S
C133 O128 1.254 . S
C133 O129 1.269 . S
C134 O135 1.249 . S
C134 O136 1.270 . S
O135 Zn127 1.943 . S
O135 C134 1.249 . S
O136 Zn126 2.067 . S
O136 C134 1.270 . S
C137 O130 1.262 . S
C137 O138 1.232 . S
O138 C137 1.232 . S
C139 O131 1.260 . S
C139 O132 1.257 . S
Zn140 O143 2.031 1_556 S
Zn140 O145 2.049 . S
Zn140 O150 2.067 . S
Zn141 O142 1.962 . S
Zn141 O144 1.986 . S
Zn141 O146 1.996 . S
Zn141 O149 1.943 1_554 S
O142 Zn141 1.962 . S
O142 C147 1.254 . S
O143 Zn140 2.031 1_554 S
O143 C147 1.269 . S
O144 Zn141 1.986 . S
O144 C151 1.262 . S
O145 Zn140 2.049 . S
O145 C153 1.260 . S
O146 Zn141 1.996 . S
O146 C153 1.257 1_554 S
C147 O142 1.254 . S
C147 O143 1.269 . S
C148 O149 1.249 . S
C148 O150 1.270 . S
O149 Zn141 1.943 1_556 S
O149 C148 1.249 . S
O150 Zn140 2.067 . S
O150 C148 1.270 . S
C151 O144 1.262 . S
C151 O152 1.232 . S
O152 C151 1.232 . S
C153 O145 1.260 . S
C153 O146 1.257 1_556 S
Zn154 O157 2.031 . S
Zn154 O159 2.049 . S
Zn154 O164 2.067 . S
Zn155 O156 1.962 . S
Zn155 O158 1.986 . S
Zn155 O160 1.996 . S
Zn155 O163 1.943 . S
O156 Zn155 1.962 . S
O156 C161 1.254 . S
O157 Zn154 2.031 . S
O157 C161 1.269 . S
O158 Zn155 1.986 . S
O158 C165 1.262 . S
O159 Zn154 2.049 . S
O159 C167 1.260 . S
O160 Zn155 1.996 . S
O160 C167 1.257 . S
C161 O156 1.254 . S
C161 O157 1.269 . S
C162 O163 1.249 . S
C162 O164 1.270 . S
O163 Zn155 1.943 . S
O163 C162 1.249 . S
O164 Zn154 2.067 . S
O164 C162 1.270 . S
C165 O158 1.262 . S
C165 O166 1.232 . S
O166 C165 1.232 . S
C167 O159 1.260 . S
C167 O160 1.257 . S
Zn168 O171 2.031 . S
Zn168 O173 2.049 . S
Zn168 O178 2.067 . S
Zn169 O170 1.962 . S
Zn169 O172 1.986 . S
Zn169 O174 1.996 . S
Zn169 O177 1.943 . S
O170 Zn169 1.962 . S
O170 C175 1.254 . S
O171 Zn168 2.031 . S
O171 C175 1.269 . S
O172 Zn169 1.986 . S
O172 C179 1.262 . S
O173 Zn168 2.049 . S
O173 C181 1.260 . S
O174 Zn169 1.996 . S
O174 C181 1.257 . S
C175 O170 1.254 . S
C175 O171 1.269 . S
C176 O177 1.249 . S
C176 O178 1.270 . S
O177 Zn169 1.943 . S
O177 C176 1.249 . S
O178 Zn168 2.067 . S
O178 C176 1.270 . S
C179 O172 1.262 . S
C179 O180 1.232 . S
O180 C179 1.232 . S
C181 O173 1.260 . S
C181 O174 1.257 . S
Zn182 O185 2.031 . S
Zn182 O187 2.049 . S
Zn182 O192 2.067 . S
Zn183 O184 1.962 . S
Zn183 O186 1.986 . S
Zn183 O188 1.996 . S
Zn183 O191 1.943 . S
O184 Zn183 1.962 . S
O184 C189 1.254 . S
O185 Zn182 2.031 . S
O185 C189 1.269 . S
O186 Zn183 1.986 . S
O186 C193 1.262 . S
O187 Zn182 2.049 . S
O187 C195 1.260 . S
O188 Zn183 1.996 . S
O188 C195 1.257 . S
C189 O184 1.254 . S
C189 O185 1.269 . S
C190 O191 1.249 . S
C190 O192 1.270 . S
O191 Zn183 1.943 . S
O191 C190 1.249 . S
O192 Zn182 2.067 . S
O192 C190 1.270 . S
C193 O186 1.262 . S
C193 O194 1.232 . S
O194 C193 1.232 . S
C195 O187 1.260 . S
C195 O188 1.257 . S
Zn196 O199 2.031 1_554 S
Zn196 O201 2.049 . S
Zn196 O206 2.067 . S
Zn197 O198 1.962 . S
Zn197 O200 1.986 . S
Zn197 O202 1.996 1_556 S
Zn197 O205 1.943 1_556 S
O198 Zn197 1.962 . S
O198 C203 1.254 . S
O199 Zn196 2.031 1_556 S
O199 C203 1.269 . S
O200 Zn197 1.986 . S
O200 C207 1.262 . S
O201 Zn196 2.049 . S
O201 C209 1.260 . S
O202 Zn197 1.996 1_554 S
O202 C209 1.257 . S
C203 O198 1.254 . S
C203 O199 1.269 . S
C204 O205 1.249 . S
C204 O206 1.270 . S
O205 Zn197 1.943 1_554 S
O205 C204 1.249 . S
O206 Zn196 2.067 . S
O206 C204 1.270 . S
C207 O200 1.262 . S
C207 O208 1.232 . S
O208 C207 1.232 . S
C209 O201 1.260 . S
C209 O202 1.257 . S
Zn210 O213 2.031 . S
Zn210 O215 2.049 . S
Zn210 O220 2.067 . S
Zn211 O212 1.962 . S
Zn211 O214 1.986 . S
Zn211 O216 1.996 . S
Zn211 O219 1.943 . S
O212 Zn211 1.962 . S
O212 C217 1.254 . S
O213 Zn210 2.031 . S
O213 C217 1.269 . S
O214 Zn211 1.986 . S
O214 C221 1.262 . S
O215 Zn210 2.049 . S
O215 C223 1.260 . S
O216 Zn211 1.996 . S
O216 C223 1.257 . S
C217 O212 1.254 . S
C217 O213 1.269 . S
C218 O219 1.249 . S
C218 O220 1.270 . S
O219 Zn211 1.943 . S
O219 C218 1.249 . S
O220 Zn210 2.067 . S
O220 C218 1.270 . S
C221 O214 1.262 . S
C221 O222 1.232 . S
O222 C221 1.232 . S
C223 O215 1.260 . S
C223 O216 1.257 . S
H224 C230 0.930 . S
H225 C234 0.930 . S
H226 C239 0.929 . S
H227 C237 0.929 . S
H228 C232 0.929 . S
H229 C238 0.929 . S
C230 H224 0.930 . S
C230 C231 1.367 . S
C230 C238 1.378 . S
C231 C230 1.367 . S
C231 C239 1.433 . S
C232 H228 0.929 . S
C232 C234 1.378 . S
C232 C236 1.350 . S
C233 C236 1.463 . S
C233 C238 1.350 . S
C233 N241 1.427 . S
C234 H225 0.930 . S
C234 C232 1.378 . S
C234 C235 1.367 . S
C235 C234 1.367 . S
C235 C237 1.433 . S
C236 C232 1.350 . S
C236 C233 1.463 . S
C236 N240 1.427 . S
C237 H227 0.929 . S
C237 C235 1.433 . S
C237 N240 1.384 . S
C238 H229 0.929 . S
C238 C230 1.378 . S
C238 C233 1.350 . S
C239 H226 0.929 . S
C239 C231 1.433 . S
C239 N241 1.384 . S
N240 C236 1.427 . S
N240 C237 1.384 . S
N241 C233 1.427 . S
N241 C239 1.384 . S
H242 C248 0.930 . S
H243 C252 0.930 . S
H244 C257 0.929 . S
H245 C255 0.929 . S
H246 C250 0.929 . S
H247 C256 0.929 . S
C248 H242 0.930 . S
C248 C249 1.367 . S
C248 C256 1.378 . S
C249 C248 1.367 . S
C249 C257 1.433 1_545 S
C250 H246 0.929 . S
C250 C252 1.378 . S
C250 C254 1.350 1_565 S
C251 C254 1.463 1_655 S
C251 C256 1.350 . S
C251 N259 1.427 1_545 S
C252 H243 0.930 . S
C252 C250 1.378 . S
C252 C253 1.367 . S
C253 C252 1.367 . S
C253 C255 1.433 1_565 S
C254 C250 1.350 1_545 S
C254 C251 1.463 1_455 S
C254 N258 1.427 . S
C255 H245 0.929 . S
C255 C253 1.433 1_545 S
C255 N258 1.384 . S
C256 H247 0.929 . S
C256 C248 1.378 . S
C256 C251 1.350 . S
C257 H244 0.929 . S
C257 C249 1.433 1_565 S
C257 N259 1.384 . S
N258 C254 1.427 . S
N258 C255 1.384 . S
N259 C251 1.427 1_565 S
N259 C257 1.384 . S
H260 C266 0.930 . S
H261 C270 0.930 . S
H262 C275 0.929 . S
H263 C273 0.929 . S
H264 C268 0.929 . S
H265 C274 0.929 . S
C266 H260 0.930 . S
C266 C267 1.367 . S
C266 C274 1.378 . S
C267 C266 1.367 . S
C267 C275 1.433 . S
C268 H264 0.929 . S
C268 C270 1.378 . S
C268 C272 1.350 . S
C269 C272 1.463 . S
C269 C274 1.350 . S
C269 N277 1.427 . S
C270 H261 0.930 . S
C270 C268 1.378 . S
C270 C271 1.367 . S
C271 C270 1.367 . S
C271 C273 1.433 . S
C272 C268 1.350 . S
C272 C269 1.463 . S
C272 N276 1.427 . S
C273 H263 0.929 . S
C273 C271 1.433 . S
C273 N276 1.384 . S
C274 H265 0.929 . S
C274 C266 1.378 . S
C274 C269 1.350 . S
C275 H262 0.929 . S
C275 C267 1.433 . S
C275 N277 1.384 . S
N276 C272 1.427 . S
N276 C273 1.384 . S
N277 C269 1.427 . S
N277 C275 1.384 . S
H278 C284 0.930 . S
H279 C288 0.930 . S
H280 C293 0.929 . S
H281 C291 0.929 . S
H282 C286 0.929 1_554 S
H283 C292 0.929 1_556 S
C284 H278 0.930 . S
C284 C285 1.367 . S
C284 C292 1.378 . S
C285 C284 1.367 . S
C285 C293 1.433 1_545 S
C286 H282 0.929 1_556 S
C286 C288 1.378 . S
C286 C290 1.350 1_565 S
C287 C290 1.463 1_554 S
C287 C292 1.350 . S
C287 N295 1.427 1_545 S
C288 H279 0.930 . S
C288 C286 1.378 . S
C288 C289 1.367 . S
C289 C288 1.367 . S
C289 C291 1.433 1_565 S
C290 C286 1.350 1_545 S
C290 C287 1.463 1_556 S
C290 N294 1.427 . S
C291 H281 0.929 . S
C291 C289 1.433 1_545 S
C291 N294 1.384 . S
C292 H283 0.929 1_554 S
C292 C284 1.378 . S
C292 C287 1.350 . S
C293 H280 0.929 . S
C293 C285 1.433 1_565 S
C293 N295 1.384 . S
N294 C290 1.427 . S
N294 C291 1.384 . S
N295 C287 1.427 1_565 S
N295 C293 1.384 . S
H296 C302 0.930 . S
H297 C306 0.930 . S
H298 C311 0.929 . S
H299 C309 0.929 . S
H300 C304 0.929 . S
H301 C310 0.929 . S
C302 H296 0.930 . S
C302 C303 1.367 . S
C302 C310 1.378 . S
C303 C302 1.367 . S
C303 C311 1.433 . S
C304 H300 0.929 . S
C304 C306 1.378 . S
C304 C308 1.350 . S
C305 C308 1.463 . S
C305 C310 1.350 . S
C305 N313 1.427 . S
C306 H297 0.930 . S
C306 C304 1.378 . S
C306 C307 1.367 . S
C307 C306 1.367 . S
C307 C309 1.433 . S
C308 C304 1.350 . S
C308 C305 1.463 . S
C308 N312 1.427 . S
C309 H299 0.929 . S
C309 C307 1.433 . S
C309 N312 1.384 . S
C310 H301 0.929 . S
C310 C302 1.378 . S
C310 C305 1.350 . S
C311 H298 0.929 . S
C311 C303 1.433 . S
C311 N313 1.384 . S
N312 C308 1.427 . S
N312 C309 1.384 . S
N313 C305 1.427 . S
N313 C311 1.384 . S
H314 C320 0.930 . S
H315 C324 0.930 . S
H316 C329 0.929 . S
H317 C327 0.929 . S
H318 C322 0.929 . S
H319 C328 0.929 . S
C320 H314 0.930 . S
C320 C321 1.377 . S
C320 C328 1.378 . S
C321 C320 1.377 . S
C321 C329 1.421 1_565 S
C322 H318 0.929 . S
C322 C324 1.378 . S
C322 C326 1.350 . S
C323 C326 1.463 . S
C323 C328 1.350 1_545 S
C323 N331 1.427 . S
C324 H315 0.930 . S
C324 C322 1.378 . S
C324 C325 1.367 . S
C325 C324 1.367 . S
C325 C327 1.433 . S
C326 C322 1.350 . S
C326 C323 1.463 . S
C326 N330 1.427 . S
C327 H317 0.929 . S
C327 C325 1.433 . S
C327 N330 1.384 . S
C328 H319 0.929 . S
C328 C320 1.378 . S
C328 C323 1.350 1_565 S
C329 H316 0.929 . S
C329 C321 1.421 1_545 S
C329 N331 1.384 . S
N330 C326 1.427 . S
N330 C327 1.384 . S
N331 C323 1.427 . S
N331 C329 1.384 . S
H332 C338 0.930 . S
H333 C342 0.930 . S
H334 C347 0.929 . S
H335 C345 0.929 . S
H336 C340 0.929 . S
H337 C346 0.929 . S
C338 H332 0.930 . S
C338 C339 1.367 . S
C338 C346 1.378 . S
C339 C338 1.367 . S
C339 C347 1.433 . S
C340 H336 0.929 . S
C340 C342 1.378 . S
C340 C344 1.350 . S
C341 C344 1.463 . S
C341 C346 1.350 . S
C341 N349 1.427 . S
C342 H333 0.930 . S
C342 C340 1.378 . S
C342 C343 1.367 . S
C343 C342 1.367 . S
C343 C345 1.433 . S
C344 C340 1.350 . S
C344 C341 1.463 . S
C344 N348 1.427 . S
C345 H335 0.929 . S
C345 C343 1.433 . S
C345 N348 1.384 . S
C346 H337 0.929 . S
C346 C338 1.378 . S
C346 C341 1.350 . S
C347 H334 0.929 . S
C347 C339 1.433 . S
C347 N349 1.384 . S
N348 C344 1.427 . S
N348 C345 1.384 . S
N349 C341 1.427 . S
N349 C347 1.384 . S
H350 C356 0.930 . S
H351 C360 0.930 . S
H352 C365 0.929 . S
H353 C363 0.929 . S
H354 C358 0.929 . S
H355 C364 0.929 . S
C356 H350 0.930 . S
C356 C357 1.367 1_565 S
C356 C364 1.378 . S
C357 C356 1.367 1_545 S
C357 C365 1.433 . S
C358 H354 0.929 . S
C358 C360 1.378 . S
C358 C362 1.350 . S
C359 C362 1.463 1_456 S
C359 C364 1.350 1_545 S
C359 N367 1.427 . S
C360 H351 0.930 . S
C360 C358 1.378 . S
C360 C361 1.357 1_545 S
C361 C360 1.357 1_565 S
C361 C363 1.443 . S
C362 C358 1.350 . S
C362 C359 1.463 1_654 S
C362 N366 1.427 1_545 S
C363 H353 0.929 . S
C363 C361 1.443 . S
C363 N366 1.384 . S
C364 H355 0.929 . S
C364 C356 1.378 . S
C364 C359 1.350 1_565 S
C365 H352 0.929 . S
C365 C357 1.433 . S
C365 N367 1.384 . S
N366 C362 1.427 1_565 S
N366 C363 1.384 . S
N367 C359 1.427 . S
N367 C365 1.384 . S
H368 C374 0.930 . S
H369 C378 0.930 . S
H370 C383 0.929 . S
H371 C381 0.929 . S
H372 C376 0.929 . S
H373 C382 0.929 . S
C374 H368 0.930 . S
C374 C375 1.367 . S
C374 C382 1.378 . S
C375 C374 1.367 . S
C375 C383 1.433 . S
C376 H372 0.929 . S
C376 C378 1.378 . S
C376 C380 1.350 . S
C377 C380 1.463 . S
C377 C382 1.350 . S
C377 N385 1.427 . S
C378 H369 0.930 . S
C378 C376 1.378 . S
C378 C379 1.367 . S
C379 C378 1.367 . S
C379 C381 1.433 . S
C380 C376 1.350 . S
C380 C377 1.463 . S
C380 N384 1.427 . S
C381 H371 0.929 . S
C381 C379 1.433 . S
C381 N384 1.384 . S
C382 H373 0.929 . S
C382 C374 1.378 . S
C382 C377 1.350 . S
C383 H370 0.929 . S
C383 C375 1.433 . S
C383 N385 1.384 . S
N384 C380 1.427 . S
N384 C381 1.384 . S
N385 C377 1.427 . S
N385 C383 1.384 . S
H386 C392 0.930 . S
H387 C396 0.930 . S
H388 C401 0.929 . S
H389 C399 0.929 . S
H390 C394 0.929 . S
H391 C400 0.929 . S
C392 H386 0.930 . S
C392 C393 1.367 . S
C392 C400 1.378 . S
C393 C392 1.367 . S
C393 C401 1.433 . S
C394 H390 0.929 . S
C394 C396 1.378 . S
C394 C398 1.350 . S
C395 C398 1.463 . S
C395 C400 1.350 . S
C395 N403 1.427 . S
C396 H387 0.930 . S
C396 C394 1.378 . S
C396 C397 1.367 . S
C397 C396 1.367 . S
C397 C399 1.433 . S
C398 C394 1.350 . S
C398 C395 1.463 . S
C398 N402 1.427 . S
C399 H389 0.929 . S
C399 C397 1.433 . S
C399 N402 1.384 . S
C400 H391 0.929 . S
C400 C392 1.378 . S
C400 C395 1.350 . S
C401 H388 0.929 . S
C401 C393 1.433 . S
C401 N403 1.384 . S
N402 C398 1.427 . S
N402 C399 1.384 . S
N403 C395 1.427 . S
N403 C401 1.384 . S
H404 C410 0.930 . S
H405 C414 0.930 . S
H406 C419 0.929 . S
H407 C417 0.929 . S
H408 C412 0.929 . S
H409 C418 0.929 . S
C410 H404 0.930 . S
C410 C411 1.367 . S
C410 C418 1.378 . S
C411 C410 1.367 . S
C411 C419 1.433 . S
C412 H408 0.929 . S
C412 C414 1.378 . S
C412 C416 1.350 . S
C413 C416 1.463 . S
C413 C418 1.350 . S
C413 N421 1.427 . S
C414 H405 0.930 . S
C414 C412 1.378 . S
C414 C415 1.367 . S
C415 C414 1.367 . S
C415 C417 1.433 . S
C416 C412 1.350 . S
C416 C413 1.463 . S
C416 N420 1.427 . S
C417 H407 0.929 . S
C417 C415 1.433 . S
C417 N420 1.384 . S
C418 H409 0.929 . S
C418 C410 1.378 . S
C418 C413 1.350 . S
C419 H406 0.929 . S
C419 C411 1.433 . S
C419 N421 1.384 . S
N420 C416 1.427 . S
N420 C417 1.384 . S
N421 C413 1.427 . S
N421 C419 1.384 . S
H422 C428 0.930 . S
H423 C432 0.930 . S
H424 C437 0.929 . S
H425 C435 0.929 . S
H426 C430 0.929 . S
H427 C436 0.929 . S
C428 H422 0.930 . S
C428 C429 1.367 . S
C428 C436 1.378 . S
C429 C428 1.367 . S
C429 C437 1.433 . S
C430 H426 0.929 . S
C430 C432 1.378 . S
C430 C434 1.350 . S
C431 C434 1.463 . S
C431 C436 1.350 . S
C431 N439 1.427 . S
C432 H423 0.930 . S
C432 C430 1.378 . S
C432 C433 1.367 . S
C433 C432 1.367 . S
C433 C435 1.433 . S
C434 C430 1.350 . S
C434 C431 1.463 . S
C434 N438 1.427 . S
C435 H425 0.929 . S
C435 C433 1.433 . S
C435 N438 1.384 . S
C436 H427 0.929 . S
C436 C428 1.378 . S
C436 C431 1.350 . S
C437 H424 0.929 . S
C437 C429 1.433 . S
C437 N439 1.384 . S
N438 C434 1.427 . S
N438 C435 1.384 . S
N439 C431 1.427 . S
N439 C437 1.384 . S
H440 C446 0.930 . S
H441 C450 0.930 . S
H442 C455 0.929 . S
H443 C453 0.929 . S
H444 C448 0.929 . S
H445 C454 0.929 . S
C446 H440 0.930 . S
C446 C447 1.367 . S
C446 C454 1.378 . S
C447 C446 1.367 . S
C447 C455 1.433 . S
C448 H444 0.929 . S
C448 C450 1.378 . S
C448 C452 1.350 . S
C449 C452 1.463 1_554 S
C449 C454 1.350 . S
C449 N457 1.427 . S
C450 H441 0.930 . S
C450 C448 1.378 . S
C450 C451 1.367 . S
C451 C450 1.367 . S
C451 C453 1.433 . S
C452 C448 1.350 . S
C452 C449 1.463 1_556 S
C452 N456 1.427 . S
C453 H443 0.929 . S
C453 C451 1.433 . S
C453 N456 1.384 . S
C454 H445 0.929 . S
C454 C446 1.378 . S
C454 C449 1.350 . S
C455 H442 0.929 . S
C455 C447 1.433 . S
C455 N457 1.384 . S
N456 C452 1.427 . S
N456 C453 1.384 . S
N457 C449 1.427 . S
N457 C455 1.384 . S
H458 C464 0.930 . S
H459 C468 0.930 . S
H460 C473 0.929 . S
H461 C471 0.929 . S
H462 C466 0.929 1_455 S
H463 C472 0.929 1_655 S
C464 H458 0.930 . S
C464 C465 1.367 . S
C464 C472 1.378 . S
C465 C464 1.367 . S
C465 C473 1.433 . S
C466 H462 0.929 1_655 S
C466 C468 1.378 . S
C466 C470 1.350 . S
C467 C470 1.463 1_455 S
C467 C472 1.350 . S
C467 N475 1.427 . S
C468 H459 0.930 . S
C468 C466 1.378 . S
C468 C469 1.367 . S
C469 C468 1.367 . S
C469 C471 1.433 . S
C470 C466 1.350 . S
C470 C467 1.463 1_655 S
C470 N474 1.427 . S
C471 H461 0.929 . S
C471 C469 1.433 . S
C471 N474 1.384 . S
C472 H463 0.929 1_455 S
C472 C464 1.378 . S
C472 C467 1.350 . S
C473 H460 0.929 . S
C473 C465 1.433 . S
C473 N475 1.384 . S
N474 C470 1.427 . S
N474 C471 1.384 . S
N475 C467 1.427 . S
N475 C473 1.384 . S
H476 C482 0.930 . S
H477 C486 0.930 . S
H478 C491 0.929 . S
H479 C489 0.929 . S
H480 C484 0.929 1_554 S
H481 C490 0.929 1_556 S
C482 H476 0.930 . S
C482 C483 1.367 . S
C482 C490 1.378 . S
C483 C482 1.367 . S
C483 C491 1.433 . S
C484 H480 0.929 1_556 S
C484 C486 1.378 . S
C484 C488 1.350 . S
C485 C488 1.463 1_454 S
C485 C490 1.350 . S
C485 N493 1.427 . S
C486 H477 0.930 . S
C486 C484 1.378 . S
C486 C487 1.367 . S
C487 C486 1.367 . S
C487 C489 1.433 . S
C488 C484 1.350 . S
C488 C485 1.463 1_656 S
C488 N492 1.427 . S
C489 H479 0.929 . S
C489 C487 1.433 . S
C489 N492 1.384 . S
C490 H481 0.929 1_554 S
C490 C482 1.378 . S
C490 C485 1.350 . S
C491 H478 0.929 . S
C491 C483 1.433 . S
C491 N493 1.384 . S
N492 C488 1.427 . S
N492 C489 1.384 . S
N493 C485 1.427 . S
N493 C491 1.384 . S
H494 C500 0.930 . S
H495 C504 0.930 . S
H496 C509 0.929 . S
H497 C507 0.929 . S
H498 C502 0.929 . S
H499 C508 0.929 . S
C500 H494 0.930 . S
C500 C501 1.367 . S
C500 C508 1.378 . S
C501 C500 1.367 . S
C501 C509 1.433 . S
C502 H498 0.929 . S
C502 C504 1.378 . S
C502 C506 1.350 . S
C503 C506 1.463 . S
C503 C508 1.350 . S
C503 N511 1.427 . S
C504 H495 0.930 . S
C504 C502 1.378 . S
C504 C505 1.367 . S
C505 C504 1.367 . S
C505 C507 1.433 . S
C506 C502 1.350 . S
C506 C503 1.463 . S
C506 N510 1.427 . S
C507 H497 0.929 . S
C507 C505 1.433 . S
C507 N510 1.384 . S
C508 H499 0.929 . S
C508 C500 1.378 . S
C508 C503 1.350 . S
C509 H496 0.929 . S
C509 C501 1.433 . S
C509 N511 1.384 . S
N510 C506 1.427 . S
N510 C507 1.384 . S
N511 C503 1.427 . S
N511 C509 1.384 . S
H512 C518 0.930 . S
H513 C522 0.930 1_556 S
H514 C527 0.929 . S
H515 C525 0.929 . S
H516 C520 0.929 . S
H517 C526 0.929 . S
C518 H512 0.930 . S
C518 C519 1.367 . S
C518 C526 1.378 . S
C519 C518 1.367 . S
C519 C527 1.433 . S
C520 H516 0.929 . S
C520 C522 1.378 . S
C520 C524 1.350 . S
C521 C524 1.463 . S
C521 C526 1.350 . S
C521 N529 1.427 . S
C522 H513 0.930 1_554 S
C522 C520 1.378 . S
C522 C523 1.367 . S
C523 C522 1.367 . S
C523 C525 1.433 . S
C524 C520 1.350 . S
C524 C521 1.463 . S
C524 N528 1.427 . S
C525 H515 0.929 . S
C525 C523 1.433 . S
C525 N528 1.384 . S
C526 H517 0.929 . S
C526 C518 1.378 . S
C526 C521 1.350 . S
C527 H514 0.929 . S
C527 C519 1.433 . S
C527 N529 1.384 . S
N528 C524 1.427 . S
N528 C525 1.384 . S
N529 C521 1.427 . S
N529 C527 1.384 . S
H530 C536 0.930 . S
H531 C540 0.930 . S
H532 C545 0.929 . S
H533 C543 0.929 . S
H534 C538 0.929 . S
H535 C544 0.929 . S
C536 H530 0.930 . S
C536 C537 1.367 . S
C536 C544 1.378 . S
C537 C536 1.367 . S
C537 C545 1.433 . S
C538 H534 0.929 . S
C538 C540 1.378 . S
C538 C542 1.350 . S
C539 C542 1.463 . S
C539 C544 1.350 . S
C539 N547 1.427 . S
C540 H531 0.930 . S
C540 C538 1.378 . S
C540 C541 1.367 . S
C541 C540 1.367 . S
C541 C543 1.433 . S
C542 C538 1.350 . S
C542 C539 1.463 . S
C542 N546 1.427 . S
C543 H533 0.929 . S
C543 C541 1.433 . S
C543 N546 1.384 . S
C544 H535 0.929 . S
C544 C536 1.378 . S
C544 C539 1.350 . S
C545 H532 0.929 . S
C545 C537 1.433 . S
C545 N547 1.384 . S
N546 C542 1.427 . S
N546 C543 1.384 . S
N547 C539 1.427 . S
N547 C545 1.384 . S
H548 C554 0.930 . S
H549 C558 0.930 . S
H550 C563 0.929 . S
H551 C561 0.929 . S
H552 C556 0.929 . S
H553 C562 0.929 . S
C554 H548 0.930 . S
C554 C555 1.367 . S
C554 C562 1.378 . S
C555 C554 1.367 . S
C555 C563 1.433 . S
C556 H552 0.929 . S
C556 C558 1.378 . S
C556 C560 1.350 . S
C557 C560 1.463 . S
C557 C562 1.350 . S
C557 N565 1.427 . S
C558 H549 0.930 . S
C558 C556 1.378 . S
C558 C559 1.367 . S
C559 C558 1.367 . S
C559 C561 1.433 . S
C560 C556 1.350 . S
C560 C557 1.463 . S
C560 N564 1.427 . S
C561 H551 0.929 . S
C561 C559 1.433 . S
C561 N564 1.384 . S
C562 H553 0.929 . S
C562 C554 1.378 . S
C562 C557 1.350 . S
C563 H550 0.929 . S
C563 C555 1.433 . S
C563 N565 1.384 . S
N564 C560 1.427 . S
N564 C561 1.384 . S
N565 C557 1.427 . S
N565 C563 1.384 . S
H566 C572 0.930 . S
H567 C576 0.930 . S
H568 C581 0.929 . S
H569 C579 0.929 . S
H570 C574 0.929 . S
H571 C580 0.929 . S
C572 H566 0.930 . S
C572 C573 1.367 . S
C572 C580 1.378 . S
C573 C572 1.367 . S
C573 C581 1.433 . S
C574 H570 0.929 . S
C574 C576 1.378 . S
C574 C578 1.350 . S
C575 C578 1.463 . S
C575 C580 1.350 . S
C575 N583 1.427 . S
C576 H567 0.930 . S
C576 C574 1.378 . S
C576 C577 1.367 . S
C577 C576 1.367 . S
C577 C579 1.433 . S
C578 C574 1.350 . S
C578 C575 1.463 . S
C578 N582 1.427 . S
C579 H569 0.929 . S
C579 C577 1.433 . S
C579 N582 1.384 . S
C580 H571 0.929 . S
C580 C572 1.378 . S
C580 C575 1.350 . S
C581 H568 0.929 . S
C581 C573 1.433 . S
C581 N583 1.384 . S
N582 C578 1.427 . S
N582 C579 1.384 . S
N583 C575 1.427 . S
N583 C581 1.384 . S
H584 C590 0.930 . S
H585 C594 0.930 . S
H586 C599 0.929 . S
H587 C597 0.929 . S
H588 C592 0.929 . S
H589 C598 0.929 . S
C590 H584 0.930 . S
C590 C591 1.367 . S
C590 C598 1.378 . S
C591 C590 1.367 . S
C591 C599 1.433 . S
C592 H588 0.929 . S
C592 C594 1.378 . S
C592 C596 1.350 . S
C593 C596 1.463 . S
C593 C598 1.350 . S
C593 N601 1.427 . S
C594 H585 0.930 . S
C594 C592 1.378 . S
C594 C595 1.367 . S
C595 C594 1.367 . S
C595 C597 1.433 . S
C596 C592 1.350 . S
C596 C593 1.463 . S
C596 N600 1.427 . S
C597 H587 0.929 . S
C597 C595 1.433 . S
C597 N600 1.384 . S
C598 H589 0.929 . S
C598 C590 1.378 . S
C598 C593 1.350 . S
C599 H586 0.929 . S
C599 C591 1.433 . S
C599 N601 1.384 . S
N600 C596 1.427 . S
N600 C597 1.384 . S
N601 C593 1.427 . S
N601 C599 1.384 . S
H602 C608 0.930 . S
H603 C612 0.930 . S
H604 C617 0.929 . S
H605 C615 0.929 . S
H606 C610 0.929 . S
H607 C616 0.929 . S
C608 H602 0.930 . S
C608 C609 1.367 . S
C608 C616 1.378 . S
C609 C608 1.367 . S
C609 C617 1.433 . S
C610 H606 0.929 . S
C610 C612 1.378 . S
C610 C614 1.350 . S
C611 C614 1.463 . S
C611 C616 1.350 . S
C611 N619 1.427 . S
C612 H603 0.930 . S
C612 C610 1.378 . S
C612 C613 1.367 . S
C613 C612 1.367 . S
C613 C615 1.433 . S
C614 C610 1.350 . S
C614 C611 1.463 . S
C614 N618 1.427 . S
C615 H605 0.929 . S
C615 C613 1.433 . S
C615 N618 1.384 . S
C616 H607 0.929 . S
C616 C608 1.378 . S
C616 C611 1.350 . S
C617 H604 0.929 . S
C617 C609 1.433 . S
C617 N619 1.384 . S
N618 C614 1.427 . S
N618 C615 1.384 . S
N619 C611 1.427 . S
N619 C617 1.384 . S
H620 C626 0.930 . S
H621 C630 0.930 . S
H622 C635 0.929 . S
H623 C633 0.929 1_554 S
H624 C628 0.929 . S
H625 C634 0.929 . S
C626 H620 0.930 . S
C626 C627 1.367 . S
C626 C634 1.378 . S
C627 C626 1.367 . S
C627 C635 1.433 . S
C628 H624 0.929 . S
C628 C630 1.378 . S
C628 C632 1.350 . S
C629 C632 1.463 . S
C629 C634 1.350 . S
C629 N637 1.427 . S
C630 H621 0.930 . S
C630 C628 1.378 . S
C630 C631 1.367 . S
C631 C630 1.367 . S
C631 C633 1.433 . S
C632 C628 1.350 . S
C632 C629 1.463 . S
C632 N636 1.427 . S
C633 H623 0.929 1_556 S
C633 C631 1.433 . S
C633 N636 1.384 . S
C634 H625 0.929 . S
C634 C626 1.378 . S
C634 C629 1.350 . S
C635 H622 0.929 . S
C635 C627 1.433 . S
C635 N637 1.384 . S
N636 C632 1.427 . S
N636 C633 1.384 . S
N637 C629 1.427 . S
N637 C635 1.384 . S
H638 C644 0.930 . S
H639 C648 0.930 . S
H640 C653 0.937 . S
H641 C651 0.929 . S
H642 C646 0.929 . S
H643 C652 0.929 . S
C644 H638 0.930 . S
C644 C645 1.367 . S
C644 C652 1.378 . S
C645 C644 1.367 . S
C645 C653 1.433 . S
C646 H642 0.929 . S
C646 C648 1.378 . S
C646 C650 1.350 . S
C647 C650 1.463 . S
C647 C652 1.350 . S
C647 N655 1.427 . S
C648 H639 0.930 . S
C648 C646 1.378 . S
C648 C649 1.367 . S
C649 C648 1.367 . S
C649 C651 1.433 . S
C650 C646 1.350 . S
C650 C647 1.463 . S
C650 N654 1.427 . S
C651 H641 0.929 . S
C651 C649 1.433 . S
C651 N654 1.384 . S
C652 H643 0.929 . S
C652 C644 1.378 . S
C652 C647 1.350 . S
C653 H640 0.937 . S
C653 C645 1.433 . S
C653 N655 1.384 . S
N654 C650 1.427 . S
N654 C651 1.384 . S
N655 C647 1.427 . S
N655 C653 1.384 . S
H656 C662 0.930 1_554 S
H657 C666 0.930 . S
H658 C671 0.929 . S
H659 C669 0.929 . S
H660 C664 0.929 . S
H661 C670 0.929 . S
C662 H656 0.930 1_556 S
C662 C663 1.367 . S
C662 C670 1.378 . S
C663 C662 1.367 . S
C663 C671 1.433 . S
C664 H660 0.929 . S
C664 C666 1.378 . S
C664 C668 1.350 . S
C665 C668 1.463 . S
C665 C670 1.350 . S
C665 N673 1.427 . S
C666 H657 0.930 . S
C666 C664 1.378 . S
C666 C667 1.367 . S
C667 C666 1.367 . S
C667 C669 1.433 . S
C668 C664 1.350 . S
C668 C665 1.463 . S
C668 N672 1.427 . S
C669 H659 0.929 . S
C669 C667 1.433 . S
C669 N672 1.384 . S
C670 H661 0.929 . S
C670 C662 1.378 . S
C670 C665 1.350 . S
C671 H658 0.929 . S
C671 C663 1.433 . S
C671 N673 1.384 . S
N672 C668 1.427 . S
N672 C669 1.384 . S
N673 C665 1.427 . S
N673 C671 1.384 . S
H674 C680 0.930 . S
H675 C684 0.930 . S
H676 C689 0.929 . S
H677 C687 0.929 . S
H678 C682 0.929 . S
H679 C688 0.929 . S
C680 H674 0.930 . S
C680 C681 1.367 . S
C680 C688 1.378 . S
C681 C680 1.367 . S
C681 C689 1.433 . S
C682 H678 0.929 . S
C682 C684 1.378 . S
C682 C686 1.350 . S
C683 C686 1.463 . S
C683 C688 1.350 . S
C683 N691 1.427 . S
C684 H675 0.930 . S
C684 C682 1.378 . S
C684 C685 1.367 . S
C685 C684 1.367 . S
C685 C687 1.433 . S
C686 C682 1.350 . S
C686 C683 1.463 . S
C686 N690 1.427 . S
C687 H677 0.929 . S
C687 C685 1.433 . S
C687 N690 1.384 . S
C688 H679 0.929 . S
C688 C680 1.378 . S
C688 C683 1.350 . S
C689 H676 0.929 . S
C689 C681 1.433 . S
C689 N691 1.384 . S
N690 C686 1.427 . S
N690 C687 1.384 . S
N691 C683 1.427 . S
N691 C689 1.384 . S
H692 C698 0.930 . S
H693 C702 0.930 . S
H694 C707 0.929 . S
H695 C705 0.929 . S
H696 C700 0.929 . S
H697 C706 0.929 . S
C698 H692 0.930 . S
C698 C699 1.367 . S
C698 C706 1.378 . S
C699 C698 1.367 . S
C699 C707 1.433 . S
C700 H696 0.929 . S
C700 C702 1.378 . S
C700 C704 1.350 . S
C701 C704 1.463 . S
C701 C706 1.350 . S
C701 N709 1.427 . S
C702 H693 0.930 . S
C702 C700 1.378 . S
C702 C703 1.367 . S
C703 C702 1.367 . S
C703 C705 1.433 . S
C704 C700 1.350 . S
C704 C701 1.463 . S
C704 N708 1.427 . S
C705 H695 0.929 . S
C705 C703 1.433 . S
C705 N708 1.384 . S
C706 H697 0.929 . S
C706 C698 1.378 . S
C706 C701 1.350 . S
C707 H694 0.929 . S
C707 C699 1.433 . S
C707 N709 1.384 . S
N708 C704 1.427 . S
N708 C705 1.384 . S
N709 C701 1.427 . S
N709 C707 1.384 . S
H710 C716 0.930 . S
H711 C720 0.922 1_556 S
H712 C725 0.929 . S
H713 C723 0.929 . S
H714 C718 0.929 . S
H715 C724 0.929 . S
C716 H710 0.930 . S
C716 C717 1.367 . S
C716 C724 1.378 . S
C717 C716 1.367 . S
C717 C725 1.433 . S
C718 H714 0.929 . S
C718 C720 1.378 . S
C718 C722 1.350 . S
C719 C722 1.463 . S
C719 C724 1.350 . S
C719 N727 1.427 . S
C720 H711 0.922 1_554 S
C720 C718 1.378 . S
C720 C721 1.367 . S
C721 C720 1.367 . S
C721 C723 1.433 . S
C722 C718 1.350 . S
C722 C719 1.463 . S
C722 N726 1.427 . S
C723 H713 0.929 . S
C723 C721 1.433 . S
C723 N726 1.384 . S
C724 H715 0.929 . S
C724 C716 1.378 . S
C724 C719 1.350 . S
C725 H712 0.929 . S
C725 C717 1.433 . S
C725 N727 1.384 . S
N726 C722 1.427 . S
N726 C723 1.384 . S
N727 C719 1.427 . S
N727 C725 1.384 . S
H728 C734 0.930 . S
H729 C738 0.930 . S
H730 C743 0.929 . S
H731 C741 0.929 . S
H732 C736 0.929 . S
H733 C742 0.929 . S
C734 H728 0.930 . S
C734 C735 1.367 . S
C734 C742 1.378 . S
C735 C734 1.367 . S
C735 C743 1.433 . S
C736 H732 0.929 . S
C736 C738 1.378 . S
C736 C740 1.350 . S
C737 C740 1.463 . S
C737 C742 1.350 . S
C737 N745 1.427 . S
C738 H729 0.930 . S
C738 C736 1.378 . S
C738 C739 1.367 . S
C739 C738 1.367 . S
C739 C741 1.433 . S
C740 C736 1.350 . S
C740 C737 1.463 . S
C740 N744 1.427 . S
C741 H731 0.929 . S
C741 C739 1.433 . S
C741 N744 1.384 . S
C742 H733 0.929 . S
C742 C734 1.378 . S
C742 C737 1.350 . S
C743 H730 0.929 . S
C743 C735 1.433 . S
C743 N745 1.384 . S
N744 C740 1.427 . S
N744 C741 1.384 . S
N745 C737 1.427 . S
N745 C743 1.384 . S
H746 C752 0.930 . S
H747 C756 0.930 . S
H748 C761 0.929 . S
H749 C759 0.929 . S
H750 C754 0.929 . S
H751 C760 0.929 . S
C752 H746 0.930 . S
C752 C753 1.367 . S
C752 C760 1.378 . S
C753 C752 1.367 . S
C753 C761 1.433 . S
C754 H750 0.929 . S
C754 C756 1.378 . S
C754 C758 1.350 . S
C755 C758 1.463 . S
C755 C760 1.350 . S
C755 N763 1.427 . S
C756 H747 0.930 . S
C756 C754 1.378 . S
C756 C757 1.367 . S
C757 C756 1.367 . S
C757 C759 1.433 . S
C758 C754 1.350 . S
C758 C755 1.463 . S
C758 N762 1.427 . S
C759 H749 0.929 . S
C759 C757 1.433 . S
C759 N762 1.384 . S
C760 H751 0.929 . S
C760 C752 1.378 . S
C760 C755 1.350 . S
C761 H748 0.929 . S
C761 C753 1.433 . S
C761 N763 1.384 . S
N762 C758 1.427 . S
N762 C759 1.384 . S
N763 C755 1.427 . S
N763 C761 1.384 . S
H764 C770 0.930 . S
H765 C774 0.930 . S
H766 C779 0.929 . S
H767 C777 0.929 . S
H768 C772 0.929 . S
H769 C778 0.929 . S
C770 H764 0.930 . S
C770 C771 1.367 . S
C770 C778 1.378 . S
C771 C770 1.367 . S
C771 C779 1.433 . S
C772 H768 0.929 . S
C772 C774 1.378 . S
C772 C776 1.350 . S
C773 C776 1.463 . S
C773 C778 1.350 . S
C773 N781 1.427 . S
C774 H765 0.930 . S
C774 C772 1.378 . S
C774 C775 1.367 . S
C775 C774 1.367 . S
C775 C777 1.433 . S
C776 C772 1.350 . S
C776 C773 1.463 . S
C776 N780 1.427 . S
C777 H767 0.929 . S
C777 C775 1.433 . S
C777 N780 1.384 . S
C778 H769 0.929 . S
C778 C770 1.378 . S
C778 C773 1.350 . S
C779 H766 0.929 . S
C779 C771 1.433 . S
C779 N781 1.384 . S
N780 C776 1.427 . S
N780 C777 1.384 . S
N781 C773 1.427 . S
N781 C779 1.384 . S
H782 C788 0.930 . S
H783 C792 0.930 . S
H784 C797 0.929 1_554 S
H785 C795 0.929 . S
H786 C790 0.929 . S
H787 C796 0.929 . S
C788 H782 0.930 . S
C788 C789 1.367 . S
C788 C796 1.378 . S
C789 C788 1.367 . S
C789 C797 1.433 . S
C790 H786 0.929 . S
C790 C792 1.378 . S
C790 C794 1.350 . S
C791 C794 1.463 . S
C791 C796 1.350 . S
C791 N799 1.427 . S
C792 H783 0.930 . S
C792 C790 1.378 . S
C792 C793 1.367 . S
C793 C792 1.367 . S
C793 C795 1.433 . S
C794 C790 1.350 . S
C794 C791 1.463 . S
C794 N798 1.427 . S
C795 H785 0.929 . S
C795 C793 1.433 . S
C795 N798 1.384 . S
C796 H787 0.929 . S
C796 C788 1.378 . S
C796 C791 1.350 . S
C797 H784 0.929 1_556 S
C797 C789 1.433 . S
C797 N799 1.384 . S
N798 C794 1.427 . S
N798 C795 1.384 . S
N799 C791 1.427 . S
N799 C797 1.384 . S
C231 C7 1.045 . S
C235 C175 1.045 . S
C249 C22 1.264 . S
C253 C78 1.264 1_565 S
C267 C35 1.046 . S
C271 C203 1.046 . S
C285 C106 1.264 . S
C289 C50 1.264 1_565 S
C303 C204 1.258 . S
C307 C36 1.258 . S
C321 C105 1.045 . S
C325 C49 1.043 . S
C339 C176 1.263 . S
C343 C8 1.263 . S
C357 C77 1.043 . S
C361 C21 1.044 . S
C375 C63 1.043 . S
C379 C119 1.043 . S
C393 C91 1.047 . S
C397 C147 1.047 . S
C411 C148 1.259 . S
C415 C92 1.259 . S
C429 C64 1.262 . S
C433 C120 1.262 . S
C447 C190 1.263 . S
C451 C134 1.263 . S
C465 C162 1.255 . S
C469 C218 1.255 . S
C483 C161 1.047 . S
C487 C217 1.047 . S
C501 C133 1.043 . S
C505 C189 1.043 . S
C519 C165 1.485 . S
C523 C11 1.484 . S
C537 C125 1.404 . S
C541 C27 1.403 . S
C555 C39 1.474 . S
C559 C137 1.474 . S
C573 C153 1.411 . S
C577 C55 1.397 . S
C591 C167 1.403 . S
C595 C41 1.403 . S
C609 C53 1.481 . S
C613 C123 1.479 . S
C627 C139 1.408 . S
C631 C13 1.398 . S
C645 C151 1.475 . S
C649 C25 1.476 . S
C663 C67 1.484 . S
C667 C221 1.484 . S
C681 C181 1.397 . S
C685 C83 1.410 . S
C699 C95 1.485 . S
C703 C193 1.485 . S
C717 C111 1.411 . S
C721 C209 1.400 . S
C735 C97 1.413 . S
C739 C223 1.396 . S
C753 C179 1.485 . S
C757 C109 1.485 . S
C771 C195 1.397 . S
C775 C69 1.411 . S
C789 C207 1.476 . S
C793 C81 1.475 . S
