# Generated by pormake.
# Topology mmt, (4)-cn, num edge types: 1
# Building blocks:
#     Node 0, Type 0, BuildingBlock: CEKHIL_clean_sbu_0, # of connection points: 4
#     Node 1, Type 0, BuildingBlock: CEKHIL_clean_sbu_0, # of connection points: 4
#     Node 2, Type 0, BuildingBlock: CEKHIL_clean_sbu_0, # of connection points: 4
#     Node 3, Type 0, BuildingBlock: CEKHIL_clean_sbu_0, # of connection points: 4
#     Node 4, Type 0, BuildingBlock: CEKHIL_clean_sbu_0, # of connection points: 4
#     Node 5, Type 0, BuildingBlock: CEKHIL_clean_sbu_0, # of connection points: 4
#     Node 6, Type 0, BuildingBlock: CEKHIL_clean_sbu_0, # of connection points: 4
#     Node 7, Type 0, BuildingBlock: CEKHIL_clean_sbu_0, # of connection points: 4
#     Edge 8, Type (0, 0), BuildingBlock: OJICUG_clean_linker_0, # of connection points: 2
#     Edge 9, Type (0, 0), BuildingBlock: OJICUG_clean_linker_0, # of connection points: 2
#     Edge 10, Type (0, 0), BuildingBlock: OJICUG_clean_linker_0, # of connection points: 2
#     Edge 11, Type (0, 0), BuildingBlock: OJICUG_clean_linker_0, # of connection points: 2
#     Edge 12, Type (0, 0), BuildingBlock: OJICUG_clean_linker_0, # of connection points: 2
#     Edge 13, Type (0, 0), BuildingBlock: OJICUG_clean_linker_0, # of connection points: 2
#     Edge 14, Type (0, 0), BuildingBlock: OJICUG_clean_linker_0, # of connection points: 2
#     Edge 15, Type (0, 0), BuildingBlock: OJICUG_clean_linker_0, # of connection points: 2
#     Edge 16, Type (0, 0), BuildingBlock: OJICUG_clean_linker_0, # of connection points: 2
#     Edge 17, Type (0, 0), BuildingBlock: OJICUG_clean_linker_0, # of connection points: 2
#     Edge 18, Type (0, 0), BuildingBlock: OJICUG_clean_linker_0, # of connection points: 2
#     Edge 19, Type (0, 0), BuildingBlock: OJICUG_clean_linker_0, # of connection points: 2
#     Edge 20, Type (0, 0), BuildingBlock: OJICUG_clean_linker_0, # of connection points: 2
#     Edge 21, Type (0, 0), BuildingBlock: OJICUG_clean_linker_0, # of connection points: 2
#     Edge 22, Type (0, 0), BuildingBlock: OJICUG_clean_linker_0, # of connection points: 2
#     Edge 23, Type (0, 0), BuildingBlock: OJICUG_clean_linker_0, # of connection points: 2
# Relax obj value: 0.031
# Max RMSD: 0.050
# Mean RMSD: 0.050
data_MOF--net-mmt--node1-CEKHIL_clean_sbu_0--edge1-OJICUG_clean_linker_0
_symmetry_space_group_name_H-M    P1
_symmetry_Int_Tables_number       1
_symmetry_cell_setting            triclinic
loop_
_symmetry_equiv_pos_as_xyz
'x, y, z'
_cell_length_a     16.245527
_cell_length_b     26.419783
_cell_length_c     31.850463
_cell_angle_alpha  90.041634
_cell_angle_beta   89.974474
_cell_angle_gamma 90.029559
loop_
_atom_site_label
_atom_site_type_symbol
_atom_site_fract_x
_atom_site_fract_y
_atom_site_fract_z
_atom_type_partial_charge
Co0 Co 0.11368 0.58087 0.37507 0.0
O1 O 0.03596 0.58972 0.42065 0.0
O2 O 0.1138 0.5221 0.41144 0.0
C3 C 0.17231 0.65823 0.38022 0.0
O4 O 0.20277 0.558 0.33387 0.0
Co5 Co 0.11114 0.64752 0.29464 0.0
O6 O 0.21488 0.61233 0.27996 0.0
C7 C 0.99095 0.56397 0.30366 0.0
C8 C 0.05964 0.54572 0.43424 0.0
C9 C 0.23807 0.573 0.29979 0.0
O10 O 0.02572 0.5498 0.33811 0.0
O11 O 0.01225 0.60392 0.28364 0.0
O12 O 0.19418 0.62203 0.4054 0.0
O13 O 0.11165 0.64811 0.3554 0.0
Co14 Co 0.39181 0.93014 0.37498 0.0
O15 O 0.46963 0.92131 0.42047 0.0
O16 O 0.39184 0.98895 0.41138 0.0
C17 C 0.33312 0.85281 0.38013 0.0
O18 O 0.30266 0.95301 0.33386 0.0
Co19 Co 0.39427 0.86344 0.2945 0.0
O20 O 0.29057 0.89867 0.2799 0.0
C21 C 0.51453 0.94694 0.30351 0.0
C22 C 0.44606 0.96535 0.4341 0.0
C23 C 0.26738 0.93801 0.29978 0.0
O24 O 0.47973 0.96116 0.33797 0.0
O25 O 0.49324 0.90697 0.28348 0.0
O26 O 0.31134 0.88904 0.40536 0.0
O27 O 0.39376 0.86289 0.35527 0.0
Co28 Co 0.61378 0.43003 0.15302 0.0
O29 O 0.53607 0.42129 0.10744 0.0
O30 O 0.61405 0.48888 0.11673 0.0
C31 C 0.6723 0.35269 0.1478 0.0
O32 O 0.70286 0.45281 0.19424 0.0
Co33 Co 0.61088 0.36327 0.23339 0.0
O34 O 0.71456 0.39851 0.24818 0.0
C35 C 0.49087 0.44681 0.22442 0.0
C36 C 0.55983 0.46534 0.09392 0.0
C37 C 0.73796 0.43782 0.22835 0.0
O38 O 0.52584 0.46107 0.19002 0.0
O39 O 0.51196 0.40679 0.24438 0.0
O40 O 0.69423 0.38891 0.12264 0.0
O41 O 0.61159 0.36276 0.17262 0.0
Co42 Co 0.89205 0.08098 0.15308 0.0
O43 O 0.96985 0.08984 0.10754 0.0
O44 O 0.89202 0.02216 0.11669 0.0
C45 C 0.83337 0.15827 0.14793 0.0
O46 O 0.80289 0.05809 0.19423 0.0
Co47 Co 0.89459 0.1477 0.23353 0.0
O48 O 0.79085 0.11244 0.24819 0.0
C49 C 0.01473 0.06421 0.22452 0.0
C50 C 0.94622 0.0458 0.09392 0.0
C51 C 0.76761 0.0731 0.22832 0.0
O52 O 0.97995 0.04999 0.19006 0.0
O53 O 0.99349 0.10419 0.24455 0.0
O54 O 0.81159 0.12202 0.12273 0.0
O55 O 0.89402 0.14825 0.17277 0.0
Co56 Co 0.89224 0.4304 0.65326 0.0
O57 O 0.97002 0.4216 0.6077 0.0
O58 O 0.8921 0.48919 0.61691 0.0
C59 C 0.8337 0.35302 0.64806 0.0
O60 O 0.80308 0.45321 0.69445 0.0
Co61 Co 0.89482 0.36372 0.73367 0.0
O62 O 0.79109 0.39891 0.74839 0.0
C63 C 0.01493 0.4473 0.72469 0.0
C64 C 0.94631 0.4656 0.59412 0.0
C65 C 0.76783 0.43821 0.72854 0.0
O66 O 0.98013 0.46149 0.69025 0.0
O67 O 0.99371 0.40732 0.74469 0.0
O68 O 0.81182 0.38924 0.62289 0.0
O69 O 0.89433 0.36314 0.6729 0.0
Co70 Co 0.61451 0.08101 0.65288 0.0
O71 O 0.53674 0.0898 0.60736 0.0
O72 O 0.61463 0.0222 0.61648 0.0
C73 C 0.67311 0.15838 0.64776 0.0
O74 O 0.70363 0.05824 0.69403 0.0
Co75 Co 0.61159 0.1478 0.73333 0.0
O76 O 0.71502 0.1124 0.74817 0.0
C77 C 0.4913 0.06439 0.72414 0.0
C78 C 0.5604 0.04577 0.59374 0.0
C79 C 0.73855 0.07317 0.72824 0.0
O80 O 0.52658 0.04995 0.68987 0.0
O81 O 0.51222 0.10452 0.74406 0.0
O82 O 0.69498 0.12217 0.62253 0.0
O83 O 0.61242 0.14826 0.67258 0.0
Co84 Co 0.39218 0.58133 0.87527 0.0
O85 O 0.46993 0.59009 0.92083 0.0
O86 O 0.39185 0.52253 0.9116 0.0
C87 C 0.33379 0.65872 0.88044 0.0
O88 O 0.30304 0.55853 0.83409 0.0
Co89 Co 0.39499 0.648 0.79484 0.0
O90 O 0.29121 0.61282 0.78014 0.0
C91 C 0.51494 0.56441 0.80383 0.0
C92 C 0.44612 0.54607 0.93438 0.0
C93 C 0.26785 0.57352 0.8 0.0
O94 O 0.48006 0.55022 0.83827 0.0
O95 O 0.49381 0.60439 0.78383 0.0
O96 O 0.3118 0.62254 0.90564 0.0
O97 O 0.39444 0.64858 0.85561 0.0
Co98 Co 0.11409 0.93045 0.8749 0.0
O99 O 0.03637 0.92155 0.92047 0.0
O100 O 0.11401 0.98929 0.91126 0.0
C101 C 0.17292 0.8532 0.8801 0.0
O102 O 0.20311 0.9534 0.8337 0.0
Co103 Co 0.11185 0.86367 0.79449 0.0
O104 O 0.21586 0.89872 0.78001 0.0
C105 C 0.99162 0.94718 0.80337 0.0
C106 C 0.05991 0.96563 0.93406 0.0
C107 C 0.23873 0.93824 0.79974 0.0
O108 O 0.02607 0.96131 0.83794 0.0
O109 O 0.01316 0.90731 0.78328 0.0
O110 O 0.19468 0.8895 0.90526 0.0
O111 O 0.11225 0.86315 0.85525 0.0
C112 C 0.3436 0.55629 0.24358 0.0
C113 C 0.30472 0.54161 0.28121 0.0
H114 H 0.43194 0.53804 0.19598 0.0
C115 C 0.32736 0.49539 0.29968 0.0
H116 H 0.3277 0.59158 0.22833 0.0
C117 C 0.38687 0.46455 0.28095 0.0
C118 C 0.42553 0.47907 0.24323 0.0
H119 H 0.2986 0.48265 0.32848 0.0
H120 H 0.40251 0.42924 0.29623 0.0
C121 C 0.40322 0.52542 0.22483 0.0
C122 C 0.11853 0.04643 0.28108 0.0
C123 C 0.08002 0.03195 0.24331 0.0
H124 H 0.20664 0.0283 0.32863 0.0
C125 C 0.10244 0.98563 0.22484 0.0
H126 H 0.1028 0.08173 0.29642 0.0
C127 C 0.16201 0.95475 0.24356 0.0
C128 C 0.20074 0.96939 0.28124 0.0
H129 H 0.07384 0.97303 0.19595 0.0
H130 H 0.178 0.91948 0.22825 0.0
C131 C 0.178 0.01559 0.29978 0.0
C132 C 0.84278 0.45478 0.28482 0.0
C133 C 0.80467 0.46917 0.24694 0.0
H134 H 0.93055 0.47328 0.33261 0.0
C135 C 0.82815 0.51508 0.22818 0.0
H136 H 0.8262 0.41974 0.3003 0.0
C137 C 0.88771 0.54591 0.24688 0.0
C138 C 0.9256 0.5317 0.28486 0.0
H139 H 0.80003 0.52758 0.19916 0.0
H140 H 0.90403 0.58097 0.23136 0.0
C141 C 0.90246 0.48565 0.30355 0.0
C142 C 0.67776 0.99568 0.22817 0.0
C143 C 0.70089 0.04172 0.24686 0.0
H144 H 0.60212 0.92967 0.23139 0.0
C145 C 0.66241 0.05624 0.28465 0.0
H146 H 0.70618 0.98307 0.19923 0.0
C147 C 0.60271 0.02537 0.30334 0.0
C148 C 0.57991 0.97919 0.28473 0.0
H149 H 0.67871 0.09139 0.30007 0.0
H150 H 0.57433 0.03786 0.33233 0.0
C151 C 0.61816 0.96484 0.24684 0.0
C152 C 0.61834 0.54637 0.74708 0.0
C153 C 0.58025 0.53213 0.78503 0.0
H154 H 0.70618 0.52806 0.69941 0.0
C155 C 0.60315 0.48603 0.80367 0.0
H156 H 0.60222 0.58147 0.7316 0.0
C157 C 0.66281 0.45515 0.78496 0.0
C158 C 0.70113 0.46957 0.74711 0.0
H159 H 0.5749 0.47362 0.83271 0.0
H160 H 0.6792 0.42008 0.80041 0.0
C161 C 0.67789 0.51553 0.72839 0.0
C162 C 0.83024 0.99662 0.72742 0.0
C163 C 0.80528 0.04187 0.74679 0.0
H164 H 0.9074 0.93129 0.73002 0.0
C165 C 0.84197 0.05564 0.78522 0.0
H166 H 0.8033 0.98462 0.69794 0.0
C167 C 0.90169 0.02481 0.80387 0.0
C168 C 0.9263 0.9794 0.78456 0.0
H169 H 0.82419 0.09014 0.8012 0.0
H170 H 0.92859 0.03669 0.83339 0.0
C171 C 0.88987 0.96582 0.74604 0.0
C172 C 0.16255 0.55673 0.74373 0.0
C173 C 0.20113 0.54215 0.78144 0.0
H174 H 0.07442 0.53837 0.69607 0.0
C175 C 0.17815 0.49604 0.80001 0.0
H176 H 0.17872 0.59193 0.72839 0.0
C177 C 0.11861 0.46519 0.78131 0.0
C178 C 0.08026 0.47959 0.7435 0.0
H179 H 0.20666 0.48339 0.82889 0.0
H180 H 0.10271 0.42996 0.79667 0.0
C181 C 0.1029 0.52584 0.725 0.0
C182 C 0.32528 0.01703 0.79847 0.0
C183 C 0.30527 0.96968 0.78113 0.0
H184 H 0.3982 0.08408 0.79399 0.0
C185 C 0.34661 0.95388 0.7445 0.0
H186 H 0.29446 0.03069 0.82643 0.0
C187 C 0.40613 0.98473 0.72564 0.0
C188 C 0.42587 0.03218 0.74293 0.0
H189 H 0.33281 0.91767 0.73017 0.0
H190 H 0.43692 0.97119 0.69763 0.0
C191 C 0.38468 0.04785 0.77963 0.0
C192 C 0.05864 0.47803 0.48977 0.0
C193 C 0.02954 0.52478 0.47479 0.0
H194 H 0.05581 0.42292 0.53913 0.0
C195 C 0.97356 0.55218 0.4997 0.0
H196 H 0.10204 0.45601 0.47151 0.0
C197 C 0.94731 0.5333 0.5386 0.0
C198 C 0.97641 0.48655 0.55357 0.0
H199 H 0.95014 0.58841 0.48923 0.0
H200 H 0.90391 0.55531 0.55685 0.0
C201 C 0.03239 0.45915 0.52867 0.0
C202 C 0.53264 0.95903 0.49935 0.0
C203 C 0.47641 0.98636 0.47459 0.0
H204 H 0.60275 0.95604 0.55634 0.0
C205 C 0.44736 0.03311 0.48964 0.0
H206 H 0.55605 0.9228 0.48883 0.0
C207 C 0.47388 0.05208 0.52848 0.0
C208 C 0.5301 0.02475 0.55324 0.0
H209 H 0.40378 0.05507 0.4715 0.0
H210 H 0.45046 0.08831 0.539 0.0
C211 C 0.55917 0.978 0.53819 0.0
C212 C 0.5589 0.5332 0.03853 0.0
C213 C 0.52966 0.48643 0.05346 0.0
H214 H 0.55608 0.58847 0.98929 0.0
C215 C 0.47341 0.45918 0.0286 0.0
H216 H 0.6025 0.5551 0.05675 0.0
C217 C 0.44703 0.47823 0.98979 0.0
C218 C 0.47628 0.52499 0.97486 0.0
H219 H 0.44985 0.42295 0.03902 0.0
H220 H 0.40343 0.45632 0.97157 0.0
C221 C 0.53253 0.55224 0.99972 0.0
C222 C 0.97385 0.9591 0.99951 0.0
C223 C 0.02972 0.98658 0.9746 0.0
H224 H 0.9042 0.95592 0.05666 0.0
C225 C 0.05861 0.03342 0.98958 0.0
H226 H 0.95059 0.9228 0.98905 0.0
C227 C 0.03227 0.05232 0.02847 0.0
C228 C 0.97641 0.02484 0.05338 0.0
H229 H 0.10192 0.0555 0.97132 0.0
H230 H 0.05554 0.08863 0.03893 0.0
C231 C 0.94751 0.978 0.0384 0.0
C232 C 0.23433 0.73161 0.41805 0.0
C233 C 0.21392 0.7078 0.38003 0.0
H234 H 0.28574 0.79743 0.44772 0.0
C235 C 0.23256 0.73205 0.34199 0.0
H236 H 0.2201 0.71366 0.44775 0.0
C237 C 0.27268 0.77896 0.34197 0.0
C238 C 0.29153 0.80324 0.37999 0.0
H239 H 0.21745 0.71433 0.3123 0.0
H240 H 0.28762 0.79665 0.31226 0.0
C241 C 0.27135 0.77946 0.41803 0.0
C242 C 0.77148 0.23153 0.11003 0.0
C243 C 0.79175 0.20782 0.14807 0.0
H244 H 0.72009 0.29723 0.08028 0.0
C245 C 0.77289 0.23211 0.18609 0.0
H246 H 0.78587 0.21354 0.08034 0.0
C247 C 0.73268 0.27897 0.18605 0.0
C248 C 0.71396 0.30315 0.148 0.0
H249 H 0.78788 0.21447 0.21579 0.0
H250 H 0.71757 0.2967 0.21574 0.0
C251 C 0.73438 0.27933 0.11 0.0
C252 C 0.73496 0.23181 0.61001 0.0
C253 C 0.71471 0.20795 0.648 0.0
H254 H 0.7862 0.2977 0.58042 0.0
C255 C 0.73346 0.23214 0.68607 0.0
H256 H 0.72065 0.2139 0.58029 0.0
C257 C 0.77352 0.27908 0.68615 0.0
C258 C 0.79221 0.30342 0.64815 0.0
H259 H 0.71846 0.21438 0.71574 0.0
H260 H 0.78853 0.29674 0.71587 0.0
C261 C 0.77193 0.27968 0.61009 0.0
C262 C 0.2733 0.73234 0.84212 0.0
C263 C 0.29221 0.70828 0.8802 0.0
H264 H 0.21801 0.79676 0.81231 0.0
C265 C 0.27206 0.73225 0.91818 0.0
H266 H 0.28821 0.7145 0.81245 0.0
C267 C 0.23502 0.78007 0.91809 0.0
C268 C 0.21455 0.80366 0.88002 0.0
H269 H 0.2865 0.71445 0.94791 0.0
H270 H 0.22083 0.79817 0.94775 0.0
C271 C 0.23316 0.77922 0.84203 0.0
loop_
_geom_bond_atom_site_label_1
_geom_bond_atom_site_label_2
_geom_bond_distance
_geom_bond_site_symmetry_2
_ccdc_geom_bond_type
Co0 O1 2.216 . S
Co0 O2 2.091 . S
Co0 O4 2.004 . S
Co0 O10 2.021 . S
Co0 O12 2.137 . S
Co0 O13 2.244 . S
O1 Co0 2.216 . S
O1 C8 1.247 . S
O2 Co0 2.091 . S
O2 C8 1.261 . S
C3 O12 1.247 . S
C3 O13 1.272 . S
O4 Co0 2.004 . S
O4 C9 1.259 . S
Co5 O6 2.061 . S
Co5 O11 2.052 . S
Co5 O13 2.135 . S
O6 Co5 2.061 . S
O6 C9 1.235 . S
C7 O10 1.238 . S
C7 O11 1.241 . S
C8 O1 1.247 . S
C8 O2 1.261 . S
C9 O4 1.259 . S
C9 O6 1.235 . S
O10 Co0 2.021 . S
O10 C7 1.238 . S
O11 Co5 2.052 . S
O11 C7 1.241 . S
O12 Co0 2.137 . S
O12 C3 1.247 . S
O13 Co0 2.244 . S
O13 C3 1.272 . S
O13 Co5 2.135 . S
Co14 O15 2.216 . S
Co14 O16 2.091 . S
Co14 O18 2.004 . S
Co14 O24 2.021 . S
Co14 O26 2.137 . S
Co14 O27 2.244 . S
O15 Co14 2.216 . S
O15 C22 1.247 . S
O16 Co14 2.091 . S
O16 C22 1.261 . S
C17 O26 1.247 . S
C17 O27 1.272 . S
O18 Co14 2.004 . S
O18 C23 1.259 . S
Co19 O20 2.061 . S
Co19 O25 2.052 . S
Co19 O27 2.135 . S
O20 Co19 2.061 . S
O20 C23 1.235 . S
C21 O24 1.238 . S
C21 O25 1.241 . S
C22 O15 1.247 . S
C22 O16 1.261 . S
C23 O18 1.259 . S
C23 O20 1.235 . S
O24 Co14 2.021 . S
O24 C21 1.238 . S
O25 Co19 2.052 . S
O25 C21 1.241 . S
O26 Co14 2.137 . S
O26 C17 1.247 . S
O27 Co14 2.244 . S
O27 C17 1.272 . S
O27 Co19 2.135 . S
Co28 O29 2.216 . S
Co28 O30 2.091 . S
Co28 O32 2.004 . S
Co28 O38 2.021 . S
Co28 O40 2.137 . S
Co28 O41 2.244 . S
O29 Co28 2.216 . S
O29 C36 1.247 . S
O30 Co28 2.091 . S
O30 C36 1.261 . S
C31 O40 1.247 . S
C31 O41 1.272 . S
O32 Co28 2.004 . S
O32 C37 1.259 . S
Co33 O34 2.061 . S
Co33 O39 2.052 . S
Co33 O41 2.135 . S
O34 Co33 2.061 . S
O34 C37 1.235 . S
C35 O38 1.238 . S
C35 O39 1.241 . S
C36 O29 1.247 . S
C36 O30 1.261 . S
C37 O32 1.259 . S
C37 O34 1.235 . S
O38 Co28 2.021 . S
O38 C35 1.238 . S
O39 Co33 2.052 . S
O39 C35 1.241 . S
O40 Co28 2.137 . S
O40 C31 1.247 . S
O41 Co28 2.244 . S
O41 C31 1.272 . S
O41 Co33 2.135 . S
Co42 O43 2.216 . S
Co42 O44 2.091 . S
Co42 O46 2.004 . S
Co42 O52 2.021 . S
Co42 O54 2.137 . S
Co42 O55 2.244 . S
O43 Co42 2.216 . S
O43 C50 1.247 . S
O44 Co42 2.091 . S
O44 C50 1.261 . S
C45 O54 1.247 . S
C45 O55 1.272 . S
O46 Co42 2.004 . S
O46 C51 1.259 . S
Co47 O48 2.061 . S
Co47 O53 2.052 . S
Co47 O55 2.135 . S
O48 Co47 2.061 . S
O48 C51 1.235 . S
C49 O52 1.238 . S
C49 O53 1.241 . S
C50 O43 1.247 . S
C50 O44 1.261 . S
C51 O46 1.259 . S
C51 O48 1.235 . S
O52 Co42 2.021 . S
O52 C49 1.238 . S
O53 Co47 2.052 . S
O53 C49 1.241 . S
O54 Co42 2.137 . S
O54 C45 1.247 . S
O55 Co42 2.244 . S
O55 C45 1.272 . S
O55 Co47 2.135 . S
Co56 O57 2.216 . S
Co56 O58 2.091 . S
Co56 O60 2.004 . S
Co56 O66 2.021 . S
Co56 O68 2.137 . S
Co56 O69 2.244 . S
O57 Co56 2.216 . S
O57 C64 1.247 . S
O58 Co56 2.091 . S
O58 C64 1.261 . S
C59 O68 1.247 . S
C59 O69 1.272 . S
O60 Co56 2.004 . S
O60 C65 1.259 . S
Co61 O62 2.061 . S
Co61 O67 2.052 . S
Co61 O69 2.135 . S
O62 Co61 2.061 . S
O62 C65 1.235 . S
C63 O66 1.238 . S
C63 O67 1.241 . S
C64 O57 1.247 . S
C64 O58 1.261 . S
C65 O60 1.259 . S
C65 O62 1.235 . S
O66 Co56 2.021 . S
O66 C63 1.238 . S
O67 Co61 2.052 . S
O67 C63 1.241 . S
O68 Co56 2.137 . S
O68 C59 1.247 . S
O69 Co56 2.244 . S
O69 C59 1.272 . S
O69 Co61 2.135 . S
Co70 O71 2.216 . S
Co70 O72 2.091 . S
Co70 O74 2.004 . S
Co70 O80 2.021 . S
Co70 O82 2.137 . S
Co70 O83 2.244 . S
O71 Co70 2.216 . S
O71 C78 1.247 . S
O72 Co70 2.091 . S
O72 C78 1.261 . S
C73 O82 1.247 . S
C73 O83 1.272 . S
O74 Co70 2.004 . S
O74 C79 1.259 . S
Co75 O76 2.061 . S
Co75 O81 2.052 . S
Co75 O83 2.135 . S
O76 Co75 2.061 . S
O76 C79 1.235 . S
C77 O80 1.238 . S
C77 O81 1.241 . S
C78 O71 1.247 . S
C78 O72 1.261 . S
C79 O74 1.259 . S
C79 O76 1.235 . S
O80 Co70 2.021 . S
O80 C77 1.238 . S
O81 Co75 2.052 . S
O81 C77 1.241 . S
O82 Co70 2.137 . S
O82 C73 1.247 . S
O83 Co70 2.244 . S
O83 C73 1.272 . S
O83 Co75 2.135 . S
Co84 O85 2.216 . S
Co84 O86 2.091 . S
Co84 O88 2.004 . S
Co84 O94 2.021 . S
Co84 O96 2.137 . S
Co84 O97 2.244 . S
O85 Co84 2.216 . S
O85 C92 1.247 . S
O86 Co84 2.091 . S
O86 C92 1.261 . S
C87 O96 1.247 . S
C87 O97 1.272 . S
O88 Co84 2.004 . S
O88 C93 1.259 . S
Co89 O90 2.061 . S
Co89 O95 2.052 . S
Co89 O97 2.135 . S
O90 Co89 2.061 . S
O90 C93 1.235 . S
C91 O94 1.238 . S
C91 O95 1.241 . S
C92 O85 1.247 . S
C92 O86 1.261 . S
C93 O88 1.259 . S
C93 O90 1.235 . S
O94 Co84 2.021 . S
O94 C91 1.238 . S
O95 Co89 2.052 . S
O95 C91 1.241 . S
O96 Co84 2.137 . S
O96 C87 1.247 . S
O97 Co84 2.244 . S
O97 C87 1.272 . S
O97 Co89 2.135 . S
Co98 O99 2.216 . S
Co98 O100 2.091 . S
Co98 O102 2.004 . S
Co98 O108 2.021 . S
Co98 O110 2.137 . S
Co98 O111 2.244 . S
O99 Co98 2.216 . S
O99 C106 1.247 . S
O100 Co98 2.091 . S
O100 C106 1.261 . S
C101 O110 1.247 . S
C101 O111 1.272 . S
O102 Co98 2.004 . S
O102 C107 1.259 . S
Co103 O104 2.061 . S
Co103 O109 2.052 . S
Co103 O111 2.135 . S
O104 Co103 2.061 . S
O104 C107 1.235 . S
C105 O108 1.238 . S
C105 O109 1.241 . S
C106 O99 1.247 . S
C106 O100 1.261 . S
C107 O102 1.259 . S
C107 O104 1.235 . S
O108 Co98 2.021 . S
O108 C105 1.238 . S
O109 Co103 2.052 . S
O109 C105 1.241 . S
O110 Co98 2.137 . S
O110 C101 1.247 . S
O111 Co98 2.244 . S
O111 C101 1.272 . S
O111 Co103 2.135 . S
C112 C113 1.387 . S
C112 H116 0.950 . S
C112 C121 1.390 . S
C113 C112 1.387 . S
C113 C115 1.387 . S
H114 C121 0.950 . S
C115 C113 1.387 . S
C115 C117 1.390 . S
C115 H119 0.950 . S
H116 C112 0.950 . S
C117 C115 1.390 . S
C117 C118 1.387 . S
C117 H120 0.950 . S
C118 C117 1.387 . S
C118 C121 1.387 . S
H119 C115 0.950 . S
H120 C117 0.950 . S
C121 C112 1.390 . S
C121 H114 0.950 . S
C121 C118 1.387 . S
C122 C123 1.387 . S
C122 H126 0.950 . S
C122 C131 1.390 . S
C123 C122 1.387 . S
C123 C125 1.387 1_545 S
H124 C131 0.950 . S
C125 C123 1.387 1_565 S
C125 C127 1.390 . S
C125 H129 0.950 . S
H126 C122 0.950 . S
C127 C125 1.390 . S
C127 C128 1.387 . S
C127 H130 0.950 . S
C128 C127 1.387 . S
C128 C131 1.387 1_565 S
H129 C125 0.950 . S
H130 C127 0.950 . S
C131 C122 1.390 . S
C131 H124 0.950 . S
C131 C128 1.387 1_545 S
C132 C133 1.387 . S
C132 H136 0.950 . S
C132 C141 1.390 . S
C133 C132 1.387 . S
C133 C135 1.387 . S
H134 C141 0.950 . S
C135 C133 1.387 . S
C135 C137 1.390 . S
C135 H139 0.950 . S
H136 C132 0.950 . S
C137 C135 1.390 . S
C137 C138 1.387 . S
C137 H140 0.950 . S
C138 C137 1.387 . S
C138 C141 1.387 . S
H139 C135 0.950 . S
H140 C137 0.950 . S
C141 C132 1.390 . S
C141 H134 0.950 . S
C141 C138 1.387 . S
C142 C143 1.387 1_565 S
C142 H146 0.950 . S
C142 C151 1.390 . S
C143 C142 1.387 1_545 S
C143 C145 1.387 . S
H144 C151 0.950 . S
C145 C143 1.387 . S
C145 C147 1.390 . S
C145 H149 0.950 . S
H146 C142 0.950 . S
C147 C145 1.390 . S
C147 C148 1.387 1_545 S
C147 H150 0.950 . S
C148 C147 1.387 1_565 S
C148 C151 1.387 . S
H149 C145 0.950 . S
H150 C147 0.950 . S
C151 C142 1.390 . S
C151 H144 0.950 . S
C151 C148 1.387 . S
C152 C153 1.387 . S
C152 H156 0.950 . S
C152 C161 1.390 . S
C153 C152 1.387 . S
C153 C155 1.387 . S
H154 C161 0.950 . S
C155 C153 1.387 . S
C155 C157 1.390 . S
C155 H159 0.950 . S
H156 C152 0.950 . S
C157 C155 1.390 . S
C157 C158 1.387 . S
C157 H160 0.950 . S
C158 C157 1.387 . S
C158 C161 1.387 . S
H159 C155 0.950 . S
H160 C157 0.950 . S
C161 C152 1.390 . S
C161 H154 0.950 . S
C161 C158 1.387 . S
C162 C163 1.387 1_565 S
C162 H166 0.950 . S
C162 C171 1.390 . S
C163 C162 1.387 1_545 S
C163 C165 1.387 . S
H164 C171 0.950 . S
C165 C163 1.387 . S
C165 C167 1.390 . S
C165 H169 0.950 . S
H166 C162 0.950 . S
C167 C165 1.390 . S
C167 C168 1.387 1_545 S
C167 H170 0.950 . S
C168 C167 1.387 1_565 S
C168 C171 1.387 . S
H169 C165 0.950 . S
H170 C167 0.950 . S
C171 C162 1.390 . S
C171 H164 0.950 . S
C171 C168 1.387 . S
C172 C173 1.387 . S
C172 H176 0.950 . S
C172 C181 1.390 . S
C173 C172 1.387 . S
C173 C175 1.387 . S
H174 C181 0.950 . S
C175 C173 1.387 . S
C175 C177 1.390 . S
C175 H179 0.950 . S
H176 C172 0.950 . S
C177 C175 1.390 . S
C177 C178 1.387 . S
C177 H180 0.950 . S
C178 C177 1.387 . S
C178 C181 1.387 . S
H179 C175 0.950 . S
H180 C177 0.950 . S
C181 C172 1.390 . S
C181 H174 0.950 . S
C181 C178 1.387 . S
C182 C183 1.387 1_545 S
C182 H186 0.950 . S
C182 C191 1.390 . S
C183 C182 1.387 1_565 S
C183 C185 1.387 . S
H184 C191 0.950 . S
C185 C183 1.387 . S
C185 C187 1.390 . S
C185 H189 0.950 . S
H186 C182 0.950 . S
C187 C185 1.390 . S
C187 C188 1.387 1_565 S
C187 H190 0.950 . S
C188 C187 1.387 1_545 S
C188 C191 1.387 . S
H189 C185 0.950 . S
H190 C187 0.950 . S
C191 C182 1.390 . S
C191 H184 0.950 . S
C191 C188 1.387 . S
C192 C193 1.387 1_655 S
C192 H196 0.950 . S
C192 C201 1.390 . S
C193 C192 1.387 1_455 S
C193 C195 1.387 . S
H194 C201 0.950 . S
C195 C193 1.387 . S
C195 C197 1.390 . S
C195 H199 0.950 . S
H196 C192 0.950 . S
C197 C195 1.390 . S
C197 C198 1.387 1_455 S
C197 H200 0.950 . S
C198 C197 1.387 1_655 S
C198 C201 1.387 . S
H199 C195 0.950 . S
H200 C197 0.950 . S
C201 C192 1.390 . S
C201 H194 0.950 . S
C201 C198 1.387 . S
C202 C203 1.387 . S
C202 H206 0.950 . S
C202 C211 1.390 . S
C203 C202 1.387 . S
C203 C205 1.387 1_565 S
H204 C211 0.950 . S
C205 C203 1.387 1_545 S
C205 C207 1.390 . S
C205 H209 0.950 . S
H206 C202 0.950 . S
C207 C205 1.390 . S
C207 C208 1.387 . S
C207 H210 0.950 . S
C208 C207 1.387 . S
C208 C211 1.387 1_545 S
H209 C205 0.950 . S
H210 C207 0.950 . S
C211 C202 1.390 . S
C211 H204 0.950 . S
C211 C208 1.387 1_565 S
C212 C213 1.387 . S
C212 H216 0.950 . S
C212 C221 1.390 1_554 S
C213 C212 1.387 . S
C213 C215 1.387 . S
H214 C221 0.950 . S
C215 C213 1.387 . S
C215 C217 1.390 1_554 S
C215 H219 0.950 . S
H216 C212 0.950 . S
C217 C215 1.390 1_556 S
C217 C218 1.387 . S
C217 H220 0.950 . S
C218 C217 1.387 . S
C218 C221 1.387 . S
H219 C215 0.950 . S
H220 C217 0.950 . S
C221 C212 1.390 1_556 S
C221 H214 0.950 . S
C221 C218 1.387 . S
C222 C223 1.387 1_554 S
C222 H226 0.950 . S
C222 C231 1.390 . S
C223 C222 1.387 1_556 S
C223 C225 1.387 1_465 S
H224 C231 0.950 . S
C225 C223 1.387 1_645 S
C225 C227 1.390 . S
C225 H229 0.950 . S
H226 C222 0.950 . S
C227 C225 1.390 . S
C227 C228 1.387 1_556 S
C227 H230 0.950 . S
C228 C227 1.387 1_554 S
C228 C231 1.387 1_645 S
H229 C225 0.950 . S
H230 C227 0.950 . S
C231 C222 1.390 . S
C231 H224 0.950 . S
C231 C228 1.387 1_465 S
C232 C233 1.387 . S
C232 H236 0.950 . S
C232 C241 1.390 . S
C233 C232 1.387 . S
C233 C235 1.387 . S
H234 C241 0.950 . S
C235 C233 1.387 . S
C235 C237 1.390 . S
C235 H239 0.950 . S
H236 C232 0.950 . S
C237 C235 1.390 . S
C237 C238 1.387 . S
C237 H240 0.950 . S
C238 C237 1.387 . S
C238 C241 1.387 . S
H239 C235 0.950 . S
H240 C237 0.950 . S
C241 C232 1.390 . S
C241 H234 0.950 . S
C241 C238 1.387 . S
C242 C243 1.387 . S
C242 H246 0.950 . S
C242 C251 1.390 . S
C243 C242 1.387 . S
C243 C245 1.387 . S
H244 C251 0.950 . S
C245 C243 1.387 . S
C245 C247 1.390 . S
C245 H249 0.950 . S
H246 C242 0.950 . S
C247 C245 1.390 . S
C247 C248 1.387 . S
C247 H250 0.950 . S
C248 C247 1.387 . S
C248 C251 1.387 . S
H249 C245 0.950 . S
H250 C247 0.950 . S
C251 C242 1.390 . S
C251 H244 0.950 . S
C251 C248 1.387 . S
C252 C253 1.387 . S
C252 H256 0.950 . S
C252 C261 1.390 . S
C253 C252 1.387 . S
C253 C255 1.387 . S
H254 C261 0.950 . S
C255 C253 1.387 . S
C255 C257 1.390 . S
C255 H259 0.950 . S
H256 C252 0.950 . S
C257 C255 1.390 . S
C257 C258 1.387 . S
C257 H260 0.950 . S
C258 C257 1.387 . S
C258 C261 1.387 . S
H259 C255 0.950 . S
H260 C257 0.950 . S
C261 C252 1.390 . S
C261 H254 0.950 . S
C261 C258 1.387 . S
C262 C263 1.387 . S
C262 H266 0.950 . S
C262 C271 1.390 . S
C263 C262 1.387 . S
C263 C265 1.387 . S
H264 C271 0.950 . S
C265 C263 1.387 . S
C265 C267 1.390 . S
C265 H269 0.950 . S
H266 C262 0.950 . S
C267 C265 1.390 . S
C267 C268 1.387 . S
C267 H270 0.950 . S
C268 C267 1.387 . S
C268 C271 1.387 . S
H269 C265 0.950 . S
H270 C267 0.950 . S
C271 C262 1.390 . S
C271 H264 0.950 . S
C271 C268 1.387 . S
C113 C9 1.417 . S
C118 C35 1.403 . S
C123 C49 1.405 1_455 S
C128 C23 1.419 . S
C133 C37 1.418 . S
C138 C7 1.403 1_655 S
C143 C51 1.419 . S
C148 C21 1.405 . S
C153 C91 1.403 . S
C158 C65 1.418 . S
C163 C79 1.419 . S
C168 C105 1.404 1_655 S
C173 C93 1.419 . S
C178 C63 1.405 1_455 S
C183 C107 1.417 . S
C188 C77 1.402 . S
C193 C8 1.525 . S
C198 C64 1.525 . S
C203 C22 1.525 . S
C208 C78 1.525 . S
C213 C36 1.524 . S
C218 C92 1.524 . S
C223 C106 1.525 . S
C228 C50 1.525 . S
C233 C3 1.527 . S
C238 C17 1.527 . S
C243 C45 1.527 . S
C248 C31 1.527 . S
C253 C73 1.526 . S
C258 C59 1.526 . S
C263 C87 1.527 . S
C268 C101 1.527 . S
