# Generated by pormake.
# Topology sra, (4)-cn, num edge types: 1
# Building blocks:
#     Node 0, Type 0, BuildingBlock: GALJAG_clean_sbu_0, # of connection points: 4
#     Node 1, Type 0, BuildingBlock: GALJAG_clean_sbu_0, # of connection points: 4
#     Node 2, Type 0, BuildingBlock: GALJAG_clean_sbu_0, # of connection points: 4
#     Node 3, Type 0, BuildingBlock: GALJAG_clean_sbu_0, # of connection points: 4
#     Node 4, Type 0, BuildingBlock: GALJAG_clean_sbu_0, # of connection points: 4
#     Node 5, Type 0, BuildingBlock: GALJAG_clean_sbu_0, # of connection points: 4
#     Node 6, Type 0, BuildingBlock: GALJAG_clean_sbu_0, # of connection points: 4
#     Node 7, Type 0, BuildingBlock: GALJAG_clean_sbu_0, # of connection points: 4
#     Edge 8, Type (0, 0), BuildingBlock: KIFKEQ_clean_linker_1, # of connection points: 2
#     Edge 9, Type (0, 0), BuildingBlock: KIFKEQ_clean_linker_1, # of connection points: 2
#     Edge 10, Type (0, 0), BuildingBlock: KIFKEQ_clean_linker_1, # of connection points: 2
#     Edge 11, Type (0, 0), BuildingBlock: KIFKEQ_clean_linker_1, # of connection points: 2
#     Edge 12, Type (0, 0), BuildingBlock: KIFKEQ_clean_linker_1, # of connection points: 2
#     Edge 13, Type (0, 0), BuildingBlock: KIFKEQ_clean_linker_1, # of connection points: 2
#     Edge 14, Type (0, 0), BuildingBlock: KIFKEQ_clean_linker_1, # of connection points: 2
#     Edge 15, Type (0, 0), BuildingBlock: KIFKEQ_clean_linker_1, # of connection points: 2
#     Edge 16, Type (0, 0), BuildingBlock: KIFKEQ_clean_linker_1, # of connection points: 2
#     Edge 17, Type (0, 0), BuildingBlock: KIFKEQ_clean_linker_1, # of connection points: 2
#     Edge 18, Type (0, 0), BuildingBlock: KIFKEQ_clean_linker_1, # of connection points: 2
#     Edge 19, Type (0, 0), BuildingBlock: KIFKEQ_clean_linker_1, # of connection points: 2
#     Edge 20, Type (0, 0), BuildingBlock: KIFKEQ_clean_linker_1, # of connection points: 2
#     Edge 21, Type (0, 0), BuildingBlock: KIFKEQ_clean_linker_1, # of connection points: 2
#     Edge 22, Type (0, 0), BuildingBlock: KIFKEQ_clean_linker_1, # of connection points: 2
#     Edge 23, Type (0, 0), BuildingBlock: KIFKEQ_clean_linker_1, # of connection points: 2
# Relax obj value: 0.075
# Max RMSD: 0.110
# Mean RMSD: 0.110
data_MOF--net-sra--node1-GALJAG_clean_sbu_0--edge1-KIFKEQ_clean_linker_1
_symmetry_space_group_name_H-M    P1
_symmetry_Int_Tables_number       1
_symmetry_cell_setting            triclinic
loop_
_symmetry_equiv_pos_as_xyz
'x, y, z'
_cell_length_a     28.719142
_cell_length_b     54.823851
_cell_length_c     30.720262
_cell_angle_alpha  89.956726
_cell_angle_beta   89.653661
_cell_angle_gamma 89.788673
loop_
_atom_site_label
_atom_site_type_symbol
_atom_site_fract_x
_atom_site_fract_y
_atom_site_fract_z
_atom_type_partial_charge
In0 In 0.04704 0.10458 0.12798 0.0
O1 O 0.05129 0.0891 0.05904 0.0
O2 O 0.03827 0.06466 0.11169 0.0
C3 C 0.05081 0.15328 0.11811 0.0
C4 C 0.96078 0.10161 0.1625 0.0
C5 C 0.133 0.09674 0.15978 0.0
O6 O 0.04326 0.13923 0.08627 0.0
O7 O 0.05636 0.14268 0.15419 0.0
O8 O 0.09681 0.09403 0.18301 0.0
O9 O 0.12545 0.10311 0.12098 0.0
C10 C 0.04407 0.06738 0.07124 0.0
O11 O 0.99665 0.09592 0.18408 0.0
O12 O 0.96878 0.10873 0.12413 0.0
In13 In 0.03819 0.38566 0.12729 0.0
O14 O 0.03461 0.40103 0.05819 0.0
O15 O 0.04421 0.42571 0.11095 0.0
C16 C 0.03784 0.33688 0.11821 0.0
C17 C 0.12389 0.39025 0.16132 0.0
C18 C 0.95152 0.39215 0.15928 0.0
O19 O 0.04333 0.35094 0.0859 0.0
O20 O 0.03254 0.34751 0.15433 0.0
O21 O 0.98733 0.3957 0.18224 0.0
O22 O 0.95976 0.38556 0.12065 0.0
C23 C 0.03983 0.42288 0.07044 0.0
O24 O 0.0875 0.3952 0.1831 0.0
O25 O 0.11668 0.38305 0.12296 0.0
In26 In 0.04268 0.88564 0.81199 0.0
O27 O 0.99386 0.89192 0.75429 0.0
O28 O 0.9643 0.88883 0.81784 0.0
C29 C 0.12954 0.89152 0.78034 0.0
C30 C 0.04335 0.92311 0.86798 0.0
C31 C 0.04044 0.83687 0.82207 0.0
O32 O 0.09386 0.89633 0.75784 0.0
O33 O 0.12108 0.88394 0.81835 0.0
O34 O 0.03575 0.85114 0.85416 0.0
O35 O 0.04605 0.84728 0.78583 0.0
C36 C 0.95745 0.89195 0.77771 0.0
O37 O 0.04648 0.9012 0.88076 0.0
O38 O 0.04006 0.92587 0.82732 0.0
In39 In 0.03213 0.60481 0.81104 0.0
O40 O 0.02859 0.58897 0.87976 0.0
O41 O 0.04132 0.56478 0.8267 0.0
C42 C 0.02708 0.65343 0.82187 0.0
C43 C 0.11848 0.60235 0.7764 0.0
C44 C 0.94633 0.59701 0.77911 0.0
O45 O 0.03511 0.6392 0.85342 0.0
O46 O 0.02174 0.64306 0.7856 0.0
O47 O 0.9826 0.59429 0.75594 0.0
O48 O 0.95372 0.60337 0.81791 0.0
C49 C 0.03587 0.56731 0.86722 0.0
O50 O 0.08272 0.59683 0.75466 0.0
O51 O 0.11032 0.60905 0.81498 0.0
In52 In 0.5346 0.60626 0.62667 0.0
O53 O 0.48297 0.59774 0.68159 0.0
O54 O 0.45624 0.60894 0.62011 0.0
C55 C 0.62018 0.59925 0.66027 0.0
C56 C 0.53292 0.56894 0.57016 0.0
C57 C 0.53654 0.655 0.6172 0.0
O58 O 0.58358 0.59543 0.68237 0.0
O59 O 0.61323 0.60644 0.62186 0.0
O60 O 0.53793 0.64084 0.58471 0.0
O61 O 0.53414 0.6445 0.65371 0.0
C62 C 0.44749 0.60244 0.65873 0.0
O63 O 0.53765 0.59079 0.55766 0.0
O64 O 0.52894 0.56615 0.61077 0.0
In65 In 0.5445 0.88684 0.62884 0.0
O66 O 0.59366 0.89262 0.68609 0.0
O67 O 0.6225 0.89177 0.62194 0.0
C68 C 0.45804 0.89087 0.66301 0.0
C69 C 0.54259 0.92458 0.57325 0.0
C70 C 0.55123 0.83833 0.61652 0.0
O71 O 0.49381 0.89702 0.6841 0.0
O72 O 0.4662 0.88273 0.62538 0.0
O73 O 0.54367 0.85278 0.58522 0.0
O74 O 0.55531 0.84841 0.65316 0.0
C75 C 0.6297 0.89385 0.66227 0.0
O76 O 0.54277 0.90269 0.56017 0.0
O77 O 0.54322 0.92722 0.61406 0.0
In78 In 0.53698 0.38692 0.3113 0.0
O79 O 0.48648 0.39634 0.25647 0.0
O80 O 0.45856 0.38605 0.31829 0.0
C81 C 0.62328 0.39195 0.27746 0.0
C82 C 0.536 0.42442 0.36745 0.0
C83 C 0.5348 0.33819 0.32066 0.0
O84 O 0.58718 0.39657 0.25547 0.0
O85 O 0.61549 0.38492 0.31589 0.0
O86 O 0.53929 0.35223 0.35304 0.0
O87 O 0.53169 0.3488 0.28433 0.0
C88 C 0.45055 0.3925 0.27957 0.0
O89 O 0.53877 0.40252 0.38024 0.0
O90 O 0.53384 0.42717 0.32674 0.0
In91 In 0.54483 0.10567 0.31188 0.0
O92 O 0.59644 0.09671 0.25712 0.0
O93 O 0.62319 0.10736 0.31884 0.0
C94 C 0.45928 0.09921 0.2781 0.0
C95 C 0.54569 0.06865 0.36914 0.0
C96 C 0.54472 0.15447 0.32047 0.0
O97 O 0.49589 0.09472 0.25637 0.0
O98 O 0.46621 0.10686 0.31618 0.0
O99 O 0.54205 0.14048 0.35317 0.0
O100 O 0.54726 0.14377 0.28417 0.0
C101 C 0.63194 0.10093 0.28017 0.0
O102 O 0.5408 0.09058 0.38118 0.0
O103 O 0.55024 0.06563 0.32864 0.0
H104 H 0.0158 0.30449 0.18163 0.0
H105 H 0.06114 0.30863 0.04752 0.0
H106 H 0.01944 0.26031 0.1786 0.0
H107 H 0.06617 0.264 0.04476 0.0
H108 H 0.02368 0.18177 0.0492 0.0
H109 H 0.02019 0.22643 0.04665 0.0
H110 H 0.07848 0.22958 0.17591 0.0
H111 H 0.08052 0.18534 0.17887 0.0
C112 C 0.02672 0.29592 0.15147 0.0
C113 C 0.03848 0.31001 0.11489 0.0
C114 C 0.02912 0.27056 0.14981 0.0
C115 C 0.04379 0.25859 0.11164 0.0
C116 C 0.05456 0.27266 0.0746 0.0
C117 C 0.05186 0.29818 0.07621 0.0
C118 C 0.03593 0.19211 0.07688 0.0
C119 C 0.05187 0.18012 0.11441 0.0
C120 C 0.03411 0.21764 0.07538 0.0
C121 C 0.04843 0.23157 0.11133 0.0
C122 C 0.06604 0.21944 0.14808 0.0
C123 C 0.06749 0.19405 0.14969 0.0
H124 H 0.01714 0.8089 0.89324 0.0
H125 H 0.06093 0.80422 0.75873 0.0
H126 H 0.01143 0.76428 0.8963 0.0
H127 H 0.05656 0.76012 0.76204 0.0
H128 H 0.99534 0.68571 0.76217 0.0
H129 H 0.99678 0.72993 0.76557 0.0
H130 H 0.0575 0.72628 0.89381 0.0
H131 H 0.05463 0.68162 0.89084 0.0
C132 C 0.02587 0.79834 0.86452 0.0
C133 C 0.03904 0.81002 0.82564 0.0
C134 C 0.02278 0.77283 0.8663 0.0
C135 C 0.03291 0.75865 0.82923 0.0
C136 C 0.04733 0.77046 0.79086 0.0
C137 C 0.05014 0.79579 0.78905 0.0
C138 C 0.00874 0.69431 0.79124 0.0
C139 C 0.02531 0.68023 0.82606 0.0
C140 C 0.00983 0.71968 0.7931 0.0
C141 C 0.02804 0.73167 0.82964 0.0
C142 C 0.04313 0.71761 0.86525 0.0
C143 C 0.04167 0.69207 0.86351 0.0
H144 H 0.55515 0.68282 0.54478 0.0
H145 H 0.52148 0.68777 0.68171 0.0
H146 H 0.56168 0.72737 0.54121 0.0
H147 H 0.52646 0.73185 0.67798 0.0
H148 H 0.58707 0.80614 0.67416 0.0
H149 H 0.58551 0.76192 0.6709 0.0
H150 H 0.51749 0.76553 0.5459 0.0
H151 H 0.52069 0.8102 0.54861 0.0
C152 C 0.54878 0.69344 0.57395 0.0
C153 C 0.53823 0.68184 0.6136 0.0
C154 C 0.55234 0.71891 0.5719 0.0
C155 C 0.54525 0.73317 0.60945 0.0
C156 C 0.5334 0.72145 0.64868 0.0
C157 C 0.5302 0.69614 0.65077 0.0
C158 C 0.57211 0.79752 0.64579 0.0
C159 C 0.55355 0.81157 0.61184 0.0
C160 C 0.57092 0.77215 0.64403 0.0
C161 C 0.5505 0.76015 0.60855 0.0
C162 C 0.53356 0.7742 0.57365 0.0
C163 C 0.53524 0.79975 0.57522 0.0
H164 H 0.56066 0.30954 0.3898 0.0
H165 H 0.50629 0.30632 0.2592 0.0
H166 H 0.56375 0.26488 0.39217 0.0
H167 H 0.50754 0.2621 0.26203 0.0
H168 H 0.56655 0.18662 0.25666 0.0
H169 H 0.56423 0.23081 0.25959 0.0
H170 H 0.51875 0.22755 0.39389 0.0
H171 H 0.52287 0.18292 0.39125 0.0
C172 C 0.54887 0.29927 0.36187 0.0
C173 C 0.53376 0.31135 0.32414 0.0
C174 C 0.55043 0.27372 0.36326 0.0
C175 C 0.53653 0.25987 0.32704 0.0
C176 C 0.51976 0.27213 0.29006 0.0
C177 C 0.51873 0.29751 0.28852 0.0
C178 C 0.55617 0.1953 0.28689 0.0
C179 C 0.54456 0.18134 0.32364 0.0
C180 C 0.55451 0.22068 0.28851 0.0
C181 C 0.54055 0.2328 0.32678 0.0
C182 C 0.52986 0.21882 0.36396 0.0
C183 C 0.53201 0.19329 0.36243 0.0
H184 H 0.43346 0.08094 0.1988 0.0
H185 H 0.37766 0.11084 0.3183 0.0
H186 H 0.35448 0.07711 0.17032 0.0
H187 H 0.29926 0.10774 0.28963 0.0
H188 H 0.15973 0.08239 0.24134 0.0
H189 H 0.23893 0.07996 0.26971 0.0
H190 H 0.29304 0.10306 0.14476 0.0
H191 H 0.21429 0.10473 0.11627 0.0
C192 C 0.40434 0.0867 0.21893 0.0
C193 C 0.41175 0.09625 0.26069 0.0
C194 C 0.35911 0.08461 0.2026 0.0
C195 C 0.32041 0.09212 0.22767 0.0
C196 C 0.32804 0.10138 0.26967 0.0
C197 C 0.37311 0.10336 0.28599 0.0
C198 C 0.18864 0.08671 0.21992 0.0
C199 C 0.18079 0.09385 0.17669 0.0
C200 C 0.23401 0.08546 0.23618 0.0
C201 C 0.27244 0.09144 0.20959 0.0
C202 C 0.26445 0.098 0.16603 0.0
C203 C 0.2192 0.09914 0.14977 0.0
H204 H 0.6508 0.40843 0.19711 0.0
H205 H 0.70395 0.38032 0.3185 0.0
H206 H 0.7303 0.41111 0.16858 0.0
H207 H 0.7829 0.38232 0.2898 0.0
H208 H 0.87101 0.38254 0.11649 0.0
H209 H 0.79182 0.38431 0.14487 0.0
H210 H 0.84383 0.40975 0.26846 0.0
H211 H 0.92344 0.40728 0.24024 0.0
C212 C 0.67945 0.40281 0.21764 0.0
C213 C 0.67115 0.39413 0.25997 0.0
C214 C 0.72497 0.40424 0.20128 0.0
C215 C 0.76307 0.39693 0.22689 0.0
C216 C 0.75457 0.38849 0.2694 0.0
C217 C 0.7092 0.38716 0.28575 0.0
C218 C 0.86554 0.38863 0.14967 0.0
C219 C 0.90346 0.39465 0.17624 0.0
C220 C 0.82005 0.38982 0.16586 0.0
C221 C 0.81135 0.39715 0.20899 0.0
C222 C 0.84931 0.40369 0.23528 0.0
C223 C 0.89491 0.4024 0.2191 0.0
H224 H 0.15788 0.9065 0.69941 0.0
H225 H 0.20992 0.88168 0.82348 0.0
H226 H 0.23761 0.9086 0.67139 0.0
H227 H 0.28926 0.88326 0.79535 0.0
H228 H 0.42994 0.90814 0.74268 0.0
H229 H 0.35031 0.91073 0.77108 0.0
H230 H 0.29874 0.88012 0.65116 0.0
H231 H 0.37783 0.87804 0.62263 0.0
C232 C 0.18634 0.90155 0.72069 0.0
C233 C 0.17765 0.89384 0.76355 0.0
C234 C 0.23198 0.90263 0.70462 0.0
C235 C 0.26983 0.89603 0.7311 0.0
C236 C 0.26103 0.88878 0.77425 0.0
C237 C 0.21549 0.88771 0.79027 0.0
C238 C 0.40151 0.90208 0.72242 0.0
C239 C 0.41012 0.89284 0.6805 0.0
C240 C 0.35594 0.90346 0.7387 0.0
C241 C 0.31812 0.89566 0.71336 0.0
C242 C 0.3269 0.88665 0.67129 0.0
C243 C 0.37233 0.88528 0.65506 0.0
H244 H 0.70182 0.60985 0.61942 0.0
H245 H 0.64601 0.58181 0.74027 0.0
H246 H 0.78022 0.60684 0.64824 0.0
H247 H 0.72498 0.57803 0.7689 0.0
H248 H 0.86488 0.60572 0.82206 0.0
H249 H 0.78624 0.60396 0.79344 0.0
H250 H 0.84079 0.57942 0.66948 0.0
H251 H 0.91989 0.58197 0.69794 0.0
C252 C 0.70638 0.60277 0.65206 0.0
C253 C 0.66773 0.59619 0.67769 0.0
C254 C 0.75145 0.60085 0.66848 0.0
C255 C 0.75908 0.59216 0.71091 0.0
C256 C 0.72037 0.58511 0.73629 0.0
C257 C 0.67513 0.58716 0.71987 0.0
C258 C 0.86009 0.5998 0.78875 0.0
C259 C 0.8986 0.59414 0.76213 0.0
C260 C 0.81489 0.59861 0.77242 0.0
C261 C 0.80703 0.5916 0.72909 0.0
C262 C 0.84558 0.58527 0.7028 0.0
C263 C 0.8909 0.58659 0.71913 0.0
H264 H 0.65874 0.88427 0.74489 0.0
H265 H 0.70756 0.9088 0.61921 0.0
H266 H 0.73815 0.88505 0.77216 0.0
H267 H 0.78671 0.91102 0.64687 0.0
H268 H 0.92892 0.88476 0.69405 0.0
H269 H 0.84952 0.88657 0.66654 0.0
H270 H 0.80036 0.90885 0.79393 0.0
H271 H 0.87929 0.90559 0.82162 0.0
C272 C 0.68644 0.89027 0.72336 0.0
C273 C 0.6771 0.89637 0.67994 0.0
C274 C 0.73204 0.89087 0.739 0.0
C275 C 0.76924 0.89804 0.71176 0.0
C276 C 0.75936 0.90486 0.66861 0.0
C277 C 0.71389 0.90381 0.65279 0.0
C278 C 0.90104 0.89013 0.71598 0.0
C279 C 0.91013 0.89487 0.75996 0.0
C280 C 0.85548 0.89134 0.70023 0.0
C281 C 0.81812 0.89776 0.72799 0.0
C282 C 0.8278 0.90326 0.77174 0.0
C283 C 0.87316 0.90159 0.7876 0.0
H284 H 0.41859 0.58778 0.73964 0.0
H285 H 0.36742 0.61361 0.61592 0.0
H286 H 0.33883 0.58609 0.76753 0.0
H287 H 0.28798 0.61252 0.64399 0.0
H288 H 0.14684 0.58705 0.69551 0.0
H289 H 0.22648 0.58533 0.66698 0.0
H290 H 0.27758 0.61386 0.78872 0.0
H291 H 0.19848 0.615 0.81737 0.0
C292 C 0.39031 0.59312 0.71845 0.0
C293 C 0.39927 0.60088 0.67566 0.0
C294 C 0.34463 0.59227 0.73445 0.0
C295 C 0.30693 0.59923 0.70803 0.0
C296 C 0.31603 0.60671 0.66505 0.0
C297 C 0.36164 0.6075 0.64905 0.0
C298 C 0.17517 0.59288 0.71612 0.0
C299 C 0.16641 0.60117 0.75863 0.0
C300 C 0.22076 0.592 0.69976 0.0
C301 C 0.2585 0.59943 0.72558 0.0
C302 C 0.24954 0.60762 0.76816 0.0
C303 C 0.20409 0.60845 0.78448 0.0
H304 H 0.71203 0.11099 0.32349 0.0
H305 H 0.66081 0.0869 0.19887 0.0
H306 H 0.79146 0.10991 0.29538 0.0
H307 H 0.74057 0.08522 0.17092 0.0
H308 H 0.88054 0.11478 0.12211 0.0
H309 H 0.80149 0.11321 0.15076 0.0
H310 H 0.85315 0.08298 0.27121 0.0
H311 H 0.93274 0.08514 0.24271 0.0
C312 C 0.7178 0.10524 0.29016 0.0
C313 C 0.68016 0.09913 0.26331 0.0
C314 C 0.76341 0.10446 0.27413 0.0
C315 C 0.77247 0.09751 0.23087 0.0
C316 C 0.73478 0.091 0.20422 0.0
C317 C 0.6891 0.09183 0.22027 0.0
C318 C 0.87507 0.10776 0.1547 0.0
C319 C 0.91288 0.10014 0.18022 0.0
C320 C 0.82965 0.10668 0.17101 0.0
C321 C 0.82086 0.09789 0.21324 0.0
C322 C 0.85873 0.09011 0.23872 0.0
C323 C 0.9043 0.09124 0.22237 0.0
H324 H 0.1501 0.40717 0.24139 0.0
H325 H 0.20523 0.37835 0.12076 0.0
H326 H 0.22914 0.41022 0.26997 0.0
H327 H 0.28376 0.38076 0.14952 0.0
H328 H 0.42309 0.40704 0.1984 0.0
H329 H 0.3438 0.40884 0.17019 0.0
H330 H 0.29084 0.38372 0.29429 0.0
H331 H 0.36974 0.38258 0.32266 0.0
C332 C 0.17908 0.40146 0.22105 0.0
C333 C 0.17148 0.39248 0.17891 0.0
C334 C 0.22434 0.4031 0.23744 0.0
C335 C 0.26287 0.39574 0.21204 0.0
C336 C 0.25507 0.38697 0.16974 0.0
C337 C 0.20995 0.3854 0.15336 0.0
C338 C 0.39443 0.40208 0.21966 0.0
C339 C 0.40263 0.39459 0.26265 0.0
C340 C 0.34902 0.40298 0.20348 0.0
C341 C 0.3109 0.39633 0.22992 0.0
C342 C 0.31922 0.38928 0.27318 0.0
C343 C 0.36453 0.38846 0.28936 0.0
H344 H 0.01533 0.02121 0.08868 0.0
H345 H 0.07087 0.06648 -0.0142 0.0
H346 H 0.01442 0.98642 0.03957 0.0
H347 H 0.07181 0.03142 0.93692 0.0
H348 H 0.06361 0.9233 0.95478 0.0
H349 H 0.06463 0.95839 0.00361 0.0
H350 H 0.02199 0.00516 0.89755 0.0
H351 H 0.02285 0.9703 0.84864 0.0
C352 C 0.02762 0.02366 0.05556 0.0
C353 C 0.04313 0.04653 0.04099 0.0
C354 C 0.02744 0.00367 0.02748 0.0
C355 C 0.04325 0.00604 -0.01571 0.0
C356 C 0.05874 0.029 -0.03024 0.0
C357 C 0.05844 0.04908 -0.00222 0.0
C358 C 0.05453 0.94111 0.94202 0.0
C359 C 0.04326 0.9441 0.89797 0.0
C360 C 0.05484 0.96121 -0.03 0.0
C361 C 0.04338 0.98465 0.95455 0.0
C362 C 0.03181 0.9875 0.91044 0.0
C363 C 0.03199 0.96748 0.88244 0.0
H364 H 0.06332 0.52093 0.84865 0.0
H365 H 0.01167 0.56631 0.9533 0.0
H366 H 0.06548 0.48601 0.89755 0.0
H367 H 0.01206 0.53115 0.00202 0.0
H368 H 0.06326 0.46972 0.08869 0.0
H369 H 0.06351 0.50454 0.0396 0.0
H370 H 0.0159 0.45826 0.93511 0.0
H371 H 0.01742 0.42319 -0.0159 0.0
C372 C 0.05217 0.52339 0.88212 0.0
C373 C 0.03739 0.54633 0.89724 0.0
C374 C 0.05307 0.50332 0.91008 0.0
C375 C 0.0388 0.5057 0.95373 0.0
C376 C 0.02398 0.52872 0.96879 0.0
C377 C 0.0235 0.54886 0.94087 0.0
C378 C 0.05297 0.46698 0.05518 0.0
C379 C 0.04032 0.44376 0.04016 0.0
C380 C 0.05278 0.48699 0.0271 0.0
C381 C 0.03951 0.48428 -0.01659 0.0
C382 C 0.02695 0.46096 0.96839 0.0
C383 C 0.02756 0.44088 -0.00354 0.0
H384 H 0.51385 0.47137 0.34806 0.0
H385 H 0.5564 0.42484 0.4542 0.0
H386 H 0.51204 0.50627 0.39685 0.0
H387 H 0.55667 0.45998 0.50289 0.0
H388 H 0.50669 0.52245 0.58819 0.0
H389 H 0.50658 0.48759 0.53926 0.0
H390 H 0.56052 0.53313 0.43571 0.0
H391 H 0.55856 0.56825 0.48442 0.0
C392 C 0.52319 0.46867 0.38184 0.0
C393 C 0.5352 0.44541 0.39741 0.0
C394 C 0.52249 0.48872 0.40977 0.0
C395 C 0.53437 0.48603 0.45385 0.0
C396 C 0.54658 0.46269 0.46933 0.0
C397 C 0.54671 0.44255 0.44143 0.0
C398 C 0.51837 0.525 0.55491 0.0
C399 C 0.53257 0.54804 0.54003 0.0
C400 C 0.51867 0.50497 0.52692 0.0
C401 C 0.53374 0.50745 0.48352 0.0
C402 C 0.54799 0.53059 0.46871 0.0
C403 C 0.54712 0.55071 0.49663 0.0
H404 H 0.56041 0.9719 0.59324 0.0
H405 H 0.52433 0.92477 0.48615 0.0
H406 H 0.56184 0.00677 0.54427 0.0
H407 H 0.52352 0.95984 0.43727 0.0
H408 H 0.57391 0.02223 0.3527 0.0
H409 H 0.57345 0.9876 0.40217 0.0
H410 H 0.51454 0.0333 0.50334 0.0
H411 H 0.5172 0.06824 0.45413 0.0
C412 C 0.55232 0.96906 0.55922 0.0
C413 C 0.54238 0.94564 0.54341 0.0
C414 C 0.5528 0.98909 0.53116 0.0
C415 C 0.54275 0.98621 0.48673 0.0
C416 C 0.53228 0.96272 0.4711 0.0
C417 C 0.53244 0.94262 0.4991 0.0
C418 C 0.56101 0.02487 0.38558 0.0
C419 C 0.54565 0.0479 0.39966 0.0
C420 C 0.56036 0.00496 0.41388 0.0
C421 C 0.5437 0.00754 0.45677 0.0
C422 C 0.52828 0.03068 0.47078 0.0
C423 C 0.52956 0.05069 0.44257 0.0
loop_
_geom_bond_atom_site_label_1
_geom_bond_atom_site_label_2
_geom_bond_distance
_geom_bond_site_symmetry_2
_ccdc_geom_bond_type
In0 O1 2.294 . S
In0 O2 2.326 . S
In0 O6 2.266 . S
In0 O7 2.326 . S
In0 O8 2.266 . S
In0 O9 2.326 . S
In0 O11 2.294 1_455 S
In0 O12 2.326 1_455 S
O1 In0 2.294 . S
O1 C10 1.240 . S
O2 In0 2.326 . S
O2 C10 1.252 . S
C3 O6 1.252 . S
C3 O7 1.260 . S
C4 O11 1.240 . S
C4 O12 1.252 . S
C5 O8 1.252 . S
C5 O9 1.260 . S
O6 In0 2.266 . S
O6 C3 1.252 . S
O7 In0 2.326 . S
O7 C3 1.260 . S
O8 In0 2.266 . S
O8 C5 1.252 . S
O9 In0 2.326 . S
O9 C5 1.260 . S
C10 O1 1.240 . S
C10 O2 1.252 . S
O11 In0 2.294 1_655 S
O11 C4 1.240 . S
O12 In0 2.326 1_655 S
O12 C4 1.252 . S
In13 O14 2.294 . S
In13 O15 2.326 . S
In13 O19 2.266 . S
In13 O20 2.326 . S
In13 O21 2.266 1_455 S
In13 O22 2.326 1_455 S
In13 O24 2.294 . S
In13 O25 2.326 . S
O14 In13 2.294 . S
O14 C23 1.240 . S
O15 In13 2.326 . S
O15 C23 1.252 . S
C16 O19 1.252 . S
C16 O20 1.260 . S
C17 O24 1.240 . S
C17 O25 1.252 . S
C18 O21 1.252 . S
C18 O22 1.260 . S
O19 In13 2.266 . S
O19 C16 1.252 . S
O20 In13 2.326 . S
O20 C16 1.260 . S
O21 In13 2.266 1_655 S
O21 C18 1.252 . S
O22 In13 2.326 1_655 S
O22 C18 1.260 . S
C23 O14 1.240 . S
C23 O15 1.252 . S
O24 In13 2.294 . S
O24 C17 1.240 . S
O25 In13 2.326 . S
O25 C17 1.252 . S
In26 O27 2.294 1_455 S
In26 O28 2.326 1_455 S
In26 O32 2.266 . S
In26 O33 2.326 . S
In26 O34 2.266 . S
In26 O35 2.326 . S
In26 O37 2.294 . S
In26 O38 2.326 . S
O27 In26 2.294 1_655 S
O27 C36 1.240 . S
O28 In26 2.326 1_655 S
O28 C36 1.252 . S
C29 O32 1.252 . S
C29 O33 1.260 . S
C30 O37 1.240 . S
C30 O38 1.252 . S
C31 O34 1.252 . S
C31 O35 1.260 . S
O32 In26 2.266 . S
O32 C29 1.252 . S
O33 In26 2.326 . S
O33 C29 1.260 . S
O34 In26 2.266 . S
O34 C31 1.252 . S
O35 In26 2.326 . S
O35 C31 1.260 . S
C36 O27 1.240 . S
C36 O28 1.252 . S
O37 In26 2.294 . S
O37 C30 1.240 . S
O38 In26 2.326 . S
O38 C30 1.252 . S
In39 O40 2.294 . S
In39 O41 2.326 . S
In39 O45 2.266 . S
In39 O46 2.326 . S
In39 O47 2.266 1_455 S
In39 O48 2.326 1_455 S
In39 O50 2.294 . S
In39 O51 2.326 . S
O40 In39 2.294 . S
O40 C49 1.240 . S
O41 In39 2.326 . S
O41 C49 1.252 . S
C42 O45 1.252 . S
C42 O46 1.260 . S
C43 O50 1.240 . S
C43 O51 1.252 . S
C44 O47 1.252 . S
C44 O48 1.260 . S
O45 In39 2.266 . S
O45 C42 1.252 . S
O46 In39 2.326 . S
O46 C42 1.260 . S
O47 In39 2.266 1_655 S
O47 C44 1.252 . S
O48 In39 2.326 1_655 S
O48 C44 1.260 . S
C49 O40 1.240 . S
C49 O41 1.252 . S
O50 In39 2.294 . S
O50 C43 1.240 . S
O51 In39 2.326 . S
O51 C43 1.252 . S
In52 O53 2.294 . S
In52 O54 2.326 . S
In52 O58 2.266 . S
In52 O59 2.326 . S
In52 O60 2.266 . S
In52 O61 2.326 . S
In52 O63 2.294 . S
In52 O64 2.326 . S
O53 In52 2.294 . S
O53 C62 1.240 . S
O54 In52 2.326 . S
O54 C62 1.252 . S
C55 O58 1.252 . S
C55 O59 1.260 . S
C56 O63 1.240 . S
C56 O64 1.252 . S
C57 O60 1.252 . S
C57 O61 1.260 . S
O58 In52 2.266 . S
O58 C55 1.252 . S
O59 In52 2.326 . S
O59 C55 1.260 . S
O60 In52 2.266 . S
O60 C57 1.252 . S
O61 In52 2.326 . S
O61 C57 1.260 . S
C62 O53 1.240 . S
C62 O54 1.252 . S
O63 In52 2.294 . S
O63 C56 1.240 . S
O64 In52 2.326 . S
O64 C56 1.252 . S
In65 O66 2.294 . S
In65 O67 2.326 . S
In65 O71 2.266 . S
In65 O72 2.326 . S
In65 O73 2.266 . S
In65 O74 2.326 . S
In65 O76 2.294 . S
In65 O77 2.326 . S
O66 In65 2.294 . S
O66 C75 1.240 . S
O67 In65 2.326 . S
O67 C75 1.252 . S
C68 O71 1.252 . S
C68 O72 1.260 . S
C69 O76 1.240 . S
C69 O77 1.252 . S
C70 O73 1.252 . S
C70 O74 1.260 . S
O71 In65 2.266 . S
O71 C68 1.252 . S
O72 In65 2.326 . S
O72 C68 1.260 . S
O73 In65 2.266 . S
O73 C70 1.252 . S
O74 In65 2.326 . S
O74 C70 1.260 . S
C75 O66 1.240 . S
C75 O67 1.252 . S
O76 In65 2.294 . S
O76 C69 1.240 . S
O77 In65 2.326 . S
O77 C69 1.252 . S
In78 O79 2.294 . S
In78 O80 2.326 . S
In78 O84 2.266 . S
In78 O85 2.326 . S
In78 O86 2.266 . S
In78 O87 2.326 . S
In78 O89 2.294 . S
In78 O90 2.326 . S
O79 In78 2.294 . S
O79 C88 1.240 . S
O80 In78 2.326 . S
O80 C88 1.252 . S
C81 O84 1.252 . S
C81 O85 1.260 . S
C82 O89 1.240 . S
C82 O90 1.252 . S
C83 O86 1.252 . S
C83 O87 1.260 . S
O84 In78 2.266 . S
O84 C81 1.252 . S
O85 In78 2.326 . S
O85 C81 1.260 . S
O86 In78 2.266 . S
O86 C83 1.252 . S
O87 In78 2.326 . S
O87 C83 1.260 . S
C88 O79 1.240 . S
C88 O80 1.252 . S
O89 In78 2.294 . S
O89 C82 1.240 . S
O90 In78 2.326 . S
O90 C82 1.252 . S
In91 O92 2.294 . S
In91 O93 2.326 . S
In91 O97 2.266 . S
In91 O98 2.326 . S
In91 O99 2.266 . S
In91 O100 2.326 . S
In91 O102 2.294 . S
In91 O103 2.326 . S
O92 In91 2.294 . S
O92 C101 1.240 . S
O93 In91 2.326 . S
O93 C101 1.252 . S
C94 O97 1.252 . S
C94 O98 1.260 . S
C95 O102 1.240 . S
C95 O103 1.252 . S
C96 O99 1.252 . S
C96 O100 1.260 . S
O97 In91 2.266 . S
O97 C94 1.252 . S
O98 In91 2.326 . S
O98 C94 1.260 . S
O99 In91 2.266 . S
O99 C96 1.252 . S
O100 In91 2.326 . S
O100 C96 1.260 . S
C101 O92 1.240 . S
C101 O93 1.252 . S
O102 In91 2.294 . S
O102 C95 1.240 . S
O103 In91 2.326 . S
O103 C95 1.252 . S
H104 C112 0.950 . S
H105 C117 0.950 . S
H106 C114 0.950 . S
H107 C116 0.950 . S
H108 C118 0.950 . S
H109 C120 0.950 . S
H110 C122 0.950 . S
H111 C123 0.950 . S
C112 H104 0.950 . S
C112 C113 1.386 . S
C112 C114 1.391 . S
C113 C112 1.386 . S
C113 C117 1.393 . S
C114 H106 0.950 . S
C114 C112 1.391 . S
C114 C115 1.400 . S
C115 C114 1.400 . S
C115 C116 1.398 . S
C115 C121 1.491 . S
C116 H107 0.950 . S
C116 C115 1.398 . S
C116 C117 1.391 . S
C117 H105 0.950 . S
C117 C113 1.393 . S
C117 C116 1.391 . S
C118 H108 0.950 . S
C118 C119 1.386 . S
C118 C120 1.391 . S
C119 C118 1.386 . S
C119 C123 1.393 . S
C120 H109 0.950 . S
C120 C118 1.391 . S
C120 C121 1.400 . S
C121 C115 1.491 . S
C121 C120 1.400 . S
C121 C122 1.398 . S
C122 H110 0.950 . S
C122 C121 1.398 . S
C122 C123 1.391 . S
C123 H111 0.950 . S
C123 C119 1.393 . S
C123 C122 1.391 . S
H124 C132 0.950 . S
H125 C137 0.950 . S
H126 C134 0.950 . S
H127 C136 0.950 . S
H128 C138 0.950 . S
H129 C140 0.950 . S
H130 C142 0.950 . S
H131 C143 0.950 . S
C132 H124 0.950 . S
C132 C133 1.386 . S
C132 C134 1.391 . S
C133 C132 1.386 . S
C133 C137 1.393 1_455 S
C134 H126 0.950 . S
C134 C132 1.391 . S
C134 C135 1.400 . S
C135 C134 1.400 . S
C135 C136 1.398 1_455 S
C135 C141 1.491 . S
C136 H127 0.950 . S
C136 C135 1.398 1_655 S
C136 C137 1.391 . S
C137 H125 0.950 . S
C137 C133 1.393 1_655 S
C137 C136 1.391 . S
C138 H128 0.950 . S
C138 C139 1.386 1_655 S
C138 C140 1.391 . S
C139 C138 1.386 1_455 S
C139 C143 1.393 . S
C140 H129 0.950 . S
C140 C138 1.391 . S
C140 C141 1.400 1_655 S
C141 C135 1.491 . S
C141 C140 1.400 1_455 S
C141 C142 1.398 . S
C142 H130 0.950 . S
C142 C141 1.398 . S
C142 C143 1.391 . S
C143 H131 0.950 . S
C143 C139 1.393 . S
C143 C142 1.391 . S
H144 C152 0.950 . S
H145 C157 0.950 . S
H146 C154 0.950 . S
H147 C156 0.950 . S
H148 C158 0.950 . S
H149 C160 0.950 . S
H150 C162 0.950 . S
H151 C163 0.950 . S
C152 H144 0.950 . S
C152 C153 1.386 . S
C152 C154 1.391 . S
C153 C152 1.386 . S
C153 C157 1.393 . S
C154 H146 0.950 . S
C154 C152 1.391 . S
C154 C155 1.400 . S
C155 C154 1.400 . S
C155 C156 1.398 . S
C155 C161 1.491 . S
C156 H147 0.950 . S
C156 C155 1.398 . S
C156 C157 1.391 . S
C157 H145 0.950 . S
C157 C153 1.393 . S
C157 C156 1.391 . S
C158 H148 0.950 . S
C158 C159 1.386 . S
C158 C160 1.391 . S
C159 C158 1.386 . S
C159 C163 1.393 . S
C160 H149 0.950 . S
C160 C158 1.391 . S
C160 C161 1.400 . S
C161 C155 1.491 . S
C161 C160 1.400 . S
C161 C162 1.398 . S
C162 H150 0.950 . S
C162 C161 1.398 . S
C162 C163 1.391 . S
C163 H151 0.950 . S
C163 C159 1.393 . S
C163 C162 1.391 . S
H164 C172 0.950 . S
H165 C177 0.950 . S
H166 C174 0.950 . S
H167 C176 0.950 . S
H168 C178 0.950 . S
H169 C180 0.950 . S
H170 C182 0.950 . S
H171 C183 0.950 . S
C172 H164 0.950 . S
C172 C173 1.386 . S
C172 C174 1.391 . S
C173 C172 1.386 . S
C173 C177 1.393 . S
C174 H166 0.950 . S
C174 C172 1.391 . S
C174 C175 1.400 . S
C175 C174 1.400 . S
C175 C176 1.398 . S
C175 C181 1.491 . S
C176 H167 0.950 . S
C176 C175 1.398 . S
C176 C177 1.391 . S
C177 H165 0.950 . S
C177 C173 1.393 . S
C177 C176 1.391 . S
C178 H168 0.950 . S
C178 C179 1.386 . S
C178 C180 1.391 . S
C179 C178 1.386 . S
C179 C183 1.393 . S
C180 H169 0.950 . S
C180 C178 1.391 . S
C180 C181 1.400 . S
C181 C175 1.491 . S
C181 C180 1.400 . S
C181 C182 1.398 . S
C182 H170 0.950 . S
C182 C181 1.398 . S
C182 C183 1.391 . S
C183 H171 0.950 . S
C183 C179 1.393 . S
C183 C182 1.391 . S
H184 C192 0.950 . S
H185 C197 0.950 . S
H186 C194 0.950 . S
H187 C196 0.950 . S
H188 C198 0.950 . S
H189 C200 0.950 . S
H190 C202 0.950 . S
H191 C203 0.950 . S
C192 H184 0.950 . S
C192 C193 1.386 . S
C192 C194 1.391 . S
C193 C192 1.386 . S
C193 C197 1.393 . S
C194 H186 0.950 . S
C194 C192 1.391 . S
C194 C195 1.400 . S
C195 C194 1.400 . S
C195 C196 1.398 . S
C195 C201 1.491 . S
C196 H187 0.950 . S
C196 C195 1.398 . S
C196 C197 1.391 . S
C197 H185 0.950 . S
C197 C193 1.393 . S
C197 C196 1.391 . S
C198 H188 0.950 . S
C198 C199 1.386 . S
C198 C200 1.391 . S
C199 C198 1.386 . S
C199 C203 1.393 . S
C200 H189 0.950 . S
C200 C198 1.391 . S
C200 C201 1.400 . S
C201 C195 1.491 . S
C201 C200 1.400 . S
C201 C202 1.398 . S
C202 H190 0.950 . S
C202 C201 1.398 . S
C202 C203 1.391 . S
C203 H191 0.950 . S
C203 C199 1.393 . S
C203 C202 1.391 . S
H204 C212 0.950 . S
H205 C217 0.950 . S
H206 C214 0.950 . S
H207 C216 0.950 . S
H208 C218 0.950 . S
H209 C220 0.950 . S
H210 C222 0.950 . S
H211 C223 0.950 . S
C212 H204 0.950 . S
C212 C213 1.386 . S
C212 C214 1.391 . S
C213 C212 1.386 . S
C213 C217 1.393 . S
C214 H206 0.950 . S
C214 C212 1.391 . S
C214 C215 1.400 . S
C215 C214 1.400 . S
C215 C216 1.398 . S
C215 C221 1.491 . S
C216 H207 0.950 . S
C216 C215 1.398 . S
C216 C217 1.391 . S
C217 H205 0.950 . S
C217 C213 1.393 . S
C217 C216 1.391 . S
C218 H208 0.950 . S
C218 C219 1.386 . S
C218 C220 1.391 . S
C219 C218 1.386 . S
C219 C223 1.393 . S
C220 H209 0.950 . S
C220 C218 1.391 . S
C220 C221 1.400 . S
C221 C215 1.491 . S
C221 C220 1.400 . S
C221 C222 1.398 . S
C222 H210 0.950 . S
C222 C221 1.398 . S
C222 C223 1.391 . S
C223 H211 0.950 . S
C223 C219 1.393 . S
C223 C222 1.391 . S
H224 C232 0.950 . S
H225 C237 0.950 . S
H226 C234 0.950 . S
H227 C236 0.950 . S
H228 C238 0.950 . S
H229 C240 0.950 . S
H230 C242 0.950 . S
H231 C243 0.950 . S
C232 H224 0.950 . S
C232 C233 1.386 . S
C232 C234 1.391 . S
C233 C232 1.386 . S
C233 C237 1.393 . S
C234 H226 0.950 . S
C234 C232 1.391 . S
C234 C235 1.400 . S
C235 C234 1.400 . S
C235 C236 1.398 . S
C235 C241 1.491 . S
C236 H227 0.950 . S
C236 C235 1.398 . S
C236 C237 1.391 . S
C237 H225 0.950 . S
C237 C233 1.393 . S
C237 C236 1.391 . S
C238 H228 0.950 . S
C238 C239 1.386 . S
C238 C240 1.391 . S
C239 C238 1.386 . S
C239 C243 1.393 . S
C240 H229 0.950 . S
C240 C238 1.391 . S
C240 C241 1.400 . S
C241 C235 1.491 . S
C241 C240 1.400 . S
C241 C242 1.398 . S
C242 H230 0.950 . S
C242 C241 1.398 . S
C242 C243 1.391 . S
C243 H231 0.950 . S
C243 C239 1.393 . S
C243 C242 1.391 . S
H244 C252 0.950 . S
H245 C257 0.950 . S
H246 C254 0.950 . S
H247 C256 0.950 . S
H248 C258 0.950 . S
H249 C260 0.950 . S
H250 C262 0.950 . S
H251 C263 0.950 . S
C252 H244 0.950 . S
C252 C253 1.386 . S
C252 C254 1.391 . S
C253 C252 1.386 . S
C253 C257 1.393 . S
C254 H246 0.950 . S
C254 C252 1.391 . S
C254 C255 1.400 . S
C255 C254 1.400 . S
C255 C256 1.398 . S
C255 C261 1.491 . S
C256 H247 0.950 . S
C256 C255 1.398 . S
C256 C257 1.391 . S
C257 H245 0.950 . S
C257 C253 1.393 . S
C257 C256 1.391 . S
C258 H248 0.950 . S
C258 C259 1.386 . S
C258 C260 1.391 . S
C259 C258 1.386 . S
C259 C263 1.393 . S
C260 H249 0.950 . S
C260 C258 1.391 . S
C260 C261 1.400 . S
C261 C255 1.491 . S
C261 C260 1.400 . S
C261 C262 1.398 . S
C262 H250 0.950 . S
C262 C261 1.398 . S
C262 C263 1.391 . S
C263 H251 0.950 . S
C263 C259 1.393 . S
C263 C262 1.391 . S
H264 C272 0.950 . S
H265 C277 0.950 . S
H266 C274 0.950 . S
H267 C276 0.950 . S
H268 C278 0.950 . S
H269 C280 0.950 . S
H270 C282 0.950 . S
H271 C283 0.950 . S
C272 H264 0.950 . S
C272 C273 1.386 . S
C272 C274 1.391 . S
C273 C272 1.386 . S
C273 C277 1.393 . S
C274 H266 0.950 . S
C274 C272 1.391 . S
C274 C275 1.400 . S
C275 C274 1.400 . S
C275 C276 1.398 . S
C275 C281 1.491 . S
C276 H267 0.950 . S
C276 C275 1.398 . S
C276 C277 1.391 . S
C277 H265 0.950 . S
C277 C273 1.393 . S
C277 C276 1.391 . S
C278 H268 0.950 . S
C278 C279 1.386 . S
C278 C280 1.391 . S
C279 C278 1.386 . S
C279 C283 1.393 . S
C280 H269 0.950 . S
C280 C278 1.391 . S
C280 C281 1.400 . S
C281 C275 1.491 . S
C281 C280 1.400 . S
C281 C282 1.398 . S
C282 H270 0.950 . S
C282 C281 1.398 . S
C282 C283 1.391 . S
C283 H271 0.950 . S
C283 C279 1.393 . S
C283 C282 1.391 . S
H284 C292 0.950 . S
H285 C297 0.950 . S
H286 C294 0.950 . S
H287 C296 0.950 . S
H288 C298 0.950 . S
H289 C300 0.950 . S
H290 C302 0.950 . S
H291 C303 0.950 . S
C292 H284 0.950 . S
C292 C293 1.386 . S
C292 C294 1.391 . S
C293 C292 1.386 . S
C293 C297 1.393 . S
C294 H286 0.950 . S
C294 C292 1.391 . S
C294 C295 1.400 . S
C295 C294 1.400 . S
C295 C296 1.398 . S
C295 C301 1.491 . S
C296 H287 0.950 . S
C296 C295 1.398 . S
C296 C297 1.391 . S
C297 H285 0.950 . S
C297 C293 1.393 . S
C297 C296 1.391 . S
C298 H288 0.950 . S
C298 C299 1.386 . S
C298 C300 1.391 . S
C299 C298 1.386 . S
C299 C303 1.393 . S
C300 H289 0.950 . S
C300 C298 1.391 . S
C300 C301 1.400 . S
C301 C295 1.491 . S
C301 C300 1.400 . S
C301 C302 1.398 . S
C302 H290 0.950 . S
C302 C301 1.398 . S
C302 C303 1.391 . S
C303 H291 0.950 . S
C303 C299 1.393 . S
C303 C302 1.391 . S
H304 C312 0.950 . S
H305 C317 0.950 . S
H306 C314 0.950 . S
H307 C316 0.950 . S
H308 C318 0.950 . S
H309 C320 0.950 . S
H310 C322 0.950 . S
H311 C323 0.950 . S
C312 H304 0.950 . S
C312 C313 1.386 . S
C312 C314 1.391 . S
C313 C312 1.386 . S
C313 C317 1.393 . S
C314 H306 0.950 . S
C314 C312 1.391 . S
C314 C315 1.400 . S
C315 C314 1.400 . S
C315 C316 1.398 . S
C315 C321 1.491 . S
C316 H307 0.950 . S
C316 C315 1.398 . S
C316 C317 1.391 . S
C317 H305 0.950 . S
C317 C313 1.393 . S
C317 C316 1.391 . S
C318 H308 0.950 . S
C318 C319 1.386 . S
C318 C320 1.391 . S
C319 C318 1.386 . S
C319 C323 1.393 . S
C320 H309 0.950 . S
C320 C318 1.391 . S
C320 C321 1.400 . S
C321 C315 1.491 . S
C321 C320 1.400 . S
C321 C322 1.398 . S
C322 H310 0.950 . S
C322 C321 1.398 . S
C322 C323 1.391 . S
C323 H311 0.950 . S
C323 C319 1.393 . S
C323 C322 1.391 . S
H324 C332 0.950 . S
H325 C337 0.950 . S
H326 C334 0.950 . S
H327 C336 0.950 . S
H328 C338 0.950 . S
H329 C340 0.950 . S
H330 C342 0.950 . S
H331 C343 0.950 . S
C332 H324 0.950 . S
C332 C333 1.386 . S
C332 C334 1.391 . S
C333 C332 1.386 . S
C333 C337 1.393 . S
C334 H326 0.950 . S
C334 C332 1.391 . S
C334 C335 1.400 . S
C335 C334 1.400 . S
C335 C336 1.398 . S
C335 C341 1.491 . S
C336 H327 0.950 . S
C336 C335 1.398 . S
C336 C337 1.391 . S
C337 H325 0.950 . S
C337 C333 1.393 . S
C337 C336 1.391 . S
C338 H328 0.950 . S
C338 C339 1.386 . S
C338 C340 1.391 . S
C339 C338 1.386 . S
C339 C343 1.393 . S
C340 H329 0.950 . S
C340 C338 1.391 . S
C340 C341 1.400 . S
C341 C335 1.491 . S
C341 C340 1.400 . S
C341 C342 1.398 . S
C342 H330 0.950 . S
C342 C341 1.398 . S
C342 C343 1.391 . S
C343 H331 0.950 . S
C343 C339 1.393 . S
C343 C342 1.391 . S
H344 C352 0.950 . S
H345 C357 0.950 . S
H346 C354 0.950 . S
H347 C356 0.950 . S
H348 C358 0.950 . S
H349 C360 0.950 . S
H350 C362 0.950 . S
H351 C363 0.950 . S
C352 H344 0.950 . S
C352 C353 1.386 1_655 S
C352 C354 1.391 . S
C353 C352 1.386 1_455 S
C353 C357 1.393 . S
C354 H346 0.950 . S
C354 C352 1.391 . S
C354 C355 1.400 1_655 S
C355 C354 1.400 1_455 S
C355 C356 1.398 . S
C355 C361 1.491 1_544 S
C356 H347 0.950 . S
C356 C355 1.398 . S
C356 C357 1.391 . S
C357 H345 0.950 . S
C357 C353 1.393 . S
C357 C356 1.391 . S
C358 H348 0.950 . S
C358 C359 1.386 . S
C358 C360 1.391 . S
C359 C358 1.386 . S
C359 C363 1.393 1_455 S
C360 H349 0.950 . S
C360 C358 1.391 . S
C360 C361 1.400 . S
C361 C355 1.491 1_566 S
C361 C360 1.400 . S
C361 C362 1.398 1_455 S
C362 H350 0.950 . S
C362 C361 1.398 1_655 S
C362 C363 1.391 . S
C363 H351 0.950 . S
C363 C359 1.393 1_655 S
C363 C362 1.391 . S
H364 C372 0.950 1_655 S
H365 C377 0.950 . S
H366 C374 0.950 1_655 S
H367 C376 0.950 1_554 S
H368 C378 0.950 . S
H369 C380 0.950 . S
H370 C382 0.950 1_656 S
H371 C383 0.950 1_655 S
C372 H364 0.950 1_455 S
C372 C373 1.386 . S
C372 C374 1.391 . S
C373 C372 1.386 . S
C373 C377 1.393 . S
C374 H366 0.950 1_455 S
C374 C372 1.391 . S
C374 C375 1.400 . S
C375 C374 1.400 . S
C375 C376 1.398 . S
C375 C381 1.491 1_556 S
C376 H367 0.950 1_556 S
C376 C375 1.398 . S
C376 C377 1.391 . S
C377 H365 0.950 . S
C377 C373 1.393 . S
C377 C376 1.391 . S
C378 H368 0.950 . S
C378 C379 1.386 . S
C378 C380 1.391 . S
C379 C378 1.386 . S
C379 C383 1.393 . S
C380 H369 0.950 . S
C380 C378 1.391 . S
C380 C381 1.400 . S
C381 C375 1.491 1_554 S
C381 C380 1.400 . S
C381 C382 1.398 . S
C382 H370 0.950 1_454 S
C382 C381 1.398 . S
C382 C383 1.391 . S
C383 H371 0.950 1_455 S
C383 C379 1.393 . S
C383 C382 1.391 . S
H384 C392 0.950 . S
H385 C397 0.950 . S
H386 C394 0.950 . S
H387 C396 0.950 . S
H388 C398 0.950 . S
H389 C400 0.950 . S
H390 C402 0.950 . S
H391 C403 0.950 . S
C392 H384 0.950 . S
C392 C393 1.386 . S
C392 C394 1.391 . S
C393 C392 1.386 . S
C393 C397 1.393 . S
C394 H386 0.950 . S
C394 C392 1.391 . S
C394 C395 1.400 . S
C395 C394 1.400 . S
C395 C396 1.398 . S
C395 C401 1.491 . S
C396 H387 0.950 . S
C396 C395 1.398 . S
C396 C397 1.391 . S
C397 H385 0.950 . S
C397 C393 1.393 . S
C397 C396 1.391 . S
C398 H388 0.950 . S
C398 C399 1.386 . S
C398 C400 1.391 . S
C399 C398 1.386 . S
C399 C403 1.393 . S
C400 H389 0.950 . S
C400 C398 1.391 . S
C400 C401 1.400 . S
C401 C395 1.491 . S
C401 C400 1.400 . S
C401 C402 1.398 . S
C402 H390 0.950 . S
C402 C401 1.398 . S
C402 C403 1.391 . S
C403 H391 0.950 . S
C403 C399 1.393 . S
C403 C402 1.391 . S
H404 C412 0.950 . S
H405 C417 0.950 . S
H406 C414 0.983 . S
H407 C416 0.950 . S
H408 C418 0.950 . S
H409 C420 0.983 . S
H410 C422 0.950 . S
H411 C423 0.950 . S
C412 H404 0.950 . S
C412 C413 1.386 . S
C412 C414 1.391 . S
C413 C412 1.386 . S
C413 C417 1.393 . S
C414 H406 0.983 . S
C414 C412 1.391 . S
C414 C415 1.400 . S
C415 C414 1.400 . S
C415 C416 1.398 . S
C415 C421 1.491 1_565 S
C416 H407 0.950 . S
C416 C415 1.398 . S
C416 C417 1.391 . S
C417 H405 0.950 . S
C417 C413 1.393 . S
C417 C416 1.391 . S
C418 H408 0.950 . S
C418 C419 1.386 . S
C418 C420 1.391 . S
C419 C418 1.386 . S
C419 C423 1.393 . S
C420 H409 0.983 . S
C420 C418 1.391 . S
C420 C421 1.400 . S
C421 C415 1.491 1_545 S
C421 C420 1.400 . S
C421 C422 1.398 . S
C422 H410 0.950 . S
C422 C421 1.398 . S
C422 C423 1.391 . S
C423 H411 0.950 . S
C423 C419 1.393 . S
C423 C422 1.391 . S
C113 C16 1.458 . S
C119 C3 1.460 . S
C133 C31 1.458 . S
C139 C42 1.453 . S
C153 C57 1.453 . S
C159 C70 1.456 . S
C173 C83 1.457 . S
C179 C96 1.453 . S
C193 C94 1.677 . S
C199 C5 1.676 . S
C213 C81 1.675 . S
C219 C18 1.675 . S
C233 C29 1.681 . S
C239 C68 1.678 . S
C253 C55 1.677 . S
C259 C44 1.679 . S
C273 C75 1.181 . S
C279 C36 1.184 . S
C293 C62 1.182 . S
C299 C43 1.188 . S
C313 C101 1.188 . S
C319 C4 1.182 . S
C333 C17 1.179 . S
C339 C88 1.187 . S
C353 C10 1.414 . S
C359 C30 1.414 . S
C373 C49 1.413 . S
C379 C23 1.411 . S
C393 C82 1.412 . S
C399 C56 1.412 . S
C413 C69 1.413 . S
C419 C95 1.411 . S
