# Generated by pormake.
# Topology lcy-a, (4)-cn, num edge types: 1
# Building blocks:
#     Node 0, Type 0, BuildingBlock: GALJAG_clean_sbu_0, # of connection points: 4
#     Node 1, Type 0, BuildingBlock: GALJAG_clean_sbu_0, # of connection points: 4
#     Node 2, Type 0, BuildingBlock: GALJAG_clean_sbu_0, # of connection points: 4
#     Node 3, Type 0, BuildingBlock: GALJAG_clean_sbu_0, # of connection points: 4
#     Node 4, Type 0, BuildingBlock: GALJAG_clean_sbu_0, # of connection points: 4
#     Node 5, Type 0, BuildingBlock: GALJAG_clean_sbu_0, # of connection points: 4
#     Node 6, Type 0, BuildingBlock: GALJAG_clean_sbu_0, # of connection points: 4
#     Node 7, Type 0, BuildingBlock: GALJAG_clean_sbu_0, # of connection points: 4
#     Node 8, Type 0, BuildingBlock: GALJAG_clean_sbu_0, # of connection points: 4
#     Node 9, Type 0, BuildingBlock: GALJAG_clean_sbu_0, # of connection points: 4
#     Node 10, Type 0, BuildingBlock: GALJAG_clean_sbu_0, # of connection points: 4
#     Node 11, Type 0, BuildingBlock: GALJAG_clean_sbu_0, # of connection points: 4
#     Node 12, Type 0, BuildingBlock: GALJAG_clean_sbu_0, # of connection points: 4
#     Node 13, Type 0, BuildingBlock: GALJAG_clean_sbu_0, # of connection points: 4
#     Node 14, Type 0, BuildingBlock: GALJAG_clean_sbu_0, # of connection points: 4
#     Node 15, Type 0, BuildingBlock: GALJAG_clean_sbu_0, # of connection points: 4
#     Node 16, Type 0, BuildingBlock: GALJAG_clean_sbu_0, # of connection points: 4
#     Node 17, Type 0, BuildingBlock: GALJAG_clean_sbu_0, # of connection points: 4
#     Node 18, Type 0, BuildingBlock: GALJAG_clean_sbu_0, # of connection points: 4
#     Node 19, Type 0, BuildingBlock: GALJAG_clean_sbu_0, # of connection points: 4
#     Node 20, Type 0, BuildingBlock: GALJAG_clean_sbu_0, # of connection points: 4
#     Node 21, Type 0, BuildingBlock: GALJAG_clean_sbu_0, # of connection points: 4
#     Node 22, Type 0, BuildingBlock: GALJAG_clean_sbu_0, # of connection points: 4
#     Node 23, Type 0, BuildingBlock: GALJAG_clean_sbu_0, # of connection points: 4
#     Edge 24, Type (0, 0), BuildingBlock: AJUNOK_clean_linker_0, # of connection points: 2
#     Edge 25, Type (0, 0), BuildingBlock: AJUNOK_clean_linker_0, # of connection points: 2
#     Edge 26, Type (0, 0), BuildingBlock: AJUNOK_clean_linker_0, # of connection points: 2
#     Edge 27, Type (0, 0), BuildingBlock: AJUNOK_clean_linker_0, # of connection points: 2
#     Edge 28, Type (0, 0), BuildingBlock: AJUNOK_clean_linker_0, # of connection points: 2
#     Edge 29, Type (0, 0), BuildingBlock: AJUNOK_clean_linker_0, # of connection points: 2
#     Edge 30, Type (0, 0), BuildingBlock: AJUNOK_clean_linker_0, # of connection points: 2
#     Edge 31, Type (0, 0), BuildingBlock: AJUNOK_clean_linker_0, # of connection points: 2
#     Edge 32, Type (0, 0), BuildingBlock: AJUNOK_clean_linker_0, # of connection points: 2
#     Edge 33, Type (0, 0), BuildingBlock: AJUNOK_clean_linker_0, # of connection points: 2
#     Edge 34, Type (0, 0), BuildingBlock: AJUNOK_clean_linker_0, # of connection points: 2
#     Edge 35, Type (0, 0), BuildingBlock: AJUNOK_clean_linker_0, # of connection points: 2
#     Edge 36, Type (0, 0), BuildingBlock: AJUNOK_clean_linker_0, # of connection points: 2
#     Edge 37, Type (0, 0), BuildingBlock: AJUNOK_clean_linker_0, # of connection points: 2
#     Edge 38, Type (0, 0), BuildingBlock: AJUNOK_clean_linker_0, # of connection points: 2
#     Edge 39, Type (0, 0), BuildingBlock: AJUNOK_clean_linker_0, # of connection points: 2
#     Edge 40, Type (0, 0), BuildingBlock: AJUNOK_clean_linker_0, # of connection points: 2
#     Edge 41, Type (0, 0), BuildingBlock: AJUNOK_clean_linker_0, # of connection points: 2
#     Edge 42, Type (0, 0), BuildingBlock: AJUNOK_clean_linker_0, # of connection points: 2
#     Edge 43, Type (0, 0), BuildingBlock: AJUNOK_clean_linker_0, # of connection points: 2
#     Edge 44, Type (0, 0), BuildingBlock: AJUNOK_clean_linker_0, # of connection points: 2
#     Edge 45, Type (0, 0), BuildingBlock: AJUNOK_clean_linker_0, # of connection points: 2
#     Edge 46, Type (0, 0), BuildingBlock: AJUNOK_clean_linker_0, # of connection points: 2
#     Edge 47, Type (0, 0), BuildingBlock: AJUNOK_clean_linker_0, # of connection points: 2
#     Edge 48, Type (0, 0), BuildingBlock: AJUNOK_clean_linker_0, # of connection points: 2
#     Edge 49, Type (0, 0), BuildingBlock: AJUNOK_clean_linker_0, # of connection points: 2
#     Edge 50, Type (0, 0), BuildingBlock: AJUNOK_clean_linker_0, # of connection points: 2
#     Edge 51, Type (0, 0), BuildingBlock: AJUNOK_clean_linker_0, # of connection points: 2
#     Edge 52, Type (0, 0), BuildingBlock: AJUNOK_clean_linker_0, # of connection points: 2
#     Edge 53, Type (0, 0), BuildingBlock: AJUNOK_clean_linker_0, # of connection points: 2
#     Edge 54, Type (0, 0), BuildingBlock: AJUNOK_clean_linker_0, # of connection points: 2
#     Edge 55, Type (0, 0), BuildingBlock: AJUNOK_clean_linker_0, # of connection points: 2
#     Edge 56, Type (0, 0), BuildingBlock: AJUNOK_clean_linker_0, # of connection points: 2
#     Edge 57, Type (0, 0), BuildingBlock: AJUNOK_clean_linker_0, # of connection points: 2
#     Edge 58, Type (0, 0), BuildingBlock: AJUNOK_clean_linker_0, # of connection points: 2
#     Edge 59, Type (0, 0), BuildingBlock: AJUNOK_clean_linker_0, # of connection points: 2
#     Edge 60, Type (0, 0), BuildingBlock: AJUNOK_clean_linker_0, # of connection points: 2
#     Edge 61, Type (0, 0), BuildingBlock: AJUNOK_clean_linker_0, # of connection points: 2
#     Edge 62, Type (0, 0), BuildingBlock: AJUNOK_clean_linker_0, # of connection points: 2
#     Edge 63, Type (0, 0), BuildingBlock: AJUNOK_clean_linker_0, # of connection points: 2
#     Edge 64, Type (0, 0), BuildingBlock: AJUNOK_clean_linker_0, # of connection points: 2
#     Edge 65, Type (0, 0), BuildingBlock: AJUNOK_clean_linker_0, # of connection points: 2
#     Edge 66, Type (0, 0), BuildingBlock: AJUNOK_clean_linker_0, # of connection points: 2
#     Edge 67, Type (0, 0), BuildingBlock: AJUNOK_clean_linker_0, # of connection points: 2
#     Edge 68, Type (0, 0), BuildingBlock: AJUNOK_clean_linker_0, # of connection points: 2
#     Edge 69, Type (0, 0), BuildingBlock: AJUNOK_clean_linker_0, # of connection points: 2
#     Edge 70, Type (0, 0), BuildingBlock: AJUNOK_clean_linker_0, # of connection points: 2
#     Edge 71, Type (0, 0), BuildingBlock: AJUNOK_clean_linker_0, # of connection points: 2
# Relax obj value: 0.436
# Max RMSD: 0.150
# Mean RMSD: 0.150
data_MOF--net-lcy-a--node1-GALJAG_clean_sbu_0--edge1-AJUNOK_clean_linker_0
_symmetry_space_group_name_H-M    P1
_symmetry_Int_Tables_number       1
_symmetry_cell_setting            triclinic
loop_
_symmetry_equiv_pos_as_xyz
'x, y, z'
_cell_length_a     42.004586
_cell_length_b     41.86717
_cell_length_c     42.056385
_cell_angle_alpha  89.939083
_cell_angle_beta   90.284448
_cell_angle_gamma 90.094124
loop_
_atom_site_label
_atom_site_type_symbol
_atom_site_fract_x
_atom_site_fract_y
_atom_site_fract_z
_atom_type_partial_charge
In0 In 0.22274 0.27124 0.43476 0.0
O1 O 0.26846 0.28442 0.46061 0.0
O2 O 0.22545 0.30567 0.47639 0.0
C3 C 0.24476 0.21766 0.40685 0.0
C4 C 0.1678 0.253 0.46083 0.0
C5 C 0.22206 0.31516 0.38792 0.0
O6 O 0.22388 0.23536 0.39454 0.0
O7 O 0.25484 0.227 0.43358 0.0
O8 O 0.19869 0.29709 0.39336 0.0
O9 O 0.24585 0.31064 0.40569 0.0
C10 C 0.25533 0.30395 0.47922 0.0
O11 O 0.17002 0.27682 0.44264 0.0
O12 O 0.19375 0.23905 0.46692 0.0
In13 In 0.96944 0.93573 0.61585 0.0
O14 O 0.02236 0.92974 0.6263 0.0
O15 O -0.01027 0.901 0.65191 0.0
C16 C 0.94266 0.90304 0.5672 0.0
C17 C 0.92953 0.95329 0.66225 0.0
C18 C 0.97788 -0.00574 0.59117 0.0
O19 O 0.96655 0.92089 0.56385 0.0
O20 O 0.93554 0.89805 0.59583 0.0
O21 O 0.95229 0.98563 0.60411 0.0
O22 O -0.00077 0.97313 0.5903 0.0
C23 C 0.01803 0.91031 0.64865 0.0
O24 O 0.95823 0.9623 0.66146 0.0
O25 O 0.92118 0.93527 0.63965 0.0
In26 In 0.27429 0.71314 0.92018 0.0
O27 O 0.30953 0.73002 0.95675 0.0
O28 O 0.32767 0.71331 0.91242 0.0
C29 C 0.25077 0.68332 0.86898 0.0
C30 C 0.25527 0.66921 0.96243 0.0
C31 C 0.25561 0.77251 0.90422 0.0
O32 O 0.28028 0.68378 0.87516 0.0
O33 O 0.23354 0.69797 0.8886 0.0
O34 O 0.24256 0.75711 0.92661 0.0
O35 O 0.27847 0.75822 0.89117 0.0
C36 C 0.33356 0.72475 0.93963 0.0
O37 O 0.24507 0.69766 0.96316 0.0
O38 O 0.2756 0.66368 0.94116 0.0
In39 In 0.51248 0.03314 0.12058 0.0
O40 O 0.49667 0.08204 0.13743 0.0
O41 O 0.46843 0.04215 0.15033 0.0
C42 C 0.54814 0.06233 0.07636 0.0
C43 C 0.5575 0.0047 0.15663 0.0
C44 C 0.48164 0.98453 0.0923 0.0
O45 O 0.5209 0.05101 0.07032 0.0
O46 O 0.55588 0.06135 0.10539 0.0
O47 O 0.49341 0.98257 0.11987 0.0
O48 O 0.48374 0.01182 0.0797 0.0
C49 C 0.47281 0.07182 0.15233 0.0
O50 O 0.5549 0.00047 0.12711 0.0
O51 O 0.53712 0.02339 0.16831 0.0
In52 In 0.664 0.16161 0.61905 0.0
O53 O 0.7128 0.13987 0.60931 0.0
O54 O 0.67251 0.11997 0.58576 0.0
C55 C 0.6923 0.21824 0.62989 0.0
C56 C 0.6156 0.18127 0.58208 0.0
C57 C 0.65679 0.12886 0.67373 0.0
O58 O 0.7017 0.199 0.60883 0.0
O59 O 0.66853 0.20886 0.64561 0.0
O60 O 0.66622 0.1574 0.67264 0.0
O61 O 0.64829 0.11762 0.6472 0.0
C62 C 0.70222 0.11903 0.59029 0.0
O63 O 0.61107 0.17187 0.61025 0.0
O64 O 0.64396 0.17963 0.57289 0.0
In65 In 0.00225 0.47604 0.80787 0.0
O66 O 0.01587 0.50702 0.76593 0.0
O67 O 0.04704 0.46892 0.77897 0.0
C68 C 0.96607 0.52591 0.82542 0.0
C69 C 0.96378 0.43074 0.78341 0.0
C70 C 0.04265 0.46747 0.85723 0.0
O71 O 0.97853 0.52397 0.79827 0.0
O72 O 0.9717 0.50254 0.84349 0.0
O73 O 0.02005 0.44818 0.85201 0.0
O74 O 0.04442 0.49031 0.83791 0.0
C75 C 0.04169 0.49244 0.76081 0.0
O76 O -0.00826 0.43526 0.77394 0.0
O77 O 0.95585 0.44747 0.80684 0.0
In78 In 0.79242 0.77533 0.0964 0.0
O79 O 0.84357 0.76683 0.08131 0.0
O80 O 0.80773 0.76931 0.04549 0.0
C81 C 0.80073 0.79531 0.15646 0.0
C82 C 0.75767 0.8267 0.07988 0.0
C83 C 0.76593 0.71743 0.10218 0.0
O84 O 0.78108 0.77394 0.14867 0.0
O85 O 0.81797 0.80535 0.13406 0.0
O86 O 0.75387 0.73936 0.08532 0.0
O87 O 0.79221 0.72445 0.11526 0.0
C88 C 0.8368 0.76601 0.05204 0.0
O89 O 0.74546 0.79924 0.08236 0.0
O90 O 0.78719 0.82779 0.08508 0.0
In91 In 0.46723 0.50512 0.33143 0.0
O92 O 0.4808 0.55394 0.31235 0.0
O93 O 0.51166 0.51507 0.30262 0.0
C94 C 0.42921 0.52139 0.37992 0.0
C95 C 0.42597 0.48547 0.28658 0.0
C96 C 0.4994 0.4619 0.36611 0.0
O97 O 0.45608 0.53439 0.37594 0.0
O98 O 0.4214 0.50149 0.35882 0.0
O99 O 0.48647 0.45492 0.33984 0.0
O100 O 0.49771 0.49095 0.37371 0.0
C101 C 0.50575 0.5443 0.29891 0.0
O102 O 0.44789 0.46781 0.29735 0.0
O103 O 0.42541 0.51332 0.29803 0.0
In104 In 0.36597 0.18478 0.27994 0.0
O105 O 0.37003 0.22535 0.31564 0.0
O106 O 0.40714 0.19085 0.31482 0.0
C107 C 0.3406 0.227 0.23903 0.0
C108 C 0.4004 0.14811 0.2408 0.0
C109 C 0.32192 0.15854 0.31792 0.0
O110 O 0.36718 0.23134 0.25246 0.0
O111 O 0.32672 0.20132 0.24635 0.0
O112 O 0.31526 0.17142 0.29158 0.0
O113 O 0.35137 0.15569 0.32331 0.0
C114 C 0.39578 0.21555 0.3277 0.0
O115 O 0.37626 0.13741 0.25504 0.0
O116 O 0.40747 0.1765 0.24741 0.0
In117 In 0.98765 0.17832 0.50979 0.0
O118 O 0.96175 0.22527 0.51846 0.0
O119 O 0.98413 0.20198 0.55767 0.0
C120 C 0.94748 0.15503 0.46552 0.0
C121 C 0.04458 0.20159 0.49385 0.0
C122 C 0.98949 0.12208 0.5401 0.0
O123 O 0.93864 0.17363 0.48731 0.0
O124 O 0.97721 0.15122 0.46401 0.0
O125 O 0.00953 0.12987 0.51927 0.0
O126 O 0.96904 0.14318 0.54633 0.0
C127 C 0.96807 0.22546 0.54788 0.0
O128 O 0.04027 0.18329 0.51716 0.0
O129 O 0.01982 0.2082 0.47793 0.0
In130 In 0.13613 0.83275 0.77693 0.0
O131 O 0.10503 0.87647 0.77192 0.0
O132 O 0.1357 0.86565 0.73382 0.0
C133 C 0.18062 0.84594 0.8218 0.0
C134 C 0.09282 0.79831 0.80898 0.0
C135 C 0.14815 0.78894 0.73179 0.0
O136 O 0.18755 0.84049 0.79319 0.0
O137 O 0.1512 0.8478 0.82685 0.0
O138 O 0.1204 0.79618 0.7404 0.0
O139 O 0.17009 0.80378 0.74621 0.0
C140 C 0.11265 0.88203 0.74356 0.0
O141 O 0.12119 0.78905 0.8054 0.0
O142 O 0.08643 0.8248 0.79619 0.0
In143 In 0.50433 0.81543 -0.00721 0.0
O144 O 0.52282 0.76803 0.01205 0.0
O145 O 0.53877 0.81102 0.03402 0.0
C146 C 0.54555 0.83934 0.9498 0.0
C147 C 0.45379 0.77999 0.97591 0.0
C148 C 0.48165 0.86745 0.02278 0.0
O149 O 0.55241 0.81642 0.96802 0.0
O150 O 0.51706 0.84845 0.95163 0.0
O151 O 0.49208 0.84329 0.03737 0.0
O152 O 0.48213 0.86514 -0.00708 0.0
C153 C 0.53931 0.78087 0.0338 0.0
O154 O 0.45631 0.79413 0.00213 0.0
O155 O 0.47693 0.78404 0.95729 0.0
In156 In 0.84983 0.30244 0.68322 0.0
O157 O 0.86879 0.35304 0.68598 0.0
O158 O 0.86319 0.32753 0.72925 0.0
C159 C 0.7879 0.30625 0.66636 0.0
C160 C 0.89593 0.29394 0.64022 0.0
C161 C 0.85046 0.24231 0.70574 0.0
O162 O 0.79684 0.30339 0.69485 0.0
O163 O 0.8103 0.31083 0.64711 0.0
O164 O 0.84812 0.24891 0.6766 0.0
O165 O 0.85247 0.26626 0.72386 0.0
C166 C 0.87319 0.35232 0.71562 0.0
O167 O 0.89954 0.28744 0.66933 0.0
O168 O 0.86917 0.3057 0.63299 0.0
In169 In 0.96585 0.69042 0.92282 0.0
O170 O 0.91776 0.7138 0.9321 0.0
O171 O 0.95601 0.72345 0.96375 0.0
C172 C 0.94198 0.6449 0.88423 0.0
C173 C 0.00391 0.7254 0.88542 0.0
C174 C -0.00121 0.65642 0.9662 0.0
O175 O 0.93435 0.64723 0.91308 0.0
O176 O 0.95998 0.66688 0.87446 0.0
O177 O 0.97319 0.64651 0.95397 0.0
O178 O 0.00781 0.68338 0.95631 0.0
C179 C 0.9271 0.72751 0.95718 0.0
O180 O 0.01319 0.70058 0.89975 0.0
O181 O 0.97506 0.73267 0.88994 0.0
In182 In 0.61217 0.67538 0.19016 0.0
O183 O 0.61128 0.71906 0.15872 0.0
O184 O 0.58229 0.67972 0.14479 0.0
C185 C 0.6146 0.721 0.23525 0.0
C186 C 0.57891 0.62873 0.21862 0.0
C187 C 0.66674 0.65658 0.16309 0.0
O188 O 0.63705 0.7015 0.2309 0.0
O189 O 0.59073 0.71673 0.21748 0.0
O190 O 0.66573 0.6696 0.19013 0.0
O191 O 0.63984 0.65068 0.15093 0.0
C192 C 0.5918 0.70777 0.13878 0.0
O193 O 0.60883 0.62833 0.21708 0.0
O194 O 0.56587 0.65197 0.20476 0.0
In195 In 0.49103 0.30323 0.48323 0.0
O196 O 0.44422 0.28779 0.4595 0.0
O197 O 0.4878 0.27289 0.43892 0.0
C198 C 0.47165 0.33254 0.53625 0.0
C199 C 0.52743 0.25879 0.51068 0.0
C200 C 0.50711 0.35569 0.45036 0.0
O201 O 0.45368 0.31392 0.52056 0.0
O202 O 0.49964 0.33512 0.52571 0.0
O203 O 0.48136 0.35285 0.46528 0.0
O204 O 0.52533 0.33172 0.45155 0.0
C205 C 0.45787 0.27304 0.43721 0.0
O206 O 0.53887 0.28107 0.49392 0.0
O207 O 0.49752 0.25879 0.51323 0.0
In208 In 0.26127 0.39887 0.21463 0.0
O209 O 0.31462 0.40143 0.21948 0.0
O210 O 0.28947 0.44508 0.22384 0.0
C211 C 0.23783 0.38737 0.27306 0.0
C212 C 0.22321 0.42661 0.17103 0.0
C213 C 0.27853 0.3397 0.19766 0.0
O214 O 0.26253 0.40377 0.26839 0.0
O215 O 0.224 0.3781 0.24802 0.0
O216 O 0.254 0.34516 0.21399 0.0
O217 O 0.29279 0.36435 0.1879 0.0
C218 C 0.31608 0.43099 0.22451 0.0
O219 O 0.24367 0.40588 0.16412 0.0
O220 O 0.22228 0.43387 0.20003 0.0
In221 In 0.80175 0.0596 0.77246 0.0
O222 O 0.81174 0.01924 0.7385 0.0
O223 O 0.85087 0.0386 0.76458 0.0
C224 C 0.73987 0.06793 0.75673 0.0
C225 C 0.79822 0.03733 0.83192 0.0
C226 C 0.82711 0.11475 0.75203 0.0
O227 O 0.75696 0.04656 0.74449 0.0
O228 O 0.75387 0.0845 0.77753 0.0
O229 O 0.82737 0.10698 0.78106 0.0
O230 O 0.81445 0.09459 0.73368 0.0
C231 C 0.84127 0.01862 0.74414 0.0
O232 O 0.79516 0.01984 0.80776 0.0
O233 O 0.80378 0.06635 0.82612 0.0
In234 In 0.13347 0.52649 0.02241 0.0
O235 O 0.17838 0.54268 -0.0029 0.0
O236 O 0.16463 0.56746 0.03906 0.0
C237 C 0.11274 0.49303 0.9715 0.0
C238 C 0.15239 0.48934 0.07096 0.0
C239 C 0.08675 0.5702 0.02311 0.0
O240 O 0.13786 0.50959 0.9713 0.0
O241 O 0.0986 0.49246 -0.00211 0.0
O242 O 0.08205 0.54211 0.03306 0.0
O243 O 0.11447 0.57569 0.01349 0.0
C244 C 0.18376 0.56552 0.01608 0.0
O245 O 0.13331 0.51221 0.07474 0.0
O246 O 0.16079 0.48473 0.04265 0.0
In247 In 0.68459 0.89708 0.27114 0.0
O248 O 0.67016 0.91808 0.22372 0.0
O249 O 0.64422 0.93269 0.26461 0.0
C250 C 0.73671 0.86907 0.24671 0.0
C251 C 0.70672 0.93442 0.3178 0.0
C252 C 0.64843 0.84454 0.27869 0.0
O253 O 0.72507 0.89438 0.23525 0.0
O254 O 0.72233 0.85839 0.27064 0.0
O255 O 0.66957 0.85244 0.2986 0.0
O256 O 0.64446 0.8641 0.25624 0.0
C257 C 0.64784 0.93481 0.23483 0.0
O258 O 0.6841 0.91504 0.32218 0.0
O259 O 0.71737 0.9352 0.28991 0.0
In260 In 0.35317 0.46375 0.55197 0.0
O261 O 0.30931 0.49385 0.55811 0.0
O262 O 0.34521 0.49745 0.59365 0.0
C263 C 0.40006 0.43262 0.58248 0.0
C264 C 0.32334 0.40972 0.53471 0.0
C265 C 0.37095 0.49565 0.49938 0.0
O266 O 0.40525 0.45466 0.56266 0.0
O267 O 0.37112 0.42903 0.58956 0.0
O268 O 0.34758 0.47678 0.5001 0.0
O269 O 0.38552 0.4987 0.52553 0.0
C270 C 0.31829 0.5065 0.58373 0.0
O271 O 0.31146 0.42898 0.55445 0.0
O272 O 0.34968 0.41824 0.52318 0.0
In273 In 0.18648 0.60791 0.69425 0.0
O274 O 0.20347 0.59114 0.64558 0.0
O275 O 0.23447 0.58659 0.68546 0.0
C276 C 0.17409 0.66842 0.67666 0.0
C277 C 0.14237 0.5617 0.70095 0.0
C278 C 0.203 0.62442 0.75376 0.0
O279 O 0.20197 0.65755 0.67878 0.0
O280 O 0.15253 0.64783 0.6806 0.0
O281 O 0.17502 0.62758 0.74325 0.0
O282 O 0.22218 0.61177 0.73461 0.0
C283 C 0.23033 0.58247 0.65614 0.0
O284 O 0.1682 0.56204 0.71629 0.0
O285 O 0.1392 0.58423 0.68126 0.0
In286 In 0.67948 0.97286 0.97401 0.0
O287 O 0.66937 0.93791 0.014 0.0
O288 O 0.7167 0.955 0.00909 0.0
C289 C 0.64471 0.02165 -0.00382 0.0
C290 C 0.72782 -0.00735 0.93726 0.0
C291 C 0.64256 0.93136 0.94146 0.0
O292 O 0.64129 0.01096 0.9683 0.0
O293 O 0.66617 0.00811 0.01242 0.0
O294 O 0.6345 0.96009 0.9458 0.0
O295 O 0.66971 0.92441 0.95221 0.0
C296 C 0.69789 0.9363 0.02322 0.0
O297 O 0.71611 0.01015 0.95848 0.0
O298 O 0.71448 0.96597 0.93411 0.0
In299 In 0.8171 0.00788 0.46887 0.0
O300 O 0.8006 0.00998 0.41752 0.0
O301 O 0.77873 0.97604 0.44797 0.0
C302 C 0.85725 0.05503 0.45111 0.0
C303 C 0.78162 0.03618 0.51397 0.0
C304 C 0.84927 0.95609 0.48993 0.0
O305 O 0.86642 0.02698 0.45702 0.0
O306 O 0.82771 0.05929 0.45403 0.0
O307 O 0.82886 0.97045 0.50654 0.0
O308 O 0.8531 0.96764 0.46253 0.0
C309 C 0.78008 0.98825 0.42063 0.0
O310 O 0.81155 0.03413 0.51621 0.0
O311 O 0.76987 0.02317 0.48958 0.0
C312 C 0.07896 0.24031 0.4651 0.0
C313 C 0.07619 0.21465 0.4864 0.0
C314 C 0.10873 0.25325 0.45784 0.0
C315 C 0.13676 0.24074 0.47138 0.0
H316 H 0.05801 0.25053 0.45396 0.0
H317 H 0.10975 0.27277 0.44095 0.0
S318 S 0.14229 0.17383 0.52899 0.0
N319 N 0.10387 0.17742 0.52144 0.0
N320 N 0.15991 0.20167 0.50751 0.0
C321 C 0.13432 0.21531 0.493 0.0
C322 C 0.10398 0.20225 0.50057 0.0
C323 C 0.07475 0.90366 0.66512 0.0
C324 C 0.04239 0.90488 0.67318 0.0
C325 C 0.09808 0.89898 0.68859 0.0
C326 C 0.0898 0.89623 0.72089 0.0
H327 H 0.08195 0.90529 0.64047 0.0
H328 H 0.1226 0.89608 0.68124 0.0
S329 S 0.00844 0.90348 0.75442 0.0
N330 N 0.00336 0.90664 0.71562 0.0
N331 N 0.04709 0.89887 0.75984 0.0
C332 C 0.05762 0.89998 0.72933 0.0
C333 C 0.03391 0.90389 0.70541 0.0
C334 C 0.38935 0.74025 0.92687 0.0
C335 C 0.36577 0.73417 0.94972 0.0
C336 C 0.41857 0.75388 0.93563 0.0
C337 C 0.42501 0.76172 0.9675 0.0
H338 H 0.38468 0.73588 0.90189 0.0
H339 H 0.43559 0.75953 0.91719 0.0
S340 S 0.37305 0.74549 0.03688 0.0
N341 N 0.35212 0.73342 0.00582 0.0
N342 N 0.40701 0.75883 0.02241 0.0
C343 C 0.40242 0.75372 -0.00922 0.0
C344 C 0.37275 0.73998 0.98185 0.0
C345 C 0.42895 0.07855 0.19134 0.0
C346 C 0.45328 0.09228 0.17293 0.0
C347 C 0.41182 0.09681 0.21317 0.0
C348 C 0.4185 0.1294 0.21742 0.0
H349 H 0.42342 0.05335 0.18932 0.0
H350 H 0.3935 0.08517 0.22707 0.0
S351 S 0.47864 0.17724 0.17362 0.0
N352 N 0.48226 0.14074 0.15933 0.0
N353 N 0.45014 0.17511 0.2004 0.0
C354 C 0.44229 0.14363 0.19864 0.0
C355 C 0.45965 0.12506 0.17634 0.0
C356 C 0.6005 0.21244 0.53426 0.0
C357 C 0.59107 0.19691 0.56238 0.0
C358 C 0.57936 0.23162 0.51718 0.0
C359 C 0.54786 0.23562 0.52729 0.0
H360 H 0.62482 0.21091 0.52594 0.0
H361 H 0.58802 0.24397 0.49627 0.0
S362 S 0.51033 0.1977 0.59758 0.0
N363 N 0.54754 0.18504 0.59845 0.0
N364 N 0.50739 0.22083 0.56587 0.0
C365 C 0.5375 0.21885 0.55435 0.0
C366 C 0.55923 0.19954 0.57204 0.0
C367 C 0.89101 0.38074 0.76454 0.0
C368 C 0.89457 0.37477 0.7319 0.0
C369 C 0.91359 0.39891 0.78123 0.0
C370 C 0.9409 0.41068 0.76595 0.0
H371 H 0.87077 0.37114 0.77728 0.0
H372 H 0.9099 0.40334 0.80632 0.0
S373 S 0.96151 0.40089 0.68081 0.0
N374 N 0.92729 0.38195 0.68486 0.0
N375 N 0.97016 0.41527 0.71634 0.0
C376 C 0.94475 0.40473 0.73332 0.0
C377 C 0.92141 0.38699 0.71622 0.0
C378 C 0.85037 0.75123 -0.00344 0.0
C379 C 0.86057 0.7602 0.02719 0.0
C380 C 0.87226 0.74247 0.97326 0.0
C381 C 0.90508 0.7426 0.97974 0.0
H382 H 0.82523 0.74972 -0.00914 0.0
H383 H 0.86327 0.73427 0.9505 0.0
S384 S 0.94409 0.76874 0.05483 0.0
N385 N 0.90559 0.77189 0.06182 0.0
N386 N 0.94694 0.75576 0.01791 0.0
C387 C 0.91568 0.75359 0.00962 0.0
C388 C 0.89335 0.76225 0.03342 0.0
C389 C 0.52946 0.61373 0.24697 0.0
C390 C 0.56062 0.60588 0.23785 0.0
C391 C 0.51214 0.59385 0.2672 0.0
C392 C 0.5252 0.56518 0.27865 0.0
H393 H 0.51849 0.63574 0.23894 0.0
H394 H 0.48822 0.60091 0.27364 0.0
S395 S 0.60564 0.53338 0.26129 0.0
N396 N 0.60384 0.56743 0.24152 0.0
N397 N 0.57096 0.52961 0.27924 0.0
C398 C 0.55618 0.55677 0.26942 0.0
C399 C 0.574 0.57725 0.24908 0.0
C400 C 0.20554 0.43171 0.11488 0.0
C401 C 0.2026 0.44139 0.14671 0.0
C402 C 0.18801 0.44648 0.09078 0.0
C403 C 0.16684 0.4715 0.09755 0.0
H404 H 0.22204 0.41302 0.10833 0.0
H405 H 0.19181 0.43875 0.06651 0.0
S406 S 0.14854 0.50411 0.1774 0.0
N407 N 0.17548 0.4762 0.18412 0.0
N408 N 0.14241 0.50412 0.13859 0.0
C409 C 0.1626 0.48057 0.12943 0.0
C410 C 0.18055 0.46548 0.15408 0.0
C411 C 0.75827 0.03634 0.91126 0.0
C412 C 0.75278 0.0035 0.91546 0.0
C413 C 0.77626 0.04739 0.8856 0.0
C414 C 0.78913 0.02582 0.86354 0.0
H415 H 0.74666 0.05369 0.92637 0.0
H416 H 0.7777 0.07291 0.88155 0.0
S417 S 0.78853 0.93748 0.86908 0.0
N418 N 0.76675 0.94951 0.89935 0.0
N419 N 0.80052 0.97035 0.85099 0.0
C420 C 0.78699 -0.00704 0.86974 0.0
C421 C 0.76872 0.98174 0.89579 0.0
C422 C 0.7174 0.94195 0.37541 0.0
C423 C 0.72235 0.95179 0.3439 0.0
C424 C 0.73577 0.95448 0.40022 0.0
C425 C 0.75952 0.97743 0.39435 0.0
H426 H 0.7002 0.92345 0.38085 0.0
H427 H 0.73181 0.94551 0.42405 0.0
S428 S 0.77913 0.0138 0.31634 0.0
N429 N 0.7507 0.98772 0.30834 0.0
N430 N 0.78518 0.01146 0.35508 0.0
C431 C 0.7635 0.98874 0.36315 0.0
C432 C 0.7449 0.97587 0.33787 0.0
C433 C 0.24576 0.55411 0.60671 0.0
C434 C 0.25438 0.56652 0.6365 0.0
C435 C 0.26708 0.53549 0.58939 0.0
C436 C 0.29775 0.52875 0.60123 0.0
H437 H 0.22204 0.55778 0.59719 0.0
H438 H 0.25906 0.52559 0.56694 0.0
S439 S 0.33312 0.55902 0.67635 0.0
N440 N 0.29652 0.57331 0.67594 0.0
N441 N 0.33662 0.53821 0.64324 0.0
C442 C 0.30723 0.54239 0.63024 0.0
C443 C 0.2855 0.56132 0.64793 0.0
C444 C 0.27391 0.37751 0.52776 0.0
C445 C 0.30709 0.38017 0.52473 0.0
C446 C 0.25747 0.3515 0.51472 0.0
C447 C 0.27369 0.32714 0.49843 0.0
H448 H 0.26035 0.39639 0.5389 0.0
H449 H 0.23173 0.35132 0.51615 0.0
S450 S 0.36132 0.32023 0.48942 0.0
N451 N 0.35611 0.35445 0.50812 0.0
N452 N 0.32531 0.30535 0.48373 0.0
C453 C 0.30716 0.32832 0.49748 0.0
C454 C 0.32385 0.35495 0.51057 0.0
C455 C 0.91769 0.98673 0.70961 0.0
C456 C 0.90681 0.9659 0.68569 0.0
C457 C 0.89631 0.00256 0.72947 0.0
C458 C 0.86328 -0.0018 0.72606 0.0
H459 H 0.94287 -0.00826 0.71235 0.0
H460 H 0.90575 0.01927 0.74678 0.0
S461 S 0.82277 0.94345 0.66941 0.0
N462 N 0.86101 0.93962 0.66147 0.0
N463 N 0.82077 0.96945 0.6988 0.0
C464 C 0.85215 0.97608 0.70342 0.0
C465 C 0.87395 0.95988 0.68323 0.0
C466 C 0.24751 0.61119 0.97264 0.0
C467 C 0.24135 0.64302 0.98144 0.0
C468 C 0.23016 0.58585 0.98563 0.0
C469 C 0.20639 0.59134 0.00831 0.0
H470 H 0.26456 0.60583 0.95414 0.0
H471 H 0.23438 0.56197 0.97673 0.0
S472 S 0.18421 0.66979 0.04278 0.0
N473 N 0.21211 0.67835 0.01659 0.0
N474 N 0.17981 0.63062 0.04155 0.0
C475 C 0.20179 0.62276 0.01928 0.0
C476 C 0.21918 0.64867 0.00568 0.0
C477 C 0.58049 0.98943 0.20935 0.0
C478 C 0.58192 0.98823 0.17599 0.0
C479 C 0.60229 0.97254 0.2282 0.0
C480 C 0.62643 0.95398 0.21438 0.0
H481 H 0.56202 0.00302 0.22105 0.0
H482 H 0.5999 0.97373 0.25381 0.0
S483 S 0.64159 0.94442 0.12796 0.0
N484 N 0.61025 0.96804 0.12982 0.0
N485 N 0.65125 0.93642 0.16521 0.0
C486 C 0.62866 0.95326 0.18101 0.0
C487 C 0.60638 0.97035 0.16183 0.0
C488 C 0.70978 0.07739 0.54883 0.0
C489 C 0.72285 0.09613 0.57336 0.0
C490 C 0.72888 0.05721 0.53061 0.0
C491 C 0.76183 0.05485 0.53623 0.0
H492 H 0.68468 0.07888 0.543 0.0
H493 H 0.71775 0.044 0.5114 0.0
S494 S 0.80725 0.09631 0.59986 0.0
N495 N 0.7704 0.10929 0.60396 0.0
N496 N 0.80639 0.07119 0.56964 0.0
C497 C 0.77504 0.07236 0.5616 0.0
C498 C 0.75554 0.09306 0.58017 0.0
C499 C 0.12279 0.51351 0.72939 0.0
C500 C 0.11628 0.53966 0.70939 0.0
C501 C 0.09815 0.49646 0.74391 0.0
C502 C 0.06619 0.50523 0.73923 0.0
H503 H 0.14711 0.50725 0.73531 0.0
H504 H 0.10442 0.47776 0.76064 0.0
S505 S 0.0363 0.56828 0.68479 0.0
N506 N 0.07544 0.5707 0.6822 0.0
N507 N 0.02909 0.53883 0.70991 0.0
C508 C 0.05923 0.52949 0.71715 0.0
C509 C 0.08435 0.54666 0.70207 0.0
C510 C 0.74077 0.91192 0.0559 0.0
C511 C 0.70967 0.91025 0.04368 0.0
C512 C 0.75546 0.88501 0.06901 0.0
C513 C 0.73967 0.85536 0.07014 0.0
H514 H 0.75445 0.9338 0.05399 0.0
H515 H 0.77989 0.88724 0.07709 0.0
S516 S 0.65678 0.83909 0.04384 0.0
N517 N 0.66249 0.87725 0.03575 0.0
N518 N 0.69027 0.8265 0.06028 0.0
C519 C 0.70782 0.85381 0.05986 0.0
C520 C 0.69274 0.88135 0.04668 0.0
C521 C 0.34558 0.478 0.24636 0.0
C522 C 0.34601 0.44654 0.23478 0.0
C523 C 0.37234 0.49117 0.26146 0.0
C524 C 0.40041 0.47327 0.26561 0.0
H525 H 0.32397 0.49206 0.24516 0.0
H526 H 0.37041 0.51496 0.27136 0.0
S527 S 0.41528 0.39143 0.23544 0.0
N528 N 0.37808 0.39908 0.22525 0.0
N529 N 0.42818 0.42378 0.25386 0.0
C530 C 0.40187 0.4426 0.25221 0.0
C531 C 0.37471 0.42924 0.23671 0.0
C532 C 0.45747 0.23757 0.38976 0.0
C533 C 0.4408 0.2581 0.41024 0.0
C534 C 0.44269 0.22399 0.36313 0.0
C535 C 0.41077 0.23076 0.35568 0.0
H536 H 0.48224 0.23187 0.39429 0.0
H537 H 0.4565 0.20828 0.34814 0.0
S538 S 0.3563 0.28261 0.40186 0.0
N539 N 0.39041 0.2842 0.42151 0.0
N540 N 0.36261 0.25887 0.37121 0.0
C541 C 0.39371 0.25118 0.37596 0.0
C542 C 0.4087 0.26476 0.40334 0.0
C543 C 0.92714 0.26623 0.56108 0.0
C544 C 0.95434 0.24886 0.57003 0.0
C545 C 0.90957 0.28312 0.58369 0.0
C546 C 0.91873 0.28323 0.61592 0.0
H547 H 0.91812 0.26505 0.53693 0.0
H548 H 0.88758 0.29438 0.57616 0.0
S549 S -0.00797 0.24724 0.64997 0.0
N550 N -0.00753 0.23695 0.6121 0.0
N551 N 0.95955 0.26885 0.65461 0.0
C552 C 0.94763 0.26861 0.6245 0.0
C553 C 0.96542 0.25133 0.60151 0.0
C554 C 0.05745 0.7346 0.86198 0.0
C555 C 0.02553 0.74422 0.86507 0.0
C556 C 0.07887 0.75207 0.84348 0.0
C557 C 0.06924 0.77986 0.82737 0.0
H558 H 0.06613 0.71349 0.87412 0.0
H559 H 0.10327 0.74384 0.84212 0.0
S560 S 0.98798 0.81467 0.82669 0.0
N561 N 0.98507 0.78291 0.84979 0.0
N562 N 0.02541 0.81583 0.81494 0.0
C563 C 0.03728 0.78957 0.82986 0.0
C564 C 0.01541 0.77173 0.84873 0.0
C565 C 0.56123 0.71177 0.0878 0.0
C566 C 0.5806 0.72633 0.11099 0.0
C567 C 0.54901 0.72933 0.06213 0.0
C568 C 0.55552 0.76214 0.05887 0.0
H569 H 0.55505 0.68671 0.08969 0.0
H570 H 0.53356 0.71726 0.04527 0.0
S571 S 0.60647 0.81122 0.11222 0.0
N572 N 0.60699 0.77522 0.12822 0.0
N573 N 0.58383 0.8082 0.08018 0.0
C574 C 0.57564 0.77679 0.08137 0.0
C575 C 0.58822 0.75889 0.10739 0.0
C576 C 0.20199 0.33339 0.33517 0.0
C577 C 0.2226 0.3379 0.3612 0.0
C578 C 0.2055 0.35137 0.30733 0.0
C579 C 0.2296 0.3746 0.30471 0.0
H580 H 0.1842 0.31463 0.33558 0.0
H581 H 0.19038 0.34571 0.28716 0.0
S582 S 0.28551 0.39974 0.36864 0.0
N583 N 0.26491 0.37014 0.38442 0.0
N584 N 0.27134 0.40427 0.33223 0.0
C585 C 0.24846 0.38127 0.33165 0.0
C586 C 0.24505 0.36276 0.35987 0.0
C587 C 0.86261 0.91719 0.53273 0.0
C588 C 0.87063 0.93162 0.50367 0.0
C589 C 0.88581 0.90213 0.55144 0.0
C590 C 0.91796 0.90191 0.54204 0.0
H591 H 0.83891 0.91993 0.54239 0.0
H592 H 0.87912 0.89439 0.57508 0.0
S593 S 0.9492 0.92798 0.46396 0.0
N594 N 0.91119 0.93797 0.46299 0.0
N595 N 0.95503 0.91049 0.49871 0.0
C596 C 0.92517 0.91178 0.51095 0.0
C597 C 0.90143 0.92667 0.49164 0.0
C598 C 0.24539 0.63333 0.79432 0.0
C599 C 0.21352 0.6373 0.7847 0.0
C600 C 0.25712 0.64801 0.82184 0.0
C601 C 0.23739 0.66711 0.8408 0.0
H602 H 0.26168 0.61932 0.78016 0.0
H603 H 0.28194 0.6446 0.82807 0.0
S604 S 0.15177 0.68441 0.82651 0.0
N605 N 0.16215 0.66113 0.79667 0.0
N606 N 0.18415 0.68868 0.84851 0.0
C607 C 0.20523 0.67069 0.8319 0.0
C608 C 0.19329 0.65576 0.80382 0.0
C609 C 0.60471 0.06767 0.06086 0.0
C610 C 0.57258 0.06568 0.05143 0.0
C611 C 0.62888 0.05649 0.04106 0.0
C612 C 0.62171 0.04356 0.01104 0.0
H613 H 0.61104 0.07439 0.08495 0.0
H614 H 0.6529 0.05529 0.0505 0.0
S615 S 0.54256 0.04268 0.97158 0.0
N616 N 0.53571 0.05701 0.00746 0.0
N617 N 0.58131 0.03637 0.96999 0.0
C618 C 0.59042 0.04643 -0.00062 0.0
C619 C 0.56573 0.05757 0.01968 0.0
C620 C 0.67543 0.12326 0.72939 0.0
C621 C 0.66543 0.10843 0.70106 0.0
C622 C 0.69688 0.1081 0.74997 0.0
C623 C 0.70907 0.07772 0.7427 0.0
H624 H 0.66947 0.14801 0.73395 0.0
H625 H 0.70643 0.1217 0.76974 0.0
S626 S 0.68234 0.02498 0.67699 0.0
N627 N 0.66306 0.05882 0.67101 0.0
N628 N 0.70365 0.03037 0.70965 0.0
C629 C 0.69527 0.06073 0.71731 0.0
C630 C 0.67321 0.0761 0.69647 0.0
C631 C 0.06828 0.46483 0.94323 0.0
C632 C 0.09843 0.47963 0.94214 0.0
C633 C 0.05117 0.45811 0.91526 0.0
C634 C 0.06358 0.4663 0.88541 0.0
H635 H 0.05698 0.46008 0.96585 0.0
H636 H 0.0272 0.44872 0.91716 0.0
S637 S 0.14355 0.49995 0.86915 0.0
N638 N 0.14169 0.4979 0.9083 0.0
N639 N 0.10923 0.48584 0.85596 0.0
C640 C 0.09467 0.47855 0.88385 0.0
C641 C 0.11221 0.48505 0.91219 0.0
C642 C 0.77929 0.86541 0.20594 0.0
C643 C 0.76165 0.85078 0.23027 0.0
C644 C 0.7965 0.84705 0.1842 0.0
C645 C 0.79595 0.81352 0.18585 0.0
H646 H 0.77786 0.89099 0.20219 0.0
H647 H 0.80717 0.85904 0.16404 0.0
S648 S 0.75917 0.76413 0.24886 0.0
N649 N 0.7495 0.80118 0.25808 0.0
N650 N 0.78109 0.76673 0.21649 0.0
C651 C 0.78163 0.79891 0.21218 0.0
C652 C 0.76456 0.81757 0.23462 0.0
C653 C 0.41358 0.52242 0.46784 0.0
C654 C 0.38264 0.50957 0.46935 0.0
C655 C 0.4277 0.52936 0.43851 0.0
C656 C 0.41134 0.52355 0.40985 0.0
H657 H 0.42778 0.52511 0.48924 0.0
H658 H 0.45241 0.53684 0.43827 0.0
S659 S 0.32769 0.49641 0.4012 0.0
N660 N 0.3344 0.49614 0.43991 0.0
N661 N 0.36112 0.50893 0.38486 0.0
C662 C 0.37941 0.51368 0.4112 0.0
C663 C 0.365 0.50673 0.44098 0.0
C664 C 0.29075 0.18153 0.39709 0.0
C665 C 0.25996 0.19172 0.38871 0.0
C666 C 0.30982 0.16542 0.37509 0.0
C667 C 0.29864 0.15935 0.34405 0.0
H668 H 0.30139 0.18882 0.41947 0.0
H669 H 0.33456 0.16135 0.38125 0.0
S670 S 0.21643 0.1719 0.31435 0.0
N671 N 0.21658 0.18754 0.35038 0.0
N672 N 0.25258 0.15752 0.30894 0.0
C673 C 0.26633 0.16479 0.33736 0.0
C674 C 0.24693 0.18112 0.35972 0.0
C675 C 0.95917 0.05015 0.5849 0.0
C676 C 0.98228 0.02678 0.57858 0.0
C677 C 0.96223 0.08116 0.57305 0.0
C678 C 0.9884 0.08991 0.55427 0.0
H679 H 0.93842 0.04448 0.59903 0.0
H680 H 0.94358 0.09821 0.57822 0.0
S681 S 0.05586 0.03773 0.53135 0.0
N682 N 0.03255 0.01453 0.55287 0.0
N683 N 0.03825 0.07294 0.53034 0.0
C684 C 0.01194 0.0669 0.54807 0.0
C685 C 0.00889 0.03529 0.5603 0.0
C686 C 0.20998 0.81004 0.89786 0.0
C687 C 0.24107 0.80114 0.88948 0.0
C688 C 0.19145 0.82896 0.87745 0.0
C689 C 0.20338 0.83926 0.8479 0.0
H690 H 0.19877 0.79987 0.9187 0.0
H691 H 0.16663 0.83246 0.88336 0.0
S692 S 0.28639 0.83076 0.81982 0.0
N693 N 0.2854 0.81055 0.85354 0.0
N694 N 0.25028 0.84556 0.81493 0.0
C695 C 0.23581 0.83455 0.84163 0.0
C696 C 0.25477 0.81554 0.86251 0.0
C697 C 0.47229 0.92601 0.08998 0.0
C698 C 0.47269 0.95564 0.07422 0.0
C699 C 0.4728 0.89737 0.07296 0.0
C700 C 0.47365 0.89732 0.03955 0.0
H701 H 0.47372 0.92486 0.11569 0.0
H702 H 0.47441 0.8752 0.08617 0.0
S703 S 0.46956 0.96842 0.98692 0.0
N704 N 0.46977 0.9832 0.02329 0.0
N705 N 0.47063 0.92923 -0.00878 0.0
C706 C 0.47094 0.92666 0.02344 0.0
C707 C 0.47045 0.95591 0.04083 0.0
C708 C 0.73133 0.26028 0.61506 0.0
C709 C 0.71019 0.24762 0.63757 0.0
C710 C 0.75402 0.28319 0.62372 0.0
C711 C 0.75683 0.29364 0.65542 0.0
H712 H 0.7317 0.25098 0.59102 0.0
H713 H 0.77138 0.29028 0.60609 0.0
S714 S 0.70261 0.27295 0.72167 0.0
N715 N 0.68967 0.2513 0.69144 0.0
N716 N 0.73296 0.29388 0.70797 0.0
C717 C 0.73345 0.28394 0.67723 0.0
C718 C 0.70999 0.26091 0.66826 0.0
C719 C 0.95568 0.58414 0.82037 0.0
C720 C 0.95082 0.55538 0.83692 0.0
C721 C 0.9493 0.61355 0.8347 0.0
C722 C 0.93765 0.61511 0.86597 0.0
H723 H 0.96695 0.58415 0.79722 0.0
H724 H 0.95596 0.63513 0.82218 0.0
S725 S 0.91339 0.54633 0.91611 0.0
N726 N 0.92818 0.52998 0.88368 0.0
N727 N 0.91584 0.5853 0.91062 0.0
C728 C 0.92887 0.58647 0.8811 0.0
C729 C 0.93563 0.5565 0.8666 0.0
C730 C 0.72525 0.6633 0.15946 0.0
C731 C 0.69598 0.6582 0.14389 0.0
C732 C 0.75034 0.67878 0.14398 0.0
C733 C 0.7466 0.69002 0.11266 0.0
H734 H 0.7276 0.65848 0.18469 0.0
H735 H 0.77113 0.68532 0.15788 0.0
S736 S 0.67827 0.67434 0.05887 0.0
N737 N 0.66753 0.6588 0.09329 0.0
N738 N 0.7145 0.6887 0.0645 0.0
C739 C 0.71941 0.68072 0.09547 0.0
C740 C 0.69407 0.66446 0.11105 0.0
C741 C 0.51923 0.40699 0.37804 0.0
C742 C 0.5093 0.4371 0.38898 0.0
C743 C 0.52166 0.38093 0.39891 0.0
C744 C 0.51337 0.38417 0.43104 0.0
H745 H 0.52353 0.40317 0.35295 0.0
H746 H 0.52753 0.35766 0.38936 0.0
S747 S 0.48876 0.45831 0.47208 0.0
N748 N 0.49401 0.46917 0.43471 0.0
N749 N 0.49745 0.41988 0.47348 0.0
C750 C 0.50536 0.41448 0.44264 0.0
C751 C 0.50365 0.44111 0.42167 0.0
C752 C 0.29162 0.2538 0.21925 0.0
C753 C 0.32503 0.25213 0.22008 0.0
C754 C 0.27622 0.28144 0.20857 0.0
C755 C 0.29374 0.308 0.19796 0.0
H756 H 0.27733 0.23479 0.22933 0.0
H757 H 0.25058 0.28287 0.21091 0.0
S758 S 0.38151 0.31244 0.18883 0.0
N759 N 0.37497 0.27698 0.20474 0.0
N760 N 0.34606 0.32875 0.18395 0.0
C761 C 0.32698 0.30504 0.19511 0.0
C762 C 0.34266 0.27711 0.20648 0.0
C763 C 0.83914 0.17229 0.76157 0.0
C764 C 0.8378 0.14622 0.74057 0.0
C765 C 0.84453 0.20331 0.75028 0.0
C766 C 0.84887 0.2092 0.71766 0.0
H767 H 0.83456 0.16895 0.78668 0.0
H768 H 0.84407 0.22289 0.76709 0.0
S769 S 0.85273 0.1483 0.65374 0.0
N770 N 0.84482 0.12773 0.68627 0.0
N771 N 0.85522 0.18595 0.66505 0.0
C772 C 0.84963 0.18304 0.69674 0.0
C773 C 0.84401 0.15154 0.70821 0.0
C774 C 0.00988 0.60434 -0.00711 0.0
C775 C 0.01833 0.63648 0.98761 0.0
C776 C 0.03109 0.58318 0.0077 0.0
C777 C 0.06135 0.5936 0.01751 0.0
H778 H 0.98761 0.59493 0.98373 0.0
H779 H 0.02478 0.55811 0.00904 0.0
S780 S 0.0923 0.67654 0.01528 0.0
N781 N 0.05696 0.67866 -0.00196 0.0
N782 N 0.09686 0.63877 0.02561 0.0
C783 C 0.06878 0.62623 0.01526 0.0
C784 C 0.04723 0.64776 0.00033 0.0
C785 C 0.60716 0.80723 0.25861 0.0
C786 C 0.63478 0.81216 0.27693 0.0
C787 C 0.59894 0.77672 0.24782 0.0
C788 C 0.61844 0.75023 0.25447 0.0
H789 H 0.59305 0.82738 0.25065 0.0
H790 H 0.57867 0.77447 0.23193 0.0
S791 S 0.68996 0.74962 0.30649 0.0
N792 N 0.6789 0.78744 0.30539 0.0
N793 N 0.66376 0.73004 0.28449 0.0
C794 C 0.64429 0.75433 0.27541 0.0
C795 C 0.65238 0.78538 0.28685 0.0
C796 C 0.41059 0.37467 0.58534 0.0
C797 C 0.4228 0.40602 0.58558 0.0
C798 C 0.42818 0.34956 0.57234 0.0
C799 C 0.45877 0.3549 0.56005 0.0
H800 H 0.3859 0.37016 0.59124 0.0
H801 H 0.4166 0.32663 0.56918 0.0
S802 S 0.50476 0.43056 0.56455 0.0
N803 N 0.46949 0.43957 0.57918 0.0
N804 N 0.50319 0.39214 0.55581 0.0
C805 C 0.47311 0.38489 0.56519 0.0
C806 C 0.45494 0.41058 0.57785 0.0
C807 C 0.19244 0.72325 0.68978 0.0
C808 C 0.16758 0.70288 0.67999 0.0
C809 C 0.18599 0.75248 0.70447 0.0
C810 C 0.1545 0.76242 0.70958 0.0
H811 H 0.21698 0.71538 0.68881 0.0
H812 H 0.2058 0.76621 0.71385 0.0
S813 S 0.08135 0.72167 0.68063 0.0
N814 N 0.11064 0.69742 0.67078 0.0
N815 N 0.09844 0.75261 0.69808 0.0
C816 C 0.12962 0.74419 0.69625 0.0
C817 C 0.1362 0.71435 0.68141 0.0
C818 C 0.56334 0.89169 0.92825 0.0
C819 C 0.57048 0.85963 0.93548 0.0
C820 C 0.58748 0.91474 0.92661 0.0
C821 C 0.61948 0.90641 0.93186 0.0
H822 H 0.53887 0.89971 0.9271 0.0
H823 H 0.58066 0.93959 0.9241 0.0
S824 S 0.65108 0.82427 0.94236 0.0
N825 N 0.61205 0.81969 0.94112 0.0
N826 N 0.65751 0.86289 0.93759 0.0
C827 C 0.62719 0.87377 0.9344 0.0
C828 C 0.60259 0.85036 0.9363 0.0
C829 C 0.86976 0.11324 0.45088 0.0
C830 C 0.87975 0.08163 0.44571 0.0
C831 C 0.89193 0.13812 0.45363 0.0
C832 C 0.92478 0.13228 0.45094 0.0
H833 H 0.84494 0.11848 0.45533 0.0
H834 H 0.88345 0.16156 0.4604 0.0
S835 S 0.96239 0.05481 0.43054 0.0
N836 N 0.92401 0.04666 0.43294 0.0
N837 N 0.9657 0.09345 0.43764 0.0
C838 C 0.93468 0.10147 0.44201 0.0
C839 C 0.91213 0.07606 0.43963 0.0
loop_
_geom_bond_atom_site_label_1
_geom_bond_atom_site_label_2
_geom_bond_distance
_geom_bond_site_symmetry_2
_ccdc_geom_bond_type
In0 O1 2.294 . S
In0 O2 2.326 . S
In0 O6 2.266 . S
In0 O7 2.326 . S
In0 O8 2.266 . S
In0 O9 2.326 . S
In0 O11 2.294 . S
In0 O12 2.326 . S
O1 In0 2.294 . S
O1 C10 1.240 . S
O2 In0 2.326 . S
O2 C10 1.252 . S
C3 O6 1.252 . S
C3 O7 1.260 . S
C4 O11 1.240 . S
C4 O12 1.252 . S
C5 O8 1.252 . S
C5 O9 1.260 . S
O6 In0 2.266 . S
O6 C3 1.252 . S
O7 In0 2.326 . S
O7 C3 1.260 . S
O8 In0 2.266 . S
O8 C5 1.252 . S
O9 In0 2.326 . S
O9 C5 1.260 . S
C10 O1 1.240 . S
C10 O2 1.252 . S
O11 In0 2.294 . S
O11 C4 1.240 . S
O12 In0 2.326 . S
O12 C4 1.252 . S
In13 O14 2.294 . S
In13 O15 2.326 . S
In13 O19 2.266 . S
In13 O20 2.326 . S
In13 O21 2.266 . S
In13 O22 2.326 . S
In13 O24 2.294 . S
In13 O25 2.326 . S
O14 In13 2.294 . S
O14 C23 1.240 . S
O15 In13 2.326 . S
O15 C23 1.252 . S
C16 O19 1.252 . S
C16 O20 1.260 . S
C17 O24 1.240 . S
C17 O25 1.252 . S
C18 O21 1.252 . S
C18 O22 1.260 . S
O19 In13 2.266 . S
O19 C16 1.252 . S
O20 In13 2.326 . S
O20 C16 1.260 . S
O21 In13 2.266 . S
O21 C18 1.252 . S
O22 In13 2.326 . S
O22 C18 1.260 . S
C23 O14 1.240 . S
C23 O15 1.252 . S
O24 In13 2.294 . S
O24 C17 1.240 . S
O25 In13 2.326 . S
O25 C17 1.252 . S
In26 O27 2.294 . S
In26 O28 2.326 . S
In26 O32 2.266 . S
In26 O33 2.326 . S
In26 O34 2.266 . S
In26 O35 2.326 . S
In26 O37 2.294 . S
In26 O38 2.326 . S
O27 In26 2.294 . S
O27 C36 1.240 . S
O28 In26 2.326 . S
O28 C36 1.252 . S
C29 O32 1.252 . S
C29 O33 1.260 . S
C30 O37 1.240 . S
C30 O38 1.252 . S
C31 O34 1.252 . S
C31 O35 1.260 . S
O32 In26 2.266 . S
O32 C29 1.252 . S
O33 In26 2.326 . S
O33 C29 1.260 . S
O34 In26 2.266 . S
O34 C31 1.252 . S
O35 In26 2.326 . S
O35 C31 1.260 . S
C36 O27 1.240 . S
C36 O28 1.252 . S
O37 In26 2.294 . S
O37 C30 1.240 . S
O38 In26 2.326 . S
O38 C30 1.252 . S
In39 O40 2.294 . S
In39 O41 2.326 . S
In39 O45 2.266 . S
In39 O46 2.326 . S
In39 O47 2.266 . S
In39 O48 2.326 . S
In39 O50 2.294 . S
In39 O51 2.326 . S
O40 In39 2.294 . S
O40 C49 1.240 . S
O41 In39 2.326 . S
O41 C49 1.252 . S
C42 O45 1.252 . S
C42 O46 1.260 . S
C43 O50 1.240 . S
C43 O51 1.252 . S
C44 O47 1.252 . S
C44 O48 1.260 . S
O45 In39 2.266 . S
O45 C42 1.252 . S
O46 In39 2.326 . S
O46 C42 1.260 . S
O47 In39 2.266 . S
O47 C44 1.252 . S
O48 In39 2.326 . S
O48 C44 1.260 . S
C49 O40 1.240 . S
C49 O41 1.252 . S
O50 In39 2.294 . S
O50 C43 1.240 . S
O51 In39 2.326 . S
O51 C43 1.252 . S
In52 O53 2.294 . S
In52 O54 2.326 . S
In52 O58 2.266 . S
In52 O59 2.326 . S
In52 O60 2.266 . S
In52 O61 2.326 . S
In52 O63 2.294 . S
In52 O64 2.326 . S
O53 In52 2.294 . S
O53 C62 1.240 . S
O54 In52 2.326 . S
O54 C62 1.252 . S
C55 O58 1.252 . S
C55 O59 1.260 . S
C56 O63 1.240 . S
C56 O64 1.252 . S
C57 O60 1.252 . S
C57 O61 1.260 . S
O58 In52 2.266 . S
O58 C55 1.252 . S
O59 In52 2.326 . S
O59 C55 1.260 . S
O60 In52 2.266 . S
O60 C57 1.252 . S
O61 In52 2.326 . S
O61 C57 1.260 . S
C62 O53 1.240 . S
C62 O54 1.252 . S
O63 In52 2.294 . S
O63 C56 1.240 . S
O64 In52 2.326 . S
O64 C56 1.252 . S
In65 O66 2.294 . S
In65 O67 2.326 . S
In65 O71 2.266 . S
In65 O72 2.326 . S
In65 O73 2.266 . S
In65 O74 2.326 . S
In65 O76 2.294 . S
In65 O77 2.326 . S
O66 In65 2.294 . S
O66 C75 1.240 . S
O67 In65 2.326 . S
O67 C75 1.252 . S
C68 O71 1.252 . S
C68 O72 1.260 . S
C69 O76 1.240 . S
C69 O77 1.252 . S
C70 O73 1.252 . S
C70 O74 1.260 . S
O71 In65 2.266 . S
O71 C68 1.252 . S
O72 In65 2.326 . S
O72 C68 1.260 . S
O73 In65 2.266 . S
O73 C70 1.252 . S
O74 In65 2.326 . S
O74 C70 1.260 . S
C75 O66 1.240 . S
C75 O67 1.252 . S
O76 In65 2.294 . S
O76 C69 1.240 . S
O77 In65 2.326 . S
O77 C69 1.252 . S
In78 O79 2.294 . S
In78 O80 2.326 . S
In78 O84 2.266 . S
In78 O85 2.326 . S
In78 O86 2.266 . S
In78 O87 2.326 . S
In78 O89 2.294 . S
In78 O90 2.326 . S
O79 In78 2.294 . S
O79 C88 1.240 . S
O80 In78 2.326 . S
O80 C88 1.252 . S
C81 O84 1.252 . S
C81 O85 1.260 . S
C82 O89 1.240 . S
C82 O90 1.252 . S
C83 O86 1.252 . S
C83 O87 1.260 . S
O84 In78 2.266 . S
O84 C81 1.252 . S
O85 In78 2.326 . S
O85 C81 1.260 . S
O86 In78 2.266 . S
O86 C83 1.252 . S
O87 In78 2.326 . S
O87 C83 1.260 . S
C88 O79 1.240 . S
C88 O80 1.252 . S
O89 In78 2.294 . S
O89 C82 1.240 . S
O90 In78 2.326 . S
O90 C82 1.252 . S
In91 O92 2.294 . S
In91 O93 2.326 . S
In91 O97 2.266 . S
In91 O98 2.326 . S
In91 O99 2.266 . S
In91 O100 2.326 . S
In91 O102 2.294 . S
In91 O103 2.326 . S
O92 In91 2.294 . S
O92 C101 1.240 . S
O93 In91 2.326 . S
O93 C101 1.252 . S
C94 O97 1.252 . S
C94 O98 1.260 . S
C95 O102 1.240 . S
C95 O103 1.252 . S
C96 O99 1.252 . S
C96 O100 1.260 . S
O97 In91 2.266 . S
O97 C94 1.252 . S
O98 In91 2.326 . S
O98 C94 1.260 . S
O99 In91 2.266 . S
O99 C96 1.252 . S
O100 In91 2.326 . S
O100 C96 1.260 . S
C101 O92 1.240 . S
C101 O93 1.252 . S
O102 In91 2.294 . S
O102 C95 1.240 . S
O103 In91 2.326 . S
O103 C95 1.252 . S
In104 O105 2.294 . S
In104 O106 2.326 . S
In104 O110 2.266 . S
In104 O111 2.326 . S
In104 O112 2.266 . S
In104 O113 2.326 . S
In104 O115 2.294 . S
In104 O116 2.326 . S
O105 In104 2.294 . S
O105 C114 1.240 . S
O106 In104 2.326 . S
O106 C114 1.252 . S
C107 O110 1.252 . S
C107 O111 1.260 . S
C108 O115 1.240 . S
C108 O116 1.252 . S
C109 O112 1.252 . S
C109 O113 1.260 . S
O110 In104 2.266 . S
O110 C107 1.252 . S
O111 In104 2.326 . S
O111 C107 1.260 . S
O112 In104 2.266 . S
O112 C109 1.252 . S
O113 In104 2.326 . S
O113 C109 1.260 . S
C114 O105 1.240 . S
C114 O106 1.252 . S
O115 In104 2.294 . S
O115 C108 1.240 . S
O116 In104 2.326 . S
O116 C108 1.252 . S
In117 O118 2.294 . S
In117 O119 2.326 . S
In117 O123 2.266 . S
In117 O124 2.326 . S
In117 O125 2.266 . S
In117 O126 2.326 . S
In117 O128 2.294 . S
In117 O129 2.326 . S
O118 In117 2.294 . S
O118 C127 1.240 . S
O119 In117 2.326 . S
O119 C127 1.252 . S
C120 O123 1.252 . S
C120 O124 1.260 . S
C121 O128 1.240 . S
C121 O129 1.252 . S
C122 O125 1.252 . S
C122 O126 1.260 . S
O123 In117 2.266 . S
O123 C120 1.252 . S
O124 In117 2.326 . S
O124 C120 1.260 . S
O125 In117 2.266 . S
O125 C122 1.252 . S
O126 In117 2.326 . S
O126 C122 1.260 . S
C127 O118 1.240 . S
C127 O119 1.252 . S
O128 In117 2.294 . S
O128 C121 1.240 . S
O129 In117 2.326 . S
O129 C121 1.252 . S
In130 O131 2.294 . S
In130 O132 2.326 . S
In130 O136 2.266 . S
In130 O137 2.326 . S
In130 O138 2.266 . S
In130 O139 2.326 . S
In130 O141 2.294 . S
In130 O142 2.326 . S
O131 In130 2.294 . S
O131 C140 1.240 . S
O132 In130 2.326 . S
O132 C140 1.252 . S
C133 O136 1.252 . S
C133 O137 1.260 . S
C134 O141 1.240 . S
C134 O142 1.252 . S
C135 O138 1.252 . S
C135 O139 1.260 . S
O136 In130 2.266 . S
O136 C133 1.252 . S
O137 In130 2.326 . S
O137 C133 1.260 . S
O138 In130 2.266 . S
O138 C135 1.252 . S
O139 In130 2.326 . S
O139 C135 1.260 . S
C140 O131 1.240 . S
C140 O132 1.252 . S
O141 In130 2.294 . S
O141 C134 1.240 . S
O142 In130 2.326 . S
O142 C134 1.252 . S
In143 O144 2.294 . S
In143 O145 2.326 . S
In143 O149 2.266 . S
In143 O150 2.326 . S
In143 O151 2.266 . S
In143 O152 2.326 . S
In143 O154 2.294 . S
In143 O155 2.326 . S
O144 In143 2.294 . S
O144 C153 1.240 . S
O145 In143 2.326 . S
O145 C153 1.252 . S
C146 O149 1.252 . S
C146 O150 1.260 . S
C147 O154 1.240 . S
C147 O155 1.252 . S
C148 O151 1.252 . S
C148 O152 1.260 . S
O149 In143 2.266 . S
O149 C146 1.252 . S
O150 In143 2.326 . S
O150 C146 1.260 . S
O151 In143 2.266 . S
O151 C148 1.252 . S
O152 In143 2.326 . S
O152 C148 1.260 . S
C153 O144 1.240 . S
C153 O145 1.252 . S
O154 In143 2.294 . S
O154 C147 1.240 . S
O155 In143 2.326 . S
O155 C147 1.252 . S
In156 O157 2.294 . S
In156 O158 2.326 . S
In156 O162 2.266 . S
In156 O163 2.326 . S
In156 O164 2.266 . S
In156 O165 2.326 . S
In156 O167 2.294 . S
In156 O168 2.326 . S
O157 In156 2.294 . S
O157 C166 1.240 . S
O158 In156 2.326 . S
O158 C166 1.252 . S
C159 O162 1.252 . S
C159 O163 1.260 . S
C160 O167 1.240 . S
C160 O168 1.252 . S
C161 O164 1.252 . S
C161 O165 1.260 . S
O162 In156 2.266 . S
O162 C159 1.252 . S
O163 In156 2.326 . S
O163 C159 1.260 . S
O164 In156 2.266 . S
O164 C161 1.252 . S
O165 In156 2.326 . S
O165 C161 1.260 . S
C166 O157 1.240 . S
C166 O158 1.252 . S
O167 In156 2.294 . S
O167 C160 1.240 . S
O168 In156 2.326 . S
O168 C160 1.252 . S
In169 O170 2.294 . S
In169 O171 2.326 . S
In169 O175 2.266 . S
In169 O176 2.326 . S
In169 O177 2.266 . S
In169 O178 2.326 . S
In169 O180 2.294 . S
In169 O181 2.326 . S
O170 In169 2.294 . S
O170 C179 1.240 . S
O171 In169 2.326 . S
O171 C179 1.252 . S
C172 O175 1.252 . S
C172 O176 1.260 . S
C173 O180 1.240 . S
C173 O181 1.252 . S
C174 O177 1.252 . S
C174 O178 1.260 . S
O175 In169 2.266 . S
O175 C172 1.252 . S
O176 In169 2.326 . S
O176 C172 1.260 . S
O177 In169 2.266 . S
O177 C174 1.252 . S
O178 In169 2.326 . S
O178 C174 1.260 . S
C179 O170 1.240 . S
C179 O171 1.252 . S
O180 In169 2.294 . S
O180 C173 1.240 . S
O181 In169 2.326 . S
O181 C173 1.252 . S
In182 O183 2.294 . S
In182 O184 2.326 . S
In182 O188 2.266 . S
In182 O189 2.326 . S
In182 O190 2.266 . S
In182 O191 2.326 . S
In182 O193 2.294 . S
In182 O194 2.326 . S
O183 In182 2.294 . S
O183 C192 1.240 . S
O184 In182 2.326 . S
O184 C192 1.252 . S
C185 O188 1.252 . S
C185 O189 1.260 . S
C186 O193 1.240 . S
C186 O194 1.252 . S
C187 O190 1.252 . S
C187 O191 1.260 . S
O188 In182 2.266 . S
O188 C185 1.252 . S
O189 In182 2.326 . S
O189 C185 1.260 . S
O190 In182 2.266 . S
O190 C187 1.252 . S
O191 In182 2.326 . S
O191 C187 1.260 . S
C192 O183 1.240 . S
C192 O184 1.252 . S
O193 In182 2.294 . S
O193 C186 1.240 . S
O194 In182 2.326 . S
O194 C186 1.252 . S
In195 O196 2.294 . S
In195 O197 2.326 . S
In195 O201 2.266 . S
In195 O202 2.326 . S
In195 O203 2.266 . S
In195 O204 2.326 . S
In195 O206 2.294 . S
In195 O207 2.326 . S
O196 In195 2.294 . S
O196 C205 1.240 . S
O197 In195 2.326 . S
O197 C205 1.252 . S
C198 O201 1.252 . S
C198 O202 1.260 . S
C199 O206 1.240 . S
C199 O207 1.252 . S
C200 O203 1.252 . S
C200 O204 1.260 . S
O201 In195 2.266 . S
O201 C198 1.252 . S
O202 In195 2.326 . S
O202 C198 1.260 . S
O203 In195 2.266 . S
O203 C200 1.252 . S
O204 In195 2.326 . S
O204 C200 1.260 . S
C205 O196 1.240 . S
C205 O197 1.252 . S
O206 In195 2.294 . S
O206 C199 1.240 . S
O207 In195 2.326 . S
O207 C199 1.252 . S
In208 O209 2.294 . S
In208 O210 2.326 . S
In208 O214 2.266 . S
In208 O215 2.326 . S
In208 O216 2.266 . S
In208 O217 2.326 . S
In208 O219 2.294 . S
In208 O220 2.326 . S
O209 In208 2.294 . S
O209 C218 1.240 . S
O210 In208 2.326 . S
O210 C218 1.252 . S
C211 O214 1.252 . S
C211 O215 1.260 . S
C212 O219 1.240 . S
C212 O220 1.252 . S
C213 O216 1.252 . S
C213 O217 1.260 . S
O214 In208 2.266 . S
O214 C211 1.252 . S
O215 In208 2.326 . S
O215 C211 1.260 . S
O216 In208 2.266 . S
O216 C213 1.252 . S
O217 In208 2.326 . S
O217 C213 1.260 . S
C218 O209 1.240 . S
C218 O210 1.252 . S
O219 In208 2.294 . S
O219 C212 1.240 . S
O220 In208 2.326 . S
O220 C212 1.252 . S
In221 O222 2.294 . S
In221 O223 2.326 . S
In221 O227 2.266 . S
In221 O228 2.326 . S
In221 O229 2.266 . S
In221 O230 2.326 . S
In221 O232 2.294 . S
In221 O233 2.326 . S
O222 In221 2.294 . S
O222 C231 1.240 . S
O223 In221 2.326 . S
O223 C231 1.252 . S
C224 O227 1.252 . S
C224 O228 1.260 . S
C225 O232 1.240 . S
C225 O233 1.252 . S
C226 O229 1.252 . S
C226 O230 1.260 . S
O227 In221 2.266 . S
O227 C224 1.252 . S
O228 In221 2.326 . S
O228 C224 1.260 . S
O229 In221 2.266 . S
O229 C226 1.252 . S
O230 In221 2.326 . S
O230 C226 1.260 . S
C231 O222 1.240 . S
C231 O223 1.252 . S
O232 In221 2.294 . S
O232 C225 1.240 . S
O233 In221 2.326 . S
O233 C225 1.252 . S
In234 O235 2.294 . S
In234 O236 2.326 . S
In234 O240 2.266 . S
In234 O241 2.326 . S
In234 O242 2.266 . S
In234 O243 2.326 . S
In234 O245 2.294 . S
In234 O246 2.326 . S
O235 In234 2.294 . S
O235 C244 1.240 . S
O236 In234 2.326 . S
O236 C244 1.252 . S
C237 O240 1.252 . S
C237 O241 1.260 . S
C238 O245 1.240 . S
C238 O246 1.252 . S
C239 O242 1.252 . S
C239 O243 1.260 . S
O240 In234 2.266 . S
O240 C237 1.252 . S
O241 In234 2.326 . S
O241 C237 1.260 . S
O242 In234 2.266 . S
O242 C239 1.252 . S
O243 In234 2.326 . S
O243 C239 1.260 . S
C244 O235 1.240 . S
C244 O236 1.252 . S
O245 In234 2.294 . S
O245 C238 1.240 . S
O246 In234 2.326 . S
O246 C238 1.252 . S
In247 O248 2.294 . S
In247 O249 2.326 . S
In247 O253 2.266 . S
In247 O254 2.326 . S
In247 O255 2.266 . S
In247 O256 2.326 . S
In247 O258 2.294 . S
In247 O259 2.326 . S
O248 In247 2.294 . S
O248 C257 1.240 . S
O249 In247 2.326 . S
O249 C257 1.252 . S
C250 O253 1.252 . S
C250 O254 1.260 . S
C251 O258 1.240 . S
C251 O259 1.252 . S
C252 O255 1.252 . S
C252 O256 1.260 . S
O253 In247 2.266 . S
O253 C250 1.252 . S
O254 In247 2.326 . S
O254 C250 1.260 . S
O255 In247 2.266 . S
O255 C252 1.252 . S
O256 In247 2.326 . S
O256 C252 1.260 . S
C257 O248 1.240 . S
C257 O249 1.252 . S
O258 In247 2.294 . S
O258 C251 1.240 . S
O259 In247 2.326 . S
O259 C251 1.252 . S
In260 O261 2.294 . S
In260 O262 2.326 . S
In260 O266 2.266 . S
In260 O267 2.326 . S
In260 O268 2.266 . S
In260 O269 2.326 . S
In260 O271 2.294 . S
In260 O272 2.326 . S
O261 In260 2.294 . S
O261 C270 1.240 . S
O262 In260 2.326 . S
O262 C270 1.252 . S
C263 O266 1.252 . S
C263 O267 1.260 . S
C264 O271 1.240 . S
C264 O272 1.252 . S
C265 O268 1.252 . S
C265 O269 1.260 . S
O266 In260 2.266 . S
O266 C263 1.252 . S
O267 In260 2.326 . S
O267 C263 1.260 . S
O268 In260 2.266 . S
O268 C265 1.252 . S
O269 In260 2.326 . S
O269 C265 1.260 . S
C270 O261 1.240 . S
C270 O262 1.252 . S
O271 In260 2.294 . S
O271 C264 1.240 . S
O272 In260 2.326 . S
O272 C264 1.252 . S
In273 O274 2.294 . S
In273 O275 2.326 . S
In273 O279 2.266 . S
In273 O280 2.326 . S
In273 O281 2.266 . S
In273 O282 2.326 . S
In273 O284 2.294 . S
In273 O285 2.326 . S
O274 In273 2.294 . S
O274 C283 1.240 . S
O275 In273 2.326 . S
O275 C283 1.252 . S
C276 O279 1.252 . S
C276 O280 1.260 . S
C277 O284 1.240 . S
C277 O285 1.252 . S
C278 O281 1.252 . S
C278 O282 1.260 . S
O279 In273 2.266 . S
O279 C276 1.252 . S
O280 In273 2.326 . S
O280 C276 1.260 . S
O281 In273 2.266 . S
O281 C278 1.252 . S
O282 In273 2.326 . S
O282 C278 1.260 . S
C283 O274 1.240 . S
C283 O275 1.252 . S
O284 In273 2.294 . S
O284 C277 1.240 . S
O285 In273 2.326 . S
O285 C277 1.252 . S
In286 O287 2.294 . S
In286 O288 2.326 . S
In286 O292 2.266 . S
In286 O293 2.326 . S
In286 O294 2.266 . S
In286 O295 2.326 . S
In286 O297 2.294 . S
In286 O298 2.326 . S
O287 In286 2.294 . S
O287 C296 1.240 . S
O288 In286 2.326 . S
O288 C296 1.252 . S
C289 O292 1.252 . S
C289 O293 1.260 . S
C290 O297 1.240 . S
C290 O298 1.252 . S
C291 O294 1.252 . S
C291 O295 1.260 . S
O292 In286 2.266 . S
O292 C289 1.252 . S
O293 In286 2.326 . S
O293 C289 1.260 . S
O294 In286 2.266 . S
O294 C291 1.252 . S
O295 In286 2.326 . S
O295 C291 1.260 . S
C296 O287 1.240 . S
C296 O288 1.252 . S
O297 In286 2.294 . S
O297 C290 1.240 . S
O298 In286 2.326 . S
O298 C290 1.252 . S
In299 O300 2.294 . S
In299 O301 2.326 . S
In299 O305 2.266 . S
In299 O306 2.326 . S
In299 O307 2.266 . S
In299 O308 2.326 . S
In299 O310 2.294 . S
In299 O311 2.326 . S
O300 In299 2.294 . S
O300 C309 1.240 . S
O301 In299 2.326 . S
O301 C309 1.252 . S
C302 O305 1.252 . S
C302 O306 1.260 . S
C303 O310 1.240 . S
C303 O311 1.252 . S
C304 O307 1.252 . S
C304 O308 1.260 . S
O305 In299 2.266 . S
O305 C302 1.252 . S
O306 In299 2.326 . S
O306 C302 1.260 . S
O307 In299 2.266 . S
O307 C304 1.252 . S
O308 In299 2.326 . S
O308 C304 1.260 . S
C309 O300 1.240 . S
C309 O301 1.252 . S
O310 In299 2.294 . S
O310 C303 1.240 . S
O311 In299 2.326 . S
O311 C303 1.252 . S
C312 C313 1.369 . S
C312 C314 1.419 . S
C312 H316 0.930 . S
C313 C312 1.369 . S
C313 C322 1.429 . S
C314 C312 1.419 . S
C314 C315 1.363 . S
C314 H317 0.929 . S
C315 C314 1.363 . S
C315 C321 1.428 . S
H316 C312 0.930 . S
H317 C314 0.929 . S
S318 N319 1.613 . S
S318 N320 1.610 . S
N319 S318 1.613 . S
N319 C322 1.350 . S
N320 S318 1.610 . S
N320 C321 1.351 . S
C321 C315 1.428 . S
C321 N320 1.351 . S
C321 C322 1.434 . S
C322 C313 1.429 . S
C322 N319 1.350 . S
C322 C321 1.434 . S
C323 C324 1.369 1_455 S
C323 C325 1.419 . S
C323 H327 0.930 . S
C324 C323 1.369 1_655 S
C324 C333 1.429 . S
C325 C323 1.419 . S
C325 C326 1.363 . S
C325 H328 0.929 . S
C326 C325 1.363 . S
C326 C332 1.428 . S
H327 C323 0.930 . S
H328 C325 0.929 . S
S329 N330 1.613 . S
S329 N331 1.610 . S
N330 S329 1.613 . S
N330 C333 1.350 . S
N331 S329 1.610 . S
N331 C332 1.351 1_655 S
C332 C326 1.428 . S
C332 N331 1.351 1_455 S
C332 C333 1.434 1_455 S
C333 C324 1.429 . S
C333 N330 1.350 . S
C333 C332 1.434 1_655 S
C334 C335 1.369 . S
C334 C336 1.419 . S
C334 H338 0.930 . S
C335 C334 1.369 . S
C335 C344 1.429 . S
C336 C334 1.419 . S
C336 C337 1.363 1_556 S
C336 H339 0.929 . S
C337 C336 1.363 1_554 S
C337 C343 1.428 . S
H338 C334 0.930 . S
H339 C336 0.929 . S
S340 N341 1.613 . S
S340 N342 1.610 . S
N341 S340 1.613 . S
N341 C344 1.350 1_554 S
N342 S340 1.610 . S
N342 C343 1.351 . S
C343 C337 1.428 . S
C343 N342 1.351 . S
C343 C344 1.434 1_554 S
C344 C335 1.429 . S
C344 N341 1.350 1_556 S
C344 C343 1.434 1_556 S
C345 C346 1.369 . S
C345 C347 1.419 . S
C345 H349 0.930 . S
C346 C345 1.369 . S
C346 C355 1.429 . S
C347 C345 1.419 . S
C347 C348 1.363 . S
C347 H350 0.929 . S
C348 C347 1.363 . S
C348 C354 1.428 . S
H349 C345 0.930 . S
H350 C347 0.929 . S
S351 N352 1.613 . S
S351 N353 1.610 . S
N352 S351 1.613 . S
N352 C355 1.350 . S
N353 S351 1.610 . S
N353 C354 1.351 . S
C354 C348 1.428 . S
C354 N353 1.351 . S
C354 C355 1.434 . S
C355 C346 1.429 . S
C355 N352 1.350 . S
C355 C354 1.434 . S
C356 C357 1.369 . S
C356 C358 1.419 . S
C356 H360 0.930 . S
C357 C356 1.369 . S
C357 C366 1.429 . S
C358 C356 1.419 . S
C358 C359 1.363 . S
C358 H361 0.929 . S
C359 C358 1.363 . S
C359 C365 1.428 . S
H360 C356 0.930 . S
H361 C358 0.929 . S
S362 N363 1.613 . S
S362 N364 1.610 . S
N363 S362 1.613 . S
N363 C366 1.350 . S
N364 S362 1.610 . S
N364 C365 1.351 . S
C365 C359 1.428 . S
C365 N364 1.351 . S
C365 C366 1.434 . S
C366 C357 1.429 . S
C366 N363 1.350 . S
C366 C365 1.434 . S
C367 C368 1.369 . S
C367 C369 1.419 . S
C367 H371 0.930 . S
C368 C367 1.369 . S
C368 C377 1.429 . S
C369 C367 1.419 . S
C369 C370 1.363 1_655 S
C369 H372 0.929 . S
C370 C369 1.363 1_455 S
C370 C376 1.428 . S
H371 C367 0.930 . S
H372 C369 0.929 . S
S373 N374 1.613 1_455 S
S373 N375 1.610 . S
N374 S373 1.613 1_655 S
N374 C377 1.350 . S
N375 S373 1.610 . S
N375 C376 1.351 . S
C376 C370 1.428 . S
C376 N375 1.351 . S
C376 C377 1.434 1_455 S
C377 C368 1.429 . S
C377 N374 1.350 . S
C377 C376 1.434 1_655 S
C378 C379 1.369 . S
C378 C380 1.419 . S
C378 H382 0.930 . S
C379 C378 1.369 . S
C379 C388 1.429 . S
C380 C378 1.419 . S
C380 C381 1.363 1_554 S
C380 H383 0.929 1_554 S
C381 C380 1.363 1_556 S
C381 C387 1.428 1_556 S
H382 C378 0.930 . S
H383 C380 0.929 1_556 S
S384 N385 1.613 . S
S384 N386 1.610 . S
N385 S384 1.613 . S
N385 C388 1.350 . S
N386 S384 1.610 . S
N386 C387 1.351 . S
C387 C381 1.428 1_554 S
C387 N386 1.351 . S
C387 C388 1.434 . S
C388 C379 1.429 . S
C388 N385 1.350 . S
C388 C387 1.434 . S
C389 C390 1.369 . S
C389 C391 1.419 . S
C389 H393 0.930 . S
C390 C389 1.369 . S
C390 C399 1.429 . S
C391 C389 1.419 . S
C391 C392 1.363 . S
C391 H394 0.929 . S
C392 C391 1.363 . S
C392 C398 1.428 . S
H393 C389 0.930 . S
H394 C391 0.929 . S
S395 N396 1.613 . S
S395 N397 1.610 . S
N396 S395 1.613 . S
N396 C399 1.350 . S
N397 S395 1.610 . S
N397 C398 1.351 . S
C398 C392 1.428 . S
C398 N397 1.351 . S
C398 C399 1.434 . S
C399 C390 1.429 . S
C399 N396 1.350 . S
C399 C398 1.434 . S
C400 C401 1.369 . S
C400 C402 1.419 . S
C400 H404 0.930 . S
C401 C400 1.369 . S
C401 C410 1.429 . S
C402 C400 1.419 . S
C402 C403 1.363 . S
C402 H405 0.929 . S
C403 C402 1.363 . S
C403 C409 1.428 . S
H404 C400 0.930 . S
H405 C402 0.929 . S
S406 N407 1.613 . S
S406 N408 1.610 . S
N407 S406 1.613 . S
N407 C410 1.350 . S
N408 S406 1.610 . S
N408 C409 1.351 . S
C409 C403 1.428 . S
C409 N408 1.351 . S
C409 C410 1.434 . S
C410 C401 1.429 . S
C410 N407 1.350 . S
C410 C409 1.434 . S
C411 C412 1.369 1_545 S
C411 C413 1.419 . S
C411 H415 0.930 . S
C412 C411 1.369 1_565 S
C412 C421 1.429 . S
C413 C411 1.419 . S
C413 C414 1.363 . S
C413 H416 0.929 . S
C414 C413 1.363 . S
C414 C420 1.428 . S
H415 C411 0.930 . S
H416 C413 0.929 . S
S417 N418 1.613 . S
S417 N419 1.624 . S
N418 S417 1.613 . S
N418 C421 1.350 . S
N419 S417 1.624 . S
N419 C420 1.346 1_565 S
C420 C414 1.428 . S
C420 N419 1.346 1_545 S
C420 C421 1.434 1_545 S
C421 C412 1.429 . S
C421 N418 1.350 . S
C421 C420 1.434 1_565 S
C422 C423 1.369 . S
C422 C424 1.419 . S
C422 H426 0.930 . S
C423 C422 1.369 . S
C423 C432 1.429 . S
C424 C422 1.419 . S
C424 C425 1.363 1_565 S
C424 H427 0.929 . S
C425 C424 1.363 1_545 S
C425 C431 1.428 1_545 S
H426 C422 0.930 . S
H427 C424 0.929 . S
S428 N429 1.613 . S
S428 N430 1.610 1_565 S
N429 S428 1.613 . S
N429 C432 1.350 . S
N430 S428 1.610 1_545 S
N430 C431 1.351 1_545 S
C431 C425 1.428 1_565 S
C431 N430 1.351 1_565 S
C431 C432 1.434 . S
C432 C423 1.429 . S
C432 N429 1.350 . S
C432 C431 1.434 . S
C433 C434 1.369 . S
C433 C435 1.419 . S
C433 H437 0.930 . S
C434 C433 1.369 . S
C434 C443 1.429 . S
C435 C433 1.419 . S
C435 C436 1.363 . S
C435 H438 0.929 . S
C436 C435 1.363 . S
C436 C442 1.428 . S
H437 C433 0.930 . S
H438 C435 0.929 . S
S439 N440 1.613 . S
S439 N441 1.610 . S
N440 S439 1.613 . S
N440 C443 1.350 . S
N441 S439 1.610 . S
N441 C442 1.351 . S
C442 C436 1.428 . S
C442 N441 1.351 . S
C442 C443 1.434 . S
C443 C434 1.429 . S
C443 N440 1.350 . S
C443 C442 1.434 . S
C444 C445 1.369 . S
C444 C446 1.419 . S
C444 H448 0.930 . S
C445 C444 1.369 . S
C445 C454 1.429 . S
C446 C444 1.419 . S
C446 C447 1.363 . S
C446 H449 0.929 . S
C447 C446 1.363 . S
C447 C453 1.428 . S
H448 C444 0.930 . S
H449 C446 0.929 . S
S450 N451 1.613 . S
S450 N452 1.610 . S
N451 S450 1.613 . S
N451 C454 1.350 . S
N452 S450 1.610 . S
N452 C453 1.351 . S
C453 C447 1.428 . S
C453 N452 1.351 . S
C453 C454 1.434 . S
C454 C445 1.429 . S
C454 N451 1.350 . S
C454 C453 1.434 . S
C455 C456 1.369 . S
C455 C457 1.419 1_565 S
C455 H459 0.930 . S
C456 C455 1.369 . S
C456 C465 1.429 . S
C457 C455 1.419 1_545 S
C457 C458 1.363 . S
C457 H460 0.929 . S
C458 C457 1.363 . S
C458 C464 1.428 . S
H459 C455 0.930 . S
H460 C457 0.929 . S
S461 N462 1.613 1_545 S
S461 N463 1.610 . S
N462 S461 1.613 1_565 S
N462 C465 1.350 . S
N463 S461 1.610 . S
N463 C464 1.351 . S
C464 C458 1.428 . S
C464 N463 1.351 . S
C464 C465 1.434 1_545 S
C465 C456 1.429 . S
C465 N462 1.350 . S
C465 C464 1.434 1_565 S
C466 C467 1.369 . S
C466 C468 1.419 1_556 S
C466 H470 0.930 . S
C467 C466 1.369 . S
C467 C476 1.429 . S
C468 C466 1.419 1_554 S
C468 C469 1.363 . S
C468 H471 0.929 . S
C469 C468 1.363 . S
C469 C475 1.428 . S
H470 C466 0.930 . S
H471 C468 0.929 . S
S472 N473 1.613 1_554 S
S472 N474 1.610 . S
N473 S472 1.613 1_556 S
N473 C476 1.350 . S
N474 S472 1.610 . S
N474 C475 1.351 . S
C475 C469 1.428 . S
C475 N474 1.351 . S
C475 C476 1.434 1_554 S
C476 C467 1.429 . S
C476 N473 1.350 . S
C476 C475 1.434 1_556 S
C477 C478 1.369 . S
C477 C479 1.419 . S
C477 H481 0.930 . S
C478 C477 1.369 . S
C478 C487 1.429 1_545 S
C479 C477 1.419 . S
C479 C480 1.363 1_545 S
C479 H482 0.929 . S
C480 C479 1.363 1_565 S
C480 C486 1.428 . S
H481 C477 0.930 . S
H482 C479 0.929 . S
S483 N484 1.613 . S
S483 N485 1.610 . S
N484 S483 1.613 . S
N484 C487 1.350 . S
N485 S483 1.610 . S
N485 C486 1.351 . S
C486 C480 1.428 . S
C486 N485 1.351 . S
C486 C487 1.434 . S
C487 C478 1.429 1_565 S
C487 N484 1.350 . S
C487 C486 1.434 . S
C488 C489 1.369 . S
C488 C490 1.419 . S
C488 H492 0.930 . S
C489 C488 1.369 . S
C489 C498 1.429 . S
C490 C488 1.419 . S
C490 C491 1.363 . S
C490 H493 0.929 . S
C491 C490 1.363 . S
C491 C497 1.428 . S
H492 C488 0.930 . S
H493 C490 0.929 . S
S494 N495 1.613 . S
S494 N496 1.610 . S
N495 S494 1.613 . S
N495 C498 1.350 . S
N496 S494 1.610 . S
N496 C497 1.351 . S
C497 C491 1.428 . S
C497 N496 1.351 . S
C497 C498 1.434 . S
C498 C489 1.429 . S
C498 N495 1.350 . S
C498 C497 1.434 . S
C499 C500 1.369 . S
C499 C501 1.419 . S
C499 H503 0.930 . S
C500 C499 1.369 . S
C500 C509 1.429 . S
C501 C499 1.419 . S
C501 C502 1.363 . S
C501 H504 0.929 . S
C502 C501 1.363 . S
C502 C508 1.428 . S
H503 C499 0.930 . S
H504 C501 0.929 . S
S505 N506 1.613 . S
S505 N507 1.610 . S
N506 S505 1.613 . S
N506 C509 1.350 . S
N507 S505 1.610 . S
N507 C508 1.351 . S
C508 C502 1.428 . S
C508 N507 1.351 . S
C508 C509 1.434 . S
C509 C500 1.429 . S
C509 N506 1.350 . S
C509 C508 1.434 . S
C510 C511 1.369 . S
C510 C512 1.419 . S
C510 H514 0.930 . S
C511 C510 1.369 . S
C511 C520 1.429 1_556 S
C512 C510 1.419 . S
C512 C513 1.363 1_556 S
C512 H515 0.929 . S
C513 C512 1.363 1_554 S
C513 C519 1.428 . S
H514 C510 0.930 . S
H515 C512 0.929 . S
S516 N517 1.613 . S
S516 N518 1.610 . S
N517 S516 1.613 . S
N517 C520 1.350 . S
N518 S516 1.610 . S
N518 C519 1.351 . S
C519 C513 1.428 . S
C519 N518 1.351 . S
C519 C520 1.434 . S
C520 C511 1.429 1_554 S
C520 N517 1.350 . S
C520 C519 1.434 . S
C521 C522 1.369 . S
C521 C523 1.419 . S
C521 H525 0.930 . S
C522 C521 1.369 . S
C522 C531 1.429 . S
C523 C521 1.419 . S
C523 C524 1.363 . S
C523 H526 0.929 . S
C524 C523 1.363 . S
C524 C530 1.428 . S
H525 C521 0.930 . S
H526 C523 0.929 . S
S527 N528 1.613 . S
S527 N529 1.610 . S
N528 S527 1.613 . S
N528 C531 1.350 . S
N529 S527 1.610 . S
N529 C530 1.351 . S
C530 C524 1.428 . S
C530 N529 1.351 . S
C530 C531 1.434 . S
C531 C522 1.429 . S
C531 N528 1.350 . S
C531 C530 1.434 . S
C532 C533 1.369 . S
C532 C534 1.419 . S
C532 H536 0.930 . S
C533 C532 1.369 . S
C533 C542 1.429 . S
C534 C532 1.419 . S
C534 C535 1.363 . S
C534 H537 0.929 . S
C535 C534 1.363 . S
C535 C541 1.428 . S
H536 C532 0.930 . S
H537 C534 0.929 . S
S538 N539 1.613 . S
S538 N540 1.610 . S
N539 S538 1.613 . S
N539 C542 1.350 . S
N540 S538 1.610 . S
N540 C541 1.351 . S
C541 C535 1.428 . S
C541 N540 1.351 . S
C541 C542 1.434 . S
C542 C533 1.429 . S
C542 N539 1.350 . S
C542 C541 1.434 . S
C543 C544 1.369 . S
C543 C545 1.419 1_455 S
C543 H547 0.930 1_455 S
C544 C543 1.369 . S
C544 C553 1.429 . S
C545 C543 1.419 1_655 S
C545 C546 1.363 . S
C545 H548 0.929 . S
C546 C545 1.363 . S
C546 C552 1.428 1_655 S
H547 C543 0.930 1_655 S
H548 C545 0.929 . S
S549 N550 1.613 . S
S549 N551 1.610 . S
N550 S549 1.613 . S
N550 C553 1.350 . S
N551 S549 1.610 . S
N551 C552 1.351 . S
C552 C546 1.428 1_455 S
C552 N551 1.351 . S
C552 C553 1.434 . S
C553 C544 1.429 . S
C553 N550 1.350 . S
C553 C552 1.434 . S
C554 C555 1.369 1_455 S
C554 C556 1.419 . S
C554 H558 0.930 . S
C555 C554 1.369 1_655 S
C555 C564 1.429 . S
C556 C554 1.419 . S
C556 C557 1.363 . S
C556 H559 0.929 . S
C557 C556 1.363 . S
C557 C563 1.428 1_455 S
H558 C554 0.930 . S
H559 C556 0.929 . S
S560 N561 1.613 . S
S560 N562 1.610 . S
N561 S560 1.613 . S
N561 C564 1.350 . S
N562 S560 1.610 . S
N562 C563 1.351 . S
C563 C557 1.428 1_655 S
C563 N562 1.351 . S
C563 C564 1.434 . S
C564 C555 1.429 . S
C564 N561 1.350 . S
C564 C563 1.434 . S
C565 C566 1.369 . S
C565 C567 1.419 . S
C565 H569 0.930 . S
C566 C565 1.369 . S
C566 C575 1.429 . S
C567 C565 1.419 . S
C567 C568 1.363 . S
C567 H570 0.929 . S
C568 C567 1.363 . S
C568 C574 1.428 . S
H569 C565 0.930 . S
H570 C567 0.929 . S
S571 N572 1.613 . S
S571 N573 1.610 . S
N572 S571 1.613 . S
N572 C575 1.350 . S
N573 S571 1.610 . S
N573 C574 1.351 . S
C574 C568 1.428 . S
C574 N573 1.351 . S
C574 C575 1.434 . S
C575 C566 1.429 . S
C575 N572 1.350 . S
C575 C574 1.434 . S
C576 C577 1.369 . S
C576 C578 1.419 . S
C576 H580 0.930 . S
C577 C576 1.369 . S
C577 C586 1.429 . S
C578 C576 1.419 . S
C578 C579 1.363 . S
C578 H581 0.929 . S
C579 C578 1.363 . S
C579 C585 1.428 . S
H580 C576 0.930 . S
H581 C578 0.929 . S
S582 N583 1.613 . S
S582 N584 1.610 . S
N583 S582 1.613 . S
N583 C586 1.350 . S
N584 S582 1.610 . S
N584 C585 1.351 . S
C585 C579 1.428 . S
C585 N584 1.351 . S
C585 C586 1.434 . S
C586 C577 1.429 . S
C586 N583 1.350 . S
C586 C585 1.434 . S
C587 C588 1.369 . S
C587 C589 1.419 . S
C587 H591 0.930 1_565 S
C588 C587 1.369 . S
C588 C597 1.429 . S
C589 C587 1.419 . S
C589 C590 1.363 . S
C589 H592 0.929 . S
C590 C589 1.363 . S
C590 C596 1.428 . S
H591 C587 0.930 1_545 S
H592 C589 0.929 . S
S593 N594 1.613 . S
S593 N595 1.610 . S
N594 S593 1.613 . S
N594 C597 1.350 . S
N595 S593 1.610 . S
N595 C596 1.351 . S
C596 C590 1.428 . S
C596 N595 1.351 . S
C596 C597 1.434 . S
C597 C588 1.429 . S
C597 N594 1.350 . S
C597 C596 1.434 . S
C598 C599 1.369 . S
C598 C600 1.419 . S
C598 H602 0.930 . S
C599 C598 1.369 . S
C599 C608 1.429 . S
C600 C598 1.419 . S
C600 C601 1.363 . S
C600 H603 0.929 . S
C601 C600 1.363 . S
C601 C607 1.428 . S
H602 C598 0.930 . S
H603 C600 0.929 . S
S604 N605 1.613 . S
S604 N606 1.610 . S
N605 S604 1.613 . S
N605 C608 1.350 . S
N606 S604 1.610 . S
N606 C607 1.351 . S
C607 C601 1.428 . S
C607 N606 1.351 . S
C607 C608 1.434 . S
C608 C599 1.429 . S
C608 N605 1.350 . S
C608 C607 1.434 . S
C609 C610 1.369 . S
C609 C611 1.419 . S
C609 H613 0.930 . S
C610 C609 1.369 . S
C610 C619 1.429 . S
C611 C609 1.419 . S
C611 C612 1.363 . S
C611 H614 0.929 1_554 S
C612 C611 1.363 . S
C612 C618 1.429 . S
H613 C609 0.930 . S
H614 C611 0.929 1_556 S
S615 N616 1.613 1_565 S
S615 N617 1.610 . S
N616 S615 1.613 1_545 S
N616 C619 1.350 . S
N617 S615 1.610 . S
N617 C618 1.351 1_565 S
C618 C612 1.429 . S
C618 N617 1.351 1_545 S
C618 C619 1.434 . S
C619 C610 1.429 . S
C619 N616 1.350 . S
C619 C618 1.434 . S
C620 C621 1.369 . S
C620 C622 1.419 . S
C620 H624 0.930 . S
C621 C620 1.369 . S
C621 C630 1.429 . S
C622 C620 1.419 . S
C622 C623 1.363 . S
C622 H625 0.929 . S
C623 C622 1.363 . S
C623 C629 1.428 . S
H624 C620 0.930 . S
H625 C622 0.929 . S
S626 N627 1.613 . S
S626 N628 1.610 . S
N627 S626 1.613 . S
N627 C630 1.350 . S
N628 S626 1.610 . S
N628 C629 1.351 . S
C629 C623 1.428 . S
C629 N628 1.351 . S
C629 C630 1.434 . S
C630 C621 1.429 . S
C630 N627 1.350 . S
C630 C629 1.434 . S
C631 C632 1.370 . S
C631 C633 1.419 . S
C631 H635 0.930 1_556 S
C632 C631 1.370 . S
C632 C641 1.430 . S
C633 C631 1.419 . S
C633 C634 1.363 . S
C633 H636 0.929 . S
C634 C633 1.363 . S
C634 C640 1.428 . S
H635 C631 0.930 1_554 S
H636 C633 0.929 . S
S637 N638 1.613 . S
S637 N639 1.610 . S
N638 S637 1.613 . S
N638 C641 1.350 . S
N639 S637 1.610 . S
N639 C640 1.351 . S
C640 C634 1.428 . S
C640 N639 1.351 . S
C640 C641 1.434 . S
C641 C632 1.430 . S
C641 N638 1.350 . S
C641 C640 1.434 . S
C642 C643 1.369 . S
C642 C644 1.419 . S
C642 H646 0.930 . S
C643 C642 1.369 . S
C643 C652 1.429 . S
C644 C642 1.419 . S
C644 C645 1.363 . S
C644 H647 0.929 . S
C645 C644 1.363 . S
C645 C651 1.428 . S
H646 C642 0.930 . S
H647 C644 0.929 . S
S648 N649 1.613 . S
S648 N650 1.610 . S
N649 S648 1.613 . S
N649 C652 1.350 . S
N650 S648 1.610 . S
N650 C651 1.351 . S
C651 C645 1.428 . S
C651 N650 1.351 . S
C651 C652 1.434 . S
C652 C643 1.429 . S
C652 N649 1.350 . S
C652 C651 1.434 . S
C653 C654 1.369 . S
C653 C655 1.419 . S
C653 H657 0.930 . S
C654 C653 1.369 . S
C654 C663 1.429 . S
C655 C653 1.419 . S
C655 C656 1.363 . S
C655 H658 0.929 . S
C656 C655 1.363 . S
C656 C662 1.428 . S
H657 C653 0.930 . S
H658 C655 0.929 . S
S659 N660 1.613 . S
S659 N661 1.610 . S
N660 S659 1.613 . S
N660 C663 1.350 . S
N661 S659 1.610 . S
N661 C662 1.351 . S
C662 C656 1.428 . S
C662 N661 1.351 . S
C662 C663 1.434 . S
C663 C654 1.429 . S
C663 N660 1.350 . S
C663 C662 1.434 . S
C664 C665 1.369 . S
C664 C666 1.419 . S
C664 H668 0.930 . S
C665 C664 1.369 . S
C665 C674 1.429 . S
C666 C664 1.419 . S
C666 C667 1.363 . S
C666 H669 0.929 . S
C667 C666 1.363 . S
C667 C673 1.428 . S
H668 C664 0.930 . S
H669 C666 0.929 . S
S670 N671 1.613 . S
S670 N672 1.610 . S
N671 S670 1.613 . S
N671 C674 1.350 . S
N672 S670 1.610 . S
N672 C673 1.351 . S
C673 C667 1.428 . S
C673 N672 1.351 . S
C673 C674 1.434 . S
C674 C665 1.429 . S
C674 N671 1.350 . S
C674 C673 1.434 . S
C675 C676 1.366 1_545 S
C675 C677 1.417 . S
C675 H679 0.933 1_455 S
C676 C675 1.366 1_565 S
C676 C685 1.429 1_565 S
C677 C675 1.417 . S
C677 C678 1.363 . S
C677 H680 0.929 . S
C678 C677 1.363 . S
C678 C684 1.428 . S
H679 C675 0.933 1_655 S
H680 C677 0.929 . S
S681 N682 1.613 . S
S681 N683 1.610 1_565 S
N682 S681 1.613 . S
N682 C685 1.350 1_565 S
N683 S681 1.610 1_545 S
N683 C684 1.351 . S
C684 C678 1.428 . S
C684 N683 1.351 . S
C684 C685 1.434 . S
C685 C676 1.429 1_545 S
C685 N682 1.350 1_545 S
C685 C684 1.434 . S
C686 C687 1.369 . S
C686 C688 1.419 . S
C686 H690 0.930 . S
C687 C686 1.369 . S
C687 C696 1.429 . S
C688 C686 1.419 . S
C688 C689 1.363 . S
C688 H691 0.929 . S
C689 C688 1.363 . S
C689 C695 1.428 . S
H690 C686 0.930 . S
H691 C688 0.929 . S
S692 N693 1.613 . S
S692 N694 1.610 . S
N693 S692 1.613 . S
N693 C696 1.350 . S
N694 S692 1.610 . S
N694 C695 1.351 . S
C695 C689 1.428 . S
C695 N694 1.351 . S
C695 C696 1.434 . S
C696 C687 1.429 . S
C696 N693 1.350 . S
C696 C695 1.434 . S
C697 C698 1.368 1_565 S
C697 C699 1.419 . S
C697 H701 0.930 . S
C698 C697 1.368 1_545 S
C698 C707 1.428 1_545 S
C699 C697 1.419 . S
C699 C700 1.363 . S
C699 H702 0.929 . S
C700 C699 1.363 . S
C700 C706 1.428 . S
H701 C697 0.930 . S
H702 C699 0.929 . S
S703 N704 1.613 1_565 S
S703 N705 1.610 . S
N704 S703 1.613 1_545 S
N704 C707 1.350 1_545 S
N705 S703 1.610 . S
N705 C706 1.351 . S
C706 C700 1.428 . S
C706 N705 1.351 . S
C706 C707 1.434 . S
C707 C698 1.428 1_565 S
C707 N704 1.350 1_565 S
C707 C706 1.434 . S
C708 C709 1.369 . S
C708 C710 1.419 . S
C708 H712 0.930 . S
C709 C708 1.369 . S
C709 C718 1.429 . S
C710 C708 1.419 . S
C710 C711 1.363 . S
C710 H713 0.929 . S
C711 C710 1.363 . S
C711 C717 1.428 . S
H712 C708 0.930 . S
H713 C710 0.929 . S
S714 N715 1.613 . S
S714 N716 1.610 . S
N715 S714 1.613 . S
N715 C718 1.350 . S
N716 S714 1.610 . S
N716 C717 1.351 . S
C717 C711 1.428 . S
C717 N716 1.351 . S
C717 C718 1.434 . S
C718 C709 1.429 . S
C718 N715 1.350 . S
C718 C717 1.434 . S
C719 C720 1.369 . S
C719 C721 1.419 . S
C719 H723 0.930 1_655 S
C720 C719 1.369 . S
C720 C729 1.429 . S
C721 C719 1.419 . S
C721 C722 1.363 . S
C721 H724 0.929 . S
C722 C721 1.363 . S
C722 C728 1.428 . S
H723 C719 0.930 1_455 S
H724 C721 0.929 . S
S725 N726 1.613 . S
S725 N727 1.610 . S
N726 S725 1.613 . S
N726 C729 1.350 . S
N727 S725 1.610 . S
N727 C728 1.351 . S
C728 C722 1.428 . S
C728 N727 1.351 . S
C728 C729 1.434 . S
C729 C720 1.429 . S
C729 N726 1.350 . S
C729 C728 1.434 . S
C730 C731 1.369 . S
C730 C732 1.419 . S
C730 H734 0.930 . S
C731 C730 1.369 . S
C731 C740 1.429 . S
C732 C730 1.419 . S
C732 C733 1.363 . S
C732 H735 0.929 . S
C733 C732 1.363 . S
C733 C739 1.428 . S
H734 C730 0.930 . S
H735 C732 0.929 . S
S736 N737 1.613 . S
S736 N738 1.610 . S
N737 S736 1.613 . S
N737 C740 1.350 . S
N738 S736 1.610 . S
N738 C739 1.351 . S
C739 C733 1.428 . S
C739 N738 1.351 . S
C739 C740 1.434 . S
C740 C731 1.429 . S
C740 N737 1.350 . S
C740 C739 1.434 . S
C741 C742 1.369 . S
C741 C743 1.419 . S
C741 H745 0.930 . S
C742 C741 1.369 . S
C742 C751 1.429 . S
C743 C741 1.419 . S
C743 C744 1.363 . S
C743 H746 0.929 . S
C744 C743 1.363 . S
C744 C750 1.428 . S
H745 C741 0.930 . S
H746 C743 0.929 . S
S747 N748 1.613 . S
S747 N749 1.610 . S
N748 S747 1.613 . S
N748 C751 1.350 . S
N749 S747 1.610 . S
N749 C750 1.351 . S
C750 C744 1.428 . S
C750 N749 1.351 . S
C750 C751 1.434 . S
C751 C742 1.429 . S
C751 N748 1.350 . S
C751 C750 1.434 . S
C752 C753 1.369 . S
C752 C754 1.419 . S
C752 H756 0.930 . S
C753 C752 1.369 . S
C753 C762 1.429 . S
C754 C752 1.419 . S
C754 C755 1.363 . S
C754 H757 0.929 . S
C755 C754 1.363 . S
C755 C761 1.428 . S
H756 C752 0.930 . S
H757 C754 0.929 . S
S758 N759 1.613 . S
S758 N760 1.610 . S
N759 S758 1.613 . S
N759 C762 1.350 . S
N760 S758 1.610 . S
N760 C761 1.351 . S
C761 C755 1.428 . S
C761 N760 1.351 . S
C761 C762 1.434 . S
C762 C753 1.429 . S
C762 N759 1.350 . S
C762 C761 1.434 . S
C763 C764 1.369 . S
C763 C765 1.419 . S
C763 H767 0.930 . S
C764 C763 1.369 . S
C764 C773 1.429 . S
C765 C763 1.419 . S
C765 C766 1.363 . S
C765 H768 0.929 . S
C766 C765 1.363 . S
C766 C772 1.428 . S
H767 C763 0.930 . S
H768 C765 0.929 . S
S769 N770 1.613 . S
S769 N771 1.610 . S
N770 S769 1.613 . S
N770 C773 1.350 . S
N771 S769 1.610 . S
N771 C772 1.351 . S
C772 C766 1.428 . S
C772 N771 1.351 . S
C772 C773 1.434 . S
C773 C764 1.429 . S
C773 N770 1.350 . S
C773 C772 1.434 . S
C774 C775 1.369 1_455 S
C774 C776 1.419 . S
C774 H778 0.930 1_554 S
C775 C774 1.369 1_655 S
C775 C784 1.429 1_655 S
C776 C774 1.419 . S
C776 C777 1.363 . S
C776 H779 0.929 . S
C777 C776 1.363 . S
C777 C783 1.428 . S
H778 C774 0.930 1_556 S
H779 C776 0.929 . S
S780 N781 1.613 . S
S780 N782 1.610 1_655 S
N781 S780 1.613 . S
N781 C784 1.350 1_655 S
N782 S780 1.610 1_455 S
N782 C783 1.351 . S
C783 C777 1.428 . S
C783 N782 1.351 . S
C783 C784 1.434 . S
C784 C775 1.429 1_455 S
C784 N781 1.350 1_455 S
C784 C783 1.434 . S
C785 C786 1.369 . S
C785 C787 1.419 . S
C785 H789 0.930 . S
C786 C785 1.369 . S
C786 C795 1.429 . S
C787 C785 1.419 . S
C787 C788 1.363 . S
C787 H790 0.929 . S
C788 C787 1.363 . S
C788 C794 1.428 . S
H789 C785 0.930 . S
H790 C787 0.929 . S
S791 N792 1.613 . S
S791 N793 1.610 . S
N792 S791 1.613 . S
N792 C795 1.350 . S
N793 S791 1.610 . S
N793 C794 1.351 . S
C794 C788 1.428 . S
C794 N793 1.351 . S
C794 C795 1.434 . S
C795 C786 1.429 . S
C795 N792 1.350 . S
C795 C794 1.434 . S
C796 C797 1.369 . S
C796 C798 1.419 . S
C796 H800 0.930 . S
C797 C796 1.369 . S
C797 C806 1.429 . S
C798 C796 1.419 . S
C798 C799 1.363 . S
C798 H801 0.929 . S
C799 C798 1.363 . S
C799 C805 1.428 . S
H800 C796 0.930 . S
H801 C798 0.929 . S
S802 N803 1.613 . S
S802 N804 1.610 . S
N803 S802 1.613 . S
N803 C806 1.350 . S
N804 S802 1.610 . S
N804 C805 1.351 . S
C805 C799 1.428 . S
C805 N804 1.351 . S
C805 C806 1.434 . S
C806 C797 1.429 . S
C806 N803 1.350 . S
C806 C805 1.434 . S
C807 C808 1.369 . S
C807 C809 1.419 . S
C807 H811 0.930 . S
C808 C807 1.369 . S
C808 C817 1.429 . S
C809 C807 1.419 . S
C809 C810 1.363 . S
C809 H812 0.929 . S
C810 C809 1.363 . S
C810 C816 1.428 . S
H811 C807 0.930 . S
H812 C809 0.929 . S
S813 N814 1.613 . S
S813 N815 1.610 . S
N814 S813 1.613 . S
N814 C817 1.350 . S
N815 S813 1.610 . S
N815 C816 1.351 . S
C816 C810 1.428 . S
C816 N815 1.351 . S
C816 C817 1.434 . S
C817 C808 1.429 . S
C817 N814 1.350 . S
C817 C816 1.434 . S
C818 C819 1.369 . S
C818 C820 1.419 . S
C818 H822 0.930 . S
C819 C818 1.369 . S
C819 C828 1.438 . S
C820 C818 1.419 . S
C820 C821 1.363 . S
C820 H823 0.929 . S
C821 C820 1.363 . S
C821 C827 1.428 . S
H822 C818 0.930 . S
H823 C820 0.929 . S
S824 N825 1.613 . S
S824 N826 1.610 1_554 S
N825 S824 1.613 . S
N825 C828 1.329 1_554 S
N826 S824 1.610 1_556 S
N826 C827 1.351 . S
C827 C821 1.428 . S
C827 N826 1.351 . S
C827 C828 1.446 . S
C828 C819 1.438 . S
C828 N825 1.329 1_556 S
C828 C827 1.446 . S
C829 C830 1.369 . S
C829 C831 1.419 . S
C829 H833 0.930 . S
C830 C829 1.369 . S
C830 C839 1.429 . S
C831 C829 1.419 . S
C831 C832 1.361 . S
C831 H834 0.929 . S
C832 C831 1.361 . S
C832 C838 1.427 . S
H833 C829 0.930 . S
H834 C831 0.929 . S
S835 N836 1.613 . S
S835 N837 1.610 1_655 S
N836 S835 1.613 . S
N836 C839 1.350 . S
N837 S835 1.610 1_455 S
N837 C838 1.351 1_455 S
C838 C832 1.427 . S
C838 N837 1.351 1_655 S
C838 C839 1.434 . S
C839 C830 1.429 . S
C839 N836 1.350 . S
C839 C838 1.434 . S
C313 C121 1.344 . S
C315 C4 1.338 . S
C324 C23 1.339 . S
C326 C140 1.342 . S
C335 C36 1.339 . S
C337 C147 1.342 . S
C346 C49 1.346 . S
C348 C108 1.336 . S
C357 C56 1.346 . S
C359 C199 1.336 . S
C368 C166 1.341 . S
C370 C69 1.340 . S
C379 C88 1.346 . S
C381 C179 1.336 . S
C390 C186 1.345 . S
C392 C101 1.337 . S
C401 C212 1.335 . S
C403 C238 1.345 . S
C412 C290 1.338 . S
C414 C225 1.342 . S
C423 C251 1.335 . S
C425 C309 1.345 . S
C434 C283 1.342 . S
C436 C270 1.340 . S
C445 C264 1.883 . S
C447 C10 1.880 . S
C456 C17 1.882 . S
C458 C231 1.880 . S
C467 C30 1.880 . S
C469 C244 1.886 . S
C478 C43 1.879 . S
C480 C257 1.882 . S
C489 C62 1.879 . S
C491 C303 1.883 . S
C500 C277 1.881 . S
C502 C75 1.880 . S
C511 C296 1.880 . S
C513 C82 1.881 . S
C522 C218 1.882 . S
C524 C95 1.880 . S
C533 C205 1.879 . S
C535 C114 1.882 . S
C544 C127 1.886 . S
C546 C160 1.881 . S
C555 C173 1.886 . S
C557 C134 1.884 . S
C566 C192 1.883 . S
C568 C153 1.886 . S
C577 C5 1.430 . S
C579 C211 1.469 . S
C588 C304 1.471 1_565 S
C590 C16 1.427 . S
C599 C278 1.467 . S
C601 C29 1.420 . S
C610 C42 1.419 . S
C612 C289 1.467 1_544 S
C621 C57 1.430 . S
C623 C224 1.468 . S
C632 C237 1.463 1_556 S
C634 C70 1.425 . S
C643 C250 1.470 . S
C645 C81 1.420 . S
C654 C265 1.466 . S
C656 C94 1.421 . S
C665 C3 1.470 . S
C667 C109 1.420 . S
C676 C18 1.471 1_455 S
C678 C122 1.428 . S
C687 C31 1.472 . S
C689 C133 1.421 . S
C698 C44 1.474 . S
C700 C148 1.422 . S
C709 C55 1.472 . S
C711 C159 1.421 . S
C720 C68 1.472 1_655 S
C722 C172 1.426 . S
C731 C187 1.426 . S
C733 C83 1.466 . S
C742 C96 1.473 . S
C744 C200 1.423 . S
C753 C107 1.467 . S
C755 C213 1.428 . S
C764 C226 1.423 . S
C766 C161 1.465 . S
C775 C174 1.469 1_554 S
C777 C239 1.428 . S
C786 C252 1.418 . S
C788 C185 1.468 . S
C797 C263 1.424 . S
C799 C198 1.472 . S
C808 C276 1.420 . S
C810 C135 1.466 . S
C819 C146 1.465 1_556 S
C821 C291 1.421 . S
C830 C302 1.419 . S
C832 C120 1.473 1_655 S
