# Generated by pormake.
# Topology vmc, (5)-cn, num edge types: 1
# Building blocks:
#     Node 0, Type 0, BuildingBlock: BEQFEK_clean_sbu_0, # of connection points: 5
#     Node 1, Type 0, BuildingBlock: BEQFEK_clean_sbu_0, # of connection points: 5
#     Node 2, Type 0, BuildingBlock: BEQFEK_clean_sbu_0, # of connection points: 5
#     Node 3, Type 0, BuildingBlock: BEQFEK_clean_sbu_0, # of connection points: 5
#     Node 4, Type 0, BuildingBlock: BEQFEK_clean_sbu_0, # of connection points: 5
#     Node 5, Type 0, BuildingBlock: BEQFEK_clean_sbu_0, # of connection points: 5
#     Node 6, Type 0, BuildingBlock: BEQFEK_clean_sbu_0, # of connection points: 5
#     Node 7, Type 0, BuildingBlock: BEQFEK_clean_sbu_0, # of connection points: 5
#     Edge 8, Type (0, 0), BuildingBlock: UVAHIK_clean_linker_0, # of connection points: 2
#     Edge 9, Type (0, 0), BuildingBlock: UVAHIK_clean_linker_0, # of connection points: 2
#     Edge 10, Type (0, 0), BuildingBlock: UVAHIK_clean_linker_0, # of connection points: 2
#     Edge 11, Type (0, 0), BuildingBlock: UVAHIK_clean_linker_0, # of connection points: 2
#     Edge 12, Type (0, 0), BuildingBlock: UVAHIK_clean_linker_0, # of connection points: 2
#     Edge 13, Type (0, 0), BuildingBlock: UVAHIK_clean_linker_0, # of connection points: 2
#     Edge 14, Type (0, 0), BuildingBlock: UVAHIK_clean_linker_0, # of connection points: 2
#     Edge 15, Type (0, 0), BuildingBlock: UVAHIK_clean_linker_0, # of connection points: 2
#     Edge 16, Type (0, 0), BuildingBlock: UVAHIK_clean_linker_0, # of connection points: 2
#     Edge 17, Type (0, 0), BuildingBlock: UVAHIK_clean_linker_0, # of connection points: 2
#     Edge 18, Type (0, 0), BuildingBlock: UVAHIK_clean_linker_0, # of connection points: 2
#     Edge 19, Type (0, 0), BuildingBlock: UVAHIK_clean_linker_0, # of connection points: 2
#     Edge 20, Type (0, 0), BuildingBlock: UVAHIK_clean_linker_0, # of connection points: 2
#     Edge 21, Type (0, 0), BuildingBlock: UVAHIK_clean_linker_0, # of connection points: 2
#     Edge 22, Type (0, 0), BuildingBlock: UVAHIK_clean_linker_0, # of connection points: 2
#     Edge 23, Type (0, 0), BuildingBlock: UVAHIK_clean_linker_0, # of connection points: 2
#     Edge 24, Type (0, 0), BuildingBlock: UVAHIK_clean_linker_0, # of connection points: 2
#     Edge 25, Type (0, 0), BuildingBlock: UVAHIK_clean_linker_0, # of connection points: 2
#     Edge 26, Type (0, 0), BuildingBlock: UVAHIK_clean_linker_0, # of connection points: 2
#     Edge 27, Type (0, 0), BuildingBlock: UVAHIK_clean_linker_0, # of connection points: 2
# Relax obj value: 0.491
# Max RMSD: 0.270
# Mean RMSD: 0.270
data_MOF--net-vmc--node1-BEQFEK_clean_sbu_0--edge1-UVAHIK_clean_linker_0
_symmetry_space_group_name_H-M    P1
_symmetry_Int_Tables_number       1
_symmetry_cell_setting            triclinic
loop_
_symmetry_equiv_pos_as_xyz
'x, y, z'
_cell_length_a     59.979717
_cell_length_b     59.36303
_cell_length_c     34.85284
_cell_angle_alpha  90.003316
_cell_angle_beta   104.39541
_cell_angle_gamma 89.94955
loop_
_atom_site_label
_atom_site_type_symbol
_atom_site_fract_x
_atom_site_fract_y
_atom_site_fract_z
_atom_type_partial_charge
Co0 Co 0.37309 0.44556 0.11297 0.0
Co1 Co 0.3361 0.40899 0.11654 0.0
C2 C 0.38581 0.40016 0.15077 0.0
O3 O 0.39028 0.41991 0.14128 0.0
O4 O 0.36529 0.39275 0.14297 0.0
C5 C 0.41 0.45241 0.08296 0.0
O6 O 0.40481 0.43108 0.07564 0.0
C7 C 0.31175 0.36677 0.09529 0.0
C8 C 0.27761 0.37344 0.10624 0.0
C9 C 0.29026 0.35725 0.09221 0.0
N10 N 0.31165 0.38772 0.10975 0.0
N11 N 0.29128 0.39159 0.11657 0.0
C12 C 0.33267 0.35601 0.08695 0.0
H13 H 0.34596 0.3541 0.11524 0.0
H14 H 0.33995 0.3672 0.06764 0.0
H15 H 0.32908 0.33913 0.07334 0.0
C16 C 0.34904 0.44485 0.02831 0.0
N17 N 0.3523 0.43669 0.06532 0.0
N18 N 0.33682 0.42106 0.06581 0.0
C19 C 0.32321 0.41879 0.02865 0.0
C20 C 0.33084 0.43359 0.00386 0.0
C21 C 0.36168 0.4645 0.0169 0.0
H22 H 0.36608 0.47682 0.04151 0.0
H23 H 0.37775 0.45841 0.01006 0.0
H24 H 0.35124 0.47306 0.99009 0.0
O25 O 0.35618 0.46074 0.14755 0.0
O26 O 0.33048 0.43425 0.15137 0.0
H27 H 0.29156 0.40638 0.0384 0.0
H28 H 0.29223 0.4076 0.98681 0.0
C29 C 0.30249 0.40394 0.01734 0.0
H30 H 0.30806 0.38609 0.01877 0.0
H31 H 0.28658 0.40673 0.12761 0.0
O32 O 0.39761 0.46415 0.1002 0.0
C33 C 0.33936 0.4537 0.16066 0.0
Co34 Co 0.62781 0.45053 0.39678 0.0
Co35 Co 0.66078 0.411 0.3883 0.0
C36 C 0.60925 0.4066 0.36097 0.0
O37 O 0.60682 0.4264 0.373 0.0
O38 O 0.62916 0.39819 0.36385 0.0
C39 C 0.58907 0.47931 0.38854 0.0
O40 O 0.58431 0.47225 0.35167 0.0
C41 C 0.68265 0.3669 0.40953 0.0
C42 C 0.71465 0.37015 0.38945 0.0
C43 C 0.70282 0.35564 0.40851 0.0
N44 N 0.6828 0.38723 0.39252 0.0
N45 N 0.70191 0.38899 0.38035 0.0
C46 C 0.66302 0.35819 0.42474 0.0
H47 H 0.6468 0.36686 0.41013 0.0
H48 H 0.6664 0.36141 0.45698 0.0
H49 H 0.661 0.33975 0.41976 0.0
C50 C 0.65335 0.44777 0.47972 0.0
N51 N 0.64887 0.44005 0.44238 0.0
N52 N 0.66334 0.42375 0.43995 0.0
C53 C 0.67796 0.42098 0.47615 0.0
C54 C 0.67193 0.43607 0.50235 0.0
C55 C 0.63982 0.46593 0.49341 0.0
H56 H 0.64105 0.48171 0.477 0.0
H57 H 0.62148 0.46081 0.4867 0.0
H58 H 0.64589 0.46912 0.52568 0.0
O59 O 0.64421 0.46285 0.35876 0.0
O60 O 0.6679 0.43496 0.35262 0.0
H61 H 0.70694 0.4061 0.45994 0.0
H62 H 0.71123 0.41123 0.51248 0.0
C63 C 0.6986 0.4059 0.48497 0.0
H64 H 0.69317 0.38845 0.48921 0.0
H65 H 0.70643 0.40321 0.36637 0.0
O66 O 0.6079 0.47341 0.41209 0.0
C67 C 0.65991 0.45477 0.3439 0.0
Co68 Co 0.62849 0.5523 0.90069 0.0
Co69 Co 0.66254 0.59012 0.88921 0.0
C70 C 0.61207 0.5966 0.86066 0.0
O71 O 0.6095 0.57686 0.87265 0.0
O72 O 0.63206 0.60493 0.86482 0.0
C73 C 0.59386 0.54511 0.93625 0.0
O74 O 0.59885 0.56657 0.94243 0.0
C75 C 0.68559 0.63335 0.90575 0.0
C76 C 0.71914 0.62738 0.89204 0.0
C77 C 0.70665 0.64336 0.90688 0.0
N78 N 0.68584 0.61231 0.89174 0.0
N79 N 0.70583 0.60889 0.88313 0.0
C80 C 0.66502 0.64362 0.91615 0.0
H81 H 0.65044 0.64379 0.88939 0.0
H82 H 0.65976 0.63307 0.93865 0.0
H83 H 0.66817 0.66117 0.92694 0.0
C84 C 0.65549 0.5554 0.98317 0.0
N85 N 0.65035 0.56278 0.94552 0.0
N86 N 0.66468 0.57897 0.94191 0.0
C87 C 0.67946 0.58237 0.97779 0.0
C88 C 0.67377 0.56774 0.00491 0.0
C89 C 0.6445 0.53553 0.99763 0.0
H90 H 0.6396 0.52271 0.97393 0.0
H91 H 0.62887 0.54119 0.00646 0.0
H92 H 0.65629 0.52772 0.02393 0.0
O93 O 0.64431 0.53699 0.86479 0.0
O94 O 0.66767 0.56437 0.85472 0.0
H95 H 0.70937 0.59579 0.9629 0.0
H96 H 0.71116 0.59511 0.01547 0.0
C97 C 0.69957 0.59808 0.9857 0.0
H98 H 0.6933 0.61569 0.98427 0.0
H99 H 0.71062 0.59374 0.87222 0.0
O100 O 0.60561 0.53338 0.91777 0.0
C101 C 0.65966 0.54435 0.84839 0.0
Co102 Co 0.37468 0.55107 0.60284 0.0
Co103 Co 0.3427 0.59085 0.61478 0.0
C104 C 0.3933 0.59627 0.63701 0.0
O105 O 0.39482 0.5761 0.62603 0.0
O106 O 0.37374 0.60523 0.63473 0.0
C107 C 0.40424 0.54229 0.55805 0.0
O108 O 0.39701 0.56294 0.54864 0.0
C109 C 0.32027 0.63467 0.5999 0.0
C110 C 0.28665 0.62866 0.61331 0.0
C111 C 0.29925 0.64476 0.599 0.0
N112 N 0.31988 0.61347 0.61324 0.0
N113 N 0.29986 0.61005 0.6217 0.0
C114 C 0.34094 0.64501 0.59001 0.0
H115 H 0.35543 0.64494 0.61692 0.0
H116 H 0.34628 0.63465 0.56734 0.0
H117 H 0.33788 0.66265 0.57969 0.0
C118 C 0.34348 0.55157 0.52303 0.0
N119 N 0.35079 0.56034 0.55957 0.0
N120 N 0.33832 0.57819 0.56272 0.0
C121 C 0.32309 0.58168 0.52733 0.0
C122 C 0.32607 0.56493 0.50128 0.0
C123 C 0.35212 0.53008 0.50937 0.0
H124 H 0.35942 0.5189 0.53487 0.0
H125 H 0.36551 0.53401 0.49345 0.0
H126 H 0.338 0.52108 0.48833 0.0
O127 O 0.36109 0.53763 0.6434 0.0
O128 O 0.33855 0.56612 0.65217 0.0
H129 H 0.29391 0.59822 0.48856 0.0
H130 H 0.31384 0.6165 0.52167 0.0
C131 C 0.30527 0.59985 0.51888 0.0
H132 H 0.29465 0.59898 0.54072 0.0
H133 H 0.29494 0.59481 0.63204 0.0
O134 O 0.39631 0.53148 0.5833 0.0
C135 C 0.34649 0.54618 0.66039 0.0
Co136 Co 0.87605 0.94454 0.0999 0.0
Co137 Co 0.83989 0.90802 0.10779 0.0
C138 C 0.89098 0.90007 0.1366 0.0
O139 O 0.8953 0.91931 0.12445 0.0
O140 O 0.8704 0.89341 0.13328 0.0
C141 C 0.91778 0.96845 0.10512 0.0
O142 O 0.92445 0.95779 0.1391 0.0
C143 C 0.8163 0.86546 0.08347 0.0
C144 C 0.78487 0.86848 0.10531 0.0
C145 C 0.79604 0.8544 0.08436 0.0
N146 N 0.81683 0.88528 0.10236 0.0
N147 N 0.79806 0.88695 0.11553 0.0
C148 C 0.83541 0.857 0.06662 0.0
H149 H 0.8518 0.86556 0.08057 0.0
H150 H 0.8314 0.86058 0.03443 0.0
H151 H 0.83748 0.83851 0.07087 0.0
C152 C 0.85162 0.94189 0.01627 0.0
N153 N 0.85498 0.93475 0.05384 0.0
N154 N 0.83874 0.92036 0.05638 0.0
C155 C 0.82385 0.91867 0.02024 0.0
C156 C 0.83189 0.93192 0.9937 0.0
C157 C 0.86607 0.95938 0.00301 0.0
H158 H 0.86533 0.97525 0.01945 0.0
H159 H 0.88423 0.95361 0.01005 0.0
H160 H 0.86018 0.96281 0.97078 0.0
O161 O 0.85961 0.95842 0.13676 0.0
O162 O 0.83392 0.93253 0.14318 0.0
H163 H 0.79383 0.90722 0.03763 0.0
H164 H 0.7891 0.9135 0.98538 0.0
C165 C 0.80141 0.90634 0.01173 0.0
H166 H 0.8043 0.88844 0.00541 0.0
H167 H 0.79413 0.90079 0.13112 0.0
O168 O 0.89711 0.9664 0.08503 0.0
C169 C 0.84325 0.95184 0.15146 0.0
Co170 Co 0.12416 0.944 0.4003 0.0
Co171 Co 0.16013 0.90681 0.39377 0.0
C172 C 0.10904 0.8994 0.36394 0.0
O173 O 0.10501 0.9188 0.37586 0.0
O174 O 0.12957 0.8924 0.3677 0.0
C175 C 0.08209 0.96757 0.39483 0.0
O176 O 0.0754 0.95647 0.36133 0.0
C177 C 0.18387 0.86411 0.41803 0.0
C178 C 0.21588 0.86796 0.3982 0.0
C179 C 0.2045 0.85345 0.41805 0.0
N180 N 0.18332 0.88411 0.3997 0.0
N181 N 0.20244 0.88625 0.38768 0.0
C182 C 0.16447 0.85511 0.43355 0.0
H183 H 0.14799 0.86318 0.41842 0.0
H184 H 0.16766 0.85885 0.4656 0.0
H185 H 0.16307 0.83657 0.42955 0.0
C186 C 0.14814 0.94156 0.48421 0.0
N187 N 0.14499 0.93426 0.44676 0.0
N188 N 0.16099 0.91942 0.44487 0.0
C189 C 0.17552 0.91757 0.48133 0.0
C190 C 0.16748 0.93121 0.50737 0.0
C191 C 0.1338 0.95939 0.49687 0.0
H192 H 0.13459 0.97504 0.47984 0.0
H193 H 0.11562 0.95374 0.4901 0.0
H194 H 0.13974 0.96317 0.52897 0.0
O195 O 0.14075 0.95737 0.36316 0.0
O196 O 0.16651 0.93115 0.3585 0.0
H197 H 0.20579 0.9055 0.46549 0.0
H198 H 0.2097 0.91125 0.51775 0.0
C199 C 0.19761 0.90461 0.49067 0.0
H200 H 0.19407 0.88674 0.49608 0.0
H201 H 0.20647 0.90034 0.3728 0.0
O202 O 0.1029 0.966 0.41459 0.0
C203 C 0.15728 0.95043 0.34919 0.0
Co204 Co 0.12477 0.05327 0.89826 0.0
Co205 Co 0.16099 0.0904 0.89366 0.0
C206 C 0.10992 0.09807 0.86302 0.0
O207 O 0.10553 0.07861 0.87416 0.0
O208 O 0.13053 0.10494 0.86747 0.0
C209 C 0.08309 0.02881 0.89061 0.0
O210 O 0.07662 0.0399 0.85705 0.0
C211 C 0.18415 0.13315 0.91901 0.0
C212 C 0.21618 0.13011 0.89895 0.0
C213 C 0.20449 0.14427 0.9189 0.0
N214 N 0.18403 0.11323 0.90058 0.0
N215 N 0.20318 0.11154 0.88851 0.0
C216 C 0.16455 0.1417 0.93451 0.0
H217 H 0.14842 0.13271 0.92059 0.0
H218 H 0.16825 0.13879 0.96688 0.0
H219 H 0.1622 0.16007 0.92906 0.0
C220 C 0.14797 0.05518 0.98268 0.0
N221 N 0.14527 0.06263 0.9454 0.0
N222 N 0.1614 0.07744 0.94429 0.0
C223 C 0.17553 0.07915 0.98111 0.0
C224 C 0.16713 0.06542 0.00655 0.0
C225 C 0.13332 0.03738 0.99457 0.0
H226 H 0.13441 0.02173 0.97774 0.0
H227 H 0.11512 0.04305 0.98695 0.0
H228 H 0.13878 0.0336 0.02672 0.0
O229 O 0.14174 0.0403 0.86141 0.0
O230 O 0.16779 0.06642 0.85808 0.0
H231 H 0.20598 0.09174 0.96656 0.0
H232 H 0.20944 0.08544 0.01854 0.0
C233 C 0.19751 0.09225 0.99142 0.0
H234 H 0.19374 0.11001 0.99722 0.0
H235 H 0.20745 0.09765 0.87341 0.0
O236 O 0.10363 0.03087 0.91132 0.0
C237 C 0.1585 0.04725 0.84811 0.0
Co238 Co 0.87522 0.05293 0.60324 0.0
Co239 Co 0.8399 0.09112 0.60812 0.0
C240 C 0.891 0.0979 0.63781 0.0
O241 O 0.89467 0.07822 0.62665 0.0
O242 O 0.8706 0.10535 0.63374 0.0
C243 C 0.91697 0.02862 0.61017 0.0
O244 O 0.92357 0.03996 0.64343 0.0
C245 C 0.8164 0.13412 0.5837 0.0
C246 C 0.78426 0.13022 0.60316 0.0
C247 C 0.79579 0.14483 0.58375 0.0
N248 N 0.81679 0.11399 0.60163 0.0
N249 N 0.79758 0.11182 0.61337 0.0
C250 C 0.83593 0.14321 0.56867 0.0
H251 H 0.85227 0.13472 0.58326 0.0
H252 H 0.83264 0.1401 0.5364 0.0
H253 H 0.83764 0.16165 0.57378 0.0
C254 C 0.85079 0.05388 0.51959 0.0
N255 N 0.85436 0.06215 0.55647 0.0
N256 N 0.83897 0.07782 0.55744 0.0
C257 C 0.82464 0.07955 0.52077 0.0
C258 C 0.83185 0.06451 0.49578 0.0
C259 C 0.86521 0.03588 0.50759 0.0
H260 H 0.86377 0.02017 0.52403 0.0
H261 H 0.8835 0.04123 0.51558 0.0
H262 H 0.85996 0.03245 0.47531 0.0
O263 O 0.85851 0.04042 0.64068 0.0
O264 O 0.83317 0.06728 0.64422 0.0
H265 H 0.7945 0.09304 0.53511 0.0
H266 H 0.79115 0.08728 0.48297 0.0
C267 C 0.80317 0.09346 0.51052 0.0
H268 H 0.80768 0.11114 0.50564 0.0
H269 H 0.79345 0.09768 0.62798 0.0
O270 O 0.89626 0.03035 0.58998 0.0
C271 C 0.84205 0.04792 0.65423 0.0
C272 C 0.32162 0.54081 0.70816 0.0
C273 C 0.33866 0.53263 0.69038 0.0
C274 C 0.31468 0.52812 0.73701 0.0
C275 C 0.3173 0.47038 0.78021 0.0
H276 H 0.31169 0.50214 0.87452 0.0
C277 C 0.33386 0.43017 0.93459 0.0
C278 C 0.32164 0.43803 0.96131 0.0
C279 C 0.32968 0.43921 0.89647 0.0
C280 C 0.31267 0.493 0.84809 0.0
H281 H 0.36149 0.50444 0.68871 0.0
H282 H 0.34978 0.48265 0.73934 0.0
H283 H 0.31681 0.52339 0.8177 0.0
H284 H 0.29493 0.46066 0.96937 0.0
H285 H 0.28733 0.4765 0.90233 0.0
H286 H 0.31416 0.43992 0.81149 0.0
C287 C 0.34143 0.49867 0.73056 0.0
C288 C 0.31565 0.50522 0.81544 0.0
C289 C 0.34831 0.51131 0.7017 0.0
C290 C 0.30422 0.45411 0.94881 0.0
C291 C 0.30011 0.46331 0.91071 0.0
C292 C 0.31442 0.45815 0.81294 0.0
C293 C 0.32464 0.50696 0.7488 0.0
C294 C 0.31859 0.49405 0.78146 0.0
C295 C 0.31341 0.45654 0.88464 0.0
C296 C 0.31262 0.46931 0.84761 0.0
H297 H 0.31368 0.55709 0.69996 0.0
H298 H 0.30152 0.53492 0.7501 0.0
H299 H 0.31901 0.46124 0.75419 0.0
H300 H 0.34772 0.41811 0.9441 0.0
H301 H 0.34042 0.4338 0.87738 0.0
C302 C 0.69304 0.46105 0.55623 0.0
C303 C 0.68275 0.44012 0.54456 0.0
C304 C 0.69723 0.46797 0.59567 0.0
C305 C 0.6706 0.4603 0.67764 0.0
H306 H 0.71837 0.50116 0.73245 0.0
C307 C 0.66232 0.50639 0.81834 0.0
C308 C 0.66784 0.52944 0.82056 0.0
C309 C 0.66861 0.49253 0.79037 0.0
C310 C 0.70485 0.48984 0.71745 0.0
H311 H 0.67033 0.40926 0.5647 0.0
H312 H 0.6779 0.42117 0.63413 0.0
H313 H 0.72297 0.48101 0.67372 0.0
H314 H 0.68506 0.55584 0.79589 0.0
H315 H 0.69547 0.53183 0.74633 0.0
H316 H 0.65194 0.46978 0.71985 0.0
C317 C 0.68257 0.43234 0.61282 0.0
C318 C 0.70755 0.47821 0.68393 0.0
C319 C 0.67846 0.4254 0.5733 0.0
C320 C 0.68051 0.53816 0.79498 0.0
C321 C 0.68663 0.52432 0.76672 0.0
C322 C 0.66785 0.47197 0.71094 0.0
C323 C 0.69103 0.45412 0.62407 0.0
C324 C 0.69022 0.46366 0.66317 0.0
C325 C 0.68041 0.5014 0.7636 0.0
C326 C 0.6847 0.48725 0.73082 0.0
H327 H 0.6962 0.47273 0.53428 0.0
H328 H 0.70358 0.48489 0.60315 0.0
H329 H 0.65669 0.44958 0.66196 0.0
H330 H 0.65286 0.49903 0.83795 0.0
H331 H 0.66394 0.47489 0.78942 0.0
C332 C 0.6862 0.46071 0.2986 0.0
C333 C 0.66875 0.46874 0.31556 0.0
C334 C 0.69379 0.47371 0.27079 0.0
C335 C 0.69194 0.5318 0.22904 0.0
H336 H 0.69715 0.50069 0.13389 0.0
C337 C 0.67325 0.5724 0.07514 0.0
C338 C 0.68461 0.56439 0.04728 0.0
C339 C 0.67845 0.56357 0.11348 0.0
C340 C 0.69634 0.50966 0.16058 0.0
H341 H 0.646 0.49702 0.3171 0.0
H342 H 0.65887 0.51933 0.26837 0.0
H343 H 0.69225 0.47905 0.1904 0.0
H344 H 0.71101 0.5419 0.03752 0.0
H345 H 0.72048 0.52654 0.10496 0.0
H346 H 0.69494 0.56248 0.19829 0.0
C347 C 0.66701 0.50319 0.27694 0.0
C348 C 0.69348 0.49721 0.19305 0.0
C349 C 0.65946 0.49025 0.3047 0.0
C350 C 0.70239 0.54859 0.05893 0.0
C351 C 0.70755 0.53963 0.09728 0.0
C352 C 0.69473 0.54426 0.19649 0.0
C353 C 0.68411 0.49502 0.25931 0.0
C354 C 0.69056 0.50814 0.22726 0.0
C355 C 0.69493 0.54633 0.12444 0.0
C356 C 0.69631 0.53335 0.16147 0.0
H357 H 0.69387 0.44429 0.30647 0.0
H358 H 0.70716 0.467 0.25811 0.0
H359 H 0.69023 0.54074 0.25525 0.0
H360 H 0.65911 0.58421 0.06633 0.0
H361 H 0.66821 0.56894 0.13341 0.0
C362 C 0.34033 0.4894 0.19962 0.0
C363 C 0.33042 0.4682 0.18819 0.0
C364 C 0.33292 0.50252 0.22737 0.0
C365 C 0.30621 0.49654 0.31074 0.0
H366 H 0.30579 0.56186 0.30785 0.0
C367 C 0.29772 0.54601 0.4467 0.0
C368 C 0.3152 0.56203 0.45884 0.0
C369 C 0.29259 0.5376 0.408 0.0
C370 C 0.30576 0.54363 0.30904 0.0
H371 H 0.30423 0.44464 0.19595 0.0
H372 H 0.29126 0.46762 0.24426 0.0
H373 H 0.31042 0.54062 0.25026 0.0
H374 H 0.34015 0.58284 0.44033 0.0
H375 H 0.3313 0.56832 0.37276 0.0
H376 H 0.30251 0.49942 0.3699 0.0
C377 C 0.30499 0.47394 0.23208 0.0
C378 C 0.30847 0.53146 0.2761 0.0
C379 C 0.31239 0.46079 0.20428 0.0
C380 C 0.32625 0.57082 0.43116 0.0
C381 C 0.32118 0.56242 0.39251 0.0
C382 C 0.30351 0.50868 0.34361 0.0
C383 C 0.3154 0.49481 0.2444 0.0
C384 C 0.30934 0.50777 0.27697 0.0
C385 C 0.30505 0.54495 0.38102 0.0
C386 C 0.30385 0.53238 0.34359 0.0
H387 H 0.35421 0.4957 0.18782 0.0
H388 H 0.34156 0.51836 0.23655 0.0
H389 H 0.3071 0.47834 0.31269 0.0
H390 H 0.2893 0.53878 0.46794 0.0
H391 H 0.27984 0.52439 0.39993 0.0
C392 C 0.83177 0.92893 0.9228 0.0
C393 C 0.82124 0.93691 0.95179 0.0
C394 C 0.82623 0.93832 0.88488 0.0
C395 C 0.80852 0.99285 0.8396 0.0
H396 H 0.81206 0.96196 0.74329 0.0
C397 C 0.81617 0.04186 0.70017 0.0
C398 C 0.83341 0.03387 0.68266 0.0
C399 C 0.80894 0.02886 0.72835 0.0
C400 C 0.81104 0.97084 0.76995 0.0
H401 H 0.79594 0.95994 0.96406 0.0
H402 H 0.78586 0.97629 0.89733 0.0
H403 H 0.80828 0.94012 0.80072 0.0
H404 H 0.85605 0.0056 0.68034 0.0
H405 H 0.84372 0.98323 0.72958 0.0
H406 H 0.81227 0.02349 0.80958 0.0
C407 C 0.79846 0.96284 0.90383 0.0
C408 C 0.80881 0.95833 0.80279 0.0
C409 C 0.80399 0.95336 0.94178 0.0
C410 C 0.84277 0.01235 0.69322 0.0
C411 C 0.83553 0.99939 0.72126 0.0
C412 C 0.81076 0.00535 0.8068 0.0
C413 C 0.81019 0.95603 0.87544 0.0
C414 C 0.80821 0.96916 0.83839 0.0
C415 C 0.81872 0.00756 0.73952 0.0
C416 C 0.81276 0.99446 0.77199 0.0
H417 H 0.84544 0.91654 0.93032 0.0
H418 H 0.8358 0.93285 0.86399 0.0
H419 H 0.80844 0.00175 0.86669 0.0
H420 H 0.80848 0.05829 0.69258 0.0
H421 H 0.7958 0.03555 0.74162 0.0
C422 C 0.15687 0.01166 0.80885 0.0
C423 C 0.1669 0.03285 0.81983 0.0
C424 C 0.1638 0.99848 0.78072 0.0
C425 C 0.18921 0.00379 0.69573 0.0
H426 H 0.18932 0.9385 0.70026 0.0
C427 C 0.19549 0.95182 0.56033 0.0
C428 C 0.17772 0.93598 0.54949 0.0
C429 C 0.20092 0.9611 0.59844 0.0
C430 C 0.18945 0.95672 0.69863 0.0
H431 H 0.19272 0.05643 0.81065 0.0
H432 H 0.20488 0.03331 0.76153 0.0
H433 H 0.18596 0.96029 0.75799 0.0
H434 H 0.15244 0.91648 0.56965 0.0
H435 H 0.16191 0.93242 0.63627 0.0
H436 H 0.19182 0.00028 0.63598 0.0
C437 C 0.19145 0.02704 0.77448 0.0
C438 C 0.18746 0.96921 0.73164 0.0
C439 C 0.18452 0.04026 0.80272 0.0
C440 C 0.1665 0.9284 0.57781 0.0
C441 C 0.17195 0.93756 0.6159 0.0
C442 C 0.19123 0.99131 0.66277 0.0
C443 C 0.18097 0.0061 0.76281 0.0
C444 C 0.18661 0.99289 0.73016 0.0
C445 C 0.18859 0.95468 0.62617 0.0
C446 C 0.1907 0.96763 0.66342 0.0
H447 H 0.14328 0.00536 0.8214 0.0
H448 H 0.1551 0.98262 0.77202 0.0
H449 H 0.18837 0.02198 0.69337 0.0
H450 H 0.20408 0.9581 0.53857 0.0
H451 H 0.21397 0.97408 0.60558 0.0
C452 C 0.19472 0.04515 0.06073 0.0
C453 C 0.17675 0.06072 0.04891 0.0
C454 C 0.19976 0.03606 0.09898 0.0
C455 C 0.18686 0.0408 0.19804 0.0
H456 H 0.1873 0.97551 0.19452 0.0
C457 C 0.155 0.98588 0.30928 0.0
C458 C 0.16545 0.9649 0.32074 0.0
C459 C 0.16171 0.99905 0.2809 0.0
C460 C 0.18769 0.99372 0.19642 0.0
H461 H 0.15067 0.07994 0.06747 0.0
H462 H 0.15946 0.06434 0.13433 0.0
H463 H 0.19083 0.99694 0.1369 0.0
H464 H 0.19181 0.94172 0.31221 0.0
H465 H 0.20362 0.96482 0.26278 0.0
H466 H 0.18291 0.03751 0.25718 0.0
C467 C 0.16994 0.05925 0.11462 0.0
C468 C 0.18976 0.00604 0.16331 0.0
C469 C 0.16487 0.06822 0.07639 0.0
C470 C 0.18326 0.95772 0.3039 0.0
C471 C 0.18999 0.97092 0.27546 0.0
C472 C 0.18483 0.02847 0.23121 0.0
C473 C 0.18684 0.04242 0.12588 0.0
C474 C 0.18872 0.02971 0.16333 0.0
C475 C 0.17909 0.99162 0.26325 0.0
C476 C 0.18456 0.00477 0.23037 0.0
H477 H 0.20383 0.03895 0.03963 0.0
H478 H 0.21302 0.0233 0.1069 0.0
H479 H 0.18632 0.05902 0.19918 0.0
H480 H 0.14124 0.992 0.3216 0.0
H481 H 0.15268 0.01472 0.2718 0.0
C482 C 0.81187 0.03795 0.44358 0.0
C483 C 0.82147 0.0593 0.45384 0.0
C484 C 0.80777 0.03029 0.40457 0.0
C485 C 0.83376 0.03683 0.32187 0.0
H486 H 0.78575 0.99583 0.26843 0.0
C487 C 0.84145 0.98982 0.1818 0.0
C488 C 0.83541 0.96689 0.17943 0.0
C489 C 0.83542 0.00382 0.20981 0.0
C490 C 0.79936 0.00715 0.28307 0.0
H491 H 0.83296 0.09006 0.43173 0.0
H492 H 0.82568 0.07677 0.36307 0.0
H493 H 0.78147 0.01644 0.32691 0.0
H494 H 0.81768 0.94086 0.20389 0.0
H495 H 0.80783 0.96509 0.25371 0.0
H496 H 0.85226 0.02685 0.27973 0.0
C497 C 0.82138 0.0659 0.38512 0.0
C498 C 0.79682 0.01906 0.31642 0.0
C499 C 0.82533 0.0736 0.42419 0.0
C500 C 0.82258 0.95845 0.20493 0.0
C501 C 0.81679 0.97242 0.23334 0.0
C502 C 0.83638 0.02484 0.28882 0.0
C503 C 0.81344 0.04381 0.37526 0.0
C504 C 0.8142 0.03373 0.33658 0.0
C505 C 0.82347 0.99522 0.23658 0.0
C506 C 0.81942 0.00953 0.26937 0.0
H507 H 0.80906 0.02661 0.46629 0.0
H508 H 0.80185 0.01315 0.39809 0.0
H509 H 0.84769 0.04764 0.33715 0.0
H510 H 0.85104 0.99696 0.16219 0.0
H511 H 0.84041 0.02138 0.21077 0.0
C512 C 0.43485 0.48528 0.0754 0.0
C513 C 0.42914 0.46241 0.06921 0.0
C514 C 0.45295 0.4944 0.06175 0.0
C515 C 0.50523 0.47802 0.03071 0.0
H516 H 0.49769 0.53601 0.97792 0.0
C517 C 0.56958 0.51224 0.94602 0.0
C518 C 0.57537 0.53512 0.95177 0.0
C519 C 0.55182 0.50321 0.96068 0.0
C520 C 0.50012 0.51989 0.99293 0.0
H521 H 0.43779 0.43119 0.04369 0.0
H522 H 0.46899 0.44713 0.01966 0.0
H523 H 0.46662 0.52095 0.00401 0.0
H524 H 0.5673 0.56641 0.97772 0.0
H525 H 0.53664 0.55063 0.00345 0.0
H526 H 0.53871 0.47693 0.01951 0.0
C527 C 0.45982 0.45796 0.03556 0.0
C528 C 0.48236 0.51131 0.00794 0.0
C529 C 0.44181 0.44887 0.04916 0.0
C530 C 0.5632 0.54873 0.97259 0.0
C531 C 0.54551 0.53974 0.98716 0.0
C532 C 0.52298 0.48659 0.01568 0.0
C533 C 0.46562 0.48079 0.04175 0.0
C534 C 0.48471 0.49026 0.0269 0.0
C535 C 0.53956 0.51693 0.98125 0.0
C536 C 0.52061 0.50761 0.99664 0.0
H537 H 0.42538 0.49611 0.09076 0.0
H538 H 0.45718 0.51204 0.0672 0.0
H539 H 0.50765 0.46188 0.04567 0.0
H540 H 0.57867 0.50135 0.93007 0.0
H541 H 0.54746 0.48558 0.95543 0.0
C542 C 0.57394 0.49145 0.44589 0.0
C543 C 0.57094 0.48976 0.40465 0.0
C544 C 0.55556 0.49747 0.46162 0.0
C545 C 0.50108 0.5264 0.44349 0.0
H546 H 0.48481 0.4823 0.5141 0.0
C547 C 0.41985 0.53807 0.4991 0.0
C548 C 0.42094 0.53231 0.53853 0.0
C549 C 0.43722 0.53143 0.48143 0.0
C550 C 0.48927 0.49496 0.49494 0.0
H551 H 0.54677 0.49467 0.34759 0.0
H552 H 0.51476 0.506 0.37538 0.0
H553 H 0.51793 0.47564 0.48672 0.0
H554 H 0.44046 0.51462 0.5903 0.0
H555 H 0.47159 0.50379 0.56016 0.0
H556 H 0.47325 0.54628 0.45271 0.0
C557 C 0.53129 0.50218 0.39529 0.0
C558 C 0.50816 0.49107 0.47915 0.0
C559 C 0.54959 0.49573 0.37947 0.0
C560 C 0.43923 0.51907 0.5597 0.0
C561 C 0.457 0.51286 0.54231 0.0
C562 C 0.48247 0.53053 0.45984 0.0
C563 C 0.534 0.50241 0.43646 0.0
C564 C 0.51415 0.50674 0.45326 0.0
C565 C 0.45645 0.51943 0.50319 0.0
C566 C 0.47622 0.51481 0.48563 0.0
H567 H 0.59018 0.48719 0.46617 0.0
H568 H 0.55807 0.49787 0.4935 0.0
H569 H 0.50555 0.53878 0.42381 0.0
H570 H 0.4057 0.54808 0.48206 0.0
H571 H 0.43574 0.53615 0.45089 0.0
C572 C 0.04217 0.02065 0.89052 0.0
C573 C 0.06577 0.01814 0.90833 0.0
C574 C 0.02581 0.0143 0.9108 0.0
C575 C 0.0173 0.98204 0.99695 0.0
H576 H 0.96974 0.02656 0.99582 0.0
C577 C 0.95858 0.97612 0.10389 0.0
C578 C 0.93494 0.97865 0.08648 0.0
C579 C 0.97476 0.98213 0.083 0.0
C580 C 0.98282 0.0139 0.99621 0.0
H581 H 0.09065 0.00544 0.96013 0.0
H582 H 0.06216 0.99455 0.99552 0.0
H583 H 0.99689 0.03229 0.95501 0.0
H584 H 0.90978 0.99095 0.03467 0.0
H585 H 0.93797 0.0013 0.99827 0.0
H586 H 0.00325 0.96368 0.03823 0.0
C587 C 0.05626 0.00141 0.96593 0.0
C588 C 0.99829 0.01711 0.97268 0.0
C589 C 0.07261 0.00775 0.94568 0.0
C590 C 0.92787 0.98865 0.04884 0.0
C591 C 0.94404 0.99467 0.028 0.0
C592 C 0.00184 0.97884 0.02049 0.0
C593 C 0.03274 0.00526 0.94921 0.0
C594 C 0.0157 0.00122 0.97281 0.0
C595 C 0.9676 0.99087 0.0444 0.0
C596 C 0.98446 0.99475 0.02041 0.0
H597 H 0.03633 0.02846 0.86168 0.0
H598 H 0.00776 0.01703 0.89684 0.0
H599 H 0.03039 0.96939 0.99737 0.0
H600 H 0.9646 0.96859 0.13293 0.0
H601 H 0.99285 0.97944 0.0967 0.0
C602 C 0.95786 0.02082 0.60951 0.0
C603 C 0.93424 0.01807 0.59211 0.0
C604 C 0.97414 0.0145 0.58901 0.0
C605 C 0.98256 0.98171 0.50336 0.0
H606 H 0.02993 0.02618 0.50334 0.0
C607 C 0.04126 0.97493 0.39637 0.0
C608 C 0.0649 0.97776 0.41348 0.0
C609 C 0.02509 0.98101 0.41724 0.0
C610 C 0.01692 0.01353 0.50328 0.0
H611 H 0.90926 0.00506 0.54076 0.0
H612 H 0.93763 0.99419 0.505 0.0
H613 H 0.00279 0.03226 0.54407 0.0
H614 H 0.09001 0.9906 0.46481 0.0
H615 H 0.06183 0.00107 0.50122 0.0
H616 H 0.99668 0.963 0.46252 0.0
C617 C 0.9436 0.00122 0.53444 0.0
C618 C 0.00144 0.01694 0.52675 0.0
C619 C 0.92732 0.00755 0.55491 0.0
C620 C 0.07194 0.98807 0.45086 0.0
C621 C 0.05577 0.99416 0.4717 0.0
C622 C 0.99804 0.9783 0.47988 0.0
C623 C 0.96713 0.00525 0.55079 0.0
C624 C 0.98409 0.00107 0.52705 0.0
C625 C 0.03222 0.99011 0.45558 0.0
C626 C 0.01536 0.99419 0.47955 0.0
H627 H 0.96377 0.02876 0.63822 0.0
H628 H 0.99219 0.01738 0.6027 0.0
H629 H 0.96954 0.96907 0.50327 0.0
H630 H 0.03525 0.96714 0.36754 0.0
H631 H 0.00701 0.97811 0.40373 0.0
C632 C 0.28501 0.32864 0.03812 0.0
C633 C 0.28144 0.33537 0.07473 0.0
C634 C 0.27651 0.30804 0.02138 0.0
C635 C 0.23311 0.26434 0.02372 0.0
H636 H 0.27159 0.22728 0.97467 0.0
C637 C 0.2091 0.173 0.97314 0.0
C638 C 0.21282 0.16632 0.93657 0.0
C639 C 0.21729 0.19371 0.98986 0.0
C640 C 0.26053 0.23754 0.98784 0.0
H641 H 0.26538 0.3265 0.12178 0.0
H642 H 0.25063 0.29025 0.09277 0.0
H643 H 0.2861 0.26324 0.00433 0.0
H644 H 0.22862 0.17574 0.88939 0.0
H645 H 0.24285 0.21205 0.91844 0.0
H646 H 0.20755 0.2386 0.00726 0.0
C647 C 0.26005 0.30085 0.077 0.0
C648 C 0.26885 0.25815 0.00486 0.0
C649 C 0.26857 0.32151 0.09372 0.0
C650 C 0.22537 0.18054 0.9175 0.0
C651 C 0.23359 0.20127 0.93422 0.0
C652 C 0.22479 0.24371 0.00671 0.0
C653 C 0.26405 0.29382 0.04072 0.0
C654 C 0.25523 0.27181 0.02296 0.0
C655 C 0.22959 0.20812 0.97056 0.0
C656 C 0.2384 0.23008 0.98853 0.0
H657 H 0.29408 0.33948 0.02209 0.0
H658 H 0.2794 0.30341 0.99294 0.0
H659 H 0.22205 0.27461 0.0369 0.0
H660 H 0.20041 0.16204 0.98948 0.0
H661 H 0.2144 0.19823 0.01834 0.0
C662 C 0.72441 0.3198 0.40651 0.0
C663 C 0.71129 0.33344 0.42553 0.0
C664 C 0.73331 0.29923 0.42312 0.0
C665 C 0.72638 0.25601 0.4958 0.0
H666 H 0.78871 0.23948 0.49425 0.0
C667 C 0.77343 0.18029 0.58462 0.0
C668 C 0.78686 0.16675 0.56606 0.0
C669 C 0.76429 0.20068 0.56758 0.0
C670 C 0.77119 0.24372 0.49456 0.0
H671 H 0.6984 0.33675 0.47814 0.0
H672 H 0.71357 0.30083 0.50678 0.0
H673 H 0.77239 0.27473 0.4638 0.0
H674 H 0.80004 0.16337 0.51377 0.0
H675 H 0.78441 0.19897 0.48431 0.0
H676 H 0.72518 0.22501 0.52656 0.0
C677 C 0.71642 0.30569 0.47842 0.0
C678 C 0.76182 0.26392 0.47707 0.0
C679 C 0.70754 0.32624 0.46181 0.0
C680 C 0.79064 0.17383 0.52974 0.0
C681 C 0.7815 0.1942 0.51267 0.0
C682 C 0.73574 0.2358 0.51328 0.0
C683 C 0.72945 0.29195 0.45932 0.0
C684 C 0.73931 0.27032 0.4775 0.0
C685 C 0.76821 0.20788 0.53137 0.0
C686 C 0.75827 0.22942 0.5129 0.0
H687 H 0.72771 0.32499 0.37863 0.0
H688 H 0.7431 0.28897 0.40745 0.0
H689 H 0.70887 0.26028 0.49615 0.0
H690 H 0.77012 0.17519 0.61254 0.0
H691 H 0.75431 0.2109 0.58296 0.0
C692 C 0.77492 0.81821 0.08539 0.0
C693 C 0.78726 0.83258 0.06617 0.0
C694 C 0.76628 0.79772 0.06817 0.0
C695 C 0.77349 0.75606 0.99327 0.0
H696 H 0.71241 0.7368 0.9976 0.0
C697 C 0.72813 0.67924 0.90515 0.0
C698 C 0.71554 0.66522 0.92443 0.0
C699 C 0.73692 0.69976 0.92214 0.0
C700 C 0.7296 0.74182 0.99649 0.0
H701 H 0.79883 0.8374 0.01253 0.0
H702 H 0.78411 0.80161 0.9828 0.0
H703 H 0.72765 0.77234 0.02817 0.0
H704 H 0.7037 0.66073 0.9778 0.0
H705 H 0.71883 0.69654 0.00738 0.0
H706 H 0.77545 0.72551 0.96163 0.0
C707 C 0.78172 0.80582 0.01175 0.0
C708 C 0.73834 0.76218 0.01404 0.0
C709 C 0.79032 0.82629 0.02897 0.0
C710 C 0.71251 0.67169 0.96153 0.0
C711 C 0.72127 0.69215 0.97854 0.0
C712 C 0.76476 0.73568 0.97573 0.0
C713 C 0.76964 0.79126 0.03118 0.0
C714 C 0.76039 0.76954 0.01267 0.0
C715 C 0.73349 0.70649 0.95898 0.0
C716 C 0.74272 0.7283 0.97718 0.0
H717 H 0.77217 0.82272 0.11399 0.0
H718 H 0.7572 0.78681 0.08406 0.0
H719 H 0.79067 0.7611 0.99216 0.0
H720 H 0.73094 0.67445 0.87672 0.0
H721 H 0.74615 0.71047 0.9062 0.0
C722 C 0.22697 0.81796 0.41829 0.0
C723 C 0.21362 0.83179 0.43654 0.0
C724 C 0.23622 0.79777 0.43606 0.0
C725 C 0.22973 0.75574 0.51095 0.0
H726 H 0.29193 0.73893 0.50907 0.0
C727 C 0.27722 0.68033 0.60069 0.0
C728 C 0.29032 0.66668 0.58172 0.0
C729 C 0.26802 0.70071 0.58361 0.0
C730 C 0.27446 0.74327 0.50953 0.0
H731 H 0.20073 0.83594 0.489 0.0
H732 H 0.21655 0.80069 0.51971 0.0
H733 H 0.27548 0.77391 0.47766 0.0
H734 H 0.30272 0.66276 0.52877 0.0
H735 H 0.28696 0.69837 0.49914 0.0
H736 H 0.22871 0.72508 0.54282 0.0
C737 C 0.2193 0.80507 0.49107 0.0
C738 C 0.26502 0.76331 0.49147 0.0
C739 C 0.21006 0.82523 0.47329 0.0
C740 C 0.29356 0.67344 0.54489 0.0
C741 C 0.28441 0.69378 0.52782 0.0
C742 C 0.23918 0.7357 0.52903 0.0
C743 C 0.23248 0.79108 0.47268 0.0
C744 C 0.24252 0.76976 0.49189 0.0
C745 C 0.27156 0.70769 0.54699 0.0
C746 C 0.26163 0.7292 0.52845 0.0
H747 H 0.23012 0.82267 0.39007 0.0
H748 H 0.24612 0.7873 0.42092 0.0
H749 H 0.21224 0.76005 0.51135 0.0
H750 H 0.27423 0.67531 0.62888 0.0
H751 H 0.25831 0.71108 0.59924 0.0
C752 C 0.58636 0.38083 0.30844 0.0
C753 C 0.58809 0.39391 0.34264 0.0
C754 C 0.56488 0.37252 0.2874 0.0
C755 C 0.50466 0.36239 0.29328 0.0
H756 H 0.48785 0.38373 0.18486 0.0
C757 C 0.41203 0.38642 0.21298 0.0
C758 C 0.40536 0.38626 0.17151 0.0
C759 C 0.43418 0.37947 0.23299 0.0
C760 C 0.49221 0.37702 0.21468 0.0
H761 H 0.56923 0.40721 0.38322 0.0
H762 H 0.53212 0.39232 0.34734 0.0
H763 H 0.52784 0.38509 0.22216 0.0
H764 H 0.41584 0.37781 0.11825 0.0
H765 H 0.45414 0.36458 0.15301 0.0
H766 H 0.46898 0.35484 0.28624 0.0
C767 C 0.54713 0.38856 0.33644 0.0
C768 C 0.51525 0.37786 0.23612 0.0
C769 C 0.56838 0.3972 0.35688 0.0
C770 C 0.42054 0.37766 0.15035 0.0
C771 C 0.44259 0.37046 0.17031 0.0
C772 C 0.48164 0.3613 0.27172 0.0
C773 C 0.54496 0.37672 0.30082 0.0
C774 C 0.5216 0.3713 0.27606 0.0
C775 C 0.4501 0.37222 0.21184 0.0
C776 C 0.47495 0.36936 0.23254 0.0
H777 H 0.60128 0.37819 0.29673 0.0
H778 H 0.56369 0.36341 0.26004 0.0
H779 H 0.50911 0.35699 0.32394 0.0
H780 H 0.40077 0.39355 0.22977 0.0
H781 H 0.43928 0.38141 0.26486 0.0
C782 C 0.43557 0.60055 0.64611 0.0
C783 C 0.41505 0.60859 0.65376 0.0
C784 C 0.45679 0.6095 0.66578 0.0
C785 C 0.48423 0.63589 0.76042 0.0
H786 H 0.53757 0.63134 0.71677 0.0
C787 C 0.5701 0.60328 0.85021 0.0
C788 C 0.59096 0.6093 0.84148 0.0
C789 C 0.54929 0.61228 0.82873 0.0
C790 C 0.52295 0.63328 0.7295 0.0
H791 H 0.40064 0.63345 0.68625 0.0
H792 H 0.43802 0.6493 0.72094 0.0
H793 H 0.49917 0.63169 0.67253 0.0
H794 H 0.60649 0.63063 0.80492 0.0
H795 H 0.56976 0.64652 0.76681 0.0
H796 H 0.50801 0.6371 0.81742 0.0
C797 C 0.43758 0.63581 0.69986 0.0
C798 C 0.50085 0.63318 0.70409 0.0
C799 C 0.41616 0.62684 0.67986 0.0
C800 C 0.59067 0.62565 0.81222 0.0
C801 C 0.56964 0.63462 0.7903 0.0
C802 C 0.50634 0.63623 0.78579 0.0
C803 C 0.45821 0.62682 0.69376 0.0
C804 C 0.4812 0.63319 0.71936 0.0
C805 C 0.54863 0.62758 0.79772 0.0
C806 C 0.52593 0.63364 0.7708 0.0
H807 H 0.43536 0.58665 0.62586 0.0
H808 H 0.47216 0.60184 0.66058 0.0
H809 H 0.46959 0.63601 0.77338 0.0
H810 H 0.56971 0.59088 0.87285 0.0
H811 H 0.5336 0.60612 0.83507 0.0
C812 C 0.06872 0.88692 0.35667 0.0
C813 C 0.08902 0.88578 0.34355 0.0
C814 C 0.04809 0.87844 0.33341 0.0
C815 C 0.01958 0.87492 0.2304 0.0
H816 H 0.97062 0.84663 0.26767 0.0
C817 C 0.92741 0.88066 0.13558 0.0
C818 C 0.91073 0.88598 0.15605 0.0
C819 C 0.94887 0.87227 0.15586 0.0
C820 C 0.98403 0.85465 0.25675 0.0
H821 H 0.10404 0.87377 0.29694 0.0
H822 H 0.06757 0.85933 0.25541 0.0
H823 H 0.00988 0.84657 0.30963 0.0
H824 H 0.90277 0.88604 0.21319 0.0
H825 H 0.94055 0.87238 0.24924 0.0
H826 H 0.99391 0.88471 0.17916 0.0
C827 C 0.0678 0.86657 0.28404 0.0
C828 C 0.00656 0.85441 0.2807 0.0
C829 C 0.08864 0.87469 0.30782 0.0
C830 C 0.91531 0.88166 0.19677 0.0
C831 C 0.93702 0.87378 0.21733 0.0
C832 C 0.99706 0.87548 0.20677 0.0
C833 C 0.0472 0.86901 0.29612 0.0
C834 C 0.02445 0.86506 0.26816 0.0
C835 C 0.95443 0.8698 0.19735 0.0
C836 C 0.9788 0.86589 0.21999 0.0
H837 H 0.06858 0.89543 0.38413 0.0
H838 H 0.03251 0.88078 0.34338 0.0
H839 H 0.03291 0.8836 0.22019 0.0
H840 H 0.92419 0.88396 0.1041 0.0
H841 H 0.96146 0.86876 0.13914 0.0
C842 C 0.08541 0.11576 0.80237 0.0
C843 C 0.09024 0.11215 0.84333 0.0
C844 C 0.06366 0.12349 0.78175 0.0
C845 C 0.00381 0.1226 0.7933 0.0
H846 H 0.99064 0.14991 0.68907 0.0
C847 C 0.91189 0.12301 0.69294 0.0
C848 C 0.91127 0.11136 0.65763 0.0
C849 C 0.93288 0.1311 0.71627 0.0
C850 C 0.99405 0.14251 0.71837 0.0
H851 H 0.07713 0.1152 0.89552 0.0
H852 H 0.03975 0.13013 0.86027 0.0
H853 H 0.03 0.15017 0.7306 0.0
H854 H 0.93147 0.10064 0.61732 0.0
H855 H 0.96779 0.11528 0.65722 0.0
H856 H 0.96795 0.11461 0.78068 0.0
C857 C 0.05221 0.12623 0.84349 0.0
C858 C 0.01665 0.14247 0.74209 0.0
C859 C 0.07374 0.11801 0.86387 0.0
C860 C 0.9315 0.10959 0.64444 0.0
C861 C 0.95229 0.11806 0.66722 0.0
C862 C 0.98123 0.12298 0.76988 0.0
C863 C 0.04643 0.12802 0.80187 0.0
C864 C 0.022 0.13179 0.77937 0.0
C865 C 0.95339 0.1281 0.70411 0.0
C866 C 0.97623 0.13225 0.73165 0.0
H867 H 0.09779 0.11092 0.78591 0.0
H868 H 0.05995 0.12435 0.74977 0.0
H869 H 0.00707 0.11382 0.82136 0.0
H870 H 0.89655 0.12441 0.70388 0.0
H871 H 0.93326 0.13881 0.7446 0.0
loop_
_geom_bond_atom_site_label_1
_geom_bond_atom_site_label_2
_geom_bond_distance
_geom_bond_site_symmetry_2
_ccdc_geom_bond_type
Co0 O3 1.970 . S
Co0 N17 1.989 1_554 S
Co0 O25 1.967 . S
Co0 O32 1.920 . S
Co1 O4 1.966 . S
Co1 N10 2.022 . S
Co1 N18 1.993 1_554 S
Co1 O26 1.941 . S
C2 O3 1.258 . S
C2 O4 1.263 . S
O3 Co0 1.970 . S
O3 C2 1.258 . S
O4 Co1 1.966 . S
O4 C2 1.263 . S
C5 O6 1.235 . S
C5 O32 1.289 . S
O6 C5 1.235 . S
C7 C9 1.400 . S
C7 N10 1.351 . S
C7 C12 1.501 . S
C8 C9 1.387 . S
C8 N11 1.341 . S
C9 C7 1.400 . S
C9 C8 1.387 . S
N10 Co1 2.022 . S
N10 C7 1.351 . S
N10 N11 1.365 . S
N11 C8 1.341 . S
N11 N10 1.365 . S
N11 H31 0.862 . S
C12 C7 1.501 . S
C12 H13 0.961 . S
C12 H14 0.961 . S
C12 H15 0.960 . S
H13 C12 0.961 . S
H14 C12 0.961 . S
H15 C12 0.960 . S
C16 N17 1.342 . S
C16 C20 1.401 . S
C16 C21 1.499 . S
N17 Co0 1.989 1_556 S
N17 C16 1.342 . S
N17 N18 1.388 . S
N18 Co1 1.993 1_556 S
N18 N17 1.388 . S
N18 C19 1.346 . S
C19 N18 1.346 . S
C19 C20 1.396 . S
C19 C29 1.510 . S
C20 C16 1.401 . S
C20 C19 1.396 . S
C21 C16 1.499 . S
C21 H22 0.959 . S
C21 H23 0.960 . S
C21 H24 0.961 . S
H22 C21 0.959 . S
H23 C21 0.960 . S
H24 C21 0.961 . S
O25 Co0 1.967 . S
O25 C33 1.258 . S
O26 Co1 1.941 . S
O26 C33 1.266 . S
H27 C29 0.959 . S
H28 C29 0.961 . S
C29 C19 1.510 . S
C29 H27 0.959 . S
C29 H28 0.961 . S
C29 H30 0.960 . S
H30 C29 0.960 . S
H31 N11 0.862 . S
O32 Co0 1.920 . S
O32 C5 1.289 . S
C33 O25 1.258 . S
C33 O26 1.266 . S
Co34 O37 1.970 . S
Co34 N51 1.989 . S
Co34 O59 1.967 . S
Co34 O66 1.920 . S
Co35 O38 1.966 . S
Co35 N44 2.022 . S
Co35 N52 1.993 . S
Co35 O60 1.941 . S
C36 O37 1.258 . S
C36 O38 1.263 . S
O37 Co34 1.970 . S
O37 C36 1.258 . S
O38 Co35 1.966 . S
O38 C36 1.263 . S
C39 O40 1.235 . S
C39 O66 1.289 . S
O40 C39 1.235 . S
C41 C43 1.400 . S
C41 N44 1.351 . S
C41 C46 1.501 . S
C42 C43 1.387 . S
C42 N45 1.341 . S
C43 C41 1.400 . S
C43 C42 1.387 . S
N44 Co35 2.022 . S
N44 C41 1.351 . S
N44 N45 1.365 . S
N45 C42 1.341 . S
N45 N44 1.365 . S
N45 H65 0.862 . S
C46 C41 1.501 . S
C46 H47 0.961 . S
C46 H48 0.961 . S
C46 H49 0.960 . S
H47 C46 0.961 . S
H48 C46 0.961 . S
H49 C46 0.960 . S
C50 N51 1.342 . S
C50 C54 1.401 . S
C50 C55 1.499 . S
N51 Co34 1.989 . S
N51 C50 1.342 . S
N51 N52 1.388 . S
N52 Co35 1.993 . S
N52 N51 1.388 . S
N52 C53 1.346 . S
C53 N52 1.346 . S
C53 C54 1.396 . S
C53 C63 1.510 . S
C54 C50 1.401 . S
C54 C53 1.396 . S
C55 C50 1.499 . S
C55 H56 0.959 . S
C55 H57 0.960 . S
C55 H58 0.961 . S
H56 C55 0.959 . S
H57 C55 0.960 . S
H58 C55 0.961 . S
O59 Co34 1.967 . S
O59 C67 1.258 . S
O60 Co35 1.941 . S
O60 C67 1.266 . S
H61 C63 0.959 . S
H62 C63 0.961 . S
C63 C53 1.510 . S
C63 H61 0.959 . S
C63 H62 0.961 . S
C63 H64 0.960 . S
H64 C63 0.960 . S
H65 N45 0.862 . S
O66 Co34 1.920 . S
O66 C39 1.289 . S
C67 O59 1.258 . S
C67 O60 1.266 . S
Co68 O71 1.970 . S
Co68 N85 1.989 1_556 S
Co68 O93 1.967 . S
Co68 O100 1.920 . S
Co69 O72 1.966 . S
Co69 N78 2.022 . S
Co69 N86 1.993 1_556 S
Co69 O94 1.941 . S
C70 O71 1.258 . S
C70 O72 1.263 . S
O71 Co68 1.970 . S
O71 C70 1.258 . S
O72 Co69 1.966 . S
O72 C70 1.263 . S
C73 O74 1.235 . S
C73 O100 1.289 . S
O74 C73 1.235 . S
C75 C77 1.400 . S
C75 N78 1.351 . S
C75 C80 1.501 . S
C76 C77 1.387 . S
C76 N79 1.341 . S
C77 C75 1.400 . S
C77 C76 1.387 . S
N78 Co69 2.022 . S
N78 C75 1.351 . S
N78 N79 1.365 . S
N79 C76 1.341 . S
N79 N78 1.365 . S
N79 H99 0.862 . S
C80 C75 1.501 . S
C80 H81 0.961 . S
C80 H82 0.961 . S
C80 H83 0.960 . S
H81 C80 0.961 . S
H82 C80 0.961 . S
H83 C80 0.960 . S
C84 N85 1.342 . S
C84 C88 1.401 . S
C84 C89 1.499 . S
N85 Co68 1.989 1_554 S
N85 C84 1.342 . S
N85 N86 1.388 . S
N86 Co69 1.993 1_554 S
N86 N85 1.388 . S
N86 C87 1.346 . S
C87 N86 1.346 . S
C87 C88 1.396 . S
C87 C97 1.510 . S
C88 C84 1.401 . S
C88 C87 1.396 . S
C89 C84 1.499 . S
C89 H90 0.959 . S
C89 H91 0.960 . S
C89 H92 0.961 . S
H90 C89 0.959 . S
H91 C89 0.960 . S
H92 C89 0.961 . S
O93 Co68 1.967 . S
O93 C101 1.258 . S
O94 Co69 1.941 . S
O94 C101 1.266 . S
H95 C97 0.959 . S
H96 C97 0.961 . S
C97 C87 1.510 . S
C97 H95 0.959 . S
C97 H96 0.961 . S
C97 H98 0.960 . S
H98 C97 0.960 . S
H99 N79 0.862 . S
O100 Co68 1.920 . S
O100 C73 1.289 . S
C101 O93 1.258 . S
C101 O94 1.266 . S
Co102 O105 1.970 . S
Co102 N119 1.989 . S
Co102 O127 1.967 . S
Co102 O134 1.920 . S
Co103 O106 1.966 . S
Co103 N112 2.022 . S
Co103 N120 1.993 . S
Co103 O128 1.941 . S
C104 O105 1.258 . S
C104 O106 1.263 . S
O105 Co102 1.970 . S
O105 C104 1.258 . S
O106 Co103 1.966 . S
O106 C104 1.263 . S
C107 O108 1.235 . S
C107 O134 1.289 . S
O108 C107 1.235 . S
C109 C111 1.400 . S
C109 N112 1.351 . S
C109 C114 1.501 . S
C110 C111 1.387 . S
C110 N113 1.341 . S
C111 C109 1.400 . S
C111 C110 1.387 . S
N112 Co103 2.022 . S
N112 C109 1.351 . S
N112 N113 1.365 . S
N113 C110 1.341 . S
N113 N112 1.365 . S
N113 H133 0.862 . S
C114 C109 1.501 . S
C114 H115 0.961 . S
C114 H116 0.961 . S
C114 H117 0.960 . S
H115 C114 0.961 . S
H116 C114 0.961 . S
H117 C114 0.960 . S
C118 N119 1.342 . S
C118 C122 1.401 . S
C118 C123 1.499 . S
N119 Co102 1.989 . S
N119 C118 1.342 . S
N119 N120 1.388 . S
N120 Co103 1.993 . S
N120 N119 1.388 . S
N120 C121 1.346 . S
C121 N120 1.346 . S
C121 C122 1.396 . S
C121 C131 1.510 . S
C122 C118 1.401 . S
C122 C121 1.396 . S
C123 C118 1.499 . S
C123 H124 0.959 . S
C123 H125 0.960 . S
C123 H126 0.961 . S
H124 C123 0.959 . S
H125 C123 0.960 . S
H126 C123 0.961 . S
O127 Co102 1.967 . S
O127 C135 1.258 . S
O128 Co103 1.941 . S
O128 C135 1.266 . S
H129 C131 0.959 . S
H130 C131 0.961 . S
C131 C121 1.510 . S
C131 H129 0.959 . S
C131 H130 0.961 . S
C131 H132 0.960 . S
H132 C131 0.960 . S
H133 N113 0.862 . S
O134 Co102 1.920 . S
O134 C107 1.289 . S
C135 O127 1.258 . S
C135 O128 1.266 . S
Co136 O139 1.970 . S
Co136 N153 1.989 1_554 S
Co136 O161 1.967 . S
Co136 O168 1.920 . S
Co137 O140 1.966 . S
Co137 N146 2.022 . S
Co137 N154 1.993 1_554 S
Co137 O162 1.941 . S
C138 O139 1.258 . S
C138 O140 1.263 . S
O139 Co136 1.970 . S
O139 C138 1.258 . S
O140 Co137 1.966 . S
O140 C138 1.263 . S
C141 O142 1.235 . S
C141 O168 1.289 . S
O142 C141 1.235 . S
C143 C145 1.400 . S
C143 N146 1.351 . S
C143 C148 1.501 . S
C144 C145 1.387 . S
C144 N147 1.341 . S
C145 C143 1.400 . S
C145 C144 1.387 . S
N146 Co137 2.022 . S
N146 C143 1.351 . S
N146 N147 1.365 . S
N147 C144 1.341 . S
N147 N146 1.365 . S
N147 H167 0.862 . S
C148 C143 1.501 . S
C148 H149 0.961 . S
C148 H150 0.961 . S
C148 H151 0.960 . S
H149 C148 0.961 . S
H150 C148 0.961 . S
H151 C148 0.960 . S
C152 N153 1.342 . S
C152 C156 1.401 . S
C152 C157 1.499 . S
N153 Co136 1.989 1_556 S
N153 C152 1.342 . S
N153 N154 1.388 . S
N154 Co137 1.993 1_556 S
N154 N153 1.388 . S
N154 C155 1.346 . S
C155 N154 1.346 . S
C155 C156 1.396 . S
C155 C165 1.510 . S
C156 C152 1.401 . S
C156 C155 1.396 . S
C157 C152 1.499 . S
C157 H158 0.959 . S
C157 H159 0.960 . S
C157 H160 0.961 . S
H158 C157 0.959 . S
H159 C157 0.960 . S
H160 C157 0.961 . S
O161 Co136 1.967 . S
O161 C169 1.258 . S
O162 Co137 1.941 . S
O162 C169 1.266 . S
H163 C165 0.959 . S
H164 C165 0.961 . S
C165 C155 1.510 . S
C165 H163 0.959 . S
C165 H164 0.961 . S
C165 H166 0.960 . S
H166 C165 0.960 . S
H167 N147 0.862 . S
O168 Co136 1.920 . S
O168 C141 1.289 . S
C169 O161 1.258 . S
C169 O162 1.266 . S
Co170 O173 1.970 . S
Co170 N187 1.989 . S
Co170 O195 1.967 . S
Co170 O202 1.920 . S
Co171 O174 1.966 . S
Co171 N180 2.022 . S
Co171 N188 1.993 . S
Co171 O196 1.941 . S
C172 O173 1.258 . S
C172 O174 1.263 . S
O173 Co170 1.970 . S
O173 C172 1.258 . S
O174 Co171 1.966 . S
O174 C172 1.263 . S
C175 O176 1.235 . S
C175 O202 1.289 . S
O176 C175 1.235 . S
C177 C179 1.400 . S
C177 N180 1.351 . S
C177 C182 1.501 . S
C178 C179 1.387 . S
C178 N181 1.341 . S
C179 C177 1.400 . S
C179 C178 1.387 . S
N180 Co171 2.022 . S
N180 C177 1.351 . S
N180 N181 1.365 . S
N181 C178 1.341 . S
N181 N180 1.365 . S
N181 H201 0.862 . S
C182 C177 1.501 . S
C182 H183 0.961 . S
C182 H184 0.961 . S
C182 H185 0.960 . S
H183 C182 0.961 . S
H184 C182 0.961 . S
H185 C182 0.960 . S
C186 N187 1.342 . S
C186 C190 1.401 . S
C186 C191 1.499 . S
N187 Co170 1.989 . S
N187 C186 1.342 . S
N187 N188 1.388 . S
N188 Co171 1.993 . S
N188 N187 1.388 . S
N188 C189 1.346 . S
C189 N188 1.346 . S
C189 C190 1.396 . S
C189 C199 1.510 . S
C190 C186 1.401 . S
C190 C189 1.396 . S
C191 C186 1.499 . S
C191 H192 0.959 . S
C191 H193 0.960 . S
C191 H194 0.961 . S
H192 C191 0.959 . S
H193 C191 0.960 . S
H194 C191 0.961 . S
O195 Co170 1.967 . S
O195 C203 1.258 . S
O196 Co171 1.941 . S
O196 C203 1.266 . S
H197 C199 0.959 . S
H198 C199 0.961 . S
C199 C189 1.510 . S
C199 H197 0.959 . S
C199 H198 0.961 . S
C199 H200 0.960 . S
H200 C199 0.960 . S
H201 N181 0.862 . S
O202 Co170 1.920 . S
O202 C175 1.289 . S
C203 O195 1.258 . S
C203 O196 1.266 . S
Co204 O207 1.970 . S
Co204 N221 1.989 1_556 S
Co204 O229 1.967 . S
Co204 O236 1.920 . S
Co205 O208 1.966 . S
Co205 N214 2.022 . S
Co205 N222 1.993 1_556 S
Co205 O230 1.941 . S
C206 O207 1.258 . S
C206 O208 1.263 . S
O207 Co204 1.970 . S
O207 C206 1.258 . S
O208 Co205 1.966 . S
O208 C206 1.263 . S
C209 O210 1.235 . S
C209 O236 1.289 . S
O210 C209 1.235 . S
C211 C213 1.400 . S
C211 N214 1.351 . S
C211 C216 1.501 . S
C212 C213 1.387 . S
C212 N215 1.341 . S
C213 C211 1.400 . S
C213 C212 1.387 . S
N214 Co205 2.022 . S
N214 C211 1.351 . S
N214 N215 1.365 . S
N215 C212 1.341 . S
N215 N214 1.365 . S
N215 H235 0.862 . S
C216 C211 1.501 . S
C216 H217 0.961 . S
C216 H218 0.961 . S
C216 H219 0.960 . S
H217 C216 0.961 . S
H218 C216 0.961 . S
H219 C216 0.960 . S
C220 N221 1.342 . S
C220 C224 1.401 . S
C220 C225 1.499 . S
N221 Co204 1.989 1_554 S
N221 C220 1.342 . S
N221 N222 1.388 . S
N222 Co205 1.993 1_554 S
N222 N221 1.388 . S
N222 C223 1.346 . S
C223 N222 1.346 . S
C223 C224 1.396 . S
C223 C233 1.510 . S
C224 C220 1.401 . S
C224 C223 1.396 . S
C225 C220 1.499 . S
C225 H226 0.959 . S
C225 H227 0.960 . S
C225 H228 0.961 . S
H226 C225 0.959 . S
H227 C225 0.960 . S
H228 C225 0.961 . S
O229 Co204 1.967 . S
O229 C237 1.258 . S
O230 Co205 1.941 . S
O230 C237 1.266 . S
H231 C233 0.959 . S
H232 C233 0.961 . S
C233 C223 1.510 . S
C233 H231 0.959 . S
C233 H232 0.961 . S
C233 H234 0.960 . S
H234 C233 0.960 . S
H235 N215 0.862 . S
O236 Co204 1.920 . S
O236 C209 1.289 . S
C237 O229 1.258 . S
C237 O230 1.266 . S
Co238 O241 1.970 . S
Co238 N255 1.989 . S
Co238 O263 1.967 . S
Co238 O270 1.920 . S
Co239 O242 1.966 . S
Co239 N248 2.022 . S
Co239 N256 1.993 . S
Co239 O264 1.941 . S
C240 O241 1.258 . S
C240 O242 1.263 . S
O241 Co238 1.970 . S
O241 C240 1.258 . S
O242 Co239 1.966 . S
O242 C240 1.263 . S
C243 O244 1.235 . S
C243 O270 1.289 . S
O244 C243 1.235 . S
C245 C247 1.400 . S
C245 N248 1.351 . S
C245 C250 1.501 . S
C246 C247 1.387 . S
C246 N249 1.341 . S
C247 C245 1.400 . S
C247 C246 1.387 . S
N248 Co239 2.022 . S
N248 C245 1.351 . S
N248 N249 1.365 . S
N249 C246 1.341 . S
N249 N248 1.365 . S
N249 H269 0.862 . S
C250 C245 1.501 . S
C250 H251 0.961 . S
C250 H252 0.961 . S
C250 H253 0.960 . S
H251 C250 0.961 . S
H252 C250 0.961 . S
H253 C250 0.960 . S
C254 N255 1.342 . S
C254 C258 1.401 . S
C254 C259 1.499 . S
N255 Co238 1.989 . S
N255 C254 1.342 . S
N255 N256 1.388 . S
N256 Co239 1.993 . S
N256 N255 1.388 . S
N256 C257 1.346 . S
C257 N256 1.346 . S
C257 C258 1.396 . S
C257 C267 1.510 . S
C258 C254 1.401 . S
C258 C257 1.396 . S
C259 C254 1.499 . S
C259 H260 0.959 . S
C259 H261 0.960 . S
C259 H262 0.961 . S
H260 C259 0.959 . S
H261 C259 0.960 . S
H262 C259 0.961 . S
O263 Co238 1.967 . S
O263 C271 1.258 . S
O264 Co239 1.941 . S
O264 C271 1.266 . S
H265 C267 0.959 . S
H266 C267 0.961 . S
C267 C257 1.510 . S
C267 H265 0.959 . S
C267 H266 0.961 . S
C267 H268 0.960 . S
H268 C267 0.960 . S
H269 N249 0.862 . S
O270 Co238 1.920 . S
O270 C243 1.289 . S
C271 O263 1.258 . S
C271 O264 1.266 . S
C272 C273 1.349 . S
C272 C274 1.327 . S
C272 H297 0.950 . S
C273 C272 1.349 . S
C273 C289 1.349 . S
C274 C272 1.327 . S
C274 C293 1.429 . S
C274 H298 0.950 . S
C275 C292 1.574 . S
C275 C294 1.368 . S
C275 H299 0.949 . S
H276 C280 0.949 . S
C277 C278 1.349 . S
C277 C279 1.327 . S
C277 H300 0.950 . S
C278 C277 1.349 . S
C278 C290 1.349 . S
C279 C277 1.327 . S
C279 C295 1.429 . S
C279 H301 0.950 . S
C280 H276 0.949 . S
C280 C288 1.574 . S
C280 C296 1.368 . S
H281 C289 0.950 . S
H282 C287 0.950 . S
H283 C288 0.949 . S
H284 C290 0.950 . S
H285 C291 0.950 . S
H286 C292 0.949 . S
C287 H282 0.950 . S
C287 C289 1.327 . S
C287 C293 1.429 . S
C288 C280 1.574 . S
C288 H283 0.949 . S
C288 C294 1.368 . S
C289 C273 1.349 . S
C289 H281 0.950 . S
C289 C287 1.327 . S
C290 C278 1.349 . S
C290 H284 0.950 . S
C290 C291 1.327 . S
C291 H285 0.950 . S
C291 C290 1.327 . S
C291 C295 1.429 . S
C292 C275 1.574 . S
C292 H286 0.949 . S
C292 C296 1.368 . S
C293 C274 1.429 . S
C293 C287 1.429 . S
C293 C294 1.523 . S
C294 C275 1.368 . S
C294 C288 1.368 . S
C294 C293 1.523 . S
C295 C279 1.429 . S
C295 C291 1.429 . S
C295 C296 1.523 . S
C296 C280 1.368 . S
C296 C292 1.368 . S
C296 C295 1.523 . S
H297 C272 0.950 . S
H298 C274 0.950 . S
H299 C275 0.949 . S
H300 C277 0.950 . S
H301 C279 0.950 . S
C302 C303 1.349 . S
C302 C304 1.327 . S
C302 H327 0.950 . S
C303 C302 1.349 . S
C303 C319 1.349 . S
C304 C302 1.327 . S
C304 C323 1.429 . S
C304 H328 0.950 . S
C305 C322 1.574 . S
C305 C324 1.368 . S
C305 H329 0.949 . S
H306 C310 0.949 . S
C307 C308 1.349 . S
C307 C309 1.327 . S
C307 H330 0.950 . S
C308 C307 1.349 . S
C308 C320 1.349 . S
C309 C307 1.327 . S
C309 C325 1.429 . S
C309 H331 0.950 . S
C310 H306 0.949 . S
C310 C318 1.574 . S
C310 C326 1.368 . S
H311 C319 0.950 . S
H312 C317 0.950 . S
H313 C318 0.949 . S
H314 C320 0.950 . S
H315 C321 0.950 . S
H316 C322 0.949 . S
C317 H312 0.950 . S
C317 C319 1.327 . S
C317 C323 1.429 . S
C318 C310 1.574 . S
C318 H313 0.949 . S
C318 C324 1.368 . S
C319 C303 1.349 . S
C319 H311 0.950 . S
C319 C317 1.327 . S
C320 C308 1.349 . S
C320 H314 0.950 . S
C320 C321 1.327 . S
C321 H315 0.950 . S
C321 C320 1.327 . S
C321 C325 1.429 . S
C322 C305 1.574 . S
C322 H316 0.949 . S
C322 C326 1.368 . S
C323 C304 1.429 . S
C323 C317 1.429 . S
C323 C324 1.523 . S
C324 C305 1.368 . S
C324 C318 1.368 . S
C324 C323 1.523 . S
C325 C309 1.429 . S
C325 C321 1.429 . S
C325 C326 1.523 . S
C326 C310 1.368 . S
C326 C322 1.368 . S
C326 C325 1.523 . S
H327 C302 0.950 . S
H328 C304 0.950 . S
H329 C305 0.949 . S
H330 C307 0.950 . S
H331 C309 0.950 . S
C332 C333 1.349 . S
C332 C334 1.327 . S
C332 H357 0.950 . S
C333 C332 1.349 . S
C333 C349 1.349 . S
C334 C332 1.327 . S
C334 C353 1.429 . S
C334 H358 0.950 . S
C335 C352 1.574 . S
C335 C354 1.368 . S
C335 H359 0.949 . S
H336 C340 0.949 . S
C337 C338 1.349 . S
C337 C339 1.327 . S
C337 H360 0.950 . S
C338 C337 1.349 . S
C338 C350 1.349 . S
C339 C337 1.327 . S
C339 C355 1.429 . S
C339 H361 0.950 . S
C340 H336 0.949 . S
C340 C348 1.574 . S
C340 C356 1.368 . S
H341 C349 0.950 . S
H342 C347 0.950 . S
H343 C348 0.949 . S
H344 C350 0.950 . S
H345 C351 0.950 . S
H346 C352 0.949 . S
C347 H342 0.950 . S
C347 C349 1.327 . S
C347 C353 1.429 . S
C348 C340 1.574 . S
C348 H343 0.949 . S
C348 C354 1.368 . S
C349 C333 1.349 . S
C349 H341 0.950 . S
C349 C347 1.327 . S
C350 C338 1.349 . S
C350 H344 0.950 . S
C350 C351 1.327 . S
C351 H345 0.950 . S
C351 C350 1.327 . S
C351 C355 1.429 . S
C352 C335 1.574 . S
C352 H346 0.949 . S
C352 C356 1.368 . S
C353 C334 1.429 . S
C353 C347 1.429 . S
C353 C354 1.523 . S
C354 C335 1.368 . S
C354 C348 1.368 . S
C354 C353 1.523 . S
C355 C339 1.429 . S
C355 C351 1.429 . S
C355 C356 1.523 . S
C356 C340 1.368 . S
C356 C352 1.368 . S
C356 C355 1.523 . S
H357 C332 0.950 . S
H358 C334 0.950 . S
H359 C335 0.949 . S
H360 C337 0.950 . S
H361 C339 0.950 . S
C362 C363 1.349 . S
C362 C364 1.327 . S
C362 H387 0.950 . S
C363 C362 1.349 . S
C363 C379 1.349 . S
C364 C362 1.327 . S
C364 C383 1.429 . S
C364 H388 0.950 . S
C365 C382 1.574 . S
C365 C384 1.368 . S
C365 H389 0.949 . S
H366 C370 0.949 . S
C367 C368 1.349 . S
C367 C369 1.327 . S
C367 H390 0.950 . S
C368 C367 1.349 . S
C368 C380 1.349 . S
C369 C367 1.327 . S
C369 C385 1.429 . S
C369 H391 0.950 . S
C370 H366 0.949 . S
C370 C378 1.574 . S
C370 C386 1.368 . S
H371 C379 0.950 . S
H372 C377 0.950 . S
H373 C378 0.949 . S
H374 C380 0.950 . S
H375 C381 0.950 . S
H376 C382 0.949 . S
C377 H372 0.950 . S
C377 C379 1.327 . S
C377 C383 1.429 . S
C378 C370 1.574 . S
C378 H373 0.949 . S
C378 C384 1.368 . S
C379 C363 1.349 . S
C379 H371 0.950 . S
C379 C377 1.327 . S
C380 C368 1.349 . S
C380 H374 0.950 . S
C380 C381 1.327 . S
C381 H375 0.950 . S
C381 C380 1.327 . S
C381 C385 1.429 . S
C382 C365 1.574 . S
C382 H376 0.949 . S
C382 C386 1.368 . S
C383 C364 1.429 . S
C383 C377 1.429 . S
C383 C384 1.523 . S
C384 C365 1.368 . S
C384 C378 1.368 . S
C384 C383 1.523 . S
C385 C369 1.429 . S
C385 C381 1.429 . S
C385 C386 1.523 . S
C386 C370 1.368 . S
C386 C382 1.368 . S
C386 C385 1.523 . S
H387 C362 0.950 . S
H388 C364 0.950 . S
H389 C365 0.949 . S
H390 C367 0.950 . S
H391 C369 0.950 . S
C392 C393 1.349 . S
C392 C394 1.327 . S
C392 H417 0.950 . S
C393 C392 1.349 . S
C393 C409 1.349 . S
C394 C392 1.327 . S
C394 C413 1.429 . S
C394 H418 0.950 . S
C395 C412 1.574 1_565 S
C395 C414 1.368 . S
C395 H419 0.949 1_565 S
H396 C400 0.949 . S
C397 C398 1.349 . S
C397 C399 1.327 . S
C397 H420 0.950 . S
C398 C397 1.349 . S
C398 C410 1.349 . S
C399 C397 1.327 . S
C399 C415 1.429 . S
C399 H421 0.950 . S
C400 H396 0.949 . S
C400 C408 1.574 . S
C400 C416 1.397 . S
H401 C409 0.950 . S
H402 C407 0.950 . S
H403 C408 0.949 . S
H404 C410 0.950 . S
H405 C411 0.950 1_565 S
H406 C412 0.949 . S
C407 H402 0.950 . S
C407 C409 1.327 . S
C407 C413 1.429 . S
C408 C400 1.574 . S
C408 H403 0.949 . S
C408 C414 1.368 . S
C409 C393 1.349 . S
C409 H401 0.950 . S
C409 C407 1.327 . S
C410 C398 1.349 . S
C410 H404 0.950 . S
C410 C411 1.327 . S
C411 H405 0.950 1_545 S
C411 C410 1.327 . S
C411 C415 1.429 . S
C412 C395 1.574 1_545 S
C412 H406 0.949 . S
C412 C416 1.352 1_545 S
C413 C394 1.429 . S
C413 C407 1.429 . S
C413 C414 1.523 . S
C414 C395 1.368 . S
C414 C408 1.368 . S
C414 C413 1.523 . S
C415 C399 1.429 . S
C415 C411 1.429 . S
C415 C416 1.507 1_545 S
C416 C400 1.397 . S
C416 C412 1.352 1_565 S
C416 C415 1.507 1_565 S
H417 C392 0.950 . S
H418 C394 0.950 . S
H419 C395 0.949 1_545 S
H420 C397 0.950 . S
H421 C399 0.950 . S
C422 C423 1.349 . S
C422 C424 1.327 . S
C422 H447 0.950 . S
C423 C422 1.349 . S
C423 C439 1.349 . S
C424 C422 1.327 . S
C424 C443 1.429 . S
C424 H448 0.950 1_545 S
C425 C442 1.555 1_545 S
C425 C444 1.350 1_545 S
C425 H449 0.949 . S
H426 C430 0.949 . S
C427 C428 1.349 . S
C427 C429 1.327 . S
C427 H450 0.950 . S
C428 C427 1.349 . S
C428 C440 1.349 . S
C429 C427 1.327 . S
C429 C445 1.429 . S
C429 H451 0.950 . S
C430 H426 0.949 . S
C430 C438 1.574 . S
C430 C446 1.368 . S
H431 C439 0.950 . S
H432 C437 0.950 . S
H433 C438 0.949 . S
H434 C440 0.950 . S
H435 C441 0.950 . S
H436 C442 0.934 1_545 S
C437 H432 0.950 . S
C437 C439 1.327 . S
C437 C443 1.429 . S
C438 C430 1.574 . S
C438 H433 0.949 . S
C438 C444 1.399 . S
C439 C423 1.349 . S
C439 H431 0.950 . S
C439 C437 1.327 . S
C440 C428 1.349 . S
C440 H434 0.950 . S
C440 C441 1.327 . S
C441 H435 0.950 . S
C441 C440 1.327 . S
C441 C445 1.429 . S
C442 C425 1.555 1_565 S
C442 H436 0.934 1_565 S
C442 C446 1.405 . S
C443 C424 1.429 . S
C443 C437 1.429 . S
C443 C444 1.507 1_545 S
C444 C425 1.350 1_565 S
C444 C438 1.399 . S
C444 C443 1.507 1_565 S
C445 C429 1.429 . S
C445 C441 1.429 . S
C445 C446 1.523 . S
C446 C430 1.368 . S
C446 C442 1.405 . S
C446 C445 1.523 . S
H447 C422 0.950 . S
H448 C424 0.950 1_565 S
H449 C425 0.949 . S
H450 C427 0.950 . S
H451 C429 0.950 . S
C452 C453 1.349 . S
C452 C454 1.327 . S
C452 H477 0.950 . S
C453 C452 1.349 . S
C453 C469 1.349 . S
C454 C452 1.327 . S
C454 C473 1.429 . S
C454 H478 0.950 . S
C455 C472 1.574 . S
C455 C474 1.368 . S
C455 H479 0.949 . S
H456 C460 0.949 . S
C457 C458 1.349 . S
C457 C459 1.327 . S
C457 H480 0.950 . S
C458 C457 1.349 . S
C458 C470 1.349 . S
C459 C457 1.327 . S
C459 C475 1.429 . S
C459 H481 0.950 1_565 S
C460 H456 0.949 . S
C460 C468 1.569 1_565 S
C460 C476 1.349 1_565 S
H461 C469 0.950 . S
H462 C467 0.950 . S
H463 C468 0.945 1_565 S
H464 C470 0.950 . S
H465 C471 0.950 . S
H466 C472 0.949 . S
C467 H462 0.950 . S
C467 C469 1.327 . S
C467 C473 1.429 . S
C468 C460 1.569 1_545 S
C468 H463 0.945 1_545 S
C468 C474 1.378 . S
C469 C453 1.349 . S
C469 H461 0.950 . S
C469 C467 1.327 . S
C470 C458 1.349 . S
C470 H464 0.950 . S
C470 C471 1.327 . S
C471 H465 0.950 . S
C471 C470 1.327 . S
C471 C475 1.429 . S
C472 C455 1.574 . S
C472 H466 0.949 . S
C472 C476 1.400 . S
C473 C454 1.429 . S
C473 C467 1.429 . S
C473 C474 1.523 . S
C474 C455 1.368 . S
C474 C468 1.378 . S
C474 C473 1.523 . S
C475 C459 1.429 . S
C475 C471 1.429 . S
C475 C476 1.507 1_565 S
C476 C460 1.349 1_545 S
C476 C472 1.400 . S
C476 C475 1.507 1_545 S
H477 C452 0.950 . S
H478 C454 0.950 . S
H479 C455 0.949 . S
H480 C457 0.950 . S
H481 C459 0.950 1_545 S
C482 C483 1.349 . S
C482 C484 1.327 . S
C482 H507 0.950 . S
C483 C482 1.349 . S
C483 C499 1.349 . S
C484 C482 1.327 . S
C484 C503 1.429 . S
C484 H508 0.950 . S
C485 C502 1.574 . S
C485 C504 1.368 . S
C485 H509 0.949 . S
H486 C490 0.949 . S
C487 C488 1.349 . S
C487 C489 1.327 . S
C487 H510 0.950 . S
C488 C487 1.349 . S
C488 C500 1.349 . S
C489 C487 1.327 . S
C489 C505 1.429 . S
C489 H511 0.950 1_565 S
C490 H486 0.949 . S
C490 C498 1.574 1_565 S
C490 C506 1.361 1_565 S
H491 C499 0.950 . S
H492 C497 0.950 . S
H493 C498 0.949 . S
H494 C500 0.950 . S
H495 C501 0.950 . S
H496 C502 0.949 . S
C497 H492 0.950 . S
C497 C499 1.327 . S
C497 C503 1.429 . S
C498 C490 1.574 1_545 S
C498 H493 0.949 . S
C498 C504 1.368 . S
C499 C483 1.349 . S
C499 H491 0.950 . S
C499 C497 1.327 . S
C500 C488 1.349 . S
C500 H494 0.950 . S
C500 C501 1.327 . S
C501 H495 0.950 . S
C501 C500 1.327 . S
C501 C505 1.429 . S
C502 C485 1.574 . S
C502 H496 0.949 . S
C502 C506 1.389 . S
C503 C484 1.429 . S
C503 C497 1.429 . S
C503 C504 1.523 . S
C504 C485 1.368 . S
C504 C498 1.368 . S
C504 C503 1.523 . S
C505 C489 1.429 . S
C505 C501 1.429 . S
C505 C506 1.507 1_565 S
C506 C490 1.361 1_545 S
C506 C502 1.389 . S
C506 C505 1.507 1_545 S
H507 C482 0.950 . S
H508 C484 0.950 . S
H509 C485 0.949 . S
H510 C487 0.950 . S
H511 C489 0.950 1_545 S
C512 C513 1.349 . S
C512 C514 1.327 . S
C512 H537 0.950 . S
C513 C512 1.349 . S
C513 C529 1.349 1_554 S
C514 C512 1.327 . S
C514 C533 1.429 . S
C514 H538 0.950 . S
C515 C532 1.574 . S
C515 C534 1.368 1_556 S
C515 H539 0.949 . S
H516 C520 0.949 . S
C517 C518 1.349 . S
C517 C519 1.327 . S
C517 H540 0.950 . S
C518 C517 1.349 . S
C518 C530 1.349 1_556 S
C519 C517 1.327 . S
C519 C535 1.429 . S
C519 H541 0.950 . S
C520 H516 0.949 . S
C520 C528 1.574 . S
C520 C536 1.368 1_554 S
H521 C529 0.950 . S
H522 C527 0.950 . S
H523 C528 0.949 . S
H524 C530 0.950 . S
H525 C531 0.950 . S
H526 C532 0.949 . S
C527 H522 0.950 . S
C527 C529 1.327 . S
C527 C533 1.429 1_556 S
C528 C520 1.574 . S
C528 H523 0.949 . S
C528 C534 1.368 . S
C529 C513 1.349 1_556 S
C529 H521 0.950 . S
C529 C527 1.327 . S
C530 C518 1.349 1_554 S
C530 H524 0.950 . S
C530 C531 1.327 . S
C531 H525 0.950 . S
C531 C530 1.327 . S
C531 C535 1.429 1_554 S
C532 C515 1.574 . S
C532 H526 0.949 . S
C532 C536 1.368 . S
C533 C514 1.429 . S
C533 C527 1.429 1_554 S
C533 C534 1.523 . S
C534 C515 1.368 1_554 S
C534 C528 1.368 . S
C534 C533 1.523 . S
C535 C519 1.429 . S
C535 C531 1.429 1_556 S
C535 C536 1.523 . S
C536 C520 1.368 1_556 S
C536 C532 1.368 . S
C536 C535 1.523 . S
H537 C512 0.950 . S
H538 C514 0.950 . S
H539 C515 0.949 . S
H540 C517 0.950 . S
H541 C519 0.950 . S
C542 C543 1.349 . S
C542 C544 1.327 . S
C542 H567 0.950 . S
C543 C542 1.349 . S
C543 C559 1.349 . S
C544 C542 1.327 . S
C544 C563 1.429 . S
C544 H568 0.950 . S
C545 C562 1.574 . S
C545 C564 1.368 . S
C545 H569 0.949 . S
H546 C550 0.949 . S
C547 C548 1.349 . S
C547 C549 1.327 . S
C547 H570 0.950 . S
C548 C547 1.349 . S
C548 C560 1.349 . S
C549 C547 1.327 . S
C549 C565 1.429 . S
C549 H571 0.950 . S
C550 H546 0.949 . S
C550 C558 1.574 . S
C550 C566 1.368 . S
H551 C559 0.950 . S
H552 C557 0.950 . S
H553 C558 0.949 . S
H554 C560 0.950 . S
H555 C561 0.950 . S
H556 C562 0.949 . S
C557 H552 0.950 . S
C557 C559 1.327 . S
C557 C563 1.429 . S
C558 C550 1.574 . S
C558 H553 0.949 . S
C558 C564 1.368 . S
C559 C543 1.349 . S
C559 H551 0.950 . S
C559 C557 1.327 . S
C560 C548 1.349 . S
C560 H554 0.950 . S
C560 C561 1.327 . S
C561 H555 0.950 . S
C561 C560 1.327 . S
C561 C565 1.429 . S
C562 C545 1.574 . S
C562 H556 0.949 . S
C562 C566 1.368 . S
C563 C544 1.429 . S
C563 C557 1.429 . S
C563 C564 1.523 . S
C564 C545 1.368 . S
C564 C558 1.368 . S
C564 C563 1.523 . S
C565 C549 1.429 . S
C565 C561 1.429 . S
C565 C566 1.523 . S
C566 C550 1.368 . S
C566 C562 1.368 . S
C566 C565 1.523 . S
H567 C542 0.950 . S
H568 C544 0.950 . S
H569 C545 0.949 . S
H570 C547 0.950 . S
H571 C549 0.950 . S
C572 C573 1.349 . S
C572 C574 1.327 . S
C572 H597 0.950 . S
C573 C572 1.349 . S
C573 C589 1.395 . S
C574 C572 1.327 . S
C574 C593 1.429 . S
C574 H598 0.950 . S
C575 C592 1.574 1_455 S
C575 C594 1.368 1_564 S
C575 H599 0.949 . S
H576 C580 0.949 . S
C577 C578 1.349 . S
C577 C579 1.327 . S
C577 H600 0.950 . S
C578 C577 1.349 . S
C578 C590 1.395 . S
C579 C577 1.327 . S
C579 C595 1.429 . S
C579 H601 0.950 . S
C580 H576 0.949 . S
C580 C588 1.574 1_655 S
C580 C596 1.368 1_546 S
H581 C589 0.916 1_565 S
H582 C587 0.950 . S
H583 C588 0.949 . S
H584 C590 0.916 1_545 S
H585 C591 0.950 . S
H586 C592 0.949 . S
C587 H582 0.950 . S
C587 C589 1.315 1_565 S
C587 C593 1.429 1_565 S
C588 C580 1.574 1_455 S
C588 H583 0.949 . S
C588 C594 1.368 . S
C589 C573 1.395 . S
C589 H581 0.916 1_545 S
C589 C587 1.315 1_545 S
C590 C578 1.395 . S
C590 H584 0.916 1_565 S
C590 C591 1.315 1_565 S
C591 H585 0.950 . S
C591 C590 1.315 1_545 S
C591 C595 1.429 1_545 S
C592 C575 1.574 1_655 S
C592 H586 0.949 . S
C592 C596 1.368 . S
C593 C574 1.429 . S
C593 C587 1.429 1_545 S
C593 C594 1.523 . S
C594 C575 1.368 1_546 S
C594 C588 1.368 . S
C594 C593 1.523 . S
C595 C579 1.429 . S
C595 C591 1.429 1_565 S
C595 C596 1.523 . S
C596 C580 1.368 1_564 S
C596 C592 1.368 . S
C596 C595 1.523 . S
H597 C572 0.950 . S
H598 C574 0.950 . S
H599 C575 0.949 . S
H600 C577 0.950 . S
H601 C579 0.950 . S
C602 C603 1.349 . S
C602 C604 1.327 . S
C602 H627 0.950 . S
C603 C602 1.349 . S
C603 C619 1.370 . S
C604 C602 1.327 . S
C604 C623 1.429 . S
C604 H628 0.950 . S
C605 C622 1.574 1_655 S
C605 C624 1.368 1_565 S
C605 H629 0.949 . S
H606 C610 0.949 . S
C607 C608 1.349 . S
C607 C609 1.327 . S
C607 H630 0.950 . S
C608 C607 1.349 . S
C608 C620 1.370 . S
C609 C607 1.327 . S
C609 C625 1.429 . S
C609 H631 0.950 . S
C610 H606 0.949 . S
C610 C618 1.574 1_455 S
C610 C626 1.368 1_545 S
H611 C619 0.934 1_565 S
H612 C617 0.950 . S
H613 C618 0.949 . S
H614 C620 0.934 1_545 S
H615 C621 0.950 . S
H616 C622 0.949 . S
C617 H612 0.950 . S
C617 C619 1.322 1_565 S
C617 C623 1.429 1_565 S
C618 C610 1.574 1_655 S
C618 H613 0.949 . S
C618 C624 1.368 . S
C619 C603 1.370 . S
C619 H611 0.934 1_545 S
C619 C617 1.322 1_545 S
C620 C608 1.370 . S
C620 H614 0.934 1_565 S
C620 C621 1.322 1_565 S
C621 H615 0.950 . S
C621 C620 1.322 1_545 S
C621 C625 1.429 1_545 S
C622 C605 1.574 1_455 S
C622 H616 0.949 . S
C622 C626 1.368 . S
C623 C604 1.429 . S
C623 C617 1.429 1_545 S
C623 C624 1.523 . S
C624 C605 1.368 1_545 S
C624 C618 1.368 . S
C624 C623 1.523 . S
C625 C609 1.429 . S
C625 C621 1.429 1_565 S
C625 C626 1.523 . S
C626 C610 1.368 1_565 S
C626 C622 1.368 . S
C626 C625 1.523 . S
H627 C602 0.950 . S
H628 C604 0.950 . S
H629 C605 0.949 . S
H630 C607 0.950 . S
H631 C609 0.950 . S
C632 C633 1.349 1_556 S
C632 C634 1.327 . S
C632 H657 0.950 . S
C633 C632 1.349 1_554 S
C633 C649 1.349 . S
C634 C632 1.327 . S
C634 C653 1.429 1_556 S
C634 H658 0.950 . S
C635 C652 1.574 . S
C635 C654 1.368 . S
C635 H659 0.949 . S
H636 C640 0.949 . S
C637 C638 1.349 1_554 S
C637 C639 1.327 . S
C637 H660 0.950 . S
C638 C637 1.349 1_556 S
C638 C650 1.349 . S
C639 C637 1.327 . S
C639 C655 1.429 1_554 S
C639 H661 0.950 . S
C640 H636 0.949 . S
C640 C648 1.574 . S
C640 C656 1.368 . S
H641 C649 0.950 . S
H642 C647 0.950 . S
H643 C648 0.949 . S
H644 C650 0.950 . S
H645 C651 0.950 . S
H646 C652 0.949 . S
C647 H642 0.950 . S
C647 C649 1.327 . S
C647 C653 1.429 . S
C648 C640 1.574 . S
C648 H643 0.949 . S
C648 C654 1.368 1_556 S
C649 C633 1.349 . S
C649 H641 0.950 . S
C649 C647 1.327 . S
C650 C638 1.349 . S
C650 H644 0.950 . S
C650 C651 1.327 . S
C651 H645 0.950 . S
C651 C650 1.327 . S
C651 C655 1.429 . S
C652 C635 1.574 . S
C652 H646 0.949 . S
C652 C656 1.368 1_554 S
C653 C634 1.429 1_554 S
C653 C647 1.429 . S
C653 C654 1.523 . S
C654 C635 1.368 . S
C654 C648 1.368 1_554 S
C654 C653 1.523 . S
C655 C639 1.429 1_556 S
C655 C651 1.429 . S
C655 C656 1.523 . S
C656 C640 1.368 . S
C656 C652 1.368 1_556 S
C656 C655 1.523 . S
H657 C632 0.950 . S
H658 C634 0.950 . S
H659 C635 0.949 . S
H660 C637 0.950 . S
H661 C639 0.950 . S
C662 C663 1.349 . S
C662 C664 1.327 . S
C662 H687 0.950 . S
C663 C662 1.349 . S
C663 C679 1.349 . S
C664 C662 1.327 . S
C664 C683 1.429 . S
C664 H688 0.950 . S
C665 C682 1.574 . S
C665 C684 1.368 . S
C665 H689 0.949 . S
H666 C670 0.949 . S
C667 C668 1.349 . S
C667 C669 1.327 . S
C667 H690 0.950 . S
C668 C667 1.349 . S
C668 C680 1.349 . S
C669 C667 1.327 . S
C669 C685 1.429 . S
C669 H691 0.950 . S
C670 H666 0.949 . S
C670 C678 1.574 . S
C670 C686 1.368 . S
H671 C679 0.950 . S
H672 C677 0.950 . S
H673 C678 0.949 . S
H674 C680 0.950 . S
H675 C681 0.950 . S
H676 C682 0.949 . S
C677 H672 0.950 . S
C677 C679 1.327 . S
C677 C683 1.429 . S
C678 C670 1.574 . S
C678 H673 0.949 . S
C678 C684 1.368 . S
C679 C663 1.349 . S
C679 H671 0.950 . S
C679 C677 1.327 . S
C680 C668 1.349 . S
C680 H674 0.950 . S
C680 C681 1.327 . S
C681 H675 0.950 . S
C681 C680 1.327 . S
C681 C685 1.429 . S
C682 C665 1.574 . S
C682 H676 0.949 . S
C682 C686 1.368 . S
C683 C664 1.429 . S
C683 C677 1.429 . S
C683 C684 1.523 . S
C684 C665 1.368 . S
C684 C678 1.368 . S
C684 C683 1.523 . S
C685 C669 1.429 . S
C685 C681 1.429 . S
C685 C686 1.523 . S
C686 C670 1.368 . S
C686 C682 1.368 . S
C686 C685 1.523 . S
H687 C662 0.950 . S
H688 C664 0.950 . S
H689 C665 0.949 . S
H690 C667 0.950 . S
H691 C669 0.950 . S
C692 C693 1.349 . S
C692 C694 1.327 . S
C692 H717 0.950 . S
C693 C692 1.349 . S
C693 C709 1.349 1_554 S
C694 C692 1.327 . S
C694 C713 1.429 . S
C694 H718 0.950 . S
C695 C712 1.574 . S
C695 C714 1.368 1_556 S
C695 H719 0.949 . S
H696 C700 0.949 . S
C697 C698 1.349 . S
C697 C699 1.327 . S
C697 H720 0.950 . S
C698 C697 1.349 . S
C698 C710 1.349 1_556 S
C699 C697 1.327 . S
C699 C715 1.429 . S
C699 H721 0.950 . S
C700 H696 0.949 . S
C700 C708 1.574 . S
C700 C716 1.368 1_554 S
H701 C709 0.950 . S
H702 C707 0.950 . S
H703 C708 0.949 . S
H704 C710 0.950 . S
H705 C711 0.950 . S
H706 C712 0.949 . S
C707 H702 0.950 . S
C707 C709 1.327 . S
C707 C713 1.429 1_556 S
C708 C700 1.574 . S
C708 H703 0.949 . S
C708 C714 1.368 . S
C709 C693 1.349 1_556 S
C709 H701 0.950 . S
C709 C707 1.327 . S
C710 C698 1.349 1_554 S
C710 H704 0.950 . S
C710 C711 1.327 . S
C711 H705 0.950 . S
C711 C710 1.327 . S
C711 C715 1.429 1_554 S
C712 C695 1.574 . S
C712 H706 0.949 . S
C712 C716 1.368 . S
C713 C694 1.429 . S
C713 C707 1.429 1_554 S
C713 C714 1.523 . S
C714 C695 1.368 1_554 S
C714 C708 1.368 . S
C714 C713 1.523 . S
C715 C699 1.429 . S
C715 C711 1.429 1_556 S
C715 C716 1.523 . S
C716 C700 1.368 1_556 S
C716 C712 1.368 . S
C716 C715 1.523 . S
H717 C692 0.950 . S
H718 C694 0.950 . S
H719 C695 0.949 . S
H720 C697 0.950 . S
H721 C699 0.950 . S
C722 C723 1.349 . S
C722 C724 1.327 . S
C722 H747 0.950 . S
C723 C722 1.349 . S
C723 C739 1.349 . S
C724 C722 1.327 . S
C724 C743 1.429 . S
C724 H748 0.950 . S
C725 C742 1.574 . S
C725 C744 1.368 . S
C725 H749 0.949 . S
H726 C730 0.949 . S
C727 C728 1.349 . S
C727 C729 1.327 . S
C727 H750 0.950 . S
C728 C727 1.349 . S
C728 C740 1.349 . S
C729 C727 1.327 . S
C729 C745 1.429 . S
C729 H751 0.950 . S
C730 H726 0.949 . S
C730 C738 1.574 . S
C730 C746 1.368 . S
H731 C739 0.950 . S
H732 C737 0.950 . S
H733 C738 0.949 . S
H734 C740 0.950 . S
H735 C741 0.950 . S
H736 C742 0.949 . S
C737 H732 0.950 . S
C737 C739 1.327 . S
C737 C743 1.429 . S
C738 C730 1.574 . S
C738 H733 0.949 . S
C738 C744 1.368 . S
C739 C723 1.349 . S
C739 H731 0.950 . S
C739 C737 1.327 . S
C740 C728 1.349 . S
C740 H734 0.950 . S
C740 C741 1.327 . S
C741 H735 0.950 . S
C741 C740 1.327 . S
C741 C745 1.429 . S
C742 C725 1.574 . S
C742 H736 0.949 . S
C742 C746 1.368 . S
C743 C724 1.429 . S
C743 C737 1.429 . S
C743 C744 1.523 . S
C744 C725 1.368 . S
C744 C738 1.368 . S
C744 C743 1.523 . S
C745 C729 1.429 . S
C745 C741 1.429 . S
C745 C746 1.523 . S
C746 C730 1.368 . S
C746 C742 1.368 . S
C746 C745 1.523 . S
H747 C722 0.950 . S
H748 C724 0.950 . S
H749 C725 0.949 . S
H750 C727 0.950 . S
H751 C729 0.950 . S
C752 C753 1.349 . S
C752 C754 1.327 . S
C752 H777 0.950 . S
C753 C752 1.349 . S
C753 C769 1.349 . S
C754 C752 1.327 . S
C754 C773 1.429 . S
C754 H778 0.950 . S
C755 C772 1.574 . S
C755 C774 1.368 . S
C755 H779 0.949 . S
H756 C760 0.949 . S
C757 C758 1.349 . S
C757 C759 1.327 . S
C757 H780 0.950 . S
C758 C757 1.349 . S
C758 C770 1.349 . S
C759 C757 1.327 . S
C759 C775 1.429 . S
C759 H781 0.950 . S
C760 H756 0.949 . S
C760 C768 1.574 . S
C760 C776 1.368 . S
H761 C769 0.950 . S
H762 C767 0.950 . S
H763 C768 0.949 . S
H764 C770 0.950 . S
H765 C771 0.950 . S
H766 C772 0.949 . S
C767 H762 0.950 . S
C767 C769 1.327 . S
C767 C773 1.429 . S
C768 C760 1.574 . S
C768 H763 0.949 . S
C768 C774 1.368 . S
C769 C753 1.349 . S
C769 H761 0.950 . S
C769 C767 1.327 . S
C770 C758 1.349 . S
C770 H764 0.950 . S
C770 C771 1.327 . S
C771 H765 0.950 . S
C771 C770 1.327 . S
C771 C775 1.429 . S
C772 C755 1.574 . S
C772 H766 0.949 . S
C772 C776 1.368 . S
C773 C754 1.429 . S
C773 C767 1.429 . S
C773 C774 1.523 . S
C774 C755 1.368 . S
C774 C768 1.368 . S
C774 C773 1.523 . S
C775 C759 1.429 . S
C775 C771 1.429 . S
C775 C776 1.523 . S
C776 C760 1.368 . S
C776 C772 1.368 . S
C776 C775 1.523 . S
H777 C752 0.950 . S
H778 C754 0.950 . S
H779 C755 0.949 . S
H780 C757 0.950 . S
H781 C759 0.950 . S
C782 C783 1.349 . S
C782 C784 1.327 . S
C782 H807 0.950 . S
C783 C782 1.349 . S
C783 C799 1.349 . S
C784 C782 1.327 . S
C784 C803 1.429 . S
C784 H808 0.950 . S
C785 C802 1.574 . S
C785 C804 1.368 . S
C785 H809 0.949 . S
H786 C790 0.949 . S
C787 C788 1.349 . S
C787 C789 1.327 . S
C787 H810 0.950 . S
C788 C787 1.349 . S
C788 C800 1.349 . S
C789 C787 1.327 . S
C789 C805 1.429 . S
C789 H811 0.950 . S
C790 H786 0.949 . S
C790 C798 1.574 . S
C790 C806 1.368 . S
H791 C799 0.950 . S
H792 C797 0.950 . S
H793 C798 0.949 . S
H794 C800 0.950 . S
H795 C801 0.950 . S
H796 C802 0.949 . S
C797 H792 0.950 . S
C797 C799 1.327 . S
C797 C803 1.429 . S
C798 C790 1.574 . S
C798 H793 0.949 . S
C798 C804 1.368 . S
C799 C783 1.349 . S
C799 H791 0.950 . S
C799 C797 1.327 . S
C800 C788 1.349 . S
C800 H794 0.950 . S
C800 C801 1.327 . S
C801 H795 0.950 . S
C801 C800 1.327 . S
C801 C805 1.429 . S
C802 C785 1.574 . S
C802 H796 0.949 . S
C802 C806 1.368 . S
C803 C784 1.429 . S
C803 C797 1.429 . S
C803 C804 1.523 . S
C804 C785 1.368 . S
C804 C798 1.368 . S
C804 C803 1.523 . S
C805 C789 1.429 . S
C805 C801 1.429 . S
C805 C806 1.523 . S
C806 C790 1.368 . S
C806 C802 1.368 . S
C806 C805 1.523 . S
H807 C782 0.950 . S
H808 C784 0.950 . S
H809 C785 0.949 . S
H810 C787 0.950 . S
H811 C789 0.950 . S
C812 C813 1.349 . S
C812 C814 1.327 . S
C812 H837 0.950 . S
C813 C812 1.349 . S
C813 C829 1.349 . S
C814 C812 1.327 . S
C814 C833 1.429 . S
C814 H838 0.950 . S
C815 C832 1.574 1_455 S
C815 C834 1.368 . S
C815 H839 0.949 . S
H816 C820 0.949 . S
C817 C818 1.349 . S
C817 C819 1.327 . S
C817 H840 0.950 . S
C818 C817 1.349 . S
C818 C830 1.349 . S
C819 C817 1.327 . S
C819 C835 1.429 . S
C819 H841 0.950 . S
C820 H816 0.949 . S
C820 C828 1.574 1_655 S
C820 C836 1.368 . S
H821 C829 0.950 . S
H822 C827 0.950 . S
H823 C828 0.949 . S
H824 C830 0.950 . S
H825 C831 0.950 . S
H826 C832 0.949 . S
C827 H822 0.950 . S
C827 C829 1.327 . S
C827 C833 1.429 . S
C828 C820 1.574 1_455 S
C828 H823 0.949 . S
C828 C834 1.368 . S
C829 C813 1.349 . S
C829 H821 0.950 . S
C829 C827 1.327 . S
C830 C818 1.349 . S
C830 H824 0.950 . S
C830 C831 1.327 . S
C831 H825 0.950 . S
C831 C830 1.327 . S
C831 C835 1.429 . S
C832 C815 1.574 1_655 S
C832 H826 0.949 . S
C832 C836 1.368 . S
C833 C814 1.429 . S
C833 C827 1.429 . S
C833 C834 1.523 . S
C834 C815 1.368 . S
C834 C828 1.368 . S
C834 C833 1.523 . S
C835 C819 1.429 . S
C835 C831 1.429 . S
C835 C836 1.523 . S
C836 C820 1.368 . S
C836 C832 1.368 . S
C836 C835 1.523 . S
H837 C812 0.950 . S
H838 C814 0.950 . S
H839 C815 0.949 . S
H840 C817 0.950 . S
H841 C819 0.950 . S
C842 C843 1.349 . S
C842 C844 1.327 . S
C842 H867 0.950 . S
C843 C842 1.349 . S
C843 C859 1.349 . S
C844 C842 1.327 . S
C844 C863 1.429 . S
C844 H868 0.950 . S
C845 C862 1.574 1_455 S
C845 C864 1.368 . S
C845 H869 0.949 . S
H846 C850 0.949 . S
C847 C848 1.349 . S
C847 C849 1.327 . S
C847 H870 0.950 . S
C848 C847 1.349 . S
C848 C860 1.349 . S
C849 C847 1.327 . S
C849 C865 1.429 . S
C849 H871 0.950 . S
C850 H846 0.949 . S
C850 C858 1.574 1_655 S
C850 C866 1.368 . S
H851 C859 0.950 . S
H852 C857 0.950 . S
H853 C858 0.949 . S
H854 C860 0.950 . S
H855 C861 0.950 . S
H856 C862 0.949 . S
C857 H852 0.950 . S
C857 C859 1.327 . S
C857 C863 1.429 . S
C858 C850 1.574 1_455 S
C858 H853 0.949 . S
C858 C864 1.368 . S
C859 C843 1.349 . S
C859 H851 0.950 . S
C859 C857 1.327 . S
C860 C848 1.349 . S
C860 H854 0.950 . S
C860 C861 1.327 . S
C861 H855 0.950 . S
C861 C860 1.327 . S
C861 C865 1.429 . S
C862 C845 1.574 1_655 S
C862 H856 0.949 . S
C862 C866 1.368 . S
C863 C844 1.429 . S
C863 C857 1.429 . S
C863 C864 1.523 . S
C864 C845 1.368 . S
C864 C858 1.368 . S
C864 C863 1.523 . S
C865 C849 1.429 . S
C865 C861 1.429 . S
C865 C866 1.523 . S
C866 C850 1.368 . S
C866 C862 1.368 . S
C866 C865 1.523 . S
H867 C842 0.950 . S
H868 C844 0.950 . S
H869 C845 0.949 . S
H870 C847 0.950 . S
H871 C849 0.950 . S
C273 C135 1.355 . S
C278 C20 1.305 . S
C303 C54 1.305 . S
C308 C101 1.355 . S
C333 C67 1.355 . S
C338 C88 1.305 . S
C363 C33 1.355 . S
C368 C122 1.305 . S
C393 C156 1.305 . S
C398 C271 1.355 . S
C423 C237 1.355 . S
C428 C190 1.305 . S
C453 C224 1.305 . S
C458 C203 1.355 . S
C483 C258 1.305 . S
C488 C169 1.355 . S
C513 C5 0.575 . S
C518 C73 0.575 . S
C543 C39 0.575 . S
C548 C107 0.575 . S
C573 C209 0.575 . S
C578 C141 0.575 . S
C603 C243 0.575 . S
C608 C175 0.575 . S
C633 C9 1.275 . S
C638 C213 1.275 . S
C663 C43 1.275 . S
C668 C247 1.275 . S
C693 C145 1.275 . S
C698 C77 1.275 . S
C723 C179 1.275 . S
C728 C111 1.275 . S
C753 C36 1.793 . S
C758 C2 1.793 . S
C783 C104 1.793 . S
C788 C70 1.793 . S
C813 C172 1.793 . S
C818 C138 1.793 . S
C843 C206 1.793 . S
C848 C240 1.793 . S
