# Generated by pormake.
# Topology wjd, (6)-cn, num edge types: 1
# Building blocks:
#     Node 0, Type 0, BuildingBlock: KUMBUR_clean_sbu_1, # of connection points: 6
#     Node 1, Type 0, BuildingBlock: KUMBUR_clean_sbu_1, # of connection points: 6
#     Node 2, Type 0, BuildingBlock: KUMBUR_clean_sbu_1, # of connection points: 6
#     Node 3, Type 0, BuildingBlock: KUMBUR_clean_sbu_1, # of connection points: 6
#     Node 4, Type 0, BuildingBlock: KUMBUR_clean_sbu_1, # of connection points: 6
#     Node 5, Type 0, BuildingBlock: KUMBUR_clean_sbu_1, # of connection points: 6
#     Node 6, Type 0, BuildingBlock: KUMBUR_clean_sbu_1, # of connection points: 6
#     Node 7, Type 0, BuildingBlock: KUMBUR_clean_sbu_1, # of connection points: 6
#     Node 8, Type 0, BuildingBlock: KUMBUR_clean_sbu_1, # of connection points: 6
#     Node 9, Type 0, BuildingBlock: KUMBUR_clean_sbu_1, # of connection points: 6
#     Node 10, Type 0, BuildingBlock: KUMBUR_clean_sbu_1, # of connection points: 6
#     Node 11, Type 0, BuildingBlock: KUMBUR_clean_sbu_1, # of connection points: 6
#     Edge 12, Type (0, 0), BuildingBlock: TEMPAE_clean_linker_10, # of connection points: 2
#     Edge 13, Type (0, 0), BuildingBlock: TEMPAE_clean_linker_10, # of connection points: 2
#     Edge 14, Type (0, 0), BuildingBlock: TEMPAE_clean_linker_10, # of connection points: 2
#     Edge 15, Type (0, 0), BuildingBlock: TEMPAE_clean_linker_10, # of connection points: 2
#     Edge 16, Type (0, 0), BuildingBlock: TEMPAE_clean_linker_10, # of connection points: 2
#     Edge 17, Type (0, 0), BuildingBlock: TEMPAE_clean_linker_10, # of connection points: 2
#     Edge 18, Type (0, 0), BuildingBlock: TEMPAE_clean_linker_10, # of connection points: 2
#     Edge 19, Type (0, 0), BuildingBlock: TEMPAE_clean_linker_10, # of connection points: 2
#     Edge 20, Type (0, 0), BuildingBlock: TEMPAE_clean_linker_10, # of connection points: 2
#     Edge 21, Type (0, 0), BuildingBlock: TEMPAE_clean_linker_10, # of connection points: 2
#     Edge 22, Type (0, 0), BuildingBlock: TEMPAE_clean_linker_10, # of connection points: 2
#     Edge 23, Type (0, 0), BuildingBlock: TEMPAE_clean_linker_10, # of connection points: 2
#     Edge 24, Type (0, 0), BuildingBlock: TEMPAE_clean_linker_10, # of connection points: 2
#     Edge 25, Type (0, 0), BuildingBlock: TEMPAE_clean_linker_10, # of connection points: 2
#     Edge 26, Type (0, 0), BuildingBlock: TEMPAE_clean_linker_10, # of connection points: 2
#     Edge 27, Type (0, 0), BuildingBlock: TEMPAE_clean_linker_10, # of connection points: 2
#     Edge 28, Type (0, 0), BuildingBlock: TEMPAE_clean_linker_10, # of connection points: 2
#     Edge 29, Type (0, 0), BuildingBlock: TEMPAE_clean_linker_10, # of connection points: 2
#     Edge 30, Type (0, 0), BuildingBlock: TEMPAE_clean_linker_10, # of connection points: 2
#     Edge 31, Type (0, 0), BuildingBlock: TEMPAE_clean_linker_10, # of connection points: 2
#     Edge 32, Type (0, 0), BuildingBlock: TEMPAE_clean_linker_10, # of connection points: 2
#     Edge 33, Type (0, 0), BuildingBlock: TEMPAE_clean_linker_10, # of connection points: 2
#     Edge 34, Type (0, 0), BuildingBlock: TEMPAE_clean_linker_10, # of connection points: 2
#     Edge 35, Type (0, 0), BuildingBlock: TEMPAE_clean_linker_10, # of connection points: 2
#     Edge 36, Type (0, 0), BuildingBlock: TEMPAE_clean_linker_10, # of connection points: 2
#     Edge 37, Type (0, 0), BuildingBlock: TEMPAE_clean_linker_10, # of connection points: 2
#     Edge 38, Type (0, 0), BuildingBlock: TEMPAE_clean_linker_10, # of connection points: 2
#     Edge 39, Type (0, 0), BuildingBlock: TEMPAE_clean_linker_10, # of connection points: 2
#     Edge 40, Type (0, 0), BuildingBlock: TEMPAE_clean_linker_10, # of connection points: 2
#     Edge 41, Type (0, 0), BuildingBlock: TEMPAE_clean_linker_10, # of connection points: 2
#     Edge 42, Type (0, 0), BuildingBlock: TEMPAE_clean_linker_10, # of connection points: 2
#     Edge 43, Type (0, 0), BuildingBlock: TEMPAE_clean_linker_10, # of connection points: 2
#     Edge 44, Type (0, 0), BuildingBlock: TEMPAE_clean_linker_10, # of connection points: 2
#     Edge 45, Type (0, 0), BuildingBlock: TEMPAE_clean_linker_10, # of connection points: 2
#     Edge 46, Type (0, 0), BuildingBlock: TEMPAE_clean_linker_10, # of connection points: 2
#     Edge 47, Type (0, 0), BuildingBlock: TEMPAE_clean_linker_10, # of connection points: 2
# Relax obj value: 0.072
# Max RMSD: 0.186
# Mean RMSD: 0.186
data_MOF--net-wjd--node1-KUMBUR_clean_sbu_1--edge1-TEMPAE_clean_linker_10
_symmetry_space_group_name_H-M    P1
_symmetry_Int_Tables_number       1
_symmetry_cell_setting            triclinic
loop_
_symmetry_equiv_pos_as_xyz
'x, y, z'
_cell_length_a     39.223868
_cell_length_b     39.268758
_cell_length_c     54.405532
_cell_angle_alpha  90.022237
_cell_angle_beta   89.927221
_cell_angle_gamma 120.01727
loop_
_atom_site_label
_atom_site_type_symbol
_atom_site_fract_x
_atom_site_fract_y
_atom_site_fract_z
_atom_type_partial_charge
Tb0 Tb 0.32341 0.08436 0.14521 0.0
C1 C 0.34874 0.22753 0.08223 0.0
N2 N 0.35794 0.19906 0.07764 0.0
C3 C 0.33486 0.19332 0.03619 0.0
C4 C 0.33261 0.24038 0.06376 0.0
C5 C 0.35177 0.18225 0.0549 0.0
C6 C 0.32526 0.22255 0.04062 0.0
C7 C 0.34873 0.27506 0.11061 0.0
C8 C 0.356 0.24405 0.10553 0.0
C9 C 0.33398 0.28891 0.09201 0.0
C10 C 0.32524 0.27116 0.06879 0.0
Tb11 Tb 0.38887 0.1865 0.10882 0.0
N12 N 0.37153 0.23072 0.12286 0.0
C13 C 0.35766 0.29206 0.13399 0.0
C14 C 0.38272 0.24917 0.14511 0.0
C15 C 0.37487 0.27913 0.15128 0.0
H16 H 0.36076 0.16108 0.05081 0.0
H17 H 0.38344 0.29322 0.16908 0.0
H18 H 0.31065 0.09718 0.204 0.0
H19 H 0.37966 1.00009 0.09968 0.0
H20 H 0.39966 0.24272 0.15778 0.0
H21 H 0.35247 0.31592 0.13864 0.0
H22 H 0.34952 0.0419 0.10181 0.0
H23 H 0.32997 0.17985 0.01822 0.0
H24 H 0.32934 0.31348 0.09537 0.0
H25 H 0.31343 0.28191 0.05474 0.0
H26 H 0.32212 0.07525 0.24405 0.0
H27 H 0.31279 0.23154 0.02596 0.0
H28 H 0.39764 0.97891 0.13799 0.0
N29 N 0.33487 0.06828 0.18335 0.0
C30 C 0.35167 0.04531 0.18399 0.0
C31 C 0.33095 0.06694 0.22733 0.0
C32 C 0.35925 0.03258 0.20645 0.0
C33 C 0.32458 0.07939 0.20461 0.0
C34 C 0.34857 0.04363 0.22828 0.0
N35 N 0.3519 0.04617 0.14069 0.0
C36 C 0.35768 0.03352 0.11854 0.0
C37 C 0.37706 1.00921 0.16169 0.0
C38 C 0.36016 0.03353 0.16194 0.0
C39 C 0.38463 0.99756 0.13899 0.0
C40 C 0.3746 1.00953 0.11733 0.0
H41 H 0.3535 0.03399 0.24587 0.0
H42 H 0.38276 0.99877 0.22349 0.0
H43 H 0.39862 0.97852 0.18426 0.0
O44 O 0.27441 0.03733 0.1278 0.0
O45 O 0.38851 0.10763 0.14465 0.0
O46 O 0.40679 0.14254 0.10881 0.0
O47 O 0.27224 0.0494 0.16598 0.0
O48 O 0.31451 0.08778 0.10553 0.0
O49 O 0.37298 0.13268 0.08701 0.0
O50 O 0.44383 0.23662 0.11714 0.0
O51 O 0.32442 0.15929 0.10904 0.0
O52 O 0.30523 0.1292 0.14675 0.0
O53 O 0.42911 0.21591 0.08018 0.0
O54 O 0.40099 0.18434 0.14882 0.0
O55 O 0.34093 0.1386 0.16537 0.0
C56 C 0.41565 0.12886 0.12811 0.0
C57 C 0.23186 0.98355 0.15328 0.0
C58 C 0.17005 0.92019 0.15332 0.0
C59 C 0.18951 0.90376 0.16626 0.0
C60 C 0.25039 0.96606 0.16577 0.0
C61 C 0.22931 0.92645 0.17221 0.0
C62 C 0.19173 0.96049 0.14694 0.0
C63 C 0.33898 0.09893 0.08679 0.0
C64 C 0.25342 0.02608 0.14782 0.0
C65 C 0.37654 1.00871 0.20639 0.0
C66 C 0.38552 0.99713 0.18405 0.0
C67 C 0.30142 0.14893 0.12837 0.0
C68 C 0.46377 0.2853 0.08593 0.0
C69 C 0.50149 0.35728 0.09096 0.0
C70 C 0.48129 0.3608 0.07063 0.0
C71 C 0.44468 0.29029 0.06553 0.0
C72 C 0.49253 0.31913 0.09853 0.0
C73 C 0.4532 0.32764 0.05813 0.0
C74 C 0.37742 0.16728 0.16789 0.0
C75 C 0.45314 0.24496 0.09412 0.0
H76 H 0.17388 0.87337 0.17218 0.0
H77 H 0.28094 0.98307 0.1709 0.0
H78 H 0.24378 0.91335 0.18214 0.0
H79 H 0.1776 0.97399 0.13702 0.0
H80 H 0.48787 0.38941 0.0639 0.0
H81 H 0.42302 0.26533 0.05514 0.0
H82 H 0.50756 0.31572 0.11421 0.0
H83 H 0.43817 0.33093 0.04242 0.0
Tb84 Tb 0.82596 0.64727 0.40475 0.0
C85 C 0.70969 0.67529 0.33904 0.0
N86 N 0.7495 0.69362 0.33716 0.0
C87 C 0.74447 0.68864 0.2933 0.0
C88 C 0.6855 0.66218 0.31804 0.0
C89 C 0.76713 0.70168 0.31465 0.0
C90 C 0.70342 0.66836 0.29497 0.0
C91 C 0.65223 0.65325 0.36502 0.0
C92 C 0.6933 0.6706 0.36216 0.0
C93 C 0.62783 0.63953 0.34421 0.0
C94 C 0.64443 0.64384 0.32077 0.0
Tb95 Tb 0.78378 0.71094 0.3732 0.0
N96 N 0.71793 0.68321 0.38185 0.0
C97 C 0.63706 0.65067 0.38866 0.0
C98 C 0.70337 0.68229 0.40475 0.0
C99 C 0.66284 0.66575 0.40858 0.0
H100 H 0.7987 0.71903 0.31315 0.0
H101 H 0.65155 0.66482 0.42688 0.0
H102 H 0.82297 0.66133 0.46519 0.0
H103 H 0.94507 0.67434 0.34326 0.0
H104 H 0.72273 0.69488 0.42001 0.0
H105 H 0.60568 0.63771 0.39168 0.0
H106 H 0.87736 0.656 0.3535 0.0
H107 H 0.75885 0.69459 0.27565 0.0
H108 H 0.59615 0.62587 0.34603 0.0
H109 H 0.62531 0.63343 0.30485 0.0
H110 H 0.87023 0.68767 0.49926 0.0
H111 H 0.68585 0.6583 0.2784 0.0
H112 H 0.99529 0.69613 0.37591 0.0
N113 N 0.86646 0.67267 0.43795 0.0
C114 C 0.905 0.68488 0.43352 0.0
C115 C 0.88045 0.68733 0.48082 0.0
C116 C 0.93281 0.69855 0.45273 0.0
C117 C 0.85375 0.67307 0.46129 0.0
C118 C 0.92016 0.70014 0.47654 0.0
N119 N 0.88917 0.67168 0.39131 0.0
C120 C 0.89907 0.66809 0.36776 0.0
C121 C 0.95578 0.69379 0.4045 0.0
C122 C 0.91655 0.68358 0.40955 0.0
C123 C 0.96588 0.69008 0.38039 0.0
C124 C 0.93756 0.67768 0.36192 0.0
H125 H 0.94067 0.71061 0.49179 0.0
H126 H 0.99384 0.71982 0.46221 0.0
H127 H 1.0136 0.71419 0.42021 0.0
O128 O 0.82751 0.598 0.39094 0.0
O129 O 0.86281 0.71183 0.4052 0.0
O130 O 0.84745 0.73256 0.36953 0.0
O131 O 0.82092 0.6039 0.42973 0.0
O132 O 0.80964 0.63684 0.36489 0.0
O133 O 0.82105 0.69698 0.35086 0.0
O134 O 0.78526 0.76013 0.38998 0.0
O135 O 0.7444 0.64588 0.37363 0.0
O136 O 0.76283 0.62291 0.40726 0.0
O137 O 0.79704 0.76004 0.35139 0.0
O138 O 0.80051 0.71879 0.4121 0.0
O139 O 0.78768 0.65981 0.42887 0.0
C140 C 0.87292 0.73641 0.38666 0.0
C141 C 0.80196 0.5397 0.41458 0.0
C142 C 0.80117 0.47717 0.40995 0.0
C143 C 0.76351 0.45792 0.42084 0.0
C144 C 0.76443 0.51989 0.42524 0.0
C145 C 0.7454 0.47913 0.42835 0.0
C146 C 0.81995 0.51826 0.40675 0.0
C147 C 0.81514 0.66152 0.3467 0.0
C148 C 0.82458 0.58284 0.4126 0.0
C149 C 0.9721 0.70955 0.44766 0.0
C150 C 0.98339 0.70653 0.4237 0.0
C151 C 0.73873 0.61773 0.38921 0.0
C152 C 0.77195 0.80048 0.36391 0.0
C153 C 0.77228 0.86289 0.36201 0.0
C154 C 0.73618 0.8435 0.34924 0.0
C155 C 0.73576 0.78176 0.3516 0.0
C156 C 0.78981 0.84076 0.36938 0.0
C157 C 0.71798 0.80324 0.34436 0.0
C158 C 0.78748 0.69344 0.43031 0.0
C159 C 0.79333 0.7796 0.36941 0.0
H160 H 0.74833 0.42654 0.42419 0.0
H161 H 0.75014 0.5359 0.4314 0.0
H162 H 0.71666 0.46384 0.4369 0.0
H163 H 0.84888 0.53386 0.39836 0.0
H164 H 0.72214 0.85944 0.3426 0.0
H165 H 0.72172 0.75087 0.3471 0.0
H166 H 0.81749 0.85475 0.37926 0.0
H167 H 0.69029 0.78877 0.33453 0.0
Tb168 Tb 0.95846 0.25005 0.1433 0.0
C169 C 0.81273 0.11391 0.09557 0.0
N170 N 0.83449 0.15173 0.08766 0.0
C171 C 0.83471 0.12933 0.04671 0.0
C172 C 0.80241 0.08217 0.07939 0.0
C173 C 0.84445 0.15987 0.06346 0.0
C174 C 0.81389 0.09032 0.05473 0.0
C175 C 0.78029 0.06834 0.12915 0.0
C176 C 0.80193 0.1072 0.1202 0.0
C177 C 0.7704 0.03662 0.11317 0.0
C178 C 0.78137 0.04351 0.08837 0.0
Tb179 Tb 0.8477 0.19895 0.11634 0.0
N180 N 0.8121 0.1387 0.13519 0.0
C181 C 0.76857 0.06246 0.15378 0.0
C182 C 0.7978 0.13274 0.1587 0.0
C183 C 0.77682 0.09477 0.16849 0.0
H184 H 0.85959 0.18982 0.05689 0.0
H185 H 0.76627 0.09042 0.18726 0.0
H186 H 0.95233 0.24564 0.20448 0.0
H187 H 0.04945 0.37469 0.08565 0.0
H188 H 0.8009 0.15666 0.16991 0.0
H189 H 0.75202 0.03307 0.16138 0.0
H190 H 1.01177 0.30411 0.09675 0.0
H191 H 0.84308 0.13588 0.02758 0.0
H192 H 0.75381 1.0066 0.11976 0.0
H193 H 0.77341 0.01872 0.07627 0.0
H194 H 0.95947 0.28999 0.23856 0.0
H195 H 0.80656 0.06675 0.04173 0.0
H196 H 0.05598 0.425 0.11576 0.0
N197 N 0.96859 0.28931 0.17691 0.0
C198 C 0.98652 0.32856 0.17252 0.0
C199 C 0.96635 0.3012 0.21999 0.0
C200 C 0.99305 0.3556 0.19148 0.0
C201 C 0.96115 0.27579 0.20052 0.0
C202 C 0.9815 0.34122 0.21539 0.0
N203 N 0.99572 0.31454 0.13203 0.0
C204 C 1.01414 0.32589 0.10976 0.0
C205 C 0.02258 0.38226 0.144 0.0
C206 C 1.00129 0.34177 0.1493 0.0
C207 C 0.03935 0.39413 0.1206 0.0
C208 C 0.03569 0.36581 0.10355 0.0
H209 H 0.98601 0.36094 0.23055 0.0
H210 H 1.01734 0.4173 0.20038 0.0
H211 H 0.04306 0.44068 0.15867 0.0
O212 O 1.0007 0.23841 0.12726 0.0
O213 O 0.93662 0.28634 0.12566 0.0
O214 O 0.87136 0.2548 0.13595 0.0
O215 O 1.00309 0.25206 0.16555 0.0
O216 O 0.94849 0.23079 0.10503 0.0
O217 O 0.89602 0.23602 0.08979 0.0
O218 O 0.78656 0.17703 0.11666 0.0
O219 O 0.88309 0.16985 0.11335 0.0
O220 O 0.91828 0.18691 0.14909 0.0
O221 O 0.82365 0.22237 0.09132 0.0
O222 O 0.85462 0.21598 0.1558 0.0
O223 O 0.91 0.21402 0.16879 0.0
C224 C 0.90402 0.287 0.13026 0.0
C225 C 0.06326 0.26816 0.14651 0.0
C226 C 0.12689 0.27053 0.14404 0.0
C227 C 0.14556 0.31111 0.1494 0.0
C228 C 0.08269 0.30863 0.15128 0.0
C229 C 0.12364 0.32994 0.15263 0.0
C230 C 0.08536 0.24939 0.14247 0.0
C231 C 0.93141 0.23938 0.08717 0.0
C232 C 0.02005 0.24435 0.14765 0.0
C233 C 1.01245 0.39605 0.18613 0.0
C234 C 0.0272 0.40938 0.1624 0.0
C235 C 0.89909 0.16115 0.13168 0.0
C236 C 0.76586 0.22207 0.10624 0.0
C237 C 0.70393 0.21893 0.1187 0.0
C238 C 0.7234 0.26026 0.11763 0.0
C239 C 0.78422 0.26326 0.10539 0.0
C240 C 0.72551 0.19999 0.11277 0.0
C241 C 0.763 0.28205 0.11101 0.0
C242 C 0.87687 0.21387 0.17339 0.0
C243 C 0.78814 0.2017 0.10027 0.0
H244 H 0.17716 0.32848 0.15161 0.0
H245 H 0.06621 0.32355 0.15456 0.0
H246 H 0.13849 0.36108 0.15673 0.0
H247 H 0.06993 0.21824 0.13833 0.0
H248 H 0.70776 0.27592 0.12141 0.0
H249 H 0.81491 0.28102 0.10027 0.0
H250 H 0.71111 0.16818 0.11344 0.0
H251 H 0.77717 0.31372 0.11005 0.0
Tb252 Tb 0.37217 0.18347 0.4075 0.0
C253 C 0.36255 0.04166 0.34699 0.0
N254 N 0.34145 0.05998 0.34321 0.0
C255 C 0.351 0.05935 0.29977 0.0
C256 C 0.37959 0.03221 0.32725 0.0
C257 C 0.33449 0.06784 0.31995 0.0
C258 C 0.37397 0.04176 0.30339 0.0
C259 C 0.38799 1.01273 0.37571 0.0
C260 C 0.36674 0.03215 0.37082 0.0
C261 C 0.40559 1.00369 0.35617 0.0
C262 C 0.40144 0.01345 0.33199 0.0
Tb263 Tb 0.31864 0.0756 0.37751 0.0
N264 N 0.35027 0.04252 0.38924 0.0
C265 C 0.39064 1.00281 0.40005 0.0
C266 C 0.35091 0.03095 0.41277 0.0
C267 C 0.37152 1.01148 0.41861 0.0
H268 H 0.31543 0.07982 0.31694 0.0
H269 H 0.37234 1.00287 0.4374 0.0
H270 H 0.36382 0.17411 0.46839 0.0
H271 H 0.31554 0.24602 0.34136 0.0
H272 H 0.33502 0.03584 0.42701 0.0
H273 H 0.40663 0.98779 0.40462 0.0
H274 H 0.35307 0.21481 0.35448 0.0
H275 H 0.3457 0.06619 0.28149 0.0
H276 H 0.42224 0.98895 0.35955 0.0
H277 H 0.41495 1.0061 0.31708 0.0
H278 H 0.33192 0.19094 0.50151 0.0
H279 H 0.38667 0.03516 0.28769 0.0
H280 H 0.28189 0.26519 0.37219 0.0
N281 N 0.34429 0.1975 0.4399 0.0
C282 C 0.32467 0.21684 0.43423 0.0
C283 C 0.32951 0.19822 0.48264 0.0
C284 C 0.30625 0.22726 0.45263 0.0
C285 C 0.34719 0.18832 0.46375 0.0
C286 C 0.30892 0.21773 0.47708 0.0
N287 N 0.33813 0.21226 0.39232 0.0
C288 C 0.33725 0.22104 0.36812 0.0
C289 C 0.30049 0.24355 0.40299 0.0
C290 C 0.32165 0.22466 0.40967 0.0
C291 C 0.29781 0.25069 0.37809 0.0
C292 C 0.31655 0.23967 0.36062 0.0
H293 H 0.29515 0.22523 0.49176 0.0
H294 H 0.27095 0.25449 0.45994 0.0
H295 H 0.26607 0.26892 0.41651 0.0
O296 O 0.41878 0.23563 0.39248 0.0
O297 O 0.30742 0.14877 0.40821 0.0
O298 O 0.2925 0.11318 0.37267 0.0
O299 O 0.41257 0.22708 0.43149 0.0
O300 O 0.38611 0.17759 0.36837 0.0
O301 O 0.32878 0.12482 0.35432 0.0
O302 O 0.26968 0.02632 0.39358 0.0
O303 O 0.38421 0.10724 0.37964 0.0
O304 O 0.40121 0.14923 0.41297 0.0
O305 O 0.2726 0.03685 0.35462 0.0
O306 O 0.30775 0.08276 0.41617 0.0
O307 O 0.36319 0.13542 0.43313 0.0
C308 C 0.28272 0.12927 0.39045 0.0
C309 C 0.47654 0.2717 0.41635 0.0
C310 C 0.53969 0.33334 0.41377 0.0
C311 C 0.55822 0.31395 0.42408 0.0
C312 C 0.49576 0.25309 0.42657 0.0
C313 C 0.53639 0.27417 0.43035 0.0
C314 C 0.4987 0.31177 0.40969 0.0
C315 C 0.36323 0.15596 0.35011 0.0
C316 C 0.43327 0.25073 0.41384 0.0
C317 C 0.28533 0.24628 0.44605 0.0
C318 C 0.2825 0.25444 0.42131 0.0
C319 C 0.40953 0.12984 0.39662 0.0
C320 C 0.23147 0.9715 0.36742 0.0
C321 C 0.16849 0.90985 0.36365 0.0
C322 C 0.18869 0.89334 0.35151 0.0
C323 C 0.25084 0.95408 0.35587 0.0
C324 C 0.19067 0.94921 0.37174 0.0
C325 C 0.22946 0.91509 0.34805 0.0
C326 C 0.33137 0.09996 0.43491 0.0
C327 C 0.25196 0.0139 0.37251 0.0
H328 H 0.58969 0.32963 0.4273 0.0
H329 H 0.47925 0.22254 0.43202 0.0
H330 H 0.55104 0.25977 0.43843 0.0
H331 H 0.48387 0.32644 0.40212 0.0
H332 H 0.17313 0.86381 0.34415 0.0
H333 H 0.28218 0.9709 0.35228 0.0
H334 H 0.17638 0.96303 0.38112 0.0
H335 H 0.2444 0.90192 0.33871 0.0
Tb336 Tb 0.79266 0.71174 0.14001 0.0
C337 C 0.91474 0.69214 0.08327 0.0
N338 N 0.87729 0.68203 0.07699 0.0
C339 C 0.89945 0.71087 0.03714 0.0
C340 C 0.9461 0.71195 0.06656 0.0
C341 C 0.86913 0.69052 0.05415 0.0
C342 C 0.9381 0.72165 0.04335 0.0
C343 C 0.9596 0.69105 0.11345 0.0
C344 C 0.92146 0.68246 0.10663 0.0
C345 C 0.99074 0.7098 0.0966 0.0
C346 C 0.98417 0.7208 0.07338 0.0
Tb347 Tb 0.83053 0.64633 0.10571 0.0
N348 N 0.89041 0.66348 0.12229 0.0
C349 C 0.96507 0.67939 0.1367 0.0
C350 C 0.89518 0.64942 0.14415 0.0
C351 C 0.93262 0.65816 0.15203 0.0
H352 H 0.83929 0.6811 0.04872 0.0
H353 H 0.93622 0.64734 0.16958 0.0
H354 H 0.82226 0.73114 0.19786 0.0
H355 H 0.65078 0.66017 0.09719 0.0
H356 H 0.8701 0.62966 0.15502 0.0
H357 H 0.99394 0.68548 0.14265 0.0
H358 H 0.7228 0.68848 0.09779 0.0
H359 H 0.89291 0.7177 0.01909 0.0
H360 H 0.01996 0.71552 0.10127 0.0
H361 H 1.0086 0.73557 0.06069 0.0
H362 H 0.79135 0.72427 0.2385 0.0
H363 H 0.96144 0.73699 0.03002 0.0
H364 H 0.61362 0.64399 0.13631 0.0
N365 N 0.7678 0.70494 0.17858 0.0
C366 C 0.72811 0.68896 0.17999 0.0
C367 C 0.77317 0.71362 0.22225 0.0
C368 C 0.70921 0.68397 0.20279 0.0
C369 C 0.79058 0.71735 0.19925 0.0
C370 C 0.73232 0.6967 0.22404 0.0
N371 N 0.72624 0.68618 0.13662 0.0
C372 C 0.70695 0.68102 0.11485 0.0
C373 C 0.66555 0.66384 0.15895 0.0
C374 C 0.70663 0.67943 0.15833 0.0
C375 C 0.64522 0.65607 0.13664 0.0
C376 C 0.6661 0.66514 0.11451 0.0
H377 H 0.7189 0.6943 0.24179 0.0
H378 H 0.65303 0.66321 0.221 0.0
H379 H 0.61473 0.64522 0.1826 0.0
O380 O 0.81226 0.76439 0.12005 0.0
O381 O 0.74814 0.64824 0.13628 0.0
O382 O 0.76696 0.62046 0.10491 0.0
O383 O 0.79431 0.76034 0.15758 0.0
O384 O 0.80216 0.7166 0.10006 0.0
O385 O 0.79175 0.65876 0.0823 0.0
O386 O 0.82672 0.5918 0.1135 0.0
O387 O 0.86555 0.71133 0.10736 0.0
O388 O 0.85396 0.72726 0.14552 0.0
O389 O 0.82749 0.60987 0.07633 0.0
O390 O 0.81174 0.63211 0.145 0.0
O391 O 0.82528 0.69142 0.16213 0.0
C392 C 0.74123 0.61947 0.12083 0.0
C393 C 0.84523 0.82192 0.14436 0.0
C394 C 0.87898 0.89406 0.14508 0.0
C395 C 0.91151 0.89435 0.15629 0.0
C396 C 0.87797 0.82329 0.1557 0.0
C397 C 0.91099 0.85928 0.16141 0.0
C398 C 0.8458 0.85735 0.13905 0.0
C399 C 0.78842 0.69076 0.08209 0.0
C400 C 0.81001 0.78359 0.13892 0.0
C401 C 0.66813 0.66756 0.20359 0.0
C402 C 0.64632 0.65735 0.18172 0.0
C403 C 0.87831 0.7326 0.12742 0.0
C404 C 0.86005 0.5735 0.08468 0.0
C405 C 0.8874 0.5297 0.08978 0.0
C406 C 0.91879 0.55428 0.0743 0.0
C407 C 0.8914 0.59693 0.06872 0.0
C408 C 0.85804 0.53948 0.09507 0.0
C409 C 0.92068 0.58759 0.06383 0.0
C410 C 0.81609 0.6545 0.16432 0.0
C411 C 0.82966 0.58442 0.09056 0.0
H412 H 0.93718 0.9217 0.16169 0.0
H413 H 0.87781 0.79654 0.16053 0.0
H414 H 0.93606 0.85998 0.17023 0.0
H415 H 0.82047 0.85622 0.13027 0.0
H416 H 0.94158 0.54729 0.07001 0.0
H417 H 0.89334 0.62245 0.05984 0.0
H418 H 0.83377 0.52067 0.10709 0.0
H419 H 0.9448 0.60609 0.05167 0.0
Tb420 Tb 0.84386 0.19928 0.41378 0.0
C421 C 0.98218 0.31133 0.3397 0.0
N422 N 0.96069 0.2714 0.33955 0.0
C423 C 0.96077 0.2714 0.29547 0.0
C424 C 0.99312 0.33297 0.31761 0.0
C425 C 0.95002 0.25115 0.31785 0.0
C426 C 0.98206 0.31246 0.29533 0.0
C427 C 1.01686 0.37188 0.36309 0.0
C428 C 0.99411 0.33053 0.36214 0.0
C429 C 0.02702 0.39364 0.34114 0.0
C430 C 1.01523 0.37423 0.31846 0.0
Tb431 Tb 0.94598 0.24217 0.37727 0.0
N432 N 0.98318 0.30854 0.38306 0.0
C433 C 0.02907 0.39003 0.38606 0.0
C434 C 0.99675 0.32598 0.40536 0.0
C435 C 1.01933 0.36694 0.40725 0.0
H436 H 0.93391 0.21935 0.31784 0.0
H437 H 0.02943 0.38065 0.42505 0.0
H438 H 0.8661 0.20737 0.47375 0.0
H439 H 0.74686 0.07608 0.35761 0.0
H440 H 0.99032 0.30861 0.4217 0.0
H441 H 0.04661 0.42175 0.38759 0.0
H442 H 0.79517 0.14542 0.36605 0.0
H443 H 0.95264 0.25541 0.27831 0.0
H444 H 0.04436 0.42546 0.3415 0.0
H445 H 0.02373 0.39138 0.30167 0.0
H446 H 0.85217 0.16258 0.50864 0.0
H447 H 0.99013 0.32803 0.27796 0.0
H448 H 0.72601 0.02721 0.39109 0.0
N449 N 0.83414 0.1615 0.44786 0.0
C450 C 0.80971 0.12224 0.44461 0.0
C451 C 0.84029 0.15081 0.49067 0.0
C452 C 0.79951 0.09566 0.46436 0.0
C453 C 0.84878 0.17615 0.47064 0.0
C454 C 0.81566 0.11037 0.48752 0.0
N455 N 0.80586 0.13518 0.40264 0.0
C456 C 0.78889 0.12391 0.38006 0.0
C457 C 0.76647 0.06884 0.41762 0.0
C458 C 0.79433 0.10878 0.42138 0.0
C459 C 0.74909 0.05717 0.39442 0.0
C460 C 0.76065 0.08473 0.37549 0.0
H461 H 0.80867 0.09089 0.50316 0.0
H462 H 0.76467 0.0346 0.47544 0.0
H463 H 0.73475 1.01133 0.43472 0.0
O464 O 0.79106 0.19468 0.40125 0.0
O465 O 0.87375 0.16438 0.41111 0.0
O466 O 0.90293 0.17958 0.37314 0.0
O467 O 0.80597 0.20382 0.43961 0.0
O468 O 0.84537 0.21571 0.37428 0.0
O469 O 0.89281 0.20541 0.35624 0.0
O470 O 0.9861 0.22888 0.39456 0.0
O471 O 0.92092 0.28187 0.3809 0.0
O472 O 0.88182 0.26249 0.41577 0.0
O473 O 0.99086 0.24204 0.35611 0.0
O474 O 0.944 0.23052 0.41693 0.0
O475 O 0.89628 0.23932 0.43598 0.0
C476 C 0.88568 0.15446 0.3912 0.0
C477 C 0.75869 0.22065 0.4247 0.0
C478 C 0.69735 0.22217 0.41852 0.0
C479 C 0.71619 0.2605 0.42837 0.0
C480 C 0.77665 0.25881 0.43433 0.0
C481 C 0.75536 0.2785 0.43618 0.0
C482 C 0.71914 0.20251 0.41678 0.0
C483 C 0.86274 0.21125 0.35466 0.0
C484 C 0.77977 0.19839 0.42304 0.0
C485 C 0.77297 0.05549 0.46048 0.0
C486 C 0.75603 0.04221 0.43725 0.0
C487 C 0.89998 0.2874 0.39784 0.0
C488 C 1.00563 0.19354 0.36847 0.0
C489 C 0.04144 0.15725 0.36952 0.0
C490 C 1.00945 0.12568 0.35749 0.0
C491 C 0.97451 0.16177 0.35619 0.0
C492 C 0.03913 0.19123 0.37509 0.0
C493 C 0.97629 0.12797 0.35097 0.0
C494 C 0.93115 0.24151 0.43598 0.0
C495 C 1.00317 0.22911 0.37396 0.0
H496 H 0.70043 0.2764 0.43055 0.0
H497 H 0.80688 0.27319 0.44059 0.0
H498 H 0.76914 0.30779 0.44389 0.0
H499 H 0.70547 0.17308 0.40918 0.0
H500 H 1.01038 0.09945 0.35253 0.0
H501 H 0.94898 0.16324 0.3503 0.0
H502 H 0.06318 0.21574 0.38456 0.0
H503 H 0.95208 0.10363 0.34152 0.0
Tb504 Tb 0.19488 0.37237 0.61338 0.0
C505 C 0.04428 0.33584 0.67736 0.0
N506 N 0.06613 0.31789 0.67863 0.0
C507 C 0.06122 0.31593 0.72254 0.0
C508 C 0.03057 0.34532 0.69877 0.0
C509 C 0.07387 0.30692 0.70077 0.0
C510 C 0.03982 0.33561 0.72159 0.0
C511 C 1.01138 0.36148 0.6521 0.0
C512 C 0.03495 0.34394 0.65441 0.0
C513 C 0.99816 0.37169 0.67338 0.0
C514 C 1.00781 0.36369 0.69667 0.0
Tb515 Tb 0.08799 0.30758 0.64213 0.0
N516 N 0.04923 0.3346 0.63429 0.0
C517 C 1.00152 0.36782 0.6285 0.0
C518 C 0.03792 0.33872 0.61131 0.0
C519 C 1.01441 0.35587 0.60802 0.0
H520 H 0.08898 0.29035 0.70153 0.0
H521 H 1.00606 0.35963 0.5897 0.0
H522 H 0.18124 0.35814 0.55256 0.0
H523 H 0.28123 0.34327 0.6782 0.0
H524 H 0.04667 0.32867 0.59555 0.0
H525 H 0.98336 0.38114 0.6259 0.0
H526 H 0.23349 0.36291 0.66599 0.0
H527 H 0.0678 0.30737 0.73994 0.0
H528 H 0.98019 0.38543 0.67202 0.0
H529 H 0.99714 0.37138 0.71293 0.0
H530 H 0.20424 0.33176 0.51964 0.0
H531 H 0.02998 0.34252 0.73847 0.0
H532 H 0.31127 0.32096 0.64684 0.0
N533 N 0.21174 0.34688 0.581 0.0
C534 C 0.23759 0.33447 0.58644 0.0
C535 C 0.21363 0.33211 0.53838 0.0
C536 C 0.25272 0.32059 0.5679 0.0
C537 C 0.20007 0.34646 0.55728 0.0
C538 C 0.24006 0.31912 0.54369 0.0
N539 N 0.23241 0.34765 0.62833 0.0
C540 C 0.24403 0.35078 0.65227 0.0
C541 C 0.27696 0.32469 0.61694 0.0
C542 C 0.24883 0.33558 0.61078 0.0
C543 C 0.28875 0.32773 0.64147 0.0
C544 C 0.27191 0.34041 0.65923 0.0
H545 H 0.2509 0.30851 0.52894 0.0
H546 H 0.29255 0.29877 0.56001 0.0
H547 H 0.31486 0.30376 0.60272 0.0
O548 O 0.24498 0.42107 0.62828 0.0
O549 O 0.16683 0.30766 0.61336 0.0
O550 O 0.13103 0.28844 0.64905 0.0
O551 O 0.2354 0.41576 0.5892 0.0
O552 O 0.18584 0.38377 0.65251 0.0
O553 O 0.13765 0.32332 0.66638 0.0
O554 O 0.05126 0.25772 0.62105 0.0
O555 O 0.1105 0.37218 0.63997 0.0
O556 O 0.15716 0.39751 0.60885 0.0
O557 O 0.04419 0.25719 0.66026 0.0
O558 O 0.09938 0.30205 0.60327 0.0
O559 O 0.14651 0.3613 0.5876 0.0
C560 C 0.15225 0.28356 0.63214 0.0
C561 C 0.2778 0.47985 0.60536 0.0
C562 C 0.33787 0.54362 0.61098 0.0
C563 C 0.31815 0.56192 0.60063 0.0
C564 C 0.25875 0.49869 0.59528 0.0
C565 C 0.27894 0.53961 0.59301 0.0
C566 C 0.31694 0.50235 0.61349 0.0
C567 C 0.16622 0.35929 0.67069 0.0
C568 C 0.25869 0.43677 0.60691 0.0
C569 C 0.28032 0.30918 0.57404 0.0
C570 C 0.29287 0.31183 0.59841 0.0
C571 C 0.13346 0.40058 0.62457 0.0
C572 C 0.98838 0.21409 0.63695 0.0
C573 C 0.92974 0.14973 0.63132 0.0
C574 C 0.90693 0.16825 0.63015 0.0
C575 C 0.96525 0.23202 0.63575 0.0
C576 C 0.9706 0.17306 0.6348 0.0
C577 C 0.92464 0.20908 0.63237 0.0
C578 C 0.11237 0.32818 0.58556 0.0
C579 C 0.03117 0.23733 0.64001 0.0
H580 H 0.3332 0.59342 0.5978 0.0
H581 H 0.22864 0.48183 0.58892 0.0
H582 H 0.26438 0.55412 0.58495 0.0
H583 H 0.33105 0.4874 0.62165 0.0
H584 H 0.8753 0.15111 0.62783 0.0
H585 H 0.97851 0.26358 0.63742 0.0
H586 H 0.98873 0.1594 0.63547 0.0
H587 H 0.90679 0.22297 0.63151 0.0
Tb588 Tb 0.25635 0.95257 0.8785 0.0
C589 C 0.13936 0.81438 0.94232 0.0
N590 N 0.17929 0.83249 0.94272 0.0
C591 C 0.17829 0.8346 0.98688 0.0
C592 C 0.11736 0.80676 0.96421 0.0
C593 C 0.19861 0.84011 0.96476 0.0
C594 C 0.13752 0.81852 0.98658 0.0
C595 C 0.07911 0.77587 0.91929 0.0
C596 C 0.12042 0.7995 0.9202 0.0
C597 C 0.05699 0.76953 0.94087 0.0
C598 C 0.07605 0.78542 0.96322 0.0
Tb599 Tb 0.20935 0.84171 0.90507 0.0
N600 N 0.14283 0.80512 0.89995 0.0
C601 C 0.06152 0.75759 0.89705 0.0
C602 C 0.12619 0.78454 0.87883 0.0
C603 C 0.08523 0.76138 0.87684 0.0
H604 H 0.22979 0.85027 0.96546 0.0
H605 H 0.07201 0.74631 0.85982 0.0
H606 H 0.28487 0.94115 0.82349 0.0
H607 H 0.33795 0.05938 0.94892 0.0
H608 H 0.14469 0.78723 0.86333 0.0
H609 H 0.02984 0.7393 0.89556 0.0
H610 H 0.27882 0.01434 0.92527 0.0
H611 H 0.19399 0.84188 1.00417 0.0
H612 H 0.02521 0.75129 0.94062 0.0
H613 H 0.05864 0.77935 0.97982 0.0
H614 H 0.34753 0.95871 0.80236 0.0
H615 H 0.12172 0.81334 1.00379 0.0
H616 H 0.40364 0.07188 0.93543 0.0
N617 N 0.31272 0.96951 0.85687 0.0
C618 C 0.34725 0.99324 0.86844 0.0
C619 C 0.34785 0.96837 0.82104 0.0
C620 C 0.38365 1.00393 0.8573 0.0
C621 C 0.31244 0.95843 0.83301 0.0
C622 C 0.38361 0.99067 0.83338 0.0
N623 N 0.30972 0.99798 0.90033 0.0
C624 C 0.30693 0.01789 0.92006 0.0
C625 C 0.38054 0.03376 0.90366 0.0
C626 C 0.34562 1.00746 0.89127 0.0
C627 C 0.37756 0.05128 0.92536 0.0
C628 C 0.34059 0.04412 0.93317 0.0
H629 H 0.41097 0.99819 0.82412 0.0
H630 H 0.44701 0.03625 0.86215 0.0
H631 H 0.44431 0.06275 0.90276 0.0
O632 O 0.25961 1.00808 0.87661 0.0
O633 O 0.28777 0.91839 0.87641 0.0
O634 O 0.27146 0.8817 0.91171 0.0
O635 O 0.23771 0.9681 0.84641 0.0
O636 O 0.23631 0.94228 0.91691 0.0
O637 O 0.24567 0.89187 0.93056 0.0
O638 O 0.22529 0.80441 0.88669 0.0
O639 O 0.17195 0.86101 0.88705 0.0
O640 O 0.19915 0.92587 0.89751 0.0
O641 O 0.19908 0.78932 0.92242 0.0
O642 O 0.22346 0.84989 0.86516 0.0
O643 O 0.22045 0.90511 0.85305 0.0
C644 C 0.29711 0.90243 0.89463 0.0
C645 C 0.20411 1.00262 0.85549 0.0
C646 C 0.16989 0.04016 0.86157 0.0
C647 C 0.13441 1.00642 0.8547 0.0
C648 C 0.16791 0.9695 0.8491 0.0
C649 C 0.1335 0.9715 0.84872 0.0
C650 C 0.2049 0.03796 0.86179 0.0
C651 C 0.2453 0.92506 0.93445 0.0
C652 C 0.24048 0.99968 0.85601 0.0
C653 C 0.41865 0.02808 0.8702 0.0
C654 C 0.4171 0.04304 0.89336 0.0
C655 C 0.16842 0.89179 0.89191 0.0
C656 C 0.23384 0.75754 0.90929 0.0
C657 C 0.23614 0.69624 0.90818 0.0
C658 C 0.27374 0.71646 0.91902 0.0
C659 C 0.27126 0.77701 0.92003 0.0
C660 C 0.21637 0.71726 0.90345 0.0
C661 C 0.29097 0.75639 0.92496 0.0
C662 C 0.22041 0.87228 0.84806 0.0
C663 C 0.21199 0.7781 0.90398 0.0
H664 H 0.10714 1.00698 0.85358 0.0
H665 H 0.16598 0.94179 0.84438 0.0
H666 H 0.10593 0.94581 0.84366 0.0
H667 H 0.23254 0.06333 0.86716 0.0
H668 H 0.28959 0.70121 0.92337 0.0
H669 H 0.28501 0.80793 0.92469 0.0
H670 H 0.18748 0.7024 0.89499 0.0
H671 H 0.31961 0.7713 0.93363 0.0
Tb672 Tb 0.65391 0.81857 0.61142 0.0
C673 C 0.66912 0.68329 0.65162 0.0
N674 N 0.67939 0.7182 0.66249 0.0
C675 C 0.64333 0.68451 0.69871 0.0
C676 C 0.64389 0.64736 0.66336 0.0
C677 C 0.66843 0.71941 0.6862 0.0
C678 C 0.63046 0.6483 0.68709 0.0
C679 C 0.67694 0.64878 0.61726 0.0
C680 C 0.68507 0.6841 0.62892 0.0
C681 C 0.6503 0.61262 0.62823 0.0
C682 C 0.63377 0.61192 0.65126 0.0
Tb683 Tb 0.71851 0.77366 0.64011 0.0
N684 N 0.71107 0.71965 0.61925 0.0
C685 C 0.69721 0.65099 0.59558 0.0
C686 C 0.73374 0.72177 0.59964 0.0
C687 C 0.72648 0.68769 0.58709 0.0
H688 H 0.6784 0.74731 0.69521 0.0
H689 H 0.7441 0.68976 0.57126 0.0
H690 H 0.6438 0.7974 0.55121 0.0
H691 H 0.69136 0.95532 0.65592 0.0
H692 H 0.75823 0.74965 0.59412 0.0
H693 H 0.69197 0.62459 0.58603 0.0
H694 H 0.66152 0.88288 0.65274 0.0
H695 H 0.63389 0.68556 0.71726 0.0
H696 H 0.64328 0.58511 0.61944 0.0
H697 H 0.61408 0.58389 0.65982 0.0
H698 H 0.67111 0.83303 0.51243 0.0
H699 H 0.611 0.62133 0.69679 0.0
H700 H 0.72622 0.99747 0.62014 0.0
N701 N 0.67486 0.84836 0.57378 0.0
C702 C 0.69571 0.88828 0.57405 0.0
C703 C 0.67881 0.84892 0.52967 0.0
C704 C 0.70993 0.91011 0.55211 0.0
C705 C 0.66406 0.82873 0.55181 0.0
C706 C 0.70248 0.88979 0.52984 0.0
N707 N 0.68223 0.88494 0.61633 0.0
C708 C 0.67728 0.90139 0.63725 0.0
C709 C 0.71539 0.94841 0.59675 0.0
C710 C 0.69887 0.90727 0.59605 0.0
C711 C 0.71372 0.9659 0.61882 0.0
C712 C 0.69397 0.9422 0.63904 0.0
H713 H 0.71302 0.90546 0.51261 0.0
H714 H 0.73999 0.96863 0.53628 0.0
H715 H 0.74366 1.00206 0.57522 0.0
O716 O 0.5989 0.79956 0.62861 0.0
O717 O 0.70966 0.85702 0.62995 0.0
O718 O 0.74871 0.83066 0.62093 0.0
O719 O 0.61148 0.82763 0.59342 0.0
O720 O 0.64707 0.80548 0.65155 0.0
O721 O 0.70564 0.80985 0.66446 0.0
O722 O 0.77101 0.771 0.64301 0.0
O723 O 0.65289 0.74134 0.64173 0.0
O724 O 0.63622 0.75752 0.60532 0.0
O725 O 0.75189 0.79345 0.67245 0.0
O726 O 0.72987 0.79302 0.60154 0.0
O727 O 0.67048 0.78335 0.58655 0.0
C728 C 0.74441 0.86102 0.6259 0.0
C729 C 0.54422 0.79266 0.60543 0.0
C730 C 0.4808 0.79094 0.60693 0.0
C731 C 0.46389 0.75537 0.59369 0.0
C732 C 0.52683 0.75757 0.59202 0.0
C733 C 0.48679 0.73903 0.58623 0.0
C734 C 0.52121 0.80932 0.61276 0.0
C735 C 0.67219 0.80885 0.669 0.0
C736 C 0.58649 0.81356 0.6114 0.0
C737 C 0.7288 0.95135 0.55292 0.0
C738 C 0.73099 0.97041 0.57513 0.0
C739 C 0.62782 0.73295 0.62353 0.0
C740 C 0.82014 0.82747 0.66379 0.0
C741 C 0.89176 0.86229 0.65716 0.0
C742 C 0.89323 0.89758 0.66414 0.0
C743 C 0.82284 0.86345 0.67029 0.0
C744 C 0.85478 0.82712 0.65714 0.0
C745 C 0.85907 0.89808 0.67044 0.0
C746 C 0.70475 0.78463 0.58335 0.0
C747 C 0.78113 0.79083 0.66339 0.0
H748 H 0.43312 0.74061 0.58853 0.0
H749 H 0.54426 0.74483 0.58588 0.0
H750 H 0.47343 0.71204 0.57573 0.0
H751 H 0.53487 0.83664 0.62304 0.0
H752 H 0.92093 0.92498 0.6651 0.0
H753 H 0.79691 0.86504 0.67523 0.0
H754 H 0.85272 0.79964 0.65163 0.0
H755 H 0.86069 0.9255 0.67557 0.0
Tb756 Tb 0.08646 0.31407 0.8785 0.0
C757 C 0.22771 0.32789 0.94203 0.0
N758 N 0.20571 0.34541 0.94559 0.0
C759 C 0.20424 0.33377 0.98899 0.0
C760 C 0.23853 0.31221 0.96186 0.0
C761 C 0.19434 0.34903 0.96875 0.0
C762 C 0.22635 0.31521 0.98554 0.0
C763 C 0.26117 0.30671 0.91364 0.0
C764 C 0.23912 0.3254 0.9183 0.0
C765 C 0.27235 0.29133 0.93335 0.0
C766 C 0.26106 0.29409 0.9574 0.0
Tb767 Tb 0.19341 0.37087 0.91116 0.0
N768 N 0.2265 0.33933 0.89963 0.0
C769 C 0.27057 0.30333 0.88928 0.0
C770 C 0.23612 0.3367 0.87591 0.0
C771 C 0.25797 0.3184 0.87033 0.0
H772 H 0.17859 0.36462 0.9719 0.0
H773 H 0.26505 0.31592 0.85142 0.0
H774 H 0.08554 0.29222 0.81972 0.0
H775 H 0.0212 0.38633 0.92846 0.0
H776 H 0.22652 0.3481 0.86129 0.0
H777 H 0.28727 0.28896 0.88489 0.0
H778 H 0.05677 0.34976 0.9241 0.0
H779 H 0.19516 0.33672 1.00729 0.0
H780 H 0.28929 0.27684 0.93016 0.0
H781 H 0.26968 0.28187 0.97241 0.0
H782 H 0.05774 0.30126 0.78133 0.0
H783 H 0.23407 0.30356 1.00129 0.0
H784 H 0.99696 0.40424 0.89146 0.0
N785 N 0.0652 0.32339 0.8416 0.0
C786 C 0.04572 0.34381 0.84218 0.0
C787 C 0.05445 0.31373 0.79822 0.0
C788 C 0.03006 0.35039 0.8206 0.0
C789 C 0.0701 0.3086 0.82002 0.0
C790 C 0.0345 0.33488 0.79847 0.0
N791 N 0.05447 0.34847 0.88513 0.0
C792 C 0.04681 0.35771 0.9079 0.0
C793 C 1.01907 0.37712 0.86624 0.0
C794 C 0.04003 0.35671 0.86469 0.0
C795 C 1.01287 0.38844 0.88946 0.0
C796 C 0.02652 0.37839 0.91039 0.0
H797 H 0.02237 0.33882 0.78157 0.0
H798 H 0.99767 0.37692 0.80551 0.0
H799 H 0.98829 0.40058 0.84548 0.0
O800 O 0.03777 0.27089 0.89836 0.0
O801 O 0.11538 0.3795 0.87974 0.0
O802 O 0.15436 0.39499 0.91394 0.0
O803 O 0.04734 0.26104 0.86082 0.0
O804 O 0.09645 0.30309 0.91667 0.0
O805 O 0.14268 0.35977 0.93497 0.0
O806 O 0.24599 0.41913 0.89744 0.0
O807 O 0.16317 0.3061 0.90801 0.0
O808 O 0.12665 0.29128 0.87244 0.0
O809 O 0.23118 0.41523 0.93561 0.0
O810 O 0.19066 0.38478 0.87162 0.0
O811 O 0.13674 0.33028 0.85426 0.0
C812 C 0.13977 0.40549 0.89581 0.0
C813 C 0.98176 0.22718 0.87485 0.0
C814 C 0.91785 0.16627 0.87267 0.0
C815 C 0.90186 0.18797 0.86204 0.0
C816 C 0.96476 0.24802 0.86483 0.0
C817 C 0.92505 0.22847 0.85843 0.0
C818 C 0.95819 0.18647 0.87902 0.0
C819 C 0.10779 0.32726 0.93537 0.0
C820 C 0.02434 0.24678 0.87978 0.0
C821 C 1.00976 0.37138 0.82193 0.0
C822 C 1.00439 0.38483 0.84469 0.0
C823 C 0.14482 0.28242 0.8894 0.0
C824 C 0.29915 0.44378 0.92594 0.0
C825 C 0.37095 0.48347 0.9202 0.0
C826 C 0.37575 0.46273 0.93974 0.0
C827 C 0.3054 0.42434 0.94561 0.0
C828 C 0.33222 0.47364 0.91333 0.0
C829 C 0.34329 0.43347 0.95222 0.0
C830 C 0.16885 0.36507 0.85241 0.0
C831 C 0.25843 0.43384 0.91921 0.0
H832 H 0.87145 0.17368 0.85614 0.0
H833 H 0.98216 0.27921 0.86164 0.0
H834 H 0.91228 0.24471 0.85035 0.0
H835 H 0.97145 0.17073 0.88723 0.0
H836 H 0.40479 0.46993 0.94601 0.0
H837 H 0.28112 0.40246 0.9563 0.0
H838 H 0.32778 0.48918 0.89835 0.0
H839 H 0.34756 0.41825 0.96745 0.0
Tb840 Tb 0.19551 0.83316 0.60758 0.0
C841 C 0.31945 0.97136 0.67784 0.0
N842 N 0.27956 0.95292 0.67908 0.0
C843 C 0.28281 0.95665 0.7231 0.0
C844 C 0.34266 0.98246 0.69929 0.0
C845 C 0.26095 0.94556 0.70131 0.0
C846 C 0.32378 0.97478 0.72211 0.0
C847 C 0.37843 0.9995 0.65271 0.0
C848 C 0.33711 0.98002 0.65491 0.0
C849 C 0.4017 1.00981 0.67401 0.0
C850 C 0.38386 1.00139 0.69726 0.0
Tb851 Tb 0.24732 0.93774 0.64228 0.0
N852 N 0.31357 0.96916 0.63473 0.0
C853 C 0.39506 1.00837 0.62917 0.0
C854 C 0.32972 0.97944 0.61181 0.0
C855 C 0.37058 0.99862 0.60865 0.0
H856 H 0.22922 0.93161 0.70223 0.0
H857 H 0.38316 1.00611 0.59038 0.0
H858 H 0.21071 0.84732 0.54699 0.0
H859 H 0.06327 0.76351 0.66239 0.0
H860 H 0.3114 0.97299 0.59595 0.0
H861 H 0.4267 0.02329 0.62667 0.0
H862 H 0.13513 0.79856 0.65502 0.0
H863 H 0.26818 0.95121 0.74069 0.0
H864 H 0.43352 0.0247 0.67271 0.0
H865 H 0.40218 1.00997 0.71354 0.0
H866 H 0.17003 0.83355 0.50986 0.0
H867 H 0.34054 0.98304 0.73905 0.0
H868 H 1.01752 0.74585 0.62719 0.0
N869 N 0.16174 0.82234 0.57153 0.0
C870 C 0.12184 0.80238 0.57367 0.0
C871 C 0.15612 0.82487 0.52773 0.0
C872 C 0.09743 0.79321 0.55286 0.0
C873 C 0.17914 0.83318 0.54891 0.0
C874 C 0.1151 0.8049 0.5297 0.0
N875 N 0.13003 0.80262 0.61661 0.0
C876 C 0.11542 0.79167 0.63979 0.0
C877 C 0.06423 0.77115 0.60008 0.0
C878 C 0.10541 0.79152 0.59694 0.0
C879 C 0.049 0.76137 0.62396 0.0
C880 C 0.07474 0.77147 0.64389 0.0
H881 H 0.09738 0.79844 0.51324 0.0
H882 H 0.03706 0.76553 0.54007 0.0
H883 H 1.00801 0.74624 0.58142 0.0
O884 O 0.18853 0.78112 0.62354 0.0
O885 O 0.16239 0.86494 0.61054 0.0
O886 O 0.18361 0.90003 0.64654 0.0
O887 O 0.19501 0.78985 0.58446 0.0
O888 O 0.21098 0.83459 0.64717 0.0
O889 O 0.20821 0.88696 0.66454 0.0
O890 O 0.25334 0.98887 0.62529 0.0
O891 O 0.28145 0.90639 0.63983 0.0
O892 O 0.25931 0.86838 0.60467 0.0
O893 O 0.23623 0.97589 0.66325 0.0
O894 O 0.22874 0.93151 0.60372 0.0
O895 O 0.23698 0.88407 0.58466 0.0
C896 C 0.15747 0.88393 0.6289 0.0
C897 C 0.21259 0.74515 0.60184 0.0
C898 C 0.21439 0.68422 0.60866 0.0
C899 C 0.25271 0.70289 0.59869 0.0
C900 C 0.25072 0.7629 0.59205 0.0
C901 C 0.27055 0.74177 0.59047 0.0
C902 C 0.19457 0.70588 0.61017 0.0
C903 C 0.20984 0.8545 0.66647 0.0
C904 C 0.19023 0.76619 0.60254 0.0
C905 C 0.05631 0.77281 0.55584 0.0
C906 C 0.03975 0.76175 0.57939 0.0
C907 C 0.28479 0.88438 0.62264 0.0
C908 C 0.26637 0.04233 0.6518 0.0
C909 C 0.26687 0.10461 0.65684 0.0
C910 C 0.3026 0.11933 0.66989 0.0
C911 C 0.30223 0.05795 0.66434 0.0
C912 C 0.24927 0.06585 0.64764 0.0
C913 C 0.32028 0.09637 0.67325 0.0
C914 C 0.24023 0.91932 0.58469 0.0
C915 C 0.24389 1.00046 0.64531 0.0
H916 H 0.26867 0.68717 0.59663 0.0
H917 H 0.26485 0.79279 0.58526 0.0
H918 H 0.29977 0.75541 0.58259 0.0
H919 H 0.16506 0.69225 0.61774 0.0
H920 H 0.31676 0.14836 0.67801 0.0
H921 H 0.3157 0.04021 0.6678 0.0
H922 H 0.2219 0.05347 0.63749 0.0
H923 H 0.34766 0.10813 0.68331 0.0
Tb924 Tb 0.71897 0.78749 0.87557 0.0
C925 C 0.69056 0.90342 0.93385 0.0
N926 N 0.68191 0.8662 0.93949 0.0
C927 C 0.70749 0.88686 0.98016 0.0
C928 C 0.70798 0.9339 0.95132 0.0
C929 C 0.68951 0.85737 0.96239 0.0
C930 C 0.71676 0.92528 0.97462 0.0
C931 C 0.68952 0.94884 0.9041 0.0
C932 C 0.68208 0.91089 0.91034 0.0
C933 C 0.7057 0.97899 0.92172 0.0
C934 C 0.71549 0.97173 0.94512 0.0
Tb935 Tb 0.64923 0.82061 0.90967 0.0
N936 N 0.66558 0.88075 0.89388 0.0
C937 C 0.67945 0.95512 0.88056 0.0
C938 C 0.65314 0.88621 0.87159 0.0
C939 C 0.66092 0.92357 0.8643 0.0
H940 H 0.68107 0.82759 0.96729 0.0
H941 H 0.65139 0.92772 0.84645 0.0
H942 H 0.73359 0.81378 0.81678 0.0
H943 H 0.67514 0.64883 0.92063 0.0
H944 H 0.63531 0.86166 0.85983 0.0
H945 H 0.68475 0.98388 0.87504 0.0
H946 H 0.70106 0.72017 0.91861 0.0
H947 H 0.71361 0.87979 0.99826 0.0
H948 H 0.71043 1.00798 0.91748 0.0
H949 H 0.72837 0.99545 0.9584 0.0
H950 H 0.72394 0.78053 0.77652 0.0
H951 H 0.73026 0.94793 0.98853 0.0
H952 H 0.65799 0.60978 0.88229 0.0
N953 N 0.71134 0.76075 0.83731 0.0
C954 C 0.69674 0.72126 0.83657 0.0
C955 C 0.71579 0.76365 0.79331 0.0
C956 C 0.69029 0.70122 0.81405 0.0
C957 C 0.72111 0.78223 0.81609 0.0
C958 C 0.6999 0.72296 0.79225 0.0
N959 N 0.69625 0.7216 0.87986 0.0
C960 C 0.6928 0.70356 0.90191 0.0
C961 C 0.67484 0.66017 0.85871 0.0
C962 C 0.6892 0.70101 0.85855 0.0
C963 C 0.66898 0.64114 0.88136 0.0
C964 C 0.6785 0.66306 0.90304 0.0
H965 H 0.69561 0.70873 0.77455 0.0
H966 H 0.66978 0.64441 0.79688 0.0
H967 H 0.65617 0.60843 0.83603 0.0
O968 O 0.77073 0.80525 0.8959 0.0
O969 O 0.65594 0.7413 0.87826 0.0
O970 O 0.62494 0.7573 0.90919 0.0
O971 O 0.77046 0.79839 0.85675 0.0
O972 O 0.72245 0.79652 0.91559 0.0
O973 O 0.66288 0.78244 0.93267 0.0
O974 O 0.59521 0.81782 0.90149 0.0
O975 O 0.71406 0.85751 0.90952 0.0
O976 O 0.73271 0.84858 0.87145 0.0
O977 O 0.61026 0.81284 0.93859 0.0
O978 O 0.63688 0.80292 0.87021 0.0
O979 O 0.69789 0.82005 0.85418 0.0
C980 C 0.62627 0.73265 0.89337 0.0
C981 C 0.81578 0.78818 0.87948 0.0
C982 C 0.88069 0.79508 0.88571 0.0
C983 C 0.86289 0.7538 0.88567 0.0
C984 C 0.7988 0.74717 0.87946 0.0
C985 C 0.8223 0.73013 0.88256 0.0
C986 C 0.85677 0.8121 0.88247 0.0
C987 C 0.69607 0.7813 0.93327 0.0
C988 C 0.7912 0.80648 0.87672 0.0
C989 C 0.67514 0.66036 0.81402 0.0
C990 C 0.6674 0.63986 0.83631 0.0
C991 C 0.73637 0.87168 0.88995 0.0
C992 C 0.57634 0.84829 0.93206 0.0
C993 C 0.53814 0.88194 0.92641 0.0
C994 C 0.55899 0.90689 0.94617 0.0
C995 C 0.59614 0.87359 0.95183 0.0
C996 C 0.54711 0.85252 0.91944 0.0
C997 C 0.58769 0.90275 0.95864 0.0
C998 C 0.66065 0.80927 0.85132 0.0
C999 C 0.58637 0.81791 0.9245 0.0
H1000 H 0.88048 0.73975 0.88773 0.0
H1001 H 0.76749 0.72831 0.87701 0.0
H1002 H 0.80901 0.69843 0.88246 0.0
H1003 H 0.86989 0.84382 0.88262 0.0
H1004 H 0.55245 0.92915 0.95249 0.0
H1005 H 0.61822 0.87094 0.96219 0.0
H1006 H 0.53165 0.83314 0.9042 0.0
H1007 H 0.60321 0.92202 0.9739 0.0
C1008 C 0.18916 0.27152 0.13112 0.0
C1009 C 0.15078 0.25058 0.14069 0.0
C1010 C 0.21315 0.2545 0.1294 0.0
C1011 C 0.19807 0.21469 0.13614 0.0
C1012 C 0.15884 0.19271 0.14484 0.0
C1013 C 0.13598 0.21103 0.14747 0.0
C1014 C 0.25466 0.27939 0.12021 0.0
C1015 C 0.14099 0.14977 0.15139 0.0
C1016 C 0.25292 0.16525 0.11005 0.0
C1017 C 0.27366 0.16396 0.13064 0.0
C1018 C 0.22726 0.18045 0.11173 0.0
C1019 C 0.22351 0.19632 0.13433 0.0
C1020 C 0.24523 0.19586 0.15504 0.0
C1021 C 0.26942 0.17899 0.15306 0.0
C1022 C 0.20454 0.17983 0.08921 0.0
C1023 C 0.24405 0.21452 0.17904 0.0
H1024 H 0.20082 0.30151 0.12489 0.0
H1025 H 0.1067 0.19432 0.1552 0.0
H1026 H 0.27533 0.27421 0.13129 0.0
H1027 H 0.2561 0.27123 0.1009 0.0
H1028 H 0.26455 0.31129 0.12073 0.0
H1029 H 0.10931 0.13604 0.15626 0.0
H1030 H 0.14408 0.13344 0.13569 0.0
H1031 H 0.15695 0.14647 0.16718 0.0
H1032 H 0.2565 0.15397 0.09262 0.0
H1033 H 0.28624 0.1789 0.16885 0.0
H1034 H 0.21779 0.20991 0.08145 0.0
H1035 H 0.17347 0.17009 0.09398 0.0
H1036 H 0.20495 0.1601 0.07471 0.0
H1037 H 0.25419 0.24614 0.17604 0.0
H1038 H 0.2629 0.21203 0.19333 0.0
H1039 H 0.21341 0.20053 0.18605 0.0
C1040 C 0.10563 0.84518 0.36973 0.0
C1041 C 0.12461 0.88627 0.36734 0.0
C1042 C 0.06458 0.82228 0.37206 0.0
C1043 C 0.0414 0.84057 0.3734 0.0
C1044 C 0.06017 0.88206 0.37165 0.0
C1045 C 0.10129 0.9043 0.36819 0.0
C1046 C 0.04603 0.77829 0.37312 0.0
C1047 C 0.0368 0.90299 0.37347 0.0
C1048 C 0.9314 0.77759 0.35971 0.0
C1049 C 0.91542 0.76558 0.38331 0.0
C1050 C 0.9722 0.80234 0.35621 0.0
C1051 C 0.99766 0.81611 0.37685 0.0
C1052 C 0.98144 0.80486 0.40077 0.0
C1053 C 0.94066 0.77957 0.40368 0.0
C1054 C 0.98819 0.81253 0.33037 0.0
C1055 C 1.00723 0.81891 0.42333 0.0
H1056 H 0.12279 0.83052 0.36993 0.0
H1057 H 0.11491 0.93581 0.36588 0.0
H1058 H 0.03195 0.7679 0.39128 0.0
H1059 H 0.02282 0.76459 0.35888 0.0
H1060 H 0.06767 0.76823 0.37035 0.0
H1061 H 0.05587 0.93548 0.37275 0.0
H1062 H 1.0152 0.89357 0.35824 0.0
H1063 H 0.01986 0.89492 0.39093 0.0
H1064 H 0.91217 0.76645 0.34385 0.0
H1065 H 0.92851 0.77048 0.42199 0.0
H1066 H 1.00809 0.80059 0.32682 0.0
H1067 H 1.00587 0.8449 0.3281 0.0
H1068 H 0.96447 0.80053 0.31633 0.0
H1069 H 0.02703 0.80635 0.42357 0.0
H1070 H 0.98976 0.81023 0.44061 0.0
H1071 H 0.02609 0.85141 0.42294 0.0
C1072 C 0.90053 0.10679 0.15503 0.0
C1073 C 0.89533 0.12159 0.13276 0.0
C1074 C 0.89652 0.06917 0.15634 0.0
C1075 C 0.88669 0.04552 0.13492 0.0
C1076 C 0.88122 0.06028 0.11242 0.0
C1077 C 0.88619 0.09829 0.11156 0.0
C1078 C 0.90307 0.05482 0.18065 0.0
C1079 C 0.87025 0.036 0.08922 0.0
C1080 C 0.915 0.96583 0.13351 0.0
C1081 C 0.87979 0.9321 0.14054 0.0
C1082 C 0.91748 1.00268 0.13139 0.0
C1083 C 0.88376 1.00606 0.13594 0.0
C1084 C 0.84773 0.97199 0.14213 0.0
C1085 C 0.84619 0.9355 0.14445 0.0
C1086 C 0.95654 0.0382 0.12481 0.0
C1087 C 0.81088 0.97419 0.14658 0.0
H1088 H 0.9076 0.12457 0.17151 0.0
H1089 H 0.88322 0.1099 0.09415 0.0
H1090 H 0.87632 0.02701 0.18597 0.0
H1091 H 0.9275 0.04841 0.17891 0.0
H1092 H 0.91032 0.07664 0.19562 0.0
H1093 H 0.86653 0.05154 0.07329 0.0
H1094 H 0.89325 0.02846 0.08463 0.0
H1095 H 0.84232 1.00793 0.09207 0.0
H1096 H 0.94095 0.96357 0.12985 0.0
H1097 H 0.81888 0.90987 0.15005 0.0
H1098 H 0.96625 0.06013 0.13989 0.0
H1099 H 0.95342 0.05251 0.10806 0.0
H1100 H 0.97988 0.03058 0.1215 0.0
H1101 H 0.81595 0.99563 0.16139 0.0
H1102 H 0.78535 0.94525 0.15173 0.0
H1103 H 0.80332 0.98481 0.12971 0.0
C1104 C 0.22651 0.12507 0.36598 0.0
C1105 C 0.2464 0.13198 0.38844 0.0
C1106 C 0.19344 0.12987 0.36367 0.0
C1107 C 0.18 0.142 0.38427 0.0
C1108 C 0.19979 0.14866 0.40703 0.0
C1109 C 0.23244 0.1432 0.40888 0.0
C1110 C 0.17301 0.12219 0.33911 0.0
C1111 C 0.1867 0.16188 0.42941 0.0
C1112 C 0.11514 0.18682 0.37144 0.0
C1113 C 0.07726 0.15462 0.37537 0.0
C1114 C 0.14889 0.1834 0.37475 0.0
C1115 C 0.14473 0.14688 0.38208 0.0
C1116 C 0.1067 0.11463 0.38675 0.0
C1117 C 0.07354 0.11895 0.38349 0.0
C1118 C 0.18898 0.21864 0.36998 0.0
C1119 C 0.10092 0.07522 0.39468 0.0
H1120 H 0.23711 0.1165 0.35007 0.0
H1121 H 0.24725 0.14801 0.42641 0.0
H1122 H 0.14166 0.09903 0.34105 0.0
H1123 H 0.17355 0.14921 0.33255 0.0
H1124 H 0.18695 0.11272 0.32494 0.0
H1125 H 0.20496 0.16529 0.44583 0.0
H1126 H 0.18846 0.19048 0.42563 0.0
H1127 H 0.15552 0.14037 0.43375 0.0
H1128 H 0.11841 0.21441 0.365 0.0
H1129 H 0.04451 0.0941 0.38707 0.0
H1130 H 0.2043 0.21178 0.35531 0.0
H1131 H 0.20727 0.22589 0.38679 0.0
H1132 H 0.1873 0.24497 0.36439 0.0
H1133 H 0.1123 0.0635 0.38026 0.0
H1134 H 0.06948 0.05332 0.39813 0.0
H1135 H 0.11789 0.07857 0.41169 0.0
C1136 C 0.10118 0.90968 0.1479 0.0
C1137 C 0.12732 0.89499 0.14698 0.0
C1138 C 0.06056 0.88504 0.14346 0.0
C1139 C 0.04543 0.84453 0.13849 0.0
C1140 C 0.07177 0.82981 0.13718 0.0
C1141 C 0.11219 0.85523 0.14091 0.0
C1142 C 0.03368 0.90219 0.14454 0.0
C1143 C 0.05781 0.78727 0.1315 0.0
C1144 C 0.93799 0.77159 0.1535 0.0
C1145 C 0.9207 0.7622 0.13012 0.0
C1146 C 0.97834 0.79859 0.15645 0.0
C1147 C 1.00205 0.81723 0.13555 0.0
C1148 C 0.98457 0.80815 0.1119 0.0
C1149 C 0.94415 0.78073 0.10947 0.0
C1150 C 0.99592 0.80608 0.1819 0.0
C1151 C 1.00864 0.82696 0.08911 0.0
H1152 H 0.11222 0.94021 0.15268 0.0
H1153 H 0.13201 0.84363 0.13919 0.0
H1154 H 1.01531 0.89429 0.1277 0.0
H1155 H 1.01337 0.88962 0.16042 0.0
H1156 H 0.05028 0.93472 0.1464 0.0
H1157 H 0.07855 0.77809 0.13858 0.0
H1158 H 0.02822 0.76736 0.13929 0.0
H1159 H 0.05634 0.78368 0.11126 0.0
H1160 H 0.92009 0.75705 0.16951 0.0
H1161 H 0.93084 0.77387 0.09138 0.0
H1162 H 1.01086 0.83795 0.18617 0.0
H1163 H 1.01852 0.79697 0.18268 0.0
H1164 H 0.97344 0.78982 0.19629 0.0
H1165 H 0.02562 0.85942 0.09123 0.0
H1166 H 0.99007 0.81957 0.07236 0.0
H1167 H 0.03013 0.81677 0.0864 0.0
C1168 C 0.76826 0.92311 0.37224 0.0
C1169 C 0.79147 0.90596 0.36734 0.0
C1170 C 0.78526 0.96366 0.37606 0.0
C1171 C 0.8267 0.98797 0.37604 0.0
C1172 C 0.85056 0.9709 0.37184 0.0
C1173 C 0.83271 0.93023 0.36722 0.0
C1174 C 0.75865 0.98045 0.38005 0.0
C1175 C 0.89491 0.99565 0.37207 0.0
C1176 C 0.86725 0.09696 0.36352 0.0
C1177 C 0.87337 0.11249 0.38736 0.0
C1178 C 0.85284 0.05667 0.35957 0.0
C1179 C 0.84475 0.03128 0.37995 0.0
C1180 C 0.85183 0.04703 0.40407 0.0
C1181 C 0.86586 0.08739 0.40747 0.0
C1182 C 0.84486 0.04108 0.33359 0.0
C1183 C 0.8439 0.02116 0.42632 0.0
H1184 H 0.73652 0.90481 0.37314 0.0
H1185 H 0.85116 0.91768 0.36315 0.0
H1186 H 0.76302 0.99239 0.39893 0.0
H1187 H 0.76634 1.00491 0.36696 0.0
H1188 H 0.72702 0.9582 0.37769 0.0
H1189 H 0.90935 0.97771 0.36958 0.0
H1190 H 0.90496 0.01794 0.3572 0.0
H1191 H 0.90494 1.01183 0.38973 0.0
H1192 H 0.87251 0.11609 0.34789 0.0
H1193 H 0.87067 0.09929 0.42594 0.0
H1194 H 0.81294 0.02003 0.33131 0.0
H1195 H 0.86067 0.02483 0.32978 0.0
H1196 H 0.854 0.06487 0.31973 0.0
H1197 H 0.81184 1.00032 0.42799 0.0
H1198 H 0.85422 0.03846 0.4436 0.0
H1199 H 0.85862 1.00344 0.42426 0.0
C1200 C 0.27121 0.17047 0.65158 0.0
C1201 C 0.24796 0.12937 0.65326 0.0
C1202 C 0.25423 0.19435 0.64909 0.0
C1203 C 0.2129 0.17704 0.64697 0.0
C1204 C 0.18908 0.1356 0.64816 0.0
C1205 C 0.20675 0.11236 0.65172 0.0
C1206 C 0.2807 0.23826 0.6486 0.0
C1207 C 0.14491 0.1158 0.64559 0.0
C1208 C 0.1676 0.24169 0.65963 0.0
C1209 C 0.16495 0.2541 0.6359 0.0
C1210 C 0.18273 0.21631 0.6635 0.0
C1211 C 0.19489 0.20244 0.64313 0.0
C1212 C 0.19136 0.21421 0.61908 0.0
C1213 C 0.17664 0.23999 0.61579 0.0
C1214 C 0.1869 0.20539 0.68947 0.0
C1215 C 0.20376 0.20012 0.5968 0.0
H1216 H 0.30299 0.18431 0.65202 0.0
H1217 H 0.18804 0.08084 0.65352 0.0
H1218 H 0.27805 0.24952 0.63051 0.0
H1219 H 0.27126 0.25202 0.66287 0.0
H1220 H 0.31212 0.24742 0.65172 0.0
H1221 H 0.13055 0.08323 0.64625 0.0
H1222 H 0.13254 0.12566 0.6605 0.0
H1223 H 0.13728 0.12441 0.6279 0.0
H1224 H 0.15909 0.25288 0.67528 0.0
H1225 H 0.17453 0.24937 0.59739 0.0
H1226 H 0.21845 0.21657 0.6936 0.0
H1227 H 0.17138 0.17295 0.69153 0.0
H1228 H 0.17499 0.21761 0.70325 0.0
H1229 H 0.23597 0.21164 0.59734 0.0
H1230 H 0.19662 0.2098 0.57932 0.0
H1231 H 0.18907 0.16754 0.59686 0.0
C1232 C 0.10148 0.85936 0.87345 0.0
C1233 C 0.12898 0.88784 0.8894 0.0
C1234 C 0.06232 0.85094 0.87284 0.0
C1235 C 0.05032 0.87213 0.88823 0.0
C1236 C 0.0787 0.90307 0.90304 0.0
C1237 C 0.1178 0.91052 0.90351 0.0
C1238 C 0.03335 0.81781 0.85665 0.0
C1239 C 0.06737 0.92689 0.91934 0.0
C1240 C 0.94692 0.85165 0.87323 0.0
C1241 C 0.92415 0.81971 0.88887 0.0
C1242 C 0.98839 0.87121 0.87395 0.0
C1243 C 1.00739 0.85841 0.89063 0.0
C1244 C 0.98443 0.82812 0.9076 0.0
C1245 C 0.94324 0.80923 0.90653 0.0
C1246 C 1.01178 0.90392 0.85589 0.0
C1247 C 1.00322 0.81319 0.9255 0.0
H1248 H 0.11041 0.84294 0.8617 0.0
H1249 H 0.13913 0.93299 0.91563 0.0
H1250 H 1.01157 0.79334 0.86828 0.0
H1251 H 1.01687 0.82786 0.84502 0.0
H1252 H 0.04797 0.80619 0.8445 0.0
H1253 H 0.0936 0.95383 0.92634 0.0
H1254 H 0.04826 0.93553 0.9093 0.0
H1255 H 0.05033 0.90873 0.9353 0.0
H1256 H 0.93238 0.86005 0.85958 0.0
H1257 H 0.92585 0.78514 0.91902 0.0
H1258 H 0.02452 0.8934 0.8416 0.0
H1259 H 0.03666 0.92923 0.86528 0.0
H1260 H 0.9933 0.91421 0.84669 0.0
H1261 H 1.01477 0.79696 0.91501 0.0
H1262 H 0.98201 0.79305 0.93945 0.0
H1263 H 0.02837 0.83792 0.93508 0.0
C1264 C 0.77688 0.92759 0.64457 0.0
C1265 C 0.77922 0.90068 0.62876 0.0
C1266 C 0.80664 0.96708 0.64522 0.0
C1267 C 0.84019 0.97999 0.63001 0.0
C1268 C 0.84424 0.95226 0.61543 0.0
C1269 C 0.81353 0.91278 0.61491 0.0
C1270 C 0.80097 0.99536 0.66118 0.0
C1271 C 0.87988 0.96466 0.59935 0.0
C1272 C 0.88133 0.08633 0.61134 0.0
C1273 C 0.91069 0.10621 0.629 0.0
C1274 C 0.86009 0.04515 0.61042 0.0
C1275 C 0.86823 0.02306 0.62758 0.0
C1276 C 0.89961 0.0429 0.64443 0.0
C1277 C 0.92046 0.0843 0.64498 0.0
C1278 C 0.82672 0.02536 0.59235 0.0
C1279 C 0.90971 0.02044 0.66274 0.0
H1280 H 0.75112 0.91794 0.65609 0.0
H1281 H 0.81566 0.89188 0.6029 0.0
H1282 H 0.82722 1.01268 0.67289 0.0
H1283 H 0.79743 0.01643 0.64937 0.0
H1284 H 0.77464 0.98008 0.67322 0.0
H1285 H 0.88185 0.93899 0.59259 0.0
H1286 H 0.87819 0.98105 0.58322 0.0
H1287 H 0.90727 0.98464 0.60947 0.0
H1288 H 0.87422 0.10305 0.59857 0.0
H1289 H 0.94322 0.09944 0.65866 0.0
H1290 H 0.7987 0.01318 0.60267 0.0
H1291 H 0.82732 1.00057 0.58299 0.0
H1292 H 0.82726 0.04606 0.57823 0.0
H1293 H 0.88624 1.00717 0.6769 0.0
H1294 H 0.93818 0.03967 0.67209 0.0
H1295 H 0.91125 0.99603 0.65353 0.0
C1296 C 0.1382 0.22574 0.86407 0.0
C1297 C 0.14896 0.24695 0.88619 0.0
C1298 C 0.1432 0.19295 0.86066 0.0
C1299 C 0.15998 0.18135 0.87966 0.0
C1300 C 0.17091 0.20265 0.90201 0.0
C1301 C 0.16461 0.23462 0.90514 0.0
C1302 C 0.13015 0.17047 0.83677 0.0
C1303 C 0.18966 0.19197 0.92258 0.0
C1304 C 0.13681 0.07491 0.88028 0.0
C1305 C 0.16954 0.07711 0.86812 0.0
C1306 C 0.13351 0.1085 0.88422 0.0
C1307 C 0.16423 0.14576 0.87655 0.0
C1308 C 0.19832 0.14868 0.86546 0.0
C1309 C 0.20044 0.11435 0.86116 0.0
C1310 C 0.09659 0.1039 0.89608 0.0
C1311 C 0.23222 0.18803 0.85767 0.0
H1312 H 0.12589 0.23476 0.84932 0.0
H1313 H 0.17208 0.25 0.92255 0.0
H1314 H 0.15545 0.17037 0.82771 0.0
H1315 H 0.10764 0.13937 0.84047 0.0
H1316 H 0.11755 0.18314 0.82385 0.0
H1317 H 0.19452 0.21012 0.93928 0.0
H1318 H 0.17103 0.16054 0.9276 0.0
H1319 H 0.21849 0.19625 0.91634 0.0
H1320 H 0.11326 0.04666 0.88652 0.0
H1321 H 0.22582 0.11665 0.8517 0.0
H1322 H 0.08188 0.11464 0.88339 0.0
H1323 H 0.10416 0.12201 0.913 0.0
H1324 H 0.07534 0.07286 0.90097 0.0
H1325 H 0.22252 0.20068 0.84286 0.0
H1326 H 0.25773 0.18576 0.85087 0.0
H1327 H 0.24202 0.20893 0.87332 0.0
C1328 C 0.0909 0.86679 0.61249 0.0
C1329 C 0.11848 0.88135 0.63169 0.0
C1330 C 0.0529 0.86138 0.61546 0.0
C1331 C 0.04256 0.8722 0.63788 0.0
C1332 C 0.07071 0.88825 0.65704 0.0
C1333 C 0.10814 0.8923 0.6538 0.0
C1334 C 0.02363 0.84336 0.59473 0.0
C1335 C 0.06132 0.90124 0.68099 0.0
C1336 C 0.95946 0.89564 0.63817 0.0
C1337 C 0.92907 0.86284 0.65033 0.0
C1338 C 0.99627 0.89886 0.63386 0.0
C1339 C 1.00278 0.86799 0.64112 0.0
C1340 C 0.97174 0.83386 0.6522 0.0
C1341 C 0.93543 0.83185 0.65691 0.0
C1342 C 0.02856 0.93586 0.6221 0.0
C1343 C 0.97718 0.79982 0.65955 0.0
H1344 H 0.09884 0.85928 0.59509 0.0
H1345 H 0.12923 0.90387 0.66872 0.0
H1346 H 1.01055 0.86191 0.5902 0.0
H1347 H 0.03718 0.83935 0.57784 0.0
H1348 H 0.99922 0.81421 0.60058 0.0
H1349 H 0.08668 0.91388 0.69386 0.0
H1350 H 0.05259 0.92365 0.67739 0.0
H1351 H 0.03602 0.87591 0.69008 0.0
H1352 H 0.95472 0.91927 0.63222 0.0
H1353 H 0.91248 0.80643 0.66639 0.0
H1354 H 0.03909 0.92849 0.60508 0.0
H1355 H 0.05404 0.95043 0.63478 0.0
H1356 H 1.01872 0.95713 0.6174 0.0
H1357 H 0.9878 0.79006 0.6436 0.0
H1358 H 0.9495 0.77437 0.66649 0.0
H1359 H 0.99992 0.80928 0.6741 0.0
C1360 C 0.90746 0.09718 0.87428 0.0
C1361 C 0.89239 0.12285 0.87672 0.0
C1362 C 0.88314 0.05627 0.87735 0.0
C1363 C 0.84248 0.0403 0.88231 0.0
C1364 C 0.82717 0.06601 0.88478 0.0
C1365 C 0.85234 0.10675 0.88254 0.0
C1366 C 0.90092 0.03005 0.87512 0.0
C1367 C 0.78432 0.05099 0.89026 0.0
C1368 C 0.7728 0.93319 0.86507 0.0
C1369 C 0.7642 0.91454 0.88804 0.0
C1370 C 0.79802 0.97404 0.863 0.0
C1371 C 0.81583 0.99675 0.88434 0.0
C1372 C 0.80732 0.97794 0.90759 0.0
C1373 C 0.78147 0.93711 0.90916 0.0
C1374 C 0.80468 0.9931 0.83803 0.0
C1375 C 0.82522 1.00095 0.93084 0.0
H1376 H 0.93814 0.10886 0.86953 0.0
H1377 H 0.84034 0.12601 0.88539 0.0
H1378 H 0.8941 1.01149 0.89182 0.0
H1379 H 0.8878 1.00996 0.85922 0.0
H1380 H 0.93338 0.04711 0.87265 0.0
H1381 H 0.77496 0.07204 0.88412 0.0
H1382 H 0.76503 0.02218 0.88139 0.0
H1383 H 0.78 0.04745 0.91043 0.0
H1384 H 0.75897 0.91594 0.84874 0.0
H1385 H 0.77493 0.92276 0.92695 0.0
H1386 H 0.83655 1.00908 0.83355 0.0
H1387 H 0.7947 0.01504 0.83825 0.0
H1388 H 0.78867 0.97138 0.82324 0.0
H1389 H 0.85768 0.01902 0.92888 0.0
H1390 H 0.81826 0.98155 0.94715 0.0
H1391 H 0.81386 0.02134 0.93418 0.0
C1392 C 0.41184 0.19254 0.31561 0.0
C1393 C 0.37303 0.16908 0.32395 0.0
C1394 C 0.42024 0.20066 0.29026 0.0
C1395 C 0.3892 0.18363 0.27269 0.0
C1396 C 0.34988 0.16098 0.28136 0.0
C1397 C 0.34246 0.15547 0.30667 0.0
C1398 C 0.46254 0.22724 0.28281 0.0
C1399 C 0.31471 0.14136 0.26439 0.0
C1400 C 0.38069 0.20533 0.20558 0.0
C1401 C 0.3911 0.18041 0.19338 0.0
C1402 C 0.38498 0.2107 0.23121 0.0
C1403 C 0.39683 0.18806 0.24539 0.0
C1404 C 0.40944 0.16445 0.23293 0.0
C1405 C 0.40715 0.1616 0.20705 0.0
C1406 C 0.37404 0.23864 0.24308 0.0
C1407 C 0.42314 0.14024 0.24685 0.0
H1408 H 0.43577 0.20399 0.32878 0.0
H1409 H 0.31215 0.13874 0.31286 0.0
H1410 H 0.47922 0.2116 0.28568 0.0
H1411 H 0.4659 0.23704 0.2634 0.0
H1412 H 0.47621 0.25364 0.29482 0.0
H1413 H 0.29324 0.11155 0.27132 0.0
H1414 H 0.29942 0.15869 0.26431 0.0
H1415 H 0.32237 0.13835 0.24522 0.0
H1416 H 0.36735 0.21929 0.19533 0.0
H1417 H 0.41491 0.14204 0.19766 0.0
H1418 H 0.3897 0.25028 0.26078 0.0
H1419 H 0.34189 0.22308 0.24661 0.0
H1420 H 0.38097 0.26376 0.23067 0.0
H1421 H 0.42543 0.11859 0.23484 0.0
H1422 H 0.40286 0.12425 0.26227 0.0
H1423 H 0.45265 0.16 0.25472 0.0
C1424 C 0.79839 0.61286 0.31163 0.0
C1425 C 0.81822 0.65154 0.32057 0.0
C1426 C 0.79742 0.60506 0.28613 0.0
C1427 C 0.8152 0.63681 0.26907 0.0
C1428 C 0.83616 0.6758 0.27835 0.0
C1429 C 0.83885 0.68228 0.30379 0.0
C1430 C 0.77664 0.56272 0.27794 0.0
C1431 C 0.85529 0.71166 0.2619 0.0
C1432 C 0.84652 0.64485 0.20224 0.0
C1433 C 0.81296 0.63946 0.18974 0.0
C1434 C 0.84593 0.63877 0.22777 0.0
C1435 C 0.81197 0.63044 0.24166 0.0
C1436 C 0.77733 0.62313 0.22892 0.0
C1437 C 0.77815 0.62711 0.2031 0.0
C1438 C 0.88284 0.64402 0.23988 0.0
C1439 C 0.73978 0.61286 0.24244 0.0
H1440 H 0.78286 0.5887 0.32441 0.0
H1441 H 0.85572 0.71225 0.31047 0.0
H1442 H 0.74439 0.55022 0.2799 0.0
H1443 H 0.7834 0.55904 0.25864 0.0
H1444 H 0.78492 0.54527 0.29006 0.0
H1445 H 0.88744 0.72287 0.26112 0.0
H1446 H 0.84354 0.70588 0.24292 0.0
H1447 H 0.8513 0.73561 0.26969 0.0
H1448 H 0.87406 0.6559 0.19246 0.0
H1449 H 0.75221 0.62326 0.19353 0.0
H1450 H 0.87621 0.62701 0.25725 0.0
H1451 H 0.90271 0.67559 0.24404 0.0
H1452 H 0.89896 0.63458 0.22736 0.0
H1453 H 0.72555 0.5818 0.24855 0.0
H1454 H 0.7185 0.61608 0.23062 0.0
H1455 H 0.74583 0.63145 0.259 0.0
C1456 C 0.8379 0.22179 0.20779 0.0
C1457 C 0.86365 0.20918 0.19952 0.0
C1458 C 0.82867 0.22057 0.233 0.0
C1459 C 0.84696 0.20798 0.25052 0.0
C1460 C 0.87189 0.19389 0.24193 0.0
C1461 C 0.87858 0.19338 0.21665 0.0
C1462 C 0.79945 0.23306 0.24031 0.0
C1463 C 0.89257 0.17954 0.2589 0.0
C1464 C 0.86492 0.24657 0.31629 0.0
C1465 C 0.84823 0.21134 0.32959 0.0
C1466 C 0.86243 0.24642 0.29043 0.0
C1467 C 0.84135 0.21007 0.27769 0.0
C1468 C 0.82027 0.17492 0.2915 0.0
C1469 C 0.8254 0.17579 0.3171 0.0
C1470 C 0.88447 0.28502 0.27686 0.0
C1471 C 0.79465 0.13571 0.27927 0.0
H1472 H 0.82532 0.23318 0.19466 0.0
H1473 H 0.89706 0.1818 0.2104 0.0
H1474 H 0.78945 0.22584 0.25966 0.0
H1475 H 0.8129 0.26525 0.23751 0.0
H1476 H 0.77325 0.21867 0.22814 0.0
H1477 H 0.92318 0.19026 0.25245 0.0
H1478 H 0.89389 0.18885 0.27824 0.0
H1479 H 0.87714 0.14694 0.25826 0.0
H1480 H 0.88294 0.27407 0.32592 0.0
H1481 H 0.81328 0.14823 0.32696 0.0
H1482 H 0.8631 0.29285 0.26925 0.0
H1483 H 0.90152 0.28276 0.2613 0.0
H1484 H 0.90493 0.30941 0.28907 0.0
H1485 H 0.76945 0.11621 0.29132 0.0
H1486 H 0.81206 0.12092 0.27612 0.0
H1487 H 0.78303 0.13897 0.26136 0.0
C1488 C 0.19758 0.40876 0.70545 0.0
C1489 C 0.17837 0.36981 0.69692 0.0
C1490 C 0.2042 0.41721 0.73089 0.0
C1491 C 0.18994 0.38591 0.74823 0.0
C1492 C 0.17182 0.34673 0.73946 0.0
C1493 C 0.16771 0.33943 0.7141 0.0
C1494 C 0.22527 0.45964 0.73891 0.0
C1495 C 0.15493 0.31208 0.75689 0.0
C1496 C 0.21461 0.38472 0.81577 0.0
C1497 C 0.18089 0.3813 0.82712 0.0
C1498 C 0.2203 0.39058 0.79015 0.0
C1499 C 0.19149 0.39269 0.77553 0.0
C1500 C 0.16003 0.39404 0.78742 0.0
C1501 C 0.15523 0.38844 0.81303 0.0
C1502 C 0.25596 0.39212 0.77851 0.0
C1503 C 0.1298 0.39855 0.7729 0.0
H1504 H 0.20655 0.4326 0.69239 0.0
H1505 H 0.15462 0.30933 0.70774 0.0
H1506 H 0.20398 0.47042 0.73948 0.0
H1507 H 0.23886 0.46374 0.75734 0.0
H1508 H 0.24858 0.47818 0.72545 0.0
H1509 H 0.17863 0.31307 0.76849 0.0
H1510 H 0.13319 0.31343 0.76935 0.0
H1511 H 0.14007 0.28343 0.74708 0.0
H1512 H 0.23555 0.3808 0.82649 0.0
H1513 H 0.13028 0.38796 0.82193 0.0
H1514 H 0.26837 0.41516 0.76405 0.0
H1515 H 0.24731 0.36351 0.7696 0.0
H1516 H 0.2792 0.39817 0.79229 0.0
H1517 H 0.14446 0.42381 0.76011 0.0
H1518 H 0.10959 0.40316 0.78495 0.0
H1519 H 0.11222 0.37182 0.76164 0.0
C1520 C 0.20577 0.88038 0.80443 0.0
C1521 C 0.21536 0.85999 0.82173 0.0
C1522 C 0.20368 0.87215 0.77924 0.0
C1523 C 0.21082 0.8421 0.77073 0.0
C1524 C 0.21849 0.81987 0.7882 0.0
C1525 C 0.22112 0.82937 0.81344 0.0
C1526 C 0.1931 0.8959 0.76222 0.0
C1527 C 0.22421 0.78613 0.78057 0.0
C1528 C 0.17493 0.81955 0.70487 0.0
C1529 C 0.21019 0.84074 0.69172 0.0
C1530 C 0.17499 0.81564 0.73057 0.0
C1531 C 0.21103 0.8353 0.74362 0.0
C1532 C 0.24688 0.85443 0.73021 0.0
C1533 C 0.24599 0.85643 0.70438 0.0
C1534 C 0.13617 0.7931 0.74387 0.0
C1535 C 0.2861 0.87536 0.7432 0.0
H1536 H 0.20021 0.90348 0.81046 0.0
H1537 H 0.22813 0.81304 0.82658 0.0
H1538 H 0.201 0.89513 0.74278 0.0
H1539 H 0.16087 0.88421 0.76324 0.0
H1540 H 0.20765 0.92709 0.76826 0.0
H1541 H 0.21236 0.76267 0.79479 0.0
H1542 H 0.2098 0.77306 0.76277 0.0
H1543 H 0.25617 0.7968 0.77883 0.0
H1544 H 0.14709 0.8079 0.6954 0.0
H1545 H 0.27327 0.87314 0.69423 0.0
H1546 H 0.12687 0.81391 0.75053 0.0
H1547 H 0.13886 0.77734 0.76003 0.0
H1548 H 0.11276 0.77146 0.73156 0.0
H1549 H 0.28645 0.89667 0.75676 0.0
H1550 H 0.31105 0.89132 0.73021 0.0
H1551 H 0.29082 0.85369 0.75345 0.0
C1552 C 0.6257 0.79966 0.704 0.0
C1553 C 0.664 0.8131 0.69524 0.0
C1554 C 0.61827 0.79995 0.72941 0.0
C1555 C 0.64979 0.81325 0.74651 0.0
C1556 C 0.68874 0.82873 0.73744 0.0
C1557 C 0.69519 0.82857 0.71211 0.0
C1558 C 0.57647 0.78554 0.73756 0.0
C1559 C 0.72454 0.846 0.75393 0.0
C1560 C 0.65674 0.84314 0.81351 0.0
C1561 C 0.64725 0.80808 0.82574 0.0
C1562 C 0.65297 0.84414 0.78786 0.0
C1563 C 0.64269 0.80998 0.77376 0.0
C1564 C 0.63175 0.77409 0.78614 0.0
C1565 C 0.6334 0.77347 0.81202 0.0
C1566 C 0.66308 0.88267 0.77582 0.0
C1567 C 0.6211 0.73696 0.77205 0.0
H1568 H 0.60135 0.78797 0.69114 0.0
H1569 H 0.72514 0.84015 0.70559 0.0
H1570 H 0.56012 0.75292 0.7378 0.0
H1571 H 0.57478 0.7964 0.7561 0.0
H1572 H 0.56126 0.79492 0.72428 0.0
H1573 H 0.74559 0.83665 0.74768 0.0
H1574 H 0.74003 0.87854 0.75238 0.0
H1575 H 0.71765 0.83808 0.77355 0.0
H1576 H 0.66921 0.87041 0.82371 0.0
H1577 H 0.62703 0.74654 0.8214 0.0
H1578 H 0.6452 0.87791 0.75902 0.0
H1579 H 0.69461 0.89838 0.7705 0.0
H1580 H 0.65829 0.90193 0.78864 0.0
H1581 H 0.61685 0.71251 0.78431 0.0
H1582 H 0.64446 0.74248 0.75846 0.0
H1583 H 0.59343 0.72741 0.76173 0.0
C1584 C 0.24475 0.97229 0.96524 0.0
C1585 C 0.25726 0.94562 0.95875 0.0
C1586 C 0.26045 0.99732 0.98568 0.0
C1587 C 0.28776 0.99428 1.00119 0.0
C1588 C 0.2988 0.96574 0.99563 0.0
C1589 C 0.28382 0.94209 0.97434 0.0
C1590 C 0.24869 0.02801 0.99019 0.0
C1591 C 0.32708 0.96078 0.01193 0.0
C1592 C 0.35053 0.08217 0.04356 0.0
C1593 C 0.32709 0.07221 0.06479 0.0
C1594 C 0.33895 0.05681 0.02299 0.0
C1595 C 0.30324 0.02007 0.02364 0.0
C1596 C 0.2804 1.0092 0.04542 0.0
C1597 C 0.29216 0.03545 0.06538 0.0
C1598 C 0.36453 0.07066 1.00035 0.0
C1599 C 0.24309 0.96982 0.04762 0.0
H1600 H 0.22377 0.97489 0.95358 0.0
H1601 H 0.29373 0.92165 0.96957 0.0
H1602 H 0.23347 0.0227 1.00815 0.0
H1603 H 0.2754 0.05763 0.99098 0.0
H1604 H 0.2289 0.02812 0.97564 0.0
H1605 H 0.33124 0.93607 1.0059 0.0
H1606 H 0.35611 0.98825 0.01186 0.0
H1607 H 0.31617 0.95541 0.03117 0.0
H1608 H 0.37782 0.11007 0.04281 0.0
H1609 H 0.2737 0.02678 0.08157 0.0
H1610 H 0.35551 0.08827 0.989 0.0
H1611 H 0.36186 0.04592 0.98907 0.0
H1612 H 0.39599 0.08998 1.0053 0.0
H1613 H 0.22022 0.96896 0.03525 0.0
H1614 H 0.23125 0.96378 0.06667 0.0
H1615 H 0.24857 0.94586 0.04184 0.0
C1616 C 0.75968 0.68069 0.47395 0.0
C1617 C 0.7747 0.70534 0.45332 0.0
C1618 C 0.74643 0.69215 0.49493 0.0
C1619 C 0.74705 0.7287 0.49513 0.0
C1620 C 0.76122 0.7531 0.4741 0.0
C1621 C 0.77572 0.74173 0.45397 0.0
C1622 C 0.73326 0.66557 0.51711 0.0
C1623 C 0.76096 0.79141 0.47274 0.0
C1624 C 0.68575 0.74741 0.54287 0.0
C1625 C 0.71485 0.77301 0.55936 0.0
C1626 C 0.69565 0.73285 0.52186 0.0
C1627 C 0.73541 0.74306 0.51757 0.0
C1628 C 0.76477 0.76921 0.53406 0.0
C1629 C 0.75434 0.78482 0.55408 0.0
C1630 C 0.66353 0.70619 0.50434 0.0
C1631 C 0.80727 0.77996 0.53098 0.0
H1632 H 0.75836 0.65246 0.47381 0.0
H1633 H 0.78707 0.76135 0.43835 0.0
H1634 H 0.75861 0.67552 0.5298 0.0
H1635 H 0.70919 0.66656 0.5272 0.0
H1636 H 0.72323 0.6346 0.51195 0.0
H1637 H 0.76861 0.80475 0.45411 0.0
H1638 H 0.73147 0.78665 0.47783 0.0
H1639 H 0.78244 0.81278 0.48602 0.0
H1640 H 0.65517 0.73804 0.54665 0.0
H1641 H 0.77725 0.80513 0.56638 0.0
H1642 H 0.66124 0.67687 0.50397 0.0
H1643 H 0.67091 0.71833 0.48542 0.0
H1644 H 0.63442 0.70239 0.50955 0.0
H1645 H 0.80935 0.75284 0.52962 0.0
H1646 H 0.82599 0.79799 0.5465 0.0
H1647 H 0.81935 0.79672 0.5137 0.0
C1648 C 0.04698 0.27898 0.95854 0.0
C1649 C 0.08134 0.31613 0.95747 0.0
C1650 C 0.02033 0.268 0.97829 0.0
C1651 C 0.02831 0.29426 0.99814 0.0
C1652 C 0.06296 0.33184 0.99732 0.0
C1653 C 0.08887 0.34242 0.97698 0.0
C1654 C 0.98394 0.22769 0.97813 0.0
C1655 C 0.07306 0.36058 0.01822 0.0
C1656 C 0.94548 0.27151 0.04479 0.0
C1657 C 0.95362 0.25171 0.06331 0.0
C1658 C 0.96952 0.28581 0.02351 0.0
C1659 C 1.00264 0.2805 0.02074 0.0
C1660 C 1.01056 0.26021 0.03929 0.0
C1661 C 0.98594 0.24582 0.05998 0.0
C1662 C 0.95961 0.30674 1.00401 0.0
C1663 C 0.04538 0.25375 0.03742 0.0
H1664 H 0.04081 0.25795 0.94396 0.0
H1665 H 0.11503 0.37126 0.9764 0.0
H1666 H 0.98618 0.20931 0.99281 0.0
H1667 H 0.95738 0.22996 0.98203 0.0
H1668 H 0.97976 0.21238 0.96026 0.0
H1669 H 0.09983 0.38932 0.01434 0.0
H1670 H 0.04812 0.36563 0.02191 0.0
H1671 H 0.07808 0.34811 0.03522 0.0
H1672 H 0.92084 0.27644 0.0471 0.0
H1673 H 0.99266 0.23032 0.07388 0.0
H1674 H 0.95484 0.29138 0.98614 0.0
H1675 H 0.98464 0.33707 1.00154 0.0
H1676 H 0.93284 0.3083 1.00867 0.0
H1677 H 0.04214 0.23551 0.02106 0.0
H1678 H 0.04854 0.2389 0.05392 0.0
H1679 H 0.07294 0.28232 0.03501 0.0
C1680 C 0.28173 0.04492 0.46112 0.0
C1681 C 0.32005 0.07733 0.45861 0.0
C1682 C 0.27064 0.01944 0.48141 0.0
C1683 C 0.29823 0.02634 0.50023 0.0
C1684 C 0.33677 0.05952 0.49825 0.0
C1685 C 0.34727 0.08458 0.47746 0.0
C1686 C 0.22921 0.98477 0.48257 0.0
C1687 C 0.36703 0.06826 0.51797 0.0
C1688 C 0.25228 0.98024 0.56209 0.0
C1689 C 0.25488 0.94575 0.56256 0.0
C1690 C 0.26752 1.00716 0.54249 0.0
C1691 C 0.28563 0.99962 0.52234 0.0
C1692 C 0.28847 0.96492 0.52257 0.0
C1693 C 0.27324 0.93852 0.54267 0.0
C1694 C 0.26358 0.0435 0.54322 0.0
C1695 C 0.30723 0.95546 0.50141 0.0
H1696 H 0.26016 0.03886 0.44686 0.0
H1697 H 0.377 0.10916 0.47569 0.0
H1698 H 0.23 0.95701 0.48417 0.0
H1699 H 0.21394 0.98707 0.49913 0.0
H1700 H 0.21156 0.98279 0.46612 0.0
H1701 H 0.39553 0.09522 0.51393 0.0
H1702 H 0.35592 0.072 0.53595 0.0
H1703 H 0.37225 0.04309 0.51986 0.0
H1704 H 0.23811 0.98643 0.57714 0.0
H1705 H 0.27597 0.9124 0.54286 0.0
H1706 H 0.24386 0.04224 0.52821 0.0
H1707 H 0.29266 0.07019 0.54018 0.0
H1708 H 0.25142 0.04666 0.56098 0.0
H1709 H 0.29004 0.95134 0.48438 0.0
H1710 H 0.30888 0.92841 0.50476 0.0
H1711 H 0.3374 0.98036 0.4981 0.0
C1712 C 0.75598 0.67549 0.03985 0.0
C1713 C 0.773 0.70132 0.05979 0.0
C1714 C 0.7407 0.68579 0.01937 0.0
C1715 C 0.74224 0.72274 0.01875 0.0
C1716 C 0.75899 0.7486 0.03893 0.0
C1717 C 0.77413 0.73773 0.05895 0.0
C1718 C 0.72329 0.65733 0.99824 0.0
C1719 C 0.76152 0.78828 0.03928 0.0
C1720 C 0.74551 0.77264 0.95788 0.0
C1721 C 0.70711 0.76664 0.95571 0.0
C1722 C 0.75673 0.75755 0.97777 0.0
C1723 C 0.72915 0.73595 0.99646 0.0
C1724 C 0.69028 0.72969 0.99452 0.0
C1725 C 0.67971 0.74501 0.97421 0.0
C1726 C 0.79849 0.76525 0.97888 0.0
C1727 C 0.65993 0.70699 0.01403 0.0
H1728 H 0.75454 0.64721 0.04023 0.0
H1729 H 0.78693 0.75817 0.07408 0.0
H1730 H 0.6929 0.65109 0.9945 0.0
H1731 H 0.74085 0.67067 0.98135 0.0
H1732 H 0.72252 0.62912 1.00189 0.0
H1733 H 0.77349 0.80419 0.05687 0.0
H1734 H 0.78075 0.80676 0.02407 0.0
H1735 H 0.73195 0.78477 0.03629 0.0
H1736 H 0.76722 0.78921 0.9439 0.0
H1737 H 0.64991 0.73976 0.97273 0.0
H1738 H 0.79851 0.73717 0.98101 0.0
H1739 H 0.81366 0.78369 0.99514 0.0
H1740 H 0.81574 0.78049 0.96218 0.0
H1741 H 0.65691 0.67756 0.01651 0.0
H1742 H 0.63061 0.70315 0.00945 0.0
H1743 H 0.66966 0.72257 0.0319 0.0
C1744 C 0.05652 0.27934 0.55935 0.0
C1745 C 0.08848 0.31777 0.56237 0.0
C1746 C 0.03064 0.26893 0.5393 0.0
C1747 C 0.03686 0.29727 0.52114 0.0
C1748 C 0.06946 0.33601 0.52369 0.0
C1749 C 0.09475 0.34586 0.5443 0.0
C1750 C 0.99647 0.22732 0.53759 0.0
C1751 C 0.07754 0.36707 0.50465 0.0
C1752 C 0.99239 0.25406 0.45853 0.0
C1753 C 0.95743 0.25589 0.45821 0.0
C1754 C 1.01888 0.26865 0.47836 0.0
C1755 C 1.01041 0.28524 0.49893 0.0
C1756 C 0.97529 0.28739 0.49885 0.0
C1757 C 0.94941 0.27299 0.47847 0.0
C1758 C 0.05582 0.26571 0.47739 0.0
C1759 C 0.9648 0.30442 0.52048 0.0
H1760 H 0.05124 0.25705 0.5729 0.0
H1761 H 0.119 0.37566 0.54643 0.0
H1762 H 0.9684 0.22753 0.53579 0.0
H1763 H 0.99965 0.21282 0.52094 0.0
H1764 H 0.99436 0.20933 0.55389 0.0
H1765 H 0.10379 0.3958 0.50927 0.0
H1766 H 0.0823 0.35739 0.48644 0.0
H1767 H 0.05167 0.3712 0.50291 0.0
H1768 H 0.99938 0.24114 0.44314 0.0
H1769 H 0.923 0.27524 0.47843 0.0
H1770 H 0.05485 0.24559 0.49204 0.0
H1771 H 0.08209 0.29493 0.48083 0.0
H1772 H 0.05958 0.25457 0.4594 0.0
H1773 H 0.96088 0.2865 0.53713 0.0
H1774 H 0.93733 0.3054 0.51733 0.0
H1775 H 0.98913 0.33465 0.52433 0.0
C1776 C 0.6344 0.16318 0.11166 0.0
C1777 C 0.66097 0.19649 0.12514 0.0
C1778 C 0.59335 0.14608 0.11491 0.0
C1779 C 0.57837 0.16275 0.13193 0.0
C1780 C 0.60512 0.19445 0.14688 0.0
C1781 C 0.6459 0.21073 0.14339 0.0
C1782 C 0.56602 0.11195 0.09882 0.0
C1783 C 0.59079 0.21329 0.16528 0.0
C1784 C 0.48547 0.16409 0.11395 0.0
C1785 C 0.45665 0.13584 0.12959 0.0
C1786 C 0.52467 0.17258 0.11453 0.0
C1787 C 0.53592 0.1521 0.13102 0.0
C1788 C 0.50702 0.12315 0.14677 0.0
C1789 C 0.46778 0.11564 0.14607 0.0
C1790 C 0.55423 0.20409 0.0976 0.0
C1791 C 0.5176 0.10037 0.16448 0.0
H1792 H 0.64553 0.1518 0.09754 0.0
H1793 H 0.66609 0.2358 0.15438 0.0
H1794 H 0.541 0.0893 0.10972 0.0
H1795 H 0.5536 0.12245 0.08433 0.0
H1796 H 0.58146 0.09809 0.08976 0.0
H1797 H 0.61468 0.23393 0.17772 0.0
H1798 H 0.57903 0.22991 0.15535 0.0
H1799 H 0.56649 0.19057 0.17656 0.0
H1800 H 0.4776 0.1803 0.10128 0.0
H1801 H 0.44591 0.09392 0.1583 0.0
H1802 H 0.56807 0.19161 0.08553 0.0
H1803 H 0.57805 0.22794 0.10856 0.0
H1804 H 0.54068 0.21721 0.08581 0.0
H1805 H 0.53387 0.08797 0.1548 0.0
H1806 H 0.49117 0.076 0.17345 0.0
H1807 H 0.53732 0.12039 0.17896 0.0
C1808 C 0.66675 0.56914 0.39325 0.0
C1809 C 0.70463 0.57774 0.3864 0.0
C1810 C 0.63588 0.52988 0.39535 0.0
C1811 C 0.64325 0.49861 0.39049 0.0
C1812 C 0.68112 0.50749 0.38219 0.0
C1813 C 0.71136 0.54691 0.38045 0.0
C1814 C 0.59614 0.522 0.40422 0.0
C1815 C 0.69024 0.47531 0.37628 0.0
C1816 C 0.58904 0.40231 0.42594 0.0
C1817 C 0.56335 0.37624 0.40817 0.0
C1818 C 0.61387 0.44241 0.42068 0.0
C1819 C 0.61342 0.45702 0.39693 0.0
C1820 C 0.58656 0.43111 0.37914 0.0
C1821 C 0.56168 0.39106 0.38501 0.0
C1822 C 0.64068 0.46905 0.44066 0.0
C1823 C 0.58485 0.44547 0.3537 0.0
H1824 H 0.66179 0.59294 0.39832 0.0
H1825 H 0.74082 0.55367 0.37529 0.0
H1826 H 0.57216 0.49785 0.39353 0.0
H1827 H 0.59224 0.51262 0.42374 0.0
H1828 H 0.59309 0.54859 0.40286 0.0
H1829 H 0.72169 0.48709 0.37139 0.0
H1830 H 0.68292 0.45514 0.39218 0.0
H1831 H 0.67177 0.45757 0.36064 0.0
H1832 H 0.58985 0.39119 0.44404 0.0
H1833 H 0.54187 0.37105 0.37121 0.0
H1834 H 0.62941 0.48831 0.44725 0.0
H1835 H 0.67088 0.48844 0.43356 0.0
H1836 H 0.64231 0.45223 0.45659 0.0
H1837 H 0.58224 0.47229 0.35481 0.0
H1838 H 0.55976 0.42282 0.34284 0.0
H1839 H 0.61257 0.45355 0.34373 0.0
C1840 C 0.93018 0.35431 0.11185 0.0
C1841 C 0.90278 0.32402 0.12697 0.0
C1842 C 0.92772 0.38836 0.10744 0.0
C1843 C 0.89704 0.39235 0.11838 0.0
C1844 C 0.86992 0.36228 0.1342 0.0
C1845 C 0.87311 0.32857 0.13829 0.0
C1846 C 0.95745 0.41964 0.09055 0.0
C1847 C 0.8374 0.3656 0.14681 0.0
C1848 C 0.90788 0.49477 0.11967 0.0
C1849 C 0.88545 0.49329 0.09924 0.0
C1850 C 0.91126 0.46193 0.12648 0.0
C1851 C 0.89217 0.42696 0.1123 0.0
C1852 C 0.86891 0.4253 0.09188 0.0
C1853 C 0.86587 0.45847 0.08561 0.0
C1854 C 0.93628 0.46506 0.14836 0.0
C1855 C 0.84852 0.38904 0.07596 0.0
H1856 H 0.95291 0.35091 0.10282 0.0
H1857 H 0.85204 0.30552 0.15023 0.0
H1858 H 0.94238 0.42183 0.07389 0.0
H1859 H 0.9714 0.44872 0.09977 0.0
H1860 H 0.98092 0.41334 0.08477 0.0
H1861 H 0.81586 0.33775 0.15599 0.0
H1862 H 0.85033 0.38916 0.16088 0.0
H1863 H 0.82148 0.37393 0.13345 0.0
H1864 H 0.92366 0.52201 0.1299 0.0
H1865 H 0.84928 0.45768 0.06948 0.0
H1866 H 0.96145 0.46168 0.14232 0.0
H1867 H 0.91885 0.441 0.16158 0.0
H1868 H 0.94794 0.49367 0.15803 0.0
H1869 H 0.87084 0.38614 0.06504 0.0
H1870 H 0.82721 0.39027 0.06309 0.0
H1871 H 0.83275 0.36225 0.08744 0.0
C1872 C 0.47085 0.14752 0.42011 0.0
C1873 C 0.44931 0.13384 0.3982 0.0
C1874 C 0.51052 0.15758 0.42145 0.0
C1875 C 0.52933 0.153 0.4005 0.0
C1876 C 0.50697 0.13644 0.37879 0.0
C1877 C 0.46724 0.12723 0.37784 0.0
C1878 C 0.5326 0.17426 0.44521 0.0
C1879 C 0.52528 0.12982 0.35624 0.0
C1880 C 0.63983 0.22474 0.39978 0.0
C1881 C 0.65489 0.20274 0.41094 0.0
C1882 C 0.59933 0.20825 0.39503 0.0
C1883 C 0.5729 0.16844 0.40122 0.0
C1884 C 0.58814 0.14532 0.411 0.0
C1885 C 0.62878 0.16274 0.4159 0.0
C1886 C 0.58462 0.23398 0.38427 0.0
C1887 C 0.56131 0.10255 0.41729 0.0
H1888 H 0.45695 0.15152 0.43623 0.0
H1889 H 0.45077 0.11626 0.3609 0.0
H1890 H 0.54063 0.15335 0.45334 0.0
H1891 H 0.56037 0.20222 0.44176 0.0
H1892 H 0.51494 0.17987 0.4589 0.0
H1893 H 0.50258 0.10917 0.34317 0.0
H1894 H 0.54354 0.15827 0.34669 0.0
H1895 H 0.54481 0.11804 0.3613 0.0
H1896 H 0.65969 0.25529 0.39515 0.0
H1897 H 0.63978 0.14528 0.42454 0.0
H1898 H 0.56205 0.2341 0.39651 0.0
H1899 H 0.57033 0.22189 0.36631 0.0
H1900 H 0.60863 0.2648 0.38152 0.0
H1901 H 0.54463 0.10025 0.43428 0.0
H1902 H 0.57801 0.08695 0.4204 0.0
H1903 H 0.53956 0.08739 0.4024 0.0
C1904 C 0.52747 0.42661 0.10598 0.0
C1905 C 0.53283 0.394 0.103 0.0
C1906 C 0.55888 0.46381 0.11251 0.0
C1907 C 0.59671 0.46869 0.11656 0.0
C1908 C 0.60156 0.43522 0.11568 0.0
C1909 C 0.56965 0.39834 0.10883 0.0
C1910 C 0.55215 0.49844 0.11321 0.0
C1911 C 0.64116 0.43887 0.12036 0.0
C1912 C 0.68687 0.56479 0.09748 0.0
C1913 C 0.70158 0.58381 0.12003 0.0
C1914 C 0.6523 0.52806 0.09618 0.0
C1915 C 0.63198 0.5092 0.11806 0.0
C1916 C 0.64591 0.52888 0.14089 0.0
C1917 C 0.68041 0.5662 0.14159 0.0
C1918 C 0.63813 0.50894 0.07134 0.0
C1919 C 0.62544 0.50982 0.16466 0.0
H1920 H 0.49891 0.42344 0.10214 0.0
H1921 H 0.57425 0.3735 0.10663 0.0
H1922 H 0.56569 0.51655 0.12985 0.0
H1923 H 0.56642 0.51749 0.09699 0.0
H1924 H 0.52033 0.4891 0.11295 0.0
H1925 H 0.63896 0.4097 0.12253 0.0
H1926 H 0.66112 0.45435 0.10469 0.0
H1927 H 0.65481 0.45659 0.13712 0.0
H1928 H 0.70292 0.57848 0.08072 0.0
H1929 H 0.69185 0.58068 0.15908 0.0
H1930 H 0.60698 0.50097 0.06853 0.0
H1931 H 0.63941 0.48138 0.07046 0.0
H1932 H 0.65605 0.5284 0.05602 0.0
H1933 H 0.59335 0.49864 0.16323 0.0
H1934 H 0.63732 0.53045 0.18046 0.0
H1935 H 0.62929 0.48419 0.16848 0.0
C1936 C 0.79969 0.41606 0.39409 0.0
C1937 C 0.82138 0.45465 0.40316 0.0
C1938 C 0.81735 0.39292 0.39034 0.0
C1939 C 0.85803 0.40889 0.39523 0.0
C1940 C 0.88069 0.44864 0.4027 0.0
C1941 C 0.86209 0.47086 0.40684 0.0
C1942 C 0.79204 0.35075 0.38216 0.0
C1943 C 0.9243 0.46724 0.40747 0.0
C1944 C 0.88439 0.33425 0.41892 0.0
C1945 C 0.8964 0.32329 0.39747 0.0
C1946 C 0.87337 0.36309 0.41852 0.0
C1947 C 0.87505 0.3823 0.39616 0.0
C1948 C 0.89006 0.3736 0.37478 0.0
C1949 C 0.90045 0.344 0.37565 0.0
C1950 C 0.85854 0.37191 0.44197 0.0
C1951 C 0.89358 0.39422 0.35075 0.0
H1952 H 0.76854 0.40351 0.39042 0.0
H1953 H 0.87935 0.50047 0.41396 0.0
H1954 H 0.8023 0.34662 0.36399 0.0
H1955 H 0.79483 0.33065 0.39526 0.0
H1956 H 0.76044 0.34196 0.38068 0.0
H1957 H 0.93899 0.49984 0.40807 0.0
H1958 H 0.92908 0.45684 0.42539 0.0
H1959 H 0.93864 0.45861 0.39309 0.0
H1960 H 0.88217 0.31916 0.43604 0.0
H1961 H 0.90997 0.33593 0.35902 0.0
H1962 H 0.83002 0.37068 0.43879 0.0
H1963 H 0.87982 0.40211 0.44822 0.0
H1964 H 0.85458 0.35109 0.457 0.0
H1965 H 0.86405 0.38166 0.34221 0.0
H1966 H 0.9133 0.39063 0.33764 0.0
H1967 H 0.90493 0.42608 0.35372 0.0
C1968 C 0.21728 0.62701 0.62739 0.0
C1969 C 0.19507 0.64187 0.61628 0.0
C1970 C 0.20132 0.58648 0.63151 0.0
C1971 C 0.16182 0.55986 0.62475 0.0
C1972 C 0.13831 0.57487 0.61529 0.0
C1973 C 0.15523 0.61557 0.611 0.0
C1974 C 0.22745 0.57196 0.64188 0.0
C1975 C 0.09582 0.54775 0.60844 0.0
C1976 C 0.14652 0.46159 0.60265 0.0
C1977 C 0.13303 0.43823 0.6239 0.0
C1978 C 0.15426 0.5005 0.60249 0.0
C1979 C 0.14763 0.51664 0.624 0.0
C1980 C 0.13096 0.49226 0.64497 0.0
C1981 C 0.12397 0.45328 0.64472 0.0
C1982 C 0.17144 0.52492 0.57954 0.0
C1983 C 0.12235 0.50778 0.6681 0.0
H1984 H 0.2477 0.64704 0.63227 0.0
H1985 H 0.13763 0.62646 0.60241 0.0
H1986 H 0.21429 0.55505 0.65898 0.0
H1987 H 0.22973 0.55172 0.62862 0.0
H1988 H 0.2576 0.59635 0.64604 0.0
H1989 H 0.07963 0.564 0.60593 0.0
H1990 H 0.09438 0.53252 0.59097 0.0
H1991 H 0.08065 0.52484 0.62274 0.0
H1992 H 0.15265 0.44992 0.58622 0.0
H1993 H 0.11329 0.43539 0.66118 0.0
H1994 H 0.19983 0.55174 0.58384 0.0
H1995 H 0.15123 0.53467 0.57243 0.0
H1996 H 0.1766 0.50849 0.56475 0.0
H1997 H 0.15011 0.5255 0.67845 0.0
H1998 H 0.10129 0.48353 0.6802 0.0
H1999 H 0.11013 0.52717 0.66372 0.0
C2000 C 0.35021 0.89998 0.91812 0.0
C2001 C 0.3356 0.90375 0.89539 0.0
C2002 C 0.3846 0.89753 0.91972 0.0
C2003 C 0.40515 0.89867 0.89802 0.0
C2004 C 0.39107 0.90339 0.87497 0.0
C2005 C 0.3564 0.90585 0.87393 0.0
C2006 C 0.39857 0.89306 0.94474 0.0
C2007 C 0.41186 0.90463 0.85137 0.0
C2008 C 0.51036 0.92363 0.91097 0.0
C2009 C 0.50607 0.88614 0.91434 0.0
C2010 C 0.47837 0.92824 0.90404 0.0
C2011 C 0.44105 0.89459 0.89996 0.0
C2012 C 0.4373 0.85677 0.90126 0.0
C2013 C 0.46973 0.85297 0.90851 0.0
C2014 C 0.4839 0.96913 0.90279 0.0
C2015 C 0.39829 0.8202 0.89643 0.0
H2016 H 0.33441 0.89855 0.93481 0.0
H2017 H 0.34487 0.90804 0.85629 0.0
H2018 H 0.39798 0.86455 0.9458 0.0
H2019 H 0.42946 0.91671 0.94773 0.0
H2020 H 0.3801 0.89419 0.95987 0.0
H2021 H 0.40026 0.9134 0.83544 0.0
H2022 H 0.44395 0.92546 0.85294 0.0
H2023 H 0.40794 0.8751 0.84766 0.0
H2024 H 0.53854 0.94957 0.9147 0.0
H2025 H 0.46592 0.82388 0.91095 0.0
H2026 H 0.46877 0.97366 0.91864 0.0
H2027 H 0.47047 0.97288 0.88582 0.0
H2028 H 0.51548 0.99225 0.90329 0.0
H2029 H 0.37662 0.81756 0.91047 0.0
H2030 H 0.40051 0.79309 0.89685 0.0
H2031 H 0.38669 0.82235 0.87826 0.0
C2032 C 0.56447 0.68748 0.60309 0.0
C2033 C 0.58706 0.69914 0.62465 0.0
C2034 C 0.52427 0.6596 0.60356 0.0
C2035 C 0.50609 0.64176 0.62612 0.0
C2036 C 0.52922 0.65154 0.64779 0.0
C2037 C 0.56946 0.68046 0.64685 0.0
C2038 C 0.50116 0.65008 0.57987 0.0
C2039 C 0.51135 0.63244 0.67208 0.0
C2040 C 0.39636 0.60583 0.62698 0.0
C2041 C 0.38048 0.56728 0.61799 0.0
C2042 C 0.43703 0.62986 0.631 0.0
C2043 C 0.46256 0.61467 0.62672 0.0
C2044 C 0.44646 0.57494 0.61949 0.0
C2045 C 0.40588 0.552 0.61479 0.0
C2046 C 0.45255 0.67181 0.63928 0.0
C2047 C 0.47232 0.55703 0.6157 0.0
H2048 H 0.57801 0.70115 0.58573 0.0
H2049 H 0.58667 0.68931 0.66359 0.0
H2050 H 0.49356 0.62023 0.57363 0.0
H2051 H 0.47316 0.65014 0.58263 0.0
H2052 H 0.51804 0.67124 0.56497 0.0
H2053 H 0.53426 0.63674 0.6857 0.0
H2054 H 0.49429 0.64562 0.67961 0.0
H2055 H 0.49079 0.60044 0.66972 0.0
H2056 H 0.37709 0.61766 0.63047 0.0
H2057 H 0.39447 0.52249 0.60772 0.0
H2058 H 0.48013 0.69237 0.62952 0.0
H2059 H 0.45932 0.67402 0.65919 0.0
H2060 H 0.43076 0.68162 0.63632 0.0
H2061 H 0.48844 0.56752 0.59805 0.0
H2062 H 0.45489 0.52439 0.61515 0.0
H2063 H 0.49453 0.56612 0.63059 0.0
C2064 C 0.24001 0.63794 0.89232 0.0
C2065 C 0.21752 0.65327 0.90242 0.0
C2066 C 0.22393 0.59724 0.8887 0.0
C2067 C 0.18431 0.5709 0.89544 0.0
C2068 C 0.16092 0.58628 0.90463 0.0
C2069 C 0.17774 0.62719 0.90797 0.0
C2070 C 0.24994 0.58232 0.87866 0.0
C2071 C 0.11866 0.5594 0.91216 0.0
C2072 C 0.13937 0.46319 0.87537 0.0
C2073 C 0.14714 0.44661 0.89595 0.0
C2074 C 0.15031 0.50339 0.87503 0.0
C2075 C 0.16922 0.52745 0.89578 0.0
C2076 C 0.17564 0.51033 0.91687 0.0
C2077 C 0.16469 0.47042 0.91667 0.0
C2078 C 0.14286 0.52038 0.85217 0.0
C2079 C 0.19525 0.53449 0.93955 0.0
H2080 H 0.27053 0.65781 0.88751 0.0
H2081 H 0.1601 0.63858 0.91591 0.0
H2082 H 0.25561 0.56603 0.89325 0.0
H2083 H 0.23501 0.56151 0.86331 0.0
H2084 H 0.27869 0.60656 0.872 0.0
H2085 H 0.10306 0.57587 0.91607 0.0
H2086 H 0.10251 0.53744 0.89756 0.0
H2087 H 0.1178 0.54294 0.92895 0.0
H2088 H 0.12589 0.44512 0.85928 0.0
H2089 H 0.17058 0.45804 0.93281 0.0
H2090 H 0.17138 0.5412 0.8434 0.0
H2091 H 0.12798 0.53722 0.85692 0.0
H2092 H 0.12453 0.49726 0.83859 0.0
H2093 H 0.22587 0.55751 0.93509 0.0
H2094 H 0.1962 0.51633 0.9549 0.0
H2095 H 0.17941 0.54966 0.94591 0.0
C2096 C 0.32995 0.86712 0.60046 0.0
C2097 C 0.31968 0.8788 0.62231 0.0
C2098 C 0.35908 0.85632 0.60001 0.0
C2099 C 0.37925 0.85778 0.62191 0.0
C2100 C 0.37061 0.87167 0.64382 0.0
C2101 C 0.34092 0.88204 0.64377 0.0
C2102 C 0.36738 0.84219 0.57611 0.0
C2103 C 0.3916 0.87412 0.66751 0.0
C2104 C 0.41764 0.78571 0.6222 0.0
C2105 C 0.45641 0.80917 0.6137 0.0
C2106 C 0.39287 0.80154 0.62623 0.0
C2107 C 0.40716 0.84209 0.62182 0.0
C2108 C 0.44695 0.86638 0.61458 0.0
C2109 C 0.47101 0.84966 0.61054 0.0
C2110 C 0.35131 0.77448 0.63504 0.0
C2111 C 0.46376 0.90984 0.61023 0.0
H2112 H 0.31443 0.86543 0.58362 0.0
H2113 H 0.33338 0.89125 0.66073 0.0
H2114 H 0.34638 0.83894 0.56137 0.0
H2115 H 0.39763 0.86342 0.56981 0.0
H2116 H 0.36586 0.81345 0.57876 0.0
H2117 H 0.38606 0.89097 0.68183 0.0
H2118 H 0.38122 0.84399 0.67455 0.0
H2119 H 0.42381 0.88815 0.66439 0.0
H2120 H 0.40638 0.75464 0.62543 0.0
H2121 H 0.50087 0.86814 0.60398 0.0
H2122 H 0.3301 0.7819 0.62668 0.0
H2123 H 0.3502 0.77766 0.65525 0.0
H2124 H 0.34147 0.74317 0.631 0.0
H2125 H 0.45105 0.91434 0.59318 0.0
H2126 H 0.49632 0.92561 0.60829 0.0
H2127 H 0.45584 0.92321 0.62558 0.0
C2128 C 0.57322 0.67585 0.91606 0.0
C2129 C 0.59198 0.69219 0.89366 0.0
C2130 C 0.53757 0.64005 0.91694 0.0
C2131 C 0.51955 0.62021 0.8948 0.0
C2132 C 0.53906 0.6359 0.8721 0.0
C2133 C 0.57535 0.67158 0.87182 0.0
C2134 C 0.51867 0.62401 0.94164 0.0
C2135 C 0.52078 0.61604 0.84807 0.0
C2136 C 0.44082 0.51355 0.90502 0.0
C2137 C 0.4069 0.5166 0.90853 0.0
C2138 C 0.47728 0.54655 0.89899 0.0
C2139 C 0.48 0.5836 0.89587 0.0
C2140 C 0.44524 0.58621 0.89721 0.0
C2141 C 0.40918 0.55278 0.90366 0.0
C2142 C 0.51341 0.54223 0.89783 0.0
C2143 C 0.4466 0.62494 0.89348 0.0
H2144 H 0.58623 0.69153 0.93302 0.0
H2145 H 0.58968 0.6843 0.85446 0.0
H2146 H 0.49025 0.62364 0.94286 0.0
H2147 H 0.51223 0.59325 0.94379 0.0
H2148 H 0.53763 0.64173 0.95717 0.0
H2149 H 0.54137 0.62953 0.83235 0.0
H2150 H 0.51123 0.58428 0.84889 0.0
H2151 H 0.49414 0.61835 0.84458 0.0
H2152 H 0.43928 0.48554 0.90809 0.0
H2153 H 0.38334 0.55565 0.90628 0.0
H2154 H 0.53204 0.55641 0.91421 0.0
H2155 H 0.53136 0.55726 0.88137 0.0
H2156 H 0.50576 0.51091 0.89744 0.0
H2157 H 0.46115 0.64435 0.9095 0.0
H2158 H 0.41669 0.62113 0.8915 0.0
H2159 H 0.46419 0.64013 0.87692 0.0
loop_
_geom_bond_atom_site_label_1
_geom_bond_atom_site_label_2
_geom_bond_distance
_geom_bond_site_symmetry_2
_ccdc_geom_bond_type
Tb0 N29 2.617 . S
Tb0 N35 2.572 . S
Tb0 O44 2.465 . S
Tb0 O45 2.387 . S
Tb0 O47 2.428 . S
Tb0 O48 2.308 . S
Tb0 O52 2.349 . S
Tb0 O55 2.393 . S
Tb0 C64 2.802 . S
C1 N2 1.379 . S
C1 C4 1.416 . S
C1 C8 1.424 . S
N2 C1 1.379 . S
N2 C5 1.334 . S
N2 Tb11 2.617 . S
C3 C5 1.390 . S
C3 C6 1.339 . S
C3 H23 0.930 1_554 S
C4 C1 1.416 . S
C4 C6 1.416 . S
C4 C10 1.448 . S
C5 N2 1.334 . S
C5 C3 1.390 . S
C5 H16 0.930 . S
C6 C3 1.339 . S
C6 C4 1.416 . S
C6 H27 0.930 . S
C7 C8 1.413 . S
C7 C9 1.427 . S
C7 C13 1.416 . S
C8 C1 1.424 . S
C8 C7 1.413 . S
C8 N12 1.361 . S
C9 C7 1.427 . S
C9 C10 1.328 . S
C9 H24 0.929 . S
C10 C4 1.448 . S
C10 C9 1.328 . S
C10 H25 0.930 . S
Tb11 N2 2.617 . S
Tb11 N12 2.572 . S
Tb11 O46 2.349 . S
Tb11 O49 2.393 . S
Tb11 O50 2.465 . S
Tb11 O51 2.387 . S
Tb11 O53 2.428 . S
Tb11 O54 2.308 . S
Tb11 C75 2.802 . S
N12 C8 1.361 . S
N12 Tb11 2.572 . S
N12 C14 1.340 . S
C13 C7 1.416 . S
C13 C15 1.332 . S
C13 H21 0.931 . S
C14 N12 1.340 . S
C14 C15 1.407 . S
C14 H20 0.930 . S
C15 C13 1.332 . S
C15 C14 1.407 . S
C15 H17 0.929 . S
H16 C5 0.930 . S
H17 C15 0.929 . S
H18 C33 0.930 . S
H19 C40 0.940 . S
H20 C14 0.930 . S
H21 C13 0.931 . S
H22 C36 0.930 . S
H23 C3 0.930 1_556 S
H24 C9 0.929 . S
H25 C10 0.930 . S
H26 C31 0.930 . S
H27 C6 0.930 . S
H28 C39 0.931 . S
N29 Tb0 2.617 . S
N29 C30 1.379 . S
N29 C33 1.334 . S
C30 N29 1.379 . S
C30 C32 1.416 . S
C30 C38 1.424 . S
C31 H26 0.930 . S
C31 C33 1.390 . S
C31 C34 1.339 . S
C32 C30 1.416 . S
C32 C34 1.416 . S
C32 C65 1.448 . S
C33 H18 0.930 . S
C33 N29 1.334 . S
C33 C31 1.390 . S
C34 C31 1.339 . S
C34 C32 1.416 . S
C34 H41 0.930 . S
N35 Tb0 2.572 . S
N35 C36 1.340 . S
N35 C38 1.361 . S
C36 H22 0.930 . S
C36 N35 1.340 . S
C36 C40 1.407 . S
C37 C38 1.413 . S
C37 C39 1.416 1_545 S
C37 C66 1.427 1_545 S
C38 C30 1.424 . S
C38 N35 1.361 . S
C38 C37 1.413 . S
C39 H28 0.931 . S
C39 C37 1.416 1_565 S
C39 C40 1.332 1_565 S
C40 H19 0.940 . S
C40 C36 1.407 . S
C40 C39 1.332 1_545 S
H41 C34 0.930 . S
H42 C65 0.933 . S
H43 C66 0.929 . S
O44 Tb0 2.465 . S
O44 C64 1.264 . S
O45 Tb0 2.387 . S
O45 C56 1.264 . S
O46 Tb11 2.349 . S
O46 C56 1.243 . S
O47 Tb0 2.428 . S
O47 C64 1.256 . S
O48 Tb0 2.308 . S
O48 C63 1.266 . S
O49 Tb11 2.393 . S
O49 C63 1.248 . S
O50 Tb11 2.465 . S
O50 C75 1.264 . S
O51 Tb11 2.387 . S
O51 C67 1.264 . S
O52 Tb0 2.349 . S
O52 C67 1.243 . S
O53 Tb11 2.428 . S
O53 C75 1.256 . S
O54 Tb11 2.308 . S
O54 C74 1.266 . S
O55 Tb0 2.393 . S
O55 C74 1.248 . S
C56 O45 1.264 . S
C56 O46 1.243 . S
C57 C60 1.399 . S
C57 C62 1.383 . S
C57 C64 1.496 1_565 S
C58 C59 1.399 . S
C58 C62 1.389 . S
C59 C58 1.399 . S
C59 C61 1.380 . S
C59 H76 0.929 . S
C60 C57 1.399 . S
C60 C61 1.392 . S
C60 H77 0.931 . S
C61 C59 1.380 . S
C61 C60 1.392 . S
C61 H78 0.929 . S
C62 C57 1.383 . S
C62 C58 1.389 . S
C62 H79 0.931 . S
C63 O48 1.266 . S
C63 O49 1.248 . S
C64 Tb0 2.802 . S
C64 O44 1.264 . S
C64 O47 1.256 . S
C64 C57 1.496 1_545 S
C65 C32 1.448 . S
C65 H42 0.933 . S
C65 C66 1.328 1_545 S
C66 C37 1.427 1_565 S
C66 H43 0.929 . S
C66 C65 1.328 1_565 S
C67 O51 1.264 . S
C67 O52 1.243 . S
C68 C71 1.399 . S
C68 C72 1.383 . S
C68 C75 1.496 . S
C69 C70 1.399 . S
C69 C72 1.389 . S
C70 C69 1.399 . S
C70 C73 1.380 . S
C70 H80 0.929 . S
C71 C68 1.399 . S
C71 C73 1.392 . S
C71 H81 0.929 . S
C72 C68 1.383 . S
C72 C69 1.389 . S
C72 H82 0.931 . S
C73 C70 1.380 . S
C73 C71 1.392 . S
C73 H83 0.929 . S
C74 O54 1.266 . S
C74 O55 1.248 . S
C75 Tb11 2.802 . S
C75 O50 1.264 . S
C75 O53 1.256 . S
C75 C68 1.496 . S
H76 C59 0.929 . S
H77 C60 0.931 . S
H78 C61 0.929 . S
H79 C62 0.931 . S
H80 C70 0.929 . S
H81 C71 0.929 . S
H82 C72 0.931 . S
H83 C73 0.929 . S
Tb84 N113 2.617 . S
Tb84 N119 2.572 . S
Tb84 O128 2.465 . S
Tb84 O129 2.387 . S
Tb84 O131 2.428 . S
Tb84 O132 2.308 . S
Tb84 O136 2.349 . S
Tb84 O139 2.393 . S
Tb84 C148 2.802 . S
C85 N86 1.379 . S
C85 C88 1.416 . S
C85 C92 1.424 . S
N86 C85 1.379 . S
N86 C89 1.334 . S
N86 Tb95 2.617 . S
C87 C89 1.390 . S
C87 C90 1.339 . S
C87 H107 0.930 . S
C88 C85 1.416 . S
C88 C90 1.416 . S
C88 C94 1.448 . S
C89 N86 1.334 . S
C89 C87 1.390 . S
C89 H100 0.930 . S
C90 C87 1.339 . S
C90 C88 1.416 . S
C90 H111 0.930 . S
C91 C92 1.413 . S
C91 C93 1.427 . S
C91 C97 1.416 . S
C92 C85 1.424 . S
C92 C91 1.413 . S
C92 N96 1.361 . S
C93 C91 1.427 . S
C93 C94 1.328 . S
C93 H108 0.929 . S
C94 C88 1.448 . S
C94 C93 1.328 . S
C94 H109 0.930 . S
Tb95 N86 2.617 . S
Tb95 N96 2.572 . S
Tb95 O130 2.349 . S
Tb95 O133 2.393 . S
Tb95 O134 2.465 . S
Tb95 O135 2.387 . S
Tb95 O137 2.428 . S
Tb95 O138 2.308 . S
Tb95 C159 2.802 . S
N96 C92 1.361 . S
N96 Tb95 2.572 . S
N96 C98 1.340 . S
C97 C91 1.416 . S
C97 C99 1.332 . S
C97 H105 0.931 . S
C98 N96 1.340 . S
C98 C99 1.407 . S
C98 H104 0.930 . S
C99 C97 1.332 . S
C99 C98 1.407 . S
C99 H101 0.929 . S
H100 C89 0.930 . S
H101 C99 0.929 . S
H102 C117 0.930 . S
H103 C124 0.929 . S
H104 C98 0.930 . S
H105 C97 0.931 . S
H106 C120 0.930 . S
H107 C87 0.930 . S
H108 C93 0.929 . S
H109 C94 0.930 . S
H110 C115 0.930 . S
H111 C90 0.930 . S
H112 C123 0.931 1_455 S
N113 Tb84 2.617 . S
N113 C114 1.379 . S
N113 C117 1.334 . S
C114 N113 1.379 . S
C114 C116 1.416 . S
C114 C122 1.424 . S
C115 H110 0.930 . S
C115 C117 1.390 . S
C115 C118 1.339 . S
C116 C114 1.416 . S
C116 C118 1.416 . S
C116 C149 1.463 . S
C117 H102 0.930 . S
C117 N113 1.334 . S
C117 C115 1.390 . S
C118 C115 1.339 . S
C118 C116 1.416 . S
C118 H125 0.930 . S
N119 Tb84 2.572 . S
N119 C120 1.340 . S
N119 C122 1.361 . S
C120 H106 0.930 . S
C120 N119 1.340 . S
C120 C124 1.407 . S
C121 C122 1.413 . S
C121 C123 1.416 . S
C121 C150 1.427 1_655 S
C122 C114 1.424 . S
C122 N119 1.361 . S
C122 C121 1.413 . S
C123 H112 0.931 1_655 S
C123 C121 1.416 . S
C123 C124 1.332 . S
C124 H103 0.929 . S
C124 C120 1.407 . S
C124 C123 1.332 . S
H125 C118 0.930 . S
H126 C149 0.921 1_455 S
H127 C150 0.929 . S
O128 Tb84 2.465 . S
O128 C148 1.264 . S
O129 Tb84 2.387 . S
O129 C140 1.264 . S
O130 Tb95 2.349 . S
O130 C140 1.243 . S
O131 Tb84 2.428 . S
O131 C148 1.256 . S
O132 Tb84 2.308 . S
O132 C147 1.266 . S
O133 Tb95 2.393 . S
O133 C147 1.248 . S
O134 Tb95 2.465 . S
O134 C159 1.264 . S
O135 Tb95 2.387 . S
O135 C151 1.264 . S
O136 Tb84 2.349 . S
O136 C151 1.243 . S
O137 Tb95 2.428 . S
O137 C159 1.256 . S
O138 Tb95 2.308 . S
O138 C158 1.266 . S
O139 Tb84 2.393 . S
O139 C158 1.248 . S
C140 O129 1.264 . S
C140 O130 1.243 . S
C141 C144 1.399 . S
C141 C146 1.383 . S
C141 C148 1.496 . S
C142 C143 1.399 . S
C142 C146 1.389 . S
C143 C142 1.399 . S
C143 C145 1.380 . S
C143 H160 0.929 . S
C144 C141 1.399 . S
C144 C145 1.392 . S
C144 H161 0.929 . S
C145 C143 1.380 . S
C145 C144 1.392 . S
C145 H162 0.929 . S
C146 C141 1.383 . S
C146 C142 1.389 . S
C146 H163 0.931 . S
C147 O132 1.266 . S
C147 O133 1.248 . S
C148 Tb84 2.802 . S
C148 O128 1.264 . S
C148 O131 1.256 . S
C148 C141 1.496 . S
C149 C116 1.463 . S
C149 H126 0.921 1_655 S
C149 C150 1.323 1_655 S
C150 C121 1.427 1_455 S
C150 H127 0.929 . S
C150 C149 1.323 1_455 S
C151 O135 1.264 . S
C151 O136 1.243 . S
C152 C155 1.399 . S
C152 C156 1.383 . S
C152 C159 1.496 . S
C153 C154 1.399 . S
C153 C156 1.389 . S
C154 C153 1.399 . S
C154 C157 1.380 . S
C154 H164 0.929 . S
C155 C152 1.399 . S
C155 C157 1.392 . S
C155 H165 0.929 . S
C156 C152 1.383 . S
C156 C153 1.389 . S
C156 H166 0.931 . S
C157 C154 1.380 . S
C157 C155 1.392 . S
C157 H167 0.929 . S
C158 O138 1.266 . S
C158 O139 1.248 . S
C159 Tb95 2.802 . S
C159 O134 1.264 . S
C159 O137 1.256 . S
C159 C152 1.496 . S
H160 C143 0.929 . S
H161 C144 0.929 . S
H162 C145 0.929 . S
H163 C146 0.931 . S
H164 C154 0.929 . S
H165 C155 0.929 . S
H166 C156 0.931 . S
H167 C157 0.929 . S
Tb168 N197 2.617 . S
Tb168 N203 2.572 . S
Tb168 O212 2.465 . S
Tb168 O213 2.387 . S
Tb168 O215 2.428 . S
Tb168 O216 2.308 . S
Tb168 O220 2.349 . S
Tb168 O223 2.393 . S
Tb168 C232 2.802 . S
C169 N170 1.379 . S
C169 C172 1.416 . S
C169 C176 1.424 . S
N170 C169 1.379 . S
N170 C173 1.334 . S
N170 Tb179 2.617 . S
C171 C173 1.390 . S
C171 C174 1.339 . S
C171 H191 0.930 1_554 S
C172 C169 1.416 . S
C172 C174 1.416 . S
C172 C178 1.460 . S
C173 N170 1.334 . S
C173 C171 1.390 . S
C173 H184 0.930 . S
C174 C171 1.339 . S
C174 C172 1.416 . S
C174 H195 0.930 . S
C175 C176 1.413 . S
C175 C177 1.427 1_545 S
C175 C181 1.416 . S
C176 C169 1.424 . S
C176 C175 1.413 . S
C176 N180 1.361 . S
C177 C175 1.427 1_565 S
C177 C178 1.326 1_565 S
C177 H192 0.929 . S
C178 C172 1.460 . S
C178 C177 1.326 1_545 S
C178 H193 0.921 1_545 S
Tb179 N170 2.617 . S
Tb179 N180 2.572 . S
Tb179 O214 2.349 . S
Tb179 O217 2.393 . S
Tb179 O218 2.465 . S
Tb179 O219 2.387 . S
Tb179 O221 2.428 . S
Tb179 O222 2.308 . S
Tb179 C243 2.802 . S
N180 C176 1.361 . S
N180 Tb179 2.572 . S
N180 C182 1.340 . S
C181 C175 1.416 . S
C181 C183 1.332 . S
C181 H189 0.931 1_545 S
C182 N180 1.340 . S
C182 C183 1.407 . S
C182 H188 0.930 . S
C183 C181 1.332 . S
C183 C182 1.407 . S
C183 H185 0.929 . S
H184 C173 0.930 . S
H185 C183 0.929 . S
H186 C201 0.930 . S
H187 C208 0.935 . S
H188 C182 0.930 . S
H189 C181 0.931 1_565 S
H190 C204 0.930 . S
H191 C171 0.930 1_556 S
H192 C177 0.929 . S
H193 C178 0.921 1_565 S
H194 C199 0.930 . S
H195 C174 0.930 . S
H196 C207 0.931 . S
N197 Tb168 2.617 . S
N197 C198 1.379 . S
N197 C201 1.334 . S
C198 N197 1.379 . S
C198 C200 1.416 . S
C198 C206 1.424 . S
C199 H194 0.930 . S
C199 C201 1.390 . S
C199 C202 1.339 . S
C200 C198 1.416 . S
C200 C202 1.416 . S
C200 C233 1.448 . S
C201 H186 0.930 . S
C201 N197 1.334 . S
C201 C199 1.390 . S
C202 C199 1.339 . S
C202 C200 1.416 . S
C202 H209 0.930 . S
N203 Tb168 2.572 . S
N203 C204 1.340 . S
N203 C206 1.361 . S
C204 H190 0.930 . S
C204 N203 1.340 . S
C204 C208 1.407 . S
C205 C206 1.413 . S
C205 C207 1.416 1_655 S
C205 C234 1.427 1_655 S
C206 C198 1.424 . S
C206 N203 1.361 . S
C206 C205 1.413 . S
C207 H196 0.931 . S
C207 C205 1.416 1_455 S
C207 C208 1.332 1_455 S
C208 H187 0.935 . S
C208 C204 1.407 . S
C208 C207 1.332 1_655 S
H209 C202 0.930 . S
H210 C233 0.930 . S
H211 C234 0.929 . S
O212 Tb168 2.465 . S
O212 C232 1.264 . S
O213 Tb168 2.387 . S
O213 C224 1.264 . S
O214 Tb179 2.349 . S
O214 C224 1.243 . S
O215 Tb168 2.428 . S
O215 C232 1.256 . S
O216 Tb168 2.308 . S
O216 C231 1.266 . S
O217 Tb179 2.393 . S
O217 C231 1.248 . S
O218 Tb179 2.465 . S
O218 C243 1.264 . S
O219 Tb179 2.387 . S
O219 C235 1.264 . S
O220 Tb168 2.349 . S
O220 C235 1.243 . S
O221 Tb179 2.428 . S
O221 C243 1.256 . S
O222 Tb179 2.308 . S
O222 C242 1.266 . S
O223 Tb168 2.393 . S
O223 C242 1.248 . S
C224 O213 1.264 . S
C224 O214 1.243 . S
C225 C228 1.399 . S
C225 C230 1.383 . S
C225 C232 1.496 1_455 S
C226 C227 1.399 . S
C226 C230 1.389 . S
C227 C226 1.399 . S
C227 C229 1.380 . S
C227 H244 0.929 . S
C228 C225 1.399 . S
C228 C229 1.392 . S
C228 H245 0.933 . S
C229 C227 1.380 . S
C229 C228 1.392 . S
C229 H246 0.929 . S
C230 C225 1.383 . S
C230 C226 1.389 . S
C230 H247 0.931 . S
C231 O216 1.266 . S
C231 O217 1.248 . S
C232 Tb168 2.802 . S
C232 O212 1.264 . S
C232 O215 1.256 . S
C232 C225 1.496 1_655 S
C233 C200 1.448 . S
C233 H210 0.930 . S
C233 C234 1.328 1_655 S
C234 C205 1.427 1_455 S
C234 H211 0.929 . S
C234 C233 1.328 1_455 S
C235 O219 1.264 . S
C235 O220 1.243 . S
C236 C239 1.399 . S
C236 C240 1.383 . S
C236 C243 1.496 . S
C237 C238 1.399 . S
C237 C240 1.389 . S
C238 C237 1.399 . S
C238 C241 1.380 . S
C238 H248 0.929 . S
C239 C236 1.399 . S
C239 C241 1.392 . S
C239 H249 0.929 . S
C240 C236 1.383 . S
C240 C237 1.389 . S
C240 H250 0.931 . S
C241 C238 1.380 . S
C241 C239 1.392 . S
C241 H251 0.929 . S
C242 O222 1.266 . S
C242 O223 1.248 . S
C243 Tb179 2.802 . S
C243 O218 1.264 . S
C243 O221 1.256 . S
C243 C236 1.496 . S
H244 C227 0.929 . S
H245 C228 0.933 . S
H246 C229 0.929 . S
H247 C230 0.931 . S
H248 C238 0.929 . S
H249 C239 0.929 . S
H250 C240 0.931 . S
H251 C241 0.929 . S
Tb252 N281 2.617 . S
Tb252 N287 2.572 . S
Tb252 O296 2.465 . S
Tb252 O297 2.387 . S
Tb252 O299 2.428 . S
Tb252 O300 2.308 . S
Tb252 O304 2.349 . S
Tb252 O307 2.393 . S
Tb252 C316 2.802 . S
C253 N254 1.379 . S
C253 C256 1.416 . S
C253 C260 1.424 . S
N254 C253 1.379 . S
N254 C257 1.334 . S
N254 Tb263 2.617 . S
C255 C257 1.390 . S
C255 C258 1.339 . S
C255 H275 0.930 . S
C256 C253 1.416 . S
C256 C258 1.416 . S
C256 C262 1.448 . S
C257 N254 1.334 . S
C257 C255 1.390 . S
C257 H268 0.930 . S
C258 C255 1.339 . S
C258 C256 1.416 . S
C258 H279 0.930 . S
C259 C260 1.413 . S
C259 C261 1.427 1_545 S
C259 C265 1.416 1_545 S
C260 C253 1.424 . S
C260 C259 1.413 . S
C260 N264 1.361 . S
C261 C259 1.427 1_565 S
C261 C262 1.328 1_565 S
C261 H276 0.929 . S
C262 C256 1.448 . S
C262 C261 1.328 1_545 S
C262 H277 0.933 . S
Tb263 N254 2.617 . S
Tb263 N264 2.572 . S
Tb263 O298 2.349 . S
Tb263 O301 2.393 . S
Tb263 O302 2.465 . S
Tb263 O303 2.387 . S
Tb263 O305 2.428 . S
Tb263 O306 2.308 . S
Tb263 C327 2.802 . S
N264 C260 1.361 . S
N264 Tb263 2.572 . S
N264 C266 1.340 . S
C265 C259 1.416 1_565 S
C265 C267 1.332 1_565 S
C265 H273 0.931 . S
C266 N264 1.340 . S
C266 C267 1.407 . S
C266 H272 0.930 . S
C267 C265 1.332 1_545 S
C267 C266 1.407 . S
C267 H269 0.940 . S
H268 C257 0.930 . S
H269 C267 0.940 . S
H270 C285 0.930 . S
H271 C292 0.929 . S
H272 C266 0.930 . S
H273 C265 0.931 . S
H274 C288 0.930 . S
H275 C255 0.930 . S
H276 C261 0.929 . S
H277 C262 0.933 . S
H278 C283 0.930 . S
H279 C258 0.930 . S
H280 C291 0.931 . S
N281 Tb252 2.617 . S
N281 C282 1.379 . S
N281 C285 1.334 . S
C282 N281 1.379 . S
C282 C284 1.416 . S
C282 C290 1.424 . S
C283 H278 0.930 . S
C283 C285 1.390 . S
C283 C286 1.339 . S
C284 C282 1.416 . S
C284 C286 1.416 . S
C284 C317 1.448 . S
C285 H270 0.930 . S
C285 N281 1.334 . S
C285 C283 1.390 . S
C286 C283 1.339 . S
C286 C284 1.416 . S
C286 H293 0.930 . S
N287 Tb252 2.572 . S
N287 C288 1.340 . S
N287 C290 1.361 . S
C288 H274 0.930 . S
C288 N287 1.340 . S
C288 C292 1.407 . S
C289 C290 1.413 . S
C289 C291 1.416 . S
C289 C318 1.427 . S
C290 C282 1.424 . S
C290 N287 1.361 . S
C290 C289 1.413 . S
C291 H280 0.931 . S
C291 C289 1.416 . S
C291 C292 1.332 . S
C292 H271 0.929 . S
C292 C288 1.407 . S
C292 C291 1.332 . S
H293 C286 0.930 . S
H294 C317 0.930 . S
H295 C318 0.929 . S
O296 Tb252 2.465 . S
O296 C316 1.264 . S
O297 Tb252 2.387 . S
O297 C308 1.264 . S
O298 Tb263 2.349 . S
O298 C308 1.243 . S
O299 Tb252 2.428 . S
O299 C316 1.256 . S
O300 Tb252 2.308 . S
O300 C315 1.266 . S
O301 Tb263 2.393 . S
O301 C315 1.248 . S
O302 Tb263 2.465 . S
O302 C327 1.264 . S
O303 Tb263 2.387 . S
O303 C319 1.264 . S
O304 Tb252 2.349 . S
O304 C319 1.243 . S
O305 Tb263 2.428 . S
O305 C327 1.256 . S
O306 Tb263 2.308 . S
O306 C326 1.266 . S
O307 Tb252 2.393 . S
O307 C326 1.248 . S
C308 O297 1.264 . S
C308 O298 1.243 . S
C309 C312 1.399 . S
C309 C314 1.383 . S
C309 C316 1.496 . S
C310 C311 1.399 . S
C310 C314 1.389 . S
C311 C310 1.399 . S
C311 C313 1.380 . S
C311 H328 0.929 . S
C312 C309 1.399 . S
C312 C313 1.392 . S
C312 H329 0.929 . S
C313 C311 1.380 . S
C313 C312 1.392 . S
C313 H330 0.929 . S
C314 C309 1.383 . S
C314 C310 1.389 . S
C314 H331 0.931 . S
C315 O300 1.266 . S
C315 O301 1.248 . S
C316 Tb252 2.802 . S
C316 O296 1.264 . S
C316 O299 1.256 . S
C316 C309 1.496 . S
C317 C284 1.448 . S
C317 H294 0.930 . S
C317 C318 1.328 . S
C318 C289 1.427 . S
C318 H295 0.929 . S
C318 C317 1.328 . S
C319 O303 1.264 . S
C319 O304 1.243 . S
C320 C323 1.399 . S
C320 C324 1.383 . S
C320 C327 1.496 1_565 S
C321 C322 1.399 . S
C321 C324 1.389 . S
C322 C321 1.399 . S
C322 C325 1.380 . S
C322 H332 0.929 . S
C323 C320 1.399 . S
C323 C325 1.392 . S
C323 H333 0.931 . S
C324 C320 1.383 . S
C324 C321 1.389 . S
C324 H334 0.931 . S
C325 C322 1.380 . S
C325 C323 1.392 . S
C325 H335 0.929 . S
C326 O306 1.266 . S
C326 O307 1.248 . S
C327 Tb263 2.802 . S
C327 O302 1.264 . S
C327 O305 1.256 . S
C327 C320 1.496 1_545 S
H328 C311 0.929 . S
H329 C312 0.929 . S
H330 C313 0.929 . S
H331 C314 0.931 . S
H332 C322 0.929 . S
H333 C323 0.931 . S
H334 C324 0.931 . S
H335 C325 0.929 . S
Tb336 N365 2.617 . S
Tb336 N371 2.572 . S
Tb336 O380 2.465 . S
Tb336 O381 2.387 . S
Tb336 O383 2.428 . S
Tb336 O384 2.308 . S
Tb336 O388 2.349 . S
Tb336 O391 2.393 . S
Tb336 C400 2.802 . S
C337 N338 1.379 . S
C337 C340 1.416 . S
C337 C344 1.424 . S
N338 C337 1.379 . S
N338 C341 1.334 . S
N338 Tb347 2.617 . S
C339 C341 1.390 . S
C339 C342 1.339 . S
C339 H359 0.930 1_554 S
C340 C337 1.416 . S
C340 C342 1.416 . S
C340 C346 1.463 . S
C341 N338 1.334 . S
C341 C339 1.390 . S
C341 H352 0.930 . S
C342 C339 1.339 . S
C342 C340 1.416 . S
C342 H363 0.930 . S
C343 C344 1.413 . S
C343 C345 1.427 1_655 S
C343 C349 1.416 . S
C344 C337 1.424 . S
C344 C343 1.413 . S
C344 N348 1.361 . S
C345 C343 1.427 1_455 S
C345 C346 1.323 1_455 S
C345 H360 0.929 . S
C346 C340 1.463 . S
C346 C345 1.323 1_655 S
C346 H361 0.921 1_655 S
Tb347 N338 2.617 . S
Tb347 N348 2.572 . S
Tb347 O382 2.349 . S
Tb347 O385 2.393 . S
Tb347 O386 2.465 . S
Tb347 O387 2.387 . S
Tb347 O389 2.428 . S
Tb347 O390 2.308 . S
Tb347 C411 2.802 . S
N348 C344 1.361 . S
N348 Tb347 2.572 . S
N348 C350 1.340 . S
C349 C343 1.416 . S
C349 C351 1.332 . S
C349 H357 0.931 1_655 S
C350 N348 1.340 . S
C350 C351 1.407 . S
C350 H356 0.930 . S
C351 C349 1.332 . S
C351 C350 1.407 . S
C351 H353 0.929 . S
H352 C341 0.930 . S
H353 C351 0.929 . S
H354 C369 0.930 . S
H355 C376 0.929 . S
H356 C350 0.930 . S
H357 C349 0.931 1_455 S
H358 C372 0.930 . S
H359 C339 0.930 1_556 S
H360 C345 0.929 . S
H361 C346 0.921 1_455 S
H362 C367 0.930 . S
H363 C342 0.930 . S
H364 C375 0.931 . S
N365 Tb336 2.617 . S
N365 C366 1.379 . S
N365 C369 1.334 . S
C366 N365 1.379 . S
C366 C368 1.416 . S
C366 C374 1.424 . S
C367 H362 0.930 . S
C367 C369 1.390 . S
C367 C370 1.339 . S
C368 C366 1.416 . S
C368 C370 1.416 . S
C368 C401 1.448 . S
C369 H354 0.930 . S
C369 N365 1.334 . S
C369 C367 1.390 . S
C370 C367 1.339 . S
C370 C368 1.416 . S
C370 H377 0.930 . S
N371 Tb336 2.572 . S
N371 C372 1.340 . S
N371 C374 1.361 . S
C372 H358 0.930 . S
C372 N371 1.340 . S
C372 C376 1.407 . S
C373 C374 1.413 . S
C373 C375 1.416 . S
C373 C402 1.427 . S
C374 C366 1.424 . S
C374 N371 1.361 . S
C374 C373 1.413 . S
C375 H364 0.931 . S
C375 C373 1.416 . S
C375 C376 1.332 . S
C376 H355 0.929 . S
C376 C372 1.407 . S
C376 C375 1.332 . S
H377 C370 0.930 . S
H378 C401 0.930 . S
H379 C402 0.929 . S
O380 Tb336 2.465 . S
O380 C400 1.264 . S
O381 Tb336 2.387 . S
O381 C392 1.264 . S
O382 Tb347 2.349 . S
O382 C392 1.243 . S
O383 Tb336 2.428 . S
O383 C400 1.256 . S
O384 Tb336 2.308 . S
O384 C399 1.266 . S
O385 Tb347 2.393 . S
O385 C399 1.248 . S
O386 Tb347 2.465 . S
O386 C411 1.264 . S
O387 Tb347 2.387 . S
O387 C403 1.264 . S
O388 Tb336 2.349 . S
O388 C403 1.243 . S
O389 Tb347 2.428 . S
O389 C411 1.256 . S
O390 Tb347 2.308 . S
O390 C410 1.266 . S
O391 Tb336 2.393 . S
O391 C410 1.248 . S
C392 O381 1.264 . S
C392 O382 1.243 . S
C393 C396 1.399 . S
C393 C398 1.383 . S
C393 C400 1.496 . S
C394 C395 1.399 . S
C394 C398 1.389 . S
C395 C394 1.399 . S
C395 C397 1.380 . S
C395 H412 0.929 . S
C396 C393 1.399 . S
C396 C397 1.392 . S
C396 H413 0.929 . S
C397 C395 1.380 . S
C397 C396 1.392 . S
C397 H414 0.929 . S
C398 C393 1.383 . S
C398 C394 1.389 . S
C398 H415 0.931 . S
C399 O384 1.266 . S
C399 O385 1.248 . S
C400 Tb336 2.802 . S
C400 O380 1.264 . S
C400 O383 1.256 . S
C400 C393 1.496 . S
C401 C368 1.448 . S
C401 H378 0.930 . S
C401 C402 1.328 . S
C402 C373 1.427 . S
C402 H379 0.929 . S
C402 C401 1.328 . S
C403 O387 1.264 . S
C403 O388 1.243 . S
C404 C407 1.399 . S
C404 C408 1.383 . S
C404 C411 1.496 . S
C405 C406 1.399 . S
C405 C408 1.389 . S
C406 C405 1.399 . S
C406 C409 1.380 . S
C406 H416 0.929 . S
C407 C404 1.399 . S
C407 C409 1.392 . S
C407 H417 0.929 . S
C408 C404 1.383 . S
C408 C405 1.389 . S
C408 H418 0.931 . S
C409 C406 1.380 . S
C409 C407 1.392 . S
C409 H419 0.929 . S
C410 O390 1.266 . S
C410 O391 1.248 . S
C411 Tb347 2.802 . S
C411 O386 1.264 . S
C411 O389 1.256 . S
C411 C404 1.496 . S
H412 C395 0.929 . S
H413 C396 0.929 . S
H414 C397 0.929 . S
H415 C398 0.931 . S
H416 C406 0.929 . S
H417 C407 0.929 . S
H418 C408 0.931 . S
H419 C409 0.929 . S
Tb420 N449 2.617 . S
Tb420 N455 2.572 . S
Tb420 O464 2.465 . S
Tb420 O465 2.387 . S
Tb420 O467 2.428 . S
Tb420 O468 2.308 . S
Tb420 O472 2.349 . S
Tb420 O475 2.393 . S
Tb420 C484 2.802 . S
C421 N422 1.379 . S
C421 C424 1.416 . S
C421 C428 1.424 . S
N422 C421 1.379 . S
N422 C425 1.334 . S
N422 Tb431 2.617 . S
C423 C425 1.390 . S
C423 C426 1.339 . S
C423 H443 0.930 . S
C424 C421 1.416 . S
C424 C426 1.416 . S
C424 C430 1.448 . S
C425 N422 1.334 . S
C425 C423 1.390 . S
C425 H436 0.930 . S
C426 C423 1.339 . S
C426 C424 1.416 . S
C426 H447 0.930 . S
C427 C428 1.413 . S
C427 C429 1.427 1_655 S
C427 C433 1.416 1_655 S
C428 C421 1.424 . S
C428 C427 1.413 . S
C428 N432 1.361 . S
C429 C427 1.427 1_455 S
C429 C430 1.328 1_455 S
C429 H444 0.929 . S
C430 C424 1.448 . S
C430 C429 1.328 1_655 S
C430 H445 0.930 . S
Tb431 N422 2.617 . S
Tb431 N432 2.572 . S
Tb431 O466 2.349 . S
Tb431 O469 2.393 . S
Tb431 O470 2.465 . S
Tb431 O471 2.387 . S
Tb431 O473 2.428 . S
Tb431 O474 2.308 . S
Tb431 C495 2.802 . S
N432 C428 1.361 . S
N432 Tb431 2.572 . S
N432 C434 1.340 . S
C433 C427 1.416 1_455 S
C433 C435 1.332 1_455 S
C433 H441 0.931 . S
C434 N432 1.340 . S
C434 C435 1.407 . S
C434 H440 0.930 . S
C435 C433 1.332 1_655 S
C435 C434 1.407 . S
C435 H437 0.935 . S
H436 C425 0.930 . S
H437 C435 0.935 . S
H438 C453 0.930 . S
H439 C460 0.929 . S
H440 C434 0.930 . S
H441 C433 0.931 . S
H442 C456 0.930 . S
H443 C423 0.930 . S
H444 C429 0.929 . S
H445 C430 0.930 . S
H446 C451 0.930 . S
H447 C426 0.930 . S
H448 C459 0.931 1_565 S
N449 Tb420 2.617 . S
N449 C450 1.379 . S
N449 C453 1.334 . S
C450 N449 1.379 . S
C450 C452 1.416 . S
C450 C458 1.424 . S
C451 H446 0.930 . S
C451 C453 1.390 . S
C451 C454 1.339 . S
C452 C450 1.416 . S
C452 C454 1.416 . S
C452 C485 1.460 . S
C453 H438 0.930 . S
C453 N449 1.334 . S
C453 C451 1.390 . S
C454 C451 1.339 . S
C454 C452 1.416 . S
C454 H461 0.930 . S
N455 Tb420 2.572 . S
N455 C456 1.340 . S
N455 C458 1.361 . S
C456 H442 0.930 . S
C456 N455 1.340 . S
C456 C460 1.407 . S
C457 C458 1.413 . S
C457 C459 1.416 . S
C457 C486 1.427 1_545 S
C458 C450 1.424 . S
C458 N455 1.361 . S
C458 C457 1.413 . S
C459 H448 0.931 1_545 S
C459 C457 1.416 . S
C459 C460 1.332 . S
C460 H439 0.929 . S
C460 C456 1.407 . S
C460 C459 1.332 . S
H461 C454 0.930 . S
H462 C485 0.921 1_565 S
H463 C486 0.929 . S
O464 Tb420 2.465 . S
O464 C484 1.264 . S
O465 Tb420 2.387 . S
O465 C476 1.264 . S
O466 Tb431 2.349 . S
O466 C476 1.243 . S
O467 Tb420 2.428 . S
O467 C484 1.256 . S
O468 Tb420 2.308 . S
O468 C483 1.266 . S
O469 Tb431 2.393 . S
O469 C483 1.248 . S
O470 Tb431 2.465 . S
O470 C495 1.264 . S
O471 Tb431 2.387 . S
O471 C487 1.264 . S
O472 Tb420 2.349 . S
O472 C487 1.243 . S
O473 Tb431 2.428 . S
O473 C495 1.256 . S
O474 Tb431 2.308 . S
O474 C494 1.266 . S
O475 Tb420 2.393 . S
O475 C494 1.248 . S
C476 O465 1.264 . S
C476 O466 1.243 . S
C477 C480 1.399 . S
C477 C482 1.383 . S
C477 C484 1.496 . S
C478 C479 1.399 . S
C478 C482 1.389 . S
C479 C478 1.399 . S
C479 C481 1.380 . S
C479 H496 0.929 . S
C480 C477 1.399 . S
C480 C481 1.392 . S
C480 H497 0.929 . S
C481 C479 1.380 . S
C481 C480 1.392 . S
C481 H498 0.929 . S
C482 C477 1.383 . S
C482 C478 1.389 . S
C482 H499 0.931 . S
C483 O468 1.266 . S
C483 O469 1.248 . S
C484 Tb420 2.802 . S
C484 O464 1.264 . S
C484 O467 1.256 . S
C484 C477 1.496 . S
C485 C452 1.460 . S
C485 H462 0.921 1_545 S
C485 C486 1.326 1_545 S
C486 C457 1.427 1_565 S
C486 H463 0.929 . S
C486 C485 1.326 1_565 S
C487 O471 1.264 . S
C487 O472 1.243 . S
C488 C491 1.399 . S
C488 C492 1.383 . S
C488 C495 1.496 1_455 S
C489 C490 1.399 . S
C489 C492 1.389 . S
C490 C489 1.399 . S
C490 C493 1.380 . S
C490 H500 0.929 . S
C491 C488 1.399 . S
C491 C493 1.392 . S
C491 H501 0.933 . S
C492 C488 1.383 . S
C492 C489 1.389 . S
C492 H502 0.931 . S
C493 C490 1.380 . S
C493 C491 1.392 . S
C493 H503 0.929 . S
C494 O474 1.266 . S
C494 O475 1.248 . S
C495 Tb431 2.802 . S
C495 O470 1.264 . S
C495 O473 1.256 . S
C495 C488 1.496 1_655 S
H496 C479 0.929 . S
H497 C480 0.929 . S
H498 C481 0.929 . S
H499 C482 0.931 . S
H500 C490 0.929 . S
H501 C491 0.933 . S
H502 C492 0.931 . S
H503 C493 0.929 . S
Tb504 N533 2.617 . S
Tb504 N539 2.572 . S
Tb504 O548 2.465 . S
Tb504 O549 2.387 . S
Tb504 O551 2.428 . S
Tb504 O552 2.308 . S
Tb504 O556 2.349 . S
Tb504 O559 2.393 . S
Tb504 C568 2.802 . S
C505 N506 1.379 . S
C505 C508 1.416 . S
C505 C512 1.424 . S
N506 C505 1.379 . S
N506 C509 1.334 . S
N506 Tb515 2.617 . S
C507 C509 1.390 . S
C507 C510 1.339 . S
C507 H527 0.930 . S
C508 C505 1.416 . S
C508 C510 1.416 . S
C508 C514 1.448 . S
C509 N506 1.334 . S
C509 C507 1.390 . S
C509 H520 0.930 . S
C510 C507 1.339 . S
C510 C508 1.416 . S
C510 H531 0.930 . S
C511 C512 1.413 . S
C511 C513 1.427 1_455 S
C511 C517 1.416 1_455 S
C512 C505 1.424 . S
C512 C511 1.413 . S
C512 N516 1.361 . S
C513 C511 1.427 1_655 S
C513 C514 1.328 1_655 S
C513 H528 0.929 . S
C514 C508 1.448 . S
C514 C513 1.328 1_455 S
C514 H529 0.933 . S
Tb515 N506 2.617 . S
Tb515 N516 2.572 . S
Tb515 O550 2.349 . S
Tb515 O553 2.393 . S
Tb515 O554 2.465 . S
Tb515 O555 2.387 . S
Tb515 O557 2.428 . S
Tb515 O558 2.308 . S
Tb515 C579 2.802 . S
N516 C512 1.361 . S
N516 Tb515 2.572 . S
N516 C518 1.340 . S
C517 C511 1.416 1_655 S
C517 C519 1.332 1_655 S
C517 H525 0.931 . S
C518 N516 1.340 . S
C518 C519 1.407 . S
C518 H524 0.930 . S
C519 C517 1.332 1_455 S
C519 C518 1.407 . S
C519 H521 0.940 . S
H520 C509 0.930 . S
H521 C519 0.940 . S
H522 C537 0.930 . S
H523 C544 0.929 . S
H524 C518 0.930 . S
H525 C517 0.931 . S
H526 C540 0.930 . S
H527 C507 0.930 . S
H528 C513 0.929 . S
H529 C514 0.933 . S
H530 C535 0.930 . S
H531 C510 0.930 . S
H532 C543 0.931 . S
N533 Tb504 2.617 . S
N533 C534 1.379 . S
N533 C537 1.334 . S
C534 N533 1.379 . S
C534 C536 1.416 . S
C534 C542 1.424 . S
C535 H530 0.930 . S
C535 C537 1.390 . S
C535 C538 1.339 . S
C536 C534 1.416 . S
C536 C538 1.416 . S
C536 C569 1.448 . S
C537 H522 0.930 . S
C537 N533 1.334 . S
C537 C535 1.390 . S
C538 C535 1.339 . S
C538 C536 1.416 . S
C538 H545 0.930 . S
N539 Tb504 2.572 . S
N539 C540 1.340 . S
N539 C542 1.361 . S
C540 H526 0.930 . S
C540 N539 1.340 . S
C540 C544 1.407 . S
C541 C542 1.413 . S
C541 C543 1.416 . S
C541 C570 1.427 . S
C542 C534 1.424 . S
C542 N539 1.361 . S
C542 C541 1.413 . S
C543 H532 0.931 . S
C543 C541 1.416 . S
C543 C544 1.332 . S
C544 H523 0.929 . S
C544 C540 1.407 . S
C544 C543 1.332 . S
H545 C538 0.930 . S
H546 C569 0.930 . S
H547 C570 0.929 . S
O548 Tb504 2.465 . S
O548 C568 1.264 . S
O549 Tb504 2.387 . S
O549 C560 1.264 . S
O550 Tb515 2.349 . S
O550 C560 1.243 . S
O551 Tb504 2.428 . S
O551 C568 1.256 . S
O552 Tb504 2.308 . S
O552 C567 1.266 . S
O553 Tb515 2.393 . S
O553 C567 1.248 . S
O554 Tb515 2.465 . S
O554 C579 1.264 . S
O555 Tb515 2.387 . S
O555 C571 1.264 . S
O556 Tb504 2.349 . S
O556 C571 1.243 . S
O557 Tb515 2.428 . S
O557 C579 1.256 . S
O558 Tb515 2.308 . S
O558 C578 1.266 . S
O559 Tb504 2.393 . S
O559 C578 1.248 . S
C560 O549 1.264 . S
C560 O550 1.243 . S
C561 C564 1.399 . S
C561 C566 1.383 . S
C561 C568 1.496 . S
C562 C563 1.399 . S
C562 C566 1.389 . S
C563 C562 1.399 . S
C563 C565 1.380 . S
C563 H580 0.929 . S
C564 C561 1.399 . S
C564 C565 1.392 . S
C564 H581 0.929 . S
C565 C563 1.380 . S
C565 C564 1.392 . S
C565 H582 0.929 . S
C566 C561 1.383 . S
C566 C562 1.389 . S
C566 H583 0.931 . S
C567 O552 1.266 . S
C567 O553 1.248 . S
C568 Tb504 2.802 . S
C568 O548 1.264 . S
C568 O551 1.256 . S
C568 C561 1.496 . S
C569 C536 1.448 . S
C569 H546 0.930 . S
C569 C570 1.328 . S
C570 C541 1.427 . S
C570 H547 0.929 . S
C570 C569 1.328 . S
C571 O555 1.264 . S
C571 O556 1.243 . S
C572 C575 1.399 . S
C572 C576 1.383 . S
C572 C579 1.496 1_655 S
C573 C574 1.399 . S
C573 C576 1.389 . S
C574 C573 1.399 . S
C574 C577 1.380 . S
C574 H584 0.929 . S
C575 C572 1.399 . S
C575 C577 1.392 . S
C575 H585 0.931 . S
C576 C572 1.383 . S
C576 C573 1.389 . S
C576 H586 0.931 . S
C577 C574 1.380 . S
C577 C575 1.392 . S
C577 H587 0.929 . S
C578 O558 1.266 . S
C578 O559 1.248 . S
C579 Tb515 2.802 . S
C579 O554 1.264 . S
C579 O557 1.256 . S
C579 C572 1.496 1_455 S
H580 C563 0.929 . S
H581 C564 0.929 . S
H582 C565 0.929 . S
H583 C566 0.931 . S
H584 C574 0.929 . S
H585 C575 0.931 . S
H586 C576 0.931 . S
H587 C577 0.929 . S
Tb588 N617 2.617 . S
Tb588 N623 2.572 . S
Tb588 O632 2.465 . S
Tb588 O633 2.387 . S
Tb588 O635 2.428 . S
Tb588 O636 2.308 . S
Tb588 O640 2.349 . S
Tb588 O643 2.393 . S
Tb588 C652 2.802 . S
C589 N590 1.379 . S
C589 C592 1.416 . S
C589 C596 1.424 . S
N590 C589 1.379 . S
N590 C593 1.334 . S
N590 Tb599 2.617 . S
C591 C593 1.390 . S
C591 C594 1.339 . S
C591 H611 0.930 1_556 S
C592 C589 1.416 . S
C592 C594 1.416 . S
C592 C598 1.460 . S
C593 N590 1.334 . S
C593 C591 1.390 . S
C593 H604 0.930 . S
C594 C591 1.339 . S
C594 C592 1.416 . S
C594 H615 0.930 . S
C595 C596 1.413 . S
C595 C597 1.427 1_455 S
C595 C601 1.416 . S
C596 C589 1.424 . S
C596 C595 1.413 . S
C596 N600 1.361 . S
C597 C595 1.427 1_655 S
C597 C598 1.326 1_655 S
C597 H612 0.929 . S
C598 C592 1.460 . S
C598 C597 1.326 1_455 S
C598 H613 0.921 1_455 S
Tb599 N590 2.617 . S
Tb599 N600 2.572 . S
Tb599 O634 2.349 . S
Tb599 O637 2.393 . S
Tb599 O638 2.465 . S
Tb599 O639 2.387 . S
Tb599 O641 2.428 . S
Tb599 O642 2.308 . S
Tb599 C663 2.802 . S
N600 C596 1.361 . S
N600 Tb599 2.572 . S
N600 C602 1.340 . S
C601 C595 1.416 . S
C601 C603 1.332 . S
C601 H609 0.931 1_455 S
C602 N600 1.340 . S
C602 C603 1.407 . S
C602 H608 0.930 . S
C603 C601 1.332 . S
C603 C602 1.407 . S
C603 H605 0.929 . S
H604 C593 0.930 . S
H605 C603 0.929 . S
H606 C621 0.930 . S
H607 C628 0.935 . S
H608 C602 0.930 . S
H609 C601 0.931 1_655 S
H610 C624 0.930 . S
H611 C591 0.930 1_554 S
H612 C597 0.929 . S
H613 C598 0.921 1_655 S
H614 C619 0.930 . S
H615 C594 0.930 . S
H616 C627 0.931 . S
N617 Tb588 2.617 . S
N617 C618 1.379 . S
N617 C621 1.334 . S
C618 N617 1.379 . S
C618 C620 1.416 . S
C618 C626 1.424 . S
C619 H614 0.930 . S
C619 C621 1.390 . S
C619 C622 1.339 . S
C620 C618 1.416 . S
C620 C622 1.416 . S
C620 C653 1.448 . S
C621 H606 0.930 . S
C621 N617 1.334 . S
C621 C619 1.390 . S
C622 C619 1.339 . S
C622 C620 1.416 . S
C622 H629 0.930 . S
N623 Tb588 2.572 . S
N623 C624 1.340 . S
N623 C626 1.361 . S
C624 H610 0.930 . S
C624 N623 1.340 . S
C624 C628 1.407 . S
C625 C626 1.413 . S
C625 C627 1.416 1_565 S
C625 C654 1.427 1_565 S
C626 C618 1.424 . S
C626 N623 1.361 . S
C626 C625 1.413 . S
C627 H616 0.931 . S
C627 C625 1.416 1_545 S
C627 C628 1.332 1_545 S
C628 H607 0.935 . S
C628 C624 1.407 . S
C628 C627 1.332 1_565 S
H629 C622 0.930 . S
H630 C653 0.930 . S
H631 C654 0.929 . S
O632 Tb588 2.465 . S
O632 C652 1.264 . S
O633 Tb588 2.387 . S
O633 C644 1.264 . S
O634 Tb599 2.349 . S
O634 C644 1.243 . S
O635 Tb588 2.428 . S
O635 C652 1.256 . S
O636 Tb588 2.308 . S
O636 C651 1.266 . S
O637 Tb599 2.393 . S
O637 C651 1.248 . S
O638 Tb599 2.465 . S
O638 C663 1.264 . S
O639 Tb599 2.387 . S
O639 C655 1.264 . S
O640 Tb588 2.349 . S
O640 C655 1.243 . S
O641 Tb599 2.428 . S
O641 C663 1.256 . S
O642 Tb599 2.308 . S
O642 C662 1.266 . S
O643 Tb588 2.393 . S
O643 C662 1.248 . S
C644 O633 1.264 . S
C644 O634 1.243 . S
C645 C648 1.399 . S
C645 C650 1.383 . S
C645 C652 1.496 1_545 S
C646 C647 1.399 . S
C646 C650 1.389 . S
C647 C646 1.399 . S
C647 C649 1.380 . S
C647 H664 0.929 . S
C648 C645 1.399 . S
C648 C649 1.392 . S
C648 H665 0.933 . S
C649 C647 1.380 . S
C649 C648 1.392 . S
C649 H666 0.929 . S
C650 C645 1.383 . S
C650 C646 1.389 . S
C650 H667 0.931 . S
C651 O636 1.266 . S
C651 O637 1.248 . S
C652 Tb588 2.802 . S
C652 O632 1.264 . S
C652 O635 1.256 . S
C652 C645 1.496 1_565 S
C653 C620 1.448 . S
C653 H630 0.930 . S
C653 C654 1.328 1_565 S
C654 C625 1.427 1_545 S
C654 H631 0.929 . S
C654 C653 1.328 1_545 S
C655 O639 1.264 . S
C655 O640 1.243 . S
C656 C659 1.399 . S
C656 C660 1.383 . S
C656 C663 1.496 . S
C657 C658 1.399 . S
C657 C660 1.389 . S
C658 C657 1.399 . S
C658 C661 1.380 . S
C658 H668 0.929 . S
C659 C656 1.399 . S
C659 C661 1.392 . S
C659 H669 0.929 . S
C660 C656 1.383 . S
C660 C657 1.389 . S
C660 H670 0.931 . S
C661 C658 1.380 . S
C661 C659 1.392 . S
C661 H671 0.929 . S
C662 O642 1.266 . S
C662 O643 1.248 . S
C663 Tb599 2.802 . S
C663 O638 1.264 . S
C663 O641 1.256 . S
C663 C656 1.496 . S
H664 C647 0.929 . S
H665 C648 0.933 . S
H666 C649 0.929 . S
H667 C650 0.931 . S
H668 C658 0.929 . S
H669 C659 0.929 . S
H670 C660 0.931 . S
H671 C661 0.929 . S
Tb672 N701 2.617 . S
Tb672 N707 2.572 . S
Tb672 O716 2.465 . S
Tb672 O717 2.387 . S
Tb672 O719 2.428 . S
Tb672 O720 2.308 . S
Tb672 O724 2.349 . S
Tb672 O727 2.393 . S
Tb672 C736 2.802 . S
C673 N674 1.379 . S
C673 C676 1.416 . S
C673 C680 1.424 . S
N674 C673 1.379 . S
N674 C677 1.334 . S
N674 Tb683 2.617 . S
C675 C677 1.390 . S
C675 C678 1.339 . S
C675 H695 0.930 . S
C676 C673 1.416 . S
C676 C678 1.416 . S
C676 C682 1.448 . S
C677 N674 1.334 . S
C677 C675 1.390 . S
C677 H688 0.930 . S
C678 C675 1.339 . S
C678 C676 1.416 . S
C678 H699 0.930 . S
C679 C680 1.413 . S
C679 C681 1.427 . S
C679 C685 1.416 . S
C680 C673 1.424 . S
C680 C679 1.413 . S
C680 N684 1.361 . S
C681 C679 1.427 . S
C681 C682 1.328 . S
C681 H696 0.929 . S
C682 C676 1.448 . S
C682 C681 1.328 . S
C682 H697 0.930 . S
Tb683 N674 2.617 . S
Tb683 N684 2.572 . S
Tb683 O718 2.349 . S
Tb683 O721 2.393 . S
Tb683 O722 2.465 . S
Tb683 O723 2.387 . S
Tb683 O725 2.428 . S
Tb683 O726 2.308 . S
Tb683 C747 2.802 . S
N684 C680 1.361 . S
N684 Tb683 2.572 . S
N684 C686 1.340 . S
C685 C679 1.416 . S
C685 C687 1.332 . S
C685 H693 0.931 . S
C686 N684 1.340 . S
C686 C687 1.407 . S
C686 H692 0.930 . S
C687 C685 1.332 . S
C687 C686 1.407 . S
C687 H689 0.929 . S
H688 C677 0.930 . S
H689 C687 0.929 . S
H690 C705 0.930 . S
H691 C712 0.929 . S
H692 C686 0.930 . S
H693 C685 0.931 . S
H694 C708 0.930 . S
H695 C675 0.930 . S
H696 C681 0.929 . S
H697 C682 0.930 . S
H698 C703 0.930 . S
H699 C678 0.930 . S
H700 C711 0.931 1_545 S
N701 Tb672 2.617 . S
N701 C702 1.379 . S
N701 C705 1.334 . S
C702 N701 1.379 . S
C702 C704 1.416 . S
C702 C710 1.424 . S
C703 H698 0.930 . S
C703 C705 1.390 . S
C703 C706 1.339 . S
C704 C702 1.416 . S
C704 C706 1.416 . S
C704 C737 1.463 . S
C705 H690 0.930 . S
C705 N701 1.334 . S
C705 C703 1.390 . S
C706 C703 1.339 . S
C706 C704 1.416 . S
C706 H713 0.930 . S
N707 Tb672 2.572 . S
N707 C708 1.340 . S
N707 C710 1.361 . S
C708 H694 0.930 . S
C708 N707 1.340 . S
C708 C712 1.407 . S
C709 C710 1.413 . S
C709 C711 1.416 . S
C709 C738 1.427 1_565 S
C710 C702 1.424 . S
C710 N707 1.361 . S
C710 C709 1.413 . S
C711 H700 0.931 1_565 S
C711 C709 1.416 . S
C711 C712 1.332 . S
C712 H691 0.929 . S
C712 C708 1.407 . S
C712 C711 1.332 . S
H713 C706 0.930 . S
H714 C737 0.921 1_545 S
H715 C738 0.929 . S
O716 Tb672 2.465 . S
O716 C736 1.264 . S
O717 Tb672 2.387 . S
O717 C728 1.264 . S
O718 Tb683 2.349 . S
O718 C728 1.243 . S
O719 Tb672 2.428 . S
O719 C736 1.256 . S
O720 Tb672 2.308 . S
O720 C735 1.266 . S
O721 Tb683 2.393 . S
O721 C735 1.248 . S
O722 Tb683 2.465 . S
O722 C747 1.264 . S
O723 Tb683 2.387 . S
O723 C739 1.264 . S
O724 Tb672 2.349 . S
O724 C739 1.243 . S
O725 Tb683 2.428 . S
O725 C747 1.256 . S
O726 Tb683 2.308 . S
O726 C746 1.266 . S
O727 Tb672 2.393 . S
O727 C746 1.248 . S
C728 O717 1.264 . S
C728 O718 1.243 . S
C729 C732 1.399 . S
C729 C734 1.383 . S
C729 C736 1.496 . S
C730 C731 1.399 . S
C730 C734 1.389 . S
C731 C730 1.399 . S
C731 C733 1.380 . S
C731 H748 0.929 . S
C732 C729 1.399 . S
C732 C733 1.392 . S
C732 H749 0.929 . S
C733 C731 1.380 . S
C733 C732 1.392 . S
C733 H750 0.929 . S
C734 C729 1.383 . S
C734 C730 1.389 . S
C734 H751 0.931 . S
C735 O720 1.266 . S
C735 O721 1.248 . S
C736 Tb672 2.802 . S
C736 O716 1.264 . S
C736 O719 1.256 . S
C736 C729 1.496 . S
C737 C704 1.463 . S
C737 H714 0.921 1_565 S
C737 C738 1.323 1_565 S
C738 C709 1.427 1_545 S
C738 H715 0.929 . S
C738 C737 1.323 1_545 S
C739 O723 1.264 . S
C739 O724 1.243 . S
C740 C743 1.399 . S
C740 C744 1.383 . S
C740 C747 1.496 . S
C741 C742 1.399 . S
C741 C744 1.389 . S
C742 C741 1.399 . S
C742 C745 1.380 . S
C742 H752 0.929 . S
C743 C740 1.399 . S
C743 C745 1.392 . S
C743 H753 0.929 . S
C744 C740 1.383 . S
C744 C741 1.389 . S
C744 H754 0.931 . S
C745 C742 1.380 . S
C745 C743 1.392 . S
C745 H755 0.929 . S
C746 O726 1.266 . S
C746 O727 1.248 . S
C747 Tb683 2.802 . S
C747 O722 1.264 . S
C747 O725 1.256 . S
C747 C740 1.496 . S
H748 C731 0.929 . S
H749 C732 0.929 . S
H750 C733 0.929 . S
H751 C734 0.931 . S
H752 C742 0.929 . S
H753 C743 0.929 . S
H754 C744 0.931 . S
H755 C745 0.929 . S
Tb756 N785 2.617 . S
Tb756 N791 2.572 . S
Tb756 O800 2.465 . S
Tb756 O801 2.387 . S
Tb756 O803 2.428 . S
Tb756 O804 2.308 . S
Tb756 O808 2.349 . S
Tb756 O811 2.393 . S
Tb756 C820 2.802 . S
C757 N758 1.379 . S
C757 C760 1.416 . S
C757 C764 1.424 . S
N758 C757 1.379 . S
N758 C761 1.334 . S
N758 Tb767 2.617 . S
C759 C761 1.390 . S
C759 C762 1.339 . S
C759 H779 0.930 1_556 S
C760 C757 1.416 . S
C760 C762 1.416 . S
C760 C766 1.448 . S
C761 N758 1.334 . S
C761 C759 1.390 . S
C761 H772 0.930 . S
C762 C759 1.339 . S
C762 C760 1.416 . S
C762 H783 0.930 . S
C763 C764 1.413 . S
C763 C765 1.427 . S
C763 C769 1.416 . S
C764 C757 1.424 . S
C764 C763 1.413 . S
C764 N768 1.361 . S
C765 C763 1.427 . S
C765 C766 1.328 . S
C765 H780 0.929 . S
C766 C760 1.448 . S
C766 C765 1.328 . S
C766 H781 0.930 . S
Tb767 N758 2.617 . S
Tb767 N768 2.572 . S
Tb767 O802 2.349 . S
Tb767 O805 2.393 . S
Tb767 O806 2.465 . S
Tb767 O807 2.387 . S
Tb767 O809 2.428 . S
Tb767 O810 2.308 . S
Tb767 C831 2.802 . S
N768 C764 1.361 . S
N768 Tb767 2.572 . S
N768 C770 1.340 . S
C769 C763 1.416 . S
C769 C771 1.332 . S
C769 H777 0.931 . S
C770 N768 1.340 . S
C770 C771 1.407 . S
C770 H776 0.930 . S
C771 C769 1.332 . S
C771 C770 1.407 . S
C771 H773 0.929 . S
H772 C761 0.930 . S
H773 C771 0.929 . S
H774 C789 0.930 . S
H775 C796 0.940 . S
H776 C770 0.930 . S
H777 C769 0.931 . S
H778 C792 0.930 . S
H779 C759 0.930 1_554 S
H780 C765 0.929 . S
H781 C766 0.930 . S
H782 C787 0.930 . S
H783 C762 0.930 . S
H784 C795 0.931 . S
N785 Tb756 2.617 . S
N785 C786 1.379 . S
N785 C789 1.334 . S
C786 N785 1.379 . S
C786 C788 1.416 . S
C786 C794 1.424 . S
C787 H782 0.930 . S
C787 C789 1.390 . S
C787 C790 1.339 . S
C788 C786 1.416 . S
C788 C790 1.416 . S
C788 C821 1.448 . S
C789 H774 0.930 . S
C789 N785 1.334 . S
C789 C787 1.390 . S
C790 C787 1.339 . S
C790 C788 1.416 . S
C790 H797 0.930 . S
N791 Tb756 2.572 . S
N791 C792 1.340 . S
N791 C794 1.361 . S
C792 H778 0.930 . S
C792 N791 1.340 . S
C792 C796 1.407 . S
C793 C794 1.413 . S
C793 C795 1.416 1_455 S
C793 C822 1.427 1_455 S
C794 C786 1.424 . S
C794 N791 1.361 . S
C794 C793 1.413 . S
C795 H784 0.931 . S
C795 C793 1.416 1_655 S
C795 C796 1.332 1_655 S
C796 H775 0.940 . S
C796 C792 1.407 . S
C796 C795 1.332 1_455 S
H797 C790 0.930 . S
H798 C821 0.933 . S
H799 C822 0.929 . S
O800 Tb756 2.465 . S
O800 C820 1.264 . S
O801 Tb756 2.387 . S
O801 C812 1.264 . S
O802 Tb767 2.349 . S
O802 C812 1.243 . S
O803 Tb756 2.428 . S
O803 C820 1.256 . S
O804 Tb756 2.308 . S
O804 C819 1.266 . S
O805 Tb767 2.393 . S
O805 C819 1.248 . S
O806 Tb767 2.465 . S
O806 C831 1.264 . S
O807 Tb767 2.387 . S
O807 C823 1.264 . S
O808 Tb756 2.349 . S
O808 C823 1.243 . S
O809 Tb767 2.428 . S
O809 C831 1.256 . S
O810 Tb767 2.308 . S
O810 C830 1.266 . S
O811 Tb756 2.393 . S
O811 C830 1.248 . S
C812 O801 1.264 . S
C812 O802 1.243 . S
C813 C816 1.399 . S
C813 C818 1.383 . S
C813 C820 1.496 1_655 S
C814 C815 1.399 . S
C814 C818 1.389 . S
C815 C814 1.399 . S
C815 C817 1.380 . S
C815 H832 0.929 . S
C816 C813 1.399 . S
C816 C817 1.392 . S
C816 H833 0.931 . S
C817 C815 1.380 . S
C817 C816 1.392 . S
C817 H834 0.929 . S
C818 C813 1.383 . S
C818 C814 1.389 . S
C818 H835 0.931 . S
C819 O804 1.266 . S
C819 O805 1.248 . S
C820 Tb756 2.802 . S
C820 O800 1.264 . S
C820 O803 1.256 . S
C820 C813 1.496 1_455 S
C821 C788 1.448 . S
C821 H798 0.933 . S
C821 C822 1.328 1_455 S
C822 C793 1.427 1_655 S
C822 H799 0.929 . S
C822 C821 1.328 1_655 S
C823 O807 1.264 . S
C823 O808 1.243 . S
C824 C827 1.399 . S
C824 C828 1.383 . S
C824 C831 1.496 . S
C825 C826 1.399 . S
C825 C828 1.389 . S
C826 C825 1.399 . S
C826 C829 1.380 . S
C826 H836 0.929 . S
C827 C824 1.399 . S
C827 C829 1.392 . S
C827 H837 0.929 . S
C828 C824 1.383 . S
C828 C825 1.389 . S
C828 H838 0.931 . S
C829 C826 1.380 . S
C829 C827 1.392 . S
C829 H839 0.929 . S
C830 O810 1.266 . S
C830 O811 1.248 . S
C831 Tb767 2.802 . S
C831 O806 1.264 . S
C831 O809 1.256 . S
C831 C824 1.496 . S
H832 C815 0.929 . S
H833 C816 0.931 . S
H834 C817 0.929 . S
H835 C818 0.931 . S
H836 C826 0.929 . S
H837 C827 0.929 . S
H838 C828 0.931 . S
H839 C829 0.929 . S
Tb840 N869 2.617 . S
Tb840 N875 2.572 . S
Tb840 O884 2.465 . S
Tb840 O885 2.387 . S
Tb840 O887 2.428 . S
Tb840 O888 2.308 . S
Tb840 O892 2.349 . S
Tb840 O895 2.393 . S
Tb840 C904 2.802 . S
C841 N842 1.379 . S
C841 C844 1.416 . S
C841 C848 1.424 . S
N842 C841 1.379 . S
N842 C845 1.334 . S
N842 Tb851 2.617 . S
C843 C845 1.390 . S
C843 C846 1.339 . S
C843 H863 0.930 . S
C844 C841 1.416 . S
C844 C846 1.416 . S
C844 C850 1.448 . S
C845 N842 1.334 . S
C845 C843 1.390 . S
C845 H856 0.930 . S
C846 C843 1.339 . S
C846 C844 1.416 . S
C846 H867 0.930 . S
C847 C848 1.413 . S
C847 C849 1.427 1_565 S
C847 C853 1.416 1_565 S
C848 C841 1.424 . S
C848 C847 1.413 . S
C848 N852 1.361 . S
C849 C847 1.427 1_545 S
C849 C850 1.328 1_545 S
C849 H864 0.929 . S
C850 C844 1.448 . S
C850 C849 1.328 1_565 S
C850 H865 0.930 . S
Tb851 N842 2.617 . S
Tb851 N852 2.572 . S
Tb851 O886 2.349 . S
Tb851 O889 2.393 . S
Tb851 O890 2.465 . S
Tb851 O891 2.387 . S
Tb851 O893 2.428 . S
Tb851 O894 2.308 . S
Tb851 C915 2.802 . S
N852 C848 1.361 . S
N852 Tb851 2.572 . S
N852 C854 1.340 . S
C853 C847 1.416 1_545 S
C853 C855 1.332 1_545 S
C853 H861 0.931 . S
C854 N852 1.340 . S
C854 C855 1.407 . S
C854 H860 0.930 . S
C855 C853 1.332 1_565 S
C855 C854 1.407 . S
C855 H857 0.935 . S
H856 C845 0.930 . S
H857 C855 0.935 . S
H858 C873 0.930 . S
H859 C880 0.929 . S
H860 C854 0.930 . S
H861 C853 0.931 . S
H862 C876 0.930 . S
H863 C843 0.930 . S
H864 C849 0.929 . S
H865 C850 0.930 . S
H866 C871 0.930 . S
H867 C846 0.930 . S
H868 C879 0.931 1_655 S
N869 Tb840 2.617 . S
N869 C870 1.379 . S
N869 C873 1.334 . S
C870 N869 1.379 . S
C870 C872 1.416 . S
C870 C878 1.424 . S
C871 H866 0.930 . S
C871 C873 1.390 . S
C871 C874 1.339 . S
C872 C870 1.416 . S
C872 C874 1.416 . S
C872 C905 1.460 . S
C873 H858 0.930 . S
C873 N869 1.334 . S
C873 C871 1.390 . S
C874 C871 1.339 . S
C874 C872 1.416 . S
C874 H881 0.930 . S
N875 Tb840 2.572 . S
N875 C876 1.340 . S
N875 C878 1.361 . S
C876 H862 0.930 . S
C876 N875 1.340 . S
C876 C880 1.407 . S
C877 C878 1.413 . S
C877 C879 1.416 . S
C877 C906 1.427 1_455 S
C878 C870 1.424 . S
C878 N875 1.361 . S
C878 C877 1.413 . S
C879 H868 0.931 1_455 S
C879 C877 1.416 . S
C879 C880 1.332 . S
C880 H859 0.929 . S
C880 C876 1.407 . S
C880 C879 1.332 . S
H881 C874 0.930 . S
H882 C905 0.921 1_655 S
H883 C906 0.929 . S
O884 Tb840 2.465 . S
O884 C904 1.264 . S
O885 Tb840 2.387 . S
O885 C896 1.264 . S
O886 Tb851 2.349 . S
O886 C896 1.243 . S
O887 Tb840 2.428 . S
O887 C904 1.256 . S
O888 Tb840 2.308 . S
O888 C903 1.266 . S
O889 Tb851 2.393 . S
O889 C903 1.248 . S
O890 Tb851 2.465 . S
O890 C915 1.264 . S
O891 Tb851 2.387 . S
O891 C907 1.264 . S
O892 Tb840 2.349 . S
O892 C907 1.243 . S
O893 Tb851 2.428 . S
O893 C915 1.256 . S
O894 Tb851 2.308 . S
O894 C914 1.266 . S
O895 Tb840 2.393 . S
O895 C914 1.248 . S
C896 O885 1.264 . S
C896 O886 1.243 . S
C897 C900 1.399 . S
C897 C902 1.383 . S
C897 C904 1.496 . S
C898 C899 1.399 . S
C898 C902 1.389 . S
C899 C898 1.399 . S
C899 C901 1.380 . S
C899 H916 0.929 . S
C900 C897 1.399 . S
C900 C901 1.392 . S
C900 H917 0.929 . S
C901 C899 1.380 . S
C901 C900 1.392 . S
C901 H918 0.929 . S
C902 C897 1.383 . S
C902 C898 1.389 . S
C902 H919 0.931 . S
C903 O888 1.266 . S
C903 O889 1.248 . S
C904 Tb840 2.802 . S
C904 O884 1.264 . S
C904 O887 1.256 . S
C904 C897 1.496 . S
C905 C872 1.460 . S
C905 H882 0.921 1_455 S
C905 C906 1.326 1_455 S
C906 C877 1.427 1_655 S
C906 H883 0.929 . S
C906 C905 1.326 1_655 S
C907 O891 1.264 . S
C907 O892 1.243 . S
C908 C911 1.399 . S
C908 C912 1.383 . S
C908 C915 1.496 1_545 S
C909 C910 1.399 . S
C909 C912 1.389 . S
C910 C909 1.399 . S
C910 C913 1.380 . S
C910 H920 0.929 . S
C911 C908 1.399 . S
C911 C913 1.392 . S
C911 H921 0.933 . S
C912 C908 1.383 . S
C912 C909 1.389 . S
C912 H922 0.931 . S
C913 C910 1.380 . S
C913 C911 1.392 . S
C913 H923 0.929 . S
C914 O894 1.266 . S
C914 O895 1.248 . S
C915 Tb851 2.802 . S
C915 O890 1.264 . S
C915 O893 1.256 . S
C915 C908 1.496 1_565 S
H916 C899 0.929 . S
H917 C900 0.929 . S
H918 C901 0.929 . S
H919 C902 0.931 . S
H920 C910 0.929 . S
H921 C911 0.933 . S
H922 C912 0.931 . S
H923 C913 0.929 . S
Tb924 N953 2.617 . S
Tb924 N959 2.572 . S
Tb924 O968 2.465 . S
Tb924 O969 2.387 . S
Tb924 O971 2.428 . S
Tb924 O972 2.308 . S
Tb924 O976 2.349 . S
Tb924 O979 2.393 . S
Tb924 C988 2.802 . S
C925 N926 1.379 . S
C925 C928 1.416 . S
C925 C932 1.424 . S
N926 C925 1.379 . S
N926 C929 1.334 . S
N926 Tb935 2.617 . S
C927 C929 1.390 . S
C927 C930 1.339 . S
C927 H947 0.930 1_556 S
C928 C925 1.416 . S
C928 C930 1.416 . S
C928 C934 1.463 . S
C929 N926 1.334 . S
C929 C927 1.390 . S
C929 H940 0.930 . S
C930 C927 1.339 . S
C930 C928 1.416 . S
C930 H951 0.930 . S
C931 C932 1.413 . S
C931 C933 1.427 1_565 S
C931 C937 1.416 . S
C932 C925 1.424 . S
C932 C931 1.413 . S
C932 N936 1.361 . S
C933 C931 1.427 1_545 S
C933 C934 1.323 1_545 S
C933 H948 0.929 . S
C934 C928 1.463 . S
C934 C933 1.323 1_565 S
C934 H949 0.921 1_565 S
Tb935 N926 2.617 . S
Tb935 N936 2.572 . S
Tb935 O970 2.349 . S
Tb935 O973 2.393 . S
Tb935 O974 2.465 . S
Tb935 O975 2.387 . S
Tb935 O977 2.428 . S
Tb935 O978 2.308 . S
Tb935 C999 2.802 . S
N936 C932 1.361 . S
N936 Tb935 2.572 . S
N936 C938 1.340 . S
C937 C931 1.416 . S
C937 C939 1.332 . S
C937 H945 0.931 1_565 S
C938 N936 1.340 . S
C938 C939 1.407 . S
C938 H944 0.930 . S
C939 C937 1.332 . S
C939 C938 1.407 . S
C939 H941 0.929 . S
H940 C929 0.930 . S
H941 C939 0.929 . S
H942 C957 0.930 . S
H943 C964 0.929 . S
H944 C938 0.930 . S
H945 C937 0.931 1_545 S
H946 C960 0.930 . S
H947 C927 0.930 1_554 S
H948 C933 0.929 . S
H949 C934 0.921 1_545 S
H950 C955 0.930 . S
H951 C930 0.930 . S
H952 C963 0.931 . S
N953 Tb924 2.617 . S
N953 C954 1.379 . S
N953 C957 1.334 . S
C954 N953 1.379 . S
C954 C956 1.416 . S
C954 C962 1.424 . S
C955 H950 0.930 . S
C955 C957 1.390 . S
C955 C958 1.339 . S
C956 C954 1.416 . S
C956 C958 1.416 . S
C956 C989 1.448 . S
C957 H942 0.930 . S
C957 N953 1.334 . S
C957 C955 1.390 . S
C958 C955 1.339 . S
C958 C956 1.416 . S
C958 H965 0.930 . S
N959 Tb924 2.572 . S
N959 C960 1.340 . S
N959 C962 1.361 . S
C960 H946 0.930 . S
C960 N959 1.340 . S
C960 C964 1.407 . S
C961 C962 1.413 . S
C961 C963 1.416 . S
C961 C990 1.427 . S
C962 C954 1.424 . S
C962 N959 1.361 . S
C962 C961 1.413 . S
C963 H952 0.931 . S
C963 C961 1.416 . S
C963 C964 1.332 . S
C964 H943 0.929 . S
C964 C960 1.407 . S
C964 C963 1.332 . S
H965 C958 0.930 . S
H966 C989 0.930 . S
H967 C990 0.929 . S
O968 Tb924 2.465 . S
O968 C988 1.264 . S
O969 Tb924 2.387 . S
O969 C980 1.264 . S
O970 Tb935 2.349 . S
O970 C980 1.243 . S
O971 Tb924 2.428 . S
O971 C988 1.256 . S
O972 Tb924 2.308 . S
O972 C987 1.266 . S
O973 Tb935 2.393 . S
O973 C987 1.248 . S
O974 Tb935 2.465 . S
O974 C999 1.264 . S
O975 Tb935 2.387 . S
O975 C991 1.264 . S
O976 Tb924 2.349 . S
O976 C991 1.243 . S
O977 Tb935 2.428 . S
O977 C999 1.256 . S
O978 Tb935 2.308 . S
O978 C998 1.266 . S
O979 Tb924 2.393 . S
O979 C998 1.248 . S
C980 O969 1.264 . S
C980 O970 1.243 . S
C981 C984 1.399 . S
C981 C986 1.383 . S
C981 C988 1.496 . S
C982 C983 1.399 . S
C982 C986 1.389 . S
C983 C982 1.399 . S
C983 C985 1.380 . S
C983 H1000 0.929 . S
C984 C981 1.399 . S
C984 C985 1.392 . S
C984 H1001 0.929 . S
C985 C983 1.380 . S
C985 C984 1.392 . S
C985 H1002 0.929 . S
C986 C981 1.383 . S
C986 C982 1.389 . S
C986 H1003 0.931 . S
C987 O972 1.266 . S
C987 O973 1.248 . S
C988 Tb924 2.802 . S
C988 O968 1.264 . S
C988 O971 1.256 . S
C988 C981 1.496 . S
C989 C956 1.448 . S
C989 H966 0.930 . S
C989 C990 1.328 . S
C990 C961 1.427 . S
C990 H967 0.929 . S
C990 C989 1.328 . S
C991 O975 1.264 . S
C991 O976 1.243 . S
C992 C995 1.399 . S
C992 C996 1.383 . S
C992 C999 1.496 . S
C993 C994 1.399 . S
C993 C996 1.389 . S
C994 C993 1.399 . S
C994 C997 1.380 . S
C994 H1004 0.929 . S
C995 C992 1.399 . S
C995 C997 1.392 . S
C995 H1005 0.929 . S
C996 C992 1.383 . S
C996 C993 1.389 . S
C996 H1006 0.931 . S
C997 C994 1.380 . S
C997 C995 1.392 . S
C997 H1007 0.929 . S
C998 O978 1.266 . S
C998 O979 1.248 . S
C999 Tb935 2.802 . S
C999 O974 1.264 . S
C999 O977 1.256 . S
C999 C992 1.496 . S
H1000 C983 0.929 . S
H1001 C984 0.929 . S
H1002 C985 0.929 . S
H1003 C986 0.931 . S
H1004 C994 0.929 . S
H1005 C995 0.929 . S
H1006 C996 0.931 . S
H1007 C997 0.929 . S
C1008 C1009 1.391 . S
C1008 C1010 1.394 . S
C1008 H1024 0.931 . S
C1009 C1008 1.391 . S
C1009 C1013 1.376 . S
C1010 C1008 1.394 . S
C1010 C1011 1.369 . S
C1010 C1014 1.531 . S
C1011 C1010 1.369 . S
C1011 C1012 1.410 . S
C1011 C1019 1.503 . S
C1012 C1011 1.410 . S
C1012 C1013 1.392 . S
C1012 C1015 1.511 . S
C1013 C1009 1.376 . S
C1013 C1012 1.392 . S
C1013 H1025 0.929 . S
C1014 C1010 1.531 . S
C1014 H1026 0.960 . S
C1014 H1027 0.962 . S
C1014 H1028 0.960 . S
C1015 C1012 1.511 . S
C1015 H1029 0.961 . S
C1015 H1030 0.961 . S
C1015 H1031 0.961 . S
C1016 C1017 1.370 . S
C1016 C1018 1.363 . S
C1016 H1032 0.931 . S
C1017 C1016 1.370 . S
C1017 C1021 1.408 . S
C1018 C1016 1.363 . S
C1018 C1019 1.370 . S
C1018 C1022 1.524 . S
C1019 C1011 1.503 . S
C1019 C1018 1.370 . S
C1019 C1020 1.403 . S
C1020 C1019 1.403 . S
C1020 C1021 1.404 . S
C1020 C1023 1.539 . S
C1021 C1017 1.408 . S
C1021 C1020 1.404 . S
C1021 H1033 0.930 . S
C1022 C1018 1.524 . S
C1022 H1034 0.956 . S
C1022 H1035 0.961 . S
C1022 H1036 0.961 . S
C1023 C1020 1.539 . S
C1023 H1037 0.958 . S
C1023 H1038 0.961 . S
C1023 H1039 0.960 . S
H1024 C1008 0.931 . S
H1025 C1013 0.929 . S
H1026 C1014 0.960 . S
H1027 C1014 0.962 . S
H1028 C1014 0.960 . S
H1029 C1015 0.961 . S
H1030 C1015 0.961 . S
H1031 C1015 0.961 . S
H1032 C1016 0.931 . S
H1033 C1021 0.930 . S
H1034 C1022 0.956 . S
H1035 C1022 0.961 . S
H1036 C1022 0.961 . S
H1037 C1023 0.958 . S
H1038 C1023 0.961 . S
H1039 C1023 0.960 . S
C1040 C1041 1.391 . S
C1040 C1042 1.394 . S
C1040 H1056 0.931 . S
C1041 C1040 1.391 . S
C1041 C1045 1.376 . S
C1042 C1040 1.394 . S
C1042 C1043 1.369 . S
C1042 C1046 1.531 . S
C1043 C1042 1.369 . S
C1043 C1044 1.410 . S
C1043 C1051 1.503 1_455 S
C1044 C1043 1.410 . S
C1044 C1045 1.392 . S
C1044 C1047 1.511 . S
C1045 C1041 1.376 . S
C1045 C1044 1.392 . S
C1045 H1057 0.929 . S
C1046 C1042 1.531 . S
C1046 H1058 0.960 . S
C1046 H1059 0.962 . S
C1046 H1060 0.960 . S
C1047 C1044 1.511 . S
C1047 H1061 0.961 . S
C1047 H1062 0.961 1_455 S
C1047 H1063 0.961 . S
C1048 C1049 1.370 . S
C1048 C1050 1.363 . S
C1048 H1064 0.931 . S
C1049 C1048 1.370 . S
C1049 C1053 1.408 . S
C1050 C1048 1.363 . S
C1050 C1051 1.370 . S
C1050 C1054 1.524 . S
C1051 C1043 1.503 1_655 S
C1051 C1050 1.370 . S
C1051 C1052 1.403 . S
C1052 C1051 1.403 . S
C1052 C1053 1.404 . S
C1052 C1055 1.539 . S
C1053 C1049 1.408 . S
C1053 C1052 1.404 . S
C1053 H1065 0.930 . S
C1054 C1050 1.524 . S
C1054 H1066 0.956 1_655 S
C1054 H1067 0.961 1_655 S
C1054 H1068 0.961 . S
C1055 C1052 1.539 . S
C1055 H1069 0.958 1_655 S
C1055 H1070 0.961 . S
C1055 H1071 0.960 1_655 S
H1056 C1040 0.931 . S
H1057 C1045 0.929 . S
H1058 C1046 0.960 . S
H1059 C1046 0.962 . S
H1060 C1046 0.960 . S
H1061 C1047 0.961 . S
H1062 C1047 0.961 1_655 S
H1063 C1047 0.961 . S
H1064 C1048 0.931 . S
H1065 C1053 0.930 . S
H1066 C1054 0.956 1_455 S
H1067 C1054 0.961 1_455 S
H1068 C1054 0.961 . S
H1069 C1055 0.958 1_455 S
H1070 C1055 0.961 . S
H1071 C1055 0.960 1_455 S
C1072 C1073 1.391 . S
C1072 C1074 1.394 . S
C1072 H1088 0.931 . S
C1073 C1072 1.391 . S
C1073 C1077 1.376 . S
C1074 C1072 1.394 . S
C1074 C1075 1.369 . S
C1074 C1078 1.531 . S
C1075 C1074 1.369 . S
C1075 C1076 1.410 . S
C1075 C1083 1.503 1_545 S
C1076 C1075 1.410 . S
C1076 C1077 1.392 . S
C1076 C1079 1.511 1_545 S
C1077 C1073 1.376 . S
C1077 C1076 1.392 . S
C1077 H1089 0.929 . S
C1078 C1074 1.531 . S
C1078 H1090 0.960 . S
C1078 H1091 0.962 . S
C1078 H1092 0.960 . S
C1079 C1076 1.511 1_565 S
C1079 H1093 0.961 . S
C1079 H1094 0.961 . S
C1079 H1095 0.961 . S
C1080 C1081 1.370 . S
C1080 C1082 1.363 . S
C1080 H1096 0.931 . S
C1081 C1080 1.370 . S
C1081 C1085 1.408 . S
C1082 C1080 1.363 . S
C1082 C1083 1.370 . S
C1082 C1086 1.524 . S
C1083 C1075 1.503 1_565 S
C1083 C1082 1.370 . S
C1083 C1084 1.403 . S
C1084 C1083 1.403 . S
C1084 C1085 1.404 . S
C1084 C1087 1.539 . S
C1085 C1081 1.408 . S
C1085 C1084 1.404 . S
C1085 H1097 0.930 . S
C1086 C1082 1.524 . S
C1086 H1098 0.956 1_565 S
C1086 H1099 0.961 . S
C1086 H1100 0.961 . S
C1087 C1084 1.539 . S
C1087 H1101 0.958 . S
C1087 H1102 0.961 . S
C1087 H1103 0.960 . S
H1088 C1072 0.931 . S
H1089 C1077 0.929 . S
H1090 C1078 0.960 . S
H1091 C1078 0.962 . S
H1092 C1078 0.960 . S
H1093 C1079 0.961 . S
H1094 C1079 0.961 . S
H1095 C1079 0.961 . S
H1096 C1080 0.931 . S
H1097 C1085 0.930 . S
H1098 C1086 0.956 1_545 S
H1099 C1086 0.961 . S
H1100 C1086 0.961 . S
H1101 C1087 0.958 . S
H1102 C1087 0.961 . S
H1103 C1087 0.960 . S
C1104 C1105 1.391 . S
C1104 C1106 1.394 . S
C1104 H1120 0.931 . S
C1105 C1104 1.391 . S
C1105 C1109 1.376 . S
C1106 C1104 1.394 . S
C1106 C1107 1.369 . S
C1106 C1110 1.531 . S
C1107 C1106 1.369 . S
C1107 C1108 1.410 . S
C1107 C1115 1.503 . S
C1108 C1107 1.410 . S
C1108 C1109 1.392 . S
C1108 C1111 1.511 . S
C1109 C1105 1.376 . S
C1109 C1108 1.392 . S
C1109 H1121 0.929 . S
C1110 C1106 1.531 . S
C1110 H1122 0.960 . S
C1110 H1123 0.962 . S
C1110 H1124 0.960 . S
C1111 C1108 1.511 . S
C1111 H1125 0.961 . S
C1111 H1126 0.961 . S
C1111 H1127 0.961 . S
C1112 C1113 1.370 . S
C1112 C1114 1.363 . S
C1112 H1128 0.931 . S
C1113 C1112 1.370 . S
C1113 C1117 1.408 . S
C1114 C1112 1.363 . S
C1114 C1115 1.370 . S
C1114 C1118 1.524 . S
C1115 C1107 1.503 . S
C1115 C1114 1.370 . S
C1115 C1116 1.403 . S
C1116 C1115 1.403 . S
C1116 C1117 1.404 . S
C1116 C1119 1.539 . S
C1117 C1113 1.408 . S
C1117 C1116 1.404 . S
C1117 H1129 0.930 . S
C1118 C1114 1.524 . S
C1118 H1130 0.956 . S
C1118 H1131 0.961 . S
C1118 H1132 0.961 . S
C1119 C1116 1.539 . S
C1119 H1133 0.958 . S
C1119 H1134 0.961 . S
C1119 H1135 0.960 . S
H1120 C1104 0.931 . S
H1121 C1109 0.929 . S
H1122 C1110 0.960 . S
H1123 C1110 0.962 . S
H1124 C1110 0.960 . S
H1125 C1111 0.961 . S
H1126 C1111 0.961 . S
H1127 C1111 0.961 . S
H1128 C1112 0.931 . S
H1129 C1117 0.930 . S
H1130 C1118 0.956 . S
H1131 C1118 0.961 . S
H1132 C1118 0.961 . S
H1133 C1119 0.958 . S
H1134 C1119 0.961 . S
H1135 C1119 0.960 . S
C1136 C1137 1.391 . S
C1136 C1138 1.394 . S
C1136 H1152 0.931 . S
C1137 C1136 1.391 . S
C1137 C1141 1.376 . S
C1138 C1136 1.394 . S
C1138 C1139 1.369 . S
C1138 C1142 1.531 . S
C1139 C1138 1.369 . S
C1139 C1140 1.410 . S
C1139 C1147 1.503 1_455 S
C1140 C1139 1.410 . S
C1140 C1141 1.392 . S
C1140 C1143 1.511 . S
C1141 C1137 1.376 . S
C1141 C1140 1.392 . S
C1141 H1153 0.929 . S
C1142 C1138 1.531 . S
C1142 H1154 0.960 1_455 S
C1142 H1155 0.962 . S
C1142 H1156 0.960 . S
C1143 C1140 1.511 . S
C1143 H1157 0.961 . S
C1143 H1158 0.961 . S
C1143 H1159 0.961 . S
C1144 C1145 1.370 . S
C1144 C1146 1.363 . S
C1144 H1160 0.931 . S
C1145 C1144 1.370 . S
C1145 C1149 1.408 . S
C1146 C1144 1.363 . S
C1146 C1147 1.370 . S
C1146 C1150 1.524 1_655 S
C1147 C1139 1.503 1_655 S
C1147 C1146 1.370 . S
C1147 C1148 1.403 . S
C1148 C1147 1.403 . S
C1148 C1149 1.404 . S
C1148 C1151 1.539 . S
C1149 C1145 1.408 . S
C1149 C1148 1.404 . S
C1149 H1161 0.930 . S
C1150 C1146 1.524 1_455 S
C1150 H1162 0.956 . S
C1150 H1163 0.961 . S
C1150 H1164 0.961 . S
C1151 C1148 1.539 . S
C1151 H1165 0.958 . S
C1151 H1166 0.961 . S
C1151 H1167 0.960 . S
H1152 C1136 0.931 . S
H1153 C1141 0.929 . S
H1154 C1142 0.960 1_655 S
H1155 C1142 0.962 . S
H1156 C1142 0.960 . S
H1157 C1143 0.961 . S
H1158 C1143 0.961 . S
H1159 C1143 0.961 . S
H1160 C1144 0.931 . S
H1161 C1149 0.930 . S
H1162 C1150 0.956 . S
H1163 C1150 0.961 . S
H1164 C1150 0.961 . S
H1165 C1151 0.958 . S
H1166 C1151 0.961 . S
H1167 C1151 0.960 . S
C1168 C1169 1.391 . S
C1168 C1170 1.394 . S
C1168 H1184 0.931 . S
C1169 C1168 1.391 . S
C1169 C1173 1.376 . S
C1170 C1168 1.394 . S
C1170 C1171 1.369 . S
C1170 C1174 1.531 . S
C1171 C1170 1.369 . S
C1171 C1172 1.410 . S
C1171 C1179 1.503 1_565 S
C1172 C1171 1.410 . S
C1172 C1173 1.392 . S
C1172 C1175 1.511 . S
C1173 C1169 1.376 . S
C1173 C1172 1.392 . S
C1173 H1185 0.929 . S
C1174 C1170 1.531 . S
C1174 H1186 0.960 . S
C1174 H1187 0.962 . S
C1174 H1188 0.960 . S
C1175 C1172 1.511 . S
C1175 H1189 0.961 . S
C1175 H1190 0.961 1_565 S
C1175 H1191 0.961 1_565 S
C1176 C1177 1.370 . S
C1176 C1178 1.363 . S
C1176 H1192 0.931 . S
C1177 C1176 1.370 . S
C1177 C1181 1.408 . S
C1178 C1176 1.363 . S
C1178 C1179 1.370 . S
C1178 C1182 1.524 1_545 S
C1179 C1171 1.503 1_545 S
C1179 C1178 1.370 . S
C1179 C1180 1.403 . S
C1180 C1179 1.403 . S
C1180 C1181 1.404 . S
C1180 C1183 1.539 . S
C1181 C1177 1.408 . S
C1181 C1180 1.404 . S
C1181 H1193 0.930 . S
C1182 C1178 1.524 1_565 S
C1182 H1194 0.956 . S
C1182 H1195 0.961 . S
C1182 H1196 0.961 . S
C1183 C1180 1.539 . S
C1183 H1197 0.958 . S
C1183 H1198 0.961 . S
C1183 H1199 0.960 . S
H1184 C1168 0.931 . S
H1185 C1173 0.929 . S
H1186 C1174 0.960 . S
H1187 C1174 0.962 . S
H1188 C1174 0.960 . S
H1189 C1175 0.961 . S
H1190 C1175 0.961 1_545 S
H1191 C1175 0.961 1_545 S
H1192 C1176 0.931 . S
H1193 C1181 0.930 . S
H1194 C1182 0.956 . S
H1195 C1182 0.961 . S
H1196 C1182 0.961 . S
H1197 C1183 0.958 . S
H1198 C1183 0.961 . S
H1199 C1183 0.960 . S
C1200 C1201 1.391 . S
C1200 C1202 1.394 . S
C1200 H1216 0.931 . S
C1201 C1200 1.391 . S
C1201 C1205 1.376 . S
C1202 C1200 1.394 . S
C1202 C1203 1.369 . S
C1202 C1206 1.531 . S
C1203 C1202 1.369 . S
C1203 C1204 1.410 . S
C1203 C1211 1.503 . S
C1204 C1203 1.410 . S
C1204 C1205 1.392 . S
C1204 C1207 1.511 . S
C1205 C1201 1.376 . S
C1205 C1204 1.392 . S
C1205 H1217 0.929 . S
C1206 C1202 1.531 . S
C1206 H1218 0.960 . S
C1206 H1219 0.962 . S
C1206 H1220 0.960 . S
C1207 C1204 1.511 . S
C1207 H1221 0.961 . S
C1207 H1222 0.961 . S
C1207 H1223 0.961 . S
C1208 C1209 1.370 . S
C1208 C1210 1.363 . S
C1208 H1224 0.931 . S
C1209 C1208 1.370 . S
C1209 C1213 1.408 . S
C1210 C1208 1.363 . S
C1210 C1211 1.370 . S
C1210 C1214 1.524 . S
C1211 C1203 1.503 . S
C1211 C1210 1.370 . S
C1211 C1212 1.403 . S
C1212 C1211 1.403 . S
C1212 C1213 1.404 . S
C1212 C1215 1.539 . S
C1213 C1209 1.408 . S
C1213 C1212 1.404 . S
C1213 H1225 0.930 . S
C1214 C1210 1.524 . S
C1214 H1226 0.956 . S
C1214 H1227 0.961 . S
C1214 H1228 0.961 . S
C1215 C1212 1.539 . S
C1215 H1229 0.958 . S
C1215 H1230 0.961 . S
C1215 H1231 0.960 . S
H1216 C1200 0.931 . S
H1217 C1205 0.929 . S
H1218 C1206 0.960 . S
H1219 C1206 0.962 . S
H1220 C1206 0.960 . S
H1221 C1207 0.961 . S
H1222 C1207 0.961 . S
H1223 C1207 0.961 . S
H1224 C1208 0.931 . S
H1225 C1213 0.930 . S
H1226 C1214 0.956 . S
H1227 C1214 0.961 . S
H1228 C1214 0.961 . S
H1229 C1215 0.958 . S
H1230 C1215 0.961 . S
H1231 C1215 0.960 . S
C1232 C1233 1.391 . S
C1232 C1234 1.394 . S
C1232 H1248 0.931 . S
C1233 C1232 1.391 . S
C1233 C1237 1.376 . S
C1234 C1232 1.394 . S
C1234 C1235 1.369 . S
C1234 C1238 1.531 1_455 S
C1235 C1234 1.369 . S
C1235 C1236 1.410 . S
C1235 C1243 1.503 1_455 S
C1236 C1235 1.410 . S
C1236 C1237 1.392 . S
C1236 C1239 1.511 . S
C1237 C1233 1.376 . S
C1237 C1236 1.392 . S
C1237 H1249 0.929 . S
C1238 C1234 1.531 1_655 S
C1238 H1250 0.960 . S
C1238 H1251 0.962 . S
C1238 H1252 0.960 . S
C1239 C1236 1.511 . S
C1239 H1253 0.961 . S
C1239 H1254 0.961 . S
C1239 H1255 0.961 . S
C1240 C1241 1.370 . S
C1240 C1242 1.363 . S
C1240 H1256 0.931 . S
C1241 C1240 1.370 . S
C1241 C1245 1.408 . S
C1242 C1240 1.363 . S
C1242 C1243 1.370 . S
C1242 C1246 1.524 . S
C1243 C1235 1.503 1_655 S
C1243 C1242 1.370 . S
C1243 C1244 1.403 . S
C1244 C1243 1.403 . S
C1244 C1245 1.404 . S
C1244 C1247 1.539 . S
C1245 C1241 1.408 . S
C1245 C1244 1.404 . S
C1245 H1257 0.930 . S
C1246 C1242 1.524 . S
C1246 H1258 0.956 . S
C1246 H1259 0.961 . S
C1246 H1260 0.961 . S
C1247 C1244 1.539 . S
C1247 H1261 0.958 . S
C1247 H1262 0.961 . S
C1247 H1263 0.960 . S
H1248 C1232 0.931 . S
H1249 C1237 0.929 . S
H1250 C1238 0.960 . S
H1251 C1238 0.962 . S
H1252 C1238 0.960 . S
H1253 C1239 0.961 . S
H1254 C1239 0.961 . S
H1255 C1239 0.961 . S
H1256 C1240 0.931 . S
H1257 C1245 0.930 . S
H1258 C1246 0.956 . S
H1259 C1246 0.961 . S
H1260 C1246 0.961 . S
H1261 C1247 0.958 . S
H1262 C1247 0.961 . S
H1263 C1247 0.960 . S
C1264 C1265 1.391 . S
C1264 C1266 1.394 . S
C1264 H1280 0.931 . S
C1265 C1264 1.391 . S
C1265 C1269 1.376 . S
C1266 C1264 1.394 . S
C1266 C1267 1.369 . S
C1266 C1270 1.531 1_565 S
C1267 C1266 1.369 . S
C1267 C1268 1.410 . S
C1267 C1275 1.503 1_565 S
C1268 C1267 1.410 . S
C1268 C1269 1.392 . S
C1268 C1271 1.511 . S
C1269 C1265 1.376 . S
C1269 C1268 1.392 . S
C1269 H1281 0.929 . S
C1270 C1266 1.531 1_545 S
C1270 H1282 0.960 . S
C1270 H1283 0.962 . S
C1270 H1284 0.960 . S
C1271 C1268 1.511 . S
C1271 H1285 0.961 . S
C1271 H1286 0.961 . S
C1271 H1287 0.961 . S
C1272 C1273 1.370 . S
C1272 C1274 1.363 . S
C1272 H1288 0.931 . S
C1273 C1272 1.370 . S
C1273 C1277 1.408 . S
C1274 C1272 1.363 . S
C1274 C1275 1.370 . S
C1274 C1278 1.524 . S
C1275 C1267 1.503 1_545 S
C1275 C1274 1.370 . S
C1275 C1276 1.403 . S
C1276 C1275 1.403 . S
C1276 C1277 1.404 . S
C1276 C1279 1.539 . S
C1277 C1273 1.408 . S
C1277 C1276 1.404 . S
C1277 H1289 0.930 . S
C1278 C1274 1.524 . S
C1278 H1290 0.956 . S
C1278 H1291 0.961 . S
C1278 H1292 0.961 . S
C1279 C1276 1.539 . S
C1279 H1293 0.958 . S
C1279 H1294 0.961 . S
C1279 H1295 0.960 . S
H1280 C1264 0.931 . S
H1281 C1269 0.929 . S
H1282 C1270 0.960 . S
H1283 C1270 0.962 . S
H1284 C1270 0.960 . S
H1285 C1271 0.961 . S
H1286 C1271 0.961 . S
H1287 C1271 0.961 . S
H1288 C1272 0.931 . S
H1289 C1277 0.930 . S
H1290 C1278 0.956 . S
H1291 C1278 0.961 . S
H1292 C1278 0.961 . S
H1293 C1279 0.958 . S
H1294 C1279 0.961 . S
H1295 C1279 0.960 . S
C1296 C1297 1.391 . S
C1296 C1298 1.394 . S
C1296 H1312 0.931 . S
C1297 C1296 1.391 . S
C1297 C1301 1.376 . S
C1298 C1296 1.394 . S
C1298 C1299 1.369 . S
C1298 C1302 1.531 . S
C1299 C1298 1.369 . S
C1299 C1300 1.410 . S
C1299 C1307 1.503 . S
C1300 C1299 1.410 . S
C1300 C1301 1.392 . S
C1300 C1303 1.511 . S
C1301 C1297 1.376 . S
C1301 C1300 1.392 . S
C1301 H1313 0.929 . S
C1302 C1298 1.531 . S
C1302 H1314 0.960 . S
C1302 H1315 0.962 . S
C1302 H1316 0.960 . S
C1303 C1300 1.511 . S
C1303 H1317 0.961 . S
C1303 H1318 0.961 . S
C1303 H1319 0.961 . S
C1304 C1305 1.370 . S
C1304 C1306 1.363 . S
C1304 H1320 0.931 . S
C1305 C1304 1.370 . S
C1305 C1309 1.408 . S
C1306 C1304 1.363 . S
C1306 C1307 1.370 . S
C1306 C1310 1.524 . S
C1307 C1299 1.503 . S
C1307 C1306 1.370 . S
C1307 C1308 1.403 . S
C1308 C1307 1.403 . S
C1308 C1309 1.404 . S
C1308 C1311 1.539 . S
C1309 C1305 1.408 . S
C1309 C1308 1.404 . S
C1309 H1321 0.930 . S
C1310 C1306 1.524 . S
C1310 H1322 0.956 . S
C1310 H1323 0.961 . S
C1310 H1324 0.961 . S
C1311 C1308 1.539 . S
C1311 H1325 0.958 . S
C1311 H1326 0.961 . S
C1311 H1327 0.960 . S
H1312 C1296 0.931 . S
H1313 C1301 0.929 . S
H1314 C1302 0.960 . S
H1315 C1302 0.962 . S
H1316 C1302 0.960 . S
H1317 C1303 0.961 . S
H1318 C1303 0.961 . S
H1319 C1303 0.961 . S
H1320 C1304 0.931 . S
H1321 C1309 0.930 . S
H1322 C1310 0.956 . S
H1323 C1310 0.961 . S
H1324 C1310 0.961 . S
H1325 C1311 0.958 . S
H1326 C1311 0.961 . S
H1327 C1311 0.960 . S
C1328 C1329 1.391 . S
C1328 C1330 1.394 . S
C1328 H1344 0.931 . S
C1329 C1328 1.391 . S
C1329 C1333 1.376 . S
C1330 C1328 1.394 . S
C1330 C1331 1.369 . S
C1330 C1334 1.531 1_455 S
C1331 C1330 1.369 . S
C1331 C1332 1.410 . S
C1331 C1339 1.503 1_455 S
C1332 C1331 1.410 . S
C1332 C1333 1.392 . S
C1332 C1335 1.511 . S
C1333 C1329 1.376 . S
C1333 C1332 1.392 . S
C1333 H1345 0.929 . S
C1334 C1330 1.531 1_655 S
C1334 H1346 0.960 . S
C1334 H1347 0.962 . S
C1334 H1348 0.960 . S
C1335 C1332 1.511 . S
C1335 H1349 0.961 . S
C1335 H1350 0.961 . S
C1335 H1351 0.961 . S
C1336 C1337 1.370 . S
C1336 C1338 1.363 . S
C1336 H1352 0.931 . S
C1337 C1336 1.370 . S
C1337 C1341 1.408 . S
C1338 C1336 1.363 . S
C1338 C1339 1.370 . S
C1338 C1342 1.524 . S
C1339 C1331 1.503 1_655 S
C1339 C1338 1.370 . S
C1339 C1340 1.403 . S
C1340 C1339 1.403 . S
C1340 C1341 1.404 . S
C1340 C1343 1.539 . S
C1341 C1337 1.408 . S
C1341 C1340 1.404 . S
C1341 H1353 0.930 . S
C1342 C1338 1.524 . S
C1342 H1354 0.956 . S
C1342 H1355 0.967 . S
C1342 H1356 0.961 . S
C1343 C1340 1.539 . S
C1343 H1357 0.958 . S
C1343 H1358 0.961 . S
C1343 H1359 0.960 . S
H1344 C1328 0.931 . S
H1345 C1333 0.929 . S
H1346 C1334 0.960 . S
H1347 C1334 0.962 . S
H1348 C1334 0.960 . S
H1349 C1335 0.961 . S
H1350 C1335 0.961 . S
H1351 C1335 0.961 . S
H1352 C1336 0.931 . S
H1353 C1341 0.930 . S
H1354 C1342 0.956 . S
H1355 C1342 0.967 . S
H1356 C1342 0.961 . S
H1357 C1343 0.958 . S
H1358 C1343 0.961 . S
H1359 C1343 0.960 . S
C1360 C1361 1.391 . S
C1360 C1362 1.394 . S
C1360 H1376 0.931 . S
C1361 C1360 1.391 . S
C1361 C1365 1.376 . S
C1362 C1360 1.394 . S
C1362 C1363 1.369 . S
C1362 C1366 1.531 . S
C1363 C1362 1.369 . S
C1363 C1364 1.410 . S
C1363 C1371 1.503 1_545 S
C1364 C1363 1.410 . S
C1364 C1365 1.392 . S
C1364 C1367 1.511 . S
C1365 C1361 1.376 . S
C1365 C1364 1.392 . S
C1365 H1377 0.929 . S
C1366 C1362 1.531 . S
C1366 H1378 0.960 1_545 S
C1366 H1379 0.962 . S
C1366 H1380 0.960 . S
C1367 C1364 1.511 . S
C1367 H1381 0.961 . S
C1367 H1382 0.961 . S
C1367 H1383 0.961 . S
C1368 C1369 1.370 . S
C1368 C1370 1.363 . S
C1368 H1384 0.931 . S
C1369 C1368 1.370 . S
C1369 C1373 1.408 . S
C1370 C1368 1.363 . S
C1370 C1371 1.370 . S
C1370 C1374 1.524 1_565 S
C1371 C1363 1.503 1_565 S
C1371 C1370 1.370 . S
C1371 C1372 1.403 . S
C1372 C1371 1.403 . S
C1372 C1373 1.404 . S
C1372 C1375 1.539 . S
C1373 C1369 1.408 . S
C1373 C1372 1.404 . S
C1373 H1385 0.930 . S
C1374 C1370 1.524 1_545 S
C1374 H1386 0.956 . S
C1374 H1387 0.961 . S
C1374 H1388 0.961 . S
C1375 C1372 1.539 . S
C1375 H1389 0.958 . S
C1375 H1390 0.961 . S
C1375 H1391 0.960 . S
H1376 C1360 0.931 . S
H1377 C1365 0.929 . S
H1378 C1366 0.960 1_565 S
H1379 C1366 0.962 . S
H1380 C1366 0.960 . S
H1381 C1367 0.961 . S
H1382 C1367 0.961 . S
H1383 C1367 0.961 . S
H1384 C1368 0.931 . S
H1385 C1373 0.930 . S
H1386 C1374 0.956 . S
H1387 C1374 0.961 . S
H1388 C1374 0.961 . S
H1389 C1375 0.958 . S
H1390 C1375 0.961 . S
H1391 C1375 0.960 . S
C1392 C1393 1.391 . S
C1392 C1394 1.394 . S
C1392 H1408 0.931 . S
C1393 C1392 1.391 . S
C1393 C1397 1.376 . S
C1394 C1392 1.394 . S
C1394 C1395 1.369 . S
C1394 C1398 1.531 . S
C1395 C1394 1.369 . S
C1395 C1396 1.410 . S
C1395 C1403 1.503 . S
C1396 C1395 1.410 . S
C1396 C1397 1.392 . S
C1396 C1399 1.511 . S
C1397 C1393 1.376 . S
C1397 C1396 1.392 . S
C1397 H1409 0.929 . S
C1398 C1394 1.531 . S
C1398 H1410 0.960 . S
C1398 H1411 0.962 . S
C1398 H1412 0.960 . S
C1399 C1396 1.511 . S
C1399 H1413 0.961 . S
C1399 H1414 0.961 . S
C1399 H1415 0.961 . S
C1400 C1401 1.370 . S
C1400 C1402 1.363 . S
C1400 H1416 0.931 . S
C1401 C1400 1.370 . S
C1401 C1405 1.408 . S
C1402 C1400 1.363 . S
C1402 C1403 1.370 . S
C1402 C1406 1.524 . S
C1403 C1395 1.503 . S
C1403 C1402 1.370 . S
C1403 C1404 1.403 . S
C1404 C1403 1.403 . S
C1404 C1405 1.404 . S
C1404 C1407 1.539 . S
C1405 C1401 1.408 . S
C1405 C1404 1.404 . S
C1405 H1417 0.930 . S
C1406 C1402 1.524 . S
C1406 H1418 0.956 . S
C1406 H1419 0.961 . S
C1406 H1420 0.961 . S
C1407 C1404 1.539 . S
C1407 H1421 0.958 . S
C1407 H1422 0.961 . S
C1407 H1423 0.960 . S
H1408 C1392 0.931 . S
H1409 C1397 0.929 . S
H1410 C1398 0.960 . S
H1411 C1398 0.962 . S
H1412 C1398 0.960 . S
H1413 C1399 0.961 . S
H1414 C1399 0.961 . S
H1415 C1399 0.961 . S
H1416 C1400 0.931 . S
H1417 C1405 0.930 . S
H1418 C1406 0.956 . S
H1419 C1406 0.961 . S
H1420 C1406 0.961 . S
H1421 C1407 0.958 . S
H1422 C1407 0.961 . S
H1423 C1407 0.960 . S
C1424 C1425 1.391 . S
C1424 C1426 1.394 . S
C1424 H1440 0.931 . S
C1425 C1424 1.391 . S
C1425 C1429 1.376 . S
C1426 C1424 1.394 . S
C1426 C1427 1.369 . S
C1426 C1430 1.531 . S
C1427 C1426 1.369 . S
C1427 C1428 1.410 . S
C1427 C1435 1.503 . S
C1428 C1427 1.410 . S
C1428 C1429 1.392 . S
C1428 C1431 1.511 . S
C1429 C1425 1.376 . S
C1429 C1428 1.392 . S
C1429 H1441 0.929 . S
C1430 C1426 1.531 . S
C1430 H1442 0.960 . S
C1430 H1443 0.962 . S
C1430 H1444 0.960 . S
C1431 C1428 1.511 . S
C1431 H1445 0.961 . S
C1431 H1446 0.961 . S
C1431 H1447 0.961 . S
C1432 C1433 1.370 . S
C1432 C1434 1.363 . S
C1432 H1448 0.931 . S
C1433 C1432 1.370 . S
C1433 C1437 1.408 . S
C1434 C1432 1.363 . S
C1434 C1435 1.370 . S
C1434 C1438 1.524 . S
C1435 C1427 1.503 . S
C1435 C1434 1.370 . S
C1435 C1436 1.403 . S
C1436 C1435 1.403 . S
C1436 C1437 1.404 . S
C1436 C1439 1.539 . S
C1437 C1433 1.408 . S
C1437 C1436 1.404 . S
C1437 H1449 0.930 . S
C1438 C1434 1.524 . S
C1438 H1450 0.956 . S
C1438 H1451 0.961 . S
C1438 H1452 0.961 . S
C1439 C1436 1.539 . S
C1439 H1453 0.958 . S
C1439 H1454 0.961 . S
C1439 H1455 0.960 . S
H1440 C1424 0.931 . S
H1441 C1429 0.929 . S
H1442 C1430 0.960 . S
H1443 C1430 0.962 . S
H1444 C1430 0.960 . S
H1445 C1431 0.961 . S
H1446 C1431 0.961 . S
H1447 C1431 0.961 . S
H1448 C1432 0.931 . S
H1449 C1437 0.930 . S
H1450 C1438 0.956 . S
H1451 C1438 0.961 . S
H1452 C1438 0.961 . S
H1453 C1439 0.958 . S
H1454 C1439 0.961 . S
H1455 C1439 0.960 . S
C1456 C1457 1.391 . S
C1456 C1458 1.394 . S
C1456 H1472 0.931 . S
C1457 C1456 1.391 . S
C1457 C1461 1.376 . S
C1458 C1456 1.394 . S
C1458 C1459 1.369 . S
C1458 C1462 1.531 . S
C1459 C1458 1.369 . S
C1459 C1460 1.410 . S
C1459 C1467 1.503 . S
C1460 C1459 1.410 . S
C1460 C1461 1.392 . S
C1460 C1463 1.511 . S
C1461 C1457 1.376 . S
C1461 C1460 1.392 . S
C1461 H1473 0.929 . S
C1462 C1458 1.531 . S
C1462 H1474 0.960 . S
C1462 H1475 0.962 . S
C1462 H1476 0.960 . S
C1463 C1460 1.511 . S
C1463 H1477 0.961 . S
C1463 H1478 0.961 . S
C1463 H1479 0.961 . S
C1464 C1465 1.370 . S
C1464 C1466 1.363 . S
C1464 H1480 0.931 . S
C1465 C1464 1.370 . S
C1465 C1469 1.408 . S
C1466 C1464 1.363 . S
C1466 C1467 1.370 . S
C1466 C1470 1.524 . S
C1467 C1459 1.503 . S
C1467 C1466 1.370 . S
C1467 C1468 1.403 . S
C1468 C1467 1.403 . S
C1468 C1469 1.404 . S
C1468 C1471 1.539 . S
C1469 C1465 1.408 . S
C1469 C1468 1.404 . S
C1469 H1481 0.930 . S
C1470 C1466 1.524 . S
C1470 H1482 0.956 . S
C1470 H1483 0.961 . S
C1470 H1484 0.961 . S
C1471 C1468 1.539 . S
C1471 H1485 0.958 . S
C1471 H1486 0.961 . S
C1471 H1487 0.960 . S
H1472 C1456 0.931 . S
H1473 C1461 0.929 . S
H1474 C1462 0.960 . S
H1475 C1462 0.962 . S
H1476 C1462 0.960 . S
H1477 C1463 0.961 . S
H1478 C1463 0.961 . S
H1479 C1463 0.961 . S
H1480 C1464 0.931 . S
H1481 C1469 0.930 . S
H1482 C1470 0.956 . S
H1483 C1470 0.961 . S
H1484 C1470 0.961 . S
H1485 C1471 0.958 . S
H1486 C1471 0.961 . S
H1487 C1471 0.960 . S
C1488 C1489 1.391 . S
C1488 C1490 1.394 . S
C1488 H1504 0.931 . S
C1489 C1488 1.391 . S
C1489 C1493 1.376 . S
C1490 C1488 1.394 . S
C1490 C1491 1.369 . S
C1490 C1494 1.531 . S
C1491 C1490 1.369 . S
C1491 C1492 1.410 . S
C1491 C1499 1.503 . S
C1492 C1491 1.410 . S
C1492 C1493 1.392 . S
C1492 C1495 1.511 . S
C1493 C1489 1.376 . S
C1493 C1492 1.392 . S
C1493 H1505 0.929 . S
C1494 C1490 1.531 . S
C1494 H1506 0.960 . S
C1494 H1507 0.962 . S
C1494 H1508 0.960 . S
C1495 C1492 1.511 . S
C1495 H1509 0.961 . S
C1495 H1510 0.961 . S
C1495 H1511 0.961 . S
C1496 C1497 1.370 . S
C1496 C1498 1.363 . S
C1496 H1512 0.931 . S
C1497 C1496 1.370 . S
C1497 C1501 1.408 . S
C1498 C1496 1.363 . S
C1498 C1499 1.370 . S
C1498 C1502 1.524 . S
C1499 C1491 1.503 . S
C1499 C1498 1.370 . S
C1499 C1500 1.403 . S
C1500 C1499 1.403 . S
C1500 C1501 1.404 . S
C1500 C1503 1.539 . S
C1501 C1497 1.408 . S
C1501 C1500 1.404 . S
C1501 H1513 0.930 . S
C1502 C1498 1.524 . S
C1502 H1514 0.956 . S
C1502 H1515 0.961 . S
C1502 H1516 0.961 . S
C1503 C1500 1.539 . S
C1503 H1517 0.958 . S
C1503 H1518 0.961 . S
C1503 H1519 0.960 . S
H1504 C1488 0.931 . S
H1505 C1493 0.929 . S
H1506 C1494 0.960 . S
H1507 C1494 0.962 . S
H1508 C1494 0.960 . S
H1509 C1495 0.961 . S
H1510 C1495 0.961 . S
H1511 C1495 0.961 . S
H1512 C1496 0.931 . S
H1513 C1501 0.930 . S
H1514 C1502 0.956 . S
H1515 C1502 0.961 . S
H1516 C1502 0.961 . S
H1517 C1503 0.958 . S
H1518 C1503 0.961 . S
H1519 C1503 0.960 . S
C1520 C1521 1.391 . S
C1520 C1522 1.394 . S
C1520 H1536 0.931 . S
C1521 C1520 1.391 . S
C1521 C1525 1.376 . S
C1522 C1520 1.394 . S
C1522 C1523 1.369 . S
C1522 C1526 1.531 . S
C1523 C1522 1.369 . S
C1523 C1524 1.410 . S
C1523 C1531 1.503 . S
C1524 C1523 1.410 . S
C1524 C1525 1.392 . S
C1524 C1527 1.511 . S
C1525 C1521 1.376 . S
C1525 C1524 1.392 . S
C1525 H1537 0.929 . S
C1526 C1522 1.531 . S
C1526 H1538 0.960 . S
C1526 H1539 0.962 . S
C1526 H1540 0.960 . S
C1527 C1524 1.511 . S
C1527 H1541 0.961 . S
C1527 H1542 0.961 . S
C1527 H1543 0.961 . S
C1528 C1529 1.370 . S
C1528 C1530 1.363 . S
C1528 H1544 0.931 . S
C1529 C1528 1.370 . S
C1529 C1533 1.408 . S
C1530 C1528 1.363 . S
C1530 C1531 1.370 . S
C1530 C1534 1.524 . S
C1531 C1523 1.503 . S
C1531 C1530 1.370 . S
C1531 C1532 1.403 . S
C1532 C1531 1.403 . S
C1532 C1533 1.404 . S
C1532 C1535 1.539 . S
C1533 C1529 1.408 . S
C1533 C1532 1.404 . S
C1533 H1545 0.930 . S
C1534 C1530 1.524 . S
C1534 H1546 0.956 . S
C1534 H1547 0.961 . S
C1534 H1548 0.961 . S
C1535 C1532 1.539 . S
C1535 H1549 0.958 . S
C1535 H1550 0.961 . S
C1535 H1551 0.960 . S
H1536 C1520 0.931 . S
H1537 C1525 0.929 . S
H1538 C1526 0.960 . S
H1539 C1526 0.962 . S
H1540 C1526 0.960 . S
H1541 C1527 0.961 . S
H1542 C1527 0.961 . S
H1543 C1527 0.961 . S
H1544 C1528 0.931 . S
H1545 C1533 0.930 . S
H1546 C1534 0.956 . S
H1547 C1534 0.961 . S
H1548 C1534 0.961 . S
H1549 C1535 0.958 . S
H1550 C1535 0.961 . S
H1551 C1535 0.960 . S
C1552 C1553 1.391 . S
C1552 C1554 1.394 . S
C1552 H1568 0.931 . S
C1553 C1552 1.391 . S
C1553 C1557 1.376 . S
C1554 C1552 1.394 . S
C1554 C1555 1.369 . S
C1554 C1558 1.531 . S
C1555 C1554 1.369 . S
C1555 C1556 1.410 . S
C1555 C1563 1.503 . S
C1556 C1555 1.410 . S
C1556 C1557 1.392 . S
C1556 C1559 1.511 . S
C1557 C1553 1.376 . S
C1557 C1556 1.392 . S
C1557 H1569 0.929 . S
C1558 C1554 1.531 . S
C1558 H1570 0.960 . S
C1558 H1571 0.962 . S
C1558 H1572 0.960 . S
C1559 C1556 1.511 . S
C1559 H1573 0.961 . S
C1559 H1574 0.961 . S
C1559 H1575 0.961 . S
C1560 C1561 1.370 . S
C1560 C1562 1.363 . S
C1560 H1576 0.931 . S
C1561 C1560 1.370 . S
C1561 C1565 1.408 . S
C1562 C1560 1.363 . S
C1562 C1563 1.370 . S
C1562 C1566 1.524 . S
C1563 C1555 1.503 . S
C1563 C1562 1.370 . S
C1563 C1564 1.403 . S
C1564 C1563 1.403 . S
C1564 C1565 1.404 . S
C1564 C1567 1.539 . S
C1565 C1561 1.408 . S
C1565 C1564 1.404 . S
C1565 H1577 0.930 . S
C1566 C1562 1.524 . S
C1566 H1578 0.956 . S
C1566 H1579 0.961 . S
C1566 H1580 0.961 . S
C1567 C1564 1.539 . S
C1567 H1581 0.958 . S
C1567 H1582 0.961 . S
C1567 H1583 0.960 . S
H1568 C1552 0.931 . S
H1569 C1557 0.929 . S
H1570 C1558 0.960 . S
H1571 C1558 0.962 . S
H1572 C1558 0.960 . S
H1573 C1559 0.961 . S
H1574 C1559 0.961 . S
H1575 C1559 0.961 . S
H1576 C1560 0.931 . S
H1577 C1565 0.930 . S
H1578 C1566 0.956 . S
H1579 C1566 0.961 . S
H1580 C1566 0.961 . S
H1581 C1567 0.958 . S
H1582 C1567 0.961 . S
H1583 C1567 0.960 . S
C1584 C1585 1.391 . S
C1584 C1586 1.394 . S
C1584 H1600 0.931 . S
C1585 C1584 1.391 . S
C1585 C1589 1.376 . S
C1586 C1584 1.394 . S
C1586 C1587 1.369 . S
C1586 C1590 1.531 1_565 S
C1587 C1586 1.369 . S
C1587 C1588 1.420 . S
C1587 C1595 1.503 1_566 S
C1588 C1587 1.420 . S
C1588 C1589 1.409 . S
C1588 C1591 1.484 1_556 S
C1589 C1585 1.376 . S
C1589 C1588 1.409 . S
C1589 H1601 0.929 . S
C1590 C1586 1.531 1_545 S
C1590 H1602 0.960 . S
C1590 H1603 0.962 . S
C1590 H1604 0.960 . S
C1591 C1588 1.484 1_554 S
C1591 H1605 0.961 . S
C1591 H1606 0.961 . S
C1591 H1607 0.961 . S
C1592 C1593 1.370 . S
C1592 C1594 1.363 . S
C1592 H1608 0.931 . S
C1593 C1592 1.370 . S
C1593 C1597 1.408 . S
C1594 C1592 1.363 . S
C1594 C1595 1.370 . S
C1594 C1598 1.524 1_545 S
C1595 C1587 1.503 1_544 S
C1595 C1594 1.370 . S
C1595 C1596 1.403 . S
C1596 C1595 1.403 . S
C1596 C1597 1.404 . S
C1596 C1599 1.539 1_554 S
C1597 C1593 1.408 . S
C1597 C1596 1.404 . S
C1597 H1609 0.930 . S
C1598 C1594 1.524 1_565 S
C1598 H1610 0.957 1_565 S
C1598 H1611 0.961 . S
C1598 H1612 0.961 1_565 S
C1599 C1596 1.539 1_556 S
C1599 H1613 0.958 . S
C1599 H1614 0.961 1_556 S
C1599 H1615 0.960 . S
H1600 C1584 0.931 . S
H1601 C1589 0.929 . S
H1602 C1590 0.960 . S
H1603 C1590 0.962 . S
H1604 C1590 0.960 . S
H1605 C1591 0.961 . S
H1606 C1591 0.961 . S
H1607 C1591 0.961 . S
H1608 C1592 0.931 . S
H1609 C1597 0.930 . S
H1610 C1598 0.957 1_545 S
H1611 C1598 0.961 . S
H1612 C1598 0.961 1_545 S
H1613 C1599 0.958 . S
H1614 C1599 0.961 1_554 S
H1615 C1599 0.960 . S
C1616 C1617 1.391 . S
C1616 C1618 1.394 . S
C1616 H1632 0.931 . S
C1617 C1616 1.391 . S
C1617 C1621 1.376 . S
C1618 C1616 1.394 . S
C1618 C1619 1.369 . S
C1618 C1622 1.531 . S
C1619 C1618 1.369 . S
C1619 C1620 1.410 . S
C1619 C1627 1.503 . S
C1620 C1619 1.410 . S
C1620 C1621 1.392 . S
C1620 C1623 1.511 . S
C1621 C1617 1.376 . S
C1621 C1620 1.392 . S
C1621 H1633 0.929 . S
C1622 C1618 1.531 . S
C1622 H1634 0.960 . S
C1622 H1635 0.962 . S
C1622 H1636 0.960 . S
C1623 C1620 1.511 . S
C1623 H1637 0.961 . S
C1623 H1638 0.961 . S
C1623 H1639 0.961 . S
C1624 C1625 1.370 . S
C1624 C1626 1.363 . S
C1624 H1640 0.931 . S
C1625 C1624 1.370 . S
C1625 C1629 1.408 . S
C1626 C1624 1.363 . S
C1626 C1627 1.370 . S
C1626 C1630 1.524 . S
C1627 C1619 1.503 . S
C1627 C1626 1.370 . S
C1627 C1628 1.403 . S
C1628 C1627 1.403 . S
C1628 C1629 1.404 . S
C1628 C1631 1.539 . S
C1629 C1625 1.408 . S
C1629 C1628 1.404 . S
C1629 H1641 0.930 . S
C1630 C1626 1.524 . S
C1630 H1642 0.956 . S
C1630 H1643 0.961 . S
C1630 H1644 0.961 . S
C1631 C1628 1.539 . S
C1631 H1645 0.958 . S
C1631 H1646 0.961 . S
C1631 H1647 0.960 . S
H1632 C1616 0.931 . S
H1633 C1621 0.929 . S
H1634 C1622 0.960 . S
H1635 C1622 0.962 . S
H1636 C1622 0.960 . S
H1637 C1623 0.961 . S
H1638 C1623 0.961 . S
H1639 C1623 0.961 . S
H1640 C1624 0.931 . S
H1641 C1629 0.930 . S
H1642 C1630 0.956 . S
H1643 C1630 0.961 . S
H1644 C1630 0.961 . S
H1645 C1631 0.958 . S
H1646 C1631 0.961 . S
H1647 C1631 0.960 . S
C1648 C1649 1.391 . S
C1648 C1650 1.394 . S
C1648 H1664 0.931 . S
C1649 C1648 1.391 . S
C1649 C1653 1.376 . S
C1650 C1648 1.394 . S
C1650 C1651 1.369 . S
C1650 C1654 1.531 . S
C1651 C1650 1.369 . S
C1651 C1652 1.410 . S
C1651 C1659 1.503 1_456 S
C1652 C1651 1.410 . S
C1652 C1653 1.392 . S
C1652 C1655 1.511 1_556 S
C1653 C1649 1.376 . S
C1653 C1652 1.392 . S
C1653 H1665 0.929 . S
C1654 C1650 1.531 . S
C1654 H1666 0.960 1_556 S
C1654 H1667 0.962 1_455 S
C1654 H1668 0.960 . S
C1655 C1652 1.511 1_554 S
C1655 H1669 0.961 1_554 S
C1655 H1670 0.961 . S
C1655 H1671 0.961 . S
C1656 C1657 1.370 . S
C1656 C1658 1.374 . S
C1656 H1672 0.931 . S
C1657 C1656 1.370 . S
C1657 C1661 1.408 . S
C1658 C1656 1.374 . S
C1658 C1659 1.379 . S
C1658 C1662 1.505 1_554 S
C1659 C1651 1.503 1_654 S
C1659 C1658 1.379 . S
C1659 C1660 1.403 . S
C1660 C1659 1.403 . S
C1660 C1661 1.404 . S
C1660 C1663 1.539 1_655 S
C1661 C1657 1.408 . S
C1661 C1660 1.404 . S
C1661 H1673 0.930 . S
C1662 C1658 1.505 1_556 S
C1662 H1674 0.956 . S
C1662 H1675 0.961 . S
C1662 H1676 0.961 . S
C1663 C1660 1.539 1_455 S
C1663 H1677 0.958 . S
C1663 H1678 0.961 . S
C1663 H1679 0.960 . S
H1664 C1648 0.931 . S
H1665 C1653 0.929 . S
H1666 C1654 0.960 1_554 S
H1667 C1654 0.962 1_655 S
H1668 C1654 0.960 . S
H1669 C1655 0.961 1_556 S
H1670 C1655 0.961 . S
H1671 C1655 0.961 . S
H1672 C1656 0.931 . S
H1673 C1661 0.930 . S
H1674 C1662 0.956 . S
H1675 C1662 0.961 . S
H1676 C1662 0.961 . S
H1677 C1663 0.958 . S
H1678 C1663 0.961 . S
H1679 C1663 0.960 . S
C1680 C1681 1.391 . S
C1680 C1682 1.394 . S
C1680 H1696 0.931 . S
C1681 C1680 1.391 . S
C1681 C1685 1.376 . S
C1682 C1680 1.394 . S
C1682 C1683 1.369 . S
C1682 C1686 1.531 1_545 S
C1683 C1682 1.369 . S
C1683 C1684 1.410 . S
C1683 C1691 1.503 1_545 S
C1684 C1683 1.410 . S
C1684 C1685 1.392 . S
C1684 C1687 1.511 . S
C1685 C1681 1.376 . S
C1685 C1684 1.392 . S
C1685 H1697 0.929 . S
C1686 C1682 1.531 1_565 S
C1686 H1698 0.960 . S
C1686 H1699 0.962 . S
C1686 H1700 0.960 . S
C1687 C1684 1.511 . S
C1687 H1701 0.961 . S
C1687 H1702 0.961 . S
C1687 H1703 0.961 . S
C1688 C1689 1.370 . S
C1688 C1690 1.363 . S
C1688 H1704 0.931 . S
C1689 C1688 1.370 . S
C1689 C1693 1.408 . S
C1690 C1688 1.363 . S
C1690 C1691 1.370 . S
C1690 C1694 1.524 1_565 S
C1691 C1683 1.503 1_565 S
C1691 C1690 1.370 . S
C1691 C1692 1.403 . S
C1692 C1691 1.403 . S
C1692 C1693 1.404 . S
C1692 C1695 1.539 . S
C1693 C1689 1.408 . S
C1693 C1692 1.404 . S
C1693 H1705 0.930 . S
C1694 C1690 1.524 1_545 S
C1694 H1706 0.956 . S
C1694 H1707 0.961 . S
C1694 H1708 0.961 1_545 S
C1695 C1692 1.539 . S
C1695 H1709 0.958 . S
C1695 H1710 0.961 . S
C1695 H1711 0.960 . S
H1696 C1680 0.931 . S
H1697 C1685 0.929 . S
H1698 C1686 0.960 . S
H1699 C1686 0.962 . S
H1700 C1686 0.960 . S
H1701 C1687 0.961 . S
H1702 C1687 0.961 . S
H1703 C1687 0.961 . S
H1704 C1688 0.931 . S
H1705 C1693 0.930 . S
H1706 C1694 0.956 . S
H1707 C1694 0.961 . S
H1708 C1694 0.961 1_565 S
H1709 C1695 0.958 . S
H1710 C1695 0.961 . S
H1711 C1695 0.960 . S
C1712 C1713 1.391 . S
C1712 C1714 1.394 1_554 S
C1712 H1728 0.931 . S
C1713 C1712 1.391 . S
C1713 C1717 1.376 . S
C1714 C1712 1.394 1_556 S
C1714 C1715 1.369 1_556 S
C1714 C1718 1.531 . S
C1715 C1714 1.369 1_554 S
C1715 C1716 1.410 . S
C1715 C1723 1.503 1_554 S
C1716 C1715 1.410 . S
C1716 C1717 1.392 . S
C1716 C1719 1.511 . S
C1717 C1713 1.376 . S
C1717 C1716 1.392 . S
C1717 H1729 0.929 . S
C1718 C1714 1.531 . S
C1718 H1730 0.960 . S
C1718 H1731 0.962 . S
C1718 H1732 0.960 . S
C1719 C1716 1.511 . S
C1719 H1733 0.961 . S
C1719 H1734 0.961 . S
C1719 H1735 0.961 . S
C1720 C1721 1.370 . S
C1720 C1722 1.363 . S
C1720 H1736 0.931 . S
C1721 C1720 1.370 . S
C1721 C1725 1.408 . S
C1722 C1720 1.363 . S
C1722 C1723 1.370 . S
C1722 C1726 1.524 . S
C1723 C1715 1.503 1_556 S
C1723 C1722 1.370 . S
C1723 C1724 1.403 . S
C1724 C1723 1.403 . S
C1724 C1725 1.404 . S
C1724 C1727 1.539 . S
C1725 C1721 1.408 . S
C1725 C1724 1.404 . S
C1725 H1737 0.930 . S
C1726 C1722 1.524 . S
C1726 H1738 0.956 . S
C1726 H1739 0.961 1_556 S
C1726 H1740 0.961 . S
C1727 C1724 1.539 . S
C1727 H1741 0.958 . S
C1727 H1742 0.961 . S
C1727 H1743 0.960 1_556 S
H1728 C1712 0.931 . S
H1729 C1717 0.929 . S
H1730 C1718 0.960 . S
H1731 C1718 0.962 . S
H1732 C1718 0.960 . S
H1733 C1719 0.961 . S
H1734 C1719 0.961 . S
H1735 C1719 0.961 . S
H1736 C1720 0.931 . S
H1737 C1725 0.930 . S
H1738 C1726 0.956 . S
H1739 C1726 0.961 1_554 S
H1740 C1726 0.961 . S
H1741 C1727 0.958 . S
H1742 C1727 0.961 . S
H1743 C1727 0.960 1_554 S
C1744 C1745 1.391 . S
C1744 C1746 1.394 . S
C1744 H1760 0.931 . S
C1745 C1744 1.391 . S
C1745 C1749 1.376 . S
C1746 C1744 1.394 . S
C1746 C1747 1.369 . S
C1746 C1750 1.531 1_455 S
C1747 C1746 1.369 . S
C1747 C1748 1.410 . S
C1747 C1755 1.503 1_455 S
C1748 C1747 1.410 . S
C1748 C1749 1.392 . S
C1748 C1751 1.511 . S
C1749 C1745 1.376 . S
C1749 C1748 1.392 . S
C1749 H1761 0.929 . S
C1750 C1746 1.531 1_655 S
C1750 H1762 0.960 . S
C1750 H1763 0.962 . S
C1750 H1764 0.960 . S
C1751 C1748 1.511 . S
C1751 H1765 0.961 . S
C1751 H1766 0.961 . S
C1751 H1767 0.961 . S
C1752 C1753 1.370 . S
C1752 C1754 1.363 . S
C1752 H1768 0.931 . S
C1753 C1752 1.370 . S
C1753 C1757 1.408 . S
C1754 C1752 1.363 . S
C1754 C1755 1.370 . S
C1754 C1758 1.524 1_655 S
C1755 C1747 1.503 1_655 S
C1755 C1754 1.370 . S
C1755 C1756 1.403 . S
C1756 C1755 1.403 . S
C1756 C1757 1.404 . S
C1756 C1759 1.539 . S
C1757 C1753 1.408 . S
C1757 C1756 1.404 . S
C1757 H1769 0.930 . S
C1758 C1754 1.524 1_455 S
C1758 H1770 0.956 . S
C1758 H1771 0.961 . S
C1758 H1772 0.961 . S
C1759 C1756 1.539 . S
C1759 H1773 0.958 . S
C1759 H1774 0.961 . S
C1759 H1775 0.960 . S
H1760 C1744 0.931 . S
H1761 C1749 0.929 . S
H1762 C1750 0.960 . S
H1763 C1750 0.962 . S
H1764 C1750 0.960 . S
H1765 C1751 0.961 . S
H1766 C1751 0.961 . S
H1767 C1751 0.961 . S
H1768 C1752 0.931 . S
H1769 C1757 0.930 . S
H1770 C1758 0.956 . S
H1771 C1758 0.961 . S
H1772 C1758 0.961 . S
H1773 C1759 0.958 . S
H1774 C1759 0.961 . S
H1775 C1759 0.960 . S
C1776 C1777 1.391 . S
C1776 C1778 1.394 . S
C1776 H1792 0.931 . S
C1777 C1776 1.391 . S
C1777 C1781 1.376 . S
C1778 C1776 1.394 . S
C1778 C1779 1.369 . S
C1778 C1782 1.531 . S
C1779 C1778 1.369 . S
C1779 C1780 1.410 . S
C1779 C1787 1.503 . S
C1780 C1779 1.410 . S
C1780 C1781 1.392 . S
C1780 C1783 1.511 . S
C1781 C1777 1.376 . S
C1781 C1780 1.392 . S
C1781 H1793 0.929 . S
C1782 C1778 1.531 . S
C1782 H1794 0.960 . S
C1782 H1795 0.962 . S
C1782 H1796 0.960 . S
C1783 C1780 1.511 . S
C1783 H1797 0.961 . S
C1783 H1798 0.961 . S
C1783 H1799 0.961 . S
C1784 C1785 1.370 . S
C1784 C1786 1.363 . S
C1784 H1800 0.931 . S
C1785 C1784 1.370 . S
C1785 C1789 1.408 . S
C1786 C1784 1.363 . S
C1786 C1787 1.370 . S
C1786 C1790 1.524 . S
C1787 C1779 1.503 . S
C1787 C1786 1.370 . S
C1787 C1788 1.403 . S
C1788 C1787 1.403 . S
C1788 C1789 1.404 . S
C1788 C1791 1.539 . S
C1789 C1785 1.408 . S
C1789 C1788 1.404 . S
C1789 H1801 0.930 . S
C1790 C1786 1.524 . S
C1790 H1802 0.956 . S
C1790 H1803 0.961 . S
C1790 H1804 0.961 . S
C1791 C1788 1.539 . S
C1791 H1805 0.958 . S
C1791 H1806 0.961 . S
C1791 H1807 0.960 . S
H1792 C1776 0.931 . S
H1793 C1781 0.929 . S
H1794 C1782 0.960 . S
H1795 C1782 0.962 . S
H1796 C1782 0.960 . S
H1797 C1783 0.961 . S
H1798 C1783 0.961 . S
H1799 C1783 0.961 . S
H1800 C1784 0.931 . S
H1801 C1789 0.930 . S
H1802 C1790 0.956 . S
H1803 C1790 0.961 . S
H1804 C1790 0.961 . S
H1805 C1791 0.958 . S
H1806 C1791 0.961 . S
H1807 C1791 0.960 . S
C1808 C1809 1.391 . S
C1808 C1810 1.394 . S
C1808 H1824 0.931 . S
C1809 C1808 1.391 . S
C1809 C1813 1.376 . S
C1810 C1808 1.394 . S
C1810 C1811 1.369 . S
C1810 C1814 1.531 . S
C1811 C1810 1.369 . S
C1811 C1812 1.410 . S
C1811 C1819 1.503 . S
C1812 C1811 1.410 . S
C1812 C1813 1.392 . S
C1812 C1815 1.511 . S
C1813 C1809 1.376 . S
C1813 C1812 1.392 . S
C1813 H1825 0.929 . S
C1814 C1810 1.531 . S
C1814 H1826 0.960 . S
C1814 H1827 0.962 . S
C1814 H1828 0.960 . S
C1815 C1812 1.511 . S
C1815 H1829 0.961 . S
C1815 H1830 0.961 . S
C1815 H1831 0.961 . S
C1816 C1817 1.370 . S
C1816 C1818 1.363 . S
C1816 H1832 0.931 . S
C1817 C1816 1.370 . S
C1817 C1821 1.408 . S
C1818 C1816 1.363 . S
C1818 C1819 1.370 . S
C1818 C1822 1.524 . S
C1819 C1811 1.503 . S
C1819 C1818 1.370 . S
C1819 C1820 1.403 . S
C1820 C1819 1.403 . S
C1820 C1821 1.404 . S
C1820 C1823 1.539 . S
C1821 C1817 1.408 . S
C1821 C1820 1.404 . S
C1821 H1833 0.930 . S
C1822 C1818 1.524 . S
C1822 H1834 0.956 . S
C1822 H1835 0.961 . S
C1822 H1836 0.961 . S
C1823 C1820 1.539 . S
C1823 H1837 0.958 . S
C1823 H1838 0.961 . S
C1823 H1839 0.960 . S
H1824 C1808 0.931 . S
H1825 C1813 0.929 . S
H1826 C1814 0.960 . S
H1827 C1814 0.962 . S
H1828 C1814 0.960 . S
H1829 C1815 0.961 . S
H1830 C1815 0.961 . S
H1831 C1815 0.961 . S
H1832 C1816 0.931 . S
H1833 C1821 0.930 . S
H1834 C1822 0.956 . S
H1835 C1822 0.961 . S
H1836 C1822 0.961 . S
H1837 C1823 0.958 . S
H1838 C1823 0.961 . S
H1839 C1823 0.960 . S
C1840 C1841 1.391 . S
C1840 C1842 1.394 . S
C1840 H1856 0.931 . S
C1841 C1840 1.391 . S
C1841 C1845 1.376 . S
C1842 C1840 1.394 . S
C1842 C1843 1.369 . S
C1842 C1846 1.531 . S
C1843 C1842 1.369 . S
C1843 C1844 1.410 . S
C1843 C1851 1.503 . S
C1844 C1843 1.410 . S
C1844 C1845 1.392 . S
C1844 C1847 1.511 . S
C1845 C1841 1.376 . S
C1845 C1844 1.392 . S
C1845 H1857 0.929 . S
C1846 C1842 1.531 . S
C1846 H1858 0.960 . S
C1846 H1859 0.962 . S
C1846 H1860 0.960 . S
C1847 C1844 1.511 . S
C1847 H1861 0.961 . S
C1847 H1862 0.961 . S
C1847 H1863 0.961 . S
C1848 C1849 1.370 . S
C1848 C1850 1.363 . S
C1848 H1864 0.931 . S
C1849 C1848 1.370 . S
C1849 C1853 1.408 . S
C1850 C1848 1.363 . S
C1850 C1851 1.370 . S
C1850 C1854 1.524 . S
C1851 C1843 1.503 . S
C1851 C1850 1.370 . S
C1851 C1852 1.403 . S
C1852 C1851 1.403 . S
C1852 C1853 1.404 . S
C1852 C1855 1.539 . S
C1853 C1849 1.408 . S
C1853 C1852 1.404 . S
C1853 H1865 0.930 . S
C1854 C1850 1.524 . S
C1854 H1866 0.956 . S
C1854 H1867 0.961 . S
C1854 H1868 0.961 . S
C1855 C1852 1.539 . S
C1855 H1869 0.958 . S
C1855 H1870 0.961 . S
C1855 H1871 0.960 . S
H1856 C1840 0.931 . S
H1857 C1845 0.929 . S
H1858 C1846 0.960 . S
H1859 C1846 0.962 . S
H1860 C1846 0.960 . S
H1861 C1847 0.961 . S
H1862 C1847 0.961 . S
H1863 C1847 0.961 . S
H1864 C1848 0.931 . S
H1865 C1853 0.930 . S
H1866 C1854 0.956 . S
H1867 C1854 0.961 . S
H1868 C1854 0.961 . S
H1869 C1855 0.958 . S
H1870 C1855 0.961 . S
H1871 C1855 0.960 . S
C1872 C1873 1.391 . S
C1872 C1874 1.394 . S
C1872 H1888 0.931 . S
C1873 C1872 1.391 . S
C1873 C1877 1.376 . S
C1874 C1872 1.394 . S
C1874 C1875 1.369 . S
C1874 C1878 1.531 . S
C1875 C1874 1.369 . S
C1875 C1876 1.410 . S
C1875 C1883 1.503 . S
C1876 C1875 1.410 . S
C1876 C1877 1.392 . S
C1876 C1879 1.511 . S
C1877 C1873 1.376 . S
C1877 C1876 1.392 . S
C1877 H1889 0.929 . S
C1878 C1874 1.531 . S
C1878 H1890 0.960 . S
C1878 H1891 0.962 . S
C1878 H1892 0.960 . S
C1879 C1876 1.511 . S
C1879 H1893 0.961 . S
C1879 H1894 0.961 . S
C1879 H1895 0.961 . S
C1880 C1881 1.370 . S
C1880 C1882 1.363 . S
C1880 H1896 0.931 . S
C1881 C1880 1.370 . S
C1881 C1885 1.408 . S
C1882 C1880 1.363 . S
C1882 C1883 1.370 . S
C1882 C1886 1.524 . S
C1883 C1875 1.503 . S
C1883 C1882 1.370 . S
C1883 C1884 1.403 . S
C1884 C1883 1.403 . S
C1884 C1885 1.404 . S
C1884 C1887 1.539 . S
C1885 C1881 1.408 . S
C1885 C1884 1.404 . S
C1885 H1897 0.930 . S
C1886 C1882 1.524 . S
C1886 H1898 0.956 . S
C1886 H1899 0.961 . S
C1886 H1900 0.961 . S
C1887 C1884 1.539 . S
C1887 H1901 0.958 . S
C1887 H1902 0.961 . S
C1887 H1903 0.960 . S
H1888 C1872 0.931 . S
H1889 C1877 0.929 . S
H1890 C1878 0.960 . S
H1891 C1878 0.962 . S
H1892 C1878 0.960 . S
H1893 C1879 0.961 . S
H1894 C1879 0.961 . S
H1895 C1879 0.961 . S
H1896 C1880 0.931 . S
H1897 C1885 0.930 . S
H1898 C1886 0.956 . S
H1899 C1886 0.961 . S
H1900 C1886 0.961 . S
H1901 C1887 0.958 . S
H1902 C1887 0.961 . S
H1903 C1887 0.960 . S
C1904 C1905 1.391 . S
C1904 C1906 1.394 . S
C1904 H1920 0.931 . S
C1905 C1904 1.391 . S
C1905 C1909 1.376 . S
C1906 C1904 1.394 . S
C1906 C1907 1.369 . S
C1906 C1910 1.531 . S
C1907 C1906 1.369 . S
C1907 C1908 1.410 . S
C1907 C1915 1.503 . S
C1908 C1907 1.410 . S
C1908 C1909 1.392 . S
C1908 C1911 1.511 . S
C1909 C1905 1.376 . S
C1909 C1908 1.392 . S
C1909 H1921 0.929 . S
C1910 C1906 1.531 . S
C1910 H1922 0.960 . S
C1910 H1923 0.962 . S
C1910 H1924 0.960 . S
C1911 C1908 1.511 . S
C1911 H1925 0.961 . S
C1911 H1926 0.961 . S
C1911 H1927 0.961 . S
C1912 C1913 1.370 . S
C1912 C1914 1.363 . S
C1912 H1928 0.931 . S
C1913 C1912 1.370 . S
C1913 C1917 1.408 . S
C1914 C1912 1.363 . S
C1914 C1915 1.370 . S
C1914 C1918 1.524 . S
C1915 C1907 1.503 . S
C1915 C1914 1.370 . S
C1915 C1916 1.403 . S
C1916 C1915 1.403 . S
C1916 C1917 1.404 . S
C1916 C1919 1.539 . S
C1917 C1913 1.408 . S
C1917 C1916 1.404 . S
C1917 H1929 0.930 . S
C1918 C1914 1.524 . S
C1918 H1930 0.956 . S
C1918 H1931 0.961 . S
C1918 H1932 0.961 . S
C1919 C1916 1.539 . S
C1919 H1933 0.958 . S
C1919 H1934 0.961 . S
C1919 H1935 0.960 . S
H1920 C1904 0.931 . S
H1921 C1909 0.929 . S
H1922 C1910 0.960 . S
H1923 C1910 0.962 . S
H1924 C1910 0.960 . S
H1925 C1911 0.961 . S
H1926 C1911 0.961 . S
H1927 C1911 0.961 . S
H1928 C1912 0.931 . S
H1929 C1917 0.930 . S
H1930 C1918 0.956 . S
H1931 C1918 0.961 . S
H1932 C1918 0.961 . S
H1933 C1919 0.958 . S
H1934 C1919 0.961 . S
H1935 C1919 0.960 . S
C1936 C1937 1.391 . S
C1936 C1938 1.394 . S
C1936 H1952 0.931 . S
C1937 C1936 1.391 . S
C1937 C1941 1.376 . S
C1938 C1936 1.394 . S
C1938 C1939 1.369 . S
C1938 C1942 1.531 . S
C1939 C1938 1.369 . S
C1939 C1940 1.410 . S
C1939 C1947 1.503 . S
C1940 C1939 1.410 . S
C1940 C1941 1.392 . S
C1940 C1943 1.511 . S
C1941 C1937 1.376 . S
C1941 C1940 1.392 . S
C1941 H1953 0.929 . S
C1942 C1938 1.531 . S
C1942 H1954 0.960 . S
C1942 H1955 0.962 . S
C1942 H1956 0.960 . S
C1943 C1940 1.511 . S
C1943 H1957 0.961 . S
C1943 H1958 0.961 . S
C1943 H1959 0.961 . S
C1944 C1945 1.370 . S
C1944 C1946 1.363 . S
C1944 H1960 0.931 . S
C1945 C1944 1.370 . S
C1945 C1949 1.408 . S
C1946 C1944 1.363 . S
C1946 C1947 1.370 . S
C1946 C1950 1.524 . S
C1947 C1939 1.503 . S
C1947 C1946 1.370 . S
C1947 C1948 1.403 . S
C1948 C1947 1.403 . S
C1948 C1949 1.404 . S
C1948 C1951 1.539 . S
C1949 C1945 1.408 . S
C1949 C1948 1.404 . S
C1949 H1961 0.930 . S
C1950 C1946 1.524 . S
C1950 H1962 0.956 . S
C1950 H1963 0.961 . S
C1950 H1964 0.961 . S
C1951 C1948 1.539 . S
C1951 H1965 0.958 . S
C1951 H1966 0.961 . S
C1951 H1967 0.960 . S
H1952 C1936 0.931 . S
H1953 C1941 0.929 . S
H1954 C1942 0.960 . S
H1955 C1942 0.962 . S
H1956 C1942 0.960 . S
H1957 C1943 0.961 . S
H1958 C1943 0.961 . S
H1959 C1943 0.961 . S
H1960 C1944 0.931 . S
H1961 C1949 0.930 . S
H1962 C1950 0.956 . S
H1963 C1950 0.961 . S
H1964 C1950 0.961 . S
H1965 C1951 0.958 . S
H1966 C1951 0.961 . S
H1967 C1951 0.960 . S
C1968 C1969 1.391 . S
C1968 C1970 1.394 . S
C1968 H1984 0.931 . S
C1969 C1968 1.391 . S
C1969 C1973 1.376 . S
C1970 C1968 1.394 . S
C1970 C1971 1.369 . S
C1970 C1974 1.531 . S
C1971 C1970 1.369 . S
C1971 C1972 1.410 . S
C1971 C1979 1.503 . S
C1972 C1971 1.410 . S
C1972 C1973 1.392 . S
C1972 C1975 1.511 . S
C1973 C1969 1.376 . S
C1973 C1972 1.392 . S
C1973 H1985 0.929 . S
C1974 C1970 1.531 . S
C1974 H1986 0.960 . S
C1974 H1987 0.962 . S
C1974 H1988 0.960 . S
C1975 C1972 1.511 . S
C1975 H1989 0.961 . S
C1975 H1990 0.961 . S
C1975 H1991 0.961 . S
C1976 C1977 1.370 . S
C1976 C1978 1.363 . S
C1976 H1992 0.931 . S
C1977 C1976 1.370 . S
C1977 C1981 1.408 . S
C1978 C1976 1.363 . S
C1978 C1979 1.370 . S
C1978 C1982 1.524 . S
C1979 C1971 1.503 . S
C1979 C1978 1.370 . S
C1979 C1980 1.403 . S
C1980 C1979 1.403 . S
C1980 C1981 1.404 . S
C1980 C1983 1.539 . S
C1981 C1977 1.408 . S
C1981 C1980 1.404 . S
C1981 H1993 0.930 . S
C1982 C1978 1.524 . S
C1982 H1994 0.956 . S
C1982 H1995 0.961 . S
C1982 H1996 0.961 . S
C1983 C1980 1.539 . S
C1983 H1997 0.958 . S
C1983 H1998 0.961 . S
C1983 H1999 0.960 . S
H1984 C1968 0.931 . S
H1985 C1973 0.929 . S
H1986 C1974 0.960 . S
H1987 C1974 0.962 . S
H1988 C1974 0.960 . S
H1989 C1975 0.961 . S
H1990 C1975 0.961 . S
H1991 C1975 0.961 . S
H1992 C1976 0.931 . S
H1993 C1981 0.930 . S
H1994 C1982 0.956 . S
H1995 C1982 0.961 . S
H1996 C1982 0.961 . S
H1997 C1983 0.958 . S
H1998 C1983 0.961 . S
H1999 C1983 0.960 . S
C2000 C2001 1.391 . S
C2000 C2002 1.394 . S
C2000 H2016 0.931 . S
C2001 C2000 1.391 . S
C2001 C2005 1.376 . S
C2002 C2000 1.394 . S
C2002 C2003 1.369 . S
C2002 C2006 1.531 . S
C2003 C2002 1.369 . S
C2003 C2004 1.410 . S
C2003 C2011 1.503 . S
C2004 C2003 1.410 . S
C2004 C2005 1.392 . S
C2004 C2007 1.511 . S
C2005 C2001 1.376 . S
C2005 C2004 1.392 . S
C2005 H2017 0.929 . S
C2006 C2002 1.531 . S
C2006 H2018 0.960 . S
C2006 H2019 0.962 . S
C2006 H2020 0.960 . S
C2007 C2004 1.511 . S
C2007 H2021 0.961 . S
C2007 H2022 0.961 . S
C2007 H2023 0.961 . S
C2008 C2009 1.370 . S
C2008 C2010 1.363 . S
C2008 H2024 0.931 . S
C2009 C2008 1.370 . S
C2009 C2013 1.408 . S
C2010 C2008 1.363 . S
C2010 C2011 1.370 . S
C2010 C2014 1.524 . S
C2011 C2003 1.503 . S
C2011 C2010 1.370 . S
C2011 C2012 1.403 . S
C2012 C2011 1.403 . S
C2012 C2013 1.404 . S
C2012 C2015 1.539 . S
C2013 C2009 1.408 . S
C2013 C2012 1.404 . S
C2013 H2025 0.930 . S
C2014 C2010 1.524 . S
C2014 H2026 0.956 . S
C2014 H2027 0.961 . S
C2014 H2028 0.961 . S
C2015 C2012 1.539 . S
C2015 H2029 0.958 . S
C2015 H2030 0.961 . S
C2015 H2031 0.960 . S
H2016 C2000 0.931 . S
H2017 C2005 0.929 . S
H2018 C2006 0.960 . S
H2019 C2006 0.962 . S
H2020 C2006 0.960 . S
H2021 C2007 0.961 . S
H2022 C2007 0.961 . S
H2023 C2007 0.961 . S
H2024 C2008 0.931 . S
H2025 C2013 0.930 . S
H2026 C2014 0.956 . S
H2027 C2014 0.961 . S
H2028 C2014 0.961 . S
H2029 C2015 0.958 . S
H2030 C2015 0.961 . S
H2031 C2015 0.960 . S
C2032 C2033 1.391 . S
C2032 C2034 1.394 . S
C2032 H2048 0.931 . S
C2033 C2032 1.391 . S
C2033 C2037 1.376 . S
C2034 C2032 1.394 . S
C2034 C2035 1.369 . S
C2034 C2038 1.531 . S
C2035 C2034 1.369 . S
C2035 C2036 1.410 . S
C2035 C2043 1.503 . S
C2036 C2035 1.410 . S
C2036 C2037 1.392 . S
C2036 C2039 1.511 . S
C2037 C2033 1.376 . S
C2037 C2036 1.392 . S
C2037 H2049 0.929 . S
C2038 C2034 1.531 . S
C2038 H2050 0.960 . S
C2038 H2051 0.962 . S
C2038 H2052 0.960 . S
C2039 C2036 1.511 . S
C2039 H2053 0.961 . S
C2039 H2054 0.961 . S
C2039 H2055 0.961 . S
C2040 C2041 1.370 . S
C2040 C2042 1.363 . S
C2040 H2056 0.931 . S
C2041 C2040 1.370 . S
C2041 C2045 1.408 . S
C2042 C2040 1.363 . S
C2042 C2043 1.370 . S
C2042 C2046 1.524 . S
C2043 C2035 1.503 . S
C2043 C2042 1.370 . S
C2043 C2044 1.403 . S
C2044 C2043 1.403 . S
C2044 C2045 1.404 . S
C2044 C2047 1.539 . S
C2045 C2041 1.408 . S
C2045 C2044 1.404 . S
C2045 H2057 0.930 . S
C2046 C2042 1.524 . S
C2046 H2058 0.956 . S
C2046 H2059 0.961 . S
C2046 H2060 0.961 . S
C2047 C2044 1.539 . S
C2047 H2061 0.958 . S
C2047 H2062 0.961 . S
C2047 H2063 0.960 . S
H2048 C2032 0.931 . S
H2049 C2037 0.929 . S
H2050 C2038 0.960 . S
H2051 C2038 0.962 . S
H2052 C2038 0.960 . S
H2053 C2039 0.961 . S
H2054 C2039 0.961 . S
H2055 C2039 0.961 . S
H2056 C2040 0.931 . S
H2057 C2045 0.930 . S
H2058 C2046 0.956 . S
H2059 C2046 0.961 . S
H2060 C2046 0.961 . S
H2061 C2047 0.958 . S
H2062 C2047 0.961 . S
H2063 C2047 0.960 . S
C2064 C2065 1.391 . S
C2064 C2066 1.394 . S
C2064 H2080 0.931 . S
C2065 C2064 1.391 . S
C2065 C2069 1.376 . S
C2066 C2064 1.394 . S
C2066 C2067 1.369 . S
C2066 C2070 1.531 . S
C2067 C2066 1.369 . S
C2067 C2068 1.410 . S
C2067 C2075 1.503 . S
C2068 C2067 1.410 . S
C2068 C2069 1.392 . S
C2068 C2071 1.511 . S
C2069 C2065 1.376 . S
C2069 C2068 1.392 . S
C2069 H2081 0.929 . S
C2070 C2066 1.531 . S
C2070 H2082 0.960 . S
C2070 H2083 0.962 . S
C2070 H2084 0.960 . S
C2071 C2068 1.511 . S
C2071 H2085 0.961 . S
C2071 H2086 0.961 . S
C2071 H2087 0.961 . S
C2072 C2073 1.370 . S
C2072 C2074 1.363 . S
C2072 H2088 0.931 . S
C2073 C2072 1.370 . S
C2073 C2077 1.408 . S
C2074 C2072 1.363 . S
C2074 C2075 1.370 . S
C2074 C2078 1.524 . S
C2075 C2067 1.503 . S
C2075 C2074 1.370 . S
C2075 C2076 1.403 . S
C2076 C2075 1.403 . S
C2076 C2077 1.404 . S
C2076 C2079 1.539 . S
C2077 C2073 1.408 . S
C2077 C2076 1.404 . S
C2077 H2089 0.930 . S
C2078 C2074 1.524 . S
C2078 H2090 0.956 . S
C2078 H2091 0.961 . S
C2078 H2092 0.961 . S
C2079 C2076 1.539 . S
C2079 H2093 0.958 . S
C2079 H2094 0.961 . S
C2079 H2095 0.960 . S
H2080 C2064 0.931 . S
H2081 C2069 0.929 . S
H2082 C2070 0.960 . S
H2083 C2070 0.962 . S
H2084 C2070 0.960 . S
H2085 C2071 0.961 . S
H2086 C2071 0.961 . S
H2087 C2071 0.961 . S
H2088 C2072 0.931 . S
H2089 C2077 0.930 . S
H2090 C2078 0.956 . S
H2091 C2078 0.961 . S
H2092 C2078 0.961 . S
H2093 C2079 0.958 . S
H2094 C2079 0.961 . S
H2095 C2079 0.960 . S
C2096 C2097 1.391 . S
C2096 C2098 1.394 . S
C2096 H2112 0.931 . S
C2097 C2096 1.391 . S
C2097 C2101 1.376 . S
C2098 C2096 1.394 . S
C2098 C2099 1.369 . S
C2098 C2102 1.531 . S
C2099 C2098 1.369 . S
C2099 C2100 1.410 . S
C2099 C2107 1.503 . S
C2100 C2099 1.410 . S
C2100 C2101 1.392 . S
C2100 C2103 1.511 . S
C2101 C2097 1.376 . S
C2101 C2100 1.392 . S
C2101 H2113 0.929 . S
C2102 C2098 1.531 . S
C2102 H2114 0.960 . S
C2102 H2115 0.962 . S
C2102 H2116 0.960 . S
C2103 C2100 1.511 . S
C2103 H2117 0.961 . S
C2103 H2118 0.961 . S
C2103 H2119 0.961 . S
C2104 C2105 1.370 . S
C2104 C2106 1.363 . S
C2104 H2120 0.931 . S
C2105 C2104 1.370 . S
C2105 C2109 1.408 . S
C2106 C2104 1.363 . S
C2106 C2107 1.370 . S
C2106 C2110 1.524 . S
C2107 C2099 1.503 . S
C2107 C2106 1.370 . S
C2107 C2108 1.403 . S
C2108 C2107 1.403 . S
C2108 C2109 1.404 . S
C2108 C2111 1.539 . S
C2109 C2105 1.408 . S
C2109 C2108 1.404 . S
C2109 H2121 0.930 . S
C2110 C2106 1.524 . S
C2110 H2122 0.956 . S
C2110 H2123 0.961 . S
C2110 H2124 0.961 . S
C2111 C2108 1.539 . S
C2111 H2125 0.958 . S
C2111 H2126 0.961 . S
C2111 H2127 0.960 . S
H2112 C2096 0.931 . S
H2113 C2101 0.929 . S
H2114 C2102 0.960 . S
H2115 C2102 0.962 . S
H2116 C2102 0.960 . S
H2117 C2103 0.961 . S
H2118 C2103 0.961 . S
H2119 C2103 0.961 . S
H2120 C2104 0.931 . S
H2121 C2109 0.930 . S
H2122 C2110 0.956 . S
H2123 C2110 0.961 . S
H2124 C2110 0.961 . S
H2125 C2111 0.958 . S
H2126 C2111 0.961 . S
H2127 C2111 0.960 . S
C2128 C2129 1.391 . S
C2128 C2130 1.394 . S
C2128 H2144 0.931 . S
C2129 C2128 1.391 . S
C2129 C2133 1.376 . S
C2130 C2128 1.394 . S
C2130 C2131 1.369 . S
C2130 C2134 1.531 . S
C2131 C2130 1.369 . S
C2131 C2132 1.410 . S
C2131 C2139 1.503 . S
C2132 C2131 1.410 . S
C2132 C2133 1.392 . S
C2132 C2135 1.511 . S
C2133 C2129 1.376 . S
C2133 C2132 1.392 . S
C2133 H2145 0.929 . S
C2134 C2130 1.531 . S
C2134 H2146 0.960 . S
C2134 H2147 0.962 . S
C2134 H2148 0.960 . S
C2135 C2132 1.511 . S
C2135 H2149 0.961 . S
C2135 H2150 0.961 . S
C2135 H2151 0.961 . S
C2136 C2137 1.370 . S
C2136 C2138 1.363 . S
C2136 H2152 0.931 . S
C2137 C2136 1.370 . S
C2137 C2141 1.408 . S
C2138 C2136 1.363 . S
C2138 C2139 1.370 . S
C2138 C2142 1.524 . S
C2139 C2131 1.503 . S
C2139 C2138 1.370 . S
C2139 C2140 1.403 . S
C2140 C2139 1.403 . S
C2140 C2141 1.404 . S
C2140 C2143 1.539 . S
C2141 C2137 1.408 . S
C2141 C2140 1.404 . S
C2141 H2153 0.930 . S
C2142 C2138 1.524 . S
C2142 H2154 0.956 . S
C2142 H2155 0.961 . S
C2142 H2156 0.961 . S
C2143 C2140 1.539 . S
C2143 H2157 0.958 . S
C2143 H2158 0.961 . S
C2143 H2159 0.960 . S
H2144 C2128 0.931 . S
H2145 C2133 0.929 . S
H2146 C2134 0.960 . S
H2147 C2134 0.962 . S
H2148 C2134 0.960 . S
H2149 C2135 0.961 . S
H2150 C2135 0.961 . S
H2151 C2135 0.961 . S
H2152 C2136 0.931 . S
H2153 C2141 0.930 . S
H2154 C2142 0.956 . S
H2155 C2142 0.961 . S
H2156 C2142 0.961 . S
H2157 C2143 0.958 . S
H2158 C2143 0.961 . S
H2159 C2143 0.960 . S
C1009 C226 1.087 . S
C1017 C67 1.267 . S
C1041 C321 1.181 . S
C1049 C140 1.258 . S
C1073 C235 1.273 . S
C1081 C394 1.094 . S
C1105 C308 1.253 . S
C1113 C489 1.136 . S
C1137 C58 1.143 . S
C1145 C403 1.261 . S
C1169 C153 1.164 . S
C1177 C476 1.260 . S
C1201 C909 1.171 . S
C1209 C560 1.259 . S
C1233 C655 1.246 . S
C1241 C982 1.145 . S
C1265 C728 1.275 . S
C1273 C573 1.089 . S
C1297 C823 1.254 . S
C1305 C646 1.133 . S
C1329 C896 1.274 . S
C1337 C741 1.089 . S
C1361 C814 1.162 . S
C1369 C991 1.259 . S
C1393 C315 1.895 . S
C1401 C74 1.912 . S
C1425 C147 1.929 . S
C1433 C410 1.925 . S
C1457 C242 1.923 . S
C1465 C483 1.922 . S
C1489 C567 1.926 . S
C1497 C830 1.924 . S
C1521 C662 1.910 . S
C1529 C903 1.921 . S
C1553 C735 1.897 . S
C1561 C998 1.912 . S
C1585 C651 2.163 . S
C1593 C63 2.167 . S
C1617 C158 2.168 . S
C1625 C746 2.158 . S
C1649 C819 2.170 . S
C1657 C231 2.157 . S
C1681 C326 2.142 . S
C1689 C914 2.159 . S
C1713 C399 2.146 . S
C1721 C987 2.158 . S
C1745 C578 2.142 . S
C1753 C494 2.162 . S
C1777 C237 1.313 . S
C1785 C56 1.410 . S
C1809 C151 1.400 . S
C1817 C310 1.281 . S
C1841 C224 1.421 . S
C1849 C405 1.235 . S
C1873 C319 1.426 . S
C1881 C478 1.258 . S
C1905 C69 1.309 . S
C1913 C392 1.409 . S
C1937 C142 1.313 . S
C1945 C487 1.411 . S
C1969 C898 1.305 . S
C1977 C571 1.415 . S
C2001 C644 1.406 . S
C2009 C993 1.253 . S
C2033 C739 1.421 . S
C2041 C562 1.266 . S
C2065 C657 1.196 . S
C2073 C812 1.423 . S
C2097 C907 1.428 . S
C2105 C730 1.234 . S
C2129 C980 1.410 . S
C2137 C825 1.248 . S
