# Generated by pormake.
# Topology whw, (6)-cn, num edge types: 1
# Building blocks:
#     Node 0, Type 0, BuildingBlock: BETGAK_clean_sbu_0, # of connection points: 6
#     Node 1, Type 0, BuildingBlock: BETGAK_clean_sbu_0, # of connection points: 6
#     Node 2, Type 0, BuildingBlock: BETGAK_clean_sbu_0, # of connection points: 6
#     Node 3, Type 0, BuildingBlock: BETGAK_clean_sbu_0, # of connection points: 6
#     Node 4, Type 0, BuildingBlock: BETGAK_clean_sbu_0, # of connection points: 6
#     Node 5, Type 0, BuildingBlock: BETGAK_clean_sbu_0, # of connection points: 6
#     Node 6, Type 0, BuildingBlock: BETGAK_clean_sbu_0, # of connection points: 6
#     Node 7, Type 0, BuildingBlock: BETGAK_clean_sbu_0, # of connection points: 6
#     Node 8, Type 0, BuildingBlock: BETGAK_clean_sbu_0, # of connection points: 6
#     Node 9, Type 0, BuildingBlock: BETGAK_clean_sbu_0, # of connection points: 6
#     Node 10, Type 0, BuildingBlock: BETGAK_clean_sbu_0, # of connection points: 6
#     Node 11, Type 0, BuildingBlock: BETGAK_clean_sbu_0, # of connection points: 6
#     Node 12, Type 0, BuildingBlock: BETGAK_clean_sbu_0, # of connection points: 6
#     Node 13, Type 0, BuildingBlock: BETGAK_clean_sbu_0, # of connection points: 6
#     Node 14, Type 0, BuildingBlock: BETGAK_clean_sbu_0, # of connection points: 6
#     Node 15, Type 0, BuildingBlock: BETGAK_clean_sbu_0, # of connection points: 6
#     Edge 16, Type (0, 0), BuildingBlock: TEMPAE_clean_linker_10, # of connection points: 2
#     Edge 17, Type (0, 0), BuildingBlock: TEMPAE_clean_linker_10, # of connection points: 2
#     Edge 18, Type (0, 0), BuildingBlock: TEMPAE_clean_linker_10, # of connection points: 2
#     Edge 19, Type (0, 0), BuildingBlock: TEMPAE_clean_linker_10, # of connection points: 2
#     Edge 20, Type (0, 0), BuildingBlock: TEMPAE_clean_linker_10, # of connection points: 2
#     Edge 21, Type (0, 0), BuildingBlock: TEMPAE_clean_linker_10, # of connection points: 2
#     Edge 22, Type (0, 0), BuildingBlock: TEMPAE_clean_linker_10, # of connection points: 2
#     Edge 23, Type (0, 0), BuildingBlock: TEMPAE_clean_linker_10, # of connection points: 2
#     Edge 24, Type (0, 0), BuildingBlock: TEMPAE_clean_linker_10, # of connection points: 2
#     Edge 25, Type (0, 0), BuildingBlock: TEMPAE_clean_linker_10, # of connection points: 2
#     Edge 26, Type (0, 0), BuildingBlock: TEMPAE_clean_linker_10, # of connection points: 2
#     Edge 27, Type (0, 0), BuildingBlock: TEMPAE_clean_linker_10, # of connection points: 2
#     Edge 28, Type (0, 0), BuildingBlock: TEMPAE_clean_linker_10, # of connection points: 2
#     Edge 29, Type (0, 0), BuildingBlock: TEMPAE_clean_linker_10, # of connection points: 2
#     Edge 30, Type (0, 0), BuildingBlock: TEMPAE_clean_linker_10, # of connection points: 2
#     Edge 31, Type (0, 0), BuildingBlock: TEMPAE_clean_linker_10, # of connection points: 2
#     Edge 32, Type (0, 0), BuildingBlock: TEMPAE_clean_linker_10, # of connection points: 2
#     Edge 33, Type (0, 0), BuildingBlock: TEMPAE_clean_linker_10, # of connection points: 2
#     Edge 34, Type (0, 0), BuildingBlock: TEMPAE_clean_linker_10, # of connection points: 2
#     Edge 35, Type (0, 0), BuildingBlock: TEMPAE_clean_linker_10, # of connection points: 2
#     Edge 36, Type (0, 0), BuildingBlock: TEMPAE_clean_linker_10, # of connection points: 2
#     Edge 37, Type (0, 0), BuildingBlock: TEMPAE_clean_linker_10, # of connection points: 2
#     Edge 38, Type (0, 0), BuildingBlock: TEMPAE_clean_linker_10, # of connection points: 2
#     Edge 39, Type (0, 0), BuildingBlock: TEMPAE_clean_linker_10, # of connection points: 2
#     Edge 40, Type (0, 0), BuildingBlock: TEMPAE_clean_linker_10, # of connection points: 2
#     Edge 41, Type (0, 0), BuildingBlock: TEMPAE_clean_linker_10, # of connection points: 2
#     Edge 42, Type (0, 0), BuildingBlock: TEMPAE_clean_linker_10, # of connection points: 2
#     Edge 43, Type (0, 0), BuildingBlock: TEMPAE_clean_linker_10, # of connection points: 2
#     Edge 44, Type (0, 0), BuildingBlock: TEMPAE_clean_linker_10, # of connection points: 2
#     Edge 45, Type (0, 0), BuildingBlock: TEMPAE_clean_linker_10, # of connection points: 2
#     Edge 46, Type (0, 0), BuildingBlock: TEMPAE_clean_linker_10, # of connection points: 2
#     Edge 47, Type (0, 0), BuildingBlock: TEMPAE_clean_linker_10, # of connection points: 2
#     Edge 48, Type (0, 0), BuildingBlock: TEMPAE_clean_linker_10, # of connection points: 2
#     Edge 49, Type (0, 0), BuildingBlock: TEMPAE_clean_linker_10, # of connection points: 2
#     Edge 50, Type (0, 0), BuildingBlock: TEMPAE_clean_linker_10, # of connection points: 2
#     Edge 51, Type (0, 0), BuildingBlock: TEMPAE_clean_linker_10, # of connection points: 2
#     Edge 52, Type (0, 0), BuildingBlock: TEMPAE_clean_linker_10, # of connection points: 2
#     Edge 53, Type (0, 0), BuildingBlock: TEMPAE_clean_linker_10, # of connection points: 2
#     Edge 54, Type (0, 0), BuildingBlock: TEMPAE_clean_linker_10, # of connection points: 2
#     Edge 55, Type (0, 0), BuildingBlock: TEMPAE_clean_linker_10, # of connection points: 2
#     Edge 56, Type (0, 0), BuildingBlock: TEMPAE_clean_linker_10, # of connection points: 2
#     Edge 57, Type (0, 0), BuildingBlock: TEMPAE_clean_linker_10, # of connection points: 2
#     Edge 58, Type (0, 0), BuildingBlock: TEMPAE_clean_linker_10, # of connection points: 2
#     Edge 59, Type (0, 0), BuildingBlock: TEMPAE_clean_linker_10, # of connection points: 2
#     Edge 60, Type (0, 0), BuildingBlock: TEMPAE_clean_linker_10, # of connection points: 2
#     Edge 61, Type (0, 0), BuildingBlock: TEMPAE_clean_linker_10, # of connection points: 2
#     Edge 62, Type (0, 0), BuildingBlock: TEMPAE_clean_linker_10, # of connection points: 2
#     Edge 63, Type (0, 0), BuildingBlock: TEMPAE_clean_linker_10, # of connection points: 2
# Relax obj value: 0.449
# Max RMSD: 0.241
# Mean RMSD: 0.216
data_MOF--net-whw--node1-BETGAK_clean_sbu_0--edge1-TEMPAE_clean_linker_10
_symmetry_space_group_name_H-M    P1
_symmetry_Int_Tables_number       1
_symmetry_cell_setting            triclinic
loop_
_symmetry_equiv_pos_as_xyz
'x, y, z'
_cell_length_a     48.072673
_cell_length_b     47.402765
_cell_length_c     34.148672
_cell_angle_alpha  89.746906
_cell_angle_beta   101.94716
_cell_angle_gamma 97.297707
loop_
_atom_site_label
_atom_site_type_symbol
_atom_site_fract_x
_atom_site_fract_y
_atom_site_fract_z
_atom_type_partial_charge
La0 La 0.06516 0.13925 0.1641 0.0
La1 La 0.00535 0.12873 0.17253 0.0
C2 C 0.11192 0.13352 0.14508 0.0
C3 C 0.12153 0.12342 0.11 0.0
C4 C 0.12235 0.14065 0.07666 0.0
C5 C 0.13205 0.13097 1.04409 0.0
C6 C 0.14106 0.10387 1.04411 0.0
C7 C 0.14026 0.08663 0.07744 0.0
C8 C 0.13065 0.09637 0.11016 0.0
C9 C 0.04701 0.18187 0.19622 0.0
C10 C 0.01515 0.15492 0.09018 0.0
C11 C 0.9566 0.12265 0.18974 0.0
C12 C 0.94396 0.12394 0.22521 0.0
C13 C 0.93185 0.09861 0.23984 0.0
C14 C 0.92029 0.09908 0.27394 0.0
C15 C 0.92023 0.12498 0.29369 0.0
C16 C 0.9316 0.15045 0.2783 0.0
C17 C 0.94347 0.14993 0.24443 0.0
C18 C 0.02099 0.08802 0.13163 0.0
C19 C 0.05674 0.13189 0.25331 0.0
O20 O 0.10082 0.15754 0.14213 0.0
O21 O 0.09763 0.11404 0.16316 0.0
O22 O 0.07329 0.17633 0.20581 0.0
O23 O 0.03364 0.1654 0.16828 0.0
O24 O 0.04206 0.14878 0.10182 0.0
O25 O 0.99739 0.15131 0.11546 0.0
O26 O 0.97183 0.10177 0.18856 0.0
O27 O 0.96848 0.14657 0.1775 0.0
O28 O 0.99648 0.09732 0.12411 0.0
O29 O 0.03592 0.10069 0.16327 0.0
O30 O 0.02878 0.13181 0.23757 0.0
O31 O 0.07492 0.13134 0.22897 0.0
H32 H 0.11573 0.16169 0.07575 0.0
H33 H 0.13301 0.145 1.01914 0.0
H34 H 0.14694 0.06562 0.07815 0.0
H35 H 0.13041 0.08273 0.13566 0.0
H36 H 0.93172 0.07833 0.22523 0.0
H37 H 0.91207 0.07907 0.28535 0.0
H38 H 0.93144 0.17079 0.29252 0.0
H39 H 0.95235 0.16982 0.23355 0.0
La40 La 0.132 0.7682 0.37454 0.0
La41 La 0.13068 0.70913 0.34613 0.0
C42 C 0.13404 0.81642 0.40633 0.0
C43 C 0.13371 0.82726 0.44614 0.0
C44 C 0.12476 0.85383 0.45047 0.0
C45 C 0.12666 0.86532 0.48863 0.0
C46 C 0.13761 0.8503 0.52274 0.0
C47 C 0.146 0.82341 0.51813 0.0
C48 C 0.1442 0.81205 0.48014 0.0
C49 C 0.17679 0.75867 0.34487 0.0
C50 C 0.13302 0.71771 0.44041 0.0
C51 C 0.14801 0.66785 0.3167 0.0
C52 C 0.16585 0.6663 0.28712 0.0
C53 C 0.17192 0.64 0.27527 0.0
C54 C 0.18708 0.63845 0.24479 0.0
C55 C 0.19678 0.66332 0.22605 0.0
C56 C 0.19265 0.68984 0.24075 0.0
C57 C 0.17669 0.69123 0.27026 0.0
C58 C 0.08322 0.71606 0.36785 0.0
C59 C 0.10781 0.7574 0.28198 0.0
O60 O 0.15654 0.80414 0.40423 0.0
O61 O 0.11025 0.80225 0.38634 0.0
O62 O 0.16346 0.78062 0.33815 0.0
O63 O 0.16477 0.74239 0.36765 0.0
O64 O 0.13298 0.74525 0.43232 0.0
O65 O 0.1347 0.69941 0.41151 0.0
O66 O 0.12273 0.67591 0.30322 0.0
O67 O 0.16126 0.68099 0.35026 0.0
O68 O 0.09203 0.69143 0.36583 0.0
O69 O 0.09888 0.73457 0.3525 0.0
O70 O 0.11832 0.73237 0.28782 0.0
O71 O 0.10803 0.77387 0.31342 0.0
H72 H 0.11682 0.86586 0.4244 0.0
H73 H 0.12001 0.88608 0.4915 0.0
H74 H 0.15381 0.81106 0.54392 0.0
H75 H 0.15131 0.79152 0.47739 0.0
H76 H 0.16381 0.62057 0.28827 0.0
H77 H 0.18923 0.61754 0.23408 0.0
H78 H 0.20009 0.70949 0.22773 0.0
H79 H 0.17201 0.71174 0.27905 0.0
La80 La 0.49658 0.88368 0.70219 0.0
La81 La 0.52084 0.86883 0.62221 0.0
C82 C 0.48351 0.8717 0.77079 0.0
C83 C 0.47491 0.86378 0.8113 0.0
C84 C 0.49097 0.87543 0.84858 0.0
C85 C 0.4844 0.86624 0.88605 0.0
C86 C 0.46111 0.84504 0.88864 0.0
C87 C 0.4449 0.83368 0.85118 0.0
C88 C 0.45176 0.84254 0.8138 0.0
C89 C 0.50963 0.92774 0.65783 0.0
C90 C 0.56374 0.87767 0.70321 0.0
C91 C 0.52981 0.86013 0.55156 0.0
C92 C 0.54084 0.84364 0.52048 0.0
C93 C 0.57011 0.84141 0.52212 0.0
C94 C 0.57943 0.82826 0.49038 0.0
C95 C 0.56005 0.81703 0.4549 0.0
C96 C 0.53074 0.8193 0.45381 0.0
C97 C 0.52149 0.8321 0.48562 0.0
C98 C 0.50771 0.82848 0.67034 0.0
C99 C 0.45624 0.88176 0.618 0.0
O100 O 0.50002 0.89489 0.76439 0.0
O101 O 0.47313 0.85671 0.73767 0.0
O102 O 0.49322 0.9281 0.68418 0.0
O103 O 0.52064 0.90465 0.66116 0.0
O104 O 0.54168 0.87665 0.72153 0.0
O105 O 0.5615 0.87799 0.66385 0.0
O106 O 0.50733 0.84869 0.56483 0.0
O107 O 0.54718 0.87714 0.57895 0.0
O108 O 0.52708 0.82735 0.6493 0.0
O109 O 0.49557 0.84982 0.66161 0.0
O110 O 0.47947 0.88452 0.60196 0.0
O111 O 0.45692 0.87905 0.65699 0.0
H112 H 0.50921 0.89146 0.84895 0.0
H113 H 0.49767 0.87611 0.91324 0.0
H114 H 0.42705 0.81717 0.85055 0.0
H115 H 0.43884 0.83238 0.78654 0.0
H116 H 0.586 0.85009 0.54789 0.0
H117 H 0.60211 0.82699 0.49405 0.0
H118 H 0.51453 0.8119 0.42776 0.0
H119 H 0.49884 0.83364 0.48233 0.0
La120 La 0.39719 0.24254 0.9817 0.0
La121 La 0.38148 0.29936 0.95302 0.0
C122 C 0.40966 0.19873 1.01903 0.0
C123 C 0.41459 0.19048 0.06122 0.0
C124 C 0.39688 0.19836 0.08626 0.0
C125 C 0.39847 0.18694 0.12418 0.0
C126 C 0.418 0.16774 0.13792 0.0
C127 C 0.43676 0.16098 0.11381 0.0
C128 C 0.43493 0.17217 0.07553 0.0
C129 C 0.34801 0.24094 0.92816 0.0
C130 C 0.3941 0.28992 1.04896 0.0
C131 C 0.35127 0.33809 0.92873 0.0
C132 C 0.3423 0.34981 0.88905 0.0
C133 C 0.33842 0.33238 0.85479 0.0
C134 C 0.33401 0.34421 0.81704 0.0
C135 C 0.33337 0.37363 0.81279 0.0
C136 C 0.33609 0.39091 0.84703 0.0
C137 C 0.34047 0.37901 0.88502 0.0
C138 C 0.43629 0.29771 0.96997 0.0
C139 C 0.4068 0.25883 0.89577 0.0
O140 O 0.3834 0.20366 1.00402 0.0
O141 O 0.42909 0.21736 1.00787 0.0
O142 O 0.36595 0.2227 0.93073 0.0
O143 O 0.3574 0.25892 0.95695 0.0
O144 O 0.3962 0.26302 1.04013 0.0
O145 O 0.38779 0.308 1.01923 0.0
O146 O 0.37877 0.34286 0.94391 0.0
O147 O 0.34067 0.31169 0.93307 0.0
O148 O 0.42371 0.31372 0.94245 0.0
O149 O 0.4181 0.28501 0.98812 0.0
O150 O 0.38991 0.27935 0.89708 0.0
O151 O 0.41607 0.24446 0.92851 0.0
H152 H 0.38105 0.21257 0.07606 0.0
H153 H 0.38418 0.19282 0.1426 0.0
H154 H 0.45208 0.14624 0.124 0.0
H155 H 0.44869 0.16579 0.05665 0.0
H156 H 0.34016 0.30984 0.85721 0.0
H157 H 0.33302 0.33056 0.79132 0.0
H158 H 0.33593 0.41368 0.84448 0.0
H159 H 0.34364 0.39273 0.91128 0.0
La160 La 0.02912 0.86962 0.9231 0.0
La161 La 0.96962 0.85662 0.93555 0.0
C162 C 0.0765 0.87968 0.90275 0.0
C163 C 0.08797 0.87809 0.86671 0.0
C164 C 0.11684 0.88803 0.86787 0.0
C165 C 0.12789 0.88693 0.83328 0.0
C166 C 0.11012 0.87558 0.79749 0.0
C167 C 0.0812 0.86568 0.79657 0.0
C168 C 0.0702 0.86708 0.83095 0.0
C169 C 0.01569 0.90507 0.97466 0.0
C170 C 0.97522 0.86454 0.84291 0.0
C171 C 0.92123 0.8658 0.94607 0.0
C172 C 0.91202 0.88068 0.97759 0.0
C173 C 0.88296 0.87803 0.97914 0.0
C174 C 0.8744 0.89029 1.01107 0.0
C175 C 0.89486 0.90533 1.04183 0.0
C176 C 0.92385 0.90913 1.03899 0.0
C177 C 0.93238 0.89678 1.00715 0.0
C178 C 0.99016 0.81318 0.90974 0.0
C179 C 0.02069 0.83771 1.00263 0.0
O180 O 0.05894 0.8988 0.90255 0.0
O181 O 0.06727 0.85513 0.91671 0.0
O182 O 0.0398 0.8954 0.978 0.0
O183 O -0.00037 0.89534 0.94202 0.0
O184 O 0.00363 0.87044 0.85832 0.0
O185 O 0.95766 0.85859 0.86841 0.0
O186 O 0.93242 0.84247 0.95686 0.0
O187 O 0.93634 0.88198 0.92491 0.0
O188 O 0.96957 0.81001 0.92946 0.0
O189 O 0.99501 0.83875 0.90287 0.0
O190 O 0.99505 0.84721 0.996 0.0
O191 O 0.0361 0.84025 0.97415 0.0
H192 H 0.13074 0.89672 0.89541 0.0
H193 H 0.15025 0.89467 0.83451 0.0
H194 H 0.06701 0.85726 0.76909 0.0
H195 H 0.04785 0.85973 0.82955 0.0
H196 H 0.86703 0.8658 0.95632 0.0
H197 H 0.85191 0.88722 1.01246 0.0
H198 H 0.94015 0.92025 0.0625 0.0
H199 H 0.95495 0.89897 1.00627 0.0
La200 La 0.42162 0.787 0.26171 0.0
La201 La 0.40403 0.72737 0.23221 0.0
C202 C 0.41512 0.83374 0.29082 0.0
C203 C 0.39781 0.84205 0.31851 0.0
C204 C 0.39137 0.82384 0.34872 0.0
C205 C 0.37465 0.83192 0.37456 0.0
C206 C 0.36402 0.8584 0.37071 0.0
C207 C 0.36918 0.87582 0.33885 0.0
C208 C 0.38595 0.86768 0.31299 0.0
C209 C 0.46265 0.76594 0.23675 0.0
C210 C 0.43398 0.73493 0.32414 0.0
C211 C 0.3878 0.67962 0.19762 0.0
C212 C 0.38761 0.66812 0.15789 0.0
C213 C 0.39265 0.63998 0.15352 0.0
C214 C 0.39347 0.62922 0.11584 0.0
C215 C 0.3892 0.64654 0.08215 0.0
C216 C 0.38361 0.67458 0.08667 0.0
C217 C 0.38285 0.68528 0.1242 0.0
C218 C 0.3678 0.74949 0.26832 0.0
C219 C 0.4143 0.77735 0.16715 0.0
O220 O 0.4366 0.81956 0.30546 0.0
O221 O 0.39996 0.82279 0.25683 0.0
O222 O 0.46147 0.79313 0.23947 0.0
O223 O 0.44371 0.75267 0.25281 0.0
O224 O 0.43054 0.76257 0.31941 0.0
O225 O 0.4276 0.71737 0.29226 0.0
O226 O 0.37106 0.69925 0.19828 0.0
O227 O 0.413 0.68603 0.22122 0.0
O228 O 0.37423 0.72402 0.27268 0.0
O229 O 0.38097 0.76154 0.24313 0.0
O230 O 0.40893 0.7497 0.17475 0.0
O231 O 0.41755 0.79648 0.19678 0.0
H232 H 0.39983 0.80368 0.35294 0.0
H233 H 0.37165 0.81815 0.39911 0.0
H234 H 0.36122 0.89624 0.33493 0.0
H235 H 0.39009 0.88165 0.28907 0.0
H236 H 0.39627 0.62647 0.17928 0.0
H237 H 0.39759 0.60745 0.1131 0.0
H238 H 0.38089 0.68865 0.06146 0.0
H239 H 0.37901 0.70714 0.12687 0.0
La240 La 0.51623 0.14214 0.47637 0.0
La241 La 0.54911 0.12548 0.40834 0.0
C242 C 0.49938 0.1566 0.53867 0.0
C243 C 0.49017 0.16705 0.57568 0.0
C244 C 0.49818 0.19555 0.58955 0.0
C245 C 0.48925 0.20606 0.62306 0.0
C246 C 0.47145 0.18873 0.64419 0.0
C247 C 0.46332 0.16014 0.63018 0.0
C248 C 0.47257 0.14951 0.59678 0.0
C249 C 0.52238 0.1777 0.41833 0.0
C250 C 0.58413 0.14689 0.4917 0.0
C251 C 0.56473 0.13316 0.34107 0.0
C252 C 0.57338 0.13769 0.30044 0.0
C253 C 0.60217 0.14584 0.29744 0.0
C254 C 0.60974 0.15431 0.2605 0.0
C255 C 0.58894 0.15485 0.2243 0.0
C256 C 0.56017 0.14584 0.22748 0.0
C257 C 0.55265 0.13775 0.26448 0.0
C258 C 0.5425 0.08579 0.4621 0.0
C259 C 0.47947 0.1132 0.39739 0.0
O260 O 0.51474 0.17374 0.51877 0.0
O261 O 0.49398 0.13038 0.52381 0.0
O262 O 0.50036 0.17482 0.43501 0.0
O263 O 0.54019 0.16233 0.43552 0.0
O264 O 0.56061 0.14007 0.50612 0.0
O265 O 0.58371 0.14801 0.45279 0.0
O266 O 0.58083 0.12337 0.37283 0.0
O267 O 0.53913 0.13607 0.34672 0.0
O268 O 0.56106 0.08618 0.43883 0.0
O269 O 0.52614 0.10429 0.45008 0.0
O270 O 0.50321 0.11371 0.38274 0.0
O271 O 0.47915 0.12126 0.43452 0.0
H272 H 0.51132 0.21005 0.57416 0.0
H273 H 0.49594 0.22814 0.63185 0.0
H274 H 0.44996 0.1457 0.64531 0.0
H275 H 0.46569 0.12752 0.5873 0.0
H276 H 0.61895 0.14683 0.32418 0.0
H277 H 0.63211 0.16128 0.26099 0.0
H278 H 0.54301 0.1449 0.20128 0.0
H279 H 0.53029 0.13172 0.26491 0.0
La280 La 0.14645 0.18857 0.64501 0.0
La281 La 0.14728 0.24849 0.61922 0.0
C282 C 0.16019 0.1435 0.67839 0.0
C283 C 0.1732 0.13465 0.71834 0.0
C284 C 0.17122 0.15004 0.75232 0.0
C285 C 0.1817 0.14026 0.79029 0.0
C286 C 0.19448 0.11501 0.79493 0.0
C287 C 0.19715 0.10005 0.7608 0.0
C288 C 0.18663 0.10991 0.72265 0.0
C289 C 0.09748 0.20023 0.60206 0.0
C290 C 0.12979 0.23611 0.70273 0.0
C291 C 0.14455 0.2943 0.58218 0.0
C292 C 0.14033 0.30201 0.53963 0.0
C293 C 0.15585 0.29084 0.51392 0.0
C294 C 0.15283 0.29952 0.47427 0.0
C295 C 0.134 0.31922 0.45946 0.0
C296 C 0.11803 0.32988 0.48492 0.0
C297 C 0.12127 0.32142 0.52471 0.0
C298 C 0.19309 0.23937 0.67316 0.0
C299 C 0.14187 0.19808 0.55177 0.0
O300 O 0.13478 0.15172 0.67471 0.0
O301 O 0.17702 0.16024 0.66009 0.0
O302 O 0.10542 0.17502 0.60412 0.0
O303 O 0.1152 0.21604 0.62731 0.0
O304 O 0.13857 0.21054 0.6996 0.0
O305 O 0.1284 0.25386 0.6721 0.0
O306 O 0.16855 0.28415 0.59696 0.0
O307 O 0.12251 0.28026 0.59397 0.0
O308 O 0.18144 0.26253 0.66968 0.0
O309 O 0.18054 0.22238 0.64402 0.0
O310 O 0.14115 0.22528 0.56047 0.0
O311 O 0.14748 0.17993 0.58135 0.0
H312 H 0.16096 0.16923 0.74954 0.0
H313 H 0.17873 0.15192 0.81602 0.0
H314 H 0.20672 0.08045 0.76365 0.0
H315 H 0.18829 0.09785 0.69654 0.0
H316 H 0.17051 0.27557 0.52447 0.0
H317 H 0.16504 0.29067 0.45509 0.0
H318 H 0.10341 0.34517 0.47421 0.0
H319 H 0.1091 0.33027 0.54397 0.0
La320 La 0.9136 0.28309 0.74759 0.0
La321 La 0.9059 0.22293 0.71831 0.0
C322 C 0.90064 0.327 0.7767 0.0
C323 C 0.88372 0.33165 0.80665 0.0
C324 C 0.87792 0.31009 0.83312 0.0
C325 C 0.86232 0.31476 0.86211 0.0
C326 C 0.85232 0.34116 0.86526 0.0
C327 C 0.85669 0.36206 0.837 0.0
C328 C 0.87228 0.3573 0.80787 0.0
C329 C 0.95805 0.27008 0.7218 0.0
C330 C 0.93378 0.23426 0.8106 0.0
C331 C 0.90356 0.17476 0.68589 0.0
C332 C 0.8986 0.16369 0.6449 0.0
C333 C 0.89341 0.13428 0.63721 0.0
C334 C 0.88705 0.12375 0.59777 0.0
C335 C 0.88572 0.14262 0.56576 0.0
C336 C 0.89098 0.17206 0.57386 0.0
C337 C 0.89718 0.18243 0.61305 0.0
C338 C 0.86533 0.23599 0.75375 0.0
C339 C 0.9032 0.27354 0.65297 0.0
O340 O 0.92502 0.3169 0.78974 0.0
O341 O 0.88579 0.31398 0.74385 0.0
O342 O 0.95219 0.29598 0.72395 0.0
O343 O 0.94151 0.25379 0.73857 0.0
O344 O 0.926 0.26041 0.80545 0.0
O345 O 0.93064 0.2168 0.77913 0.0
O346 O 0.88156 0.18471 0.69509 0.0
O347 O 0.92752 0.19162 0.69861 0.0
O348 O 0.87591 0.21221 0.75694 0.0
O349 O 0.87692 0.25162 0.72972 0.0
O350 O 0.89785 0.24599 0.66034 0.0
O351 O 0.90862 0.29263 0.6829 0.0
H352 H 0.88601 0.28987 0.83195 0.0
H353 H 0.85976 0.29831 0.88366 0.0
H354 H 0.84919 0.38254 0.8386 0.0
H355 H 0.87603 0.3739 0.78696 0.0
H356 H 0.89409 0.11954 0.66163 0.0
H357 H 0.88309 0.10096 0.5923 0.0
H358 H 0.89091 0.18717 0.54994 0.0
H359 H 0.90095 0.2051 0.61833 0.0
La360 La 0.64584 0.69226 0.14923 0.0
La361 La 0.64015 0.75006 0.12025 0.0
C362 C 0.66553 0.65141 0.18797 0.0
C363 C 0.67761 0.64674 0.23027 0.0
C364 C 0.66374 0.65436 0.2602 0.0
C365 C 0.6755 0.65032 0.30022 0.0
C366 C 0.70163 0.63911 0.31125 0.0
C367 C 0.71543 0.63117 0.2814 0.0
C368 C 0.70349 0.63506 0.24106 0.0
C369 C 0.59466 0.69709 0.10696 0.0
C370 C 0.62501 0.73897 0.20492 0.0
C371 C 0.63385 0.79554 0.08344 0.0
C372 C 0.62985 0.80358 1.04141 0.0
C373 C 0.64608 0.82825 1.03156 0.0
C374 C 0.64569 0.83468 0.99162 0.0
C375 C 0.62894 0.81654 0.96088 0.0
C376 C 0.61218 0.79212 0.97081 0.0
C377 C 0.61276 0.78557 1.01084 0.0
C378 C 0.68878 0.74536 0.17162 0.0
C379 C 0.63855 0.69933 0.05475 0.0
O380 O 0.63823 0.65439 0.1791 0.0
O381 O 0.68094 0.66996 0.16999 0.0
O382 O 0.60653 0.67386 0.10929 0.0
O383 O 0.61068 0.71533 0.13103 0.0
O384 O 0.6361 0.71442 0.20305 0.0
O385 O 0.62142 0.7553 0.17294 0.0
O386 O 0.65875 0.78712 0.0977 0.0
O387 O 0.6127 0.77937 0.09452 0.0
O388 O 0.67452 0.76669 0.16996 0.0
O389 O 0.67646 0.72774 0.14343 0.0
O390 O 0.6348 0.72603 0.06209 0.0
O391 O 0.6469 0.68271 0.08551 0.0
H392 H 0.64384 0.66355 0.25282 0.0
H393 H 0.66413 0.6561 0.32267 0.0
H394 H 0.73551 0.62234 0.28929 0.0
H395 H 0.71449 0.62912 0.21829 0.0
H396 H 0.65959 0.84222 0.05486 0.0
H397 H 0.65835 0.85392 0.98476 0.0
H398 H 0.59901 0.77785 0.94765 0.0
H399 H 0.60036 0.76619 1.01783 0.0
La400 La 0.63976 0.26633 0.87977 0.0
La401 La 0.63365 0.20535 0.85593 0.0
C402 C 0.64602 0.31639 0.90736 0.0
C403 C 0.64542 0.32997 0.94567 0.0
C404 C 0.66862 0.32995 0.97845 0.0
C405 C 0.6663 0.33919 1.01607 0.0
C406 C 0.64086 0.34856 1.02126 0.0
C407 C 0.61858 0.35081 0.98821 0.0
C408 C 0.62099 0.34184 0.9504 0.0
C409 C 0.6812 0.25078 0.84786 0.0
C410 C 0.63853 0.2189 0.94906 0.0
C411 C 0.64746 0.16046 0.83071 0.0
C412 C 0.66317 0.15313 0.8003 0.0
C413 C 0.6505 0.13164 0.77196 0.0
C414 C 0.66344 0.12629 0.74031 0.0
C415 C 0.68949 0.14232 0.73632 0.0
C416 C 0.70309 0.16257 0.76642 0.0
C417 C 0.69006 0.16796 0.79811 0.0
C418 C 0.58837 0.21803 0.87894 0.0
C419 C 0.61227 0.25208 0.78923 0.0
O420 O 0.66714 0.30142 0.90764 0.0
O421 O 0.62158 0.30355 0.88702 0.0
O422 O 0.6697 0.27369 0.83962 0.0
O423 O 0.66962 0.23725 0.87346 0.0
O424 O 0.63899 0.24617 0.93911 0.0
O425 O 0.63921 0.19917 0.92166 0.0
O426 O 0.62255 0.16939 0.81732 0.0
O427 O 0.66261 0.17551 0.8617 0.0
O428 O 0.59508 0.19233 0.87907 0.0
O429 O 0.60458 0.2342 0.86138 0.0
O430 O 0.62135 0.22649 0.79618 0.0
O431 O 0.6143 0.27016 0.81952 0.0
H432 H 0.68806 0.32157 0.97557 0.0
H433 H 0.68361 0.33731 1.04153 0.0
H434 H 0.59877 0.35798 0.99206 0.0
H435 H 0.6031 0.34265 0.9254 0.0
H436 H 0.62989 0.11982 0.77329 0.0
H437 H 0.65177 0.11093 0.7175 0.0
H438 H 0.72309 0.17522 0.76446 0.0
H439 H 0.7006 0.18438 0.82003 0.0
La440 La 0.89674 0.74529 0.47592 0.0
La441 La 0.88842 0.80341 0.44583 0.0
C442 C 0.90189 0.70017 0.51355 0.0
C443 C 0.90749 0.69163 0.55554 0.0
C444 C 0.89364 0.70287 0.58325 0.0
C445 C 0.89633 0.69213 0.62171 0.0
C446 C 0.91315 0.67022 0.63321 0.0
C447 C 0.92783 0.65968 0.606 0.0
C448 C 0.92488 0.67024 0.56732 0.0
C449 C 0.84918 0.74836 0.42066 0.0
C450 C 0.89772 0.79485 0.54236 0.0
C451 C 0.86594 0.84673 0.41926 0.0
C452 C 0.86868 0.86676 0.38678 0.0
C453 C 0.89484 0.88353 0.38584 0.0
C454 C 0.89773 0.90015 0.35275 0.0
C455 C 0.87463 0.90017 0.31993 0.0
C456 C 0.84803 0.88468 0.32198 0.0
C457 C 0.84509 0.86819 0.35518 0.0
C458 C 0.94192 0.79627 0.46677 0.0
C459 C 0.91197 0.75805 0.39164 0.0
O460 O 0.8774 0.71014 0.50117 0.0
O461 O 0.9232 0.71463 0.50033 0.0
O462 O 0.86506 0.72824 0.4239 0.0
O463 O 0.85951 0.76603 0.44961 0.0
O464 O 0.90013 0.76787 0.53448 0.0
O465 O 0.89105 0.8122 0.51169 0.0
O466 O 0.88794 0.84746 0.44927 0.0
O467 O 0.85482 0.82063 0.40799 0.0
O468 O 0.93221 0.81348 0.43885 0.0
O469 O 0.92186 0.78573 0.48303 0.0
O470 O 0.89827 0.7813 0.39177 0.0
O471 O 0.9174 0.74287 0.42465 0.0
H472 H 0.88016 0.7195 0.57496 0.0
H473 H 0.88528 0.70093 0.64248 0.0
H474 H 0.94098 0.6428 0.61435 0.0
H475 H 0.93563 0.66125 0.54632 0.0
H476 H 0.91337 0.88313 0.40996 0.0
H477 H 0.91839 0.91212 0.35214 0.0
H478 H 0.82993 0.88396 0.29697 0.0
H479 H 0.82466 0.85559 0.35542 0.0
La480 La 0.5644 0.62591 0.66668 0.0
La481 La 0.50526 0.61288 0.6796 0.0
C482 C 0.61447 0.61917 0.6605 0.0
C483 C 0.63133 0.61933 0.62958 0.0
C484 C 0.62206 0.63135 0.59243 0.0
C485 C 0.63737 0.62958 0.56229 0.0
C486 C 0.66195 0.61546 0.56873 0.0
C487 C 0.67145 0.60396 0.60635 0.0
C488 C 0.65616 0.60587 0.63659 0.0
C489 C 0.54068 0.66899 0.68489 0.0
C490 C 0.51379 0.6431 0.59777 0.0
C491 C 0.45893 0.60341 0.70262 0.0
C492 C 0.44929 0.60628 0.74043 0.0
C493 C 0.44745 0.58283 0.76547 0.0
C494 C 0.43918 0.58552 0.80186 0.0
C495 C 0.43229 0.61163 0.81371 0.0
C496 C 0.43345 0.63492 0.78825 0.0
C497 C 0.4418 0.63226 0.75187 0.0
C498 C 0.51947 0.57584 0.63146 0.0
C499 C 0.55838 0.62027 0.75961 0.0
O500 O 0.60705 0.64358 0.66941 0.0
O501 O 0.59329 0.59846 0.65708 0.0
O502 O 0.55784 0.67127 0.65973 0.0
O503 O 0.53882 0.64465 0.69791 0.0
O504 O 0.53998 0.63467 0.60547 0.0
O505 O 0.49766 0.63995 0.62555 0.0
O506 O 0.47611 0.58403 0.70176 0.0
O507 O 0.46688 0.62715 0.68546 0.0
O508 O 0.49524 0.58547 0.62655 0.0
O509 O 0.53532 0.58663 0.66376 0.0
O510 O 0.53 0.61517 0.74455 0.0
O511 O 0.57593 0.62412 0.73385 0.0
H512 H 0.60283 0.64173 0.58662 0.0
H513 H 0.62988 0.63915 0.53381 0.0
H514 H 0.6902 0.59287 0.61202 0.0
H515 H 0.66338 0.59636 0.66521 0.0
H516 H 0.45272 0.56244 0.75718 0.0
H517 H 0.43869 0.56729 0.82105 0.0
H518 H 0.42778 0.65518 0.79639 0.0
H519 H 0.44253 0.65058 0.73287 0.0
La520 La 0.98919 0.36899 0.19345 0.0
La521 La 0.01487 0.35034 0.118 0.0
C522 C 0.97874 0.36677 0.26484 0.0
C523 C 0.968 0.35247 0.30053 0.0
C524 C 0.93921 0.3507 0.30501 0.0
C525 C 0.93071 0.34089 0.34094 0.0
C526 C 0.95056 0.33254 0.37456 0.0
C527 C 0.9793 0.33418 0.36964 0.0
C528 C 0.98771 0.34393 0.33383 0.0
C529 C 0.9972 0.4099 0.14117 0.0
C530 C 0.05796 0.37174 0.19664 0.0
C531 C 0.02349 0.33963 1.04819 0.0
C532 C 0.03659 0.32793 1.01563 0.0
C533 C 0.0612 0.31372 1.02313 0.0
C534 C 0.07171 0.30238 0.99119 0.0
C535 C 0.05789 0.3045 0.95043 0.0
C536 C 0.03322 0.31871 0.94345 0.0
C537 C 0.02292 0.3301 0.97519 0.0
C538 C 0.00911 0.31382 0.17499 0.0
C539 C 0.94791 0.35045 0.11327 0.0
O540 O 0.96134 0.37534 0.23339 0.0
O541 O 0.00194 0.35981 0.25502 0.0
O542 O 0.98217 0.41143 0.16871 0.0
O543 O 0.01054 0.3886 0.14871 0.0
O544 O 0.03589 0.37318 0.2143 0.0
O545 O 0.05544 0.36527 0.15807 0.0
O546 O 0.00777 0.32244 0.06756 0.0
O547 O 0.03541 0.36273 0.0696 0.0
O548 O 0.02836 0.3139 0.15331 0.0
O549 O 0.99275 0.33167 0.16194 0.0
O550 O 0.97011 0.35647 0.09574 0.0
O551 O 0.95066 0.34939 0.15268 0.0
H552 H 0.92315 0.35742 0.28091 0.0
H553 H 0.90831 0.33994 0.34218 0.0
H554 H 0.99586 0.32872 0.39403 0.0
H555 H 0.01014 0.34548 0.33267 0.0
H556 H 0.07227 0.31121 0.0537 0.0
H557 H 0.0905 0.29146 0.99864 0.0
H558 H 0.02182 0.32148 0.91314 0.0
H559 H 0.00385 0.34067 0.96792 0.0
La560 La 0.53104 0.35452 0.42808 0.0
La561 La 0.4718 0.34278 0.43925 0.0
C562 C 0.5789 0.35927 0.40824 0.0
C563 C 0.58841 0.35423 0.37146 0.0
C564 C 0.6165 0.36434 0.36839 0.0
C565 C 0.62475 0.36241 0.33178 0.0
C566 C 0.60477 0.35066 0.29813 0.0
C567 C 0.57704 0.33941 0.3018 0.0
C568 C 0.56894 0.34105 0.33838 0.0
C569 C 0.51652 0.39456 0.4713 0.0
C570 C 0.47804 0.35224 0.34931 0.0
C571 C 0.42511 0.34593 0.46012 0.0
C572 C 0.41592 0.35519 0.49559 0.0
C573 C 0.38749 0.36028 0.49221 0.0
C574 C 0.37839 0.36983 0.52544 0.0
C575 C 0.39768 0.37437 0.56249 0.0
C576 C 0.42635 0.36968 0.56556 0.0
C577 C 0.43543 0.36019 0.53226 0.0
C578 C 0.48997 0.30105 0.4045 0.0
C579 C 0.5236 0.32785 0.51087 0.0
O580 O 0.56336 0.38016 0.407 0.0
O581 O 0.56804 0.33659 0.42444 0.0
O582 O 0.54134 0.38602 0.47626 0.0
O583 O 0.50053 0.38186 0.44034 0.0
O584 O 0.50617 0.35261 0.36387 0.0
O585 O 0.46042 0.35169 0.37464 0.0
O586 O 0.43781 0.32288 0.46341 0.0
O587 O 0.43824 0.36625 0.44198 0.0
O588 O 0.46357 0.30629 0.39629 0.0
O589 O 0.5034 0.3174 0.43252 0.0
O590 O 0.49649 0.33357 0.50064 0.0
O591 O 0.54052 0.33179 0.48461 0.0
H592 H 0.63169 0.37451 0.39387 0.0
H593 H 0.64622 0.37124 0.32929 0.0
H594 H 0.5615 0.33004 0.2761 0.0
H595 H 0.5473 0.33283 0.34052 0.0
H596 H 0.37229 0.35674 0.46389 0.0
H597 H 0.35611 0.37294 0.52241 0.0
H598 H 0.44168 0.37327 0.59373 0.0
H599 H 0.45761 0.35678 0.53512 0.0
La600 La 0.02757 0.62865 0.97975 0.0
La601 La 0.05287 0.61039 0.90305 0.0
C602 C 0.01131 0.6425 1.04338 0.0
C603 C 0.00268 0.65331 0.08116 0.0
C604 C 0.01425 0.68052 0.09829 0.0
C605 C 0.00497 0.69204 0.1311 0.0
C606 C 0.98326 0.67719 0.14858 0.0
C607 C 0.97174 0.6498 0.13148 0.0
C608 C 0.98122 0.63818 0.09873 0.0
C609 C 0.04549 0.66782 0.93228 0.0
C610 C 0.09124 0.61146 0.9898 0.0
C611 C 0.07219 0.6167 0.83752 0.0
C612 C 0.07433 0.62989 0.79635 0.0
C613 C 0.09706 0.65134 0.79288 0.0
C614 C 0.10241 0.66094 0.75511 0.0
C615 C 0.08538 0.64976 0.71806 0.0
C616 C 0.06206 0.62881 0.72155 0.0
C617 C 0.05685 0.61901 0.75951 0.0
C618 C 0.03724 0.56838 0.949 0.0
C619 C 0.98653 0.6195 0.89588 0.0
O620 O 0.03199 0.65676 1.02899 0.0
O621 O 0.00089 0.6185 1.02318 0.0
O622 O 0.02537 0.67024 0.95143 0.0
O623 O 0.05561 0.64546 0.94169 0.0
O624 O 0.06839 0.61325 1.00585 0.0
O625 O 0.09091 0.61312 0.95078 0.0
O626 O 0.08222 0.6319 0.8706 0.0
O627 O 0.05118 0.59719 0.84234 0.0
O628 O 0.05536 0.56697 0.9254 0.0
O629 O 0.02622 0.59134 0.94254 0.0
O630 O 0.00911 0.61942 0.87901 0.0
O631 O 0.98792 0.62036 0.93507 0.0
H632 H 0.03036 0.69336 0.08572 0.0
H633 H 0.01447 0.71317 0.14207 0.0
H634 H 0.95531 0.63702 0.14352 0.0
H635 H 0.97131 0.61736 0.08673 0.0
H636 H 0.1115 0.66037 0.81977 0.0
H637 H 0.12026 0.67734 0.75522 0.0
H638 H 0.04815 0.61906 0.69475 0.0
H639 H 0.03937 0.60225 0.75985 0.0
C640 C 0.17741 0.08171 1.01552 0.0
C641 C 0.15205 0.09437 1.00968 0.0
C642 C 0.19024 0.07691 0.9832 0.0
C643 C 0.17764 0.08559 0.94463 0.0
C644 C 0.15088 0.09633 0.93825 0.0
C645 C 0.13829 0.10024 0.97083 0.0
C646 C 0.21807 0.06426 0.99111 0.0
C647 C 0.13639 0.10564 0.89747 0.0
C648 C 0.21369 0.12113 0.86809 0.0
C649 C 0.20119 0.10297 0.83522 0.0
C650 C 0.20986 0.11377 0.90648 0.0
C651 C 0.19351 0.08753 0.91169 0.0
C652 C 0.18576 0.06707 0.88005 0.0
C653 C 0.18941 0.07517 0.84172 0.0
C654 C 0.21943 0.13585 0.93987 0.0
C655 C 0.17007 0.03815 0.88533 0.0
H656 H 0.18805 0.0769 1.04555 0.0
H657 H 0.11819 0.10914 0.96614 0.0
H658 H 0.22139 0.05322 0.96418 0.0
H659 H 0.23616 0.08147 1.0004 0.0
H660 H 0.21874 0.04895 1.01592 0.0
H661 H 0.11535 0.11293 0.89768 0.0
H662 H 0.15031 0.12336 0.88709 0.0
H663 H 0.13287 0.08785 0.87531 0.0
H664 H 0.22371 0.14229 0.86312 0.0
H665 H 0.18022 0.0608 0.81643 0.0
H666 H 0.22899 0.12597 0.96812 0.0
H667 H 0.20055 0.14545 0.94501 0.0
H668 H 0.23535 0.15314 0.93269 0.0
H669 H 0.17274 0.02255 0.86262 0.0
H670 H 0.14683 0.03969 0.88166 0.0
H671 H 0.17778 0.0301 0.91571 0.0
C672 C 0.08807 0.79589 0.23477 0.0
C673 C 0.0952 0.76786 0.23994 0.0
C674 C 0.07628 0.80663 0.19663 0.0
C675 C 0.07048 0.78915 0.16134 0.0
C676 C 0.07754 0.76075 0.16624 0.0
C677 C 0.08983 0.75066 0.20484 0.0
C678 C 0.07044 0.83718 0.19413 0.0
C679 C 0.07252 0.74084 0.13052 0.0
C680 C 0.01568 0.813 0.06914 0.0
C681 C 0.03312 0.82485 1.04307 0.0
C682 C 0.02726 0.80073 0.10645 0.0
C683 C 0.05746 0.80082 0.11987 0.0
C684 C 0.07514 0.81301 0.09379 0.0
C685 C 0.06293 0.82426 0.0561 0.0
C686 C 0.00695 0.78739 0.13156 0.0
C687 C 0.10729 0.81461 0.10597 0.0
H688 H 0.092 0.8099 0.26085 0.0
H689 H 0.09505 0.72907 0.20745 0.0
H690 H 0.08199 0.84858 0.17255 0.0
H691 H 0.04723 0.83808 0.18284 0.0
H692 H 0.07715 0.84861 0.22356 0.0
H693 H 0.07211 0.71828 0.13958 0.0
H694 H 0.0521 0.74343 0.10953 0.0
H695 H 0.09014 0.74581 0.11415 0.0
H696 H 0.99268 0.81285 0.06007 0.0
H697 H 0.07705 0.83324 1.03701 0.0
H698 H 0.00983 0.79999 0.15971 0.0
H699 H 0.0118 0.76563 0.13998 0.0
H700 H 0.98417 0.78613 0.11571 0.0
H701 H 0.11497 0.82538 0.13575 0.0
H702 H 0.11838 0.82625 0.08408 0.0
H703 H 0.1135 0.79284 0.1087 0.0
C704 C 0.3663 0.89669 0.42104 0.0
C705 C 0.35359 0.86987 0.40467 0.0
C706 C 0.37006 0.9022 0.46218 0.0
C707 C 0.36105 0.88023 0.48672 0.0
C708 C 0.34138 0.8569 0.46866 0.0
C709 C 0.33814 0.85161 0.42742 0.0
C710 C 0.38879 0.9289 0.48003 0.0
C711 C 0.32839 0.8348 0.49371 0.0
C712 C 0.4276 0.86143 0.55471 0.0
C713 C 0.42879 0.87779 0.58902 0.0
C714 C 0.40446 0.86026 0.52247 0.0
C715 C 0.38134 0.87569 0.52473 0.0
C716 C 0.38101 0.88988 0.56114 0.0
C717 C 0.40502 0.89091 0.59312 0.0
C718 C 0.40624 0.84413 0.48506 0.0
C719 C 0.35624 0.90507 0.56621 0.0
H720 H 0.37728 0.91163 0.40343 0.0
H721 H 0.32677 0.83152 0.41439 0.0
H722 H 0.38051 0.93737 0.50496 0.0
H723 H 0.41086 0.92394 0.4922 0.0
H724 H 0.38994 0.94566 0.45736 0.0
H725 H 0.30747 0.82413 0.47678 0.0
H726 H 0.34293 0.81831 0.50175 0.0
H727 H 0.32532 0.84446 0.52183 0.0
H728 H 0.44562 0.85034 0.55236 0.0
H729 H 0.40571 0.90304 0.62022 0.0
H730 H 0.40657 0.85892 0.45989 0.0
H731 H 0.38742 0.82764 0.47657 0.0
H732 H 0.42579 0.8333 0.48896 0.0
H733 H 0.36269 0.92839 0.56602 0.0
H734 H 0.35078 0.90013 0.59577 0.0
H735 H 0.33682 0.89923 0.54241 0.0
C736 C 0.43041 0.22667 0.85669 0.0
C737 C 0.41563 0.25052 0.85728 0.0
C738 C 0.43924 0.21776 0.82208 0.0
C739 C 0.4334 0.2328 0.78584 0.0
C740 C 0.41843 0.25696 0.78598 0.0
C741 C 0.40974 0.26542 0.82131 0.0
C742 C 0.45519 0.19214 0.82467 0.0
C743 C 0.41167 0.27405 0.74868 0.0
C744 C 0.47921 0.2211 0.70703 0.0
C745 C 0.46144 0.20051 0.68011 0.0
C746 C 0.47027 0.23217 0.74049 0.0
C747 C 0.44262 0.22279 0.74818 0.0
C748 C 0.42447 0.20225 0.72097 0.0
C749 C 0.43398 0.19146 0.68781 0.0
C750 C 0.49097 0.25349 0.76831 0.0
C751 C 0.39493 0.19119 0.72732 0.0
H752 H 0.43499 0.21447 0.88358 0.0
H753 H 0.39837 0.2838 0.8207 0.0
H754 H 0.44636 0.17748 0.79858 0.0
H755 H 0.47804 0.19922 0.82432 0.0
H756 H 0.45418 0.18013 0.85244 0.0
H757 H 0.40011 0.29225 0.75318 0.0
H758 H 0.43182 0.28235 0.73914 0.0
H759 H 0.39833 0.26021 0.72391 0.0
H760 H 0.50063 0.22821 0.70258 0.0
H761 H 0.41959 0.17599 0.66756 0.0
H762 H 0.49921 0.24302 0.79672 0.0
H763 H 0.48006 0.2714 0.77575 0.0
H764 H 0.50954 0.26217 0.75525 0.0
H765 H 0.39673 0.17992 0.75611 0.0
H766 H 0.38274 0.17634 0.70287 0.0
H767 H 0.38255 0.20917 0.72934 0.0
C768 C 0.85822 0.92673 0.2574 0.0
C769 C 0.8792 0.91261 0.28156 0.0
C770 C 0.85971 0.93308 0.21764 0.0
C771 C 0.88245 0.92469 0.20184 0.0
C772 C 0.90497 0.9128 0.2272 0.0
C773 C 0.90308 0.90694 0.26679 0.0
C774 C 0.83587 0.94673 0.19179 0.0
C775 C 0.9297 0.90363 0.21156 0.0
C776 C 0.87012 0.89323 0.09783 0.0
C777 C 0.88682 0.91337 0.07941 0.0
C778 C 0.86679 0.89773 0.13692 0.0
C779 C 0.88032 0.92314 0.15797 0.0
C780 C 0.89518 0.94462 0.13837 0.0
C781 C 0.89852 0.93935 0.0993 0.0
C782 C 0.85088 0.87414 0.15679 0.0
C783 C 0.90926 0.9723 0.15937 0.0
H784 H 0.83999 0.93163 0.269 0.0
H785 H 0.91928 0.89586 0.28517 0.0
H786 H 0.84456 0.96274 0.17215 0.0
H787 H 0.8211 0.93022 0.17219 0.0
H788 H 0.8233 0.95716 0.21007 0.0
H789 H 0.94689 0.89758 0.23601 0.0
H790 H 0.92181 0.88503 0.19082 0.0
H791 H 0.93913 0.92094 0.19448 0.0
H792 H 0.86131 0.87299 0.08277 0.0
H793 H 0.91117 0.95511 0.08487 0.0
H794 H 0.83489 0.88259 0.17118 0.0
H795 H 0.86625 0.86485 0.18061 0.0
H796 H 0.83961 0.85683 0.13526 0.0
H797 H 0.89673 0.97932 0.18057 0.0
H798 H 0.91189 0.9894 0.13756 0.0
H799 H 0.93088 0.96938 0.1767 0.0
C800 C 0.94956 0.19489 0.8584 0.0
C801 C 0.94681 0.22395 0.85212 0.0
C802 C 0.96147 0.18441 0.89648 0.0
C803 C 0.97161 0.20317 0.93025 0.0
C804 C 0.96932 0.23266 0.92408 0.0
C805 C 0.95693 0.24256 0.88561 0.0
C806 C 0.96291 0.1529 0.90063 0.0
C807 C 0.98019 0.25396 0.95821 0.0
C808 C 0.97549 0.17128 1.03611 0.0
C809 C 0.00456 0.16729 1.04904 0.0
C810 C 0.96482 0.18304 0.99839 0.0
C811 C 0.98339 0.19163 0.97185 0.0
C812 C 0.01287 0.188 0.98479 0.0
C813 C 0.02297 0.17588 1.02269 0.0
C814 C 0.93334 0.18612 0.9868 0.0
C815 C 0.03391 0.19701 0.95851 0.0
H816 H 0.94201 0.17999 0.83335 0.0
H817 H 0.95543 0.26506 0.88173 0.0
H818 H 0.98539 0.14902 0.91218 0.0
H819 H 0.9502 0.14425 0.92266 0.0
H820 H 0.95463 0.14098 0.87178 0.0
H821 H 0.97564 0.27579 0.94958 0.0
H822 H 0.97026 0.24763 0.98403 0.0
H823 H 0.00371 0.25435 0.96842 0.0
H824 H 0.96072 0.165 0.05556 0.0
H825 H 0.04546 0.17334 1.03178 0.0
H826 H 0.92343 0.1735 0.95899 0.0
H827 H 0.93056 0.20868 0.98041 0.0
H828 H 0.92158 0.17893 1.01059 0.0
H829 H 0.0273 0.1852 0.92941 0.0
H830 H 0.05608 0.19323 0.97254 0.0
H831 H 0.03394 0.21998 0.95201 0.0
C832 C 0.70677 0.16745 0.67969 0.0
C833 C 0.69861 0.14168 0.69727 0.0
C834 C 0.70061 0.1699 0.63797 0.0
C835 C 0.68506 0.14644 0.6144 0.0
C836 C 0.68384 0.11911 0.63125 0.0
C837 C 0.69121 0.11697 0.67295 0.0
C838 C 0.70539 0.19878 0.62013 0.0
C839 C 0.66954 0.09299 0.60646 0.0
C840 C 0.61102 0.15822 0.56058 0.0
C841 C 0.61156 0.15188 0.52086 0.0
C842 C 0.63535 0.15805 0.59087 0.0
C843 C 0.66127 0.15181 0.58108 0.0
C844 C 0.66267 0.14797 0.54045 0.0
C845 C 0.6376 0.14784 0.51065 0.0
C846 C 0.63247 0.1629 0.63359 0.0
C847 C 0.68995 0.14266 0.52813 0.0
H848 H 0.71395 0.18662 0.69786 0.0
H849 H 0.68699 0.09653 0.68642 0.0
H850 H 0.70805 0.19686 0.58876 0.0
H851 H 0.68655 0.21012 0.62009 0.0
H852 H 0.72459 0.21183 0.63809 0.0
H853 H 0.67468 0.07313 0.62215 0.0
H854 H 0.64592 0.09293 0.60036 0.0
H855 H 0.67627 0.09309 0.57732 0.0
H856 H 0.59109 0.16218 0.56839 0.0
H857 H 0.63817 0.14327 0.47976 0.0
H858 H 0.64776 0.18139 0.64743 0.0
H859 H 0.63736 0.14394 0.65158 0.0
H860 H 0.61058 0.16709 0.6356 0.0
H861 H 0.70933 0.14915 0.55174 0.0
H862 H 0.69219 0.15432 0.50043 0.0
H863 H 0.68886 0.11966 0.52109 0.0
C864 C 0.59844 0.80996 0.41308 0.0
C865 C 0.57006 0.80374 0.41929 0.0
C866 C 0.60771 0.7984 0.38003 0.0
C867 C 0.58843 0.78009 0.35076 0.0
C868 C 0.55983 0.77357 0.35665 0.0
C869 C 0.55125 0.78497 0.3904 0.0
C870 C 0.63841 0.80624 0.37617 0.0
C871 C 0.5379 0.75466 0.32679 0.0
C872 C 0.60509 0.77513 0.24393 0.0
C873 C 0.61588 0.74881 0.24283 0.0
C874 C 0.5959 0.78507 0.27792 0.0
C875 C 0.5978 0.76894 0.31343 0.0
C876 C 0.60906 0.74247 0.31288 0.0
C877 C 0.61771 0.73278 0.27803 0.0
C878 C 0.58385 0.81304 0.27558 0.0
C879 C 0.61211 0.72427 0.34943 0.0
H880 H 0.61369 0.82448 0.4337 0.0
H881 H 0.52948 0.77882 0.39393 0.0
H882 H 0.64842 0.78672 0.37325 0.0
H883 H 0.63908 0.81858 0.34862 0.0
H884 H 0.65144 0.81912 0.40223 0.0
H885 H 0.51665 0.75112 0.33529 0.0
H886 H 0.53521 0.76433 0.29679 0.0
H887 H 0.54546 0.73374 0.32404 0.0
H888 H 0.60373 0.78831 0.21779 0.0
H889 H 0.62605 0.71257 0.27852 0.0
H890 H 0.59612 0.82765 0.3002 0.0
H891 H 0.56131 0.80948 0.27937 0.0
H892 H 0.58438 0.82363 0.24661 0.0
H893 H 0.62583 0.73658 0.37549 0.0
H894 H 0.62163 0.70464 0.3451 0.0
H895 H 0.5908 0.71813 0.35689 0.0
C896 C 0.71343 0.65723 0.38143 0.0
C897 C 0.71339 0.6353 0.3541 0.0
C898 C 0.71492 0.65165 0.4219 0.0
C899 C 0.71645 0.62344 0.43502 0.0
C900 C 0.72149 0.60244 0.40892 0.0
C901 C 0.7196 0.60855 0.36827 0.0
C902 C 0.71042 0.675 0.44902 0.0
C903 C 0.72524 0.57266 0.42275 0.0
C904 C 0.70704 0.61771 0.54201 0.0
C905 C 0.67704 0.61248 0.53571 0.0
C906 C 0.7209 0.61862 0.50955 0.0
C907 C 0.70418 0.6148 0.47022 0.0
C908 C 0.67408 0.60724 0.46416 0.0
C909 C 0.66098 0.60588 0.49707 0.0
C910 C 0.7531 0.62549 0.51753 0.0
C911 C 0.65527 0.60278 0.42271 0.0
H912 H 0.70941 0.67814 0.3706 0.0
H913 H 0.7202 0.59169 0.34723 0.0
H914 H 0.68823 0.67121 0.45429 0.0
H915 H 0.72539 0.67508 0.47844 0.0
H916 H 0.71356 0.69634 0.43581 0.0
H917 H 0.73681 0.56175 0.40355 0.0
H918 H 0.73716 0.57286 0.45431 0.0
H919 H 0.70387 0.56015 0.42103 0.0
H920 H 0.71962 0.62247 0.57198 0.0
H921 H 0.63788 0.60078 0.49236 0.0
H922 H 0.75902 0.64889 0.52042 0.0
H923 H 0.76226 0.61751 0.49308 0.0
H924 H 0.76304 0.61621 0.54618 0.0
H925 H 0.6566 0.62286 0.40594 0.0
H926 H 0.63241 0.596 0.42353 0.0
H927 H 0.66272 0.58638 0.40576 0.0
C928 C 0.59433 0.29011 0.74099 0.0
C929 C 0.59896 0.26147 0.74739 0.0
C930 C 0.5817 0.30004 0.70299 0.0
C931 C 0.57247 0.28106 0.6694 0.0
C932 C 0.57697 0.25198 0.67556 0.0
C933 C 0.59024 0.24271 0.71397 0.0
C934 C 0.57862 0.33126 0.69876 0.0
C935 C 0.56824 0.23012 0.6419 0.0
C936 C 0.51846 0.30841 0.58008 0.0
C937 C 0.53547 0.31571 0.55161 0.0
C938 C 0.52976 0.29665 0.6177 0.0
C939 C 0.55918 0.29214 0.6282 0.0
C940 C 0.57637 0.29958 0.59955 0.0
C941 C 0.56445 0.31092 0.56211 0.0
C942 C 0.50982 0.28969 0.64616 0.0
C943 C 0.60776 0.29593 0.60869 0.0
H944 H 0.6009 0.30521 0.76594 0.0
H945 H 0.59346 0.22056 0.71778 0.0
H946 H 0.588 0.34003 0.67346 0.0
H947 H 0.55557 0.33403 0.69197 0.0
H948 H 0.58923 0.34386 0.72637 0.0
H949 H 0.55716 0.21037 0.65228 0.0
H950 H 0.55403 0.23766 0.61519 0.0
H951 H 0.58778 0.22439 0.63299 0.0
H952 H 0.49611 0.31181 0.57304 0.0
H953 H 0.57818 0.31627 0.54098 0.0
H954 H 0.50783 0.30951 0.66194 0.0
H955 H 0.51748 0.2741 0.66888 0.0
H956 H 0.48801 0.28115 0.62948 0.0
H957 H 0.6186 0.30696 0.63745 0.0
H958 H 0.61886 0.30439 0.58481 0.0
H959 H 0.61012 0.27302 0.61209 0.0
C960 C 0.89549 0.35505 0.09251 0.0
C961 C 0.91977 0.34364 0.08641 0.0
C962 C 0.87112 0.35433 0.06125 0.0
C963 C 0.87165 0.34232 1.02349 0.0
C964 C 0.89496 0.32771 1.01936 0.0
C965 C 0.9186 0.32854 0.05098 0.0
C966 C 0.84601 0.36823 0.06822 0.0
C967 C 0.89664 0.31374 0.98026 0.0
C968 C 0.82813 0.32786 0.92231 0.0
C969 C 0.84364 0.34851 0.90279 0.0
C970 C 0.83204 0.32867 0.96421 0.0
C971 C 0.85239 0.35003 0.98619 0.0
C972 C 0.86232 0.37423 0.96606 0.0
C973 C 0.8578 0.37317 0.92425 0.0
C974 C 0.81823 0.30425 0.98483 0.0
C975 C 0.88233 0.39873 0.98845 0.0
H976 H 0.89623 0.36625 0.12039 0.0
H977 H 0.93719 0.31896 1.04698 0.0
H978 H 0.85182 0.39168 0.06977 0.0
H979 H 0.82654 0.3627 1.04437 0.0
H980 H 0.84094 0.36176 0.09752 0.0
H981 H 0.9159 0.30256 0.98296 0.0
H982 H 0.87747 0.29798 0.96976 0.0
H983 H 0.89747 0.33001 0.95694 0.0
H984 H 0.81577 0.30946 0.90553 0.0
H985 H 0.86904 0.38979 0.90934 0.0
H986 H 0.81673 0.31053 1.01555 0.0
H987 H 0.83119 0.28632 0.98698 0.0
H988 H 0.79643 0.29652 0.96734 0.0
H989 H 0.8742 0.40542 1.01457 0.0
H990 H 0.88491 0.41737 0.96908 0.0
H991 H 0.90378 0.39194 0.9997 0.0
C992 C 0.91983 0.76276 0.31832 0.0
C993 C 0.92217 0.74796 0.35461 0.0
C994 C 0.92975 0.7527 0.28467 0.0
C995 C 0.94243 0.72688 0.28624 0.0
C996 C 0.94483 0.71201 0.32283 0.0
C997 C 0.93494 0.72255 0.35585 0.0
C998 C 0.92677 0.76992 0.2472 0.0
C999 C 0.9584 0.68486 0.32767 0.0
C1000 C 0.94419 0.68382 0.18911 0.0
C1001 C 0.9727 0.69029 0.1837 0.0
C1002 C 0.93418 0.6958 0.22124 0.0
C1003 C 0.95274 0.71511 0.24998 0.0
C1004 C 0.98151 0.72185 0.24473 0.0
C1005 C 0.99094 0.70962 0.21226 0.0
C1006 C 0.90349 0.68736 0.22472 0.0
C1007 C 0.00291 0.7415 0.27418 0.0
H1008 H 0.91032 0.78238 0.31614 0.0
H1009 H 0.93732 0.71053 0.38311 0.0
H1010 H 0.94818 0.77594 0.23994 0.0
H1011 H 0.91338 0.75689 0.22159 0.0
H1012 H 0.91694 0.78956 0.25021 0.0
H1013 H 0.95415 0.67308 0.35443 0.0
H1014 H 0.95038 0.67064 0.30093 0.0
H1015 H 0.98194 0.69008 0.33094 0.0
H1016 H 0.92927 0.66947 0.16779 0.0
H1017 H 0.01311 0.71493 0.20992 0.0
H1018 H 0.89258 0.70661 0.22503 0.0
H1019 H 0.90293 0.6765 0.25345 0.0
H1020 H 0.89126 0.67294 0.19978 0.0
H1021 H 0.99317 0.76009 0.28222 0.0
H1022 H 0.02227 0.74929 0.26228 0.0
H1023 H 0.00982 0.72986 0.30204 0.0
C1024 C 0.3692 0.40306 0.59705 0.0
C1025 C 0.38734 0.38196 0.59838 0.0
C1026 C 0.35747 0.40861 0.63016 0.0
C1027 C 0.3638 0.39233 0.66493 0.0
C1028 C 0.38272 0.37151 0.6667 0.0
C1029 C 0.39432 0.36667 0.63342 0.0
C1030 C 0.33769 0.43116 0.62745 0.0
C1031 C 0.38995 0.35355 0.70324 0.0
C1032 C 0.35687 0.40729 0.76988 0.0
C1033 C 0.33447 0.38604 0.77332 0.0
C1034 C 0.36467 0.41231 0.7329 0.0
C1035 C 0.34978 0.39549 0.6991 0.0
C1036 C 0.32476 0.37686 0.70146 0.0
C1037 C 0.31729 0.37248 0.73869 0.0
C1038 C 0.39101 0.43294 0.73126 0.0
C1039 C 0.30805 0.35878 0.66599 0.0
H1040 H 0.364 0.41504 0.56998 0.0
H1041 H 0.40804 0.3501 0.63428 0.0
H1042 H 0.31529 0.42085 0.62446 0.0
H1043 H 0.343 0.44469 0.65508 0.0
H1044 H 0.33876 0.44497 0.60129 0.0
H1045 H 0.40563 0.33884 0.70005 0.0
H1046 H 0.39903 0.3674 0.73012 0.0
H1047 H 0.37019 0.34072 0.70865 0.0
H1048 H 0.37013 0.41794 0.7966 0.0
H1049 H 0.29956 0.3565 0.74135 0.0
H1050 H 0.38826 0.44452 0.70269 0.0
H1051 H 0.40963 0.421 0.73305 0.0
H1052 H 0.39604 0.44866 0.75659 0.0
H1053 H 0.30514 0.37138 0.63835 0.0
H1054 H 0.28664 0.34942 0.67074 0.0
H1055 H 0.32017 0.34111 0.66117 0.0
C1056 C 0.47464 0.66542 0.5486 0.0
C1057 C 0.50259 0.65749 0.55803 0.0
C1058 C 0.46382 0.67885 0.51201 0.0
C1059 C 0.48107 0.68521 0.48301 0.0
C1060 C 0.50946 0.67766 0.4926 0.0
C1061 C 0.51968 0.664 0.52931 0.0
C1062 C 0.43355 0.68612 0.50427 0.0
C1063 C 0.52927 0.68407 0.46386 0.0
C1064 C 0.44439 0.69318 0.37084 0.0
C1065 C 0.44583 0.72288 0.36538 0.0
C1066 C 0.45546 0.68101 0.40824 0.0
C1067 C 0.46905 0.69852 0.44236 0.0
C1068 C 0.47073 0.72859 0.43713 0.0
C1069 C 0.45918 0.74024 0.3993 0.0
C1070 C 0.45246 0.64905 0.41118 0.0
C1071 C 0.4853 0.7487 0.47142 0.0
H1072 H 0.46089 0.66098 0.56992 0.0
H1073 H 0.54134 0.65849 0.53554 0.0
H1074 H 0.43361 0.70926 0.49912 0.0
H1075 H 0.42079 0.67478 0.47672 0.0
H1076 H 0.42277 0.68036 0.52952 0.0
H1077 H 0.55093 0.67793 0.47568 0.0
H1078 H 0.52004 0.67252 0.43499 0.0
H1079 H 0.53145 0.70714 0.4575 0.0
H1080 H 0.4343 0.6791 0.34559 0.0
H1081 H 0.461 0.76312 0.39623 0.0
H1082 H 0.44041 0.64222 0.43476 0.0
H1083 H 0.47396 0.64196 0.42005 0.0
H1084 H 0.44119 0.63813 0.38251 0.0
H1085 H 0.47786 0.74228 0.49921 0.0
H1086 H 0.48137 0.77101 0.46497 0.0
H1087 H 0.50877 0.7479 0.47722 0.0
C1088 C 0.19246 0.67823 0.15533 0.0
C1089 C 0.2043 0.66087 0.18614 0.0
C1090 C 0.1859 0.66842 0.11555 0.0
C1091 C 0.19128 0.64069 0.10696 0.0
C1092 C 0.20971 0.62668 0.13606 0.0
C1093 C 0.216 0.63691 0.17585 0.0
C1094 C 0.16836 0.68539 0.08444 0.0
C1095 C 0.2189 0.59872 0.1266 0.0
C1096 C 0.1192 0.60415 0.05778 0.0
C1097 C 0.11896 0.61049 1.01771 0.0
C1098 C 0.14411 0.61073 0.08717 0.0
C1099 C 0.16953 0.62369 0.07594 0.0
C1100 C 0.17045 0.62602 1.03492 0.0
C1101 C 0.14495 0.61958 1.00608 0.0
C1102 C 0.14204 0.60682 0.13052 0.0
C1103 C 0.19746 0.63752 1.02119 0.0
H1104 H 0.18433 0.69748 0.16225 0.0
H1105 H 0.22704 0.62432 0.19921 0.0
H1106 H 0.17607 0.68529 0.05604 0.0
H1107 H 0.14558 0.67563 0.07828 0.0
H1108 H 0.16934 0.70782 0.09448 0.0
H1109 H 0.24002 0.59598 0.14578 0.0
H1110 H 0.20302 0.58102 0.13266 0.0
H1111 H 0.22026 0.59719 0.09463 0.0
H1112 H 0.09936 0.596 0.06667 0.0
H1113 H 0.14513 0.62372 0.97488 0.0
H1114 H 0.14436 0.62789 0.14572 0.0
H1115 H 0.15941 0.59512 0.14641 0.0
H1116 H 0.12121 0.59487 0.13369 0.0
H1117 H 0.1957 0.65941 1.01016 0.0
H1118 H 0.2 0.62436 0.99563 0.0
H1119 H 0.21692 0.63794 1.04532 0.0
C1120 C 0.11472 0.22546 0.77019 0.0
C1121 C 0.12043 0.24502 0.74067 0.0
C1122 C 0.10494 0.23373 0.80471 0.0
C1123 C 0.10068 0.26248 0.81091 0.0
C1124 C 0.10681 0.28231 0.78145 0.0
C1125 C 0.1165 0.27349 0.74729 0.0
C1126 C 0.09887 0.21146 0.83453 0.0
C1127 C 0.10262 0.31307 0.78562 0.0
C1128 C 0.04997 0.2817 0.8797 0.0
C1129 C 0.06892 0.29243 0.9154 0.0
C1130 C 0.05981 0.2717 0.84629 0.0
C1131 C 0.08964 0.27189 0.84757 0.0
C1132 C 0.10887 0.2821 0.88372 0.0
C1133 C 0.09845 0.29207 0.91669 0.0
C1134 C 0.038 0.26076 0.8094 0.0
C1135 C 0.14077 0.28291 0.88744 0.0
H1136 H 0.1175 0.20342 0.76609 0.0
H1137 H 0.12076 0.28912 0.72533 0.0
H1138 H 0.11138 0.21807 0.86488 0.0
H1139 H 0.07584 0.20932 0.83593 0.0
H1140 H 0.10418 0.19033 0.82673 0.0
H1141 H 0.10857 0.32611 0.76079 0.0
H1142 H 0.07984 0.31456 0.78611 0.0
H1143 H 0.11573 0.32226 0.81441 0.0
H1144 H 0.0271 0.28087 0.87776 0.0
H1145 H 0.11373 0.30028 0.94333 0.0
H1146 H 0.03754 0.23741 0.8064 0.0
H1147 H 0.04405 0.27035 0.78219 0.0
H1148 H 0.01606 0.26533 0.81053 0.0
H1149 H 0.14594 0.26146 0.88107 0.0
H1150 H 0.15305 0.29021 0.91768 0.0
H1151 H 0.14804 0.29744 0.86495 0.0
C1152 C 0.03699 0.29254 0.23391 0.0
C1153 C 0.01104 0.30094 0.21425 0.0
C1154 C 0.03765 0.27515 0.26701 0.0
C1155 C 0.0111 0.26191 0.27456 0.0
C1156 C 0.98774 0.27769 0.26461 0.0
C1157 C 0.9873 0.29659 0.23264 0.0
C1158 C 0.06632 0.2687 0.29002 0.0
C1159 C 0.96222 0.27166 0.28389 0.0
C1160 C 0.00636 0.20662 0.20308 0.0
C1161 C 0.03226 0.1973 0.22108 0.0
C1162 C 0.99187 0.22206 0.22526 0.0
C1163 C 0.00528 0.23054 0.26541 0.0
C1164 C 0.02592 0.21397 0.28547 0.0
C1165 C 0.04118 0.1995 0.26281 0.0
C1166 C 0.96284 0.22932 0.20477 0.0
C1167 C 0.03301 0.21344 0.33039 0.0
H1168 H 0.05649 0.29898 0.22318 0.0
H1169 H 0.96795 0.30585 0.22033 0.0
H1170 H 0.06543 0.26266 0.32113 0.0
H1171 H 0.07386 0.2516 0.27447 0.0
H1172 H 0.08259 0.28762 0.29146 0.0
H1173 H 0.94206 0.27506 0.26278 0.0
H1174 H 0.96035 0.24975 0.29561 0.0
H1175 H 0.96503 0.28653 0.30973 0.0
H1176 H 0.99758 0.20226 0.17147 0.0
H1177 H 0.06 0.19047 0.2776 0.0
H1178 H 0.96526 0.24925 0.18804 0.0
H1179 H 0.94893 0.2313 0.22641 0.0
H1180 H 0.95171 0.21247 0.18239 0.0
H1181 H 0.05573 0.21036 0.34144 0.0
H1182 H 0.01943 0.19514 0.34 0.0
H1183 H 0.02819 0.23291 0.34424 0.0
C1184 C 0.97664 0.7831 0.42988 0.0
C1185 C 0.96673 0.78212 0.46546 0.0
C1186 C 0.99542 0.7648 0.42304 0.0
C1187 C 0.00714 0.74743 0.45455 0.0
C1188 C 0.9984 0.74743 0.4916 0.0
C1189 C 0.97737 0.7643 0.49621 0.0
C1190 C 0.00291 0.76472 0.38207 0.0
C1191 C 0.01104 0.72975 0.52595 0.0
C1192 C 0.04403 0.70068 0.40335 0.0
C1193 C 0.06555 0.72167 0.39621 0.0
C1194 C 0.02625 0.70655 0.42922 0.0
C1195 C 0.0315 0.73333 0.44923 0.0
C1196 C 0.05668 0.75173 0.4482 0.0
C1197 C 0.07193 0.74676 0.41918 0.0
C1198 C 0.00076 0.68535 0.43264 0.0
C1199 C 0.06456 0.77921 0.47244 0.0
H1200 H 0.96814 0.79678 0.406 0.0
H1201 H 0.96924 0.76358 0.5236 0.0
H1202 H 0.00395 0.74281 0.37184 0.0
H1203 H 0.987 0.77417 0.35914 0.0
H1204 H 0.02409 0.77749 0.38331 0.0
H1205 H 0.0347 0.73165 0.52979 0.0
H1206 H 0.00575 0.73611 0.55454 0.0
H1207 H 0.00236 0.70706 0.51948 0.0
H1208 H 0.03997 0.68056 0.38688 0.0
H1209 H 0.08859 0.76276 0.41454 0.0
H1210 H 0.9808 0.69551 0.42651 0.0
H1211 H 0.00368 0.67749 0.46368 0.0
H1212 H 0.99808 0.6668 0.41183 0.0
H1213 H 0.05456 0.79646 0.45497 0.0
H1214 H 0.0881 0.78544 0.47915 0.0
H1215 H 0.05702 0.77731 0.50106 0.0
C1216 C 0.51052 0.68544 0.72782 0.0
C1217 C 0.52159 0.68856 0.6928 0.0
C1218 C 0.49371 0.70504 0.73792 0.0
C1219 C 0.48874 0.72821 0.71275 0.0
C1220 C 0.49459 0.72747 0.67345 0.0
C1221 C 0.51221 0.70826 0.66467 0.0
C1222 C 0.48358 0.70264 0.77693 0.0
C1223 C 0.48527 0.74857 0.64178 0.0
C1224 C 0.47364 0.79888 0.70295 0.0
C1225 C 0.50204 0.80916 0.70145 0.0
C1226 C 0.46774 0.77226 0.71937 0.0
C1227 C 0.49073 0.75643 0.73175 0.0
C1228 C 0.51899 0.77097 0.74219 0.0
C1229 C 0.52462 0.79704 0.72463 0.0
C1230 C 0.43721 0.75873 0.71529 0.0
C1231 C 0.54406 0.75637 0.76251 0.0
H1232 H 0.51625 0.66864 0.74839 0.0
H1233 H 0.51892 0.7089 0.63619 0.0
H1234 H 0.49336 0.72116 0.79704 0.0
H1235 H 0.46002 0.70282 0.77092 0.0
H1236 H 0.48878 0.68285 0.79279 0.0
H1237 H 0.48311 0.7393 0.61129 0.0
H1238 H 0.46439 0.75531 0.64374 0.0
H1239 H 0.50184 0.76738 0.6449 0.0
H1240 H 0.45613 0.8094 0.68667 0.0
H1241 H 0.54659 0.80623 0.72542 0.0
H1242 H 0.4354 0.74328 0.73945 0.0
H1243 H 0.42999 0.74705 0.68613 0.0
H1244 H 0.42276 0.77511 0.7164 0.0
H1245 H 0.56236 0.77212 0.77694 0.0
H1246 H 0.55136 0.74395 0.73995 0.0
H1247 H 0.53812 0.74172 0.78566 0.0
C1248 C 0.57594 0.25345 0.92327 0.0
C1249 C 0.56938 0.22707 0.90332 0.0
C1250 C 0.55837 0.26201 0.94739 0.0
C1251 C 0.5322 0.24505 0.94799 0.0
C1252 C 0.52637 0.21743 0.93034 0.0
C1253 C 0.54557 0.20845 0.90879 0.0
C1254 C 0.56686 0.29028 0.96943 0.0
C1255 C 0.49928 0.1981 0.93234 0.0
C1256 C 0.47718 0.27157 0.99857 0.0
C1257 C 0.46315 0.28734 0.96765 0.0
C1258 C 0.50047 0.25806 0.99335 0.0
C1259 C 0.50849 0.25939 0.95574 0.0
C1260 C 0.49429 0.2755 0.92461 0.0
C1261 C 0.47252 0.29018 0.93159 0.0
C1262 C 0.51601 0.24214 1.02763 0.0
C1263 C 0.50141 0.27664 0.88341 0.0
H1264 H 0.59475 0.2675 0.92029 0.0
H1265 H 0.54117 0.18753 0.89444 0.0
H1266 H 0.56108 0.30757 0.94847 0.0
H1267 H 0.55612 0.29169 0.99504 0.0
H1268 H 0.59039 0.29369 0.98101 0.0
H1269 H 0.49645 0.17871 0.91305 0.0
H1270 H 0.50002 0.19142 0.96364 0.0
H1271 H 0.48029 0.20948 0.92321 0.0
H1272 H 0.46975 0.26955 1.02647 0.0
H1273 H 0.46148 0.30231 0.90761 0.0
H1274 H 0.5394 0.2449 1.02853 0.0
H1275 H 0.50801 0.21913 1.02365 0.0
H1276 H 0.51237 0.24937 0.05686 0.0
H1277 H 0.50155 0.25483 0.87185 0.0
H1278 H 0.52306 0.28852 0.88513 0.0
H1279 H 0.48582 0.2872 0.86143 0.0
C1280 C 0.01552 0.80007 0.85766 0.0
C1281 C 0.99776 0.79174 0.88473 0.0
C1282 C 0.02712 0.77988 0.8385 0.0
C1283 C 0.0218 0.75118 0.84848 0.0
C1284 C 0.99859 0.74268 0.86788 0.0
C1285 C 0.98754 0.76325 0.88715 0.0
C1286 C 0.04761 0.78969 0.81179 0.0
C1287 C 0.9877 0.71209 0.87339 0.0
C1288 C 0.04588 0.68391 0.86331 0.0
C1289 C 0.05504 0.6884 0.90477 0.0
C1290 C 0.04272 0.70743 0.83849 0.0
C1291 C 0.04633 0.73454 0.85685 0.0
C1292 C 0.0638 0.73887 0.8958 0.0
C1293 C 0.06697 0.71537 0.92017 0.0
C1294 C 0.03056 0.70326 0.79437 0.0
C1295 C 0.07332 0.76808 0.91485 0.0
H1296 H 0.02189 0.82231 0.85332 0.0
H1297 H 0.97213 0.75693 0.90573 0.0
H1298 H 0.05411 0.77165 0.79674 0.0
H1299 H 0.03736 0.80382 0.78863 0.0
H1300 H 0.06701 0.80253 0.82948 0.0
H1301 H 0.96543 0.71007 0.87824 0.0
H1302 H 0.98798 0.69858 0.84717 0.0
H1303 H 0.00098 0.70419 0.90051 0.0
H1304 H 0.03787 0.66274 0.85097 0.0
H1305 H 0.07554 0.71844 0.95207 0.0
H1306 H 0.00709 0.70401 0.78817 0.0
H1307 H 0.03477 0.68252 0.78339 0.0
H1308 H 0.04016 0.72065 0.77755 0.0
H1309 H 0.08036 0.78333 0.89308 0.0
H1310 H 0.09135 0.76773 0.94106 0.0
H1311 H 0.05528 0.77579 0.92554 0.0
C1312 C 0.55365 0.6817 0.13494 0.0
C1313 C 0.56416 0.69549 0.10385 0.0
C1314 C 0.5319 0.69204 0.14951 0.0
C1315 C 0.51882 0.71479 0.12956 0.0
C1316 C 0.52562 0.7246 0.09304 0.0
C1317 C 0.54925 0.71551 0.08129 0.0
C1318 C 0.52564 0.68088 0.18884 0.0
C1319 C 0.51004 0.74636 0.06813 0.0
C1320 C 0.46395 0.72844 0.18715 0.0
C1321 C 0.47683 0.75348 0.20833 0.0
C1322 C 0.47541 0.71762 0.15706 0.0
C1323 C 0.50206 0.73071 0.1509 0.0
C1324 C 0.5153 0.7563 0.172 0.0
C1325 C 0.50196 0.76784 0.1998 0.0
C1326 C 0.45878 0.69221 0.13238 0.0
C1327 C 0.54395 0.77095 0.16651 0.0
H1328 H 0.5655 0.66606 0.15196 0.0
H1329 H 0.55751 0.72581 0.05685 0.0
H1330 H 0.52714 0.6987 0.21049 0.0
H1331 H 0.50359 0.6694 0.18388 0.0
H1332 H 0.54065 0.66593 0.2028 0.0
H1333 H 0.50181 0.73773 1.03714 0.0
H1334 H 0.49176 0.75234 0.08003 0.0
H1335 H 0.52524 0.76573 0.06603 0.0
H1336 H 0.44437 0.71765 0.19303 0.0
H1337 H 0.51168 0.78751 0.21588 0.0
H1338 H 0.4488 0.67679 0.1516 0.0
H1339 H 0.47175 0.68094 0.11581 0.0
H1340 H 0.44132 0.69972 0.10991 0.0
H1341 H 0.55987 0.7556 0.1699 0.0
H1342 H 0.55234 0.78892 0.18822 0.0
H1343 H 0.54177 0.7796 0.136 0.0
C1344 C 0.49828 0.19845 0.35574 0.0
C1345 C 0.52342 0.19132 0.38003 0.0
C1346 C 0.49993 0.21482 0.32198 0.0
C1347 C 0.52729 0.22849 0.318 0.0
C1348 C 0.55036 0.21308 0.33238 0.0
C1349 C 0.54916 0.19629 0.36618 0.0
C1350 C 0.47261 0.21872 0.2928 0.0
C1351 C 0.57696 0.21728 0.31527 0.0
C1352 C 0.49441 0.28666 0.33572 0.0
C1353 C 0.50456 0.28753 0.37733 0.0
C1354 C 0.51031 0.27556 0.31056 0.0
C1355 C 0.53256 0.25993 0.32767 0.0
C1356 C 0.54697 0.26826 0.36739 0.0
C1357 C 0.53182 0.27999 0.39264 0.0
C1358 C 0.50273 0.27876 0.2661 0.0
C1359 C 0.57829 0.26608 0.38299 0.0
H1360 H 0.47758 0.1912 0.36276 0.0
H1361 H 0.56825 0.18802 0.3821 0.0
H1362 H 0.46236 0.23607 0.30333 0.0
H1363 H 0.47663 0.22324 0.26245 0.0
H1364 H 0.45695 0.19925 0.29068 0.0
H1365 H 0.59652 0.2165 0.33897 0.0
H1366 H 0.57582 0.19972 0.29345 0.0
H1367 H 0.57859 0.23751 0.29885 0.0
H1368 H 0.47455 0.29466 0.32289 0.0
H1369 H 0.54157 0.28373 0.42408 0.0
H1370 H 0.50903 0.26126 0.24969 0.0
H1371 H 0.51495 0.29873 0.2586 0.0
H1372 H 0.47963 0.28043 0.25613 0.0
H1373 H 0.58088 0.24607 0.39949 0.0
H1374 H 0.58819 0.28382 0.40455 0.0
H1375 H 0.59014 0.2671 0.35834 0.0
C1376 C 0.06079 0.23081 0.57918 0.0
C1377 C 0.06774 0.20476 0.59486 0.0
C1378 C 0.03936 0.24373 0.59134 0.0
C1379 C 0.02542 0.2302 0.62034 0.0
C1380 C 0.0304 0.20233 0.63272 0.0
C1381 C 0.0509 0.18947 0.61836 0.0
C1382 C 0.03415 0.27283 0.57574 0.0
C1383 C 0.01678 0.18737 0.66467 0.0
C1384 C 0.00389 0.27319 0.69894 0.0
C1385 C 0.97534 0.26125 0.6946 0.0
C1386 C 0.02071 0.26439 0.67349 0.0
C1387 C 0.00764 0.24545 0.64093 0.0
C1388 C 0.97799 0.2366 0.63352 0.0
C1389 C 0.96282 0.24277 0.66222 0.0
C1390 C 0.05248 0.27431 0.68254 0.0
C1391 C 0.96231 0.2196 0.59638 0.0
H1392 H 0.07408 0.24242 0.56082 0.0
H1393 H 0.05674 0.16933 0.63049 0.0
H1394 H 0.01553 0.28064 0.58465 0.0
H1395 H 0.05358 0.28824 0.58682 0.0
H1396 H 0.03079 0.27239 0.5426 0.0
H1397 H 0.02668 0.16805 0.67539 0.0
H1398 H 0.01873 0.20184 0.69084 0.0
H1399 H 0.99367 0.18071 0.65261 0.0
H1400 H 0.01333 0.2882 0.72338 0.0
H1401 H 0.94123 0.23305 0.65859 0.0
H1402 H 0.05809 0.28809 0.65832 0.0
H1403 H 0.06466 0.25581 0.68407 0.0
H1404 H 0.05938 0.28668 0.71118 0.0
H1405 H 0.9745 0.22139 0.57201 0.0
H1406 H 0.94122 0.2271 0.58497 0.0
H1407 H 0.95806 0.19688 0.60378 0.0
C1408 C 0.00214 0.03676 0.11757 0.0
C1409 C 0.02371 0.05943 0.11586 0.0
C1410 C -3e-05 0.01109 0.09575 0.0
C1411 C 0.01944 0.008 0.07051 0.0
C1412 C 0.04172 0.03066 0.06934 0.0
C1413 C 0.04364 0.05602 0.09211 0.0
C1414 C 0.97628 0.98754 0.09896 0.0
C1415 C 0.06293 0.02855 1.04286 0.0
C1416 C 0.02995 0.9334 1.03853 0.0
C1417 C 0.01303 0.93006 0.99959 0.0
C1418 C 0.03179 0.95823 0.06191 0.0
C1419 C 0.0167 0.98091 1.04602 0.0
C1420 C 0.9989 0.9774 1.007 0.0
C1421 C 0.99709 0.95196 0.98437 0.0
C1422 C 0.05033 0.96034 0.10355 0.0
C1423 C 0.98242 0.00091 0.98871 0.0
H1424 H 0.98631 0.03945 0.13527 0.0
H1425 H 0.05985 0.07371 0.08974 0.0
H1426 H 0.96109 0.98399 0.06967 0.0
H1427 H 0.98525 0.96731 0.10671 0.0
H1428 H 0.96414 0.99246 0.12189 0.0
H1429 H 0.07906 0.0478 1.04537 0.0
H1430 H 0.07432 0.00972 0.05081 0.0
H1431 H 0.05138 0.02554 1.01118 0.0
H1432 H 0.04229 0.91655 0.05062 0.0
H1433 H 0.98418 0.94972 0.95424 0.0
H1434 H 0.05978 0.94045 0.1122 0.0
H1435 H 0.03754 0.96514 0.12568 0.0
H1436 H 0.06801 0.97809 0.10538 0.0
H1437 H 0.96947 0.99501 0.95831 0.0
H1438 H 0.99755 0.02034 0.98668 0.0
H1439 H 0.96789 0.00635 1.00807 0.0
C1440 C 0.21971 0.78266 0.3219 0.0
C1441 C 0.20569 0.75792 0.33565 0.0
C1442 C 0.24662 0.78306 0.31171 0.0
C1443 C 0.25956 0.75776 0.3136 0.0
C1444 C 0.24551 0.73261 0.32733 0.0
C1445 C 0.2192 0.73325 0.33941 0.0
C1446 C 0.26114 0.81057 0.29862 0.0
C1447 C 0.25787 0.70486 0.32826 0.0
C1448 C 0.31548 0.75324 0.24948 0.0
C1449 C 0.34109 0.75684 0.2783 0.0
C1450 C 0.28881 0.75349 0.26046 0.0
C1451 C 0.28777 0.75783 0.30123 0.0
C1452 C 0.31381 0.76253 0.33015 0.0
C1453 C 0.34006 0.76135 0.31844 0.0
C1454 C 0.26175 0.74735 0.22867 0.0
C1455 C 0.31391 0.7681 0.37367 0.0
H1456 H 0.20971 0.80203 0.31936 0.0
H1457 H 0.20878 0.71419 0.35046 0.0
H1458 H 0.28302 0.81565 0.31738 0.0
H1459 H 0.26348 0.80829 0.26718 0.0
H1460 H 0.24899 0.82874 0.30074 0.0
H1461 H 0.2439 0.68703 0.33839 0.0
H1462 H 0.26079 0.69944 0.29791 0.0
H1463 H 0.2793 0.70694 0.34853 0.0
H1464 H 0.31621 0.74863 0.21866 0.0
H1465 H 0.3598 0.76314 0.34091 0.0
H1466 H 0.24598 0.76189 0.23191 0.0
H1467 H 0.25175 0.72531 0.23205 0.0
H1468 H 0.2661 0.74923 0.19799 0.0
H1469 H 0.30179 0.78613 0.37656 0.0
H1470 H 0.33596 0.77304 0.39198 0.0
H1471 H 0.30302 0.74918 0.38615 0.0
C1472 C 0.51018 0.04863 0.48999 0.0
C1473 C 0.53763 0.06333 0.49152 0.0
C1474 C 0.50557 0.02626 0.51635 0.0
C1475 C 0.52869 0.01921 0.54638 0.0
C1476 C 0.55631 0.03473 0.54872 0.0
C1477 C 0.56055 0.05606 0.52072 0.0
C1478 C 0.47601 0.00978 0.51149 0.0
C1479 C 0.5814 0.029 0.58107 0.0
C1480 C 0.50941 0.97876 0.63689 0.0
C1481 C 0.51472 0.95104 0.62942 0.0
C1482 C 0.51433 0.00113 0.61067 0.0
C1483 C 0.52398 -0.00435 0.57519 0.0
C1484 C 0.52893 0.96753 0.56725 0.0
C1485 C 0.52466 0.94578 0.59466 0.0
C1486 C 0.5095 0.03076 0.62121 0.0
C1487 C 0.53834 0.96026 0.52943 0.0
H1488 H 0.49244 0.05402 0.46724 0.0
H1489 H 0.58176 0.06754 0.5222 0.0
H1490 H 0.47711 0.98679 0.50712 0.0
H1491 H 0.46757 0.01208 0.53901 0.0
H1492 H 0.46062 0.01701 0.48566 0.0
H1493 H 0.601 0.04406 0.58045 0.0
H1494 H 0.57593 0.03068 0.61092 0.0
H1495 H 0.58626 0.00702 0.57752 0.0
H1496 H 0.50182 0.9831 0.66373 0.0
H1497 H 0.52853 0.92446 0.58841 0.0
H1498 H 0.49237 0.03813 0.59798 0.0
H1499 H 0.5293 0.04578 0.62193 0.0
H1500 H 0.50328 0.03185 0.65068 0.0
H1501 H 0.52278 0.96625 0.5029 0.0
H1502 H 0.54021 0.93724 0.52683 0.0
H1503 H 0.55942 0.9726 0.52866 0.0
C1504 C 0.33197 0.23372 0.85397 0.0
C1505 C 0.32638 0.24354 0.89007 0.0
C1506 C 0.31152 0.23246 0.81769 0.0
C1507 C 0.28394 0.24025 0.81704 0.0
C1508 C 0.27808 0.25033 0.85337 0.0
C1509 C 0.29944 0.25223 0.88928 0.0
C1510 C 0.31939 0.22226 0.78006 0.0
C1511 C 0.2489 0.25837 0.85449 0.0
C1512 C 0.23813 0.26152 0.71816 0.0
C1513 C 0.21894 0.23676 0.70557 0.0
C1514 C 0.25949 0.26265 0.75352 0.0
C1515 C 0.26174 0.23857 0.77813 0.0
C1516 C 0.24311 0.21304 0.76489 0.0
C1517 C 0.22196 0.21247 0.7289 0.0
C1518 C 0.27948 0.2899 0.76477 0.0
C1519 C 0.24442 0.1866 0.78954 0.0
H1520 H 0.35255 0.22666 0.85404 0.0
H1521 H 0.29463 0.25935 0.91697 0.0
H1522 H 0.31543 0.23807 0.75616 0.0
H1523 H 0.34222 0.21857 0.78498 0.0
H1524 H 0.30566 0.20209 0.76901 0.0
H1525 H 0.24734 0.26524 0.88493 0.0
H1526 H 0.24401 0.27588 0.83354 0.0
H1527 H 0.23229 0.23992 0.84436 0.0
H1528 H 0.23596 0.28054 0.70061 0.0
H1529 H 0.20693 0.1935 0.72024 0.0
H1530 H 0.30205 0.28558 0.76901 0.0
H1531 H 0.27665 0.29858 0.7936 0.0
H1532 H 0.27582 0.30635 0.74167 0.0
H1533 H 0.26665 0.18427 0.805 0.0
H1534 H 0.23552 0.1672 0.77072 0.0
H1535 H 0.23154 0.18799 0.81279 0.0
C1536 C 0.73345 0.2453 0.86394 0.0
C1537 C 0.70794 0.24592 0.83557 0.0
C1538 C 0.75982 0.24539 0.85191 0.0
C1539 C 0.76047 0.24502 0.81053 0.0
C1540 C 0.73442 0.24457 0.78189 0.0
C1541 C 0.70866 0.24583 0.7948 0.0
C1542 C 0.78694 0.24567 0.8835 0.0
C1543 C 0.73364 0.2428 0.73753 0.0
C1544 C 0.82838 0.26563 0.76917 0.0
C1545 C 0.83863 0.23937 0.76786 0.0
C1546 C 0.80366 0.26804 0.78463 0.0
C1547 C 0.78799 0.24333 0.79707 0.0
C1548 C 0.79832 0.21676 0.79547 0.0
C1549 C 0.82351 0.21527 0.78144 0.0
C1550 C 0.79483 0.29711 0.78885 0.0
C1551 C 0.78326 0.18935 0.80809 0.0
H1552 H 0.73295 0.24592 0.89552 0.0
H1553 H 0.68891 0.24662 0.7729 0.0
H1554 H 0.7937 0.22409 0.88522 0.0
H1555 H 0.8046 0.26057 0.87563 0.0
H1556 H 0.78386 0.25181 0.91352 0.0
H1557 H 0.74226 0.2637 0.72729 0.0
H1558 H 0.74721 0.22692 0.73089 0.0
H1559 H 0.71147 0.23701 0.7199 0.0
H1560 H 0.83993 0.28434 0.75896 0.0
H1561 H 0.83115 0.19475 0.78067 0.0
H1562 H 0.79324 0.30094 0.82033 0.0
H1563 H 0.77337 0.29831 0.76981 0.0
H1564 H 0.81026 0.31434 0.78034 0.0
H1565 H 0.79837 0.17948 0.83162 0.0
H1566 H 0.77714 0.17413 0.78218 0.0
H1567 H 0.76383 0.19186 0.81969 0.0
C1568 C 0.82475 0.73208 0.35112 0.0
C1569 C 0.82628 0.7507 0.38377 0.0
C1570 C 0.80317 0.73156 0.31617 0.0
C1571 C 0.7821 0.75023 0.31288 0.0
C1572 C 0.78361 0.76949 0.34543 0.0
C1573 C 0.80558 0.76947 0.38049 0.0
C1574 C 0.80266 0.71048 0.2829 0.0
C1575 C 0.76152 0.78962 0.34361 0.0
C1576 C 0.73922 0.76218 0.20696 0.0
C1577 C 0.71419 0.74281 0.20447 0.0
C1578 C 0.76134 0.76489 0.24178 0.0
C1579 C 0.75816 0.74856 0.2759 0.0
C1580 C 0.73265 0.72933 0.27364 0.0
C1581 C 0.71125 0.72644 0.23801 0.0
C1582 C 0.78795 0.78567 0.24232 0.0
C1583 C 0.72764 0.71188 0.30904 0.0
H1584 H 0.84052 0.71743 0.3529 0.0
H1585 H 0.80615 0.78366 0.4055 0.0
H1586 H 0.78268 0.69525 0.27866 0.0
H1587 H 0.80265 0.72168 0.2543 0.0
H1588 H 0.82128 0.69826 0.28914 0.0
H1589 H 0.76623 0.80417 0.37023 0.0
H1590 H 0.76048 0.80253 0.31629 0.0
H1591 H 0.74003 0.77727 0.34165 0.0
H1592 H 0.74122 0.77574 0.18178 0.0
H1593 H 0.69157 0.7123 0.23713 0.0
H1594 H 0.80716 0.77431 0.24837 0.0
H1595 H 0.79062 0.80169 0.26684 0.0
H1596 H 0.78723 0.79691 0.21359 0.0
H1597 H 0.73882 0.69275 0.30979 0.0
H1598 H 0.70445 0.70505 0.30705 0.0
H1599 H 0.73622 0.72387 0.3377 0.0
C1600 C 0.5369 0.528 0.62378 0.0
C1601 C 0.52278 0.55076 0.6072 0.0
C1602 C 0.53504 0.50246 0.60127 0.0
C1603 C 0.51904 0.49973 0.5611 0.0
C1604 C 0.50565 0.52315 0.54409 0.0
C1605 C 0.5075 0.54806 0.5673 0.0
C1606 C 0.54957 0.47809 0.62081 0.0
C1607 C 0.48897 0.52182 0.50134 0.0
C1608 C 0.53634 0.44491 0.49059 0.0
C1609 C 0.5138 0.42264 0.48883 0.0
C1610 C 0.53805 0.46998 0.51345 0.0
C1611 C 0.51701 0.47296 0.53618 0.0
C1612 C 0.4938 0.45071 0.53396 0.0
C1613 C 0.4924 0.42591 0.51016 0.0
C1614 C 0.5628 0.49312 0.51381 0.0
C1615 C 0.47094 0.45269 0.55776 0.0
H1616 H 0.54832 0.52966 0.65473 0.0
H1617 H 0.49642 0.56551 0.55425 0.0
H1618 H 0.53339 0.45918 0.62087 0.0
H1619 H 0.56511 0.47211 0.60341 0.0
H1620 H 0.56108 0.48336 0.65212 0.0
H1621 H 0.48034 0.54206 0.49221 0.0
H1622 H 0.50289 0.51696 0.48075 0.0
H1623 H 0.47081 0.50443 0.49756 0.0
H1624 H 0.55319 0.44243 0.4746 0.0
H1625 H 0.47533 0.40856 0.50977 0.0
H1626 H 0.57589 0.49648 0.54462 0.0
H1627 H 0.55462 0.51351 0.50452 0.0
H1628 H 0.57691 0.48797 0.49359 0.0
H1629 H 0.48084 0.45432 0.59018 0.0
H1630 H 0.45409 0.43396 0.55241 0.0
H1631 H 0.46066 0.47221 0.54997 0.0
C1632 C 0.05314 0.53134 0.99847 0.0
C1633 C 0.03119 0.54636 0.97863 0.0
C1634 C 0.04794 0.50974 1.02565 0.0
C1635 C 0.01976 0.50187 1.03205 0.0
C1636 C 0.99744 0.51692 1.01175 0.0
C1637 C 0.00354 0.53934 0.98604 0.0
C1638 C 0.07274 0.49545 1.04774 0.0
C1639 C 0.96692 0.50884 1.01636 0.0
C1640 C 0.00395 0.42714 0.07332 0.0
C1641 C 0.00326 0.43316 0.11325 0.0
C1642 C 0.00855 0.4492 1.04641 0.0
C1643 C 0.01376 0.47807 0.06002 0.0
C1644 C 0.01366 0.48409 0.10068 0.0
C1645 C 0.00778 0.4617 0.12641 0.0
C1646 C 0.00733 0.44158 1.00319 0.0
C1647 C 0.02028 0.51422 0.11728 0.0
H1648 H 0.07462 0.53682 0.99315 0.0
H1649 H 0.98644 0.5507 0.97059 0.0
H1650 H 0.07376 0.49662 0.08047 0.0
H1651 H 0.06958 0.47261 1.03886 0.0
H1652 H 0.09361 0.5053 1.04166 0.0
H1653 H 0.95183 0.52176 0.99743 0.0
H1654 H 0.95998 0.48603 1.00812 0.0
H1655 H 0.96544 0.51167 1.04804 0.0
H1656 H 5e-05 0.40518 0.06279 0.0
H1657 H 0.00738 0.4665 0.15729 0.0
H1658 H 0.02837 0.44847 0.99532 0.0
H1659 H 0.99124 0.45297 0.98343 0.0
H1660 H 0.00167 0.41836 0.99681 0.0
H1661 H 0.0414 0.52395 0.11201 0.0
H1662 H 0.02071 0.51529 0.14989 0.0
H1663 H 0.00401 0.52728 0.1016 0.0
C1664 C 0.09911 0.14352 0.31329 0.0
C1665 C 0.06914 0.13777 0.29852 0.0
C1666 C 0.11146 0.1526 0.3537 0.0
C1667 C 0.09395 0.15627 0.38174 0.0
C1668 C 0.06369 0.14994 0.36741 0.0
C1669 C 0.0518 0.141 0.32661 0.0
C1670 C 0.14362 0.15911 0.36616 0.0
C1671 C 0.04366 0.15328 0.39519 0.0
C1672 C 0.12664 0.15803 0.49724 0.0
C1673 C 0.13188 0.1873 0.50789 0.0
C1674 C 0.11465 0.14788 0.45706 0.0
C1675 C 0.10727 0.1671 0.42538 0.0
C1676 C 0.1132 0.19672 0.43591 0.0
C1677 C 0.1249 0.20621 0.47632 0.0
C1678 C 0.10971 0.11626 0.44855 0.0
C1679 C 0.10653 0.21907 0.40505 0.0
H1680 H 0.11324 0.1417 0.29277 0.0
H1681 H 0.02873 0.13725 0.31646 0.0
H1682 H 0.14954 0.18199 0.37474 0.0
H1683 H 0.15159 0.14668 0.39282 0.0
H1684 H 0.15464 0.15424 0.34192 0.0
H1685 H 0.02077 0.14808 0.38011 0.0
H1686 H 0.04825 0.1392 0.42115 0.0
H1687 H 0.04728 0.17548 0.40715 0.0
H1688 H 0.13143 0.14278 0.5206 0.0
H1689 H 0.12826 0.22885 0.48317 0.0
H1690 H 0.1213 0.11105 0.42513 0.0
H1691 H 0.08656 0.10935 0.43678 0.0
H1692 H 0.11697 0.10391 0.47563 0.0
H1693 H 0.10691 0.21169 0.37443 0.0
H1694 H 0.12196 0.23877 0.41245 0.0
H1695 H 0.08488 0.22475 0.40532 0.0
C1696 C 0.1635 0.85931 0.5935 0.0
C1697 C 0.13933 0.8618 0.56329 0.0
C1698 C 0.16344 0.8654 0.63349 0.0
C1699 C 0.13863 0.8742 0.64315 0.0
C1700 C 0.11513 0.87906 0.61241 0.0
C1701 C 0.11575 0.87273 0.57268 0.0
C1702 C 0.18895 0.86022 0.66553 0.0
C1703 C 0.08838 0.88866 0.62171 0.0
C1704 C 0.11546 0.84931 0.73755 0.0
C1705 C 0.1212 0.87448 0.76063 0.0
C1706 C 0.12238 0.84868 0.69987 0.0
C1707 C 0.13521 0.87393 0.68508 0.0
C1708 C 0.14248 0.89904 0.70916 0.0
C1709 C 0.13538 0.89901 0.74693 0.0
C1710 C 0.11465 0.82136 0.67515 0.0
C1711 C 0.15624 0.92625 0.69423 0.0
H1712 H 0.18201 0.85142 0.58601 0.0
H1713 H 0.09704 0.87461 0.54932 0.0
H1714 H 0.19434 0.87766 0.68845 0.0
H1715 H 0.18363 0.84021 0.68092 0.0
H1716 H 0.20814 0.85824 0.65289 0.0
H1717 H 0.07378 0.89506 0.59441 0.0
H1718 H 0.07662 0.87103 0.63564 0.0
H1719 H 0.09398 0.90685 0.64344 0.0
H1720 H 0.10483 0.83029 0.74862 0.0
H1721 H 0.13966 0.91848 0.76492 0.0
H1722 H 0.13357 0.81583 0.6644 0.0
H1723 H 0.09778 0.8242 0.64837 0.0
H1724 H 0.10661 0.80322 0.69224 0.0
H1725 H 0.17439 0.92214 0.68053 0.0
H1726 H 0.16419 0.94257 0.71857 0.0
H1727 H 0.14032 0.93504 0.67066 0.0
C1728 C 0.42272 0.76738 0.09578 0.0
C1729 C 0.41962 0.78695 0.12534 0.0
C1730 C 0.42948 0.77606 0.05808 0.0
C1731 C 0.43292 0.8054 1.04772 0.0
C1732 C 0.42947 0.8252 0.07726 0.0
C1733 C 0.42329 0.81596 0.11505 0.0
C1734 C 0.43299 0.75343 1.02925 0.0
C1735 C 0.43234 0.85657 0.06896 0.0
C1736 C 0.47536 0.83356 0.96473 0.0
C1737 C 0.45392 0.83482 0.92953 0.0
C1738 C 0.46906 0.8238 1.00226 0.0
C1739 C 0.44026 0.81536 1.00671 0.0
C1740 C 0.41851 0.81683 0.97148 0.0
C1741 C 0.42546 0.82603 0.93408 0.0
C1742 C 0.49371 0.82285 1.03743 0.0
C1743 C 0.38744 0.80898 0.97335 0.0
H1744 H 0.42028 0.74494 0.10232 0.0
H1745 H 0.42129 0.83178 0.13676 0.0
H1746 H 0.41359 0.75008 1.00488 0.0
H1747 H 0.45162 0.76011 1.01533 0.0
H1748 H 0.43589 0.7328 1.04412 0.0
H1749 H 0.42711 0.86933 0.09304 0.0
H1750 H 0.45461 0.86406 0.06605 0.0
H1751 H 0.41795 0.86055 1.04014 0.0
H1752 H 0.49753 0.83977 0.96296 0.0
H1753 H 0.40817 0.82689 0.9083 0.0
H1754 H 0.48972 0.80446 0.0566 0.0
H1755 H 0.49631 0.84252 0.05601 0.0
H1756 H 0.51416 0.82163 1.0276 0.0
H1757 H 0.3836 0.78628 0.98112 0.0
H1758 H 0.37274 0.81243 0.94454 0.0
H1759 H 0.38208 0.82177 0.99726 0.0
C1760 C 0.43432 0.12899 0.36254 0.0
C1761 C 0.45243 0.10777 0.36798 0.0
C1762 C 0.41833 0.13354 0.3243 0.0
C1763 C 0.42066 0.11617 0.2918 0.0
C1764 C 0.43351 0.09097 0.29943 0.0
C1765 C 0.44994 0.0873 0.33759 0.0
C1766 C 0.40251 0.15924 0.31767 0.0
C1767 C 0.43378 0.07038 0.26605 0.0
C1768 C 0.39303 0.14039 0.18615 0.0
C1769 C 0.41835 0.1544 0.17708 0.0
C1770 C 0.39315 0.12743 0.22322 0.0
C1771 C 0.4192 0.12896 0.25184 0.0
C1772 C 0.44484 0.14319 0.2426 0.0
C1773 C 0.44408 0.15554 0.2052 0.0
C1774 C 0.36561 0.11121 0.23036 0.0
C1775 C 0.47336 0.145 0.27182 0.0
H1776 H 0.43586 0.14451 0.3864 0.0
H1777 H 0.46344 0.0704 0.34224 0.0
H1778 H 0.4135 0.17513 0.30021 0.0
H1779 H 0.38048 0.15305 0.29996 0.0
H1780 H 0.40115 0.16945 0.34632 0.0
H1781 H 0.43723 0.04891 0.27772 0.0
H1782 H 0.41333 0.06876 0.24349 0.0
H1783 H 0.4515 0.07805 0.25082 0.0
H1784 H 0.37318 0.13909 0.16391 0.0
H1785 H 0.46361 0.16639 0.19804 0.0
H1786 H 0.36553 0.10821 0.26255 0.0
H1787 H 0.36256 0.08986 0.21572 0.0
H1788 H 0.34699 0.12217 0.21656 0.0
H1789 H 0.47125 0.15072 0.30239 0.0
H1790 H 0.48987 0.16086 0.26287 0.0
H1791 H 0.48115 0.12392 0.27332 0.0
C1792 C 0.91568 0.78793 0.61833 0.0
C1793 C 0.90697 0.8062 0.5864 0.0
C1794 C 0.92654 0.79793 0.65885 0.0
C1795 C 0.92936 0.82741 0.66947 0.0
C1796 C 0.92043 0.84598 0.63748 0.0
C1797 C 0.90957 0.83538 0.59709 0.0
C1798 C 0.93535 0.77666 0.69051 0.0
C1799 C 0.92263 0.87746 0.64587 0.0
C1800 C 0.93399 0.84948 0.78192 0.0
C1801 C 0.96359 0.85762 0.79758 0.0
C1802 C 0.92283 0.84025 0.74111 0.0
C1803 C 0.94125 0.83853 0.71359 0.0
C1804 C 0.97114 0.84697 0.72906 0.0
C1805 C 0.98174 0.85627 0.77005 0.0
C1806 C 0.89097 0.83177 0.72759 0.0
C1807 C 0.99229 0.84566 0.70234 0.0
H1808 H 0.91438 0.76544 0.61163 0.0
H1809 H 0.90349 0.85023 0.57363 0.0
H1810 H 0.95845 0.78191 0.70429 0.0
H1811 H 0.92326 0.77777 0.71472 0.0
H1812 H 0.93156 0.7545 0.67827 0.0
H1813 H 0.91472 0.88935 0.61857 0.0
H1814 H 0.91008 0.88133 0.66872 0.0
H1815 H 0.94529 0.88608 0.65834 0.0
H1816 H 0.91925 0.84989 0.80193 0.0
H1817 H 0.00457 0.86199 0.78067 0.0
H1818 H 0.8866 0.809 0.7181 0.0
H1819 H 0.88249 0.84427 0.70124 0.0
H1820 H 0.87912 0.83506 0.75153 0.0
H1821 H 0.99179 0.82334 0.6923 0.0
H1822 H 0.01456 0.85382 0.71766 0.0
H1823 H 0.98621 0.85825 0.67514 0.0
C1824 C 0.86445 0.14625 0.49326 0.0
C1825 C 0.88107 0.13219 0.52398 0.0
C1826 C 0.8657 0.14178 0.45327 0.0
C1827 C 0.88366 0.12247 0.44407 0.0
C1828 C 0.89781 0.1058 0.47447 0.0
C1829 C 0.89648 0.11099 0.5143 0.0
C1830 C 0.85027 0.15994 0.42165 0.0
C1831 C 0.91673 0.0846 0.46554 0.0
C1832 C 0.8853 0.10687 0.33601 0.0
C1833 C 0.90966 0.12522 0.33135 0.0
C1834 C 0.87632 0.10572 0.37256 0.0
C1835 C 0.8919 0.12363 0.40474 0.0
C1836 C 0.91607 0.14267 0.39991 0.0
C1837 C 0.92479 0.14305 0.36335 0.0
C1838 C 0.85057 0.08509 0.37696 0.0
C1839 C 0.93309 0.16234 0.43359 0.0
H1840 H 0.85193 0.16216 0.50072 0.0
H1841 H 0.90933 0.10003 0.53797 0.0
H1842 H 0.86591 0.17728 0.41401 0.0
H1843 H 0.8405 0.14731 0.39384 0.0
H1844 H 0.83323 0.16973 0.43216 0.0
H1845 H 0.92177 0.06986 0.49066 0.0
H1846 H 0.9064 0.07192 0.43796 0.0
H1847 H 0.93719 0.09617 0.46045 0.0
H1848 H 0.87332 0.0933 0.31115 0.0
H1849 H 0.94394 0.15686 0.36019 0.0
H1850 H 0.83448 0.09655 0.38702 0.0
H1851 H 0.85716 0.06947 0.40026 0.0
H1852 H 0.84024 0.07332 0.34855 0.0
H1853 H 0.91878 0.17569 0.44451 0.0
H1854 H 0.95065 0.1766 0.4243 0.0
H1855 H 0.94262 0.14967 0.45913 0.0
C1856 C 0.63505 0.22987 1.02189 0.0
C1857 C 0.63345 0.20986 0.99066 0.0
C1858 C 0.62863 0.22179 0.05979 0.0
C1859 C 0.61958 0.19281 0.06756 0.0
C1860 C 0.61763 0.17262 1.03596 0.0
C1861 C 0.62472 0.1812 0.99868 0.0
C1862 C 0.63159 0.24449 0.09172 0.0
C1863 C 0.60731 0.14172 1.04117 0.0
C1864 C 0.62488 0.16468 0.17662 0.0
C1865 C 0.59696 0.16484 0.18408 0.0
C1866 C 0.63249 0.17401 0.13988 0.0
C1867 C 0.61189 0.1836 0.10808 0.0
C1868 C 0.58372 0.18373 0.11513 0.0
C1869 C 0.57681 0.17486 0.15243 0.0
C1870 C 0.66293 0.17359 0.13511 0.0
C1871 C 0.5606 0.19361 0.08315 0.0
H1872 H 0.64135 0.25212 1.01674 0.0
H1873 H 0.62267 0.16529 0.97523 0.0
H1874 H 0.61068 0.24526 0.10029 0.0
H1875 H 0.64693 0.23925 0.11898 0.0
H1876 H 0.63918 0.26592 0.08177 0.0
H1877 H 0.60656 0.12849 1.01411 0.0
H1878 H 0.62159 0.13315 0.06698 0.0
H1879 H 0.58551 0.13965 1.04787 0.0
H1880 H 0.64111 0.15687 0.19938 0.0
H1881 H 0.55534 0.17623 0.15665 0.0
H1882 H 0.67195 0.19501 0.12696 0.0
H1883 H 0.6633 0.15865 0.11037 0.0
H1884 H 0.67699 0.16705 0.16281 0.0
H1885 H 0.55966 0.18279 0.05406 0.0
H1886 H 0.56578 0.21675 0.0791 0.0
H1887 H 0.53911 0.18969 0.09085 0.0
C1888 C 0.60254 0.84942 0.72983 0.0
C1889 C 0.59138 0.87527 0.72945 0.0
C1890 C 0.61849 0.84 0.76553 0.0
C1891 C 0.6229 0.857 0.80078 0.0
C1892 C 0.61631 0.88528 0.79823 0.0
C1893 C 0.60027 0.89405 0.76237 0.0
C1894 C 0.62654 0.81024 0.76692 0.0
C1895 C 0.62182 0.90456 0.8348 0.0
C1896 C 0.60165 0.82271 0.89187 0.0
C1897 C 0.62809 0.82386 0.91859 0.0
C1898 C 0.59997 0.83228 0.85281 0.0
C1899 C 0.62549 0.84312 0.84008 0.0
C1900 C 0.65241 0.843 0.86628 0.0
C1901 C 0.65337 0.83352 0.90547 0.0
C1902 C 0.57064 0.83238 0.82612 0.0
C1903 C 0.68009 0.8542 0.85403 0.0
H1904 H 0.59559 0.83498 0.70412 0.0
H1905 H 0.59167 0.91418 0.76166 0.0
H1906 H 0.64812 0.80972 0.78612 0.0
H1907 H 0.61101 0.79599 0.78024 0.0
H1908 H 0.62633 0.80179 0.73656 0.0
H1909 H 0.62084 0.92717 0.82656 0.0
H1910 H 0.60527 0.89824 0.85266 0.0
H1911 H 0.64308 0.90267 0.85402 0.0
H1912 H 0.58208 0.81556 0.90211 0.0
H1913 H 0.67391 0.83411 0.92606 0.0
H1914 H 0.57008 0.82336 0.79607 0.0
H1915 H 0.56575 0.85461 0.82218 0.0
H1916 H 0.55343 0.82004 0.83873 0.0
H1917 H 0.67876 0.85091 0.82152 0.0
H1918 H 0.69827 0.84388 0.87098 0.0
H1919 H 0.68491 0.87738 0.86086 0.0
C1920 C 0.55227 0.63281 0.83122 0.0
C1921 C 0.57027 0.62871 0.80433 0.0
C1922 C 0.56325 0.64355 0.87145 0.0
C1923 C 0.59335 0.65075 0.88665 0.0
C1924 C 0.61158 0.64636 0.85974 0.0
C1925 C 0.60005 0.63566 0.81972 0.0
C1926 C 0.54235 0.64773 0.89762 0.0
C1927 C 0.64361 0.65364 0.873 0.0
C1928 C 0.62109 0.70438 0.97821 0.0
C1929 C 0.62901 0.68693 1.01137 0.0
C1930 C 0.60998 0.69317 0.93832 0.0
C1931 C 0.60574 0.66327 0.92988 0.0
C1932 C 0.61381 0.64554 0.96317 0.0
C1933 C 0.62522 0.65735 1.00273 0.0
C1934 C 0.60224 0.71365 0.90511 0.0
C1935 C 0.60999 0.6137 0.9571 0.0
H1936 H 0.52928 0.62823 0.82053 0.0
H1937 H 0.61465 0.6332 0.80007 0.0
H1938 H 0.54775 0.63618 0.92597 0.0
H1939 H 0.54403 0.67063 0.90562 0.0
H1940 H 0.51983 0.6402 0.8827 0.0
H1941 H 0.65521 0.64855 0.84951 0.0
H1942 H 0.64896 0.67667 0.88079 0.0
H1943 H 0.65148 0.64184 0.90035 0.0
H1944 H 0.62338 0.72716 0.98338 0.0
H1945 H 0.63062 0.64312 1.02726 0.0
H1946 H 0.57856 0.71243 0.89637 0.0
H1947 H 0.61014 0.70799 0.87823 0.0
H1948 H 0.6112 0.73595 0.91431 0.0
H1949 H 0.58707 0.60593 0.94491 0.0
H1950 H 0.61719 0.60252 0.98534 0.0
H1951 H 0.62228 0.60795 0.93482 0.0
C1952 C 0.63554 0.34012 0.25127 0.0
C1953 C 0.61193 0.35211 0.25849 0.0
C1954 C 0.64165 0.34059 0.21293 0.0
C1955 C 0.62397 0.35388 0.18182 0.0
C1956 C 0.60065 0.36681 0.18946 0.0
C1957 C 0.59475 0.36555 0.22779 0.0
C1958 C 0.66637 0.32617 0.2054 0.0
C1959 C 0.58158 0.38141 0.15698 0.0
C1960 C 0.6509 0.37321 0.08756 0.0
C1961 C 0.63586 0.35115 0.06168 0.0
C1962 C 0.64722 0.37448 0.12708 0.0
C1963 C 0.62863 0.35276 0.14062 0.0
C1964 C 0.61372 0.33024 0.11446 0.0
C1965 C 0.61739 0.32985 0.07503 0.0
C1966 C 0.66302 0.39898 0.15423 0.0
C1967 C 0.59418 0.30642 0.12818 0.0
H1968 H 0.64867 0.32973 0.27533 0.0
H1969 H 0.57669 0.37509 0.23389 0.0
H1970 H 0.65815 0.30811 0.1838 0.0
H1971 H 0.6811 0.34119 0.19178 0.0
H1972 H 0.67878 0.31796 0.23328 0.0
H1973 H 0.56556 0.39206 0.16866 0.0
H1974 H 0.59472 0.39752 0.14247 0.0
H1975 H 0.56996 0.3656 0.13348 0.0
H1976 H 0.6654 0.38937 0.07679 0.0
H1977 H 0.60637 0.31252 0.05476 0.0
H1978 H 0.6768 0.39087 0.18095 0.0
H1979 H 0.64744 0.41074 0.16506 0.0
H1980 H 0.67666 0.41408 0.13893 0.0
H1981 H 0.6066 0.29507 0.15298 0.0
H1982 H 0.5839 0.29077 0.10369 0.0
H1983 H 0.5771 0.31516 0.13989 0.0
C1984 C 0.9185 0.33261 0.42748 0.0
C1985 C 0.94179 0.32284 0.41441 0.0
C1986 C 0.91077 0.32438 0.46462 0.0
C1987 C 0.92653 0.30582 0.49093 0.0
C1988 C 0.94969 0.29549 0.47771 0.0
C1989 C 0.95687 0.3039 0.44034 0.0
C1990 C 0.88541 0.33561 0.47574 0.0
C1991 C 0.96703 0.27519 0.50308 0.0
C1992 C 0.92476 0.30786 0.60515 0.0
C1993 C 0.90697 0.28272 0.6108 0.0
C1994 C 0.93123 0.31533 0.5671 0.0
C1995 C 0.91931 0.29786 0.53226 0.0
C1996 C 0.90096 0.27262 0.53767 0.0
C1997 C 0.89543 0.2653 0.57633 0.0
C1998 C 0.95182 0.34172 0.5645 0.0
C1999 C 0.8874 0.25275 0.50266 0.0
H2000 H 0.90635 0.34728 0.40897 0.0
H2001 H 0.97438 0.29517 0.43135 0.0
H2002 H 0.86992 0.31762 0.4821 0.0
H2003 H 0.89258 0.34898 0.50345 0.0
H2004 H 0.87421 0.3485 0.4517 0.0
H2005 H 0.98663 0.27211 0.49208 0.0
H2006 H 0.97322 0.283 0.53463 0.0
H2007 H 0.95383 0.25419 0.50269 0.0
H2008 H 0.93464 0.32142 0.63104 0.0
H2009 H 0.88196 0.24566 0.57947 0.0
H2010 H 0.94143 0.35634 0.54232 0.0
H2011 H 0.9707 0.33582 0.55393 0.0
H2012 H 0.95941 0.35326 0.59376 0.0
H2013 H 0.87944 0.26483 0.47561 0.0
H2014 H 0.86931 0.23774 0.50923 0.0
H2015 H 0.90367 0.24006 0.49563 0.0
C2016 C 0.95063 0.59677 0.83948 0.0
C2017 C 0.95892 0.61891 0.86811 0.0
C2018 C 0.93292 0.60098 0.80248 0.0
C2019 C 0.92487 0.62833 0.7938 0.0
C2020 C 0.92907 0.64894 0.82509 0.0
C2021 C 0.946 0.64378 0.86246 0.0
C2022 C 0.92657 0.57763 0.77084 0.0
C2023 C 0.91955 0.67795 0.81748 0.0
C2024 C 0.94279 0.65673 0.69726 0.0
C2025 C 0.91567 0.65866 0.67376 0.0
C2026 C 0.94582 0.64657 0.73619 0.0
C2027 C 0.92101 0.63792 0.75188 0.0
C2028 C 0.89346 0.63913 0.72785 0.0
C2029 C 0.89112 0.64972 0.689 0.0
C2030 C 0.97572 0.64513 0.76042 0.0
C2031 C 0.86648 0.62844 0.74229 0.0
H2032 H 0.96032 0.57725 0.8444 0.0
H2033 H 0.95196 0.66045 0.88532 0.0
H2034 H 0.90518 0.57826 0.75114 0.0
H2035 H 0.94286 0.58055 0.75192 0.0
H2036 H 0.92728 0.55635 0.78451 0.0
H2037 H 0.91764 0.68841 0.84567 0.0
H2038 H 0.9356 0.69152 0.80415 0.0
H2039 H 0.89864 0.67665 0.7961 0.0
H2040 H 0.9617 0.66368 0.68536 0.0
H2041 H 0.87009 0.65067 0.6703 0.0
H2042 H 0.97892 0.62267 0.76668 0.0
H2043 H 0.97879 0.65648 0.78965 0.0
H2044 H 0.99254 0.65441 0.74449 0.0
H2045 H 0.86184 0.60507 0.7371 0.0
H2046 H 0.84776 0.63817 0.72572 0.0
H2047 H 0.86877 0.63265 0.7748 0.0
C2048 C 0.43529 0.33976 0.28988 0.0
C2049 C 0.46513 0.34739 0.30398 0.0
C2050 C 0.42287 0.33148 0.24914 0.0
C2051 C 0.4402 0.33052 0.22009 0.0
C2052 C 0.47025 0.33904 0.23374 0.0
C2053 C 0.48219 0.34708 0.27486 0.0
C2054 C 0.39092 0.32297 0.23735 0.0
C2055 C 0.49011 0.33885 0.20489 0.0
C2056 C 0.41144 0.28143 0.12412 0.0
C2057 C 0.40347 0.30044 0.09305 0.0
C2058 C 0.4226 0.29056 0.16477 0.0
C2059 C 0.42701 0.32003 0.17619 0.0
C2060 C 0.41835 0.33934 0.1451 0.0
C2061 C 0.40698 0.32951 0.10457 0.0
C2062 C 0.4302 0.26795 0.19483 0.0
C2063 C 0.42098 0.3707 0.15466 0.0
H2064 H 0.42138 0.33939 0.31116 0.0
H2065 H 0.50519 0.35248 0.28439 0.0
H2066 H 0.38173 0.33517 0.21105 0.0
H2067 H 0.3864 0.30008 0.22846 0.0
H2068 H 0.37987 0.32655 0.26208 0.0
H2069 H 0.51292 0.3452 0.21961 0.0
H2070 H 0.48787 0.31725 0.19122 0.0
H2071 H 0.48414 0.35361 0.1802 0.0
H2072 H 0.40931 0.25896 0.1167 0.0
H2073 H 0.40123 0.34484 0.08166 0.0
H2074 H 0.4299 0.27463 0.22579 0.0
H2075 H 0.45194 0.2629 0.19375 0.0
H2076 H 0.41518 0.24801 0.18712 0.0
H2077 H 0.40966 0.37419 0.17909 0.0
H2078 H 0.41199 0.38296 0.12827 0.0
H2079 H 0.44385 0.37926 0.16545 0.0
C2080 C 0.37368 0.64345 1.00778 0.0
C2081 C 0.39223 0.63627 1.04268 0.0
C2082 C 0.37865 0.63738 0.96999 0.0
C2083 C 0.4025 0.62344 0.96719 0.0
C2084 C 0.42034 0.61464 1.0022 0.0
C2085 C 0.41509 0.62135 1.03966 0.0
C2086 C 0.35927 0.64718 0.9332 0.0
C2087 C 0.44578 0.59942 1.00016 0.0
C2088 C 0.40584 0.59324 0.86619 0.0
C2089 C 0.42438 0.61465 0.85287 0.0
C2090 C 0.39864 0.59566 0.90361 0.0
C2091 C 0.41011 0.62017 0.92788 0.0
C2092 C 0.42877 0.6419 0.91455 0.0
C2093 C 0.43579 0.6388 0.8772 0.0
C2094 C 0.37882 0.57206 0.91716 0.0
C2095 C 0.44132 0.66841 0.93974 0.0
H2096 H 0.35569 0.65455 1.01008 0.0
H2097 H 0.42967 0.61602 0.06656 0.0
H2098 H 0.37152 0.66403 0.91861 0.0
H2099 H 0.35149 0.62935 0.91114 0.0
H2100 H 0.34045 0.65581 0.94041 0.0
H2101 H 0.45558 0.59133 1.02974 0.0
H2102 H 0.43934 0.58128 0.9784 0.0
H2103 H 0.46234 0.61421 0.98956 0.0
H2104 H 0.39676 0.57469 0.8472 0.0
H2105 H 0.45052 0.65515 0.86723 0.0
H2106 H 0.35931 0.58041 0.92232 0.0
H2107 H 0.38953 0.56375 0.94604 0.0
H2108 H 0.37218 0.55415 0.89494 0.0
H2109 H 0.42384 0.67957 0.94643 0.0
H2110 H 0.45522 0.68341 0.92471 0.0
H2111 H 0.4542 0.66258 0.96879 0.0
C2112 C 0.12615 0.6784 0.49276 0.0
C2113 C 0.12759 0.70729 0.48178 0.0
C2114 C 0.11935 0.66877 0.5301 0.0
C2115 C 0.11327 0.68803 0.5584 0.0
C2116 C 0.11442 0.71716 0.54723 0.0
C2117 C 0.12157 0.72623 0.51002 0.0
C2118 C 0.1184 0.63757 0.53913 0.0
C2119 C 0.10753 0.739 0.57452 0.0
C2120 C 0.07094 0.65945 0.64127 0.0
C2121 C 0.09232 0.6595 0.67683 0.0
C2122 C 0.07721 0.66861 0.60346 0.0
C2123 C 0.1059 0.67798 0.59927 0.0
C2124 C 0.12757 0.67787 0.63485 0.0
C2125 C 0.12067 0.66896 0.67234 0.0
C2126 C 0.05274 0.66784 0.56767 0.0
C2127 C 0.15851 0.68711 0.63334 0.0
H2128 H 0.13017 0.66302 0.4719 0.0
H2129 H 0.12197 0.74851 0.5028 0.0
H2130 H 0.13308 0.6346 0.5681 0.0
H2131 H 0.09643 0.62882 0.54216 0.0
H2132 H 0.12449 0.62518 0.5154 0.0
H2133 H 0.10863 0.76063 0.5618 0.0
H2134 H 0.08566 0.73283 0.58012 0.0
H2135 H 0.12272 0.73976 0.60389 0.0
H2136 H 0.04885 0.6526 0.64288 0.0
H2137 H 0.13799 0.66898 0.69826 0.0
H2138 H 0.03176 0.66726 0.57668 0.0
H2139 H 0.05209 0.64846 0.54923 0.0
H2140 H 0.05565 0.6865 0.54853 0.0
H2141 H 0.16505 0.6737 0.61113 0.0
H2142 H 0.17315 0.68564 0.66284 0.0
H2143 H 0.16113 0.70942 0.62333 0.0
C2144 C 0.09226 0.39335 0.25581 0.0
C2145 C 0.08597 0.37333 0.22418 0.0
C2146 C 0.10954 0.38759 0.29252 0.0
C2147 C 0.11966 0.36079 0.2978 0.0
C2148 C 0.11763 0.34292 0.26383 0.0
C2149 C 0.10093 0.34968 0.22695 0.0
C2150 C 0.11357 0.4085 0.32701 0.0
C2151 C 0.13094 0.3156 0.2665 0.0
C2152 C 0.15495 0.3383 0.40166 0.0
C2153 C 0.13083 0.32859 0.41749 0.0
C2154 C 0.15189 0.34871 0.36255 0.0
C2155 C 0.1241 0.34874 0.33861 0.0
C2156 C 0.09973 0.33815 0.35428 0.0
C2157 C 0.10344 0.32846 0.39356 0.0
C2158 C 0.17824 0.36013 0.34716 0.0
C2159 C 0.06943 0.33804 0.33057 0.0
H2160 H 0.08115 0.41202 0.25332 0.0
H2161 H 0.09663 0.33456 0.20202 0.0
H2162 H 0.0965 0.40288 0.34419 0.0
H2163 H 0.13462 0.40792 0.34765 0.0
H2164 H 0.11211 0.43052 0.31623 0.0
H2165 H 0.11774 0.29921 0.24493 0.0
H2166 H 0.15223 0.31997 0.25834 0.0
H2167 H 0.13417 0.30669 0.29694 0.0
H2168 H 0.17618 0.33852 0.4203 0.0
H2169 H 0.08478 0.32077 0.40565 0.0
H2170 H 0.17603 0.38161 0.33475 0.0
H2171 H 0.18061 0.34605 0.32253 0.0
H2172 H 0.19806 0.36144 0.3709 0.0
H2173 H 0.06217 0.35883 0.33525 0.0
H2174 H 0.05445 0.32114 0.34072 0.0
H2175 H 0.06779 0.33494 0.298 0.0
loop_
_geom_bond_atom_site_label_1
_geom_bond_atom_site_label_2
_geom_bond_distance
_geom_bond_site_symmetry_2
_ccdc_geom_bond_type
La0 C2 2.928 . S
La0 O20 2.521 . S
La0 O21 2.628 . S
La0 O22 2.554 . S
La0 O23 2.775 . S
La0 O24 2.470 1_455 S
La0 O29 2.482 . S
La0 O31 2.503 . S
La1 C11 2.928 . S
La1 O23 2.470 1_655 S
La1 O25 2.503 . S
La1 O26 2.521 . S
La1 O27 2.628 . S
La1 O28 2.554 . S
La1 O29 2.757 1_655 S
La1 O30 2.470 1_655 S
C2 La0 2.928 . S
C2 C3 1.503 1_554 S
C2 O20 1.261 . S
C2 O21 1.243 . S
C3 C2 1.503 1_556 S
C3 C4 1.394 . S
C3 C8 1.373 . S
C4 C3 1.394 . S
C4 C5 1.380 . S
C4 H32 0.930 . S
C5 C4 1.380 . S
C5 C6 1.376 . S
C5 H33 0.930 . S
C6 C5 1.376 . S
C6 C7 1.370 . S
C7 C6 1.370 . S
C7 C8 1.396 . S
C7 H34 0.929 . S
C8 C3 1.373 . S
C8 C7 1.396 . S
C8 H35 0.929 . S
C9 O22 1.240 . S
C9 O23 1.295 . S
C10 O24 1.258 . S
C10 O25 1.256 . S
C11 La1 2.928 . S
C11 C12 1.503 . S
C11 O26 1.261 . S
C11 O27 1.243 . S
C12 C11 1.503 . S
C12 C13 1.394 . S
C12 C17 1.373 . S
C13 C12 1.394 . S
C13 C14 1.380 . S
C13 H36 0.930 . S
C14 C13 1.380 . S
C14 C15 1.376 . S
C14 H37 0.930 . S
C15 C14 1.376 . S
C15 C16 1.370 . S
C16 C15 1.370 . S
C16 C17 1.396 . S
C16 H38 0.929 . S
C17 C12 1.373 . S
C17 C16 1.396 . S
C17 H39 0.929 . S
C18 O28 1.240 . S
C18 O29 1.289 1_655 S
C19 O30 1.258 . S
C19 O31 1.256 . S
O20 La0 2.521 . S
O20 C2 1.261 . S
O21 La0 2.628 . S
O21 C2 1.243 . S
O22 La0 2.554 . S
O22 C9 1.240 . S
O23 La0 2.775 . S
O23 La1 2.470 1_455 S
O23 C9 1.295 . S
O24 La0 2.470 1_655 S
O24 C10 1.258 . S
O25 La1 2.503 . S
O25 C10 1.256 . S
O26 La1 2.521 . S
O26 C11 1.261 . S
O27 La1 2.628 . S
O27 C11 1.243 . S
O28 La1 2.554 . S
O28 C18 1.240 . S
O29 La0 2.482 . S
O29 La1 2.757 1_455 S
O29 C18 1.289 1_455 S
O30 La1 2.470 1_455 S
O30 C19 1.258 . S
O31 La0 2.503 . S
O31 C19 1.256 . S
H32 C4 0.930 . S
H33 C5 0.930 . S
H34 C7 0.929 . S
H35 C8 0.929 . S
H36 C13 0.930 . S
H37 C14 0.930 . S
H38 C16 0.929 . S
H39 C17 0.929 . S
La40 C42 2.928 . S
La40 O60 2.521 . S
La40 O61 2.628 . S
La40 O62 2.554 . S
La40 O63 2.757 . S
La40 O64 2.470 . S
La40 O69 2.482 . S
La40 O71 2.503 . S
La41 C51 2.928 . S
La41 O63 2.482 . S
La41 O65 2.503 . S
La41 O66 2.521 . S
La41 O67 2.628 . S
La41 O68 2.554 . S
La41 O69 2.757 . S
La41 O70 2.470 . S
C42 La40 2.928 . S
C42 C43 1.503 . S
C42 O60 1.261 . S
C42 O61 1.243 . S
C43 C42 1.503 . S
C43 C44 1.394 . S
C43 C48 1.373 . S
C44 C43 1.394 . S
C44 C45 1.380 . S
C44 H72 0.930 . S
C45 C44 1.380 . S
C45 C46 1.376 . S
C45 H73 0.930 . S
C46 C45 1.376 . S
C46 C47 1.370 . S
C47 C46 1.370 . S
C47 C48 1.396 . S
C47 H74 0.929 . S
C48 C43 1.373 . S
C48 C47 1.396 . S
C48 H75 0.929 . S
C49 O62 1.240 . S
C49 O63 1.289 . S
C50 O64 1.258 . S
C50 O65 1.256 . S
C51 La41 2.928 . S
C51 C52 1.503 . S
C51 O66 1.261 . S
C51 O67 1.243 . S
C52 C51 1.503 . S
C52 C53 1.394 . S
C52 C57 1.373 . S
C53 C52 1.394 . S
C53 C54 1.380 . S
C53 H76 0.930 . S
C54 C53 1.380 . S
C54 C55 1.376 . S
C54 H77 0.930 . S
C55 C54 1.376 . S
C55 C56 1.370 . S
C56 C55 1.370 . S
C56 C57 1.396 . S
C56 H78 0.929 . S
C57 C52 1.373 . S
C57 C56 1.396 . S
C57 H79 0.929 . S
C58 O68 1.240 . S
C58 O69 1.289 . S
C59 O70 1.258 . S
C59 O71 1.256 . S
O60 La40 2.521 . S
O60 C42 1.261 . S
O61 La40 2.628 . S
O61 C42 1.243 . S
O62 La40 2.554 . S
O62 C49 1.240 . S
O63 La40 2.757 . S
O63 La41 2.482 . S
O63 C49 1.289 . S
O64 La40 2.470 . S
O64 C50 1.258 . S
O65 La41 2.503 . S
O65 C50 1.256 . S
O66 La41 2.521 . S
O66 C51 1.261 . S
O67 La41 2.628 . S
O67 C51 1.243 . S
O68 La41 2.554 . S
O68 C58 1.240 . S
O69 La40 2.482 . S
O69 La41 2.757 . S
O69 C58 1.289 . S
O70 La41 2.470 . S
O70 C59 1.258 . S
O71 La40 2.503 . S
O71 C59 1.256 . S
H72 C44 0.930 . S
H73 C45 0.930 . S
H74 C47 0.929 . S
H75 C48 0.929 . S
H76 C53 0.930 . S
H77 C54 0.930 . S
H78 C56 0.929 . S
H79 C57 0.929 . S
La80 C82 2.928 . S
La80 O100 2.521 . S
La80 O101 2.628 . S
La80 O102 2.554 . S
La80 O103 2.757 . S
La80 O104 2.470 . S
La80 O109 2.482 . S
La80 O111 2.503 . S
La81 C91 2.928 . S
La81 O103 2.482 . S
La81 O105 2.503 . S
La81 O106 2.521 . S
La81 O107 2.628 . S
La81 O108 2.554 . S
La81 O109 2.757 . S
La81 O110 2.470 . S
C82 La80 2.928 . S
C82 C83 1.503 . S
C82 O100 1.261 . S
C82 O101 1.243 . S
C83 C82 1.503 . S
C83 C84 1.394 . S
C83 C88 1.373 . S
C84 C83 1.394 . S
C84 C85 1.380 . S
C84 H112 0.930 . S
C85 C84 1.380 . S
C85 C86 1.376 . S
C85 H113 0.930 . S
C86 C85 1.376 . S
C86 C87 1.370 . S
C87 C86 1.370 . S
C87 C88 1.396 . S
C87 H114 0.929 . S
C88 C83 1.373 . S
C88 C87 1.396 . S
C88 H115 0.929 . S
C89 O102 1.240 . S
C89 O103 1.289 . S
C90 O104 1.258 . S
C90 O105 1.256 . S
C91 La81 2.928 . S
C91 C92 1.503 . S
C91 O106 1.261 . S
C91 O107 1.243 . S
C92 C91 1.503 . S
C92 C93 1.394 . S
C92 C97 1.373 . S
C93 C92 1.394 . S
C93 C94 1.380 . S
C93 H116 0.930 . S
C94 C93 1.380 . S
C94 C95 1.376 . S
C94 H117 0.930 . S
C95 C94 1.376 . S
C95 C96 1.370 . S
C96 C95 1.370 . S
C96 C97 1.396 . S
C96 H118 0.929 . S
C97 C92 1.373 . S
C97 C96 1.396 . S
C97 H119 0.929 . S
C98 O108 1.240 . S
C98 O109 1.289 . S
C99 O110 1.258 . S
C99 O111 1.256 . S
O100 La80 2.521 . S
O100 C82 1.261 . S
O101 La80 2.628 . S
O101 C82 1.243 . S
O102 La80 2.554 . S
O102 C89 1.240 . S
O103 La80 2.757 . S
O103 La81 2.482 . S
O103 C89 1.289 . S
O104 La80 2.470 . S
O104 C90 1.258 . S
O105 La81 2.503 . S
O105 C90 1.256 . S
O106 La81 2.521 . S
O106 C91 1.261 . S
O107 La81 2.628 . S
O107 C91 1.243 . S
O108 La81 2.554 . S
O108 C98 1.240 . S
O109 La80 2.482 . S
O109 La81 2.757 . S
O109 C98 1.289 . S
O110 La81 2.470 . S
O110 C99 1.258 . S
O111 La80 2.503 . S
O111 C99 1.256 . S
H112 C84 0.930 . S
H113 C85 0.930 . S
H114 C87 0.929 . S
H115 C88 0.929 . S
H116 C93 0.930 . S
H117 C94 0.930 . S
H118 C96 0.929 . S
H119 C97 0.929 . S
La120 C122 2.928 . S
La120 O140 2.521 . S
La120 O141 2.628 . S
La120 O142 2.554 . S
La120 O143 2.757 . S
La120 O144 2.470 . S
La120 O149 2.482 . S
La120 O151 2.503 . S
La121 C131 2.928 . S
La121 O143 2.482 . S
La121 O145 2.503 . S
La121 O146 2.521 . S
La121 O147 2.628 . S
La121 O148 2.554 . S
La121 O149 2.757 . S
La121 O150 2.470 . S
C122 La120 2.928 . S
C122 C123 1.503 1_556 S
C122 O140 1.261 . S
C122 O141 1.243 . S
C123 C122 1.503 1_554 S
C123 C124 1.394 . S
C123 C128 1.373 . S
C124 C123 1.394 . S
C124 C125 1.380 . S
C124 H152 0.930 . S
C125 C124 1.380 . S
C125 C126 1.376 . S
C125 H153 0.930 . S
C126 C125 1.376 . S
C126 C127 1.370 . S
C127 C126 1.370 . S
C127 C128 1.396 . S
C127 H154 0.929 . S
C128 C123 1.373 . S
C128 C127 1.396 . S
C128 H155 0.929 . S
C129 O142 1.240 . S
C129 O143 1.289 . S
C130 O144 1.258 . S
C130 O145 1.256 . S
C131 La121 2.928 . S
C131 C132 1.503 . S
C131 O146 1.261 . S
C131 O147 1.243 . S
C132 C131 1.503 . S
C132 C133 1.394 . S
C132 C137 1.373 . S
C133 C132 1.394 . S
C133 C134 1.380 . S
C133 H156 0.930 . S
C134 C133 1.380 . S
C134 C135 1.376 . S
C134 H157 0.930 . S
C135 C134 1.376 . S
C135 C136 1.370 . S
C136 C135 1.370 . S
C136 C137 1.396 . S
C136 H158 0.929 . S
C137 C132 1.373 . S
C137 C136 1.396 . S
C137 H159 0.929 . S
C138 O148 1.240 . S
C138 O149 1.289 . S
C139 O150 1.258 . S
C139 O151 1.256 . S
O140 La120 2.521 . S
O140 C122 1.261 . S
O141 La120 2.628 . S
O141 C122 1.243 . S
O142 La120 2.554 . S
O142 C129 1.240 . S
O143 La120 2.757 . S
O143 La121 2.482 . S
O143 C129 1.289 . S
O144 La120 2.470 . S
O144 C130 1.258 . S
O145 La121 2.503 . S
O145 C130 1.256 . S
O146 La121 2.521 . S
O146 C131 1.261 . S
O147 La121 2.628 . S
O147 C131 1.243 . S
O148 La121 2.554 . S
O148 C138 1.240 . S
O149 La120 2.482 . S
O149 La121 2.757 . S
O149 C138 1.289 . S
O150 La121 2.470 . S
O150 C139 1.258 . S
O151 La120 2.503 . S
O151 C139 1.256 . S
H152 C124 0.930 . S
H153 C125 0.930 . S
H154 C127 0.929 . S
H155 C128 0.929 . S
H156 C133 0.930 . S
H157 C134 0.930 . S
H158 C136 0.929 . S
H159 C137 0.929 . S
La160 C162 2.928 . S
La160 O180 2.521 . S
La160 O181 2.628 . S
La160 O182 2.554 . S
La160 O183 2.757 . S
La160 O184 2.470 . S
La160 O189 2.482 . S
La160 O191 2.503 . S
La161 C171 2.932 . S
La161 O183 2.477 1_655 S
La161 O185 2.503 . S
La161 O186 2.526 . S
La161 O187 2.631 . S
La161 O188 2.550 1_655 S
La161 O189 2.749 1_655 S
La161 O190 2.464 1_655 S
C162 La160 2.928 . S
C162 C163 1.503 . S
C162 O180 1.261 . S
C162 O181 1.243 . S
C163 C162 1.503 . S
C163 C164 1.394 . S
C163 C168 1.373 . S
C164 C163 1.394 . S
C164 C165 1.380 . S
C164 H192 0.930 . S
C165 C164 1.380 . S
C165 C166 1.376 . S
C165 H193 0.930 . S
C166 C165 1.376 . S
C166 C167 1.370 . S
C167 C166 1.370 . S
C167 C168 1.396 . S
C167 H194 0.929 . S
C168 C163 1.373 . S
C168 C167 1.396 . S
C168 H195 0.929 . S
C169 O182 1.240 . S
C169 O183 1.289 . S
C170 O184 1.258 . S
C170 O185 1.256 1_455 S
C171 La161 2.932 . S
C171 C172 1.503 1_556 S
C171 O186 1.261 . S
C171 O187 1.243 . S
C172 C171 1.503 1_554 S
C172 C173 1.394 . S
C172 C177 1.373 . S
C173 C172 1.394 . S
C173 C174 1.380 . S
C173 H196 0.930 . S
C174 C173 1.380 . S
C174 C175 1.376 . S
C174 H197 0.930 . S
C175 C174 1.376 . S
C175 C176 1.370 . S
C176 C175 1.370 . S
C176 C177 1.396 . S
C176 H198 0.929 . S
C177 C172 1.373 . S
C177 C176 1.396 . S
C177 H199 0.929 . S
C178 O188 1.240 . S
C178 O189 1.289 . S
C179 O190 1.258 . S
C179 O191 1.256 . S
O180 La160 2.521 . S
O180 C162 1.261 . S
O181 La160 2.628 . S
O181 C162 1.243 . S
O182 La160 2.554 . S
O182 C169 1.240 . S
O183 La160 2.757 . S
O183 La161 2.477 1_455 S
O183 C169 1.289 . S
O184 La160 2.470 . S
O184 C170 1.258 . S
O185 La161 2.503 . S
O185 C170 1.256 1_655 S
O186 La161 2.526 . S
O186 C171 1.261 . S
O187 La161 2.631 . S
O187 C171 1.243 . S
O188 La161 2.550 1_455 S
O188 C178 1.240 . S
O189 La160 2.482 . S
O189 La161 2.749 1_455 S
O189 C178 1.289 . S
O190 La161 2.464 1_455 S
O190 C179 1.258 . S
O191 La160 2.503 . S
O191 C179 1.256 . S
H192 C164 0.930 . S
H193 C165 0.930 . S
H194 C167 0.929 . S
H195 C168 0.929 . S
H196 C173 0.930 . S
H197 C174 0.930 . S
H198 C176 0.929 . S
H199 C177 0.929 . S
La200 C202 2.928 . S
La200 O220 2.521 . S
La200 O221 2.628 . S
La200 O222 2.554 . S
La200 O223 2.757 . S
La200 O224 2.470 . S
La200 O229 2.482 . S
La200 O231 2.503 . S
La201 C211 2.928 . S
La201 O223 2.482 . S
La201 O225 2.503 . S
La201 O226 2.521 . S
La201 O227 2.628 . S
La201 O228 2.554 . S
La201 O229 2.757 . S
La201 O230 2.470 . S
C202 La200 2.928 . S
C202 C203 1.503 . S
C202 O220 1.261 . S
C202 O221 1.243 . S
C203 C202 1.503 . S
C203 C204 1.394 . S
C203 C208 1.373 . S
C204 C203 1.394 . S
C204 C205 1.380 . S
C204 H232 0.930 . S
C205 C204 1.380 . S
C205 C206 1.376 . S
C205 H233 0.930 . S
C206 C205 1.376 . S
C206 C207 1.370 . S
C207 C206 1.370 . S
C207 C208 1.396 . S
C207 H234 0.929 . S
C208 C203 1.373 . S
C208 C207 1.396 . S
C208 H235 0.929 . S
C209 O222 1.240 . S
C209 O223 1.289 . S
C210 O224 1.258 . S
C210 O225 1.256 . S
C211 La201 2.928 . S
C211 C212 1.503 . S
C211 O226 1.261 . S
C211 O227 1.243 . S
C212 C211 1.503 . S
C212 C213 1.394 . S
C212 C217 1.373 . S
C213 C212 1.394 . S
C213 C214 1.380 1_554 S
C213 H236 0.930 . S
C214 C213 1.380 1_556 S
C214 C215 1.376 . S
C214 H237 0.930 . S
C215 C214 1.376 . S
C215 C216 1.370 . S
C216 C215 1.370 . S
C216 C217 1.396 1_556 S
C216 H238 0.929 . S
C217 C212 1.373 . S
C217 C216 1.396 1_554 S
C217 H239 0.929 . S
C218 O228 1.240 . S
C218 O229 1.289 . S
C219 O230 1.258 . S
C219 O231 1.256 . S
O220 La200 2.521 . S
O220 C202 1.261 . S
O221 La200 2.628 . S
O221 C202 1.243 . S
O222 La200 2.554 . S
O222 C209 1.240 . S
O223 La200 2.757 . S
O223 La201 2.482 . S
O223 C209 1.289 . S
O224 La200 2.470 . S
O224 C210 1.258 . S
O225 La201 2.503 . S
O225 C210 1.256 . S
O226 La201 2.521 . S
O226 C211 1.261 . S
O227 La201 2.628 . S
O227 C211 1.243 . S
O228 La201 2.554 . S
O228 C218 1.240 . S
O229 La200 2.482 . S
O229 La201 2.757 . S
O229 C218 1.289 . S
O230 La201 2.470 . S
O230 C219 1.258 . S
O231 La200 2.503 . S
O231 C219 1.256 . S
H232 C204 0.930 . S
H233 C205 0.930 . S
H234 C207 0.929 . S
H235 C208 0.929 . S
H236 C213 0.930 . S
H237 C214 0.930 . S
H238 C216 0.929 . S
H239 C217 0.929 . S
La240 C242 2.928 . S
La240 O260 2.521 . S
La240 O261 2.628 . S
La240 O262 2.554 . S
La240 O263 2.757 . S
La240 O264 2.470 . S
La240 O269 2.482 . S
La240 O271 2.503 . S
La241 C251 2.928 . S
La241 O263 2.482 . S
La241 O265 2.503 . S
La241 O266 2.521 . S
La241 O267 2.628 . S
La241 O268 2.554 . S
La241 O269 2.757 . S
La241 O270 2.470 . S
C242 La240 2.928 . S
C242 C243 1.503 . S
C242 O260 1.261 . S
C242 O261 1.243 . S
C243 C242 1.503 . S
C243 C244 1.394 . S
C243 C248 1.373 . S
C244 C243 1.394 . S
C244 C245 1.380 . S
C244 H272 0.930 . S
C245 C244 1.380 . S
C245 C246 1.376 . S
C245 H273 0.930 . S
C246 C245 1.376 . S
C246 C247 1.370 . S
C247 C246 1.370 . S
C247 C248 1.396 . S
C247 H274 0.929 . S
C248 C243 1.373 . S
C248 C247 1.396 . S
C248 H275 0.929 . S
C249 O262 1.240 . S
C249 O263 1.289 . S
C250 O264 1.258 . S
C250 O265 1.256 . S
C251 La241 2.928 . S
C251 C252 1.503 . S
C251 O266 1.261 . S
C251 O267 1.243 . S
C252 C251 1.503 . S
C252 C253 1.394 . S
C252 C257 1.373 . S
C253 C252 1.394 . S
C253 C254 1.380 . S
C253 H276 0.930 . S
C254 C253 1.380 . S
C254 C255 1.376 . S
C254 H277 0.930 . S
C255 C254 1.376 . S
C255 C256 1.370 . S
C256 C255 1.370 . S
C256 C257 1.396 . S
C256 H278 0.929 . S
C257 C252 1.373 . S
C257 C256 1.396 . S
C257 H279 0.929 . S
C258 O268 1.240 . S
C258 O269 1.289 . S
C259 O270 1.258 . S
C259 O271 1.256 . S
O260 La240 2.521 . S
O260 C242 1.261 . S
O261 La240 2.628 . S
O261 C242 1.243 . S
O262 La240 2.554 . S
O262 C249 1.240 . S
O263 La240 2.757 . S
O263 La241 2.482 . S
O263 C249 1.289 . S
O264 La240 2.470 . S
O264 C250 1.258 . S
O265 La241 2.503 . S
O265 C250 1.256 . S
O266 La241 2.521 . S
O266 C251 1.261 . S
O267 La241 2.628 . S
O267 C251 1.243 . S
O268 La241 2.554 . S
O268 C258 1.240 . S
O269 La240 2.482 . S
O269 La241 2.757 . S
O269 C258 1.289 . S
O270 La241 2.470 . S
O270 C259 1.258 . S
O271 La240 2.503 . S
O271 C259 1.256 . S
H272 C244 0.930 . S
H273 C245 0.930 . S
H274 C247 0.929 . S
H275 C248 0.929 . S
H276 C253 0.930 . S
H277 C254 0.930 . S
H278 C256 0.929 . S
H279 C257 0.929 . S
La280 C282 2.928 . S
La280 O300 2.521 . S
La280 O301 2.628 . S
La280 O302 2.554 . S
La280 O303 2.757 . S
La280 O304 2.470 . S
La280 O309 2.482 . S
La280 O311 2.503 . S
La281 C291 2.928 . S
La281 O303 2.482 . S
La281 O305 2.503 . S
La281 O306 2.521 . S
La281 O307 2.628 . S
La281 O308 2.554 . S
La281 O309 2.757 . S
La281 O310 2.470 . S
C282 La280 2.928 . S
C282 C283 1.503 . S
C282 O300 1.261 . S
C282 O301 1.243 . S
C283 C282 1.503 . S
C283 C284 1.394 . S
C283 C288 1.373 . S
C284 C283 1.394 . S
C284 C285 1.380 . S
C284 H312 0.930 . S
C285 C284 1.380 . S
C285 C286 1.376 . S
C285 H313 0.930 . S
C286 C285 1.376 . S
C286 C287 1.370 . S
C287 C286 1.370 . S
C287 C288 1.396 . S
C287 H314 0.929 . S
C288 C283 1.373 . S
C288 C287 1.396 . S
C288 H315 0.929 . S
C289 O302 1.240 . S
C289 O303 1.289 . S
C290 O304 1.258 . S
C290 O305 1.256 . S
C291 La281 2.928 . S
C291 C292 1.503 . S
C291 O306 1.261 . S
C291 O307 1.243 . S
C292 C291 1.503 . S
C292 C293 1.394 . S
C292 C297 1.373 . S
C293 C292 1.394 . S
C293 C294 1.380 . S
C293 H316 0.930 . S
C294 C293 1.380 . S
C294 C295 1.376 . S
C294 H317 0.930 . S
C295 C294 1.376 . S
C295 C296 1.370 . S
C296 C295 1.370 . S
C296 C297 1.396 . S
C296 H318 0.929 . S
C297 C292 1.373 . S
C297 C296 1.396 . S
C297 H319 0.929 . S
C298 O308 1.240 . S
C298 O309 1.289 . S
C299 O310 1.258 . S
C299 O311 1.256 . S
O300 La280 2.521 . S
O300 C282 1.261 . S
O301 La280 2.628 . S
O301 C282 1.243 . S
O302 La280 2.554 . S
O302 C289 1.240 . S
O303 La280 2.757 . S
O303 La281 2.482 . S
O303 C289 1.289 . S
O304 La280 2.470 . S
O304 C290 1.258 . S
O305 La281 2.503 . S
O305 C290 1.256 . S
O306 La281 2.521 . S
O306 C291 1.261 . S
O307 La281 2.628 . S
O307 C291 1.243 . S
O308 La281 2.554 . S
O308 C298 1.240 . S
O309 La280 2.482 . S
O309 La281 2.757 . S
O309 C298 1.289 . S
O310 La281 2.470 . S
O310 C299 1.258 . S
O311 La280 2.503 . S
O311 C299 1.256 . S
H312 C284 0.930 . S
H313 C285 0.930 . S
H314 C287 0.929 . S
H315 C288 0.929 . S
H316 C293 0.930 . S
H317 C294 0.930 . S
H318 C296 0.929 . S
H319 C297 0.929 . S
La320 C322 2.928 . S
La320 O340 2.521 . S
La320 O341 2.628 . S
La320 O342 2.554 . S
La320 O343 2.757 . S
La320 O344 2.470 . S
La320 O349 2.482 . S
La320 O351 2.503 . S
La321 C331 2.928 . S
La321 O343 2.482 . S
La321 O345 2.503 . S
La321 O346 2.521 . S
La321 O347 2.628 . S
La321 O348 2.554 . S
La321 O349 2.757 . S
La321 O350 2.470 . S
C322 La320 2.928 . S
C322 C323 1.503 . S
C322 O340 1.261 . S
C322 O341 1.243 . S
C323 C322 1.503 . S
C323 C324 1.394 . S
C323 C328 1.373 . S
C324 C323 1.394 . S
C324 C325 1.380 . S
C324 H352 0.930 . S
C325 C324 1.380 . S
C325 C326 1.376 . S
C325 H353 0.930 . S
C326 C325 1.376 . S
C326 C327 1.370 . S
C327 C326 1.370 . S
C327 C328 1.396 . S
C327 H354 0.929 . S
C328 C323 1.373 . S
C328 C327 1.396 . S
C328 H355 0.929 . S
C329 O342 1.240 . S
C329 O343 1.289 . S
C330 O344 1.258 . S
C330 O345 1.256 . S
C331 La321 2.928 . S
C331 C332 1.503 . S
C331 O346 1.261 . S
C331 O347 1.243 . S
C332 C331 1.503 . S
C332 C333 1.394 . S
C332 C337 1.373 . S
C333 C332 1.394 . S
C333 C334 1.380 . S
C333 H356 0.930 . S
C334 C333 1.380 . S
C334 C335 1.376 . S
C334 H357 0.930 . S
C335 C334 1.376 . S
C335 C336 1.370 . S
C336 C335 1.370 . S
C336 C337 1.396 . S
C336 H358 0.929 . S
C337 C332 1.373 . S
C337 C336 1.396 . S
C337 H359 0.929 . S
C338 O348 1.240 . S
C338 O349 1.289 . S
C339 O350 1.258 . S
C339 O351 1.256 . S
O340 La320 2.521 . S
O340 C322 1.261 . S
O341 La320 2.628 . S
O341 C322 1.243 . S
O342 La320 2.554 . S
O342 C329 1.240 . S
O343 La320 2.757 . S
O343 La321 2.482 . S
O343 C329 1.289 . S
O344 La320 2.470 . S
O344 C330 1.258 . S
O345 La321 2.503 . S
O345 C330 1.256 . S
O346 La321 2.521 . S
O346 C331 1.261 . S
O347 La321 2.628 . S
O347 C331 1.243 . S
O348 La321 2.554 . S
O348 C338 1.240 . S
O349 La320 2.482 . S
O349 La321 2.757 . S
O349 C338 1.289 . S
O350 La321 2.470 . S
O350 C339 1.258 . S
O351 La320 2.503 . S
O351 C339 1.256 . S
H352 C324 0.930 . S
H353 C325 0.930 . S
H354 C327 0.929 . S
H355 C328 0.929 . S
H356 C333 0.930 . S
H357 C334 0.930 . S
H358 C336 0.929 . S
H359 C337 0.929 . S
La360 C362 2.928 . S
La360 O380 2.521 . S
La360 O381 2.628 . S
La360 O382 2.554 . S
La360 O383 2.757 . S
La360 O384 2.470 . S
La360 O389 2.482 . S
La360 O391 2.503 . S
La361 C371 2.928 . S
La361 O383 2.482 . S
La361 O385 2.503 . S
La361 O386 2.521 . S
La361 O387 2.628 . S
La361 O388 2.554 . S
La361 O389 2.757 . S
La361 O390 2.470 . S
C362 La360 2.928 . S
C362 C363 1.503 . S
C362 O380 1.261 . S
C362 O381 1.243 . S
C363 C362 1.503 . S
C363 C364 1.394 . S
C363 C368 1.373 . S
C364 C363 1.394 . S
C364 C365 1.380 . S
C364 H392 0.930 . S
C365 C364 1.380 . S
C365 C366 1.376 . S
C365 H393 0.930 . S
C366 C365 1.376 . S
C366 C367 1.370 . S
C367 C366 1.370 . S
C367 C368 1.396 . S
C367 H394 0.929 . S
C368 C363 1.373 . S
C368 C367 1.396 . S
C368 H395 0.929 . S
C369 O382 1.240 . S
C369 O383 1.289 . S
C370 O384 1.258 . S
C370 O385 1.256 . S
C371 La361 2.928 . S
C371 C372 1.503 1_554 S
C371 O386 1.261 . S
C371 O387 1.243 . S
C372 C371 1.503 1_556 S
C372 C373 1.394 . S
C372 C377 1.373 . S
C373 C372 1.394 . S
C373 C374 1.380 . S
C373 H396 0.930 . S
C374 C373 1.380 . S
C374 C375 1.376 . S
C374 H397 0.930 . S
C375 C374 1.376 . S
C375 C376 1.370 . S
C376 C375 1.370 . S
C376 C377 1.396 . S
C376 H398 0.929 . S
C377 C372 1.373 . S
C377 C376 1.396 . S
C377 H399 0.929 . S
C378 O388 1.240 . S
C378 O389 1.289 . S
C379 O390 1.258 . S
C379 O391 1.256 . S
O380 La360 2.521 . S
O380 C362 1.261 . S
O381 La360 2.628 . S
O381 C362 1.243 . S
O382 La360 2.554 . S
O382 C369 1.240 . S
O383 La360 2.757 . S
O383 La361 2.482 . S
O383 C369 1.289 . S
O384 La360 2.470 . S
O384 C370 1.258 . S
O385 La361 2.503 . S
O385 C370 1.256 . S
O386 La361 2.521 . S
O386 C371 1.261 . S
O387 La361 2.628 . S
O387 C371 1.243 . S
O388 La361 2.554 . S
O388 C378 1.240 . S
O389 La360 2.482 . S
O389 La361 2.757 . S
O389 C378 1.289 . S
O390 La361 2.470 . S
O390 C379 1.258 . S
O391 La360 2.503 . S
O391 C379 1.256 . S
H392 C364 0.930 . S
H393 C365 0.930 . S
H394 C367 0.929 . S
H395 C368 0.929 . S
H396 C373 0.930 . S
H397 C374 0.930 . S
H398 C376 0.929 . S
H399 C377 0.929 . S
La400 C402 2.928 . S
La400 O420 2.521 . S
La400 O421 2.628 . S
La400 O422 2.554 . S
La400 O423 2.757 . S
La400 O424 2.470 . S
La400 O429 2.482 . S
La400 O431 2.503 . S
La401 C411 2.928 . S
La401 O423 2.482 . S
La401 O425 2.503 . S
La401 O426 2.521 . S
La401 O427 2.628 . S
La401 O428 2.554 . S
La401 O429 2.757 . S
La401 O430 2.470 . S
C402 La400 2.928 . S
C402 C403 1.503 . S
C402 O420 1.261 . S
C402 O421 1.243 . S
C403 C402 1.503 . S
C403 C404 1.394 . S
C403 C408 1.373 . S
C404 C403 1.394 . S
C404 C405 1.380 1_556 S
C404 H432 0.930 . S
C405 C404 1.380 1_554 S
C405 C406 1.376 . S
C405 H433 0.930 . S
C406 C405 1.376 . S
C406 C407 1.370 . S
C407 C406 1.370 . S
C407 C408 1.396 1_554 S
C407 H434 0.929 . S
C408 C403 1.373 . S
C408 C407 1.396 1_556 S
C408 H435 0.929 . S
C409 O422 1.240 . S
C409 O423 1.289 . S
C410 O424 1.258 . S
C410 O425 1.256 . S
C411 La401 2.928 . S
C411 C412 1.503 . S
C411 O426 1.261 . S
C411 O427 1.243 . S
C412 C411 1.503 . S
C412 C413 1.394 . S
C412 C417 1.373 . S
C413 C412 1.394 . S
C413 C414 1.380 . S
C413 H436 0.930 . S
C414 C413 1.380 . S
C414 C415 1.376 . S
C414 H437 0.930 . S
C415 C414 1.376 . S
C415 C416 1.370 . S
C416 C415 1.370 . S
C416 C417 1.396 . S
C416 H438 0.929 . S
C417 C412 1.373 . S
C417 C416 1.396 . S
C417 H439 0.929 . S
C418 O428 1.240 . S
C418 O429 1.289 . S
C419 O430 1.258 . S
C419 O431 1.256 . S
O420 La400 2.521 . S
O420 C402 1.261 . S
O421 La400 2.628 . S
O421 C402 1.243 . S
O422 La400 2.554 . S
O422 C409 1.240 . S
O423 La400 2.757 . S
O423 La401 2.482 . S
O423 C409 1.289 . S
O424 La400 2.470 . S
O424 C410 1.258 . S
O425 La401 2.503 . S
O425 C410 1.256 . S
O426 La401 2.521 . S
O426 C411 1.261 . S
O427 La401 2.628 . S
O427 C411 1.243 . S
O428 La401 2.554 . S
O428 C418 1.240 . S
O429 La400 2.482 . S
O429 La401 2.757 . S
O429 C418 1.289 . S
O430 La401 2.470 . S
O430 C419 1.258 . S
O431 La400 2.503 . S
O431 C419 1.256 . S
H432 C404 0.930 . S
H433 C405 0.930 . S
H434 C407 0.929 . S
H435 C408 0.929 . S
H436 C413 0.930 . S
H437 C414 0.930 . S
H438 C416 0.929 . S
H439 C417 0.929 . S
La440 C442 2.928 . S
La440 O460 2.521 . S
La440 O461 2.628 . S
La440 O462 2.554 . S
La440 O463 2.757 . S
La440 O464 2.470 . S
La440 O469 2.482 . S
La440 O471 2.503 . S
La441 C451 2.928 . S
La441 O463 2.482 . S
La441 O465 2.503 . S
La441 O466 2.521 . S
La441 O467 2.628 . S
La441 O468 2.554 . S
La441 O469 2.757 . S
La441 O470 2.470 . S
C442 La440 2.928 . S
C442 C443 1.503 . S
C442 O460 1.261 . S
C442 O461 1.243 . S
C443 C442 1.503 . S
C443 C444 1.394 . S
C443 C448 1.373 . S
C444 C443 1.394 . S
C444 C445 1.380 . S
C444 H472 0.930 . S
C445 C444 1.380 . S
C445 C446 1.376 . S
C445 H473 0.930 . S
C446 C445 1.376 . S
C446 C447 1.370 . S
C447 C446 1.370 . S
C447 C448 1.396 . S
C447 H474 0.929 . S
C448 C443 1.373 . S
C448 C447 1.396 . S
C448 H475 0.929 . S
C449 O462 1.240 . S
C449 O463 1.289 . S
C450 O464 1.258 . S
C450 O465 1.256 . S
C451 La441 2.928 . S
C451 C452 1.503 . S
C451 O466 1.261 . S
C451 O467 1.243 . S
C452 C451 1.503 . S
C452 C453 1.394 . S
C452 C457 1.373 . S
C453 C452 1.394 . S
C453 C454 1.380 . S
C453 H476 0.930 . S
C454 C453 1.380 . S
C454 C455 1.376 . S
C454 H477 0.930 . S
C455 C454 1.376 . S
C455 C456 1.370 . S
C456 C455 1.370 . S
C456 C457 1.396 . S
C456 H478 0.929 . S
C457 C452 1.373 . S
C457 C456 1.396 . S
C457 H479 0.929 . S
C458 O468 1.240 . S
C458 O469 1.289 . S
C459 O470 1.258 . S
C459 O471 1.256 . S
O460 La440 2.521 . S
O460 C442 1.261 . S
O461 La440 2.628 . S
O461 C442 1.243 . S
O462 La440 2.554 . S
O462 C449 1.240 . S
O463 La440 2.757 . S
O463 La441 2.482 . S
O463 C449 1.289 . S
O464 La440 2.470 . S
O464 C450 1.258 . S
O465 La441 2.503 . S
O465 C450 1.256 . S
O466 La441 2.521 . S
O466 C451 1.261 . S
O467 La441 2.628 . S
O467 C451 1.243 . S
O468 La441 2.554 . S
O468 C458 1.240 . S
O469 La440 2.482 . S
O469 La441 2.757 . S
O469 C458 1.289 . S
O470 La441 2.470 . S
O470 C459 1.258 . S
O471 La440 2.503 . S
O471 C459 1.256 . S
H472 C444 0.930 . S
H473 C445 0.930 . S
H474 C447 0.929 . S
H475 C448 0.929 . S
H476 C453 0.930 . S
H477 C454 0.930 . S
H478 C456 0.929 . S
H479 C457 0.929 . S
La480 C482 2.928 . S
La480 O500 2.521 . S
La480 O501 2.628 . S
La480 O502 2.554 . S
La480 O503 2.757 . S
La480 O504 2.470 . S
La480 O509 2.482 . S
La480 O511 2.503 . S
La481 C491 2.928 . S
La481 O503 2.482 . S
La481 O505 2.503 . S
La481 O506 2.521 . S
La481 O507 2.628 . S
La481 O508 2.554 . S
La481 O509 2.757 . S
La481 O510 2.470 . S
C482 La480 2.928 . S
C482 C483 1.503 . S
C482 O500 1.261 . S
C482 O501 1.243 . S
C483 C482 1.503 . S
C483 C484 1.394 . S
C483 C488 1.373 . S
C484 C483 1.394 . S
C484 C485 1.380 . S
C484 H512 0.930 . S
C485 C484 1.380 . S
C485 C486 1.376 . S
C485 H513 0.930 . S
C486 C485 1.376 . S
C486 C487 1.370 . S
C487 C486 1.370 . S
C487 C488 1.396 . S
C487 H514 0.929 . S
C488 C483 1.373 . S
C488 C487 1.396 . S
C488 H515 0.929 . S
C489 O502 1.240 . S
C489 O503 1.289 . S
C490 O504 1.258 . S
C490 O505 1.256 . S
C491 La481 2.928 . S
C491 C492 1.503 . S
C491 O506 1.261 . S
C491 O507 1.243 . S
C492 C491 1.503 . S
C492 C493 1.394 . S
C492 C497 1.373 . S
C493 C492 1.394 . S
C493 C494 1.380 . S
C493 H516 0.930 . S
C494 C493 1.380 . S
C494 C495 1.376 . S
C494 H517 0.930 . S
C495 C494 1.376 . S
C495 C496 1.370 . S
C496 C495 1.370 . S
C496 C497 1.396 . S
C496 H518 0.929 . S
C497 C492 1.373 . S
C497 C496 1.396 . S
C497 H519 0.929 . S
C498 O508 1.240 . S
C498 O509 1.289 . S
C499 O510 1.258 . S
C499 O511 1.256 . S
O500 La480 2.521 . S
O500 C482 1.261 . S
O501 La480 2.628 . S
O501 C482 1.243 . S
O502 La480 2.554 . S
O502 C489 1.240 . S
O503 La480 2.757 . S
O503 La481 2.482 . S
O503 C489 1.289 . S
O504 La480 2.470 . S
O504 C490 1.258 . S
O505 La481 2.503 . S
O505 C490 1.256 . S
O506 La481 2.521 . S
O506 C491 1.261 . S
O507 La481 2.628 . S
O507 C491 1.243 . S
O508 La481 2.554 . S
O508 C498 1.240 . S
O509 La480 2.482 . S
O509 La481 2.757 . S
O509 C498 1.289 . S
O510 La481 2.470 . S
O510 C499 1.258 . S
O511 La480 2.503 . S
O511 C499 1.256 . S
H512 C484 0.930 . S
H513 C485 0.930 . S
H514 C487 0.929 . S
H515 C488 0.929 . S
H516 C493 0.930 . S
H517 C494 0.930 . S
H518 C496 0.929 . S
H519 C497 0.929 . S
La520 C522 2.928 . S
La520 O540 2.521 . S
La520 O541 2.628 . S
La520 O542 2.554 . S
La520 O543 2.757 1_655 S
La520 O544 2.470 1_655 S
La520 O549 2.482 1_655 S
La520 O551 2.503 . S
La521 C531 2.928 . S
La521 O543 2.482 . S
La521 O545 2.503 . S
La521 O546 2.521 . S
La521 O547 2.628 . S
La521 O548 2.554 . S
La521 O549 2.757 . S
La521 O550 2.470 . S
C522 La520 2.928 . S
C522 C523 1.503 . S
C522 O540 1.261 . S
C522 O541 1.243 . S
C523 C522 1.503 . S
C523 C524 1.394 . S
C523 C528 1.373 . S
C524 C523 1.394 . S
C524 C525 1.380 . S
C524 H552 0.930 . S
C525 C524 1.380 . S
C525 C526 1.376 . S
C525 H553 0.930 . S
C526 C525 1.376 . S
C526 C527 1.370 . S
C527 C526 1.370 . S
C527 C528 1.396 . S
C527 H554 0.929 . S
C528 C523 1.373 . S
C528 C527 1.396 . S
C528 H555 0.929 . S
C529 O542 1.240 1_455 S
C529 O543 1.289 . S
C530 O544 1.258 . S
C530 O545 1.256 . S
C531 La521 2.928 . S
C531 C532 1.503 1_554 S
C531 O546 1.261 . S
C531 O547 1.243 . S
C532 C531 1.503 1_556 S
C532 C533 1.394 . S
C532 C537 1.373 . S
C533 C532 1.394 . S
C533 C534 1.380 . S
C533 H556 0.930 . S
C534 C533 1.380 . S
C534 C535 1.376 . S
C534 H557 0.930 . S
C535 C534 1.376 . S
C535 C536 1.370 . S
C536 C535 1.370 . S
C536 C537 1.396 . S
C536 H558 0.929 . S
C537 C532 1.373 . S
C537 C536 1.396 . S
C537 H559 0.929 . S
C538 O548 1.240 . S
C538 O549 1.289 . S
C539 O550 1.258 1_655 S
C539 O551 1.256 . S
O540 La520 2.521 . S
O540 C522 1.261 . S
O541 La520 2.628 . S
O541 C522 1.243 . S
O542 La520 2.554 . S
O542 C529 1.240 1_655 S
O543 La520 2.757 1_455 S
O543 La521 2.482 . S
O543 C529 1.289 . S
O544 La520 2.470 1_455 S
O544 C530 1.258 . S
O545 La521 2.503 . S
O545 C530 1.256 . S
O546 La521 2.521 . S
O546 C531 1.261 . S
O547 La521 2.628 . S
O547 C531 1.243 . S
O548 La521 2.554 . S
O548 C538 1.240 . S
O549 La520 2.482 1_455 S
O549 La521 2.757 . S
O549 C538 1.289 . S
O550 La521 2.470 . S
O550 C539 1.258 1_455 S
O551 La520 2.503 . S
O551 C539 1.256 . S
H552 C524 0.930 . S
H553 C525 0.930 . S
H554 C527 0.929 . S
H555 C528 0.929 . S
H556 C533 0.930 . S
H557 C534 0.930 . S
H558 C536 0.929 . S
H559 C537 0.929 . S
La560 C562 2.928 . S
La560 O580 2.521 . S
La560 O581 2.628 . S
La560 O582 2.554 . S
La560 O583 2.757 . S
La560 O584 2.470 . S
La560 O589 2.482 . S
La560 O591 2.503 . S
La561 C571 2.928 . S
La561 O583 2.482 . S
La561 O585 2.503 . S
La561 O586 2.521 . S
La561 O587 2.628 . S
La561 O588 2.554 . S
La561 O589 2.757 . S
La561 O590 2.470 . S
C562 La560 2.928 . S
C562 C563 1.503 . S
C562 O580 1.261 . S
C562 O581 1.243 . S
C563 C562 1.503 . S
C563 C564 1.394 . S
C563 C568 1.373 . S
C564 C563 1.394 . S
C564 C565 1.380 . S
C564 H592 0.930 . S
C565 C564 1.380 . S
C565 C566 1.376 . S
C565 H593 0.930 . S
C566 C565 1.376 . S
C566 C567 1.370 . S
C567 C566 1.370 . S
C567 C568 1.396 . S
C567 H594 0.929 . S
C568 C563 1.373 . S
C568 C567 1.396 . S
C568 H595 0.929 . S
C569 O582 1.240 . S
C569 O583 1.289 . S
C570 O584 1.258 . S
C570 O585 1.256 . S
C571 La561 2.928 . S
C571 C572 1.503 . S
C571 O586 1.261 . S
C571 O587 1.243 . S
C572 C571 1.503 . S
C572 C573 1.394 . S
C572 C577 1.373 . S
C573 C572 1.394 . S
C573 C574 1.380 . S
C573 H596 0.930 . S
C574 C573 1.380 . S
C574 C575 1.376 . S
C574 H597 0.930 . S
C575 C574 1.376 . S
C575 C576 1.370 . S
C576 C575 1.370 . S
C576 C577 1.396 . S
C576 H598 0.929 . S
C577 C572 1.373 . S
C577 C576 1.396 . S
C577 H599 0.929 . S
C578 O588 1.240 . S
C578 O589 1.289 . S
C579 O590 1.258 . S
C579 O591 1.256 . S
O580 La560 2.521 . S
O580 C562 1.261 . S
O581 La560 2.628 . S
O581 C562 1.243 . S
O582 La560 2.554 . S
O582 C569 1.240 . S
O583 La560 2.757 . S
O583 La561 2.482 . S
O583 C569 1.289 . S
O584 La560 2.470 . S
O584 C570 1.258 . S
O585 La561 2.503 . S
O585 C570 1.256 . S
O586 La561 2.521 . S
O586 C571 1.261 . S
O587 La561 2.628 . S
O587 C571 1.243 . S
O588 La561 2.554 . S
O588 C578 1.240 . S
O589 La560 2.482 . S
O589 La561 2.757 . S
O589 C578 1.289 . S
O590 La561 2.470 . S
O590 C579 1.258 . S
O591 La560 2.503 . S
O591 C579 1.256 . S
H592 C564 0.930 . S
H593 C565 0.930 . S
H594 C567 0.929 . S
H595 C568 0.929 . S
H596 C573 0.930 . S
H597 C574 0.930 . S
H598 C576 0.929 . S
H599 C577 0.929 . S
La600 C602 2.928 . S
La600 O620 2.521 . S
La600 O621 2.628 . S
La600 O622 2.554 1_655 S
La600 O623 2.757 1_655 S
La600 O624 2.470 1_655 S
La600 O629 2.482 1_655 S
La600 O631 2.503 . S
La601 C611 2.928 . S
La601 O623 2.482 . S
La601 O625 2.503 . S
La601 O626 2.521 . S
La601 O627 2.628 . S
La601 O628 2.554 . S
La601 O629 2.757 . S
La601 O630 2.470 . S
C602 La600 2.928 . S
C602 C603 1.503 1_556 S
C602 O620 1.261 . S
C602 O621 1.243 . S
C603 C602 1.503 1_554 S
C603 C604 1.394 . S
C603 C608 1.373 . S
C604 C603 1.394 . S
C604 C605 1.380 . S
C604 H632 0.930 . S
C605 C604 1.380 . S
C605 C606 1.376 . S
C605 H633 0.930 . S
C606 C605 1.376 . S
C606 C607 1.370 . S
C607 C606 1.370 . S
C607 C608 1.396 . S
C607 H634 0.929 . S
C608 C603 1.373 . S
C608 C607 1.396 . S
C608 H635 0.929 . S
C609 O622 1.240 . S
C609 O623 1.289 . S
C610 O624 1.258 . S
C610 O625 1.256 . S
C611 La601 2.928 . S
C611 C612 1.503 . S
C611 O626 1.261 . S
C611 O627 1.243 . S
C612 C611 1.503 . S
C612 C613 1.394 . S
C612 C617 1.373 . S
C613 C612 1.394 . S
C613 C614 1.380 . S
C613 H636 0.930 . S
C614 C613 1.380 . S
C614 C615 1.376 . S
C614 H637 0.930 . S
C615 C614 1.376 . S
C615 C616 1.370 . S
C616 C615 1.370 . S
C616 C617 1.396 . S
C616 H638 0.929 . S
C617 C612 1.373 . S
C617 C616 1.396 . S
C617 H639 0.929 . S
C618 O628 1.240 . S
C618 O629 1.289 . S
C619 O630 1.258 1_655 S
C619 O631 1.256 . S
O620 La600 2.521 . S
O620 C602 1.261 . S
O621 La600 2.628 . S
O621 C602 1.243 . S
O622 La600 2.554 1_455 S
O622 C609 1.240 . S
O623 La600 2.757 1_455 S
O623 La601 2.482 . S
O623 C609 1.289 . S
O624 La600 2.470 1_455 S
O624 C610 1.258 . S
O625 La601 2.503 . S
O625 C610 1.256 . S
O626 La601 2.521 . S
O626 C611 1.261 . S
O627 La601 2.628 . S
O627 C611 1.243 . S
O628 La601 2.554 . S
O628 C618 1.240 . S
O629 La600 2.482 1_455 S
O629 La601 2.757 . S
O629 C618 1.289 . S
O630 La601 2.470 . S
O630 C619 1.258 1_455 S
O631 La600 2.503 . S
O631 C619 1.256 . S
H632 C604 0.930 . S
H633 C605 0.930 . S
H634 C607 0.929 . S
H635 C608 0.929 . S
H636 C613 0.930 . S
H637 C614 0.930 . S
H638 C616 0.929 . S
H639 C617 0.929 . S
C640 C641 1.391 . S
C640 C642 1.394 . S
C640 H656 0.931 . S
C641 C640 1.391 . S
C641 C645 1.376 . S
C642 C640 1.394 . S
C642 C643 1.369 . S
C642 C646 1.531 . S
C643 C642 1.369 . S
C643 C644 1.410 . S
C643 C651 1.503 . S
C644 C643 1.410 . S
C644 C645 1.392 . S
C644 C647 1.511 . S
C645 C641 1.376 . S
C645 C644 1.392 . S
C645 H657 0.929 . S
C646 C642 1.531 . S
C646 H658 0.960 . S
C646 H659 0.962 . S
C646 H660 0.960 . S
C647 C644 1.511 . S
C647 H661 0.961 . S
C647 H662 0.961 . S
C647 H663 0.961 . S
C648 C649 1.370 . S
C648 C650 1.363 . S
C648 H664 0.931 . S
C649 C648 1.370 . S
C649 C653 1.408 . S
C650 C648 1.363 . S
C650 C651 1.370 . S
C650 C654 1.524 . S
C651 C643 1.503 . S
C651 C650 1.370 . S
C651 C652 1.403 . S
C652 C651 1.403 . S
C652 C653 1.404 . S
C652 C655 1.539 . S
C653 C649 1.408 . S
C653 C652 1.404 . S
C653 H665 0.930 . S
C654 C650 1.524 . S
C654 H666 0.956 . S
C654 H667 0.961 . S
C654 H668 0.961 . S
C655 C652 1.539 . S
C655 H669 0.958 . S
C655 H670 0.961 . S
C655 H671 0.960 . S
H656 C640 0.931 . S
H657 C645 0.929 . S
H658 C646 0.960 . S
H659 C646 0.962 . S
H660 C646 0.960 . S
H661 C647 0.961 . S
H662 C647 0.961 . S
H663 C647 0.961 . S
H664 C648 0.931 . S
H665 C653 0.930 . S
H666 C654 0.956 . S
H667 C654 0.961 . S
H668 C654 0.961 . S
H669 C655 0.958 . S
H670 C655 0.961 . S
H671 C655 0.960 . S
C672 C673 1.391 . S
C672 C674 1.394 . S
C672 H688 0.931 . S
C673 C672 1.391 . S
C673 C677 1.376 . S
C674 C672 1.394 . S
C674 C675 1.369 . S
C674 C678 1.531 . S
C675 C674 1.369 . S
C675 C676 1.410 . S
C675 C683 1.503 . S
C676 C675 1.410 . S
C676 C677 1.392 . S
C676 C679 1.511 . S
C677 C673 1.376 . S
C677 C676 1.392 . S
C677 H689 0.929 . S
C678 C674 1.531 . S
C678 H690 0.960 . S
C678 H691 0.962 . S
C678 H692 0.960 . S
C679 C676 1.511 . S
C679 H693 0.961 . S
C679 H694 0.961 . S
C679 H695 0.961 . S
C680 C681 1.370 . S
C680 C682 1.363 . S
C680 H696 0.931 . S
C681 C680 1.370 . S
C681 C685 1.408 . S
C682 C680 1.363 . S
C682 C683 1.370 . S
C682 C686 1.524 . S
C683 C675 1.503 . S
C683 C682 1.370 . S
C683 C684 1.403 . S
C684 C683 1.403 . S
C684 C685 1.404 . S
C684 C687 1.539 . S
C685 C681 1.408 . S
C685 C684 1.404 . S
C685 H697 0.930 . S
C686 C682 1.524 . S
C686 H698 0.956 . S
C686 H699 0.961 . S
C686 H700 0.961 . S
C687 C684 1.539 . S
C687 H701 0.958 . S
C687 H702 0.961 . S
C687 H703 0.960 . S
H688 C672 0.931 . S
H689 C677 0.929 . S
H690 C678 0.960 . S
H691 C678 0.962 . S
H692 C678 0.960 . S
H693 C679 0.961 . S
H694 C679 0.961 . S
H695 C679 0.961 . S
H696 C680 0.931 . S
H697 C685 0.930 . S
H698 C686 0.956 . S
H699 C686 0.961 . S
H700 C686 0.961 . S
H701 C687 0.958 . S
H702 C687 0.961 . S
H703 C687 0.960 . S
C704 C705 1.391 . S
C704 C706 1.394 . S
C704 H720 0.931 . S
C705 C704 1.391 . S
C705 C709 1.376 . S
C706 C704 1.394 . S
C706 C707 1.369 . S
C706 C710 1.531 . S
C707 C706 1.369 . S
C707 C708 1.410 . S
C707 C715 1.503 . S
C708 C707 1.410 . S
C708 C709 1.392 . S
C708 C711 1.511 . S
C709 C705 1.376 . S
C709 C708 1.392 . S
C709 H721 0.929 . S
C710 C706 1.531 . S
C710 H722 0.960 . S
C710 H723 0.962 . S
C710 H724 0.960 . S
C711 C708 1.511 . S
C711 H725 0.961 . S
C711 H726 0.961 . S
C711 H727 0.961 . S
C712 C713 1.370 . S
C712 C714 1.363 . S
C712 H728 0.931 . S
C713 C712 1.370 . S
C713 C717 1.408 . S
C714 C712 1.363 . S
C714 C715 1.370 . S
C714 C718 1.524 . S
C715 C707 1.503 . S
C715 C714 1.370 . S
C715 C716 1.403 . S
C716 C715 1.403 . S
C716 C717 1.404 . S
C716 C719 1.539 . S
C717 C713 1.408 . S
C717 C716 1.404 . S
C717 H729 0.930 . S
C718 C714 1.524 . S
C718 H730 0.956 . S
C718 H731 0.961 . S
C718 H732 0.961 . S
C719 C716 1.539 . S
C719 H733 0.958 . S
C719 H734 0.961 . S
C719 H735 0.960 . S
H720 C704 0.931 . S
H721 C709 0.929 . S
H722 C710 0.960 . S
H723 C710 0.962 . S
H724 C710 0.960 . S
H725 C711 0.961 . S
H726 C711 0.961 . S
H727 C711 0.961 . S
H728 C712 0.931 . S
H729 C717 0.930 . S
H730 C718 0.956 . S
H731 C718 0.961 . S
H732 C718 0.961 . S
H733 C719 0.958 . S
H734 C719 0.961 . S
H735 C719 0.960 . S
C736 C737 1.391 . S
C736 C738 1.394 . S
C736 H752 0.931 . S
C737 C736 1.391 . S
C737 C741 1.376 . S
C738 C736 1.394 . S
C738 C739 1.369 . S
C738 C742 1.531 . S
C739 C738 1.369 . S
C739 C740 1.410 . S
C739 C747 1.503 . S
C740 C739 1.410 . S
C740 C741 1.392 . S
C740 C743 1.511 . S
C741 C737 1.376 . S
C741 C740 1.392 . S
C741 H753 0.929 . S
C742 C738 1.531 . S
C742 H754 0.960 . S
C742 H755 0.962 . S
C742 H756 0.960 . S
C743 C740 1.511 . S
C743 H757 0.961 . S
C743 H758 0.961 . S
C743 H759 0.961 . S
C744 C745 1.370 . S
C744 C746 1.363 . S
C744 H760 0.931 . S
C745 C744 1.370 . S
C745 C749 1.408 . S
C746 C744 1.363 . S
C746 C747 1.370 . S
C746 C750 1.524 . S
C747 C739 1.503 . S
C747 C746 1.370 . S
C747 C748 1.403 . S
C748 C747 1.403 . S
C748 C749 1.404 . S
C748 C751 1.539 . S
C749 C745 1.408 . S
C749 C748 1.404 . S
C749 H761 0.930 . S
C750 C746 1.524 . S
C750 H762 0.956 . S
C750 H763 0.961 . S
C750 H764 0.961 . S
C751 C748 1.539 . S
C751 H765 0.958 . S
C751 H766 0.961 . S
C751 H767 0.960 . S
H752 C736 0.931 . S
H753 C741 0.929 . S
H754 C742 0.960 . S
H755 C742 0.962 . S
H756 C742 0.960 . S
H757 C743 0.961 . S
H758 C743 0.961 . S
H759 C743 0.961 . S
H760 C744 0.931 . S
H761 C749 0.930 . S
H762 C750 0.956 . S
H763 C750 0.961 . S
H764 C750 0.961 . S
H765 C751 0.958 . S
H766 C751 0.961 . S
H767 C751 0.960 . S
C768 C769 1.391 . S
C768 C770 1.394 . S
C768 H784 0.931 . S
C769 C768 1.391 . S
C769 C773 1.376 . S
C770 C768 1.394 . S
C770 C771 1.369 . S
C770 C774 1.531 . S
C771 C770 1.369 . S
C771 C772 1.410 . S
C771 C779 1.503 . S
C772 C771 1.410 . S
C772 C773 1.392 . S
C772 C775 1.511 . S
C773 C769 1.376 . S
C773 C772 1.392 . S
C773 H785 0.929 . S
C774 C770 1.531 . S
C774 H786 0.960 . S
C774 H787 0.962 . S
C774 H788 0.960 . S
C775 C772 1.511 . S
C775 H789 0.961 . S
C775 H790 0.961 . S
C775 H791 0.961 . S
C776 C777 1.370 . S
C776 C778 1.363 . S
C776 H792 0.931 . S
C777 C776 1.370 . S
C777 C781 1.408 . S
C778 C776 1.363 . S
C778 C779 1.370 . S
C778 C782 1.524 . S
C779 C771 1.503 . S
C779 C778 1.370 . S
C779 C780 1.403 . S
C780 C779 1.403 . S
C780 C781 1.404 . S
C780 C783 1.539 . S
C781 C777 1.408 . S
C781 C780 1.404 . S
C781 H793 0.930 . S
C782 C778 1.524 . S
C782 H794 0.956 . S
C782 H795 0.961 . S
C782 H796 0.961 . S
C783 C780 1.539 . S
C783 H797 0.958 . S
C783 H798 0.961 . S
C783 H799 0.960 . S
H784 C768 0.931 . S
H785 C773 0.929 . S
H786 C774 0.960 . S
H787 C774 0.962 . S
H788 C774 0.960 . S
H789 C775 0.961 . S
H790 C775 0.961 . S
H791 C775 0.961 . S
H792 C776 0.931 . S
H793 C781 0.930 . S
H794 C782 0.956 . S
H795 C782 0.961 . S
H796 C782 0.961 . S
H797 C783 0.958 . S
H798 C783 0.961 . S
H799 C783 0.960 . S
C800 C801 1.391 . S
C800 C802 1.394 . S
C800 H816 0.931 . S
C801 C800 1.391 . S
C801 C805 1.376 . S
C802 C800 1.394 . S
C802 C803 1.369 . S
C802 C806 1.531 . S
C803 C802 1.369 . S
C803 C804 1.410 . S
C803 C811 1.503 . S
C804 C803 1.410 . S
C804 C805 1.392 . S
C804 C807 1.511 . S
C805 C801 1.376 . S
C805 C804 1.392 . S
C805 H817 0.929 . S
C806 C802 1.531 . S
C806 H818 0.960 . S
C806 H819 0.962 . S
C806 H820 0.960 . S
C807 C804 1.511 . S
C807 H821 0.961 . S
C807 H822 0.961 . S
C807 H823 0.961 . S
C808 C809 1.370 . S
C808 C810 1.363 . S
C808 H824 0.931 . S
C809 C808 1.370 . S
C809 C813 1.408 . S
C810 C808 1.363 . S
C810 C811 1.370 . S
C810 C814 1.524 . S
C811 C803 1.503 . S
C811 C810 1.370 . S
C811 C812 1.403 . S
C812 C811 1.403 . S
C812 C813 1.404 . S
C812 C815 1.539 . S
C813 C809 1.408 . S
C813 C812 1.404 . S
C813 H825 0.930 . S
C814 C810 1.524 . S
C814 H826 0.956 . S
C814 H827 0.961 . S
C814 H828 0.961 . S
C815 C812 1.539 . S
C815 H829 0.958 . S
C815 H830 0.961 . S
C815 H831 0.960 . S
H816 C800 0.931 . S
H817 C805 0.929 . S
H818 C806 0.960 . S
H819 C806 0.962 . S
H820 C806 0.960 . S
H821 C807 0.961 . S
H822 C807 0.961 . S
H823 C807 0.961 . S
H824 C808 0.931 . S
H825 C813 0.930 . S
H826 C814 0.956 . S
H827 C814 0.961 . S
H828 C814 0.961 . S
H829 C815 0.958 . S
H830 C815 0.961 . S
H831 C815 0.960 . S
C832 C833 1.391 . S
C832 C834 1.394 . S
C832 H848 0.931 . S
C833 C832 1.391 . S
C833 C837 1.376 . S
C834 C832 1.394 . S
C834 C835 1.369 . S
C834 C838 1.531 . S
C835 C834 1.369 . S
C835 C836 1.410 . S
C835 C843 1.503 . S
C836 C835 1.410 . S
C836 C837 1.392 . S
C836 C839 1.511 . S
C837 C833 1.376 . S
C837 C836 1.392 . S
C837 H849 0.929 . S
C838 C834 1.531 . S
C838 H850 0.960 . S
C838 H851 0.962 . S
C838 H852 0.960 . S
C839 C836 1.511 . S
C839 H853 0.961 . S
C839 H854 0.961 . S
C839 H855 0.961 . S
C840 C841 1.370 . S
C840 C842 1.363 . S
C840 H856 0.931 . S
C841 C840 1.370 . S
C841 C845 1.408 . S
C842 C840 1.363 . S
C842 C843 1.370 . S
C842 C846 1.524 . S
C843 C835 1.503 . S
C843 C842 1.370 . S
C843 C844 1.403 . S
C844 C843 1.403 . S
C844 C845 1.404 . S
C844 C847 1.539 . S
C845 C841 1.408 . S
C845 C844 1.404 . S
C845 H857 0.930 . S
C846 C842 1.524 . S
C846 H858 0.956 . S
C846 H859 0.961 . S
C846 H860 0.961 . S
C847 C844 1.539 . S
C847 H861 0.958 . S
C847 H862 0.961 . S
C847 H863 0.960 . S
H848 C832 0.931 . S
H849 C837 0.929 . S
H850 C838 0.960 . S
H851 C838 0.962 . S
H852 C838 0.960 . S
H853 C839 0.961 . S
H854 C839 0.961 . S
H855 C839 0.961 . S
H856 C840 0.931 . S
H857 C845 0.930 . S
H858 C846 0.956 . S
H859 C846 0.961 . S
H860 C846 0.961 . S
H861 C847 0.958 . S
H862 C847 0.961 . S
H863 C847 0.960 . S
C864 C865 1.391 . S
C864 C866 1.394 . S
C864 H880 0.931 . S
C865 C864 1.391 . S
C865 C869 1.376 . S
C866 C864 1.394 . S
C866 C867 1.369 . S
C866 C870 1.531 . S
C867 C866 1.369 . S
C867 C868 1.410 . S
C867 C875 1.503 . S
C868 C867 1.410 . S
C868 C869 1.392 . S
C868 C871 1.511 . S
C869 C865 1.376 . S
C869 C868 1.392 . S
C869 H881 0.929 . S
C870 C866 1.531 . S
C870 H882 0.960 . S
C870 H883 0.962 . S
C870 H884 0.960 . S
C871 C868 1.511 . S
C871 H885 0.961 . S
C871 H886 0.961 . S
C871 H887 0.961 . S
C872 C873 1.370 . S
C872 C874 1.363 . S
C872 H888 0.931 . S
C873 C872 1.370 . S
C873 C877 1.408 . S
C874 C872 1.363 . S
C874 C875 1.370 . S
C874 C878 1.524 . S
C875 C867 1.503 . S
C875 C874 1.370 . S
C875 C876 1.403 . S
C876 C875 1.403 . S
C876 C877 1.404 . S
C876 C879 1.539 . S
C877 C873 1.408 . S
C877 C876 1.404 . S
C877 H889 0.930 . S
C878 C874 1.524 . S
C878 H890 0.956 . S
C878 H891 0.961 . S
C878 H892 0.961 . S
C879 C876 1.539 . S
C879 H893 0.958 . S
C879 H894 0.961 . S
C879 H895 0.960 . S
H880 C864 0.931 . S
H881 C869 0.929 . S
H882 C870 0.960 . S
H883 C870 0.962 . S
H884 C870 0.960 . S
H885 C871 0.961 . S
H886 C871 0.961 . S
H887 C871 0.961 . S
H888 C872 0.931 . S
H889 C877 0.930 . S
H890 C878 0.956 . S
H891 C878 0.961 . S
H892 C878 0.961 . S
H893 C879 0.958 . S
H894 C879 0.961 . S
H895 C879 0.960 . S
C896 C897 1.391 . S
C896 C898 1.394 . S
C896 H912 0.931 . S
C897 C896 1.391 . S
C897 C901 1.376 . S
C898 C896 1.394 . S
C898 C899 1.369 . S
C898 C902 1.531 . S
C899 C898 1.369 . S
C899 C900 1.410 . S
C899 C907 1.503 . S
C900 C899 1.410 . S
C900 C901 1.392 . S
C900 C903 1.511 . S
C901 C897 1.376 . S
C901 C900 1.392 . S
C901 H913 0.929 . S
C902 C898 1.531 . S
C902 H914 0.960 . S
C902 H915 0.962 . S
C902 H916 0.960 . S
C903 C900 1.511 . S
C903 H917 0.961 . S
C903 H918 0.961 . S
C903 H919 0.961 . S
C904 C905 1.370 . S
C904 C906 1.363 . S
C904 H920 0.931 . S
C905 C904 1.370 . S
C905 C909 1.408 . S
C906 C904 1.363 . S
C906 C907 1.370 . S
C906 C910 1.524 . S
C907 C899 1.503 . S
C907 C906 1.370 . S
C907 C908 1.403 . S
C908 C907 1.403 . S
C908 C909 1.404 . S
C908 C911 1.539 . S
C909 C905 1.408 . S
C909 C908 1.404 . S
C909 H921 0.930 . S
C910 C906 1.524 . S
C910 H922 0.956 . S
C910 H923 0.961 . S
C910 H924 0.961 . S
C911 C908 1.539 . S
C911 H925 0.958 . S
C911 H926 0.961 . S
C911 H927 0.960 . S
H912 C896 0.931 . S
H913 C901 0.929 . S
H914 C902 0.960 . S
H915 C902 0.962 . S
H916 C902 0.960 . S
H917 C903 0.961 . S
H918 C903 0.961 . S
H919 C903 0.961 . S
H920 C904 0.931 . S
H921 C909 0.930 . S
H922 C910 0.956 . S
H923 C910 0.961 . S
H924 C910 0.961 . S
H925 C911 0.958 . S
H926 C911 0.961 . S
H927 C911 0.960 . S
C928 C929 1.391 . S
C928 C930 1.394 . S
C928 H944 0.931 . S
C929 C928 1.391 . S
C929 C933 1.376 . S
C930 C928 1.394 . S
C930 C931 1.369 . S
C930 C934 1.531 . S
C931 C930 1.369 . S
C931 C932 1.410 . S
C931 C939 1.503 . S
C932 C931 1.410 . S
C932 C933 1.392 . S
C932 C935 1.511 . S
C933 C929 1.376 . S
C933 C932 1.392 . S
C933 H945 0.929 . S
C934 C930 1.531 . S
C934 H946 0.960 . S
C934 H947 0.962 . S
C934 H948 0.960 . S
C935 C932 1.511 . S
C935 H949 0.961 . S
C935 H950 0.961 . S
C935 H951 0.961 . S
C936 C937 1.370 . S
C936 C938 1.363 . S
C936 H952 0.931 . S
C937 C936 1.370 . S
C937 C941 1.408 . S
C938 C936 1.363 . S
C938 C939 1.370 . S
C938 C942 1.524 . S
C939 C931 1.503 . S
C939 C938 1.370 . S
C939 C940 1.403 . S
C940 C939 1.403 . S
C940 C941 1.404 . S
C940 C943 1.539 . S
C941 C937 1.408 . S
C941 C940 1.404 . S
C941 H953 0.930 . S
C942 C938 1.524 . S
C942 H954 0.956 . S
C942 H955 0.961 . S
C942 H956 0.961 . S
C943 C940 1.539 . S
C943 H957 0.958 . S
C943 H958 0.961 . S
C943 H959 0.960 . S
H944 C928 0.931 . S
H945 C933 0.929 . S
H946 C934 0.960 . S
H947 C934 0.962 . S
H948 C934 0.960 . S
H949 C935 0.961 . S
H950 C935 0.961 . S
H951 C935 0.961 . S
H952 C936 0.931 . S
H953 C941 0.930 . S
H954 C942 0.956 . S
H955 C942 0.961 . S
H956 C942 0.961 . S
H957 C943 0.958 . S
H958 C943 0.961 . S
H959 C943 0.960 . S
C960 C961 1.391 . S
C960 C962 1.394 1_554 S
C960 H976 0.931 . S
C961 C960 1.391 . S
C961 C965 1.376 . S
C962 C960 1.394 1_556 S
C962 C963 1.369 . S
C962 C966 1.531 . S
C963 C962 1.369 . S
C963 C964 1.410 . S
C963 C971 1.503 . S
C964 C963 1.410 . S
C964 C965 1.392 1_556 S
C964 C967 1.511 . S
C965 C961 1.376 . S
C965 C964 1.392 1_554 S
C965 H977 0.929 1_655 S
C966 C962 1.531 . S
C966 H978 0.960 . S
C966 H979 0.962 . S
C966 H980 0.960 . S
C967 C964 1.511 . S
C967 H981 0.961 1_655 S
C967 H982 0.961 . S
C967 H983 0.961 1_655 S
C968 C969 1.370 . S
C968 C970 1.363 . S
C968 H984 0.931 . S
C969 C968 1.370 . S
C969 C973 1.408 . S
C970 C968 1.363 . S
C970 C971 1.370 . S
C970 C974 1.524 . S
C971 C963 1.503 . S
C971 C970 1.370 . S
C971 C972 1.403 . S
C972 C971 1.403 . S
C972 C973 1.404 . S
C972 C975 1.539 . S
C973 C969 1.408 . S
C973 C972 1.404 . S
C973 H985 0.930 . S
C974 C970 1.524 . S
C974 H986 0.956 . S
C974 H987 0.961 . S
C974 H988 0.961 . S
C975 C972 1.539 . S
C975 H989 0.958 . S
C975 H990 0.961 . S
C975 H991 0.960 . S
H976 C960 0.931 . S
H977 C965 0.929 1_455 S
H978 C966 0.960 . S
H979 C966 0.962 . S
H980 C966 0.960 . S
H981 C967 0.961 1_455 S
H982 C967 0.961 . S
H983 C967 0.961 1_455 S
H984 C968 0.931 . S
H985 C973 0.930 . S
H986 C974 0.956 . S
H987 C974 0.961 . S
H988 C974 0.961 . S
H989 C975 0.958 . S
H990 C975 0.961 . S
H991 C975 0.960 . S
C992 C993 1.391 . S
C992 C994 1.394 . S
C992 H1008 0.931 . S
C993 C992 1.391 . S
C993 C997 1.376 . S
C994 C992 1.394 . S
C994 C995 1.369 . S
C994 C998 1.531 . S
C995 C994 1.369 . S
C995 C996 1.410 . S
C995 C1003 1.503 . S
C996 C995 1.410 . S
C996 C997 1.392 . S
C996 C999 1.511 . S
C997 C993 1.376 . S
C997 C996 1.392 . S
C997 H1009 0.929 . S
C998 C994 1.531 . S
C998 H1010 0.960 . S
C998 H1011 0.962 . S
C998 H1012 0.960 . S
C999 C996 1.511 . S
C999 H1013 0.961 . S
C999 H1014 0.961 . S
C999 H1015 0.961 . S
C1000 C1001 1.370 . S
C1000 C1002 1.363 . S
C1000 H1016 0.931 . S
C1001 C1000 1.370 . S
C1001 C1005 1.408 . S
C1002 C1000 1.363 . S
C1002 C1003 1.370 . S
C1002 C1006 1.524 . S
C1003 C995 1.503 . S
C1003 C1002 1.370 . S
C1003 C1004 1.403 . S
C1004 C1003 1.403 . S
C1004 C1005 1.404 . S
C1004 C1007 1.539 . S
C1005 C1001 1.408 . S
C1005 C1004 1.404 . S
C1005 H1017 0.930 . S
C1006 C1002 1.524 . S
C1006 H1018 0.956 . S
C1006 H1019 0.961 . S
C1006 H1020 0.961 . S
C1007 C1004 1.539 . S
C1007 H1021 0.958 . S
C1007 H1022 0.961 . S
C1007 H1023 0.960 . S
H1008 C992 0.931 . S
H1009 C997 0.929 . S
H1010 C998 0.960 . S
H1011 C998 0.962 . S
H1012 C998 0.960 . S
H1013 C999 0.961 . S
H1014 C999 0.961 . S
H1015 C999 0.961 . S
H1016 C1000 0.931 . S
H1017 C1005 0.930 . S
H1018 C1006 0.956 . S
H1019 C1006 0.961 . S
H1020 C1006 0.961 . S
H1021 C1007 0.958 . S
H1022 C1007 0.961 . S
H1023 C1007 0.960 . S
C1024 C1025 1.391 . S
C1024 C1026 1.394 . S
C1024 H1040 0.931 . S
C1025 C1024 1.391 . S
C1025 C1029 1.376 . S
C1026 C1024 1.394 . S
C1026 C1027 1.369 . S
C1026 C1030 1.531 . S
C1027 C1026 1.369 . S
C1027 C1028 1.410 . S
C1027 C1035 1.503 . S
C1028 C1027 1.410 . S
C1028 C1029 1.392 . S
C1028 C1031 1.511 . S
C1029 C1025 1.376 . S
C1029 C1028 1.392 . S
C1029 H1041 0.929 . S
C1030 C1026 1.531 . S
C1030 H1042 0.960 . S
C1030 H1043 0.962 . S
C1030 H1044 0.960 . S
C1031 C1028 1.511 . S
C1031 H1045 0.961 . S
C1031 H1046 0.961 . S
C1031 H1047 0.961 . S
C1032 C1033 1.370 . S
C1032 C1034 1.363 . S
C1032 H1048 0.931 . S
C1033 C1032 1.370 . S
C1033 C1037 1.408 . S
C1034 C1032 1.363 . S
C1034 C1035 1.370 . S
C1034 C1038 1.524 . S
C1035 C1027 1.503 . S
C1035 C1034 1.370 . S
C1035 C1036 1.403 . S
C1036 C1035 1.403 . S
C1036 C1037 1.404 . S
C1036 C1039 1.539 . S
C1037 C1033 1.408 . S
C1037 C1036 1.404 . S
C1037 H1049 0.930 . S
C1038 C1034 1.524 . S
C1038 H1050 0.956 . S
C1038 H1051 0.961 . S
C1038 H1052 0.961 . S
C1039 C1036 1.539 . S
C1039 H1053 0.958 . S
C1039 H1054 0.961 . S
C1039 H1055 0.960 . S
H1040 C1024 0.931 . S
H1041 C1029 0.929 . S
H1042 C1030 0.960 . S
H1043 C1030 0.962 . S
H1044 C1030 0.960 . S
H1045 C1031 0.961 . S
H1046 C1031 0.961 . S
H1047 C1031 0.961 . S
H1048 C1032 0.931 . S
H1049 C1037 0.930 . S
H1050 C1038 0.956 . S
H1051 C1038 0.961 . S
H1052 C1038 0.961 . S
H1053 C1039 0.958 . S
H1054 C1039 0.961 . S
H1055 C1039 0.960 . S
C1056 C1057 1.391 . S
C1056 C1058 1.394 . S
C1056 H1072 0.931 . S
C1057 C1056 1.391 . S
C1057 C1061 1.376 . S
C1058 C1056 1.394 . S
C1058 C1059 1.369 . S
C1058 C1062 1.531 . S
C1059 C1058 1.369 . S
C1059 C1060 1.410 . S
C1059 C1067 1.503 . S
C1060 C1059 1.410 . S
C1060 C1061 1.392 . S
C1060 C1063 1.511 . S
C1061 C1057 1.376 . S
C1061 C1060 1.392 . S
C1061 H1073 0.929 . S
C1062 C1058 1.531 . S
C1062 H1074 0.960 . S
C1062 H1075 0.962 . S
C1062 H1076 0.960 . S
C1063 C1060 1.511 . S
C1063 H1077 0.961 . S
C1063 H1078 0.961 . S
C1063 H1079 0.961 . S
C1064 C1065 1.370 . S
C1064 C1066 1.363 . S
C1064 H1080 0.931 . S
C1065 C1064 1.370 . S
C1065 C1069 1.408 . S
C1066 C1064 1.363 . S
C1066 C1067 1.370 . S
C1066 C1070 1.524 . S
C1067 C1059 1.503 . S
C1067 C1066 1.370 . S
C1067 C1068 1.403 . S
C1068 C1067 1.403 . S
C1068 C1069 1.404 . S
C1068 C1071 1.539 . S
C1069 C1065 1.408 . S
C1069 C1068 1.404 . S
C1069 H1081 0.930 . S
C1070 C1066 1.524 . S
C1070 H1082 0.956 . S
C1070 H1083 0.961 . S
C1070 H1084 0.961 . S
C1071 C1068 1.539 . S
C1071 H1085 0.958 . S
C1071 H1086 0.961 . S
C1071 H1087 0.960 . S
H1072 C1056 0.931 . S
H1073 C1061 0.929 . S
H1074 C1062 0.960 . S
H1075 C1062 0.962 . S
H1076 C1062 0.960 . S
H1077 C1063 0.961 . S
H1078 C1063 0.961 . S
H1079 C1063 0.961 . S
H1080 C1064 0.931 . S
H1081 C1069 0.930 . S
H1082 C1070 0.956 . S
H1083 C1070 0.961 . S
H1084 C1070 0.961 . S
H1085 C1071 0.958 . S
H1086 C1071 0.961 . S
H1087 C1071 0.960 . S
C1088 C1089 1.391 . S
C1088 C1090 1.394 . S
C1088 H1104 0.931 . S
C1089 C1088 1.391 . S
C1089 C1093 1.376 . S
C1090 C1088 1.394 . S
C1090 C1091 1.369 . S
C1090 C1094 1.531 . S
C1091 C1090 1.369 . S
C1091 C1092 1.410 . S
C1091 C1099 1.503 . S
C1092 C1091 1.410 . S
C1092 C1093 1.392 . S
C1092 C1095 1.511 . S
C1093 C1089 1.376 . S
C1093 C1092 1.392 . S
C1093 H1105 0.929 . S
C1094 C1090 1.531 . S
C1094 H1106 0.960 . S
C1094 H1107 0.962 . S
C1094 H1108 0.960 . S
C1095 C1092 1.511 . S
C1095 H1109 0.961 . S
C1095 H1110 0.961 . S
C1095 H1111 0.961 . S
C1096 C1097 1.370 . S
C1096 C1098 1.363 1_556 S
C1096 H1112 0.931 . S
C1097 C1096 1.370 . S
C1097 C1101 1.408 . S
C1098 C1096 1.363 1_554 S
C1098 C1099 1.370 . S
C1098 C1102 1.524 . S
C1099 C1091 1.503 . S
C1099 C1098 1.370 . S
C1099 C1100 1.403 1_554 S
C1100 C1099 1.403 1_556 S
C1100 C1101 1.404 . S
C1100 C1103 1.539 . S
C1101 C1097 1.408 . S
C1101 C1100 1.404 . S
C1101 H1113 0.930 . S
C1102 C1098 1.524 . S
C1102 H1114 0.956 . S
C1102 H1115 0.961 . S
C1102 H1116 0.961 . S
C1103 C1100 1.539 . S
C1103 H1117 0.955 1_556 S
C1103 H1118 0.961 . S
C1103 H1119 0.960 1_556 S
H1104 C1088 0.931 . S
H1105 C1093 0.929 . S
H1106 C1094 0.960 . S
H1107 C1094 0.962 . S
H1108 C1094 0.960 . S
H1109 C1095 0.961 . S
H1110 C1095 0.961 . S
H1111 C1095 0.961 . S
H1112 C1096 0.931 . S
H1113 C1101 0.930 . S
H1114 C1102 0.956 . S
H1115 C1102 0.961 . S
H1116 C1102 0.961 . S
H1117 C1103 0.955 1_554 S
H1118 C1103 0.961 . S
H1119 C1103 0.960 1_554 S
C1120 C1121 1.391 . S
C1120 C1122 1.394 . S
C1120 H1136 0.931 . S
C1121 C1120 1.391 . S
C1121 C1125 1.376 . S
C1122 C1120 1.394 . S
C1122 C1123 1.369 . S
C1122 C1126 1.531 . S
C1123 C1122 1.369 . S
C1123 C1124 1.410 . S
C1123 C1131 1.503 . S
C1124 C1123 1.410 . S
C1124 C1125 1.392 . S
C1124 C1127 1.511 . S
C1125 C1121 1.376 . S
C1125 C1124 1.392 . S
C1125 H1137 0.929 . S
C1126 C1122 1.531 . S
C1126 H1138 0.960 . S
C1126 H1139 0.962 . S
C1126 H1140 0.960 . S
C1127 C1124 1.511 . S
C1127 H1141 0.961 . S
C1127 H1142 0.961 . S
C1127 H1143 0.961 . S
C1128 C1129 1.370 . S
C1128 C1130 1.363 . S
C1128 H1144 0.931 . S
C1129 C1128 1.370 . S
C1129 C1133 1.408 . S
C1130 C1128 1.363 . S
C1130 C1131 1.370 . S
C1130 C1134 1.524 . S
C1131 C1123 1.503 . S
C1131 C1130 1.370 . S
C1131 C1132 1.403 . S
C1132 C1131 1.403 . S
C1132 C1133 1.404 . S
C1132 C1135 1.539 . S
C1133 C1129 1.408 . S
C1133 C1132 1.404 . S
C1133 H1145 0.930 . S
C1134 C1130 1.524 . S
C1134 H1146 0.956 . S
C1134 H1147 0.961 . S
C1134 H1148 0.961 . S
C1135 C1132 1.539 . S
C1135 H1149 0.958 . S
C1135 H1150 0.961 . S
C1135 H1151 0.960 . S
H1136 C1120 0.931 . S
H1137 C1125 0.929 . S
H1138 C1126 0.960 . S
H1139 C1126 0.962 . S
H1140 C1126 0.960 . S
H1141 C1127 0.961 . S
H1142 C1127 0.961 . S
H1143 C1127 0.961 . S
H1144 C1128 0.931 . S
H1145 C1133 0.930 . S
H1146 C1134 0.956 . S
H1147 C1134 0.961 . S
H1148 C1134 0.961 . S
H1149 C1135 0.958 . S
H1150 C1135 0.961 . S
H1151 C1135 0.960 . S
C1152 C1153 1.391 . S
C1152 C1154 1.394 . S
C1152 H1168 0.931 . S
C1153 C1152 1.391 . S
C1153 C1157 1.376 1_455 S
C1154 C1152 1.394 . S
C1154 C1155 1.369 . S
C1154 C1158 1.531 . S
C1155 C1154 1.369 . S
C1155 C1156 1.410 1_455 S
C1155 C1163 1.503 . S
C1156 C1155 1.410 1_655 S
C1156 C1157 1.392 . S
C1156 C1159 1.511 . S
C1157 C1153 1.376 1_655 S
C1157 C1156 1.392 . S
C1157 H1169 0.929 . S
C1158 C1154 1.531 . S
C1158 H1170 0.960 . S
C1158 H1171 0.962 . S
C1158 H1172 0.960 . S
C1159 C1156 1.511 . S
C1159 H1173 0.961 . S
C1159 H1174 0.961 . S
C1159 H1175 0.961 . S
C1160 C1161 1.385 . S
C1160 C1162 1.363 . S
C1160 H1176 0.931 . S
C1161 C1160 1.385 . S
C1161 C1165 1.391 1_455 S
C1162 C1160 1.363 . S
C1162 C1163 1.370 . S
C1162 C1166 1.524 . S
C1163 C1155 1.503 . S
C1163 C1162 1.370 . S
C1163 C1164 1.403 1_455 S
C1164 C1163 1.403 1_655 S
C1164 C1165 1.404 . S
C1164 C1167 1.539 . S
C1165 C1161 1.391 1_655 S
C1165 C1164 1.404 . S
C1165 H1177 0.930 . S
C1166 C1162 1.524 . S
C1166 H1178 0.956 . S
C1166 H1179 0.961 . S
C1166 H1180 0.961 . S
C1167 C1164 1.539 . S
C1167 H1181 0.958 . S
C1167 H1182 0.961 . S
C1167 H1183 0.960 . S
H1168 C1152 0.931 . S
H1169 C1157 0.929 . S
H1170 C1158 0.960 . S
H1171 C1158 0.962 . S
H1172 C1158 0.960 . S
H1173 C1159 0.961 . S
H1174 C1159 0.961 . S
H1175 C1159 0.961 . S
H1176 C1160 0.931 . S
H1177 C1165 0.930 . S
H1178 C1166 0.956 . S
H1179 C1166 0.961 . S
H1180 C1166 0.961 . S
H1181 C1167 0.958 . S
H1182 C1167 0.961 . S
H1183 C1167 0.960 . S
C1184 C1185 1.391 . S
C1184 C1186 1.394 1_655 S
C1184 H1200 0.931 . S
C1185 C1184 1.391 . S
C1185 C1189 1.376 . S
C1186 C1184 1.394 1_455 S
C1186 C1187 1.369 . S
C1186 C1190 1.531 . S
C1187 C1186 1.369 . S
C1187 C1188 1.410 . S
C1187 C1195 1.503 . S
C1188 C1187 1.410 . S
C1188 C1189 1.392 1_455 S
C1188 C1191 1.511 . S
C1189 C1185 1.376 . S
C1189 C1188 1.392 1_655 S
C1189 H1201 0.929 . S
C1190 C1186 1.531 . S
C1190 H1202 0.960 . S
C1190 H1203 0.962 . S
C1190 H1204 0.960 . S
C1191 C1188 1.511 . S
C1191 H1205 0.961 . S
C1191 H1206 0.961 . S
C1191 H1207 0.961 . S
C1192 C1193 1.370 . S
C1192 C1194 1.363 . S
C1192 H1208 0.931 . S
C1193 C1192 1.370 . S
C1193 C1197 1.408 . S
C1194 C1192 1.363 . S
C1194 C1195 1.370 . S
C1194 C1198 1.524 . S
C1195 C1187 1.503 . S
C1195 C1194 1.370 . S
C1195 C1196 1.403 . S
C1196 C1195 1.403 . S
C1196 C1197 1.404 . S
C1196 C1199 1.539 . S
C1197 C1193 1.408 . S
C1197 C1196 1.404 . S
C1197 H1209 0.930 . S
C1198 C1194 1.524 . S
C1198 H1210 0.956 1_455 S
C1198 H1211 0.961 1_455 S
C1198 H1212 0.961 . S
C1199 C1196 1.539 . S
C1199 H1213 0.958 . S
C1199 H1214 0.961 . S
C1199 H1215 0.960 . S
H1200 C1184 0.931 . S
H1201 C1189 0.929 . S
H1202 C1190 0.960 . S
H1203 C1190 0.962 . S
H1204 C1190 0.960 . S
H1205 C1191 0.961 . S
H1206 C1191 0.961 . S
H1207 C1191 0.961 . S
H1208 C1192 0.931 . S
H1209 C1197 0.930 . S
H1210 C1198 0.956 1_655 S
H1211 C1198 0.961 1_655 S
H1212 C1198 0.961 . S
H1213 C1199 0.958 . S
H1214 C1199 0.961 . S
H1215 C1199 0.960 . S
C1216 C1217 1.391 . S
C1216 C1218 1.394 . S
C1216 H1232 0.931 . S
C1217 C1216 1.391 . S
C1217 C1221 1.376 . S
C1218 C1216 1.394 . S
C1218 C1219 1.369 . S
C1218 C1222 1.531 . S
C1219 C1218 1.369 . S
C1219 C1220 1.410 . S
C1219 C1227 1.503 . S
C1220 C1219 1.410 . S
C1220 C1221 1.392 . S
C1220 C1223 1.511 . S
C1221 C1217 1.376 . S
C1221 C1220 1.392 . S
C1221 H1233 0.929 . S
C1222 C1218 1.531 . S
C1222 H1234 0.960 . S
C1222 H1235 0.962 . S
C1222 H1236 0.960 . S
C1223 C1220 1.511 . S
C1223 H1237 0.961 . S
C1223 H1238 0.961 . S
C1223 H1239 0.961 . S
C1224 C1225 1.370 . S
C1224 C1226 1.363 . S
C1224 H1240 0.931 . S
C1225 C1224 1.370 . S
C1225 C1229 1.408 . S
C1226 C1224 1.363 . S
C1226 C1227 1.370 . S
C1226 C1230 1.524 . S
C1227 C1219 1.503 . S
C1227 C1226 1.370 . S
C1227 C1228 1.403 . S
C1228 C1227 1.403 . S
C1228 C1229 1.404 . S
C1228 C1231 1.539 . S
C1229 C1225 1.408 . S
C1229 C1228 1.404 . S
C1229 H1241 0.930 . S
C1230 C1226 1.524 . S
C1230 H1242 0.956 . S
C1230 H1243 0.961 . S
C1230 H1244 0.961 . S
C1231 C1228 1.539 . S
C1231 H1245 0.958 . S
C1231 H1246 0.961 . S
C1231 H1247 0.960 . S
H1232 C1216 0.931 . S
H1233 C1221 0.929 . S
H1234 C1222 0.960 . S
H1235 C1222 0.962 . S
H1236 C1222 0.960 . S
H1237 C1223 0.961 . S
H1238 C1223 0.961 . S
H1239 C1223 0.961 . S
H1240 C1224 0.931 . S
H1241 C1229 0.930 . S
H1242 C1230 0.956 . S
H1243 C1230 0.961 . S
H1244 C1230 0.961 . S
H1245 C1231 0.958 . S
H1246 C1231 0.961 . S
H1247 C1231 0.960 . S
C1248 C1249 1.391 . S
C1248 C1250 1.394 . S
C1248 H1264 0.931 . S
C1249 C1248 1.391 . S
C1249 C1253 1.376 . S
C1250 C1248 1.394 . S
C1250 C1251 1.369 . S
C1250 C1254 1.531 . S
C1251 C1250 1.369 . S
C1251 C1252 1.410 . S
C1251 C1259 1.503 . S
C1252 C1251 1.410 . S
C1252 C1253 1.392 . S
C1252 C1255 1.511 . S
C1253 C1249 1.376 . S
C1253 C1252 1.392 . S
C1253 H1265 0.929 . S
C1254 C1250 1.531 . S
C1254 H1266 0.960 . S
C1254 H1267 0.962 . S
C1254 H1268 0.960 . S
C1255 C1252 1.511 . S
C1255 H1269 0.961 . S
C1255 H1270 0.961 . S
C1255 H1271 0.961 . S
C1256 C1257 1.370 . S
C1256 C1258 1.363 . S
C1256 H1272 0.931 . S
C1257 C1256 1.370 . S
C1257 C1261 1.408 . S
C1258 C1256 1.363 . S
C1258 C1259 1.370 . S
C1258 C1262 1.524 . S
C1259 C1251 1.503 . S
C1259 C1258 1.370 . S
C1259 C1260 1.403 . S
C1260 C1259 1.403 . S
C1260 C1261 1.404 . S
C1260 C1263 1.539 . S
C1261 C1257 1.408 . S
C1261 C1260 1.404 . S
C1261 H1273 0.930 . S
C1262 C1258 1.524 . S
C1262 H1274 0.956 . S
C1262 H1275 0.961 . S
C1262 H1276 0.961 . S
C1263 C1260 1.539 . S
C1263 H1277 0.958 . S
C1263 H1278 0.961 . S
C1263 H1279 0.960 . S
H1264 C1248 0.931 . S
H1265 C1253 0.929 . S
H1266 C1254 0.960 . S
H1267 C1254 0.962 . S
H1268 C1254 0.960 . S
H1269 C1255 0.961 . S
H1270 C1255 0.961 . S
H1271 C1255 0.961 . S
H1272 C1256 0.931 . S
H1273 C1261 0.930 . S
H1274 C1262 0.956 . S
H1275 C1262 0.961 . S
H1276 C1262 0.961 . S
H1277 C1263 0.958 . S
H1278 C1263 0.961 . S
H1279 C1263 0.960 . S
C1280 C1281 1.391 . S
C1280 C1282 1.394 . S
C1280 H1296 0.931 . S
C1281 C1280 1.391 . S
C1281 C1285 1.376 . S
C1282 C1280 1.394 . S
C1282 C1283 1.369 . S
C1282 C1286 1.531 . S
C1283 C1282 1.369 . S
C1283 C1284 1.410 . S
C1283 C1291 1.503 . S
C1284 C1283 1.410 . S
C1284 C1285 1.392 . S
C1284 C1287 1.511 1_455 S
C1285 C1281 1.376 . S
C1285 C1284 1.392 . S
C1285 H1297 0.929 1_455 S
C1286 C1282 1.531 . S
C1286 H1298 0.960 . S
C1286 H1299 0.962 . S
C1286 H1300 0.960 . S
C1287 C1284 1.511 1_655 S
C1287 H1301 0.961 . S
C1287 H1302 0.961 . S
C1287 H1303 0.961 . S
C1288 C1289 1.370 . S
C1288 C1290 1.363 . S
C1288 H1304 0.931 . S
C1289 C1288 1.370 . S
C1289 C1293 1.408 . S
C1290 C1288 1.363 . S
C1290 C1291 1.370 . S
C1290 C1294 1.524 . S
C1291 C1283 1.503 . S
C1291 C1290 1.370 . S
C1291 C1292 1.403 . S
C1292 C1291 1.403 . S
C1292 C1293 1.404 . S
C1292 C1295 1.539 . S
C1293 C1289 1.408 . S
C1293 C1292 1.404 . S
C1293 H1305 0.930 . S
C1294 C1290 1.524 . S
C1294 H1306 0.956 . S
C1294 H1307 0.961 . S
C1294 H1308 0.961 . S
C1295 C1292 1.539 . S
C1295 H1309 0.958 . S
C1295 H1310 0.961 . S
C1295 H1311 0.960 . S
H1296 C1280 0.931 . S
H1297 C1285 0.929 1_655 S
H1298 C1286 0.960 . S
H1299 C1286 0.962 . S
H1300 C1286 0.960 . S
H1301 C1287 0.961 . S
H1302 C1287 0.961 . S
H1303 C1287 0.961 . S
H1304 C1288 0.931 . S
H1305 C1293 0.930 . S
H1306 C1294 0.956 . S
H1307 C1294 0.961 . S
H1308 C1294 0.961 . S
H1309 C1295 0.958 . S
H1310 C1295 0.961 . S
H1311 C1295 0.960 . S
C1312 C1313 1.391 . S
C1312 C1314 1.394 . S
C1312 H1328 0.931 . S
C1313 C1312 1.391 . S
C1313 C1317 1.376 . S
C1314 C1312 1.394 . S
C1314 C1315 1.369 . S
C1314 C1318 1.531 . S
C1315 C1314 1.369 . S
C1315 C1316 1.410 . S
C1315 C1323 1.503 . S
C1316 C1315 1.410 . S
C1316 C1317 1.392 . S
C1316 C1319 1.511 . S
C1317 C1313 1.376 . S
C1317 C1316 1.392 . S
C1317 H1329 0.929 . S
C1318 C1314 1.531 . S
C1318 H1330 0.960 . S
C1318 H1331 0.962 . S
C1318 H1332 0.960 . S
C1319 C1316 1.511 . S
C1319 H1333 0.961 . S
C1319 H1334 0.961 . S
C1319 H1335 0.961 . S
C1320 C1321 1.370 . S
C1320 C1322 1.363 . S
C1320 H1336 0.931 . S
C1321 C1320 1.370 . S
C1321 C1325 1.408 . S
C1322 C1320 1.363 . S
C1322 C1323 1.370 . S
C1322 C1326 1.524 . S
C1323 C1315 1.503 . S
C1323 C1322 1.370 . S
C1323 C1324 1.403 . S
C1324 C1323 1.403 . S
C1324 C1325 1.404 . S
C1324 C1327 1.539 . S
C1325 C1321 1.408 . S
C1325 C1324 1.404 . S
C1325 H1337 0.930 . S
C1326 C1322 1.524 . S
C1326 H1338 0.956 . S
C1326 H1339 0.961 . S
C1326 H1340 0.961 . S
C1327 C1324 1.539 . S
C1327 H1341 0.958 . S
C1327 H1342 0.961 . S
C1327 H1343 0.960 . S
H1328 C1312 0.931 . S
H1329 C1317 0.929 . S
H1330 C1318 0.960 . S
H1331 C1318 0.962 . S
H1332 C1318 0.960 . S
H1333 C1319 0.961 . S
H1334 C1319 0.961 . S
H1335 C1319 0.961 . S
H1336 C1320 0.931 . S
H1337 C1325 0.930 . S
H1338 C1326 0.956 . S
H1339 C1326 0.961 . S
H1340 C1326 0.961 . S
H1341 C1327 0.958 . S
H1342 C1327 0.961 . S
H1343 C1327 0.960 . S
C1344 C1345 1.391 . S
C1344 C1346 1.394 . S
C1344 H1360 0.931 . S
C1345 C1344 1.391 . S
C1345 C1349 1.376 . S
C1346 C1344 1.394 . S
C1346 C1347 1.369 . S
C1346 C1350 1.531 . S
C1347 C1346 1.369 . S
C1347 C1348 1.410 . S
C1347 C1355 1.503 . S
C1348 C1347 1.410 . S
C1348 C1349 1.392 . S
C1348 C1351 1.511 . S
C1349 C1345 1.376 . S
C1349 C1348 1.392 . S
C1349 H1361 0.929 . S
C1350 C1346 1.531 . S
C1350 H1362 0.960 . S
C1350 H1363 0.962 . S
C1350 H1364 0.960 . S
C1351 C1348 1.511 . S
C1351 H1365 0.961 . S
C1351 H1366 0.961 . S
C1351 H1367 0.961 . S
C1352 C1353 1.370 . S
C1352 C1354 1.363 . S
C1352 H1368 0.931 . S
C1353 C1352 1.370 . S
C1353 C1357 1.408 . S
C1354 C1352 1.363 . S
C1354 C1355 1.370 . S
C1354 C1358 1.524 . S
C1355 C1347 1.503 . S
C1355 C1354 1.370 . S
C1355 C1356 1.403 . S
C1356 C1355 1.403 . S
C1356 C1357 1.404 . S
C1356 C1359 1.539 . S
C1357 C1353 1.408 . S
C1357 C1356 1.404 . S
C1357 H1369 0.930 . S
C1358 C1354 1.524 . S
C1358 H1370 0.956 . S
C1358 H1371 0.961 . S
C1358 H1372 0.961 . S
C1359 C1356 1.539 . S
C1359 H1373 0.958 . S
C1359 H1374 0.961 . S
C1359 H1375 0.960 . S
H1360 C1344 0.931 . S
H1361 C1349 0.929 . S
H1362 C1350 0.960 . S
H1363 C1350 0.962 . S
H1364 C1350 0.960 . S
H1365 C1351 0.961 . S
H1366 C1351 0.961 . S
H1367 C1351 0.961 . S
H1368 C1352 0.931 . S
H1369 C1357 0.930 . S
H1370 C1358 0.956 . S
H1371 C1358 0.961 . S
H1372 C1358 0.961 . S
H1373 C1359 0.958 . S
H1374 C1359 0.961 . S
H1375 C1359 0.960 . S
C1376 C1377 1.391 . S
C1376 C1378 1.394 . S
C1376 H1392 0.931 . S
C1377 C1376 1.391 . S
C1377 C1381 1.376 . S
C1378 C1376 1.394 . S
C1378 C1379 1.369 . S
C1378 C1382 1.531 . S
C1379 C1378 1.369 . S
C1379 C1380 1.410 . S
C1379 C1387 1.503 1_455 S
C1380 C1379 1.410 . S
C1380 C1381 1.392 . S
C1380 C1383 1.511 . S
C1381 C1377 1.376 . S
C1381 C1380 1.392 . S
C1381 H1393 0.929 . S
C1382 C1378 1.531 . S
C1382 H1394 0.960 . S
C1382 H1395 0.962 . S
C1382 H1396 0.960 . S
C1383 C1380 1.511 . S
C1383 H1397 0.961 . S
C1383 H1398 0.944 1_455 S
C1383 H1399 0.961 1_455 S
C1384 C1385 1.370 . S
C1384 C1386 1.363 1_655 S
C1384 H1400 0.931 . S
C1385 C1384 1.370 . S
C1385 C1389 1.408 . S
C1386 C1384 1.363 1_455 S
C1386 C1387 1.370 1_455 S
C1386 C1390 1.524 . S
C1387 C1379 1.503 1_655 S
C1387 C1386 1.370 1_655 S
C1387 C1388 1.403 . S
C1388 C1387 1.403 . S
C1388 C1389 1.404 . S
C1388 C1391 1.539 . S
C1389 C1385 1.408 . S
C1389 C1388 1.404 . S
C1389 H1401 0.930 . S
C1390 C1386 1.524 . S
C1390 H1402 0.956 . S
C1390 H1403 0.961 . S
C1390 H1404 0.961 . S
C1391 C1388 1.539 . S
C1391 H1405 0.958 . S
C1391 H1406 0.961 . S
C1391 H1407 0.960 . S
H1392 C1376 0.931 . S
H1393 C1381 0.929 . S
H1394 C1382 0.960 . S
H1395 C1382 0.962 . S
H1396 C1382 0.960 . S
H1397 C1383 0.961 . S
H1398 C1383 0.944 1_655 S
H1399 C1383 0.961 1_655 S
H1400 C1384 0.931 . S
H1401 C1389 0.930 . S
H1402 C1390 0.956 . S
H1403 C1390 0.961 . S
H1404 C1390 0.961 . S
H1405 C1391 0.958 . S
H1406 C1391 0.961 . S
H1407 C1391 0.960 . S
C1408 C1409 1.391 . S
C1408 C1410 1.394 1_545 S
C1408 H1424 0.931 1_545 S
C1409 C1408 1.391 . S
C1409 C1413 1.374 1_455 S
C1410 C1408 1.394 1_565 S
C1410 C1411 1.369 1_565 S
C1410 C1414 1.531 . S
C1411 C1410 1.369 1_545 S
C1411 C1412 1.410 . S
C1411 C1419 1.503 1_544 S
C1412 C1411 1.410 . S
C1412 C1413 1.387 1_455 S
C1412 C1415 1.511 1_454 S
C1413 C1409 1.374 1_655 S
C1413 C1412 1.387 1_655 S
C1413 H1425 0.937 . S
C1414 C1410 1.531 . S
C1414 H1426 0.960 . S
C1414 H1427 0.962 . S
C1414 H1428 0.960 . S
C1415 C1412 1.511 1_656 S
C1415 H1429 0.961 . S
C1415 H1430 0.961 1_655 S
C1415 H1431 0.961 . S
C1416 C1417 1.370 . S
C1416 C1418 1.363 . S
C1416 H1432 0.931 . S
C1417 C1416 1.370 . S
C1417 C1421 1.408 . S
C1418 C1416 1.363 . S
C1418 C1419 1.370 . S
C1418 C1422 1.524 1_565 S
C1419 C1411 1.503 1_566 S
C1419 C1418 1.370 . S
C1419 C1420 1.403 1_455 S
C1420 C1419 1.403 1_655 S
C1420 C1421 1.404 1_655 S
C1420 C1423 1.539 . S
C1421 C1417 1.408 . S
C1421 C1420 1.404 1_455 S
C1421 H1433 0.930 1_455 S
C1422 C1418 1.524 1_545 S
C1422 H1434 0.956 1_556 S
C1422 H1435 0.961 1_556 S
C1422 H1436 0.961 . S
C1423 C1420 1.539 . S
C1423 H1437 0.958 . S
C1423 H1438 0.961 . S
C1423 H1439 0.960 . S
H1424 C1408 0.931 1_565 S
H1425 C1413 0.937 . S
H1426 C1414 0.960 . S
H1427 C1414 0.962 . S
H1428 C1414 0.960 . S
H1429 C1415 0.961 . S
H1430 C1415 0.961 1_455 S
H1431 C1415 0.961 . S
H1432 C1416 0.931 . S
H1433 C1421 0.930 1_655 S
H1434 C1422 0.956 1_554 S
H1435 C1422 0.961 1_554 S
H1436 C1422 0.961 . S
H1437 C1423 0.958 . S
H1438 C1423 0.961 . S
H1439 C1423 0.960 . S
C1440 C1441 1.391 . S
C1440 C1442 1.394 . S
C1440 H1456 0.931 . S
C1441 C1440 1.391 . S
C1441 C1445 1.376 . S
C1442 C1440 1.394 . S
C1442 C1443 1.369 . S
C1442 C1446 1.531 . S
C1443 C1442 1.369 . S
C1443 C1444 1.410 . S
C1443 C1451 1.503 . S
C1444 C1443 1.410 . S
C1444 C1445 1.392 . S
C1444 C1447 1.511 . S
C1445 C1441 1.376 . S
C1445 C1444 1.392 . S
C1445 H1457 0.929 . S
C1446 C1442 1.531 . S
C1446 H1458 0.960 . S
C1446 H1459 0.962 . S
C1446 H1460 0.960 . S
C1447 C1444 1.511 . S
C1447 H1461 0.961 . S
C1447 H1462 0.961 . S
C1447 H1463 0.961 . S
C1448 C1449 1.370 . S
C1448 C1450 1.363 . S
C1448 H1464 0.931 . S
C1449 C1448 1.370 . S
C1449 C1453 1.408 . S
C1450 C1448 1.363 . S
C1450 C1451 1.370 . S
C1450 C1454 1.524 . S
C1451 C1443 1.503 . S
C1451 C1450 1.370 . S
C1451 C1452 1.403 . S
C1452 C1451 1.403 . S
C1452 C1453 1.404 . S
C1452 C1455 1.539 . S
C1453 C1449 1.408 . S
C1453 C1452 1.404 . S
C1453 H1465 0.930 . S
C1454 C1450 1.524 . S
C1454 H1466 0.956 . S
C1454 H1467 0.961 . S
C1454 H1468 0.961 . S
C1455 C1452 1.539 . S
C1455 H1469 0.958 . S
C1455 H1470 0.961 . S
C1455 H1471 0.960 . S
H1456 C1440 0.931 . S
H1457 C1445 0.929 . S
H1458 C1446 0.960 . S
H1459 C1446 0.962 . S
H1460 C1446 0.960 . S
H1461 C1447 0.961 . S
H1462 C1447 0.961 . S
H1463 C1447 0.961 . S
H1464 C1448 0.931 . S
H1465 C1453 0.930 . S
H1466 C1454 0.956 . S
H1467 C1454 0.961 . S
H1468 C1454 0.961 . S
H1469 C1455 0.958 . S
H1470 C1455 0.961 . S
H1471 C1455 0.960 . S
C1472 C1473 1.391 . S
C1472 C1474 1.392 . S
C1472 H1488 0.931 . S
C1473 C1472 1.391 . S
C1473 C1477 1.376 . S
C1474 C1472 1.392 . S
C1474 C1475 1.369 . S
C1474 C1478 1.533 1_545 S
C1475 C1474 1.369 . S
C1475 C1476 1.410 . S
C1475 C1483 1.503 1_545 S
C1476 C1475 1.410 . S
C1476 C1477 1.392 . S
C1476 C1479 1.511 . S
C1477 C1473 1.376 . S
C1477 C1476 1.392 . S
C1477 H1489 0.929 . S
C1478 C1474 1.533 1_565 S
C1478 H1490 0.960 . S
C1478 H1491 0.962 . S
C1478 H1492 0.960 . S
C1479 C1476 1.511 . S
C1479 H1493 0.961 . S
C1479 H1494 0.961 . S
C1479 H1495 0.961 . S
C1480 C1481 1.370 . S
C1480 C1482 1.363 . S
C1480 H1496 0.931 . S
C1481 C1480 1.370 . S
C1481 C1485 1.408 . S
C1482 C1480 1.363 . S
C1482 C1483 1.370 . S
C1482 C1486 1.524 1_565 S
C1483 C1475 1.503 1_565 S
C1483 C1482 1.370 . S
C1483 C1484 1.403 . S
C1484 C1483 1.403 . S
C1484 C1485 1.404 . S
C1484 C1487 1.539 . S
C1485 C1481 1.408 . S
C1485 C1484 1.404 . S
C1485 H1497 0.930 . S
C1486 C1482 1.524 1_545 S
C1486 H1498 0.956 . S
C1486 H1499 0.961 . S
C1486 H1500 0.961 . S
C1487 C1484 1.539 . S
C1487 H1501 0.958 . S
C1487 H1502 0.961 . S
C1487 H1503 0.960 . S
H1488 C1472 0.931 . S
H1489 C1477 0.929 . S
H1490 C1478 0.960 . S
H1491 C1478 0.962 . S
H1492 C1478 0.960 . S
H1493 C1479 0.961 . S
H1494 C1479 0.961 . S
H1495 C1479 0.961 . S
H1496 C1480 0.931 . S
H1497 C1485 0.930 . S
H1498 C1486 0.956 . S
H1499 C1486 0.961 . S
H1500 C1486 0.961 . S
H1501 C1487 0.958 . S
H1502 C1487 0.961 . S
H1503 C1487 0.960 . S
C1504 C1505 1.391 . S
C1504 C1506 1.394 . S
C1504 H1520 0.931 . S
C1505 C1504 1.391 . S
C1505 C1509 1.376 . S
C1506 C1504 1.394 . S
C1506 C1507 1.369 . S
C1506 C1510 1.531 . S
C1507 C1506 1.369 . S
C1507 C1508 1.410 . S
C1507 C1515 1.503 . S
C1508 C1507 1.410 . S
C1508 C1509 1.392 . S
C1508 C1511 1.511 . S
C1509 C1505 1.376 . S
C1509 C1508 1.392 . S
C1509 H1521 0.929 . S
C1510 C1506 1.531 . S
C1510 H1522 0.960 . S
C1510 H1523 0.962 . S
C1510 H1524 0.960 . S
C1511 C1508 1.511 . S
C1511 H1525 0.961 . S
C1511 H1526 0.961 . S
C1511 H1527 0.961 . S
C1512 C1513 1.370 . S
C1512 C1514 1.363 . S
C1512 H1528 0.931 . S
C1513 C1512 1.370 . S
C1513 C1517 1.408 . S
C1514 C1512 1.363 . S
C1514 C1515 1.370 . S
C1514 C1518 1.524 . S
C1515 C1507 1.503 . S
C1515 C1514 1.370 . S
C1515 C1516 1.403 . S
C1516 C1515 1.403 . S
C1516 C1517 1.404 . S
C1516 C1519 1.539 . S
C1517 C1513 1.408 . S
C1517 C1516 1.404 . S
C1517 H1529 0.930 . S
C1518 C1514 1.524 . S
C1518 H1530 0.956 . S
C1518 H1531 0.961 . S
C1518 H1532 0.961 . S
C1519 C1516 1.539 . S
C1519 H1533 0.958 . S
C1519 H1534 0.961 . S
C1519 H1535 0.960 . S
H1520 C1504 0.931 . S
H1521 C1509 0.929 . S
H1522 C1510 0.960 . S
H1523 C1510 0.962 . S
H1524 C1510 0.960 . S
H1525 C1511 0.961 . S
H1526 C1511 0.961 . S
H1527 C1511 0.961 . S
H1528 C1512 0.931 . S
H1529 C1517 0.930 . S
H1530 C1518 0.956 . S
H1531 C1518 0.961 . S
H1532 C1518 0.961 . S
H1533 C1519 0.958 . S
H1534 C1519 0.961 . S
H1535 C1519 0.960 . S
C1536 C1537 1.391 . S
C1536 C1538 1.394 . S
C1536 H1552 0.931 . S
C1537 C1536 1.391 . S
C1537 C1541 1.376 . S
C1538 C1536 1.394 . S
C1538 C1539 1.369 . S
C1538 C1542 1.531 . S
C1539 C1538 1.369 . S
C1539 C1540 1.410 . S
C1539 C1547 1.503 . S
C1540 C1539 1.410 . S
C1540 C1541 1.392 . S
C1540 C1543 1.511 . S
C1541 C1537 1.376 . S
C1541 C1540 1.392 . S
C1541 H1553 0.929 . S
C1542 C1538 1.531 . S
C1542 H1554 0.960 . S
C1542 H1555 0.962 . S
C1542 H1556 0.960 . S
C1543 C1540 1.511 . S
C1543 H1557 0.961 . S
C1543 H1558 0.961 . S
C1543 H1559 0.961 . S
C1544 C1545 1.370 . S
C1544 C1546 1.363 . S
C1544 H1560 0.931 . S
C1545 C1544 1.370 . S
C1545 C1549 1.408 . S
C1546 C1544 1.363 . S
C1546 C1547 1.370 . S
C1546 C1550 1.524 . S
C1547 C1539 1.503 . S
C1547 C1546 1.370 . S
C1547 C1548 1.403 . S
C1548 C1547 1.403 . S
C1548 C1549 1.404 . S
C1548 C1551 1.539 . S
C1549 C1545 1.408 . S
C1549 C1548 1.404 . S
C1549 H1561 0.930 . S
C1550 C1546 1.524 . S
C1550 H1562 0.956 . S
C1550 H1563 0.961 . S
C1550 H1564 0.961 . S
C1551 C1548 1.539 . S
C1551 H1565 0.958 . S
C1551 H1566 0.961 . S
C1551 H1567 0.960 . S
H1552 C1536 0.931 . S
H1553 C1541 0.929 . S
H1554 C1542 0.960 . S
H1555 C1542 0.962 . S
H1556 C1542 0.960 . S
H1557 C1543 0.961 . S
H1558 C1543 0.961 . S
H1559 C1543 0.961 . S
H1560 C1544 0.931 . S
H1561 C1549 0.930 . S
H1562 C1550 0.956 . S
H1563 C1550 0.961 . S
H1564 C1550 0.961 . S
H1565 C1551 0.958 . S
H1566 C1551 0.961 . S
H1567 C1551 0.960 . S
C1568 C1569 1.391 . S
C1568 C1570 1.394 . S
C1568 H1584 0.931 . S
C1569 C1568 1.391 . S
C1569 C1573 1.376 . S
C1570 C1568 1.394 . S
C1570 C1571 1.369 . S
C1570 C1574 1.531 . S
C1571 C1570 1.369 . S
C1571 C1572 1.410 . S
C1571 C1579 1.503 . S
C1572 C1571 1.410 . S
C1572 C1573 1.392 . S
C1572 C1575 1.511 . S
C1573 C1569 1.376 . S
C1573 C1572 1.392 . S
C1573 H1585 0.929 . S
C1574 C1570 1.531 . S
C1574 H1586 0.960 . S
C1574 H1587 0.962 . S
C1574 H1588 0.960 . S
C1575 C1572 1.511 . S
C1575 H1589 0.961 . S
C1575 H1590 0.961 . S
C1575 H1591 0.961 . S
C1576 C1577 1.370 . S
C1576 C1578 1.363 . S
C1576 H1592 0.931 . S
C1577 C1576 1.370 . S
C1577 C1581 1.408 . S
C1578 C1576 1.363 . S
C1578 C1579 1.370 . S
C1578 C1582 1.524 . S
C1579 C1571 1.503 . S
C1579 C1578 1.370 . S
C1579 C1580 1.403 . S
C1580 C1579 1.403 . S
C1580 C1581 1.404 . S
C1580 C1583 1.539 . S
C1581 C1577 1.408 . S
C1581 C1580 1.404 . S
C1581 H1593 0.930 . S
C1582 C1578 1.524 . S
C1582 H1594 0.956 . S
C1582 H1595 0.961 . S
C1582 H1596 0.961 . S
C1583 C1580 1.539 . S
C1583 H1597 0.958 . S
C1583 H1598 0.961 . S
C1583 H1599 0.960 . S
H1584 C1568 0.931 . S
H1585 C1573 0.929 . S
H1586 C1574 0.960 . S
H1587 C1574 0.962 . S
H1588 C1574 0.960 . S
H1589 C1575 0.961 . S
H1590 C1575 0.961 . S
H1591 C1575 0.961 . S
H1592 C1576 0.931 . S
H1593 C1581 0.930 . S
H1594 C1582 0.956 . S
H1595 C1582 0.961 . S
H1596 C1582 0.961 . S
H1597 C1583 0.958 . S
H1598 C1583 0.961 . S
H1599 C1583 0.960 . S
C1600 C1601 1.391 . S
C1600 C1602 1.394 . S
C1600 H1616 0.931 . S
C1601 C1600 1.391 . S
C1601 C1605 1.376 . S
C1602 C1600 1.394 . S
C1602 C1603 1.369 . S
C1602 C1606 1.531 . S
C1603 C1602 1.369 . S
C1603 C1604 1.410 . S
C1603 C1611 1.503 . S
C1604 C1603 1.410 . S
C1604 C1605 1.392 . S
C1604 C1607 1.511 . S
C1605 C1601 1.376 . S
C1605 C1604 1.392 . S
C1605 H1617 0.929 . S
C1606 C1602 1.531 . S
C1606 H1618 0.960 . S
C1606 H1619 0.962 . S
C1606 H1620 0.960 . S
C1607 C1604 1.511 . S
C1607 H1621 0.961 . S
C1607 H1622 0.961 . S
C1607 H1623 0.961 . S
C1608 C1609 1.370 . S
C1608 C1610 1.363 . S
C1608 H1624 0.931 . S
C1609 C1608 1.370 . S
C1609 C1613 1.408 . S
C1610 C1608 1.363 . S
C1610 C1611 1.370 . S
C1610 C1614 1.524 . S
C1611 C1603 1.503 . S
C1611 C1610 1.370 . S
C1611 C1612 1.403 . S
C1612 C1611 1.403 . S
C1612 C1613 1.404 . S
C1612 C1615 1.539 . S
C1613 C1609 1.408 . S
C1613 C1612 1.404 . S
C1613 H1625 0.930 . S
C1614 C1610 1.524 . S
C1614 H1626 0.956 . S
C1614 H1627 0.961 . S
C1614 H1628 0.961 . S
C1615 C1612 1.539 . S
C1615 H1629 0.958 . S
C1615 H1630 0.961 . S
C1615 H1631 0.960 . S
H1616 C1600 0.931 . S
H1617 C1605 0.929 . S
H1618 C1606 0.960 . S
H1619 C1606 0.962 . S
H1620 C1606 0.960 . S
H1621 C1607 0.961 . S
H1622 C1607 0.961 . S
H1623 C1607 0.961 . S
H1624 C1608 0.931 . S
H1625 C1613 0.930 . S
H1626 C1614 0.956 . S
H1627 C1614 0.961 . S
H1628 C1614 0.961 . S
H1629 C1615 0.958 . S
H1630 C1615 0.961 . S
H1631 C1615 0.960 . S
C1632 C1633 1.391 . S
C1632 C1634 1.394 . S
C1632 H1648 0.931 . S
C1633 C1632 1.391 . S
C1633 C1637 1.376 1_455 S
C1634 C1632 1.394 . S
C1634 C1635 1.369 . S
C1634 C1638 1.531 1_556 S
C1635 C1634 1.369 . S
C1635 C1636 1.410 1_455 S
C1635 C1643 1.503 1_556 S
C1636 C1635 1.410 1_655 S
C1636 C1637 1.392 . S
C1636 C1639 1.511 . S
C1637 C1633 1.376 1_655 S
C1637 C1636 1.392 . S
C1637 H1649 0.929 . S
C1638 C1634 1.531 1_554 S
C1638 H1650 0.960 . S
C1638 H1651 0.962 . S
C1638 H1652 0.960 . S
C1639 C1636 1.511 . S
C1639 H1653 0.961 . S
C1639 H1654 0.961 . S
C1639 H1655 0.961 . S
C1640 C1641 1.370 . S
C1640 C1642 1.363 . S
C1640 H1656 0.931 . S
C1641 C1640 1.370 . S
C1641 C1645 1.408 . S
C1642 C1640 1.363 . S
C1642 C1643 1.370 . S
C1642 C1646 1.524 1_554 S
C1643 C1635 1.503 1_554 S
C1643 C1642 1.370 . S
C1643 C1644 1.403 . S
C1644 C1643 1.403 . S
C1644 C1645 1.404 . S
C1644 C1647 1.539 . S
C1645 C1641 1.408 . S
C1645 C1644 1.404 . S
C1645 H1657 0.930 . S
C1646 C1642 1.524 1_556 S
C1646 H1658 0.956 . S
C1646 H1659 0.961 . S
C1646 H1660 0.961 . S
C1647 C1644 1.539 . S
C1647 H1661 0.958 . S
C1647 H1662 0.937 1_455 S
C1647 H1663 0.960 . S
H1648 C1632 0.931 . S
H1649 C1637 0.929 . S
H1650 C1638 0.960 . S
H1651 C1638 0.962 . S
H1652 C1638 0.960 . S
H1653 C1639 0.961 . S
H1654 C1639 0.961 . S
H1655 C1639 0.961 . S
H1656 C1640 0.931 . S
H1657 C1645 0.930 . S
H1658 C1646 0.956 . S
H1659 C1646 0.961 . S
H1660 C1646 0.961 . S
H1661 C1647 0.958 . S
H1662 C1647 0.937 1_655 S
H1663 C1647 0.960 . S
C1664 C1665 1.391 . S
C1664 C1666 1.394 . S
C1664 H1680 0.931 . S
C1665 C1664 1.391 . S
C1665 C1669 1.376 . S
C1666 C1664 1.394 . S
C1666 C1667 1.369 . S
C1666 C1670 1.531 . S
C1667 C1666 1.369 . S
C1667 C1668 1.410 . S
C1667 C1675 1.503 . S
C1668 C1667 1.410 . S
C1668 C1669 1.392 . S
C1668 C1671 1.511 . S
C1669 C1665 1.376 . S
C1669 C1668 1.392 . S
C1669 H1681 0.929 . S
C1670 C1666 1.531 . S
C1670 H1682 0.960 . S
C1670 H1683 0.962 . S
C1670 H1684 0.960 . S
C1671 C1668 1.511 . S
C1671 H1685 0.961 . S
C1671 H1686 0.961 . S
C1671 H1687 0.961 . S
C1672 C1673 1.370 . S
C1672 C1674 1.363 . S
C1672 H1688 0.931 . S
C1673 C1672 1.370 . S
C1673 C1677 1.408 . S
C1674 C1672 1.363 . S
C1674 C1675 1.370 . S
C1674 C1678 1.524 . S
C1675 C1667 1.503 . S
C1675 C1674 1.370 . S
C1675 C1676 1.403 . S
C1676 C1675 1.403 . S
C1676 C1677 1.404 . S
C1676 C1679 1.539 . S
C1677 C1673 1.408 . S
C1677 C1676 1.404 . S
C1677 H1689 0.930 . S
C1678 C1674 1.524 . S
C1678 H1690 0.956 . S
C1678 H1691 0.961 . S
C1678 H1692 0.961 . S
C1679 C1676 1.539 . S
C1679 H1693 0.958 . S
C1679 H1694 0.961 . S
C1679 H1695 0.960 . S
H1680 C1664 0.931 . S
H1681 C1669 0.929 . S
H1682 C1670 0.960 . S
H1683 C1670 0.962 . S
H1684 C1670 0.960 . S
H1685 C1671 0.961 . S
H1686 C1671 0.961 . S
H1687 C1671 0.961 . S
H1688 C1672 0.931 . S
H1689 C1677 0.930 . S
H1690 C1678 0.956 . S
H1691 C1678 0.961 . S
H1692 C1678 0.961 . S
H1693 C1679 0.958 . S
H1694 C1679 0.961 . S
H1695 C1679 0.960 . S
C1696 C1697 1.391 . S
C1696 C1698 1.394 . S
C1696 H1712 0.931 . S
C1697 C1696 1.391 . S
C1697 C1701 1.376 . S
C1698 C1696 1.394 . S
C1698 C1699 1.369 . S
C1698 C1702 1.531 . S
C1699 C1698 1.369 . S
C1699 C1700 1.410 . S
C1699 C1707 1.503 . S
C1700 C1699 1.410 . S
C1700 C1701 1.392 . S
C1700 C1703 1.511 . S
C1701 C1697 1.376 . S
C1701 C1700 1.392 . S
C1701 H1713 0.929 . S
C1702 C1698 1.531 . S
C1702 H1714 0.960 . S
C1702 H1715 0.962 . S
C1702 H1716 0.960 . S
C1703 C1700 1.511 . S
C1703 H1717 0.961 . S
C1703 H1718 0.961 . S
C1703 H1719 0.961 . S
C1704 C1705 1.370 . S
C1704 C1706 1.363 . S
C1704 H1720 0.931 . S
C1705 C1704 1.370 . S
C1705 C1709 1.408 . S
C1706 C1704 1.363 . S
C1706 C1707 1.370 . S
C1706 C1710 1.524 . S
C1707 C1699 1.503 . S
C1707 C1706 1.370 . S
C1707 C1708 1.403 . S
C1708 C1707 1.403 . S
C1708 C1709 1.404 . S
C1708 C1711 1.539 . S
C1709 C1705 1.408 . S
C1709 C1708 1.404 . S
C1709 H1721 0.930 . S
C1710 C1706 1.524 . S
C1710 H1722 0.956 . S
C1710 H1723 0.961 . S
C1710 H1724 0.961 . S
C1711 C1708 1.539 . S
C1711 H1725 0.958 . S
C1711 H1726 0.961 . S
C1711 H1727 0.960 . S
H1712 C1696 0.931 . S
H1713 C1701 0.929 . S
H1714 C1702 0.960 . S
H1715 C1702 0.962 . S
H1716 C1702 0.960 . S
H1717 C1703 0.961 . S
H1718 C1703 0.961 . S
H1719 C1703 0.961 . S
H1720 C1704 0.931 . S
H1721 C1709 0.930 . S
H1722 C1710 0.956 . S
H1723 C1710 0.961 . S
H1724 C1710 0.961 . S
H1725 C1711 0.958 . S
H1726 C1711 0.961 . S
H1727 C1711 0.960 . S
C1728 C1729 1.391 . S
C1728 C1730 1.394 1_554 S
C1728 H1744 0.931 . S
C1729 C1728 1.391 . S
C1729 C1733 1.376 . S
C1730 C1728 1.394 1_556 S
C1730 C1731 1.369 . S
C1730 C1734 1.531 . S
C1731 C1730 1.369 . S
C1731 C1732 1.410 . S
C1731 C1739 1.503 . S
C1732 C1731 1.410 . S
C1732 C1733 1.392 1_556 S
C1732 C1735 1.511 . S
C1733 C1729 1.376 . S
C1733 C1732 1.392 1_554 S
C1733 H1745 0.929 . S
C1734 C1730 1.531 . S
C1734 H1746 0.960 . S
C1734 H1747 0.962 . S
C1734 H1748 0.960 . S
C1735 C1732 1.511 . S
C1735 H1749 0.961 . S
C1735 H1750 0.961 . S
C1735 H1751 0.961 . S
C1736 C1737 1.370 . S
C1736 C1738 1.363 . S
C1736 H1752 0.931 . S
C1737 C1736 1.370 . S
C1737 C1741 1.408 . S
C1738 C1736 1.363 . S
C1738 C1739 1.370 . S
C1738 C1742 1.524 . S
C1739 C1731 1.503 . S
C1739 C1738 1.370 . S
C1739 C1740 1.403 . S
C1740 C1739 1.403 . S
C1740 C1741 1.404 . S
C1740 C1743 1.539 . S
C1741 C1737 1.408 . S
C1741 C1740 1.404 . S
C1741 H1753 0.930 . S
C1742 C1738 1.524 . S
C1742 H1754 0.956 . S
C1742 H1755 0.961 . S
C1742 H1756 0.961 . S
C1743 C1740 1.539 . S
C1743 H1757 0.958 . S
C1743 H1758 0.961 . S
C1743 H1759 0.960 . S
H1744 C1728 0.931 . S
H1745 C1733 0.929 . S
H1746 C1734 0.960 . S
H1747 C1734 0.962 . S
H1748 C1734 0.960 . S
H1749 C1735 0.961 . S
H1750 C1735 0.961 . S
H1751 C1735 0.961 . S
H1752 C1736 0.931 . S
H1753 C1741 0.930 . S
H1754 C1742 0.956 . S
H1755 C1742 0.961 . S
H1756 C1742 0.961 . S
H1757 C1743 0.958 . S
H1758 C1743 0.961 . S
H1759 C1743 0.960 . S
C1760 C1761 1.391 . S
C1760 C1762 1.394 . S
C1760 H1776 0.931 . S
C1761 C1760 1.391 . S
C1761 C1765 1.376 . S
C1762 C1760 1.394 . S
C1762 C1763 1.369 . S
C1762 C1766 1.531 . S
C1763 C1762 1.369 . S
C1763 C1764 1.410 . S
C1763 C1771 1.503 . S
C1764 C1763 1.410 . S
C1764 C1765 1.392 . S
C1764 C1767 1.511 . S
C1765 C1761 1.376 . S
C1765 C1764 1.392 . S
C1765 H1777 0.929 . S
C1766 C1762 1.531 . S
C1766 H1778 0.960 . S
C1766 H1779 0.962 . S
C1766 H1780 0.960 . S
C1767 C1764 1.511 . S
C1767 H1781 0.961 . S
C1767 H1782 0.961 . S
C1767 H1783 0.961 . S
C1768 C1769 1.370 . S
C1768 C1770 1.363 . S
C1768 H1784 0.931 . S
C1769 C1768 1.370 . S
C1769 C1773 1.408 . S
C1770 C1768 1.363 . S
C1770 C1771 1.370 . S
C1770 C1774 1.524 . S
C1771 C1763 1.503 . S
C1771 C1770 1.370 . S
C1771 C1772 1.403 . S
C1772 C1771 1.403 . S
C1772 C1773 1.404 . S
C1772 C1775 1.539 . S
C1773 C1769 1.408 . S
C1773 C1772 1.404 . S
C1773 H1785 0.930 . S
C1774 C1770 1.524 . S
C1774 H1786 0.956 . S
C1774 H1787 0.961 . S
C1774 H1788 0.961 . S
C1775 C1772 1.539 . S
C1775 H1789 0.958 . S
C1775 H1790 0.961 . S
C1775 H1791 0.960 . S
H1776 C1760 0.931 . S
H1777 C1765 0.929 . S
H1778 C1766 0.960 . S
H1779 C1766 0.962 . S
H1780 C1766 0.960 . S
H1781 C1767 0.961 . S
H1782 C1767 0.961 . S
H1783 C1767 0.961 . S
H1784 C1768 0.931 . S
H1785 C1773 0.930 . S
H1786 C1774 0.956 . S
H1787 C1774 0.961 . S
H1788 C1774 0.961 . S
H1789 C1775 0.958 . S
H1790 C1775 0.961 . S
H1791 C1775 0.960 . S
C1792 C1793 1.391 . S
C1792 C1794 1.394 . S
C1792 H1808 0.931 . S
C1793 C1792 1.391 . S
C1793 C1797 1.376 . S
C1794 C1792 1.394 . S
C1794 C1795 1.369 . S
C1794 C1798 1.531 . S
C1795 C1794 1.369 . S
C1795 C1796 1.410 . S
C1795 C1803 1.503 . S
C1796 C1795 1.410 . S
C1796 C1797 1.392 . S
C1796 C1799 1.511 . S
C1797 C1793 1.376 . S
C1797 C1796 1.392 . S
C1797 H1809 0.929 . S
C1798 C1794 1.531 . S
C1798 H1810 0.960 . S
C1798 H1811 0.962 . S
C1798 H1812 0.960 . S
C1799 C1796 1.511 . S
C1799 H1813 0.961 . S
C1799 H1814 0.961 . S
C1799 H1815 0.961 . S
C1800 C1801 1.370 . S
C1800 C1802 1.363 . S
C1800 H1816 0.931 . S
C1801 C1800 1.370 . S
C1801 C1805 1.421 . S
C1802 C1800 1.363 . S
C1802 C1803 1.370 . S
C1802 C1806 1.524 . S
C1803 C1795 1.503 . S
C1803 C1802 1.370 . S
C1803 C1804 1.403 . S
C1804 C1803 1.403 . S
C1804 C1805 1.405 . S
C1804 C1807 1.539 1_655 S
C1805 C1801 1.421 . S
C1805 C1804 1.405 . S
C1805 H1817 0.917 1_655 S
C1806 C1802 1.524 . S
C1806 H1818 0.956 . S
C1806 H1819 0.961 . S
C1806 H1820 0.961 . S
C1807 C1804 1.539 1_455 S
C1807 H1821 0.958 . S
C1807 H1822 0.961 . S
C1807 H1823 0.960 . S
H1808 C1792 0.931 . S
H1809 C1797 0.929 . S
H1810 C1798 0.960 . S
H1811 C1798 0.962 . S
H1812 C1798 0.960 . S
H1813 C1799 0.961 . S
H1814 C1799 0.961 . S
H1815 C1799 0.961 . S
H1816 C1800 0.931 . S
H1817 C1805 0.917 1_455 S
H1818 C1806 0.956 . S
H1819 C1806 0.961 . S
H1820 C1806 0.961 . S
H1821 C1807 0.958 . S
H1822 C1807 0.961 . S
H1823 C1807 0.960 . S
C1824 C1825 1.391 . S
C1824 C1826 1.394 . S
C1824 H1840 0.931 . S
C1825 C1824 1.391 . S
C1825 C1829 1.376 . S
C1826 C1824 1.394 . S
C1826 C1827 1.369 . S
C1826 C1830 1.531 . S
C1827 C1826 1.369 . S
C1827 C1828 1.410 . S
C1827 C1835 1.503 . S
C1828 C1827 1.410 . S
C1828 C1829 1.392 . S
C1828 C1831 1.511 . S
C1829 C1825 1.376 . S
C1829 C1828 1.392 . S
C1829 H1841 0.929 . S
C1830 C1826 1.531 . S
C1830 H1842 0.960 . S
C1830 H1843 0.962 . S
C1830 H1844 0.960 . S
C1831 C1828 1.511 . S
C1831 H1845 0.961 . S
C1831 H1846 0.961 . S
C1831 H1847 0.961 . S
C1832 C1833 1.370 . S
C1832 C1834 1.363 . S
C1832 H1848 0.931 . S
C1833 C1832 1.370 . S
C1833 C1837 1.408 . S
C1834 C1832 1.363 . S
C1834 C1835 1.370 . S
C1834 C1838 1.524 . S
C1835 C1827 1.503 . S
C1835 C1834 1.370 . S
C1835 C1836 1.403 . S
C1836 C1835 1.403 . S
C1836 C1837 1.404 . S
C1836 C1839 1.539 . S
C1837 C1833 1.408 . S
C1837 C1836 1.404 . S
C1837 H1849 0.930 . S
C1838 C1834 1.524 . S
C1838 H1850 0.956 . S
C1838 H1851 0.961 . S
C1838 H1852 0.961 . S
C1839 C1836 1.539 . S
C1839 H1853 0.958 . S
C1839 H1854 0.961 . S
C1839 H1855 0.960 . S
H1840 C1824 0.931 . S
H1841 C1829 0.929 . S
H1842 C1830 0.960 . S
H1843 C1830 0.962 . S
H1844 C1830 0.960 . S
H1845 C1831 0.961 . S
H1846 C1831 0.961 . S
H1847 C1831 0.961 . S
H1848 C1832 0.931 . S
H1849 C1837 0.930 . S
H1850 C1838 0.956 . S
H1851 C1838 0.961 . S
H1852 C1838 0.961 . S
H1853 C1839 0.958 . S
H1854 C1839 0.961 . S
H1855 C1839 0.960 . S
C1856 C1857 1.391 1_554 S
C1856 C1858 1.394 . S
C1856 H1872 0.931 . S
C1857 C1856 1.391 1_556 S
C1857 C1861 1.376 . S
C1858 C1856 1.394 . S
C1858 C1859 1.369 . S
C1858 C1862 1.531 . S
C1859 C1858 1.369 . S
C1859 C1860 1.410 1_554 S
C1859 C1867 1.503 . S
C1860 C1859 1.410 1_556 S
C1860 C1861 1.392 . S
C1860 C1863 1.511 . S
C1861 C1857 1.376 . S
C1861 C1860 1.392 . S
C1861 H1873 0.929 . S
C1862 C1858 1.531 . S
C1862 H1874 0.960 . S
C1862 H1875 0.962 . S
C1862 H1876 0.960 . S
C1863 C1860 1.511 . S
C1863 H1877 0.961 . S
C1863 H1878 0.961 1_556 S
C1863 H1879 0.961 . S
C1864 C1865 1.370 . S
C1864 C1866 1.363 . S
C1864 H1880 0.931 . S
C1865 C1864 1.370 . S
C1865 C1869 1.408 . S
C1866 C1864 1.363 . S
C1866 C1867 1.370 . S
C1866 C1870 1.524 . S
C1867 C1859 1.503 . S
C1867 C1866 1.370 . S
C1867 C1868 1.403 . S
C1868 C1867 1.403 . S
C1868 C1869 1.404 . S
C1868 C1871 1.539 . S
C1869 C1865 1.408 . S
C1869 C1868 1.404 . S
C1869 H1881 0.930 . S
C1870 C1866 1.524 . S
C1870 H1882 0.956 . S
C1870 H1883 0.961 . S
C1870 H1884 0.961 . S
C1871 C1868 1.539 . S
C1871 H1885 0.958 . S
C1871 H1886 0.961 . S
C1871 H1887 0.960 . S
H1872 C1856 0.931 . S
H1873 C1861 0.929 . S
H1874 C1862 0.960 . S
H1875 C1862 0.962 . S
H1876 C1862 0.960 . S
H1877 C1863 0.961 . S
H1878 C1863 0.961 1_554 S
H1879 C1863 0.961 . S
H1880 C1864 0.931 . S
H1881 C1869 0.930 . S
H1882 C1870 0.956 . S
H1883 C1870 0.961 . S
H1884 C1870 0.961 . S
H1885 C1871 0.958 . S
H1886 C1871 0.961 . S
H1887 C1871 0.960 . S
C1888 C1889 1.391 . S
C1888 C1890 1.394 . S
C1888 H1904 0.931 . S
C1889 C1888 1.391 . S
C1889 C1893 1.376 . S
C1890 C1888 1.394 . S
C1890 C1891 1.369 . S
C1890 C1894 1.531 . S
C1891 C1890 1.369 . S
C1891 C1892 1.410 . S
C1891 C1899 1.503 . S
C1892 C1891 1.410 . S
C1892 C1893 1.392 . S
C1892 C1895 1.511 . S
C1893 C1889 1.376 . S
C1893 C1892 1.392 . S
C1893 H1905 0.929 . S
C1894 C1890 1.531 . S
C1894 H1906 0.960 . S
C1894 H1907 0.962 . S
C1894 H1908 0.960 . S
C1895 C1892 1.511 . S
C1895 H1909 0.961 . S
C1895 H1910 0.961 . S
C1895 H1911 0.961 . S
C1896 C1897 1.370 . S
C1896 C1898 1.363 . S
C1896 H1912 0.931 . S
C1897 C1896 1.370 . S
C1897 C1901 1.408 . S
C1898 C1896 1.363 . S
C1898 C1899 1.370 . S
C1898 C1902 1.524 . S
C1899 C1891 1.503 . S
C1899 C1898 1.370 . S
C1899 C1900 1.403 . S
C1900 C1899 1.403 . S
C1900 C1901 1.404 . S
C1900 C1903 1.539 . S
C1901 C1897 1.408 . S
C1901 C1900 1.404 . S
C1901 H1913 0.930 . S
C1902 C1898 1.524 . S
C1902 H1914 0.956 . S
C1902 H1915 0.961 . S
C1902 H1916 0.961 . S
C1903 C1900 1.539 . S
C1903 H1917 0.958 . S
C1903 H1918 0.961 . S
C1903 H1919 0.960 . S
H1904 C1888 0.931 . S
H1905 C1893 0.929 . S
H1906 C1894 0.960 . S
H1907 C1894 0.962 . S
H1908 C1894 0.960 . S
H1909 C1895 0.961 . S
H1910 C1895 0.961 . S
H1911 C1895 0.961 . S
H1912 C1896 0.931 . S
H1913 C1901 0.930 . S
H1914 C1902 0.956 . S
H1915 C1902 0.961 . S
H1916 C1902 0.961 . S
H1917 C1903 0.958 . S
H1918 C1903 0.961 . S
H1919 C1903 0.960 . S
C1920 C1921 1.391 . S
C1920 C1922 1.394 . S
C1920 H1936 0.931 . S
C1921 C1920 1.391 . S
C1921 C1925 1.376 . S
C1922 C1920 1.394 . S
C1922 C1923 1.369 . S
C1922 C1926 1.531 . S
C1923 C1922 1.369 . S
C1923 C1924 1.410 . S
C1923 C1931 1.503 . S
C1924 C1923 1.410 . S
C1924 C1925 1.392 . S
C1924 C1927 1.511 . S
C1925 C1921 1.376 . S
C1925 C1924 1.392 . S
C1925 H1937 0.929 . S
C1926 C1922 1.531 . S
C1926 H1938 0.960 . S
C1926 H1939 0.962 . S
C1926 H1940 0.960 . S
C1927 C1924 1.511 . S
C1927 H1941 0.961 . S
C1927 H1942 0.961 . S
C1927 H1943 0.961 . S
C1928 C1929 1.370 . S
C1928 C1930 1.363 . S
C1928 H1944 0.931 . S
C1929 C1928 1.370 . S
C1929 C1933 1.408 . S
C1930 C1928 1.363 . S
C1930 C1931 1.370 . S
C1930 C1934 1.524 . S
C1931 C1923 1.503 . S
C1931 C1930 1.370 . S
C1931 C1932 1.403 . S
C1932 C1931 1.403 . S
C1932 C1933 1.404 . S
C1932 C1935 1.539 . S
C1933 C1929 1.408 . S
C1933 C1932 1.404 . S
C1933 H1945 0.930 . S
C1934 C1930 1.524 . S
C1934 H1946 0.956 . S
C1934 H1947 0.961 . S
C1934 H1948 0.961 . S
C1935 C1932 1.539 . S
C1935 H1949 0.958 . S
C1935 H1950 0.961 . S
C1935 H1951 0.960 . S
H1936 C1920 0.931 . S
H1937 C1925 0.929 . S
H1938 C1926 0.960 . S
H1939 C1926 0.962 . S
H1940 C1926 0.960 . S
H1941 C1927 0.961 . S
H1942 C1927 0.961 . S
H1943 C1927 0.961 . S
H1944 C1928 0.931 . S
H1945 C1933 0.930 . S
H1946 C1934 0.956 . S
H1947 C1934 0.961 . S
H1948 C1934 0.961 . S
H1949 C1935 0.958 . S
H1950 C1935 0.961 . S
H1951 C1935 0.960 . S
C1952 C1953 1.391 . S
C1952 C1954 1.394 . S
C1952 H1968 0.931 . S
C1953 C1952 1.391 . S
C1953 C1957 1.376 . S
C1954 C1952 1.394 . S
C1954 C1955 1.369 . S
C1954 C1958 1.531 . S
C1955 C1954 1.369 . S
C1955 C1956 1.410 . S
C1955 C1963 1.503 . S
C1956 C1955 1.410 . S
C1956 C1957 1.392 . S
C1956 C1959 1.511 . S
C1957 C1953 1.376 . S
C1957 C1956 1.392 . S
C1957 H1969 0.929 . S
C1958 C1954 1.531 . S
C1958 H1970 0.960 . S
C1958 H1971 0.962 . S
C1958 H1972 0.960 . S
C1959 C1956 1.511 . S
C1959 H1973 0.961 . S
C1959 H1974 0.961 . S
C1959 H1975 0.961 . S
C1960 C1961 1.370 . S
C1960 C1962 1.363 . S
C1960 H1976 0.931 . S
C1961 C1960 1.370 . S
C1961 C1965 1.408 . S
C1962 C1960 1.363 . S
C1962 C1963 1.370 . S
C1962 C1966 1.524 . S
C1963 C1955 1.503 . S
C1963 C1962 1.370 . S
C1963 C1964 1.403 . S
C1964 C1963 1.403 . S
C1964 C1965 1.404 . S
C1964 C1967 1.539 . S
C1965 C1961 1.408 . S
C1965 C1964 1.404 . S
C1965 H1977 0.930 . S
C1966 C1962 1.524 . S
C1966 H1978 0.956 . S
C1966 H1979 0.961 . S
C1966 H1980 0.961 . S
C1967 C1964 1.539 . S
C1967 H1981 0.958 . S
C1967 H1982 0.961 . S
C1967 H1983 0.960 . S
H1968 C1952 0.931 . S
H1969 C1957 0.929 . S
H1970 C1958 0.960 . S
H1971 C1958 0.962 . S
H1972 C1958 0.960 . S
H1973 C1959 0.961 . S
H1974 C1959 0.961 . S
H1975 C1959 0.961 . S
H1976 C1960 0.931 . S
H1977 C1965 0.930 . S
H1978 C1966 0.956 . S
H1979 C1966 0.961 . S
H1980 C1966 0.961 . S
H1981 C1967 0.958 . S
H1982 C1967 0.961 . S
H1983 C1967 0.960 . S
C1984 C1985 1.391 . S
C1984 C1986 1.394 . S
C1984 H2000 0.931 . S
C1985 C1984 1.391 . S
C1985 C1989 1.376 . S
C1986 C1984 1.394 . S
C1986 C1987 1.369 . S
C1986 C1990 1.531 . S
C1987 C1986 1.369 . S
C1987 C1988 1.410 . S
C1987 C1995 1.503 . S
C1988 C1987 1.410 . S
C1988 C1989 1.392 . S
C1988 C1991 1.511 . S
C1989 C1985 1.376 . S
C1989 C1988 1.392 . S
C1989 H2001 0.929 . S
C1990 C1986 1.531 . S
C1990 H2002 0.960 . S
C1990 H2003 0.962 . S
C1990 H2004 0.960 . S
C1991 C1988 1.511 . S
C1991 H2005 0.961 . S
C1991 H2006 0.961 . S
C1991 H2007 0.961 . S
C1992 C1993 1.370 . S
C1992 C1994 1.363 . S
C1992 H2008 0.931 . S
C1993 C1992 1.370 . S
C1993 C1997 1.408 . S
C1994 C1992 1.363 . S
C1994 C1995 1.370 . S
C1994 C1998 1.524 . S
C1995 C1987 1.503 . S
C1995 C1994 1.370 . S
C1995 C1996 1.403 . S
C1996 C1995 1.403 . S
C1996 C1997 1.404 . S
C1996 C1999 1.539 . S
C1997 C1993 1.408 . S
C1997 C1996 1.404 . S
C1997 H2009 0.930 . S
C1998 C1994 1.524 . S
C1998 H2010 0.956 . S
C1998 H2011 0.961 . S
C1998 H2012 0.961 . S
C1999 C1996 1.539 . S
C1999 H2013 0.958 . S
C1999 H2014 0.961 . S
C1999 H2015 0.960 . S
H2000 C1984 0.931 . S
H2001 C1989 0.929 . S
H2002 C1990 0.960 . S
H2003 C1990 0.962 . S
H2004 C1990 0.960 . S
H2005 C1991 0.961 . S
H2006 C1991 0.961 . S
H2007 C1991 0.961 . S
H2008 C1992 0.931 . S
H2009 C1997 0.930 . S
H2010 C1998 0.956 . S
H2011 C1998 0.961 . S
H2012 C1998 0.961 . S
H2013 C1999 0.958 . S
H2014 C1999 0.961 . S
H2015 C1999 0.960 . S
C2016 C2017 1.391 . S
C2016 C2018 1.394 . S
C2016 H2032 0.931 1_655 S
C2017 C2016 1.391 . S
C2017 C2021 1.376 . S
C2018 C2016 1.394 . S
C2018 C2019 1.369 . S
C2018 C2022 1.531 . S
C2019 C2018 1.369 . S
C2019 C2020 1.410 . S
C2019 C2027 1.503 . S
C2020 C2019 1.410 . S
C2020 C2021 1.392 . S
C2020 C2023 1.511 . S
C2021 C2017 1.376 . S
C2021 C2020 1.392 . S
C2021 H2033 0.929 . S
C2022 C2018 1.531 . S
C2022 H2034 0.960 . S
C2022 H2035 0.962 . S
C2022 H2036 0.960 . S
C2023 C2020 1.511 . S
C2023 H2037 0.961 . S
C2023 H2038 0.961 . S
C2023 H2039 0.961 . S
C2024 C2025 1.370 . S
C2024 C2026 1.363 . S
C2024 H2040 0.931 . S
C2025 C2024 1.370 . S
C2025 C2029 1.408 . S
C2026 C2024 1.363 . S
C2026 C2027 1.370 . S
C2026 C2030 1.524 . S
C2027 C2019 1.503 . S
C2027 C2026 1.370 . S
C2027 C2028 1.403 . S
C2028 C2027 1.403 . S
C2028 C2029 1.404 . S
C2028 C2031 1.539 . S
C2029 C2025 1.408 . S
C2029 C2028 1.404 . S
C2029 H2041 0.930 . S
C2030 C2026 1.524 . S
C2030 H2042 0.956 . S
C2030 H2043 0.961 . S
C2030 H2044 0.961 . S
C2031 C2028 1.539 . S
C2031 H2045 0.958 . S
C2031 H2046 0.961 . S
C2031 H2047 0.960 . S
H2032 C2016 0.931 1_455 S
H2033 C2021 0.929 . S
H2034 C2022 0.960 . S
H2035 C2022 0.962 . S
H2036 C2022 0.960 . S
H2037 C2023 0.961 . S
H2038 C2023 0.961 . S
H2039 C2023 0.961 . S
H2040 C2024 0.931 . S
H2041 C2029 0.930 . S
H2042 C2030 0.956 . S
H2043 C2030 0.961 . S
H2044 C2030 0.961 . S
H2045 C2031 0.958 . S
H2046 C2031 0.961 . S
H2047 C2031 0.960 . S
C2048 C2049 1.391 . S
C2048 C2050 1.394 . S
C2048 H2064 0.931 . S
C2049 C2048 1.391 . S
C2049 C2053 1.376 . S
C2050 C2048 1.394 . S
C2050 C2051 1.369 . S
C2050 C2054 1.531 . S
C2051 C2050 1.369 . S
C2051 C2052 1.410 . S
C2051 C2059 1.503 . S
C2052 C2051 1.410 . S
C2052 C2053 1.392 . S
C2052 C2055 1.511 . S
C2053 C2049 1.376 . S
C2053 C2052 1.392 . S
C2053 H2065 0.929 . S
C2054 C2050 1.531 . S
C2054 H2066 0.960 . S
C2054 H2067 0.962 . S
C2054 H2068 0.960 . S
C2055 C2052 1.511 . S
C2055 H2069 0.961 . S
C2055 H2070 0.961 . S
C2055 H2071 0.961 . S
C2056 C2057 1.370 . S
C2056 C2058 1.363 . S
C2056 H2072 0.931 . S
C2057 C2056 1.370 . S
C2057 C2061 1.408 . S
C2058 C2056 1.363 . S
C2058 C2059 1.370 . S
C2058 C2062 1.524 . S
C2059 C2051 1.503 . S
C2059 C2058 1.370 . S
C2059 C2060 1.403 . S
C2060 C2059 1.403 . S
C2060 C2061 1.404 . S
C2060 C2063 1.539 . S
C2061 C2057 1.408 . S
C2061 C2060 1.404 . S
C2061 H2073 0.930 . S
C2062 C2058 1.524 . S
C2062 H2074 0.956 . S
C2062 H2075 0.961 . S
C2062 H2076 0.961 . S
C2063 C2060 1.539 . S
C2063 H2077 0.958 . S
C2063 H2078 0.961 . S
C2063 H2079 0.960 . S
H2064 C2048 0.931 . S
H2065 C2053 0.929 . S
H2066 C2054 0.960 . S
H2067 C2054 0.962 . S
H2068 C2054 0.960 . S
H2069 C2055 0.961 . S
H2070 C2055 0.961 . S
H2071 C2055 0.961 . S
H2072 C2056 0.931 . S
H2073 C2061 0.930 . S
H2074 C2062 0.956 . S
H2075 C2062 0.961 . S
H2076 C2062 0.961 . S
H2077 C2063 0.958 . S
H2078 C2063 0.961 . S
H2079 C2063 0.960 . S
C2080 C2081 1.391 . S
C2080 C2082 1.394 . S
C2080 H2096 0.931 . S
C2081 C2080 1.391 . S
C2081 C2085 1.376 . S
C2082 C2080 1.394 . S
C2082 C2083 1.369 . S
C2082 C2086 1.531 . S
C2083 C2082 1.369 . S
C2083 C2084 1.410 . S
C2083 C2091 1.503 . S
C2084 C2083 1.410 . S
C2084 C2085 1.392 . S
C2084 C2087 1.511 . S
C2085 C2081 1.376 . S
C2085 C2084 1.392 . S
C2085 H2097 0.929 . S
C2086 C2082 1.531 . S
C2086 H2098 0.960 . S
C2086 H2099 0.962 . S
C2086 H2100 0.960 . S
C2087 C2084 1.511 . S
C2087 H2101 0.961 . S
C2087 H2102 0.961 . S
C2087 H2103 0.961 . S
C2088 C2089 1.370 . S
C2088 C2090 1.363 . S
C2088 H2104 0.931 . S
C2089 C2088 1.370 . S
C2089 C2093 1.408 . S
C2090 C2088 1.363 . S
C2090 C2091 1.370 . S
C2090 C2094 1.524 . S
C2091 C2083 1.503 . S
C2091 C2090 1.370 . S
C2091 C2092 1.403 . S
C2092 C2091 1.403 . S
C2092 C2093 1.404 . S
C2092 C2095 1.539 . S
C2093 C2089 1.408 . S
C2093 C2092 1.404 . S
C2093 H2105 0.930 . S
C2094 C2090 1.524 . S
C2094 H2106 0.956 . S
C2094 H2107 0.961 . S
C2094 H2108 0.961 . S
C2095 C2092 1.539 . S
C2095 H2109 0.958 . S
C2095 H2110 0.961 . S
C2095 H2111 0.960 . S
H2096 C2080 0.931 . S
H2097 C2085 0.929 . S
H2098 C2086 0.960 . S
H2099 C2086 0.962 . S
H2100 C2086 0.960 . S
H2101 C2087 0.961 . S
H2102 C2087 0.961 . S
H2103 C2087 0.961 . S
H2104 C2088 0.931 . S
H2105 C2093 0.930 . S
H2106 C2094 0.956 . S
H2107 C2094 0.961 . S
H2108 C2094 0.961 . S
H2109 C2095 0.958 . S
H2110 C2095 0.961 . S
H2111 C2095 0.960 . S
C2112 C2113 1.391 . S
C2112 C2114 1.394 . S
C2112 H2128 0.931 . S
C2113 C2112 1.391 . S
C2113 C2117 1.376 . S
C2114 C2112 1.394 . S
C2114 C2115 1.369 . S
C2114 C2118 1.531 . S
C2115 C2114 1.369 . S
C2115 C2116 1.410 . S
C2115 C2123 1.503 . S
C2116 C2115 1.410 . S
C2116 C2117 1.392 . S
C2116 C2119 1.511 . S
C2117 C2113 1.376 . S
C2117 C2116 1.392 . S
C2117 H2129 0.929 . S
C2118 C2114 1.531 . S
C2118 H2130 0.960 . S
C2118 H2131 0.962 . S
C2118 H2132 0.960 . S
C2119 C2116 1.511 . S
C2119 H2133 0.961 . S
C2119 H2134 0.961 . S
C2119 H2135 0.961 . S
C2120 C2121 1.370 . S
C2120 C2122 1.363 . S
C2120 H2136 0.931 . S
C2121 C2120 1.370 . S
C2121 C2125 1.408 . S
C2122 C2120 1.363 . S
C2122 C2123 1.370 . S
C2122 C2126 1.524 . S
C2123 C2115 1.503 . S
C2123 C2122 1.370 . S
C2123 C2124 1.403 . S
C2124 C2123 1.403 . S
C2124 C2125 1.404 . S
C2124 C2127 1.539 . S
C2125 C2121 1.408 . S
C2125 C2124 1.404 . S
C2125 H2137 0.930 . S
C2126 C2122 1.524 . S
C2126 H2138 0.956 . S
C2126 H2139 0.961 . S
C2126 H2140 0.961 . S
C2127 C2124 1.539 . S
C2127 H2141 0.958 . S
C2127 H2142 0.961 . S
C2127 H2143 0.960 . S
H2128 C2112 0.931 . S
H2129 C2117 0.929 . S
H2130 C2118 0.960 . S
H2131 C2118 0.962 . S
H2132 C2118 0.960 . S
H2133 C2119 0.961 . S
H2134 C2119 0.961 . S
H2135 C2119 0.961 . S
H2136 C2120 0.931 . S
H2137 C2125 0.930 . S
H2138 C2126 0.956 . S
H2139 C2126 0.961 . S
H2140 C2126 0.961 . S
H2141 C2127 0.958 . S
H2142 C2127 0.961 . S
H2143 C2127 0.960 . S
C2144 C2145 1.391 . S
C2144 C2146 1.394 . S
C2144 H2160 0.931 . S
C2145 C2144 1.391 . S
C2145 C2149 1.376 . S
C2146 C2144 1.394 . S
C2146 C2147 1.369 . S
C2146 C2150 1.531 . S
C2147 C2146 1.369 . S
C2147 C2148 1.410 . S
C2147 C2155 1.503 . S
C2148 C2147 1.410 . S
C2148 C2149 1.392 . S
C2148 C2151 1.511 . S
C2149 C2145 1.376 . S
C2149 C2148 1.392 . S
C2149 H2161 0.929 . S
C2150 C2146 1.531 . S
C2150 H2162 0.960 . S
C2150 H2163 0.962 . S
C2150 H2164 0.960 . S
C2151 C2148 1.511 . S
C2151 H2165 0.961 . S
C2151 H2166 0.961 . S
C2151 H2167 0.961 . S
C2152 C2153 1.370 . S
C2152 C2154 1.363 . S
C2152 H2168 0.931 . S
C2153 C2152 1.370 . S
C2153 C2157 1.408 . S
C2154 C2152 1.363 . S
C2154 C2155 1.370 . S
C2154 C2158 1.524 . S
C2155 C2147 1.503 . S
C2155 C2154 1.370 . S
C2155 C2156 1.403 . S
C2156 C2155 1.403 . S
C2156 C2157 1.404 . S
C2156 C2159 1.539 . S
C2157 C2153 1.408 . S
C2157 C2156 1.404 . S
C2157 H2169 0.930 . S
C2158 C2154 1.524 . S
C2158 H2170 0.956 . S
C2158 H2171 0.961 . S
C2158 H2172 0.961 . S
C2159 C2156 1.539 . S
C2159 H2173 0.958 . S
C2159 H2174 0.961 . S
C2159 H2175 0.960 . S
H2160 C2144 0.931 . S
H2161 C2149 0.929 . S
H2162 C2150 0.960 . S
H2163 C2150 0.962 . S
H2164 C2150 0.960 . S
H2165 C2151 0.961 . S
H2166 C2151 0.961 . S
H2167 C2151 0.961 . S
H2168 C2152 0.931 . S
H2169 C2157 0.930 . S
H2170 C2158 0.956 . S
H2171 C2158 0.961 . S
H2172 C2158 0.961 . S
H2173 C2159 0.958 . S
H2174 C2159 0.961 . S
H2175 C2159 0.960 . S
C641 C6 0.899 . S
C649 C286 0.947 . S
C673 C59 2.766 . S
C681 C179 2.723 1_554 S
C705 C206 0.574 . S
C713 C99 0.484 . S
C737 C139 1.939 . S
C745 C246 1.990 . S
C769 C455 0.972 . S
C777 C175 0.867 . S
C801 C330 2.769 . S
C809 C10 2.706 1_556 S
C833 C415 0.574 . S
C841 C250 0.493 . S
C865 C95 1.964 . S
C873 C370 1.948 . S
C897 C366 0.923 . S
C905 C486 0.861 . S
C929 C419 2.771 . S
C937 C579 2.722 . S
C961 C539 0.564 . S
C969 C326 0.468 . S
C993 C459 1.949 . S
C1001 C606 1.978 . S
C1025 C575 0.835 . S
C1033 C135 0.963 . S
C1057 C490 2.693 . S
C1065 C210 2.770 . S
C1089 C55 0.492 . S
C1097 C610 0.445 . S
C1121 C290 1.962 . S
C1129 C535 1.982 . S
C1153 C538 0.549 . S
C1161 C9 0.552 . S
C1185 C458 0.818 . S
C1193 C58 0.680 . S
C1217 C489 0.491 . S
C1225 C98 0.438 . S
C1249 C418 0.753 . S
C1257 C138 0.696 . S
C1281 C178 0.407 . S
C1289 C609 0.401 . S
C1313 C369 0.722 . S
C1321 C209 0.673 . S
C1345 C249 0.493 . S
C1353 C578 0.506 . S
C1377 C289 0.829 . S
C1385 C329 0.680 . S
C1409 C18 1.489 1_455 S
C1417 C169 1.509 . S
C1441 C49 1.259 . S
C1449 C218 1.216 . S
C1473 C258 1.580 . S
C1481 C89 1.573 . S
C1505 C129 1.941 . S
C1513 C298 1.944 . S
C1537 C409 1.227 . S
C1545 C338 1.234 . S
C1569 C449 1.961 . S
C1577 C378 1.937 . S
C1601 C498 1.517 . S
C1609 C569 1.497 . S
C1633 C618 1.549 . S
C1641 C529 1.582 . S
C1665 C19 3.683 . S
C1673 C299 3.703 . S
C1697 C46 0.623 . S
C1705 C166 0.655 . S
C1729 C219 2.942 . S
C1737 C86 2.875 . S
C1761 C259 1.005 . S
C1769 C126 0.949 . S
C1793 C450 3.694 . S
C1801 C170 3.694 1_655 S
C1825 C335 0.592 . S
C1833 C15 0.599 . S
C1857 C410 2.939 . S
C1865 C255 2.874 . S
C1889 C90 0.974 . S
C1897 C375 0.992 . S
C1921 C499 3.688 . S
C1929 C379 3.701 1_556 S
C1953 C566 0.550 . S
C1961 C406 0.608 . S
C1985 C526 2.881 . S
C1993 C339 2.946 . S
C2017 C619 0.995 . S
C2025 C446 0.987 . S
C2049 C570 3.692 . S
C2057 C130 3.701 1_554 S
C2081 C215 0.598 . S
C2089 C495 0.596 . S
C2113 C50 2.940 . S
C2121 C615 2.884 . S
C2145 C530 0.989 . S
C2153 C295 0.970 . S
