# Generated by pormake.
# Topology whr, (6)-cn, num edge types: 1
# Building blocks:
#     Node 0, Type 0, BuildingBlock: VOLQOD_clean_sbu_1, # of connection points: 6
#     Node 1, Type 0, BuildingBlock: VOLQOD_clean_sbu_1, # of connection points: 6
#     Node 2, Type 0, BuildingBlock: VOLQOD_clean_sbu_1, # of connection points: 6
#     Node 3, Type 0, BuildingBlock: VOLQOD_clean_sbu_1, # of connection points: 6
#     Node 4, Type 0, BuildingBlock: VOLQOD_clean_sbu_1, # of connection points: 6
#     Node 5, Type 0, BuildingBlock: VOLQOD_clean_sbu_1, # of connection points: 6
#     Node 6, Type 0, BuildingBlock: VOLQOD_clean_sbu_1, # of connection points: 6
#     Node 7, Type 0, BuildingBlock: VOLQOD_clean_sbu_1, # of connection points: 6
#     Node 8, Type 0, BuildingBlock: VOLQOD_clean_sbu_1, # of connection points: 6
#     Node 9, Type 0, BuildingBlock: VOLQOD_clean_sbu_1, # of connection points: 6
#     Node 10, Type 0, BuildingBlock: VOLQOD_clean_sbu_1, # of connection points: 6
#     Node 11, Type 0, BuildingBlock: VOLQOD_clean_sbu_1, # of connection points: 6
#     Node 12, Type 0, BuildingBlock: VOLQOD_clean_sbu_1, # of connection points: 6
#     Node 13, Type 0, BuildingBlock: VOLQOD_clean_sbu_1, # of connection points: 6
#     Node 14, Type 0, BuildingBlock: VOLQOD_clean_sbu_1, # of connection points: 6
#     Node 15, Type 0, BuildingBlock: VOLQOD_clean_sbu_1, # of connection points: 6
#     Edge 16, Type (0, 0), BuildingBlock: XIVTED_clean_linker_0, # of connection points: 2
#     Edge 17, Type (0, 0), BuildingBlock: XIVTED_clean_linker_0, # of connection points: 2
#     Edge 18, Type (0, 0), BuildingBlock: XIVTED_clean_linker_0, # of connection points: 2
#     Edge 19, Type (0, 0), BuildingBlock: XIVTED_clean_linker_0, # of connection points: 2
#     Edge 20, Type (0, 0), BuildingBlock: XIVTED_clean_linker_0, # of connection points: 2
#     Edge 21, Type (0, 0), BuildingBlock: XIVTED_clean_linker_0, # of connection points: 2
#     Edge 22, Type (0, 0), BuildingBlock: XIVTED_clean_linker_0, # of connection points: 2
#     Edge 23, Type (0, 0), BuildingBlock: XIVTED_clean_linker_0, # of connection points: 2
#     Edge 24, Type (0, 0), BuildingBlock: XIVTED_clean_linker_0, # of connection points: 2
#     Edge 25, Type (0, 0), BuildingBlock: XIVTED_clean_linker_0, # of connection points: 2
#     Edge 26, Type (0, 0), BuildingBlock: XIVTED_clean_linker_0, # of connection points: 2
#     Edge 27, Type (0, 0), BuildingBlock: XIVTED_clean_linker_0, # of connection points: 2
#     Edge 28, Type (0, 0), BuildingBlock: XIVTED_clean_linker_0, # of connection points: 2
#     Edge 29, Type (0, 0), BuildingBlock: XIVTED_clean_linker_0, # of connection points: 2
#     Edge 30, Type (0, 0), BuildingBlock: XIVTED_clean_linker_0, # of connection points: 2
#     Edge 31, Type (0, 0), BuildingBlock: XIVTED_clean_linker_0, # of connection points: 2
#     Edge 32, Type (0, 0), BuildingBlock: XIVTED_clean_linker_0, # of connection points: 2
#     Edge 33, Type (0, 0), BuildingBlock: XIVTED_clean_linker_0, # of connection points: 2
#     Edge 34, Type (0, 0), BuildingBlock: XIVTED_clean_linker_0, # of connection points: 2
#     Edge 35, Type (0, 0), BuildingBlock: XIVTED_clean_linker_0, # of connection points: 2
#     Edge 36, Type (0, 0), BuildingBlock: XIVTED_clean_linker_0, # of connection points: 2
#     Edge 37, Type (0, 0), BuildingBlock: XIVTED_clean_linker_0, # of connection points: 2
#     Edge 38, Type (0, 0), BuildingBlock: XIVTED_clean_linker_0, # of connection points: 2
#     Edge 39, Type (0, 0), BuildingBlock: XIVTED_clean_linker_0, # of connection points: 2
#     Edge 40, Type (0, 0), BuildingBlock: XIVTED_clean_linker_0, # of connection points: 2
#     Edge 41, Type (0, 0), BuildingBlock: XIVTED_clean_linker_0, # of connection points: 2
#     Edge 42, Type (0, 0), BuildingBlock: XIVTED_clean_linker_0, # of connection points: 2
#     Edge 43, Type (0, 0), BuildingBlock: XIVTED_clean_linker_0, # of connection points: 2
#     Edge 44, Type (0, 0), BuildingBlock: XIVTED_clean_linker_0, # of connection points: 2
#     Edge 45, Type (0, 0), BuildingBlock: XIVTED_clean_linker_0, # of connection points: 2
#     Edge 46, Type (0, 0), BuildingBlock: XIVTED_clean_linker_0, # of connection points: 2
#     Edge 47, Type (0, 0), BuildingBlock: XIVTED_clean_linker_0, # of connection points: 2
#     Edge 48, Type (0, 0), BuildingBlock: XIVTED_clean_linker_0, # of connection points: 2
#     Edge 49, Type (0, 0), BuildingBlock: XIVTED_clean_linker_0, # of connection points: 2
#     Edge 50, Type (0, 0), BuildingBlock: XIVTED_clean_linker_0, # of connection points: 2
#     Edge 51, Type (0, 0), BuildingBlock: XIVTED_clean_linker_0, # of connection points: 2
#     Edge 52, Type (0, 0), BuildingBlock: XIVTED_clean_linker_0, # of connection points: 2
#     Edge 53, Type (0, 0), BuildingBlock: XIVTED_clean_linker_0, # of connection points: 2
#     Edge 54, Type (0, 0), BuildingBlock: XIVTED_clean_linker_0, # of connection points: 2
#     Edge 55, Type (0, 0), BuildingBlock: XIVTED_clean_linker_0, # of connection points: 2
#     Edge 56, Type (0, 0), BuildingBlock: XIVTED_clean_linker_0, # of connection points: 2
#     Edge 57, Type (0, 0), BuildingBlock: XIVTED_clean_linker_0, # of connection points: 2
#     Edge 58, Type (0, 0), BuildingBlock: XIVTED_clean_linker_0, # of connection points: 2
#     Edge 59, Type (0, 0), BuildingBlock: XIVTED_clean_linker_0, # of connection points: 2
#     Edge 60, Type (0, 0), BuildingBlock: XIVTED_clean_linker_0, # of connection points: 2
#     Edge 61, Type (0, 0), BuildingBlock: XIVTED_clean_linker_0, # of connection points: 2
#     Edge 62, Type (0, 0), BuildingBlock: XIVTED_clean_linker_0, # of connection points: 2
#     Edge 63, Type (0, 0), BuildingBlock: XIVTED_clean_linker_0, # of connection points: 2
# Relax obj value: 0.383
# Max RMSD: 0.249
# Mean RMSD: 0.247
data_MOF--net-whr--node1-VOLQOD_clean_sbu_1--edge1-XIVTED_clean_linker_0
_symmetry_space_group_name_H-M    P1
_symmetry_Int_Tables_number       1
_symmetry_cell_setting            triclinic
loop_
_symmetry_equiv_pos_as_xyz
'x, y, z'
_cell_length_a     51.891563
_cell_length_b     51.805807
_cell_length_c     29.267806
_cell_angle_alpha  90.073059
_cell_angle_beta   90.012541
_cell_angle_gamma 90.16995
loop_
_atom_site_label
_atom_site_type_symbol
_atom_site_fract_x
_atom_site_fract_y
_atom_site_fract_z
_atom_type_partial_charge
O0 O 0.17507 0.04834 0.14019 0.0
Zn1 Zn 0.18241 0.03479 0.07764 0.0
O2 O 0.21702 0.04232 0.05708 0.0
Zn3 Zn 0.23605 0.01027 0.04864 0.0
Zn4 Zn 0.23261 0.06352 0.10357 0.0
Zn5 Zn 0.21614 0.06213 0.00134 0.0
O6 O 0.25454 0.01057 0.98641 0.0
O7 O 0.23381 0.04278 0.95195 0.0
O8 O 0.17454 -0.00292 0.07463 0.0
O9 O 0.2108 0.98025 0.04726 0.0
O10 O 0.25921 0.00452 0.10473 0.0
O11 O 0.2554 0.04188 0.14174 0.0
O12 O 0.25227 0.09327 0.07804 0.0
O13 O 0.15724 0.05415 0.03916 0.0
O14 O 0.23664 0.09467 0.00763 0.0
O15 O 0.1801 0.07253 0.98384 0.0
C16 C 0.18438 0.06861 0.15838 0.0
C17 C 0.24977 0.02416 0.95089 0.0
C18 C 0.26424 0.01905 0.13903 0.0
C19 C 0.18747 0.97786 0.0604 0.0
C20 C 0.25062 0.10409 0.03921 0.0
C21 C 0.1587 0.06832 0.00379 0.0
O22 O 0.20557 0.07823 0.14459 0.0
O23 O 0.04988 0.81131 0.8637 0.0
Zn24 Zn 0.03734 0.80742 0.92757 0.0
O25 O 0.03901 0.77245 0.94818 0.0
Zn26 Zn 0.00449 0.75789 0.95382 0.0
Zn27 Zn 0.05873 0.75456 0.90276 0.0
Zn28 Zn 0.05777 0.77115 0.00497 0.0
O29 O 0.00141 0.73981 0.01618 0.0
O30 O 0.03482 0.75727 0.05322 0.0
O31 O 0.00182 0.82122 0.93279 0.0
O32 O 0.97814 0.78699 0.95149 0.0
O33 O -0.00285 0.73461 0.89837 0.0
O34 O 0.035 0.73509 0.86266 0.0
O35 O 0.08293 0.72961 0.93084 0.0
O36 O 0.06146 0.82943 0.96375 0.0
O37 O 0.08573 0.74478 0.00157 0.0
O38 O 0.07424 0.80531 0.02213 0.0
C39 C 0.07012 0.80089 0.84771 0.0
C40 C 0.0146 0.74325 0.05272 0.0
C41 C 0.01149 0.72822 0.86465 0.0
C42 C 0.98017 0.81101 0.94239 0.0
C43 C 0.09253 0.7289 0.97073 0.0
C44 C 0.07453 0.82649 0.0001 0.0
O45 O 0.07846 0.77966 0.86374 0.0
O46 O 0.81416 0.93436 0.12436 0.0
Zn47 Zn 0.80437 0.95128 0.06582 0.0
O48 O 0.76866 0.94483 0.05006 0.0
Zn49 Zn 0.75079 0.97775 0.04173 0.0
Zn50 Zn 0.75296 0.92477 0.09852 0.0
Zn51 Zn 0.76722 0.92429 0.99514 0.0
O52 O 0.73172 0.97831 0.98025 0.0
O53 O 0.74847 0.94346 0.94704 0.0
O54 O 0.81221 0.98885 0.06949 0.0
O55 O 0.77685 0.00714 0.04145 0.0
O56 O 0.72757 0.98431 0.09705 0.0
O57 O 0.73039 0.94743 0.13562 0.0
O58 O 0.73242 0.89486 0.07518 0.0
O59 O 0.82817 0.93504 0.02008 0.0
O60 O 0.74652 0.89236 0.00391 0.0
O61 O 0.80222 0.91321 0.97372 0.0
C62 C 0.80312 0.91699 0.14798 0.0
C63 C 0.73417 0.96336 0.94572 0.0
C64 C 0.72193 0.97033 0.13163 0.0
C65 C 0.7999 0.00868 0.05636 0.0
C66 C 0.73305 0.88358 0.03661 0.0
C67 C 0.82474 0.91955 0.98684 0.0
O68 O 0.77994 0.91025 0.14015 0.0
O69 O 0.93672 0.17098 0.86417 0.0
Zn70 Zn 0.95133 0.17862 0.9258 0.0
O71 O 0.9458 0.21377 0.94558 0.0
Zn72 Zn 0.97882 0.23143 0.95285 0.0
Zn73 Zn 0.92529 0.22996 0.89903 0.0
Zn74 Zn 0.92632 0.21424 0.00198 0.0
O75 O 0.97988 0.25031 0.01464 0.0
O76 O 0.94667 0.23182 0.0505 0.0
O77 O 0.98847 0.16915 0.9275 0.0
O78 O 0.00746 0.20482 0.95368 0.0
O79 O 0.9852 0.2546 0.89687 0.0
O80 O 0.94743 0.25238 0.86105 0.0
O81 O 0.89665 0.25069 0.92472 0.0
O82 O 0.93116 0.15476 0.96554 0.0
O83 O 0.89501 0.23628 0.99591 0.0
O84 O 0.9139 0.17876 0.02042 0.0
C85 C 0.91744 0.18152 0.84511 0.0
C86 C 0.96613 0.24686 0.05044 0.0
C87 C 0.97053 0.26051 0.86333 0.0
C88 C 0.00844 0.18132 0.94079 0.0
C89 C 0.88614 0.2502 0.96388 0.0
C90 C 0.91705 0.15704 0.00082 0.0
O91 O 0.90945 0.20357 0.85782 0.0
O92 O 0.72689 0.01943 0.47963 0.0
Zn93 Zn 0.73339 0.03597 0.54189 0.0
O94 O 0.76985 0.04457 0.5502 0.0
Zn95 Zn 0.78408 0.02656 0.60201 0.0
Zn96 Zn 0.78906 0.03545 0.49635 0.0
Zn97 Zn 0.77381 0.08113 0.56084 0.0
O98 O 0.80439 0.05067 0.64274 0.0
O99 O 0.78741 0.08824 0.62276 0.0
O100 O 0.71955 0.01613 0.59683 0.0
O101 O 0.75521 0.01216 0.63881 0.0
O102 O 0.80693 -0.00247 0.58234 0.0
O103 O 0.81015 0.00349 0.50739 0.0
O104 O 0.81364 0.06368 0.47764 0.0
O105 O 0.71277 0.06862 0.53927 0.0
O106 O 0.80014 0.09674 0.51923 0.0
O107 O 0.74099 0.09993 0.55322 0.0
C108 C 0.74066 0.02188 0.44371 0.0
C109 C 0.80154 0.07482 0.64898 0.0
C110 C 0.81567 0.9909 0.54346 0.0
C111 C 0.73111 0.00892 0.63309 0.0
C112 C 0.81513 0.08733 0.48921 0.0
C113 C 0.71822 0.09239 0.54452 0.0
O114 O 0.76405 0.02938 0.44558 0.0
O115 O 0.04957 0.17185 0.36236 0.0
Zn116 Zn 0.0347 0.17923 0.42415 0.0
O117 O 0.04215 0.21384 0.44513 0.0
Zn118 Zn 0.01035 0.23337 0.45243 0.0
Zn119 Zn 0.0638 0.2297 0.39978 0.0
Zn120 Zn 0.06131 0.2125 0.50163 0.0
O121 O 0.01014 0.25157 0.51499 0.0
O122 O 0.0416 0.23021 0.55042 0.0
O123 O -0.00313 0.17191 0.42541 0.0
O124 O 0.98001 0.20865 0.45074 0.0
O125 O 0.00554 0.25711 0.39701 0.0
O126 O 0.04283 0.2526 0.36049 0.0
O127 O 0.09292 0.24943 0.42719 0.0
O128 O 0.05308 0.1537 0.46333 0.0
O129 O 0.09373 0.23319 0.49721 0.0
O130 O 0.0715 0.17626 0.51904 0.0
C131 C 0.06995 0.18147 0.34514 0.0
C132 C 0.02332 0.24655 0.55089 0.0
C133 C 0.02021 0.26188 0.3629 0.0
C134 C 0.97751 0.18523 0.43786 0.0
C135 C 0.10327 0.2476 0.46641 0.0
C136 C 0.06708 0.1549 0.49893 0.0
O137 O 0.07908 0.20281 0.35938 0.0
O138 O 0.17299 0.93281 0.63951 0.0
Zn139 Zn 0.179 0.94693 0.57705 0.0
O140 O 0.21393 0.94223 0.55622 0.0
Zn141 Zn 0.23084 0.97559 0.5487 0.0
Zn142 Zn 0.23092 0.922 0.60225 0.0
Zn143 Zn 0.21422 0.92298 0.49961 0.0
O144 O 0.24962 0.97681 0.48687 0.0
O145 O 0.23046 0.94406 0.4507 0.0
O146 O 0.16854 0.98393 0.5747 0.0
O147 O 0.20355 0.00361 0.54764 0.0
O148 O 0.25381 0.98265 0.60468 0.0
O149 O 0.25277 0.94478 0.64045 0.0
O150 O 0.25224 0.89414 0.57552 0.0
O151 O 0.15515 0.92572 0.53846 0.0
O152 O 0.23718 0.89221 0.50469 0.0
O153 O 0.17892 0.9098 0.48203 0.0
C154 C 0.18361 0.91325 0.65763 0.0
C155 C 0.2456 0.96346 0.45069 0.0
C156 C 0.26017 0.96817 0.63823 0.0
C157 C 0.18012 0.00412 0.56079 0.0
C158 C 0.25166 0.88369 0.53626 0.0
C159 C 0.15741 0.91203 0.50258 0.0
O160 O 0.20527 0.90506 0.64356 0.0
O161 O 0.93285 0.81532 0.36391 0.0
Zn162 Zn 0.95013 0.80704 0.42323 0.0
O163 O 0.94126 0.77316 0.44592 0.0
Zn164 Zn 0.97257 0.75293 0.45324 0.0
Zn165 Zn 0.91873 0.75749 0.40184 0.0
Zn166 Zn 0.92238 0.77566 0.50261 0.0
O167 O 0.97215 0.73456 0.51537 0.0
O168 O 0.94167 0.75722 0.55101 0.0
O169 O 0.98818 0.81229 0.41908 0.0
O170 O 0.00351 0.77709 0.45286 0.0
O171 O 0.97661 0.72914 0.39753 0.0
O172 O 0.93871 0.73362 0.36299 0.0
O173 O 0.88951 0.73889 0.43072 0.0
O174 O 0.9362 0.83379 0.46555 0.0
O175 O 0.88877 0.7565 0.49978 0.0
O176 O 0.91521 0.81263 0.51998 0.0
C177 C 0.91252 0.80556 0.34669 0.0
C178 C 0.95931 0.74018 0.55137 0.0
C179 C 0.96127 0.72414 0.36442 0.0
C180 C 0.00687 0.79939 0.43533 0.0
C181 C 0.87905 0.7417 0.46964 0.0
C182 C 0.92232 0.83369 0.50136 0.0
O183 O 0.9036 0.78411 0.36073 0.0
O184 O 0.66919 0.55215 0.62324 0.0
Zn185 Zn 0.67955 0.53657 0.56355 0.0
O186 O 0.7153 0.54376 0.54855 0.0
Zn187 Zn 0.7342 0.51125 0.54224 0.0
Zn188 Zn 0.72976 0.565 0.59659 0.0
Zn189 Zn 0.71693 0.56378 0.4931 0.0
O190 O 0.75354 0.51051 0.48068 0.0
O191 O 0.73536 0.54393 0.44536 0.0
O192 O 0.67203 0.49882 0.56418 0.0
O193 O 0.70879 0.48122 0.54082 0.0
O194 O 0.75667 0.50594 0.59965 0.0
O195 O 0.7523 0.5436 0.63541 0.0
O196 O 0.74966 0.59546 0.5736 0.0
O197 O 0.656 0.55353 0.51847 0.0
O198 O 0.73749 0.5959 0.50115 0.0
O199 O 0.68201 0.57497 0.47173 0.0
C200 C 0.6794 0.57038 0.64612 0.0
C201 C 0.75024 0.52444 0.44504 0.0
C202 C 0.76129 0.52083 0.63367 0.0
C203 C 0.68519 0.47922 0.55252 0.0
C204 C 0.7498 0.60585 0.5343 0.0
C205 C 0.6595 0.56894 0.48521 0.0
O206 O 0.70198 0.57854 0.63725 0.0
O207 O 0.54747 0.31055 0.35982 0.0
Zn208 Zn 0.5343 0.30693 0.42347 0.0
O209 O 0.53775 0.2723 0.44595 0.0
Zn210 Zn 0.5041 0.2566 0.45368 0.0
Zn211 Zn 0.55737 0.2541 0.40093 0.0
Zn212 Zn 0.55696 0.27216 0.5023 0.0
O213 O 0.50299 0.23737 0.51488 0.0
O214 O 0.53528 0.25705 0.55156 0.0
O215 O 0.49783 0.31917 0.42782 0.0
O216 O 0.47739 0.28497 0.45649 0.0
O217 O 0.49583 0.23443 0.39715 0.0
O218 O 0.53376 0.23388 0.36165 0.0
O219 O 0.58238 0.23016 0.42949 0.0
O220 O 0.55737 0.33042 0.45954 0.0
O221 O 0.58637 0.24739 0.49855 0.0
O222 O 0.57159 0.30725 0.51818 0.0
C223 C 0.56784 0.30016 0.34426 0.0
C224 C 0.51612 0.24159 0.5512 0.0
C225 C 0.51009 0.22758 0.36361 0.0
C226 C 0.47754 0.30843 0.44328 0.0
C227 C 0.59299 0.23092 0.46858 0.0
C228 C 0.57072 0.32831 0.49583 0.0
O229 O 0.57636 0.27915 0.36088 0.0
O230 O 0.30539 0.4378 0.64358 0.0
Zn231 Zn 0.29941 0.45188 0.58118 0.0
O232 O 0.26547 0.44417 0.55776 0.0
Zn233 Zn 0.24675 0.47614 0.54691 0.0
Zn234 Zn 0.24847 0.42344 0.60331 0.0
Zn235 Zn 0.26795 0.42407 0.50246 0.0
O236 O 0.22935 0.47538 0.48392 0.0
O237 O 0.25045 0.44257 0.45195 0.0
O238 O 0.30671 0.48962 0.58054 0.0
O239 O 0.27188 0.50616 0.54742 0.0
O240 O 0.22239 0.48245 0.60057 0.0
O241 O 0.22487 0.44563 0.63942 0.0
O242 O 0.22938 0.39384 0.576 0.0
O243 O 0.32593 0.43361 0.54368 0.0
O244 O 0.24803 0.39116 0.50799 0.0
O245 O 0.30463 0.41481 0.48678 0.0
C246 C 0.29548 0.41773 0.66136 0.0
C247 C 0.23449 0.46114 0.44938 0.0
C248 C 0.21635 0.46851 0.63499 0.0
C249 C 0.29441 0.50872 0.5643 0.0
C250 C 0.23267 0.38236 0.53804 0.0
C251 C 0.32555 0.41965 0.5079 0.0
O252 O 0.27438 0.4084 0.64647 0.0
O253 O 0.43365 0.67011 0.36763 0.0
Zn254 Zn 0.44579 0.67705 0.43087 0.0
O255 O 0.44238 0.71247 0.44912 0.0
Zn256 Zn 0.4765 0.72848 0.45475 0.0
Zn257 Zn 0.42192 0.72859 0.40232 0.0
Zn258 Zn 0.42334 0.71388 0.50585 0.0
O259 O 0.47922 0.74661 0.51753 0.0
O260 O 0.44512 0.72998 0.55362 0.0
O261 O 0.48164 0.66517 0.43667 0.0
O262 O 0.50431 0.70056 0.45214 0.0
O263 O 0.48248 0.75222 0.39928 0.0
O264 O 0.44438 0.75069 0.36438 0.0
O265 O 0.39358 0.74992 0.42777 0.0
O266 O 0.42292 0.65484 0.4683 0.0
O267 O 0.39332 0.73757 0.50021 0.0
O268 O 0.40864 0.67935 0.52502 0.0
C269 C 0.4144 0.68039 0.34813 0.0
C270 C 0.46549 0.74376 0.55358 0.0
C271 C 0.4676 0.75853 0.36625 0.0
C272 C 0.50302 0.67629 0.44464 0.0
C273 C 0.38401 0.75079 0.46766 0.0
C274 C 0.40949 0.6578 0.50417 0.0
O275 O 0.40587 0.70219 0.36107 0.0
O276 O 0.22604 0.51703 0.98193 0.0
Zn277 Zn 0.23282 0.53377 0.04376 0.0
O278 O 0.26937 0.5425 0.05068 0.0
Zn279 Zn 0.28423 0.52479 0.10226 0.0
Zn280 Zn 0.2883 0.53347 0.99629 0.0
Zn281 Zn 0.27305 0.57906 0.06104 0.0
O282 O 0.30421 0.54922 0.14291 0.0
O283 O 0.28632 0.58637 0.12295 0.0
O284 O 0.21974 0.51364 0.09902 0.0
O285 O 0.25593 0.50968 0.13952 0.0
O286 O 0.30732 0.49611 0.08218 0.0
O287 O 0.30969 0.50153 0.007 0.0
O288 O 0.31274 0.56198 0.97727 0.0
O289 O 0.21176 0.56624 0.04163 0.0
O290 O 0.29925 0.59481 0.01945 0.0
O291 O 0.24017 0.5976 0.05385 0.0
C292 C 0.23936 0.51928 0.94544 0.0
C293 C 0.30067 0.57328 0.14924 0.0
C294 C 0.31568 0.48923 0.04317 0.0
C295 C 0.23181 0.50625 0.13465 0.0
C296 C 0.31419 0.5856 0.98917 0.0
C297 C 0.21729 0.59003 0.04632 0.0
O298 O 0.26273 0.52697 0.94623 0.0
O299 O 0.55262 0.66568 0.87816 0.0
Zn300 Zn 0.53556 0.67596 0.93696 0.0
O301 O 0.54236 0.71179 0.95235 0.0
Zn302 Zn 0.50998 0.73103 0.95689 0.0
Zn303 Zn 0.56413 0.72649 0.90567 0.0
Zn304 Zn 0.56165 0.71324 0.00868 0.0
O305 O 0.50845 0.75013 0.01874 0.0
O306 O 0.54111 0.73144 0.0555 0.0
O307 O 0.49776 0.66872 0.93415 0.0
O308 O 0.4798 0.70592 0.95443 0.0
O309 O 0.50579 0.75415 0.90016 0.0
O310 O 0.54347 0.74884 0.86532 0.0
O311 O 0.59347 0.74702 0.93064 0.0
O312 O 0.55168 0.65225 0.98282 0.0
O313 O 0.5933 0.73475 0.00302 0.0
O314 O 0.57305 0.67823 0.02984 0.0
C315 C 0.57128 0.67616 0.85685 0.0
C316 C 0.5219 0.74667 0.05492 0.0
C317 C 0.52096 0.7584 0.86651 0.0
C318 C 0.47791 0.68217 0.94324 0.0
C319 C 0.6032 0.74751 0.97044 0.0
C320 C 0.56699 0.65568 0.01627 0.0
O321 O 0.57886 0.69889 0.86641 0.0
O322 O 0.67055 0.42866 0.12975 0.0
Zn323 Zn 0.67714 0.44186 0.06704 0.0
O324 O 0.71267 0.43938 0.04922 0.0
Zn325 Zn 0.72791 0.47396 0.04396 0.0
Zn326 Zn 0.72942 0.41931 0.09611 0.0
Zn327 Zn 0.71469 0.4205 0.99223 0.0
O328 O 0.74632 0.47727 0.98152 0.0
O329 O 0.731 0.44258 0.94522 0.0
O330 O 0.66456 0.47777 0.06258 0.0
O331 O 0.69939 0.5011 0.04654 0.0
O332 O 0.75115 0.48061 0.09987 0.0
O333 O 0.75069 0.44245 0.13472 0.0
O334 O 0.75147 0.3916 0.07033 0.0
O335 O 0.65538 0.41908 0.02809 0.0
O336 O 0.73849 0.39053 0.99819 0.0
O337 O 0.68044 0.40593 0.9713 0.0
C338 C 0.68152 0.4099 0.1497 0.0
C339 C 0.74417 0.46335 0.94546 0.0
C340 C 0.75775 0.46596 0.13305 0.0
C341 C 0.67525 0.49939 0.05453 0.0
C342 C 0.75215 0.38172 0.03061 0.0
C343 C 0.65873 0.4063 0.99151 0.0
O344 O 0.70365 0.40216 0.13721 0.0
O345 O 0.43194 0.31369 0.85936 0.0
Zn346 Zn 0.44987 0.30501 0.91796 0.0
O347 O 0.44063 0.27119 0.94077 0.0
Zn348 Zn 0.47162 0.25061 0.94874 0.0
Zn349 Zn 0.41831 0.25545 0.8964 0.0
Zn350 Zn 0.42146 0.27404 0.99712 0.0
O351 O 0.47137 0.23337 0.01188 0.0
O352 O 0.44077 0.25631 0.04658 0.0
O353 O 0.48803 0.30964 0.91281 0.0
O354 O 0.5028 0.27419 0.94652 0.0
O355 O 0.47557 0.22609 0.89412 0.0
O356 O 0.43839 0.23156 0.85762 0.0
O357 O 0.38912 0.23676 0.92509 0.0
O358 O 0.43657 0.33204 0.9604 0.0
O359 O 0.388 0.25459 0.99398 0.0
O360 O 0.41408 0.31118 0.01331 0.0
C361 C 0.41154 0.30392 0.84243 0.0
C362 C 0.45859 0.23947 0.04771 0.0
C363 C 0.46065 0.22148 0.86026 0.0
C364 C 0.50656 0.29632 0.92865 0.0
C365 C 0.37847 0.23965 0.96383 0.0
C366 C 0.42196 0.33215 0.9953 0.0
O367 O 0.40299 0.28221 0.85591 0.0
H368 H 0.13698 0.0556 0.19277 0.0
H369 H 0.11528 0.19474 0.30373 0.0
H370 H 0.19504 0.11554 0.19693 0.0
H371 H 0.06004 0.13245 0.3143 0.0
H372 H 0.14366 0.16648 0.26046 0.0
H373 H 0.10815 0.08342 0.23637 0.0
C374 C 0.14382 0.07446 0.20337 0.0
C375 C 0.16844 0.08331 0.19093 0.0
C376 C 0.12528 0.15902 0.27207 0.0
C377 C 0.13536 0.11535 0.24009 0.0
C378 C 0.10895 0.17521 0.29649 0.0
C379 C 0.08528 0.16591 0.31292 0.0
C380 C 0.1179 0.13334 0.26394 0.0
C381 C 0.07812 0.14043 0.30238 0.0
C382 C 0.12727 0.09038 0.22801 0.0
C383 C 0.17622 0.10792 0.20561 0.0
N384 N 0.09446 0.12497 0.27875 0.0
N385 N 0.15965 0.12315 0.22911 0.0
H386 H 0.05717 0.84544 0.80386 0.0
H387 H 0.19724 0.86739 0.69744 0.0
H388 H 0.11922 0.79063 0.81836 0.0
H389 H 0.13567 0.92329 0.69175 0.0
H390 H 0.16936 0.8389 0.74198 0.0
H391 H 0.08557 0.87328 0.75979 0.0
C392 C 0.07671 0.8391 0.79735 0.0
C393 C 0.08589 0.81573 0.81509 0.0
C394 C 0.16205 0.85748 0.7312 0.0
C395 C 0.11865 0.84776 0.76514 0.0
C396 C 0.17801 0.87384 0.70606 0.0
C397 C 0.16872 0.89771 0.69058 0.0
C398 C 0.13667 0.86504 0.74077 0.0
C399 C 0.14364 0.90503 0.70275 0.0
C400 C 0.09298 0.85512 0.77241 0.0
C401 C 0.11135 0.80849 0.80535 0.0
N402 N 0.12844 0.88867 0.72684 0.0
N403 N 0.12694 0.82457 0.78124 0.0
H404 H 0.86576 0.79343 0.30913 0.0
H405 H 0.85203 0.92757 0.17758 0.0
H406 H 0.92449 0.85274 0.31012 0.0
H407 H 0.78976 0.87273 0.19325 0.0
H408 H 0.87932 0.90004 0.2245 0.0
H409 H 0.83864 0.82127 0.26256 0.0
C410 C 0.87309 0.81219 0.29917 0.0
C411 C 0.89741 0.82081 0.31375 0.0
C412 C 0.85964 0.89412 0.21792 0.0
C413 C 0.86629 0.85288 0.2609 0.0
C414 C 0.84399 0.90987 0.19128 0.0
C415 C 0.81859 0.90238 0.18129 0.0
C416 C 0.84987 0.87065 0.23445 0.0
C417 C 0.80922 0.87928 0.20005 0.0
C418 C 0.85749 0.82816 0.27286 0.0
C419 C 0.90585 0.84532 0.29978 0.0
N420 N 0.82494 0.86413 0.22547 0.0
N421 N 0.89026 0.86055 0.27425 0.0
H422 H 0.8439 0.05729 0.69578 0.0
H423 H 0.87514 0.19733 0.7973 0.0
H424 H 0.79502 0.12399 0.67946 0.0
H425 H 0.92389 0.13104 0.81954 0.0
H426 H 0.84611 0.17044 0.75244 0.0
H427 H 0.87314 0.0833 0.74284 0.0
C428 C 0.83911 0.07725 0.70268 0.0
C429 C 0.81713 0.08857 0.68337 0.0
C430 C 0.86322 0.16177 0.76694 0.0
C431 C 0.85057 0.11842 0.73626 0.0
C432 C 0.87991 0.17718 0.79232 0.0
C433 C 0.90194 0.16641 0.81236 0.0
C434 C 0.86853 0.13537 0.76156 0.0
C435 C 0.90712 0.14016 0.80469 0.0
C436 C 0.8559 0.09214 0.72917 0.0
C437 C 0.81189 0.11453 0.69324 0.0
N438 N 0.89043 0.12547 0.78007 0.0
N439 N 0.82858 0.1286 0.71871 0.0
H440 H 0.61485 0.6906 0.81127 0.0
H441 H 0.63131 0.55754 0.67776 0.0
H442 H 0.56152 0.62695 0.82639 0.0
H443 H 0.69171 0.61457 0.69225 0.0
H444 H 0.60408 0.58323 0.72845 0.0
H445 H 0.64132 0.66397 0.76162 0.0
C446 C 0.60856 0.67108 0.80389 0.0
C447 C 0.58596 0.66095 0.82321 0.0
C448 C 0.62337 0.58997 0.72072 0.0
C449 C 0.61639 0.63028 0.7666 0.0
C450 C 0.63894 0.57532 0.6919 0.0
C451 C 0.66379 0.58399 0.68058 0.0
C452 C 0.63266 0.61352 0.73791 0.0
C453 C 0.67269 0.60714 0.69995 0.0
C454 C 0.62382 0.65582 0.77576 0.0
C455 C 0.57883 0.63551 0.81233 0.0
N456 N 0.65705 0.62119 0.72739 0.0
N457 N 0.59406 0.62099 0.78473 0.0
H458 H 0.55528 0.34492 0.30061 0.0
H459 H 0.69497 0.36437 0.19093 0.0
H460 H 0.61655 0.28913 0.31385 0.0
H461 H 0.63377 0.4206 0.18381 0.0
H462 H 0.66704 0.3366 0.23683 0.0
H463 H 0.58375 0.37218 0.25554 0.0
C464 C 0.57465 0.33824 0.29361 0.0
C465 C 0.58359 0.31476 0.31126 0.0
C466 C 0.65982 0.3551 0.22543 0.0
C467 C 0.61645 0.34611 0.26015 0.0
C468 C 0.67581 0.37105 0.19952 0.0
C469 C 0.66663 0.39478 0.18323 0.0
C470 C 0.63452 0.36296 0.23498 0.0
C471 C 0.64163 0.40241 0.19536 0.0
C472 C 0.59097 0.35392 0.26809 0.0
C473 C 0.60886 0.3071 0.30094 0.0
N474 N 0.6264 0.38646 0.22024 0.0
N475 N 0.62449 0.32284 0.27626 0.0
H476 H 0.36564 0.29066 0.80269 0.0
H477 H 0.34143 0.43138 0.70049 0.0
H478 H 0.42046 0.35335 0.81319 0.0
H479 H 0.2852 0.36975 0.69607 0.0
H480 H 0.37028 0.40339 0.74336 0.0
H481 H 0.33635 0.31915 0.76184 0.0
C482 C 0.37168 0.31032 0.79593 0.0
C483 C 0.39552 0.31965 0.8116 0.0
C484 C 0.35155 0.39606 0.73332 0.0
C485 C 0.36187 0.35247 0.76547 0.0
C486 C 0.33497 0.41209 0.7091 0.0
C487 C 0.31092 0.40283 0.69433 0.0
C488 C 0.34406 0.37056 0.74271 0.0
C489 C 0.30358 0.37769 0.70661 0.0
C490 C 0.35484 0.32664 0.77291 0.0
C491 C 0.40227 0.34531 0.80181 0.0
N492 N 0.32021 0.36234 0.72975 0.0
N493 N 0.38545 0.36087 0.77958 0.0
H494 H 0.29088 0.62109 0.18323 0.0
H495 H 0.42422 0.63131 0.31806 0.0
H496 H 0.34476 0.55796 0.1932 0.0
H497 H 0.37019 0.69409 0.30367 0.0
H498 H 0.39574 0.604 0.27245 0.0
H499 H 0.31922 0.64733 0.23044 0.0
C500 C 0.30859 0.61264 0.19581 0.0
C501 C 0.31562 0.58738 0.18398 0.0
C502 C 0.39021 0.62379 0.27909 0.0
C503 C 0.34837 0.6175 0.23754 0.0
C504 C 0.40654 0.63948 0.30483 0.0
C505 C 0.39952 0.66502 0.31489 0.0
C506 C 0.36672 0.63373 0.26337 0.0
C507 C 0.37638 0.67452 0.29689 0.0
C508 C 0.32484 0.6277 0.22258 0.0
C509 C 0.33864 0.57736 0.20156 0.0
N510 N 0.36074 0.65881 0.27223 0.0
N511 N 0.35437 0.59258 0.22721 0.0
H512 H 0.19635 0.9396 0.99819 0.0
H513 H 0.08894 0.8419 0.08646 0.0
H514 H 0.14866 0.9591 0.11391 0.0
H515 H 0.10149 0.85757 0.94341 0.0
H516 H 0.11937 0.87703 0.10561 0.0
H517 H 0.17052 0.90036 0.98681 0.0
C518 C 0.18077 0.93537 0.02167 0.0
C519 C 0.1744 0.95265 0.05673 0.0
C520 C 0.11541 0.87255 0.07013 0.0
C521 C 0.14523 0.90792 0.0443 0.0
C522 C 0.09816 0.85266 0.05925 0.0
C523 C 0.09253 0.84719 0.01338 0.0
C524 C 0.1276 0.88625 0.0348 0.0
C525 C 0.10502 0.8615 0.97923 0.0
C526 C 0.16602 0.91312 0.01503 0.0
C527 C 0.15395 0.94634 0.08614 0.0
N528 N 0.12212 0.88027 0.99062 0.0
N529 N 0.14002 0.92442 0.07928 0.0
H530 H 0.82541 0.87335 0.94145 0.0
H531 H 0.97887 0.86364 0.94263 0.0
H532 H 0.8754 0.93393 0.99126 0.0
H533 H 0.92908 0.79667 0.94282 0.0
H534 H 0.94101 0.89133 0.9444 0.0
H535 H 0.86339 0.84712 0.9244 0.0
C536 C 0.84437 0.88138 0.94786 0.0
C537 C 0.84727 0.90579 0.96816 0.0
C538 C 0.93838 0.87058 0.9439 0.0
C539 C 0.8906 0.87585 0.94903 0.0
C540 C 0.95997 0.85471 0.94287 0.0
C541 C 0.95715 0.82774 0.94295 0.0
C542 C 0.91373 0.85947 0.94455 0.0
C543 C 0.93214 0.81735 0.94319 0.0
C544 C 0.86598 0.86629 0.93853 0.0
C545 C 0.87229 0.91513 0.97599 0.0
N546 N 0.91134 0.83326 0.94399 0.0
N547 N 0.893 0.90009 0.96662 0.0
H548 H 0.89949 0.11937 0.94471 0.0
H549 H 0.83549 0.02663 0.1172 0.0
H550 H 0.89603 0.14528 0.08488 0.0
H551 H 0.79642 0.04642 0.99199 0.0
H552 H 0.86327 0.06482 0.10802 0.0
H553 H 0.86812 0.08571 0.96237 0.0
C554 C 0.89247 0.1177 0.97946 0.0
C555 C 0.90049 0.13503 0.01355 0.0
C556 C 0.84828 0.06095 0.08314 0.0
C557 C 0.8646 0.09659 0.03363 0.0
C558 C 0.83254 0.03926 0.0882 0.0
C559 C 0.81376 0.03347 0.05517 0.0
C560 C 0.84568 0.07627 0.04406 0.0
C561 C 0.81062 0.05033 0.01823 0.0
C562 C 0.87434 0.09873 0.98923 0.0
C563 C 0.89036 0.13222 0.05776 0.0
N564 N 0.82686 0.07072 0.01309 0.0
N565 N 0.87304 0.11308 0.06678 0.0
H566 H 0.02637 0.14415 0.88309 0.0
H567 H 0.12059 0.08488 0.05966 0.0
H568 H 0.04519 0.18549 0.00678 0.0
H569 H 0.14568 0.08726 0.91906 0.0
H570 H 0.08565 0.1145 0.04083 0.0
H571 H 0.06439 0.11667 0.89478 0.0
C572 C 0.0387 0.14758 0.91237 0.0
C573 C 0.03278 0.16702 0.94411 0.0
C574 C 0.09875 0.10837 0.01415 0.0
C575 C 0.07534 0.13544 0.95811 0.0
C576 C 0.11846 0.09126 0.02461 0.0
C577 C 0.13594 0.08353 0.99072 0.0
C578 C 0.09609 0.1173 0.9693 0.0
C579 C 0.13254 0.09277 0.94606 0.0
C580 C 0.06027 0.13201 0.91887 0.0
C581 C 0.04924 0.17078 0.98148 0.0
N582 N 0.11274 0.10908 0.93641 0.0
N583 N 0.06955 0.15475 0.98799 0.0
H584 H 0.84794 0.97838 0.47323 0.0
H585 H 0.88839 0.8422 0.57204 0.0
H586 H 0.82363 0.95288 0.60692 0.0
H587 H 0.93048 0.88162 0.46541 0.0
H588 H 0.86425 0.88193 0.58651 0.0
H589 H 0.87724 0.94176 0.469 0.0
C590 C 0.84872 0.96504 0.50167 0.0
C591 C 0.83324 0.96862 0.54039 0.0
C592 C 0.87906 0.88191 0.56044 0.0
C593 C 0.8668 0.92668 0.53582 0.0
C594 C 0.8929 0.85928 0.55224 0.0
C595 C 0.91124 0.85843 0.517 0.0
C596 C 0.88343 0.90363 0.53283 0.0
C597 C 0.91632 0.88121 0.49257 0.0
C598 C 0.86562 0.94426 0.4994 0.0
C599 C 0.83524 0.95083 0.57641 0.0
N600 N 0.90222 0.90273 0.50047 0.0
N601 N 0.85158 0.93046 0.5731 0.0
H602 H 0.85455 0.07312 0.43208 0.0
H603 H 0.93188 0.20526 0.46934 0.0
H604 H 0.82429 0.13855 0.50609 0.0
H605 H 0.96436 0.13708 0.40702 0.0
H606 H 0.89022 0.18327 0.47366 0.0
H607 H 0.89255 0.09867 0.41239 0.0
C608 C 0.8557 0.09296 0.44368 0.0
C609 C 0.83632 0.10358 0.47129 0.0
C610 C 0.90644 0.1732 0.45877 0.0
C611 C 0.87991 0.13285 0.4492 0.0
C612 C 0.93024 0.18575 0.4563 0.0
C613 C 0.95175 0.17292 0.43827 0.0
C614 C 0.90412 0.14767 0.44304 0.0
C615 C 0.94841 0.14767 0.42166 0.0
C616 C 0.87747 0.10751 0.43257 0.0
C617 C 0.83886 0.12944 0.48513 0.0
N618 N 0.9251 0.13584 0.4247 0.0
N619 N 0.86037 0.1431 0.47432 0.0
H620 H 0.0826 0.11624 0.44305 0.0
H621 H 0.14269 0.02156 0.61844 0.0
H622 H 0.08627 0.14166 0.58349 0.0
H623 H 0.1834 0.04081 0.49451 0.0
H624 H 0.11488 0.05942 0.60707 0.0
H625 H 0.11177 0.08087 0.46147 0.0
C626 C 0.08915 0.1141 0.478 0.0
C627 C 0.08194 0.13183 0.51193 0.0
C628 C 0.13014 0.05541 0.58283 0.0
C629 C 0.11521 0.09144 0.53289 0.0
C630 C 0.14589 0.03391 0.58913 0.0
C631 C 0.16529 0.02819 0.55729 0.0
C632 C 0.13335 0.07058 0.54368 0.0
C633 C 0.16874 0.0447 0.51991 0.0
C634 C 0.106 0.09413 0.48823 0.0
C635 C 0.09138 0.12835 0.55645 0.0
N636 N 0.15255 0.06493 0.51362 0.0
N637 N 0.10746 0.10831 0.56587 0.0
H638 H 0.12045 0.89236 0.55791 0.0
H639 H 0.02787 0.83433 0.37615 0.0
H640 H 0.14522 0.89325 0.41711 0.0
H641 H 0.04293 0.79409 0.5023 0.0
H642 H 0.06669 0.86067 0.38894 0.0
H643 H 0.08639 0.86184 0.5377 0.0
C644 C 0.11849 0.8864 0.52257 0.0
C645 C 0.13555 0.89546 0.489 0.0
C646 C 0.06165 0.84575 0.41327 0.0
C647 C 0.09665 0.86057 0.4659 0.0
C648 C 0.0396 0.83078 0.40611 0.0
C649 C 0.03224 0.8121 0.43834 0.0
C650 C 0.07583 0.84247 0.45357 0.0
C651 C 0.04801 0.80822 0.47658 0.0
C652 C 0.09928 0.86876 0.51127 0.0
C653 C 0.13238 0.88674 0.4439 0.0
N654 N 0.06881 0.82369 0.48366 0.0
N655 N 0.11302 0.86992 0.43343 0.0
H656 H 0.69308 0.4407 0.49042 0.0
H657 H 0.58623 0.34371 0.58155 0.0
H658 H 0.64675 0.46108 0.60734 0.0
H659 H 0.5954 0.36088 0.43822 0.0
H660 H 0.61682 0.37885 0.59963 0.0
H661 H 0.66623 0.40204 0.47945 0.0
C662 C 0.67763 0.43673 0.51431 0.0
C663 C 0.67193 0.45409 0.54961 0.0
C664 C 0.61203 0.37475 0.56432 0.0
C665 C 0.6416 0.41009 0.53761 0.0
C666 C 0.59465 0.35487 0.55404 0.0
C667 C 0.58809 0.34972 0.50843 0.0
C668 C 0.62345 0.38877 0.52861 0.0
C669 C 0.59964 0.36454 0.47389 0.0
C670 C 0.66228 0.41486 0.50786 0.0
C671 C 0.65156 0.4482 0.57947 0.0
N672 N 0.61695 0.38325 0.48466 0.0
N673 N 0.63707 0.42662 0.57284 0.0
H674 H 0.36424 0.40497 0.56434 0.0
H675 H 0.4605 0.34693 0.38731 0.0
H676 H 0.34011 0.40167 0.42324 0.0
H677 H 0.44182 0.30584 0.51115 0.0
H678 H 0.42294 0.37499 0.39994 0.0
H679 H 0.40071 0.37714 0.54587 0.0
C680 C 0.36689 0.39879 0.52927 0.0
C681 C 0.34918 0.40565 0.49517 0.0
C682 C 0.42708 0.35967 0.42398 0.0
C683 C 0.39084 0.37401 0.47411 0.0
C684 C 0.4484 0.34377 0.41696 0.0
C685 C 0.45411 0.3241 0.44828 0.0
C686 C 0.41207 0.3563 0.4633 0.0
C687 C 0.43792 0.3207 0.48612 0.0
C688 C 0.38751 0.38274 0.51898 0.0
C689 C 0.35336 0.39676 0.45044 0.0
N690 N 0.41783 0.33696 0.49302 0.0
N691 N 0.37397 0.38145 0.44101 0.0
H692 H 0.33069 0.5277 0.62297 0.0
H693 H 0.38639 0.6241 0.44685 0.0
H694 H 0.28846 0.54652 0.50048 0.0
H695 H 0.39132 0.64461 0.58962 0.0
H696 H 0.35496 0.59077 0.46573 0.0
H697 H 0.35687 0.56682 0.61257 0.0
C698 C 0.32673 0.54027 0.59427 0.0
C699 C 0.30757 0.53388 0.56226 0.0
C700 C 0.36288 0.60261 0.49289 0.0
C701 C 0.33759 0.57794 0.54994 0.0
C702 C 0.38104 0.62139 0.48232 0.0
C703 C 0.39161 0.63692 0.51688 0.0
C704 C 0.35567 0.59886 0.53847 0.0
C705 C 0.38363 0.6329 0.56212 0.0
C706 C 0.34155 0.56253 0.58856 0.0
C707 C 0.30305 0.55079 0.52586 0.0
N708 N 0.3663 0.61388 0.57184 0.0
N709 N 0.31836 0.57182 0.52011 0.0
H710 H 0.50545 0.62384 0.44366 0.0
H711 H 0.65891 0.61602 0.44295 0.0
H712 H 0.55397 0.69176 0.44557 0.0
H713 H 0.60901 0.55421 0.48774 0.0
H714 H 0.62084 0.64242 0.42709 0.0
H715 H 0.54365 0.59691 0.44426 0.0
C716 C 0.52416 0.63317 0.44411 0.0
C717 C 0.52648 0.66019 0.44493 0.0
C718 C 0.61831 0.62296 0.43983 0.0
C719 C 0.57042 0.62921 0.44535 0.0
C720 C 0.63995 0.60778 0.44844 0.0
C721 C 0.63707 0.58295 0.46697 0.0
C722 C 0.5937 0.61303 0.44928 0.0
C723 C 0.6121 0.57333 0.4738 0.0
C724 C 0.54597 0.6177 0.44444 0.0
C725 C 0.5513 0.67103 0.44536 0.0
N726 N 0.59138 0.58844 0.46515 0.0
N727 N 0.57239 0.65546 0.44561 0.0
H728 H 0.43086 0.3799 0.95894 0.0
H729 H 0.32359 0.45151 0.10707 0.0
H730 H 0.38781 0.34135 0.06537 0.0
H731 H 0.34763 0.47605 0.97267 0.0
H732 H 0.35274 0.41457 0.10127 0.0
H733 H 0.40697 0.41931 0.97437 0.0
C734 C 0.41668 0.37977 0.9861 0.0
C735 C 0.4111 0.35709 0.01049 0.0
C736 C 0.35163 0.42811 0.07318 0.0
C737 C 0.38358 0.40226 0.028 0.0
C738 C 0.33504 0.44918 0.07641 0.0
C739 C 0.33307 0.4668 0.04014 0.0
C740 C 0.36661 0.42489 0.03372 0.0
C741 C 0.34836 0.46283 0.00126 0.0
C742 C 0.40294 0.40228 0.99463 0.0
C743 C 0.39261 0.35828 0.04546 0.0
N744 N 0.36453 0.44232 0.99913 0.0
N745 N 0.37932 0.38048 0.05295 0.0
H746 H 0.32161 0.63737 0.00318 0.0
H747 H 0.46612 0.63387 0.91153 0.0
H748 H 0.35542 0.57132 0.93618 0.0
H749 H 0.43124 0.70153 0.97137 0.0
H750 H 0.4245 0.61208 0.91389 0.0
H751 H 0.35995 0.66257 0.98469 0.0
C752 C 0.33694 0.62822 0.98403 0.0
C753 C 0.33539 0.60204 0.97171 0.0
C754 C 0.42586 0.63176 0.9262 0.0
C755 C 0.37953 0.63083 0.95083 0.0
C756 C 0.44968 0.64423 0.92501 0.0
C757 C 0.45229 0.66952 0.94177 0.0
C758 C 0.40443 0.64454 0.94459 0.0
C759 C 0.4302 0.68199 0.95834 0.0
C760 C 0.35888 0.64266 0.97354 0.0
C761 C 0.35581 0.59136 0.94664 0.0
N762 N 0.40724 0.66928 0.95972 0.0
N763 N 0.37716 0.60571 0.93752 0.0
H764 H 0.61379 0.65498 0.05941 0.0
H765 H 0.6228 0.50124 0.05496 0.0
H766 H 0.55249 0.60503 0.01254 0.0
H767 H 0.69008 0.55056 0.05499 0.0
H768 H 0.5955 0.5393 0.05489 0.0
H769 H 0.64027 0.61687 0.07469 0.0
C770 C 0.60567 0.636 0.05335 0.0
C771 C 0.58096 0.63314 0.03439 0.0
C772 C 0.61623 0.54181 0.05503 0.0
C773 C 0.61116 0.58969 0.05141 0.0
C774 C 0.63189 0.52009 0.05508 0.0
C775 C 0.65885 0.52268 0.05463 0.0
C776 C 0.62748 0.56643 0.05488 0.0
C777 C 0.66942 0.54766 0.0549 0.0
C778 C 0.62089 0.61432 0.06163 0.0
C779 C 0.5715 0.60811 0.02685 0.0
N780 N 0.65367 0.56864 0.05498 0.0
N781 N 0.58667 0.58736 0.03517 0.0
H782 H 0.54531 0.28582 0.98869 0.0
H783 H 0.64481 0.39237 0.90393 0.0
H784 H 0.52641 0.33401 0.87327 0.0
H785 H 0.62616 0.37983 0.04588 0.0
H786 H 0.60987 0.36212 0.88252 0.0
H787 H 0.58509 0.31065 0.9993 0.0
C788 C 0.5498 0.30123 0.96498 0.0
C789 C 0.53243 0.30813 0.93043 0.0
C790 C 0.61366 0.36607 0.91825 0.0
C791 C 0.57781 0.33626 0.94219 0.0
C792 C 0.63342 0.38323 0.93041 0.0
C793 C 0.63799 0.38879 0.97663 0.0
C794 C 0.59928 0.35389 0.95271 0.0
C795 C 0.62293 0.37638 0.00982 0.0
C796 C 0.57238 0.31542 0.97121 0.0
C797 C 0.53919 0.32834 0.90071 0.0
N798 N 0.60438 0.35937 0.99723 0.0
N799 N 0.56137 0.34185 0.90737 0.0
H800 H 0.28494 0.94239 0.70657 0.0
H801 H 0.2564 0.05683 0.87918 0.0
H802 H 0.26165 0.01888 0.66586 0.0
H803 H 0.27095 0.97836 0.92092 0.0
H804 H 0.26952 0.04584 0.80176 0.0
H805 H 0.29177 0.9581 0.78423 0.0
C806 C 0.28192 0.96269 0.71366 0.0
C807 C 0.27213 0.97924 0.67983 0.0
C808 C 0.27021 0.03107 0.82788 0.0
C809 C 0.27955 -0.00279 0.76901 0.0
C810 C 0.26265 0.03729 0.87217 0.0
C811 C 0.26202 0.0183 0.9064 0.0
C812 C 0.27698 0.00556 0.81737 0.0
C813 C 0.27089 -0.00649 0.89549 0.0
C814 C 0.28571 0.9716 0.75815 0.0
C815 C 0.26895 0.00538 0.69088 0.0
N816 N 0.27757 0.98772 0.85165 0.0
N817 N 0.27212 0.01345 0.73479 0.0
H818 H 0.01149 0.71699 0.33763 0.0
H819 H 0.96742 0.72303 0.07841 0.0
H820 H 0.93306 0.70487 0.29319 0.0
H821 H 0.0455 0.73395 0.12572 0.0
H822 H 0.95576 0.7068 0.1545 0.0
H823 H 0.02581 0.71204 0.25869 0.0
C824 C -0.00265 0.71245 0.31157 0.0
C825 C 0.97097 0.71211 0.32188 0.0
C826 C 0.97553 0.71241 0.14792 0.0
C827 C 0.9871 0.70722 0.23123 0.0
C828 C 0.98214 0.72171 0.10453 0.0
C829 C 0.00727 0.7305 0.09606 0.0
C830 C -0.00576 0.71187 0.18281 0.0
C831 C 0.02569 0.72807 0.13101 0.0
C832 C 0.0055 0.70989 0.2663 0.0
C833 C 0.95356 0.70597 0.2866 0.0
N834 N 0.01874 0.7193 0.17285 0.0
N835 N 0.96185 0.70443 0.24269 0.0
H836 H 0.72004 0.92886 0.88057 0.0
H837 H 0.70267 0.0375 0.69156 0.0
H838 H 0.71882 0.01038 0.91092 0.0
H839 H 0.72927 0.96015 0.66628 0.0
H840 H 0.69266 0.0254 0.77076 0.0
H841 H 0.70729 0.93818 0.80227 0.0
C842 C 0.71669 0.94876 0.8709 0.0
C843 C 0.72116 0.96897 0.90194 0.0
C844 C 0.69983 0.01086 0.74742 0.0
C845 C 0.70669 0.97972 0.81209 0.0
C846 C 0.70521 0.01764 0.70221 0.0
C847 C 0.71653 -0.00036 0.67263 0.0
C848 C 0.70582 0.98592 0.76274 0.0
C849 C 0.72027 0.97441 0.6881 0.0
C850 C 0.70937 0.95403 0.82618 0.0
C851 C 0.7159 -0.00572 0.88786 0.0
N852 N 0.71518 0.96835 0.7323 0.0
N853 N 0.70944 -0.00098 0.84352 0.0
H854 H 0.93255 0.2641 0.11445 0.0
H855 H 0.9695 0.26812 0.33888 0.0
H856 H 0.0138 0.25982 0.08495 0.0
H857 H 0.04684 0.28121 0.28992 0.0
H858 H 0.95348 0.27361 0.2618 0.0
H859 H 0.94238 0.27937 0.1909 0.0
C860 C 0.95256 0.26646 0.12426 0.0
C861 C 0.97242 0.26011 0.09375 0.0
C862 C 0.97388 0.27616 0.26754 0.0
C863 C 0.98406 0.2765 0.18255 0.0
C864 C 0.98304 0.2731 0.31212 0.0
C865 C 0.0096 0.27363 0.32081 0.0
C866 C -0.00853 0.27979 0.23135 0.0
C867 C 0.02621 0.28011 0.28465 0.0
C868 C 0.95823 0.27499 0.1683 0.0
C869 C -0.00207 0.26422 0.10764 0.0
N870 N 0.01695 0.28236 0.24144 0.0
N871 N 0.00302 0.27169 0.15137 0.0
H872 H 0.69661 0.9459 0.20116 0.0
H873 H 0.75081 0.04955 0.36772 0.0
H874 H 0.72188 0.02122 0.15688 0.0
H875 H 0.70415 0.98626 0.41623 0.0
H876 H 0.73524 0.04178 0.29055 0.0
H877 H 0.69231 0.96242 0.27893 0.0
C878 C 0.70043 0.96616 0.20751 0.0
C879 C 0.71024 0.98207 0.17271 0.0
C880 C 0.72804 0.02974 0.31797 0.0
C881 C 0.70597 0.00088 0.26179 0.0
C882 C 0.73714 0.03401 0.36202 0.0
C883 C 0.72914 0.01814 0.39812 0.0
C884 C 0.71128 0.00898 0.30952 0.0
C885 C 0.71098 -0.00129 0.38911 0.0
C886 C 0.69805 0.97555 0.25201 0.0
C887 C 0.71457 0.00819 0.18272 0.0
N888 N 0.70305 -0.00573 0.34539 0.0
N889 N 0.71309 0.01661 0.22663 0.0
H890 H 0.05655 0.2544 0.62122 0.0
H891 H 0.94403 0.28502 0.79559 0.0
H892 H 0.97776 0.26808 0.58105 0.0
H893 H 0.02093 0.26261 0.83487 0.0
H894 H 0.95894 0.29126 0.71736 0.0
H895 H 0.04639 0.26898 0.69816 0.0
C896 C 0.0371 0.26073 0.6285 0.0
C897 C 0.01778 0.25943 0.59493 0.0
C898 C 0.97271 0.28556 0.74325 0.0
C899 C 0.006 0.27608 0.6834 0.0
C900 C 0.96426 0.28213 0.78806 0.0
C901 C 0.98115 0.27266 0.82164 0.0
C902 C -0.00181 0.27938 0.73186 0.0
C903 C 0.00718 0.26964 0.81004 0.0
C904 C 0.03136 0.26915 0.67249 0.0
C905 C -0.00686 0.26849 0.60605 0.0
N906 N 0.01478 0.27243 0.76584 0.0
N907 N 0.98781 0.27599 0.64967 0.0
H908 H 0.2688 0.00935 0.42552 0.0
H909 H 0.26841 0.96813 0.16401 0.0
H910 H 0.25153 0.9327 0.376 0.0
H911 H 0.28507 0.04536 0.21115 0.0
H912 H 0.27308 0.95256 0.24231 0.0
H913 H 0.28433 0.02085 0.34898 0.0
C914 C 0.26861 -0.00514 0.39881 0.0
C915 C 0.25828 0.97024 0.40693 0.0
C916 C 0.27629 0.97285 0.2354 0.0
C917 C 0.27603 0.98316 0.31949 0.0
C918 C 0.27389 0.98169 0.1905 0.0
C919 C 0.27569 0.00818 0.18116 0.0
C920 C 0.28033 0.99066 0.2711 0.0
C921 C 0.2829 0.02483 0.21698 0.0
C922 C 0.27749 0.0014 0.35513 0.0
C923 C 0.25873 0.95213 0.37111 0.0
N924 N 0.28436 0.01591 0.26051 0.0
N925 N 0.26711 0.95904 0.32896 0.0
H926 H 0.96066 0.72623 0.83832 0.0
H927 H 0.00364 0.71546 0.57923 0.0
H928 H 0.03703 0.70419 0.79518 0.0
H929 H 0.92713 0.73583 0.62417 0.0
H930 H 0.01369 0.70142 0.65725 0.0
H931 H 0.94527 0.71908 0.7604 0.0
C932 C 0.97403 0.71915 0.81284 0.0
C933 C 0.00029 0.71649 0.823 0.0
C934 C -0.00545 0.70855 0.6498 0.0
C935 C 0.98302 0.70889 0.73353 0.0
C936 C 0.98884 0.71654 0.60525 0.0
C937 C 0.96477 0.72744 0.59551 0.0
C938 C 0.97604 0.71155 0.68459 0.0
C939 C 0.9462 0.72818 0.63044 0.0
C940 C 0.9653 0.71527 0.76817 0.0
C941 C 0.01672 0.70713 0.78857 0.0
N942 N 0.95234 0.72074 0.67346 0.0
N943 N 0.00795 0.70424 0.74517 0.0
H944 H 0.75957 0.55648 0.37334 0.0
H945 H 0.78173 0.43979 0.20187 0.0
H946 H 0.76864 0.47728 0.4158 0.0
H947 H 0.76028 0.51672 0.16054 0.0
H948 H 0.78933 0.45561 0.27922 0.0
H949 H 0.77174 0.54433 0.29594 0.0
C950 C 0.76448 0.53653 0.36652 0.0
C951 C 0.76253 0.51773 0.40094 0.0
C952 C 0.78349 0.46915 0.25306 0.0
C953 C 0.77637 0.50368 0.31194 0.0
C954 C 0.77924 0.46018 0.20874 0.0
C955 C 0.76977 0.47686 0.1748 0.0
C956 C 0.77818 0.49499 0.26366 0.0
C957 C 0.7673 0.50312 0.18562 0.0
C958 C 0.77147 0.52964 0.32223 0.0
C959 C 0.76965 0.49234 0.39025 0.0
N960 N 0.77098 0.51128 0.22937 0.0
N961 N 0.77582 0.48595 0.34642 0.0
H962 H 0.54818 0.23244 0.62273 0.0
H963 H 0.43315 0.20011 0.79009 0.0
H964 H 0.4698 0.22019 0.57822 0.0
H965 H 0.51103 0.2161 0.83362 0.0
H966 H 0.44841 0.19538 0.71173 0.0
H967 H 0.53692 0.21571 0.69772 0.0
C968 C 0.52857 0.22606 0.62867 0.0
C969 C 0.50971 0.22832 0.59448 0.0
C970 C 0.46228 0.19928 0.73853 0.0
C971 C 0.49665 0.20914 0.68073 0.0
C972 C 0.45362 0.20182 0.78341 0.0
C973 C 0.47076 0.2092 0.8183 0.0
C974 C 0.48823 0.20433 0.72846 0.0
C975 C 0.49707 0.21074 0.80777 0.0
C976 C 0.52219 0.21635 0.67153 0.0
C977 C 0.48483 0.21911 0.60379 0.0
N978 N 0.50492 0.20899 0.76356 0.0
N979 N 0.47889 0.21035 0.64638 0.0
H980 H 0.20125 0.53294 0.19287 0.0
H981 H 0.22553 0.42594 0.38265 0.0
H982 H 0.23339 0.45766 0.16833 0.0
H983 H 0.21599 0.5068 0.41358 0.0
H984 H 0.21348 0.43434 0.30373 0.0
H985 H 0.19185 0.52026 0.27207 0.0
C986 C 0.20519 0.51334 0.20367 0.0
C987 C 0.21785 0.49615 0.17431 0.0
C988 C 0.21363 0.45022 0.32783 0.0
C989 C 0.20783 0.48181 0.2644 0.0
C990 C 0.22057 0.44548 0.37292 0.0
C991 C 0.2224 0.46585 0.40443 0.0
C992 C 0.20873 0.47559 0.31378 0.0
C993 C 0.21512 0.49062 0.39018 0.0
C994 C 0.20015 0.50625 0.24889 0.0
C995 C 0.22334 0.47129 0.18999 0.0
N996 N 0.20908 0.49493 0.34551 0.0
N997 N 0.21854 0.46494 0.23415 0.0
H998 H 0.43366 0.75584 0.62402 0.0
H999 H 0.54935 0.7788 0.79675 0.0
H1000 H 0.51341 0.76035 0.58293 0.0
H1001 H 0.47085 0.76356 0.83749 0.0
H1002 H 0.53492 0.78429 0.71805 0.0
H1003 H 0.44566 0.77009 0.70033 0.0
C1004 C 0.45375 0.76006 0.63095 0.0
C1005 C 0.47268 0.75631 0.59727 0.0
C1006 C 0.52076 0.78032 0.74432 0.0
C1007 C 0.48656 0.77262 0.6851 0.0
C1008 C 0.52893 0.77733 0.78939 0.0
C1009 C 0.51134 0.77012 0.82367 0.0
C1010 C 0.4948 0.77602 0.73335 0.0
C1011 C 0.48513 0.76885 0.81219 0.0
C1012 C 0.46055 0.7683 0.6746 0.0
C1013 C 0.49825 0.76271 0.60799 0.0
N1014 N 0.47773 0.77121 0.76779 0.0
N1015 N 0.50453 0.77014 0.65129 0.0
H1016 H 0.2008 0.48491 0.92245 0.0
H1017 H 0.21544 0.5197 0.65813 0.0
H1018 H 0.24999 0.54424 0.86649 0.0
H1019 H 0.19196 0.4445 0.70619 0.0
H1020 H 0.21215 0.53608 0.73618 0.0
H1021 H 0.18383 0.4766 0.84512 0.0
C1022 C 0.20777 0.49635 0.89403 0.0
C1023 C 0.22723 0.51484 0.90051 0.0
C1024 C 0.20702 0.51615 0.72937 0.0
C1025 C 0.2075 0.50607 0.81299 0.0
C1026 C 0.2086 0.50685 0.68469 0.0
C1027 C 0.20468 0.48051 0.67588 0.0
C1028 C 0.20139 0.49901 0.76521 0.0
C1029 C 0.19576 0.46482 0.71176 0.0
C1030 C 0.19804 0.49169 0.85013 0.0
C1031 C 0.23545 0.52935 0.86277 0.0
N1032 N 0.19499 0.47416 0.75514 0.0
N1033 N 0.22563 0.52459 0.82067 0.0
H1034 H 0.55473 0.75827 0.12417 0.0
H1035 H 0.44061 0.78278 0.29881 0.0
H1036 H 0.47492 0.76514 0.0847 0.0
H1037 H 0.51797 0.7617 0.33763 0.0
H1038 H 0.45538 0.78986 0.22072 0.0
H1039 H 0.54367 0.77246 0.20097 0.0
C1040 C 0.53485 0.76309 0.13154 0.0
C1041 C 0.51557 0.75991 0.09827 0.0
C1042 C 0.46925 0.78426 0.24651 0.0
C1043 C 0.50279 0.77608 0.18654 0.0
C1044 C 0.46089 0.78033 0.29123 0.0
C1045 C 0.47798 0.77099 0.32462 0.0
C1046 C 0.49488 0.77879 0.23503 0.0
C1047 C 0.50406 0.7686 0.31296 0.0
C1048 C 0.52859 0.77126 0.17545 0.0
C1049 C 0.49031 0.76704 0.10947 0.0
N1050 N 0.51162 0.77193 0.26884 0.0
N1051 N 0.48454 0.77435 0.15301 0.0
H1052 H 0.75655 0.43181 0.87463 0.0
H1053 H 0.7822 0.54829 0.70429 0.0
H1054 H 0.7607 0.51155 0.91695 0.0
H1055 H 0.76493 0.47034 0.66178 0.0
H1056 H 0.78671 0.5333 0.78285 0.0
H1057 H 0.77114 0.44414 0.79878 0.0
C1058 C 0.76076 0.45196 0.86809 0.0
C1059 C 0.75681 0.47079 0.902 0.0
C1060 C 0.78251 0.51937 0.75623 0.0
C1061 C 0.77358 0.48503 0.81466 0.0
C1062 C 0.78008 0.52785 0.71123 0.0
C1063 C 0.7726 0.51061 0.67645 0.0
C1064 C 0.77741 0.49345 0.76662 0.0
C1065 C 0.77049 0.48436 0.68745 0.0
C1066 C 0.76918 0.45895 0.82468 0.0
C1067 C 0.7632 0.49646 0.89173 0.0
N1068 N 0.77235 0.47666 0.73176 0.0
N1069 N 0.77087 0.5029 0.84867 0.0
H1070 H 0.53358 0.19631 0.30145 0.0
H1071 H 0.50276 0.21435 0.07486 0.0
H1072 H 0.46135 0.23401 0.32961 0.0
H1073 H 0.42775 0.2377 0.12285 0.0
H1074 H 0.51381 0.20123 0.15224 0.0
H1075 H 0.52 0.18936 0.22294 0.0
C1076 C 0.51457 0.20268 0.29118 0.0
C1077 C 0.49876 0.21622 0.32185 0.0
C1078 C 0.49469 0.20861 0.1461 0.0
C1079 C 0.48349 0.20964 0.23092 0.0
C1080 C 0.48844 0.21621 0.10157 0.0
C1081 C 0.46453 0.22762 0.0925 0.0
C1082 C 0.47677 0.21236 0.18176 0.0
C1083 C 0.44666 0.22952 0.1284 0.0
C1084 C 0.50693 0.19909 0.2459 0.0
C1085 C 0.47422 0.22365 0.30704 0.0
N1086 N 0.45326 0.2223 0.17136 0.0
N1087 N 0.46758 0.22076 0.26236 0.0
H1088 H 0.34704 0.21395 0.90444 0.0
H1089 H 0.27901 0.13279 0.09975 0.0
H1090 H 0.35783 0.22986 0.04808 0.0
H1091 H 0.25677 0.1289 0.95762 0.0
H1092 H 0.3065 0.16978 0.08223 0.0
H1093 H 0.3122 0.18429 0.92363 0.0
C1094 C 0.34192 0.21136 0.94002 0.0
C1095 C 0.35553 0.22411 0.97478 0.0
C1096 C 0.29539 0.16099 0.055 0.0
C1097 C 0.31585 0.19007 0.997 0.0
C1098 C 0.27978 0.1398 0.06493 0.0
C1099 C 0.26584 0.12755 0.02998 0.0
C1100 C 0.29722 0.16977 0.00976 0.0
C1101 C 0.26735 0.13762 0.98558 0.0
C1102 C 0.32198 0.19448 0.95096 0.0
C1103 C 0.3479 0.2203 0.02025 0.0
N1104 N 0.28299 0.15798 0.97666 0.0
N1105 N 0.32875 0.2033 0.03013 0.0
H1106 H 0.21715 0.63907 0.07958 0.0
H1107 H 0.10099 0.68401 0.92438 0.0
H1108 H 0.17203 0.58547 -0.00068 0.0
H1109 H 0.12504 0.72672 0.04398 0.0
H1110 H 0.12988 0.64903 0.94635 0.0
H1111 H 0.18578 0.67281 0.06302 0.0
C1112 C 0.20052 0.63439 0.05874 0.0
C1113 C 0.19716 0.60956 0.04052 0.0
C1114 C 0.12873 0.66604 0.96778 0.0
C1115 C 0.16158 0.64799 0.02108 0.0
C1116 C 0.11247 0.68609 0.95509 0.0
C1117 C 0.11074 0.70829 0.98237 0.0
C1118 C 0.14357 0.66844 0.00759 0.0
C1119 C 0.12583 0.7099 0.02203 0.0
C1120 C 0.18264 0.65359 0.04943 0.0
C1121 C 0.17524 0.6044 0.01404 0.0
N1122 N 0.14178 0.69025 0.03335 0.0
N1123 N 0.15837 0.62361 0.00458 0.0
H1124 H 0.7045 0.85643 0.09903 0.0
H1125 H 0.63332 0.77323 0.90868 0.0
H1126 H 0.7252 0.85817 0.95605 0.0
H1127 H 0.62396 0.75985 0.05344 0.0
H1128 H 0.66804 0.8036 0.92553 0.0
H1129 H 0.67571 0.82012 0.08345 0.0
C1130 C 0.70311 0.84909 0.06445 0.0
C1131 C 0.71705 0.86051 0.02871 0.0
C1132 C 0.65855 0.79383 0.95358 0.0
C1133 C 0.68418 0.81912 0.01067 0.0
C1134 C 0.63868 0.77655 0.94398 0.0
C1135 C 0.62559 0.7642 0.97973 0.0
C1136 C 0.66513 0.79897 0.99923 0.0
C1137 C 0.63347 0.76905 0.02481 0.0
C1138 C 0.68675 0.82832 0.0556 0.0
C1139 C 0.71469 0.85008 0.98462 0.0
N1140 N 0.65258 0.78629 0.03332 0.0
N1141 N 0.69835 0.83012 0.97677 0.0
H1142 H 0.77996 0.35388 0.09264 0.0
H1143 H 0.85778 0.27744 0.90193 0.0
H1144 H 0.76383 0.35991 0.94818 0.0
H1145 H 0.86367 0.26082 0.04619 0.0
H1146 H 0.82268 0.30721 0.91818 0.0
H1147 H 0.81028 0.3192 0.07641 0.0
C1148 C 0.78273 0.34786 0.05753 0.0
C1149 C 0.76953 0.35993 0.02165 0.0
C1150 C 0.83152 0.29689 0.94623 0.0
C1151 C 0.80415 0.32035 0.00292 0.0
C1152 C 0.85161 0.27996 0.937 0.0
C1153 C 0.86379 0.26683 0.97283 0.0
C1154 C 0.82377 0.30088 0.99162 0.0
C1155 C 0.85487 0.27063 0.01756 0.0
C1156 C 0.79995 0.32799 0.04832 0.0
C1157 C 0.77368 0.35121 0.97687 0.0
N1158 N 0.83551 0.28753 0.02575 0.0
N1159 N 0.79081 0.33205 0.96874 0.0
H1160 H 0.67241 0.08668 0.49971 0.0
H1161 H 0.62723 0.23159 0.53953 0.0
H1162 H 0.71854 0.14245 0.57333 0.0
H1163 H 0.6015 0.18502 0.42567 0.0
H1164 H 0.65681 0.19707 0.56146 0.0
H1165 H 0.64126 0.12062 0.4825 0.0
C1166 C 0.67582 0.10598 0.51267 0.0
C1167 C 0.69812 0.11188 0.53767 0.0
C1168 C 0.64471 0.19454 0.53161 0.0
C1169 C 0.66278 0.15055 0.51812 0.0
C1170 C 0.62789 0.21416 0.51908 0.0
C1171 C 0.61201 0.21114 0.48065 0.0
C1172 C 0.6453 0.17168 0.50591 0.0
C1173 C 0.61357 0.1882 0.45534 0.0
C1174 C 0.65818 0.12533 0.50257 0.0
C1175 C 0.70169 0.13719 0.55356 0.0
N1176 N 0.62984 0.16923 0.46861 0.0
N1177 N 0.68416 0.15567 0.54347 0.0
H1178 H 0.12517 0.2558 0.55012 0.0
H1179 H 0.22748 0.35787 0.45577 0.0
H1180 H 0.13322 0.27544 0.40737 0.0
H1181 H 0.20356 0.3536 0.59697 0.0
H1182 H 0.19948 0.32122 0.43832 0.0
H1183 H 0.16053 0.28523 0.56816 0.0
C1184 C 0.13453 0.2661 0.52251 0.0
C1185 C 0.12604 0.26345 0.47722 0.0
C1186 C 0.20054 0.32823 0.47315 0.0
C1187 C 0.16641 0.29703 0.4977 0.0
C1188 C 0.21653 0.34908 0.48319 0.0
C1189 C 0.21757 0.35898 0.5278 0.0
C1190 C 0.18565 0.31715 0.50801 0.0
C1191 C 0.20307 0.34678 0.562 0.0
C1192 C 0.15465 0.28292 0.53288 0.0
C1193 C 0.13895 0.27717 0.44282 0.0
N1194 N 0.18757 0.32654 0.55133 0.0
N1195 N 0.15844 0.29353 0.45383 0.0
H1196 H 0.35566 0.77824 0.4058 0.0
H1197 H 0.27968 0.85572 0.59755 0.0
H1198 H 0.36244 0.76239 0.55023 0.0
H1199 H 0.26227 0.86156 0.45355 0.0
H1200 H 0.30969 0.82092 0.58074 0.0
H1201 H 0.32089 0.8084 0.42235 0.0
C1202 C 0.34977 0.78102 0.44096 0.0
C1203 C 0.3621 0.76797 0.47675 0.0
C1204 C 0.29916 0.82969 0.55285 0.0
C1205 C 0.32245 0.80241 0.49584 0.0
C1206 C 0.2821 0.84961 0.5624 0.0
C1207 C 0.26864 0.86167 0.52683 0.0
C1208 C 0.30296 0.82196 0.50739 0.0
C1209 C 0.27233 0.85283 0.48199 0.0
C1210 C 0.32987 0.79817 0.45036 0.0
C1211 C 0.35356 0.77214 0.52161 0.0
N1212 N 0.28935 0.83361 0.47348 0.0
N1213 N 0.33436 0.78918 0.52991 0.0
H1214 H 0.85874 0.73163 0.55415 0.0
H1215 H 0.75514 0.63234 0.45433 0.0
H1216 H 0.84716 0.71655 0.4104 0.0
H1217 H 0.77897 0.63329 0.59582 0.0
H1218 H 0.78274 0.66946 0.43991 0.0
H1219 H 0.82342 0.70185 0.57174 0.0
C1220 C 0.84855 0.72233 0.52629 0.0
C1221 C 0.85606 0.72627 0.48077 0.0
C1222 C 0.78183 0.66164 0.47417 0.0
C1223 C 0.81585 0.69236 0.50064 0.0
C1224 C 0.76607 0.64042 0.48248 0.0
C1225 C 0.76504 0.62944 0.52625 0.0
C1226 C 0.79668 0.67198 0.50982 0.0
C1227 C 0.77942 0.64096 0.56145 0.0
C1228 C 0.8285 0.7053 0.53637 0.0
C1229 C 0.84222 0.71378 0.446 0.0
N1230 N 0.79485 0.66154 0.55238 0.0
N1231 N 0.82287 0.69726 0.4567 0.0
loop_
_geom_bond_atom_site_label_1
_geom_bond_atom_site_label_2
_geom_bond_distance
_geom_bond_site_symmetry_2
_ccdc_geom_bond_type
O0 Zn1 1.953 . S
O0 C16 1.225 . S
Zn1 O0 1.953 . S
Zn1 O2 1.949 . S
Zn1 O8 1.919 . S
Zn1 O13 1.924 . S
O2 Zn1 1.949 . S
O2 Zn3 1.923 . S
O2 Zn4 1.950 . S
O2 Zn5 1.926 1_554 S
Zn3 O2 1.923 . S
Zn3 O6 1.933 1_554 S
Zn3 O9 1.946 . S
Zn3 O10 1.965 . S
Zn4 O2 1.950 . S
Zn4 O11 1.938 . S
Zn4 O12 1.906 . S
Zn4 O22 1.953 . S
Zn5 O2 1.926 1_556 S
Zn5 O7 1.946 . S
Zn5 O14 1.974 1_556 S
Zn5 O15 1.917 . S
O6 Zn3 1.933 1_556 S
O6 C17 1.226 . S
O7 Zn5 1.946 . S
O7 C17 1.307 . S
O8 Zn1 1.919 . S
O8 C19 1.253 . S
O9 Zn3 1.946 . S
O9 C19 1.284 . S
O10 Zn3 1.965 . S
O10 C18 1.303 . S
O11 Zn4 1.938 . S
O11 C18 1.247 . S
O12 Zn4 1.906 . S
O12 C20 1.304 . S
O13 Zn1 1.924 . S
O13 C21 1.320 . S
O14 Zn5 1.974 1_554 S
O14 C20 1.272 . S
O15 Zn5 1.917 . S
O15 C21 1.225 1_556 S
C16 O0 1.225 . S
C16 O22 1.298 . S
C17 O6 1.226 . S
C17 O7 1.307 . S
C18 O10 1.303 . S
C18 O11 1.247 . S
C19 O8 1.253 . S
C19 O9 1.284 . S
C20 O12 1.304 . S
C20 O14 1.272 . S
C21 O13 1.320 . S
C21 O15 1.225 1_554 S
O22 Zn4 1.953 . S
O22 C16 1.298 . S
O23 Zn24 1.953 . S
O23 C39 1.225 . S
Zn24 O23 1.953 . S
Zn24 O25 1.949 . S
Zn24 O31 1.919 . S
Zn24 O36 1.924 . S
O25 Zn24 1.949 . S
O25 Zn26 1.923 . S
O25 Zn27 1.950 . S
O25 Zn28 1.936 1_556 S
Zn26 O25 1.923 . S
Zn26 O29 1.933 1_556 S
Zn26 O32 1.954 . S
Zn26 O33 1.965 . S
Zn27 O25 1.950 . S
Zn27 O34 1.938 . S
Zn27 O35 1.906 . S
Zn27 O45 1.953 . S
Zn28 O25 1.936 1_554 S
Zn28 O30 1.939 . S
Zn28 O37 1.975 1_554 S
Zn28 O38 1.913 . S
O29 Zn26 1.933 1_554 S
O29 C40 1.226 . S
O30 Zn28 1.939 . S
O30 C40 1.307 . S
O31 Zn24 1.919 . S
O31 C42 1.253 . S
O32 Zn26 1.954 . S
O32 C42 1.286 . S
O33 Zn26 1.965 . S
O33 C41 1.303 . S
O34 Zn27 1.938 . S
O34 C41 1.247 . S
O35 Zn27 1.906 . S
O35 C43 1.304 . S
O36 Zn24 1.924 . S
O36 C44 1.326 . S
O37 Zn28 1.975 1_556 S
O37 C43 1.272 . S
O38 Zn28 1.913 . S
O38 C44 1.221 1_554 S
C39 O23 1.225 . S
C39 O45 1.298 . S
C40 O29 1.226 . S
C40 O30 1.307 . S
C41 O33 1.303 . S
C41 O34 1.247 . S
C42 O31 1.253 . S
C42 O32 1.286 . S
C43 O35 1.304 . S
C43 O37 1.272 . S
C44 O36 1.326 . S
C44 O38 1.221 1_556 S
O45 Zn27 1.953 . S
O45 C39 1.298 . S
O46 Zn47 1.953 . S
O46 C62 1.225 . S
Zn47 O46 1.953 . S
Zn47 O48 1.949 . S
Zn47 O54 1.919 . S
Zn47 O59 1.924 . S
O48 Zn47 1.949 . S
O48 Zn49 1.923 . S
O48 Zn50 1.950 . S
O48 Zn51 1.937 1_554 S
Zn49 O48 1.923 . S
Zn49 O52 1.933 1_554 S
Zn49 O55 1.953 . S
Zn49 O56 1.965 . S
Zn50 O48 1.950 . S
Zn50 O57 1.938 . S
Zn50 O58 1.906 . S
Zn50 O68 1.953 . S
Zn51 O48 1.937 1_556 S
Zn51 O53 1.938 . S
Zn51 O60 1.975 1_556 S
Zn51 O61 1.913 . S
O52 Zn49 1.933 1_556 S
O52 C63 1.226 . S
O53 Zn51 1.938 . S
O53 C63 1.307 . S
O54 Zn47 1.919 . S
O54 C65 1.253 . S
O55 Zn49 1.953 . S
O55 C65 1.286 . S
O56 Zn49 1.965 . S
O56 C64 1.303 . S
O57 Zn50 1.938 . S
O57 C64 1.247 . S
O58 Zn50 1.906 . S
O58 C66 1.304 . S
O59 Zn47 1.924 . S
O59 C67 1.327 . S
O60 Zn51 1.975 1_554 S
O60 C66 1.272 . S
O61 Zn51 1.913 . S
O61 C67 1.220 1_556 S
C62 O46 1.225 . S
C62 O68 1.298 . S
C63 O52 1.226 . S
C63 O53 1.307 . S
C64 O56 1.303 . S
C64 O57 1.247 . S
C65 O54 1.253 . S
C65 O55 1.286 . S
C66 O58 1.304 . S
C66 O60 1.272 . S
C67 O59 1.327 . S
C67 O61 1.220 1_554 S
O68 Zn50 1.953 . S
O68 C62 1.298 . S
O69 Zn70 1.953 . S
O69 C85 1.225 . S
Zn70 O69 1.953 . S
Zn70 O71 1.949 . S
Zn70 O77 1.919 . S
Zn70 O82 1.924 . S
O71 Zn70 1.949 . S
O71 Zn72 1.923 . S
O71 Zn73 1.950 . S
O71 Zn74 1.945 1_556 S
Zn72 O71 1.923 . S
Zn72 O75 1.933 1_556 S
Zn72 O78 1.956 . S
Zn72 O79 1.965 . S
Zn73 O71 1.950 . S
Zn73 O80 1.938 . S
Zn73 O81 1.906 . S
Zn73 O91 1.953 . S
Zn74 O71 1.945 1_554 S
Zn74 O76 1.932 . S
Zn74 O83 1.977 1_554 S
Zn74 O84 1.910 . S
O75 Zn72 1.933 1_554 S
O75 C86 1.226 . S
O76 Zn74 1.932 . S
O76 C86 1.307 . S
O77 Zn70 1.919 . S
O77 C88 1.253 . S
O78 Zn72 1.956 . S
O78 C88 1.286 . S
O79 Zn72 1.965 . S
O79 C87 1.303 . S
O80 Zn73 1.938 . S
O80 C87 1.247 . S
O81 Zn73 1.906 . S
O81 C89 1.304 . S
O82 Zn70 1.924 . S
O82 C90 1.309 . S
O83 Zn74 1.977 1_556 S
O83 C89 1.272 . S
O84 Zn74 1.910 . S
O84 C90 1.232 1_554 S
C85 O69 1.225 . S
C85 O91 1.298 . S
C86 O75 1.226 . S
C86 O76 1.307 . S
C87 O79 1.303 . S
C87 O80 1.247 . S
C88 O77 1.253 . S
C88 O78 1.286 . S
C89 O81 1.304 . S
C89 O83 1.272 . S
C90 O82 1.309 . S
C90 O84 1.232 1_556 S
O91 Zn73 1.953 . S
O91 C85 1.298 . S
O92 Zn93 1.953 . S
O92 C108 1.225 . S
Zn93 O92 1.953 . S
Zn93 O94 1.949 . S
Zn93 O100 1.919 . S
Zn93 O105 1.924 . S
O94 Zn93 1.949 . S
O94 Zn95 1.923 . S
O94 Zn96 1.950 . S
O94 Zn97 1.945 . S
Zn95 O94 1.923 . S
Zn95 O98 1.933 . S
Zn95 O101 1.941 . S
Zn95 O102 1.965 . S
Zn96 O94 1.950 . S
Zn96 O103 1.938 . S
Zn96 O104 1.906 . S
Zn96 O114 1.953 . S
Zn97 O94 1.945 . S
Zn97 O99 1.932 . S
Zn97 O106 1.977 . S
Zn97 O107 1.910 . S
O98 Zn95 1.933 . S
O98 C109 1.226 . S
O99 Zn97 1.932 . S
O99 C109 1.307 . S
O100 Zn93 1.919 . S
O100 C111 1.253 . S
O101 Zn95 1.941 . S
O101 C111 1.283 . S
O102 Zn95 1.965 . S
O102 C110 1.303 . S
O103 Zn96 1.938 . S
O103 C110 1.247 . S
O104 Zn96 1.906 . S
O104 C112 1.304 . S
O105 Zn93 1.924 . S
O105 C113 1.311 . S
O106 Zn97 1.977 . S
O106 C112 1.272 . S
O107 Zn97 1.910 . S
O107 C113 1.231 . S
C108 O92 1.225 . S
C108 O114 1.298 . S
C109 O98 1.226 . S
C109 O99 1.307 . S
C110 O102 1.303 . S
C110 O103 1.247 . S
C111 O100 1.253 . S
C111 O101 1.283 . S
C112 O104 1.304 . S
C112 O106 1.272 . S
C113 O105 1.311 . S
C113 O107 1.231 . S
O114 Zn96 1.953 . S
O114 C108 1.298 . S
O115 Zn116 1.953 . S
O115 C131 1.225 . S
Zn116 O115 1.953 . S
Zn116 O117 1.949 . S
Zn116 O123 1.919 . S
Zn116 O128 1.924 . S
O117 Zn116 1.949 . S
O117 Zn118 1.923 . S
O117 Zn119 1.950 . S
O117 Zn120 1.945 . S
Zn118 O117 1.923 . S
Zn118 O121 1.933 . S
Zn118 O124 1.946 . S
Zn118 O125 1.965 . S
Zn119 O117 1.950 . S
Zn119 O126 1.938 . S
Zn119 O127 1.906 . S
Zn119 O137 1.953 . S
Zn120 O117 1.945 . S
Zn120 O122 1.932 . S
Zn120 O129 1.977 . S
Zn120 O130 1.910 . S
O121 Zn118 1.933 . S
O121 C132 1.226 . S
O122 Zn120 1.932 . S
O122 C132 1.307 . S
O123 Zn116 1.919 . S
O123 C134 1.253 . S
O124 Zn118 1.946 . S
O124 C134 1.284 . S
O125 Zn118 1.965 . S
O125 C133 1.303 . S
O126 Zn119 1.938 . S
O126 C133 1.247 . S
O127 Zn119 1.906 . S
O127 C135 1.304 . S
O128 Zn116 1.924 . S
O128 C136 1.311 . S
O129 Zn120 1.977 . S
O129 C135 1.272 . S
O130 Zn120 1.910 . S
O130 C136 1.231 . S
C131 O115 1.225 . S
C131 O137 1.298 . S
C132 O121 1.226 . S
C132 O122 1.307 . S
C133 O125 1.303 . S
C133 O126 1.247 . S
C134 O123 1.253 . S
C134 O124 1.284 . S
C135 O127 1.304 . S
C135 O129 1.272 . S
C136 O128 1.311 . S
C136 O130 1.231 . S
O137 Zn119 1.953 . S
O137 C131 1.298 . S
O138 Zn139 1.953 . S
O138 C154 1.225 . S
Zn139 O138 1.953 . S
Zn139 O140 1.949 . S
Zn139 O146 1.919 . S
Zn139 O151 1.924 . S
O140 Zn139 1.949 . S
O140 Zn141 1.923 . S
O140 Zn142 1.950 . S
O140 Zn143 1.945 . S
Zn141 O140 1.923 . S
Zn141 O144 1.933 . S
Zn141 O147 1.942 . S
Zn141 O148 1.965 . S
Zn142 O140 1.950 . S
Zn142 O149 1.938 . S
Zn142 O150 1.906 . S
Zn142 O160 1.953 . S
Zn143 O140 1.945 . S
Zn143 O145 1.932 . S
Zn143 O152 1.977 . S
Zn143 O153 1.910 . S
O144 Zn141 1.933 . S
O144 C155 1.226 . S
O145 Zn143 1.932 . S
O145 C155 1.307 . S
O146 Zn139 1.919 . S
O146 C157 1.253 . S
O147 Zn141 1.942 . S
O147 C157 1.283 . S
O148 Zn141 1.965 . S
O148 C156 1.303 . S
O149 Zn142 1.938 . S
O149 C156 1.247 . S
O150 Zn142 1.906 . S
O150 C158 1.304 . S
O151 Zn139 1.924 . S
O151 C159 1.311 . S
O152 Zn143 1.977 . S
O152 C158 1.272 . S
O153 Zn143 1.910 . S
O153 C159 1.231 . S
C154 O138 1.225 . S
C154 O160 1.298 . S
C155 O144 1.226 . S
C155 O145 1.307 . S
C156 O148 1.303 . S
C156 O149 1.247 . S
C157 O146 1.253 . S
C157 O147 1.283 . S
C158 O150 1.304 . S
C158 O152 1.272 . S
C159 O151 1.311 . S
C159 O153 1.231 . S
O160 Zn142 1.953 . S
O160 C154 1.298 . S
O161 Zn162 1.953 . S
O161 C177 1.225 . S
Zn162 O161 1.953 . S
Zn162 O163 1.949 . S
Zn162 O169 1.919 . S
Zn162 O174 1.924 . S
O163 Zn162 1.949 . S
O163 Zn164 1.923 . S
O163 Zn165 1.950 . S
O163 Zn166 1.945 . S
Zn164 O163 1.923 . S
Zn164 O167 1.933 . S
Zn164 O170 1.943 1_655 S
Zn164 O171 1.965 . S
Zn165 O163 1.950 . S
Zn165 O172 1.938 . S
Zn165 O173 1.906 . S
Zn165 O183 1.953 . S
Zn166 O163 1.945 . S
Zn166 O168 1.932 . S
Zn166 O175 1.977 . S
Zn166 O176 1.910 . S
O167 Zn164 1.933 . S
O167 C178 1.226 . S
O168 Zn166 1.932 . S
O168 C178 1.307 . S
O169 Zn162 1.919 . S
O169 C180 1.253 . S
O170 Zn164 1.943 1_455 S
O170 C180 1.284 1_455 S
O171 Zn164 1.965 . S
O171 C179 1.303 . S
O172 Zn165 1.938 . S
O172 C179 1.247 . S
O173 Zn165 1.906 . S
O173 C181 1.304 . S
O174 Zn162 1.924 . S
O174 C182 1.311 . S
O175 Zn166 1.977 . S
O175 C181 1.272 . S
O176 Zn166 1.910 . S
O176 C182 1.231 . S
C177 O161 1.225 . S
C177 O183 1.298 . S
C178 O167 1.226 . S
C178 O168 1.307 . S
C179 O171 1.303 . S
C179 O172 1.247 . S
C180 O169 1.253 . S
C180 O170 1.284 1_655 S
C181 O173 1.304 . S
C181 O175 1.272 . S
C182 O174 1.311 . S
C182 O176 1.231 . S
O183 Zn165 1.953 . S
O183 C177 1.298 . S
O184 Zn185 1.953 . S
O184 C200 1.225 . S
Zn185 O184 1.953 . S
Zn185 O186 1.949 . S
Zn185 O192 1.919 . S
Zn185 O197 1.924 . S
O186 Zn185 1.949 . S
O186 Zn187 1.923 . S
O186 Zn188 1.950 . S
O186 Zn189 1.945 . S
Zn187 O186 1.923 . S
Zn187 O190 1.933 . S
Zn187 O193 1.941 . S
Zn187 O194 1.965 . S
Zn188 O186 1.950 . S
Zn188 O195 1.938 . S
Zn188 O196 1.906 . S
Zn188 O206 1.953 . S
Zn189 O186 1.945 . S
Zn189 O191 1.932 . S
Zn189 O198 1.977 . S
Zn189 O199 1.910 . S
O190 Zn187 1.933 . S
O190 C201 1.226 . S
O191 Zn189 1.932 . S
O191 C201 1.307 . S
O192 Zn185 1.919 . S
O192 C203 1.253 . S
O193 Zn187 1.941 . S
O193 C203 1.283 . S
O194 Zn187 1.965 . S
O194 C202 1.303 . S
O195 Zn188 1.938 . S
O195 C202 1.247 . S
O196 Zn188 1.906 . S
O196 C204 1.304 . S
O197 Zn185 1.924 . S
O197 C205 1.311 . S
O198 Zn189 1.977 . S
O198 C204 1.272 . S
O199 Zn189 1.910 . S
O199 C205 1.231 . S
C200 O184 1.225 . S
C200 O206 1.298 . S
C201 O190 1.226 . S
C201 O191 1.307 . S
C202 O194 1.303 . S
C202 O195 1.247 . S
C203 O192 1.253 . S
C203 O193 1.283 . S
C204 O196 1.304 . S
C204 O198 1.272 . S
C205 O197 1.311 . S
C205 O199 1.231 . S
O206 Zn188 1.953 . S
O206 C200 1.298 . S
O207 Zn208 1.953 . S
O207 C223 1.225 . S
Zn208 O207 1.953 . S
Zn208 O209 1.949 . S
Zn208 O215 1.919 . S
Zn208 O220 1.924 . S
O209 Zn208 1.949 . S
O209 Zn210 1.923 . S
O209 Zn211 1.950 . S
O209 Zn212 1.945 . S
Zn210 O209 1.923 . S
Zn210 O213 1.933 . S
Zn210 O216 1.941 . S
Zn210 O217 1.965 . S
Zn211 O209 1.950 . S
Zn211 O218 1.938 . S
Zn211 O219 1.906 . S
Zn211 O229 1.953 . S
Zn212 O209 1.945 . S
Zn212 O214 1.932 . S
Zn212 O221 1.977 . S
Zn212 O222 1.910 . S
O213 Zn210 1.933 . S
O213 C224 1.226 . S
O214 Zn212 1.932 . S
O214 C224 1.307 . S
O215 Zn208 1.919 . S
O215 C226 1.253 . S
O216 Zn210 1.941 . S
O216 C226 1.283 . S
O217 Zn210 1.965 . S
O217 C225 1.303 . S
O218 Zn211 1.938 . S
O218 C225 1.247 . S
O219 Zn211 1.906 . S
O219 C227 1.304 . S
O220 Zn208 1.924 . S
O220 C228 1.311 . S
O221 Zn212 1.977 . S
O221 C227 1.272 . S
O222 Zn212 1.910 . S
O222 C228 1.231 . S
C223 O207 1.225 . S
C223 O229 1.298 . S
C224 O213 1.226 . S
C224 O214 1.307 . S
C225 O217 1.303 . S
C225 O218 1.247 . S
C226 O215 1.253 . S
C226 O216 1.283 . S
C227 O219 1.304 . S
C227 O221 1.272 . S
C228 O220 1.311 . S
C228 O222 1.231 . S
O229 Zn211 1.953 . S
O229 C223 1.298 . S
O230 Zn231 1.953 . S
O230 C246 1.225 . S
Zn231 O230 1.953 . S
Zn231 O232 1.949 . S
Zn231 O238 1.919 . S
Zn231 O243 1.924 . S
O232 Zn231 1.949 . S
O232 Zn233 1.923 . S
O232 Zn234 1.950 . S
O232 Zn235 1.945 . S
Zn233 O232 1.923 . S
Zn233 O236 1.933 . S
Zn233 O239 1.941 . S
Zn233 O240 1.965 . S
Zn234 O232 1.950 . S
Zn234 O241 1.938 . S
Zn234 O242 1.906 . S
Zn234 O252 1.953 . S
Zn235 O232 1.945 . S
Zn235 O237 1.932 . S
Zn235 O244 1.977 . S
Zn235 O245 1.910 . S
O236 Zn233 1.933 . S
O236 C247 1.226 . S
O237 Zn235 1.932 . S
O237 C247 1.307 . S
O238 Zn231 1.919 . S
O238 C249 1.253 . S
O239 Zn233 1.941 . S
O239 C249 1.283 . S
O240 Zn233 1.965 . S
O240 C248 1.303 . S
O241 Zn234 1.938 . S
O241 C248 1.247 . S
O242 Zn234 1.906 . S
O242 C250 1.304 . S
O243 Zn231 1.924 . S
O243 C251 1.311 . S
O244 Zn235 1.977 . S
O244 C250 1.272 . S
O245 Zn235 1.910 . S
O245 C251 1.231 . S
C246 O230 1.225 . S
C246 O252 1.298 . S
C247 O236 1.226 . S
C247 O237 1.307 . S
C248 O240 1.303 . S
C248 O241 1.247 . S
C249 O238 1.253 . S
C249 O239 1.283 . S
C250 O242 1.304 . S
C250 O244 1.272 . S
C251 O243 1.311 . S
C251 O245 1.231 . S
O252 Zn234 1.953 . S
O252 C246 1.298 . S
O253 Zn254 1.953 . S
O253 C269 1.225 . S
Zn254 O253 1.953 . S
Zn254 O255 1.949 . S
Zn254 O261 1.919 . S
Zn254 O266 1.924 . S
O255 Zn254 1.949 . S
O255 Zn256 1.923 . S
O255 Zn257 1.950 . S
O255 Zn258 1.945 . S
Zn256 O255 1.923 . S
Zn256 O259 1.933 . S
Zn256 O262 1.941 . S
Zn256 O263 1.965 . S
Zn257 O255 1.950 . S
Zn257 O264 1.938 . S
Zn257 O265 1.906 . S
Zn257 O275 1.953 . S
Zn258 O255 1.945 . S
Zn258 O260 1.932 . S
Zn258 O267 1.977 . S
Zn258 O268 1.910 . S
O259 Zn256 1.933 . S
O259 C270 1.226 . S
O260 Zn258 1.932 . S
O260 C270 1.307 . S
O261 Zn254 1.919 . S
O261 C272 1.253 . S
O262 Zn256 1.941 . S
O262 C272 1.283 . S
O263 Zn256 1.965 . S
O263 C271 1.303 . S
O264 Zn257 1.938 . S
O264 C271 1.247 . S
O265 Zn257 1.906 . S
O265 C273 1.304 . S
O266 Zn254 1.924 . S
O266 C274 1.311 . S
O267 Zn258 1.977 . S
O267 C273 1.272 . S
O268 Zn258 1.910 . S
O268 C274 1.231 . S
C269 O253 1.225 . S
C269 O275 1.298 . S
C270 O259 1.226 . S
C270 O260 1.307 . S
C271 O263 1.303 . S
C271 O264 1.247 . S
C272 O261 1.253 . S
C272 O262 1.283 . S
C273 O265 1.304 . S
C273 O267 1.272 . S
C274 O266 1.311 . S
C274 O268 1.231 . S
O275 Zn257 1.953 . S
O275 C269 1.298 . S
O276 Zn277 1.953 1_556 S
O276 C292 1.225 . S
Zn277 O276 1.953 1_554 S
Zn277 O278 1.949 . S
Zn277 O284 1.919 . S
Zn277 O289 1.924 . S
O278 Zn277 1.949 . S
O278 Zn279 1.923 . S
O278 Zn280 1.950 . S
O278 Zn281 1.945 . S
Zn279 O278 1.923 . S
Zn279 O282 1.933 . S
Zn279 O285 1.941 . S
Zn279 O286 1.965 . S
Zn280 O278 1.950 . S
Zn280 O287 1.938 . S
Zn280 O288 1.906 1_554 S
Zn280 O298 1.953 1_554 S
Zn281 O278 1.945 . S
Zn281 O283 1.932 . S
Zn281 O290 1.977 . S
Zn281 O291 1.910 . S
O282 Zn279 1.933 . S
O282 C293 1.226 . S
O283 Zn281 1.932 . S
O283 C293 1.307 . S
O284 Zn277 1.919 . S
O284 C295 1.253 . S
O285 Zn279 1.941 . S
O285 C295 1.283 . S
O286 Zn279 1.965 . S
O286 C294 1.303 . S
O287 Zn280 1.938 . S
O287 C294 1.247 . S
O288 Zn280 1.906 1_556 S
O288 C296 1.300 1_556 S
O289 Zn277 1.924 . S
O289 C297 1.311 . S
O290 Zn281 1.977 . S
O290 C296 1.278 . S
O291 Zn281 1.910 . S
O291 C297 1.231 . S
C292 O276 1.225 . S
C292 O298 1.298 . S
C293 O282 1.226 . S
C293 O283 1.307 . S
C294 O286 1.303 . S
C294 O287 1.247 . S
C295 O284 1.253 . S
C295 O285 1.283 . S
C296 O288 1.300 1_554 S
C296 O290 1.278 . S
C297 O289 1.311 . S
C297 O291 1.231 . S
O298 Zn280 1.953 1_556 S
O298 C292 1.298 . S
O299 Zn300 1.953 . S
O299 C315 1.225 . S
Zn300 O299 1.953 . S
Zn300 O301 1.949 . S
Zn300 O307 1.919 . S
Zn300 O312 1.924 . S
O301 Zn300 1.949 . S
O301 Zn302 1.923 . S
O301 Zn303 1.950 . S
O301 Zn304 1.923 1_556 S
Zn302 O301 1.923 . S
Zn302 O305 1.933 1_556 S
Zn302 O308 1.941 . S
Zn302 O309 1.965 . S
Zn303 O301 1.950 . S
Zn303 O310 1.938 . S
Zn303 O311 1.906 . S
Zn303 O321 1.953 . S
Zn304 O301 1.923 1_554 S
Zn304 O306 1.948 . S
Zn304 O313 1.973 1_554 S
Zn304 O314 1.918 . S
O305 Zn302 1.933 1_554 S
O305 C316 1.226 . S
O306 Zn304 1.948 . S
O306 C316 1.307 . S
O307 Zn300 1.919 . S
O307 C318 1.253 . S
O308 Zn302 1.941 . S
O308 C318 1.283 . S
O309 Zn302 1.965 . S
O309 C317 1.303 . S
O310 Zn303 1.938 . S
O310 C317 1.247 . S
O311 Zn303 1.906 . S
O311 C319 1.304 . S
O312 Zn300 1.924 . S
O312 C320 1.317 . S
O313 Zn304 1.973 1_556 S
O313 C319 1.272 . S
O314 Zn304 1.918 . S
O314 C320 1.227 1_554 S
C315 O299 1.225 . S
C315 O321 1.298 . S
C316 O305 1.226 . S
C316 O306 1.307 . S
C317 O309 1.303 . S
C317 O310 1.247 . S
C318 O307 1.253 . S
C318 O308 1.283 . S
C319 O311 1.304 . S
C319 O313 1.272 . S
C320 O312 1.317 . S
C320 O314 1.227 1_556 S
O321 Zn303 1.953 . S
O321 C315 1.298 . S
O322 Zn323 1.953 . S
O322 C338 1.225 . S
Zn323 O322 1.953 . S
Zn323 O324 1.949 . S
Zn323 O330 1.919 . S
Zn323 O335 1.924 . S
O324 Zn323 1.949 . S
O324 Zn325 1.923 . S
O324 Zn326 1.950 . S
O324 Zn327 1.925 1_554 S
Zn325 O324 1.923 . S
Zn325 O328 1.933 1_554 S
Zn325 O331 1.941 . S
Zn325 O332 1.965 . S
Zn326 O324 1.950 . S
Zn326 O333 1.938 . S
Zn326 O334 1.906 . S
Zn326 O344 1.953 . S
Zn327 O324 1.925 1_556 S
Zn327 O329 1.947 . S
Zn327 O336 1.974 1_556 S
Zn327 O337 1.917 . S
O328 Zn325 1.933 1_556 S
O328 C339 1.226 . S
O329 Zn327 1.947 . S
O329 C339 1.307 . S
O330 Zn323 1.919 . S
O330 C341 1.253 . S
O331 Zn325 1.941 . S
O331 C341 1.283 . S
O332 Zn325 1.965 . S
O332 C340 1.303 . S
O333 Zn326 1.938 . S
O333 C340 1.247 . S
O334 Zn326 1.906 . S
O334 C342 1.304 . S
O335 Zn323 1.924 . S
O335 C343 1.317 . S
O336 Zn327 1.974 1_554 S
O336 C342 1.272 . S
O337 Zn327 1.917 . S
O337 C343 1.227 1_556 S
C338 O322 1.225 . S
C338 O344 1.298 . S
C339 O328 1.226 . S
C339 O329 1.307 . S
C340 O332 1.303 . S
C340 O333 1.247 . S
C341 O330 1.253 . S
C341 O331 1.283 . S
C342 O334 1.304 . S
C342 O336 1.272 . S
C343 O335 1.317 . S
C343 O337 1.227 1_554 S
O344 Zn326 1.953 . S
O344 C338 1.298 . S
O345 Zn346 1.953 . S
O345 C361 1.225 . S
Zn346 O345 1.953 . S
Zn346 O347 1.949 . S
Zn346 O353 1.919 . S
Zn346 O358 1.924 . S
O347 Zn346 1.949 . S
O347 Zn348 1.923 . S
O347 Zn349 1.950 . S
O347 Zn350 1.944 1_556 S
Zn348 O347 1.923 . S
Zn348 O351 1.933 1_556 S
Zn348 O354 1.941 . S
Zn348 O355 1.965 . S
Zn349 O347 1.950 . S
Zn349 O356 1.938 . S
Zn349 O357 1.906 . S
Zn349 O367 1.953 . S
Zn350 O347 1.944 1_554 S
Zn350 O352 1.932 . S
Zn350 O359 1.976 1_554 S
Zn350 O360 1.910 . S
O351 Zn348 1.933 1_554 S
O351 C362 1.226 . S
O352 Zn350 1.932 . S
O352 C362 1.307 . S
O353 Zn346 1.919 . S
O353 C364 1.253 . S
O354 Zn348 1.941 . S
O354 C364 1.283 . S
O355 Zn348 1.965 . S
O355 C363 1.303 . S
O356 Zn349 1.938 . S
O356 C363 1.247 . S
O357 Zn349 1.906 . S
O357 C365 1.304 . S
O358 Zn346 1.924 . S
O358 C366 1.311 . S
O359 Zn350 1.976 1_556 S
O359 C365 1.272 . S
O360 Zn350 1.910 . S
O360 C366 1.231 1_554 S
C361 O345 1.225 . S
C361 O367 1.298 . S
C362 O351 1.226 . S
C362 O352 1.307 . S
C363 O355 1.303 . S
C363 O356 1.247 . S
C364 O353 1.253 . S
C364 O354 1.283 . S
C365 O357 1.304 . S
C365 O359 1.272 . S
C366 O358 1.311 . S
C366 O360 1.231 1_556 S
O367 Zn349 1.953 . S
O367 C361 1.298 . S
H368 C374 0.930 . S
H369 C378 0.930 . S
H370 C383 0.929 . S
H371 C381 0.929 . S
H372 C376 0.929 . S
H373 C382 0.929 . S
C374 H368 0.930 . S
C374 C375 1.367 . S
C374 C382 1.378 . S
C375 C374 1.367 . S
C375 C383 1.433 . S
C376 H372 0.929 . S
C376 C378 1.378 . S
C376 C380 1.350 . S
C377 C380 1.463 . S
C377 C382 1.350 . S
C377 N385 1.427 . S
C378 H369 0.930 . S
C378 C376 1.378 . S
C378 C379 1.367 . S
C379 C378 1.367 . S
C379 C381 1.433 . S
C380 C376 1.350 . S
C380 C377 1.463 . S
C380 N384 1.427 . S
C381 H371 0.929 . S
C381 C379 1.433 . S
C381 N384 1.384 . S
C382 H373 0.929 . S
C382 C374 1.378 . S
C382 C377 1.350 . S
C383 H370 0.929 . S
C383 C375 1.433 . S
C383 N385 1.384 . S
N384 C380 1.427 . S
N384 C381 1.384 . S
N385 C377 1.427 . S
N385 C383 1.384 . S
H386 C392 0.930 . S
H387 C396 0.930 . S
H388 C401 0.929 . S
H389 C399 0.929 . S
H390 C394 0.929 . S
H391 C400 0.929 . S
C392 H386 0.930 . S
C392 C393 1.367 . S
C392 C400 1.378 . S
C393 C392 1.367 . S
C393 C401 1.433 . S
C394 H390 0.929 . S
C394 C396 1.378 . S
C394 C398 1.350 . S
C395 C398 1.463 . S
C395 C400 1.350 . S
C395 N403 1.427 . S
C396 H387 0.930 . S
C396 C394 1.378 . S
C396 C397 1.367 . S
C397 C396 1.367 . S
C397 C399 1.433 . S
C398 C394 1.350 . S
C398 C395 1.463 . S
C398 N402 1.427 . S
C399 H389 0.929 . S
C399 C397 1.433 . S
C399 N402 1.384 . S
C400 H391 0.929 . S
C400 C392 1.378 . S
C400 C395 1.350 . S
C401 H388 0.929 . S
C401 C393 1.433 . S
C401 N403 1.384 . S
N402 C398 1.427 . S
N402 C399 1.384 . S
N403 C395 1.427 . S
N403 C401 1.384 . S
H404 C410 0.930 . S
H405 C414 0.930 . S
H406 C419 0.929 . S
H407 C417 0.929 . S
H408 C412 0.929 . S
H409 C418 0.929 . S
C410 H404 0.930 . S
C410 C411 1.367 . S
C410 C418 1.378 . S
C411 C410 1.367 . S
C411 C419 1.433 . S
C412 H408 0.929 . S
C412 C414 1.378 . S
C412 C416 1.350 . S
C413 C416 1.463 . S
C413 C418 1.350 . S
C413 N421 1.427 . S
C414 H405 0.930 . S
C414 C412 1.378 . S
C414 C415 1.367 . S
C415 C414 1.367 . S
C415 C417 1.433 . S
C416 C412 1.350 . S
C416 C413 1.463 . S
C416 N420 1.427 . S
C417 H407 0.929 . S
C417 C415 1.433 . S
C417 N420 1.384 . S
C418 H409 0.929 . S
C418 C410 1.378 . S
C418 C413 1.350 . S
C419 H406 0.929 . S
C419 C411 1.433 . S
C419 N421 1.384 . S
N420 C416 1.427 . S
N420 C417 1.384 . S
N421 C413 1.427 . S
N421 C419 1.384 . S
H422 C428 0.930 . S
H423 C432 0.930 . S
H424 C437 0.929 . S
H425 C435 0.929 . S
H426 C430 0.929 . S
H427 C436 0.929 . S
C428 H422 0.930 . S
C428 C429 1.367 . S
C428 C436 1.378 . S
C429 C428 1.367 . S
C429 C437 1.433 . S
C430 H426 0.929 . S
C430 C432 1.378 . S
C430 C434 1.350 . S
C431 C434 1.463 . S
C431 C436 1.350 . S
C431 N439 1.427 . S
C432 H423 0.930 . S
C432 C430 1.378 . S
C432 C433 1.367 . S
C433 C432 1.367 . S
C433 C435 1.433 . S
C434 C430 1.350 . S
C434 C431 1.463 . S
C434 N438 1.427 . S
C435 H425 0.929 . S
C435 C433 1.433 . S
C435 N438 1.384 . S
C436 H427 0.929 . S
C436 C428 1.378 . S
C436 C431 1.350 . S
C437 H424 0.929 . S
C437 C429 1.433 . S
C437 N439 1.384 . S
N438 C434 1.427 . S
N438 C435 1.384 . S
N439 C431 1.427 . S
N439 C437 1.384 . S
H440 C446 0.930 . S
H441 C450 0.930 . S
H442 C455 0.929 . S
H443 C453 0.929 . S
H444 C448 0.929 . S
H445 C454 0.929 . S
C446 H440 0.930 . S
C446 C447 1.367 . S
C446 C454 1.378 . S
C447 C446 1.367 . S
C447 C455 1.433 . S
C448 H444 0.929 . S
C448 C450 1.378 . S
C448 C452 1.350 . S
C449 C452 1.463 . S
C449 C454 1.350 . S
C449 N457 1.427 . S
C450 H441 0.930 . S
C450 C448 1.378 . S
C450 C451 1.367 . S
C451 C450 1.367 . S
C451 C453 1.433 . S
C452 C448 1.350 . S
C452 C449 1.463 . S
C452 N456 1.427 . S
C453 H443 0.929 . S
C453 C451 1.433 . S
C453 N456 1.384 . S
C454 H445 0.929 . S
C454 C446 1.378 . S
C454 C449 1.350 . S
C455 H442 0.929 . S
C455 C447 1.433 . S
C455 N457 1.384 . S
N456 C452 1.427 . S
N456 C453 1.384 . S
N457 C449 1.427 . S
N457 C455 1.384 . S
H458 C464 0.930 . S
H459 C468 0.930 . S
H460 C473 0.929 . S
H461 C471 0.929 . S
H462 C466 0.929 . S
H463 C472 0.929 . S
C464 H458 0.930 . S
C464 C465 1.367 . S
C464 C472 1.378 . S
C465 C464 1.367 . S
C465 C473 1.433 . S
C466 H462 0.929 . S
C466 C468 1.378 . S
C466 C470 1.350 . S
C467 C470 1.463 . S
C467 C472 1.350 . S
C467 N475 1.427 . S
C468 H459 0.930 . S
C468 C466 1.378 . S
C468 C469 1.367 . S
C469 C468 1.367 . S
C469 C471 1.433 . S
C470 C466 1.350 . S
C470 C467 1.463 . S
C470 N474 1.427 . S
C471 H461 0.929 . S
C471 C469 1.433 . S
C471 N474 1.384 . S
C472 H463 0.929 . S
C472 C464 1.378 . S
C472 C467 1.350 . S
C473 H460 0.929 . S
C473 C465 1.433 . S
C473 N475 1.384 . S
N474 C470 1.427 . S
N474 C471 1.384 . S
N475 C467 1.427 . S
N475 C473 1.384 . S
H476 C482 0.930 . S
H477 C486 0.930 . S
H478 C491 0.929 . S
H479 C489 0.929 . S
H480 C484 0.929 . S
H481 C490 0.929 . S
C482 H476 0.930 . S
C482 C483 1.367 . S
C482 C490 1.378 . S
C483 C482 1.367 . S
C483 C491 1.433 . S
C484 H480 0.929 . S
C484 C486 1.378 . S
C484 C488 1.350 . S
C485 C488 1.463 . S
C485 C490 1.350 . S
C485 N493 1.427 . S
C486 H477 0.930 . S
C486 C484 1.378 . S
C486 C487 1.367 . S
C487 C486 1.367 . S
C487 C489 1.433 . S
C488 C484 1.350 . S
C488 C485 1.463 . S
C488 N492 1.427 . S
C489 H479 0.929 . S
C489 C487 1.433 . S
C489 N492 1.384 . S
C490 H481 0.929 . S
C490 C482 1.378 . S
C490 C485 1.350 . S
C491 H478 0.929 . S
C491 C483 1.433 . S
C491 N493 1.384 . S
N492 C488 1.427 . S
N492 C489 1.384 . S
N493 C485 1.427 . S
N493 C491 1.384 . S
H494 C500 0.930 . S
H495 C504 0.930 . S
H496 C509 0.929 . S
H497 C507 0.929 . S
H498 C502 0.929 . S
H499 C508 0.929 . S
C500 H494 0.930 . S
C500 C501 1.367 . S
C500 C508 1.378 . S
C501 C500 1.367 . S
C501 C509 1.433 . S
C502 H498 0.929 . S
C502 C504 1.378 . S
C502 C506 1.350 . S
C503 C506 1.463 . S
C503 C508 1.350 . S
C503 N511 1.427 . S
C504 H495 0.930 . S
C504 C502 1.378 . S
C504 C505 1.367 . S
C505 C504 1.367 . S
C505 C507 1.433 . S
C506 C502 1.350 . S
C506 C503 1.463 . S
C506 N510 1.427 . S
C507 H497 0.929 . S
C507 C505 1.433 . S
C507 N510 1.384 . S
C508 H499 0.929 . S
C508 C500 1.378 . S
C508 C503 1.350 . S
C509 H496 0.929 . S
C509 C501 1.433 . S
C509 N511 1.384 . S
N510 C506 1.427 . S
N510 C507 1.384 . S
N511 C503 1.427 . S
N511 C509 1.384 . S
H512 C518 0.930 1_556 S
H513 C522 0.930 . S
H514 C527 0.929 . S
H515 C525 0.929 . S
H516 C520 0.929 . S
H517 C526 0.929 . S
C518 H512 0.930 1_554 S
C518 C519 1.367 . S
C518 C526 1.378 1_554 S
C519 C518 1.367 . S
C519 C527 1.433 . S
C520 H516 0.929 . S
C520 C522 1.378 . S
C520 C524 1.350 . S
C521 C524 1.463 . S
C521 C526 1.350 1_554 S
C521 N529 1.427 . S
C522 H513 0.930 . S
C522 C520 1.378 . S
C522 C523 1.367 . S
C523 C522 1.367 . S
C523 C525 1.433 1_554 S
C524 C520 1.350 . S
C524 C521 1.463 . S
C524 N528 1.427 1_554 S
C525 H515 0.929 . S
C525 C523 1.433 1_556 S
C525 N528 1.384 . S
C526 H517 0.929 . S
C526 C518 1.378 1_556 S
C526 C521 1.350 1_556 S
C527 H514 0.929 . S
C527 C519 1.433 . S
C527 N529 1.384 . S
N528 C524 1.427 1_556 S
N528 C525 1.384 . S
N529 C521 1.427 . S
N529 C527 1.384 . S
H530 C536 0.930 . S
H531 C540 0.930 . S
H532 C545 0.929 . S
H533 C543 0.929 . S
H534 C538 0.929 . S
H535 C544 0.929 . S
C536 H530 0.930 . S
C536 C537 1.367 . S
C536 C544 1.378 . S
C537 C536 1.367 . S
C537 C545 1.433 1_556 S
C538 H534 0.929 . S
C538 C540 1.378 . S
C538 C542 1.350 . S
C539 C542 1.463 . S
C539 C544 1.350 . S
C539 N547 1.427 . S
C540 H531 0.930 . S
C540 C538 1.378 . S
C540 C541 1.367 . S
C541 C540 1.367 . S
C541 C543 1.433 . S
C542 C538 1.350 . S
C542 C539 1.463 . S
C542 N546 1.427 . S
C543 H533 0.929 . S
C543 C541 1.433 . S
C543 N546 1.384 . S
C544 H535 0.929 . S
C544 C536 1.378 . S
C544 C539 1.350 . S
C545 H532 0.929 . S
C545 C537 1.433 1_554 S
C545 N547 1.384 1_554 S
N546 C542 1.427 . S
N546 C543 1.384 . S
N547 C539 1.427 . S
N547 C545 1.384 1_556 S
H548 C554 0.930 . S
H549 C558 0.930 . S
H550 C563 0.929 . S
H551 C561 0.929 1_556 S
H552 C556 0.929 . S
H553 C562 0.929 . S
C554 H548 0.930 . S
C554 C555 1.367 1_556 S
C554 C562 1.378 . S
C555 C554 1.367 1_554 S
C555 C563 1.433 . S
C556 H552 0.929 . S
C556 C558 1.378 . S
C556 C560 1.350 . S
C557 C560 1.463 . S
C557 C562 1.350 1_554 S
C557 N565 1.427 . S
C558 H549 0.930 . S
C558 C556 1.378 . S
C558 C559 1.367 . S
C559 C558 1.367 . S
C559 C561 1.433 . S
C560 C556 1.350 . S
C560 C557 1.463 . S
C560 N564 1.439 . S
C561 H551 0.929 1_554 S
C561 C559 1.433 . S
C561 N564 1.386 . S
C562 H553 0.929 . S
C562 C554 1.378 . S
C562 C557 1.350 1_556 S
C563 H550 0.929 . S
C563 C555 1.433 . S
C563 N565 1.384 . S
N564 C560 1.439 . S
N564 C561 1.386 . S
N565 C557 1.427 . S
N565 C563 1.384 . S
H566 C572 0.930 . S
H567 C576 0.930 . S
H568 C581 0.929 . S
H569 C579 0.929 . S
H570 C574 0.929 . S
H571 C580 0.929 . S
C572 H566 0.930 . S
C572 C573 1.367 . S
C572 C580 1.378 . S
C573 C572 1.367 . S
C573 C581 1.433 1_556 S
C574 H570 0.929 . S
C574 C576 1.378 . S
C574 C578 1.350 1_554 S
C575 C578 1.463 . S
C575 C580 1.350 . S
C575 N583 1.427 1_556 S
C576 H567 0.930 . S
C576 C574 1.378 . S
C576 C577 1.367 1_554 S
C577 C576 1.367 1_556 S
C577 C579 1.433 . S
C578 C574 1.350 1_556 S
C578 C575 1.463 . S
C578 N582 1.427 . S
C579 H569 0.929 . S
C579 C577 1.433 . S
C579 N582 1.384 . S
C580 H571 0.929 . S
C580 C572 1.378 . S
C580 C575 1.350 . S
C581 H568 0.929 . S
C581 C573 1.433 1_554 S
C581 N583 1.384 . S
N582 C578 1.427 . S
N582 C579 1.384 . S
N583 C575 1.427 1_554 S
N583 C581 1.384 . S
H584 C590 0.930 . S
H585 C594 0.930 . S
H586 C599 0.929 . S
H587 C597 0.929 . S
H588 C592 0.929 . S
H589 C598 0.929 . S
C590 H584 0.930 . S
C590 C591 1.367 . S
C590 C598 1.378 . S
C591 C590 1.367 . S
C591 C599 1.433 . S
C592 H588 0.929 . S
C592 C594 1.378 . S
C592 C596 1.350 . S
C593 C596 1.463 . S
C593 C598 1.350 . S
C593 N601 1.427 . S
C594 H585 0.930 . S
C594 C592 1.378 . S
C594 C595 1.367 . S
C595 C594 1.367 . S
C595 C597 1.433 . S
C596 C592 1.350 . S
C596 C593 1.463 . S
C596 N600 1.427 . S
C597 H587 0.929 . S
C597 C595 1.433 . S
C597 N600 1.384 . S
C598 H589 0.929 . S
C598 C590 1.378 . S
C598 C593 1.350 . S
C599 H586 0.929 . S
C599 C591 1.433 . S
C599 N601 1.384 . S
N600 C596 1.427 . S
N600 C597 1.384 . S
N601 C593 1.427 . S
N601 C599 1.384 . S
H602 C608 0.930 . S
H603 C612 0.930 . S
H604 C617 0.929 . S
H605 C615 0.929 . S
H606 C610 0.929 . S
H607 C616 0.929 . S
C608 H602 0.930 . S
C608 C609 1.367 . S
C608 C616 1.378 . S
C609 C608 1.367 . S
C609 C617 1.433 . S
C610 H606 0.929 . S
C610 C612 1.378 . S
C610 C614 1.350 . S
C611 C614 1.463 . S
C611 C616 1.350 . S
C611 N619 1.427 . S
C612 H603 0.930 . S
C612 C610 1.378 . S
C612 C613 1.367 . S
C613 C612 1.367 . S
C613 C615 1.433 . S
C614 C610 1.350 . S
C614 C611 1.463 . S
C614 N618 1.427 . S
C615 H605 0.929 . S
C615 C613 1.433 . S
C615 N618 1.384 . S
C616 H607 0.929 . S
C616 C608 1.378 . S
C616 C611 1.350 . S
C617 H604 0.929 . S
C617 C609 1.433 . S
C617 N619 1.384 . S
N618 C614 1.427 . S
N618 C615 1.384 . S
N619 C611 1.427 . S
N619 C617 1.384 . S
H620 C626 0.930 . S
H621 C630 0.930 . S
H622 C635 0.929 . S
H623 C633 0.929 . S
H624 C628 0.929 . S
H625 C634 0.929 . S
C626 H620 0.930 . S
C626 C627 1.367 . S
C626 C634 1.378 . S
C627 C626 1.367 . S
C627 C635 1.433 . S
C628 H624 0.929 . S
C628 C630 1.378 . S
C628 C632 1.350 . S
C629 C632 1.463 . S
C629 C634 1.350 . S
C629 N637 1.427 . S
C630 H621 0.930 . S
C630 C628 1.378 . S
C630 C631 1.367 . S
C631 C630 1.367 . S
C631 C633 1.433 . S
C632 C628 1.350 . S
C632 C629 1.463 . S
C632 N636 1.427 . S
C633 H623 0.929 . S
C633 C631 1.433 . S
C633 N636 1.384 . S
C634 H625 0.929 . S
C634 C626 1.378 . S
C634 C629 1.350 . S
C635 H622 0.929 . S
C635 C627 1.433 . S
C635 N637 1.384 . S
N636 C632 1.427 . S
N636 C633 1.384 . S
N637 C629 1.427 . S
N637 C635 1.384 . S
H638 C644 0.930 . S
H639 C648 0.930 . S
H640 C653 0.929 . S
H641 C651 0.929 . S
H642 C646 0.929 . S
H643 C652 0.929 . S
C644 H638 0.930 . S
C644 C645 1.367 . S
C644 C652 1.378 . S
C645 C644 1.367 . S
C645 C653 1.433 . S
C646 H642 0.929 . S
C646 C648 1.378 . S
C646 C650 1.350 . S
C647 C650 1.463 . S
C647 C652 1.350 . S
C647 N655 1.427 . S
C648 H639 0.930 . S
C648 C646 1.378 . S
C648 C649 1.367 . S
C649 C648 1.367 . S
C649 C651 1.433 . S
C650 C646 1.350 . S
C650 C647 1.463 . S
C650 N654 1.427 . S
C651 H641 0.929 . S
C651 C649 1.433 . S
C651 N654 1.384 . S
C652 H643 0.929 . S
C652 C644 1.378 . S
C652 C647 1.350 . S
C653 H640 0.929 . S
C653 C645 1.433 . S
C653 N655 1.384 . S
N654 C650 1.427 . S
N654 C651 1.384 . S
N655 C647 1.427 . S
N655 C653 1.384 . S
H656 C662 0.930 . S
H657 C666 0.930 . S
H658 C671 0.929 . S
H659 C669 0.929 . S
H660 C664 0.929 . S
H661 C670 0.929 . S
C662 H656 0.930 . S
C662 C663 1.367 . S
C662 C670 1.378 . S
C663 C662 1.367 . S
C663 C671 1.433 . S
C664 H660 0.929 . S
C664 C666 1.378 . S
C664 C668 1.350 . S
C665 C668 1.463 . S
C665 C670 1.350 . S
C665 N673 1.427 . S
C666 H657 0.930 . S
C666 C664 1.378 . S
C666 C667 1.367 . S
C667 C666 1.367 . S
C667 C669 1.433 . S
C668 C664 1.350 . S
C668 C665 1.463 . S
C668 N672 1.427 . S
C669 H659 0.929 . S
C669 C667 1.433 . S
C669 N672 1.384 . S
C670 H661 0.929 . S
C670 C662 1.378 . S
C670 C665 1.350 . S
C671 H658 0.929 . S
C671 C663 1.433 . S
C671 N673 1.384 . S
N672 C668 1.427 . S
N672 C669 1.384 . S
N673 C665 1.427 . S
N673 C671 1.384 . S
H674 C680 0.930 . S
H675 C684 0.930 . S
H676 C689 0.929 . S
H677 C687 0.929 . S
H678 C682 0.929 . S
H679 C688 0.929 . S
C680 H674 0.930 . S
C680 C681 1.367 . S
C680 C688 1.378 . S
C681 C680 1.367 . S
C681 C689 1.433 . S
C682 H678 0.929 . S
C682 C684 1.378 . S
C682 C686 1.350 . S
C683 C686 1.463 . S
C683 C688 1.350 . S
C683 N691 1.427 . S
C684 H675 0.930 . S
C684 C682 1.378 . S
C684 C685 1.367 . S
C685 C684 1.367 . S
C685 C687 1.433 . S
C686 C682 1.350 . S
C686 C683 1.463 . S
C686 N690 1.427 . S
C687 H677 0.929 . S
C687 C685 1.433 . S
C687 N690 1.384 . S
C688 H679 0.929 . S
C688 C680 1.378 . S
C688 C683 1.350 . S
C689 H676 0.929 . S
C689 C681 1.433 . S
C689 N691 1.384 . S
N690 C686 1.427 . S
N690 C687 1.384 . S
N691 C683 1.427 . S
N691 C689 1.384 . S
H692 C698 0.930 . S
H693 C702 0.930 . S
H694 C707 0.929 . S
H695 C705 0.929 . S
H696 C700 0.929 . S
H697 C706 0.929 . S
C698 H692 0.930 . S
C698 C699 1.367 . S
C698 C706 1.378 . S
C699 C698 1.367 . S
C699 C707 1.433 . S
C700 H696 0.929 . S
C700 C702 1.378 . S
C700 C704 1.350 . S
C701 C704 1.463 . S
C701 C706 1.350 . S
C701 N709 1.427 . S
C702 H693 0.930 . S
C702 C700 1.378 . S
C702 C703 1.367 . S
C703 C702 1.367 . S
C703 C705 1.433 . S
C704 C700 1.350 . S
C704 C701 1.463 . S
C704 N708 1.427 . S
C705 H695 0.929 . S
C705 C703 1.433 . S
C705 N708 1.384 . S
C706 H697 0.929 . S
C706 C698 1.378 . S
C706 C701 1.350 . S
C707 H694 0.929 . S
C707 C699 1.433 . S
C707 N709 1.384 . S
N708 C704 1.427 . S
N708 C705 1.384 . S
N709 C701 1.427 . S
N709 C707 1.384 . S
H710 C716 0.930 . S
H711 C720 0.930 . S
H712 C725 0.929 . S
H713 C723 0.929 . S
H714 C718 0.929 . S
H715 C724 0.929 . S
C716 H710 0.930 . S
C716 C717 1.367 . S
C716 C724 1.378 . S
C717 C716 1.367 . S
C717 C725 1.433 . S
C718 H714 0.929 . S
C718 C720 1.378 . S
C718 C722 1.350 . S
C719 C722 1.463 . S
C719 C724 1.350 . S
C719 N727 1.427 . S
C720 H711 0.930 . S
C720 C718 1.378 . S
C720 C721 1.367 . S
C721 C720 1.367 . S
C721 C723 1.433 . S
C722 C718 1.350 . S
C722 C719 1.463 . S
C722 N726 1.427 . S
C723 H713 0.929 . S
C723 C721 1.433 . S
C723 N726 1.384 . S
C724 H715 0.929 . S
C724 C716 1.378 . S
C724 C719 1.350 . S
C725 H712 0.929 . S
C725 C717 1.433 . S
C725 N727 1.384 . S
N726 C722 1.427 . S
N726 C723 1.384 . S
N727 C719 1.427 . S
N727 C725 1.384 . S
H728 C734 0.930 . S
H729 C738 0.930 . S
H730 C743 0.929 . S
H731 C741 0.929 1_556 S
H732 C736 0.929 . S
H733 C742 0.929 . S
C734 H728 0.930 . S
C734 C735 1.367 1_556 S
C734 C742 1.378 . S
C735 C734 1.367 1_554 S
C735 C743 1.433 . S
C736 H732 0.929 . S
C736 C738 1.378 . S
C736 C740 1.350 . S
C737 C740 1.463 . S
C737 C742 1.350 1_554 S
C737 N745 1.427 . S
C738 H729 0.930 . S
C738 C736 1.378 . S
C738 C739 1.367 . S
C739 C738 1.367 . S
C739 C741 1.433 . S
C740 C736 1.350 . S
C740 C737 1.463 . S
C740 N744 1.427 1_554 S
C741 H731 0.929 1_554 S
C741 C739 1.433 . S
C741 N744 1.384 1_554 S
C742 H733 0.929 . S
C742 C734 1.378 . S
C742 C737 1.350 1_556 S
C743 H730 0.929 . S
C743 C735 1.433 . S
C743 N745 1.384 . S
N744 C740 1.427 1_556 S
N744 C741 1.384 1_556 S
N745 C737 1.427 . S
N745 C743 1.384 . S
H746 C752 0.937 . S
H747 C756 0.930 . S
H748 C761 0.929 . S
H749 C759 0.929 . S
H750 C754 0.929 . S
H751 C760 0.925 1_554 S
C752 H746 0.937 . S
C752 C753 1.363 1_554 S
C752 C760 1.375 1_554 S
C753 C752 1.363 1_556 S
C753 C761 1.433 . S
C754 H750 0.929 . S
C754 C756 1.378 . S
C754 C758 1.350 . S
C755 C758 1.463 . S
C755 C760 1.350 . S
C755 N763 1.427 . S
C756 H747 0.930 . S
C756 C754 1.378 . S
C756 C757 1.367 . S
C757 C756 1.367 . S
C757 C759 1.433 . S
C758 C754 1.350 . S
C758 C755 1.463 . S
C758 N762 1.427 . S
C759 H749 0.929 . S
C759 C757 1.433 . S
C759 N762 1.384 . S
C760 H751 0.925 1_556 S
C760 C752 1.375 1_556 S
C760 C755 1.350 . S
C761 H748 0.929 . S
C761 C753 1.433 . S
C761 N763 1.384 . S
N762 C758 1.427 . S
N762 C759 1.384 . S
N763 C755 1.427 . S
N763 C761 1.384 . S
H764 C770 0.930 . S
H765 C774 0.930 1_556 S
H766 C779 0.929 . S
H767 C777 0.929 . S
H768 C772 0.929 1_556 S
H769 C778 0.929 . S
C770 H764 0.930 . S
C770 C771 1.367 . S
C770 C778 1.378 . S
C771 C770 1.367 . S
C771 C779 1.433 1_554 S
C772 H768 0.929 1_554 S
C772 C774 1.378 . S
C772 C776 1.350 . S
C773 C776 1.463 . S
C773 C778 1.350 . S
C773 N781 1.427 1_554 S
C774 H765 0.930 1_554 S
C774 C772 1.378 . S
C774 C775 1.367 . S
C775 C774 1.367 . S
C775 C777 1.433 . S
C776 C772 1.350 . S
C776 C773 1.463 . S
C776 N780 1.427 . S
C777 H767 0.929 . S
C777 C775 1.433 . S
C777 N780 1.384 . S
C778 H769 0.929 . S
C778 C770 1.378 . S
C778 C773 1.350 . S
C779 H766 0.929 . S
C779 C771 1.433 1_556 S
C779 N781 1.384 . S
N780 C776 1.427 . S
N780 C777 1.384 . S
N781 C773 1.427 1_556 S
N781 C779 1.384 . S
H782 C788 0.930 1_554 S
H783 C792 0.930 . S
H784 C797 0.929 . S
H785 C795 0.929 . S
H786 C790 0.929 . S
H787 C796 0.923 1_554 S
C788 H782 0.930 1_556 S
C788 C789 1.367 . S
C788 C796 1.379 . S
C789 C788 1.367 . S
C789 C797 1.433 . S
C790 H786 0.929 . S
C790 C792 1.378 . S
C790 C794 1.350 . S
C791 C794 1.463 . S
C791 C796 1.355 . S
C791 N799 1.427 . S
C792 H783 0.930 . S
C792 C790 1.378 . S
C792 C793 1.367 . S
C793 C792 1.367 . S
C793 C795 1.433 1_556 S
C794 C790 1.350 . S
C794 C791 1.463 . S
C794 N798 1.427 1_556 S
C795 H785 0.929 . S
C795 C793 1.433 1_554 S
C795 N798 1.384 . S
C796 H787 0.923 1_556 S
C796 C788 1.379 . S
C796 C791 1.355 . S
C797 H784 0.929 . S
C797 C789 1.433 . S
C797 N799 1.384 . S
N798 C794 1.427 1_554 S
N798 C795 1.384 . S
N799 C791 1.427 . S
N799 C797 1.384 . S
H800 C806 0.930 . S
H801 C810 0.930 . S
H802 C815 0.931 . S
H803 C813 0.929 1_565 S
H804 C808 0.929 . S
H805 C814 0.929 . S
C806 H800 0.930 . S
C806 C807 1.367 . S
C806 C814 1.378 . S
C807 C806 1.367 . S
C807 C815 1.430 1_565 S
C808 H804 0.929 . S
C808 C810 1.378 . S
C808 C812 1.350 . S
C809 C812 1.463 1_565 S
C809 C814 1.350 . S
C809 N817 1.427 1_565 S
C810 H801 0.930 . S
C810 C808 1.378 . S
C810 C811 1.367 . S
C811 C810 1.367 . S
C811 C813 1.433 . S
C812 C808 1.350 . S
C812 C809 1.463 1_545 S
C812 N816 1.427 1_545 S
C813 H803 0.929 1_545 S
C813 C811 1.433 . S
C813 N816 1.384 1_545 S
C814 H805 0.929 . S
C814 C806 1.378 . S
C814 C809 1.350 . S
C815 H802 0.931 . S
C815 C807 1.430 1_545 S
C815 N817 1.385 . S
N816 C812 1.427 1_565 S
N816 C813 1.384 1_565 S
N817 C809 1.427 1_545 S
N817 C815 1.385 . S
H818 C824 0.930 . S
H819 C828 0.930 . S
H820 C833 0.929 . S
H821 C831 0.929 . S
H822 C826 0.929 1_655 S
H823 C832 0.941 . S
C824 H818 0.930 . S
C824 C825 1.367 . S
C824 C832 1.370 1_655 S
C825 C824 1.367 . S
C825 C833 1.433 . S
C826 H822 0.929 1_455 S
C826 C828 1.378 . S
C826 C830 1.350 . S
C827 C830 1.463 1_655 S
C827 C832 1.346 1_655 S
C827 N835 1.427 . S
C828 H819 0.930 . S
C828 C826 1.378 . S
C828 C829 1.367 . S
C829 C828 1.367 . S
C829 C831 1.433 . S
C830 C826 1.350 . S
C830 C827 1.463 1_455 S
C830 N834 1.427 . S
C831 H821 0.929 . S
C831 C829 1.433 . S
C831 N834 1.384 . S
C832 H823 0.941 . S
C832 C824 1.370 1_455 S
C832 C827 1.346 1_455 S
C833 H820 0.929 . S
C833 C825 1.433 . S
C833 N835 1.384 . S
N834 C830 1.427 . S
N834 C831 1.384 . S
N835 C827 1.427 . S
N835 C833 1.384 . S
H836 C842 0.930 . S
H837 C846 0.930 . S
H838 C851 0.929 . S
H839 C849 0.929 . S
H840 C844 0.929 . S
H841 C850 0.929 . S
C842 H836 0.930 . S
C842 C843 1.367 . S
C842 C850 1.378 . S
C843 C842 1.367 . S
C843 C851 1.433 1_565 S
C844 H840 0.929 . S
C844 C846 1.378 . S
C844 C848 1.350 . S
C845 C848 1.463 1_565 S
C845 C850 1.350 . S
C845 N853 1.427 1_565 S
C846 H837 0.930 . S
C846 C844 1.378 . S
C846 C847 1.367 . S
C847 C846 1.367 . S
C847 C849 1.433 1_545 S
C848 C844 1.350 . S
C848 C845 1.463 1_545 S
C848 N852 1.427 1_545 S
C849 H839 0.929 . S
C849 C847 1.433 1_565 S
C849 N852 1.384 . S
C850 H841 0.929 . S
C850 C842 1.378 . S
C850 C845 1.350 . S
C851 H838 0.929 . S
C851 C843 1.433 1_545 S
C851 N853 1.384 . S
N852 C848 1.427 1_565 S
N852 C849 1.384 . S
N853 C845 1.427 1_545 S
N853 C851 1.384 . S
H854 C860 0.930 . S
H855 C864 0.930 . S
H856 C869 0.929 . S
H857 C867 0.929 . S
H858 C862 0.929 . S
H859 C868 0.929 . S
C860 H854 0.930 . S
C860 C861 1.367 . S
C860 C868 1.378 . S
C861 C860 1.367 . S
C861 C869 1.433 . S
C862 H858 0.929 . S
C862 C864 1.378 . S
C862 C866 1.350 . S
C863 C866 1.463 1_655 S
C863 C868 1.350 . S
C863 N871 1.422 1_655 S
C864 H855 0.930 . S
C864 C862 1.378 . S
C864 C865 1.367 . S
C865 C864 1.367 . S
C865 C867 1.433 . S
C866 C862 1.350 . S
C866 C863 1.463 1_455 S
C866 N870 1.427 1_455 S
C867 H857 0.929 . S
C867 C865 1.433 . S
C867 N870 1.384 1_455 S
C868 H859 0.929 . S
C868 C860 1.378 . S
C868 C863 1.350 . S
C869 H856 0.929 . S
C869 C861 1.433 . S
C869 N871 1.377 1_655 S
N870 C866 1.427 1_655 S
N870 C867 1.384 1_655 S
N871 C863 1.422 1_455 S
N871 C869 1.377 1_455 S
H872 C878 0.930 . S
H873 C882 0.930 . S
H874 C887 0.929 . S
H875 C885 0.929 . S
H876 C880 0.929 . S
H877 C886 0.929 . S
C878 H872 0.930 . S
C878 C879 1.367 . S
C878 C886 1.378 . S
C879 C878 1.367 . S
C879 C887 1.433 1_565 S
C880 H876 0.929 . S
C880 C882 1.378 . S
C880 C884 1.350 . S
C881 C884 1.463 1_565 S
C881 C886 1.350 . S
C881 N889 1.427 1_565 S
C882 H873 0.930 . S
C882 C880 1.378 . S
C882 C883 1.367 . S
C883 C882 1.367 . S
C883 C885 1.433 1_545 S
C884 C880 1.350 . S
C884 C881 1.463 1_545 S
C884 N888 1.427 1_545 S
C885 H875 0.929 . S
C885 C883 1.433 1_565 S
C885 N888 1.384 . S
C886 H877 0.929 . S
C886 C878 1.378 . S
C886 C881 1.350 . S
C887 H874 0.929 . S
C887 C879 1.433 1_545 S
C887 N889 1.384 . S
N888 C884 1.427 1_565 S
N888 C885 1.384 . S
N889 C881 1.427 1_545 S
N889 C887 1.384 . S
H890 C896 0.930 . S
H891 C900 0.930 . S
H892 C905 0.929 . S
H893 C903 0.929 . S
H894 C898 0.929 . S
H895 C904 0.929 . S
C896 H890 0.930 . S
C896 C897 1.367 . S
C896 C904 1.378 . S
C897 C896 1.367 . S
C897 C905 1.433 . S
C898 H894 0.929 . S
C898 C900 1.378 . S
C898 C902 1.350 . S
C899 C902 1.463 1_455 S
C899 C904 1.350 . S
C899 N907 1.427 . S
C900 H891 0.930 . S
C900 C898 1.378 . S
C900 C901 1.367 . S
C901 C900 1.367 . S
C901 C903 1.433 . S
C902 C898 1.350 . S
C902 C899 1.463 1_655 S
C902 N906 1.431 . S
C903 H893 0.929 . S
C903 C901 1.433 . S
C903 N906 1.395 . S
C904 H895 0.929 . S
C904 C896 1.378 . S
C904 C899 1.350 . S
C905 H892 0.929 . S
C905 C897 1.433 . S
C905 N907 1.384 . S
N906 C902 1.431 . S
N906 C903 1.395 . S
N907 C899 1.427 . S
N907 C905 1.384 . S
H908 C914 0.930 . S
H909 C918 0.930 . S
H910 C923 0.929 . S
H911 C921 0.929 . S
H912 C916 0.929 . S
H913 C922 0.929 . S
C914 H908 0.930 . S
C914 C915 1.367 1_545 S
C914 C922 1.378 . S
C915 C914 1.367 1_565 S
C915 C923 1.433 . S
C916 H912 0.929 . S
C916 C918 1.378 . S
C916 C920 1.350 1_565 S
C917 C920 1.463 1_565 S
C917 C922 1.350 1_565 S
C917 N925 1.427 . S
C918 H909 0.930 . S
C918 C916 1.378 . S
C918 C919 1.367 1_565 S
C919 C918 1.367 1_545 S
C919 C921 1.433 . S
C920 C916 1.350 1_545 S
C920 C917 1.463 1_545 S
C920 N924 1.427 . S
C921 H911 0.929 . S
C921 C919 1.433 . S
C921 N924 1.384 . S
C922 H913 0.929 . S
C922 C914 1.378 . S
C922 C917 1.350 1_545 S
C923 H910 0.929 . S
C923 C915 1.433 . S
C923 N925 1.384 . S
N924 C920 1.427 . S
N924 C921 1.384 . S
N925 C917 1.427 . S
N925 C923 1.384 . S
H926 C932 0.930 . S
H927 C936 0.930 . S
H928 C941 0.929 . S
H929 C939 0.929 . S
H930 C934 0.929 . S
H931 C940 0.929 . S
C932 H926 0.930 . S
C932 C933 1.367 1_655 S
C932 C940 1.378 . S
C933 C932 1.367 1_455 S
C933 C941 1.433 . S
C934 H930 0.929 . S
C934 C936 1.378 . S
C934 C938 1.350 1_455 S
C935 C938 1.463 1_455 S
C935 C940 1.350 1_455 S
C935 N943 1.427 . S
C936 H927 0.930 . S
C936 C934 1.378 . S
C936 C937 1.367 1_455 S
C937 C936 1.367 1_655 S
C937 C939 1.433 . S
C938 C934 1.350 1_655 S
C938 C935 1.463 1_655 S
C938 N942 1.427 . S
C939 H929 0.929 . S
C939 C937 1.433 . S
C939 N942 1.384 . S
C940 H931 0.929 . S
C940 C932 1.378 . S
C940 C935 1.350 1_655 S
C941 H928 0.929 . S
C941 C933 1.433 . S
C941 N943 1.384 . S
N942 C938 1.427 . S
N942 C939 1.384 . S
N943 C935 1.427 . S
N943 C941 1.384 . S
H944 C950 0.930 . S
H945 C954 0.930 . S
H946 C959 0.929 . S
H947 C957 0.929 . S
H948 C952 0.929 . S
H949 C958 0.929 . S
C950 H944 0.930 . S
C950 C951 1.367 . S
C950 C958 1.378 . S
C951 C950 1.367 . S
C951 C959 1.433 . S
C952 H948 0.929 . S
C952 C954 1.378 . S
C952 C956 1.350 . S
C953 C956 1.463 . S
C953 C958 1.350 . S
C953 N961 1.427 . S
C954 H945 0.930 . S
C954 C952 1.378 . S
C954 C955 1.367 . S
C955 C954 1.367 . S
C955 C957 1.433 . S
C956 C952 1.350 . S
C956 C953 1.463 . S
C956 N960 1.427 . S
C957 H947 0.929 . S
C957 C955 1.433 . S
C957 N960 1.384 . S
C958 H949 0.929 . S
C958 C950 1.378 . S
C958 C953 1.350 . S
C959 H946 0.929 . S
C959 C951 1.433 . S
C959 N961 1.384 . S
N960 C956 1.427 . S
N960 C957 1.384 . S
N961 C953 1.427 . S
N961 C959 1.384 . S
H962 C968 0.930 . S
H963 C972 0.930 . S
H964 C977 0.929 . S
H965 C975 0.929 . S
H966 C970 0.929 . S
H967 C976 0.929 . S
C968 H962 0.930 . S
C968 C969 1.367 . S
C968 C976 1.378 . S
C969 C968 1.367 . S
C969 C977 1.433 . S
C970 H966 0.929 . S
C970 C972 1.378 . S
C970 C974 1.350 . S
C971 C974 1.463 . S
C971 C976 1.350 . S
C971 N979 1.427 . S
C972 H963 0.930 . S
C972 C970 1.378 . S
C972 C973 1.367 . S
C973 C972 1.367 . S
C973 C975 1.433 . S
C974 C970 1.350 . S
C974 C971 1.463 . S
C974 N978 1.427 . S
C975 H965 0.929 . S
C975 C973 1.433 . S
C975 N978 1.384 . S
C976 H967 0.929 . S
C976 C968 1.378 . S
C976 C971 1.350 . S
C977 H964 0.929 . S
C977 C969 1.433 . S
C977 N979 1.384 . S
N978 C974 1.427 . S
N978 C975 1.384 . S
N979 C971 1.427 . S
N979 C977 1.384 . S
H980 C986 0.930 . S
H981 C990 0.930 . S
H982 C995 0.929 . S
H983 C993 0.929 . S
H984 C988 0.929 . S
H985 C994 0.929 . S
C986 H980 0.930 . S
C986 C987 1.367 . S
C986 C994 1.378 . S
C987 C986 1.367 . S
C987 C995 1.433 . S
C988 H984 0.929 . S
C988 C990 1.378 . S
C988 C992 1.350 . S
C989 C992 1.463 . S
C989 C994 1.350 . S
C989 N997 1.427 . S
C990 H981 0.930 . S
C990 C988 1.378 . S
C990 C991 1.367 . S
C991 C990 1.367 . S
C991 C993 1.433 . S
C992 C988 1.350 . S
C992 C989 1.463 . S
C992 N996 1.427 . S
C993 H983 0.929 . S
C993 C991 1.433 . S
C993 N996 1.384 . S
C994 H985 0.929 . S
C994 C986 1.378 . S
C994 C989 1.350 . S
C995 H982 0.929 . S
C995 C987 1.433 . S
C995 N997 1.384 . S
N996 C992 1.427 . S
N996 C993 1.384 . S
N997 C989 1.427 . S
N997 C995 1.384 . S
H998 C1004 0.930 . S
H999 C1008 0.930 . S
H1000 C1013 0.929 . S
H1001 C1011 0.929 . S
H1002 C1006 0.929 . S
H1003 C1012 0.929 . S
C1004 H998 0.930 . S
C1004 C1005 1.367 . S
C1004 C1012 1.378 . S
C1005 C1004 1.367 . S
C1005 C1013 1.433 . S
C1006 H1002 0.929 . S
C1006 C1008 1.378 . S
C1006 C1010 1.350 . S
C1007 C1010 1.463 . S
C1007 C1012 1.350 . S
C1007 N1015 1.427 . S
C1008 H999 0.930 . S
C1008 C1006 1.378 . S
C1008 C1009 1.367 . S
C1009 C1008 1.367 . S
C1009 C1011 1.433 . S
C1010 C1006 1.350 . S
C1010 C1007 1.463 . S
C1010 N1014 1.427 . S
C1011 H1001 0.929 . S
C1011 C1009 1.433 . S
C1011 N1014 1.384 . S
C1012 H1003 0.929 . S
C1012 C1004 1.378 . S
C1012 C1007 1.350 . S
C1013 H1000 0.929 . S
C1013 C1005 1.433 . S
C1013 N1015 1.384 . S
N1014 C1010 1.427 . S
N1014 C1011 1.384 . S
N1015 C1007 1.427 . S
N1015 C1013 1.384 . S
H1016 C1022 0.930 . S
H1017 C1026 0.930 . S
H1018 C1031 0.929 . S
H1019 C1029 0.929 . S
H1020 C1024 0.929 . S
H1021 C1030 0.929 . S
C1022 H1016 0.930 . S
C1022 C1023 1.367 . S
C1022 C1030 1.378 . S
C1023 C1022 1.367 . S
C1023 C1031 1.433 . S
C1024 H1020 0.929 . S
C1024 C1026 1.378 . S
C1024 C1028 1.350 . S
C1025 C1028 1.463 . S
C1025 C1030 1.350 . S
C1025 N1033 1.427 . S
C1026 H1017 0.930 . S
C1026 C1024 1.378 . S
C1026 C1027 1.367 . S
C1027 C1026 1.367 . S
C1027 C1029 1.433 . S
C1028 C1024 1.350 . S
C1028 C1025 1.463 . S
C1028 N1032 1.427 . S
C1029 H1019 0.929 . S
C1029 C1027 1.433 . S
C1029 N1032 1.384 . S
C1030 H1021 0.929 . S
C1030 C1022 1.378 . S
C1030 C1025 1.350 . S
C1031 H1018 0.929 . S
C1031 C1023 1.433 . S
C1031 N1033 1.384 . S
N1032 C1028 1.427 . S
N1032 C1029 1.384 . S
N1033 C1025 1.427 . S
N1033 C1031 1.384 . S
H1034 C1040 0.930 . S
H1035 C1044 0.930 . S
H1036 C1049 0.929 . S
H1037 C1047 0.929 . S
H1038 C1042 0.929 . S
H1039 C1048 0.929 . S
C1040 H1034 0.930 . S
C1040 C1041 1.367 . S
C1040 C1048 1.378 . S
C1041 C1040 1.367 . S
C1041 C1049 1.433 . S
C1042 H1038 0.929 . S
C1042 C1044 1.378 . S
C1042 C1046 1.350 . S
C1043 C1046 1.463 . S
C1043 C1048 1.350 . S
C1043 N1051 1.427 . S
C1044 H1035 0.930 . S
C1044 C1042 1.378 . S
C1044 C1045 1.367 . S
C1045 C1044 1.367 . S
C1045 C1047 1.433 . S
C1046 C1042 1.350 . S
C1046 C1043 1.463 . S
C1046 N1050 1.427 . S
C1047 H1037 0.929 . S
C1047 C1045 1.433 . S
C1047 N1050 1.384 . S
C1048 H1039 0.929 . S
C1048 C1040 1.378 . S
C1048 C1043 1.350 . S
C1049 H1036 0.929 . S
C1049 C1041 1.433 . S
C1049 N1051 1.384 . S
N1050 C1046 1.427 . S
N1050 C1047 1.384 . S
N1051 C1043 1.427 . S
N1051 C1049 1.384 . S
H1052 C1058 0.930 . S
H1053 C1062 0.930 . S
H1054 C1067 0.929 . S
H1055 C1065 0.929 . S
H1056 C1060 0.929 . S
H1057 C1066 0.929 . S
C1058 H1052 0.930 . S
C1058 C1059 1.367 . S
C1058 C1066 1.378 . S
C1059 C1058 1.367 . S
C1059 C1067 1.433 . S
C1060 H1056 0.929 . S
C1060 C1062 1.378 . S
C1060 C1064 1.350 . S
C1061 C1064 1.463 . S
C1061 C1066 1.350 . S
C1061 N1069 1.427 . S
C1062 H1053 0.930 . S
C1062 C1060 1.378 . S
C1062 C1063 1.367 . S
C1063 C1062 1.367 . S
C1063 C1065 1.433 . S
C1064 C1060 1.350 . S
C1064 C1061 1.463 . S
C1064 N1068 1.427 . S
C1065 H1055 0.929 . S
C1065 C1063 1.433 . S
C1065 N1068 1.384 . S
C1066 H1057 0.929 . S
C1066 C1058 1.378 . S
C1066 C1061 1.350 . S
C1067 H1054 0.929 . S
C1067 C1059 1.433 . S
C1067 N1069 1.384 . S
N1068 C1064 1.427 . S
N1068 C1065 1.384 . S
N1069 C1061 1.427 . S
N1069 C1067 1.384 . S
H1070 C1076 0.930 . S
H1071 C1080 0.930 . S
H1072 C1085 0.929 . S
H1073 C1083 0.929 . S
H1074 C1078 0.929 . S
H1075 C1084 0.929 . S
C1076 H1070 0.930 . S
C1076 C1077 1.367 . S
C1076 C1084 1.378 . S
C1077 C1076 1.367 . S
C1077 C1085 1.433 . S
C1078 H1074 0.929 . S
C1078 C1080 1.378 . S
C1078 C1082 1.350 . S
C1079 C1082 1.463 . S
C1079 C1084 1.350 . S
C1079 N1087 1.427 . S
C1080 H1071 0.930 . S
C1080 C1078 1.378 . S
C1080 C1081 1.367 . S
C1081 C1080 1.367 . S
C1081 C1083 1.433 . S
C1082 C1078 1.350 . S
C1082 C1079 1.463 . S
C1082 N1086 1.427 . S
C1083 H1073 0.929 . S
C1083 C1081 1.433 . S
C1083 N1086 1.384 . S
C1084 H1075 0.929 . S
C1084 C1076 1.378 . S
C1084 C1079 1.350 . S
C1085 H1072 0.929 . S
C1085 C1077 1.433 . S
C1085 N1087 1.384 . S
N1086 C1082 1.427 . S
N1086 C1083 1.384 . S
N1087 C1079 1.427 . S
N1087 C1085 1.384 . S
H1088 C1094 0.930 . S
H1089 C1098 0.930 . S
H1090 C1103 0.929 . S
H1091 C1101 0.929 . S
H1092 C1096 0.929 . S
H1093 C1102 0.929 . S
C1094 H1088 0.930 . S
C1094 C1095 1.367 . S
C1094 C1102 1.378 . S
C1095 C1094 1.367 . S
C1095 C1103 1.433 1_556 S
C1096 H1092 0.929 . S
C1096 C1098 1.378 . S
C1096 C1100 1.350 . S
C1097 C1100 1.463 1_556 S
C1097 C1102 1.350 . S
C1097 N1105 1.427 1_556 S
C1098 H1089 0.930 . S
C1098 C1096 1.378 . S
C1098 C1099 1.367 . S
C1099 C1098 1.367 . S
C1099 C1101 1.433 1_554 S
C1100 C1096 1.350 . S
C1100 C1097 1.463 1_554 S
C1100 N1104 1.427 1_554 S
C1101 H1091 0.929 . S
C1101 C1099 1.433 1_556 S
C1101 N1104 1.384 . S
C1102 H1093 0.929 . S
C1102 C1094 1.378 . S
C1102 C1097 1.350 . S
C1103 H1090 0.929 . S
C1103 C1095 1.433 1_554 S
C1103 N1105 1.384 . S
N1104 C1100 1.427 1_556 S
N1104 C1101 1.384 . S
N1105 C1097 1.427 1_554 S
N1105 C1103 1.384 . S
H1106 C1112 0.930 . S
H1107 C1116 0.930 . S
H1108 C1121 0.929 . S
H1109 C1119 0.929 . S
H1110 C1114 0.929 . S
H1111 C1120 0.929 . S
C1112 H1106 0.930 . S
C1112 C1113 1.367 . S
C1112 C1120 1.378 . S
C1113 C1112 1.367 . S
C1113 C1121 1.433 1_554 S
C1114 H1110 0.929 . S
C1114 C1116 1.378 . S
C1114 C1118 1.350 . S
C1115 C1118 1.463 1_554 S
C1115 C1120 1.350 . S
C1115 N1123 1.427 1_554 S
C1116 H1107 0.930 . S
C1116 C1114 1.378 . S
C1116 C1117 1.367 . S
C1117 C1116 1.367 . S
C1117 C1119 1.433 1_556 S
C1118 C1114 1.350 . S
C1118 C1115 1.463 1_556 S
C1118 N1122 1.427 1_556 S
C1119 H1109 0.929 . S
C1119 C1117 1.433 1_554 S
C1119 N1122 1.384 . S
C1120 H1111 0.929 . S
C1120 C1112 1.378 . S
C1120 C1115 1.350 . S
C1121 H1108 0.929 . S
C1121 C1113 1.433 1_556 S
C1121 N1123 1.384 . S
N1122 C1118 1.427 1_554 S
N1122 C1119 1.384 . S
N1123 C1115 1.427 1_556 S
N1123 C1121 1.384 . S
H1124 C1130 0.930 . S
H1125 C1134 0.930 . S
H1126 C1139 0.929 . S
H1127 C1137 0.929 . S
H1128 C1132 0.929 . S
H1129 C1138 0.929 . S
C1130 H1124 0.930 . S
C1130 C1131 1.367 . S
C1130 C1138 1.378 . S
C1131 C1130 1.367 . S
C1131 C1139 1.433 1_554 S
C1132 H1128 0.929 . S
C1132 C1134 1.378 . S
C1132 C1136 1.350 . S
C1133 C1136 1.463 1_554 S
C1133 C1138 1.350 . S
C1133 N1141 1.427 1_554 S
C1134 H1125 0.930 . S
C1134 C1132 1.378 . S
C1134 C1135 1.367 . S
C1135 C1134 1.367 . S
C1135 C1137 1.433 1_556 S
C1136 C1132 1.350 . S
C1136 C1133 1.463 1_556 S
C1136 N1140 1.427 1_556 S
C1137 H1127 0.929 . S
C1137 C1135 1.433 1_554 S
C1137 N1140 1.384 . S
C1138 H1129 0.929 . S
C1138 C1130 1.378 . S
C1138 C1133 1.350 . S
C1139 H1126 0.929 . S
C1139 C1131 1.433 1_556 S
C1139 N1141 1.384 . S
N1140 C1136 1.427 1_554 S
N1140 C1137 1.384 . S
N1141 C1133 1.427 1_556 S
N1141 C1139 1.384 . S
H1142 C1148 0.930 . S
H1143 C1152 0.930 . S
H1144 C1157 0.929 1_556 S
H1145 C1155 0.929 1_554 S
H1146 C1150 0.929 . S
H1147 C1156 0.929 . S
C1148 H1142 0.930 . S
C1148 C1149 1.367 . S
C1148 C1156 1.378 . S
C1149 C1148 1.367 . S
C1149 C1157 1.433 . S
C1150 H1146 0.929 . S
C1150 C1152 1.378 . S
C1150 C1154 1.350 . S
C1151 C1154 1.463 1_554 S
C1151 C1156 1.350 . S
C1151 N1159 1.427 1_554 S
C1152 H1143 0.930 . S
C1152 C1150 1.378 . S
C1152 C1153 1.367 . S
C1153 C1152 1.367 . S
C1153 C1155 1.433 . S
C1154 C1150 1.350 . S
C1154 C1151 1.463 1_556 S
C1154 N1158 1.427 1_556 S
C1155 H1145 0.929 1_556 S
C1155 C1153 1.433 . S
C1155 N1158 1.384 1_556 S
C1156 H1147 0.929 . S
C1156 C1148 1.378 . S
C1156 C1151 1.350 . S
C1157 H1144 0.929 1_554 S
C1157 C1149 1.433 . S
C1157 N1159 1.384 1_554 S
N1158 C1154 1.427 1_554 S
N1158 C1155 1.384 1_554 S
N1159 C1151 1.427 1_556 S
N1159 C1157 1.384 1_556 S
H1160 C1166 0.930 . S
H1161 C1170 0.930 . S
H1162 C1175 0.929 . S
H1163 C1173 0.929 . S
H1164 C1168 0.929 . S
H1165 C1174 0.929 . S
C1166 H1160 0.930 . S
C1166 C1167 1.367 . S
C1166 C1174 1.378 . S
C1167 C1166 1.367 . S
C1167 C1175 1.433 . S
C1168 H1164 0.929 . S
C1168 C1170 1.378 . S
C1168 C1172 1.350 . S
C1169 C1172 1.463 . S
C1169 C1174 1.350 . S
C1169 N1177 1.427 . S
C1170 H1161 0.930 . S
C1170 C1168 1.378 . S
C1170 C1171 1.367 . S
C1171 C1170 1.367 . S
C1171 C1173 1.433 . S
C1172 C1168 1.350 . S
C1172 C1169 1.463 . S
C1172 N1176 1.427 . S
C1173 H1163 0.929 . S
C1173 C1171 1.433 . S
C1173 N1176 1.384 . S
C1174 H1165 0.929 . S
C1174 C1166 1.378 . S
C1174 C1169 1.350 . S
C1175 H1162 0.929 . S
C1175 C1167 1.433 . S
C1175 N1177 1.384 . S
N1176 C1172 1.427 . S
N1176 C1173 1.384 . S
N1177 C1169 1.427 . S
N1177 C1175 1.384 . S
H1178 C1184 0.930 . S
H1179 C1188 0.930 . S
H1180 C1193 0.929 . S
H1181 C1191 0.929 . S
H1182 C1186 0.929 . S
H1183 C1192 0.929 . S
C1184 H1178 0.930 . S
C1184 C1185 1.367 . S
C1184 C1192 1.378 . S
C1185 C1184 1.367 . S
C1185 C1193 1.433 . S
C1186 H1182 0.929 . S
C1186 C1188 1.378 . S
C1186 C1190 1.350 . S
C1187 C1190 1.463 . S
C1187 C1192 1.350 . S
C1187 N1195 1.427 . S
C1188 H1179 0.930 . S
C1188 C1186 1.378 . S
C1188 C1189 1.367 . S
C1189 C1188 1.367 . S
C1189 C1191 1.433 . S
C1190 C1186 1.350 . S
C1190 C1187 1.463 . S
C1190 N1194 1.427 . S
C1191 H1181 0.929 . S
C1191 C1189 1.433 . S
C1191 N1194 1.384 . S
C1192 H1183 0.929 . S
C1192 C1184 1.378 . S
C1192 C1187 1.350 . S
C1193 H1180 0.929 . S
C1193 C1185 1.433 . S
C1193 N1195 1.384 . S
N1194 C1190 1.427 . S
N1194 C1191 1.384 . S
N1195 C1187 1.427 . S
N1195 C1193 1.384 . S
H1196 C1202 0.930 . S
H1197 C1206 0.930 . S
H1198 C1211 0.929 . S
H1199 C1209 0.929 . S
H1200 C1204 0.929 . S
H1201 C1210 0.929 . S
C1202 H1196 0.930 . S
C1202 C1203 1.367 . S
C1202 C1210 1.378 . S
C1203 C1202 1.367 . S
C1203 C1211 1.433 . S
C1204 H1200 0.929 . S
C1204 C1206 1.378 . S
C1204 C1208 1.350 . S
C1205 C1208 1.463 . S
C1205 C1210 1.350 . S
C1205 N1213 1.427 . S
C1206 H1197 0.930 . S
C1206 C1204 1.378 . S
C1206 C1207 1.367 . S
C1207 C1206 1.367 . S
C1207 C1209 1.433 . S
C1208 C1204 1.350 . S
C1208 C1205 1.463 . S
C1208 N1212 1.427 . S
C1209 H1199 0.929 . S
C1209 C1207 1.433 . S
C1209 N1212 1.384 . S
C1210 H1201 0.929 . S
C1210 C1202 1.378 . S
C1210 C1205 1.350 . S
C1211 H1198 0.929 . S
C1211 C1203 1.433 . S
C1211 N1213 1.384 . S
N1212 C1208 1.427 . S
N1212 C1209 1.384 . S
N1213 C1205 1.427 . S
N1213 C1211 1.384 . S
H1214 C1220 0.930 . S
H1215 C1224 0.930 . S
H1216 C1229 0.929 . S
H1217 C1227 0.929 . S
H1218 C1222 0.929 . S
H1219 C1228 0.929 . S
C1220 H1214 0.930 . S
C1220 C1221 1.367 . S
C1220 C1228 1.378 . S
C1221 C1220 1.367 . S
C1221 C1229 1.433 . S
C1222 H1218 0.929 . S
C1222 C1224 1.378 . S
C1222 C1226 1.350 . S
C1223 C1226 1.463 . S
C1223 C1228 1.350 . S
C1223 N1231 1.427 . S
C1224 H1215 0.930 . S
C1224 C1222 1.378 . S
C1224 C1225 1.367 . S
C1225 C1224 1.367 . S
C1225 C1227 1.433 . S
C1226 C1222 1.350 . S
C1226 C1223 1.463 . S
C1226 N1230 1.427 . S
C1227 H1217 0.929 . S
C1227 C1225 1.433 . S
C1227 N1230 1.384 . S
C1228 H1219 0.929 . S
C1228 C1220 1.378 . S
C1228 C1223 1.350 . S
C1229 H1216 0.929 . S
C1229 C1221 1.433 . S
C1229 N1231 1.384 . S
N1230 C1226 1.427 . S
N1230 C1227 1.384 . S
N1231 C1223 1.427 . S
N1231 C1229 1.384 . S
C375 C16 1.098 . S
C379 C131 1.098 . S
C393 C39 1.095 . S
C397 C154 1.096 . S
C411 C177 1.081 . S
C415 C62 1.079 . S
C429 C109 1.072 . S
C433 C85 1.076 . S
C447 C315 1.088 . S
C451 C200 1.087 . S
C465 C223 1.094 . S
C469 C338 1.095 . S
C483 C361 1.086 . S
C487 C246 1.084 . S
C501 C293 1.075 . S
C505 C269 1.076 . S
C519 C19 1.565 1_565 S
C523 C44 1.531 1_554 S
C537 C67 1.540 1_556 S
C541 C42 1.567 1_655 S
C555 C90 1.553 1_554 S
C559 C65 1.575 1_545 S
C573 C88 1.560 1_455 S
C577 C21 1.536 1_556 S
C591 C110 1.570 1_565 S
C595 C182 1.535 . S
C609 C112 1.546 . S
C613 C134 1.533 1_655 S
C627 C136 1.532 . S
C631 C157 1.553 1_545 S
C645 C159 1.536 . S
C649 C180 1.558 1_455 S
C663 C203 1.567 . S
C667 C228 1.538 . S
C681 C251 1.537 . S
C685 C226 1.561 . S
C699 C249 1.573 . S
C703 C274 1.549 . S
C717 C272 1.567 . S
C721 C205 1.541 . S
C735 C366 1.533 1_554 S
C739 C294 1.571 . S
C753 C296 1.546 1_556 S
C757 C318 1.535 . S
C771 C320 1.532 1_554 S
C775 C341 1.558 . S
C789 C364 1.562 . S
C793 C343 1.531 1_556 S
C807 C156 1.459 . S
C811 C17 1.458 . S
C825 C179 1.453 . S
C829 C40 1.463 . S
C843 C63 1.477 . S
C847 C111 1.449 . S
C861 C86 1.465 . S
C865 C133 1.454 . S
C879 C64 1.501 . S
C883 C108 1.504 . S
C897 C132 1.464 . S
C901 C87 1.467 . S
C915 C155 1.464 . S
C919 C18 1.461 . S
C933 C41 1.469 . S
C937 C178 1.466 . S
C951 C201 1.460 . S
C955 C340 1.455 . S
C969 C224 1.454 . S
C973 C363 1.458 . S
C987 C295 1.451 . S
C991 C247 1.476 . S
C1005 C270 1.459 . S
C1009 C317 1.463 . S
C1023 C292 1.509 . S
C1027 C248 1.508 . S
C1041 C316 1.463 . S
C1045 C271 1.466 . S
C1059 C339 1.458 . S
C1063 C202 1.455 . S
C1077 C225 1.468 . S
C1081 C362 1.464 . S
C1095 C365 1.264 . S
C1099 C20 1.270 . S
C1113 C297 1.279 . S
C1117 C43 1.281 . S
C1131 C66 1.258 . S
C1135 C319 1.255 . S
C1149 C342 1.236 . S
C1153 C89 1.246 . S
C1167 C113 1.285 . S
C1171 C227 1.271 . S
C1185 C135 1.258 . S
C1189 C250 1.254 . S
C1203 C273 1.239 . S
C1207 C158 1.243 . S
C1221 C181 1.266 . S
C1225 C204 1.267 . S
