# Generated by pormake.
# Topology ukg, (4)-cn, num edge types: 1
# Building blocks:
#     Node 0, Type 0, BuildingBlock: KOZSID_clean_sbu_0, # of connection points: 4
#     Node 1, Type 0, BuildingBlock: KOZSID_clean_sbu_0, # of connection points: 4
#     Node 2, Type 0, BuildingBlock: KOZSID_clean_sbu_0, # of connection points: 4
#     Node 3, Type 0, BuildingBlock: KOZSID_clean_sbu_0, # of connection points: 4
#     Node 4, Type 0, BuildingBlock: KOZSID_clean_sbu_0, # of connection points: 4
#     Node 5, Type 0, BuildingBlock: KOZSID_clean_sbu_0, # of connection points: 4
#     Node 6, Type 0, BuildingBlock: KOZSID_clean_sbu_0, # of connection points: 4
#     Node 7, Type 0, BuildingBlock: KOZSID_clean_sbu_0, # of connection points: 4
#     Edge 8, Type (0, 0), BuildingBlock: XUDNAN_clean_linker_2, # of connection points: 2
#     Edge 9, Type (0, 0), BuildingBlock: XUDNAN_clean_linker_2, # of connection points: 2
#     Edge 10, Type (0, 0), BuildingBlock: XUDNAN_clean_linker_2, # of connection points: 2
#     Edge 11, Type (0, 0), BuildingBlock: XUDNAN_clean_linker_2, # of connection points: 2
#     Edge 12, Type (0, 0), BuildingBlock: XUDNAN_clean_linker_2, # of connection points: 2
#     Edge 13, Type (0, 0), BuildingBlock: XUDNAN_clean_linker_2, # of connection points: 2
#     Edge 14, Type (0, 0), BuildingBlock: XUDNAN_clean_linker_2, # of connection points: 2
#     Edge 15, Type (0, 0), BuildingBlock: XUDNAN_clean_linker_2, # of connection points: 2
#     Edge 16, Type (0, 0), BuildingBlock: XUDNAN_clean_linker_2, # of connection points: 2
#     Edge 17, Type (0, 0), BuildingBlock: XUDNAN_clean_linker_2, # of connection points: 2
#     Edge 18, Type (0, 0), BuildingBlock: XUDNAN_clean_linker_2, # of connection points: 2
#     Edge 19, Type (0, 0), BuildingBlock: XUDNAN_clean_linker_2, # of connection points: 2
#     Edge 20, Type (0, 0), BuildingBlock: XUDNAN_clean_linker_2, # of connection points: 2
#     Edge 21, Type (0, 0), BuildingBlock: XUDNAN_clean_linker_2, # of connection points: 2
#     Edge 22, Type (0, 0), BuildingBlock: XUDNAN_clean_linker_2, # of connection points: 2
#     Edge 23, Type (0, 0), BuildingBlock: XUDNAN_clean_linker_2, # of connection points: 2
# Relax obj value: 0.107
# Max RMSD: 0.261
# Mean RMSD: 0.246
data_MOF--net-ukg--node1-KOZSID_clean_sbu_0--edge1-XUDNAN_clean_linker_2
_symmetry_space_group_name_H-M    P1
_symmetry_Int_Tables_number       1
_symmetry_cell_setting            triclinic
loop_
_symmetry_equiv_pos_as_xyz
'x, y, z'
_cell_length_a     35.455857
_cell_length_b     35.724356
_cell_length_c     48.841148
_cell_angle_alpha  90.370753
_cell_angle_beta   89.423892
_cell_angle_gamma 89.945595
loop_
_atom_site_label
_atom_site_type_symbol
_atom_site_fract_x
_atom_site_fract_y
_atom_site_fract_z
_atom_type_partial_charge
C0 C 0.96038 0.63194 0.16358 0.0
C1 C 0.93154 0.64958 0.1496 0.0
C2 C 0.94614 0.68216 0.1395 0.0
C3 C 0.98307 0.68247 0.14756 0.0
N4 N 0.99306 0.65186 0.16174 0.0
Co5 Co 0.04452 0.64128 0.17633 0.0
N6 N 0.06792 0.68453 0.15625 0.0
C7 C 0.04865 0.71209 0.14387 0.0
C8 C 0.07125 0.73967 0.13331 0.0
C9 C 0.10721 0.72941 0.13974 0.0
C10 C 0.1046 0.69585 0.15381 0.0
N11 N 0.09609 0.63021 0.19055 0.0
C12 C 0.13046 0.64423 0.18338 0.0
C13 C 0.15925 0.62578 0.19692 0.0
C14 C 0.14246 0.60076 0.21411 0.0
C15 C 0.10458 0.60473 0.20976 0.0
N16 N 0.02132 0.59843 0.19691 0.0
C17 C 0.03847 0.57834 0.21649 0.0
C18 C 1.01608 0.55141 0.22796 0.0
C19 C 0.98225 0.55478 0.21523 0.0
C20 C 0.9859 0.58367 0.1964 0.0
N21 N 0.05387 0.60806 0.14457 0.0
C22 C 0.0502 0.55707 0.10058 0.0
C23 C 0.06141 0.5454 0.12662 0.0
C24 C 0.06362 0.57137 0.14817 0.0
C25 C 0.04397 0.59528 0.09653 0.0
C26 C 0.04583 0.62018 0.11871 0.0
N27 N 0.03377 0.67476 0.20771 0.0
C28 C 0.98653 0.7021 0.23751 0.0
C29 C 1.01087 0.73116 0.24453 0.0
C30 C 0.04805 0.72995 0.2345 0.0
C31 C 0.05895 0.70146 0.21608 0.0
C32 C 0.99861 0.67415 0.21951 0.0
H33 H 0.08721 0.70202 0.20789 0.0
H34 H 0.97851 0.65306 0.21436 0.0
H35 H 0.07142 0.56119 0.16798 0.0
H36 H 0.03864 0.64888 0.115 0.0
C37 C 1.00966 0.70971 0.14077 0.0
C38 C 0.95375 0.5994 0.18144 0.0
C39 C 0.13714 0.67802 0.16695 0.0
C40 C 0.07666 0.58275 0.22159 0.0
H41 H 0.90256 0.64047 0.1478 0.0
H42 H 0.93156 0.7031 0.12767 0.0
H43 H 0.06263 0.76433 0.12223 0.0
H44 H 0.13234 0.74541 0.13517 0.0
H45 H 0.18928 0.63077 0.1952 0.0
H46 H 0.15627 0.58163 0.22789 0.0
H47 H 0.02355 0.53145 0.24359 0.0
H48 H 0.95766 0.53823 0.22009 0.0
H49 H 0.06724 0.51616 0.13054 0.0
H50 H 0.03531 0.60559 0.07674 0.0
H51 H 0.95785 0.70143 0.2454 0.0
H52 H 0.06796 0.75173 0.23981 0.0
C53 C 0.42018 0.52675 0.622 0.0
C54 C 0.44916 0.55275 0.62107 0.0
C55 C 0.44465 0.57541 0.64372 0.0
C56 C 0.41317 0.56211 0.65711 0.0
N57 N 0.39772 0.53252 0.64427 0.0
Co58 Co 0.35214 0.50473 0.65666 0.0
N59 N 0.35606 0.52421 0.69464 0.0
C60 C 0.37765 0.55321 0.70263 0.0
C61 C 0.37597 0.55948 0.73036 0.0
C62 C 0.35144 0.53311 0.74037 0.0
C63 C 0.33891 0.51242 0.71806 0.0
N64 N 0.30575 0.47765 0.66835 0.0
C65 C 0.29168 0.47075 0.69375 0.0
C66 C 0.25676 0.45308 0.69208 0.0
C67 C 0.24905 0.44871 0.66487 0.0
C68 C 0.27923 0.46412 0.65138 0.0
N69 N 0.34857 0.48493 0.61869 0.0
C70 C 0.31778 0.46976 0.60724 0.0
C71 C 0.32404 0.45744 0.58091 0.0
C72 C 0.3611 0.4655 0.57538 0.0
C73 C 0.37531 0.4827 0.59868 0.0
N74 N 0.38372 0.46175 0.66751 0.0
C75 C 0.42368 0.40615 0.69632 0.0
C76 C 0.38847 0.39837 0.68439 0.0
C77 C 0.36956 0.42617 0.66942 0.0
C78 C 0.43977 0.44111 0.69055 0.0
C79 C 0.41909 0.46854 0.67731 0.0
N80 N 0.32105 0.54859 0.64721 0.0
C81 C 0.3148 0.60756 0.62352 0.0
C82 C 0.28959 0.62074 0.64376 0.0
C83 C 0.27749 0.59548 0.6638 0.0
C84 C 0.29356 0.55998 0.66527 0.0
C85 C 0.32993 0.57116 0.62547 0.0
H86 H 0.28542 0.54295 0.68238 0.0
H87 H 0.35063 0.56227 0.61042 0.0
H88 H 0.34256 0.41927 0.66078 0.0
H89 H 0.43158 0.49583 0.67662 0.0
C90 C 0.40241 0.5707 0.68412 0.0
C91 C 0.41351 0.49823 0.60084 0.0
C92 C 0.30819 0.48445 0.71952 0.0
C93 C 0.28595 0.46189 0.6232 0.0
H94 H 0.4713 0.55491 0.60574 0.0
H95 H 0.46331 0.59757 0.65035 0.0
H96 H 0.39147 0.58009 0.74204 0.0
H97 H 0.3433 0.52994 0.76163 0.0
H98 H 0.23804 0.44499 0.7086 0.0
H99 H 0.2246 0.43534 0.65603 0.0
H100 H 0.30453 0.4428 0.56773 0.0
H101 H 0.37577 0.45918 0.5564 0.0
H102 H 0.37461 0.37175 0.6874 0.0
H103 H 0.46778 0.44845 0.69725 0.0
H104 H 0.32457 0.62587 0.60737 0.0
H105 H 0.25715 0.60384 0.67939 0.0
C106 C 0.55881 0.86475 0.16349 0.0
C107 C 0.59074 0.84594 0.15416 0.0
C108 C 0.57983 0.81004 0.14836 0.0
C109 C 0.54198 0.80893 0.15439 0.0
N110 N 0.52807 0.84199 0.16329 0.0
Co111 Co 0.47509 0.85118 0.17594 0.0
N112 N 0.45677 0.80238 0.16038 0.0
C113 C 0.47905 0.77393 0.15186 0.0
C114 C 0.45929 0.74302 0.14342 0.0
C115 C 0.42211 0.75214 0.14721 0.0
C116 C 0.42118 0.78832 0.15774 0.0
N117 N 0.42216 0.86031 0.18877 0.0
C118 C 0.38949 0.84228 0.18266 0.0
C119 C 0.35863 0.8602 0.19467 0.0
C120 C 0.3724 0.88928 0.20976 0.0
C121 C 0.41066 0.88805 0.20577 0.0
N122 N 0.49283 0.90007 0.1914 0.0
C123 C 0.47332 0.92247 0.20876 0.0
C124 C 0.49216 0.9545 0.21585 0.0
C125 C 0.52603 0.95215 0.20243 0.0
C126 C 0.52594 0.91862 0.18783 0.0
N127 N 0.46463 0.8761 0.14093 0.0
C128 C 0.46232 0.91497 0.09107 0.0
C129 C 0.45013 0.93205 0.11551 0.0
C130 C 0.45085 0.91192 0.14012 0.0
C131 C 0.47415 0.87766 0.09196 0.0
C132 C 0.47542 0.85896 0.11696 0.0
N133 N 0.48753 0.82579 0.21057 0.0
C134 C 0.53776 0.81097 0.24158 0.0
C135 C 0.5219 0.77595 0.24697 0.0
C136 C 0.48572 0.76863 0.23678 0.0
C137 C 0.46872 0.79431 0.21895 0.0
C138 C 0.52031 0.83525 0.22347 0.0
H139 H 0.44169 0.78723 0.21048 0.0
H140 H 0.53549 0.86018 0.21838 0.0
H141 H 0.44133 0.92583 0.15853 0.0
H142 H 0.48653 0.83099 0.11682 0.0
C143 C 0.51814 0.77838 0.15013 0.0
C144 C 0.55983 0.90307 0.17455 0.0
C145 C 0.3864 0.8062 0.16813 0.0
C146 C 0.43576 0.9151 0.21497 0.0
H147 H 0.61911 0.85687 0.15232 0.0
H148 H 0.59739 0.7875 0.14054 0.0
H149 H 0.47057 0.71694 0.13543 0.0
H150 H 0.39844 0.73379 0.14344 0.0
H151 H 0.32918 0.85263 0.19312 0.0
H152 H 0.35632 0.90952 0.22164 0.0
H153 H 0.48219 0.9772 0.22881 0.0
H154 H 0.54863 0.97237 0.2039 0.0
H155 H 0.44018 0.96072 0.1156 0.0
H156 H 0.48379 0.86339 0.07353 0.0
H157 H 0.56488 0.81873 0.24991 0.0
H158 H 0.47177 0.7423 0.24096 0.0
C159 C 0.07278 0.98836 0.6183 0.0
C160 C 0.03468 0.98186 0.62319 0.0
C161 C 0.0297 0.98153 0.65099 0.0
C162 C 0.06481 0.98793 0.66153 0.0
N163 N 0.09184 0.99184 0.64216 0.0
Co164 Co 0.14583 1.0041 0.649 0.0
N165 N 0.14118 0.99067 0.68849 0.0
C166 C 0.10865 0.9865 0.70263 0.0
C167 C 0.1139 0.97817 0.7297 0.0
C168 C 0.15217 0.97751 0.73299 0.0
C169 C 0.16814 0.98555 0.70762 0.0
N170 N 0.19971 0.01659 0.65584 0.0
C171 C 0.22173 1.00894 0.67765 0.0
C172 C 0.25805 0.02263 0.67377 0.0
C173 C 0.25857 0.04003 0.64893 0.0
C174 C 0.22278 0.03587 0.639 0.0
N175 N 0.15037 0.01778 0.60956 0.0
C176 C 0.17913 0.03669 0.5979 0.0
C177 C 0.17519 0.04147 0.57025 0.0
C178 C 0.14158 0.02496 0.56401 0.0
C179 C 0.1266 1.0114 0.5884 0.0
N180 N 0.13127 0.0558 0.65835 0.0
C181 C 0.10083 0.12353 0.67821 0.0
C182 C 0.13061 0.10585 0.69168 0.0
C183 C 0.14551 0.07239 0.68135 0.0
C184 C 0.08863 0.10786 0.65339 0.0
C185 C 0.10425 0.07415 0.64379 0.0
N186 N 0.16036 0.95213 0.64043 0.0
C187 C 0.20662 0.90761 0.62366 0.0
C188 C 0.18888 0.87881 0.63824 0.0
C189 C 0.15511 0.88691 0.65211 0.0
C190 C 0.14116 0.92349 0.6527 0.0
C191 C 0.19187 0.94413 0.62502 0.0
H192 H 0.11589 0.92885 0.66447 0.0
H193 H 0.2071 0.96614 0.61478 0.0
H194 H 0.16731 0.0591 0.69293 0.0
H195 H 0.09328 0.06224 0.6252 0.0
C196 C 0.07409 0.98658 0.68921 0.0
C197 C 0.0887 0.99519 0.59092 0.0
C198 C 0.2085 0.99264 0.7035 0.0
C199 C 0.21143 0.04517 0.6127 0.0
H200 H 1.01254 0.97872 0.60827 0.0
H201 H 1.00363 0.97681 0.66217 0.0
H202 H 0.0925 0.97272 0.74512 0.0
H203 H 0.16667 0.97264 0.75204 0.0
H204 H 0.28155 0.02083 0.68768 0.0
H205 H 0.28245 0.05331 0.63902 0.0
H206 H 0.19491 0.05441 0.55616 0.0
H207 H 0.12948 0.02339 0.5438 0.0
H208 H 0.1411 0.1165 0.71096 0.0
H209 H 0.0664 0.12093 0.64178 0.0
H210 H 0.23288 0.90246 0.61275 0.0
H211 H 0.14046 0.86537 0.66355 0.0
C212 C 0.02177 0.36345 0.93462 0.0
C213 C 0.03846 0.34604 0.95682 0.0
C214 C 0.04198 0.30895 0.95016 0.0
C215 C 0.02781 0.30575 0.92424 0.0
N216 N 1.016 0.33861 0.91397 0.0
Co217 Co 0.99507 0.34629 0.87686 0.0
N218 N 1.01473 0.29726 0.86373 0.0
C219 C 0.02518 0.2685 0.87963 0.0
C220 C 0.03652 0.2376 0.86491 0.0
C221 C 0.03285 0.24746 0.83803 0.0
C222 C 0.01963 0.28413 0.83786 0.0
N223 N 0.97419 0.35378 0.8397 0.0
C224 C 0.98313 0.33642 0.8157 0.0
C225 C 0.96264 0.35147 0.79433 0.0
C226 C 0.9395 0.3784 0.80555 0.0
C227 C 0.94735 0.37866 0.83301 0.0
N228 N 0.97521 0.39531 0.89021 0.0
C229 C 0.9479 0.41541 0.87819 0.0
C230 C 0.93894 0.44757 0.89235 0.0
C231 C 0.96171 0.44751 0.91488 0.0
C232 C 0.98346 0.41521 0.91318 0.0
N233 N 0.04207 0.37058 0.86503 0.0
C234 C 0.10796 0.40421 0.84417 0.0
C235 C 0.07248 0.42063 0.84053 0.0
C236 C 0.04016 0.4035 0.85102 0.0
C237 C 0.10974 0.37052 0.85875 0.0
C238 C 0.0765 0.35433 0.8692 0.0
N239 N 0.94749 0.32217 0.88815 0.0
C240 C 0.89482 0.2822 0.87715 0.0
C241 C 0.87526 0.29352 0.90095 0.0
C242 C 0.89366 0.31858 0.91869 0.0
C243 C 0.9297 0.33216 0.91209 0.0
C244 C 0.93049 0.29692 0.87109 0.0
H245 H 0.94269 0.35159 0.92608 0.0
H246 H 0.94394 0.28833 0.85219 0.0
H247 H 1.01344 0.4167 0.84725 0.0
H248 H 0.0786 0.32845 0.88033 0.0
C249 C 0.03008 0.27378 0.9077 0.0
C250 C 1.00832 0.40244 0.93517 0.0
C251 C 1.00898 0.30428 0.81296 0.0
C252 C 0.93533 0.40586 0.85196 0.0
H253 H 0.04668 0.35867 0.97605 0.0
H254 H 0.05442 0.28715 0.96245 0.0
H255 H 0.0474 0.21149 0.87272 0.0
H256 H 0.03886 0.22946 0.82063 0.0
H257 H 0.96419 0.34391 0.77287 0.0
H258 H 0.92049 0.39671 0.79474 0.0
H259 H 0.91887 0.46895 0.8867 0.0
H260 H 0.96178 0.46847 0.93097 0.0
H261 H 0.06945 0.44626 0.82903 0.0
H262 H 0.13656 0.35693 0.86223 0.0
H263 H 0.88274 0.26216 0.86304 0.0
H264 H 0.88005 0.32864 0.93725 0.0
C265 C 0.60902 0.52359 0.32651 0.0
C266 C 0.57789 0.52632 0.30952 0.0
C267 C 0.56261 0.49122 0.30769 0.0
C268 C 0.58538 0.46895 0.32323 0.0
N269 N 0.61426 0.48778 0.33452 0.0
Co270 Co 0.65453 0.46583 0.35737 0.0
N271 N 0.64318 0.41462 0.34401 0.0
C272 C 0.6106 0.40353 0.33261 0.0
C273 C 0.60953 0.36585 0.32713 0.0
C274 C 0.64351 0.35231 0.33575 0.0
C275 C 0.66362 0.38272 0.34583 0.0
N276 N 0.69446 0.44326 0.38037 0.0
C277 C 0.7118 0.40937 0.37814 0.0
C278 C 0.73942 0.4058 0.39789 0.0
C279 C 0.73842 0.43806 0.41337 0.0
C280 C 0.71066 0.45978 0.40213 0.0
N281 N 0.66556 0.51712 0.37075 0.0
C282 C 0.68454 0.52577 0.39364 0.0
C283 C 0.68747 0.56375 0.39777 0.0
C284 C 0.66894 0.57982 0.37621 0.0
C285 C 0.6558 0.55065 0.36003 0.0
N286 N 0.618 0.45982 0.38771 0.0
C287 C 0.57451 0.45759 0.43638 0.0
C288 C 0.57299 0.48847 0.41883 0.0
C289 C 0.59458 0.48892 0.3947 0.0
C290 C 0.5968 0.42689 0.42803 0.0
C291 C 0.61819 0.42854 0.40372 0.0
N292 N 0.69161 0.47335 0.32759 0.0
C293 C 0.75042 0.50193 0.31406 0.0
C294 C 0.74043 0.50022 0.28652 0.0
C295 C 0.70654 0.48236 0.27964 0.0
C296 C 0.68251 0.46887 0.30057 0.0
C297 C 0.72592 0.48828 0.33411 0.0
H298 H 0.65582 0.45662 0.295 0.0
H299 H 0.73399 0.49212 0.35509 0.0
H300 H 0.59352 0.51375 0.38234 0.0
H301 H 0.63592 0.40498 0.3984 0.0
C302 C 0.58431 0.42988 0.32384 0.0
C303 C 0.63146 0.55556 0.33609 0.0
C304 C 0.70083 0.37972 0.3586 0.0
C305 C 0.70411 0.49787 0.40785 0.0
H306 H 0.56715 0.55087 0.29939 0.0
H307 H 0.53873 0.48271 0.2955 0.0
H308 H 0.58717 0.35022 0.3174 0.0
H309 H 0.65226 0.32329 0.335 0.0
H310 H 0.75853 0.38263 0.40085 0.0
H311 H 0.75702 0.44549 0.42997 0.0
H312 H 0.70234 0.5781 0.41398 0.0
H313 H 0.66518 0.60951 0.3729 0.0
H314 H 0.55656 0.51305 0.42419 0.0
H315 H 0.59831 0.4019 0.44038 0.0
H316 H 0.77634 0.5155 0.32021 0.0
H317 H 0.6978 0.48059 0.25849 0.0
C318 C 0.48416 0.11425 0.93559 0.0
C319 C 0.46427 0.12295 0.95952 0.0
C320 C 0.4443 0.15477 0.95455 0.0
C321 C 0.45288 0.16379 0.92803 0.0
N322 N 0.47757 0.14008 0.91586 0.0
Co323 Co 0.49512 0.14265 0.87687 0.0
N324 N 0.4748 0.19437 0.87267 0.0
C325 C 0.45009 0.21155 0.8897 0.0
C326 C 0.4399 0.24662 0.88135 0.0
C327 C 0.45914 0.252 0.85735 0.0
C328 C 0.48022 0.21974 0.85246 0.0
N329 N 0.51215 0.14521 0.83778 0.0
C330 C 0.5142 0.17478 0.82046 0.0
C331 C 0.52729 0.16375 0.79478 0.0
C332 C 0.53295 0.12589 0.79589 0.0
C333 C 0.52322 0.11596 0.82211 0.0
N334 N 0.51538 0.09085 0.8812 0.0
C335 C 0.52715 0.06812 0.86069 0.0
C336 C 0.53986 0.03407 0.86955 0.0
C337 C 0.53519 0.03496 0.89737 0.0
C338 C 0.51941 0.06951 0.90396 0.0
N339 N 0.4468 0.12175 0.86464 0.0
C340 C 0.38553 0.08468 0.84054 0.0
C341 C 0.40149 0.07144 0.86481 0.0
C342 C 0.43188 0.09045 0.87657 0.0
C343 C 0.39941 0.11823 0.82972 0.0
C344 C 0.4297 0.13632 0.84209 0.0
N345 N 0.5439 0.16337 0.88839 0.0
C346 C 0.61144 0.16624 0.88216 0.0
C347 C 0.61406 0.19565 0.90108 0.0
C348 C 0.58076 0.20802 0.91409 0.0
C349 C 0.54598 0.1917 0.90732 0.0
C350 C 0.57641 0.1504 0.87632 0.0
H351 H 0.52076 0.20238 0.9171 0.0
H352 H 0.5758 0.12789 0.86165 0.0
H353 H 0.44408 0.07889 0.89472 0.0
H354 H 0.44029 0.1612 0.83247 0.0
C355 C 0.4404 0.19569 0.9147 0.0
C356 C 0.50441 0.0787 0.93143 0.0
C357 C 0.5016 0.21294 0.82704 0.0
C358 C 0.52901 0.08086 0.83374 0.0
H359 H 0.46298 0.10737 0.97839 0.0
H360 H 0.42568 0.16955 0.96861 0.0
H361 H 0.42117 0.26619 0.89167 0.0
H362 H 0.45707 0.27657 0.84462 0.0
H363 H 0.53196 0.18117 0.77702 0.0
H364 H 0.54388 0.10794 0.77972 0.0
H365 H 0.55145 1.0114 0.85728 0.0
H366 H 0.54155 1.0123 0.91118 0.0
H367 H 0.39118 0.04611 0.87435 0.0
H368 H 0.38833 0.12964 0.81094 0.0
H369 H 0.63642 0.15525 0.87198 0.0
H370 H 0.58144 0.23072 0.92888 0.0
C371 C 0.89841 0.98206 0.31145 0.0
C372 C 0.92852 0.97971 0.29303 0.0
C373 C 0.94422 0.0146 0.29165 0.0
C374 C 0.92287 0.03635 0.30907 0.0
N375 N 0.89424 0.01754 0.32101 0.0
Co376 Co 0.85659 0.03892 0.34727 0.0
N377 N 0.87036 0.09078 0.33705 0.0
C378 C 0.90286 0.10147 0.32498 0.0
C379 C 0.90573 0.13953 0.32203 0.0
C380 C 0.87295 0.15372 0.33292 0.0
C381 C 0.85175 0.12332 0.3417 0.0
N382 N 0.81864 0.06116 0.37304 0.0
C383 C 0.80267 0.09583 0.37311 0.0
C384 C 0.77538 0.09877 0.39358 0.0
C385 C 0.77502 0.06515 0.40707 0.0
C386 C 0.80169 0.04338 0.394 0.0
N387 N 0.84348 0.98696 0.35804 0.0
C388 C 0.82414 0.97732 0.38081 0.0
C389 C 0.82091 0.93929 0.38387 0.0
C390 C 0.83992 0.92403 0.3619 0.0
C391 C 0.85378 0.95371 0.34661 0.0
N392 N 0.89475 0.03941 0.37643 0.0
C393 C 0.93776 0.02814 0.4238 0.0
C394 C 0.91557 0.06049 0.42097 0.0
C395 C 0.89452 0.06578 0.39695 0.0
C396 C 0.94064 1.00379 0.40135 0.0
C397 C 0.91895 1.00969 0.37822 0.0
N398 N 0.81811 0.03663 0.31859 0.0
C399 C 0.75761 1.01271 0.30478 0.0
C400 C 0.76671 0.01789 0.2771 0.0
C401 C 0.80126 0.03534 0.27079 0.0
C402 C 0.82645 0.04468 0.29185 0.0
C403 C 0.78348 0.0221 0.32501 0.0
H404 H 0.85331 0.05688 0.28642 0.0
H405 H 0.77587 0.0159 0.34584 0.0
H406 H 0.87664 0.09015 0.39564 0.0
H407 H 0.92042 0.9886 0.36256 0.0
C408 C 0.92652 0.07499 0.3126 0.0
C409 C 0.87964 0.94904 0.32308 0.0
C410 C 0.81461 0.12656 0.35498 0.0
C411 C 0.80618 1.00465 0.39707 0.0
H412 H 0.93917 0.95499 0.28261 0.0
H413 H 0.9682 0.02311 0.2793 0.0
H414 H 0.92823 0.15502 0.31215 0.0
H415 H 0.86545 0.18306 0.33416 0.0
H416 H 0.75726 0.12234 0.39822 0.0
H417 H 0.75608 0.05695 0.42348 0.0
H418 H 0.80611 0.9244 0.39993 0.0
H419 H 0.84387 0.89444 0.35787 0.0
H420 H 0.91293 0.08051 0.43761 0.0
H421 H 0.95844 0.97915 0.402 0.0
H422 H 0.73085 1.00064 0.31093 0.0
H423 H 0.80954 0.04033 0.24974 0.0
H424 H 0.04676 0.46714 0.94882 0.0
H425 H 0.96944 0.38438 0.98138 0.0
H426 H 0.97269 0.41437 0.02706 0.0
H427 H 0.10545 0.47587 1.00747 0.0
H428 H 0.11144 0.52585 1.00506 0.0
H429 H 0.10276 0.4985 0.97466 0.0
H430 H 0.04483 0.53978 0.96373 0.0
H431 H 0.05354 0.5675 0.99397 0.0
H432 H 1.00815 0.54585 0.9892 0.0
H433 H 0.98758 0.45026 0.06964 0.0
H434 H 1.00702 0.49461 0.10577 0.0
H435 H 0.07197 0.5573 0.04591 0.0
C436 C 0.03037 0.45569 0.96561 0.0
C437 C 1.00834 0.42312 0.96186 0.0
C438 C 0.98685 0.40902 0.98408 0.0
C439 C 0.98856 0.42583 1.01004 0.0
C440 C 1.01133 0.45726 1.01336 0.0
C441 C 0.03133 0.47256 0.99171 0.0
C442 C 0.05301 0.50701 1.00096 0.0
C443 C 0.0957 0.50146 0.99679 0.0
C444 C 0.03904 0.54212 0.98608 0.0
C445 C 0.0425 0.50827 0.0312 0.0
C446 C 0.01869 0.47905 0.03788 0.0
C447 C 1.00599 0.47342 0.06463 0.0
C448 C 1.01745 0.49857 0.08507 0.0
C449 C 0.04111 0.52931 0.07872 0.0
C450 C 0.05376 0.53413 0.05135 0.0
H451 H 0.41456 0.51757 0.54627 0.0
H452 H 0.47913 0.46008 0.60797 0.0
H453 H 0.52734 0.44297 0.57285 0.0
H454 H 0.43139 0.45078 0.4921 0.0
H455 H 0.43442 0.48554 0.46557 0.0
H456 H 0.40605 0.49433 0.49574 0.0
H457 H 0.44308 0.55556 0.50487 0.0
H458 H 0.47151 0.54701 0.47469 0.0
H459 H 0.49376 0.5539 0.50736 0.0
H460 H 0.56789 0.43134 0.53046 0.0
H461 H 0.59859 0.4276 0.48503 0.0
H462 H 0.50576 0.49031 0.45031 0.0
C463 C 0.43887 0.50131 0.55228 0.0
C464 C 0.44305 0.48962 0.5797 0.0
C465 C 0.47544 0.469 0.58701 0.0
C466 C 0.50283 0.45914 0.56719 0.0
C467 C 0.49745 0.47025 0.54015 0.0
C468 C 0.4663 0.49099 0.5327 0.0
C469 C 0.46694 0.49904 0.50222 0.0
C470 C 0.43267 0.48136 0.48808 0.0
C471 C 0.46895 0.5414 0.49698 0.0
C472 C 0.50332 0.47963 0.49362 0.0
C473 C 0.5205 0.46322 0.5158 0.0
C474 C 0.55454 0.44395 0.51295 0.0
C475 C 0.57162 0.44167 0.48689 0.0
C476 C 0.55473 0.45842 0.46373 0.0
C477 C 0.51987 0.47744 0.4674 0.0
H478 H 0.49847 0.98128 0.0794 0.0
H479 H 0.42967 0.8943 0.04304 0.0
H480 H 0.43438 0.92577 0.99815 0.0
H481 H 0.46243 0.05912 0.03974 0.0
H482 H 0.50776 0.08149 0.03632 0.0
H483 H 0.49755 0.05303 0.06579 0.0
H484 H 0.55678 1.01278 0.05511 0.0
H485 H 0.56695 0.04092 0.02546 0.0
H486 H 0.5619 0.99093 0.0219 0.0
H487 H 0.44509 0.96747 0.95757 0.0
H488 H 0.46229 0.01582 0.92371 0.0
H489 H 0.52874 0.07337 0.9849 0.0
C490 C 0.48404 0.96923 0.06201 0.0
C491 C 0.46334 0.93556 0.06468 0.0
C492 C 0.4455 0.92013 0.0414 0.0
C493 C 0.44806 0.93779 0.01585 0.0
C494 C 0.46906 0.97065 1.01377 0.0
C495 C 0.48689 0.9862 0.03617 0.0
C496 C 0.5086 0.02115 0.02808 0.0
C497 C 0.49315 0.05574 0.0434 0.0
C498 C 0.55108 0.01613 0.03293 0.0
C499 C 0.50002 0.02292 0.99771 0.0
C500 C 0.47691 0.99364 0.98997 0.0
C501 C 0.4636 0.99021 0.96331 0.0
C502 C 0.47373 0.01763 0.94416 0.0
C503 C 0.49747 0.04784 0.95152 0.0
C504 C 0.51114 0.05016 0.97861 0.0
H505 H 0.97601 0.07329 0.46109 0.0
H506 H 0.94008 0.95873 0.4466 0.0
H507 H 0.97371 0.93849 0.48767 0.0
H508 H 0.06784 0.05209 0.48517 0.0
H509 H 0.06829 0.08767 0.5115 0.0
H510 H 0.04028 0.09414 0.48133 0.0
H511 H 0.98058 0.104 0.51155 0.0
H512 H 1.0085 0.09786 0.54183 0.0
H513 H 0.96761 0.06895 0.5363 0.0
H514 H 1.01433 0.92926 0.52854 0.0
H515 H 0.0566 0.93303 0.56858 0.0
H516 H 0.06363 0.05333 0.55901 0.0
C517 C 0.97482 0.04407 0.46678 0.0
C518 C 0.95589 0.01756 0.45017 0.0
C519 C 0.95515 0.97952 0.45844 0.0
C520 C 0.97397 0.96769 0.48191 0.0
C521 C 0.99316 0.9942 0.49736 0.0
C522 C 0.99341 0.03168 0.49042 0.0
C523 C 1.01661 0.05417 0.51068 0.0
C524 C 0.05024 0.07313 0.4963 0.0
C525 C 0.99184 0.08295 0.526 0.0
C526 C 0.02968 0.02337 0.5297 0.0
C527 C 1.01587 0.98897 0.52157 0.0
C528 C 0.0251 0.95609 0.53526 0.0
C529 C 0.04913 0.9584 0.55788 0.0
C530 C 0.06354 0.9933 0.56661 0.0
C531 C 0.05325 0.02623 0.55252 0.0
H532 H 0.19075 0.70207 0.12831 0.0
H533 H 0.16524 0.70306 0.21534 0.0
H534 H 0.22714 0.7316 0.22454 0.0
H535 H 0.29026 0.68431 0.13178 0.0
H536 H 0.30358 0.71654 0.10516 0.0
H537 H 0.25767 0.69494 0.10481 0.0
H538 H 0.22585 0.76013 0.10367 0.0
H539 H 0.27168 0.78191 0.10359 0.0
H540 H 0.2373 0.79442 0.12952 0.0
H541 H 0.29362 0.75455 0.22502 0.0
H542 H 0.35566 0.78365 0.21647 0.0
H543 H 0.33693 0.77731 0.12897 0.0
C544 C 0.19815 0.70867 0.14924 0.0
C545 C 0.17335 0.69943 0.1712 0.0
C546 C 0.18397 0.70905 0.19826 0.0
C547 C 0.21914 0.72524 0.2037 0.0
C548 C 0.24334 0.73295 0.18181 0.0
C549 C 0.233 0.72611 0.15504 0.0
C550 C 0.26376 0.73961 0.13538 0.0
C551 C 0.27976 0.70689 0.11827 0.0
C552 C 0.24875 0.77088 0.11695 0.0
C553 C 0.29304 0.75456 0.15534 0.0
C554 C 0.28076 0.7496 0.18202 0.0
C555 C 0.30316 0.75933 0.20423 0.0
C556 C 0.33843 0.77577 0.19917 0.0
C557 C 0.35085 0.7836 0.17213 0.0
C558 C 0.32805 0.77208 0.14987 0.0
H559 H 0.26654 0.671 0.60343 0.0
H560 H 0.28898 0.66231 0.69042 0.0
H561 H 0.26798 0.72717 0.69734 0.0
H562 H 0.29694 0.76966 0.59714 0.0
H563 H 0.26062 0.78143 0.57311 0.0
H564 H 0.27891 0.73437 0.57421 0.0
H565 H 0.2113 0.70889 0.58168 0.0
H566 H 0.19282 0.75584 0.58068 0.0
H567 H 0.18311 0.7266 0.60985 0.0
H568 H 0.24112 0.79062 0.69627 0.0
H569 H 0.21183 0.85169 0.68659 0.0
H570 H 0.20799 0.82336 0.60019 0.0
C571 C 0.2674 0.68298 0.62383 0.0
C572 C 0.27886 0.66112 0.64646 0.0
C573 C 0.27952 0.67796 0.67284 0.0
C574 C 0.26788 0.71498 0.677 0.0
C575 C 0.25592 0.7354 0.65457 0.0
C576 C 0.25582 0.72035 0.62843 0.0
C577 C 0.2407 0.74883 0.60817 0.0
C578 C 0.27111 0.75918 0.5869 0.0
C579 C 0.20485 0.73415 0.59428 0.0
C580 C 0.23186 0.78176 0.62717 0.0
C581 C 0.241 0.77313 0.65383 0.0
C582 C 0.23418 0.79791 0.67545 0.0
C583 C 0.21744 0.83246 0.66978 0.0
C584 C 0.20781 0.84223 0.64271 0.0
C585 C 0.21547 0.81668 0.62103 0.0
H586 H 0.66868 0.21738 0.8642 0.0
H587 H 0.64422 0.21265 0.95127 0.0
H588 H 0.70793 0.23761 0.96098 0.0
H589 H 0.76495 0.18946 0.8671 0.0
H590 H 0.78067 0.22086 0.84061 0.0
H591 H 0.73298 0.20358 0.84061 0.0
H592 H 0.70751 0.27158 0.84034 0.0
H593 H 0.75514 0.28907 0.84014 0.0
H594 H 0.72239 0.30408 0.86647 0.0
H595 H 0.77639 0.25957 0.96093 0.0
H596 H 0.84132 0.28065 0.95136 0.0
H597 H 0.81919 0.2748 0.86407 0.0
C598 C 0.67671 0.22165 0.88533 0.0
C599 C 0.65148 0.2129 0.90701 0.0
C600 C 0.66293 0.21937 0.93434 0.0
C601 C 0.69915 0.23335 0.94004 0.0
C602 C 0.72349 0.2412 0.91817 0.0
C603 C 0.71252 0.236 0.89134 0.0
C604 C 0.74376 0.24692 0.87152 0.0
C605 C 0.75632 0.21319 0.85393 0.0
C606 C 0.73146 0.27988 0.85356 0.0
C607 C 0.7743 0.25858 0.89134 0.0
C608 C 0.76217 0.25495 0.91815 0.0
C609 C 0.78593 0.263 0.93998 0.0
C610 C 0.82287 0.27527 0.93428 0.0
C611 C 0.83593 0.27983 0.9069 0.0
C612 C 0.81085 0.2713 0.88527 0.0
H613 H 0.72396 0.32652 0.39665 0.0
H614 H 0.72474 0.35154 0.30989 0.0
H615 H 0.74984 0.28833 0.29983 0.0
H616 H 0.81492 0.274 0.39394 0.0
H617 H 0.79985 0.24169 0.42004 0.0
H618 H 0.78203 0.28894 0.4202 0.0
H619 H 0.71389 0.26289 0.42012 0.0
H620 H 0.73152 0.21558 0.4191 0.0
H621 H 0.69968 0.23149 0.39309 0.0
H622 H 0.76835 0.22053 0.29885 0.0
H623 H 0.79277 0.15686 0.30711 0.0
H624 H 0.79043 0.17848 0.39459 0.0
C625 C 0.73089 0.31932 0.37564 0.0
C626 C 0.72294 0.34436 0.35402 0.0
C627 C 0.73096 0.333 0.32673 0.0
C628 C 0.74492 0.29706 0.32082 0.0
C629 C 0.75168 0.27284 0.34248 0.0
C630 C 0.7462 0.28384 0.3694 0.0
C631 C 0.75744 0.25266 0.38879 0.0
C632 C 0.79053 0.26506 0.40681 0.0
C633 C 0.72361 0.23992 0.40631 0.0
C634 C 0.76942 0.22228 0.36852 0.0
C635 C 0.76498 0.23436 0.34193 0.0
C636 C 0.77247 0.21098 0.31959 0.0
C637 C 0.78605 0.17476 0.32448 0.0
C638 C 0.79295 0.16228 0.35145 0.0
C639 C 0.7843 0.18649 0.37378 0.0
H640 H 0.78842 0.47342 0.24562 0.0
H641 H 0.74609 0.57526 0.28355 0.0
H642 H 0.79137 0.61249 0.25634 0.0
H643 H 0.88332 0.4983 0.24601 0.0
H644 H 0.89587 0.47784 0.21335 0.0
H645 H 0.8568 0.45928 0.23272 0.0
H646 H 0.81269 0.46942 0.19146 0.0
H647 H 0.85178 0.48786 0.17189 0.0
H648 H 0.80937 0.51519 0.17634 0.0
H649 H 0.84689 0.63761 0.23102 0.0
H650 H 0.90728 0.64951 0.20723 0.0
H651 H 0.91283 0.53302 0.18209 0.0
C652 C 0.78794 0.50365 0.24738 0.0
C653 C 0.76336 0.52164 0.26634 0.0
C654 C 0.76434 0.56111 0.26886 0.0
C655 C 0.78999 0.58245 0.25351 0.0
C656 C 0.81454 0.56401 0.23549 0.0
C657 C 0.81353 0.52555 0.23203 0.0
C658 C 0.84502 0.51275 0.2127 0.0
C659 C 0.87182 0.48543 0.22706 0.0
C660 C 0.82874 0.49527 0.18654 0.0
C661 C 0.86446 0.54978 0.20663 0.0
C662 C 0.84626 0.57895 0.21999 0.0
C663 C 0.86083 0.61518 0.21988 0.0
C664 C 0.89515 0.62173 0.2062 0.0
C665 C 0.9146 0.59237 0.19243 0.0
C666 C 0.89834 0.55613 0.19208 0.0
H667 H 0.41564 0.32816 0.70235 0.0
H668 H 0.47348 0.42436 0.73758 0.0
H669 H 0.50582 0.3834 0.76913 0.0
H670 H 0.397 0.28748 0.76775 0.0
H671 H 0.4017 0.2398 0.7559 0.0
H672 H 0.38672 0.27565 0.73267 0.0
H673 H 0.44155 0.2579 0.69958 0.0
H674 H 0.45695 0.22226 0.72294 0.0
H675 H 0.48931 0.25814 0.71192 0.0
H676 H 0.53107 0.33353 0.79868 0.0
H677 H 0.53991 0.27856 0.82852 0.0
H678 H 0.46113 0.21533 0.77927 0.0
C679 C 0.43518 0.34088 0.71647 0.0
C680 C 0.4428 0.37996 0.71598 0.0
C681 C 0.46829 0.39467 0.73568 0.0
C682 C 0.48678 0.37153 0.75423 0.0
C683 C 0.47903 0.33349 0.75379 0.0
C684 C 0.45324 0.31824 0.7359 0.0
C685 C 0.44704 0.27701 0.74205 0.0
C686 C 0.40566 0.26956 0.75007 0.0
C687 C 0.45946 0.25238 0.71766 0.0
C688 C 0.47311 0.27186 0.76629 0.0
C689 C 0.49187 0.30472 0.77227 0.0
C690 C 0.51673 0.30753 0.79414 0.0
C691 C 0.52179 0.27622 0.81086 0.0
C692 C 0.50175 0.24276 0.80585 0.0
C693 C 0.47749 0.24039 0.78305 0.0
H694 H 0.60568 0.8853 0.2169 0.0
H695 H 0.59482 0.96206 0.14928 0.0
H696 H 0.65013 0.99788 0.16603 0.0
H697 H 0.626 0.95238 0.26624 0.0
H698 H 0.6591 0.92429 0.28494 0.0
H699 H 0.62241 0.90204 0.26557 0.0
H700 H 0.67217 0.86327 0.23849 0.0
H701 H 0.70912 0.88502 0.25803 0.0
H702 H 0.71033 0.88695 0.22116 0.0
H703 H 0.70326 0.02863 0.19329 0.0
H704 H 0.74905 0.05082 0.22773 0.0
H705 H 0.72468 0.95316 0.27724 0.0
C706 C 0.61585 0.90894 0.20518 0.0
C707 C 0.59676 0.92059 0.18148 0.0
C708 C 0.60978 0.95237 0.16712 0.0
C709 C 0.64099 0.9729 0.17659 0.0
C710 C 0.65879 0.96121 0.20047 0.0
C711 C 0.6468 0.92972 0.21441 0.0
C712 C 0.6688 0.92445 0.24054 0.0
C713 C 0.64251 0.92589 0.2658 0.0
C714 C 0.69146 0.88774 0.23948 0.0
C715 C 0.69456 0.95825 0.2395 0.0
C716 C 0.68868 0.97902 0.21617 0.0
C717 C 0.70835 1.01227 0.21145 0.0
C718 C 0.73445 0.02463 0.23112 0.0
C719 C 0.74055 1.00398 0.25538 0.0
C720 C 0.72049 0.97007 0.2592 0.0
H721 H 0.0763 0.28854 0.78771 0.0
H722 H 0.95579 0.27304 0.77981 0.0
H723 H 0.96653 0.23186 0.73966 0.0
H724 H 0.10237 0.28163 0.71306 0.0
H725 H 0.1444 0.25515 0.72022 0.0
H726 H 0.12709 0.28923 0.74468 0.0
H727 H 0.12534 0.23824 0.78211 0.0
H728 H 0.14224 0.20393 0.75782 0.0
H729 H 0.09875 0.19598 0.77631 0.0
H730 H 0.99027 0.18616 0.70461 0.0
H731 H 0.02481 0.13795 0.6783 0.0
H732 H 0.13068 0.18142 0.70917 0.0
C733 C 0.05226 0.27762 0.77673 0.0
C734 C 1.01517 0.28513 0.78607 0.0
C735 C 0.98431 0.26889 0.77222 0.0
C736 C 0.99019 0.24525 0.74953 0.0
C737 C 0.02715 0.23775 0.74111 0.0
C738 C 0.05771 0.25347 0.75427 0.0
C739 C 0.0945 0.23723 0.74337 0.0
C740 C 0.11851 0.26763 0.7295 0.0
C741 C 0.11648 0.21768 0.76626 0.0
C742 C 0.07982 0.20921 0.7226 0.0
C743 C 0.04093 0.2104 0.72133 0.0
C744 C 0.02077 0.18548 0.70502 0.0
C745 C 0.04076 0.15825 0.68996 0.0
C746 C 0.08064 0.15584 0.69134 0.0
C747 C 0.10026 0.18231 0.70757 0.0
H748 H 0.1679 0.37116 0.81637 0.0
H749 H 0.12529 0.47874 0.8446 0.0
H750 H 0.1771 0.5105 0.82014 0.0
H751 H 0.27042 0.39656 0.81928 0.0
H752 H 0.28155 0.37015 0.78868 0.0
H753 H 0.24362 0.35525 0.81092 0.0
H754 H 0.19758 0.35663 0.77006 0.0
H755 H 0.23531 0.37153 0.74778 0.0
H756 H 0.1928 0.39905 0.75058 0.0
H757 H 0.2264 0.53116 0.78703 0.0
H758 H 0.27259 0.53907 0.74947 0.0
H759 H 0.2888 0.41894 0.74542 0.0
C760 C 0.17015 0.4013 0.81806 0.0
C761 C 0.14231 0.42243 0.83236 0.0
C762 C 0.14589 0.46193 0.83353 0.0
C763 C 0.17542 0.48026 0.81985 0.0
C764 C 0.20169 0.45879 0.80531 0.0
C765 C 0.19973 0.42014 0.80457 0.0
C766 C 0.2303 0.40403 0.78589 0.0
C767 C 0.25813 0.38008 0.80217 0.0
C768 C 0.21295 0.38149 0.76218 0.0
C769 C 0.24891 0.43967 0.77566 0.0
C770 C 0.23192 0.47092 0.78719 0.0
C771 C 0.24091 0.50698 0.77859 0.0
C772 C 0.26748 0.51127 0.75738 0.0
C773 C 0.28549 0.47976 0.7453 0.0
C774 C 0.27655 0.44356 0.75505 0.0
H775 H 0.56654 0.59729 0.34058 0.0
H776 H 0.67942 0.59845 0.3059 0.0
H777 H 0.66472 0.65751 0.28179 0.0
H778 H 0.52113 0.62527 0.2806 0.0
H779 H 0.48545 0.65337 0.29743 0.0
H780 H 0.50632 0.61454 0.31508 0.0
H781 H 0.52582 0.65853 0.35483 0.0
H782 H 0.50465 0.69752 0.33746 0.0
H783 H 0.55338 0.69972 0.34751 0.0
H784 H 0.63598 0.71264 0.25841 0.0
H785 H 0.59631 0.761 0.23763 0.0
H786 H 0.50025 0.72325 0.28586 0.0
C787 C 0.58829 0.61051 0.32829 0.0
C788 C 0.62411 0.59353 0.32491 0.0
C789 C 0.65193 0.61126 0.3087 0.0
C790 C 0.64373 0.64465 0.29492 0.0
C791 C 0.60757 0.65986 0.29767 0.0
C792 C 0.5803 0.64347 0.31404 0.0
C793 C 0.54284 0.66385 0.31181 0.0
C794 C 0.51213 0.6377 0.30056 0.0
C795 C 0.53098 0.68092 0.33955 0.0
C796 C 0.55309 0.69404 0.29133 0.0
C797 C 0.59069 0.69135 0.28371 0.0
C798 C 0.60668 0.71534 0.26454 0.0
C799 C 0.58384 0.74291 0.25294 0.0
C800 C 0.54517 0.74651 0.26039 0.0
C801 C 0.52965 0.72144 0.27979 0.0
H802 H 0.3244 0.11099 0.81199 0.0
H803 H 0.38206 1.00833 0.83383 0.0
H804 H 0.3389 0.97237 0.80435 0.0
H805 H 0.22893 0.07125 0.806 0.0
H806 H 0.2179 0.09989 0.7769 0.0
H807 H 0.25013 0.11683 0.80244 0.0
H808 H 0.30093 0.12752 0.76474 0.0
H809 H 0.26892 0.11052 0.73917 0.0
H810 H 0.31463 0.08909 0.74268 0.0
H811 H 0.29367 0.94831 0.76837 0.0
H812 H 0.24937 0.93884 0.72978 0.0
H813 H 0.22247 0.05704 0.7313 0.0
C814 C 0.32777 0.0809 0.81086 0.0
C815 C 0.35665 0.06258 0.82542 0.0
C816 C 0.35979 0.02306 0.82337 0.0
C817 C 0.33551 1.00235 0.80651 0.0
C818 C 0.30805 0.02147 0.79189 0.0
C819 C 0.30391 0.05986 0.79408 0.0
C820 C 0.2739 0.0741 0.77491 0.0
C821 C 0.24075 0.09154 0.79104 0.0
C822 C 0.29061 0.10194 0.75415 0.0
C823 C 0.26243 0.03789 0.76111 0.0
C824 C 0.28217 1.00771 0.77128 0.0
C825 C 0.27769 0.97166 0.76053 0.0
C826 C 0.25263 0.96647 0.73869 0.0
C827 C 0.23269 0.99719 0.72794 0.0
C828 C 0.23729 0.03314 0.73952 0.0
H829 H 0.94856 0.77334 0.23446 0.0
H830 H 0.04036 0.761 0.29164 0.0
H831 H 1.01335 0.81232 0.32023 0.0
H832 H 0.94475 0.87366 0.23783 0.0
H833 H 0.89421 0.87566 0.23452 0.0
H834 H 0.9202 0.83719 0.2196 0.0
H835 H 0.87828 0.79059 0.24667 0.0
H836 H 0.85252 0.82901 0.26197 0.0
H837 H 0.87479 0.79476 0.28342 0.0
H838 H 0.97564 0.86469 0.34256 0.0
H839 H 0.93491 0.91904 0.35405 0.0
H840 H 0.86924 0.89866 0.28121 0.0
C841 C 0.96285 0.78138 0.2531 0.0
C842 C 0.99633 0.7631 0.26109 0.0
C843 C 1.01471 0.77475 0.28525 0.0
C844 C 0.9994 0.80362 0.30164 0.0
C845 C 0.96598 0.82071 0.29337 0.0
C846 C 0.94827 0.81039 0.26942 0.0
C847 C 0.9139 0.8345 0.26424 0.0
C848 C 0.91856 0.85656 0.23746 0.0
C849 C 0.87774 0.81079 0.26407 0.0
C850 C 0.91493 0.86015 0.28901 0.0
C851 C 0.9449 0.8514 0.30577 0.0
C852 C 0.95207 0.87165 0.32964 0.0
C853 C 0.92869 0.90223 0.33612 0.0
C854 C 0.89877 0.9124 0.3187 0.0
C855 C 0.8915 0.89082 0.29508 0.0
loop_
_geom_bond_atom_site_label_1
_geom_bond_atom_site_label_2
_geom_bond_distance
_geom_bond_site_symmetry_2
_ccdc_geom_bond_type
C0 C1 1.443 . S
C0 N4 1.376 . S
C0 C38 1.389 . S
C1 C0 1.443 . S
C1 C2 1.340 . S
C1 H41 0.951 . S
C2 C1 1.340 . S
C2 C3 1.439 . S
C2 H42 0.950 . S
C3 C2 1.439 . S
C3 N4 1.374 . S
C3 C37 1.395 . S
N4 C0 1.376 . S
N4 C3 1.374 . S
N4 Co5 2.008 1_655 S
Co5 N4 2.008 1_455 S
Co5 N6 1.995 . S
Co5 N11 2.008 . S
Co5 N16 1.995 1_455 S
Co5 N21 2.282 . S
Co5 N27 2.282 1_455 S
N6 Co5 1.995 . S
N6 C7 1.376 1_455 S
N6 C10 1.383 . S
C7 N6 1.376 1_655 S
C7 C8 1.446 1_655 S
C7 C37 1.391 . S
C8 C7 1.446 1_455 S
C8 C9 1.339 . S
C8 H43 0.949 . S
C9 C8 1.339 . S
C9 C10 1.439 . S
C9 H44 0.950 . S
C10 N6 1.383 . S
C10 C9 1.439 . S
C10 C39 1.392 . S
N11 Co5 2.008 . S
N11 C12 1.376 . S
N11 C15 1.374 . S
C12 N11 1.376 . S
C12 C13 1.443 . S
C12 C39 1.389 . S
C13 C12 1.443 . S
C13 C14 1.340 . S
C13 H45 0.951 . S
C14 C13 1.340 . S
C14 C15 1.439 . S
C14 H46 0.950 . S
C15 N11 1.374 . S
C15 C14 1.439 . S
C15 C40 1.395 . S
N16 Co5 1.995 1_655 S
N16 C17 1.376 1_655 S
N16 C20 1.383 . S
C17 N16 1.376 1_455 S
C17 C18 1.446 1_455 S
C17 C40 1.391 . S
C18 C17 1.446 1_655 S
C18 C19 1.339 . S
C18 H47 0.949 . S
C19 C18 1.339 . S
C19 C20 1.439 . S
C19 H48 0.950 . S
C20 N16 1.383 . S
C20 C19 1.439 . S
C20 C38 1.392 . S
N21 Co5 2.282 . S
N21 C24 1.332 . S
N21 C26 1.332 . S
C22 C23 1.386 . S
C22 C25 1.388 . S
C23 C22 1.386 . S
C23 C24 1.382 . S
C23 H49 0.950 . S
C24 N21 1.332 . S
C24 C23 1.382 . S
C24 H35 0.952 . S
C25 C22 1.388 . S
C25 C26 1.382 . S
C25 H50 0.950 . S
C26 N21 1.332 . S
C26 C25 1.382 . S
C26 H36 0.948 1_455 S
N27 Co5 2.282 1_655 S
N27 C31 1.332 . S
N27 C32 1.332 . S
C28 C29 1.388 . S
C28 C32 1.382 . S
C28 H51 0.950 . S
C29 C28 1.388 . S
C29 C30 1.386 . S
C30 C29 1.386 . S
C30 C31 1.382 . S
C30 H52 0.950 . S
C31 N27 1.332 . S
C31 C30 1.382 . S
C31 H33 0.952 . S
C32 N27 1.332 . S
C32 C28 1.382 . S
C32 H34 0.948 1_655 S
H33 C31 0.952 . S
H34 C32 0.948 1_455 S
H35 C24 0.952 . S
H36 C26 0.948 1_655 S
C37 C3 1.395 . S
C37 C7 1.391 . S
C38 C0 1.389 . S
C38 C20 1.392 . S
C39 C10 1.392 . S
C39 C12 1.389 . S
C40 C15 1.395 . S
C40 C17 1.391 . S
H41 C1 0.951 . S
H42 C2 0.950 . S
H43 C8 0.949 . S
H44 C9 0.950 . S
H45 C13 0.951 . S
H46 C14 0.950 . S
H47 C18 0.949 . S
H48 C19 0.950 . S
H49 C23 0.950 . S
H50 C25 0.950 . S
H51 C28 0.950 . S
H52 C30 0.950 . S
C53 C54 1.443 . S
C53 N57 1.376 . S
C53 C91 1.389 . S
C54 C53 1.443 . S
C54 C55 1.340 . S
C54 H94 0.951 . S
C55 C54 1.340 . S
C55 C56 1.439 . S
C55 H95 0.950 . S
C56 C55 1.439 . S
C56 N57 1.374 . S
C56 C90 1.395 . S
N57 C53 1.376 . S
N57 C56 1.374 . S
N57 Co58 2.008 . S
Co58 N57 2.008 . S
Co58 N59 1.995 . S
Co58 N64 2.008 . S
Co58 N69 1.995 . S
Co58 N74 2.282 . S
Co58 N80 2.282 . S
N59 Co58 1.995 . S
N59 C60 1.376 . S
N59 C63 1.383 . S
C60 N59 1.376 . S
C60 C61 1.446 . S
C60 C90 1.391 . S
C61 C60 1.446 . S
C61 C62 1.339 . S
C61 H96 0.949 . S
C62 C61 1.339 . S
C62 C63 1.439 . S
C62 H97 0.950 . S
C63 N59 1.383 . S
C63 C62 1.439 . S
C63 C92 1.392 . S
N64 Co58 2.008 . S
N64 C65 1.376 . S
N64 C68 1.374 . S
C65 N64 1.376 . S
C65 C66 1.443 . S
C65 C92 1.389 . S
C66 C65 1.443 . S
C66 C67 1.340 . S
C66 H98 0.951 . S
C67 C66 1.340 . S
C67 C68 1.439 . S
C67 H99 0.950 . S
C68 N64 1.374 . S
C68 C67 1.439 . S
C68 C93 1.395 . S
N69 Co58 1.995 . S
N69 C70 1.376 . S
N69 C73 1.383 . S
C70 N69 1.376 . S
C70 C71 1.446 . S
C70 C93 1.391 . S
C71 C70 1.446 . S
C71 C72 1.339 . S
C71 H100 0.949 . S
C72 C71 1.339 . S
C72 C73 1.439 . S
C72 H101 0.950 . S
C73 N69 1.383 . S
C73 C72 1.439 . S
C73 C91 1.392 . S
N74 Co58 2.282 . S
N74 C77 1.332 . S
N74 C79 1.332 . S
C75 C76 1.386 . S
C75 C78 1.388 . S
C76 C75 1.386 . S
C76 C77 1.382 . S
C76 H102 0.950 . S
C77 N74 1.332 . S
C77 C76 1.382 . S
C77 H88 0.952 . S
C78 C75 1.388 . S
C78 C79 1.382 . S
C78 H103 0.950 . S
C79 N74 1.332 . S
C79 C78 1.382 . S
C79 H89 0.948 . S
N80 Co58 2.282 . S
N80 C84 1.332 . S
N80 C85 1.332 . S
C81 C82 1.388 . S
C81 C85 1.382 . S
C81 H104 0.950 . S
C82 C81 1.388 . S
C82 C83 1.386 . S
C83 C82 1.386 . S
C83 C84 1.382 . S
C83 H105 0.950 . S
C84 N80 1.332 . S
C84 C83 1.382 . S
C84 H86 0.952 . S
C85 N80 1.332 . S
C85 C81 1.382 . S
C85 H87 0.948 . S
H86 C84 0.952 . S
H87 C85 0.948 . S
H88 C77 0.952 . S
H89 C79 0.948 . S
C90 C56 1.395 . S
C90 C60 1.391 . S
C91 C53 1.389 . S
C91 C73 1.392 . S
C92 C63 1.392 . S
C92 C65 1.389 . S
C93 C68 1.395 . S
C93 C70 1.391 . S
H94 C54 0.951 . S
H95 C55 0.950 . S
H96 C61 0.949 . S
H97 C62 0.950 . S
H98 C66 0.951 . S
H99 C67 0.950 . S
H100 C71 0.949 . S
H101 C72 0.950 . S
H102 C76 0.950 . S
H103 C78 0.950 . S
H104 C81 0.950 . S
H105 C83 0.950 . S
C106 C107 1.443 . S
C106 N110 1.376 . S
C106 C144 1.389 . S
C107 C106 1.443 . S
C107 C108 1.340 . S
C107 H147 0.951 . S
C108 C107 1.340 . S
C108 C109 1.439 . S
C108 H148 0.950 . S
C109 C108 1.439 . S
C109 N110 1.374 . S
C109 C143 1.395 . S
N110 C106 1.376 . S
N110 C109 1.374 . S
N110 Co111 2.008 . S
Co111 N110 2.008 . S
Co111 N112 1.995 . S
Co111 N117 2.008 . S
Co111 N122 1.995 . S
Co111 N127 2.282 . S
Co111 N133 2.282 . S
N112 Co111 1.995 . S
N112 C113 1.376 . S
N112 C116 1.383 . S
C113 N112 1.376 . S
C113 C114 1.446 . S
C113 C143 1.391 . S
C114 C113 1.446 . S
C114 C115 1.339 . S
C114 H149 0.949 . S
C115 C114 1.339 . S
C115 C116 1.439 . S
C115 H150 0.950 . S
C116 N112 1.383 . S
C116 C115 1.439 . S
C116 C145 1.392 . S
N117 Co111 2.008 . S
N117 C118 1.376 . S
N117 C121 1.374 . S
C118 N117 1.376 . S
C118 C119 1.443 . S
C118 C145 1.389 . S
C119 C118 1.443 . S
C119 C120 1.340 . S
C119 H151 0.951 . S
C120 C119 1.340 . S
C120 C121 1.439 . S
C120 H152 0.950 . S
C121 N117 1.374 . S
C121 C120 1.439 . S
C121 C146 1.395 . S
N122 Co111 1.995 . S
N122 C123 1.376 . S
N122 C126 1.383 . S
C123 N122 1.376 . S
C123 C124 1.446 . S
C123 C146 1.391 . S
C124 C123 1.446 . S
C124 C125 1.339 . S
C124 H153 0.949 . S
C125 C124 1.339 . S
C125 C126 1.439 . S
C125 H154 0.950 . S
C126 N122 1.383 . S
C126 C125 1.439 . S
C126 C144 1.392 . S
N127 Co111 2.282 . S
N127 C130 1.332 . S
N127 C132 1.332 . S
C128 C129 1.386 . S
C128 C131 1.388 . S
C129 C128 1.386 . S
C129 C130 1.382 . S
C129 H155 0.950 . S
C130 N127 1.332 . S
C130 C129 1.382 . S
C130 H141 0.952 . S
C131 C128 1.388 . S
C131 C132 1.382 . S
C131 H156 0.950 . S
C132 N127 1.332 . S
C132 C131 1.382 . S
C132 H142 0.948 . S
N133 Co111 2.282 . S
N133 C137 1.332 . S
N133 C138 1.332 . S
C134 C135 1.388 . S
C134 C138 1.382 . S
C134 H157 0.950 . S
C135 C134 1.388 . S
C135 C136 1.386 . S
C136 C135 1.386 . S
C136 C137 1.382 . S
C136 H158 0.950 . S
C137 N133 1.332 . S
C137 C136 1.382 . S
C137 H139 0.952 . S
C138 N133 1.332 . S
C138 C134 1.382 . S
C138 H140 0.948 . S
H139 C137 0.952 . S
H140 C138 0.948 . S
H141 C130 0.952 . S
H142 C132 0.948 . S
C143 C109 1.395 . S
C143 C113 1.391 . S
C144 C106 1.389 . S
C144 C126 1.392 . S
C145 C116 1.392 . S
C145 C118 1.389 . S
C146 C121 1.395 . S
C146 C123 1.391 . S
H147 C107 0.951 . S
H148 C108 0.950 . S
H149 C114 0.949 . S
H150 C115 0.950 . S
H151 C119 0.951 . S
H152 C120 0.950 . S
H153 C124 0.949 . S
H154 C125 0.950 . S
H155 C129 0.950 . S
H156 C131 0.950 . S
H157 C134 0.950 . S
H158 C136 0.950 . S
C159 C160 1.443 . S
C159 N163 1.376 . S
C159 C197 1.389 . S
C160 C159 1.443 . S
C160 C161 1.340 . S
C160 H200 0.951 . S
C161 C160 1.340 . S
C161 C162 1.439 . S
C161 H201 0.950 . S
C162 C161 1.439 . S
C162 N163 1.374 . S
C162 C196 1.395 . S
N163 C159 1.376 . S
N163 C162 1.374 . S
N163 Co164 2.008 . S
Co164 N163 2.008 . S
Co164 N165 1.995 . S
Co164 N170 2.008 1_565 S
Co164 N175 1.995 1_565 S
Co164 N180 2.282 1_565 S
Co164 N186 2.282 . S
N165 Co164 1.995 . S
N165 C166 1.376 . S
N165 C169 1.383 . S
C166 N165 1.376 . S
C166 C167 1.446 . S
C166 C196 1.391 . S
C167 C166 1.446 . S
C167 C168 1.339 . S
C167 H202 0.949 . S
C168 C167 1.339 . S
C168 C169 1.439 . S
C168 H203 0.950 . S
C169 N165 1.383 . S
C169 C168 1.439 . S
C169 C198 1.392 1_565 S
N170 Co164 2.008 1_545 S
N170 C171 1.376 . S
N170 C174 1.374 . S
C171 N170 1.376 . S
C171 C172 1.443 . S
C171 C198 1.389 . S
C172 C171 1.443 . S
C172 C173 1.340 . S
C172 H204 0.951 . S
C173 C172 1.340 . S
C173 C174 1.439 . S
C173 H205 0.950 . S
C174 N170 1.374 . S
C174 C173 1.439 . S
C174 C199 1.395 . S
N175 Co164 1.995 1_545 S
N175 C176 1.376 . S
N175 C179 1.383 . S
C176 N175 1.376 . S
C176 C177 1.446 . S
C176 C199 1.391 . S
C177 C176 1.446 . S
C177 C178 1.339 . S
C177 H206 0.949 . S
C178 C177 1.339 . S
C178 C179 1.439 . S
C178 H207 0.950 . S
C179 N175 1.383 . S
C179 C178 1.439 . S
C179 C197 1.392 1_545 S
N180 Co164 2.282 1_545 S
N180 C183 1.332 . S
N180 C185 1.332 . S
C181 C182 1.386 . S
C181 C184 1.388 . S
C182 C181 1.386 . S
C182 C183 1.382 . S
C182 H208 0.950 . S
C183 N180 1.332 . S
C183 C182 1.382 . S
C183 H194 0.952 . S
C184 C181 1.388 . S
C184 C185 1.382 . S
C184 H209 0.950 . S
C185 N180 1.332 . S
C185 C184 1.382 . S
C185 H195 0.948 . S
N186 Co164 2.282 . S
N186 C190 1.332 . S
N186 C191 1.332 . S
C187 C188 1.388 . S
C187 C191 1.382 . S
C187 H210 0.950 . S
C188 C187 1.388 . S
C188 C189 1.386 . S
C189 C188 1.386 . S
C189 C190 1.382 . S
C189 H211 0.950 . S
C190 N186 1.332 . S
C190 C189 1.382 . S
C190 H192 0.952 . S
C191 N186 1.332 . S
C191 C187 1.382 . S
C191 H193 0.948 . S
H192 C190 0.952 . S
H193 C191 0.948 . S
H194 C183 0.952 . S
H195 C185 0.948 . S
C196 C162 1.395 . S
C196 C166 1.391 . S
C197 C159 1.389 . S
C197 C179 1.392 1_565 S
C198 C169 1.392 1_545 S
C198 C171 1.389 . S
C199 C174 1.395 . S
C199 C176 1.391 . S
H200 C160 0.951 . S
H201 C161 0.950 . S
H202 C167 0.949 . S
H203 C168 0.950 . S
H204 C172 0.951 . S
H205 C173 0.950 . S
H206 C177 0.949 . S
H207 C178 0.950 . S
H208 C182 0.950 . S
H209 C184 0.950 . S
H210 C187 0.950 . S
H211 C189 0.950 . S
C212 C213 1.439 1_655 S
C212 N216 1.369 1_655 S
C212 C250 1.401 . S
C213 C212 1.439 1_455 S
C213 C214 1.340 . S
C213 H253 0.951 . S
C214 C213 1.340 . S
C214 C215 1.439 . S
C214 H254 0.950 . S
C215 C214 1.439 . S
C215 N216 1.374 . S
C215 C249 1.395 . S
N216 C212 1.369 1_455 S
N216 C215 1.374 . S
N216 Co217 2.008 1_455 S
Co217 N216 2.008 1_655 S
Co217 N218 1.995 1_655 S
Co217 N223 2.008 . S
Co217 N228 1.995 . S
Co217 N233 2.282 1_655 S
Co217 N239 2.282 . S
N218 Co217 1.995 1_455 S
N218 C219 1.376 . S
N218 C222 1.383 . S
C219 N218 1.376 . S
C219 C220 1.446 . S
C219 C249 1.391 . S
C220 C219 1.446 . S
C220 C221 1.339 . S
C220 H255 0.949 . S
C221 C220 1.339 . S
C221 C222 1.439 . S
C221 H256 0.950 . S
C222 N218 1.383 . S
C222 C221 1.439 . S
C222 C251 1.392 . S
N223 Co217 2.008 . S
N223 C224 1.371 1_655 S
N223 C227 1.374 . S
C224 N223 1.371 1_455 S
C224 C225 1.440 1_455 S
C224 C251 1.397 . S
C225 C224 1.440 1_655 S
C225 C226 1.340 . S
C225 H257 0.951 . S
C226 C225 1.340 . S
C226 C227 1.439 . S
C226 H258 0.950 . S
C227 N223 1.374 . S
C227 C226 1.439 . S
C227 C252 1.395 . S
N228 Co217 1.995 . S
N228 C229 1.376 . S
N228 C232 1.383 . S
C229 N228 1.376 . S
C229 C230 1.446 . S
C229 C252 1.391 . S
C230 C229 1.446 . S
C230 C231 1.339 . S
C230 H259 0.949 . S
C231 C230 1.339 . S
C231 C232 1.439 . S
C231 H260 0.950 . S
C232 N228 1.383 . S
C232 C231 1.439 . S
C232 C250 1.392 . S
N233 Co217 2.282 1_455 S
N233 C236 1.332 . S
N233 C238 1.332 . S
C234 C235 1.386 . S
C234 C237 1.388 . S
C235 C234 1.386 . S
C235 C236 1.382 . S
C235 H261 0.950 . S
C236 N233 1.332 . S
C236 C235 1.382 . S
C236 H247 0.952 . S
C237 C234 1.388 . S
C237 C238 1.382 . S
C237 H262 0.950 . S
C238 N233 1.332 . S
C238 C237 1.382 . S
C238 H248 0.948 . S
N239 Co217 2.282 . S
N239 C243 1.332 . S
N239 C244 1.332 . S
C240 C241 1.388 . S
C240 C244 1.382 . S
C240 H263 0.950 . S
C241 C240 1.388 . S
C241 C242 1.386 . S
C242 C241 1.386 . S
C242 C243 1.382 . S
C242 H264 0.950 . S
C243 N239 1.332 . S
C243 C242 1.382 . S
C243 H245 0.952 . S
C244 N239 1.332 . S
C244 C240 1.382 . S
C244 H246 0.948 . S
H245 C243 0.952 . S
H246 C244 0.948 . S
H247 C236 0.952 . S
H248 C238 0.948 . S
C249 C215 1.395 . S
C249 C219 1.391 . S
C250 C212 1.401 . S
C250 C232 1.392 . S
C251 C222 1.392 . S
C251 C224 1.397 . S
C252 C227 1.395 . S
C252 C229 1.391 . S
H253 C213 0.951 . S
H254 C214 0.950 . S
H255 C220 0.949 . S
H256 C221 0.950 . S
H257 C225 0.951 . S
H258 C226 0.950 . S
H259 C230 0.949 . S
H260 C231 0.950 . S
H261 C235 0.950 . S
H262 C237 0.950 . S
H263 C240 0.950 . S
H264 C242 0.950 . S
C265 C266 1.443 . S
C265 N269 1.376 . S
C265 C303 1.389 . S
C266 C265 1.443 . S
C266 C267 1.340 . S
C266 H306 0.951 . S
C267 C266 1.340 . S
C267 C268 1.439 . S
C267 H307 0.950 . S
C268 C267 1.439 . S
C268 N269 1.374 . S
C268 C302 1.395 . S
N269 C265 1.376 . S
N269 C268 1.374 . S
N269 Co270 2.008 . S
Co270 N269 2.008 . S
Co270 N271 1.995 . S
Co270 N276 2.008 . S
Co270 N281 1.995 . S
Co270 N286 2.282 . S
Co270 N292 2.282 . S
N271 Co270 1.995 . S
N271 C272 1.376 . S
N271 C275 1.383 . S
C272 N271 1.376 . S
C272 C273 1.446 . S
C272 C302 1.391 . S
C273 C272 1.446 . S
C273 C274 1.339 . S
C273 H308 0.949 . S
C274 C273 1.339 . S
C274 C275 1.439 . S
C274 H309 0.950 . S
C275 N271 1.383 . S
C275 C274 1.439 . S
C275 C304 1.392 . S
N276 Co270 2.008 . S
N276 C277 1.376 . S
N276 C280 1.374 . S
C277 N276 1.376 . S
C277 C278 1.443 . S
C277 C304 1.389 . S
C278 C277 1.443 . S
C278 C279 1.340 . S
C278 H310 0.951 . S
C279 C278 1.340 . S
C279 C280 1.439 . S
C279 H311 0.950 . S
C280 N276 1.374 . S
C280 C279 1.439 . S
C280 C305 1.395 . S
N281 Co270 1.995 . S
N281 C282 1.376 . S
N281 C285 1.383 . S
C282 N281 1.376 . S
C282 C283 1.446 . S
C282 C305 1.391 . S
C283 C282 1.446 . S
C283 C284 1.339 . S
C283 H312 0.949 . S
C284 C283 1.339 . S
C284 C285 1.439 . S
C284 H313 0.950 . S
C285 N281 1.383 . S
C285 C284 1.439 . S
C285 C303 1.392 . S
N286 Co270 2.282 . S
N286 C289 1.332 . S
N286 C291 1.332 . S
C287 C288 1.386 . S
C287 C290 1.388 . S
C288 C287 1.386 . S
C288 C289 1.382 . S
C288 H314 0.950 . S
C289 N286 1.332 . S
C289 C288 1.382 . S
C289 H300 0.952 . S
C290 C287 1.388 . S
C290 C291 1.382 . S
C290 H315 0.950 . S
C291 N286 1.332 . S
C291 C290 1.382 . S
C291 H301 0.948 . S
N292 Co270 2.282 . S
N292 C296 1.332 . S
N292 C297 1.332 . S
C293 C294 1.388 . S
C293 C297 1.382 . S
C293 H316 0.950 . S
C294 C293 1.388 . S
C294 C295 1.386 . S
C295 C294 1.386 . S
C295 C296 1.382 . S
C295 H317 0.950 . S
C296 N292 1.332 . S
C296 C295 1.382 . S
C296 H298 0.952 . S
C297 N292 1.332 . S
C297 C293 1.382 . S
C297 H299 0.948 . S
H298 C296 0.952 . S
H299 C297 0.948 . S
H300 C289 0.952 . S
H301 C291 0.948 . S
C302 C268 1.395 . S
C302 C272 1.391 . S
C303 C265 1.389 . S
C303 C285 1.392 . S
C304 C275 1.392 . S
C304 C277 1.389 . S
C305 C280 1.395 . S
C305 C282 1.391 . S
H306 C266 0.951 . S
H307 C267 0.950 . S
H308 C273 0.949 . S
H309 C274 0.950 . S
H310 C278 0.951 . S
H311 C279 0.950 . S
H312 C283 0.949 . S
H313 C284 0.950 . S
H314 C288 0.950 . S
H315 C290 0.950 . S
H316 C293 0.950 . S
H317 C295 0.950 . S
C318 C319 1.443 . S
C318 N322 1.376 . S
C318 C356 1.389 . S
C319 C318 1.443 . S
C319 C320 1.340 . S
C319 H359 0.951 . S
C320 C319 1.340 . S
C320 C321 1.439 . S
C320 H360 0.950 . S
C321 C320 1.439 . S
C321 N322 1.374 . S
C321 C355 1.395 . S
N322 C318 1.376 . S
N322 C321 1.374 . S
N322 Co323 2.008 . S
Co323 N322 2.008 . S
Co323 N324 1.995 . S
Co323 N329 2.008 . S
Co323 N334 1.995 . S
Co323 N339 2.282 . S
Co323 N345 2.282 . S
N324 Co323 1.995 . S
N324 C325 1.376 . S
N324 C328 1.383 . S
C325 N324 1.376 . S
C325 C326 1.446 . S
C325 C355 1.391 . S
C326 C325 1.446 . S
C326 C327 1.339 . S
C326 H361 0.949 . S
C327 C326 1.339 . S
C327 C328 1.439 . S
C327 H362 0.950 . S
C328 N324 1.383 . S
C328 C327 1.439 . S
C328 C357 1.392 . S
N329 Co323 2.008 . S
N329 C330 1.376 . S
N329 C333 1.374 . S
C330 N329 1.376 . S
C330 C331 1.443 . S
C330 C357 1.389 . S
C331 C330 1.443 . S
C331 C332 1.340 . S
C331 H363 0.951 . S
C332 C331 1.340 . S
C332 C333 1.439 . S
C332 H364 0.950 . S
C333 N329 1.374 . S
C333 C332 1.439 . S
C333 C358 1.395 . S
N334 Co323 1.995 . S
N334 C335 1.376 . S
N334 C338 1.383 . S
C335 N334 1.376 . S
C335 C336 1.446 . S
C335 C358 1.391 . S
C336 C335 1.446 . S
C336 C337 1.339 . S
C336 H365 0.949 . S
C337 C336 1.339 . S
C337 C338 1.439 . S
C337 H366 0.950 . S
C338 N334 1.383 . S
C338 C337 1.439 . S
C338 C356 1.392 . S
N339 Co323 2.282 . S
N339 C342 1.332 . S
N339 C344 1.332 . S
C340 C341 1.386 . S
C340 C343 1.388 . S
C341 C340 1.386 . S
C341 C342 1.382 . S
C341 H367 0.950 . S
C342 N339 1.332 . S
C342 C341 1.382 . S
C342 H353 0.952 . S
C343 C340 1.388 . S
C343 C344 1.382 . S
C343 H368 0.950 . S
C344 N339 1.332 . S
C344 C343 1.382 . S
C344 H354 0.948 . S
N345 Co323 2.282 . S
N345 C349 1.332 . S
N345 C350 1.332 . S
C346 C347 1.388 . S
C346 C350 1.382 . S
C346 H369 0.950 . S
C347 C346 1.388 . S
C347 C348 1.386 . S
C348 C347 1.386 . S
C348 C349 1.382 . S
C348 H370 0.950 . S
C349 N345 1.332 . S
C349 C348 1.382 . S
C349 H351 0.952 . S
C350 N345 1.332 . S
C350 C346 1.382 . S
C350 H352 0.948 . S
H351 C349 0.952 . S
H352 C350 0.948 . S
H353 C342 0.952 . S
H354 C344 0.948 . S
C355 C321 1.395 . S
C355 C325 1.391 . S
C356 C318 1.389 . S
C356 C338 1.392 . S
C357 C328 1.392 . S
C357 C330 1.389 . S
C358 C333 1.395 . S
C358 C335 1.391 . S
H359 C319 0.951 . S
H360 C320 0.950 . S
H361 C326 0.949 . S
H362 C327 0.950 . S
H363 C331 0.951 . S
H364 C332 0.950 . S
H365 C336 0.949 . S
H366 C337 0.950 . S
H367 C341 0.950 . S
H368 C343 0.950 . S
H369 C346 0.950 . S
H370 C348 0.950 . S
C371 C372 1.443 . S
C371 N375 1.376 . S
C371 C409 1.389 . S
C372 C371 1.443 . S
C372 C373 1.340 . S
C372 H412 0.951 . S
C373 C372 1.340 . S
C373 C374 1.439 1_565 S
C373 H413 0.950 . S
C374 C373 1.439 1_545 S
C374 N375 1.374 1_545 S
C374 C408 1.395 . S
N375 C371 1.376 . S
N375 C374 1.374 1_565 S
N375 Co376 2.008 1_565 S
Co376 N375 2.008 1_545 S
Co376 N377 1.995 . S
Co376 N382 2.008 . S
Co376 N387 1.995 1_545 S
Co376 N392 2.282 . S
Co376 N398 2.282 1_545 S
N377 Co376 1.995 . S
N377 C378 1.376 . S
N377 C381 1.383 . S
C378 N377 1.376 . S
C378 C379 1.446 . S
C378 C408 1.391 . S
C379 C378 1.446 . S
C379 C380 1.339 . S
C379 H414 0.949 . S
C380 C379 1.339 . S
C380 C381 1.439 . S
C380 H415 0.950 . S
C381 N377 1.383 . S
C381 C380 1.439 . S
C381 C410 1.392 . S
N382 Co376 2.008 . S
N382 C383 1.376 . S
N382 C386 1.374 1_545 S
C383 N382 1.376 . S
C383 C384 1.443 . S
C383 C410 1.389 . S
C384 C383 1.443 . S
C384 C385 1.340 . S
C384 H416 0.951 . S
C385 C384 1.340 . S
C385 C386 1.439 1_545 S
C385 H417 0.950 . S
C386 N382 1.374 1_565 S
C386 C385 1.439 1_565 S
C386 C411 1.395 . S
N387 Co376 1.995 1_565 S
N387 C388 1.376 . S
N387 C391 1.383 . S
C388 N387 1.376 . S
C388 C389 1.446 . S
C388 C411 1.391 . S
C389 C388 1.446 . S
C389 C390 1.339 . S
C389 H418 0.949 . S
C390 C389 1.339 . S
C390 C391 1.439 . S
C390 H419 0.950 . S
C391 N387 1.383 . S
C391 C390 1.439 . S
C391 C409 1.392 . S
N392 Co376 2.282 . S
N392 C395 1.332 1_545 S
N392 C397 1.332 . S
C393 C394 1.386 . S
C393 C396 1.388 . S
C394 C393 1.386 . S
C394 C395 1.382 1_545 S
C394 H420 0.950 1_545 S
C395 N392 1.332 1_565 S
C395 C394 1.382 1_565 S
C395 H406 0.952 . S
C396 C393 1.388 . S
C396 C397 1.382 . S
C396 H421 0.950 . S
C397 N392 1.332 . S
C397 C396 1.382 . S
C397 H407 0.948 . S
N398 Co376 2.282 1_565 S
N398 C402 1.332 1_565 S
N398 C403 1.332 . S
C399 C400 1.388 . S
C399 C403 1.382 . S
C399 H422 0.950 . S
C400 C399 1.388 . S
C400 C401 1.386 . S
C401 C400 1.386 . S
C401 C402 1.382 1_565 S
C401 H423 0.950 1_565 S
C402 N398 1.332 1_545 S
C402 C401 1.382 1_545 S
C402 H404 0.952 . S
C403 N398 1.332 . S
C403 C399 1.382 . S
C403 H405 0.948 . S
H404 C402 0.952 . S
H405 C403 0.948 . S
H406 C395 0.952 . S
H407 C397 0.948 . S
C408 C374 1.395 . S
C408 C378 1.391 . S
C409 C371 1.389 . S
C409 C391 1.392 . S
C410 C381 1.392 . S
C410 C383 1.389 . S
C411 C386 1.395 . S
C411 C388 1.391 . S
H412 C372 0.951 . S
H413 C373 0.950 . S
H414 C379 0.949 . S
H415 C380 0.950 . S
H416 C384 0.951 . S
H417 C385 0.950 . S
H418 C389 0.949 . S
H419 C390 0.950 . S
H420 C394 0.950 1_565 S
H421 C396 0.950 . S
H422 C399 0.950 . S
H423 C401 0.950 1_545 S
H424 C436 0.930 . S
H425 C438 0.930 . S
H426 C439 0.930 1_554 S
H427 C443 0.959 . S
H428 C443 0.959 . S
H429 C443 0.961 . S
H430 C444 0.960 . S
H431 C444 0.961 . S
H432 C444 0.959 1_655 S
H433 C447 0.929 . S
H434 C448 0.931 . S
H435 C450 0.930 . S
C436 H424 0.930 . S
C436 C437 1.399 1_455 S
C436 C441 1.399 . S
C437 C436 1.399 1_655 S
C437 C438 1.376 . S
C438 H425 0.930 . S
C438 C437 1.376 . S
C438 C439 1.388 . S
C439 H426 0.930 1_556 S
C439 C438 1.388 . S
C439 C440 1.390 . S
C440 C439 1.390 . S
C440 C441 1.394 1_655 S
C440 C446 1.465 1_656 S
C441 C436 1.399 . S
C441 C440 1.394 1_455 S
C441 C442 1.516 . S
C442 C441 1.516 . S
C442 C443 1.502 . S
C442 C444 1.561 . S
C442 C445 1.526 . S
C443 H427 0.959 . S
C443 H428 0.959 . S
C443 H429 0.961 . S
C443 C442 1.502 . S
C444 H430 0.960 . S
C444 H431 0.961 . S
C444 H432 0.959 1_455 S
C444 C442 1.561 . S
C445 C442 1.526 . S
C445 C446 1.396 1_556 S
C445 C450 1.390 1_556 S
C446 C440 1.465 1_454 S
C446 C445 1.396 1_554 S
C446 C447 1.399 1_455 S
C447 H433 0.929 . S
C447 C446 1.399 1_655 S
C447 C448 1.385 1_655 S
C448 H434 0.931 . S
C448 C447 1.385 1_455 S
C448 C449 1.389 . S
C449 C448 1.389 . S
C449 C450 1.387 . S
C450 H435 0.930 . S
C450 C445 1.390 1_554 S
C450 C449 1.387 . S
H451 C463 0.930 . S
H452 C465 0.930 . S
H453 C466 0.930 . S
H454 C470 0.959 . S
H455 C470 0.959 . S
H456 C470 0.961 . S
H457 C471 0.960 . S
H458 C471 0.961 . S
H459 C471 0.959 . S
H460 C474 0.929 . S
H461 C475 0.931 . S
H462 C477 0.930 . S
C463 H451 0.930 . S
C463 C464 1.399 . S
C463 C468 1.399 . S
C464 C463 1.399 . S
C464 C465 1.376 . S
C465 H452 0.930 . S
C465 C464 1.376 . S
C465 C466 1.388 . S
C466 H453 0.930 . S
C466 C465 1.388 . S
C466 C467 1.390 . S
C467 C466 1.390 . S
C467 C468 1.394 . S
C467 C473 1.465 . S
C468 C463 1.399 . S
C468 C467 1.394 . S
C468 C469 1.516 . S
C469 C468 1.516 . S
C469 C470 1.502 . S
C469 C471 1.561 . S
C469 C472 1.526 . S
C470 H454 0.959 . S
C470 H455 0.959 . S
C470 H456 0.961 . S
C470 C469 1.502 . S
C471 H457 0.960 . S
C471 H458 0.961 . S
C471 H459 0.959 . S
C471 C469 1.561 . S
C472 C469 1.526 . S
C472 C473 1.396 . S
C472 C477 1.390 . S
C473 C467 1.465 . S
C473 C472 1.396 . S
C473 C474 1.399 . S
C474 H460 0.929 . S
C474 C473 1.399 . S
C474 C475 1.385 . S
C475 H461 0.931 . S
C475 C474 1.385 . S
C475 C476 1.389 . S
C476 C475 1.389 . S
C476 C477 1.387 . S
C477 H462 0.930 . S
C477 C472 1.390 . S
C477 C476 1.387 . S
H478 C490 0.930 . S
H479 C492 0.930 . S
H480 C493 0.930 . S
H481 C497 0.959 . S
H482 C497 0.959 . S
H483 C497 0.961 . S
H484 C498 0.960 . S
H485 C498 0.961 . S
H486 C498 0.959 . S
H487 C501 0.929 1_565 S
H488 C502 0.931 . S
H489 C504 0.930 . S
C490 H478 0.930 . S
C490 C491 1.399 . S
C490 C495 1.399 . S
C491 C490 1.399 . S
C491 C492 1.376 . S
C492 H479 0.930 . S
C492 C491 1.376 . S
C492 C493 1.388 1_554 S
C493 H480 0.930 . S
C493 C492 1.388 1_556 S
C493 C494 1.390 . S
C494 C493 1.390 . S
C494 C495 1.394 1_556 S
C494 C500 1.465 1_565 S
C495 C490 1.399 . S
C495 C494 1.394 1_554 S
C495 C496 1.516 1_565 S
C496 C495 1.516 1_545 S
C496 C497 1.502 . S
C496 C498 1.561 . S
C496 C499 1.526 1_554 S
C497 H481 0.959 . S
C497 H482 0.959 . S
C497 H483 0.961 . S
C497 C496 1.502 . S
C498 H484 0.960 . S
C498 H485 0.961 . S
C498 H486 0.959 . S
C498 C496 1.561 . S
C499 C496 1.526 1_556 S
C499 C500 1.396 . S
C499 C504 1.390 . S
C500 C494 1.465 1_545 S
C500 C499 1.396 . S
C500 C501 1.399 . S
C501 H487 0.929 1_545 S
C501 C500 1.399 . S
C501 C502 1.385 . S
C502 H488 0.931 . S
C502 C501 1.385 . S
C502 C503 1.389 . S
C503 C502 1.389 . S
C503 C504 1.387 . S
C504 H489 0.930 . S
C504 C499 1.390 . S
C504 C503 1.387 . S
H505 C517 0.930 . S
H506 C519 0.930 . S
H507 C520 0.930 . S
H508 C524 0.959 . S
H509 C524 0.959 . S
H510 C524 0.961 . S
H511 C525 0.960 . S
H512 C525 0.961 1_455 S
H513 C525 0.959 . S
H514 C528 0.929 . S
H515 C529 0.931 . S
H516 C531 0.930 . S
C517 H505 0.930 . S
C517 C518 1.399 . S
C517 C522 1.399 . S
C518 C517 1.399 . S
C518 C519 1.376 1_545 S
C519 H506 0.930 . S
C519 C518 1.376 1_565 S
C519 C520 1.388 . S
C520 H507 0.930 . S
C520 C519 1.388 . S
C520 C521 1.390 . S
C521 C520 1.390 . S
C521 C522 1.394 1_565 S
C521 C527 1.465 1_655 S
C522 C517 1.399 . S
C522 C521 1.394 1_545 S
C522 C523 1.516 1_655 S
C523 C522 1.516 1_455 S
C523 C524 1.502 . S
C523 C525 1.561 1_455 S
C523 C526 1.526 . S
C524 H508 0.959 . S
C524 H509 0.959 . S
C524 H510 0.961 . S
C524 C523 1.502 . S
C525 H511 0.960 . S
C525 H512 0.961 1_655 S
C525 H513 0.959 . S
C525 C523 1.561 1_655 S
C526 C523 1.526 . S
C526 C527 1.396 1_545 S
C526 C531 1.390 . S
C527 C521 1.465 1_455 S
C527 C526 1.396 1_565 S
C527 C528 1.399 . S
C528 H514 0.929 . S
C528 C527 1.399 . S
C528 C529 1.385 . S
C529 H515 0.931 . S
C529 C528 1.385 . S
C529 C530 1.389 . S
C530 C529 1.389 . S
C530 C531 1.387 1_565 S
C531 H516 0.930 . S
C531 C526 1.390 . S
C531 C530 1.387 1_545 S
H532 C544 0.930 . S
H533 C546 0.930 . S
H534 C547 0.930 . S
H535 C551 0.959 . S
H536 C551 0.959 . S
H537 C551 0.961 . S
H538 C552 0.960 . S
H539 C552 0.961 . S
H540 C552 0.959 . S
H541 C555 0.929 . S
H542 C556 0.931 . S
H543 C558 0.930 . S
C544 H532 0.930 . S
C544 C545 1.399 . S
C544 C549 1.399 . S
C545 C544 1.399 . S
C545 C546 1.376 . S
C546 H533 0.930 . S
C546 C545 1.376 . S
C546 C547 1.388 . S
C547 H534 0.930 . S
C547 C546 1.388 . S
C547 C548 1.390 . S
C548 C547 1.390 . S
C548 C549 1.394 . S
C548 C554 1.465 . S
C549 C544 1.399 . S
C549 C548 1.394 . S
C549 C550 1.516 . S
C550 C549 1.516 . S
C550 C551 1.502 . S
C550 C552 1.561 . S
C550 C553 1.526 . S
C551 H535 0.959 . S
C551 H536 0.959 . S
C551 H537 0.961 . S
C551 C550 1.502 . S
C552 H538 0.960 . S
C552 H539 0.961 . S
C552 H540 0.959 . S
C552 C550 1.561 . S
C553 C550 1.526 . S
C553 C554 1.396 . S
C553 C558 1.390 . S
C554 C548 1.465 . S
C554 C553 1.396 . S
C554 C555 1.399 . S
C555 H541 0.929 . S
C555 C554 1.399 . S
C555 C556 1.385 . S
C556 H542 0.931 . S
C556 C555 1.385 . S
C556 C557 1.389 . S
C557 C556 1.389 . S
C557 C558 1.387 . S
C558 H543 0.930 . S
C558 C553 1.390 . S
C558 C557 1.387 . S
H559 C571 0.930 . S
H560 C573 0.930 . S
H561 C574 0.930 . S
H562 C578 0.959 . S
H563 C578 0.959 . S
H564 C578 0.961 . S
H565 C579 0.960 . S
H566 C579 0.961 . S
H567 C579 0.959 . S
H568 C582 0.929 . S
H569 C583 0.931 . S
H570 C585 0.930 . S
C571 H559 0.930 . S
C571 C572 1.399 . S
C571 C576 1.399 . S
C572 C571 1.399 . S
C572 C573 1.376 . S
C573 H560 0.930 . S
C573 C572 1.376 . S
C573 C574 1.388 . S
C574 H561 0.930 . S
C574 C573 1.388 . S
C574 C575 1.390 . S
C575 C574 1.390 . S
C575 C576 1.394 . S
C575 C581 1.465 . S
C576 C571 1.399 . S
C576 C575 1.394 . S
C576 C577 1.516 . S
C577 C576 1.516 . S
C577 C578 1.502 . S
C577 C579 1.561 . S
C577 C580 1.526 . S
C578 H562 0.959 . S
C578 H563 0.959 . S
C578 H564 0.961 . S
C578 C577 1.502 . S
C579 H565 0.960 . S
C579 H566 0.961 . S
C579 H567 0.959 . S
C579 C577 1.561 . S
C580 C577 1.526 . S
C580 C581 1.396 . S
C580 C585 1.390 . S
C581 C575 1.465 . S
C581 C580 1.396 . S
C581 C582 1.399 . S
C582 H568 0.929 . S
C582 C581 1.399 . S
C582 C583 1.385 . S
C583 H569 0.931 . S
C583 C582 1.385 . S
C583 C584 1.389 . S
C584 C583 1.389 . S
C584 C585 1.387 . S
C585 H570 0.930 . S
C585 C580 1.390 . S
C585 C584 1.387 . S
H586 C598 0.930 . S
H587 C600 0.930 . S
H588 C601 0.930 . S
H589 C605 0.959 . S
H590 C605 0.959 . S
H591 C605 0.961 . S
H592 C606 0.960 . S
H593 C606 0.961 . S
H594 C606 0.959 . S
H595 C609 0.929 . S
H596 C610 0.931 . S
H597 C612 0.930 . S
C598 H586 0.930 . S
C598 C599 1.399 . S
C598 C603 1.399 . S
C599 C598 1.399 . S
C599 C600 1.376 . S
C600 H587 0.930 . S
C600 C599 1.376 . S
C600 C601 1.388 . S
C601 H588 0.930 . S
C601 C600 1.388 . S
C601 C602 1.390 . S
C602 C601 1.390 . S
C602 C603 1.394 . S
C602 C608 1.465 . S
C603 C598 1.399 . S
C603 C602 1.394 . S
C603 C604 1.516 . S
C604 C603 1.516 . S
C604 C605 1.502 . S
C604 C606 1.561 . S
C604 C607 1.526 . S
C605 H589 0.959 . S
C605 H590 0.959 . S
C605 H591 0.961 . S
C605 C604 1.502 . S
C606 H592 0.960 . S
C606 H593 0.961 . S
C606 H594 0.959 . S
C606 C604 1.561 . S
C607 C604 1.526 . S
C607 C608 1.396 . S
C607 C612 1.390 . S
C608 C602 1.465 . S
C608 C607 1.396 . S
C608 C609 1.399 . S
C609 H595 0.929 . S
C609 C608 1.399 . S
C609 C610 1.385 . S
C610 H596 0.931 . S
C610 C609 1.385 . S
C610 C611 1.389 . S
C611 C610 1.389 . S
C611 C612 1.387 . S
C612 H597 0.930 . S
C612 C607 1.390 . S
C612 C611 1.387 . S
H613 C625 0.930 . S
H614 C627 0.930 . S
H615 C628 0.930 . S
H616 C632 0.959 . S
H617 C632 0.959 . S
H618 C632 0.961 . S
H619 C633 0.960 . S
H620 C633 0.961 . S
H621 C633 0.959 . S
H622 C636 0.929 . S
H623 C637 0.931 . S
H624 C639 0.930 . S
C625 H613 0.930 . S
C625 C626 1.399 . S
C625 C630 1.399 . S
C626 C625 1.399 . S
C626 C627 1.376 . S
C627 H614 0.930 . S
C627 C626 1.376 . S
C627 C628 1.388 . S
C628 H615 0.930 . S
C628 C627 1.388 . S
C628 C629 1.390 . S
C629 C628 1.390 . S
C629 C630 1.394 . S
C629 C635 1.465 . S
C630 C625 1.399 . S
C630 C629 1.394 . S
C630 C631 1.516 . S
C631 C630 1.516 . S
C631 C632 1.502 . S
C631 C633 1.561 . S
C631 C634 1.526 . S
C632 H616 0.959 . S
C632 H617 0.959 . S
C632 H618 0.961 . S
C632 C631 1.502 . S
C633 H619 0.960 . S
C633 H620 0.961 . S
C633 H621 0.959 . S
C633 C631 1.561 . S
C634 C631 1.526 . S
C634 C635 1.396 . S
C634 C639 1.390 . S
C635 C629 1.465 . S
C635 C634 1.396 . S
C635 C636 1.399 . S
C636 H622 0.929 . S
C636 C635 1.399 . S
C636 C637 1.385 . S
C637 H623 0.931 . S
C637 C636 1.385 . S
C637 C638 1.389 . S
C638 C637 1.389 . S
C638 C639 1.387 . S
C639 H624 0.930 . S
C639 C634 1.390 . S
C639 C638 1.387 . S
H640 C652 0.930 . S
H641 C654 0.930 . S
H642 C655 0.930 . S
H643 C659 0.959 . S
H644 C659 0.959 . S
H645 C659 0.961 . S
H646 C660 0.960 . S
H647 C660 0.961 . S
H648 C660 0.959 . S
H649 C663 0.929 . S
H650 C664 0.931 . S
H651 C666 0.930 . S
C652 H640 0.930 . S
C652 C653 1.399 . S
C652 C657 1.399 . S
C653 C652 1.399 . S
C653 C654 1.376 . S
C654 H641 0.930 . S
C654 C653 1.376 . S
C654 C655 1.388 . S
C655 H642 0.930 . S
C655 C654 1.388 . S
C655 C656 1.390 . S
C656 C655 1.390 . S
C656 C657 1.394 . S
C656 C662 1.465 . S
C657 C652 1.399 . S
C657 C656 1.394 . S
C657 C658 1.516 . S
C658 C657 1.516 . S
C658 C659 1.502 . S
C658 C660 1.561 . S
C658 C661 1.526 . S
C659 H643 0.959 . S
C659 H644 0.959 . S
C659 H645 0.961 . S
C659 C658 1.502 . S
C660 H646 0.960 . S
C660 H647 0.961 . S
C660 H648 0.959 . S
C660 C658 1.561 . S
C661 C658 1.526 . S
C661 C662 1.396 . S
C661 C666 1.390 . S
C662 C656 1.465 . S
C662 C661 1.396 . S
C662 C663 1.399 . S
C663 H649 0.929 . S
C663 C662 1.399 . S
C663 C664 1.385 . S
C664 H650 0.931 . S
C664 C663 1.385 . S
C664 C665 1.389 . S
C665 C664 1.389 . S
C665 C666 1.387 . S
C666 H651 0.930 . S
C666 C661 1.390 . S
C666 C665 1.387 . S
H667 C679 0.930 . S
H668 C681 0.930 . S
H669 C682 0.930 . S
H670 C686 0.959 . S
H671 C686 0.959 . S
H672 C686 0.961 . S
H673 C687 0.960 . S
H674 C687 0.961 . S
H675 C687 0.959 . S
H676 C690 0.929 . S
H677 C691 0.931 . S
H678 C693 0.930 . S
C679 H667 0.930 . S
C679 C680 1.399 . S
C679 C684 1.399 . S
C680 C679 1.399 . S
C680 C681 1.376 . S
C681 H668 0.930 . S
C681 C680 1.376 . S
C681 C682 1.388 . S
C682 H669 0.930 . S
C682 C681 1.388 . S
C682 C683 1.390 . S
C683 C682 1.390 . S
C683 C684 1.394 . S
C683 C689 1.465 . S
C684 C679 1.399 . S
C684 C683 1.394 . S
C684 C685 1.516 . S
C685 C684 1.516 . S
C685 C686 1.502 . S
C685 C687 1.561 . S
C685 C688 1.526 . S
C686 H670 0.959 . S
C686 H671 0.959 . S
C686 H672 0.961 . S
C686 C685 1.502 . S
C687 H673 0.960 . S
C687 H674 0.961 . S
C687 H675 0.959 . S
C687 C685 1.561 . S
C688 C685 1.526 . S
C688 C689 1.396 . S
C688 C693 1.390 . S
C689 C683 1.465 . S
C689 C688 1.396 . S
C689 C690 1.399 . S
C690 H676 0.929 . S
C690 C689 1.399 . S
C690 C691 1.385 . S
C691 H677 0.931 . S
C691 C690 1.385 . S
C691 C692 1.389 . S
C692 C691 1.389 . S
C692 C693 1.387 . S
C693 H678 0.930 . S
C693 C688 1.390 . S
C693 C692 1.387 . S
H694 C706 0.930 . S
H695 C708 0.930 . S
H696 C709 0.930 . S
H697 C713 0.959 . S
H698 C713 0.959 . S
H699 C713 0.961 . S
H700 C714 0.960 . S
H701 C714 0.961 . S
H702 C714 0.959 . S
H703 C717 0.929 . S
H704 C718 0.931 . S
H705 C720 0.930 . S
C706 H694 0.930 . S
C706 C707 1.399 . S
C706 C711 1.399 . S
C707 C706 1.399 . S
C707 C708 1.376 . S
C708 H695 0.930 . S
C708 C707 1.376 . S
C708 C709 1.388 . S
C709 H696 0.930 . S
C709 C708 1.388 . S
C709 C710 1.390 . S
C710 C709 1.390 . S
C710 C711 1.394 . S
C710 C716 1.465 . S
C711 C706 1.399 . S
C711 C710 1.394 . S
C711 C712 1.516 . S
C712 C711 1.516 . S
C712 C713 1.502 . S
C712 C714 1.561 . S
C712 C715 1.526 . S
C713 H697 0.959 . S
C713 H698 0.959 . S
C713 H699 0.961 . S
C713 C712 1.502 . S
C714 H700 0.960 . S
C714 H701 0.961 . S
C714 H702 0.959 . S
C714 C712 1.561 . S
C715 C712 1.526 . S
C715 C716 1.396 . S
C715 C720 1.390 . S
C716 C710 1.465 . S
C716 C715 1.396 . S
C716 C717 1.399 . S
C717 H703 0.929 . S
C717 C716 1.399 . S
C717 C718 1.385 . S
C718 H704 0.931 . S
C718 C717 1.385 . S
C718 C719 1.389 . S
C719 C718 1.389 . S
C719 C720 1.387 . S
C720 H705 0.930 . S
C720 C715 1.390 . S
C720 C719 1.387 . S
H721 C733 0.930 . S
H722 C735 0.930 1_655 S
H723 C736 0.930 . S
H724 C740 0.959 . S
H725 C740 0.959 . S
H726 C740 0.961 . S
H727 C741 0.960 . S
H728 C741 0.961 . S
H729 C741 0.959 . S
H730 C744 0.929 . S
H731 C745 0.931 . S
H732 C747 0.930 . S
C733 H721 0.930 . S
C733 C734 1.399 . S
C733 C738 1.399 . S
C734 C733 1.399 . S
C734 C735 1.376 . S
C735 H722 0.930 1_455 S
C735 C734 1.376 . S
C735 C736 1.388 . S
C736 H723 0.930 . S
C736 C735 1.388 . S
C736 C737 1.390 . S
C737 C736 1.390 . S
C737 C738 1.394 . S
C737 C743 1.465 . S
C738 C733 1.399 . S
C738 C737 1.394 . S
C738 C739 1.516 . S
C739 C738 1.516 . S
C739 C740 1.502 . S
C739 C741 1.561 . S
C739 C742 1.526 . S
C740 H724 0.959 . S
C740 H725 0.959 . S
C740 H726 0.961 . S
C740 C739 1.502 . S
C741 H727 0.960 . S
C741 H728 0.961 . S
C741 H729 0.959 . S
C741 C739 1.561 . S
C742 C739 1.526 . S
C742 C743 1.396 . S
C742 C747 1.390 . S
C743 C737 1.465 . S
C743 C742 1.396 . S
C743 C744 1.399 . S
C744 H730 0.929 . S
C744 C743 1.399 . S
C744 C745 1.385 . S
C745 H731 0.931 . S
C745 C744 1.385 . S
C745 C746 1.389 . S
C746 C745 1.389 . S
C746 C747 1.387 . S
C747 H732 0.930 . S
C747 C742 1.390 . S
C747 C746 1.387 . S
H748 C760 0.930 . S
H749 C762 0.930 . S
H750 C763 0.930 . S
H751 C767 0.959 . S
H752 C767 0.959 . S
H753 C767 0.961 . S
H754 C768 0.960 . S
H755 C768 0.961 . S
H756 C768 0.959 . S
H757 C771 0.929 . S
H758 C772 0.931 . S
H759 C774 0.930 . S
C760 H748 0.930 . S
C760 C761 1.399 . S
C760 C765 1.399 . S
C761 C760 1.399 . S
C761 C762 1.376 . S
C762 H749 0.930 . S
C762 C761 1.376 . S
C762 C763 1.388 . S
C763 H750 0.930 . S
C763 C762 1.388 . S
C763 C764 1.390 . S
C764 C763 1.390 . S
C764 C765 1.394 . S
C764 C770 1.465 . S
C765 C760 1.399 . S
C765 C764 1.394 . S
C765 C766 1.516 . S
C766 C765 1.516 . S
C766 C767 1.502 . S
C766 C768 1.561 . S
C766 C769 1.526 . S
C767 H751 0.959 . S
C767 H752 0.959 . S
C767 H753 0.961 . S
C767 C766 1.502 . S
C768 H754 0.960 . S
C768 H755 0.961 . S
C768 H756 0.959 . S
C768 C766 1.561 . S
C769 C766 1.526 . S
C769 C770 1.396 . S
C769 C774 1.390 . S
C770 C764 1.465 . S
C770 C769 1.396 . S
C770 C771 1.399 . S
C771 H757 0.929 . S
C771 C770 1.399 . S
C771 C772 1.385 . S
C772 H758 0.931 . S
C772 C771 1.385 . S
C772 C773 1.389 . S
C773 C772 1.389 . S
C773 C774 1.387 . S
C774 H759 0.930 . S
C774 C769 1.390 . S
C774 C773 1.387 . S
H775 C787 0.930 . S
H776 C789 0.930 . S
H777 C790 0.930 . S
H778 C794 0.959 . S
H779 C794 0.959 . S
H780 C794 0.961 . S
H781 C795 0.960 . S
H782 C795 0.961 . S
H783 C795 0.959 . S
H784 C798 0.929 . S
H785 C799 0.931 . S
H786 C801 0.930 . S
C787 H775 0.930 . S
C787 C788 1.399 . S
C787 C792 1.399 . S
C788 C787 1.399 . S
C788 C789 1.376 . S
C789 H776 0.930 . S
C789 C788 1.376 . S
C789 C790 1.388 . S
C790 H777 0.930 . S
C790 C789 1.388 . S
C790 C791 1.390 . S
C791 C790 1.390 . S
C791 C792 1.394 . S
C791 C797 1.465 . S
C792 C787 1.399 . S
C792 C791 1.394 . S
C792 C793 1.516 . S
C793 C792 1.516 . S
C793 C794 1.502 . S
C793 C795 1.561 . S
C793 C796 1.526 . S
C794 H778 0.959 . S
C794 H779 0.959 . S
C794 H780 0.961 . S
C794 C793 1.502 . S
C795 H781 0.960 . S
C795 H782 0.961 . S
C795 H783 0.959 . S
C795 C793 1.561 . S
C796 C793 1.526 . S
C796 C797 1.396 . S
C796 C801 1.390 . S
C797 C791 1.465 . S
C797 C796 1.396 . S
C797 C798 1.399 . S
C798 H784 0.929 . S
C798 C797 1.399 . S
C798 C799 1.385 . S
C799 H785 0.931 . S
C799 C798 1.385 . S
C799 C800 1.389 . S
C800 C799 1.389 . S
C800 C801 1.387 . S
C801 H786 0.930 . S
C801 C796 1.390 . S
C801 C800 1.387 . S
H802 C814 0.930 . S
H803 C816 0.930 . S
H804 C817 0.930 . S
H805 C821 0.959 . S
H806 C821 0.959 . S
H807 C821 0.961 . S
H808 C822 0.960 . S
H809 C822 0.961 . S
H810 C822 0.959 . S
H811 C825 0.929 . S
H812 C826 0.931 1_565 S
H813 C828 0.930 . S
C814 H802 0.930 . S
C814 C815 1.399 . S
C814 C819 1.399 . S
C815 C814 1.399 . S
C815 C816 1.376 . S
C816 H803 0.930 . S
C816 C815 1.376 . S
C816 C817 1.388 . S
C817 H804 0.930 . S
C817 C816 1.388 . S
C817 C818 1.390 . S
C818 C817 1.390 . S
C818 C819 1.394 . S
C818 C824 1.465 . S
C819 C814 1.399 . S
C819 C818 1.394 . S
C819 C820 1.516 . S
C820 C819 1.516 . S
C820 C821 1.502 . S
C820 C822 1.561 . S
C820 C823 1.526 . S
C821 H805 0.959 . S
C821 H806 0.959 . S
C821 H807 0.961 . S
C821 C820 1.502 . S
C822 H808 0.960 . S
C822 H809 0.961 . S
C822 H810 0.959 . S
C822 C820 1.561 . S
C823 C820 1.526 . S
C823 C824 1.396 . S
C823 C828 1.390 . S
C824 C818 1.465 . S
C824 C823 1.396 . S
C824 C825 1.399 . S
C825 H811 0.929 . S
C825 C824 1.399 . S
C825 C826 1.385 . S
C826 H812 0.931 1_545 S
C826 C825 1.385 . S
C826 C827 1.389 . S
C827 C826 1.389 . S
C827 C828 1.387 . S
C828 H813 0.930 . S
C828 C823 1.390 . S
C828 C827 1.387 . S
H829 C841 0.930 . S
H830 C843 0.930 . S
H831 C844 0.930 . S
H832 C848 0.959 . S
H833 C848 0.959 . S
H834 C848 0.961 . S
H835 C849 0.960 . S
H836 C849 0.961 . S
H837 C849 0.959 . S
H838 C852 0.929 . S
H839 C853 0.931 . S
H840 C855 0.930 . S
C841 H829 0.930 . S
C841 C842 1.399 . S
C841 C846 1.399 . S
C842 C841 1.399 . S
C842 C843 1.376 . S
C843 H830 0.930 . S
C843 C842 1.376 . S
C843 C844 1.388 . S
C844 H831 0.930 . S
C844 C843 1.388 . S
C844 C845 1.390 . S
C845 C844 1.390 . S
C845 C846 1.394 . S
C845 C851 1.465 . S
C846 C841 1.399 . S
C846 C845 1.394 . S
C846 C847 1.516 . S
C847 C846 1.516 . S
C847 C848 1.502 . S
C847 C849 1.561 . S
C847 C850 1.526 . S
C848 H832 0.959 . S
C848 H833 0.959 . S
C848 H834 0.961 . S
C848 C847 1.502 . S
C849 H835 0.960 . S
C849 H836 0.961 . S
C849 H837 0.959 . S
C849 C847 1.561 . S
C850 C847 1.526 . S
C850 C851 1.396 . S
C850 C855 1.390 . S
C851 C845 1.465 . S
C851 C850 1.396 . S
C851 C852 1.399 . S
C852 H838 0.929 . S
C852 C851 1.399 . S
C852 C853 1.385 . S
C853 H839 0.931 . S
C853 C852 1.385 . S
C853 C854 1.389 . S
C854 C853 1.389 . S
C854 C855 1.387 . S
C855 H840 0.930 . S
C855 C850 1.390 . S
C855 C854 1.387 . S
C437 C250 2.085 . S
C449 C22 2.036 . S
C464 C91 1.958 . S
C476 C287 1.996 . S
C491 C128 1.864 . S
C503 C356 1.857 . S
C518 C393 1.941 . S
C530 C197 1.994 . S
C545 C39 2.796 . S
C557 C145 2.780 . S
C572 C82 2.419 . S
C584 C188 2.423 . S
C599 C347 2.443 . S
C611 C241 2.433 . S
C626 C304 2.791 . S
C638 C410 2.808 . S
C653 C294 1.590 . S
C665 C38 1.574 . S
C680 C75 1.564 . S
C692 C357 1.732 . S
C707 C144 1.650 . S
C719 C400 1.672 . S
C734 C251 1.518 . S
C746 C181 1.490 . S
C761 C234 1.488 . S
C773 C92 1.611 . S
C788 C303 1.585 . S
C800 C135 1.700 . S
C815 C340 1.525 . S
C827 C198 1.667 . S
C842 C29 1.609 . S
C854 C409 1.511 . S
