# Generated by pormake.
# Topology umz, (4)-cn, num edge types: 1
# Building blocks:
#     Node 0, Type 0, BuildingBlock: KUFVIS_clean_sbu_0, # of connection points: 4
#     Node 1, Type 0, BuildingBlock: KUFVIS_clean_sbu_0, # of connection points: 4
#     Node 2, Type 0, BuildingBlock: KUFVIS_clean_sbu_0, # of connection points: 4
#     Node 3, Type 0, BuildingBlock: KUFVIS_clean_sbu_0, # of connection points: 4
#     Node 4, Type 0, BuildingBlock: KUFVIS_clean_sbu_0, # of connection points: 4
#     Node 5, Type 0, BuildingBlock: KUFVIS_clean_sbu_0, # of connection points: 4
#     Node 6, Type 0, BuildingBlock: KUFVIS_clean_sbu_0, # of connection points: 4
#     Node 7, Type 0, BuildingBlock: KUFVIS_clean_sbu_0, # of connection points: 4
#     Node 8, Type 0, BuildingBlock: KUFVIS_clean_sbu_0, # of connection points: 4
#     Node 9, Type 0, BuildingBlock: KUFVIS_clean_sbu_0, # of connection points: 4
#     Node 10, Type 0, BuildingBlock: KUFVIS_clean_sbu_0, # of connection points: 4
#     Node 11, Type 0, BuildingBlock: KUFVIS_clean_sbu_0, # of connection points: 4
#     Node 12, Type 0, BuildingBlock: KUFVIS_clean_sbu_0, # of connection points: 4
#     Node 13, Type 0, BuildingBlock: KUFVIS_clean_sbu_0, # of connection points: 4
#     Node 14, Type 0, BuildingBlock: KUFVIS_clean_sbu_0, # of connection points: 4
#     Node 15, Type 0, BuildingBlock: KUFVIS_clean_sbu_0, # of connection points: 4
#     Edge 16, Type (0, 0), BuildingBlock: OJICUG_clean_linker_0, # of connection points: 2
#     Edge 17, Type (0, 0), BuildingBlock: OJICUG_clean_linker_0, # of connection points: 2
#     Edge 18, Type (0, 0), BuildingBlock: OJICUG_clean_linker_0, # of connection points: 2
#     Edge 19, Type (0, 0), BuildingBlock: OJICUG_clean_linker_0, # of connection points: 2
#     Edge 20, Type (0, 0), BuildingBlock: OJICUG_clean_linker_0, # of connection points: 2
#     Edge 21, Type (0, 0), BuildingBlock: OJICUG_clean_linker_0, # of connection points: 2
#     Edge 22, Type (0, 0), BuildingBlock: OJICUG_clean_linker_0, # of connection points: 2
#     Edge 23, Type (0, 0), BuildingBlock: OJICUG_clean_linker_0, # of connection points: 2
#     Edge 24, Type (0, 0), BuildingBlock: OJICUG_clean_linker_0, # of connection points: 2
#     Edge 25, Type (0, 0), BuildingBlock: OJICUG_clean_linker_0, # of connection points: 2
#     Edge 26, Type (0, 0), BuildingBlock: OJICUG_clean_linker_0, # of connection points: 2
#     Edge 27, Type (0, 0), BuildingBlock: OJICUG_clean_linker_0, # of connection points: 2
#     Edge 28, Type (0, 0), BuildingBlock: OJICUG_clean_linker_0, # of connection points: 2
#     Edge 29, Type (0, 0), BuildingBlock: OJICUG_clean_linker_0, # of connection points: 2
#     Edge 30, Type (0, 0), BuildingBlock: OJICUG_clean_linker_0, # of connection points: 2
#     Edge 31, Type (0, 0), BuildingBlock: OJICUG_clean_linker_0, # of connection points: 2
#     Edge 32, Type (0, 0), BuildingBlock: OJICUG_clean_linker_0, # of connection points: 2
#     Edge 33, Type (0, 0), BuildingBlock: OJICUG_clean_linker_0, # of connection points: 2
#     Edge 34, Type (0, 0), BuildingBlock: OJICUG_clean_linker_0, # of connection points: 2
#     Edge 35, Type (0, 0), BuildingBlock: OJICUG_clean_linker_0, # of connection points: 2
#     Edge 36, Type (0, 0), BuildingBlock: OJICUG_clean_linker_0, # of connection points: 2
#     Edge 37, Type (0, 0), BuildingBlock: OJICUG_clean_linker_0, # of connection points: 2
#     Edge 38, Type (0, 0), BuildingBlock: OJICUG_clean_linker_0, # of connection points: 2
#     Edge 39, Type (0, 0), BuildingBlock: OJICUG_clean_linker_0, # of connection points: 2
#     Edge 40, Type (0, 0), BuildingBlock: OJICUG_clean_linker_0, # of connection points: 2
#     Edge 41, Type (0, 0), BuildingBlock: OJICUG_clean_linker_0, # of connection points: 2
#     Edge 42, Type (0, 0), BuildingBlock: OJICUG_clean_linker_0, # of connection points: 2
#     Edge 43, Type (0, 0), BuildingBlock: OJICUG_clean_linker_0, # of connection points: 2
#     Edge 44, Type (0, 0), BuildingBlock: OJICUG_clean_linker_0, # of connection points: 2
#     Edge 45, Type (0, 0), BuildingBlock: OJICUG_clean_linker_0, # of connection points: 2
#     Edge 46, Type (0, 0), BuildingBlock: OJICUG_clean_linker_0, # of connection points: 2
#     Edge 47, Type (0, 0), BuildingBlock: OJICUG_clean_linker_0, # of connection points: 2
# Relax obj value: 0.246
# Max RMSD: 0.163
# Mean RMSD: 0.163
data_MOF--net-umz--node1-KUFVIS_clean_sbu_0--edge1-OJICUG_clean_linker_0
_symmetry_space_group_name_H-M    P1
_symmetry_Int_Tables_number       1
_symmetry_cell_setting            triclinic
loop_
_symmetry_equiv_pos_as_xyz
'x, y, z'
_cell_length_a     42.4254
_cell_length_b     42.434843
_cell_length_c     16.539358
_cell_angle_alpha  90.003894
_cell_angle_beta   90.034408
_cell_angle_gamma 90.025184
loop_
_atom_site_label
_atom_site_type_symbol
_atom_site_fract_x
_atom_site_fract_y
_atom_site_fract_z
_atom_type_partial_charge
Mn0 Mn 0.01896 0.62816 0.13131 0.0
Mn1 Mn 0.95998 0.61855 0.99783 0.0
C2 C 0.9679 0.61796 0.17596 0.0
C3 C 0.05822 0.60477 0.20948 0.0
C4 C 0.98691 0.68257 0.04136 0.0
O5 O 0.04295 0.62011 0.02669 0.0
O6 O 0.00148 0.61355 0.94351 0.0
C7 C 0.97135 0.55057 0.96887 0.0
N8 N 0.95167 0.57424 0.99236 0.0
C9 C 0.91052 0.53722 0.02427 0.0
C10 C 0.93026 0.51249 0.99988 0.0
C11 C 0.96082 0.5192 0.97211 0.0
C12 C 0.92234 0.568 0.01984 0.0
H13 H 0.99497 0.55552 0.94824 0.0
C14 C 0.03122 0.6145 0.95708 0.0
O15 O 0.05894 0.63487 0.19455 0.0
O16 O 0.03554 0.58871 0.17757 0.0
N17 N 0.91843 0.62204 0.04212 0.0
C18 C 0.90212 0.64859 0.0618 0.0
C19 C 0.87073 0.64607 0.088 0.0
C20 C 0.85643 0.61628 0.09362 0.0
C21 C 0.87352 0.58931 0.07179 0.0
C22 C 0.90452 0.59336 0.04466 0.0
H23 H 0.913 0.67148 0.05773 0.0
O24 O 0.98825 0.63135 0.22321 0.0
O25 O 0.97821 0.61171 0.10397 0.0
O26 O 0.0077 0.67251 0.09117 0.0
O27 O 0.9673 0.66471 1.00411 0.0
C28 C 0.86108 0.55857 0.07643 0.0
C29 C 0.87965 0.53253 0.05323 0.0
H30 H 0.92225 0.48826 1.00243 0.0
H31 H 0.97624 0.50024 0.95347 0.0
H32 H 0.85767 0.66701 0.10441 0.0
H33 H 0.83235 0.61439 0.11486 0.0
H34 H 0.83731 0.55468 0.09813 0.0
H35 H 0.86991 0.50899 0.05761 0.0
Mn36 Mn 0.87349 0.01967 0.62847 0.0
Mn37 Mn 0.88318 0.96016 0.49677 0.0
C38 C 0.88308 0.96877 0.67466 0.0
C39 C 0.89705 0.05905 0.70588 0.0
C40 C 0.81915 0.9874 0.53858 0.0
O41 O 0.88196 0.04321 0.52349 0.0
O42 O 0.88832 0.00146 0.44125 0.0
C43 C 0.95123 0.97132 0.46769 0.0
N44 N 0.92751 0.95184 0.4921 0.0
C45 C 0.96449 0.91096 0.52636 0.0
C46 C 0.98927 0.93051 0.50114 0.0
C47 C 0.98259 0.96081 0.47163 0.0
C48 C 0.93371 0.92271 0.52101 0.0
H49 H 0.94631 0.99477 0.44575 0.0
C50 C 0.88752 0.03125 0.45418 0.0
O51 O 0.86698 0.05995 0.69052 0.0
O52 O 0.91298 0.03611 0.67489 0.0
N53 N 0.87961 0.91882 0.54231 0.0
C54 C 0.85302 0.90257 0.56208 0.0
C55 C 0.8555 0.87138 0.58981 0.0
C56 C 0.8853 0.85721 0.59682 0.0
C57 C 0.91232 0.87422 0.57483 0.0
C58 C 0.90831 0.90502 0.54617 0.0
H59 H 0.83012 0.91336 0.55692 0.0
O60 O 0.86977 0.9894 0.72114 0.0
O61 O 0.88977 0.97876 0.60259 0.0
O62 O 0.82917 0.00848 0.58766 0.0
O63 O 0.83701 0.96753 0.50239 0.0
C64 C 0.94307 0.86188 0.58065 0.0
C65 C 0.96915 0.88032 0.55692 0.0
H66 H 0.01349 0.92253 0.50428 0.0
H67 H 0.00158 0.97606 0.45219 0.0
H68 H 0.83452 0.85838 0.60632 0.0
H69 H 0.88716 0.8333 0.61922 0.0
H70 H 0.94692 0.83828 0.60355 0.0
H71 H 0.99269 0.87064 0.56209 0.0
Mn72 Mn 0.47926 0.87339 0.13161 0.0
Mn73 Mn 0.53844 0.88303 0.99872 0.0
C74 C 0.53052 0.88225 0.17662 0.0
C75 C 0.44041 0.89717 0.21054 0.0
C76 C 0.51062 0.81914 0.03946 0.0
O77 O 0.45541 0.88249 0.02726 0.0
O78 O 0.49701 0.8888 0.9445 0.0
C79 C 0.52773 0.95133 0.97304 0.0
N80 N 0.54719 0.92729 0.99533 0.0
C81 C 0.5886 0.9637 0.02977 0.0
C82 C 0.56908 0.9888 0.00668 0.0
C83 C 0.53851 0.98257 0.97821 0.0
C84 C 0.57655 0.93306 0.02341 0.0
H85 H 0.50408 0.94675 0.95197 0.0
C86 C 0.46726 0.88821 0.95788 0.0
O87 O 0.43909 0.86717 0.19459 0.0
O88 O 0.46345 0.9129 0.17937 0.0
N89 N 0.57995 0.87884 0.04291 0.0
C90 C 0.59603 0.85199 0.06119 0.0
C91 C 0.6274 0.85402 0.08793 0.0
C92 C 0.64195 0.88363 0.09534 0.0
C93 C 0.62512 0.91092 0.07478 0.0
C94 C 0.59411 0.90736 0.04707 0.0
H95 H 0.585 0.82924 0.05543 0.0
O96 O 0.50994 0.86906 0.2235 0.0
O97 O 0.52027 0.88924 0.10503 0.0
O98 O 0.4898 0.8291 0.08933 0.0
O99 O 0.53057 0.83695 1.0033 0.0
C100 C 0.6378 0.94151 0.0813 0.0
C101 C 0.61947 0.9679 0.05939 0.0
H102 H 0.57727 0.01294 0.01081 0.0
H103 H 0.52326 0.00182 0.96057 0.0
H104 H 0.64027 0.83284 0.10327 0.0
H105 H 0.666 0.88514 0.11697 0.0
H106 H 0.66156 0.94502 0.10354 0.0
H107 H 0.62938 0.99132 0.0653 0.0
Mn108 Mn 0.63236 0.48312 0.65162 0.0
Mn109 Mn 0.62036 0.54012 0.51392 0.0
C110 C 0.62495 0.53536 0.69189 0.0
C111 C 0.61126 0.44718 0.74322 0.0
C112 C 0.68463 0.51164 0.54638 0.0
O113 O 0.61924 0.45753 0.55262 0.0
O114 O 0.61231 0.4979 0.46603 0.0
C115 C 0.55128 0.53094 0.49952 0.0
N116 N 0.57632 0.55001 0.51619 0.0
C117 C 0.54191 0.59327 0.54892 0.0
C118 C 0.5158 0.57412 0.53183 0.0
C119 C 0.52052 0.54284 0.50696 0.0
C120 C 0.57201 0.58011 0.54054 0.0
H121 H 0.55472 0.50679 0.481 0.0
C122 C 0.61218 0.46839 0.48287 0.0
O123 O 0.64014 0.44408 0.71815 0.0
O124 O 0.59467 0.46947 0.71153 0.0
N125 N 0.62663 0.58219 0.55272 0.0
C126 C 0.65426 0.59758 0.56705 0.0
C127 C 0.65369 0.62948 0.58976 0.0
C128 C 0.62473 0.6452 0.5977 0.0
C129 C 0.59659 0.62895 0.58204 0.0
C130 C 0.59867 0.59733 0.55823 0.0
H131 H 0.67653 0.5856 0.5615 0.0
O132 O 0.63995 0.5157 0.73787 0.0
O133 O 0.61629 0.52384 0.62288 0.0
O134 O 0.67543 0.49174 0.59951 0.0
O135 O 0.66628 0.53141 0.51155 0.0
C136 C 0.56656 0.64275 0.59028 0.0
C137 C 0.53923 0.62485 0.57431 0.0
H138 H 0.49203 0.58318 0.53771 0.0
H139 H 0.50046 0.52797 0.49362 0.0
H140 H 0.67552 0.64184 0.60175 0.0
H141 H 0.62436 0.66967 0.61629 0.0
H142 H 0.56421 0.66703 0.60953 0.0
H143 H 0.51627 0.63562 0.58157 0.0
Mn144 Mn 0.01617 0.87102 0.87886 0.0
Mn145 Mn 0.95666 0.87875 0.01117 0.0
C146 C 0.96506 0.88057 0.8328 0.0
C147 C 0.05503 0.89564 0.80186 0.0
C148 C 0.98528 0.81556 0.96691 0.0
O149 O 0.0397 0.87919 0.98413 0.0
O150 O 0.99788 0.88485 0.0664 0.0
C151 C 0.96605 0.94696 0.04117 0.0
N152 N 0.94705 0.92275 0.01742 0.0
C153 C 0.90466 0.95853 0.98715 0.0
C154 C 0.92368 0.98379 0.01191 0.0
C155 C 0.95454 0.97798 0.03883 0.0
C156 C 0.91748 0.92814 0.9904 0.0
H157 H 0.98988 0.94269 0.06128 0.0
C158 C 0.02768 0.88453 0.05348 0.0
O159 O 0.05642 0.86551 0.81607 0.0
O160 O 0.032 0.91103 0.8341 0.0
N161 N 0.91531 0.87413 0.96625 0.0
C162 C 0.89983 0.84714 0.94589 0.0
C163 C 0.86829 0.84872 0.92028 0.0
C164 C 0.85299 0.87803 0.91592 0.0
C165 C 0.86924 0.90545 0.93844 0.0
C166 C 0.90045 0.90233 0.96492 0.0
H167 H 0.91146 0.82461 0.94907 0.0
O168 O 0.98584 0.86751 0.78629 0.0
O169 O 0.97494 0.88657 0.90542 0.0
O170 O 0.00583 0.82626 0.91741 0.0
O171 O 0.96528 0.83285 0.00434 0.0
C172 C 0.85577 0.93577 0.93517 0.0
C173 C 0.87354 0.96231 0.95894 0.0
H174 H 0.91488 0.00775 0.01019 0.0
H175 H 0.96945 0.99737 0.05753 0.0
H176 H 0.85588 0.82743 0.90341 0.0
H177 H 0.8288 0.8792 0.89519 0.0
H178 H 0.8318 0.93895 0.9141 0.0
H179 H 0.863 0.98553 0.95559 0.0
Mn180 Mn 0.63096 0.01493 0.37141 0.0
Mn181 Mn 0.62305 0.95641 0.50678 0.0
C182 C 0.62124 0.96339 0.32833 0.0
C183 C 0.60667 0.05299 0.29094 0.0
C184 C 0.68627 0.98507 0.46239 0.0
O185 O 0.62236 0.03928 0.47556 0.0
O186 O 0.61635 0.99795 0.55951 0.0
C187 C 0.55465 0.9652 0.53485 0.0
N188 N 0.57914 0.94632 0.51268 0.0
C189 C 0.54395 0.90319 0.48454 0.0
C190 C 0.5184 0.92209 0.5077 0.0
C191 C 0.52377 0.95327 0.53275 0.0
C192 C 0.57418 0.91643 0.4875 0.0
H193 H 0.55859 0.98926 0.55354 0.0
C194 C 0.61659 0.02765 0.54527 0.0
O195 O 0.63673 0.05456 0.30598 0.0
O196 O 0.59112 0.03037 0.32466 0.0
N197 N 0.62824 0.91483 0.46384 0.0
C198 C 0.65541 0.89968 0.44354 0.0
C199 C 0.65426 0.86796 0.41937 0.0
C200 C 0.62517 0.85216 0.41622 0.0
C201 C 0.59754 0.86813 0.43825 0.0
C202 C 0.60025 0.89955 0.46328 0.0
H203 H 0.67776 0.91172 0.44563 0.0
O204 O 0.63456 0.98366 0.28078 0.0
O205 O 0.61534 0.97395 0.40025 0.0
O206 O 0.67566 0.00503 0.41123 0.0
O207 O 0.6689 0.96541 0.50076 0.0
C208 C 0.5674 0.8542 0.43554 0.0
C209 C 0.5406 0.8718 0.4581 0.0
H210 H 0.49455 0.91297 0.50612 0.0
H211 H 0.50416 0.96809 0.5502 0.0
H212 H 0.6757 0.8558 0.40265 0.0
H213 H 0.62432 0.82783 0.39657 0.0
H214 H 0.56455 0.83005 0.41564 0.0
H215 H 0.51752 0.86093 0.45505 0.0
Mn216 Mn 0.48449 0.63022 0.87196 0.0
Mn217 Mn 0.54106 0.62358 0.01339 0.0
C218 C 0.53675 0.62109 0.83522 0.0
C219 C 0.44769 0.60482 0.78915 0.0
C220 C 0.51289 0.68632 0.96345 0.0
O221 O 0.45871 0.62212 0.97406 0.0
O222 O 0.49882 0.61739 0.06249 0.0
C223 C 0.53188 0.55546 0.04501 0.0
N224 N 0.55099 0.57973 0.0224 0.0
C225 C 0.59429 0.54429 0.9989 0.0
C226 C 0.5752 0.519 0.02297 0.0
C227 C 0.54381 0.52459 0.04577 0.0
C228 C 0.5811 0.57453 0.99936 0.0
H229 H 0.50767 0.55959 0.06207 0.0
C230 C 0.46935 0.61733 0.04531 0.0
O231 O 0.44567 0.63496 0.80264 0.0
O232 O 0.47012 0.58985 0.82536 0.0
N233 N 0.58315 0.62842 0.97354 0.0
C234 C 0.59851 0.65537 0.95231 0.0
C235 C 0.63035 0.65392 0.92935 0.0
C236 C 0.64604 0.62478 0.92829 0.0
C237 C 0.62983 0.59738 0.95112 0.0
C238 C 0.59828 0.60037 0.97481 0.0
H239 H 0.58652 0.67777 0.9526 0.0
O240 O 0.51714 0.63353 0.78433 0.0
O241 O 0.52502 0.61531 0.90589 0.0
O242 O 0.49354 0.67532 0.91109 0.0
O243 O 0.53214 0.66926 1.00408 0.0
C244 C 0.64364 0.56719 0.95054 0.0
C245 C 0.62583 0.54064 0.97399 0.0
H246 H 0.58439 0.49521 0.02401 0.0
H247 H 0.52885 0.50515 0.06377 0.0
H248 H 0.64269 0.67518 0.91189 0.0
H249 H 0.67047 0.62369 0.90958 0.0
H250 H 0.6679 0.5641 0.93173 0.0
H251 H 0.63663 0.51751 0.97272 0.0
Mn252 Mn 0.87221 0.48165 0.37486 0.0
Mn253 Mn 0.88015 0.54099 0.50784 0.0
C254 C 0.88145 0.5329 0.32962 0.0
C255 C 0.89668 0.44298 0.29713 0.0
C256 C 0.81689 0.51239 0.46369 0.0
O257 O 0.8807 0.45797 0.47976 0.0
O258 O 0.88619 0.4997 0.56247 0.0
C259 C 0.9484 0.53135 0.53718 0.0
N260 N 0.92423 0.55045 0.51378 0.0
C261 C 0.96018 0.59263 0.4828 0.0
C262 C 0.98541 0.5735 0.50716 0.0
C263 C 0.97948 0.54271 0.53433 0.0
C264 C 0.92972 0.57997 0.48664 0.0
H265 H 0.94405 0.50756 0.5574 0.0
C266 C 0.88602 0.46993 0.54924 0.0
O267 O 0.86659 0.4415 0.31174 0.0
O268 O 0.91214 0.46602 0.32926 0.0
N269 N 0.87564 0.58242 0.46351 0.0
C270 C 0.84867 0.59809 0.44407 0.0
C271 C 0.85036 0.62962 0.41848 0.0
C272 C 0.87977 0.64473 0.41336 0.0
C273 C 0.90717 0.62832 0.43519 0.0
C274 C 0.90393 0.59713 0.46164 0.0
H275 H 0.82606 0.58663 0.44809 0.0
O276 O 0.86845 0.51218 0.28272 0.0
O277 O 0.88769 0.52285 0.4019 0.0
O278 O 0.82751 0.49178 0.41428 0.0
O279 O 0.8342 0.53246 0.501 0.0
C280 C 0.93757 0.64161 0.43125 0.0
C281 C 0.96408 0.6237 0.45445 0.0
H282 H 0.00942 0.58217 0.50499 0.0
H283 H 0.99884 0.52773 0.55281 0.0
H284 H 0.82908 0.64217 0.40227 0.0
H285 H 0.88103 0.66891 0.39265 0.0
H286 H 0.94084 0.66555 0.4101 0.0
H287 H 0.98736 0.6341 0.4506 0.0
Mn288 Mn 0.98372 0.37275 0.87497 0.0
Mn289 Mn 0.04284 0.38171 0.00834 0.0
C290 C 0.03485 0.38255 0.83015 0.0
C291 C 0.94462 0.39644 0.79695 0.0
C292 C 0.0151 0.31802 0.96498 0.0
O293 O 0.95987 0.38099 0.9797 0.0
O294 O 0.00143 0.38732 0.06272 0.0
C295 C 0.03244 0.44986 0.03711 0.0
N296 N 0.05177 0.4259 0.0137 0.0
C297 C 0.09351 0.46229 0.98206 0.0
C298 C 0.07412 0.48732 0.00637 0.0
C299 C 0.04344 0.48106 0.03395 0.0
C300 C 0.08122 0.4317 0.98637 0.0
H301 H 0.00873 0.44526 0.05761 0.0
C302 C 0.97168 0.38659 0.04923 0.0
O303 O 0.94366 0.36636 0.81194 0.0
O304 O 0.96744 0.41234 0.82877 0.0
N305 N 0.08431 0.37762 0.96399 0.0
C306 C 0.10022 0.35083 0.94428 0.0
C307 C 0.13167 0.35287 0.91824 0.0
C308 C 0.14644 0.38244 0.91281 0.0
C309 C 0.12976 0.40966 0.93465 0.0
C310 C 0.09866 0.40608 0.9616 0.0
H311 H 0.08899 0.3281 0.94823 0.0
O312 O 0.01436 0.36932 0.78301 0.0
O313 O 0.02464 0.38881 0.90223 0.0
O314 O 0.99453 0.32831 0.91494 0.0
O315 O 0.03488 0.33565 1.00232 0.0
C316 C 0.14267 0.44021 0.93017 0.0
C317 C 0.12448 0.46653 0.95331 0.0
H318 H 0.0825 0.51142 1.0039 0.0
H319 H 0.02829 0.50026 0.05251 0.0
H320 H 0.14442 0.33174 0.90183 0.0
H321 H 0.17056 0.38396 0.89171 0.0
H322 H 0.16652 0.44373 0.90864 0.0
H323 H 0.13459 0.48991 0.94906 0.0
Mn324 Mn 0.12553 0.98166 0.37873 0.0
Mn325 Mn 0.11643 0.04134 0.5102 0.0
C326 C 0.11629 0.03259 0.3323 0.0
C327 C 0.10162 0.94244 0.30142 0.0
C328 C 0.1802 0.01353 0.46823 0.0
O329 O 0.11693 0.95827 0.48385 0.0
O330 O 0.11092 1.00013 0.56587 0.0
C331 C 0.04829 0.03081 0.53942 0.0
N332 N 0.07218 0.05006 0.51497 0.0
C333 C 0.03557 0.09133 0.481 0.0
C334 C 0.01063 0.072 0.50628 0.0
C335 C 0.01703 0.04162 0.53565 0.0
C336 C 0.06624 0.07926 0.48614 0.0
H337 H 0.05299 0.0073 0.56128 0.0
C338 C 0.11146 0.97033 0.55309 0.0
O339 O 0.13169 0.9413 0.31677 0.0
O340 O 0.08589 0.96549 0.33247 0.0
N341 N 0.12036 0.08262 0.46456 0.0
C342 C 0.1471 0.09864 0.44483 0.0
C343 C 0.14491 0.12988 0.41732 0.0
C344 C 0.11524 0.14435 0.41048 0.0
C345 C 0.08808 0.12758 0.43247 0.0
C346 C 0.0918 0.09672 0.4609 0.0
H347 H 0.1699 0.08764 0.44988 0.0
O348 O 0.12945 0.01182 0.28594 0.0
O349 O 0.1096 0.02272 0.40447 0.0
O350 O 0.16996 0.99252 0.41926 0.0
O351 O 0.16253 0.03356 0.50448 0.0
C352 C 0.05745 0.14023 0.42689 0.0
C353 C 0.0312 0.12204 0.45063 0.0
H354 H 0.98648 0.08023 0.5033 0.0
H355 H 0.9979 0.02654 0.55512 0.0
H356 H 0.166 0.1427 0.40084 0.0
H357 H 0.11361 0.1683 0.38827 0.0
H358 H 0.05381 0.16389 0.40417 0.0
H359 H 0.00775 0.13195 0.44564 0.0
Mn360 Mn 0.51935 0.12732 0.869 0.0
Mn361 Mn 0.46116 0.11889 0.0048 0.0
C362 C 0.46777 0.11861 0.82543 0.0
C363 C 0.55781 0.10261 0.79077 0.0
C364 C 0.49151 0.18194 0.96455 0.0
O365 O 0.54335 0.11872 0.97435 0.0
O366 O 0.50207 0.10836 0.05574 0.0
C367 C 0.46511 0.04955 0.02207 0.0
N368 N 0.44798 0.07578 1.00409 0.0
C369 C 0.40243 0.04451 0.971 0.0
C370 C 0.4195 0.01717 0.98976 0.0
C371 C 0.451 0.01971 0.01527 0.0
C372 C 0.41778 0.07358 0.97869 0.0
H373 H 0.48942 0.05137 0.04093 0.0
C374 C 0.53176 0.11019 0.0423 0.0
O375 O 0.55937 0.13271 0.80519 0.0
O376 O 0.53481 0.08725 0.82341 0.0
N377 N 0.42013 0.12805 0.9629 0.0
C378 C 0.40713 0.15665 0.94604 0.0
C379 C 0.37548 0.15833 0.92132 0.0
C380 C 0.35755 0.13061 0.91437 0.0
C381 C 0.37135 0.10147 0.93299 0.0
C382 C 0.40283 0.10132 0.95855 0.0
H383 H 0.42077 0.17803 0.95162 0.0
O384 O 0.48845 0.13099 0.77737 0.0
O385 O 0.47823 0.11236 0.89728 0.0
O386 O 0.50917 0.17212 0.90721 0.0
O387 O 0.47347 0.16401 0.00634 0.0
C388 C 0.35529 0.07252 0.92583 0.0
C389 C 0.3709 0.04405 0.94421 0.0
H390 H 0.40873 0.99411 0.98439 0.0
H391 H 0.46438 0.9987 0.02942 0.0
H392 H 0.36498 0.18092 0.90731 0.0
H393 H 0.33328 0.13197 0.89433 0.0
H394 H 0.33104 0.07186 0.90536 0.0
H395 H 0.35843 0.02192 0.93751 0.0
Mn396 Mn 0.37139 0.51954 0.36684 0.0
Mn397 Mn 0.38193 0.45947 0.49652 0.0
C398 C 0.37997 0.46859 0.31897 0.0
C399 C 0.39422 0.55895 0.2885 0.0
C400 C 0.31788 0.48852 0.46199 0.0
O401 O 0.38167 0.54253 0.47214 0.0
O402 O 0.39003 0.50032 0.55183 0.0
C403 C 0.45094 0.46743 0.51633 0.0
N404 N 0.42585 0.44907 0.4955 0.0
C405 C 0.46006 0.4062 0.45835 0.0
C406 C 0.48622 0.4246 0.47977 0.0
C407 C 0.48162 0.45534 0.50891 0.0
C408 C 0.43004 0.41953 0.4669 0.0
H409 H 0.44758 0.49119 0.53807 0.0
C410 C 0.38922 0.53019 0.53991 0.0
O411 O 0.36439 0.56007 0.30641 0.0
O412 O 0.41041 0.53578 0.31751 0.0
N413 N 0.37556 0.41856 0.45037 0.0
C414 C 0.34793 0.40406 0.43082 0.0
C415 C 0.34837 0.37284 0.40255 0.0
C416 C 0.3772 0.35688 0.39453 0.0
C417 C 0.40533 0.37222 0.41542 0.0
C418 C 0.40337 0.40316 0.44451 0.0
H419 H 0.32577 0.41625 0.43641 0.0
O420 O 0.36635 0.48945 0.27368 0.0
O421 O 0.3873 0.47837 0.39074 0.0
O422 O 0.32745 0.50887 0.41046 0.0
O423 O 0.33605 0.46873 0.49749 0.0
C424 C 0.43526 0.3582 0.40729 0.0
C425 C 0.46262 0.37526 0.42822 0.0
H426 H 0.50994 0.41542 0.47385 0.0
H427 H 0.50172 0.46966 0.5255 0.0
H428 H 0.32656 0.3612 0.38643 0.0
H429 H 0.37747 0.33295 0.37172 0.0
H430 H 0.43753 0.33443 0.38414 0.0
H431 H 0.48553 0.36436 0.42081 0.0
Mn432 Mn 0.9828 0.13012 0.12817 0.0
Mn433 Mn 0.04214 0.12148 0.9957 0.0
C434 C 0.03382 0.12018 0.17397 0.0
C435 C 0.94375 0.10595 0.20545 0.0
C436 C 0.0145 0.18509 0.03986 0.0
O437 O 0.95909 0.12211 0.02311 0.0
O438 O 0.00079 0.11611 0.9406 0.0
C439 C 0.03149 0.05344 0.96588 0.0
N440 N 0.05093 0.0773 0.9896 0.0
C441 C 0.09256 0.04073 0.0206 0.0
C442 C 0.07307 0.01581 0.99589 0.0
C443 C 0.04238 0.0222 0.9686 0.0
C444 C 0.08035 0.07136 0.01693 0.0
H445 H 0.00778 0.05816 0.94552 0.0
C446 C 0.97101 0.11674 0.95365 0.0
O447 O 0.94264 0.13608 0.19115 0.0
O448 O 0.96661 0.09032 0.17322 0.0
N449 N 0.08358 0.12535 0.04049 0.0
C450 C 0.09961 0.15207 0.06047 0.0
C451 C 0.13109 0.1499 0.0863 0.0
C452 C 0.14577 0.12029 0.09126 0.0
C453 C 0.12898 0.09315 0.06903 0.0
C454 C 0.09786 0.09686 0.04229 0.0
H455 H 0.08845 0.17483 0.05684 0.0
O456 O 0.01321 0.13344 0.2206 0.0
O457 O 0.02381 0.1141 0.10153 0.0
O458 O 0.99369 0.17471 0.08913 0.0
O459 O 0.03432 0.16752 1.00263 0.0
C460 C 0.14183 0.06257 0.07279 0.0
C461 C 0.12355 0.03636 0.04916 0.0
H462 H 0.08138 0.99168 0.99791 0.0
H463 H 0.02711 0.00309 0.94993 0.0
H464 H 0.14393 0.17097 0.10292 0.0
H465 H 0.16991 0.11866 0.11217 0.0
H466 H 0.1657 0.05894 0.09411 0.0
H467 H 0.13361 0.01294 0.05286 0.0
Mn468 Mn 0.36853 0.98384 0.63143 0.0
Mn469 Mn 0.37667 0.0428 0.49758 0.0
C470 C 0.37867 0.03506 0.67569 0.0
C471 C 0.39274 0.94506 0.70938 0.0
C472 C 0.31327 0.01466 0.54241 0.0
O473 O 0.37646 0.95989 0.5265 0.0
O474 O 0.38271 0.0014 0.44328 0.0
C475 C 0.44489 0.03325 0.46822 0.0
N476 N 0.42071 0.05234 0.49149 0.0
C477 C 0.45661 0.09459 0.5224 0.0
C478 C 0.48185 0.07547 0.49814 0.0
C479 C 0.47596 0.04464 0.4711 0.0
C480 C 0.42617 0.0819 0.51845 0.0
H481 H 0.44055 0.00943 0.44816 0.0
C482 C 0.38212 0.97165 0.45693 0.0
O483 O 0.36259 0.94391 0.69521 0.0
O484 O 0.4084 0.9678 0.67657 0.0
N485 N 0.37214 0.08418 0.54223 0.0
C486 C 0.34523 0.09954 0.56376 0.0
C487 C 0.34693 0.13097 0.59015 0.0
C488 C 0.37627 0.14625 0.59429 0.0
C489 C 0.40362 0.13007 0.57103 0.0
C490 C 0.40038 0.09898 0.54376 0.0
H491 H 0.32269 0.08789 0.56102 0.0
O492 O 0.36553 0.01468 0.72326 0.0
O493 O 0.38437 0.02473 0.60344 0.0
O494 O 0.32382 0.99439 0.59287 0.0
O495 O 0.33072 0.0343 0.50416 0.0
C496 C 0.434 0.14343 0.57479 0.0
C497 C 0.4605 0.12562 0.55104 0.0
H498 H 0.50586 0.08415 0.50043 0.0
H499 H 0.49533 0.02966 0.45283 0.0
H500 H 0.32571 0.1433 0.60788 0.0
H501 H 0.37754 0.17033 0.61574 0.0
H502 H 0.43727 0.16729 0.59648 0.0
H503 H 0.48376 0.13604 0.55496 0.0
Mn504 Mn 0.51731 0.36757 0.1517 0.0
Mn505 Mn 0.46686 0.37833 0.99812 0.0
C506 C 0.46445 0.37861 0.17825 0.0
C507 C 0.55283 0.39161 0.2402 0.0
C508 C 0.49348 0.31431 0.04593 0.0
O509 O 0.54634 0.3753 0.05497 0.0
O510 O 0.51002 0.3897 0.96204 0.0
C511 C 0.47102 0.44783 0.98523 0.0
N512 N 0.45341 0.42136 0.99697 0.0
C513 C 0.40652 0.45216 0.01818 0.0
C514 C 0.42412 0.47972 0.00576 0.0
C515 C 0.45653 0.47753 0.98934 0.0
C516 C 0.42227 0.42322 0.01336 0.0
H517 H 0.49595 0.44628 0.97328 0.0
C518 C 0.53856 0.38592 0.98549 0.0
O519 O 0.554 0.36135 0.22769 0.0
O520 O 0.53175 0.4073 0.2009 0.0
N521 N 0.42424 0.36865 0.02703 0.0
C522 C 0.4109 0.33995 0.04089 0.0
C523 C 0.37851 0.338 0.05769 0.0
C524 C 0.36018 0.36555 0.0601 0.0
C525 C 0.37441 0.39483 0.04539 0.0
C526 C 0.40671 0.39526 0.02786 0.0
H527 H 0.42483 0.31868 0.03897 0.0
O528 O 0.48204 0.36528 0.23246 0.0
O529 O 0.47863 0.38396 0.11034 0.0
O530 O 0.50741 0.32313 0.11068 0.0
O531 O 0.47923 0.33318 0.99773 0.0
C532 C 0.35798 0.42364 0.04928 0.0
C533 C 0.37407 0.45229 0.03617 0.0
H534 H 0.41305 0.50268 0.00919 0.0
H535 H 0.47033 0.4987 0.98017 0.0
H536 H 0.36771 0.31532 0.06907 0.0
H537 H 0.33529 0.36398 0.074 0.0
H538 H 0.33306 0.42405 0.06339 0.0
H539 H 0.36127 0.47431 0.04041 0.0
Mn540 Mn 0.13035 0.51926 0.63147 0.0
Mn541 Mn 0.12192 0.46006 0.49826 0.0
C542 C 0.12084 0.46806 0.67645 0.0
C543 C 0.10617 0.55807 0.70937 0.0
C544 C 0.18541 0.4881 0.54239 0.0
O545 O 0.12198 0.54306 0.52669 0.0
O546 O 0.11624 0.50143 0.44375 0.0
C547 C 0.05377 0.47029 0.46897 0.0
N548 N 0.07777 0.45099 0.49239 0.0
C549 C 0.04144 0.40916 0.52365 0.0
C550 C 0.01638 0.42851 0.49929 0.0
C551 C 0.02258 0.45923 0.47195 0.0
C552 C 0.07201 0.42153 0.51964 0.0
H553 H 0.05833 0.49403 0.44864 0.0
C554 C 0.11662 0.53119 0.45712 0.0
O555 O 0.13627 0.55935 0.69471 0.0
O556 O 0.09055 0.53514 0.67725 0.0
N557 N 0.12608 0.41858 0.54254 0.0
C558 C 0.15292 0.40268 0.56202 0.0
C559 C 0.15094 0.37119 0.5878 0.0
C560 C 0.1214 0.35637 0.59309 0.0
C561 C 0.09414 0.37301 0.57126 0.0
C562 C 0.09766 0.40415 0.5446 0.0
H563 H 0.17563 0.41393 0.55794 0.0
O564 O 0.13395 0.48866 0.7235 0.0
O565 O 0.11459 0.4782 0.60428 0.0
O566 O 0.17495 0.50879 0.59183 0.0
O567 O 0.16795 0.46817 0.50506 0.0
C568 C 0.06362 0.36001 0.57541 0.0
C569 C 0.03726 0.37815 0.55219 0.0
H570 H 0.99229 0.42007 0.50158 0.0
H571 H 0.00336 0.47437 0.45345 0.0
H572 H 0.17211 0.35846 0.60405 0.0
H573 H 0.11992 0.33222 0.61396 0.0
H574 H 0.06013 0.33613 0.59672 0.0
H575 H 0.01389 0.36798 0.5562 0.0
C576 C 0.01463 0.73335 0.01351 0.0
C577 C 0.9863 0.71664 0.02321 0.0
H578 H 0.03642 0.77765 0.98563 0.0
C579 C 0.95756 0.7326 0.01329 0.0
H580 H 0.03711 0.72151 0.02018 0.0
C581 C 0.95717 0.76485 0.99571 0.0
C582 C 0.9855 0.78144 0.98465 0.0
H583 H 0.93539 0.72032 0.02031 0.0
H584 H 0.9347 0.77665 0.98975 0.0
C585 C 0.01423 0.76534 0.99313 0.0
C586 C 0.73667 0.95736 0.49687 0.0
C587 C 0.72038 0.98548 0.48069 0.0
H588 H 0.78092 0.93587 0.52597 0.0
C589 C 0.73677 0.01423 0.48459 0.0
H590 H 0.72465 0.93489 0.49467 0.0
C591 C 0.76874 0.01485 0.50538 0.0
C592 C 0.78512 0.98667 0.52009 0.0
H593 H 0.72471 0.03628 0.47315 0.0
H594 H 0.78081 0.03732 0.50846 0.0
C595 C 0.76888 0.95791 0.51487 0.0
C596 C 0.48343 0.76964 0.99707 0.0
C597 C 0.51118 0.78521 0.02043 0.0
H598 H 0.4624 0.72621 0.9582 0.0
C599 C 0.53955 0.76829 0.02347 0.0
H600 H 0.46131 0.78233 0.9938 0.0
C601 C 0.54008 0.73615 0.00504 0.0
C602 C 0.51244 0.72055 0.98051 0.0
H603 H 0.56121 0.77972 0.04164 0.0
H604 H 0.5622 0.7236 0.00957 0.0
C605 C 0.48413 0.73768 0.97609 0.0
C606 C 0.7358 0.48362 0.52315 0.0
C607 C 0.71836 0.51178 0.52362 0.0
H608 H 0.78062 0.46175 0.5013 0.0
C609 C 0.73346 0.54003 0.50193 0.0
H610 H 0.72473 0.46145 0.53894 0.0
C611 C 0.76554 0.54029 0.48266 0.0
C612 C 0.78286 0.51215 0.48176 0.0
H613 H 0.72067 0.56207 0.50126 0.0
H614 H 0.77668 0.56246 0.46764 0.0
C615 C 0.76765 0.48374 0.50115 0.0
C616 C 0.04363 0.26762 0.9943 0.0
C617 C 0.01517 0.28398 0.98339 0.0
H618 H 0.06574 0.22327 0.01874 0.0
C619 C 0.98655 0.26768 0.99229 0.0
H620 H 0.06601 0.27959 0.98797 0.0
C621 C 0.9864 0.2357 0.01276 0.0
C622 C 0.01486 0.2192 0.02216 0.0
H623 H 0.96428 0.27982 0.98487 0.0
H624 H 0.96401 0.2237 0.01959 0.0
C625 C 0.04347 0.23539 0.01199 0.0
C626 C 0.26256 0.98596 0.51991 0.0
C627 C 0.27912 0.01459 0.52471 0.0
H628 H 0.21835 0.96325 0.49584 0.0
C629 C 0.26295 0.0429 0.51006 0.0
H630 H 0.27453 0.96377 0.5302 0.0
C631 C 0.23068 0.04263 0.49261 0.0
C632 C 0.21427 0.01399 0.48642 0.0
H633 H 0.2751 0.06528 0.51303 0.0
H634 H 0.21874 0.06481 0.48267 0.0
C635 C 0.23054 0.98564 0.49967 0.0
C636 C 0.49554 0.23869 0.9244 0.0
C637 C 0.49224 0.21581 0.98513 0.0
H638 H 0.49785 0.28797 0.89617 0.0
C639 C 0.48971 0.22553 0.06613 0.0
H640 H 0.49744 0.23182 0.86151 0.0
C641 C 0.49081 0.25754 0.08614 0.0
C642 C 0.49351 0.28045 0.02529 0.0
H643 H 0.48732 0.20833 0.11415 0.0
H644 H 0.48893 0.26441 0.14904 0.0
C645 C 0.49567 0.27075 0.94421 0.0
C646 C 0.26864 0.45996 0.50282 0.0
C647 C 0.28401 0.48829 0.48316 0.0
H648 H 0.22514 0.43761 0.53525 0.0
C649 C 0.2668 0.51658 0.48504 0.0
H650 H 0.28128 0.43783 0.50243 0.0
C651 C 0.23493 0.51655 0.50664 0.0
C652 C 0.21944 0.48812 0.52425 0.0
H653 H 0.27811 0.5388 0.47092 0.0
H654 H 0.22218 0.53866 0.50775 0.0
C655 C 0.2365 0.45981 0.52168 0.0
C656 C 0.03944 0.59919 0.81279 0.0
C657 C 0.05245 0.606 0.88909 0.0
H658 H 0.04663 0.5791 0.69583 0.0
C659 C 0.08509 0.60168 0.9006 0.0
H660 H 0.01455 0.60254 0.80093 0.0
C661 C 0.1037 0.5886 0.83896 0.0
C662 C 0.08984 0.57947 0.76551 0.0
H663 H 0.09593 0.6068 0.95843 0.0
H664 H 0.12829 0.58352 0.85093 0.0
C665 C 0.05785 0.58589 0.7521 0.0
C666 C 0.91623 0.05751 0.24888 0.0
C667 C 0.92238 0.08959 0.26169 0.0
H668 H 0.89991 0.01419 0.29851 0.0
C669 C 0.91311 0.10356 0.33484 0.0
H670 H 0.92314 0.04619 0.19287 0.0
C671 C 0.90013 0.085 0.39673 0.0
C672 C 0.89606 0.0523 0.38584 0.0
H673 H 0.91799 0.12821 0.34639 0.0
H674 H 0.89486 0.09596 0.45429 0.0
C675 C 0.90305 0.03914 0.30987 0.0
C676 C 0.41353 0.9014 0.90088 0.0
C677 C 0.44619 0.8971 0.88984 0.0
H678 H 0.37042 0.91955 0.85062 0.0
C679 C 0.45937 0.9041 0.81388 0.0
H680 H 0.40257 0.89613 0.95843 0.0
C681 C 0.44108 0.91746 0.75302 0.0
C682 C 0.40905 0.92378 0.76589 0.0
H683 H 0.48428 0.90078 0.80238 0.0
H684 H 0.45242 0.92432 0.69699 0.0
C685 C 0.39504 0.91455 0.83906 0.0
C686 C 0.5805 0.4401 0.28216 0.0
C687 C 0.57326 0.40846 0.29796 0.0
H688 H 0.59882 0.48337 0.3267 0.0
C689 C 0.58186 0.39535 0.37278 0.0
H690 H 0.57425 0.45077 0.2248 0.0
C691 C 0.59575 0.41435 0.43271 0.0
C692 C 0.60141 0.44659 0.41809 0.0
H693 H 0.57619 0.37105 0.38658 0.0
H694 H 0.60083 0.40412 0.49126 0.0
C695 C 0.59453 0.45883 0.34103 0.0
C696 C 0.05339 0.9145 0.25813 0.0
C697 C 0.08546 0.92074 0.24559 0.0
H698 H 0.01026 0.89767 0.20848 0.0
C699 C 0.09965 0.91109 0.17304 0.0
H700 H 0.04191 0.92169 0.31371 0.0
C701 C 0.08129 0.89767 0.11132 0.0
C702 C 0.04858 0.8935 0.12186 0.0
H703 H 0.12431 0.91601 0.16174 0.0
H704 H 0.0924 0.89211 0.05415 0.0
C705 C 0.03522 0.90085 0.19738 0.0
C706 C 0.5892 0.1 0.66226 0.0
C707 C 0.57916 0.08603 0.73482 0.0
H708 H 0.60884 0.09242 0.54416 0.0
C709 C 0.58514 0.05397 0.74797 0.0
H710 H 0.5845 0.12467 0.65049 0.0
C711 C 0.59911 0.03565 0.68805 0.0
C712 C 0.60702 0.04881 0.61261 0.0
H713 H 0.57769 0.04264 0.80353 0.0
H714 H 0.60218 0.01073 0.69982 0.0
C715 C 0.6029 0.08147 0.60129 0.0
C716 C 0.44074 0.59025 0.24971 0.0
C717 C 0.40969 0.58116 0.23303 0.0
H718 H 0.48353 0.60955 0.20461 0.0
C719 C 0.39661 0.58811 0.15708 0.0
H720 H 0.45131 0.58507 0.3079 0.0
C721 C 0.41537 0.60167 0.09639 0.0
C722 C 0.44732 0.60863 0.11144 0.0
H723 H 0.37278 0.58084 0.14267 0.0
H724 H 0.40539 0.60497 0.03671 0.0
C725 C 0.45924 0.60409 0.19002 0.0
C726 C 0.91628 0.44441 0.75368 0.0
C727 C 0.92292 0.41244 0.74089 0.0
H728 H 0.89886 0.48733 0.70442 0.0
C729 C 0.91346 0.39821 0.66817 0.0
H730 H 0.92329 0.45591 0.8094 0.0
C731 C 0.89981 0.41644 0.60657 0.0
C732 C 0.8952 0.44906 0.61742 0.0
H733 H 0.91868 0.37362 0.6567 0.0
H734 H 0.89442 0.40532 0.54927 0.0
C735 C 0.90238 0.46244 0.69308 0.0
C736 C 0.91784 0.39926 0.10609 0.0
C737 C 0.95053 0.39526 0.11725 0.0
H738 H 0.87457 0.4171 0.15609 0.0
C739 C 0.96365 0.4024 0.19324 0.0
H740 H 0.90692 0.39387 0.04852 0.0
C741 C 0.94523 0.41566 0.25397 0.0
C742 C 0.91315 0.42171 0.24093 0.0
H743 H 0.98859 0.39932 0.20482 0.0
H744 H 0.9565 0.42268 0.31 0.0
C745 C 0.89923 0.4123 0.16778 0.0
C746 C 0.0819 0.94439 0.7579 0.0
C747 C 0.07625 0.91218 0.74562 0.0
H748 H 0.09791 0.98774 0.70788 0.0
C749 C 0.08603 0.8981 0.67304 0.0
H750 H 0.07459 0.95579 0.81346 0.0
C751 C 0.09906 0.91663 0.61116 0.0
C752 C 0.1027 0.9494 0.62152 0.0
H753 H 0.08155 0.87335 0.6619 0.0
H754 H 0.10477 0.90554 0.55404 0.0
C755 C 0.09515 0.96273 0.69695 0.0
C756 C 0.55823 0.08004 0.24617 0.0
C757 C 0.59026 0.07379 0.23332 0.0
H758 H 0.51505 0.09682 0.19727 0.0
C759 C 0.60416 0.08278 0.15974 0.0
H760 H 0.54695 0.07335 0.30241 0.0
C761 C 0.5856 0.09593 0.09789 0.0
C762 C 0.55299 0.1004 0.10929 0.0
H763 H 0.62877 0.07776 0.14812 0.0
H764 H 0.59647 0.10121 0.04023 0.0
C765 C 0.53991 0.09334 0.18535 0.0
C766 C 0.40245 0.58375 0.5988 0.0
C767 C 0.39973 0.5508 0.6076 0.0
H768 H 0.41937 0.62713 0.65065 0.0
C769 C 0.4094 0.53703 0.68091 0.0
H770 H 0.39519 0.59518 0.5433 0.0
C771 C 0.4232 0.55519 0.74147 0.0
C772 C 0.42744 0.58772 0.73117 0.0
H773 H 0.40752 0.51186 0.69069 0.0
H774 H 0.43164 0.54348 0.79555 0.0
C775 C 0.41608 0.6021 0.66039 0.0
C776 C 0.945 0.08757 0.74858 0.0
C777 C 0.91305 0.08088 0.76163 0.0
H778 H 0.98809 0.10469 0.79785 0.0
C779 C 0.89895 0.09013 0.83465 0.0
H780 H 0.95639 0.0807 0.69262 0.0
C781 C 0.91735 0.10353 0.89634 0.0
C782 C 0.94998 0.10805 0.88532 0.0
H783 H 0.87439 0.08487 0.84632 0.0
H784 H 0.90635 0.10871 0.9539 0.0
C785 C 0.9632 0.10119 0.80933 0.0
C786 C 0.39836 0.96358 0.3132 0.0
C787 C 0.39118 0.95048 0.38916 0.0
H788 H 0.41917 0.95661 0.19699 0.0
C789 C 0.39569 0.91787 0.40063 0.0
H790 H 0.39491 0.98844 0.30133 0.0
C791 C 0.40926 0.89938 0.33938 0.0
C792 C 0.41871 0.91335 0.26634 0.0
H793 H 0.3903 0.90696 0.45818 0.0
H794 H 0.41442 0.87482 0.35136 0.0
C795 C 0.41215 0.9453 0.25294 0.0
C796 C 0.56581 0.43267 0.93328 0.0
C797 C 0.56298 0.39983 0.93387 0.0
H798 H 0.58364 0.47316 0.87174 0.0
C799 C 0.57946 0.38185 0.87637 0.0
H800 H 0.5532 0.4469 0.97697 0.0
C801 C 0.59745 0.39693 0.81631 0.0
C802 C 0.59835 0.42998 0.81291 0.0
H803 H 0.5771 0.35643 0.8754 0.0
H804 H 0.60883 0.38297 0.76992 0.0
C805 C 0.58315 0.44761 0.87312 0.0
C806 C 0.10086 0.53896 0.31294 0.0
C807 C 0.10762 0.55219 0.38902 0.0
H808 H 0.0803 0.54561 0.19626 0.0
C809 C 0.10271 0.58474 0.4003 0.0
H810 H 0.10465 0.51413 0.30125 0.0
C811 C 0.0891 0.60302 0.3387 0.0
C812 C 0.08002 0.58889 0.26554 0.0
H813 H 0.10778 0.59575 0.45794 0.0
H814 H 0.0836 0.62752 0.35052 0.0
C815 C 0.08702 0.55703 0.25232 0.0
C816 C 0.93299 0.5459 0.27077 0.0
C817 C 0.90257 0.55589 0.29139 0.0
H818 H 0.97681 0.55772 0.21472 0.0
C819 C 0.89293 0.58649 0.27122 0.0
H820 H 0.94074 0.52217 0.28452 0.0
C821 C 0.91448 0.60765 0.23656 0.0
C822 C 0.9445 0.59716 0.21357 0.0
H823 H 0.86912 0.59414 0.28336 0.0
H824 H 0.90754 0.63184 0.22635 0.0
C825 C 0.95354 0.56615 0.23086 0.0
C826 C 0.89138 0.91565 0.7387 0.0
C827 C 0.90307 0.94493 0.71325 0.0
H828 H 0.90317 0.8703 0.78835 0.0
C829 C 0.9345 0.95286 0.72932 0.0
H830 H 0.86691 0.90955 0.72908 0.0
C831 C 0.95397 0.93196 0.77058 0.0
C832 C 0.94276 0.90225 0.79384 0.0
H833 H 0.94384 0.97557 0.71125 0.0
H834 H 0.97805 0.93888 0.78325 0.0
C835 C 0.91172 0.89367 0.77474 0.0
C836 C 0.58412 0.88976 0.23901 0.0
C837 C 0.55488 0.90184 0.21443 0.0
H838 H 0.63004 0.90098 0.28638 0.0
C839 C 0.5477 0.9335 0.22935 0.0
H840 H 0.58971 0.86514 0.22991 0.0
C841 C 0.5693 0.95286 0.26847 0.0
C842 C 0.59899 0.94127 0.29077 0.0
H843 H 0.52506 0.94317 0.2118 0.0
H844 H 0.56293 0.97713 0.28027 0.0
C845 C 0.60677 0.90991 0.27314 0.0
C846 C 0.6131 0.58939 0.74769 0.0
C847 C 0.60413 0.55819 0.73176 0.0
H848 H 0.59738 0.63527 0.78629 0.0
C849 C 0.57401 0.54789 0.75425 0.0
H850 H 0.63661 0.59743 0.73336 0.0
C851 C 0.55291 0.56846 0.79068 0.0
C852 C 0.56106 0.60008 0.80271 0.0
H853 H 0.56669 0.52381 0.74345 0.0
H854 H 0.52978 0.55984 0.80751 0.0
C855 C 0.59102 0.61073 0.77941 0.0
C856 C 0.06921 0.45462 0.73402 0.0
C857 C 0.09983 0.44493 0.71446 0.0
H858 H 0.02534 0.44249 0.78934 0.0
C859 C 0.10976 0.41451 0.73556 0.0
H860 H 0.06124 0.4782 0.71949 0.0
C861 C 0.08833 0.39322 0.77023 0.0
C862 C 0.05812 0.40345 0.79232 0.0
H863 H 0.1337 0.40709 0.72404 0.0
H864 H 0.09551 0.36915 0.78106 0.0
C865 C 0.04876 0.43428 0.77396 0.0
C866 C 0.04539 0.06868 0.23479 0.0
C867 C 0.05626 0.09865 0.21277 0.0
H868 H 0.05587 0.02501 0.29334 0.0
C869 C 0.08708 0.10761 0.23297 0.0
H870 H 0.02147 0.06147 0.22117 0.0
C871 C 0.10757 0.08578 0.26904 0.0
C872 C 0.09618 0.05626 0.29346 0.0
H873 H 0.09537 0.13114 0.22007 0.0
H874 H 0.13192 0.09216 0.27935 0.0
C875 C 0.06497 0.04791 0.27613 0.0
C876 C 0.43119 0.0476 0.72938 0.0
C877 C 0.40044 0.05776 0.71279 0.0
H878 H 0.47592 0.05887 0.78135 0.0
C879 C 0.39121 0.08821 0.7357 0.0
H880 H 0.43868 0.02402 0.71328 0.0
C881 C 0.41334 0.109 0.76958 0.0
C882 C 0.44369 0.09827 0.78879 0.0
H883 H 0.36726 0.09603 0.72616 0.0
H884 H 0.4066 0.13306 0.78223 0.0
C885 C 0.45241 0.06746 0.76832 0.0
C886 C 0.45181 0.43122 0.22993 0.0
C887 C 0.44099 0.40127 0.2076 0.0
H888 H 0.44085 0.47532 0.28537 0.0
C889 C 0.40931 0.39327 0.22074 0.0
H890 H 0.47626 0.43776 0.22123 0.0
C891 C 0.38844 0.41567 0.25314 0.0
C892 C 0.39993 0.44495 0.27941 0.0
H893 H 0.4008 0.36994 0.20608 0.0
H894 H 0.36381 0.40972 0.26049 0.0
C895 C 0.43163 0.45263 0.26667 0.0
loop_
_geom_bond_atom_site_label_1
_geom_bond_atom_site_label_2
_geom_bond_distance
_geom_bond_site_symmetry_2
_ccdc_geom_bond_type
Mn0 O5 2.095 . S
Mn0 O15 2.162 . S
Mn0 O16 2.297 . S
Mn0 O24 2.385 1_455 S
Mn0 O25 2.209 1_455 S
Mn0 O26 2.094 . S
Mn1 O6 2.121 1_654 S
Mn1 N8 2.257 1_554 S
Mn1 N17 2.282 . S
Mn1 O25 2.215 . S
Mn1 O27 2.117 . S
C2 O24 1.234 . S
C2 O25 1.283 . S
C3 O15 1.281 . S
C3 O16 1.236 . S
C4 O26 1.240 1_655 S
C4 O27 1.264 . S
O5 Mn0 2.095 . S
O5 C14 1.250 1_554 S
O6 Mn1 2.121 1_456 S
O6 C14 1.258 . S
C7 N8 1.326 . S
C7 C11 1.460 . S
C7 H13 0.929 . S
N8 Mn1 2.257 1_556 S
N8 C7 1.326 . S
N8 C12 1.362 . S
C9 C10 1.258 . S
C9 C12 1.431 . S
C9 C29 1.449 . S
C10 C9 1.258 . S
C10 C11 1.477 . S
C10 H30 0.931 . S
C11 C7 1.460 . S
C11 C10 1.477 . S
C11 H31 0.930 . S
C12 N8 1.362 . S
C12 C9 1.431 . S
C12 C22 1.476 1_556 S
H13 C7 0.929 . S
C14 O5 1.250 1_556 S
C14 O6 1.258 . S
O15 Mn0 2.162 . S
O15 C3 1.281 . S
O16 Mn0 2.297 . S
O16 C3 1.236 . S
N17 Mn1 2.282 . S
N17 C18 1.328 . S
N17 C22 1.318 . S
C18 N17 1.328 . S
C18 C19 1.457 . S
C18 H23 0.929 . S
C19 C18 1.457 . S
C19 C20 1.291 . S
C19 H32 0.931 . S
C20 C19 1.291 . S
C20 C21 1.373 . S
C20 H33 0.929 . S
C21 C20 1.373 . S
C21 C22 1.396 . S
C21 C28 1.403 . S
C22 C12 1.476 1_554 S
C22 N17 1.318 . S
C22 C21 1.396 . S
H23 C18 0.929 . S
O24 Mn0 2.385 1_655 S
O24 C2 1.234 . S
O25 Mn0 2.209 1_655 S
O25 Mn1 2.215 . S
O25 C2 1.283 . S
O26 Mn0 2.094 . S
O26 C4 1.240 1_455 S
O27 Mn1 2.117 . S
O27 C4 1.264 . S
C28 C21 1.403 . S
C28 C29 1.399 1_554 S
C28 H34 0.929 . S
C29 C9 1.449 . S
C29 C28 1.399 1_556 S
C29 H35 0.930 . S
H30 C10 0.931 . S
H31 C11 0.930 . S
H32 C19 0.931 . S
H33 C20 0.929 . S
H34 C28 0.929 . S
H35 C29 0.930 . S
Mn36 O41 2.095 . S
Mn36 O51 2.162 . S
Mn36 O52 2.297 . S
Mn36 O60 2.385 1_545 S
Mn36 O61 2.209 1_545 S
Mn36 O62 2.094 . S
Mn37 O42 2.121 1_565 S
Mn37 N44 2.257 . S
Mn37 N53 2.282 . S
Mn37 O61 2.215 . S
Mn37 O63 2.117 . S
C38 O60 1.234 . S
C38 O61 1.283 . S
C39 O51 1.281 . S
C39 O52 1.236 . S
C40 O62 1.240 1_565 S
C40 O63 1.264 . S
O41 Mn36 2.095 . S
O41 C50 1.250 . S
O42 Mn37 2.121 1_545 S
O42 C50 1.258 . S
C43 N44 1.326 . S
C43 C47 1.460 . S
C43 H49 0.929 . S
N44 Mn37 2.257 . S
N44 C43 1.326 . S
N44 C48 1.362 . S
C45 C46 1.258 . S
C45 C48 1.431 . S
C45 C65 1.449 . S
C46 C45 1.258 . S
C46 C47 1.477 . S
C46 H66 0.931 . S
C47 C43 1.460 . S
C47 C46 1.477 . S
C47 H67 0.930 . S
C48 N44 1.362 . S
C48 C45 1.431 . S
C48 C58 1.476 . S
H49 C43 0.929 . S
C50 O41 1.250 . S
C50 O42 1.258 . S
O51 Mn36 2.162 . S
O51 C39 1.281 . S
O52 Mn36 2.297 . S
O52 C39 1.236 . S
N53 Mn37 2.282 . S
N53 C54 1.328 . S
N53 C58 1.318 . S
C54 N53 1.328 . S
C54 C55 1.457 . S
C54 H59 0.929 . S
C55 C54 1.457 . S
C55 C56 1.291 . S
C55 H68 0.931 . S
C56 C55 1.291 . S
C56 C57 1.373 . S
C56 H69 0.929 . S
C57 C56 1.373 . S
C57 C58 1.396 . S
C57 C64 1.403 . S
C58 C48 1.476 . S
C58 N53 1.318 . S
C58 C57 1.396 . S
H59 C54 0.929 . S
O60 Mn36 2.385 1_565 S
O60 C38 1.234 . S
O61 Mn36 2.209 1_565 S
O61 Mn37 2.215 . S
O61 C38 1.283 . S
O62 Mn36 2.094 . S
O62 C40 1.240 1_545 S
O63 Mn37 2.117 . S
O63 C40 1.264 . S
C64 C57 1.403 . S
C64 C65 1.399 . S
C64 H70 0.929 . S
C65 C45 1.449 . S
C65 C64 1.399 . S
C65 H71 0.930 . S
H66 C46 0.931 . S
H67 C47 0.930 . S
H68 C55 0.931 . S
H69 C56 0.929 . S
H70 C64 0.929 . S
H71 C65 0.930 . S
Mn72 O77 2.095 . S
Mn72 O87 2.162 . S
Mn72 O88 2.297 . S
Mn72 O96 2.385 . S
Mn72 O97 2.209 . S
Mn72 O98 2.094 . S
Mn73 O78 2.121 1_554 S
Mn73 N80 2.257 1_554 S
Mn73 N89 2.282 . S
Mn73 O97 2.215 . S
Mn73 O99 2.117 . S
C74 O96 1.234 . S
C74 O97 1.283 . S
C75 O87 1.281 . S
C75 O88 1.236 . S
C76 O98 1.240 . S
C76 O99 1.264 . S
O77 Mn72 2.095 . S
O77 C86 1.250 1_554 S
O78 Mn73 2.121 1_556 S
O78 C86 1.258 . S
C79 N80 1.326 . S
C79 C83 1.460 . S
C79 H85 0.929 . S
N80 Mn73 2.257 1_556 S
N80 C79 1.326 . S
N80 C84 1.362 . S
C81 C82 1.258 . S
C81 C84 1.431 . S
C81 C101 1.449 . S
C82 C81 1.258 . S
C82 C83 1.477 . S
C82 H102 0.931 . S
C83 C79 1.460 . S
C83 C82 1.477 . S
C83 H103 0.930 . S
C84 N80 1.362 . S
C84 C81 1.431 . S
C84 C94 1.476 1_556 S
H85 C79 0.929 . S
C86 O77 1.250 1_556 S
C86 O78 1.258 . S
O87 Mn72 2.162 . S
O87 C75 1.281 . S
O88 Mn72 2.297 . S
O88 C75 1.236 . S
N89 Mn73 2.282 . S
N89 C90 1.328 . S
N89 C94 1.318 . S
C90 N89 1.328 . S
C90 C91 1.457 . S
C90 H95 0.929 . S
C91 C90 1.457 . S
C91 C92 1.291 . S
C91 H104 0.931 . S
C92 C91 1.291 . S
C92 C93 1.373 . S
C92 H105 0.929 . S
C93 C92 1.373 . S
C93 C94 1.396 . S
C93 C100 1.403 . S
C94 C84 1.476 1_554 S
C94 N89 1.318 . S
C94 C93 1.396 . S
H95 C90 0.929 . S
O96 Mn72 2.385 . S
O96 C74 1.234 . S
O97 Mn72 2.209 . S
O97 Mn73 2.215 . S
O97 C74 1.283 . S
O98 Mn72 2.094 . S
O98 C76 1.240 . S
O99 Mn73 2.117 . S
O99 C76 1.264 . S
C100 C93 1.403 . S
C100 C101 1.399 1_554 S
C100 H106 0.929 . S
C101 C81 1.449 . S
C101 C100 1.399 1_556 S
C101 H107 0.930 . S
H102 C82 0.931 . S
H103 C83 0.930 . S
H104 C91 0.931 . S
H105 C92 0.929 . S
H106 C100 0.929 . S
H107 C101 0.930 . S
Mn108 O113 2.095 . S
Mn108 O123 2.162 . S
Mn108 O124 2.297 . S
Mn108 O132 2.385 . S
Mn108 O133 2.209 . S
Mn108 O134 2.094 . S
Mn109 O114 2.121 . S
Mn109 N116 2.257 . S
Mn109 N125 2.282 . S
Mn109 O133 2.215 . S
Mn109 O135 2.117 . S
C110 O132 1.234 . S
C110 O133 1.283 . S
C111 O123 1.281 . S
C111 O124 1.236 . S
C112 O134 1.240 . S
C112 O135 1.264 . S
O113 Mn108 2.095 . S
O113 C122 1.250 . S
O114 Mn109 2.121 . S
O114 C122 1.258 . S
C115 N116 1.326 . S
C115 C119 1.460 . S
C115 H121 0.929 . S
N116 Mn109 2.257 . S
N116 C115 1.326 . S
N116 C120 1.362 . S
C117 C118 1.258 . S
C117 C120 1.431 . S
C117 C137 1.449 . S
C118 C117 1.258 . S
C118 C119 1.477 . S
C118 H138 0.931 . S
C119 C115 1.460 . S
C119 C118 1.477 . S
C119 H139 0.930 . S
C120 N116 1.362 . S
C120 C117 1.431 . S
C120 C130 1.476 . S
H121 C115 0.929 . S
C122 O113 1.250 . S
C122 O114 1.258 . S
O123 Mn108 2.162 . S
O123 C111 1.281 . S
O124 Mn108 2.297 . S
O124 C111 1.236 . S
N125 Mn109 2.282 . S
N125 C126 1.328 . S
N125 C130 1.318 . S
C126 N125 1.328 . S
C126 C127 1.457 . S
C126 H131 0.929 . S
C127 C126 1.457 . S
C127 C128 1.291 . S
C127 H140 0.931 . S
C128 C127 1.291 . S
C128 C129 1.373 . S
C128 H141 0.929 . S
C129 C128 1.373 . S
C129 C130 1.396 . S
C129 C136 1.403 . S
C130 C120 1.476 . S
C130 N125 1.318 . S
C130 C129 1.396 . S
H131 C126 0.929 . S
O132 Mn108 2.385 . S
O132 C110 1.234 . S
O133 Mn108 2.209 . S
O133 Mn109 2.215 . S
O133 C110 1.283 . S
O134 Mn108 2.094 . S
O134 C112 1.240 . S
O135 Mn109 2.117 . S
O135 C112 1.264 . S
C136 C129 1.403 . S
C136 C137 1.399 . S
C136 H142 0.929 . S
C137 C117 1.449 . S
C137 C136 1.399 . S
C137 H143 0.930 . S
H138 C118 0.931 . S
H139 C119 0.930 . S
H140 C127 0.931 . S
H141 C128 0.929 . S
H142 C136 0.929 . S
H143 C137 0.930 . S
Mn144 O149 2.095 . S
Mn144 O159 2.162 . S
Mn144 O160 2.297 . S
Mn144 O168 2.385 1_455 S
Mn144 O169 2.209 1_455 S
Mn144 O170 2.094 . S
Mn145 O150 2.121 1_656 S
Mn145 N152 2.257 1_556 S
Mn145 N161 2.282 . S
Mn145 O169 2.215 . S
Mn145 O171 2.117 . S
C146 O168 1.234 . S
C146 O169 1.283 . S
C147 O159 1.281 . S
C147 O160 1.236 . S
C148 O170 1.240 1_655 S
C148 O171 1.264 . S
O149 Mn144 2.095 . S
O149 C158 1.250 1_556 S
O150 Mn145 2.121 1_454 S
O150 C158 1.258 . S
C151 N152 1.326 . S
C151 C155 1.460 . S
C151 H157 0.929 . S
N152 Mn145 2.257 1_554 S
N152 C151 1.326 . S
N152 C156 1.362 . S
C153 C154 1.258 . S
C153 C156 1.431 . S
C153 C173 1.449 . S
C154 C153 1.258 . S
C154 C155 1.477 . S
C154 H174 0.931 . S
C155 C151 1.460 . S
C155 C154 1.477 . S
C155 H175 0.930 . S
C156 N152 1.362 . S
C156 C153 1.431 . S
C156 C166 1.476 1_554 S
H157 C151 0.929 . S
C158 O149 1.250 1_554 S
C158 O150 1.258 . S
O159 Mn144 2.162 . S
O159 C147 1.281 . S
O160 Mn144 2.297 . S
O160 C147 1.236 . S
N161 Mn145 2.282 . S
N161 C162 1.328 . S
N161 C166 1.318 . S
C162 N161 1.328 . S
C162 C163 1.457 . S
C162 H167 0.929 . S
C163 C162 1.457 . S
C163 C164 1.291 . S
C163 H176 0.931 . S
C164 C163 1.291 . S
C164 C165 1.373 . S
C164 H177 0.929 . S
C165 C164 1.373 . S
C165 C166 1.396 . S
C165 C172 1.403 . S
C166 C156 1.476 1_556 S
C166 N161 1.318 . S
C166 C165 1.396 . S
H167 C162 0.929 . S
O168 Mn144 2.385 1_655 S
O168 C146 1.234 . S
O169 Mn144 2.209 1_655 S
O169 Mn145 2.215 . S
O169 C146 1.283 . S
O170 Mn144 2.094 . S
O170 C148 1.240 1_455 S
O171 Mn145 2.117 . S
O171 C148 1.264 . S
C172 C165 1.403 . S
C172 C173 1.399 1_556 S
C172 H178 0.929 . S
C173 C153 1.449 . S
C173 C172 1.399 1_554 S
C173 H179 0.930 . S
H174 C154 0.931 . S
H175 C155 0.930 . S
H176 C163 0.931 . S
H177 C164 0.929 . S
H178 C172 0.929 . S
H179 C173 0.930 . S
Mn180 O185 2.095 . S
Mn180 O195 2.162 . S
Mn180 O196 2.297 . S
Mn180 O204 2.385 1_545 S
Mn180 O205 2.209 1_545 S
Mn180 O206 2.094 . S
Mn181 O186 2.121 1_565 S
Mn181 N188 2.257 . S
Mn181 N197 2.282 . S
Mn181 O205 2.215 . S
Mn181 O207 2.117 . S
C182 O204 1.234 . S
C182 O205 1.283 . S
C183 O195 1.281 . S
C183 O196 1.236 . S
C184 O206 1.240 1_565 S
C184 O207 1.264 . S
O185 Mn180 2.095 . S
O185 C194 1.250 . S
O186 Mn181 2.121 1_545 S
O186 C194 1.258 . S
C187 N188 1.326 . S
C187 C191 1.460 . S
C187 H193 0.929 . S
N188 Mn181 2.257 . S
N188 C187 1.326 . S
N188 C192 1.362 . S
C189 C190 1.258 . S
C189 C192 1.431 . S
C189 C209 1.449 . S
C190 C189 1.258 . S
C190 C191 1.477 . S
C190 H210 0.931 . S
C191 C187 1.460 . S
C191 C190 1.477 . S
C191 H211 0.930 . S
C192 N188 1.362 . S
C192 C189 1.431 . S
C192 C202 1.476 . S
H193 C187 0.929 . S
C194 O185 1.250 . S
C194 O186 1.258 . S
O195 Mn180 2.162 . S
O195 C183 1.281 . S
O196 Mn180 2.297 . S
O196 C183 1.236 . S
N197 Mn181 2.282 . S
N197 C198 1.328 . S
N197 C202 1.318 . S
C198 N197 1.328 . S
C198 C199 1.457 . S
C198 H203 0.929 . S
C199 C198 1.457 . S
C199 C200 1.291 . S
C199 H212 0.931 . S
C200 C199 1.291 . S
C200 C201 1.373 . S
C200 H213 0.929 . S
C201 C200 1.373 . S
C201 C202 1.396 . S
C201 C208 1.403 . S
C202 C192 1.476 . S
C202 N197 1.318 . S
C202 C201 1.396 . S
H203 C198 0.929 . S
O204 Mn180 2.385 1_565 S
O204 C182 1.234 . S
O205 Mn180 2.209 1_565 S
O205 Mn181 2.215 . S
O205 C182 1.283 . S
O206 Mn180 2.094 . S
O206 C184 1.240 1_545 S
O207 Mn181 2.117 . S
O207 C184 1.264 . S
C208 C201 1.403 . S
C208 C209 1.399 . S
C208 H214 0.929 . S
C209 C189 1.449 . S
C209 C208 1.399 . S
C209 H215 0.930 . S
H210 C190 0.931 . S
H211 C191 0.930 . S
H212 C199 0.931 . S
H213 C200 0.929 . S
H214 C208 0.929 . S
H215 C209 0.930 . S
Mn216 O221 2.095 . S
Mn216 O231 2.162 . S
Mn216 O232 2.297 . S
Mn216 O240 2.385 . S
Mn216 O241 2.209 . S
Mn216 O242 2.094 . S
Mn217 O222 2.121 1_556 S
Mn217 N224 2.257 1_556 S
Mn217 N233 2.282 . S
Mn217 O241 2.215 . S
Mn217 O243 2.117 . S
C218 O240 1.234 . S
C218 O241 1.283 . S
C219 O231 1.281 . S
C219 O232 1.236 . S
C220 O242 1.240 . S
C220 O243 1.264 . S
O221 Mn216 2.095 . S
O221 C230 1.250 1_556 S
O222 Mn217 2.121 1_554 S
O222 C230 1.258 . S
C223 N224 1.326 . S
C223 C227 1.460 . S
C223 H229 0.929 . S
N224 Mn217 2.257 1_554 S
N224 C223 1.326 . S
N224 C228 1.362 . S
C225 C226 1.258 . S
C225 C228 1.431 . S
C225 C245 1.449 . S
C226 C225 1.258 . S
C226 C227 1.477 . S
C226 H246 0.931 . S
C227 C223 1.460 . S
C227 C226 1.477 . S
C227 H247 0.930 . S
C228 N224 1.362 . S
C228 C225 1.431 . S
C228 C238 1.476 1_554 S
H229 C223 0.929 . S
C230 O221 1.250 1_554 S
C230 O222 1.258 . S
O231 Mn216 2.162 . S
O231 C219 1.281 . S
O232 Mn216 2.297 . S
O232 C219 1.236 . S
N233 Mn217 2.282 . S
N233 C234 1.328 . S
N233 C238 1.318 . S
C234 N233 1.328 . S
C234 C235 1.457 . S
C234 H239 0.929 . S
C235 C234 1.457 . S
C235 C236 1.291 . S
C235 H248 0.931 . S
C236 C235 1.291 . S
C236 C237 1.373 . S
C236 H249 0.929 . S
C237 C236 1.373 . S
C237 C238 1.396 . S
C237 C244 1.403 . S
C238 C228 1.476 1_556 S
C238 N233 1.318 . S
C238 C237 1.396 . S
H239 C234 0.929 . S
O240 Mn216 2.385 . S
O240 C218 1.234 . S
O241 Mn216 2.209 . S
O241 Mn217 2.215 . S
O241 C218 1.283 . S
O242 Mn216 2.094 . S
O242 C220 1.240 . S
O243 Mn217 2.117 . S
O243 C220 1.264 . S
C244 C237 1.403 . S
C244 C245 1.399 1_556 S
C244 H250 0.929 . S
C245 C225 1.449 . S
C245 C244 1.399 1_554 S
C245 H251 0.930 . S
H246 C226 0.931 . S
H247 C227 0.930 . S
H248 C235 0.931 . S
H249 C236 0.929 . S
H250 C244 0.929 . S
H251 C245 0.930 . S
Mn252 O257 2.095 . S
Mn252 O267 2.162 . S
Mn252 O268 2.297 . S
Mn252 O276 2.385 . S
Mn252 O277 2.209 . S
Mn252 O278 2.094 . S
Mn253 O258 2.121 . S
Mn253 N260 2.257 . S
Mn253 N269 2.282 . S
Mn253 O277 2.215 . S
Mn253 O279 2.117 . S
C254 O276 1.234 . S
C254 O277 1.283 . S
C255 O267 1.281 . S
C255 O268 1.236 . S
C256 O278 1.240 . S
C256 O279 1.264 . S
O257 Mn252 2.095 . S
O257 C266 1.250 . S
O258 Mn253 2.121 . S
O258 C266 1.258 . S
C259 N260 1.326 . S
C259 C263 1.460 . S
C259 H265 0.929 . S
N260 Mn253 2.257 . S
N260 C259 1.326 . S
N260 C264 1.362 . S
C261 C262 1.258 . S
C261 C264 1.431 . S
C261 C281 1.449 . S
C262 C261 1.258 . S
C262 C263 1.477 . S
C262 H282 0.931 . S
C263 C259 1.460 . S
C263 C262 1.477 . S
C263 H283 0.930 . S
C264 N260 1.362 . S
C264 C261 1.431 . S
C264 C274 1.476 . S
H265 C259 0.929 . S
C266 O257 1.250 . S
C266 O258 1.258 . S
O267 Mn252 2.162 . S
O267 C255 1.281 . S
O268 Mn252 2.297 . S
O268 C255 1.236 . S
N269 Mn253 2.282 . S
N269 C270 1.328 . S
N269 C274 1.318 . S
C270 N269 1.328 . S
C270 C271 1.457 . S
C270 H275 0.929 . S
C271 C270 1.457 . S
C271 C272 1.291 . S
C271 H284 0.931 . S
C272 C271 1.291 . S
C272 C273 1.373 . S
C272 H285 0.929 . S
C273 C272 1.373 . S
C273 C274 1.396 . S
C273 C280 1.403 . S
C274 C264 1.476 . S
C274 N269 1.318 . S
C274 C273 1.396 . S
H275 C270 0.929 . S
O276 Mn252 2.385 . S
O276 C254 1.234 . S
O277 Mn252 2.209 . S
O277 Mn253 2.215 . S
O277 C254 1.283 . S
O278 Mn252 2.094 . S
O278 C256 1.240 . S
O279 Mn253 2.117 . S
O279 C256 1.264 . S
C280 C273 1.403 . S
C280 C281 1.399 . S
C280 H286 0.929 . S
C281 C261 1.449 . S
C281 C280 1.399 . S
C281 H287 0.930 . S
H282 C262 0.931 . S
H283 C263 0.930 . S
H284 C271 0.931 . S
H285 C272 0.929 . S
H286 C280 0.929 . S
H287 C281 0.930 . S
Mn288 O293 2.095 . S
Mn288 O303 2.162 . S
Mn288 O304 2.297 . S
Mn288 O312 2.385 1_655 S
Mn288 O313 2.209 1_655 S
Mn288 O314 2.094 . S
Mn289 O294 2.121 1_456 S
Mn289 N296 2.257 1_556 S
Mn289 N305 2.282 . S
Mn289 O313 2.215 . S
Mn289 O315 2.117 . S
C290 O312 1.234 . S
C290 O313 1.283 . S
C291 O303 1.281 . S
C291 O304 1.236 . S
C292 O314 1.240 1_455 S
C292 O315 1.264 . S
O293 Mn288 2.095 . S
O293 C302 1.250 1_556 S
O294 Mn289 2.121 1_654 S
O294 C302 1.258 . S
C295 N296 1.326 . S
C295 C299 1.460 . S
C295 H301 0.929 . S
N296 Mn289 2.257 1_554 S
N296 C295 1.326 . S
N296 C300 1.362 . S
C297 C298 1.258 . S
C297 C300 1.431 . S
C297 C317 1.449 . S
C298 C297 1.258 . S
C298 C299 1.477 . S
C298 H318 0.931 . S
C299 C295 1.460 . S
C299 C298 1.477 . S
C299 H319 0.930 . S
C300 N296 1.362 . S
C300 C297 1.431 . S
C300 C310 1.476 1_554 S
H301 C295 0.929 . S
C302 O293 1.250 1_554 S
C302 O294 1.258 . S
O303 Mn288 2.162 . S
O303 C291 1.281 . S
O304 Mn288 2.297 . S
O304 C291 1.236 . S
N305 Mn289 2.282 . S
N305 C306 1.328 . S
N305 C310 1.318 . S
C306 N305 1.328 . S
C306 C307 1.457 . S
C306 H311 0.929 . S
C307 C306 1.457 . S
C307 C308 1.291 . S
C307 H320 0.931 . S
C308 C307 1.291 . S
C308 C309 1.373 . S
C308 H321 0.929 . S
C309 C308 1.373 . S
C309 C310 1.396 . S
C309 C316 1.403 . S
C310 C300 1.476 1_556 S
C310 N305 1.318 . S
C310 C309 1.396 . S
H311 C306 0.929 . S
O312 Mn288 2.385 1_455 S
O312 C290 1.234 . S
O313 Mn288 2.209 1_455 S
O313 Mn289 2.215 . S
O313 C290 1.283 . S
O314 Mn288 2.094 . S
O314 C292 1.240 1_655 S
O315 Mn289 2.117 . S
O315 C292 1.264 . S
C316 C309 1.403 . S
C316 C317 1.399 1_556 S
C316 H322 0.929 . S
C317 C297 1.449 . S
C317 C316 1.399 1_554 S
C317 H323 0.930 . S
H318 C298 0.931 . S
H319 C299 0.930 . S
H320 C307 0.931 . S
H321 C308 0.929 . S
H322 C316 0.929 . S
H323 C317 0.930 . S
Mn324 O329 2.095 . S
Mn324 O339 2.162 . S
Mn324 O340 2.297 . S
Mn324 O348 2.385 1_565 S
Mn324 O349 2.209 1_565 S
Mn324 O350 2.094 . S
Mn325 O330 2.121 1_545 S
Mn325 N332 2.257 . S
Mn325 N341 2.282 . S
Mn325 O349 2.215 . S
Mn325 O351 2.117 . S
C326 O348 1.234 . S
C326 O349 1.283 . S
C327 O339 1.281 . S
C327 O340 1.236 . S
C328 O350 1.240 1_545 S
C328 O351 1.264 . S
O329 Mn324 2.095 . S
O329 C338 1.250 . S
O330 Mn325 2.121 1_565 S
O330 C338 1.258 . S
C331 N332 1.326 . S
C331 C335 1.460 . S
C331 H337 0.929 . S
N332 Mn325 2.257 . S
N332 C331 1.326 . S
N332 C336 1.362 . S
C333 C334 1.258 . S
C333 C336 1.431 . S
C333 C353 1.449 . S
C334 C333 1.258 . S
C334 C335 1.477 . S
C334 H354 0.931 . S
C335 C331 1.460 . S
C335 C334 1.477 . S
C335 H355 0.930 . S
C336 N332 1.362 . S
C336 C333 1.431 . S
C336 C346 1.476 . S
H337 C331 0.929 . S
C338 O329 1.250 . S
C338 O330 1.258 . S
O339 Mn324 2.162 . S
O339 C327 1.281 . S
O340 Mn324 2.297 . S
O340 C327 1.236 . S
N341 Mn325 2.282 . S
N341 C342 1.328 . S
N341 C346 1.318 . S
C342 N341 1.328 . S
C342 C343 1.457 . S
C342 H347 0.929 . S
C343 C342 1.457 . S
C343 C344 1.291 . S
C343 H356 0.931 . S
C344 C343 1.291 . S
C344 C345 1.373 . S
C344 H357 0.929 . S
C345 C344 1.373 . S
C345 C346 1.396 . S
C345 C352 1.403 . S
C346 C336 1.476 . S
C346 N341 1.318 . S
C346 C345 1.396 . S
H347 C342 0.929 . S
O348 Mn324 2.385 1_545 S
O348 C326 1.234 . S
O349 Mn324 2.209 1_545 S
O349 Mn325 2.215 . S
O349 C326 1.283 . S
O350 Mn324 2.094 . S
O350 C328 1.240 1_565 S
O351 Mn325 2.117 . S
O351 C328 1.264 . S
C352 C345 1.403 . S
C352 C353 1.399 . S
C352 H358 0.929 . S
C353 C333 1.449 . S
C353 C352 1.399 . S
C353 H359 0.930 . S
H354 C334 0.931 . S
H355 C335 0.930 . S
H356 C343 0.931 . S
H357 C344 0.929 . S
H358 C352 0.929 . S
H359 C353 0.930 . S
Mn360 O365 2.095 . S
Mn360 O375 2.162 . S
Mn360 O376 2.297 . S
Mn360 O384 2.385 . S
Mn360 O385 2.209 . S
Mn360 O386 2.094 . S
Mn361 O366 2.121 1_556 S
Mn361 N368 2.257 1_556 S
Mn361 N377 2.282 . S
Mn361 O385 2.215 . S
Mn361 O387 2.117 . S
C362 O384 1.234 . S
C362 O385 1.283 . S
C363 O375 1.281 . S
C363 O376 1.236 . S
C364 O386 1.240 . S
C364 O387 1.264 . S
O365 Mn360 2.095 . S
O365 C374 1.250 1_556 S
O366 Mn361 2.121 1_554 S
O366 C374 1.258 . S
C367 N368 1.326 . S
C367 C371 1.460 . S
C367 H373 0.929 . S
N368 Mn361 2.257 1_554 S
N368 C367 1.326 . S
N368 C372 1.362 . S
C369 C370 1.258 . S
C369 C372 1.431 . S
C369 C389 1.449 . S
C370 C369 1.258 . S
C370 C371 1.477 . S
C370 H390 0.931 . S
C371 C367 1.460 . S
C371 C370 1.477 . S
C371 H391 0.930 . S
C372 N368 1.362 . S
C372 C369 1.431 . S
C372 C382 1.476 1_554 S
H373 C367 0.929 . S
C374 O365 1.250 1_554 S
C374 O366 1.258 . S
O375 Mn360 2.162 . S
O375 C363 1.281 . S
O376 Mn360 2.297 . S
O376 C363 1.236 . S
N377 Mn361 2.282 . S
N377 C378 1.328 . S
N377 C382 1.318 . S
C378 N377 1.328 . S
C378 C379 1.457 . S
C378 H383 0.929 . S
C379 C378 1.457 . S
C379 C380 1.291 . S
C379 H392 0.931 . S
C380 C379 1.291 . S
C380 C381 1.373 . S
C380 H393 0.929 . S
C381 C380 1.373 . S
C381 C382 1.396 . S
C381 C388 1.403 . S
C382 C372 1.476 1_556 S
C382 N377 1.318 . S
C382 C381 1.396 . S
H383 C378 0.929 . S
O384 Mn360 2.385 . S
O384 C362 1.234 . S
O385 Mn360 2.209 . S
O385 Mn361 2.215 . S
O385 C362 1.283 . S
O386 Mn360 2.094 . S
O386 C364 1.240 . S
O387 Mn361 2.117 . S
O387 C364 1.264 . S
C388 C381 1.403 . S
C388 C389 1.399 1_556 S
C388 H394 0.929 . S
C389 C369 1.449 . S
C389 C388 1.399 1_554 S
C389 H395 0.930 . S
H390 C370 0.931 . S
H391 C371 0.930 . S
H392 C379 0.931 . S
H393 C380 0.929 . S
H394 C388 0.929 . S
H395 C389 0.930 . S
Mn396 O401 2.095 . S
Mn396 O411 2.162 . S
Mn396 O412 2.297 . S
Mn396 O420 2.385 . S
Mn396 O421 2.209 . S
Mn396 O422 2.094 . S
Mn397 O402 2.121 . S
Mn397 N404 2.257 . S
Mn397 N413 2.282 . S
Mn397 O421 2.215 . S
Mn397 O423 2.117 . S
C398 O420 1.234 . S
C398 O421 1.283 . S
C399 O411 1.281 . S
C399 O412 1.236 . S
C400 O422 1.240 . S
C400 O423 1.264 . S
O401 Mn396 2.095 . S
O401 C410 1.250 . S
O402 Mn397 2.121 . S
O402 C410 1.258 . S
C403 N404 1.326 . S
C403 C407 1.460 . S
C403 H409 0.929 . S
N404 Mn397 2.257 . S
N404 C403 1.326 . S
N404 C408 1.362 . S
C405 C406 1.258 . S
C405 C408 1.431 . S
C405 C425 1.449 . S
C406 C405 1.258 . S
C406 C407 1.477 . S
C406 H426 0.931 . S
C407 C403 1.460 . S
C407 C406 1.477 . S
C407 H427 0.930 . S
C408 N404 1.362 . S
C408 C405 1.431 . S
C408 C418 1.476 . S
H409 C403 0.929 . S
C410 O401 1.250 . S
C410 O402 1.258 . S
O411 Mn396 2.162 . S
O411 C399 1.281 . S
O412 Mn396 2.297 . S
O412 C399 1.236 . S
N413 Mn397 2.282 . S
N413 C414 1.328 . S
N413 C418 1.318 . S
C414 N413 1.328 . S
C414 C415 1.457 . S
C414 H419 0.929 . S
C415 C414 1.457 . S
C415 C416 1.291 . S
C415 H428 0.931 . S
C416 C415 1.291 . S
C416 C417 1.373 . S
C416 H429 0.929 . S
C417 C416 1.373 . S
C417 C418 1.396 . S
C417 C424 1.403 . S
C418 C408 1.476 . S
C418 N413 1.318 . S
C418 C417 1.396 . S
H419 C414 0.929 . S
O420 Mn396 2.385 . S
O420 C398 1.234 . S
O421 Mn396 2.209 . S
O421 Mn397 2.215 . S
O421 C398 1.283 . S
O422 Mn396 2.094 . S
O422 C400 1.240 . S
O423 Mn397 2.117 . S
O423 C400 1.264 . S
C424 C417 1.403 . S
C424 C425 1.399 . S
C424 H430 0.929 . S
C425 C405 1.449 . S
C425 C424 1.399 . S
C425 H431 0.930 . S
H426 C406 0.931 . S
H427 C407 0.930 . S
H428 C415 0.931 . S
H429 C416 0.929 . S
H430 C424 0.929 . S
H431 C425 0.930 . S
Mn432 O437 2.095 . S
Mn432 O447 2.162 . S
Mn432 O448 2.297 . S
Mn432 O456 2.385 1_655 S
Mn432 O457 2.209 1_655 S
Mn432 O458 2.094 . S
Mn433 O438 2.121 1_454 S
Mn433 N440 2.257 1_554 S
Mn433 N449 2.282 . S
Mn433 O457 2.215 . S
Mn433 O459 2.117 . S
C434 O456 1.234 . S
C434 O457 1.283 . S
C435 O447 1.281 . S
C435 O448 1.236 . S
C436 O458 1.240 1_455 S
C436 O459 1.264 . S
O437 Mn432 2.095 . S
O437 C446 1.250 1_554 S
O438 Mn433 2.121 1_656 S
O438 C446 1.258 . S
C439 N440 1.326 . S
C439 C443 1.460 . S
C439 H445 0.929 . S
N440 Mn433 2.257 1_556 S
N440 C439 1.326 . S
N440 C444 1.362 . S
C441 C442 1.258 . S
C441 C444 1.431 . S
C441 C461 1.449 . S
C442 C441 1.258 . S
C442 C443 1.477 . S
C442 H462 0.931 . S
C443 C439 1.460 . S
C443 C442 1.477 . S
C443 H463 0.930 . S
C444 N440 1.362 . S
C444 C441 1.431 . S
C444 C454 1.476 1_556 S
H445 C439 0.929 . S
C446 O437 1.250 1_556 S
C446 O438 1.258 . S
O447 Mn432 2.162 . S
O447 C435 1.281 . S
O448 Mn432 2.297 . S
O448 C435 1.236 . S
N449 Mn433 2.282 . S
N449 C450 1.328 . S
N449 C454 1.318 . S
C450 N449 1.328 . S
C450 C451 1.457 . S
C450 H455 0.929 . S
C451 C450 1.457 . S
C451 C452 1.291 . S
C451 H464 0.931 . S
C452 C451 1.291 . S
C452 C453 1.373 . S
C452 H465 0.929 . S
C453 C452 1.373 . S
C453 C454 1.396 . S
C453 C460 1.403 . S
C454 C444 1.476 1_554 S
C454 N449 1.318 . S
C454 C453 1.396 . S
H455 C450 0.929 . S
O456 Mn432 2.385 1_455 S
O456 C434 1.234 . S
O457 Mn432 2.209 1_455 S
O457 Mn433 2.215 . S
O457 C434 1.283 . S
O458 Mn432 2.094 . S
O458 C436 1.240 1_655 S
O459 Mn433 2.117 . S
O459 C436 1.264 . S
C460 C453 1.403 . S
C460 C461 1.399 1_554 S
C460 H466 0.929 . S
C461 C441 1.449 . S
C461 C460 1.399 1_556 S
C461 H467 0.930 . S
H462 C442 0.931 . S
H463 C443 0.930 . S
H464 C451 0.931 . S
H465 C452 0.929 . S
H466 C460 0.929 . S
H467 C461 0.930 . S
Mn468 O473 2.095 . S
Mn468 O483 2.162 . S
Mn468 O484 2.297 . S
Mn468 O492 2.385 1_565 S
Mn468 O493 2.209 1_565 S
Mn468 O494 2.094 . S
Mn469 O474 2.121 1_545 S
Mn469 N476 2.257 . S
Mn469 N485 2.282 . S
Mn469 O493 2.215 . S
Mn469 O495 2.117 . S
C470 O492 1.234 . S
C470 O493 1.283 . S
C471 O483 1.281 . S
C471 O484 1.236 . S
C472 O494 1.240 1_545 S
C472 O495 1.264 . S
O473 Mn468 2.095 . S
O473 C482 1.250 . S
O474 Mn469 2.121 1_565 S
O474 C482 1.258 . S
C475 N476 1.326 . S
C475 C479 1.460 . S
C475 H481 0.929 . S
N476 Mn469 2.257 . S
N476 C475 1.326 . S
N476 C480 1.362 . S
C477 C478 1.258 . S
C477 C480 1.431 . S
C477 C497 1.449 . S
C478 C477 1.258 . S
C478 C479 1.477 . S
C478 H498 0.931 . S
C479 C475 1.460 . S
C479 C478 1.477 . S
C479 H499 0.930 . S
C480 N476 1.362 . S
C480 C477 1.431 . S
C480 C490 1.476 . S
H481 C475 0.929 . S
C482 O473 1.250 . S
C482 O474 1.258 . S
O483 Mn468 2.162 . S
O483 C471 1.281 . S
O484 Mn468 2.297 . S
O484 C471 1.236 . S
N485 Mn469 2.282 . S
N485 C486 1.328 . S
N485 C490 1.318 . S
C486 N485 1.328 . S
C486 C487 1.457 . S
C486 H491 0.929 . S
C487 C486 1.457 . S
C487 C488 1.291 . S
C487 H500 0.931 . S
C488 C487 1.291 . S
C488 C489 1.373 . S
C488 H501 0.929 . S
C489 C488 1.373 . S
C489 C490 1.396 . S
C489 C496 1.403 . S
C490 C480 1.476 . S
C490 N485 1.318 . S
C490 C489 1.396 . S
H491 C486 0.929 . S
O492 Mn468 2.385 1_545 S
O492 C470 1.234 . S
O493 Mn468 2.209 1_545 S
O493 Mn469 2.215 . S
O493 C470 1.283 . S
O494 Mn468 2.094 . S
O494 C472 1.240 1_565 S
O495 Mn469 2.117 . S
O495 C472 1.264 . S
C496 C489 1.403 . S
C496 C497 1.399 . S
C496 H502 0.929 . S
C497 C477 1.449 . S
C497 C496 1.399 . S
C497 H503 0.930 . S
H498 C478 0.931 . S
H499 C479 0.930 . S
H500 C487 0.931 . S
H501 C488 0.929 . S
H502 C496 0.929 . S
H503 C497 0.930 . S
Mn504 O509 2.095 . S
Mn504 O519 2.162 . S
Mn504 O520 2.297 . S
Mn504 O528 2.385 . S
Mn504 O529 2.209 . S
Mn504 O530 2.094 . S
Mn505 O510 2.121 1_554 S
Mn505 N512 2.257 1_554 S
Mn505 N521 2.282 . S
Mn505 O529 2.215 . S
Mn505 O531 2.117 . S
C506 O528 1.234 . S
C506 O529 1.283 . S
C507 O519 1.281 . S
C507 O520 1.236 . S
C508 O530 1.240 . S
C508 O531 1.264 . S
O509 Mn504 2.095 . S
O509 C518 1.250 1_554 S
O510 Mn505 2.121 1_556 S
O510 C518 1.258 . S
C511 N512 1.326 . S
C511 C515 1.460 . S
C511 H517 0.929 . S
N512 Mn505 2.257 1_556 S
N512 C511 1.326 . S
N512 C516 1.362 . S
C513 C514 1.258 . S
C513 C516 1.431 . S
C513 C533 1.449 . S
C514 C513 1.258 . S
C514 C515 1.477 . S
C514 H534 0.931 . S
C515 C511 1.460 . S
C515 C514 1.477 . S
C515 H535 0.930 . S
C516 N512 1.362 . S
C516 C513 1.431 . S
C516 C526 1.476 1_556 S
H517 C511 0.929 . S
C518 O509 1.250 1_556 S
C518 O510 1.258 . S
O519 Mn504 2.162 . S
O519 C507 1.281 . S
O520 Mn504 2.297 . S
O520 C507 1.236 . S
N521 Mn505 2.282 . S
N521 C522 1.328 . S
N521 C526 1.318 . S
C522 N521 1.328 . S
C522 C523 1.457 . S
C522 H527 0.929 . S
C523 C522 1.457 . S
C523 C524 1.291 . S
C523 H536 0.931 . S
C524 C523 1.291 . S
C524 C525 1.373 . S
C524 H537 0.929 . S
C525 C524 1.373 . S
C525 C526 1.396 . S
C525 C532 1.403 . S
C526 C516 1.476 1_554 S
C526 N521 1.318 . S
C526 C525 1.396 . S
H527 C522 0.929 . S
O528 Mn504 2.385 . S
O528 C506 1.234 . S
O529 Mn504 2.209 . S
O529 Mn505 2.215 . S
O529 C506 1.283 . S
O530 Mn504 2.094 . S
O530 C508 1.240 . S
O531 Mn505 2.117 . S
O531 C508 1.264 . S
C532 C525 1.403 . S
C532 C533 1.399 1_554 S
C532 H538 0.929 . S
C533 C513 1.449 . S
C533 C532 1.399 1_556 S
C533 H539 0.930 . S
H534 C514 0.931 . S
H535 C515 0.930 . S
H536 C523 0.931 . S
H537 C524 0.929 . S
H538 C532 0.929 . S
H539 C533 0.930 . S
Mn540 O545 2.095 . S
Mn540 O555 2.162 . S
Mn540 O556 2.297 . S
Mn540 O564 2.385 . S
Mn540 O565 2.209 . S
Mn540 O566 2.094 . S
Mn541 O546 2.121 . S
Mn541 N548 2.257 . S
Mn541 N557 2.282 . S
Mn541 O565 2.215 . S
Mn541 O567 2.117 . S
C542 O564 1.234 . S
C542 O565 1.283 . S
C543 O555 1.281 . S
C543 O556 1.236 . S
C544 O566 1.240 . S
C544 O567 1.264 . S
O545 Mn540 2.095 . S
O545 C554 1.250 . S
O546 Mn541 2.121 . S
O546 C554 1.258 . S
C547 N548 1.326 . S
C547 C551 1.460 . S
C547 H553 0.929 . S
N548 Mn541 2.257 . S
N548 C547 1.326 . S
N548 C552 1.362 . S
C549 C550 1.258 . S
C549 C552 1.431 . S
C549 C569 1.449 . S
C550 C549 1.258 . S
C550 C551 1.477 . S
C550 H570 0.931 . S
C551 C547 1.460 . S
C551 C550 1.477 . S
C551 H571 0.930 . S
C552 N548 1.362 . S
C552 C549 1.431 . S
C552 C562 1.476 . S
H553 C547 0.929 . S
C554 O545 1.250 . S
C554 O546 1.258 . S
O555 Mn540 2.162 . S
O555 C543 1.281 . S
O556 Mn540 2.297 . S
O556 C543 1.236 . S
N557 Mn541 2.282 . S
N557 C558 1.328 . S
N557 C562 1.318 . S
C558 N557 1.328 . S
C558 C559 1.457 . S
C558 H563 0.929 . S
C559 C558 1.457 . S
C559 C560 1.291 . S
C559 H572 0.931 . S
C560 C559 1.291 . S
C560 C561 1.373 . S
C560 H573 0.929 . S
C561 C560 1.373 . S
C561 C562 1.396 . S
C561 C568 1.403 . S
C562 C552 1.476 . S
C562 N557 1.318 . S
C562 C561 1.396 . S
H563 C558 0.929 . S
O564 Mn540 2.385 . S
O564 C542 1.234 . S
O565 Mn540 2.209 . S
O565 Mn541 2.215 . S
O565 C542 1.283 . S
O566 Mn540 2.094 . S
O566 C544 1.240 . S
O567 Mn541 2.117 . S
O567 C544 1.264 . S
C568 C561 1.403 . S
C568 C569 1.399 . S
C568 H574 0.929 . S
C569 C549 1.449 . S
C569 C568 1.399 . S
C569 H575 0.930 . S
H570 C550 0.931 . S
H571 C551 0.930 . S
H572 C559 0.931 . S
H573 C560 0.929 . S
H574 C568 0.929 . S
H575 C569 0.930 . S
C576 C577 1.387 1_455 S
C576 H580 0.950 . S
C576 C585 1.390 1_554 S
C577 C576 1.387 1_655 S
C577 C579 1.387 . S
H578 C585 0.950 . S
C579 C577 1.387 . S
C579 C581 1.390 1_554 S
C579 H583 0.950 . S
H580 C576 0.950 . S
C581 C579 1.390 1_556 S
C581 C582 1.387 . S
C581 H584 0.950 . S
C582 C581 1.387 . S
C582 C585 1.387 1_655 S
H583 C579 0.950 . S
H584 C581 0.950 . S
C585 C576 1.390 1_556 S
C585 H578 0.950 . S
C585 C582 1.387 1_455 S
C586 C587 1.387 . S
C586 H590 0.950 . S
C586 C595 1.390 . S
C587 C586 1.387 . S
C587 C589 1.387 1_565 S
H588 C595 0.950 . S
C589 C587 1.387 1_545 S
C589 C591 1.390 . S
C589 H593 0.950 . S
H590 C586 0.950 . S
C591 C589 1.390 . S
C591 C592 1.387 1_545 S
C591 H594 0.950 . S
C592 C591 1.387 1_565 S
C592 C595 1.387 . S
H593 C589 0.950 . S
H594 C591 0.950 . S
C595 C586 1.390 . S
C595 H588 0.950 . S
C595 C592 1.387 . S
C596 C597 1.387 . S
C596 H600 0.950 . S
C596 C605 1.390 1_554 S
C597 C596 1.387 . S
C597 C599 1.387 . S
H598 C605 0.950 . S
C599 C597 1.387 . S
C599 C601 1.390 1_554 S
C599 H603 0.950 . S
H600 C596 0.950 . S
C601 C599 1.390 1_556 S
C601 C602 1.387 . S
C601 H604 0.950 . S
C602 C601 1.387 . S
C602 C605 1.387 . S
H603 C599 0.950 . S
H604 C601 0.950 . S
C605 C596 1.390 1_556 S
C605 H598 0.950 . S
C605 C602 1.387 . S
C606 C607 1.387 . S
C606 H610 0.950 . S
C606 C615 1.390 . S
C607 C606 1.387 . S
C607 C609 1.387 . S
H608 C615 0.950 . S
C609 C607 1.387 . S
C609 C611 1.390 . S
C609 H613 0.950 . S
H610 C606 0.950 . S
C611 C609 1.390 . S
C611 C612 1.387 . S
C611 H614 0.950 . S
C612 C611 1.387 . S
C612 C615 1.387 . S
H613 C609 0.950 . S
H614 C611 0.950 . S
C615 C606 1.390 . S
C615 H608 0.950 . S
C615 C612 1.387 . S
C616 C617 1.387 . S
C616 H620 0.950 . S
C616 C625 1.390 1_556 S
C617 C616 1.387 . S
C617 C619 1.387 1_455 S
H618 C625 0.950 . S
C619 C617 1.387 1_655 S
C619 C621 1.390 1_556 S
C619 H623 0.950 . S
H620 C616 0.950 . S
C621 C619 1.390 1_554 S
C621 C622 1.387 1_655 S
C621 H624 0.950 . S
C622 C621 1.387 1_455 S
C622 C625 1.387 . S
H623 C619 0.950 . S
H624 C621 0.950 . S
C625 C616 1.390 1_554 S
C625 H618 0.950 . S
C625 C622 1.387 . S
C626 C627 1.387 1_565 S
C626 H630 0.950 . S
C626 C635 1.390 . S
C627 C626 1.387 1_545 S
C627 C629 1.387 . S
H628 C635 0.950 . S
C629 C627 1.387 . S
C629 C631 1.390 . S
C629 H633 0.950 . S
H630 C626 0.950 . S
C631 C629 1.390 . S
C631 C632 1.387 . S
C631 H634 0.950 . S
C632 C631 1.387 . S
C632 C635 1.387 1_545 S
H633 C629 0.950 . S
H634 C631 0.950 . S
C635 C626 1.390 . S
C635 H628 0.950 . S
C635 C632 1.387 1_565 S
C636 C637 1.387 . S
C636 H640 0.950 . S
C636 C645 1.390 1_556 S
C637 C636 1.387 . S
C637 C639 1.387 . S
H638 C645 0.950 . S
C639 C637 1.387 . S
C639 C641 1.390 1_556 S
C639 H643 0.950 . S
H640 C636 0.950 . S
C641 C639 1.390 1_554 S
C641 C642 1.387 . S
C641 H644 0.950 . S
C642 C641 1.387 . S
C642 C645 1.387 . S
H643 C639 0.950 . S
H644 C641 0.950 . S
C645 C636 1.390 1_554 S
C645 H638 0.950 . S
C645 C642 1.387 . S
C646 C647 1.387 . S
C646 H650 0.950 . S
C646 C655 1.390 . S
C647 C646 1.387 . S
C647 C649 1.387 . S
H648 C655 0.950 . S
C649 C647 1.387 . S
C649 C651 1.390 . S
C649 H653 0.950 . S
H650 C646 0.950 . S
C651 C649 1.390 . S
C651 C652 1.387 . S
C651 H654 0.950 . S
C652 C651 1.387 . S
C652 C655 1.387 . S
H653 C649 0.950 . S
H654 C651 0.950 . S
C655 C646 1.390 . S
C655 H648 0.950 . S
C655 C652 1.387 . S
C656 C657 1.387 . S
C656 H660 0.950 . S
C656 C665 1.390 . S
C657 C656 1.387 . S
C657 C659 1.387 . S
H658 C665 0.950 . S
C659 C657 1.387 . S
C659 C661 1.390 . S
C659 H663 0.950 1_556 S
H660 C656 0.950 . S
C661 C659 1.390 . S
C661 C662 1.387 . S
C661 H664 0.950 . S
C662 C661 1.387 . S
C662 C665 1.387 . S
H663 C659 0.950 1_554 S
H664 C661 0.950 . S
C665 C656 1.390 . S
C665 H658 0.950 . S
C665 C662 1.387 . S
C666 C667 1.387 . S
C666 H670 0.950 . S
C666 C675 1.390 . S
C667 C666 1.387 . S
C667 C669 1.387 . S
H668 C675 0.950 . S
C669 C667 1.387 . S
C669 C671 1.390 . S
C669 H673 0.950 . S
H670 C666 0.950 . S
C671 C669 1.390 . S
C671 C672 1.387 . S
C671 H674 0.950 . S
C672 C671 1.387 . S
C672 C675 1.387 . S
H673 C669 0.950 . S
H674 C671 0.950 . S
C675 C666 1.390 . S
C675 H668 0.950 . S
C675 C672 1.387 . S
C676 C677 1.387 . S
C676 H680 0.950 1_556 S
C676 C685 1.390 . S
C677 C676 1.387 . S
C677 C679 1.387 . S
H678 C685 0.950 . S
C679 C677 1.387 . S
C679 C681 1.390 . S
C679 H683 0.950 . S
H680 C676 0.950 1_554 S
C681 C679 1.390 . S
C681 C682 1.387 . S
C681 H684 0.950 . S
C682 C681 1.387 . S
C682 C685 1.387 . S
H683 C679 0.950 . S
H684 C681 0.950 . S
C685 C676 1.390 . S
C685 H678 0.950 . S
C685 C682 1.387 . S
C686 C687 1.387 . S
C686 H690 0.950 . S
C686 C695 1.390 . S
C687 C686 1.387 . S
C687 C689 1.387 . S
H688 C695 0.950 . S
C689 C687 1.387 . S
C689 C691 1.390 . S
C689 H693 0.950 . S
H690 C686 0.950 . S
C691 C689 1.390 . S
C691 C692 1.387 . S
C691 H694 0.950 . S
C692 C691 1.387 . S
C692 C695 1.387 . S
H693 C689 0.950 . S
H694 C691 0.950 . S
C695 C686 1.390 . S
C695 H688 0.950 . S
C695 C692 1.387 . S
C696 C697 1.387 . S
C696 H700 0.950 . S
C696 C705 1.390 . S
C697 C696 1.387 . S
C697 C699 1.387 . S
H698 C705 0.950 . S
C699 C697 1.387 . S
C699 C701 1.390 . S
C699 H703 0.950 . S
H700 C696 0.950 . S
C701 C699 1.390 . S
C701 C702 1.387 . S
C701 H704 0.950 . S
C702 C701 1.387 . S
C702 C705 1.387 . S
H703 C699 0.950 . S
H704 C701 0.950 . S
C705 C696 1.390 . S
C705 H698 0.950 . S
C705 C702 1.387 . S
C706 C707 1.387 . S
C706 H710 0.950 . S
C706 C715 1.390 . S
C707 C706 1.387 . S
C707 C709 1.387 . S
H708 C715 0.950 . S
C709 C707 1.387 . S
C709 C711 1.390 . S
C709 H713 0.950 . S
H710 C706 0.950 . S
C711 C709 1.390 . S
C711 C712 1.387 . S
C711 H714 0.950 . S
C712 C711 1.387 . S
C712 C715 1.387 . S
H713 C709 0.950 . S
H714 C711 0.950 . S
C715 C706 1.390 . S
C715 H708 0.950 . S
C715 C712 1.387 . S
C716 C717 1.387 . S
C716 H720 0.950 . S
C716 C725 1.390 . S
C717 C716 1.387 . S
C717 C719 1.387 . S
H718 C725 0.950 . S
C719 C717 1.387 . S
C719 C721 1.390 . S
C719 H723 0.950 . S
H720 C716 0.950 . S
C721 C719 1.390 . S
C721 C722 1.387 . S
C721 H724 0.950 . S
C722 C721 1.387 . S
C722 C725 1.387 . S
H723 C719 0.950 . S
H724 C721 0.950 . S
C725 C716 1.390 . S
C725 H718 0.950 . S
C725 C722 1.387 . S
C726 C727 1.387 . S
C726 H730 0.950 . S
C726 C735 1.390 . S
C727 C726 1.387 . S
C727 C729 1.387 . S
H728 C735 0.950 . S
C729 C727 1.387 . S
C729 C731 1.390 . S
C729 H733 0.950 . S
H730 C726 0.950 . S
C731 C729 1.390 . S
C731 C732 1.387 . S
C731 H734 0.950 . S
C732 C731 1.387 . S
C732 C735 1.387 . S
H733 C729 0.950 . S
H734 C731 0.950 . S
C735 C726 1.390 . S
C735 H728 0.950 . S
C735 C732 1.387 . S
C736 C737 1.387 . S
C736 H740 0.950 1_554 S
C736 C745 1.390 . S
C737 C736 1.387 . S
C737 C739 1.387 . S
H738 C745 0.950 . S
C739 C737 1.387 . S
C739 C741 1.390 . S
C739 H743 0.950 . S
H740 C736 0.950 1_556 S
C741 C739 1.390 . S
C741 C742 1.387 . S
C741 H744 0.950 . S
C742 C741 1.387 . S
C742 C745 1.387 . S
H743 C739 0.950 . S
H744 C741 0.950 . S
C745 C736 1.390 . S
C745 H738 0.950 . S
C745 C742 1.387 . S
C746 C747 1.387 . S
C746 H750 0.950 . S
C746 C755 1.390 . S
C747 C746 1.387 . S
C747 C749 1.387 . S
H748 C755 0.950 . S
C749 C747 1.387 . S
C749 C751 1.390 . S
C749 H753 0.950 . S
H750 C746 0.950 . S
C751 C749 1.390 . S
C751 C752 1.387 . S
C751 H754 0.950 . S
C752 C751 1.387 . S
C752 C755 1.387 . S
H753 C749 0.950 . S
H754 C751 0.950 . S
C755 C746 1.390 . S
C755 H748 0.950 . S
C755 C752 1.387 . S
C756 C757 1.387 . S
C756 H760 0.950 . S
C756 C765 1.390 . S
C757 C756 1.387 . S
C757 C759 1.387 . S
H758 C765 0.950 . S
C759 C757 1.387 . S
C759 C761 1.390 . S
C759 H763 0.950 . S
H760 C756 0.950 . S
C761 C759 1.390 . S
C761 C762 1.387 . S
C761 H764 0.950 . S
C762 C761 1.387 . S
C762 C765 1.387 . S
H763 C759 0.950 . S
H764 C761 0.950 . S
C765 C756 1.390 . S
C765 H758 0.950 . S
C765 C762 1.387 . S
C766 C767 1.387 . S
C766 H770 0.950 . S
C766 C775 1.390 . S
C767 C766 1.387 . S
C767 C769 1.387 . S
H768 C775 0.950 . S
C769 C767 1.387 . S
C769 C771 1.390 . S
C769 H773 0.950 . S
H770 C766 0.950 . S
C771 C769 1.390 . S
C771 C772 1.387 . S
C771 H774 0.950 . S
C772 C771 1.387 . S
C772 C775 1.387 . S
H773 C769 0.950 . S
H774 C771 0.950 . S
C775 C766 1.390 . S
C775 H768 0.950 . S
C775 C772 1.387 . S
C776 C777 1.387 . S
C776 H780 0.950 . S
C776 C785 1.390 . S
C777 C776 1.387 . S
C777 C779 1.387 . S
H778 C785 0.950 . S
C779 C777 1.387 . S
C779 C781 1.390 . S
C779 H783 0.950 . S
H780 C776 0.950 . S
C781 C779 1.390 . S
C781 C782 1.387 . S
C781 H784 0.950 1_556 S
C782 C781 1.387 . S
C782 C785 1.387 . S
H783 C779 0.950 . S
H784 C781 0.950 1_554 S
C785 C776 1.390 . S
C785 H778 0.950 . S
C785 C782 1.387 . S
C786 C787 1.387 . S
C786 H790 0.950 . S
C786 C795 1.390 . S
C787 C786 1.387 . S
C787 C789 1.387 . S
H788 C795 0.950 . S
C789 C787 1.387 . S
C789 C791 1.390 . S
C789 H793 0.950 . S
H790 C786 0.950 . S
C791 C789 1.390 . S
C791 C792 1.387 . S
C791 H794 0.950 . S
C792 C791 1.387 . S
C792 C795 1.387 . S
H793 C789 0.950 . S
H794 C791 0.950 . S
C795 C786 1.390 . S
C795 H788 0.950 . S
C795 C792 1.387 . S
C796 C797 1.387 . S
C796 H800 0.950 . S
C796 C805 1.390 . S
C797 C796 1.387 . S
C797 C799 1.387 . S
H798 C805 0.950 . S
C799 C797 1.387 . S
C799 C801 1.390 . S
C799 H803 0.950 . S
H800 C796 0.950 . S
C801 C799 1.390 . S
C801 C802 1.387 . S
C801 H804 0.950 . S
C802 C801 1.387 . S
C802 C805 1.387 . S
H803 C799 0.950 . S
H804 C801 0.950 . S
C805 C796 1.390 . S
C805 H798 0.950 . S
C805 C802 1.387 . S
C806 C807 1.387 . S
C806 H810 0.950 . S
C806 C815 1.390 . S
C807 C806 1.387 . S
C807 C809 1.387 . S
H808 C815 0.950 . S
C809 C807 1.387 . S
C809 C811 1.390 . S
C809 H813 0.950 . S
H810 C806 0.950 . S
C811 C809 1.390 . S
C811 C812 1.387 . S
C811 H814 0.950 . S
C812 C811 1.387 . S
C812 C815 1.387 . S
H813 C809 0.950 . S
H814 C811 0.950 . S
C815 C806 1.390 . S
C815 H808 0.950 . S
C815 C812 1.387 . S
C816 C817 1.387 . S
C816 H820 0.950 . S
C816 C825 1.390 . S
C817 C816 1.387 . S
C817 C819 1.387 . S
H818 C825 0.950 . S
C819 C817 1.387 . S
C819 C821 1.390 . S
C819 H823 0.950 . S
H820 C816 0.950 . S
C821 C819 1.390 . S
C821 C822 1.387 . S
C821 H824 0.950 . S
C822 C821 1.387 . S
C822 C825 1.387 . S
H823 C819 0.950 . S
H824 C821 0.950 . S
C825 C816 1.390 . S
C825 H818 0.950 . S
C825 C822 1.387 . S
C826 C827 1.387 . S
C826 H830 0.950 . S
C826 C835 1.390 . S
C827 C826 1.387 . S
C827 C829 1.387 . S
H828 C835 0.950 . S
C829 C827 1.387 . S
C829 C831 1.390 . S
C829 H833 0.950 . S
H830 C826 0.950 . S
C831 C829 1.390 . S
C831 C832 1.387 . S
C831 H834 0.950 . S
C832 C831 1.387 . S
C832 C835 1.387 . S
H833 C829 0.950 . S
H834 C831 0.950 . S
C835 C826 1.390 . S
C835 H828 0.950 . S
C835 C832 1.387 . S
C836 C837 1.387 . S
C836 H840 0.950 . S
C836 C845 1.390 . S
C837 C836 1.387 . S
C837 C839 1.387 . S
H838 C845 0.950 . S
C839 C837 1.387 . S
C839 C841 1.390 . S
C839 H843 0.950 . S
H840 C836 0.950 . S
C841 C839 1.390 . S
C841 C842 1.387 . S
C841 H844 0.950 . S
C842 C841 1.387 . S
C842 C845 1.387 . S
H843 C839 0.950 . S
H844 C841 0.950 . S
C845 C836 1.390 . S
C845 H838 0.950 . S
C845 C842 1.387 . S
C846 C847 1.387 . S
C846 H850 0.950 . S
C846 C855 1.390 . S
C847 C846 1.387 . S
C847 C849 1.387 . S
H848 C855 0.950 . S
C849 C847 1.387 . S
C849 C851 1.390 . S
C849 H853 0.950 . S
H850 C846 0.950 . S
C851 C849 1.390 . S
C851 C852 1.387 . S
C851 H854 0.950 . S
C852 C851 1.387 . S
C852 C855 1.387 . S
H853 C849 0.950 . S
H854 C851 0.950 . S
C855 C846 1.390 . S
C855 H848 0.950 . S
C855 C852 1.387 . S
C856 C857 1.387 . S
C856 H860 0.950 . S
C856 C865 1.390 . S
C857 C856 1.387 . S
C857 C859 1.387 . S
H858 C865 0.950 . S
C859 C857 1.387 . S
C859 C861 1.390 . S
C859 H863 0.950 . S
H860 C856 0.950 . S
C861 C859 1.390 . S
C861 C862 1.387 . S
C861 H864 0.950 . S
C862 C861 1.387 . S
C862 C865 1.387 . S
H863 C859 0.950 . S
H864 C861 0.950 . S
C865 C856 1.390 . S
C865 H858 0.950 . S
C865 C862 1.387 . S
C866 C867 1.387 . S
C866 H870 0.950 . S
C866 C875 1.390 . S
C867 C866 1.387 . S
C867 C869 1.387 . S
H868 C875 0.950 . S
C869 C867 1.387 . S
C869 C871 1.390 . S
C869 H873 0.950 . S
H870 C866 0.950 . S
C871 C869 1.390 . S
C871 C872 1.387 . S
C871 H874 0.950 . S
C872 C871 1.387 . S
C872 C875 1.387 . S
H873 C869 0.950 . S
H874 C871 0.950 . S
C875 C866 1.390 . S
C875 H868 0.950 . S
C875 C872 1.387 . S
C876 C877 1.387 . S
C876 H880 0.950 . S
C876 C885 1.390 . S
C877 C876 1.387 . S
C877 C879 1.387 . S
H878 C885 0.950 . S
C879 C877 1.387 . S
C879 C881 1.390 . S
C879 H883 0.950 . S
H880 C876 0.950 . S
C881 C879 1.390 . S
C881 C882 1.387 . S
C881 H884 0.950 . S
C882 C881 1.387 . S
C882 C885 1.387 . S
H883 C879 0.950 . S
H884 C881 0.950 . S
C885 C876 1.390 . S
C885 H878 0.950 . S
C885 C882 1.387 . S
C886 C887 1.387 . S
C886 H890 0.950 . S
C886 C895 1.390 . S
C887 C886 1.387 . S
C887 C889 1.387 . S
H888 C895 0.950 . S
C889 C887 1.387 . S
C889 C891 1.390 . S
C889 H893 0.950 . S
H890 C886 0.950 . S
C891 C889 1.390 . S
C891 C892 1.387 . S
C891 H894 0.950 . S
C892 C891 1.387 . S
C892 C895 1.387 . S
H893 C889 0.950 . S
H894 C891 0.950 . S
C895 C886 1.390 . S
C895 H888 0.950 . S
C895 C892 1.387 . S
C577 C4 1.285 . S
C582 C148 1.285 . S
C587 C184 1.282 . S
C592 C40 1.283 . S
C597 C76 1.285 . S
C602 C220 1.285 . S
C607 C112 1.286 . S
C612 C256 1.286 . S
C617 C292 1.285 . S
C622 C436 1.285 . S
C627 C472 1.282 . S
C632 C328 1.282 . S
C637 C364 1.285 . S
C642 C508 1.285 . S
C647 C400 1.286 . S
C652 C544 1.286 . S
C657 C14 1.430 . S
C662 C543 1.441 . S
C667 C435 1.441 . S
C672 C50 1.430 . S
C677 C86 1.431 . S
C682 C471 1.440 . S
C687 C507 1.441 . S
C692 C122 1.430 . S
C697 C327 1.441 . S
C702 C158 1.430 . S
C707 C363 1.440 . S
C712 C194 1.431 . S
C717 C399 1.441 . S
C722 C230 1.429 . S
C727 C291 1.441 . S
C732 C266 1.430 . S
C737 C302 1.430 . S
C742 C255 1.441 . S
C747 C147 1.440 . S
C752 C338 1.431 . S
C757 C183 1.441 . S
C762 C374 1.430 . S
C767 C410 1.431 . S
C772 C219 1.441 . S
C777 C39 1.440 . S
C782 C446 1.431 . S
C787 C482 1.430 . S
C792 C75 1.440 . S
C797 C518 1.430 . S
C802 C111 1.441 . S
C807 C554 1.431 . S
C812 C3 1.440 . S
C817 C254 1.237 . S
C822 C2 1.239 . S
C827 C38 1.237 . S
C832 C146 1.239 . S
C837 C74 1.237 . S
C842 C182 1.238 . S
C847 C110 1.237 . S
C852 C218 1.236 . S
C857 C542 1.238 . S
C862 C290 1.236 . S
C867 C434 1.236 . S
C872 C326 1.238 . S
C877 C470 1.238 . S
C882 C362 1.237 . S
C887 C506 1.236 . S
C892 C398 1.238 . S
