# Generated by pormake.
# Topology ukg, (4)-cn, num edge types: 1
# Building blocks:
#     Node 0, Type 0, BuildingBlock: ICAMEG_clean_sbu_1, # of connection points: 4
#     Node 1, Type 0, BuildingBlock: ICAMEG_clean_sbu_1, # of connection points: 4
#     Node 2, Type 0, BuildingBlock: ICAMEG_clean_sbu_1, # of connection points: 4
#     Node 3, Type 0, BuildingBlock: ICAMEG_clean_sbu_1, # of connection points: 4
#     Node 4, Type 0, BuildingBlock: ICAMEG_clean_sbu_1, # of connection points: 4
#     Node 5, Type 0, BuildingBlock: ICAMEG_clean_sbu_1, # of connection points: 4
#     Node 6, Type 0, BuildingBlock: ICAMEG_clean_sbu_1, # of connection points: 4
#     Node 7, Type 0, BuildingBlock: ICAMEG_clean_sbu_1, # of connection points: 4
#     Edge 8, Type (0, 0), None
#     Edge 9, Type (0, 0), None
#     Edge 10, Type (0, 0), None
#     Edge 11, Type (0, 0), None
#     Edge 12, Type (0, 0), None
#     Edge 13, Type (0, 0), None
#     Edge 14, Type (0, 0), None
#     Edge 15, Type (0, 0), None
#     Edge 16, Type (0, 0), None
#     Edge 17, Type (0, 0), None
#     Edge 18, Type (0, 0), None
#     Edge 19, Type (0, 0), None
#     Edge 20, Type (0, 0), None
#     Edge 21, Type (0, 0), None
#     Edge 22, Type (0, 0), None
#     Edge 23, Type (0, 0), None
# Relax obj value: 0.012
# Max RMSD: 0.099
# Mean RMSD: 0.099
data_MOF--net-ukg--node1-ICAMEG_clean_sbu_1--edge1-none
_symmetry_space_group_name_H-M    P1
_symmetry_Int_Tables_number       1
_symmetry_cell_setting            triclinic
loop_
_symmetry_equiv_pos_as_xyz
'x, y, z'
_cell_length_a     16.460722
_cell_length_b     16.460889
_cell_length_c     19.406487
_cell_angle_alpha  89.99924
_cell_angle_beta   90.000027
_cell_angle_gamma 89.998541
loop_
_atom_site_label
_atom_site_type_symbol
_atom_site_fract_x
_atom_site_fract_y
_atom_site_fract_z
_atom_type_partial_charge
Co0 Co 0.0368 0.66409 0.25583 0.0
Co1 Co 0.92308 0.66029 0.1108 0.0
O2 O 0.02393 0.65163 0.15753 0.0
C3 C 0.1881 0.7244 0.1823 0.0
O4 O 0.1501 0.7231 0.12301 0.0
C5 C 0.96477 0.50038 0.03189 0.0
O6 O 0.93203 0.45365 0.07911 0.0
O7 O 0.87895 0.57471 0.17459 0.0
O8 O 0.91969 0.62431 0.27646 0.0
H9 H 0.62446 0.60958 0.10215 0.0
H10 H 0.17023 0.56898 0.18579 0.0
O11 O 0.15139 0.70619 0.23833 0.0
H12 H 0.02473 0.37057 0.32962 0.0
H13 H 0.21439 0.65242 0.46544 0.0
H14 H 0.96111 0.75779 0.36972 0.0
H15 H -0.01531 0.51391 0.3307 0.0
H16 H 0.17593 0.62362 0.34543 0.0
O17 O 0.96694 0.57749 0.04062 0.0
H18 H 0.75215 0.6564 0.15605 0.0
H19 H 0.86411 0.63678 0.96006 0.0
H20 H -0.00499 0.78777 0.49083 0.0
H21 H 0.21765 0.42869 0.18969 0.0
H22 H 0.12233 0.73328 0.53987 0.0
H23 H 0.14343 0.32672 0.25985 0.0
O24 O -0.00965 0.77572 0.25044 0.0
H25 H -0.01151 0.80045 0.88572 0.0
H26 H 0.01547 0.81792 0.13467 0.0
H27 H 0.04659 0.93667 0.06659 0.0
H28 H 0.02684 0.93248 0.94086 0.0
H29 H 0.97667 0.68197 0.95667 0.0
H30 H 0.73694 0.6147 0.90557 0.0
H31 H 0.61666 0.59065 0.97688 0.0
O32 O 0.8832 0.75031 0.18044 0.0
C33 C 0.86818 0.58419 0.23962 0.0
C34 C 0.67607 0.62468 0.07085 0.0
C35 C 0.73936 0.62566 0.96036 0.0
N36 N 0.81823 0.6582 0.0619 0.0
C37 C 0.74966 0.64896 0.10083 0.0
C38 C 0.81279 0.64379 0.99225 0.0
C39 C 0.67126 0.61341 0.00029 0.0
C40 C 0.1396 0.52731 0.21953 0.0
N41 N 0.07595 0.55197 0.25974 0.0
C42 C 0.16575 0.44664 0.22008 0.0
C43 C 0.12413 0.38958 0.25949 0.0
C44 C 0.05754 0.41411 0.29847 0.0
C45 C 0.03488 0.49596 0.29855 0.0
C46 C 0.15734 0.67472 0.4454 0.0
C47 C 0.01283 0.72991 0.39213 0.0
C48 C 0.13411 0.6567 0.37785 0.0
N49 N 0.06016 0.68039 0.35306 0.0
C50 C 0.03354 0.74898 0.46006 0.0
C51 C 0.10568 0.71963 0.48726 0.0
C52 C 0.91956 0.79419 0.22743 0.0
C53 C -0.01138 0.80742 0.94087 0.0
C54 C 0.00053 0.81559 0.0815 0.0
C55 C 0.02076 0.88344 0.04236 0.0
C56 C 0.01003 0.88076 0.97166 0.0
N57 N 0.96895 0.74692 0.05195 0.0
C58 C 0.97547 0.73971 0.98201 0.0
Co59 Co 0.29995 0.53679 0.75583 0.0
Co60 Co 0.30376 0.42307 0.6108 0.0
O61 O 0.31241 0.52392 0.65753 0.0
C62 C 0.23964 0.68809 0.6823 0.0
O63 O 0.24095 0.65009 0.62301 0.0
C64 C 0.46366 0.46476 0.53189 0.0
O65 O 0.5104 0.43201 0.57911 0.0
O66 O 0.38933 0.37895 0.67459 0.0
O67 O 0.33973 0.41968 0.77646 0.0
H68 H 0.35447 0.12445 0.60215 0.0
H69 H 0.39506 0.67021 0.68579 0.0
O70 O 0.25785 0.65139 0.73833 0.0
H71 H 0.59347 0.52472 0.82963 0.0
H72 H 0.31163 0.71437 0.96544 0.0
H73 H 0.20625 0.46111 0.86972 0.0
H74 H 0.45012 0.48468 0.8307 0.0
H75 H 0.34042 0.67591 0.84543 0.0
O76 O 0.38655 0.46694 0.54062 0.0
H77 H 0.30764 0.25215 0.65605 0.0
H78 H 0.32728 0.36411 0.46006 0.0
H79 H 0.17627 0.495 0.99083 0.0
H80 H 0.53535 0.71763 0.68969 0.0
H81 H 0.23077 0.62232 0.03987 0.0
H82 H 0.63732 0.64341 0.75986 0.0
O83 O 0.18832 0.49034 0.75044 0.0
H84 H 0.16359 0.48848 0.38572 0.0
H85 H 0.14613 0.51547 0.63467 0.0
H86 H 0.02738 0.54659 0.56659 0.0
H87 H 0.03156 0.52684 0.44086 0.0
H88 H 0.28207 0.47666 0.45667 0.0
H89 H 0.34935 0.23694 0.40557 0.0
H90 H 0.3734 0.11666 0.47688 0.0
O91 O 0.21373 0.38319 0.68044 0.0
C92 C 0.37985 0.36818 0.73962 0.0
C93 C 0.33936 0.17607 0.57085 0.0
C94 C 0.33839 0.23936 0.46036 0.0
N95 N 0.30585 0.31823 0.5619 0.0
C96 C 0.31508 0.24965 0.60083 0.0
C97 C 0.32027 0.31279 0.49225 0.0
C98 C 0.35064 0.17125 0.50029 0.0
C99 C 0.43673 0.63958 0.71953 0.0
N100 N 0.41207 0.57594 0.75974 0.0
C101 C 0.51741 0.66573 0.72008 0.0
C102 C 0.57446 0.62411 0.7595 0.0
C103 C 0.54993 0.55753 0.79847 0.0
C104 C 0.46808 0.53487 0.79856 0.0
C105 C 0.28933 0.65733 0.9454 0.0
C106 C 0.23412 0.51282 0.89213 0.0
C107 C 0.30734 0.6341 0.87785 0.0
N108 N 0.28365 0.56015 0.85306 0.0
C109 C 0.21506 0.53353 0.96006 0.0
C110 C 0.24442 0.60566 0.98727 0.0
C111 C 0.16985 0.41956 0.72742 0.0
C112 C 0.15662 0.48862 0.44087 0.0
C113 C 0.14845 0.50053 0.5815 0.0
C114 C 0.0806 0.52076 0.54236 0.0
C115 C 0.08328 0.51002 0.47166 0.0
N116 N 0.21712 0.46895 0.55195 0.0
C117 C 0.22433 0.47546 0.48201 0.0
Co118 Co 0.42726 0.79995 0.25583 0.0
Co119 Co 0.54098 0.80375 0.1108 0.0
O120 O 0.44013 0.81241 0.15753 0.0
C121 C 0.27596 0.73963 0.1823 0.0
O122 O 0.31396 0.74095 0.12301 0.0
C123 C 0.49928 0.96366 0.03189 0.0
O124 O 0.53203 0.01039 0.07911 0.0
O125 O 0.5851 0.88933 0.17459 0.0
O126 O 0.54437 0.83973 0.27646 0.0
H127 H 0.8396 0.85447 0.10215 0.0
H128 H 0.29383 0.89506 0.18579 0.0
O129 O 0.31266 0.75785 0.23833 0.0
H130 H 0.43932 0.09347 0.32962 0.0
H131 H 0.24967 0.81163 0.46544 0.0
H132 H 0.50294 0.70625 0.36972 0.0
H133 H 0.47937 0.95013 0.33069 0.0
H134 H 0.28813 0.84043 0.34543 0.0
O135 O 0.49711 0.88655 0.04062 0.0
H136 H 0.7119 0.80764 0.15605 0.0
H137 H 0.59995 0.82726 0.96006 0.0
H138 H 0.46904 0.67627 0.49084 0.0
H139 H 0.2464 0.03535 0.18969 0.0
H140 H 0.34172 0.73077 0.53987 0.0
H141 H 0.32062 0.13732 0.25984 0.0
O142 O 0.47371 0.68832 0.25044 0.0
H143 H 0.47557 0.6636 0.88572 0.0
H144 H 0.44858 0.64613 0.13467 0.0
H145 H 0.41747 0.52738 0.06659 0.0
H146 H 0.43722 0.53156 0.94086 0.0
H147 H 0.48739 0.78208 0.95667 0.0
H148 H 0.72711 0.84934 0.90557 0.0
H149 H 0.84739 0.8734 0.97688 0.0
O150 O 0.58086 0.71373 0.18044 0.0
C151 C 0.59587 0.87984 0.23962 0.0
C152 C 0.78799 0.83936 0.07085 0.0
C153 C 0.72469 0.83838 0.96036 0.0
N154 N 0.64583 0.80584 0.0619 0.0
C155 C 0.7144 0.81508 0.10083 0.0
C156 C 0.65126 0.82025 0.99225 0.0
C157 C 0.7928 0.85063 0.00029 0.0
C158 C 0.32445 0.93673 0.21953 0.0
N159 N 0.3881 0.91207 0.25974 0.0
C160 C 0.2983 0.0174 0.22008 0.0
C161 C 0.33993 0.07446 0.25949 0.0
C162 C 0.40651 0.04993 0.29846 0.0
C163 C 0.42917 0.96808 0.29855 0.0
C164 C 0.30671 0.78933 0.4454 0.0
C165 C 0.45122 0.73413 0.39214 0.0
C166 C 0.32994 0.80734 0.37785 0.0
N167 N 0.40389 0.78365 0.35307 0.0
C168 C 0.43051 0.71506 0.46006 0.0
C169 C 0.35838 0.74442 0.48727 0.0
C170 C 0.54449 0.66985 0.22743 0.0
C171 C 0.47543 0.65663 0.94088 0.0
C172 C 0.46353 0.64845 0.08151 0.0
C173 C 0.4433 0.5806 0.04236 0.0
C174 C 0.45403 0.58329 0.97167 0.0
N175 N 0.4951 0.71712 0.05195 0.0
C176 C 0.48858 0.72433 0.98201 0.0
Co177 Co 0.1641 0.92726 0.75583 0.0
Co178 Co 0.1603 0.04098 0.6108 0.0
O179 O 0.15164 0.94013 0.65753 0.0
C180 C 0.22442 0.77596 0.6823 0.0
O181 O 0.2231 0.81395 0.62301 0.0
C182 C 0.00039 -0.00072 0.53189 0.0
O183 O 0.95365 0.03202 0.57911 0.0
O184 O 0.07472 0.0851 0.67459 0.0
O185 O 0.12432 0.04437 0.77646 0.0
H186 H 0.10958 0.3396 0.60215 0.0
H187 H 0.06899 0.79383 0.68579 0.0
O188 O 0.2062 0.81266 0.73833 0.0
H189 H 0.87058 0.93933 0.82963 0.0
H190 H 0.15243 0.74967 0.96545 0.0
H191 H 0.2578 0.00294 0.86972 0.0
H192 H 0.01393 0.97937 0.8307 0.0
H193 H 0.12363 0.78813 0.84543 0.0
O194 O 0.0775 -0.00289 0.54062 0.0
H195 H 0.15641 0.2119 0.65605 0.0
H196 H 0.13677 0.09995 0.46006 0.0
H197 H 0.28779 0.96904 0.99083 0.0
H198 H 0.9287 0.74641 0.68969 0.0
H199 H 0.23328 0.84172 0.03987 0.0
H200 H 0.82673 0.82063 0.75986 0.0
O201 O 0.27573 0.97371 0.75044 0.0
H202 H 0.30046 0.97557 0.38572 0.0
H203 H 0.31792 0.94857 0.63467 0.0
H204 H 0.43667 0.91745 0.56659 0.0
H205 H 0.43249 0.93721 0.44086 0.0
H206 H 0.18198 -0.01261 0.45667 0.0
H207 H 0.11469 0.22711 0.40557 0.0
H208 H 0.09065 0.34739 0.47688 0.0
O209 O 0.25032 0.08085 0.68043 0.0
C210 C 0.0842 0.09587 0.73962 0.0
C211 C 0.12469 0.28798 0.57085 0.0
C212 C 0.12566 0.22469 0.46036 0.0
N213 N 0.1582 0.14582 0.5619 0.0
C214 C 0.14897 0.2144 0.60083 0.0
C215 C 0.14379 0.15126 0.49225 0.0
C216 C 0.11341 0.2928 0.50029 0.0
C217 C 0.02733 0.82446 0.71954 0.0
N218 N 0.05198 0.88811 0.75974 0.0
C219 C 0.94665 0.79831 0.72008 0.0
C220 C 0.88959 0.83993 0.7595 0.0
C221 C 0.91412 0.90651 0.79847 0.0
C222 C -0.00403 0.92917 0.79856 0.0
C223 C 0.17473 0.80671 0.9454 0.0
C224 C 0.22993 0.95122 0.89213 0.0
C225 C 0.15671 0.82994 0.87785 0.0
N226 N 0.1804 0.90389 0.85307 0.0
C227 C 0.24899 0.93051 0.96006 0.0
C228 C 0.21964 0.85838 0.98727 0.0
C229 C 0.2942 0.04449 0.72742 0.0
C230 C 0.30743 0.97543 0.44087 0.0
C231 C 0.3156 0.96352 0.5815 0.0
C232 C 0.38345 0.94329 0.54236 0.0
C233 C 0.38077 0.95402 0.47166 0.0
N234 N 0.24693 -0.0049 0.55194 0.0
C235 C 0.23972 -0.01141 0.48201 0.0
Co236 Co 0.92726 0.29995 0.74322 0.0
Co237 Co 0.04098 0.30375 0.88825 0.0
O238 O 0.94013 0.31241 0.84152 0.0
C239 C 0.77596 0.23964 0.81675 0.0
O240 O 0.81396 0.24094 0.87603 0.0
C241 C -0.00072 0.46366 0.96716 0.0
O242 O 0.03203 0.51039 0.91994 0.0
O243 O 0.0851 0.38933 0.82445 0.0
O244 O 0.04437 0.33973 0.72258 0.0
H245 H 0.3396 0.35447 0.8969 0.0
H246 H 0.79383 0.39506 0.81326 0.0
O247 O 0.81266 0.25786 0.76071 0.0
H248 H 0.93933 0.59347 0.66943 0.0
H249 H 0.74966 0.31162 0.53361 0.0
H250 H 0.00294 0.20626 0.62933 0.0
H251 H 0.97937 0.45013 0.66835 0.0
H252 H 0.78813 0.34042 0.65362 0.0
O253 O -0.00289 0.38655 0.95843 0.0
H254 H 0.2119 0.30764 0.843 0.0
H255 H 0.09995 0.32726 0.03899 0.0
H256 H 0.96904 0.17627 0.50822 0.0
H257 H 0.74641 0.53535 0.80936 0.0
H258 H 0.84172 0.23077 0.45918 0.0
H259 H 0.82062 0.63733 0.7392 0.0
O260 O 0.97371 0.18833 0.7486 0.0
H261 H 0.97557 0.1636 0.11333 0.0
H262 H 0.94858 0.14613 0.86438 0.0
H263 H 0.91747 0.02738 0.93246 0.0
H264 H 0.93722 0.03156 0.05819 0.0
H265 H -0.01261 0.28207 0.04237 0.0
H266 H 0.22711 0.34934 0.09348 0.0
H267 H 0.34739 0.3734 0.02216 0.0
O268 O 0.08086 0.21373 0.81861 0.0
C269 C 0.09587 0.37985 0.75943 0.0
C270 C 0.28798 0.33936 0.9282 0.0
C271 C 0.22469 0.33838 0.03869 0.0
N272 N 0.14582 0.30584 0.93715 0.0
C273 C 0.2144 0.31508 0.89821 0.0
C274 C 0.15126 0.32025 0.00679 0.0
C275 C 0.2928 0.35063 0.99876 0.0
C276 C 0.82445 0.43673 0.77951 0.0
N277 N 0.8881 0.41207 0.73931 0.0
C278 C 0.7983 0.51741 0.77897 0.0
C279 C 0.83993 0.57446 0.73956 0.0
C280 C 0.90651 0.54993 0.70058 0.0
C281 C 0.92917 0.46808 0.70049 0.0
C282 C 0.80671 0.28933 0.55365 0.0
C283 C 0.95122 0.23413 0.60691 0.0
C284 C 0.82994 0.30734 0.6212 0.0
N285 N 0.90389 0.28366 0.64598 0.0
C286 C 0.93051 0.21506 0.53899 0.0
C287 C 0.85837 0.24442 0.51178 0.0
C288 C 0.04449 0.16985 0.77162 0.0
C289 C 0.97543 0.15662 0.05817 0.0
C290 C 0.96353 0.14845 0.91754 0.0
C291 C 0.94329 0.0806 0.95669 0.0
C292 C 0.95403 0.08329 0.02738 0.0
N293 N -0.0049 0.21712 0.9471 0.0
C294 C -0.01142 0.22433 0.01704 0.0
Co295 Co 0.6641 0.42725 0.24322 0.0
Co296 Co 0.6603 0.54097 0.38825 0.0
O297 O 0.65164 0.44012 0.34152 0.0
C298 C 0.72441 0.27595 0.31675 0.0
O299 O 0.72311 0.31395 0.37603 0.0
C300 C 0.50039 0.49928 0.46716 0.0
O301 O 0.45366 0.53203 0.41994 0.0
O302 O 0.57472 0.58509 0.32446 0.0
O303 O 0.62432 0.54437 0.22258 0.0
H304 H 0.60958 0.83959 0.3969 0.0
H305 H 0.56899 0.29383 0.31326 0.0
O306 O 0.7062 0.31266 0.26071 0.0
H307 H 0.37058 0.43933 0.16942 0.0
H308 H 0.65243 0.24967 0.0336 0.0
H309 H 0.75781 0.50294 0.12933 0.0
H310 H 0.51393 0.47937 0.16835 0.0
H311 H 0.62363 0.28813 0.15361 0.0
O312 O 0.5775 0.4971 0.45843 0.0
H313 H 0.65641 0.71189 0.343 0.0
H314 H 0.63677 0.59994 0.53899 0.0
H315 H 0.78779 0.46904 0.00822 0.0
H316 H 0.4287 0.24641 0.30935 0.0
H317 H 0.73329 0.34172 0.95918 0.0
H318 H 0.32673 0.32063 0.23919 0.0
O319 O 0.77573 0.4737 0.24861 0.0
H320 H 0.80046 0.47557 0.61333 0.0
H321 H 0.81792 0.44857 0.36438 0.0
H322 H 0.93668 0.41745 0.43246 0.0
H323 H 0.9325 0.43721 0.55819 0.0
H324 H 0.68198 0.48738 0.54238 0.0
H325 H 0.6147 0.7271 0.59348 0.0
H326 H 0.59065 0.84738 0.52216 0.0
O327 O 0.75032 0.58085 0.31861 0.0
C328 C 0.58421 0.59587 0.25943 0.0
C329 C 0.62469 0.78798 0.4282 0.0
C330 C 0.62566 0.72468 0.53869 0.0
N331 N 0.6582 0.64581 0.43715 0.0
C332 C 0.64897 0.71439 0.39821 0.0
C333 C 0.64379 0.65125 0.50679 0.0
C334 C 0.61341 0.79279 0.49876 0.0
C335 C 0.52732 0.32446 0.27951 0.0
N336 N 0.55198 0.3881 0.23931 0.0
C337 C 0.44665 0.29831 0.27897 0.0
C338 C 0.38959 0.33993 0.23955 0.0
C339 C 0.41412 0.40651 0.20057 0.0
C340 C 0.49597 0.42917 0.20049 0.0
C341 C 0.67473 0.30671 0.05365 0.0
C342 C 0.72993 0.45122 0.10691 0.0
C343 C 0.65671 0.32994 0.1212 0.0
N344 N 0.6804 0.40389 0.14598 0.0
C345 C 0.749 0.43051 0.03899 0.0
C346 C 0.71964 0.35838 0.01178 0.0
C347 C 0.7942 0.54448 0.27162 0.0
C348 C 0.80743 0.47543 0.55817 0.0
C349 C 0.8156 0.46351 0.41754 0.0
C350 C 0.88346 0.44328 0.45669 0.0
C351 C 0.88077 0.45402 0.52738 0.0
N352 N 0.74693 0.49509 0.4471 0.0
C353 C 0.73973 0.48858 0.51704 0.0
Co354 Co 0.53679 0.16409 0.74322 0.0
Co355 Co 0.42307 0.16029 0.88825 0.0
O356 O 0.52393 0.15163 0.84152 0.0
C357 C 0.68809 0.22441 0.81675 0.0
O358 O 0.6501 0.22309 0.87604 0.0
C359 C 0.46477 0.00039 0.96716 0.0
O360 O 0.43203 0.95365 0.91994 0.0
O361 O 0.37895 0.07471 0.82445 0.0
O362 O 0.41969 0.12431 0.72258 0.0
H363 H 0.12446 0.10958 0.8969 0.0
H364 H 0.67023 0.06898 0.81326 0.0
O365 O 0.65139 0.20619 0.76071 0.0
H366 H 0.52473 0.87057 0.66943 0.0
H367 H 0.71439 0.15241 0.53361 0.0
H368 H 0.46111 0.25779 0.62933 0.0
H369 H 0.48469 0.01392 0.66835 0.0
H370 H 0.67592 0.12362 0.65362 0.0
O371 O 0.46694 0.0775 0.95843 0.0
H372 H 0.25215 0.15641 0.843 0.0
H373 H 0.36411 0.13678 0.03899 0.0
H374 H 0.49501 0.28778 0.50821 0.0
H375 H 0.71765 0.92869 0.80936 0.0
H376 H 0.62233 0.23327 0.45918 0.0
H377 H 0.64343 0.82672 0.7392 0.0
O378 O 0.49034 0.27572 0.7486 0.0
H379 H 0.48848 0.30045 0.11333 0.0
H380 H 0.51547 0.31792 0.86437 0.0
H381 H 0.54659 0.43667 0.93245 0.0
H382 H 0.52684 0.43248 0.05819 0.0
H383 H 0.47667 0.18197 0.04237 0.0
H384 H 0.23694 0.1147 0.09348 0.0
H385 H 0.11666 0.09065 0.02217 0.0
O386 O 0.3832 0.25031 0.81861 0.0
C387 C 0.36818 0.0842 0.75943 0.0
C388 C 0.17607 0.12468 0.9282 0.0
C389 C 0.23936 0.12566 0.03869 0.0
N390 N 0.31823 0.1582 0.93715 0.0
C391 C 0.24966 0.14897 0.89821 0.0
C392 C 0.31279 0.14379 0.00679 0.0
C393 C 0.17125 0.11341 0.99876 0.0
C394 C 0.6396 0.02732 0.77951 0.0
N395 N 0.57595 0.05197 0.73931 0.0
C396 C 0.66575 0.94664 0.77897 0.0
C397 C 0.62413 0.88959 0.73956 0.0
C398 C 0.55755 0.91411 0.70058 0.0
C399 C 0.53488 -0.00404 0.7005 0.0
C400 C 0.65734 0.17471 0.55365 0.0
C401 C 0.51283 0.22992 0.60691 0.0
C402 C 0.63411 0.1567 0.6212 0.0
N403 N 0.56016 0.18039 0.64598 0.0
C404 C 0.53354 0.24898 0.53898 0.0
C405 C 0.60568 0.21962 0.51178 0.0
C406 C 0.41956 0.2942 0.77162 0.0
C407 C 0.48862 0.30742 0.05817 0.0
C408 C 0.50053 0.31559 0.91754 0.0
C409 C 0.52076 0.38344 0.95668 0.0
C410 C 0.51003 0.38076 0.02738 0.0
N411 N 0.46895 0.24692 0.9471 0.0
C412 C 0.47547 0.23971 0.01704 0.0
Co413 Co 0.79995 0.03678 0.24322 0.0
Co414 Co 0.80376 0.92307 0.38825 0.0
O415 O 0.81241 0.02392 0.34152 0.0
C416 C 0.73964 0.18808 0.31675 0.0
O417 O 0.74096 0.15009 0.37604 0.0
C418 C 0.96366 0.96476 0.46716 0.0
O419 O 0.0104 0.93202 0.41994 0.0
O420 O 0.88934 0.87894 0.32446 0.0
O421 O 0.83973 0.91968 0.22258 0.0
H422 H 0.85447 0.62445 0.3969 0.0
H423 H 0.89506 0.17021 0.31326 0.0
O424 O 0.75785 0.15138 0.26071 0.0
H425 H 0.09347 0.02471 0.16942 0.0
H426 H 0.81162 0.21437 0.0336 0.0
H427 H 0.70625 0.9611 0.12933 0.0
H428 H 0.95013 -0.01533 0.16835 0.0
H429 H 0.84042 0.17591 0.15361 0.0
O430 O 0.88655 0.96693 0.45843 0.0
H431 H 0.80764 0.75215 0.343 0.0
H432 H 0.82728 0.8641 0.53899 0.0
H433 H 0.67627 -0.005 0.00821 0.0
H434 H 0.03535 0.21763 0.30935 0.0
H435 H 0.73077 0.12232 0.95917 0.0
H436 H 0.13732 0.14341 0.23919 0.0
O437 O 0.68832 -0.00966 0.2486 0.0
H438 H 0.6636 -0.01153 0.61333 0.0
H439 H 0.64613 0.01547 0.36438 0.0
H440 H 0.52738 0.04659 0.43246 0.0
H441 H 0.53156 0.02683 0.55819 0.0
H442 H 0.78208 0.97665 0.54238 0.0
H443 H 0.84936 0.73693 0.59348 0.0
H444 H 0.87341 0.61665 0.52217 0.0
O445 O 0.71374 0.88319 0.31861 0.0
C446 C 0.87985 0.86817 0.25943 0.0
C447 C 0.83937 0.67606 0.4282 0.0
C448 C 0.8384 0.73935 0.53869 0.0
N449 N 0.80585 0.81822 0.43715 0.0
C450 C 0.81508 0.74965 0.39822 0.0
C451 C 0.82027 0.81278 0.5068 0.0
C452 C 0.85064 0.67125 0.49876 0.0
C453 C 0.93673 0.13958 0.27951 0.0
N454 N 0.91207 0.07594 0.23931 0.0
C455 C 0.0174 0.16573 0.27897 0.0
C456 C 0.07446 0.12411 0.23955 0.0
C457 C 0.04993 0.05753 0.20058 0.0
C458 C 0.96808 0.03487 0.20049 0.0
C459 C 0.78933 0.15733 0.05364 0.0
C460 C 0.73413 0.01282 0.10691 0.0
C461 C 0.80734 0.1341 0.1212 0.0
N462 N 0.78365 0.06015 0.14598 0.0
C463 C 0.71506 0.03353 0.03899 0.0
C464 C 0.74442 0.10567 0.01178 0.0
C465 C 0.66985 0.91956 0.27162 0.0
C466 C 0.65663 -0.01139 0.55817 0.0
C467 C 0.64845 0.00052 0.41754 0.0
C468 C 0.5806 0.02076 0.45669 0.0
C469 C 0.58329 0.01002 0.52738 0.0
N470 N 0.71712 0.96895 0.4471 0.0
C471 C 0.72433 0.97546 0.51704 0.0
loop_
_geom_bond_atom_site_label_1
_geom_bond_atom_site_label_2
_geom_bond_distance
_geom_bond_site_symmetry_2
_ccdc_geom_bond_type
Co0 O2 2.143 . S
Co0 O8 2.074 1_455 S
Co0 O11 2.093 . S
Co0 O24 2.097 . S
Co0 N41 2.151 . S
Co0 N49 2.214 . S
Co1 O2 2.160 1_655 S
Co1 O7 2.058 . S
Co1 O17 2.057 . S
Co1 O32 2.037 . S
Co1 N36 2.145 . S
Co1 N57 2.257 . S
O2 Co0 2.143 . S
O2 Co1 2.160 1_455 S
C3 O4 1.278 . S
C3 O11 1.224 . S
O4 C3 1.278 . S
C5 O6 1.245 1_655 S
C5 O17 1.232 . S
O6 C5 1.245 1_455 S
O7 Co1 2.058 . S
O7 C33 1.269 . S
O8 Co0 2.074 1_655 S
O8 C33 1.257 . S
H9 C34 0.930 . S
H10 C40 0.930 . S
O11 Co0 2.093 . S
O11 C3 1.224 . S
H12 C44 0.929 . S
H13 C46 0.930 . S
H14 C47 0.941 . S
H15 C45 0.929 . S
H16 C48 0.928 . S
O17 Co1 2.057 . S
O17 C5 1.232 . S
H18 C37 0.929 . S
H19 C38 0.933 . S
H20 C50 0.931 . S
H21 C42 0.929 . S
H22 C51 0.930 . S
H23 C43 0.931 . S
O24 Co0 2.097 . S
O24 C52 1.214 1_455 S
H25 C53 0.929 . S
H26 C54 0.929 . S
H27 C55 0.930 . S
H28 C56 0.929 . S
H29 C58 0.931 . S
H30 C35 0.930 . S
H31 C39 0.930 1_556 S
O32 Co1 2.037 . S
O32 C52 1.234 . S
C33 O7 1.269 . S
C33 O8 1.257 . S
C34 H9 0.930 . S
C34 C37 1.388 . S
C34 C39 1.418 . S
C35 H30 0.930 . S
C35 C38 1.406 . S
C35 C39 1.353 1_556 S
N36 Co1 2.145 . S
N36 C37 1.397 . S
N36 C38 1.328 1_554 S
C37 H18 0.929 . S
C37 C34 1.388 . S
C37 N36 1.397 . S
C38 H19 0.933 . S
C38 C35 1.406 . S
C38 N36 1.328 1_556 S
C39 H31 0.930 1_554 S
C39 C34 1.418 . S
C39 C35 1.353 1_554 S
C40 H10 0.930 . S
C40 N41 1.330 . S
C40 C42 1.446 . S
N41 Co0 2.151 . S
N41 C40 1.330 . S
N41 C45 1.418 . S
C42 H21 0.929 . S
C42 C40 1.446 . S
C42 C43 1.332 . S
C43 H23 0.931 . S
C43 C42 1.332 . S
C43 C44 1.267 . S
C44 H12 0.929 . S
C44 C43 1.267 . S
C44 C45 1.251 . S
C45 H15 0.929 . S
C45 N41 1.418 . S
C45 C44 1.251 . S
C46 H13 0.930 . S
C46 C48 1.406 . S
C46 C51 1.261 . S
C47 H14 0.941 . S
C47 N49 1.314 1_655 S
C47 C50 1.358 . S
C48 H16 0.928 . S
C48 C46 1.406 . S
C48 N49 1.261 . S
N49 Co0 2.214 . S
N49 C47 1.314 1_455 S
N49 C48 1.261 . S
C50 H20 0.931 . S
C50 C47 1.358 . S
C50 C51 1.312 1_655 S
C51 H22 0.930 . S
C51 C46 1.261 . S
C51 C50 1.312 1_455 S
C52 O24 1.214 1_655 S
C52 O32 1.234 . S
C53 H25 0.929 . S
C53 C56 1.391 . S
C53 C58 1.382 1_556 S
C54 H26 0.929 . S
C54 C55 1.390 1_554 S
C54 N57 1.391 . S
C55 H27 0.930 . S
C55 C54 1.390 1_556 S
C55 C56 1.392 1_655 S
C56 H28 0.929 . S
C56 C53 1.391 . S
C56 C55 1.392 1_455 S
N57 Co1 2.257 . S
N57 C54 1.391 . S
N57 C58 1.397 1_655 S
C58 H29 0.931 . S
C58 C53 1.382 1_554 S
C58 N57 1.397 1_455 S
Co59 O61 2.143 . S
Co59 O67 2.074 . S
Co59 O70 2.093 . S
Co59 O83 2.097 . S
Co59 N100 2.151 . S
Co59 N108 2.214 . S
Co60 O61 2.160 . S
Co60 O66 2.058 . S
Co60 O76 2.057 . S
Co60 O91 2.037 . S
Co60 N95 2.145 . S
Co60 N116 2.257 . S
O61 Co59 2.143 . S
O61 Co60 2.160 . S
C62 O63 1.278 . S
C62 O70 1.224 . S
O63 C62 1.278 . S
C64 O65 1.245 . S
C64 O76 1.232 . S
O65 C64 1.245 . S
O66 Co60 2.058 . S
O66 C92 1.269 . S
O67 Co59 2.074 . S
O67 C92 1.257 . S
H68 C93 0.930 . S
H69 C99 0.930 . S
O70 Co59 2.093 . S
O70 C62 1.224 . S
H71 C103 0.929 . S
H72 C105 0.930 1_554 S
H73 C106 0.930 . S
H74 C104 0.929 . S
H75 C107 0.928 . S
O76 Co60 2.057 . S
O76 C64 1.232 . S
H77 C96 0.929 . S
H78 C97 0.929 . S
H79 C109 0.931 . S
H80 C101 0.929 . S
H81 C110 0.930 . S
H82 C102 0.931 . S
O83 Co59 2.097 . S
O83 C111 1.214 . S
H84 C112 0.929 . S
H85 C113 0.929 . S
H86 C114 0.930 . S
H87 C115 0.929 . S
H88 C117 0.930 . S
H89 C94 0.930 . S
H90 C98 0.930 . S
O91 Co60 2.037 . S
O91 C111 1.234 . S
C92 O66 1.269 . S
C92 O67 1.257 . S
C93 H68 0.930 . S
C93 C96 1.388 . S
C93 C98 1.418 . S
C94 H89 0.930 . S
C94 C97 1.404 . S
C94 C98 1.353 . S
N95 Co60 2.145 . S
N95 C96 1.397 . S
N95 C97 1.334 . S
C96 H77 0.929 . S
C96 C93 1.388 . S
C96 N95 1.397 . S
C97 H78 0.929 . S
C97 C94 1.404 . S
C97 N95 1.334 . S
C98 H90 0.930 . S
C98 C93 1.418 . S
C98 C94 1.353 . S
C99 H69 0.930 . S
C99 N100 1.330 . S
C99 C101 1.446 . S
N100 Co59 2.151 . S
N100 C99 1.330 . S
N100 C104 1.418 . S
C101 H80 0.929 . S
C101 C99 1.446 . S
C101 C102 1.332 . S
C102 H82 0.931 . S
C102 C101 1.332 . S
C102 C103 1.267 . S
C103 H71 0.929 . S
C103 C102 1.267 . S
C103 C104 1.251 . S
C104 H74 0.929 . S
C104 N100 1.418 . S
C104 C103 1.251 . S
C105 H72 0.930 1_556 S
C105 C107 1.406 . S
C105 C110 1.261 1_556 S
C106 H73 0.930 . S
C106 N108 1.325 . S
C106 C109 1.357 . S
C107 H75 0.928 . S
C107 C105 1.406 . S
C107 N108 1.261 . S
N108 Co59 2.214 . S
N108 C106 1.325 . S
N108 C107 1.261 . S
C109 H79 0.931 . S
C109 C106 1.357 . S
C109 C110 1.312 1_556 S
C110 H81 0.930 . S
C110 C105 1.261 1_554 S
C110 C109 1.312 1_554 S
C111 O83 1.214 . S
C111 O91 1.234 . S
C112 H84 0.929 . S
C112 C115 1.391 . S
C112 C117 1.391 . S
C113 H85 0.929 . S
C113 C114 1.390 . S
C113 N116 1.391 . S
C114 H86 0.930 . S
C114 C113 1.390 . S
C114 C115 1.392 . S
C115 H87 0.929 . S
C115 C112 1.391 . S
C115 C114 1.392 . S
N116 Co60 2.257 . S
N116 C113 1.391 . S
N116 C117 1.388 . S
C117 H88 0.930 . S
C117 C112 1.391 . S
C117 N116 1.388 . S
Co118 O120 2.143 . S
Co118 O126 2.074 . S
Co118 O129 2.093 . S
Co118 O142 2.097 . S
Co118 N159 2.151 . S
Co118 N167 2.214 . S
Co119 O120 2.160 . S
Co119 O125 2.058 . S
Co119 O135 2.057 . S
Co119 O150 2.037 . S
Co119 N154 2.145 . S
Co119 N175 2.257 . S
O120 Co118 2.143 . S
O120 Co119 2.160 . S
C121 O122 1.278 . S
C121 O129 1.224 . S
O122 C121 1.278 . S
C123 O124 1.245 . S
C123 O135 1.232 . S
O124 C123 1.245 . S
O125 Co119 2.058 . S
O125 C151 1.269 . S
O126 Co118 2.074 . S
O126 C151 1.257 . S
H127 C152 0.930 . S
H128 C158 0.930 . S
O129 Co118 2.093 . S
O129 C121 1.224 . S
H130 C162 0.929 . S
H131 C164 0.930 . S
H132 C165 0.930 . S
H133 C163 0.929 1_565 S
H134 C166 0.928 . S
O135 Co119 2.057 . S
O135 C123 1.232 . S
H136 C155 0.929 . S
H137 C156 0.933 . S
H138 C168 0.931 . S
H139 C160 0.929 . S
H140 C169 0.930 . S
H141 C161 0.931 . S
O142 Co118 2.097 . S
O142 C170 1.214 . S
H143 C171 0.929 . S
H144 C172 0.929 . S
H145 C173 0.930 . S
H146 C174 0.929 . S
H147 C176 0.931 . S
H148 C153 0.930 . S
H149 C157 0.930 1_556 S
O150 Co119 2.037 . S
O150 C170 1.234 . S
C151 O125 1.269 . S
C151 O126 1.257 . S
C152 H127 0.930 . S
C152 C155 1.388 . S
C152 C157 1.418 . S
C153 H148 0.930 . S
C153 C156 1.406 . S
C153 C157 1.353 1_556 S
N154 Co119 2.145 . S
N154 C155 1.397 . S
N154 C156 1.328 1_554 S
C155 H136 0.929 . S
C155 C152 1.388 . S
C155 N154 1.397 . S
C156 H137 0.933 . S
C156 C153 1.406 . S
C156 N154 1.328 1_556 S
C157 H149 0.930 1_554 S
C157 C152 1.418 . S
C157 C153 1.353 1_554 S
C158 H128 0.930 . S
C158 N159 1.330 . S
C158 C160 1.446 1_565 S
N159 Co118 2.151 . S
N159 C158 1.330 . S
N159 C163 1.418 1_565 S
C160 H139 0.929 . S
C160 C158 1.446 1_545 S
C160 C161 1.332 . S
C161 H141 0.931 . S
C161 C160 1.332 . S
C161 C162 1.267 . S
C162 H130 0.929 . S
C162 C161 1.267 . S
C162 C163 1.251 . S
C163 H133 0.929 1_545 S
C163 N159 1.418 1_545 S
C163 C162 1.251 . S
C164 H131 0.930 . S
C164 C166 1.406 . S
C164 C169 1.261 . S
C165 H132 0.930 . S
C165 N167 1.325 . S
C165 C168 1.357 . S
C166 H134 0.928 . S
C166 C164 1.406 . S
C166 N167 1.261 . S
N167 Co118 2.214 . S
N167 C165 1.325 . S
N167 C166 1.261 . S
C168 H138 0.931 . S
C168 C165 1.357 . S
C168 C169 1.312 . S
C169 H140 0.930 . S
C169 C164 1.261 . S
C169 C168 1.312 . S
C170 O142 1.214 . S
C170 O150 1.234 . S
C171 H143 0.929 . S
C171 C174 1.391 . S
C171 C176 1.382 1_556 S
C172 H144 0.929 . S
C172 C173 1.390 1_554 S
C172 N175 1.391 . S
C173 H145 0.930 . S
C173 C172 1.390 1_556 S
C173 C174 1.392 . S
C174 H146 0.929 . S
C174 C171 1.391 . S
C174 C173 1.392 . S
N175 Co119 2.257 . S
N175 C172 1.391 . S
N175 C176 1.397 . S
C176 H147 0.931 . S
C176 C171 1.382 1_554 S
C176 N175 1.397 . S
Co177 O179 2.143 . S
Co177 O185 2.074 1_565 S
Co177 O188 2.093 . S
Co177 O201 2.097 . S
Co177 N218 2.151 . S
Co177 N226 2.214 . S
Co178 O179 2.160 1_545 S
Co178 O184 2.058 . S
Co178 O194 2.057 . S
Co178 O209 2.037 . S
Co178 N213 2.145 . S
Co178 N234 2.257 . S
O179 Co177 2.143 . S
O179 Co178 2.160 1_565 S
C180 O181 1.278 . S
C180 O188 1.224 . S
O181 C180 1.278 . S
C182 O183 1.245 1_545 S
C182 O194 1.232 . S
O183 C182 1.245 1_565 S
O184 Co178 2.058 . S
O184 C210 1.269 . S
O185 Co177 2.074 1_545 S
O185 C210 1.257 . S
H186 C211 0.930 . S
H187 C217 0.930 . S
O188 Co177 2.093 . S
O188 C180 1.224 . S
H189 C221 0.929 . S
H190 C223 0.930 1_554 S
H191 C224 0.941 . S
H192 C222 0.929 1_455 S
H193 C225 0.928 . S
O194 Co178 2.057 . S
O194 C182 1.232 . S
H195 C214 0.929 . S
H196 C215 0.929 . S
H197 C227 0.931 . S
H198 C219 0.929 . S
H199 C228 0.930 . S
H200 C220 0.931 . S
O201 Co177 2.097 . S
O201 C229 1.214 1_565 S
H202 C230 0.929 . S
H203 C231 0.929 . S
H204 C232 0.930 . S
H205 C233 0.929 . S
H206 C235 0.930 . S
H207 C212 0.930 . S
H208 C216 0.930 . S
O209 Co178 2.037 . S
O209 C229 1.234 . S
C210 O184 1.269 . S
C210 O185 1.257 . S
C211 H186 0.930 . S
C211 C214 1.388 . S
C211 C216 1.418 . S
C212 H207 0.930 . S
C212 C215 1.404 . S
C212 C216 1.353 . S
N213 Co178 2.145 . S
N213 C214 1.397 . S
N213 C215 1.334 . S
C214 H195 0.929 . S
C214 C211 1.388 . S
C214 N213 1.397 . S
C215 H196 0.929 . S
C215 C212 1.404 . S
C215 N213 1.334 . S
C216 H208 0.930 . S
C216 C211 1.418 . S
C216 C212 1.353 . S
C217 H187 0.930 . S
C217 N218 1.330 . S
C217 C219 1.446 1_455 S
N218 Co177 2.151 . S
N218 C217 1.330 . S
N218 C222 1.418 1_455 S
C219 H198 0.929 . S
C219 C217 1.446 1_655 S
C219 C220 1.332 . S
C220 H200 0.931 . S
C220 C219 1.332 . S
C220 C221 1.267 . S
C221 H189 0.929 . S
C221 C220 1.267 . S
C221 C222 1.251 . S
C222 H192 0.929 1_655 S
C222 N218 1.418 1_655 S
C222 C221 1.251 . S
C223 H190 0.930 1_556 S
C223 C225 1.406 . S
C223 C228 1.261 1_556 S
C224 H191 0.941 . S
C224 N226 1.314 1_545 S
C224 C227 1.358 . S
C225 H193 0.928 . S
C225 C223 1.406 . S
C225 N226 1.261 . S
N226 Co177 2.214 . S
N226 C224 1.314 1_565 S
N226 C225 1.261 . S
C227 H197 0.931 . S
C227 C224 1.358 . S
C227 C228 1.312 1_546 S
C228 H199 0.930 . S
C228 C223 1.261 1_554 S
C228 C227 1.312 1_564 S
C229 O201 1.214 1_545 S
C229 O209 1.234 . S
C230 H202 0.929 . S
C230 C233 1.391 . S
C230 C235 1.391 . S
C231 H203 0.929 . S
C231 C232 1.390 . S
C231 N234 1.391 . S
C232 H204 0.930 . S
C232 C231 1.390 . S
C232 C233 1.392 1_545 S
C233 H205 0.929 . S
C233 C230 1.391 . S
C233 C232 1.392 1_565 S
N234 Co178 2.257 . S
N234 C231 1.391 . S
N234 C235 1.388 1_545 S
C235 H206 0.930 . S
C235 C230 1.391 . S
C235 N234 1.388 1_565 S
Co236 O238 2.143 . S
Co236 O244 2.074 1_655 S
Co236 O247 2.093 . S
Co236 O260 2.097 . S
Co236 N277 2.151 . S
Co236 N285 2.214 . S
Co237 O238 2.160 1_455 S
Co237 O243 2.058 . S
Co237 O253 2.057 . S
Co237 O268 2.037 . S
Co237 N272 2.145 . S
Co237 N293 2.257 . S
O238 Co236 2.143 . S
O238 Co237 2.160 1_655 S
C239 O240 1.278 . S
C239 O247 1.224 . S
O240 C239 1.278 . S
C241 O242 1.245 1_455 S
C241 O253 1.232 . S
O242 C241 1.245 1_655 S
O243 Co237 2.058 . S
O243 C269 1.269 . S
O244 Co236 2.074 1_455 S
O244 C269 1.257 . S
H245 C270 0.930 . S
H246 C276 0.930 . S
O247 Co236 2.093 . S
O247 C239 1.224 . S
H248 C280 0.929 . S
H249 C282 0.930 . S
H250 C283 0.941 . S
H251 C281 0.929 . S
H252 C284 0.928 . S
O253 Co237 2.057 . S
O253 C241 1.232 . S
H254 C273 0.929 . S
H255 C274 0.933 . S
H256 C286 0.931 . S
H257 C278 0.929 . S
H258 C287 0.930 . S
H259 C279 0.931 . S
O260 Co236 2.097 . S
O260 C288 1.214 1_655 S
H261 C289 0.929 . S
H262 C290 0.929 . S
H263 C291 0.930 . S
H264 C292 0.929 . S
H265 C294 0.931 . S
H266 C271 0.930 . S
H267 C275 0.930 1_554 S
O268 Co237 2.037 . S
O268 C288 1.234 . S
C269 O243 1.269 . S
C269 O244 1.257 . S
C270 H245 0.930 . S
C270 C273 1.388 . S
C270 C275 1.418 . S
C271 H266 0.930 . S
C271 C274 1.406 . S
C271 C275 1.353 1_554 S
N272 Co237 2.145 . S
N272 C273 1.397 . S
N272 C274 1.328 1_556 S
C273 H254 0.929 . S
C273 C270 1.388 . S
C273 N272 1.397 . S
C274 H255 0.933 . S
C274 C271 1.406 . S
C274 N272 1.328 1_554 S
C275 H267 0.930 1_556 S
C275 C270 1.418 . S
C275 C271 1.353 1_556 S
C276 H246 0.930 . S
C276 N277 1.330 . S
C276 C278 1.446 . S
N277 Co236 2.151 . S
N277 C276 1.330 . S
N277 C281 1.418 . S
C278 H257 0.929 . S
C278 C276 1.446 . S
C278 C279 1.332 . S
C279 H259 0.931 . S
C279 C278 1.332 . S
C279 C280 1.267 . S
C280 H248 0.929 . S
C280 C279 1.267 . S
C280 C281 1.251 . S
C281 H251 0.929 . S
C281 N277 1.418 . S
C281 C280 1.251 . S
C282 H249 0.930 . S
C282 C284 1.406 . S
C282 C287 1.261 . S
C283 H250 0.941 . S
C283 N285 1.314 1_455 S
C283 C286 1.358 . S
C284 H252 0.928 . S
C284 C282 1.406 . S
C284 N285 1.261 . S
N285 Co236 2.214 . S
N285 C283 1.314 1_655 S
N285 C284 1.261 . S
C286 H256 0.931 . S
C286 C283 1.358 . S
C286 C287 1.312 1_455 S
C287 H258 0.930 . S
C287 C282 1.261 . S
C287 C286 1.312 1_655 S
C288 O260 1.214 1_455 S
C288 O268 1.234 . S
C289 H261 0.929 . S
C289 C292 1.391 . S
C289 C294 1.382 1_554 S
C290 H262 0.929 . S
C290 C291 1.390 1_556 S
C290 N293 1.391 . S
C291 H263 0.930 . S
C291 C290 1.390 1_554 S
C291 C292 1.392 1_455 S
C292 H264 0.929 . S
C292 C289 1.391 . S
C292 C291 1.392 1_655 S
N293 Co237 2.257 . S
N293 C290 1.391 . S
N293 C294 1.397 1_455 S
C294 H265 0.931 . S
C294 C289 1.382 1_556 S
C294 N293 1.397 1_655 S
Co295 O297 2.143 . S
Co295 O303 2.074 . S
Co295 O306 2.093 . S
Co295 O319 2.097 . S
Co295 N336 2.151 . S
Co295 N344 2.214 . S
Co296 O297 2.160 . S
Co296 O302 2.058 . S
Co296 O312 2.057 . S
Co296 O327 2.037 . S
Co296 N331 2.145 . S
Co296 N352 2.257 . S
O297 Co295 2.143 . S
O297 Co296 2.160 . S
C298 O299 1.278 . S
C298 O306 1.224 . S
O299 C298 1.278 . S
C300 O301 1.245 . S
C300 O312 1.232 . S
O301 C300 1.245 . S
O302 Co296 2.058 . S
O302 C328 1.269 . S
O303 Co295 2.074 . S
O303 C328 1.257 . S
H304 C329 0.930 . S
H305 C335 0.930 . S
O306 Co295 2.093 . S
O306 C298 1.224 . S
H307 C339 0.929 . S
H308 C341 0.930 1_556 S
H309 C342 0.930 . S
H310 C340 0.929 . S
H311 C343 0.928 . S
O312 Co296 2.057 . S
O312 C300 1.232 . S
H313 C332 0.929 . S
H314 C333 0.929 . S
H315 C345 0.931 . S
H316 C337 0.929 . S
H317 C346 0.930 . S
H318 C338 0.931 . S
O319 Co295 2.097 . S
O319 C347 1.214 . S
H320 C348 0.929 . S
H321 C349 0.929 . S
H322 C350 0.930 . S
H323 C351 0.929 . S
H324 C353 0.930 . S
H325 C330 0.930 . S
H326 C334 0.930 . S
O327 Co296 2.037 . S
O327 C347 1.234 . S
C328 O302 1.269 . S
C328 O303 1.257 . S
C329 H304 0.930 . S
C329 C332 1.388 . S
C329 C334 1.418 . S
C330 H325 0.930 . S
C330 C333 1.404 . S
C330 C334 1.353 . S
N331 Co296 2.145 . S
N331 C332 1.397 . S
N331 C333 1.334 . S
C332 H313 0.929 . S
C332 C329 1.388 . S
C332 N331 1.397 . S
C333 H314 0.929 . S
C333 C330 1.404 . S
C333 N331 1.334 . S
C334 H326 0.930 . S
C334 C329 1.418 . S
C334 C330 1.353 . S
C335 H305 0.930 . S
C335 N336 1.330 . S
C335 C337 1.446 . S
N336 Co295 2.151 . S
N336 C335 1.330 . S
N336 C340 1.418 . S
C337 H316 0.929 . S
C337 C335 1.446 . S
C337 C338 1.332 . S
C338 H318 0.931 . S
C338 C337 1.332 . S
C338 C339 1.267 . S
C339 H307 0.929 . S
C339 C338 1.267 . S
C339 C340 1.251 . S
C340 H310 0.929 . S
C340 N336 1.418 . S
C340 C339 1.251 . S
C341 H308 0.930 1_554 S
C341 C343 1.406 . S
C341 C346 1.261 1_554 S
C342 H309 0.930 . S
C342 N344 1.325 . S
C342 C345 1.357 . S
C343 H311 0.928 . S
C343 C341 1.406 . S
C343 N344 1.261 . S
N344 Co295 2.214 . S
N344 C342 1.325 . S
N344 C343 1.261 . S
C345 H315 0.931 . S
C345 C342 1.357 . S
C345 C346 1.312 1_554 S
C346 H317 0.930 . S
C346 C341 1.261 1_556 S
C346 C345 1.312 1_556 S
C347 O319 1.214 . S
C347 O327 1.234 . S
C348 H320 0.929 . S
C348 C351 1.391 . S
C348 C353 1.391 . S
C349 H321 0.929 . S
C349 C350 1.390 . S
C349 N352 1.391 . S
C350 H322 0.930 . S
C350 C349 1.390 . S
C350 C351 1.392 . S
C351 H323 0.929 . S
C351 C348 1.391 . S
C351 C350 1.392 . S
N352 Co296 2.257 . S
N352 C349 1.391 . S
N352 C353 1.388 . S
C353 H324 0.930 . S
C353 C348 1.391 . S
C353 N352 1.388 . S
Co354 O356 2.143 . S
Co354 O362 2.074 . S
Co354 O365 2.093 . S
Co354 O378 2.097 . S
Co354 N395 2.151 . S
Co354 N403 2.214 . S
Co355 O356 2.160 . S
Co355 O361 2.058 . S
Co355 O371 2.057 . S
Co355 O386 2.037 . S
Co355 N390 2.145 . S
Co355 N411 2.257 . S
O356 Co354 2.143 . S
O356 Co355 2.160 . S
C357 O358 1.278 . S
C357 O365 1.224 . S
O358 C357 1.278 . S
C359 O360 1.245 . S
C359 O371 1.232 . S
O360 C359 1.245 . S
O361 Co355 2.058 . S
O361 C387 1.269 . S
O362 Co354 2.074 . S
O362 C387 1.257 . S
H363 C388 0.930 . S
H364 C394 0.930 . S
O365 Co354 2.093 . S
O365 C357 1.224 . S
H366 C398 0.929 . S
H367 C400 0.930 . S
H368 C401 0.930 . S
H369 C399 0.929 1_545 S
H370 C402 0.928 . S
O371 Co355 2.057 . S
O371 C359 1.232 . S
H372 C391 0.929 . S
H373 C392 0.933 . S
H374 C404 0.931 . S
H375 C396 0.929 . S
H376 C405 0.930 . S
H377 C397 0.931 . S
O378 Co354 2.097 . S
O378 C406 1.214 . S
H379 C407 0.929 . S
H380 C408 0.929 . S
H381 C409 0.930 . S
H382 C410 0.929 . S
H383 C412 0.931 . S
H384 C389 0.930 . S
H385 C393 0.930 1_554 S
O386 Co355 2.037 . S
O386 C406 1.234 . S
C387 O361 1.269 . S
C387 O362 1.257 . S
C388 H363 0.930 . S
C388 C391 1.388 . S
C388 C393 1.418 . S
C389 H384 0.930 . S
C389 C392 1.406 . S
C389 C393 1.353 1_554 S
N390 Co355 2.145 . S
N390 C391 1.397 . S
N390 C392 1.328 1_556 S
C391 H372 0.929 . S
C391 C388 1.388 . S
C391 N390 1.397 . S
C392 H373 0.933 . S
C392 C389 1.406 . S
C392 N390 1.328 1_554 S
C393 H385 0.930 1_556 S
C393 C388 1.418 . S
C393 C389 1.353 1_556 S
C394 H364 0.930 . S
C394 N395 1.330 . S
C394 C396 1.446 1_545 S
N395 Co354 2.151 . S
N395 C394 1.330 . S
N395 C399 1.418 1_545 S
C396 H375 0.929 . S
C396 C394 1.446 1_565 S
C396 C397 1.332 . S
C397 H377 0.931 . S
C397 C396 1.332 . S
C397 C398 1.267 . S
C398 H366 0.929 . S
C398 C397 1.267 . S
C398 C399 1.251 . S
C399 H369 0.929 1_565 S
C399 N395 1.418 1_565 S
C399 C398 1.251 . S
C400 H367 0.930 . S
C400 C402 1.406 . S
C400 C405 1.261 . S
C401 H368 0.930 . S
C401 N403 1.325 . S
C401 C404 1.357 . S
C402 H370 0.928 . S
C402 C400 1.406 . S
C402 N403 1.261 . S
N403 Co354 2.214 . S
N403 C401 1.325 . S
N403 C402 1.261 . S
C404 H374 0.931 . S
C404 C401 1.357 . S
C404 C405 1.312 . S
C405 H376 0.930 . S
C405 C400 1.261 . S
C405 C404 1.312 . S
C406 O378 1.214 . S
C406 O386 1.234 . S
C407 H379 0.929 . S
C407 C410 1.391 . S
C407 C412 1.382 1_554 S
C408 H380 0.929 . S
C408 C409 1.390 1_556 S
C408 N411 1.391 . S
C409 H381 0.930 . S
C409 C408 1.390 1_554 S
C409 C410 1.392 . S
C410 H382 0.929 . S
C410 C407 1.391 . S
C410 C409 1.392 . S
N411 Co355 2.257 . S
N411 C408 1.391 . S
N411 C412 1.397 . S
C412 H383 0.931 . S
C412 C407 1.382 1_556 S
C412 N411 1.397 . S
Co413 O415 2.143 . S
Co413 O421 2.074 1_545 S
Co413 O424 2.093 . S
Co413 O437 2.097 . S
Co413 N454 2.151 . S
Co413 N462 2.214 . S
Co414 O415 2.160 1_565 S
Co414 O420 2.058 . S
Co414 O430 2.057 . S
Co414 O445 2.037 . S
Co414 N449 2.145 . S
Co414 N470 2.257 . S
O415 Co413 2.143 . S
O415 Co414 2.160 1_545 S
C416 O417 1.278 . S
C416 O424 1.224 . S
O417 C416 1.278 . S
C418 O419 1.245 1_565 S
C418 O430 1.232 . S
O419 C418 1.245 1_545 S
O420 Co414 2.058 . S
O420 C446 1.269 . S
O421 Co413 2.074 1_565 S
O421 C446 1.257 . S
H422 C447 0.930 . S
H423 C453 0.930 . S
O424 Co413 2.093 . S
O424 C416 1.224 . S
H425 C457 0.929 . S
H426 C459 0.930 1_556 S
H427 C460 0.941 . S
H428 C458 0.929 1_655 S
H429 C461 0.928 . S
O430 Co414 2.057 . S
O430 C418 1.232 . S
H431 C450 0.929 . S
H432 C451 0.929 . S
H433 C463 0.931 . S
H434 C455 0.929 . S
H435 C464 0.930 . S
H436 C456 0.931 . S
O437 Co413 2.097 . S
O437 C465 1.214 1_545 S
H438 C466 0.929 . S
H439 C467 0.929 . S
H440 C468 0.930 . S
H441 C469 0.929 . S
H442 C471 0.930 . S
H443 C448 0.930 . S
H444 C452 0.930 . S
O445 Co414 2.037 . S
O445 C465 1.234 . S
C446 O420 1.269 . S
C446 O421 1.257 . S
C447 H422 0.930 . S
C447 C450 1.388 . S
C447 C452 1.418 . S
C448 H443 0.930 . S
C448 C451 1.404 . S
C448 C452 1.353 . S
N449 Co414 2.145 . S
N449 C450 1.397 . S
N449 C451 1.334 . S
C450 H431 0.929 . S
C450 C447 1.388 . S
C450 N449 1.397 . S
C451 H432 0.929 . S
C451 C448 1.404 . S
C451 N449 1.334 . S
C452 H444 0.930 . S
C452 C447 1.418 . S
C452 C448 1.353 . S
C453 H423 0.930 . S
C453 N454 1.330 . S
C453 C455 1.446 1_655 S
N454 Co413 2.151 . S
N454 C453 1.330 . S
N454 C458 1.418 1_655 S
C455 H434 0.929 . S
C455 C453 1.446 1_455 S
C455 C456 1.332 . S
C456 H436 0.931 . S
C456 C455 1.332 . S
C456 C457 1.267 . S
C457 H425 0.929 . S
C457 C456 1.267 . S
C457 C458 1.251 . S
C458 H428 0.929 1_455 S
C458 N454 1.418 1_455 S
C458 C457 1.251 . S
C459 H426 0.930 1_554 S
C459 C461 1.406 . S
C459 C464 1.261 1_554 S
C460 H427 0.941 . S
C460 N462 1.314 1_565 S
C460 C463 1.358 . S
C461 H429 0.928 . S
C461 C459 1.406 . S
C461 N462 1.261 . S
N462 Co413 2.214 . S
N462 C460 1.314 1_545 S
N462 C461 1.261 . S
C463 H433 0.931 . S
C463 C460 1.358 . S
C463 C464 1.312 1_564 S
C464 H435 0.930 . S
C464 C459 1.261 1_556 S
C464 C463 1.312 1_546 S
C465 O437 1.214 1_565 S
C465 O445 1.234 . S
C466 H438 0.929 . S
C466 C469 1.391 . S
C466 C471 1.391 . S
C467 H439 0.929 . S
C467 C468 1.390 . S
C467 N470 1.391 . S
C468 H440 0.930 . S
C468 C467 1.390 . S
C468 C469 1.392 1_565 S
C469 H441 0.929 . S
C469 C466 1.391 . S
C469 C468 1.392 1_545 S
N470 Co414 2.257 . S
N470 C467 1.391 . S
N470 C471 1.388 1_565 S
C471 H442 0.930 . S
C471 C466 1.391 . S
C471 N470 1.388 1_545 S
C241 C5 1.542 1_456 S
C64 C300 1.542 . S
C123 C359 1.542 1_564 S
C418 C182 1.542 1_665 S
C3 C121 1.389 . S
C62 C180 1.389 . S
C357 C239 1.389 . S
C298 C416 1.389 . S
C347 C33 1.342 . S
C92 C406 1.341 . S
C151 C465 1.342 . S
C288 C210 1.341 . S
C269 C111 1.342 . S
C328 C170 1.341 . S
C387 C229 1.342 . S
C52 C446 1.341 . S
