# Generated by pormake.
# Topology why, (6)-cn, num edge types: 1
# Building blocks:
#     Node 0, Type 0, BuildingBlock: CUKXOW_clean_sbu_0, # of connection points: 6
#     Node 1, Type 0, BuildingBlock: CUKXOW_clean_sbu_0, # of connection points: 6
#     Node 2, Type 0, BuildingBlock: CUKXOW_clean_sbu_0, # of connection points: 6
#     Node 3, Type 0, BuildingBlock: CUKXOW_clean_sbu_0, # of connection points: 6
#     Node 4, Type 0, BuildingBlock: CUKXOW_clean_sbu_0, # of connection points: 6
#     Node 5, Type 0, BuildingBlock: CUKXOW_clean_sbu_0, # of connection points: 6
#     Node 6, Type 0, BuildingBlock: CUKXOW_clean_sbu_0, # of connection points: 6
#     Node 7, Type 0, BuildingBlock: CUKXOW_clean_sbu_0, # of connection points: 6
#     Node 8, Type 0, BuildingBlock: CUKXOW_clean_sbu_0, # of connection points: 6
#     Node 9, Type 0, BuildingBlock: CUKXOW_clean_sbu_0, # of connection points: 6
#     Node 10, Type 0, BuildingBlock: CUKXOW_clean_sbu_0, # of connection points: 6
#     Node 11, Type 0, BuildingBlock: CUKXOW_clean_sbu_0, # of connection points: 6
#     Node 12, Type 0, BuildingBlock: CUKXOW_clean_sbu_0, # of connection points: 6
#     Node 13, Type 0, BuildingBlock: CUKXOW_clean_sbu_0, # of connection points: 6
#     Node 14, Type 0, BuildingBlock: CUKXOW_clean_sbu_0, # of connection points: 6
#     Node 15, Type 0, BuildingBlock: CUKXOW_clean_sbu_0, # of connection points: 6
#     Edge 16, Type (0, 0), BuildingBlock: OJICUG_clean_linker_0, # of connection points: 2
#     Edge 17, Type (0, 0), BuildingBlock: OJICUG_clean_linker_0, # of connection points: 2
#     Edge 18, Type (0, 0), BuildingBlock: OJICUG_clean_linker_0, # of connection points: 2
#     Edge 19, Type (0, 0), BuildingBlock: OJICUG_clean_linker_0, # of connection points: 2
#     Edge 20, Type (0, 0), BuildingBlock: OJICUG_clean_linker_0, # of connection points: 2
#     Edge 21, Type (0, 0), BuildingBlock: OJICUG_clean_linker_0, # of connection points: 2
#     Edge 22, Type (0, 0), BuildingBlock: OJICUG_clean_linker_0, # of connection points: 2
#     Edge 23, Type (0, 0), BuildingBlock: OJICUG_clean_linker_0, # of connection points: 2
#     Edge 24, Type (0, 0), BuildingBlock: OJICUG_clean_linker_0, # of connection points: 2
#     Edge 25, Type (0, 0), BuildingBlock: OJICUG_clean_linker_0, # of connection points: 2
#     Edge 26, Type (0, 0), BuildingBlock: OJICUG_clean_linker_0, # of connection points: 2
#     Edge 27, Type (0, 0), BuildingBlock: OJICUG_clean_linker_0, # of connection points: 2
#     Edge 28, Type (0, 0), BuildingBlock: OJICUG_clean_linker_0, # of connection points: 2
#     Edge 29, Type (0, 0), BuildingBlock: OJICUG_clean_linker_0, # of connection points: 2
#     Edge 30, Type (0, 0), BuildingBlock: OJICUG_clean_linker_0, # of connection points: 2
#     Edge 31, Type (0, 0), BuildingBlock: OJICUG_clean_linker_0, # of connection points: 2
#     Edge 32, Type (0, 0), BuildingBlock: OJICUG_clean_linker_0, # of connection points: 2
#     Edge 33, Type (0, 0), BuildingBlock: OJICUG_clean_linker_0, # of connection points: 2
#     Edge 34, Type (0, 0), BuildingBlock: OJICUG_clean_linker_0, # of connection points: 2
#     Edge 35, Type (0, 0), BuildingBlock: OJICUG_clean_linker_0, # of connection points: 2
#     Edge 36, Type (0, 0), BuildingBlock: OJICUG_clean_linker_0, # of connection points: 2
#     Edge 37, Type (0, 0), BuildingBlock: OJICUG_clean_linker_0, # of connection points: 2
#     Edge 38, Type (0, 0), BuildingBlock: OJICUG_clean_linker_0, # of connection points: 2
#     Edge 39, Type (0, 0), BuildingBlock: OJICUG_clean_linker_0, # of connection points: 2
#     Edge 40, Type (0, 0), BuildingBlock: OJICUG_clean_linker_0, # of connection points: 2
#     Edge 41, Type (0, 0), BuildingBlock: OJICUG_clean_linker_0, # of connection points: 2
#     Edge 42, Type (0, 0), BuildingBlock: OJICUG_clean_linker_0, # of connection points: 2
#     Edge 43, Type (0, 0), BuildingBlock: OJICUG_clean_linker_0, # of connection points: 2
#     Edge 44, Type (0, 0), BuildingBlock: OJICUG_clean_linker_0, # of connection points: 2
#     Edge 45, Type (0, 0), BuildingBlock: OJICUG_clean_linker_0, # of connection points: 2
#     Edge 46, Type (0, 0), BuildingBlock: OJICUG_clean_linker_0, # of connection points: 2
#     Edge 47, Type (0, 0), BuildingBlock: OJICUG_clean_linker_0, # of connection points: 2
#     Edge 48, Type (0, 0), BuildingBlock: OJICUG_clean_linker_0, # of connection points: 2
#     Edge 49, Type (0, 0), BuildingBlock: OJICUG_clean_linker_0, # of connection points: 2
#     Edge 50, Type (0, 0), BuildingBlock: OJICUG_clean_linker_0, # of connection points: 2
#     Edge 51, Type (0, 0), BuildingBlock: OJICUG_clean_linker_0, # of connection points: 2
#     Edge 52, Type (0, 0), BuildingBlock: OJICUG_clean_linker_0, # of connection points: 2
#     Edge 53, Type (0, 0), BuildingBlock: OJICUG_clean_linker_0, # of connection points: 2
#     Edge 54, Type (0, 0), BuildingBlock: OJICUG_clean_linker_0, # of connection points: 2
#     Edge 55, Type (0, 0), BuildingBlock: OJICUG_clean_linker_0, # of connection points: 2
#     Edge 56, Type (0, 0), BuildingBlock: OJICUG_clean_linker_0, # of connection points: 2
#     Edge 57, Type (0, 0), BuildingBlock: OJICUG_clean_linker_0, # of connection points: 2
#     Edge 58, Type (0, 0), BuildingBlock: OJICUG_clean_linker_0, # of connection points: 2
#     Edge 59, Type (0, 0), BuildingBlock: OJICUG_clean_linker_0, # of connection points: 2
#     Edge 60, Type (0, 0), BuildingBlock: OJICUG_clean_linker_0, # of connection points: 2
#     Edge 61, Type (0, 0), BuildingBlock: OJICUG_clean_linker_0, # of connection points: 2
#     Edge 62, Type (0, 0), BuildingBlock: OJICUG_clean_linker_0, # of connection points: 2
#     Edge 63, Type (0, 0), BuildingBlock: OJICUG_clean_linker_0, # of connection points: 2
# Relax obj value: 0.226
# Max RMSD: 0.195
# Mean RMSD: 0.195
data_MOF--net-why--node1-CUKXOW_clean_sbu_0--edge1-OJICUG_clean_linker_0
_symmetry_space_group_name_H-M    P1
_symmetry_Int_Tables_number       1
_symmetry_cell_setting            triclinic
loop_
_symmetry_equiv_pos_as_xyz
'x, y, z'
_cell_length_a     38.595174
_cell_length_b     38.618304
_cell_length_c     16.208969
_cell_angle_alpha  90.120083
_cell_angle_beta   90.117032
_cell_angle_gamma 90.059594
loop_
_atom_site_label
_atom_site_type_symbol
_atom_site_fract_x
_atom_site_fract_y
_atom_site_fract_z
_atom_type_partial_charge
Tb0 Tb 0.38119 0.21256 0.1838 0.0
C1 C 0.36031 0.13397 0.20242 0.0
Tb2 Tb 0.32114 0.1824 0.0715 0.0
O3 O 0.34828 0.238 0.27687 0.0
O4 O 0.32657 0.21341 0.17855 0.0
O5 O 0.38239 0.15909 0.22083 0.0
C6 C 0.25704 0.16198 1.0355 0.0
O7 O 0.3328 0.13831 0.1534 0.0
C8 C 0.38255 0.16057 1.02029 0.0
C9 C 0.36274 0.24966 1.01635 0.0
O10 O 0.26892 0.16779 0.10917 0.0
O11 O 0.2809 0.16898 0.98139 0.0
O12 O 0.35326 0.15096 0.98724 0.0
O13 O 0.37511 0.18158 0.07758 0.0
O14 O 0.33193 0.23349 1.01409 0.0
O15 O 0.38732 0.242 0.07077 0.0
C16 C 0.437 0.23205 0.26355 0.0
O17 O 0.41716 0.25255 0.22121 0.0
O18 O 0.4267 0.20017 0.25658 0.0
C19 C 0.31905 0.23068 0.24228 0.0
Tb20 Tb 0.54562 0.63098 0.44213 0.0
C21 C 0.62283 0.6082 0.46144 0.0
Tb22 Tb 0.57485 0.57263 0.32454 0.0
O23 O 0.52252 0.59747 0.53671 0.0
O24 O 0.547 0.57609 0.43747 0.0
O25 O 0.59943 0.63232 0.4768 0.0
C26 C 0.59605 0.51039 0.27389 0.0
O27 O 0.61668 0.58022 0.41534 0.0
C28 C 0.59279 0.6347 0.27096 0.0
C29 C 0.50713 0.61407 0.27207 0.0
O30 O 0.61433 0.53847 0.27262 0.0
O31 O 0.56522 0.51746 0.30149 0.0
O32 O 0.60076 0.606 0.23334 0.0
O33 O 0.57432 0.62661 0.33232 0.0
O34 O 0.52507 0.58461 0.26276 0.0
O35 O 0.51349 0.63691 0.33184 0.0
C36 C 0.52535 0.68652 0.52236 0.0
O37 O 0.50487 0.66491 0.48494 0.0
O38 O 0.55752 0.67793 0.51071 0.0
C39 C 0.53049 0.5684 0.50242 0.0
Tb40 Tb 0.12512 0.79625 0.6955 0.0
C41 C 0.14876 0.87402 0.71214 0.0
Tb42 Tb 0.18474 0.8242 0.57881 0.0
O43 O 0.15835 0.77093 0.78801 0.0
O44 O 0.17963 0.79418 0.68749 0.0
O45 O 0.12672 0.84957 0.7351 0.0
C46 C 0.24869 0.84451 0.54095 0.0
O47 O 0.17442 0.86918 0.65841 0.0
C48 C 0.12307 0.84654 0.52962 0.0
C49 C 0.14202 0.75732 0.52836 0.0
O50 O 0.23732 0.83859 0.61487 0.0
O51 O 0.22443 0.8375 0.48752 0.0
O52 O 0.15214 0.85503 0.4942 0.0
O53 O 0.13079 0.82621 0.58792 0.0
O54 O 0.17306 0.77286 0.52431 0.0
O55 O 0.11794 0.76606 0.58311 0.0
C56 C 0.06941 0.77659 0.7752 0.0
O57 O 0.09049 0.75594 0.73698 0.0
O58 O 0.07847 0.80867 0.76419 0.0
C59 C 0.18734 0.77721 0.75155 0.0
Tb60 Tb 0.96147 0.3757 0.94175 0.0
C61 C 0.88412 0.40034 0.95918 0.0
Tb62 Tb 0.93432 0.43524 0.82511 0.0
O63 O 0.98808 0.40841 1.03346 0.0
O64 O 0.96464 0.43017 0.93355 0.0
O65 O 0.90838 0.37821 0.98267 0.0
C66 C 0.91488 0.49931 0.78693 0.0
O67 O 0.8892 0.42562 0.90459 0.0
C68 C 0.91049 0.37419 0.77565 0.0
C69 C 1.00059 0.39175 0.77468 0.0
O70 O 0.91962 0.48762 0.86105 0.0
O71 O 0.92251 0.47527 0.73357 0.0
O72 O 0.90284 0.40343 0.74011 0.0
O73 O 0.93102 0.38131 0.83436 0.0
O74 O 0.98539 0.4229 0.7703 0.0
O75 O 0.99147 0.36795 0.82969 0.0
C76 C 0.9806 0.3198 1.02137 0.0
O77 O 1.0014 0.34055 0.98275 0.0
O78 O 0.9486 0.32929 1.01089 0.0
C79 C 0.98226 0.4375 0.99709 0.0
Tb80 Tb 0.6835 0.82536 1.05923 0.0
C81 C 0.64112 0.7581 0.11061 0.0
Tb82 Tb 0.6251 0.79654 0.94069 0.0
O83 O 0.65017 0.8513 0.15074 0.0
O84 O 0.6295 0.82495 1.05128 0.0
O85 O 0.67075 0.77578 0.1206 0.0
C86 C 0.56992 0.77601 0.85914 0.0
O87 O 0.61856 0.76453 1.0504 0.0
C88 C 0.68769 0.78135 0.88049 0.0
C89 C 0.64767 0.87386 0.9248 0.0
O90 O 0.59121 0.7557 0.89778 0.0
O91 O 0.57858 0.80821 0.87039 0.0
O92 O 0.65862 0.77357 0.84583 0.0
O93 O 0.68002 0.79776 0.94571 0.0
O94 O 0.62355 0.85046 0.90875 0.0
O95 O 0.67586 0.86751 0.96992 0.0
C96 C 0.7463 0.84582 0.10863 0.0
O97 O 0.71867 0.86475 0.10843 0.0
O98 O 0.73841 0.81477 0.08352 0.0
C99 C 0.62143 0.84341 0.11282 0.0
Tb100 Tb 0.43368 0.43495 0.80953 0.0
C101 C 0.50061 0.39245 0.85967 0.0
Tb102 Tb 0.46118 0.37517 0.69303 0.0
O103 O 0.40269 0.40268 0.89434 0.0
O104 O 0.43198 0.38112 0.8016 0.0
O105 O 0.48513 0.42348 0.86367 0.0
C106 C 0.48118 0.31905 0.61516 0.0
O107 O 0.49165 0.36827 0.80512 0.0
C108 C 0.4807 0.43719 0.6365 0.0
C109 C 0.38286 0.39788 0.67943 0.0
O110 O 0.50161 0.34022 0.65406 0.0
O111 O 0.44905 0.32836 0.62403 0.0
O112 O 0.48676 0.40805 0.60031 0.0
O113 O 0.46337 0.42978 0.70023 0.0
O114 O 0.4074 0.37599 0.65597 0.0
O115 O 0.38804 0.42404 0.73192 0.0
C116 C 0.4141 0.49889 0.84765 0.0
O117 O 0.4186 0.48711 0.77345 0.0
O118 O 0.422 0.47503 0.90107 0.0
C119 C 0.41132 0.37354 0.85929 0.0
Tb120 Tb 0.82249 0.18151 0.55616 0.0
C121 C 0.86041 0.25135 0.61522 0.0
Tb122 Tb 0.88013 0.21239 0.4504 0.0
O123 O 0.85575 0.14063 0.60478 0.0
O124 O 0.87722 0.18785 0.56867 0.0
O125 O 0.83185 0.23164 0.62176 0.0
C126 C 0.93667 0.23092 0.37257 0.0
O127 O 0.8843 0.24591 0.55786 0.0
C128 C 0.81919 0.22896 0.38421 0.0
C129 C 0.85931 0.13497 0.42078 0.0
O130 O 0.91473 0.25222 0.40572 0.0
O131 O 0.9279 0.19913 0.38773 0.0
O132 O 0.84879 0.2375 0.35386 0.0
O133 O 0.82557 0.21132 0.44797 0.0
O134 O 0.88284 0.15934 0.41075 0.0
O135 O 0.83076 0.13996 0.46506 0.0
C136 C 0.75889 0.16219 0.60075 0.0
O137 O 0.76794 0.17302 0.52836 0.0
O138 O 0.78551 0.16367 0.65018 0.0
C139 C 0.88452 0.15736 0.59228 0.0
Tb140 Tb 0.07546 0.57127 0.31343 0.0
C141 C 0.0079 0.61338 0.36597 0.0
Tb142 Tb 0.04683 0.63054 0.19737 0.0
O143 O 0.10182 0.60409 0.40573 0.0
O144 O 0.07541 0.62523 0.30734 0.0
O145 O 0.02564 0.58372 0.37481 0.0
C146 C 0.02929 0.68672 0.1168 0.0
O147 O 0.01449 0.63638 0.30695 0.0
C148 C 0.03135 0.56836 0.13494 0.0
C149 C 0.12355 0.60655 0.17688 0.0
O150 O 0.00761 0.66541 0.15092 0.0
O151 O 0.06098 0.6775 0.1323 0.0
O152 O 0.02336 0.59758 0.10162 0.0
O153 O 0.04784 0.57571 0.20031 0.0
O154 O 0.10044 0.63097 0.16219 0.0
O155 O 0.11729 0.57869 0.22292 0.0
C156 C 0.09654 0.5085 0.36042 0.0
O157 O 0.11503 0.53644 0.36233 0.0
O158 O 0.06549 0.51604 0.33479 0.0
C159 C 0.09409 0.63299 0.3688 0.0
Tb160 Tb 0.881 0.71053 0.69395 0.0
C161 C 0.85786 0.63258 0.70962 0.0
Tb162 Tb 0.82187 0.68237 0.57622 0.0
O163 O 0.84786 0.73698 0.78455 0.0
O164 O 0.82639 0.71288 0.68484 0.0
O165 O 0.87941 0.65729 0.73397 0.0
C166 C 0.75772 0.66223 0.5384 0.0
O167 O 0.83247 0.63722 0.65482 0.0
C168 C 0.88357 0.66037 0.5271 0.0
C169 C 0.86499 0.74886 0.52605 0.0
O170 O 0.76944 0.66772 0.61235 0.0
O171 O 0.78179 0.66943 0.4849 0.0
O172 O 0.85454 0.65186 0.49113 0.0
O173 O 0.87581 0.68035 0.58622 0.0
O174 O 0.83383 0.73353 0.52157 0.0
O175 O 0.88885 0.74014 0.58143 0.0
C176 C 0.93654 0.7304 0.77481 0.0
O177 O 0.91588 0.75086 0.73478 0.0
O178 O 0.92718 0.69832 0.76507 0.0
C179 C 0.81884 0.7307 0.74791 0.0
Tb180 Tb 0.04514 0.13066 0.9436 0.0
C181 C 0.12267 0.10646 0.96057 0.0
Tb182 Tb 0.07228 0.0712 0.82673 0.0
O183 O 0.01867 0.09787 1.03495 0.0
O184 O 0.04206 0.07621 0.93495 0.0
O185 O 0.09836 0.1285 0.98428 0.0
C186 C 0.09185 0.00719 0.78892 0.0
O187 O 0.11753 0.08107 0.90605 0.0
C188 C 0.09585 0.13217 0.7772 0.0
C189 C 0.00589 0.11434 0.77632 0.0
O190 O 0.08734 0.01907 0.86301 0.0
O191 O 0.08394 0.031 0.73538 0.0
O192 O 0.10344 0.10288 0.7416 0.0
O193 O 0.07551 0.12518 0.83615 0.0
O194 O 0.02113 0.08322 0.77192 0.0
O195 O 0.01503 0.13823 0.83141 0.0
C196 C 0.02571 0.18657 1.02325 0.0
O197 O 0.00506 0.1658 0.98382 0.0
O198 O 0.05774 0.17707 1.01364 0.0
C199 C 0.02448 0.0688 0.99822 0.0
Tb200 Tb 0.62648 0.2944 0.18587 0.0
C201 C 0.64705 0.37317 0.20296 0.0
Tb202 Tb 0.68631 0.32419 0.07309 0.0
O203 O 0.65948 0.26932 0.27918 0.0
O204 O 0.68107 0.29369 0.18066 0.0
O205 O 0.62524 0.34799 0.22215 0.0
C206 C 0.75022 0.34479 1.03645 0.0
O207 O 0.67442 0.36877 0.15373 0.0
C208 C 0.62478 0.34524 1.02092 0.0
C209 C 0.64492 0.25651 1.01905 0.0
O210 O 0.73858 0.3392 0.11028 0.0
O211 O 0.72626 0.33741 0.98261 0.0
O212 O 0.65397 0.35487 0.98778 0.0
O213 O 0.63237 0.32475 0.07897 0.0
O214 O 0.67564 0.27284 1.01628 0.0
O215 O 0.62048 0.26434 0.07356 0.0
C216 C 0.57066 0.27517 0.26527 0.0
O217 O 0.59057 0.25451 0.22352 0.0
O218 O 0.58092 0.30703 0.25793 0.0
C219 C 0.68862 0.27654 0.24442 0.0
Tb220 Tb 0.45932 0.87542 0.44249 0.0
C221 C 0.38267 0.89947 0.46299 0.0
Tb222 Tb 0.43059 0.93407 0.32498 0.0
O223 O 0.48319 0.90891 0.53664 0.0
O224 O 0.45875 0.93027 0.43737 0.0
O225 O 0.4058 0.87512 0.47837 0.0
C226 C 0.40997 0.99647 0.27461 0.0
O227 O 0.38893 0.92714 0.4162 0.0
C228 C 0.41166 0.87227 0.27138 0.0
C229 C 0.49753 0.89138 0.27244 0.0
O230 O 0.3913 0.96865 0.27389 0.0
O231 O 0.44085 0.98906 0.30153 0.0
O232 O 0.40412 0.90102 0.23364 0.0
O233 O 0.43031 0.88012 0.33287 0.0
O234 O 0.48009 0.92115 0.26323 0.0
O235 O 0.49092 0.86872 0.33209 0.0
C236 C 0.47896 0.81977 0.52274 0.0
O237 O 0.49971 0.8413 0.48634 0.0
O238 O 0.44689 0.8285 0.51005 0.0
C239 C 0.47558 0.93796 0.50198 0.0
Tb240 Tb 0.18424 0.3239 0.55758 0.0
C241 C 0.14628 0.25414 0.61532 0.0
Tb242 Tb 0.12717 0.293 0.45013 0.0
O243 O 0.15092 0.36476 0.60603 0.0
O244 O 0.12947 0.31755 0.56886 0.0
O245 O 0.17479 0.27387 0.62275 0.0
C246 C 0.07088 0.27404 0.37103 0.0
O247 O 0.12265 0.25946 0.55715 0.0
C248 C 0.18828 0.27666 0.38461 0.0
C249 C 0.1474 0.37062 0.42271 0.0
O250 O 0.09278 0.25293 0.40497 0.0
O251 O 0.07957 0.30591 0.38595 0.0
O252 O 0.15872 0.26811 0.35373 0.0
O253 O 0.18182 0.29416 0.44872 0.0
O254 O 0.1241 0.3461 0.41143 0.0
O255 O 0.17591 0.36569 0.46744 0.0
C256 C 0.24776 0.34297 0.60412 0.0
O257 O 0.23878 0.3327 0.53104 0.0
O258 O 0.22109 0.34117 0.65305 0.0
C259 C 0.12216 0.34805 0.59273 0.0
Tb260 Tb 0.93117 0.93416 0.30996 0.0
C261 C 0.99929 0.89405 0.36879 0.0
Tb262 Tb 0.96288 0.87521 0.19832 0.0
O263 O 0.90472 0.90164 0.40181 0.0
O264 O 0.93303 0.88015 0.30665 0.0
O265 O 0.98058 0.92322 0.37569 0.0
C266 C 0.98458 0.82009 0.11919 0.0
O267 O 0.99416 0.87068 0.30971 0.0
C268 C 0.97664 0.93751 0.13435 0.0
C269 C 0.88493 0.89427 0.17687 0.0
O270 O 0.00419 0.84061 0.16239 0.0
O271 O 0.95234 0.82938 0.1247 0.0
O272 O 0.9858 0.90835 0.10244 0.0
O273 O 0.95993 0.92999 0.19894 0.0
O274 O 0.90907 0.87038 0.16739 0.0
O275 O 0.89063 0.9241 0.21649 0.0
C276 C 0.90895 0.99698 0.35388 0.0
O277 O 0.89036 0.96908 0.35263 0.0
O278 O 0.94056 0.98939 0.33284 0.0
C279 C 0.91379 0.87259 0.36713 0.0
Tb280 Tb 0.32126 0.68178 1.05881 0.0
C281 C 0.36372 0.74874 0.10974 0.0
Tb282 Tb 0.38103 0.71001 0.94248 0.0
O283 O 0.35406 0.65107 0.1434 0.0
O284 O 0.37517 0.68047 1.05047 0.0
O285 O 0.33271 0.73311 0.11355 0.0
C286 C 0.43696 0.72941 0.86323 0.0
O287 O 0.38785 0.74025 1.0549 0.0
C288 C 0.3188 0.72878 0.88597 0.0
C289 C 0.3576 0.63212 0.92589 0.0
O290 O 0.41574 0.75021 0.90056 0.0
O291 O 0.42791 0.69738 0.87484 0.0
O292 O 0.34783 0.7353 0.84987 0.0
O293 O 0.32647 0.71171 0.94993 0.0
O294 O 0.37959 0.65664 0.9031 0.0
O295 O 0.33184 0.63685 0.9794 0.0
C296 C 0.25739 0.66143 0.09729 0.0
O297 O 0.2686 0.66743 1.02325 0.0
O298 O 0.28176 0.66839 0.15046 0.0
C299 C 0.38307 0.6601 0.10849 0.0
Tb300 Tb 0.57542 0.07245 0.808 0.0
C301 C 0.50639 0.11208 0.86137 0.0
Tb302 Tb 0.5469 0.12963 0.69664 0.0
O303 O 0.61659 0.10518 0.85807 0.0
O304 O 0.5706 0.12742 0.81604 0.0
O305 O 0.52512 0.08307 0.87016 0.0
C306 C 0.52757 0.18572 0.61763 0.0
O307 O 0.5131 0.13538 0.80336 0.0
C308 C 0.52861 0.06834 0.63438 0.0
C309 C 0.62408 0.10669 0.67293 0.0
O310 O 0.50666 0.16322 0.64975 0.0
O311 O 0.55952 0.17771 0.63407 0.0
O312 O 0.52144 0.09778 0.6013 0.0
O313 O 0.54624 0.07503 0.69827 0.0
O314 O 0.60021 0.13022 0.65736 0.0
O315 O 0.61847 0.07946 0.72111 0.0
C316 C 0.59334 0.00877 0.85342 0.0
O317 O 0.58391 0.01811 0.78005 0.0
O318 O 0.59119 0.03518 0.90339 0.0
C319 C 0.60105 0.1342 0.84133 0.0
C320 C 0.47708 0.2781 0.30645 0.0
C321 C 0.46979 0.24269 0.29903 0.0
H322 H 0.51669 0.31665 0.30385 0.0
C323 C 0.49625 0.21822 0.30774 0.0
H324 H 0.45663 0.29723 0.30209 0.0
C325 C 0.53047 0.22927 0.30759 0.0
C326 C 0.53778 0.26466 0.30006 0.0
H327 H 0.49085 0.19071 0.30404 0.0
H328 H 0.55092 0.21012 0.30404 0.0
C329 C 0.51129 0.28916 0.30767 0.0
C330 C 0.47821 0.72579 0.56291 0.0
C331 C 0.51384 0.71934 0.55643 0.0
H332 H 0.43871 0.76441 0.55909 0.0
C333 C 0.53763 0.74647 0.56526 0.0
H334 H 0.45954 0.70489 0.5585 0.0
C335 C 0.52575 0.78039 0.56501 0.0
C336 C 0.49018 0.78687 0.55669 0.0
H337 H 0.56528 0.74178 0.56239 0.0
H338 H 0.54446 0.8013 0.56221 0.0
C339 C 0.46632 0.75972 0.56344 0.0
C340 C 0.03024 0.72979 0.81792 0.0
C341 C 0.03672 0.76535 0.81011 0.0
H342 H 0.99154 0.69027 0.81469 0.0
C343 C 0.00966 0.78919 0.81802 0.0
H344 H 0.05112 0.71112 0.81433 0.0
C345 C 0.97571 0.77729 0.8176 0.0
C346 C 0.96921 0.7417 0.81012 0.0
H347 H 0.0144 0.81679 0.81415 0.0
H348 H 0.95483 0.79595 0.8137 0.0
C349 C 0.99628 0.71789 0.81837 0.0
C350 C 0.96747 0.26018 1.06428 0.0
C351 C 0.99155 0.28706 1.0564 0.0
H352 H 0.96023 0.20542 1.0607 0.0
C353 C 0.02708 0.28035 1.06459 0.0
H354 H 0.93989 0.2651 1.06003 0.0
C355 C 0.0387 0.24635 1.06565 0.0
C356 C 0.01465 0.21943 1.05763 0.0
H357 H 0.04595 0.3011 1.06095 0.0
H358 H 0.0663 0.24142 1.06238 0.0
C359 C 0.97909 0.22618 1.0645 0.0
C360 C 0.53066 0.72872 0.81902 0.0
C361 C 0.53712 0.76437 0.825 0.0
H362 H 0.49208 0.68915 0.82505 0.0
C363 C 0.50992 0.78805 0.81679 0.0
H364 H 0.55161 0.71013 0.82293 0.0
C365 C 0.476 0.77608 0.81872 0.0
C366 C 0.46963 0.74056 0.82792 0.0
H367 H 0.51461 0.8157 0.81925 0.0
H368 H 0.45509 0.79473 0.82216 0.0
C369 C 0.49673 0.71674 0.82014 0.0
C370 C 0.4688 0.25893 0.57398 0.0
C371 C 0.4926 0.28607 0.58203 0.0
H372 H 0.46199 0.20412 0.57836 0.0
C373 C 0.52823 0.2796 0.57597 0.0
H374 H 0.44115 0.26365 0.57673 0.0
C375 C 0.54013 0.2457 0.57656 0.0
C376 C 0.51627 0.21859 0.58377 0.0
H377 H 0.54691 0.30052 0.57983 0.0
H378 H 0.56775 0.24104 0.58105 0.0
C379 C 0.4807 0.22501 0.57515 0.0
C380 C 0.99617 0.21691 0.33055 0.0
C381 C 0.9697 0.24143 0.33842 0.0
H382 H 0.05082 0.20875 0.33392 0.0
C383 C 0.97702 0.27679 0.33026 0.0
H384 H 0.99075 0.18942 0.33451 0.0
C385 C 0.01124 0.28781 0.32931 0.0
C386 C 0.03775 0.26334 0.33726 0.0
H387 H 0.95661 0.29599 0.33378 0.0
H388 H 0.01666 0.31532 0.33241 0.0
C389 C 0.0304 0.22793 0.33027 0.0
C390 C 0.98403 0.72689 0.06995 0.0
C391 C 0.01926 0.71991 0.08262 0.0
H392 H 0.94496 0.76597 0.06983 0.0
C393 C 0.04358 0.74679 0.08055 0.0
H394 H 0.96505 0.70619 0.06907 0.0
C395 C 0.03211 0.78083 0.08191 0.0
C396 C 0.99647 0.78763 0.08423 0.0
H397 H 0.071 0.74169 0.08826 0.0
H398 H 0.05089 0.80142 0.09028 0.0
C399 C 0.97258 0.76096 0.07026 0.0
C400 C 0.18494 0.1141 0.92561 0.0
C401 C 0.15839 0.1153 0.98474 0.0
H402 H 0.23683 0.1291 0.89451 0.0
C403 C 0.16488 0.13112 1.06133 0.0
H404 H 0.18032 0.10284 0.8653 0.0
C405 C 0.19717 0.14598 0.07806 0.0
C406 C 0.22317 0.14607 1.01767 0.0
H407 H 0.14466 0.13282 0.10743 0.0
H408 H 0.20146 0.15824 0.1374 0.0
C409 C 0.21699 0.12969 0.94167 0.0
C410 C 0.60458 0.41331 0.269 0.0
C411 C 0.63646 0.40857 0.22803 0.0
H412 H 0.56658 0.44905 0.31351 0.0
C413 C 0.65526 0.43796 0.20346 0.0
H414 H 0.58915 0.39144 0.28888 0.0
C415 C 0.6421 0.47121 0.21832 0.0
C416 C 0.60975 0.47556 0.25677 0.0
H417 H 0.67968 0.43532 0.17128 0.0
H418 H 0.65699 0.49349 0.19861 0.0
C419 C 0.59129 0.44637 0.28255 0.0
C420 C 0.34109 0.87519 0.56455 0.0
C421 C 0.34697 0.8916 0.48863 0.0
H422 H 0.30516 0.84752 0.64058 0.0
C423 C 0.31992 0.89342 0.43073 0.0
H424 H 0.36178 0.8729 0.6095 0.0
C425 C 0.28794 0.87774 0.44722 0.0
C426 C 0.28239 0.86067 0.52248 0.0
H427 H 0.32414 0.90508 0.37084 0.0
H428 H 0.26769 0.87873 0.40092 0.0
C429 C 0.30892 0.86029 0.5818 0.0
C430 C 0.867 0.57047 0.67457 0.0
C431 C 0.86726 0.59708 0.73385 0.0
H432 H 0.88308 0.51884 0.64407 0.0
C433 C 0.88269 0.59101 0.811 0.0
H434 H 0.85607 0.5748 0.61385 0.0
C435 C 0.89798 0.55906 0.82828 0.0
C436 C 0.89893 0.53297 0.76792 0.0
H437 H 0.88368 0.6113 0.85723 0.0
H438 H 0.90983 0.55507 0.88817 0.0
C439 C 0.88303 0.53876 0.69122 0.0
C440 C 0.81025 0.83899 0.10219 0.0
C441 C 0.78154 0.85894 0.12456 0.0
H442 H 0.86518 0.83502 0.09796 0.0
C443 C 0.78681 0.8921 0.15849 0.0
H444 H 0.8069 0.81361 0.07462 0.0
C445 C 0.82044 0.90461 0.17243 0.0
C446 C 0.84931 0.88427 0.15166 0.0
H447 H 0.76494 0.90815 0.17543 0.0
H448 H 0.82376 0.92971 0.20132 0.0
C449 C 0.8437 0.85156 0.11499 0.0
C450 C 0.36648 0.57007 0.96033 0.0
C451 C 0.36678 0.59664 0.90129 0.0
H452 H 0.38247 0.51842 0.99044 0.0
C453 C 0.38209 0.59056 0.82413 0.0
H454 H 0.35562 0.57445 1.02105 0.0
C455 C 0.39726 0.55858 0.80661 0.0
C456 C 0.3982 0.53253 0.86677 0.0
H457 H 0.3831 0.61086 0.77814 0.0
H458 H 0.40905 0.55456 0.74674 0.0
C459 C 0.38241 0.53833 0.94347 0.0
C460 C 0.68745 0.11053 0.70375 0.0
C461 C 0.65979 0.11563 0.64849 0.0
H462 H 0.74049 0.12232 0.73338 0.0
C463 C 0.66531 0.13549 0.57725 0.0
H464 H 0.68367 0.09607 0.76022 0.0
C465 C 0.69759 0.15049 0.56218 0.0
C466 C 0.72487 0.14653 0.61881 0.0
H467 H 0.64431 0.14025 0.53428 0.0
H468 H 0.70098 0.16583 0.50688 0.0
C469 C 0.71971 0.1261 0.68931 0.0
C470 C 0.15643 0.43523 0.42211 0.0
C471 C 0.13713 0.40608 0.39762 0.0
H472 H 0.15845 0.49069 0.42998 0.0
C473 C 0.10479 0.41124 0.3588 0.0
H474 H 0.1812 0.43227 0.45281 0.0
C475 C 0.09146 0.44447 0.34789 0.0
C476 C 0.11032 0.47341 0.37426 0.0
H477 H 0.08904 0.38952 0.339 0.0
H478 H 0.06635 0.44749 0.31876 0.0
C479 C 0.14321 0.46863 0.41 0.0
C480 C 0.66479 0.63327 0.56197 0.0
C481 C 0.6586 0.61646 0.48645 0.0
H482 H 0.70125 0.66074 0.63763 0.0
C483 C 0.68556 0.61403 0.42861 0.0
H484 H 0.64421 0.63601 0.60688 0.0
C485 C 0.71778 0.62934 0.44487 0.0
C486 C 0.7237 0.64663 0.51991 0.0
H487 H 0.68112 0.60203 0.36902 0.0
H488 H 0.73797 0.62781 0.39869 0.0
C489 C 0.69721 0.64776 0.57906 0.0
C490 C 0.12368 0.96768 0.69348 0.0
C491 C 0.10788 0.97358 0.77013 0.0
H492 H 0.15057 0.9315 0.61629 0.0
C493 C 0.10898 0.94768 0.83064 0.0
H494 H 0.1235 0.98749 0.64625 0.0
C495 C 0.12431 0.91574 0.81353 0.0
C496 C 0.1396 0.90954 0.7364 0.0
H497 H 0.0972 0.95179 0.89049 0.0
H498 H 0.12339 0.89554 0.85977 0.0
C499 C 0.13975 0.93598 0.67701 0.0
C500 C 0.78981 0.37681 0.94165 0.0
C501 C 0.78393 0.36084 1.01809 0.0
H502 H 0.82615 0.40332 0.86432 0.0
C503 C 0.8101 0.36145 0.0783 0.0
H504 H 0.76984 0.377 0.8946 0.0
C505 C 0.84227 0.37635 1.06097 0.0
C506 C 0.84847 0.3917 0.98391 0.0
H507 H 0.80605 0.34953 0.13797 0.0
H508 H 0.86264 0.37501 0.10694 0.0
C509 C 0.82175 0.39244 0.92497 0.0
C510 C 0.41577 0.06049 0.28158 0.0
C511 C 0.39666 0.03142 0.2573 0.0
H512 H 0.41877 0.11544 0.28631 0.0
C513 C 0.36404 0.036 0.22004 0.0
H514 H 0.44072 0.05763 0.31158 0.0
C515 C 0.35124 0.06934 0.20489 0.0
C516 C 0.37068 0.0986 0.22794 0.0
H517 H 0.34866 0.01383 0.20149 0.0
H518 H 0.32657 0.07213 0.17368 0.0
C519 C 0.40285 0.09366 0.2677 0.0
C520 C 0.30888 0.3553 0.56615 0.0
C521 C 0.28186 0.35824 0.62359 0.0
H522 H 0.36191 0.36626 0.53815 0.0
C523 C 0.28738 0.37726 0.69639 0.0
H524 H 0.30522 0.34105 0.50912 0.0
C525 C 0.31973 0.39249 0.71211 0.0
C526 C 0.3471 0.38853 0.65569 0.0
H527 H 0.2668 0.38021 0.74119 0.0
H528 H 0.32377 0.40592 0.77009 0.0
C529 C 0.34121 0.37005 0.5823 0.0
C530 C 0.84925 0.07049 0.4154 0.0
C531 C 0.86925 0.09956 0.39419 0.0
H532 H 0.84633 0.01499 0.41941 0.0
C533 C 0.90183 0.09427 0.35697 0.0
H534 H 0.82424 0.07356 0.4447 0.0
C535 C 0.91476 0.06096 0.34473 0.0
C536 C 0.89523 0.03208 0.36799 0.0
H537 H 0.91812 0.11591 0.33961 0.0
H538 H 0.94013 0.05785 0.31716 0.0
C539 C 0.86205 0.03701 0.4018 0.0
C540 C 0.18638 0.61256 0.20838 0.0
C541 C 0.15919 0.61442 0.15084 0.0
H542 H 0.2387 0.62717 0.23749 0.0
C543 C 0.16491 0.63086 0.07487 0.0
H544 H 0.18228 0.60087 0.2683 0.0
C545 C 0.19705 0.64572 1.05719 0.0
C546 C 0.22372 0.64529 0.11615 0.0
H547 H 0.14411 0.63317 1.0302 0.0
H548 H 0.20069 0.6585 0.99839 0.0
C549 C 0.21834 0.6282 0.19146 0.0
C550 C 0.6055 0.94791 0.81372 0.0
C551 C 0.60862 0.97471 0.8719 0.0
H552 H 0.61625 0.89496 0.78433 0.0
C553 C 0.62804 0.96911 0.944 0.0
H554 H 0.59096 0.95167 0.75719 0.0
C555 C 0.64345 0.93681 0.95838 0.0
C556 C 0.63919 0.90966 0.90132 0.0
H557 H 0.63116 0.98955 0.98926 0.0
H558 H 0.65708 0.93253 1.01596 0.0
C559 C 0.62035 0.91563 0.82863 0.0
C560 C 0.41857 0.11196 0.96505 0.0
C561 C 0.41679 0.14597 0.99671 0.0
H562 H 0.44887 0.07389 0.90016 0.0
C563 C 0.44664 0.16665 0.99415 0.0
H564 H 0.39588 0.09543 0.9661 0.0
C565 C 0.47672 0.15451 0.95466 0.0
C566 C 0.47793 0.12107 0.91938 0.0
H567 H 0.44597 0.19299 1.01722 0.0
H568 H 0.49861 0.17188 0.94834 0.0
C569 C 0.44895 0.09947 0.92775 0.0
C570 C 0.58524 0.6981 0.23966 0.0
C571 C 0.60678 0.66907 0.24718 0.0
H572 H 0.57944 0.74922 0.18933 0.0
C573 C 0.64129 0.67149 0.21951 0.0
H574 H 0.55849 0.69682 0.25953 0.0
C575 C 0.65365 0.70173 0.1816 0.0
C576 C 0.63137 0.72982 0.16824 0.0
H577 H 0.65842 0.64936 0.22433 0.0
H578 H 0.6798 0.70217 0.15746 0.0
C579 C 0.59727 0.72799 0.19932 0.0
C580 C 0.02859 0.85264 0.46527 0.0
C581 C 0.02748 0.8857 0.42834 0.0
H582 H 0.05933 0.81458 0.52928 0.0
C583 C 0.05665 0.90717 0.43541 0.0
H584 H 0.0066 0.83532 0.45975 0.0
C585 C 0.08708 0.89487 0.47301 0.0
C586 C 0.08877 0.86119 0.50624 0.0
H587 H 0.05685 0.93241 0.40636 0.0
H588 H 0.1099 0.91124 0.4729 0.0
C589 C 0.05874 0.8407 0.50506 0.0
C590 C 0.84862 0.30982 0.67673 0.0
C591 C 0.86846 0.27946 0.67522 0.0
H592 H 0.8467 0.36362 0.70985 0.0
C593 C 0.90058 0.2793 0.71712 0.0
H594 H 0.82424 0.311 0.64362 0.0
C595 C 0.91333 0.3093 0.75633 0.0
C596 C 0.89465 0.34038 0.75208 0.0
H597 H 0.91673 0.25637 0.71569 0.0
H598 H 0.93881 0.30882 0.78445 0.0
C599 C 0.86173 0.34001 0.71405 0.0
C600 C 0.55786 0.83586 0.14297 0.0
C601 C 0.58702 0.85736 0.13667 0.0
H602 H 0.50649 0.82996 0.19211 0.0
C603 C 0.5846 0.89176 0.16524 0.0
H604 H 0.5591 0.8092 0.1223 0.0
C605 C 0.55423 0.90403 0.20283 0.0
C606 C 0.52598 0.88177 0.21498 0.0
H607 H 0.60681 0.90887 0.16132 0.0
H608 H 0.55379 0.93009 0.22767 0.0
C609 C 0.52783 0.84779 0.18304 0.0
C610 C 0.41647 0.30922 0.88167 0.0
C611 C 0.3963 0.33939 0.88181 0.0
H612 H 0.42137 0.25689 0.92499 0.0
C613 C 0.36264 0.3379 0.91533 0.0
H614 H 0.44253 0.30966 0.85701 0.0
C615 C 0.35008 0.30747 0.95215 0.0
C616 C 0.37132 0.27815 0.95816 0.0
H617 H 0.34651 0.36084 0.91624 0.0
H618 H 0.32488 0.30778 0.98144 0.0
C619 C 0.40429 0.27907 0.92063 0.0
C620 C 0.95331 0.09973 0.68939 0.0
C621 C 0.97745 0.12413 0.71838 0.0
H622 H 0.9048 0.09133 0.62703 0.0
C623 C 0.97246 0.15928 0.69776 0.0
H624 H 0.95629 0.07256 0.70424 0.0
C625 C 0.94335 0.16998 0.65254 0.0
C626 C 0.91811 0.14587 0.62818 0.0
H627 H 0.99074 0.17878 0.71844 0.0
H628 H 0.93982 0.1973 0.64014 0.0
C629 C 0.92377 0.11055 0.64548 0.0
C630 C 0.09928 0.727 0.43626 0.0
C631 C 0.13273 0.72843 0.47161 0.0
H632 H 0.06105 0.696 0.37293 0.0
C633 C 0.1545 0.69963 0.4631 0.0
H634 H 0.08183 0.74881 0.44239 0.0
C635 C 0.14218 0.66918 0.42563 0.0
C636 C 0.10825 0.66723 0.39361 0.0
H637 H 0.18012 0.69976 0.49054 0.0
H638 H 0.15885 0.64662 0.42432 0.0
C639 C 0.08735 0.69686 0.39638 0.0
C640 C 0.94727 0.6679 0.49752 0.0
C641 C 0.91802 0.64642 0.50275 0.0
H642 H 0.99871 0.67415 0.44897 0.0
C643 C 0.92045 0.61227 0.4724 0.0
H644 H 0.94606 0.6944 0.51937 0.0
C645 C 0.95089 0.60028 0.43434 0.0
C646 C 0.97923 0.62256 0.42347 0.0
H647 H 0.89822 0.59516 0.4753 0.0
H648 H 0.95132 0.57443 0.40827 0.0
C649 C 0.97734 0.65627 0.45703 0.0
C650 C 0.1448 0.16614 0.71681 0.0
C651 C 0.11168 0.16589 0.75351 0.0
H652 H 0.18254 0.1948 0.64697 0.0
C653 C 0.0928 0.19688 0.75583 0.0
H654 H 0.15998 0.14258 0.71407 0.0
C655 C 0.10558 0.22663 0.71604 0.0
C656 C 0.13793 0.22631 0.67548 0.0
H657 H 0.06715 0.19742 0.78283 0.0
H658 H 0.08933 0.24945 0.71318 0.0
C659 C 0.15795 0.1961 0.67895 0.0
C660 C 0.55781 0.40542 0.92778 0.0
C661 C 0.52942 0.3832 0.91672 0.0
H662 H 0.61047 0.4104 0.96915 0.0
C663 C 0.53112 0.34957 0.9505 0.0
H664 H 0.55746 0.43123 0.90175 0.0
C665 C 0.56114 0.33788 0.99109 0.0
C666 C 0.59044 0.35925 0.99634 0.0
H667 H 0.50962 0.33179 0.94261 0.0
H668 H 0.56224 0.31142 1.01306 0.0
C669 C 0.58817 0.39337 0.96606 0.0
C670 C 0.35111 0.80592 0.17719 0.0
C671 C 0.37299 0.77728 0.16736 0.0
H672 H 0.3467 0.85869 0.21762 0.0
C673 C 0.4065 0.7786 0.20237 0.0
H674 H 0.32542 0.80584 0.15011 0.0
C675 C 0.41845 0.80854 0.24296 0.0
C676 C 0.39745 0.83807 0.24687 0.0
H677 H 0.42401 0.75688 0.1953 0.0
H678 H 0.44482 0.80939 0.26592 0.0
C679 C 0.36342 0.83617 0.21545 0.0
C680 C 0.0829 0.39506 0.64513 0.0
C681 C 0.08849 0.35968 0.62791 0.0
H682 H 0.05042 0.43326 0.70333 0.0
C683 C 0.06311 0.33571 0.65172 0.0
H684 H 0.10197 0.41419 0.62709 0.0
C685 C 0.03395 0.3466 0.69638 0.0
C686 C 0.02903 0.3818 0.71699 0.0
H687 H 0.06658 0.30836 0.63936 0.0
H688 H 0.01558 0.32719 0.7167 0.0
C689 C 0.05332 0.40606 0.68848 0.0
C690 C 0.9207 0.80892 0.39665 0.0
C691 C 0.89963 0.83837 0.39164 0.0
H692 H 0.92603 0.75729 0.44418 0.0
C693 C 0.86534 0.83633 0.42106 0.0
H694 H 0.94725 0.80985 0.37517 0.0
C695 C 0.8528 0.80603 0.45834 0.0
C696 C 0.87468 0.77746 0.46922 0.0
H697 H 0.84852 0.85875 0.41795 0.0
H698 H 0.82688 0.80587 0.48384 0.0
C699 C 0.9085 0.77893 0.43628 0.0
C700 C 0.42035 0.61219 0.16204 0.0
C701 C 0.4176 0.64646 0.13298 0.0
H702 H 0.45142 0.57451 0.22601 0.0
C703 C 0.44644 0.66838 0.14034 0.0
H704 H 0.3984 0.59477 0.15754 0.0
C705 C 0.47642 0.65702 0.18173 0.0
C706 C 0.4786 0.62319 0.21408 0.0
H707 H 0.44494 0.69498 0.11954 0.0
H708 H 0.49747 0.67518 0.19138 0.0
C709 C 0.45072 0.60049 0.20098 0.0
C710 C 0.60128 0.22472 0.93304 0.0
C711 C 0.63591 0.22829 0.95993 0.0
H712 H 0.56318 0.19274 0.87302 0.0
C713 C 0.65972 0.20231 0.93879 0.0
H714 H 0.58229 0.24441 0.94797 0.0
C715 C 0.64852 0.17237 0.89683 0.0
C716 C 0.61346 0.16808 0.874 0.0
H717 H 0.68643 0.20414 0.95898 0.0
H718 H 0.66709 0.15197 0.88482 0.0
C719 C 0.59025 0.19516 0.88994 0.0
C720 C 0.25389 0.2392 0.23303 0.0
C721 C 0.28497 0.24122 0.27754 0.0
H722 H 0.19921 0.24917 0.23219 0.0
C723 C 0.28413 0.25556 0.35783 0.0
H724 H 0.25363 0.229 0.17083 0.0
C725 C 0.25312 0.26746 0.39293 0.0
C726 C 0.22206 0.26564 0.34845 0.0
H727 H 0.30766 0.25754 0.39413 0.0
H728 H 0.25344 0.27737 0.4553 0.0
C729 C 0.2228 0.25116 0.26823 0.0
C730 C 0.52312 0.50305 0.49353 0.0
C731 C 0.5191 0.53427 0.53642 0.0
H732 H 0.51379 0.44837 0.49137 0.0
C733 C 0.50219 0.53339 0.61383 0.0
H734 H 0.5358 0.5026 0.43431 0.0
C735 C 0.48951 0.50228 0.64719 0.0
C736 C 0.49308 0.47115 0.60364 0.0
H737 H 0.49867 0.55698 0.64909 0.0
H738 H 0.47728 0.50262 0.70712 0.0
C739 C 0.51025 0.47197 0.52661 0.0
C740 C 0.25207 0.76732 0.73907 0.0
C741 C 0.22148 0.76579 0.78509 0.0
H742 H 0.30646 0.7565 0.73513 0.0
C743 C 0.22289 0.75119 0.86503 0.0
H744 H 0.25187 0.77764 0.67708 0.0
C745 C 0.25408 0.73864 0.89838 0.0
C746 C 0.28467 0.74019 0.85237 0.0
H747 H 0.1997 0.74948 0.90234 0.0
H748 H 0.25428 0.72832 0.96036 0.0
C749 C 0.28326 0.75479 0.77243 0.0
C750 C 1.00288 0.53375 1.02255 0.0
C751 C 0.0201 0.53438 0.09973 0.0
H752 H 0.97792 0.50315 0.92849 0.0
C753 C 0.02479 0.50302 0.14123 0.0
H754 H 0.9989 0.55749 0.98835 0.0
C755 C 0.01216 0.47199 0.10719 0.0
C756 C 0.99462 0.47139 1.0305 0.0
H757 H 0.03784 0.5024 0.20007 0.0
H758 H 0.01617 0.44827 0.14147 0.0
C759 C 0.99046 0.50266 0.98815 0.0
C760 C 0.72259 0.7522 0.76991 0.0
C761 C 0.72179 0.7697 0.84674 0.0
H762 H 0.75331 0.72658 0.6774 0.0
C763 C 0.75304 0.77416 0.8893 0.0
H764 H 0.69896 0.74834 0.73491 0.0
C765 C 0.7841 0.7611 0.85655 0.0
C766 C 0.78486 0.74331 0.78015 0.0
H767 H 0.75355 0.78739 0.94797 0.0
H768 H 0.80772 0.76499 0.89158 0.0
C769 C 0.7537 0.73932 0.73684 0.0
C770 C 0.72366 0.25133 0.35915 0.0
C771 C 0.72269 0.26569 0.27907 0.0
H772 H 0.75447 0.22912 0.45587 0.0
C773 C 0.75358 0.26735 0.23405 0.0
H774 H 0.70027 0.24965 0.39579 0.0
C775 C 0.78463 0.25493 0.26858 0.0
C776 C 0.78548 0.24039 0.34856 0.0
H777 H 0.75369 0.27761 0.172 0.0
H778 H 0.8081 0.25662 0.23225 0.0
C779 C 0.75463 0.239 0.39358 0.0
C780 C 0.01653 0.00362 0.98816 0.0
C781 C 0.01217 0.03485 1.03089 0.0
H782 H 0.00859 0.94871 0.9877 0.0
C783 C 0.99456 0.03409 0.10731 0.0
H784 H 0.02908 0.00324 0.92864 0.0
C785 C 0.98217 1.00294 0.14082 0.0
C786 C 0.98718 0.97162 0.09907 0.0
H787 H 0.99038 0.05776 0.14184 0.0
H788 H 0.96919 0.00342 0.19965 0.0
C789 C 0.00437 0.97242 1.02206 0.0
C790 C 0.51698 0.00393 0.64679 0.0
C791 C 0.51556 0.03465 0.60122 0.0
H792 H 0.50527 0.94978 0.65098 0.0
C793 C 0.4995 0.03374 0.52274 0.0
H794 H 0.52799 0.00376 0.70808 0.0
C795 C 0.48572 1.00285 0.49018 0.0
C796 C 0.48764 0.97202 0.53525 0.0
H797 H 0.4976 0.05707 0.48602 0.0
H798 H 0.47413 1.0031 0.4296 0.0
C799 C 0.5034 0.97305 0.61406 0.0
loop_
_geom_bond_atom_site_label_1
_geom_bond_atom_site_label_2
_geom_bond_distance
_geom_bond_site_symmetry_2
_ccdc_geom_bond_type
Tb0 O3 2.453 . S
Tb0 O4 2.596 . S
Tb0 O5 2.374 . S
Tb0 O13 2.343 . S
Tb0 O15 2.353 . S
Tb0 O17 2.427 . S
Tb0 O18 2.513 . S
C1 O5 1.251 . S
C1 O7 1.263 . S
Tb2 O4 2.343 1_556 S
Tb2 O7 2.353 1_556 S
Tb2 O10 2.427 1_556 S
Tb2 O11 2.513 . S
Tb2 O12 2.453 . S
Tb2 O13 2.596 1_556 S
Tb2 O14 2.374 . S
O3 Tb0 2.453 . S
O3 C19 1.245 . S
O4 Tb0 2.596 . S
O4 Tb2 2.343 1_554 S
O4 C19 1.259 . S
O5 Tb0 2.374 . S
O5 C1 1.251 . S
C6 O10 1.275 . S
C6 O11 1.246 1_554 S
O7 C1 1.263 . S
O7 Tb2 2.353 1_554 S
C8 O12 1.245 . S
C8 O13 1.259 1_556 S
C9 O14 1.250 . S
C9 O15 1.263 1_556 S
O10 Tb2 2.427 1_554 S
O10 C6 1.275 . S
O11 Tb2 2.513 . S
O11 C6 1.246 1_556 S
O12 Tb2 2.453 . S
O12 C8 1.245 . S
O13 Tb0 2.343 . S
O13 Tb2 2.596 1_554 S
O13 C8 1.259 1_554 S
O14 Tb2 2.374 . S
O14 C9 1.250 . S
O15 Tb0 2.353 . S
O15 C9 1.263 1_554 S
C16 O17 1.275 . S
C16 O18 1.246 . S
O17 Tb0 2.427 . S
O17 C16 1.275 . S
O18 Tb0 2.513 . S
O18 C16 1.246 . S
C19 O3 1.245 . S
C19 O4 1.259 . S
Tb20 O23 2.453 . S
Tb20 O24 2.596 . S
Tb20 O25 2.374 . S
Tb20 O33 2.343 . S
Tb20 O35 2.353 . S
Tb20 O37 2.427 . S
Tb20 O38 2.513 . S
C21 O25 1.251 . S
C21 O27 1.263 . S
Tb22 O24 2.343 . S
Tb22 O27 2.353 . S
Tb22 O30 2.427 . S
Tb22 O31 2.513 . S
Tb22 O32 2.453 . S
Tb22 O33 2.596 . S
Tb22 O34 2.374 . S
O23 Tb20 2.453 . S
O23 C39 1.245 . S
O24 Tb20 2.596 . S
O24 Tb22 2.343 . S
O24 C39 1.259 . S
O25 Tb20 2.374 . S
O25 C21 1.251 . S
C26 O30 1.275 . S
C26 O31 1.246 . S
O27 C21 1.263 . S
O27 Tb22 2.353 . S
C28 O32 1.245 . S
C28 O33 1.259 . S
C29 O34 1.250 . S
C29 O35 1.263 . S
O30 Tb22 2.427 . S
O30 C26 1.275 . S
O31 Tb22 2.513 . S
O31 C26 1.246 . S
O32 Tb22 2.453 . S
O32 C28 1.245 . S
O33 Tb20 2.343 . S
O33 Tb22 2.596 . S
O33 C28 1.259 . S
O34 Tb22 2.374 . S
O34 C29 1.250 . S
O35 Tb20 2.353 . S
O35 C29 1.263 . S
C36 O37 1.275 . S
C36 O38 1.246 . S
O37 Tb20 2.427 . S
O37 C36 1.275 . S
O38 Tb20 2.513 . S
O38 C36 1.246 . S
C39 O23 1.245 . S
C39 O24 1.259 . S
Tb40 O43 2.453 . S
Tb40 O44 2.596 . S
Tb40 O45 2.374 . S
Tb40 O53 2.343 . S
Tb40 O55 2.353 . S
Tb40 O57 2.427 . S
Tb40 O58 2.513 . S
C41 O45 1.251 . S
C41 O47 1.263 . S
Tb42 O44 2.343 . S
Tb42 O47 2.353 . S
Tb42 O50 2.427 . S
Tb42 O51 2.513 . S
Tb42 O52 2.453 . S
Tb42 O53 2.596 . S
Tb42 O54 2.374 . S
O43 Tb40 2.453 . S
O43 C59 1.245 . S
O44 Tb40 2.596 . S
O44 Tb42 2.343 . S
O44 C59 1.259 . S
O45 Tb40 2.374 . S
O45 C41 1.251 . S
C46 O50 1.275 . S
C46 O51 1.246 . S
O47 C41 1.263 . S
O47 Tb42 2.353 . S
C48 O52 1.245 . S
C48 O53 1.259 . S
C49 O54 1.250 . S
C49 O55 1.263 . S
O50 Tb42 2.427 . S
O50 C46 1.275 . S
O51 Tb42 2.513 . S
O51 C46 1.246 . S
O52 Tb42 2.453 . S
O52 C48 1.245 . S
O53 Tb40 2.343 . S
O53 Tb42 2.596 . S
O53 C48 1.259 . S
O54 Tb42 2.374 . S
O54 C49 1.250 . S
O55 Tb40 2.353 . S
O55 C49 1.263 . S
C56 O57 1.275 . S
C56 O58 1.246 . S
O57 Tb40 2.427 . S
O57 C56 1.275 . S
O58 Tb40 2.513 . S
O58 C56 1.246 . S
C59 O43 1.245 . S
C59 O44 1.259 . S
Tb60 O63 2.453 . S
Tb60 O64 2.596 . S
Tb60 O65 2.374 . S
Tb60 O73 2.343 . S
Tb60 O75 2.353 . S
Tb60 O77 2.427 . S
Tb60 O78 2.513 . S
C61 O65 1.251 . S
C61 O67 1.263 . S
Tb62 O64 2.343 . S
Tb62 O67 2.353 . S
Tb62 O70 2.427 . S
Tb62 O71 2.513 . S
Tb62 O72 2.453 . S
Tb62 O73 2.596 . S
Tb62 O74 2.374 . S
O63 Tb60 2.453 . S
O63 C79 1.245 . S
O64 Tb60 2.596 . S
O64 Tb62 2.343 . S
O64 C79 1.259 . S
O65 Tb60 2.374 . S
O65 C61 1.251 . S
C66 O70 1.275 . S
C66 O71 1.246 . S
O67 C61 1.263 . S
O67 Tb62 2.353 . S
C68 O72 1.245 . S
C68 O73 1.259 . S
C69 O74 1.250 . S
C69 O75 1.263 . S
O70 Tb62 2.427 . S
O70 C66 1.275 . S
O71 Tb62 2.513 . S
O71 C66 1.246 . S
O72 Tb62 2.453 . S
O72 C68 1.245 . S
O73 Tb60 2.343 . S
O73 Tb62 2.596 . S
O73 C68 1.259 . S
O74 Tb62 2.374 . S
O74 C69 1.250 . S
O75 Tb60 2.353 . S
O75 C69 1.263 . S
C76 O77 1.275 . S
C76 O78 1.246 . S
O77 Tb60 2.427 . S
O77 C76 1.275 . S
O78 Tb60 2.513 . S
O78 C76 1.246 . S
C79 O63 1.245 . S
C79 O64 1.259 . S
Tb80 O83 2.453 . S
Tb80 O84 2.596 1_554 S
Tb80 O85 2.374 . S
Tb80 O93 2.343 1_554 S
Tb80 O95 2.353 1_554 S
Tb80 O97 2.427 1_554 S
Tb80 O98 2.513 . S
C81 O85 1.251 . S
C81 O87 1.263 1_554 S
Tb82 O84 2.343 . S
Tb82 O87 2.353 . S
Tb82 O90 2.427 . S
Tb82 O91 2.513 . S
Tb82 O92 2.453 . S
Tb82 O93 2.596 . S
Tb82 O94 2.374 . S
O83 Tb80 2.453 . S
O83 C99 1.245 . S
O84 Tb80 2.596 1_556 S
O84 Tb82 2.343 . S
O84 C99 1.259 1_556 S
O85 Tb80 2.374 . S
O85 C81 1.251 . S
C86 O90 1.275 . S
C86 O91 1.246 . S
O87 C81 1.263 1_556 S
O87 Tb82 2.353 . S
C88 O92 1.245 . S
C88 O93 1.259 . S
C89 O94 1.250 . S
C89 O95 1.263 . S
O90 Tb82 2.427 . S
O90 C86 1.275 . S
O91 Tb82 2.513 . S
O91 C86 1.246 . S
O92 Tb82 2.453 . S
O92 C88 1.245 . S
O93 Tb80 2.343 1_556 S
O93 Tb82 2.596 . S
O93 C88 1.259 . S
O94 Tb82 2.374 . S
O94 C89 1.250 . S
O95 Tb80 2.353 1_556 S
O95 C89 1.263 . S
C96 O97 1.275 . S
C96 O98 1.246 1_556 S
O97 Tb80 2.427 1_556 S
O97 C96 1.275 . S
O98 Tb80 2.513 . S
O98 C96 1.246 1_554 S
C99 O83 1.245 . S
C99 O84 1.259 1_554 S
Tb100 O103 2.453 . S
Tb100 O104 2.596 . S
Tb100 O105 2.374 . S
Tb100 O113 2.343 . S
Tb100 O115 2.353 . S
Tb100 O117 2.427 . S
Tb100 O118 2.513 . S
C101 O105 1.251 . S
C101 O107 1.263 . S
Tb102 O104 2.343 . S
Tb102 O107 2.353 . S
Tb102 O110 2.427 . S
Tb102 O111 2.513 . S
Tb102 O112 2.453 . S
Tb102 O113 2.596 . S
Tb102 O114 2.374 . S
O103 Tb100 2.453 . S
O103 C119 1.245 . S
O104 Tb100 2.596 . S
O104 Tb102 2.343 . S
O104 C119 1.259 . S
O105 Tb100 2.374 . S
O105 C101 1.251 . S
C106 O110 1.275 . S
C106 O111 1.246 . S
O107 C101 1.263 . S
O107 Tb102 2.353 . S
C108 O112 1.245 . S
C108 O113 1.259 . S
C109 O114 1.250 . S
C109 O115 1.263 . S
O110 Tb102 2.427 . S
O110 C106 1.275 . S
O111 Tb102 2.513 . S
O111 C106 1.246 . S
O112 Tb102 2.453 . S
O112 C108 1.245 . S
O113 Tb100 2.343 . S
O113 Tb102 2.596 . S
O113 C108 1.259 . S
O114 Tb102 2.374 . S
O114 C109 1.250 . S
O115 Tb100 2.353 . S
O115 C109 1.263 . S
C116 O117 1.275 . S
C116 O118 1.246 . S
O117 Tb100 2.427 . S
O117 C116 1.275 . S
O118 Tb100 2.513 . S
O118 C116 1.246 . S
C119 O103 1.245 . S
C119 O104 1.259 . S
Tb120 O123 2.453 . S
Tb120 O124 2.596 . S
Tb120 O125 2.374 . S
Tb120 O133 2.343 . S
Tb120 O135 2.353 . S
Tb120 O137 2.427 . S
Tb120 O138 2.513 . S
C121 O125 1.251 . S
C121 O127 1.263 . S
Tb122 O124 2.343 . S
Tb122 O127 2.353 . S
Tb122 O130 2.427 . S
Tb122 O131 2.513 . S
Tb122 O132 2.453 . S
Tb122 O133 2.596 . S
Tb122 O134 2.374 . S
O123 Tb120 2.453 . S
O123 C139 1.245 . S
O124 Tb120 2.596 . S
O124 Tb122 2.343 . S
O124 C139 1.259 . S
O125 Tb120 2.374 . S
O125 C121 1.251 . S
C126 O130 1.275 . S
C126 O131 1.246 . S
O127 C121 1.263 . S
O127 Tb122 2.353 . S
C128 O132 1.245 . S
C128 O133 1.259 . S
C129 O134 1.250 . S
C129 O135 1.263 . S
O130 Tb122 2.427 . S
O130 C126 1.275 . S
O131 Tb122 2.513 . S
O131 C126 1.246 . S
O132 Tb122 2.453 . S
O132 C128 1.245 . S
O133 Tb120 2.343 . S
O133 Tb122 2.596 . S
O133 C128 1.259 . S
O134 Tb122 2.374 . S
O134 C129 1.250 . S
O135 Tb120 2.353 . S
O135 C129 1.263 . S
C136 O137 1.275 . S
C136 O138 1.246 . S
O137 Tb120 2.427 . S
O137 C136 1.275 . S
O138 Tb120 2.513 . S
O138 C136 1.246 . S
C139 O123 1.245 . S
C139 O124 1.259 . S
Tb140 O143 2.453 . S
Tb140 O144 2.596 . S
Tb140 O145 2.374 . S
Tb140 O153 2.343 . S
Tb140 O155 2.353 . S
Tb140 O157 2.427 . S
Tb140 O158 2.513 . S
C141 O145 1.251 . S
C141 O147 1.263 . S
Tb142 O144 2.343 . S
Tb142 O147 2.353 . S
Tb142 O150 2.427 . S
Tb142 O151 2.513 . S
Tb142 O152 2.453 . S
Tb142 O153 2.596 . S
Tb142 O154 2.374 . S
O143 Tb140 2.453 . S
O143 C159 1.245 . S
O144 Tb140 2.596 . S
O144 Tb142 2.343 . S
O144 C159 1.259 . S
O145 Tb140 2.374 . S
O145 C141 1.251 . S
C146 O150 1.275 . S
C146 O151 1.246 . S
O147 C141 1.263 . S
O147 Tb142 2.353 . S
C148 O152 1.245 . S
C148 O153 1.259 . S
C149 O154 1.250 . S
C149 O155 1.263 . S
O150 Tb142 2.427 . S
O150 C146 1.275 . S
O151 Tb142 2.513 . S
O151 C146 1.246 . S
O152 Tb142 2.453 . S
O152 C148 1.245 . S
O153 Tb140 2.343 . S
O153 Tb142 2.596 . S
O153 C148 1.259 . S
O154 Tb142 2.374 . S
O154 C149 1.250 . S
O155 Tb140 2.353 . S
O155 C149 1.263 . S
C156 O157 1.275 . S
C156 O158 1.246 . S
O157 Tb140 2.427 . S
O157 C156 1.275 . S
O158 Tb140 2.513 . S
O158 C156 1.246 . S
C159 O143 1.245 . S
C159 O144 1.259 . S
Tb160 O163 2.453 . S
Tb160 O164 2.596 . S
Tb160 O165 2.374 . S
Tb160 O173 2.343 . S
Tb160 O175 2.353 . S
Tb160 O177 2.427 . S
Tb160 O178 2.513 . S
C161 O165 1.251 . S
C161 O167 1.263 . S
Tb162 O164 2.343 . S
Tb162 O167 2.353 . S
Tb162 O170 2.427 . S
Tb162 O171 2.513 . S
Tb162 O172 2.453 . S
Tb162 O173 2.596 . S
Tb162 O174 2.374 . S
O163 Tb160 2.453 . S
O163 C179 1.245 . S
O164 Tb160 2.596 . S
O164 Tb162 2.343 . S
O164 C179 1.259 . S
O165 Tb160 2.374 . S
O165 C161 1.251 . S
C166 O170 1.275 . S
C166 O171 1.246 . S
O167 C161 1.263 . S
O167 Tb162 2.353 . S
C168 O172 1.245 . S
C168 O173 1.259 . S
C169 O174 1.250 . S
C169 O175 1.263 . S
O170 Tb162 2.427 . S
O170 C166 1.275 . S
O171 Tb162 2.513 . S
O171 C166 1.246 . S
O172 Tb162 2.453 . S
O172 C168 1.245 . S
O173 Tb160 2.343 . S
O173 Tb162 2.596 . S
O173 C168 1.259 . S
O174 Tb162 2.374 . S
O174 C169 1.250 . S
O175 Tb160 2.353 . S
O175 C169 1.263 . S
C176 O177 1.275 . S
C176 O178 1.246 . S
O177 Tb160 2.427 . S
O177 C176 1.275 . S
O178 Tb160 2.513 . S
O178 C176 1.246 . S
C179 O163 1.245 . S
C179 O164 1.259 . S
Tb180 O183 2.453 . S
Tb180 O184 2.596 . S
Tb180 O185 2.374 . S
Tb180 O193 2.343 . S
Tb180 O195 2.353 . S
Tb180 O197 2.427 . S
Tb180 O198 2.513 . S
C181 O185 1.251 . S
C181 O187 1.263 . S
Tb182 O184 2.343 . S
Tb182 O187 2.353 . S
Tb182 O190 2.427 . S
Tb182 O191 2.513 . S
Tb182 O192 2.453 . S
Tb182 O193 2.596 . S
Tb182 O194 2.374 . S
O183 Tb180 2.453 . S
O183 C199 1.245 . S
O184 Tb180 2.596 . S
O184 Tb182 2.343 . S
O184 C199 1.259 . S
O185 Tb180 2.374 . S
O185 C181 1.251 . S
C186 O190 1.275 . S
C186 O191 1.246 . S
O187 C181 1.263 . S
O187 Tb182 2.353 . S
C188 O192 1.245 . S
C188 O193 1.259 . S
C189 O194 1.250 . S
C189 O195 1.263 . S
O190 Tb182 2.427 . S
O190 C186 1.275 . S
O191 Tb182 2.513 . S
O191 C186 1.246 . S
O192 Tb182 2.453 . S
O192 C188 1.245 . S
O193 Tb180 2.343 . S
O193 Tb182 2.596 . S
O193 C188 1.259 . S
O194 Tb182 2.374 . S
O194 C189 1.250 . S
O195 Tb180 2.353 . S
O195 C189 1.263 . S
C196 O197 1.275 . S
C196 O198 1.246 . S
O197 Tb180 2.427 . S
O197 C196 1.275 . S
O198 Tb180 2.513 . S
O198 C196 1.246 . S
C199 O183 1.245 . S
C199 O184 1.259 . S
Tb200 O203 2.453 . S
Tb200 O204 2.596 . S
Tb200 O205 2.374 . S
Tb200 O213 2.343 . S
Tb200 O215 2.353 . S
Tb200 O217 2.427 . S
Tb200 O218 2.513 . S
C201 O205 1.251 . S
C201 O207 1.263 . S
Tb202 O204 2.343 1_556 S
Tb202 O207 2.353 1_556 S
Tb202 O210 2.427 1_556 S
Tb202 O211 2.513 . S
Tb202 O212 2.453 . S
Tb202 O213 2.596 1_556 S
Tb202 O214 2.374 . S
O203 Tb200 2.453 . S
O203 C219 1.245 . S
O204 Tb200 2.596 . S
O204 Tb202 2.343 1_554 S
O204 C219 1.259 . S
O205 Tb200 2.374 . S
O205 C201 1.251 . S
C206 O210 1.275 . S
C206 O211 1.246 1_554 S
O207 C201 1.263 . S
O207 Tb202 2.353 1_554 S
C208 O212 1.245 . S
C208 O213 1.259 1_556 S
C209 O214 1.250 . S
C209 O215 1.263 1_556 S
O210 Tb202 2.427 1_554 S
O210 C206 1.275 . S
O211 Tb202 2.513 . S
O211 C206 1.246 1_556 S
O212 Tb202 2.453 . S
O212 C208 1.245 . S
O213 Tb200 2.343 . S
O213 Tb202 2.596 1_554 S
O213 C208 1.259 1_554 S
O214 Tb202 2.374 . S
O214 C209 1.250 . S
O215 Tb200 2.353 . S
O215 C209 1.263 1_554 S
C216 O217 1.275 . S
C216 O218 1.246 . S
O217 Tb200 2.427 . S
O217 C216 1.275 . S
O218 Tb200 2.513 . S
O218 C216 1.246 . S
C219 O203 1.245 . S
C219 O204 1.259 . S
Tb220 O223 2.453 . S
Tb220 O224 2.596 . S
Tb220 O225 2.374 . S
Tb220 O233 2.343 . S
Tb220 O235 2.353 . S
Tb220 O237 2.427 . S
Tb220 O238 2.513 . S
C221 O225 1.251 . S
C221 O227 1.263 . S
Tb222 O224 2.343 . S
Tb222 O227 2.353 . S
Tb222 O230 2.427 . S
Tb222 O231 2.513 . S
Tb222 O232 2.453 . S
Tb222 O233 2.596 . S
Tb222 O234 2.374 . S
O223 Tb220 2.453 . S
O223 C239 1.245 . S
O224 Tb220 2.596 . S
O224 Tb222 2.343 . S
O224 C239 1.259 . S
O225 Tb220 2.374 . S
O225 C221 1.251 . S
C226 O230 1.275 . S
C226 O231 1.246 . S
O227 C221 1.263 . S
O227 Tb222 2.353 . S
C228 O232 1.245 . S
C228 O233 1.259 . S
C229 O234 1.250 . S
C229 O235 1.263 . S
O230 Tb222 2.427 . S
O230 C226 1.275 . S
O231 Tb222 2.513 . S
O231 C226 1.246 . S
O232 Tb222 2.453 . S
O232 C228 1.245 . S
O233 Tb220 2.343 . S
O233 Tb222 2.596 . S
O233 C228 1.259 . S
O234 Tb222 2.374 . S
O234 C229 1.250 . S
O235 Tb220 2.353 . S
O235 C229 1.263 . S
C236 O237 1.275 . S
C236 O238 1.246 . S
O237 Tb220 2.427 . S
O237 C236 1.275 . S
O238 Tb220 2.513 . S
O238 C236 1.246 . S
C239 O223 1.245 . S
C239 O224 1.259 . S
Tb240 O243 2.453 . S
Tb240 O244 2.596 . S
Tb240 O245 2.374 . S
Tb240 O253 2.343 . S
Tb240 O255 2.353 . S
Tb240 O257 2.427 . S
Tb240 O258 2.513 . S
C241 O245 1.251 . S
C241 O247 1.263 . S
Tb242 O244 2.343 . S
Tb242 O247 2.353 . S
Tb242 O250 2.427 . S
Tb242 O251 2.513 . S
Tb242 O252 2.453 . S
Tb242 O253 2.596 . S
Tb242 O254 2.374 . S
O243 Tb240 2.453 . S
O243 C259 1.245 . S
O244 Tb240 2.596 . S
O244 Tb242 2.343 . S
O244 C259 1.259 . S
O245 Tb240 2.374 . S
O245 C241 1.251 . S
C246 O250 1.275 . S
C246 O251 1.246 . S
O247 C241 1.263 . S
O247 Tb242 2.353 . S
C248 O252 1.245 . S
C248 O253 1.259 . S
C249 O254 1.250 . S
C249 O255 1.263 . S
O250 Tb242 2.427 . S
O250 C246 1.275 . S
O251 Tb242 2.513 . S
O251 C246 1.246 . S
O252 Tb242 2.453 . S
O252 C248 1.245 . S
O253 Tb240 2.343 . S
O253 Tb242 2.596 . S
O253 C248 1.259 . S
O254 Tb242 2.374 . S
O254 C249 1.250 . S
O255 Tb240 2.353 . S
O255 C249 1.263 . S
C256 O257 1.275 . S
C256 O258 1.246 . S
O257 Tb240 2.427 . S
O257 C256 1.275 . S
O258 Tb240 2.513 . S
O258 C256 1.246 . S
C259 O243 1.245 . S
C259 O244 1.259 . S
Tb260 O263 2.453 . S
Tb260 O264 2.596 . S
Tb260 O265 2.374 . S
Tb260 O273 2.343 . S
Tb260 O275 2.353 . S
Tb260 O277 2.427 . S
Tb260 O278 2.513 . S
C261 O265 1.251 . S
C261 O267 1.263 . S
Tb262 O264 2.343 . S
Tb262 O267 2.353 . S
Tb262 O270 2.427 . S
Tb262 O271 2.513 . S
Tb262 O272 2.453 . S
Tb262 O273 2.596 . S
Tb262 O274 2.374 . S
O263 Tb260 2.453 . S
O263 C279 1.245 . S
O264 Tb260 2.596 . S
O264 Tb262 2.343 . S
O264 C279 1.259 . S
O265 Tb260 2.374 . S
O265 C261 1.251 . S
C266 O270 1.275 . S
C266 O271 1.246 . S
O267 C261 1.263 . S
O267 Tb262 2.353 . S
C268 O272 1.245 . S
C268 O273 1.259 . S
C269 O274 1.250 . S
C269 O275 1.263 . S
O270 Tb262 2.427 . S
O270 C266 1.275 . S
O271 Tb262 2.513 . S
O271 C266 1.246 . S
O272 Tb262 2.453 . S
O272 C268 1.245 . S
O273 Tb260 2.343 . S
O273 Tb262 2.596 . S
O273 C268 1.259 . S
O274 Tb262 2.374 . S
O274 C269 1.250 . S
O275 Tb260 2.353 . S
O275 C269 1.263 . S
C276 O277 1.275 . S
C276 O278 1.246 . S
O277 Tb260 2.427 . S
O277 C276 1.275 . S
O278 Tb260 2.513 . S
O278 C276 1.246 . S
C279 O263 1.245 . S
C279 O264 1.259 . S
Tb280 O283 2.453 . S
Tb280 O284 2.596 1_554 S
Tb280 O285 2.374 . S
Tb280 O293 2.343 1_554 S
Tb280 O295 2.353 1_554 S
Tb280 O297 2.427 1_554 S
Tb280 O298 2.513 . S
C281 O285 1.251 . S
C281 O287 1.263 1_554 S
Tb282 O284 2.343 . S
Tb282 O287 2.353 . S
Tb282 O290 2.427 . S
Tb282 O291 2.513 . S
Tb282 O292 2.453 . S
Tb282 O293 2.596 . S
Tb282 O294 2.374 . S
O283 Tb280 2.453 . S
O283 C299 1.245 . S
O284 Tb280 2.596 1_556 S
O284 Tb282 2.343 . S
O284 C299 1.259 1_556 S
O285 Tb280 2.374 . S
O285 C281 1.251 . S
C286 O290 1.275 . S
C286 O291 1.246 . S
O287 C281 1.263 1_556 S
O287 Tb282 2.353 . S
C288 O292 1.245 . S
C288 O293 1.259 . S
C289 O294 1.250 . S
C289 O295 1.263 . S
O290 Tb282 2.427 . S
O290 C286 1.275 . S
O291 Tb282 2.513 . S
O291 C286 1.246 . S
O292 Tb282 2.453 . S
O292 C288 1.245 . S
O293 Tb280 2.343 1_556 S
O293 Tb282 2.596 . S
O293 C288 1.259 . S
O294 Tb282 2.374 . S
O294 C289 1.250 . S
O295 Tb280 2.353 1_556 S
O295 C289 1.263 . S
C296 O297 1.275 . S
C296 O298 1.246 1_556 S
O297 Tb280 2.427 1_556 S
O297 C296 1.275 . S
O298 Tb280 2.513 . S
O298 C296 1.246 1_554 S
C299 O283 1.245 . S
C299 O284 1.259 1_554 S
Tb300 O303 2.453 . S
Tb300 O304 2.596 . S
Tb300 O305 2.374 . S
Tb300 O313 2.343 . S
Tb300 O315 2.353 . S
Tb300 O317 2.427 . S
Tb300 O318 2.513 . S
C301 O305 1.251 . S
C301 O307 1.263 . S
Tb302 O304 2.343 . S
Tb302 O307 2.353 . S
Tb302 O310 2.427 . S
Tb302 O311 2.513 . S
Tb302 O312 2.453 . S
Tb302 O313 2.596 . S
Tb302 O314 2.374 . S
O303 Tb300 2.453 . S
O303 C319 1.245 . S
O304 Tb300 2.596 . S
O304 Tb302 2.343 . S
O304 C319 1.259 . S
O305 Tb300 2.374 . S
O305 C301 1.251 . S
C306 O310 1.275 . S
C306 O311 1.246 . S
O307 C301 1.263 . S
O307 Tb302 2.353 . S
C308 O312 1.245 . S
C308 O313 1.259 . S
C309 O314 1.250 . S
C309 O315 1.263 . S
O310 Tb302 2.427 . S
O310 C306 1.275 . S
O311 Tb302 2.513 . S
O311 C306 1.246 . S
O312 Tb302 2.453 . S
O312 C308 1.245 . S
O313 Tb300 2.343 . S
O313 Tb302 2.596 . S
O313 C308 1.259 . S
O314 Tb302 2.374 . S
O314 C309 1.250 . S
O315 Tb300 2.353 . S
O315 C309 1.263 . S
C316 O317 1.275 . S
C316 O318 1.246 . S
O317 Tb300 2.427 . S
O317 C316 1.275 . S
O318 Tb300 2.513 . S
O318 C316 1.246 . S
C319 O303 1.245 . S
C319 O304 1.259 . S
C320 C321 1.387 . S
C320 H324 0.950 . S
C320 C329 1.390 . S
C321 C320 1.387 . S
C321 C323 1.387 . S
H322 C329 0.950 . S
C323 C321 1.387 . S
C323 C325 1.390 . S
C323 H327 0.950 . S
H324 C320 0.950 . S
C325 C323 1.390 . S
C325 C326 1.387 . S
C325 H328 0.950 . S
C326 C325 1.387 . S
C326 C329 1.387 . S
H327 C323 0.950 . S
H328 C325 0.950 . S
C329 C320 1.390 . S
C329 H322 0.950 . S
C329 C326 1.387 . S
C330 C331 1.387 . S
C330 H334 0.950 . S
C330 C339 1.390 . S
C331 C330 1.387 . S
C331 C333 1.387 . S
H332 C339 0.950 . S
C333 C331 1.387 . S
C333 C335 1.390 . S
C333 H337 0.950 . S
H334 C330 0.950 . S
C335 C333 1.390 . S
C335 C336 1.387 . S
C335 H338 0.950 . S
C336 C335 1.387 . S
C336 C339 1.387 . S
H337 C333 0.950 . S
H338 C335 0.950 . S
C339 C330 1.390 . S
C339 H332 0.950 . S
C339 C336 1.387 . S
C340 C341 1.387 . S
C340 H344 0.950 . S
C340 C349 1.390 1_455 S
C341 C340 1.387 . S
C341 C343 1.387 . S
H342 C349 0.950 . S
C343 C341 1.387 . S
C343 C345 1.390 1_455 S
C343 H347 0.950 . S
H344 C340 0.950 . S
C345 C343 1.390 1_655 S
C345 C346 1.387 . S
C345 H348 0.950 . S
C346 C345 1.387 . S
C346 C349 1.387 . S
H347 C343 0.950 . S
H348 C345 0.950 . S
C349 C340 1.390 1_655 S
C349 H342 0.950 . S
C349 C346 1.387 . S
C350 C351 1.387 . S
C350 H354 0.950 . S
C350 C359 1.390 1_655 S
C351 C350 1.387 . S
C351 C353 1.387 . S
H352 C359 0.950 . S
C353 C351 1.387 . S
C353 C355 1.390 1_655 S
C353 H357 0.950 . S
H354 C350 0.950 . S
C355 C353 1.390 1_455 S
C355 C356 1.387 . S
C355 H358 0.950 . S
C356 C355 1.387 . S
C356 C359 1.387 . S
H357 C353 0.950 . S
H358 C355 0.950 . S
C359 C350 1.390 1_455 S
C359 H352 0.950 . S
C359 C356 1.387 . S
C360 C361 1.387 . S
C360 H364 0.950 . S
C360 C369 1.390 . S
C361 C360 1.387 . S
C361 C363 1.387 . S
H362 C369 0.950 . S
C363 C361 1.387 . S
C363 C365 1.390 . S
C363 H367 0.950 . S
H364 C360 0.950 . S
C365 C363 1.390 . S
C365 C366 1.387 . S
C365 H368 0.950 . S
C366 C365 1.387 . S
C366 C369 1.387 . S
H367 C363 0.950 . S
H368 C365 0.950 . S
C369 C360 1.390 . S
C369 H362 0.950 . S
C369 C366 1.387 . S
C370 C371 1.387 . S
C370 H374 0.950 . S
C370 C379 1.390 . S
C371 C370 1.387 . S
C371 C373 1.387 . S
H372 C379 0.950 . S
C373 C371 1.387 . S
C373 C375 1.390 . S
C373 H377 0.950 . S
H374 C370 0.950 . S
C375 C373 1.390 . S
C375 C376 1.387 . S
C375 H378 0.950 . S
C376 C375 1.387 . S
C376 C379 1.387 . S
H377 C373 0.950 . S
H378 C375 0.950 . S
C379 C370 1.390 . S
C379 H372 0.950 . S
C379 C376 1.387 . S
C380 C381 1.387 . S
C380 H384 0.950 . S
C380 C389 1.390 1_655 S
C381 C380 1.387 . S
C381 C383 1.387 . S
H382 C389 0.950 . S
C383 C381 1.387 . S
C383 C385 1.390 1_655 S
C383 H387 0.950 . S
H384 C380 0.950 . S
C385 C383 1.390 1_455 S
C385 C386 1.387 . S
C385 H388 0.950 . S
C386 C385 1.387 . S
C386 C389 1.387 . S
H387 C383 0.950 . S
H388 C385 0.950 . S
C389 C380 1.390 1_455 S
C389 H382 0.950 . S
C389 C386 1.387 . S
C390 C391 1.387 . S
C390 H394 0.950 . S
C390 C399 1.390 1_455 S
C391 C390 1.387 . S
C391 C393 1.387 . S
H392 C399 0.950 . S
C393 C391 1.387 . S
C393 C395 1.390 1_455 S
C393 H397 0.950 . S
H394 C390 0.950 . S
C395 C393 1.390 1_655 S
C395 C396 1.387 . S
C395 H398 0.950 . S
C396 C395 1.387 . S
C396 C399 1.387 . S
H397 C393 0.950 . S
H398 C395 0.950 . S
C399 C390 1.390 1_655 S
C399 H392 0.950 . S
C399 C396 1.387 . S
C400 C401 1.387 . S
C400 H404 0.950 . S
C400 C409 1.390 . S
C401 C400 1.387 . S
C401 C403 1.387 1_556 S
H402 C409 0.950 . S
C403 C401 1.387 1_554 S
C403 C405 1.390 . S
C403 H407 0.950 . S
H404 C400 0.950 . S
C405 C403 1.390 . S
C405 C406 1.387 . S
C405 H408 0.950 . S
C406 C405 1.387 . S
C406 C409 1.387 1_554 S
H407 C403 0.950 . S
H408 C405 0.950 . S
C409 C400 1.390 . S
C409 H402 0.950 . S
C409 C406 1.387 1_556 S
C410 C411 1.387 . S
C410 H414 0.950 . S
C410 C419 1.390 . S
C411 C410 1.387 . S
C411 C413 1.387 . S
H412 C419 0.950 . S
C413 C411 1.387 . S
C413 C415 1.390 . S
C413 H417 0.950 . S
H414 C410 0.950 . S
C415 C413 1.390 . S
C415 C416 1.387 . S
C415 H418 0.950 . S
C416 C415 1.387 . S
C416 C419 1.387 . S
H417 C413 0.950 . S
H418 C415 0.950 . S
C419 C410 1.390 . S
C419 H412 0.950 . S
C419 C416 1.387 . S
C420 C421 1.387 . S
C420 H424 0.950 . S
C420 C429 1.390 . S
C421 C420 1.387 . S
C421 C423 1.387 . S
H422 C429 0.950 . S
C423 C421 1.387 . S
C423 C425 1.390 . S
C423 H427 0.950 . S
H424 C420 0.950 . S
C425 C423 1.390 . S
C425 C426 1.387 . S
C425 H428 0.950 . S
C426 C425 1.387 . S
C426 C429 1.387 . S
H427 C423 0.950 . S
H428 C425 0.950 . S
C429 C420 1.390 . S
C429 H422 0.950 . S
C429 C426 1.387 . S
C430 C431 1.387 . S
C430 H434 0.950 . S
C430 C439 1.390 . S
C431 C430 1.387 . S
C431 C433 1.387 . S
H432 C439 0.950 . S
C433 C431 1.387 . S
C433 C435 1.390 . S
C433 H437 0.950 . S
H434 C430 0.950 . S
C435 C433 1.390 . S
C435 C436 1.387 . S
C435 H438 0.950 . S
C436 C435 1.387 . S
C436 C439 1.387 . S
H437 C433 0.950 . S
H438 C435 0.950 . S
C439 C430 1.390 . S
C439 H432 0.950 . S
C439 C436 1.387 . S
C440 C441 1.387 1_554 S
C440 H444 0.950 . S
C440 C449 1.390 . S
C441 C440 1.387 1_556 S
C441 C443 1.387 . S
H442 C449 0.950 . S
C443 C441 1.387 . S
C443 C445 1.390 . S
C443 H447 0.950 . S
H444 C440 0.950 . S
C445 C443 1.390 . S
C445 C446 1.387 1_556 S
C445 H448 0.950 . S
C446 C445 1.387 1_554 S
C446 C449 1.387 . S
H447 C443 0.950 . S
H448 C445 0.950 . S
C449 C440 1.390 . S
C449 H442 0.950 . S
C449 C446 1.387 . S
C450 C451 1.387 . S
C450 H454 0.950 . S
C450 C459 1.390 . S
C451 C450 1.387 . S
C451 C453 1.387 . S
H452 C459 0.950 . S
C453 C451 1.387 . S
C453 C455 1.390 . S
C453 H457 0.950 . S
H454 C450 0.950 . S
C455 C453 1.390 . S
C455 C456 1.387 . S
C455 H458 0.950 . S
C456 C455 1.387 . S
C456 C459 1.387 . S
H457 C453 0.950 . S
H458 C455 0.950 . S
C459 C450 1.390 . S
C459 H452 0.950 . S
C459 C456 1.387 . S
C460 C461 1.387 . S
C460 H464 0.950 . S
C460 C469 1.390 . S
C461 C460 1.387 . S
C461 C463 1.387 . S
H462 C469 0.950 . S
C463 C461 1.387 . S
C463 C465 1.390 . S
C463 H467 0.950 . S
H464 C460 0.950 . S
C465 C463 1.390 . S
C465 C466 1.387 . S
C465 H468 0.950 . S
C466 C465 1.387 . S
C466 C469 1.387 . S
H467 C463 0.950 . S
H468 C465 0.950 . S
C469 C460 1.390 . S
C469 H462 0.950 . S
C469 C466 1.387 . S
C470 C471 1.387 . S
C470 H474 0.950 . S
C470 C479 1.390 . S
C471 C470 1.387 . S
C471 C473 1.387 . S
H472 C479 0.950 . S
C473 C471 1.387 . S
C473 C475 1.390 . S
C473 H477 0.950 . S
H474 C470 0.950 . S
C475 C473 1.390 . S
C475 C476 1.387 . S
C475 H478 0.950 . S
C476 C475 1.387 . S
C476 C479 1.387 . S
H477 C473 0.950 . S
H478 C475 0.950 . S
C479 C470 1.390 . S
C479 H472 0.950 . S
C479 C476 1.387 . S
C480 C481 1.387 . S
C480 H484 0.950 . S
C480 C489 1.390 . S
C481 C480 1.387 . S
C481 C483 1.387 . S
H482 C489 0.950 . S
C483 C481 1.387 . S
C483 C485 1.390 . S
C483 H487 0.950 . S
H484 C480 0.950 . S
C485 C483 1.390 . S
C485 C486 1.387 . S
C485 H488 0.950 . S
C486 C485 1.387 . S
C486 C489 1.387 . S
H487 C483 0.950 . S
H488 C485 0.950 . S
C489 C480 1.390 . S
C489 H482 0.950 . S
C489 C486 1.387 . S
C490 C491 1.387 . S
C490 H494 0.950 . S
C490 C499 1.390 . S
C491 C490 1.387 . S
C491 C493 1.387 . S
H492 C499 0.950 . S
C493 C491 1.387 . S
C493 C495 1.390 . S
C493 H497 0.950 . S
H494 C490 0.950 . S
C495 C493 1.390 . S
C495 C496 1.387 . S
C495 H498 0.950 . S
C496 C495 1.387 . S
C496 C499 1.387 . S
H497 C493 0.950 . S
H498 C495 0.950 . S
C499 C490 1.390 . S
C499 H492 0.950 . S
C499 C496 1.387 . S
C500 C501 1.387 1_556 S
C500 H504 0.950 . S
C500 C509 1.390 . S
C501 C500 1.387 1_554 S
C501 C503 1.387 . S
H502 C509 0.950 . S
C503 C501 1.387 . S
C503 C505 1.390 . S
C503 H507 0.950 . S
H504 C500 0.950 . S
C505 C503 1.390 . S
C505 C506 1.387 1_554 S
C505 H508 0.950 . S
C506 C505 1.387 1_556 S
C506 C509 1.387 . S
H507 C503 0.950 . S
H508 C505 0.950 . S
C509 C500 1.390 . S
C509 H502 0.950 . S
C509 C506 1.387 . S
C510 C511 1.387 . S
C510 H514 0.950 . S
C510 C519 1.390 . S
C511 C510 1.387 . S
C511 C513 1.387 . S
H512 C519 0.950 . S
C513 C511 1.387 . S
C513 C515 1.390 . S
C513 H517 0.950 . S
H514 C510 0.950 . S
C515 C513 1.390 . S
C515 C516 1.387 . S
C515 H518 0.950 . S
C516 C515 1.387 . S
C516 C519 1.387 . S
H517 C513 0.950 . S
H518 C515 0.950 . S
C519 C510 1.390 . S
C519 H512 0.950 . S
C519 C516 1.387 . S
C520 C521 1.387 . S
C520 H524 0.950 . S
C520 C529 1.390 . S
C521 C520 1.387 . S
C521 C523 1.387 . S
H522 C529 0.950 . S
C523 C521 1.387 . S
C523 C525 1.390 . S
C523 H527 0.950 . S
H524 C520 0.950 . S
C525 C523 1.390 . S
C525 C526 1.387 . S
C525 H528 0.950 . S
C526 C525 1.387 . S
C526 C529 1.387 . S
H527 C523 0.950 . S
H528 C525 0.950 . S
C529 C520 1.390 . S
C529 H522 0.950 . S
C529 C526 1.387 . S
C530 C531 1.387 . S
C530 H534 0.950 . S
C530 C539 1.390 . S
C531 C530 1.387 . S
C531 C533 1.387 . S
H532 C539 0.950 . S
C533 C531 1.387 . S
C533 C535 1.390 . S
C533 H537 0.950 . S
H534 C530 0.950 . S
C535 C533 1.390 . S
C535 C536 1.387 . S
C535 H538 0.950 . S
C536 C535 1.387 . S
C536 C539 1.387 . S
H537 C533 0.950 . S
H538 C535 0.950 . S
C539 C530 1.390 . S
C539 H532 0.950 . S
C539 C536 1.387 . S
C540 C541 1.387 . S
C540 H544 0.950 . S
C540 C549 1.390 . S
C541 C540 1.387 . S
C541 C543 1.387 1_554 S
H542 C549 0.950 . S
C543 C541 1.387 1_556 S
C543 C545 1.390 . S
C543 H547 0.950 . S
H544 C540 0.950 . S
C545 C543 1.390 . S
C545 C546 1.387 . S
C545 H548 0.950 . S
C546 C545 1.387 . S
C546 C549 1.387 1_556 S
H547 C543 0.950 . S
H548 C545 0.950 . S
C549 C540 1.390 . S
C549 H542 0.950 . S
C549 C546 1.387 1_554 S
C550 C551 1.387 . S
C550 H554 0.950 . S
C550 C559 1.390 . S
C551 C550 1.387 . S
C551 C553 1.387 . S
H552 C559 0.950 . S
C553 C551 1.387 . S
C553 C555 1.390 . S
C553 H557 0.950 . S
H554 C550 0.950 . S
C555 C553 1.390 . S
C555 C556 1.387 . S
C555 H558 0.950 . S
C556 C555 1.387 . S
C556 C559 1.387 . S
H557 C553 0.950 . S
H558 C555 0.950 . S
C559 C550 1.390 . S
C559 H552 0.950 . S
C559 C556 1.387 . S
C560 C561 1.387 . S
C560 H564 0.950 . S
C560 C569 1.390 . S
C561 C560 1.387 . S
C561 C563 1.387 . S
H562 C569 0.950 . S
C563 C561 1.387 . S
C563 C565 1.390 . S
C563 H567 0.950 . S
H564 C560 0.950 . S
C565 C563 1.390 . S
C565 C566 1.387 . S
C565 H568 0.950 . S
C566 C565 1.387 . S
C566 C569 1.387 . S
H567 C563 0.950 . S
H568 C565 0.950 . S
C569 C560 1.390 . S
C569 H562 0.950 . S
C569 C566 1.387 . S
C570 C571 1.387 . S
C570 H574 0.950 . S
C570 C579 1.390 . S
C571 C570 1.387 . S
C571 C573 1.387 . S
H572 C579 0.950 . S
C573 C571 1.387 . S
C573 C575 1.390 . S
C573 H577 0.950 . S
H574 C570 0.950 . S
C575 C573 1.390 . S
C575 C576 1.387 . S
C575 H578 0.950 . S
C576 C575 1.387 . S
C576 C579 1.387 . S
H577 C573 0.950 . S
H578 C575 0.950 . S
C579 C570 1.390 . S
C579 H572 0.950 . S
C579 C576 1.387 . S
C580 C581 1.387 . S
C580 H584 0.950 . S
C580 C589 1.390 . S
C581 C580 1.387 . S
C581 C583 1.387 . S
H582 C589 0.950 . S
C583 C581 1.387 . S
C583 C585 1.390 . S
C583 H587 0.950 . S
H584 C580 0.950 . S
C585 C583 1.390 . S
C585 C586 1.387 . S
C585 H588 0.950 . S
C586 C585 1.387 . S
C586 C589 1.387 . S
H587 C583 0.950 . S
H588 C585 0.950 . S
C589 C580 1.390 . S
C589 H582 0.950 . S
C589 C586 1.387 . S
C590 C591 1.387 . S
C590 H594 0.950 . S
C590 C599 1.390 . S
C591 C590 1.387 . S
C591 C593 1.387 . S
H592 C599 0.950 . S
C593 C591 1.387 . S
C593 C595 1.390 . S
C593 H597 0.950 . S
H594 C590 0.950 . S
C595 C593 1.390 . S
C595 C596 1.387 . S
C595 H598 0.950 . S
C596 C595 1.387 . S
C596 C599 1.387 . S
H597 C593 0.950 . S
H598 C595 0.950 . S
C599 C590 1.390 . S
C599 H592 0.950 . S
C599 C596 1.387 . S
C600 C601 1.387 . S
C600 H604 0.950 1_554 S
C600 C609 1.390 . S
C601 C600 1.387 . S
C601 C603 1.387 . S
H602 C609 0.950 . S
C603 C601 1.387 . S
C603 C605 1.390 . S
C603 H607 0.950 . S
H604 C600 0.950 1_556 S
C605 C603 1.390 . S
C605 C606 1.387 . S
C605 H608 0.950 . S
C606 C605 1.387 . S
C606 C609 1.387 . S
H607 C603 0.950 . S
H608 C605 0.950 . S
C609 C600 1.390 . S
C609 H602 0.950 . S
C609 C606 1.387 . S
C610 C611 1.387 . S
C610 H614 0.950 . S
C610 C619 1.390 . S
C611 C610 1.387 . S
C611 C613 1.387 . S
H612 C619 0.950 . S
C613 C611 1.387 . S
C613 C615 1.390 . S
C613 H617 0.950 . S
H614 C610 0.950 . S
C615 C613 1.390 . S
C615 C616 1.387 . S
C615 H618 0.950 . S
C616 C615 1.387 . S
C616 C619 1.387 . S
H617 C613 0.950 . S
H618 C615 0.950 . S
C619 C610 1.390 . S
C619 H612 0.950 . S
C619 C616 1.387 . S
C620 C621 1.387 . S
C620 H624 0.950 . S
C620 C629 1.390 . S
C621 C620 1.387 . S
C621 C623 1.387 . S
H622 C629 0.950 . S
C623 C621 1.387 . S
C623 C625 1.390 . S
C623 H627 0.950 . S
H624 C620 0.950 . S
C625 C623 1.390 . S
C625 C626 1.387 . S
C625 H628 0.950 . S
C626 C625 1.387 . S
C626 C629 1.387 . S
H627 C623 0.950 . S
H628 C625 0.950 . S
C629 C620 1.390 . S
C629 H622 0.950 . S
C629 C626 1.387 . S
C630 C631 1.387 . S
C630 H634 0.950 . S
C630 C639 1.390 . S
C631 C630 1.387 . S
C631 C633 1.387 . S
H632 C639 0.950 . S
C633 C631 1.387 . S
C633 C635 1.390 . S
C633 H637 0.950 . S
H634 C630 0.950 . S
C635 C633 1.390 . S
C635 C636 1.387 . S
C635 H638 0.950 . S
C636 C635 1.387 . S
C636 C639 1.387 . S
H637 C633 0.950 . S
H638 C635 0.950 . S
C639 C630 1.390 . S
C639 H632 0.950 . S
C639 C636 1.387 . S
C640 C641 1.387 . S
C640 H644 0.950 . S
C640 C649 1.390 . S
C641 C640 1.387 . S
C641 C643 1.387 . S
H642 C649 0.950 . S
C643 C641 1.387 . S
C643 C645 1.390 . S
C643 H647 0.950 . S
H644 C640 0.950 . S
C645 C643 1.390 . S
C645 C646 1.387 . S
C645 H648 0.950 . S
C646 C645 1.387 . S
C646 C649 1.387 . S
H647 C643 0.950 . S
H648 C645 0.950 . S
C649 C640 1.390 . S
C649 H642 0.950 . S
C649 C646 1.387 . S
C650 C651 1.387 . S
C650 H654 0.950 . S
C650 C659 1.390 . S
C651 C650 1.387 . S
C651 C653 1.387 . S
H652 C659 0.950 . S
C653 C651 1.387 . S
C653 C655 1.390 . S
C653 H657 0.950 . S
H654 C650 0.950 . S
C655 C653 1.390 . S
C655 C656 1.387 . S
C655 H658 0.950 . S
C656 C655 1.387 . S
C656 C659 1.387 . S
H657 C653 0.950 . S
H658 C655 0.950 . S
C659 C650 1.390 . S
C659 H652 0.950 . S
C659 C656 1.387 . S
C660 C661 1.387 . S
C660 H664 0.950 . S
C660 C669 1.390 . S
C661 C660 1.387 . S
C661 C663 1.387 . S
H662 C669 0.950 1_554 S
C663 C661 1.387 . S
C663 C665 1.390 . S
C663 H667 0.950 . S
H664 C660 0.950 . S
C665 C663 1.390 . S
C665 C666 1.387 . S
C665 H668 0.950 . S
C666 C665 1.387 . S
C666 C669 1.387 . S
H667 C663 0.950 . S
H668 C665 0.950 . S
C669 C660 1.390 . S
C669 H662 0.950 1_556 S
C669 C666 1.387 . S
C670 C671 1.387 . S
C670 H674 0.950 . S
C670 C679 1.390 . S
C671 C670 1.387 . S
C671 C673 1.387 . S
H672 C679 0.950 . S
C673 C671 1.387 . S
C673 C675 1.390 . S
C673 H677 0.950 . S
H674 C670 0.950 . S
C675 C673 1.390 . S
C675 C676 1.387 . S
C675 H678 0.950 . S
C676 C675 1.387 . S
C676 C679 1.387 . S
H677 C673 0.950 . S
H678 C675 0.950 . S
C679 C670 1.390 . S
C679 H672 0.950 . S
C679 C676 1.387 . S
C680 C681 1.387 . S
C680 H684 0.950 . S
C680 C689 1.390 . S
C681 C680 1.387 . S
C681 C683 1.387 . S
H682 C689 0.950 . S
C683 C681 1.387 . S
C683 C685 1.390 . S
C683 H687 0.950 . S
H684 C680 0.950 . S
C685 C683 1.390 . S
C685 C686 1.387 . S
C685 H688 0.950 . S
C686 C685 1.387 . S
C686 C689 1.387 . S
H687 C683 0.950 . S
H688 C685 0.950 . S
C689 C680 1.390 . S
C689 H682 0.950 . S
C689 C686 1.387 . S
C690 C691 1.387 . S
C690 H694 0.950 . S
C690 C699 1.390 . S
C691 C690 1.387 . S
C691 C693 1.387 . S
H692 C699 0.950 . S
C693 C691 1.387 . S
C693 C695 1.390 . S
C693 H697 0.950 . S
H694 C690 0.950 . S
C695 C693 1.390 . S
C695 C696 1.387 . S
C695 H698 0.950 . S
C696 C695 1.387 . S
C696 C699 1.387 . S
H697 C693 0.950 . S
H698 C695 0.950 . S
C699 C690 1.390 . S
C699 H692 0.950 . S
C699 C696 1.387 . S
C700 C701 1.387 . S
C700 H704 0.950 . S
C700 C709 1.390 . S
C701 C700 1.387 . S
C701 C703 1.387 . S
H702 C709 0.950 . S
C703 C701 1.387 . S
C703 C705 1.390 . S
C703 H707 0.950 1_554 S
H704 C700 0.950 . S
C705 C703 1.390 . S
C705 C706 1.387 . S
C705 H708 0.950 . S
C706 C705 1.387 . S
C706 C709 1.387 . S
H707 C703 0.950 1_556 S
H708 C705 0.950 . S
C709 C700 1.390 . S
C709 H702 0.950 . S
C709 C706 1.387 . S
C710 C711 1.387 . S
C710 H714 0.950 . S
C710 C719 1.390 . S
C711 C710 1.387 . S
C711 C713 1.387 . S
H712 C719 0.950 . S
C713 C711 1.387 . S
C713 C715 1.390 . S
C713 H717 0.950 . S
H714 C710 0.950 . S
C715 C713 1.390 . S
C715 C716 1.387 . S
C715 H718 0.950 . S
C716 C715 1.387 . S
C716 C719 1.387 . S
H717 C713 0.950 . S
H718 C715 0.950 . S
C719 C710 1.390 . S
C719 H712 0.950 . S
C719 C716 1.387 . S
C720 C721 1.387 . S
C720 H724 0.950 . S
C720 C729 1.390 . S
C721 C720 1.387 . S
C721 C723 1.387 . S
H722 C729 0.950 . S
C723 C721 1.387 . S
C723 C725 1.390 . S
C723 H727 0.950 . S
H724 C720 0.950 . S
C725 C723 1.390 . S
C725 C726 1.387 . S
C725 H728 0.950 . S
C726 C725 1.387 . S
C726 C729 1.387 . S
H727 C723 0.950 . S
H728 C725 0.950 . S
C729 C720 1.390 . S
C729 H722 0.950 . S
C729 C726 1.387 . S
C730 C731 1.387 . S
C730 H734 0.950 . S
C730 C739 1.390 . S
C731 C730 1.387 . S
C731 C733 1.387 . S
H732 C739 0.950 . S
C733 C731 1.387 . S
C733 C735 1.390 . S
C733 H737 0.950 . S
H734 C730 0.950 . S
C735 C733 1.390 . S
C735 C736 1.387 . S
C735 H738 0.950 . S
C736 C735 1.387 . S
C736 C739 1.387 . S
H737 C733 0.950 . S
H738 C735 0.950 . S
C739 C730 1.390 . S
C739 H732 0.950 . S
C739 C736 1.387 . S
C740 C741 1.387 . S
C740 H744 0.950 . S
C740 C749 1.390 . S
C741 C740 1.387 . S
C741 C743 1.387 . S
H742 C749 0.950 . S
C743 C741 1.387 . S
C743 C745 1.390 . S
C743 H747 0.950 . S
H744 C740 0.950 . S
C745 C743 1.390 . S
C745 C746 1.387 . S
C745 H748 0.950 . S
C746 C745 1.387 . S
C746 C749 1.387 . S
H747 C743 0.950 . S
H748 C745 0.950 . S
C749 C740 1.390 . S
C749 H742 0.950 . S
C749 C746 1.387 . S
C750 C751 1.387 1_556 S
C750 H754 0.950 . S
C750 C759 1.390 1_455 S
C751 C750 1.387 1_554 S
C751 C753 1.387 . S
H752 C759 0.950 . S
C753 C751 1.387 . S
C753 C755 1.390 1_455 S
C753 H757 0.950 . S
H754 C750 0.950 . S
C755 C753 1.390 1_655 S
C755 C756 1.387 1_554 S
C755 H758 0.950 . S
C756 C755 1.387 1_556 S
C756 C759 1.387 . S
H757 C753 0.950 . S
H758 C755 0.950 . S
C759 C750 1.390 1_655 S
C759 H752 0.950 . S
C759 C756 1.387 . S
C760 C761 1.387 . S
C760 H764 0.950 . S
C760 C769 1.390 . S
C761 C760 1.387 . S
C761 C763 1.387 . S
H762 C769 0.950 . S
C763 C761 1.387 . S
C763 C765 1.390 . S
C763 H767 0.950 . S
H764 C760 0.950 . S
C765 C763 1.390 . S
C765 C766 1.387 . S
C765 H768 0.950 . S
C766 C765 1.387 . S
C766 C769 1.387 . S
H767 C763 0.950 . S
H768 C765 0.950 . S
C769 C760 1.390 . S
C769 H762 0.950 . S
C769 C766 1.387 . S
C770 C771 1.387 . S
C770 H774 0.950 . S
C770 C779 1.390 . S
C771 C770 1.387 . S
C771 C773 1.387 . S
H772 C779 0.950 . S
C773 C771 1.387 . S
C773 C775 1.390 . S
C773 H777 0.950 . S
H774 C770 0.950 . S
C775 C773 1.390 . S
C775 C776 1.387 . S
C775 H778 0.950 . S
C776 C775 1.387 . S
C776 C779 1.387 . S
H777 C773 0.950 . S
H778 C775 0.950 . S
C779 C770 1.390 . S
C779 H772 0.950 . S
C779 C776 1.387 . S
C780 C781 1.387 1_565 S
C780 H784 0.950 . S
C780 C789 1.390 1_455 S
C781 C780 1.387 1_545 S
C781 C783 1.387 1_556 S
H782 C789 0.950 . S
C783 C781 1.387 1_554 S
C783 C785 1.390 1_455 S
C783 H787 0.950 . S
H784 C780 0.950 . S
C785 C783 1.390 1_655 S
C785 C786 1.387 1_545 S
C785 H788 0.950 . S
C786 C785 1.387 1_565 S
C786 C789 1.387 1_554 S
H787 C783 0.950 . S
H788 C785 0.950 . S
C789 C780 1.390 1_655 S
C789 H782 0.950 . S
C789 C786 1.387 1_556 S
C790 C791 1.387 1_565 S
C790 H794 0.950 . S
C790 C799 1.390 . S
C791 C790 1.387 1_545 S
C791 C793 1.387 . S
H792 C799 0.950 . S
C793 C791 1.387 . S
C793 C795 1.390 . S
C793 H797 0.950 . S
H794 C790 0.950 . S
C795 C793 1.390 . S
C795 C796 1.387 1_545 S
C795 H798 0.950 . S
C796 C795 1.387 1_565 S
C796 C799 1.387 . S
H797 C793 0.950 . S
H798 C795 0.950 . S
C799 C790 1.390 . S
C799 H792 0.950 . S
C799 C796 1.387 . S
C321 C16 0.932 . S
C326 C216 0.932 . S
C331 C36 0.924 . S
C336 C236 0.924 . S
C341 C56 0.932 . S
C346 C176 0.932 . S
C351 C76 0.924 . S
C356 C196 0.924 . S
C361 C86 0.932 . S
C366 C286 0.932 . S
C371 C106 0.932 . S
C376 C306 0.932 . S
C381 C126 0.924 . S
C386 C246 0.924 . S
C391 C146 0.932 . S
C396 C266 0.932 . S
C401 C181 1.624 . S
C406 C6 1.688 . S
C411 C201 1.621 . S
C416 C26 1.686 . S
C421 C221 1.623 . S
C426 C46 1.685 . S
C431 C161 1.624 . S
C436 C66 1.687 . S
C441 C96 1.685 . S
C446 C269 1.623 . S
C451 C289 1.621 . S
C456 C116 1.685 . S
C461 C309 1.622 . S
C466 C136 1.685 . S
C471 C249 1.621 . S
C476 C156 1.686 . S
C481 C21 1.622 . S
C486 C166 1.685 . S
C491 C186 1.687 1_565 S
C496 C41 1.625 . S
C501 C206 1.688 . S
C506 C61 1.624 . S
C511 C226 1.688 1_545 S
C516 C1 1.622 . S
C521 C256 1.688 . S
C526 C109 1.624 . S
C531 C129 1.621 . S
C536 C276 1.686 1_545 S
C541 C149 1.622 . S
C546 C296 1.685 . S
C551 C316 1.687 1_565 S
C556 C89 1.624 . S
C561 C8 1.592 . S
C566 C301 1.733 . S
C571 C28 1.593 . S
C576 C81 1.734 . S
C581 C261 1.733 1_455 S
C586 C48 1.590 . S
C591 C121 1.733 . S
C596 C68 1.591 . S
C601 C99 1.590 . S
C606 C229 1.733 . S
C611 C119 1.590 . S
C616 C9 1.733 . S
C621 C189 1.733 1_655 S
C626 C139 1.591 . S
C631 C49 1.733 . S
C636 C159 1.593 . S
C641 C168 1.591 . S
C646 C141 1.733 1_655 S
C651 C188 1.590 . S
C656 C241 1.733 . S
C661 C101 1.734 . S
C666 C208 1.594 . S
C671 C281 1.733 . S
C676 C228 1.591 . S
C681 C259 1.590 . S
C686 C69 1.733 1_455 S
C691 C279 1.591 . S
C696 C169 1.733 . S
C701 C299 1.594 . S
C706 C29 1.734 . S
C711 C209 1.733 . S
C716 C319 1.593 . S
C721 C19 2.027 . S
C726 C248 2.027 . S
C731 C39 2.027 . S
C736 C108 2.027 . S
C741 C59 2.027 . S
C746 C288 2.027 . S
C751 C148 2.027 . S
C756 C79 2.027 . S
C761 C88 2.029 . S
C766 C179 2.029 . S
C771 C219 2.030 . S
C776 C128 2.030 . S
C781 C199 2.027 . S
C786 C268 2.027 . S
C791 C308 2.030 . S
C796 C239 2.030 . S
