# Generated by pormake.
# Topology ukv, (4)-cn, num edge types: 1
# Building blocks:
#     Node 0, Type 0, BuildingBlock: AZAVOO_clean_sbu_0, # of connection points: 4
#     Node 1, Type 0, BuildingBlock: AZAVOO_clean_sbu_0, # of connection points: 4
#     Node 2, Type 0, BuildingBlock: AZAVOO_clean_sbu_0, # of connection points: 4
#     Node 3, Type 0, BuildingBlock: AZAVOO_clean_sbu_0, # of connection points: 4
#     Node 4, Type 0, BuildingBlock: AZAVOO_clean_sbu_0, # of connection points: 4
#     Node 5, Type 0, BuildingBlock: AZAVOO_clean_sbu_0, # of connection points: 4
#     Node 6, Type 0, BuildingBlock: AZAVOO_clean_sbu_0, # of connection points: 4
#     Node 7, Type 0, BuildingBlock: AZAVOO_clean_sbu_0, # of connection points: 4
#     Node 8, Type 0, BuildingBlock: AZAVOO_clean_sbu_0, # of connection points: 4
#     Node 9, Type 0, BuildingBlock: AZAVOO_clean_sbu_0, # of connection points: 4
#     Node 10, Type 0, BuildingBlock: AZAVOO_clean_sbu_0, # of connection points: 4
#     Node 11, Type 0, BuildingBlock: AZAVOO_clean_sbu_0, # of connection points: 4
#     Node 12, Type 0, BuildingBlock: AZAVOO_clean_sbu_0, # of connection points: 4
#     Node 13, Type 0, BuildingBlock: AZAVOO_clean_sbu_0, # of connection points: 4
#     Node 14, Type 0, BuildingBlock: AZAVOO_clean_sbu_0, # of connection points: 4
#     Node 15, Type 0, BuildingBlock: AZAVOO_clean_sbu_0, # of connection points: 4
#     Node 16, Type 0, BuildingBlock: AZAVOO_clean_sbu_0, # of connection points: 4
#     Node 17, Type 0, BuildingBlock: AZAVOO_clean_sbu_0, # of connection points: 4
#     Node 18, Type 0, BuildingBlock: AZAVOO_clean_sbu_0, # of connection points: 4
#     Node 19, Type 0, BuildingBlock: AZAVOO_clean_sbu_0, # of connection points: 4
#     Node 20, Type 0, BuildingBlock: AZAVOO_clean_sbu_0, # of connection points: 4
#     Node 21, Type 0, BuildingBlock: AZAVOO_clean_sbu_0, # of connection points: 4
#     Node 22, Type 0, BuildingBlock: AZAVOO_clean_sbu_0, # of connection points: 4
#     Node 23, Type 0, BuildingBlock: AZAVOO_clean_sbu_0, # of connection points: 4
#     Node 24, Type 0, BuildingBlock: AZAVOO_clean_sbu_0, # of connection points: 4
#     Node 25, Type 0, BuildingBlock: AZAVOO_clean_sbu_0, # of connection points: 4
#     Node 26, Type 0, BuildingBlock: AZAVOO_clean_sbu_0, # of connection points: 4
#     Node 27, Type 0, BuildingBlock: AZAVOO_clean_sbu_0, # of connection points: 4
#     Node 28, Type 0, BuildingBlock: AZAVOO_clean_sbu_0, # of connection points: 4
#     Node 29, Type 0, BuildingBlock: AZAVOO_clean_sbu_0, # of connection points: 4
#     Node 30, Type 0, BuildingBlock: AZAVOO_clean_sbu_0, # of connection points: 4
#     Node 31, Type 0, BuildingBlock: AZAVOO_clean_sbu_0, # of connection points: 4
#     Node 32, Type 0, BuildingBlock: AZAVOO_clean_sbu_0, # of connection points: 4
#     Node 33, Type 0, BuildingBlock: AZAVOO_clean_sbu_0, # of connection points: 4
#     Node 34, Type 0, BuildingBlock: AZAVOO_clean_sbu_0, # of connection points: 4
#     Node 35, Type 0, BuildingBlock: AZAVOO_clean_sbu_0, # of connection points: 4
#     Edge 36, Type (0, 0), BuildingBlock: XIVTED_clean_linker_0, # of connection points: 2
#     Edge 37, Type (0, 0), BuildingBlock: XIVTED_clean_linker_0, # of connection points: 2
#     Edge 38, Type (0, 0), BuildingBlock: XIVTED_clean_linker_0, # of connection points: 2
#     Edge 39, Type (0, 0), BuildingBlock: XIVTED_clean_linker_0, # of connection points: 2
#     Edge 40, Type (0, 0), BuildingBlock: XIVTED_clean_linker_0, # of connection points: 2
#     Edge 41, Type (0, 0), BuildingBlock: XIVTED_clean_linker_0, # of connection points: 2
#     Edge 42, Type (0, 0), BuildingBlock: XIVTED_clean_linker_0, # of connection points: 2
#     Edge 43, Type (0, 0), BuildingBlock: XIVTED_clean_linker_0, # of connection points: 2
#     Edge 44, Type (0, 0), BuildingBlock: XIVTED_clean_linker_0, # of connection points: 2
#     Edge 45, Type (0, 0), BuildingBlock: XIVTED_clean_linker_0, # of connection points: 2
#     Edge 46, Type (0, 0), BuildingBlock: XIVTED_clean_linker_0, # of connection points: 2
#     Edge 47, Type (0, 0), BuildingBlock: XIVTED_clean_linker_0, # of connection points: 2
#     Edge 48, Type (0, 0), BuildingBlock: XIVTED_clean_linker_0, # of connection points: 2
#     Edge 49, Type (0, 0), BuildingBlock: XIVTED_clean_linker_0, # of connection points: 2
#     Edge 50, Type (0, 0), BuildingBlock: XIVTED_clean_linker_0, # of connection points: 2
#     Edge 51, Type (0, 0), BuildingBlock: XIVTED_clean_linker_0, # of connection points: 2
#     Edge 52, Type (0, 0), BuildingBlock: XIVTED_clean_linker_0, # of connection points: 2
#     Edge 53, Type (0, 0), BuildingBlock: XIVTED_clean_linker_0, # of connection points: 2
#     Edge 54, Type (0, 0), BuildingBlock: XIVTED_clean_linker_0, # of connection points: 2
#     Edge 55, Type (0, 0), BuildingBlock: XIVTED_clean_linker_0, # of connection points: 2
#     Edge 56, Type (0, 0), BuildingBlock: XIVTED_clean_linker_0, # of connection points: 2
#     Edge 57, Type (0, 0), BuildingBlock: XIVTED_clean_linker_0, # of connection points: 2
#     Edge 58, Type (0, 0), BuildingBlock: XIVTED_clean_linker_0, # of connection points: 2
#     Edge 59, Type (0, 0), BuildingBlock: XIVTED_clean_linker_0, # of connection points: 2
#     Edge 60, Type (0, 0), BuildingBlock: XIVTED_clean_linker_0, # of connection points: 2
#     Edge 61, Type (0, 0), BuildingBlock: XIVTED_clean_linker_0, # of connection points: 2
#     Edge 62, Type (0, 0), BuildingBlock: XIVTED_clean_linker_0, # of connection points: 2
#     Edge 63, Type (0, 0), BuildingBlock: XIVTED_clean_linker_0, # of connection points: 2
#     Edge 64, Type (0, 0), BuildingBlock: XIVTED_clean_linker_0, # of connection points: 2
#     Edge 65, Type (0, 0), BuildingBlock: XIVTED_clean_linker_0, # of connection points: 2
#     Edge 66, Type (0, 0), BuildingBlock: XIVTED_clean_linker_0, # of connection points: 2
#     Edge 67, Type (0, 0), BuildingBlock: XIVTED_clean_linker_0, # of connection points: 2
#     Edge 68, Type (0, 0), BuildingBlock: XIVTED_clean_linker_0, # of connection points: 2
#     Edge 69, Type (0, 0), BuildingBlock: XIVTED_clean_linker_0, # of connection points: 2
#     Edge 70, Type (0, 0), BuildingBlock: XIVTED_clean_linker_0, # of connection points: 2
#     Edge 71, Type (0, 0), BuildingBlock: XIVTED_clean_linker_0, # of connection points: 2
#     Edge 72, Type (0, 0), BuildingBlock: XIVTED_clean_linker_0, # of connection points: 2
#     Edge 73, Type (0, 0), BuildingBlock: XIVTED_clean_linker_0, # of connection points: 2
#     Edge 74, Type (0, 0), BuildingBlock: XIVTED_clean_linker_0, # of connection points: 2
#     Edge 75, Type (0, 0), BuildingBlock: XIVTED_clean_linker_0, # of connection points: 2
#     Edge 76, Type (0, 0), BuildingBlock: XIVTED_clean_linker_0, # of connection points: 2
#     Edge 77, Type (0, 0), BuildingBlock: XIVTED_clean_linker_0, # of connection points: 2
#     Edge 78, Type (0, 0), BuildingBlock: XIVTED_clean_linker_0, # of connection points: 2
#     Edge 79, Type (0, 0), BuildingBlock: XIVTED_clean_linker_0, # of connection points: 2
#     Edge 80, Type (0, 0), BuildingBlock: XIVTED_clean_linker_0, # of connection points: 2
#     Edge 81, Type (0, 0), BuildingBlock: XIVTED_clean_linker_0, # of connection points: 2
#     Edge 82, Type (0, 0), BuildingBlock: XIVTED_clean_linker_0, # of connection points: 2
#     Edge 83, Type (0, 0), BuildingBlock: XIVTED_clean_linker_0, # of connection points: 2
#     Edge 84, Type (0, 0), BuildingBlock: XIVTED_clean_linker_0, # of connection points: 2
#     Edge 85, Type (0, 0), BuildingBlock: XIVTED_clean_linker_0, # of connection points: 2
#     Edge 86, Type (0, 0), BuildingBlock: XIVTED_clean_linker_0, # of connection points: 2
#     Edge 87, Type (0, 0), BuildingBlock: XIVTED_clean_linker_0, # of connection points: 2
#     Edge 88, Type (0, 0), BuildingBlock: XIVTED_clean_linker_0, # of connection points: 2
#     Edge 89, Type (0, 0), BuildingBlock: XIVTED_clean_linker_0, # of connection points: 2
#     Edge 90, Type (0, 0), BuildingBlock: XIVTED_clean_linker_0, # of connection points: 2
#     Edge 91, Type (0, 0), BuildingBlock: XIVTED_clean_linker_0, # of connection points: 2
#     Edge 92, Type (0, 0), BuildingBlock: XIVTED_clean_linker_0, # of connection points: 2
#     Edge 93, Type (0, 0), BuildingBlock: XIVTED_clean_linker_0, # of connection points: 2
#     Edge 94, Type (0, 0), BuildingBlock: XIVTED_clean_linker_0, # of connection points: 2
#     Edge 95, Type (0, 0), BuildingBlock: XIVTED_clean_linker_0, # of connection points: 2
#     Edge 96, Type (0, 0), BuildingBlock: XIVTED_clean_linker_0, # of connection points: 2
#     Edge 97, Type (0, 0), BuildingBlock: XIVTED_clean_linker_0, # of connection points: 2
#     Edge 98, Type (0, 0), BuildingBlock: XIVTED_clean_linker_0, # of connection points: 2
#     Edge 99, Type (0, 0), BuildingBlock: XIVTED_clean_linker_0, # of connection points: 2
#     Edge 100, Type (0, 0), BuildingBlock: XIVTED_clean_linker_0, # of connection points: 2
#     Edge 101, Type (0, 0), BuildingBlock: XIVTED_clean_linker_0, # of connection points: 2
#     Edge 102, Type (0, 0), BuildingBlock: XIVTED_clean_linker_0, # of connection points: 2
#     Edge 103, Type (0, 0), BuildingBlock: XIVTED_clean_linker_0, # of connection points: 2
#     Edge 104, Type (0, 0), BuildingBlock: XIVTED_clean_linker_0, # of connection points: 2
#     Edge 105, Type (0, 0), BuildingBlock: XIVTED_clean_linker_0, # of connection points: 2
#     Edge 106, Type (0, 0), BuildingBlock: XIVTED_clean_linker_0, # of connection points: 2
#     Edge 107, Type (0, 0), BuildingBlock: XIVTED_clean_linker_0, # of connection points: 2
# Relax obj value: 0.316
# Max RMSD: 0.203
# Mean RMSD: 0.203
data_MOF--net-ukv--node1-AZAVOO_clean_sbu_0--edge1-XIVTED_clean_linker_0
_symmetry_space_group_name_H-M    P1
_symmetry_Int_Tables_number       1
_symmetry_cell_setting            triclinic
loop_
_symmetry_equiv_pos_as_xyz
'x, y, z'
_cell_length_a     98.655261
_cell_length_b     98.677043
_cell_length_c     19.012653
_cell_angle_alpha  90.11063
_cell_angle_beta   89.976559
_cell_angle_gamma 119.99049
loop_
_atom_site_label
_atom_site_type_symbol
_atom_site_fract_x
_atom_site_fract_y
_atom_site_fract_z
_atom_type_partial_charge
Mg0 Mg 0.29574 0.08019 0.28424 0.0
O1 O 0.28543 0.09124 0.21342 0.0
O2 O 0.26407 0.08996 0.2592 0.0
Mg3 Mg 0.25952 0.07572 0.36075 0.0
C4 C 0.27441 0.09439 0.21098 0.0
C5 C 0.31861 0.09582 0.16159 0.0
O6 O 0.31829 0.10758 0.19246 0.0
O7 O 0.27708 0.05549 0.25217 0.0
O8 O 0.25571 0.05373 0.30204 0.0
O9 O 0.30815 0.103 0.34297 0.0
O10 O 0.28474 0.08356 0.37116 0.0
C11 C 0.26247 0.04779 0.26658 0.0
C12 C 0.29569 0.09773 0.38142 0.0
O13 O 0.31127 0.08236 0.19002 0.0
Mg14 Mg 0.90969 0.21285 0.33016 0.0
O15 O 0.89618 0.19069 0.26693 0.0
O16 O 0.8976 0.17063 0.31155 0.0
Mg17 Mg 0.91429 0.18126 0.40614 0.0
C18 C 0.89244 0.17637 0.26573 0.0
C19 C 0.91627 0.23381 0.19211 0.0
O20 O 0.93105 0.23995 0.20994 0.0
O21 O 0.93278 0.21669 0.28677 0.0
O22 O 0.9352 0.19739 0.33533 0.0
O23 O 0.88843 0.20432 0.39769 0.0
O24 O 0.90775 0.19966 0.41953 0.0
C25 C 0.94039 0.20952 0.29636 0.0
C26 C 0.89397 0.19714 0.43453 0.0
O27 O 0.90571 0.22437 0.23399 0.0
Mg28 Mg 0.78079 0.69537 0.27945 0.0
O29 O 0.80186 0.70422 0.20779 0.0
O30 O 0.82262 0.7254 0.25066 0.0
Mg31 Mg 0.8137 0.73132 0.35133 0.0
C32 C 0.81618 0.71475 0.20391 0.0
C33 C 0.77221 0.67183 0.15815 0.0
O34 O 0.78338 0.6708 0.19098 0.0
O35 O 0.776 0.71462 0.24435 0.0
O36 O 0.79627 0.736 0.2907 0.0
O37 O 0.79039 0.68243 0.33936 0.0
O38 O 0.7956 0.7064 0.36524 0.0
C39 C 0.78348 0.72935 0.25582 0.0
C40 C 0.79823 0.69507 0.37626 0.0
O41 O 0.76693 0.68001 0.18585 0.0
Mg42 Mg 0.0853 0.29225 0.11671 0.0
O43 O 0.09629 0.2825 0.19125 0.0
O44 O 0.09381 0.26014 0.15141 0.0
Mg45 Mg 0.07885 0.25452 0.0513 0.0
C46 C 0.09892 0.27117 0.19674 0.0
C47 C 0.1003 0.31563 0.2411 0.0
O48 O 0.11256 0.31515 0.21725 0.0
O49 O 0.06093 0.27467 0.15389 0.0
O50 O 0.05747 0.25192 0.11266 0.0
O51 O 0.10781 0.30337 0.05674 0.0
O52 O 0.08783 0.27983 0.03366 0.0
C53 C 0.05254 0.25989 0.14589 0.0
C54 C 0.10212 0.29035 0.02184 0.0
O55 O 0.08757 0.30874 0.20644 0.0
Mg56 Mg 0.69858 0.79349 0.15107 0.0
O57 O 0.70993 0.81467 0.22171 0.0
O58 O 0.73198 0.83406 0.17762 0.0
Mg59 Mg 0.73569 0.82367 0.07551 0.0
C60 C 0.7215 0.82849 0.22538 0.0
C61 C 0.68385 0.77169 0.28693 0.0
O62 O 0.69157 0.7648 0.26564 0.0
O63 O 0.71619 0.78615 0.18242 0.0
O64 O 0.73841 0.80472 0.13402 0.0
O65 O 0.68746 0.80531 0.09436 0.0
O66 O 0.71011 0.80747 0.06399 0.0
C67 C 0.73075 0.79206 0.16908 0.0
C68 C 0.6999 0.8118 0.05546 0.0
O69 O 0.6833 0.78184 0.2477 0.0
Mg70 Mg 0.20156 0.89775 0.21555 0.0
O71 O 0.18063 0.88771 0.28764 0.0
O72 O 0.16075 0.88949 0.24315 0.0
Mg73 Mg 0.17034 0.90302 0.13937 0.0
C74 C 0.16665 0.88505 0.29136 0.0
C75 C 0.22421 0.90644 0.34968 0.0
O76 O 0.23067 0.92084 0.32601 0.0
O77 O 0.20843 0.92286 0.24349 0.0
O78 O 0.18924 0.92534 0.19386 0.0
O79 O 0.18999 0.87445 0.1605 0.0
O80 O 0.18716 0.89441 0.12876 0.0
C81 C 0.20209 0.93102 0.2281 0.0
C82 C 0.18319 0.87996 0.12097 0.0
O83 O 0.21397 0.89528 0.31246 0.0
Mg84 Mg 0.70451 0.91533 0.65213 0.0
O85 O 0.71406 0.90394 0.72501 0.0
O86 O 0.73579 0.90533 0.68337 0.0
Mg87 Mg 0.74137 0.92016 0.58296 0.0
C88 C 0.72502 0.90076 0.72963 0.0
C89 C 0.6818 0.90125 0.77932 0.0
O90 O 0.68171 0.88871 0.75526 0.0
O91 O 0.72293 0.93949 0.6878 0.0
O92 O 0.74512 0.94202 0.64404 0.0
O93 O 0.69243 0.89273 0.5924 0.0
O94 O 0.71616 0.91214 0.5677 0.0
C95 C 0.73769 0.94744 0.67819 0.0
C96 C 0.70523 0.898 0.55624 0.0
O97 O 0.68879 0.91385 0.74402 0.0
Mg98 Mg 0.08102 0.7801 0.71481 0.0
O99 O 0.0915 0.80089 0.78898 0.0
O100 O 0.09073 0.82132 0.74469 0.0
Mg101 Mg 0.07713 0.8123 0.64073 0.0
C102 C 0.09473 0.81505 0.79295 0.0
C103 C 0.09463 0.77186 0.84363 0.0
O104 O 0.10716 0.784 0.81767 0.0
O105 O 0.05613 0.77389 0.74258 0.0
O106 O 0.05457 0.79374 0.69461 0.0
O107 O 0.10439 0.79106 0.66037 0.0
O108 O 0.08504 0.79499 0.62963 0.0
C109 C 0.04843 0.78077 0.72794 0.0
C110 C 0.09932 0.79839 0.62165 0.0
O111 O 0.08191 0.76608 0.80892 0.0
Mg112 Mg 0.20259 0.28658 0.62066 0.0
O113 O 0.18154 0.27739 0.69223 0.0
O114 O 0.16105 0.25615 0.64796 0.0
Mg115 Mg 0.17019 0.25087 0.54595 0.0
C116 C 0.16727 0.26667 0.69543 0.0
C117 C 0.21454 0.31084 0.74756 0.0
O118 O 0.20574 0.31576 0.71816 0.0
O119 O 0.20749 0.26732 0.65171 0.0
O120 O 0.1877 0.24577 0.60431 0.0
O121 O 0.1928 0.29973 0.56345 0.0
O122 O 0.18801 0.27603 0.5344 0.0
C123 C 0.20049 0.25266 0.63912 0.0
C124 C 0.1852 0.28729 0.52498 0.0
O125 O 0.21655 0.30058 0.71634 0.0
Mg126 Mg 0.89884 0.69113 0.77867 0.0
O127 O 0.88813 0.7015 0.70604 0.0
O128 O 0.88974 0.72308 0.75114 0.0
Mg129 Mg 0.90369 0.72758 0.85376 0.0
C130 C 0.88521 0.71267 0.70305 0.0
C131 C 0.88424 0.66866 0.65245 0.0
O132 O 0.87201 0.66867 0.67975 0.0
O133 O 0.92368 0.70951 0.74841 0.0
O134 O 0.92583 0.73113 0.79733 0.0
O135 O 0.87579 0.679 0.8357 0.0
O136 O 0.89542 0.70228 0.86453 0.0
C137 C 0.93162 0.7241 0.76282 0.0
C138 C 0.88116 0.69151 0.87407 0.0
O139 O 0.89724 0.67578 0.68494 0.0
Mg140 Mg 0.29247 0.19903 0.78888 0.0
O141 O 0.28458 0.17806 0.71717 0.0
O142 O 0.26244 0.1576 0.75473 0.0
Mg143 Mg 0.25537 0.16641 0.85238 0.0
C144 C 0.27381 0.16385 0.71135 0.0
C145 C 0.30926 0.22309 0.66125 0.0
O146 O 0.29985 0.22844 0.67733 0.0
O147 O 0.27384 0.20389 0.74584 0.0
O148 O 0.25162 0.18406 0.78804 0.0
O149 O 0.30447 0.18936 0.85406 0.0
O150 O 0.28019 0.18416 0.87264 0.0
C151 C 0.259 0.19679 0.75326 0.0
C152 C 0.29135 0.18145 0.8875 0.0
O153 O 0.30949 0.21269 0.69988 0.0
Mg154 Mg 0.79 0.09211 0.82934 0.0
O155 O 0.81169 0.10524 0.7615 0.0
O156 O 0.83216 0.10458 0.80667 0.0
Mg157 Mg 0.82245 0.08876 0.90404 0.0
C158 C 0.82609 0.10917 0.75989 0.0
C159 C 0.78138 0.10601 0.70098 0.0
O160 O 0.79325 0.11882 0.72669 0.0
O161 O 0.78607 0.06876 0.79053 0.0
O162 O 0.80586 0.06702 0.83816 0.0
O163 O 0.7986 0.11397 0.89337 0.0
O164 O 0.80404 0.09525 0.91662 0.0
C165 C 0.7934 0.06134 0.80103 0.0
C166 C 0.80624 0.10896 0.93036 0.0
O167 O 0.77614 0.09333 0.73544 0.0
Mg168 Mg 0.96502 0.42416 0.65054 0.0
O169 O 0.9552 0.43568 0.57977 0.0
O170 O 0.9328 0.43274 0.62142 0.0
Mg171 Mg 0.92753 0.41762 0.72059 0.0
C172 C 0.94378 0.4382 0.57592 0.0
C173 C 0.98177 0.41829 0.51717 0.0
O174 O 0.97216 0.40334 0.52842 0.0
O175 O 0.94722 0.39976 0.61201 0.0
O176 O 0.92496 0.39641 0.65895 0.0
O177 O 0.9762 0.44622 0.71411 0.0
O178 O 0.95275 0.42604 0.7361 0.0
C179 C 0.93254 0.39137 0.62342 0.0
C180 C 0.96329 0.44023 0.74981 0.0
O181 O 0.98195 0.42837 0.55965 0.0
Mg182 Mg 0.56086 0.55317 0.67079 0.0
O183 O 0.54604 0.53074 0.6109 0.0
O184 O 0.54567 0.51024 0.66119 0.0
Mg185 Mg 0.56247 0.52064 0.75556 0.0
C186 C 0.54121 0.51616 0.61312 0.0
C187 C 0.56904 0.57335 0.52921 0.0
O188 O 0.58365 0.57871 0.54817 0.0
O189 O 0.58349 0.55501 0.63047 0.0
O190 O 0.58385 0.53511 0.68488 0.0
O191 O 0.53972 0.54639 0.73858 0.0
O192 O 0.55812 0.54059 0.76316 0.0
C193 C 0.59005 0.54695 0.6439 0.0
C194 C 0.54476 0.53915 0.778 0.0
O195 O 0.55808 0.56462 0.57122 0.0
Mg196 Mg 0.46198 0.03784 0.63001 0.0
O197 O 0.48283 0.04707 0.55773 0.0
O198 O 0.50374 0.06772 0.60308 0.0
Mg199 Mg 0.49509 0.0727 0.70727 0.0
C200 C 0.49718 0.05753 0.5545 0.0
C201 C 0.44619 0.01161 0.50939 0.0
O202 O 0.45049 0.00341 0.54818 0.0
O203 O 0.45739 0.05765 0.60344 0.0
O204 O 0.47769 0.07843 0.6531 0.0
O205 O 0.47165 0.02413 0.68442 0.0
O206 O 0.47673 0.04771 0.71673 0.0
C207 C 0.46482 0.0722 0.61883 0.0
C208 C 0.47937 0.03631 0.7243 0.0
O209 O 0.44814 0.02457 0.53245 0.0
Mg210 Mg 0.73886 0.6213 0.52355 0.0
O211 O 0.74697 0.60917 0.59917 0.0
O212 O 0.7429 0.5862 0.56002 0.0
Mg213 Mg 0.72942 0.58269 0.45637 0.0
C214 C 0.74822 0.59705 0.60622 0.0
C215 C 0.756 0.64364 0.6458 0.0
O216 O 0.76704 0.64205 0.61493 0.0
O217 O 0.71351 0.6055 0.55456 0.0
O218 O 0.70832 0.5823 0.51132 0.0
O219 O 0.76186 0.63076 0.46864 0.0
O220 O 0.74082 0.6084 0.44019 0.0
C221 C 0.70408 0.59099 0.5433 0.0
C222 C 0.75555 0.61798 0.4319 0.0
O223 O 0.74268 0.63779 0.61607 0.0
Mg224 Mg 0.38012 0.13719 0.54817 0.0
O225 O 0.39012 0.15736 0.62543 0.0
O226 O 0.41249 0.17746 0.58749 0.0
Mg227 Mg 0.41767 0.169 0.48347 0.0
C228 C 0.40154 0.17121 0.63292 0.0
C229 C 0.36308 0.11228 0.6738 0.0
O230 O 0.37187 0.10638 0.65475 0.0
O231 O 0.39783 0.12995 0.57996 0.0
O232 O 0.42019 0.14946 0.53697 0.0
O233 O 0.36892 0.14905 0.49268 0.0
O234 O 0.39234 0.15272 0.4661 0.0
C235 C 0.41252 0.13634 0.5686 0.0
C236 C 0.38178 0.15657 0.45705 0.0
O237 O 0.36338 0.1233 0.63792 0.0
Mg238 Mg 0.88088 0.24319 0.55021 0.0
O239 O 0.86 0.23214 0.62361 0.0
O240 O 0.83932 0.23235 0.5785 0.0
Mg241 Mg 0.84825 0.24628 0.47549 0.0
C242 C 0.84572 0.22853 0.62691 0.0
C243 C 0.88968 0.23034 0.68095 0.0
O244 O 0.87747 0.21753 0.6573 0.0
O245 O 0.88637 0.26779 0.57931 0.0
O246 O 0.86623 0.26887 0.5314 0.0
O247 O 0.87044 0.21994 0.49433 0.0
O248 O 0.86608 0.23906 0.46471 0.0
C249 C 0.87915 0.27518 0.56531 0.0
C250 C 0.86301 0.22491 0.4557 0.0
O251 O 0.89516 0.24274 0.64424 0.0
Mg252 Mg 0.37505 0.25326 0.04963 0.0
O253 O 0.38664 0.24491 0.12776 0.0
O254 O 0.40953 0.2486 0.0893 0.0
Mg255 Mg 0.41352 0.26177 0.98474 0.0
C256 C 0.39866 0.24347 0.13525 0.0
C257 C 0.35208 0.23725 0.17161 0.0
O258 O 0.354 0.22593 0.14616 0.0
O259 O 0.39122 0.27865 0.07947 0.0
O260 O 0.4143 0.28326 0.03724 0.0
O261 O 0.36519 0.23006 0.99627 0.0
O262 O 0.38788 0.2507 0.9681 0.0
C263 C 0.40578 0.28784 0.06818 0.0
C264 C 0.37805 0.23601 0.96029 0.0
O265 O 0.35822 0.25025 0.13916 0.0
Mg266 Mg 0.76236 0.12276 0.05047 0.0
O267 O 0.7732 0.14409 0.1202 0.0
O268 O 0.772 0.16415 0.07429 0.0
Mg269 Mg 0.75781 0.15423 0.97212 0.0
C270 C 0.77632 0.15821 0.12282 0.0
C271 C 0.75439 0.10172 0.18984 0.0
O272 O 0.73971 0.09596 0.17098 0.0
O273 O 0.73758 0.11677 0.08061 0.0
O274 O 0.73568 0.13622 0.03027 0.0
O275 O 0.78537 0.13356 0.99296 0.0
O276 O 0.7655 0.13669 0.96234 0.0
C277 C 0.72979 0.12355 0.06577 0.0
C278 C 0.77981 0.14028 0.95318 0.0
O279 O 0.76523 0.11086 0.14828 0.0
Mg280 Mg 0.85511 0.61796 0.02088 0.0
O281 O 0.83498 0.60731 0.09767 0.0
O282 O 0.81529 0.58459 0.06037 0.0
Mg283 Mg 0.82427 0.57985 0.95647 0.0
C284 C 0.82132 0.59563 0.10558 0.0
C285 C 0.87873 0.63465 0.15067 0.0
O286 O 0.88497 0.62613 0.13235 0.0
O287 O 0.86326 0.601 0.05244 0.0
O288 O 0.8444 0.57817 0.0099 0.0
O289 O 0.84254 0.62839 0.96561 0.0
O290 O 0.83981 0.60534 0.93845 0.0
C291 C 0.8575 0.58638 0.04132 0.0
C292 C 0.83543 0.61551 0.92965 0.0
O293 O 0.8682 0.63466 0.11204 0.0
Mg294 Mg 0.58019 0.03339 0.133 0.0
O295 O 0.56932 0.04304 0.05701 0.0
O296 O 0.57135 0.06516 0.09726 0.0
Mg297 Mg 0.58554 0.07065 0.19975 0.0
C298 C 0.56655 0.05427 0.05136 0.0
C299 C 0.56545 0.00988 0.01014 0.0
O300 O 0.55319 0.01007 0.03586 0.0
O301 O 0.60502 0.05133 0.10013 0.0
O302 O 0.60753 0.07347 0.14452 0.0
O303 O 0.5573 0.02201 0.19163 0.0
O304 O 0.57714 0.04548 0.21596 0.0
C305 C 0.61313 0.06602 0.11201 0.0
C306 C 0.56289 0.03489 0.2274 0.0
O307 O 0.5784 0.01717 0.04293 0.0
Mg308 Mg 0.95814 0.54093 0.14896 0.0
O309 O 0.94957 0.51949 0.08026 0.0
O310 O 0.92861 0.49859 0.12333 0.0
Mg311 Mg 0.92242 0.50785 0.22218 0.0
C312 C 0.93929 0.50508 0.07685 0.0
C313 C 0.98251 0.54859 0.0342 0.0
O314 O 0.98312 0.53793 0.07315 0.0
O315 O 0.93859 0.54507 0.11063 0.0
O316 O 0.91753 0.52475 0.15854 0.0
O317 O 0.97136 0.53216 0.2121 0.0
O318 O 0.94718 0.52644 0.23627 0.0
C319 C 0.92386 0.53732 0.12222 0.0
C320 C 0.95874 0.52422 0.24874 0.0
O321 O 0.97391 0.55407 0.05464 0.0
Mg322 Mg 0.44159 0.43133 0.1696 0.0
O323 O 0.4635 0.44602 0.10487 0.0
O324 O 0.48458 0.44744 0.15465 0.0
Mg325 Mg 0.47525 0.43135 0.25145 0.0
C326 C 0.47818 0.45124 0.10613 0.0
C327 C 0.43241 0.44405 0.0388 0.0
O328 O 0.44334 0.45725 0.06634 0.0
O329 O 0.43992 0.40862 0.13256 0.0
O330 O 0.46045 0.40918 0.18523 0.0
O331 O 0.4482 0.45292 0.23446 0.0
O332 O 0.45514 0.43537 0.25951 0.0
C333 C 0.44828 0.40241 0.14628 0.0
C334 C 0.45611 0.44856 0.27345 0.0
O335 O 0.42783 0.43141 0.07276 0.0
Mg336 Mg 0.64175 0.7631 0.93102 0.0
O337 O 0.63365 0.77628 0.86101 0.0
O338 O 0.61365 0.77749 0.90805 0.0
Mg339 Mg 0.60744 0.76259 0.00858 0.0
C340 C 0.62383 0.78104 0.85963 0.0
C341 C 0.66379 0.77564 0.80154 0.0
O342 O 0.66567 0.78874 0.82848 0.0
O343 O 0.62131 0.73944 0.89866 0.0
O344 O 0.60104 0.73989 0.94896 0.0
O345 O 0.65597 0.78564 0.9912 0.0
O346 O 0.63184 0.76756 0.01852 0.0
C347 C 0.60674 0.73296 0.91303 0.0
C348 C 0.64366 0.78116 0.03001 0.0
O349 O 0.65589 0.76299 0.83575 0.0
Mg350 Mg 0.23908 0.8788 0.99468 0.0
O351 O 0.22585 0.85719 0.92675 0.0
O352 O 0.22562 0.83639 0.97288 0.0
Mg353 Mg 0.24131 0.84587 0.0711 0.0
C354 C 0.22147 0.8427 0.92535 0.0
C355 C 0.22502 0.88708 0.86696 0.0
O356 O 0.2123 0.87579 0.89612 0.0
O357 O 0.26257 0.88239 0.95798 0.0
O358 O 0.26334 0.86221 0.00712 0.0
O359 O 0.217 0.87032 0.05802 0.0
O360 O 0.23562 0.86484 0.08263 0.0
C361 C 0.26957 0.8747 0.97019 0.0
C362 C 0.22196 0.86277 0.09594 0.0
O363 O 0.23798 0.89237 0.89931 0.0
Mg364 Mg 0.11836 0.35005 0.89699 0.0
O365 O 0.1405 0.35762 0.83485 0.0
O366 O 0.16143 0.37646 0.88881 0.0
Mg367 Mg 0.15174 0.38231 0.98766 0.0
C368 C 0.15518 0.3668 0.83808 0.0
C369 C 0.09911 0.34069 0.75156 0.0
O370 O 0.09523 0.35116 0.76943 0.0
O371 O 0.11693 0.37177 0.86676 0.0
O372 O 0.13724 0.39058 0.92597 0.0
O373 O 0.12483 0.33452 0.95864 0.0
O374 O 0.13104 0.35848 0.99033 0.0
C375 C 0.12529 0.38603 0.88623 0.0
C376 C 0.13206 0.34623 0.00144 0.0
O377 O 0.10658 0.33706 0.79503 0.0
Mg378 Mg 0.41838 0.95722 0.87947 0.0
O379 O 0.42836 0.94714 0.95632 0.0
O380 O 0.42652 0.92504 0.91714 0.0
Mg381 Mg 0.41321 0.92013 0.81215 0.0
C382 C 0.43094 0.93583 0.96335 0.0
C383 C 0.43193 0.98261 0.00023 0.0
O384 O 0.44521 0.98661 0.9683 0.0
O385 O 0.39342 0.93928 0.9077 0.0
O386 O 0.39068 0.91699 0.86411 0.0
O387 O 0.44182 0.96883 0.82574 0.0
O388 O 0.42221 0.94556 0.7966 0.0
C389 C 0.38514 0.92463 0.89551 0.0
C390 C 0.43662 0.95616 0.7886 0.0
O391 O 0.41917 0.9723 0.97251 0.0
Mg392 Mg 0.05267 0.46372 0.91774 0.0
O393 O 0.06437 0.48208 0.00315 0.0
O394 O 0.08713 0.50193 0.96769 0.0
Mg395 Mg 0.09095 0.49492 0.85703 0.0
C396 C 0.07638 0.49541 0.01384 0.0
C397 C 0.02955 0.45466 0.03988 0.0
O398 O 0.03153 0.46821 0.01897 0.0
O399 O 0.06881 0.45371 0.93488 0.0
O400 O 0.09153 0.47296 0.89343 0.0
O401 O 0.04277 0.4781 0.87514 0.0
O402 O 0.06531 0.48061 0.84088 0.0
C403 C 0.08322 0.45925 0.9191 0.0
C404 C 0.05549 0.48557 0.83863 0.0
O405 O 0.03588 0.44833 0.00448 0.0
Mg406 Mg 0.53368 0.58222 0.8884 0.0
O407 O 0.51429 0.5751 0.96814 0.0
O408 O 0.49452 0.57757 0.92735 0.0
Mg409 Mg 0.50292 0.58906 0.8188 0.0
C410 C 0.50076 0.57348 0.97547 0.0
C411 C 0.54152 0.56876 0.01839 0.0
O412 O 0.5285 0.55664 0.99584 0.0
O413 O 0.54291 0.60811 0.90836 0.0
O414 O 0.5238 0.61142 0.86375 0.0
O415 O 0.5198 0.55803 0.84249 0.0
O416 O 0.51789 0.57832 0.80701 0.0
C417 C 0.53717 0.61682 0.89312 0.0
C418 C 0.51289 0.56356 0.80372 0.0
O419 O 0.54799 0.58104 0.98071 0.0
Mg420 Mg 0.04773 0.57739 0.41978 0.0
O421 O 0.06049 0.57143 0.5022 0.0
O422 O 0.08364 0.57568 0.46447 0.0
Mg423 Mg 0.08657 0.58676 0.35524 0.0
C424 C 0.07299 0.57092 0.5114 0.0
C425 C 0.02499 0.56201 0.54316 0.0
O426 O 0.02748 0.55087 0.52026 0.0
O427 O 0.06296 0.60351 0.44115 0.0
O428 O 0.0861 0.60828 0.39908 0.0
O429 O 0.03894 0.55341 0.37419 0.0
O430 O 0.06084 0.57429 0.34061 0.0
C431 C 0.07737 0.61292 0.42731 0.0
C432 C 0.05167 0.55939 0.33726 0.0
O433 O 0.0308 0.57476 0.50883 0.0
Mg434 Mg 0.41851 0.4652 0.38828 0.0
O435 O 0.42521 0.48459 0.46701 0.0
O436 O 0.42176 0.50377 0.42667 0.0
Mg437 Mg 0.41047 0.49507 0.3176 0.0
C438 C 0.42626 0.49787 0.47461 0.0
C439 C 0.41058 0.44288 0.52331 0.0
O440 O 0.39592 0.43697 0.50399 0.0
O441 O 0.39246 0.45536 0.40723 0.0
O442 O 0.38828 0.47379 0.36114 0.0
O443 O 0.44252 0.47955 0.34239 0.0
O444 O 0.4218 0.48059 0.30581 0.0
C445 C 0.38331 0.46052 0.3908 0.0
C446 C 0.43665 0.48601 0.30284 0.0
O447 O 0.42144 0.4525 0.48301 0.0
Mg448 Mg 0.53955 0.96113 0.37632 0.0
O449 O 0.51951 0.95038 0.45378 0.0
O450 O 0.49985 0.92775 0.41559 0.0
Mg451 Mg 0.50856 0.92321 0.3105 0.0
C452 C 0.50585 0.93867 0.46136 0.0
C453 C 0.56258 0.97698 0.50853 0.0
O454 O 0.56832 0.96793 0.49174 0.0
O455 O 0.54789 0.94407 0.40476 0.0
O456 O 0.52886 0.92151 0.3607 0.0
O457 O 0.52671 0.97152 0.32192 0.0
O458 O 0.5243 0.94867 0.29385 0.0
C459 C 0.54205 0.9295 0.39158 0.0
C460 C 0.51979 0.95873 0.28531 0.0
O461 O 0.55265 0.97763 0.46805 0.0
Mg462 Mg 0.23929 0.35135 0.39679 0.0
O463 O 0.22456 0.35847 0.33336 0.0
O464 O 0.22174 0.37691 0.3872 0.0
Mg465 Mg 0.23695 0.38294 0.48712 0.0
C466 C 0.21875 0.3674 0.33621 0.0
C467 C 0.22864 0.32818 0.26646 0.0
O468 O 0.21563 0.32053 0.30274 0.0
O469 O 0.26212 0.37337 0.36851 0.0
O470 O 0.26003 0.39198 0.42656 0.0
O471 O 0.21713 0.33516 0.4571 0.0
O472 O 0.23425 0.35925 0.48945 0.0
C473 C 0.26768 0.38761 0.38745 0.0
C474 C 0.22114 0.34677 0.50004 0.0
O475 O 0.24041 0.33988 0.29413 0.0
Mg476 Mg 0.64511 0.88519 0.43076 0.0
O477 O 0.63571 0.8632 0.3657 0.0
O478 O 0.61543 0.84285 0.41585 0.0
Mg479 Mg 0.61064 0.85303 0.51588 0.0
C480 C 0.62541 0.84878 0.36622 0.0
C481 C 0.65668 0.90523 0.28776 0.0
O482 O 0.64716 0.91033 0.3056 0.0
O483 O 0.62496 0.88912 0.39926 0.0
O484 O 0.6047 0.86935 0.45432 0.0
O485 O 0.65882 0.87637 0.49149 0.0
O486 O 0.63538 0.87202 0.52186 0.0
C487 C 0.61048 0.88162 0.41606 0.0
C488 C 0.64677 0.86951 0.53257 0.0
O489 O 0.65911 0.89678 0.33064 0.0
Mg490 Mg 0.11774 0.75876 0.49593 0.0
O491 O 0.13961 0.77231 0.4308 0.0
O492 O 0.16038 0.7729 0.47945 0.0
Mg493 Mg 0.15068 0.75734 0.57783 0.0
C494 C 0.15414 0.77689 0.43091 0.0
C495 C 0.09641 0.74964 0.35705 0.0
O496 O 0.09121 0.73514 0.37705 0.0
O497 O 0.1147 0.73525 0.46071 0.0
O498 O 0.13497 0.73525 0.51339 0.0
O499 O 0.12587 0.78089 0.55896 0.0
O500 O 0.13115 0.76227 0.58629 0.0
C501 C 0.12268 0.72865 0.47512 0.0
C502 C 0.13316 0.77594 0.59865 0.0
O503 O 0.1055 0.76082 0.39749 0.0
H504 H 0.23316 0.94957 0.26133 0.0
H505 H 0.2307 0.0292 0.25975 0.0
H506 H 0.19101 0.95149 0.22285 0.0
H507 H 0.27352 0.02769 0.24061 0.0
H508 H 0.21583 0.00068 0.25336 0.0
H509 H 0.24798 0.97817 0.2658 0.0
C510 C 0.22697 0.95597 0.2549 0.0
C511 C 0.2108 0.94809 0.24153 0.0
C512 C 0.22847 0.00659 0.2499 0.0
C513 C 0.22775 0.98082 0.24566 0.0
C514 C 0.23697 0.02288 0.25326 0.0
C515 C 0.25339 0.03085 0.25078 0.0
C516 C 0.23643 0.99816 0.245 0.0
C517 C 0.26088 0.02203 0.24232 0.0
C518 C 0.23547 0.9723 0.25666 0.0
C519 C 0.20346 0.95705 0.23301 0.0
N520 N 0.25235 0.00614 0.24052 0.0
N521 N 0.21198 0.97292 0.23513 0.0
H522 H 0.95856 0.23869 0.24019 0.0
H523 H 0.03227 0.22835 0.16051 0.0
H524 H 0.9588 0.19599 0.28686 0.0
H525 H 0.03528 0.27327 0.18644 0.0
H526 H 0.00458 0.21554 0.1933 0.0
H527 H 0.98584 0.25067 0.2035 0.0
C528 C 0.96427 0.23175 0.24197 0.0
C529 C 0.95636 0.21631 0.26696 0.0
C530 C 0.01136 0.2282 0.19207 0.0
C531 C 0.98767 0.23004 0.22541 0.0
C532 C 0.02715 0.23552 0.17342 0.0
C533 C 0.03613 0.25192 0.17078 0.0
C534 C 0.00445 0.23733 0.2071 0.0
C535 C 0.02886 0.26061 0.18808 0.0
C536 C 0.9799 0.23866 0.22156 0.0
C537 C 0.96445 0.20795 0.26835 0.0
N538 N 0.01343 0.25321 0.20498 0.0
N539 N 0.97968 0.21493 0.24791 0.0
H540 H 0.71725 0.76141 0.20999 0.0
H541 H 0.79768 0.76125 0.24645 0.0
H542 H 0.7622 0.80224 0.16889 0.0
H543 H 0.75292 0.71915 0.22074 0.0
H544 H 0.785 0.77681 0.2274 0.0
H545 H 0.73027 0.74615 0.22737 0.0
C546 C 0.72987 0.76723 0.20548 0.0
C547 C 0.73864 0.78315 0.18782 0.0
C548 C 0.77799 0.76417 0.2254 0.0
C549 C 0.75358 0.76567 0.20701 0.0
C550 C 0.78521 0.75527 0.23612 0.0
C551 C 0.77635 0.73886 0.2353 0.0
C552 C 0.76174 0.75661 0.2148 0.0
C553 C 0.76024 0.73176 0.22156 0.0
C554 C 0.73727 0.75846 0.21472 0.0
C555 C 0.75496 0.79 0.18217 0.0
N556 N 0.75343 0.74068 0.21255 0.0
N557 N 0.7619 0.78122 0.19176 0.0
H558 H 0.7253 0.96532 0.72256 0.0
H559 H 0.80666 0.04261 0.79555 0.0
H560 H 0.76948 0.96736 0.68531 0.0
H561 H 0.76371 0.04262 0.75152 0.0
H562 H 0.79342 0.01464 0.76706 0.0
H563 H 0.73936 0.99322 0.74923 0.0
C564 C 0.73797 0.97158 0.72066 0.0
C565 C 0.74621 0.96397 0.70137 0.0
C566 C 0.78698 0.02084 0.76318 0.0
C567 C 0.76237 0.99598 0.73153 0.0
C568 C 0.79451 0.03679 0.7793 0.0
C569 C 0.78628 0.04498 0.77612 0.0
C570 C 0.77107 0.01302 0.74492 0.0
C571 C 0.77055 0.03683 0.75465 0.0
C572 C 0.74598 0.98755 0.73532 0.0
C573 C 0.76264 0.97276 0.69961 0.0
N574 N 0.76343 0.02128 0.74059 0.0
N575 N 0.77021 0.98832 0.71457 0.0
H576 H 0.02891 0.74978 0.75895 0.0
H577 H 0.95118 0.75581 0.76013 0.0
H578 H 0.02898 0.79307 0.72462 0.0
H579 H 0.9509 0.71217 0.73532 0.0
H580 H 0.97973 0.7698 0.75497 0.0
H581 H 0.00031 0.73595 0.76303 0.0
C582 C 0.02294 0.75643 0.75334 0.0
C583 C 0.03138 0.77262 0.7412 0.0
C584 C 0.97342 0.75717 0.75003 0.0
C585 C -0.00135 0.75681 0.74494 0.0
C586 C 0.95711 0.74917 0.7527 0.0
C587 C 0.94862 0.73278 0.74824 0.0
C588 C 0.98133 0.74872 0.74384 0.0
C589 C 0.95695 0.72481 0.73863 0.0
C590 C 0.00661 0.74848 0.7549 0.0
C591 C 0.02297 0.78058 0.73377 0.0
N592 N 0.97286 0.73285 0.7375 0.0
N593 N 0.00709 0.77259 0.73565 0.0
H594 H 0.27088 0.22695 0.70799 0.0
H595 H 0.18817 0.22076 0.64006 0.0
H596 H 0.22718 0.18411 0.74165 0.0
H597 H 0.23075 0.26423 0.68199 0.0
H598 H 0.20223 0.20659 0.66301 0.0
H599 H 0.25629 0.24019 0.68008 0.0
C600 C 0.25822 0.22025 0.70862 0.0
C601 C 0.25026 0.20439 0.72759 0.0
C602 C 0.20843 0.21923 0.66748 0.0
C603 C 0.23349 0.21957 0.6962 0.0
C604 C 0.20042 0.22732 0.65454 0.0
C605 C 0.20828 0.24373 0.65917 0.0
C606 C 0.22443 0.22761 0.68404 0.0
C607 C 0.22417 0.2516 0.67807 0.0
C608 C 0.2499 0.22787 0.69328 0.0
C609 C 0.23381 0.19637 0.72775 0.0
N610 N 0.23174 0.24348 0.68925 0.0
N611 N 0.22595 0.20406 0.71242 0.0
H612 H 0.90985 0.2952 0.59986 0.0
H613 H 0.90099 0.3712 0.6147 0.0
H614 H 0.86601 0.29391 0.56332 0.0
H615 H 0.9455 0.37319 0.59144 0.0
H616 H 0.88778 0.34277 0.60278 0.0
H617 H 0.9229 0.32371 0.60865 0.0
C618 C 0.90292 0.30087 0.59466 0.0
C619 C 0.88681 0.29213 0.58062 0.0
C620 C 0.90043 0.34945 0.59961 0.0
C621 C 0.90172 0.32475 0.58978 0.0
C622 C 0.90798 0.36568 0.60612 0.0
C623 C 0.92439 0.3746 0.60422 0.0
C624 C 0.90934 0.34203 0.5921 0.0
C625 C 0.93283 0.36681 0.59294 0.0
C626 C 0.91042 0.31716 0.59891 0.0
C627 C 0.87846 0.30016 0.57387 0.0
N628 N 0.92521 0.35094 0.5881 0.0
N629 N 0.88602 0.31601 0.57845 0.0
H630 H 0.60568 0.53057 0.63689 0.0
H631 H 0.68875 0.60677 0.5783 0.0
H632 H 0.61136 0.57616 0.59617 0.0
H633 H 0.68113 0.56008 0.54767 0.0
H634 H 0.66068 0.59572 0.59665 0.0
H635 H 0.63348 0.54108 0.61207 0.0
C636 C 0.61273 0.54274 0.62191 0.0
C637 C 0.60618 0.55251 0.61879 0.0
C638 C 0.66517 0.58791 0.58595 0.0
C639 C 0.63805 0.56465 0.59178 0.0
C640 C 0.68122 0.59418 0.57614 0.0
C641 C 0.68734 0.58434 0.56137 0.0
C642 C 0.65515 0.57165 0.58185 0.0
C643 C 0.67694 0.56812 0.55874 0.0
C644 C 0.6286 0.54873 0.6079 0.0
C645 C 0.61588 0.56818 0.59899 0.0
N646 N 0.66136 0.56228 0.56903 0.0
N647 N 0.63137 0.57381 0.58706 0.0
H648 H 0.44407 0.14737 0.57496 0.0
H649 H 0.43443 0.06215 0.58112 0.0
H650 H 0.3994 0.10498 0.59527 0.0
H651 H 0.47827 0.10411 0.62565 0.0
H652 H 0.42174 0.07793 0.57272 0.0
H653 H 0.4571 0.13191 0.5844 0.0
C654 C 0.437 0.13484 0.58218 0.0
C655 C 0.4206 0.12747 0.58425 0.0
C656 C 0.43415 0.08368 0.5841 0.0
C657 C 0.43545 0.10969 0.59364 0.0
C658 C 0.44145 0.0747 0.58821 0.0
C659 C 0.45745 0.0818 0.60434 0.0
C660 C 0.44293 0.09989 0.59546 0.0
C661 C 0.4659 0.09812 0.61341 0.0
C662 C 0.44446 0.12602 0.58736 0.0
C663 C 0.41206 0.11118 0.59372 0.0
N664 N 0.45854 0.10661 0.60888 0.0
N665 N 0.41958 0.10282 0.59735 0.0
H666 H 0.43681 0.3104 0.07367 0.0
H667 H 0.41918 0.38089 0.09769 0.0
H668 H 0.39034 0.30381 0.09644 0.0
H669 H 0.46442 0.38646 0.14709 0.0
H670 H 0.40904 0.35295 0.07916 0.0
H671 H 0.44766 0.33864 0.08703 0.0
C672 C 0.42889 0.31486 0.08204 0.0
C673 C 0.41263 0.3047 0.08402 0.0
C674 C 0.42121 0.36032 0.09369 0.0
C675 C 0.42496 0.33699 0.09785 0.0
C676 C 0.42706 0.37631 0.10359 0.0
C677 C 0.44267 0.38605 0.1244 0.0
C678 C 0.43106 0.35404 0.10389 0.0
C679 C 0.45228 0.37938 0.13155 0.0
C680 C 0.4351 0.33098 0.08947 0.0
C681 C 0.40294 0.31117 0.09495 0.0
N682 N 0.44632 0.36378 0.12147 0.0
N683 N 0.40925 0.3269 0.10086 0.0
H684 H 0.71074 0.13627 0.06792 0.0
H685 H 0.63188 0.05351 0.0827 0.0
H686 H 0.71012 0.09257 0.09647 0.0
H687 H 0.6332 0.09764 0.10886 0.0
H688 H 0.66047 0.06761 0.07553 0.0
H689 H 0.68224 0.12228 0.07547 0.0
C690 C 0.70462 0.12375 0.07663 0.0
C691 C 0.71285 0.11558 0.08146 0.0
C692 C 0.65447 0.07418 0.08253 0.0
C693 C 0.68016 0.09944 0.0887 0.0
C694 C 0.63814 0.06617 0.08583 0.0
C695 C 0.63011 0.0744 0.09661 0.0
C696 C 0.66281 0.09055 0.08939 0.0
C697 C 0.63888 0.09079 0.10086 0.0
C698 C 0.68834 0.11576 0.08067 0.0
C699 C 0.70428 0.09936 0.0928 0.0
N700 N 0.65475 0.09831 0.09737 0.0
N701 N 0.68838 0.09179 0.09533 0.0
H702 H 0.88859 0.60093 0.07666 0.0
H703 H 0.89194 0.52214 0.11162 0.0
H704 H 0.84838 0.55516 0.04195 0.0
H705 H 0.93308 0.56762 0.08616 0.0
H706 H 0.87557 0.53393 0.09288 0.0
H707 H 0.90478 0.58884 0.09107 0.0
C708 C 0.8831 0.58832 0.0729 0.0
C709 C 0.86706 0.57905 0.05804 0.0
C710 C 0.88818 0.5413 0.09077 0.0
C711 C 0.88563 0.56516 0.07376 0.0
C712 C 0.89754 0.53459 0.10129 0.0
C713 C 0.91393 0.54391 0.10064 0.0
C714 C 0.89523 0.55751 0.08048 0.0
C715 C 0.92051 0.55996 0.08686 0.0
C716 C 0.89241 0.58145 0.08044 0.0
C717 C 0.86068 0.56278 0.05319 0.0
N718 N 0.91114 0.56628 0.07809 0.0
N719 N 0.86998 0.55635 0.06107 0.0
H720 H 0.61524 0.71124 0.87849 0.0
H721 H 0.52791 0.63873 0.88919 0.0
H722 H 0.57473 0.71622 0.91462 0.0
H723 H 0.56892 0.63406 0.91259 0.0
H724 H 0.54472 0.66714 0.88683 0.0
H725 H 0.59815 0.68284 0.8743 0.0
C726 C 0.60274 0.7064 0.88425 0.0
C727 C 0.59642 0.71614 0.89738 0.0
C728 C 0.55003 0.6599 0.89291 0.0
C729 C 0.57686 0.68366 0.89361 0.0
C730 C 0.54044 0.64368 0.89454 0.0
C731 C 0.54701 0.63398 0.90117 0.0
C732 C 0.56633 0.66649 0.89706 0.0
C733 C 0.56333 0.64107 0.90783 0.0
C734 C 0.59301 0.69017 0.88265 0.0
C735 C 0.58012 0.70917 0.90488 0.0
N736 N 0.57244 0.6569 0.90503 0.0
N737 N 0.57092 0.69336 0.90318 0.0
H738 H 0.36415 0.89308 0.8971 0.0
H739 H 0.28974 0.9045 0.92509 0.0
H740 H 0.36733 0.938 0.92644 0.0
H741 H 0.2873 0.86039 0.96881 0.0
H742 H 0.31793 0.91641 0.90732 0.0
H743 H 0.33568 0.88042 0.90966 0.0
C744 C 0.35889 0.90027 0.90675 0.0
C745 C 0.36816 0.91663 0.91079 0.0
C746 C 0.3112 0.9041 0.92045 0.0
C747 C 0.33563 0.90224 0.9237 0.0
C748 C 0.29507 0.89725 0.92993 0.0
C749 C 0.28613 0.88143 0.94892 0.0
C750 C 0.31843 0.89506 0.92926 0.0
C751 C 0.29374 0.87265 0.9547 0.0
C752 C 0.34266 0.89303 0.91371 0.0
C753 C 0.36069 0.92535 0.92329 0.0
N754 N 0.30946 0.8796 0.94508 0.0
N755 N 0.34486 0.91806 0.92871 0.0
H756 H 0.09545 0.37933 0.85428 0.0
H757 H 0.11409 0.46738 0.91054 0.0
H758 H 0.14187 0.41796 0.89489 0.0
H759 H 0.06765 0.42719 0.92565 0.0
H760 H 0.12459 0.44984 0.893 0.0
H761 H 0.08522 0.39733 0.86263 0.0
C762 C 0.10355 0.39164 0.86327 0.0
C763 C 0.11954 0.39712 0.87438 0.0
C764 C 0.11211 0.44486 0.90061 0.0
C765 C 0.10785 0.4177 0.88529 0.0
C766 C 0.10611 0.45486 0.91106 0.0
C767 C 0.08995 0.44877 0.91979 0.0
C768 C 0.10188 0.42862 0.89799 0.0
C769 C 0.08019 0.43243 0.9197 0.0
C770 C 0.09767 0.40187 0.86899 0.0
C771 C 0.12944 0.4132 0.88648 0.0
N772 N 0.08629 0.42293 0.90835 0.0
N773 N 0.12343 0.42289 0.89205 0.0
H774 H 0.06152 0.6288 0.45116 0.0
H775 H 0.13872 0.71277 0.46806 0.0
H776 H 0.10813 0.63593 0.42477 0.0
H777 H 0.09253 0.70662 0.44086 0.0
H778 H 0.12768 0.68457 0.45608 0.0
H779 H 0.07259 0.6572 0.45551 0.0
C780 C 0.07409 0.63631 0.44704 0.0
C781 C 0.08391 0.62995 0.43756 0.0
C782 C 0.11997 0.68939 0.452 0.0
C783 C 0.0966 0.66243 0.44178 0.0
C784 C 0.12627 0.7055 0.45859 0.0
C785 C 0.11653 0.71207 0.45567 0.0
C786 C 0.10375 0.67969 0.44338 0.0
C787 C 0.10049 0.70207 0.44318 0.0
C788 C 0.08037 0.65252 0.44883 0.0
C789 C 0.10009 0.64028 0.43195 0.0
N790 N 0.09456 0.68635 0.43834 0.0
N791 N 0.10592 0.65599 0.43422 0.0
H792 H 0.36735 0.4288 0.41152 0.0
H793 H 0.28249 0.41959 0.3941 0.0
H794 H 0.36021 0.46815 0.38089 0.0
H795 H 0.2911 0.38143 0.35509 0.0
H796 H 0.31073 0.43765 0.3963 0.0
H797 H 0.33909 0.41123 0.40344 0.0
C798 C 0.35984 0.43378 0.40417 0.0
C799 C 0.36619 0.45 0.39676 0.0
C800 C 0.30642 0.42535 0.38644 0.0
C801 C 0.33384 0.4299 0.38654 0.0
C802 C 0.29031 0.41504 0.38482 0.0
C803 C 0.2844 0.39895 0.37459 0.0
C804 C 0.31672 0.41951 0.37894 0.0
C805 C 0.2951 0.39373 0.36288 0.0
C806 C 0.34372 0.42371 0.39871 0.0
C807 C 0.35585 0.45573 0.38669 0.0
N808 N 0.31074 0.40395 0.36634 0.0
N809 N 0.34019 0.44569 0.38187 0.0
H810 H 0.53248 0.89826 0.39243 0.0
H811 H 0.61948 0.91197 0.38162 0.0
H812 H 0.57377 0.94384 0.41243 0.0
H813 H 0.57854 0.86684 0.41765 0.0
H814 H 0.60271 0.9237 0.37783 0.0
H815 H 0.54909 0.88642 0.3919 0.0
C816 C 0.54503 0.90577 0.39759 0.0
C817 C 0.55173 0.92208 0.40254 0.0
C818 C 0.59741 0.91122 0.38607 0.0
C819 C 0.57083 0.9086 0.40038 0.0
C820 C 0.60695 0.90448 0.38738 0.0
C821 C 0.60041 0.8884 0.40034 0.0
C822 C 0.58123 0.90179 0.39712 0.0
C823 C 0.5841 0.8793 0.40801 0.0
C824 C 0.55451 0.89901 0.39694 0.0
C825 C 0.56807 0.93122 0.40897 0.0
N826 N 0.57509 0.88612 0.40654 0.0
N827 N 0.57708 0.92436 0.40706 0.0
H828 H 0.26671 0.16543 0.97681 0.0
H829 H 0.29436 0.10551 0.0985 0.0
H830 H 0.30921 0.16752 0.90481 0.0
H831 H 0.25631 0.10825 0.19675 0.0
H832 H 0.29811 0.12625 0.01795 0.0
H833 H 0.26129 0.14297 0.05003 0.0
C834 C 0.27491 0.16116 0.97635 0.0
C835 C 0.28843 0.16835 0.9345 0.0
C836 C 0.28888 0.12226 0.05682 0.0
C837 C 0.28225 0.14258 0.01814 0.0
C838 C 0.28666 0.11034 0.10281 0.0
C839 C 0.27507 0.10519 0.15521 0.0
C840 C 0.27942 0.12909 0.06281 0.0
C841 C 0.2654 0.11185 0.15745 0.0
C842 C 0.2718 0.14833 0.01825 0.0
C843 C 0.29869 0.16238 0.93645 0.0
N844 N 0.26786 0.12353 0.11222 0.0
N845 N 0.29536 0.14981 0.97744 0.0
H846 H 0.82062 0.14082 0.94465 0.0
H847 H 0.87768 0.14427 0.25355 0.0
H848 H 0.82001 0.10007 0.03015 0.0
H849 H 0.88023 0.18516 0.15788 0.0
H850 H 0.85652 0.1278 0.17215 0.0
H851 H 0.84208 0.15731 0.0249 0.0
C852 C 0.8249 0.13536 0.98085 0.0
C853 C 0.81852 0.1191 0.98092 0.0
C854 C 0.86178 0.14039 0.16886 0.0
C855 C 0.84319 0.13779 0.07194 0.0
C856 C 0.87391 0.1498 0.21512 0.0
C857 C 0.88073 0.16613 0.21288 0.0
C858 C 0.85641 0.14737 0.12017 0.0
C859 C 0.8753 0.17263 0.16198 0.0
C860 C 0.83723 0.14475 0.02619 0.0
C861 C 0.82465 0.11259 0.02806 0.0
N862 N 0.86344 0.16324 0.118 0.0
N863 N 0.83664 0.12195 0.0716 0.0
H864 H 0.84898 0.67546 0.88377 0.0
H865 H 0.84811 0.73161 0.1872 0.0
H866 H 0.89044 0.71445 0.97253 0.0
H867 H 0.80619 0.69395 0.09411 0.0
H868 H 0.86375 0.72609 0.10488 0.0
H869 H 0.83291 0.68206 0.95933 0.0
C870 C 0.85469 0.68535 0.91927 0.0
C871 C 0.87106 0.69447 0.92155 0.0
C872 C 0.85112 0.7191 0.10218 0.0
C873 C 0.85284 0.70216 0.00749 0.0
C874 C 0.84218 0.72232 0.14896 0.0
C875 C 0.8258 0.71316 0.14816 0.0
C876 C 0.84365 0.7066 0.05434 0.0
C877 C 0.81878 0.70124 0.09729 0.0
C878 C 0.84554 0.68917 0.96204 0.0
C879 C 0.87786 0.70719 0.96838 0.0
N880 N 0.82774 0.69823 0.05286 0.0
N881 N 0.86874 0.71065 0.00935 0.0
H882 H 0.17161 0.26531 0.42244 0.0
H883 H 0.10994 0.29133 0.30887 0.0
H884 H 0.16938 0.30369 0.51977 0.0
H885 H 0.11298 0.25333 0.21188 0.0
H886 H 0.13067 0.29526 0.39043 0.0
H887 H 0.14956 0.26035 0.34775 0.0
C888 C 0.16649 0.27275 0.42798 0.0
C889 C 0.1724 0.285 0.47724 0.0
C890 C 0.12674 0.286 0.35164 0.0
C891 C 0.14701 0.27932 0.39165 0.0
C892 C 0.11486 0.2837 0.30502 0.0
C893 C 0.10977 0.27206 0.2528 0.0
C894 C 0.13363 0.27658 0.34619 0.0
C895 C 0.1165 0.26246 0.25108 0.0
C896 C 0.15387 0.26989 0.38525 0.0
C897 C 0.16534 0.29428 0.48179 0.0
N898 N 0.12816 0.26501 0.29672 0.0
N899 N 0.15299 0.29123 0.43954 0.0
H900 H 0.70304 0.81958 0.34258 0.0
H901 H 0.72835 0.90699 0.4585 0.0
H902 H 0.73921 0.86056 0.2378 0.0
H903 H 0.68906 0.86595 0.54737 0.0
H904 H 0.73391 0.89022 0.38379 0.0
H905 H 0.69964 0.83641 0.4258 0.0
C906 C 0.71043 0.83214 0.33747 0.0
C907 C 0.72136 0.83866 0.2825 0.0
C908 C 0.72406 0.88486 0.41953 0.0
C909 C 0.71736 0.85804 0.37776 0.0
C910 C 0.72086 0.89442 0.46225 0.0
C911 C 0.70816 0.88783 0.50901 0.0
C912 C 0.71451 0.86855 0.42367 0.0
C913 C 0.69884 0.8715 0.51142 0.0
C914 C 0.70841 0.84175 0.38498 0.0
C915 C 0.73065 0.85501 0.27917 0.0
N916 N 0.70221 0.86241 0.46937 0.0
N917 N 0.72834 0.86415 0.32579 0.0
H918 H 0.13469 0.87091 0.30583 0.0
H919 H 0.13147 0.81519 0.61998 0.0
H920 H 0.17583 0.87497 0.40622 0.0
H921 H 0.09071 0.81174 0.51915 0.0
H922 H 0.1481 0.83775 0.54512 0.0
H923 H 0.1184 0.85038 0.38955 0.0
C924 C 0.14031 0.86769 0.34609 0.0
C925 C 0.15666 0.87461 0.34843 0.0
C926 C 0.13551 0.83204 0.53945 0.0
C927 C 0.13808 0.85091 0.44377 0.0
C928 C 0.12606 0.81909 0.58167 0.0
C929 C 0.10973 0.81154 0.57544 0.0
C930 C 0.12853 0.83744 0.49077 0.0
C931 C 0.10326 0.81725 0.52594 0.0
C932 C 0.131 0.85587 0.39362 0.0
C933 C 0.16327 0.86988 0.40184 0.0
N934 N 0.11266 0.82981 0.48556 0.0
N935 N 0.15397 0.85825 0.44689 0.0
H936 H 0.74072 0.88439 0.74032 0.0
H937 H 0.68714 0.83096 0.05734 0.0
H938 H 0.70613 0.89173 0.8457 0.0
H939 H 0.72146 0.82353 0.95034 0.0
H940 H 0.6945 0.85386 0.98304 0.0
H941 H 0.73512 0.86319 0.82251 0.0
C942 C 0.73213 0.88172 0.78133 0.0
C943 C 0.72378 0.88976 0.78553 0.0
C944 C 0.7004 0.84719 0.97574 0.0
C945 C 0.7171 0.86533 0.87909 0.0
C946 C 0.69606 0.83402 0.01758 0.0
C947 C 0.70355 0.82523 0.00935 0.0
C948 C 0.71235 0.8516 0.92547 0.0
C949 C 0.71537 0.82998 0.95842 0.0
C950 C 0.72884 0.86953 0.82795 0.0
C951 C 0.71272 0.88573 0.83976 0.0
N952 N 0.71938 0.84282 0.91839 0.0
N953 N 0.70962 0.87373 0.88397 0.0
H954 H 0.11053 0.84709 0.80558 0.0
H955 H 0.16506 0.8478 0.12003 0.0
H956 H 0.10373 0.80528 0.90961 0.0
H957 H 0.17073 0.88928 0.01734 0.0
H958 H 0.14209 0.8319 0.04591 0.0
H959 H 0.13156 0.8628 0.8884 0.0
C960 C 0.11326 0.84121 0.84646 0.0
C961 C 0.10543 0.82482 0.84997 0.0
C962 C 0.14838 0.84449 0.03969 0.0
C963 C 0.12974 0.84273 0.9443 0.0
C964 C 0.16157 0.85354 0.08151 0.0
C965 C 0.16985 0.86987 0.07465 0.0
C966 C 0.14349 0.85186 0.99072 0.0
C967 C 0.16466 0.87673 0.02469 0.0
C968 C 0.12538 0.85018 0.89347 0.0
C969 C 0.10957 0.81787 0.90417 0.0
N970 N 0.15185 0.86771 0.98472 0.0
N971 N 0.12152 0.82684 0.9487 0.0
H972 H 0.13526 0.24958 0.71068 0.0
H973 H 0.13413 0.30562 0.01359 0.0
H974 H 0.17691 0.28702 0.80662 0.0
H975 H 0.09251 0.2666 0.92659 0.0
H976 H 0.15008 0.29874 0.9392 0.0
H977 H 0.11936 0.25483 0.79301 0.0
C978 C 0.14107 0.25874 0.74961 0.0
C979 C 0.15745 0.26793 0.75123 0.0
C980 C 0.13745 0.29168 0.9364 0.0
C981 C 0.13933 0.27417 0.84493 0.0
C982 C 0.12837 0.29571 0.97838 0.0
C983 C 0.112 0.28676 0.97587 0.0
C984 C 0.13009 0.2786 0.89152 0.0
C985 C 0.10511 0.27382 0.93033 0.0
C986 C 0.13199 0.2618 0.79637 0.0
C987 C 0.16432 0.27968 0.80288 0.0
N988 N 0.11417 0.27015 0.88988 0.0
N989 N 0.15524 0.28254 0.84716 0.0
H990 H 0.81232 0.67713 0.38761 0.0
H991 H 0.87193 0.73125 0.68801 0.0
H992 H 0.81377 0.71852 0.47143 0.0
H993 H 0.87359 0.69247 0.59117 0.0
H994 H 0.85115 0.72725 0.60623 0.0
H995 H 0.83478 0.68247 0.46182 0.0
C996 C 0.81731 0.68729 0.42176 0.0
C997 C 0.81121 0.69743 0.42309 0.0
C998 C 0.85615 0.71968 0.60255 0.0
C999 C 0.83693 0.70367 0.50766 0.0
C1000 C 0.8681 0.72203 0.64903 0.0
C1001 C 0.87446 0.7121 0.64712 0.0
C1002 C 0.85044 0.70727 0.55396 0.0
C1003 C 0.86895 0.70033 0.59531 0.0
C1004 C 0.83019 0.69039 0.46377 0.0
C1005 C 0.81818 0.71046 0.46817 0.0
N1006 N 0.85718 0.69815 0.55131 0.0
N1007 N 0.83063 0.71319 0.5086 0.0
H1008 H 0.31259 0.12981 0.39369 0.0
H1009 H 0.25591 0.1321 0.69046 0.0
H1010 H 0.27258 0.0888 0.47888 0.0
H1011 H 0.29616 0.17345 0.60847 0.0
H1012 H 0.2612 0.11617 0.60877 0.0
H1013 H 0.30659 0.14618 0.47013 0.0
C1014 C 0.3026 0.12426 0.4286 0.0
C1015 C 0.29301 0.10794 0.42957 0.0
C1016 C 0.26882 0.12874 0.60841 0.0
C1017 C 0.286 0.12652 0.51656 0.0
C1018 C 0.26575 0.13786 0.65484 0.0
C1019 C 0.27564 0.15414 0.65677 0.0
C1020 C 0.28189 0.13594 0.56359 0.0
C1021 C 0.28825 0.16092 0.60928 0.0
C1022 C 0.29912 0.13359 0.47193 0.0
C1023 C 0.28019 0.10135 0.4757 0.0
N1024 N 0.29106 0.15179 0.56499 0.0
N1025 N 0.27705 0.11065 0.51719 0.0
H1026 H 0.81683 0.11925 0.64526 0.0
H1027 H 0.90362 0.18444 0.53628 0.0
H1028 H 0.85825 0.12583 0.75286 0.0
H1029 H 0.86199 0.18107 0.44552 0.0
H1030 H 0.88729 0.16234 0.61273 0.0
H1031 H 0.83327 0.14078 0.56693 0.0
C1032 C 0.8294 0.12515 0.65226 0.0
C1033 C 0.83614 0.12077 0.70638 0.0
C1034 C 0.8817 0.16647 0.57642 0.0
C1035 C 0.85508 0.14556 0.61642 0.0
C1036 C 0.89102 0.1791 0.53279 0.0
C1037 C 0.88413 0.18465 0.48475 0.0
C1038 C 0.86534 0.15922 0.57169 0.0
C1039 C 0.86776 0.17731 0.48254 0.0
C1040 C 0.83878 0.1375 0.60746 0.0
C1041 C 0.85252 0.12877 0.71201 0.0
N1042 N 0.85891 0.16492 0.52519 0.0
N1043 N 0.86142 0.14083 0.66783 0.0
H1044 H 0.92386 0.44988 0.55751 0.0
H1045 H 0.97783 0.51159 0.26389 0.0
H1046 H 0.96537 0.45203 0.47078 0.0
H1047 H 0.93501 0.50786 0.34202 0.0
H1048 H 0.97338 0.48965 0.33916 0.0
H1049 H 0.92724 0.47054 0.47634 0.0
C1050 C 0.93357 0.45454 0.52094 0.0
C1051 C 0.94438 0.44923 0.52143 0.0
C1052 C 0.96494 0.49362 0.33974 0.0
C1053 C 0.94845 0.47305 0.42894 0.0
C1054 C 0.96753 0.5062 0.29705 0.0
C1055 C 0.95674 0.51153 0.29642 0.0
C1056 C 0.95151 0.48635 0.38235 0.0
C1057 C 0.94356 0.50406 0.34029 0.0
C1058 C 0.93555 0.46641 0.4748 0.0
C1059 C 0.95677 0.45577 0.47276 0.0
N1060 N 0.94132 0.49187 0.38144 0.0
N1061 N 0.95851 0.46739 0.42894 0.0
H1062 H 0.52516 0.484 0.6053 0.0
H1063 H 0.47015 0.48055 0.28642 0.0
H1064 H 0.52936 0.52507 0.50387 0.0
H1065 H 0.4683 0.43993 0.38052 0.0
H1066 H 0.49094 0.4972 0.36971 0.0
H1067 H 0.50378 0.46765 0.52498 0.0
C1068 C 0.52169 0.48958 0.5659 0.0
C1069 C 0.52911 0.50594 0.56152 0.0
C1070 C 0.48591 0.48463 0.37228 0.0
C1071 C 0.50448 0.48729 0.46981 0.0
C1072 C 0.47396 0.47516 0.32522 0.0
C1073 C 0.46752 0.45888 0.32667 0.0
C1074 C 0.49139 0.47772 0.42094 0.0
C1075 C 0.47303 0.45245 0.37725 0.0
C1076 C 0.50942 0.48024 0.52021 0.0
C1077 C 0.52401 0.51251 0.50944 0.0
N1078 N 0.48465 0.46187 0.42213 0.0
N1079 N 0.51201 0.50318 0.46586 0.0
H1080 H 0.57281 0.05867 0.32196 0.0
H1081 H 0.48685 0.03777 0.44103 0.0
H1082 H 0.53075 0.01928 0.23961 0.0
H1083 H 0.52918 0.07383 0.53858 0.0
H1084 H 0.50264 0.03255 0.35881 0.0
H1085 H 0.55691 0.06557 0.39503 0.0
C1086 C 0.56019 0.05146 0.31914 0.0
C1087 C 0.55309 0.0384 0.2743 0.0
C1088 C 0.50848 0.04168 0.39783 0.0
C1089 C 0.53476 0.04629 0.35828 0.0
C1090 C 0.49948 0.04476 0.44471 0.0
C1091 C 0.50669 0.0562 0.49745 0.0
C1092 C 0.52484 0.0501 0.40342 0.0
C1093 C 0.5231 0.06489 0.49906 0.0
C1094 C 0.55112 0.05542 0.36103 0.0
C1095 C 0.5367 0.02942 0.27355 0.0
N1096 N 0.53161 0.06157 0.4531 0.0
N1097 N 0.52807 0.03355 0.31487 0.0
H1098 H 0.75767 0.61578 0.7227 0.0
H1099 H 0.82004 0.59092 0.839 0.0
H1100 H 0.7617 0.57864 0.62246 0.0
H1101 H 0.81927 0.63141 0.92026 0.0
H1102 H 0.7969 0.58444 0.76846 0.0
H1103 H 0.77792 0.61936 0.80607 0.0
C1104 C 0.76266 0.60821 0.71874 0.0
C1105 C 0.7581 0.59701 0.66475 0.0
C1106 C 0.80176 0.59471 0.80188 0.0
C1107 C 0.78147 0.60117 0.76019 0.0
C1108 C 0.81497 0.59843 0.84226 0.0
C1109 C 0.82161 0.61174 0.8857 0.0
C1110 C 0.79507 0.60435 0.80492 0.0
C1111 C 0.8146 0.62108 0.88731 0.0
C1112 C 0.77429 0.61032 0.76634 0.0
C1113 C 0.76487 0.58744 0.66301 0.0
N1114 N 0.80171 0.61721 0.84747 0.0
N1115 N 0.77634 0.58986 0.70957 0.0
H1116 H 0.41988 0.20291 0.65514 0.0
H1117 H 0.3628 0.20399 0.95172 0.0
H1118 H 0.38095 0.16128 0.74297 0.0
H1119 H 0.40274 0.24559 0.87015 0.0
H1120 H 0.37015 0.18805 0.88006 0.0
H1121 H 0.41515 0.21868 0.74035 0.0
C1122 C 0.41051 0.19705 0.69299 0.0
C1123 C 0.40071 0.18075 0.69125 0.0
C1124 C 0.37735 0.20067 0.87813 0.0
C1125 C 0.39507 0.19875 0.78821 0.0
C1126 C 0.37311 0.20977 0.91879 0.0
C1127 C 0.38216 0.22614 0.91695 0.0
C1128 C 0.3907 0.208 0.83502 0.0
C1129 C 0.39546 0.233 0.87355 0.0
C1130 C 0.40775 0.20608 0.74139 0.0
C1131 C 0.38872 0.17383 0.74169 0.0
N1132 N 0.39929 0.22391 0.83417 0.0
N1133 N 0.38616 0.18287 0.78753 0.0
H1134 H 0.85572 0.22053 0.74592 0.0
H1135 H 0.77019 0.15095 0.8437 0.0
H1136 H 0.81366 0.21137 0.63608 0.0
H1137 H 0.81183 0.15949 0.95501 0.0
H1138 H 0.78601 0.17358 0.76969 0.0
H1139 H 0.8399 0.19927 0.82699 0.0
C1140 C 0.84313 0.21417 0.73925 0.0
C1141 C 0.83603 0.21767 0.68345 0.0
C1142 C 0.79175 0.17051 0.81002 0.0
C1143 C 0.81785 0.19318 0.77615 0.0
C1144 C 0.78273 0.15755 0.85224 0.0
C1145 C 0.78974 0.15325 0.90517 0.0
C1146 C 0.80798 0.17935 0.82075 0.0
C1147 C 0.80601 0.16222 0.91387 0.0
C1148 C 0.83412 0.20198 0.78555 0.0
C1149 C 0.81966 0.20912 0.67812 0.0
N1150 N 0.8146 0.17489 0.87211 0.0
N1151 N 0.81115 0.19719 0.72346 0.0
H1152 H 0.37893 0.23288 0.24852 0.0
H1153 H 0.40623 0.17252 0.36677 0.0
H1154 H 0.41781 0.23096 0.15465 0.0
H1155 H 0.36504 0.17189 0.44763 0.0
H1156 H 0.41212 0.19551 0.29694 0.0
H1157 H 0.37558 0.21265 0.33146 0.0
C1158 C 0.38692 0.22837 0.24585 0.0
C1159 C 0.39857 0.23353 0.19375 0.0
C1160 C 0.40182 0.1904 0.33009 0.0
C1161 C 0.39467 0.21019 0.28866 0.0
C1162 C 0.39844 0.17725 0.3701 0.0
C1163 C 0.38512 0.17027 0.41327 0.0
C1164 C 0.39181 0.19665 0.33309 0.0
C1165 C 0.37539 0.17685 0.41486 0.0
C1166 C 0.38495 0.21675 0.29321 0.0
C1167 C 0.40865 0.22733 0.19363 0.0
N1168 N 0.37892 0.18967 0.3753 0.0
N1169 N 0.40636 0.21587 0.23986 0.0
H1170 H 0.84568 0.19273 0.45479 0.0
H1171 H 0.79142 0.19028 0.13501 0.0
H1172 H 0.85057 0.23368 0.35014 0.0
H1173 H 0.78596 0.14893 0.23874 0.0
H1174 H 0.8121 0.2064 0.2187 0.0
H1175 H 0.82328 0.17632 0.37845 0.0
C1176 C 0.84217 0.19823 0.4152 0.0
C1177 C 0.85006 0.21455 0.40833 0.0
C1178 C 0.80629 0.19379 0.22346 0.0
C1179 C 0.82432 0.196 0.32212 0.0
C1180 C 0.79438 0.18458 0.17594 0.0
C1181 C 0.787 0.16822 0.17932 0.0
C1182 C 0.81087 0.1866 0.27466 0.0
C1183 C 0.79141 0.16151 0.23356 0.0
C1184 C 0.82929 0.18891 0.37218 0.0
C1185 C 0.8448 0.22114 0.35736 0.0
N1186 N 0.80312 0.17071 0.27864 0.0
N1187 N 0.83229 0.21186 0.31628 0.0
H1188 H 0.74529 0.59334 0.3406 0.0
H1189 H 0.83144 0.61503 0.2199 0.0
H1190 H 0.78754 0.63265 0.42194 0.0
H1191 H 0.7894 0.57818 0.12403 0.0
H1192 H 0.81546 0.61949 0.30398 0.0
H1193 H 0.76115 0.58596 0.2691 0.0
C1194 C 0.75792 0.60039 0.3437 0.0
C1195 C 0.7651 0.61363 0.38746 0.0
C1196 C 0.80971 0.61032 0.26502 0.0
C1197 C 0.78334 0.60523 0.30551 0.0
C1198 C 0.81883 0.6077 0.21705 0.0
C1199 C 0.81176 0.59629 0.16416 0.0
C1200 C 0.79334 0.60153 0.26024 0.0
C1201 C 0.79537 0.58711 0.1637 0.0
C1202 C 0.76696 0.59617 0.30276 0.0
C1203 C 0.7815 0.62239 0.38879 0.0
N1204 N 0.7867 0.59004 0.21054 0.0
N1205 N 0.79006 0.61804 0.34838 0.0
H1206 H 0.55363 0.07302 0.03191 0.0
H1207 H 0.49403 0.01871 0.73087 0.0
H1208 H 0.55423 0.03298 0.94331 0.0
H1209 H 0.49404 0.05857 0.82468 0.0
H1210 H 0.51651 0.02388 0.80529 0.0
H1211 H 0.53277 0.06865 0.95023 0.0
C1212 C 0.54954 0.06343 0.99474 0.0
C1213 C 0.55565 0.05328 0.99515 0.0
C1214 C 0.51157 0.03149 0.80935 0.0
C1215 C 0.53149 0.04803 0.90191 0.0
C1216 C 0.4987 0.02848 0.76722 0.0
C1217 C 0.49221 0.03828 0.7712 0.0
C1218 C 0.51792 0.04435 0.85573 0.0
C1219 C 0.49875 0.0508 0.81911 0.0
C1220 C 0.53752 0.06086 0.94833 0.0
C1221 C 0.5498 0.04103 0.94556 0.0
N1222 N 0.51121 0.05348 0.85924 0.0
N1223 N 0.53798 0.03867 0.90138 0.0
H1224 H 0.93938 0.42979 0.84413 0.0
H1225 H 0.95979 0.51544 0.96653 0.0
H1226 H 0.97886 0.47219 0.7656 0.0
H1227 H 0.92345 0.47303 0.06176 0.0
H1228 H 0.96549 0.49977 0.88592 0.0
H1229 H 0.93238 0.44542 0.91897 0.0
C1230 C 0.94659 0.44241 0.84261 0.0
C1231 C 0.9597 0.44971 0.7983 0.0
C1232 C 0.95621 0.49387 0.92413 0.0
C1233 C 0.9517 0.4677 0.884 0.0
C1234 C 0.95288 0.50281 0.97017 0.0
C1235 C 0.94118 0.49555 0.02163 0.0
C1236 C 0.94777 0.47751 0.92919 0.0
C1237 C 0.93258 0.47914 0.02314 0.0
C1238 C 0.94258 0.45133 0.88546 0.0
C1239 C 0.96869 0.46609 0.79911 0.0
N1240 N 0.93612 0.47068 0.97787 0.0
N1241 N 0.96449 0.47454 0.84117 0.0
H1242 H 0.55441 0.52899 0.88925 0.0
H1243 H 0.46856 0.46042 0.98947 0.0
H1244 H 0.51265 0.52244 0.78599 0.0
H1245 H 0.5102 0.47007 0.10439 0.0
H1246 H 0.48443 0.48254 0.91265 0.0
H1247 H 0.53831 0.50743 0.96839 0.0
C1248 C 0.5418 0.52309 0.88381 0.0
C1249 C 0.53482 0.52752 0.83118 0.0
C1250 C 0.49011 0.47981 0.95455 0.0
C1251 C 0.51628 0.50261 0.92105 0.0
C1252 C 0.48106 0.46713 0.99845 0.0
C1253 C 0.48802 0.46339 0.05401 0.0
C1254 C 0.50629 0.48885 0.96587 0.0
C1255 C 0.5043 0.47246 0.06231 0.0
C1256 C 0.53261 0.51075 0.92892 0.0
C1257 C 0.51845 0.51952 0.82651 0.0
N1258 N 0.51286 0.48478 0.0189 0.0
N1259 N 0.50972 0.50735 0.87056 0.0
H1260 H 0.62761 0.85985 0.64578 0.0
H1261 H 0.64262 0.78961 0.7428 0.0
H1262 H 0.66049 0.85108 0.53383 0.0
H1263 H 0.61017 0.79938 0.85309 0.0
H1264 H 0.64897 0.8115 0.6641 0.0
H1265 H 0.62136 0.83775 0.7223 0.0
C1266 C 0.63364 0.85333 0.63777 0.0
C1267 C 0.64464 0.85733 0.58353 0.0
C1268 C 0.6404 0.8088 0.70524 0.0
C1269 C 0.63736 0.83178 0.67072 0.0
C1270 C 0.63671 0.79626 0.75019 0.0
C1271 C 0.6259 0.79268 0.80522 0.0
C1272 C 0.63325 0.81788 0.7152 0.0
C1273 C 0.61855 0.80165 0.81155 0.0
C1274 C 0.63002 0.84065 0.68139 0.0
C1275 C 0.65212 0.84851 0.57567 0.0
N1276 N 0.62243 0.81388 0.76742 0.0
N1277 N 0.64827 0.83606 0.61862 0.0
H1278 H 0.21257 0.85242 0.80827 0.0
H1279 H 0.14292 0.76669 0.71232 0.0
H1280 H 0.2033 0.81065 0.92059 0.0
H1281 H 0.15141 0.80806 0.5994 0.0
H1282 H 0.16494 0.7828 0.78938 0.0
H1283 H 0.19068 0.83653 0.72996 0.0
C1284 C 0.20602 0.83988 0.81621 0.0
C1285 C 0.20975 0.83288 0.87162 0.0
C1286 C 0.16196 0.78843 0.7482 0.0
C1287 C 0.18455 0.81461 0.78197 0.0
C1288 C 0.14934 0.77924 0.70431 0.0
C1289 C 0.14526 0.78609 0.64982 0.0
C1290 C 0.1707 0.80464 0.73739 0.0
C1291 C 0.15398 0.80237 0.64169 0.0
C1292 C 0.19347 0.83082 0.77146 0.0
C1293 C 0.2009 0.81657 0.87867 0.0
N1294 N 0.16637 0.81112 0.68486 0.0
N1295 N 0.18867 0.80801 0.83465 0.0
H1296 H 0.18722 0.38032 0.83615 0.0
H1297 H 0.18888 0.33136 0.50128 0.0
H1298 H 0.14569 0.34789 0.72141 0.0
H1299 H 0.22962 0.36377 0.6197 0.0
H1300 H 0.17242 0.33606 0.58395 0.0
H1301 H 0.20283 0.37408 0.75687 0.0
C1302 C 0.18139 0.37203 0.79389 0.0
C1303 C 0.16511 0.36465 0.78568 0.0
C1304 C 0.18496 0.34201 0.59213 0.0
C1305 C 0.18289 0.35722 0.69506 0.0
C1306 C 0.19428 0.33916 0.54553 0.0
C1307 C 0.21057 0.34716 0.55391 0.0
C1308 C 0.19206 0.35294 0.6471 0.0
C1309 C 0.21709 0.35742 0.61116 0.0
C1310 C 0.1903 0.36836 0.74886 0.0
C1311 C 0.15821 0.35388 0.73001 0.0
N1312 N 0.20785 0.36007 0.6552 0.0
N1313 N 0.16712 0.35047 0.68704 0.0
H1314 H 0.50543 0.93451 0.19274 0.0
H1315 H 0.44057 0.95582 0.07589 0.0
H1316 H 0.50264 0.9737 0.27691 0.0
H1317 H 0.44539 0.91845 0.98308 0.0
H1318 H 0.46136 0.96071 0.1588 0.0
H1319 H 0.48209 0.92717 0.12292 0.0
C1320 C 0.49987 0.94156 0.19678 0.0
C1321 C 0.50598 0.95473 0.24102 0.0
C1322 C 0.45778 0.95134 0.12079 0.0
C1323 C 0.47917 0.94636 0.16067 0.0
C1324 C 0.44583 0.94846 0.07351 0.0
C1325 C 0.44131 0.93678 0.02173 0.0
C1326 C 0.46532 0.94251 0.1164 0.0
C1327 C 0.4485 0.9276 0.02181 0.0
C1328 C 0.48652 0.93735 0.15676 0.0
C1329 C 0.49836 0.9635 0.24335 0.0
N1330 N 0.46026 0.93077 0.06792 0.0
N1331 N 0.48533 0.95915 0.20368 0.0
H1332 H 0.03769 0.52731 0.33592 0.0
H1333 H 0.09547 0.52676 0.04159 0.0
H1334 H 0.07643 0.56894 0.2476 0.0
H1335 H 0.05627 0.48489 0.12604 0.0
H1336 H 0.0908 0.54223 0.12851 0.0
H1337 H 0.04585 0.51143 0.26838 0.0
C1338 C 0.04793 0.53312 0.30254 0.0
C1339 C 0.05637 0.54949 0.29743 0.0
C1340 C 0.08334 0.52963 0.12859 0.0
C1341 C 0.06584 0.53142 0.2203 0.0
C1342 C 0.0861 0.52076 0.07927 0.0
C1343 C 0.07612 0.5045 0.07561 0.0
C1344 C 0.07049 0.5222 0.1745 0.0
C1345 C 0.06414 0.49742 0.12605 0.0
C1346 C 0.05263 0.52405 0.26423 0.0
C1347 C 0.0696 0.55638 0.25359 0.0
N1348 N 0.06154 0.50632 0.17268 0.0
N1349 N 0.07387 0.54732 0.21659 0.0
H1350 H 0.46868 0.50506 0.30658 0.0
H1351 H 0.46898 0.55968 0.99485 0.0
H1352 H 0.42712 0.49936 0.20399 0.0
H1353 H 0.51098 0.56549 0.09363 0.0
H1354 H 0.4534 0.53965 0.08163 0.0
H1355 H 0.48443 0.52866 0.23634 0.0
C1356 C 0.46288 0.50873 0.26921 0.0
C1357 C 0.44657 0.50018 0.26089 0.0
C1358 C 0.46603 0.54544 0.08482 0.0
C1359 C 0.46443 0.52724 0.18125 0.0
C1360 C 0.47495 0.557 0.03558 0.0
C1361 C 0.49132 0.56412 0.03614 0.0
C1362 C 0.47354 0.54094 0.13483 0.0
C1363 C 0.49838 0.56012 0.09035 0.0
C1364 C 0.47185 0.52227 0.22954 0.0
C1365 C 0.43964 0.50561 0.21242 0.0
N1366 N 0.48945 0.54866 0.13688 0.0
N1367 N 0.4486 0.51874 0.17438 0.0
H1368 H 0.09386 0.56078 0.53807 0.0
H1369 H 0.03969 0.50192 0.83812 0.0
H1370 H 0.05343 0.56079 0.62533 0.0
H1371 H 0.0801 0.50208 0.74987 0.0
H1372 H 0.04617 0.52542 0.76996 0.0
H1373 H 0.09115 0.54177 0.62714 0.0
C1374 C 0.08461 0.55705 0.57672 0.0
C1375 C 0.07371 0.56222 0.57333 0.0
C1376 C 0.05369 0.52038 0.76602 0.0
C1377 C 0.07036 0.54023 0.67468 0.0
C1378 C 0.04995 0.50692 0.80469 0.0
C1379 C 0.05934 0.49999 0.79954 0.0
C1380 C 0.06686 0.52689 0.72166 0.0
C1381 C 0.07255 0.50704 0.75573 0.0
C1382 C 0.08299 0.54609 0.62733 0.0
C1383 C 0.06197 0.55696 0.62508 0.0
N1384 N 0.07586 0.52002 0.71823 0.0
N1385 N 0.06048 0.5461 0.67294 0.0
H1386 H 0.49408 0.53154 0.80947 0.0
H1387 H 0.43907 0.52954 0.49496 0.0
H1388 H 0.49929 0.57253 0.70371 0.0
H1389 H 0.43473 0.48806 0.59249 0.0
H1390 H 0.45879 0.54549 0.58263 0.0
H1391 H 0.47059 0.51533 0.73887 0.0
C1392 C 0.49035 0.53711 0.77119 0.0
C1393 C 0.49875 0.55337 0.76194 0.0
C1394 C 0.45337 0.53288 0.58536 0.0
C1395 C 0.47178 0.53503 0.68212 0.0
C1396 C 0.44199 0.52376 0.53562 0.0
C1397 C 0.43538 0.50744 0.53563 0.0
C1398 C 0.45819 0.52564 0.63532 0.0
C1399 C 0.43968 0.50062 0.58974 0.0
C1400 C 0.47686 0.52789 0.73138 0.0
C1401 C 0.49318 0.56003 0.71271 0.0
N1402 N 0.45094 0.50975 0.63678 0.0
N1403 N 0.48011 0.55084 0.67456 0.0
H1404 H 0.51535 0.95914 0.57231 0.0
H1405 H 0.42806 0.93208 0.69619 0.0
H1406 H 0.47422 0.91976 0.48311 0.0
H1407 H 0.46877 0.97299 0.77825 0.0
H1408 H 0.445 0.9263 0.62458 0.0
H1409 H 0.49877 0.96284 0.65612 0.0
C1410 C 0.50284 0.95111 0.57085 0.0
C1411 C 0.49617 0.93918 0.51989 0.0
C1412 C 0.45027 0.93652 0.65834 0.0
C1413 C 0.47708 0.94353 0.61569 0.0
C1414 C 0.44059 0.93984 0.69944 0.0
C1415 C 0.447 0.95302 0.74363 0.0
C1416 C 0.46654 0.94646 0.66106 0.0
C1417 C 0.46332 0.96272 0.74484 0.0
C1418 C 0.49338 0.9533 0.61867 0.0
C1419 C 0.4799 0.92913 0.52117 0.0
N1420 N 0.47254 0.95925 0.7041 0.0
N1421 N 0.47091 0.93162 0.56781 0.0
H1422 H 0.1386 0.36164 0.12515 0.0
H1423 H 0.21096 0.34954 0.21649 0.0
H1424 H 0.15137 0.33356 0.99797 0.0
H1425 H 0.19888 0.37938 0.33522 0.0
H1426 H 0.18907 0.34304 0.13738 0.0
H1427 H 0.15985 0.36696 0.20605 0.0
C1428 C 0.14577 0.35637 0.11501 0.0
C1429 C 0.14317 0.34702 0.05529 0.0
C1430 C 0.19125 0.35106 0.18051 0.0
C1431 C 0.1678 0.35335 0.1469 0.0
C1432 C 0.20381 0.35487 0.22565 0.0
C1433 C 0.2068 0.36505 0.28291 0.0
C1434 C 0.18153 0.35741 0.19261 0.0
C1435 C 0.1971 0.37154 0.29181 0.0
C1436 C 0.15796 0.35949 0.16097 0.0
C1437 C 0.1528 0.34054 0.04429 0.0
N1438 N 0.18487 0.36755 0.24738 0.0
N1439 N 0.16481 0.34393 0.08949 0.0
H1440 H 0.65983 0.81334 0.03454 0.0
H1441 H 0.60905 0.81664 0.35744 0.0
H1442 H 0.62318 0.77267 0.13829 0.0
H1443 H 0.64471 0.85777 0.25139 0.0
H1444 H 0.61376 0.80036 0.27534 0.0
H1445 H 0.65486 0.83005 0.11413 0.0
C1446 C 0.65094 0.80797 0.07477 0.0
C1447 C 0.642 0.79166 0.08027 0.0
C1448 C 0.62049 0.81295 0.26981 0.0
C1449 C 0.63595 0.81051 0.17005 0.0
C1450 C 0.61772 0.82226 0.31646 0.0
C1451 C 0.62652 0.83861 0.31172 0.0
C1452 C 0.63217 0.82004 0.21807 0.0
C1453 C 0.63767 0.84521 0.25749 0.0
C1454 C 0.64796 0.81746 0.1196 0.0
C1455 C 0.63033 0.78522 0.13211 0.0
N1456 N 0.64024 0.83592 0.21315 0.0
N1457 N 0.62763 0.79464 0.17483 0.0
H1458 H 0.23128 0.85066 0.20085 0.0
H1459 H 0.14453 0.7873 0.3186 0.0
H1460 H 0.18985 0.84708 0.10664 0.0
H1461 H 0.18628 0.79316 0.42043 0.0
H1462 H 0.16081 0.80835 0.23773 0.0
H1463 H 0.21488 0.82927 0.27993 0.0
C1464 C 0.21869 0.84541 0.19709 0.0
C1465 C 0.21189 0.85068 0.14722 0.0
C1466 C 0.16642 0.805 0.27753 0.0
C1467 C 0.19299 0.82602 0.23757 0.0
C1468 C 0.15714 0.79291 0.32372 0.0
C1469 C 0.16404 0.78843 0.37683 0.0
C1470 C 0.18275 0.81273 0.28418 0.0
C1471 C 0.18043 0.79616 0.38043 0.0
C1472 C 0.20933 0.83317 0.24229 0.0
C1473 C 0.19553 0.84348 0.14491 0.0
N1474 N 0.18921 0.80797 0.33493 0.0
N1475 N 0.18661 0.83145 0.18932 0.0
H1476 H 0.35883 0.08872 0.76436 0.0
H1477 H 0.32867 0.12114 0.07593 0.0
H1478 H 0.34902 0.1265 0.74118 0.0
H1479 H 0.32403 0.07529 0.08431 0.0
H1480 H 0.33847 0.12416 0.9562 0.0
H1481 H 0.34779 0.08408 0.88348 0.0
C1482 C 0.35422 0.09593 0.78392 0.0
C1483 C 0.35489 0.10804 0.74259 0.0
C1484 C 0.33533 0.11343 0.9841 0.0
C1485 C 0.34253 0.10296 0.87905 0.0
C1486 C 0.32984 0.11173 0.05286 0.0
C1487 C 0.32555 0.09794 0.09048 0.0
C1488 C 0.33674 0.10133 0.95245 0.0
C1489 C 0.32721 0.08612 0.05726 0.0
C1490 C 0.34795 0.09328 0.85192 0.0
C1491 C 0.34876 0.11702 0.77084 0.0
N1492 N 0.33274 0.0881 0.99013 0.0
N1493 N 0.34299 0.11439 0.83735 0.0
H1494 H 0.88769 0.21689 0.12859 0.0
H1495 H 0.91571 0.25392 0.74635 0.0
H1496 H 0.93523 0.25311 0.08709 0.0
H1497 H 0.87517 0.20861 0.78435 0.0
H1498 H 0.92226 0.25583 0.87188 0.0
H1499 H 0.88173 0.21628 0.0038 0.0
C1500 C 0.89684 0.2249 0.09349 0.0
C1501 C 0.91202 0.23505 0.11854 0.0
C1502 C 0.912 0.24544 0.85245 0.0
C1503 C 0.90525 0.23427 0.975 0.0
C1504 C 0.90828 0.24432 0.78086 0.0
C1505 C 0.8949 0.23106 0.75465 0.0
C1506 C 0.90212 0.23335 0.89826 0.0
C1507 C 0.88565 0.21901 0.80192 0.0
C1508 C 0.89345 0.22443 0.02202 0.0
C1509 C 0.92338 0.24508 0.07014 0.0
N1510 N 0.88937 0.22051 0.87137 0.0
N1511 N 0.91978 0.24442 0.00062 0.0
H1512 H 0.73602 0.6487 0.72913 0.0
H1513 H 0.78559 0.65886 0.07709 0.0
H1514 H 0.78077 0.65073 0.73181 0.0
H1515 H 0.75014 0.67231 0.07066 0.0
H1516 H 0.78142 0.65253 0.95238 0.0
H1517 H 0.73901 0.65499 0.85538 0.0
C1518 C 0.74653 0.65063 0.75594 0.0
C1519 C 0.75817 0.64921 0.71965 0.0
C1520 C 0.77449 0.65681 0.97819 0.0
C1521 C 0.76146 0.65604 0.86392 0.0
C1522 C 0.77677 0.66031 0.04972 0.0
C1523 C 0.76823 0.66617 0.0846 0.0
C1524 C 0.76348 0.65903 0.94085 0.0
C1525 C 0.757 0.66784 0.0459 0.0
C1526 C 0.74819 0.65416 0.82795 0.0
C1527 C 0.7715 0.65176 0.75723 0.0
N1528 N 0.75496 0.6643 0.97598 0.0
N1529 N 0.7727 0.65491 0.82719 0.0
H1530 H 0.11363 0.32648 0.68801 0.0
H1531 H 0.07827 0.32075 0.30535 0.0
H1532 H 0.08194 0.3437 0.64506 0.0
H1533 H 0.12216 0.3223 0.34354 0.0
H1534 H 0.07716 0.32644 0.43032 0.0
H1535 H 0.11401 0.32119 0.56289 0.0
C1536 C 0.10656 0.32895 0.65247 0.0
C1537 C 0.09774 0.33557 0.67724 0.0
C1538 C 0.08708 0.32566 0.411 0.0
C1539 C 0.09824 0.32962 0.53344 0.0
C1540 C 0.08775 0.32246 0.33975 0.0
C1541 C 0.10033 0.32106 0.31385 0.0
C1542 C 0.09892 0.32716 0.45679 0.0
C1543 C 0.11226 0.32333 0.36093 0.0
C1544 C 0.10691 0.32607 0.58087 0.0
C1545 C 0.08892 0.33862 0.6283 0.0
N1546 N 0.11117 0.32609 0.43013 0.0
N1547 N 0.08937 0.3356 0.55867 0.0
H1548 H 0.68184 0.75058 0.38644 0.0
H1549 H 0.67338 0.79884 0.70357 0.0
H1550 H 0.67522 0.7903 0.35814 0.0
H1551 H 0.66334 0.75123 0.72915 0.0
H1552 H 0.67727 0.797 0.57803 0.0
H1553 H 0.67728 0.75124 0.51298 0.0
C1554 C 0.67924 0.7593 0.40659 0.0
C1555 C 0.67891 0.77039 0.36146 0.0
C1556 C 0.67427 0.78697 0.61111 0.0
C1557 C 0.67408 0.77143 0.50614 0.0
C1558 C 0.67219 0.78805 0.68303 0.0
C1559 C 0.66802 0.77516 0.72713 0.0
C1560 C 0.67235 0.77296 0.58284 0.0
C1561 C 0.66653 0.76145 0.69711 0.0
C1562 C 0.6767 0.7597 0.4788 0.0
C1563 C 0.67554 0.78147 0.39065 0.0
N1564 N 0.66871 0.76071 0.62678 0.0
N1565 N 0.67343 0.7818 0.46109 0.0
H1566 H 0.24584 0.9267 0.44504 0.0
H1567 H 0.20105 0.87229 0.77295 0.0
H1568 H 0.20662 0.87975 0.4258 0.0
H1569 H 0.24848 0.91076 0.78967 0.0
H1570 H 0.20172 0.87693 0.64677 0.0
H1571 H 0.24631 0.92266 0.57214 0.0
C1572 C 0.23746 0.91549 0.46729 0.0
C1573 C 0.22618 0.90356 0.42453 0.0
C1574 C 0.21197 0.8844 0.67804 0.0
C1575 C 0.22644 0.89902 0.5699 0.0
C1576 C 0.21156 0.88187 0.75033 0.0
C1577 C 0.22475 0.89115 0.79215 0.0
C1578 C 0.22561 0.89644 0.64707 0.0
C1579 C 0.23805 0.90331 0.75946 0.0
C1580 C 0.23771 0.91323 0.53983 0.0
C1581 C 0.21557 0.88929 0.45642 0.0
N1582 N 0.23815 0.90561 0.68881 0.0
N1583 N 0.21587 0.88749 0.52712 0.0
H1584 H 0.67394 0.87898 0.88069 0.0
H1585 H 0.65595 0.92397 0.1827 0.0
H1586 H 0.67841 0.92424 0.84531 0.0
H1587 H 0.66882 0.88884 0.22326 0.0
H1588 H 0.66157 0.92317 0.05744 0.0
H1589 H 0.66857 0.88078 0.00453 0.0
C1590 C 0.67359 0.88922 0.89868 0.0
C1591 C 0.67665 0.90149 0.85237 0.0
C1592 C 0.66327 0.91575 0.09402 0.0
C1593 C 0.6706 0.90366 0.99471 0.0
C1594 C 0.66012 0.91623 0.1655 0.0
C1595 C 0.66193 0.90648 0.21372 0.0
C1596 C 0.668 0.90525 0.0705 0.0
C1597 C 0.66732 0.89663 0.18828 0.0
C1598 C 0.67067 0.8903 0.96965 0.0
C1599 C 0.67614 0.91452 0.87913 0.0
N1600 N 0.67 0.89616 0.11847 0.0
N1601 N 0.67316 0.91526 0.94857 0.0
H1602 H 0.112 0.7777 0.28859 0.0
H1603 H 0.07175 0.74626 0.91422 0.0
H1604 H 0.07676 0.72934 0.25598 0.0
H1605 H 0.11736 0.78708 0.94252 0.0
H1606 H 0.07115 0.74063 0.04038 0.0
H1607 H 0.1113 0.78248 0.16325 0.0
C1608 C 0.10393 0.76811 0.25533 0.0
C1609 C 0.09444 0.75306 0.28302 0.0
C1610 C 0.08131 0.75075 0.01863 0.0
C1611 C 0.0937 0.75849 0.13887 0.0
C1612 C 0.08168 0.75394 0.94671 0.0
C1613 C 0.09464 0.76715 0.91762 0.0
C1614 C 0.09384 0.76098 0.06184 0.0
C1615 C 0.10716 0.77673 0.96234 0.0
C1616 C 0.10366 0.77084 0.18355 0.0
C1617 C 0.08431 0.74111 0.23692 0.0
N1618 N 0.10638 0.77354 0.03215 0.0
N1619 N 0.0842 0.74408 0.16703 0.0
H1620 H 0.21213 0.30043 0.19539 0.0
H1621 H 0.22071 0.33722 0.82161 0.0
H1622 H 0.24456 0.34957 0.16378 0.0
H1623 H 0.21844 0.29262 0.84371 0.0
H1624 H 0.22588 0.34169 0.94864 0.0
H1625 H 0.21048 0.29663 0.06707 0.0
C1626 C 0.219 0.31036 0.16147 0.0
C1627 C 0.22861 0.32529 0.1901 0.0
C1628 C 0.22441 0.33103 0.92521 0.0
C1629 C 0.22638 0.32114 0.04415 0.0
C1630 C 0.22146 0.32847 0.85301 0.0
C1631 C 0.21928 0.3146 0.82209 0.0
C1632 C 0.22465 0.3194 0.96685 0.0
C1633 C 0.22024 0.30356 0.86527 0.0
C1634 C 0.21807 0.30819 0.08854 0.0
C1635 C 0.23718 0.33782 0.14384 0.0
N1636 N 0.22261 0.30608 0.93565 0.0
N1637 N 0.23568 0.33552 0.07306 0.0
H1638 H 0.9008 0.63792 0.24793 0.0
H1639 H 0.86023 0.65916 0.55871 0.0
H1640 H 0.86242 0.64659 0.21758 0.0
H1641 H 0.90651 0.66521 0.5799 0.0
H1642 H 0.85983 0.65192 0.43586 0.0
H1643 H 0.90255 0.64612 0.37109 0.0
C1644 C 0.89288 0.64172 0.26681 0.0
C1645 C 0.88144 0.64155 0.2222 0.0
C1646 C 0.87007 0.65479 0.46733 0.0
C1647 C 0.88319 0.65061 0.36321 0.0
C1648 C 0.87026 0.65881 0.5378 0.0
C1649 C 0.88343 0.6628 0.57987 0.0
C1650 C 0.88308 0.6546 0.43848 0.0
C1651 C 0.89612 0.66222 0.54941 0.0
C1652 C 0.89386 0.64635 0.33714 0.0
C1653 C 0.87146 0.64656 0.24973 0.0
N1654 N 0.89562 0.65818 0.48053 0.0
N1655 N 0.87247 0.65072 0.31847 0.0
H1656 H 0.3254 0.21013 0.60187 0.0
H1657 H 0.34425 0.25711 0.23931 0.0
H1658 H 0.31135 0.24445 0.56272 0.0
H1659 H 0.34458 0.21384 0.26624 0.0
H1660 H 0.33477 0.25481 0.36066 0.0
H1661 H 0.33587 0.21406 0.48292 0.0
C1662 C 0.32468 0.21865 0.56861 0.0
C1663 C 0.3174 0.22692 0.59241 0.0
C1664 C 0.33686 0.24581 0.33966 0.0
C1665 C 0.3293 0.23137 0.45538 0.0
C1666 C 0.34222 0.24709 0.27045 0.0
C1667 C 0.34514 0.23561 0.24238 0.0
C1668 C 0.33464 0.2331 0.38125 0.0
C1669 C 0.3424 0.22292 0.28527 0.0
C1670 C 0.33056 0.22079 0.50038 0.0
C1671 C 0.31681 0.23778 0.54657 0.0
N1672 N 0.3374 0.22207 0.3525 0.0
N1673 N 0.32264 0.23966 0.48011 0.0
H1674 H 0.79569 0.12861 0.60076 0.0
H1675 H 0.73502 0.08207 0.29291 0.0
H1676 H 0.75588 0.08249 0.63249 0.0
H1677 H 0.7825 0.11902 0.25673 0.0
H1678 H 0.74097 0.08294 0.41869 0.0
H1679 H 0.78914 0.12671 0.47606 0.0
C1680 C 0.78544 0.11815 0.58177 0.0
C1681 C 0.77632 0.10568 0.6273 0.0
C1682 C 0.7501 0.09074 0.38296 0.0
C1683 C 0.76883 0.1034 0.48406 0.0
C1684 C 0.74673 0.09022 0.31118 0.0
C1685 C 0.75827 0.10047 0.26404 0.0
C1686 C 0.76502 0.10177 0.40788 0.0
C1687 C 0.77324 0.11084 0.29085 0.0
C1688 C 0.7818 0.11703 0.51033 0.0
C1689 C 0.76324 0.09238 0.59929 0.0
N1690 N 0.77612 0.11132 0.36094 0.0
N1691 N 0.75987 0.09159 0.52944 0.0
H1692 H -0.00132 0.44823 0.46788 0.0
H1693 H 0.02125 0.42596 0.09836 0.0
H1694 H 0.98452 0.4005 0.41242 0.0
H1695 H 0.02121 0.469 0.13938 0.0
H1696 H 0.01049 0.4168 0.21664 0.0
H1697 H 0.01044 0.45661 0.35203 0.0
C1698 C -0.00182 0.4395 0.43167 0.0
C1699 C 0.99051 0.4236 0.44998 0.0
C1700 C 0.01279 0.42821 0.19936 0.0
C1701 C 0.00392 0.43317 0.31645 0.0
C1702 C 0.0189 0.43343 0.13194 0.0
C1703 C 0.02207 0.44824 0.10874 0.0
C1704 C 0.01009 0.43798 0.24405 0.0
C1705 C 0.01887 0.45745 0.15461 0.0
C1706 C 0.00482 0.4443 0.36521 0.0
C1707 C 0.99026 0.41287 0.4005 0.0
N1708 N 0.01316 0.45221 0.21999 0.0
N1709 N 0.99684 0.41784 0.33585 0.0
H1710 H 0.52619 0.54715 0.12126 0.0
H1711 H 0.58887 0.5919 0.42461 0.0
H1712 H 0.56818 0.59139 0.08432 0.0
H1713 H 0.54061 0.55724 0.46361 0.0
H1714 H 0.5828 0.59101 0.29894 0.0
H1715 H 0.53293 0.54921 0.24558 0.0
C1716 C 0.53695 0.55722 0.13903 0.0
C1717 C 0.54663 0.56913 0.09206 0.0
C1718 C 0.57355 0.58372 0.33525 0.0
C1719 C 0.55437 0.57159 0.23511 0.0
C1720 C 0.57698 0.58425 0.40698 0.0
C1721 C 0.56524 0.57463 0.4549 0.0
C1722 C 0.55834 0.57331 0.31117 0.0
C1723 C 0.55004 0.56491 0.42889 0.0
C1724 C 0.54071 0.55845 0.2103 0.0
C1725 C 0.56038 0.58194 0.11862 0.0
N1726 N 0.54709 0.56439 0.35886 0.0
N1727 N 0.56385 0.58283 0.18842 0.0
H1728 H 0.41108 0.96629 0.10449 0.0
H1729 H 0.45117 0.03141 0.40012 0.0
H1730 H 0.45333 0.00999 0.06377 0.0
H1731 H 0.43197 0.98247 0.4482 0.0
H1732 H 0.44653 0.0248 0.27489 0.0
H1733 H 0.41318 0.97331 0.2295 0.0
C1734 C 0.42062 0.9775 0.12161 0.0
C1735 C 0.43204 0.98762 0.07371 0.0
C1736 C 0.4432 0.01552 0.31303 0.0
C1737 C 0.43438 0.99569 0.21612 0.0
C1738 C 0.44572 0.01924 0.38446 0.0
C1739 C 0.44191 0.00744 0.43466 0.0
C1740 C 0.43647 -0.00013 0.29169 0.0
C1741 C 0.43508 0.9919 0.41119 0.0
C1742 C 0.42187 0.9814 0.1929 0.0
C1743 C 0.4443 0.00187 0.09898 0.0
N1744 N 0.43249 0.98854 0.34129 0.0
N1745 N 0.44511 0.00554 0.16849 0.0
H1746 H 0.5418 0.00031 0.91431 0.0
H1747 H 0.58375 0.97936 0.60883 0.0
H1748 H 0.58791 0.00619 0.94082 0.0
H1749 H 0.54631 0.98923 0.57314 0.0
H1750 H 0.58474 0.98708 0.73233 0.0
H1751 H 0.54202 0.99323 0.79163 0.0
C1752 C 0.55192 -7e-05 0.89464 0.0
C1753 C 0.56487 0.00386 0.93808 0.0
C1754 C 0.57642 0.98768 0.69714 0.0
C1755 C 0.56523 0.99586 0.79697 0.0
C1756 C 0.57588 0.98333 0.62664 0.0
C1757 C 0.56493 0.98364 0.58041 0.0
C1758 C 0.56579 0.99213 0.72174 0.0
C1759 C 0.55499 0.98884 0.60657 0.0
C1760 C 0.55208 0.99602 0.82428 0.0
C1761 C 0.57768 0.00325 0.90922 0.0
N1762 N 0.55555 0.99271 0.6755 0.0
N1763 N 0.57753 -0.00068 0.84041 0.0
H1764 H 0.01721 0.58216 0.60946 0.0
H1765 H 0.99755 0.53505 0.97118 0.0
H1766 H 0.01627 0.53828 0.63711 0.0
H1767 H 0.98368 0.56959 0.93453 0.0
H1768 H 0.00732 0.5386 0.85157 0.0
H1769 H 0.00706 0.57979 0.72985 0.0
C1770 C 0.01476 0.57199 0.64046 0.0
C1771 C 0.01759 0.5604 0.61297 0.0
C1772 C 0.00219 0.54546 0.86949 0.0
C1773 C 0.00629 0.55779 0.75063 0.0
C1774 C 0.99668 0.54353 0.93822 0.0
C1775 C 0.98975 0.55203 0.96324 0.0
C1776 C 0.00093 0.55609 0.82485 0.0
C1777 C 0.98894 0.56279 0.91748 0.0
C1778 C 0.009 0.57067 0.7091 0.0
C1779 C 0.01425 0.54751 0.65567 0.0
N1780 N 0.99447 0.56453 0.85035 0.0
N1781 N 0.00891 0.54662 0.72222 0.0
H1782 H 0.43834 0.46042 0.59267 0.0
H1783 H 0.40829 0.41977 0.96688 0.0
H1784 H 0.39124 0.42221 0.62351 0.0
H1785 H 0.44654 0.46698 0.93989 0.0
H1786 H 0.40301 0.41843 0.84012 0.0
H1787 H 0.44314 0.46043 0.71853 0.0
C1788 C 0.42907 0.45184 0.62563 0.0
C1789 C 0.41433 0.4413 0.59732 0.0
C1790 C 0.41249 0.42909 0.86223 0.0
C1791 C 0.41976 0.44139 0.74195 0.0
C1792 C 0.41548 0.42989 0.9345 0.0
C1793 C 0.42785 0.44353 0.96416 0.0
C1794 C 0.42211 0.44191 0.81922 0.0
C1795 C 0.43682 0.45626 0.91958 0.0
C1796 C 0.43179 0.45197 0.69769 0.0
C1797 C 0.40276 0.43056 0.64305 0.0
N1798 N 0.43386 0.45509 0.84939 0.0
N1799 N 0.40571 0.43088 0.71317 0.0
loop_
_geom_bond_atom_site_label_1
_geom_bond_atom_site_label_2
_geom_bond_distance
_geom_bond_site_symmetry_2
_ccdc_geom_bond_type
Mg0 O1 2.028 . S
Mg0 O7 1.986 . S
Mg0 O9 2.114 . S
Mg0 O10 2.251 . S
Mg0 O13 2.010 . S
O1 Mg0 2.028 . S
O1 C4 1.250 . S
O2 Mg3 2.028 . S
O2 C4 1.248 . S
Mg3 O2 2.028 . S
Mg3 O8 2.032 . S
Mg3 O10 2.079 . S
C4 O1 1.250 . S
C4 O2 1.248 . S
C5 O6 1.264 . S
C5 O13 1.249 . S
O6 C5 1.264 . S
O7 Mg0 1.986 . S
O7 C11 1.246 . S
O8 Mg3 2.032 . S
O8 C11 1.259 . S
O9 Mg0 2.114 . S
O9 C12 1.252 . S
O10 Mg0 2.251 . S
O10 Mg3 2.079 . S
O10 C12 1.273 . S
C11 O7 1.246 . S
C11 O8 1.259 . S
C12 O9 1.252 . S
C12 O10 1.273 . S
O13 Mg0 2.010 . S
O13 C5 1.249 . S
Mg14 O15 2.028 . S
Mg14 O21 1.986 . S
Mg14 O23 2.114 . S
Mg14 O24 2.251 . S
Mg14 O27 2.010 . S
O15 Mg14 2.028 . S
O15 C18 1.250 . S
O16 Mg17 2.028 . S
O16 C18 1.248 . S
Mg17 O16 2.028 . S
Mg17 O22 2.032 . S
Mg17 O24 2.079 . S
C18 O15 1.250 . S
C18 O16 1.248 . S
C19 O20 1.264 . S
C19 O27 1.249 . S
O20 C19 1.264 . S
O21 Mg14 1.986 . S
O21 C25 1.246 . S
O22 Mg17 2.032 . S
O22 C25 1.259 . S
O23 Mg14 2.114 . S
O23 C26 1.252 . S
O24 Mg14 2.251 . S
O24 Mg17 2.079 . S
O24 C26 1.273 . S
C25 O21 1.246 . S
C25 O22 1.259 . S
C26 O23 1.252 . S
C26 O24 1.273 . S
O27 Mg14 2.010 . S
O27 C19 1.249 . S
Mg28 O29 2.028 . S
Mg28 O35 1.986 . S
Mg28 O37 2.114 . S
Mg28 O38 2.251 . S
Mg28 O41 2.010 . S
O29 Mg28 2.028 . S
O29 C32 1.250 . S
O30 Mg31 2.028 . S
O30 C32 1.248 . S
Mg31 O30 2.028 . S
Mg31 O36 2.032 . S
Mg31 O38 2.079 . S
C32 O29 1.250 . S
C32 O30 1.248 . S
C33 O34 1.264 . S
C33 O41 1.249 . S
O34 C33 1.264 . S
O35 Mg28 1.986 . S
O35 C39 1.246 . S
O36 Mg31 2.032 . S
O36 C39 1.259 . S
O37 Mg28 2.114 . S
O37 C40 1.252 . S
O38 Mg28 2.251 . S
O38 Mg31 2.079 . S
O38 C40 1.273 . S
C39 O35 1.246 . S
C39 O36 1.259 . S
C40 O37 1.252 . S
C40 O38 1.273 . S
O41 Mg28 2.010 . S
O41 C33 1.249 . S
Mg42 O43 2.028 . S
Mg42 O49 1.986 . S
Mg42 O51 2.114 . S
Mg42 O52 2.251 . S
Mg42 O55 2.010 . S
O43 Mg42 2.028 . S
O43 C46 1.250 . S
O44 Mg45 2.028 . S
O44 C46 1.248 . S
Mg45 O44 2.028 . S
Mg45 O50 2.032 . S
Mg45 O52 2.079 . S
C46 O43 1.250 . S
C46 O44 1.248 . S
C47 O48 1.264 . S
C47 O55 1.249 . S
O48 C47 1.264 . S
O49 Mg42 1.986 . S
O49 C53 1.246 . S
O50 Mg45 2.032 . S
O50 C53 1.259 . S
O51 Mg42 2.114 . S
O51 C54 1.252 . S
O52 Mg42 2.251 . S
O52 Mg45 2.079 . S
O52 C54 1.273 . S
C53 O49 1.246 . S
C53 O50 1.259 . S
C54 O51 1.252 . S
C54 O52 1.273 . S
O55 Mg42 2.010 . S
O55 C47 1.249 . S
Mg56 O57 2.028 . S
Mg56 O63 1.986 . S
Mg56 O65 2.114 . S
Mg56 O66 2.251 . S
Mg56 O69 2.010 . S
O57 Mg56 2.028 . S
O57 C60 1.250 . S
O58 Mg59 2.028 . S
O58 C60 1.248 . S
Mg59 O58 2.028 . S
Mg59 O64 2.032 . S
Mg59 O66 2.079 . S
C60 O57 1.250 . S
C60 O58 1.248 . S
C61 O62 1.264 . S
C61 O69 1.249 . S
O62 C61 1.264 . S
O63 Mg56 1.986 . S
O63 C67 1.246 . S
O64 Mg59 2.032 . S
O64 C67 1.259 . S
O65 Mg56 2.114 . S
O65 C68 1.252 . S
O66 Mg56 2.251 . S
O66 Mg59 2.079 . S
O66 C68 1.273 . S
C67 O63 1.246 . S
C67 O64 1.259 . S
C68 O65 1.252 . S
C68 O66 1.273 . S
O69 Mg56 2.010 . S
O69 C61 1.249 . S
Mg70 O71 2.028 . S
Mg70 O77 1.986 . S
Mg70 O79 2.114 . S
Mg70 O80 2.251 . S
Mg70 O83 2.010 . S
O71 Mg70 2.028 . S
O71 C74 1.250 . S
O72 Mg73 2.028 . S
O72 C74 1.248 . S
Mg73 O72 2.028 . S
Mg73 O78 2.032 . S
Mg73 O80 2.079 . S
C74 O71 1.250 . S
C74 O72 1.248 . S
C75 O76 1.264 . S
C75 O83 1.249 . S
O76 C75 1.264 . S
O77 Mg70 1.986 . S
O77 C81 1.246 . S
O78 Mg73 2.032 . S
O78 C81 1.259 . S
O79 Mg70 2.114 . S
O79 C82 1.252 . S
O80 Mg70 2.251 . S
O80 Mg73 2.079 . S
O80 C82 1.273 . S
C81 O77 1.246 . S
C81 O78 1.259 . S
C82 O79 1.252 . S
C82 O80 1.273 . S
O83 Mg70 2.010 . S
O83 C75 1.249 . S
Mg84 O85 2.028 . S
Mg84 O91 1.986 . S
Mg84 O93 2.114 . S
Mg84 O94 2.251 . S
Mg84 O97 2.010 . S
O85 Mg84 2.028 . S
O85 C88 1.250 . S
O86 Mg87 2.028 . S
O86 C88 1.248 . S
Mg87 O86 2.028 . S
Mg87 O92 2.032 . S
Mg87 O94 2.079 . S
C88 O85 1.250 . S
C88 O86 1.248 . S
C89 O90 1.264 . S
C89 O97 1.249 . S
O90 C89 1.264 . S
O91 Mg84 1.986 . S
O91 C95 1.246 . S
O92 Mg87 2.032 . S
O92 C95 1.259 . S
O93 Mg84 2.114 . S
O93 C96 1.252 . S
O94 Mg84 2.251 . S
O94 Mg87 2.079 . S
O94 C96 1.273 . S
C95 O91 1.246 . S
C95 O92 1.259 . S
C96 O93 1.252 . S
C96 O94 1.273 . S
O97 Mg84 2.010 . S
O97 C89 1.249 . S
Mg98 O99 2.028 . S
Mg98 O105 1.986 . S
Mg98 O107 2.114 . S
Mg98 O108 2.251 . S
Mg98 O111 2.010 . S
O99 Mg98 2.028 . S
O99 C102 1.250 . S
O100 Mg101 2.028 . S
O100 C102 1.248 . S
Mg101 O100 2.028 . S
Mg101 O106 2.032 . S
Mg101 O108 2.079 . S
C102 O99 1.250 . S
C102 O100 1.248 . S
C103 O104 1.264 . S
C103 O111 1.249 . S
O104 C103 1.264 . S
O105 Mg98 1.986 . S
O105 C109 1.246 . S
O106 Mg101 2.032 . S
O106 C109 1.259 . S
O107 Mg98 2.114 . S
O107 C110 1.252 . S
O108 Mg98 2.251 . S
O108 Mg101 2.079 . S
O108 C110 1.273 . S
C109 O105 1.246 . S
C109 O106 1.259 . S
C110 O107 1.252 . S
C110 O108 1.273 . S
O111 Mg98 2.010 . S
O111 C103 1.249 . S
Mg112 O113 2.028 . S
Mg112 O119 1.986 . S
Mg112 O121 2.114 . S
Mg112 O122 2.251 . S
Mg112 O125 2.010 . S
O113 Mg112 2.028 . S
O113 C116 1.250 . S
O114 Mg115 2.028 . S
O114 C116 1.248 . S
Mg115 O114 2.028 . S
Mg115 O120 2.032 . S
Mg115 O122 2.079 . S
C116 O113 1.250 . S
C116 O114 1.248 . S
C117 O118 1.264 . S
C117 O125 1.249 . S
O118 C117 1.264 . S
O119 Mg112 1.986 . S
O119 C123 1.246 . S
O120 Mg115 2.032 . S
O120 C123 1.259 . S
O121 Mg112 2.114 . S
O121 C124 1.252 . S
O122 Mg112 2.251 . S
O122 Mg115 2.079 . S
O122 C124 1.273 . S
C123 O119 1.246 . S
C123 O120 1.259 . S
C124 O121 1.252 . S
C124 O122 1.273 . S
O125 Mg112 2.010 . S
O125 C117 1.249 . S
Mg126 O127 2.028 . S
Mg126 O133 1.986 . S
Mg126 O135 2.114 . S
Mg126 O136 2.251 . S
Mg126 O139 2.010 . S
O127 Mg126 2.028 . S
O127 C130 1.250 . S
O128 Mg129 2.028 . S
O128 C130 1.248 . S
Mg129 O128 2.028 . S
Mg129 O134 2.032 . S
Mg129 O136 2.079 . S
C130 O127 1.250 . S
C130 O128 1.248 . S
C131 O132 1.264 . S
C131 O139 1.249 . S
O132 C131 1.264 . S
O133 Mg126 1.986 . S
O133 C137 1.246 . S
O134 Mg129 2.032 . S
O134 C137 1.259 . S
O135 Mg126 2.114 . S
O135 C138 1.252 . S
O136 Mg126 2.251 . S
O136 Mg129 2.079 . S
O136 C138 1.273 . S
C137 O133 1.246 . S
C137 O134 1.259 . S
C138 O135 1.252 . S
C138 O136 1.273 . S
O139 Mg126 2.010 . S
O139 C131 1.249 . S
Mg140 O141 2.028 . S
Mg140 O147 1.986 . S
Mg140 O149 2.114 . S
Mg140 O150 2.251 . S
Mg140 O153 2.010 . S
O141 Mg140 2.028 . S
O141 C144 1.250 . S
O142 Mg143 2.028 . S
O142 C144 1.248 . S
Mg143 O142 2.028 . S
Mg143 O148 2.032 . S
Mg143 O150 2.079 . S
C144 O141 1.250 . S
C144 O142 1.248 . S
C145 O146 1.264 . S
C145 O153 1.249 . S
O146 C145 1.264 . S
O147 Mg140 1.986 . S
O147 C151 1.246 . S
O148 Mg143 2.032 . S
O148 C151 1.259 . S
O149 Mg140 2.114 . S
O149 C152 1.252 . S
O150 Mg140 2.251 . S
O150 Mg143 2.079 . S
O150 C152 1.273 . S
C151 O147 1.246 . S
C151 O148 1.259 . S
C152 O149 1.252 . S
C152 O150 1.273 . S
O153 Mg140 2.010 . S
O153 C145 1.249 . S
Mg154 O155 2.028 . S
Mg154 O161 1.986 . S
Mg154 O163 2.114 . S
Mg154 O164 2.251 . S
Mg154 O167 2.010 . S
O155 Mg154 2.028 . S
O155 C158 1.250 . S
O156 Mg157 2.028 . S
O156 C158 1.248 . S
Mg157 O156 2.028 . S
Mg157 O162 2.032 . S
Mg157 O164 2.079 . S
C158 O155 1.250 . S
C158 O156 1.248 . S
C159 O160 1.264 . S
C159 O167 1.249 . S
O160 C159 1.264 . S
O161 Mg154 1.986 . S
O161 C165 1.246 . S
O162 Mg157 2.032 . S
O162 C165 1.259 . S
O163 Mg154 2.114 . S
O163 C166 1.252 . S
O164 Mg154 2.251 . S
O164 Mg157 2.079 . S
O164 C166 1.273 . S
C165 O161 1.246 . S
C165 O162 1.259 . S
C166 O163 1.252 . S
C166 O164 1.273 . S
O167 Mg154 2.010 . S
O167 C159 1.249 . S
Mg168 O169 2.028 . S
Mg168 O175 1.986 . S
Mg168 O177 2.114 . S
Mg168 O178 2.251 . S
Mg168 O181 2.010 . S
O169 Mg168 2.028 . S
O169 C172 1.250 . S
O170 Mg171 2.028 . S
O170 C172 1.248 . S
Mg171 O170 2.028 . S
Mg171 O176 2.032 . S
Mg171 O178 2.079 . S
C172 O169 1.250 . S
C172 O170 1.248 . S
C173 O174 1.264 . S
C173 O181 1.249 . S
O174 C173 1.264 . S
O175 Mg168 1.986 . S
O175 C179 1.246 . S
O176 Mg171 2.032 . S
O176 C179 1.259 . S
O177 Mg168 2.114 . S
O177 C180 1.252 . S
O178 Mg168 2.251 . S
O178 Mg171 2.079 . S
O178 C180 1.273 . S
C179 O175 1.246 . S
C179 O176 1.259 . S
C180 O177 1.252 . S
C180 O178 1.273 . S
O181 Mg168 2.010 . S
O181 C173 1.249 . S
Mg182 O183 2.028 . S
Mg182 O189 1.986 . S
Mg182 O191 2.114 . S
Mg182 O192 2.251 . S
Mg182 O195 2.010 . S
O183 Mg182 2.028 . S
O183 C186 1.250 . S
O184 Mg185 2.028 . S
O184 C186 1.248 . S
Mg185 O184 2.028 . S
Mg185 O190 2.032 . S
Mg185 O192 2.079 . S
C186 O183 1.250 . S
C186 O184 1.248 . S
C187 O188 1.264 . S
C187 O195 1.249 . S
O188 C187 1.264 . S
O189 Mg182 1.986 . S
O189 C193 1.246 . S
O190 Mg185 2.032 . S
O190 C193 1.259 . S
O191 Mg182 2.114 . S
O191 C194 1.252 . S
O192 Mg182 2.251 . S
O192 Mg185 2.079 . S
O192 C194 1.273 . S
C193 O189 1.246 . S
C193 O190 1.259 . S
C194 O191 1.252 . S
C194 O192 1.273 . S
O195 Mg182 2.010 . S
O195 C187 1.249 . S
Mg196 O197 2.028 . S
Mg196 O203 1.986 . S
Mg196 O205 2.114 . S
Mg196 O206 2.251 . S
Mg196 O209 2.010 . S
O197 Mg196 2.028 . S
O197 C200 1.250 . S
O198 Mg199 2.028 . S
O198 C200 1.248 . S
Mg199 O198 2.028 . S
Mg199 O204 2.032 . S
Mg199 O206 2.079 . S
C200 O197 1.250 . S
C200 O198 1.248 . S
C201 O202 1.264 . S
C201 O209 1.249 . S
O202 C201 1.264 . S
O203 Mg196 1.986 . S
O203 C207 1.246 . S
O204 Mg199 2.032 . S
O204 C207 1.259 . S
O205 Mg196 2.114 . S
O205 C208 1.252 . S
O206 Mg196 2.251 . S
O206 Mg199 2.079 . S
O206 C208 1.273 . S
C207 O203 1.246 . S
C207 O204 1.259 . S
C208 O205 1.252 . S
C208 O206 1.273 . S
O209 Mg196 2.010 . S
O209 C201 1.249 . S
Mg210 O211 2.028 . S
Mg210 O217 1.986 . S
Mg210 O219 2.114 . S
Mg210 O220 2.251 . S
Mg210 O223 2.010 . S
O211 Mg210 2.028 . S
O211 C214 1.250 . S
O212 Mg213 2.028 . S
O212 C214 1.248 . S
Mg213 O212 2.028 . S
Mg213 O218 2.032 . S
Mg213 O220 2.079 . S
C214 O211 1.250 . S
C214 O212 1.248 . S
C215 O216 1.264 . S
C215 O223 1.249 . S
O216 C215 1.264 . S
O217 Mg210 1.986 . S
O217 C221 1.246 . S
O218 Mg213 2.032 . S
O218 C221 1.259 . S
O219 Mg210 2.114 . S
O219 C222 1.252 . S
O220 Mg210 2.251 . S
O220 Mg213 2.079 . S
O220 C222 1.273 . S
C221 O217 1.246 . S
C221 O218 1.259 . S
C222 O219 1.252 . S
C222 O220 1.273 . S
O223 Mg210 2.010 . S
O223 C215 1.249 . S
Mg224 O225 2.028 . S
Mg224 O231 1.986 . S
Mg224 O233 2.114 . S
Mg224 O234 2.251 . S
Mg224 O237 2.010 . S
O225 Mg224 2.028 . S
O225 C228 1.250 . S
O226 Mg227 2.028 . S
O226 C228 1.248 . S
Mg227 O226 2.028 . S
Mg227 O232 2.032 . S
Mg227 O234 2.079 . S
C228 O225 1.250 . S
C228 O226 1.248 . S
C229 O230 1.264 . S
C229 O237 1.249 . S
O230 C229 1.264 . S
O231 Mg224 1.986 . S
O231 C235 1.246 . S
O232 Mg227 2.032 . S
O232 C235 1.259 . S
O233 Mg224 2.114 . S
O233 C236 1.252 . S
O234 Mg224 2.251 . S
O234 Mg227 2.079 . S
O234 C236 1.273 . S
C235 O231 1.246 . S
C235 O232 1.259 . S
C236 O233 1.252 . S
C236 O234 1.273 . S
O237 Mg224 2.010 . S
O237 C229 1.249 . S
Mg238 O239 2.028 . S
Mg238 O245 1.986 . S
Mg238 O247 2.114 . S
Mg238 O248 2.251 . S
Mg238 O251 2.010 . S
O239 Mg238 2.028 . S
O239 C242 1.250 . S
O240 Mg241 2.028 . S
O240 C242 1.248 . S
Mg241 O240 2.028 . S
Mg241 O246 2.032 . S
Mg241 O248 2.079 . S
C242 O239 1.250 . S
C242 O240 1.248 . S
C243 O244 1.264 . S
C243 O251 1.249 . S
O244 C243 1.264 . S
O245 Mg238 1.986 . S
O245 C249 1.246 . S
O246 Mg241 2.032 . S
O246 C249 1.259 . S
O247 Mg238 2.114 . S
O247 C250 1.252 . S
O248 Mg238 2.251 . S
O248 Mg241 2.079 . S
O248 C250 1.273 . S
C249 O245 1.246 . S
C249 O246 1.259 . S
C250 O247 1.252 . S
C250 O248 1.273 . S
O251 Mg238 2.010 . S
O251 C243 1.249 . S
Mg252 O253 2.028 . S
Mg252 O259 1.986 . S
Mg252 O261 2.114 . S
Mg252 O262 2.251 . S
Mg252 O265 2.010 . S
O253 Mg252 2.028 . S
O253 C256 1.250 . S
O254 Mg255 2.028 . S
O254 C256 1.248 . S
Mg255 O254 2.028 . S
Mg255 O260 2.032 . S
Mg255 O262 2.079 . S
C256 O253 1.250 . S
C256 O254 1.248 . S
C257 O258 1.264 . S
C257 O265 1.249 . S
O258 C257 1.264 . S
O259 Mg252 1.986 . S
O259 C263 1.246 . S
O260 Mg255 2.032 . S
O260 C263 1.259 . S
O261 Mg252 2.114 . S
O261 C264 1.252 . S
O262 Mg252 2.251 . S
O262 Mg255 2.079 . S
O262 C264 1.273 . S
C263 O259 1.246 . S
C263 O260 1.259 . S
C264 O261 1.252 . S
C264 O262 1.273 . S
O265 Mg252 2.010 . S
O265 C257 1.249 . S
Mg266 O267 2.028 . S
Mg266 O273 1.986 . S
Mg266 O275 2.114 . S
Mg266 O276 2.251 . S
Mg266 O279 2.010 . S
O267 Mg266 2.028 . S
O267 C270 1.250 . S
O268 Mg269 2.028 . S
O268 C270 1.248 . S
Mg269 O268 2.028 . S
Mg269 O274 2.032 . S
Mg269 O276 2.079 . S
C270 O267 1.250 . S
C270 O268 1.248 . S
C271 O272 1.264 . S
C271 O279 1.249 . S
O272 C271 1.264 . S
O273 Mg266 1.986 . S
O273 C277 1.246 . S
O274 Mg269 2.032 . S
O274 C277 1.259 . S
O275 Mg266 2.114 . S
O275 C278 1.252 . S
O276 Mg266 2.251 . S
O276 Mg269 2.079 . S
O276 C278 1.273 . S
C277 O273 1.246 . S
C277 O274 1.259 . S
C278 O275 1.252 . S
C278 O276 1.273 . S
O279 Mg266 2.010 . S
O279 C271 1.249 . S
Mg280 O281 2.028 . S
Mg280 O287 1.986 . S
Mg280 O289 2.114 . S
Mg280 O290 2.251 . S
Mg280 O293 2.010 . S
O281 Mg280 2.028 . S
O281 C284 1.250 . S
O282 Mg283 2.028 . S
O282 C284 1.248 . S
Mg283 O282 2.028 . S
Mg283 O288 2.032 . S
Mg283 O290 2.079 . S
C284 O281 1.250 . S
C284 O282 1.248 . S
C285 O286 1.264 . S
C285 O293 1.249 . S
O286 C285 1.264 . S
O287 Mg280 1.986 . S
O287 C291 1.246 . S
O288 Mg283 2.032 . S
O288 C291 1.259 . S
O289 Mg280 2.114 . S
O289 C292 1.252 . S
O290 Mg280 2.251 . S
O290 Mg283 2.079 . S
O290 C292 1.273 . S
C291 O287 1.246 . S
C291 O288 1.259 . S
C292 O289 1.252 . S
C292 O290 1.273 . S
O293 Mg280 2.010 . S
O293 C285 1.249 . S
Mg294 O295 2.028 . S
Mg294 O301 1.986 . S
Mg294 O303 2.114 1_556 S
Mg294 O304 2.251 1_556 S
Mg294 O307 2.010 . S
O295 Mg294 2.028 . S
O295 C298 1.250 . S
O296 Mg297 2.028 . S
O296 C298 1.248 . S
Mg297 O296 2.028 . S
Mg297 O302 2.032 . S
Mg297 O304 2.079 1_556 S
C298 O295 1.250 . S
C298 O296 1.248 . S
C299 O300 1.264 . S
C299 O307 1.249 . S
O300 C299 1.264 . S
O301 Mg294 1.986 . S
O301 C305 1.246 . S
O302 Mg297 2.032 . S
O302 C305 1.259 . S
O303 Mg294 2.114 1_554 S
O303 C306 1.252 . S
O304 Mg294 2.251 1_554 S
O304 Mg297 2.079 1_554 S
O304 C306 1.273 . S
C305 O301 1.246 . S
C305 O302 1.259 . S
C306 O303 1.252 . S
C306 O304 1.273 . S
O307 Mg294 2.010 . S
O307 C299 1.249 . S
Mg308 O309 2.028 . S
Mg308 O315 1.986 . S
Mg308 O317 2.114 1_556 S
Mg308 O318 2.251 1_556 S
Mg308 O321 2.010 . S
O309 Mg308 2.028 . S
O309 C312 1.250 . S
O310 Mg311 2.028 . S
O310 C312 1.248 . S
Mg311 O310 2.028 . S
Mg311 O316 2.032 . S
Mg311 O318 2.079 1_556 S
C312 O309 1.250 . S
C312 O310 1.248 . S
C313 O314 1.264 . S
C313 O321 1.249 . S
O314 C313 1.264 . S
O315 Mg308 1.986 . S
O315 C319 1.246 . S
O316 Mg311 2.032 . S
O316 C319 1.259 . S
O317 Mg308 2.114 1_554 S
O317 C320 1.252 . S
O318 Mg308 2.251 1_554 S
O318 Mg311 2.079 1_554 S
O318 C320 1.273 . S
C319 O315 1.246 . S
C319 O316 1.259 . S
C320 O317 1.252 . S
C320 O318 1.273 . S
O321 Mg308 2.010 . S
O321 C313 1.249 . S
Mg322 O323 2.028 . S
Mg322 O329 1.986 . S
Mg322 O331 2.114 1_556 S
Mg322 O332 2.251 1_556 S
Mg322 O335 2.010 . S
O323 Mg322 2.028 . S
O323 C326 1.250 . S
O324 Mg325 2.028 . S
O324 C326 1.248 . S
Mg325 O324 2.028 . S
Mg325 O330 2.032 . S
Mg325 O332 2.079 1_556 S
C326 O323 1.250 . S
C326 O324 1.248 . S
C327 O328 1.264 . S
C327 O335 1.249 . S
O328 C327 1.264 . S
O329 Mg322 1.986 . S
O329 C333 1.246 . S
O330 Mg325 2.032 . S
O330 C333 1.259 . S
O331 Mg322 2.114 1_554 S
O331 C334 1.252 . S
O332 Mg322 2.251 1_554 S
O332 Mg325 2.079 1_554 S
O332 C334 1.273 . S
C333 O329 1.246 . S
C333 O330 1.259 . S
C334 O331 1.252 . S
C334 O332 1.273 . S
O335 Mg322 2.010 . S
O335 C327 1.249 . S
Mg336 O337 2.028 . S
Mg336 O343 1.986 . S
Mg336 O345 2.114 . S
Mg336 O346 2.251 . S
Mg336 O349 2.010 . S
O337 Mg336 2.028 . S
O337 C340 1.250 . S
O338 Mg339 2.028 . S
O338 C340 1.248 . S
Mg339 O338 2.028 . S
Mg339 O344 2.032 . S
Mg339 O346 2.079 . S
C340 O337 1.250 . S
C340 O338 1.248 . S
C341 O342 1.264 . S
C341 O349 1.249 . S
O342 C341 1.264 . S
O343 Mg336 1.986 . S
O343 C347 1.246 . S
O344 Mg339 2.032 . S
O344 C347 1.259 . S
O345 Mg336 2.114 . S
O345 C348 1.252 . S
O346 Mg336 2.251 . S
O346 Mg339 2.079 . S
O346 C348 1.273 . S
C347 O343 1.246 . S
C347 O344 1.259 . S
C348 O345 1.252 . S
C348 O346 1.273 . S
O349 Mg336 2.010 . S
O349 C341 1.249 . S
Mg350 O351 2.028 . S
Mg350 O357 1.986 . S
Mg350 O359 2.114 . S
Mg350 O360 2.251 . S
Mg350 O363 2.010 . S
O351 Mg350 2.028 . S
O351 C354 1.250 . S
O352 Mg353 2.028 . S
O352 C354 1.248 . S
Mg353 O352 2.028 . S
Mg353 O358 2.032 . S
Mg353 O360 2.079 . S
C354 O351 1.250 . S
C354 O352 1.248 . S
C355 O356 1.264 . S
C355 O363 1.249 . S
O356 C355 1.264 . S
O357 Mg350 1.986 . S
O357 C361 1.246 . S
O358 Mg353 2.032 . S
O358 C361 1.259 . S
O359 Mg350 2.114 . S
O359 C362 1.252 . S
O360 Mg350 2.251 . S
O360 Mg353 2.079 . S
O360 C362 1.273 . S
C361 O357 1.246 . S
C361 O358 1.259 . S
C362 O359 1.252 . S
C362 O360 1.273 . S
O363 Mg350 2.010 . S
O363 C355 1.249 . S
Mg364 O365 2.028 . S
Mg364 O371 1.986 . S
Mg364 O373 2.114 . S
Mg364 O374 2.251 . S
Mg364 O377 2.010 . S
O365 Mg364 2.028 . S
O365 C368 1.250 . S
O366 Mg367 2.028 . S
O366 C368 1.248 . S
Mg367 O366 2.028 . S
Mg367 O372 2.032 . S
Mg367 O374 2.079 . S
C368 O365 1.250 . S
C368 O366 1.248 . S
C369 O370 1.264 . S
C369 O377 1.249 . S
O370 C369 1.264 . S
O371 Mg364 1.986 . S
O371 C375 1.246 . S
O372 Mg367 2.032 . S
O372 C375 1.259 . S
O373 Mg364 2.114 . S
O373 C376 1.252 . S
O374 Mg364 2.251 . S
O374 Mg367 2.079 . S
O374 C376 1.273 . S
C375 O371 1.246 . S
C375 O372 1.259 . S
C376 O373 1.252 . S
C376 O374 1.273 . S
O377 Mg364 2.010 . S
O377 C369 1.249 . S
Mg378 O379 2.028 . S
Mg378 O385 1.986 . S
Mg378 O387 2.114 1_554 S
Mg378 O388 2.251 1_554 S
Mg378 O391 2.010 . S
O379 Mg378 2.028 . S
O379 C382 1.250 . S
O380 Mg381 2.028 . S
O380 C382 1.248 . S
Mg381 O380 2.028 . S
Mg381 O386 2.032 . S
Mg381 O388 2.079 1_554 S
C382 O379 1.250 . S
C382 O380 1.248 . S
C383 O384 1.264 . S
C383 O391 1.249 . S
O384 C383 1.264 . S
O385 Mg378 1.986 . S
O385 C389 1.246 . S
O386 Mg381 2.032 . S
O386 C389 1.259 . S
O387 Mg378 2.114 1_556 S
O387 C390 1.252 . S
O388 Mg378 2.251 1_556 S
O388 Mg381 2.079 1_556 S
O388 C390 1.273 . S
C389 O385 1.246 . S
C389 O386 1.259 . S
C390 O387 1.252 . S
C390 O388 1.273 . S
O391 Mg378 2.010 . S
O391 C383 1.249 . S
Mg392 O393 2.028 . S
Mg392 O399 1.986 . S
Mg392 O401 2.114 1_554 S
Mg392 O402 2.251 1_554 S
Mg392 O405 2.010 . S
O393 Mg392 2.028 . S
O393 C396 1.250 . S
O394 Mg395 2.028 . S
O394 C396 1.248 . S
Mg395 O394 2.028 . S
Mg395 O400 2.032 . S
Mg395 O402 2.079 1_554 S
C396 O393 1.250 . S
C396 O394 1.248 . S
C397 O398 1.264 . S
C397 O405 1.249 . S
O398 C397 1.264 . S
O399 Mg392 1.986 . S
O399 C403 1.246 . S
O400 Mg395 2.032 . S
O400 C403 1.259 . S
O401 Mg392 2.114 1_556 S
O401 C404 1.252 . S
O402 Mg392 2.251 1_556 S
O402 Mg395 2.079 1_556 S
O402 C404 1.273 . S
C403 O399 1.246 . S
C403 O400 1.259 . S
C404 O401 1.252 . S
C404 O402 1.273 . S
O405 Mg392 2.010 . S
O405 C397 1.249 . S
Mg406 O407 2.028 . S
Mg406 O413 1.986 . S
Mg406 O415 2.114 1_554 S
Mg406 O416 2.251 1_554 S
Mg406 O419 2.010 . S
O407 Mg406 2.028 . S
O407 C410 1.250 . S
O408 Mg409 2.028 . S
O408 C410 1.248 . S
Mg409 O408 2.028 . S
Mg409 O414 2.032 . S
Mg409 O416 2.079 1_554 S
C410 O407 1.250 . S
C410 O408 1.248 . S
C411 O412 1.264 . S
C411 O419 1.249 . S
O412 C411 1.264 . S
O413 Mg406 1.986 . S
O413 C417 1.246 . S
O414 Mg409 2.032 . S
O414 C417 1.259 . S
O415 Mg406 2.114 1_556 S
O415 C418 1.252 . S
O416 Mg406 2.251 1_556 S
O416 Mg409 2.079 1_556 S
O416 C418 1.273 . S
C417 O413 1.246 . S
C417 O414 1.259 . S
C418 O415 1.252 . S
C418 O416 1.273 . S
O419 Mg406 2.010 . S
O419 C411 1.249 . S
Mg420 O421 2.028 . S
Mg420 O427 1.986 . S
Mg420 O429 2.114 . S
Mg420 O430 2.251 . S
Mg420 O433 2.010 . S
O421 Mg420 2.028 . S
O421 C424 1.250 . S
O422 Mg423 2.028 . S
O422 C424 1.248 . S
Mg423 O422 2.028 . S
Mg423 O428 2.032 . S
Mg423 O430 2.079 . S
C424 O421 1.250 . S
C424 O422 1.248 . S
C425 O426 1.264 . S
C425 O433 1.249 . S
O426 C425 1.264 . S
O427 Mg420 1.986 . S
O427 C431 1.246 . S
O428 Mg423 2.032 . S
O428 C431 1.259 . S
O429 Mg420 2.114 . S
O429 C432 1.252 . S
O430 Mg420 2.251 . S
O430 Mg423 2.079 . S
O430 C432 1.273 . S
C431 O427 1.246 . S
C431 O428 1.259 . S
C432 O429 1.252 . S
C432 O430 1.273 . S
O433 Mg420 2.010 . S
O433 C425 1.249 . S
Mg434 O435 2.028 . S
Mg434 O441 1.986 . S
Mg434 O443 2.114 . S
Mg434 O444 2.251 . S
Mg434 O447 2.010 . S
O435 Mg434 2.028 . S
O435 C438 1.250 . S
O436 Mg437 2.028 . S
O436 C438 1.248 . S
Mg437 O436 2.028 . S
Mg437 O442 2.032 . S
Mg437 O444 2.079 . S
C438 O435 1.250 . S
C438 O436 1.248 . S
C439 O440 1.264 . S
C439 O447 1.249 . S
O440 C439 1.264 . S
O441 Mg434 1.986 . S
O441 C445 1.246 . S
O442 Mg437 2.032 . S
O442 C445 1.259 . S
O443 Mg434 2.114 . S
O443 C446 1.252 . S
O444 Mg434 2.251 . S
O444 Mg437 2.079 . S
O444 C446 1.273 . S
C445 O441 1.246 . S
C445 O442 1.259 . S
C446 O443 1.252 . S
C446 O444 1.273 . S
O447 Mg434 2.010 . S
O447 C439 1.249 . S
Mg448 O449 2.028 . S
Mg448 O455 1.986 . S
Mg448 O457 2.114 . S
Mg448 O458 2.251 . S
Mg448 O461 2.010 . S
O449 Mg448 2.028 . S
O449 C452 1.250 . S
O450 Mg451 2.028 . S
O450 C452 1.248 . S
Mg451 O450 2.028 . S
Mg451 O456 2.032 . S
Mg451 O458 2.079 . S
C452 O449 1.250 . S
C452 O450 1.248 . S
C453 O454 1.264 . S
C453 O461 1.249 . S
O454 C453 1.264 . S
O455 Mg448 1.986 . S
O455 C459 1.246 . S
O456 Mg451 2.032 . S
O456 C459 1.259 . S
O457 Mg448 2.114 . S
O457 C460 1.252 . S
O458 Mg448 2.251 . S
O458 Mg451 2.079 . S
O458 C460 1.273 . S
C459 O455 1.246 . S
C459 O456 1.259 . S
C460 O457 1.252 . S
C460 O458 1.273 . S
O461 Mg448 2.010 . S
O461 C453 1.249 . S
Mg462 O463 2.028 . S
Mg462 O469 1.986 . S
Mg462 O471 2.114 . S
Mg462 O472 2.251 . S
Mg462 O475 2.010 . S
O463 Mg462 2.028 . S
O463 C466 1.250 . S
O464 Mg465 2.028 . S
O464 C466 1.248 . S
Mg465 O464 2.028 . S
Mg465 O470 2.032 . S
Mg465 O472 2.079 . S
C466 O463 1.250 . S
C466 O464 1.248 . S
C467 O468 1.264 . S
C467 O475 1.249 . S
O468 C467 1.264 . S
O469 Mg462 1.986 . S
O469 C473 1.246 . S
O470 Mg465 2.032 . S
O470 C473 1.259 . S
O471 Mg462 2.114 . S
O471 C474 1.252 . S
O472 Mg462 2.251 . S
O472 Mg465 2.079 . S
O472 C474 1.273 . S
C473 O469 1.246 . S
C473 O470 1.259 . S
C474 O471 1.252 . S
C474 O472 1.273 . S
O475 Mg462 2.010 . S
O475 C467 1.249 . S
Mg476 O477 2.028 . S
Mg476 O483 1.986 . S
Mg476 O485 2.114 . S
Mg476 O486 2.251 . S
Mg476 O489 2.010 . S
O477 Mg476 2.028 . S
O477 C480 1.250 . S
O478 Mg479 2.028 . S
O478 C480 1.248 . S
Mg479 O478 2.028 . S
Mg479 O484 2.032 . S
Mg479 O486 2.079 . S
C480 O477 1.250 . S
C480 O478 1.248 . S
C481 O482 1.264 . S
C481 O489 1.249 . S
O482 C481 1.264 . S
O483 Mg476 1.986 . S
O483 C487 1.246 . S
O484 Mg479 2.032 . S
O484 C487 1.259 . S
O485 Mg476 2.114 . S
O485 C488 1.252 . S
O486 Mg476 2.251 . S
O486 Mg479 2.079 . S
O486 C488 1.273 . S
C487 O483 1.246 . S
C487 O484 1.259 . S
C488 O485 1.252 . S
C488 O486 1.273 . S
O489 Mg476 2.010 . S
O489 C481 1.249 . S
Mg490 O491 2.028 . S
Mg490 O497 1.986 . S
Mg490 O499 2.114 . S
Mg490 O500 2.251 . S
Mg490 O503 2.010 . S
O491 Mg490 2.028 . S
O491 C494 1.250 . S
O492 Mg493 2.028 . S
O492 C494 1.248 . S
Mg493 O492 2.028 . S
Mg493 O498 2.032 . S
Mg493 O500 2.079 . S
C494 O491 1.250 . S
C494 O492 1.248 . S
C495 O496 1.264 . S
C495 O503 1.249 . S
O496 C495 1.264 . S
O497 Mg490 1.986 . S
O497 C501 1.246 . S
O498 Mg493 2.032 . S
O498 C501 1.259 . S
O499 Mg490 2.114 . S
O499 C502 1.252 . S
O500 Mg490 2.251 . S
O500 Mg493 2.079 . S
O500 C502 1.273 . S
C501 O497 1.246 . S
C501 O498 1.259 . S
C502 O499 1.252 . S
C502 O500 1.273 . S
O503 Mg490 2.010 . S
O503 C495 1.249 . S
H504 C510 0.930 . S
H505 C514 0.930 . S
H506 C519 0.929 . S
H507 C517 0.929 . S
H508 C512 0.929 . S
H509 C518 0.929 . S
C510 H504 0.930 . S
C510 C511 1.367 . S
C510 C518 1.378 . S
C511 C510 1.367 . S
C511 C519 1.433 . S
C512 H508 0.929 . S
C512 C514 1.378 . S
C512 C516 1.350 . S
C513 C516 1.463 1_565 S
C513 C518 1.350 . S
C513 N521 1.427 . S
C514 H505 0.930 . S
C514 C512 1.378 . S
C514 C515 1.367 . S
C515 C514 1.367 . S
C515 C517 1.433 . S
C516 C512 1.350 . S
C516 C513 1.463 1_545 S
C516 N520 1.427 . S
C517 H507 0.929 . S
C517 C515 1.433 . S
C517 N520 1.384 . S
C518 H509 0.929 . S
C518 C510 1.378 . S
C518 C513 1.350 . S
C519 H506 0.929 . S
C519 C511 1.433 . S
C519 N521 1.384 . S
N520 C516 1.427 . S
N520 C517 1.384 . S
N521 C513 1.427 . S
N521 C519 1.384 . S
H522 C528 0.930 . S
H523 C532 0.930 . S
H524 C537 0.929 . S
H525 C535 0.929 . S
H526 C530 0.929 . S
H527 C536 0.929 . S
C528 H522 0.930 . S
C528 C529 1.367 . S
C528 C536 1.378 . S
C529 C528 1.367 . S
C529 C537 1.433 . S
C530 H526 0.929 . S
C530 C532 1.378 . S
C530 C534 1.350 . S
C531 C534 1.463 1_655 S
C531 C536 1.350 . S
C531 N539 1.427 . S
C532 H523 0.930 . S
C532 C530 1.378 . S
C532 C533 1.367 . S
C533 C532 1.367 . S
C533 C535 1.433 . S
C534 C530 1.350 . S
C534 C531 1.463 1_455 S
C534 N538 1.427 . S
C535 H525 0.929 . S
C535 C533 1.433 . S
C535 N538 1.384 . S
C536 H527 0.929 . S
C536 C528 1.378 . S
C536 C531 1.350 . S
C537 H524 0.929 . S
C537 C529 1.433 . S
C537 N539 1.384 . S
N538 C534 1.427 . S
N538 C535 1.384 . S
N539 C531 1.427 . S
N539 C537 1.384 . S
H540 C546 0.930 . S
H541 C550 0.930 . S
H542 C555 0.929 . S
H543 C553 0.929 . S
H544 C548 0.929 . S
H545 C554 0.929 . S
C546 H540 0.930 . S
C546 C547 1.367 . S
C546 C554 1.378 . S
C547 C546 1.367 . S
C547 C555 1.433 . S
C548 H544 0.929 . S
C548 C550 1.378 . S
C548 C552 1.350 . S
C549 C552 1.463 . S
C549 C554 1.350 . S
C549 N557 1.427 . S
C550 H541 0.930 . S
C550 C548 1.378 . S
C550 C551 1.367 . S
C551 C550 1.367 . S
C551 C553 1.433 . S
C552 C548 1.350 . S
C552 C549 1.463 . S
C552 N556 1.427 . S
C553 H543 0.929 . S
C553 C551 1.433 . S
C553 N556 1.384 . S
C554 H545 0.929 . S
C554 C546 1.378 . S
C554 C549 1.350 . S
C555 H542 0.929 . S
C555 C547 1.433 . S
C555 N557 1.384 . S
N556 C552 1.427 . S
N556 C553 1.384 . S
N557 C549 1.427 . S
N557 C555 1.384 . S
H558 C564 0.930 . S
H559 C568 0.930 . S
H560 C573 0.929 . S
H561 C571 0.929 . S
H562 C566 0.929 . S
H563 C572 0.929 . S
C564 H558 0.930 . S
C564 C565 1.367 . S
C564 C572 1.378 . S
C565 C564 1.367 . S
C565 C573 1.433 . S
C566 H562 0.929 . S
C566 C568 1.378 . S
C566 C570 1.350 . S
C567 C570 1.463 1_565 S
C567 C572 1.350 . S
C567 N575 1.427 . S
C568 H559 0.930 . S
C568 C566 1.378 . S
C568 C569 1.367 . S
C569 C568 1.367 . S
C569 C571 1.433 . S
C570 C566 1.350 . S
C570 C567 1.463 1_545 S
C570 N574 1.427 . S
C571 H561 0.929 . S
C571 C569 1.433 . S
C571 N574 1.384 . S
C572 H563 0.929 . S
C572 C564 1.378 . S
C572 C567 1.350 . S
C573 H560 0.929 . S
C573 C565 1.433 . S
C573 N575 1.384 . S
N574 C570 1.427 . S
N574 C571 1.384 . S
N575 C567 1.427 . S
N575 C573 1.384 . S
H576 C582 0.930 . S
H577 C586 0.930 . S
H578 C591 0.929 . S
H579 C589 0.929 . S
H580 C584 0.929 1_455 S
H581 C590 0.929 1_655 S
C582 H576 0.930 . S
C582 C583 1.367 . S
C582 C590 1.378 . S
C583 C582 1.367 . S
C583 C591 1.433 . S
C584 H580 0.929 1_655 S
C584 C586 1.378 . S
C584 C588 1.350 . S
C585 C588 1.463 1_455 S
C585 C590 1.350 . S
C585 N593 1.427 . S
C586 H577 0.930 . S
C586 C584 1.378 . S
C586 C587 1.367 . S
C587 C586 1.367 . S
C587 C589 1.433 . S
C588 C584 1.350 . S
C588 C585 1.463 1_655 S
C588 N592 1.427 . S
C589 H579 0.929 . S
C589 C587 1.433 . S
C589 N592 1.384 . S
C590 H581 0.929 1_455 S
C590 C582 1.378 . S
C590 C585 1.350 . S
C591 H578 0.929 . S
C591 C583 1.433 . S
C591 N593 1.384 . S
N592 C588 1.427 . S
N592 C589 1.384 . S
N593 C585 1.427 . S
N593 C591 1.384 . S
H594 C600 0.930 . S
H595 C604 0.930 . S
H596 C609 0.929 . S
H597 C607 0.929 . S
H598 C602 0.929 . S
H599 C608 0.929 . S
C600 H594 0.930 . S
C600 C601 1.367 . S
C600 C608 1.378 . S
C601 C600 1.367 . S
C601 C609 1.433 . S
C602 H598 0.929 . S
C602 C604 1.378 . S
C602 C606 1.350 . S
C603 C606 1.463 . S
C603 C608 1.350 . S
C603 N611 1.427 . S
C604 H595 0.930 . S
C604 C602 1.378 . S
C604 C605 1.367 . S
C605 C604 1.367 . S
C605 C607 1.433 . S
C606 C602 1.350 . S
C606 C603 1.463 . S
C606 N610 1.427 . S
C607 H597 0.929 . S
C607 C605 1.433 . S
C607 N610 1.384 . S
C608 H599 0.929 . S
C608 C600 1.378 . S
C608 C603 1.350 . S
C609 H596 0.929 . S
C609 C601 1.433 . S
C609 N611 1.384 . S
N610 C606 1.427 . S
N610 C607 1.384 . S
N611 C603 1.427 . S
N611 C609 1.384 . S
H612 C618 0.930 . S
H613 C622 0.930 . S
H614 C627 0.929 . S
H615 C625 0.929 . S
H616 C620 0.929 . S
H617 C626 0.929 . S
C618 H612 0.930 . S
C618 C619 1.367 . S
C618 C626 1.378 . S
C619 C618 1.367 . S
C619 C627 1.433 . S
C620 H616 0.929 . S
C620 C622 1.378 . S
C620 C624 1.350 . S
C621 C624 1.463 . S
C621 C626 1.350 . S
C621 N629 1.427 . S
C622 H613 0.930 . S
C622 C620 1.378 . S
C622 C623 1.367 . S
C623 C622 1.367 . S
C623 C625 1.433 . S
C624 C620 1.350 . S
C624 C621 1.463 . S
C624 N628 1.427 . S
C625 H615 0.929 . S
C625 C623 1.433 . S
C625 N628 1.384 . S
C626 H617 0.929 . S
C626 C618 1.378 . S
C626 C621 1.350 . S
C627 H614 0.929 . S
C627 C619 1.433 . S
C627 N629 1.384 . S
N628 C624 1.427 . S
N628 C625 1.384 . S
N629 C621 1.427 . S
N629 C627 1.384 . S
H630 C636 0.930 . S
H631 C640 0.930 . S
H632 C645 0.929 . S
H633 C643 0.929 . S
H634 C638 0.929 . S
H635 C644 0.929 . S
C636 H630 0.930 . S
C636 C637 1.367 . S
C636 C644 1.378 . S
C637 C636 1.367 . S
C637 C645 1.433 . S
C638 H634 0.929 . S
C638 C640 1.378 . S
C638 C642 1.350 . S
C639 C642 1.463 . S
C639 C644 1.350 . S
C639 N647 1.427 . S
C640 H631 0.930 . S
C640 C638 1.378 . S
C640 C641 1.367 . S
C641 C640 1.367 . S
C641 C643 1.433 . S
C642 C638 1.350 . S
C642 C639 1.463 . S
C642 N646 1.427 . S
C643 H633 0.929 . S
C643 C641 1.433 . S
C643 N646 1.384 . S
C644 H635 0.929 . S
C644 C636 1.378 . S
C644 C639 1.350 . S
C645 H632 0.929 . S
C645 C637 1.433 . S
C645 N647 1.384 . S
N646 C642 1.427 . S
N646 C643 1.384 . S
N647 C639 1.427 . S
N647 C645 1.384 . S
H648 C654 0.930 . S
H649 C658 0.930 . S
H650 C663 0.929 . S
H651 C661 0.929 . S
H652 C656 0.929 . S
H653 C662 0.929 . S
C654 H648 0.930 . S
C654 C655 1.367 . S
C654 C662 1.378 . S
C655 C654 1.367 . S
C655 C663 1.433 . S
C656 H652 0.929 . S
C656 C658 1.378 . S
C656 C660 1.350 . S
C657 C660 1.463 . S
C657 C662 1.350 . S
C657 N665 1.427 . S
C658 H649 0.930 . S
C658 C656 1.378 . S
C658 C659 1.367 . S
C659 C658 1.367 . S
C659 C661 1.433 . S
C660 C656 1.350 . S
C660 C657 1.463 . S
C660 N664 1.427 . S
C661 H651 0.929 . S
C661 C659 1.433 . S
C661 N664 1.384 . S
C662 H653 0.929 . S
C662 C654 1.378 . S
C662 C657 1.350 . S
C663 H650 0.929 . S
C663 C655 1.433 . S
C663 N665 1.384 . S
N664 C660 1.427 . S
N664 C661 1.384 . S
N665 C657 1.427 . S
N665 C663 1.384 . S
H666 C672 0.930 . S
H667 C676 0.930 . S
H668 C681 0.929 . S
H669 C679 0.929 . S
H670 C674 0.929 . S
H671 C680 0.929 . S
C672 H666 0.930 . S
C672 C673 1.367 . S
C672 C680 1.378 . S
C673 C672 1.367 . S
C673 C681 1.433 . S
C674 H670 0.929 . S
C674 C676 1.378 . S
C674 C678 1.350 1_556 S
C675 C678 1.463 . S
C675 C680 1.350 . S
C675 N683 1.427 . S
C676 H667 0.930 . S
C676 C674 1.378 . S
C676 C677 1.367 . S
C677 C676 1.367 . S
C677 C679 1.433 1_556 S
C678 C674 1.350 1_554 S
C678 C675 1.463 . S
C678 N682 1.427 . S
C679 H669 0.929 . S
C679 C677 1.433 1_554 S
C679 N682 1.384 . S
C680 H671 0.929 . S
C680 C672 1.378 . S
C680 C675 1.350 . S
C681 H668 0.929 . S
C681 C673 1.433 . S
C681 N683 1.384 . S
N682 C678 1.427 . S
N682 C679 1.384 . S
N683 C675 1.427 . S
N683 C681 1.384 . S
H684 C690 0.930 . S
H685 C694 0.930 . S
H686 C699 0.929 . S
H687 C697 0.929 . S
H688 C692 0.929 . S
H689 C698 0.929 . S
C690 H684 0.930 . S
C690 C691 1.367 . S
C690 C698 1.378 . S
C691 C690 1.367 . S
C691 C699 1.433 . S
C692 H688 0.929 . S
C692 C694 1.378 . S
C692 C696 1.350 . S
C693 C696 1.463 . S
C693 C698 1.350 . S
C693 N701 1.427 . S
C694 H685 0.930 . S
C694 C692 1.378 . S
C694 C695 1.367 1_554 S
C695 C694 1.367 1_556 S
C695 C697 1.433 . S
C696 C692 1.350 . S
C696 C693 1.463 . S
C696 N700 1.423 1_554 S
C697 H687 0.929 . S
C697 C695 1.433 . S
C697 N700 1.387 . S
C698 H689 0.929 . S
C698 C690 1.378 . S
C698 C693 1.350 . S
C699 H686 0.929 . S
C699 C691 1.433 . S
C699 N701 1.384 . S
N700 C696 1.423 1_556 S
N700 C697 1.387 . S
N701 C693 1.427 . S
N701 C699 1.384 . S
H702 C708 0.930 . S
H703 C712 0.930 . S
H704 C717 0.929 . S
H705 C715 0.929 . S
H706 C710 0.929 . S
H707 C716 0.929 . S
C708 H702 0.930 . S
C708 C709 1.367 . S
C708 C716 1.378 . S
C709 C708 1.367 . S
C709 C717 1.433 . S
C710 H706 0.929 . S
C710 C712 1.378 . S
C710 C714 1.350 . S
C711 C714 1.463 . S
C711 C716 1.350 . S
C711 N719 1.427 . S
C712 H703 0.930 . S
C712 C710 1.378 . S
C712 C713 1.367 1_554 S
C713 C712 1.367 1_556 S
C713 C715 1.433 . S
C714 C710 1.350 . S
C714 C711 1.463 . S
C714 N718 1.427 . S
C715 H705 0.929 . S
C715 C713 1.433 . S
C715 N718 1.384 1_556 S
C716 H707 0.929 . S
C716 C708 1.378 . S
C716 C711 1.350 . S
C717 H704 0.929 . S
C717 C709 1.433 . S
C717 N719 1.384 . S
N718 C714 1.427 . S
N718 C715 1.384 1_554 S
N719 C711 1.427 . S
N719 C717 1.384 . S
H720 C726 0.930 . S
H721 C730 0.930 . S
H722 C735 0.929 . S
H723 C733 0.929 . S
H724 C728 0.929 . S
H725 C734 0.929 . S
C726 H720 0.930 . S
C726 C727 1.367 . S
C726 C734 1.378 . S
C727 C726 1.367 . S
C727 C735 1.433 . S
C728 H724 0.929 . S
C728 C730 1.378 . S
C728 C732 1.350 1_554 S
C729 C732 1.463 . S
C729 C734 1.350 . S
C729 N737 1.427 . S
C730 H721 0.930 . S
C730 C728 1.378 . S
C730 C731 1.367 . S
C731 C730 1.367 . S
C731 C733 1.433 1_554 S
C732 C728 1.350 1_556 S
C732 C729 1.463 . S
C732 N736 1.427 . S
C733 H723 0.929 . S
C733 C731 1.433 1_556 S
C733 N736 1.384 . S
C734 H725 0.929 . S
C734 C726 1.378 . S
C734 C729 1.350 . S
C735 H722 0.929 . S
C735 C727 1.433 . S
C735 N737 1.384 . S
N736 C732 1.427 . S
N736 C733 1.384 . S
N737 C729 1.427 . S
N737 C735 1.384 . S
H738 C744 0.930 . S
H739 C748 0.930 . S
H740 C753 0.929 . S
H741 C751 0.929 . S
H742 C746 0.929 . S
H743 C752 0.929 . S
C744 H738 0.930 . S
C744 C745 1.367 . S
C744 C752 1.378 . S
C745 C744 1.367 . S
C745 C753 1.433 1_554 S
C746 H742 0.929 . S
C746 C748 1.378 . S
C746 C750 1.350 . S
C747 C750 1.463 . S
C747 C752 1.350 1_556 S
C747 N755 1.427 . S
C748 H739 0.930 . S
C748 C746 1.378 . S
C748 C749 1.367 . S
C749 C748 1.367 . S
C749 C751 1.433 . S
C750 C746 1.350 . S
C750 C747 1.463 . S
C750 N754 1.427 . S
C751 H741 0.929 . S
C751 C749 1.433 . S
C751 N754 1.384 . S
C752 H743 0.929 . S
C752 C744 1.378 . S
C752 C747 1.350 1_554 S
C753 H740 0.929 . S
C753 C745 1.433 1_556 S
C753 N755 1.384 . S
N754 C750 1.427 . S
N754 C751 1.384 . S
N755 C747 1.427 . S
N755 C753 1.384 . S
H756 C762 0.930 . S
H757 C766 0.930 . S
H758 C771 0.929 . S
H759 C769 0.929 . S
H760 C764 0.929 . S
H761 C770 0.929 . S
C762 H756 0.930 . S
C762 C763 1.367 . S
C762 C770 1.378 . S
C763 C762 1.367 . S
C763 C771 1.433 . S
C764 H760 0.929 . S
C764 C766 1.378 . S
C764 C768 1.350 1_554 S
C765 C768 1.463 . S
C765 C770 1.350 . S
C765 N773 1.427 . S
C766 H757 0.930 . S
C766 C764 1.378 . S
C766 C767 1.367 . S
C767 C766 1.367 . S
C767 C769 1.433 1_554 S
C768 C764 1.350 1_556 S
C768 C765 1.463 . S
C768 N772 1.427 . S
C769 H759 0.929 . S
C769 C767 1.433 1_556 S
C769 N772 1.384 . S
C770 H761 0.929 . S
C770 C762 1.378 . S
C770 C765 1.350 . S
C771 H758 0.929 . S
C771 C763 1.433 . S
C771 N773 1.384 . S
N772 C768 1.427 . S
N772 C769 1.384 . S
N773 C765 1.427 . S
N773 C771 1.384 . S
H774 C780 0.930 . S
H775 C784 0.930 . S
H776 C789 0.929 . S
H777 C787 0.929 . S
H778 C782 0.929 . S
H779 C788 0.929 . S
C780 H774 0.930 . S
C780 C781 1.367 . S
C780 C788 1.378 . S
C781 C780 1.367 . S
C781 C789 1.433 . S
C782 H778 0.929 . S
C782 C784 1.378 . S
C782 C786 1.350 . S
C783 C786 1.463 . S
C783 C788 1.350 . S
C783 N791 1.427 . S
C784 H775 0.930 . S
C784 C782 1.378 . S
C784 C785 1.367 . S
C785 C784 1.367 . S
C785 C787 1.433 . S
C786 C782 1.350 . S
C786 C783 1.463 . S
C786 N790 1.427 . S
C787 H777 0.929 . S
C787 C785 1.433 . S
C787 N790 1.384 . S
C788 H779 0.929 . S
C788 C780 1.378 . S
C788 C783 1.350 . S
C789 H776 0.929 . S
C789 C781 1.433 . S
C789 N791 1.384 . S
N790 C786 1.427 . S
N790 C787 1.384 . S
N791 C783 1.427 . S
N791 C789 1.384 . S
H792 C798 0.930 . S
H793 C802 0.930 . S
H794 C807 0.929 . S
H795 C805 0.929 . S
H796 C800 0.929 . S
H797 C806 0.929 . S
C798 H792 0.930 . S
C798 C799 1.367 . S
C798 C806 1.378 . S
C799 C798 1.367 . S
C799 C807 1.433 . S
C800 H796 0.929 . S
C800 C802 1.378 . S
C800 C804 1.350 . S
C801 C804 1.463 . S
C801 C806 1.350 . S
C801 N809 1.427 . S
C802 H793 0.930 . S
C802 C800 1.378 . S
C802 C803 1.367 . S
C803 C802 1.367 . S
C803 C805 1.433 . S
C804 C800 1.350 . S
C804 C801 1.463 . S
C804 N808 1.427 . S
C805 H795 0.929 . S
C805 C803 1.433 . S
C805 N808 1.384 . S
C806 H797 0.929 . S
C806 C798 1.378 . S
C806 C801 1.350 . S
C807 H794 0.929 . S
C807 C799 1.433 . S
C807 N809 1.384 . S
N808 C804 1.427 . S
N808 C805 1.384 . S
N809 C801 1.427 . S
N809 C807 1.384 . S
H810 C816 0.930 . S
H811 C820 0.930 . S
H812 C825 0.929 . S
H813 C823 0.929 . S
H814 C818 0.929 . S
H815 C824 0.929 . S
C816 H810 0.930 . S
C816 C817 1.367 . S
C816 C824 1.378 . S
C817 C816 1.367 . S
C817 C825 1.433 . S
C818 H814 0.929 . S
C818 C820 1.378 . S
C818 C822 1.350 . S
C819 C822 1.463 . S
C819 C824 1.350 . S
C819 N827 1.427 . S
C820 H811 0.930 . S
C820 C818 1.378 . S
C820 C821 1.367 . S
C821 C820 1.367 . S
C821 C823 1.433 . S
C822 C818 1.350 . S
C822 C819 1.463 . S
C822 N826 1.427 . S
C823 H813 0.929 . S
C823 C821 1.433 . S
C823 N826 1.384 . S
C824 H815 0.929 . S
C824 C816 1.378 . S
C824 C819 1.350 . S
C825 H812 0.929 . S
C825 C817 1.433 . S
C825 N827 1.384 . S
N826 C822 1.427 . S
N826 C823 1.384 . S
N827 C819 1.427 . S
N827 C825 1.384 . S
H828 C834 0.930 . S
H829 C838 0.930 . S
H830 C843 0.929 . S
H831 C841 0.929 1_554 S
H832 C836 0.929 . S
H833 C842 0.929 . S
C834 H828 0.930 . S
C834 C835 1.367 . S
C834 C842 1.378 . S
C835 C834 1.367 . S
C835 C843 1.433 . S
C836 H832 0.929 . S
C836 C838 1.378 . S
C836 C840 1.350 . S
C837 C840 1.463 . S
C837 C842 1.350 . S
C837 N845 1.427 . S
C838 H829 0.930 . S
C838 C836 1.378 . S
C838 C839 1.367 . S
C839 C838 1.367 . S
C839 C841 1.433 . S
C840 C836 1.350 . S
C840 C837 1.463 . S
C840 N844 1.427 . S
C841 H831 0.929 1_556 S
C841 C839 1.433 . S
C841 N844 1.384 . S
C842 H833 0.929 . S
C842 C834 1.378 . S
C842 C837 1.350 . S
C843 H830 0.929 . S
C843 C835 1.433 . S
C843 N845 1.384 . S
N844 C840 1.427 . S
N844 C841 1.384 . S
N845 C837 1.427 . S
N845 C843 1.384 . S
H846 C852 0.930 . S
H847 C856 0.937 . S
H848 C861 0.929 . S
H849 C859 0.929 . S
H850 C854 0.929 . S
H851 C860 0.929 . S
C852 H846 0.930 . S
C852 C853 1.367 . S
C852 C860 1.378 . S
C853 C852 1.367 . S
C853 C861 1.433 . S
C854 H850 0.929 . S
C854 C856 1.374 1_556 S
C854 C858 1.350 . S
C855 C858 1.463 . S
C855 C860 1.350 . S
C855 N863 1.427 . S
C856 H847 0.937 . S
C856 C854 1.374 1_554 S
C856 C857 1.364 1_554 S
C857 C856 1.364 1_556 S
C857 C859 1.433 . S
C858 C854 1.350 . S
C858 C855 1.463 . S
C858 N862 1.427 . S
C859 H849 0.929 . S
C859 C857 1.433 . S
C859 N862 1.384 . S
C860 H851 0.929 . S
C860 C852 1.378 . S
C860 C855 1.350 . S
C861 H848 0.929 . S
C861 C853 1.433 . S
C861 N863 1.384 . S
N862 C858 1.427 . S
N862 C859 1.384 . S
N863 C855 1.427 . S
N863 C861 1.384 . S
H864 C870 0.930 . S
H865 C874 0.941 . S
H866 C879 0.929 . S
H867 C877 0.929 . S
H868 C872 0.929 . S
H869 C878 0.929 . S
C870 H864 0.930 . S
C870 C871 1.367 . S
C870 C878 1.378 . S
C871 C870 1.367 . S
C871 C879 1.433 . S
C872 H868 0.929 . S
C872 C874 1.371 1_556 S
C872 C876 1.350 . S
C873 C876 1.463 . S
C873 C878 1.350 . S
C873 N881 1.427 . S
C874 H865 0.941 . S
C874 C872 1.371 1_554 S
C874 C875 1.363 1_554 S
C875 C874 1.363 1_556 S
C875 C877 1.433 . S
C876 C872 1.350 . S
C876 C873 1.463 . S
C876 N880 1.427 . S
C877 H867 0.929 . S
C877 C875 1.433 . S
C877 N880 1.384 . S
C878 H869 0.929 . S
C878 C870 1.378 . S
C878 C873 1.350 . S
C879 H866 0.929 . S
C879 C871 1.433 . S
C879 N881 1.384 . S
N880 C876 1.427 . S
N880 C877 1.384 . S
N881 C873 1.427 . S
N881 C879 1.384 . S
H882 C888 0.930 . S
H883 C892 0.930 . S
H884 C897 0.929 . S
H885 C895 0.929 . S
H886 C890 0.929 . S
H887 C896 0.929 . S
C888 H882 0.930 . S
C888 C889 1.367 . S
C888 C896 1.378 . S
C889 C888 1.367 . S
C889 C897 1.433 . S
C890 H886 0.929 . S
C890 C892 1.378 . S
C890 C894 1.350 . S
C891 C894 1.463 . S
C891 C896 1.350 . S
C891 N899 1.427 . S
C892 H883 0.930 . S
C892 C890 1.378 . S
C892 C893 1.367 . S
C893 C892 1.367 . S
C893 C895 1.433 . S
C894 C890 1.350 . S
C894 C891 1.463 . S
C894 N898 1.427 . S
C895 H885 0.929 . S
C895 C893 1.433 . S
C895 N898 1.384 . S
C896 H887 0.929 . S
C896 C888 1.378 . S
C896 C891 1.350 . S
C897 H884 0.929 . S
C897 C889 1.433 . S
C897 N899 1.384 . S
N898 C894 1.427 . S
N898 C895 1.384 . S
N899 C891 1.427 . S
N899 C897 1.384 . S
H900 C906 0.930 . S
H901 C910 0.930 . S
H902 C915 0.929 . S
H903 C913 0.929 . S
H904 C908 0.929 . S
H905 C914 0.929 . S
C906 H900 0.930 . S
C906 C907 1.367 . S
C906 C914 1.378 . S
C907 C906 1.367 . S
C907 C915 1.433 . S
C908 H904 0.929 . S
C908 C910 1.378 . S
C908 C912 1.350 . S
C909 C912 1.463 . S
C909 C914 1.350 . S
C909 N917 1.427 . S
C910 H901 0.930 . S
C910 C908 1.378 . S
C910 C911 1.367 . S
C911 C910 1.367 . S
C911 C913 1.433 . S
C912 C908 1.350 . S
C912 C909 1.463 . S
C912 N916 1.427 . S
C913 H903 0.929 . S
C913 C911 1.433 . S
C913 N916 1.384 . S
C914 H905 0.929 . S
C914 C906 1.378 . S
C914 C909 1.350 . S
C915 H902 0.929 . S
C915 C907 1.433 . S
C915 N917 1.384 . S
N916 C912 1.427 . S
N916 C913 1.384 . S
N917 C909 1.427 . S
N917 C915 1.384 . S
H918 C924 0.930 . S
H919 C928 0.930 . S
H920 C933 0.929 . S
H921 C931 0.929 . S
H922 C926 0.929 . S
H923 C932 0.929 . S
C924 H918 0.930 . S
C924 C925 1.367 . S
C924 C932 1.378 . S
C925 C924 1.367 . S
C925 C933 1.433 . S
C926 H922 0.929 . S
C926 C928 1.378 . S
C926 C930 1.350 . S
C927 C930 1.463 . S
C927 C932 1.350 . S
C927 N935 1.427 . S
C928 H919 0.930 . S
C928 C926 1.378 . S
C928 C929 1.367 . S
C929 C928 1.367 . S
C929 C931 1.433 . S
C930 C926 1.350 . S
C930 C927 1.463 . S
C930 N934 1.427 . S
C931 H921 0.929 . S
C931 C929 1.433 . S
C931 N934 1.384 . S
C932 H923 0.929 . S
C932 C924 1.378 . S
C932 C927 1.350 . S
C933 H920 0.929 . S
C933 C925 1.433 . S
C933 N935 1.384 . S
N934 C930 1.427 . S
N934 C931 1.384 . S
N935 C927 1.427 . S
N935 C933 1.384 . S
H936 C942 0.930 . S
H937 C946 0.930 . S
H938 C951 0.929 . S
H939 C949 0.929 . S
H940 C944 0.929 . S
H941 C950 0.929 . S
C942 H936 0.930 . S
C942 C943 1.367 . S
C942 C950 1.378 . S
C943 C942 1.367 . S
C943 C951 1.433 . S
C944 H940 0.929 . S
C944 C946 1.378 . S
C944 C948 1.350 . S
C945 C948 1.463 . S
C945 C950 1.350 . S
C945 N953 1.427 . S
C946 H937 0.930 . S
C946 C944 1.378 . S
C946 C947 1.367 . S
C947 C946 1.367 . S
C947 C949 1.433 . S
C948 C944 1.350 . S
C948 C945 1.463 . S
C948 N952 1.427 . S
C949 H939 0.929 . S
C949 C947 1.433 . S
C949 N952 1.384 . S
C950 H941 0.929 . S
C950 C942 1.378 . S
C950 C945 1.350 . S
C951 H938 0.929 . S
C951 C943 1.433 . S
C951 N953 1.384 . S
N952 C948 1.427 . S
N952 C949 1.384 . S
N953 C945 1.427 . S
N953 C951 1.384 . S
H954 C960 0.930 . S
H955 C964 0.930 . S
H956 C969 0.929 1_556 S
H957 C967 0.929 . S
H958 C962 0.929 . S
H959 C968 0.929 . S
C960 H954 0.930 . S
C960 C961 1.367 . S
C960 C968 1.378 . S
C961 C960 1.367 . S
C961 C969 1.433 . S
C962 H958 0.929 . S
C962 C964 1.378 . S
C962 C966 1.350 . S
C963 C966 1.463 . S
C963 C968 1.350 . S
C963 N971 1.427 . S
C964 H955 0.930 . S
C964 C962 1.378 . S
C964 C965 1.367 . S
C965 C964 1.367 . S
C965 C967 1.433 . S
C966 C962 1.350 . S
C966 C963 1.463 . S
C966 N970 1.427 . S
C967 H957 0.929 . S
C967 C965 1.433 . S
C967 N970 1.384 . S
C968 H959 0.929 . S
C968 C960 1.378 . S
C968 C963 1.350 . S
C969 H956 0.929 1_554 S
C969 C961 1.433 . S
C969 N971 1.384 . S
N970 C966 1.427 . S
N970 C967 1.384 . S
N971 C963 1.427 . S
N971 C969 1.384 . S
H972 C978 0.930 . S
H973 C982 0.930 . S
H974 C987 0.929 1_556 S
H975 C985 0.929 . S
H976 C980 0.929 . S
H977 C986 0.929 . S
C978 H972 0.930 . S
C978 C979 1.367 . S
C978 C986 1.378 . S
C979 C978 1.367 . S
C979 C987 1.433 . S
C980 H976 0.929 . S
C980 C982 1.378 . S
C980 C984 1.350 . S
C981 C984 1.463 . S
C981 C986 1.350 . S
C981 N989 1.427 . S
C982 H973 0.930 . S
C982 C980 1.378 . S
C982 C983 1.367 . S
C983 C982 1.367 . S
C983 C985 1.433 . S
C984 C980 1.350 . S
C984 C981 1.463 . S
C984 N988 1.427 . S
C985 H975 0.929 . S
C985 C983 1.433 . S
C985 N988 1.384 . S
C986 H977 0.929 . S
C986 C978 1.378 . S
C986 C981 1.350 . S
C987 H974 0.929 1_554 S
C987 C979 1.433 . S
C987 N989 1.384 . S
N988 C984 1.427 . S
N988 C985 1.384 . S
N989 C981 1.427 . S
N989 C987 1.384 . S
H990 C996 0.930 . S
H991 C1000 0.930 . S
H992 C1005 0.929 . S
H993 C1003 0.929 . S
H994 C998 0.929 . S
H995 C1004 0.929 . S
C996 H990 0.930 . S
C996 C997 1.367 . S
C996 C1004 1.378 . S
C997 C996 1.367 . S
C997 C1005 1.433 . S
C998 H994 0.929 . S
C998 C1000 1.378 . S
C998 C1002 1.350 . S
C999 C1002 1.463 . S
C999 C1004 1.350 . S
C999 N1007 1.427 . S
C1000 H991 0.930 . S
C1000 C998 1.378 . S
C1000 C1001 1.367 . S
C1001 C1000 1.367 . S
C1001 C1003 1.433 . S
C1002 C998 1.350 . S
C1002 C999 1.463 . S
C1002 N1006 1.427 . S
C1003 H993 0.929 . S
C1003 C1001 1.433 . S
C1003 N1006 1.384 . S
C1004 H995 0.929 . S
C1004 C996 1.378 . S
C1004 C999 1.350 . S
C1005 H992 0.929 . S
C1005 C997 1.433 . S
C1005 N1007 1.384 . S
N1006 C1002 1.427 . S
N1006 C1003 1.384 . S
N1007 C999 1.427 . S
N1007 C1005 1.384 . S
H1008 C1014 0.930 . S
H1009 C1018 0.930 . S
H1010 C1023 0.929 . S
H1011 C1021 0.929 . S
H1012 C1016 0.929 . S
H1013 C1022 0.929 . S
C1014 H1008 0.930 . S
C1014 C1015 1.367 . S
C1014 C1022 1.378 . S
C1015 C1014 1.367 . S
C1015 C1023 1.433 . S
C1016 H1012 0.929 . S
C1016 C1018 1.378 . S
C1016 C1020 1.350 . S
C1017 C1020 1.463 . S
C1017 C1022 1.350 . S
C1017 N1025 1.427 . S
C1018 H1009 0.930 . S
C1018 C1016 1.378 . S
C1018 C1019 1.367 . S
C1019 C1018 1.367 . S
C1019 C1021 1.433 . S
C1020 C1016 1.350 . S
C1020 C1017 1.463 . S
C1020 N1024 1.427 . S
C1021 H1011 0.929 . S
C1021 C1019 1.433 . S
C1021 N1024 1.384 . S
C1022 H1013 0.929 . S
C1022 C1014 1.378 . S
C1022 C1017 1.350 . S
C1023 H1010 0.929 . S
C1023 C1015 1.433 . S
C1023 N1025 1.384 . S
N1024 C1020 1.427 . S
N1024 C1021 1.384 . S
N1025 C1017 1.427 . S
N1025 C1023 1.384 . S
H1026 C1032 0.930 . S
H1027 C1036 0.930 . S
H1028 C1041 0.929 . S
H1029 C1039 0.929 . S
H1030 C1034 0.929 . S
H1031 C1040 0.929 . S
C1032 H1026 0.930 . S
C1032 C1033 1.367 . S
C1032 C1040 1.378 . S
C1033 C1032 1.367 . S
C1033 C1041 1.433 . S
C1034 H1030 0.929 . S
C1034 C1036 1.378 . S
C1034 C1038 1.350 . S
C1035 C1038 1.463 . S
C1035 C1040 1.350 . S
C1035 N1043 1.427 . S
C1036 H1027 0.930 . S
C1036 C1034 1.378 . S
C1036 C1037 1.367 . S
C1037 C1036 1.367 . S
C1037 C1039 1.433 . S
C1038 C1034 1.350 . S
C1038 C1035 1.463 . S
C1038 N1042 1.427 . S
C1039 H1029 0.929 . S
C1039 C1037 1.433 . S
C1039 N1042 1.384 . S
C1040 H1031 0.929 . S
C1040 C1032 1.378 . S
C1040 C1035 1.350 . S
C1041 H1028 0.929 . S
C1041 C1033 1.433 . S
C1041 N1043 1.384 . S
N1042 C1038 1.427 . S
N1042 C1039 1.384 . S
N1043 C1035 1.427 . S
N1043 C1041 1.384 . S
H1044 C1050 0.930 . S
H1045 C1054 0.930 . S
H1046 C1059 0.929 . S
H1047 C1057 0.929 . S
H1048 C1052 0.929 . S
H1049 C1058 0.929 . S
C1050 H1044 0.930 . S
C1050 C1051 1.367 . S
C1050 C1058 1.378 . S
C1051 C1050 1.367 . S
C1051 C1059 1.433 . S
C1052 H1048 0.929 . S
C1052 C1054 1.378 . S
C1052 C1056 1.350 . S
C1053 C1056 1.463 . S
C1053 C1058 1.350 . S
C1053 N1061 1.427 . S
C1054 H1045 0.930 . S
C1054 C1052 1.378 . S
C1054 C1055 1.367 . S
C1055 C1054 1.367 . S
C1055 C1057 1.433 . S
C1056 C1052 1.350 . S
C1056 C1053 1.463 . S
C1056 N1060 1.427 . S
C1057 H1047 0.929 . S
C1057 C1055 1.433 . S
C1057 N1060 1.384 . S
C1058 H1049 0.929 . S
C1058 C1050 1.378 . S
C1058 C1053 1.350 . S
C1059 H1046 0.929 . S
C1059 C1051 1.433 . S
C1059 N1061 1.384 . S
N1060 C1056 1.427 . S
N1060 C1057 1.384 . S
N1061 C1053 1.427 . S
N1061 C1059 1.384 . S
H1062 C1068 0.930 . S
H1063 C1072 0.930 . S
H1064 C1077 0.929 . S
H1065 C1075 0.929 . S
H1066 C1070 0.929 . S
H1067 C1076 0.929 . S
C1068 H1062 0.930 . S
C1068 C1069 1.367 . S
C1068 C1076 1.378 . S
C1069 C1068 1.367 . S
C1069 C1077 1.433 . S
C1070 H1066 0.929 . S
C1070 C1072 1.378 . S
C1070 C1074 1.350 . S
C1071 C1074 1.463 . S
C1071 C1076 1.350 . S
C1071 N1079 1.427 . S
C1072 H1063 0.930 . S
C1072 C1070 1.378 . S
C1072 C1073 1.367 . S
C1073 C1072 1.367 . S
C1073 C1075 1.433 . S
C1074 C1070 1.350 . S
C1074 C1071 1.463 . S
C1074 N1078 1.427 . S
C1075 H1065 0.929 . S
C1075 C1073 1.433 . S
C1075 N1078 1.384 . S
C1076 H1067 0.929 . S
C1076 C1068 1.378 . S
C1076 C1071 1.350 . S
C1077 H1064 0.929 . S
C1077 C1069 1.433 . S
C1077 N1079 1.384 . S
N1078 C1074 1.427 . S
N1078 C1075 1.384 . S
N1079 C1071 1.427 . S
N1079 C1077 1.384 . S
H1080 C1086 0.930 . S
H1081 C1090 0.930 . S
H1082 C1095 0.929 . S
H1083 C1093 0.929 . S
H1084 C1088 0.929 . S
H1085 C1094 0.929 . S
C1086 H1080 0.930 . S
C1086 C1087 1.367 . S
C1086 C1094 1.378 . S
C1087 C1086 1.367 . S
C1087 C1095 1.433 . S
C1088 H1084 0.929 . S
C1088 C1090 1.378 . S
C1088 C1092 1.350 . S
C1089 C1092 1.463 . S
C1089 C1094 1.350 . S
C1089 N1097 1.427 . S
C1090 H1081 0.930 . S
C1090 C1088 1.378 . S
C1090 C1091 1.367 . S
C1091 C1090 1.367 . S
C1091 C1093 1.433 . S
C1092 C1088 1.350 . S
C1092 C1089 1.463 . S
C1092 N1096 1.427 . S
C1093 H1083 0.929 . S
C1093 C1091 1.433 . S
C1093 N1096 1.384 . S
C1094 H1085 0.929 . S
C1094 C1086 1.378 . S
C1094 C1089 1.350 . S
C1095 H1082 0.929 . S
C1095 C1087 1.433 . S
C1095 N1097 1.384 . S
N1096 C1092 1.427 . S
N1096 C1093 1.384 . S
N1097 C1089 1.427 . S
N1097 C1095 1.384 . S
H1098 C1104 0.930 . S
H1099 C1108 0.930 . S
H1100 C1113 0.929 . S
H1101 C1111 0.929 . S
H1102 C1106 0.929 . S
H1103 C1112 0.929 . S
C1104 H1098 0.930 . S
C1104 C1105 1.367 . S
C1104 C1112 1.378 . S
C1105 C1104 1.367 . S
C1105 C1113 1.433 . S
C1106 H1102 0.929 . S
C1106 C1108 1.378 . S
C1106 C1110 1.353 . S
C1107 C1110 1.460 1_556 S
C1107 C1112 1.350 . S
C1107 N1115 1.427 . S
C1108 H1099 0.930 . S
C1108 C1106 1.378 . S
C1108 C1109 1.367 . S
C1109 C1108 1.367 . S
C1109 C1111 1.433 . S
C1110 C1106 1.353 . S
C1110 C1107 1.460 1_554 S
C1110 N1114 1.427 1_554 S
C1111 H1101 0.929 . S
C1111 C1109 1.433 . S
C1111 N1114 1.384 1_554 S
C1112 H1103 0.929 . S
C1112 C1104 1.378 . S
C1112 C1107 1.350 . S
C1113 H1100 0.929 . S
C1113 C1105 1.433 . S
C1113 N1115 1.384 . S
N1114 C1110 1.427 1_556 S
N1114 C1111 1.384 1_556 S
N1115 C1107 1.427 . S
N1115 C1113 1.384 . S
H1116 C1122 0.930 . S
H1117 C1126 0.930 . S
H1118 C1131 0.929 . S
H1119 C1129 0.929 . S
H1120 C1124 0.929 . S
H1121 C1130 0.920 1_554 S
C1122 H1116 0.930 . S
C1122 C1123 1.367 . S
C1122 C1130 1.378 . S
C1123 C1122 1.367 . S
C1123 C1131 1.433 . S
C1124 H1120 0.929 . S
C1124 C1126 1.378 1_556 S
C1124 C1128 1.350 . S
C1125 C1128 1.463 . S
C1125 C1130 1.350 . S
C1125 N1133 1.427 . S
C1126 H1117 0.930 . S
C1126 C1124 1.378 1_554 S
C1126 C1127 1.367 . S
C1127 C1126 1.367 . S
C1127 C1129 1.433 . S
C1128 C1124 1.350 . S
C1128 C1125 1.463 . S
C1128 N1132 1.427 1_556 S
C1129 H1119 0.929 . S
C1129 C1127 1.433 . S
C1129 N1132 1.384 . S
C1130 H1121 0.920 1_556 S
C1130 C1122 1.378 . S
C1130 C1125 1.350 . S
C1131 H1118 0.929 . S
C1131 C1123 1.433 . S
C1131 N1133 1.384 . S
N1132 C1128 1.427 1_554 S
N1132 C1129 1.384 . S
N1133 C1125 1.427 . S
N1133 C1131 1.384 . S
H1134 C1140 0.930 . S
H1135 C1144 0.930 . S
H1136 C1149 0.929 . S
H1137 C1147 0.929 . S
H1138 C1142 0.929 . S
H1139 C1148 0.929 . S
C1140 H1134 0.930 . S
C1140 C1141 1.367 . S
C1140 C1148 1.378 . S
C1141 C1140 1.367 . S
C1141 C1149 1.433 . S
C1142 H1138 0.929 . S
C1142 C1144 1.378 . S
C1142 C1146 1.354 . S
C1143 C1146 1.459 1_556 S
C1143 C1148 1.350 . S
C1143 N1151 1.427 . S
C1144 H1135 0.930 . S
C1144 C1142 1.378 . S
C1144 C1145 1.367 . S
C1145 C1144 1.367 . S
C1145 C1147 1.433 . S
C1146 C1142 1.354 . S
C1146 C1143 1.459 1_554 S
C1146 N1150 1.426 1_554 S
C1147 H1137 0.929 . S
C1147 C1145 1.433 . S
C1147 N1150 1.384 1_554 S
C1148 H1139 0.929 . S
C1148 C1140 1.378 . S
C1148 C1143 1.350 . S
C1149 H1136 0.929 . S
C1149 C1141 1.433 . S
C1149 N1151 1.384 . S
N1150 C1146 1.426 1_556 S
N1150 C1147 1.384 1_556 S
N1151 C1143 1.427 . S
N1151 C1149 1.384 . S
H1152 C1158 0.930 . S
H1153 C1162 0.930 . S
H1154 C1167 0.929 . S
H1155 C1165 0.929 . S
H1156 C1160 0.929 . S
H1157 C1166 0.929 . S
C1158 H1152 0.930 . S
C1158 C1159 1.367 . S
C1158 C1166 1.378 . S
C1159 C1158 1.367 . S
C1159 C1167 1.433 . S
C1160 H1156 0.929 . S
C1160 C1162 1.378 . S
C1160 C1164 1.350 . S
C1161 C1164 1.463 . S
C1161 C1166 1.350 . S
C1161 N1169 1.427 . S
C1162 H1153 0.930 . S
C1162 C1160 1.378 . S
C1162 C1163 1.367 . S
C1163 C1162 1.367 . S
C1163 C1165 1.433 . S
C1164 C1160 1.350 . S
C1164 C1161 1.463 . S
C1164 N1168 1.427 . S
C1165 H1155 0.929 . S
C1165 C1163 1.433 . S
C1165 N1168 1.384 . S
C1166 H1157 0.929 . S
C1166 C1158 1.378 . S
C1166 C1161 1.350 . S
C1167 H1154 0.929 . S
C1167 C1159 1.433 . S
C1167 N1169 1.384 . S
N1168 C1164 1.427 . S
N1168 C1165 1.384 . S
N1169 C1161 1.427 . S
N1169 C1167 1.384 . S
H1170 C1176 0.930 . S
H1171 C1180 0.930 . S
H1172 C1185 0.929 . S
H1173 C1183 0.929 . S
H1174 C1178 0.929 . S
H1175 C1184 0.929 . S
C1176 H1170 0.930 . S
C1176 C1177 1.367 . S
C1176 C1184 1.378 . S
C1177 C1176 1.367 . S
C1177 C1185 1.433 . S
C1178 H1174 0.929 . S
C1178 C1180 1.378 . S
C1178 C1182 1.350 . S
C1179 C1182 1.463 . S
C1179 C1184 1.350 . S
C1179 N1187 1.427 . S
C1180 H1171 0.930 . S
C1180 C1178 1.378 . S
C1180 C1181 1.367 . S
C1181 C1180 1.367 . S
C1181 C1183 1.433 . S
C1182 C1178 1.350 . S
C1182 C1179 1.463 . S
C1182 N1186 1.427 . S
C1183 H1173 0.929 . S
C1183 C1181 1.433 . S
C1183 N1186 1.384 . S
C1184 H1175 0.929 . S
C1184 C1176 1.378 . S
C1184 C1179 1.350 . S
C1185 H1172 0.929 . S
C1185 C1177 1.433 . S
C1185 N1187 1.384 . S
N1186 C1182 1.427 . S
N1186 C1183 1.384 . S
N1187 C1179 1.427 . S
N1187 C1185 1.384 . S
H1188 C1194 0.930 . S
H1189 C1198 0.930 . S
H1190 C1203 0.929 . S
H1191 C1201 0.929 . S
H1192 C1196 0.929 . S
H1193 C1202 0.929 . S
C1194 H1188 0.930 . S
C1194 C1195 1.367 . S
C1194 C1202 1.378 . S
C1195 C1194 1.367 . S
C1195 C1203 1.433 . S
C1196 H1192 0.929 . S
C1196 C1198 1.378 . S
C1196 C1200 1.350 . S
C1197 C1200 1.463 . S
C1197 C1202 1.350 . S
C1197 N1205 1.427 . S
C1198 H1189 0.930 . S
C1198 C1196 1.378 . S
C1198 C1199 1.367 . S
C1199 C1198 1.367 . S
C1199 C1201 1.433 . S
C1200 C1196 1.350 . S
C1200 C1197 1.463 . S
C1200 N1204 1.427 . S
C1201 H1191 0.929 . S
C1201 C1199 1.433 . S
C1201 N1204 1.384 . S
C1202 H1193 0.929 . S
C1202 C1194 1.378 . S
C1202 C1197 1.350 . S
C1203 H1190 0.929 . S
C1203 C1195 1.433 . S
C1203 N1205 1.384 . S
N1204 C1200 1.427 . S
N1204 C1201 1.384 . S
N1205 C1197 1.427 . S
N1205 C1203 1.384 . S
H1206 C1212 0.930 . S
H1207 C1216 0.930 . S
H1208 C1221 0.929 . S
H1209 C1219 0.929 . S
H1210 C1214 0.929 . S
H1211 C1220 0.929 . S
C1212 H1206 0.930 . S
C1212 C1213 1.367 . S
C1212 C1220 1.378 . S
C1213 C1212 1.367 . S
C1213 C1221 1.433 . S
C1214 H1210 0.929 . S
C1214 C1216 1.378 . S
C1214 C1218 1.350 . S
C1215 C1218 1.463 . S
C1215 C1220 1.350 . S
C1215 N1223 1.427 . S
C1216 H1207 0.930 . S
C1216 C1214 1.378 . S
C1216 C1217 1.367 . S
C1217 C1216 1.367 . S
C1217 C1219 1.433 . S
C1218 C1214 1.350 . S
C1218 C1215 1.463 . S
C1218 N1222 1.427 . S
C1219 H1209 0.929 . S
C1219 C1217 1.433 . S
C1219 N1222 1.384 . S
C1220 H1211 0.929 . S
C1220 C1212 1.378 . S
C1220 C1215 1.350 . S
C1221 H1208 0.929 . S
C1221 C1213 1.433 . S
C1221 N1223 1.384 . S
N1222 C1218 1.427 . S
N1222 C1219 1.384 . S
N1223 C1215 1.427 . S
N1223 C1221 1.384 . S
H1224 C1230 0.930 . S
H1225 C1234 0.930 . S
H1226 C1239 0.929 . S
H1227 C1237 0.929 . S
H1228 C1232 0.929 . S
H1229 C1238 0.929 . S
C1230 H1224 0.930 . S
C1230 C1231 1.367 . S
C1230 C1238 1.378 . S
C1231 C1230 1.367 . S
C1231 C1239 1.433 . S
C1232 H1228 0.929 . S
C1232 C1234 1.378 . S
C1232 C1236 1.350 . S
C1233 C1236 1.463 . S
C1233 C1238 1.350 . S
C1233 N1241 1.427 . S
C1234 H1225 0.930 . S
C1234 C1232 1.378 . S
C1234 C1235 1.367 . S
C1235 C1234 1.367 . S
C1235 C1237 1.433 . S
C1236 C1232 1.350 . S
C1236 C1233 1.463 . S
C1236 N1240 1.427 . S
C1237 H1227 0.929 . S
C1237 C1235 1.433 . S
C1237 N1240 1.384 . S
C1238 H1229 0.929 . S
C1238 C1230 1.378 . S
C1238 C1233 1.350 . S
C1239 H1226 0.929 . S
C1239 C1231 1.433 . S
C1239 N1241 1.384 . S
N1240 C1236 1.427 . S
N1240 C1237 1.384 . S
N1241 C1233 1.427 . S
N1241 C1239 1.384 . S
H1242 C1248 0.930 . S
H1243 C1252 0.930 . S
H1244 C1257 0.929 . S
H1245 C1255 0.929 . S
H1246 C1250 0.929 . S
H1247 C1256 0.929 . S
C1248 H1242 0.930 . S
C1248 C1249 1.367 . S
C1248 C1256 1.378 . S
C1249 C1248 1.367 . S
C1249 C1257 1.433 . S
C1250 H1246 0.929 . S
C1250 C1252 1.378 . S
C1250 C1254 1.350 . S
C1251 C1254 1.463 . S
C1251 C1256 1.350 . S
C1251 N1259 1.427 . S
C1252 H1243 0.930 . S
C1252 C1250 1.378 . S
C1252 C1253 1.367 . S
C1253 C1252 1.367 . S
C1253 C1255 1.433 . S
C1254 C1250 1.350 . S
C1254 C1251 1.463 . S
C1254 N1258 1.427 . S
C1255 H1245 0.929 . S
C1255 C1253 1.433 . S
C1255 N1258 1.384 . S
C1256 H1247 0.929 . S
C1256 C1248 1.378 . S
C1256 C1251 1.350 . S
C1257 H1244 0.929 . S
C1257 C1249 1.433 . S
C1257 N1259 1.384 . S
N1258 C1254 1.427 . S
N1258 C1255 1.384 . S
N1259 C1251 1.427 . S
N1259 C1257 1.384 . S
H1260 C1266 0.930 . S
H1261 C1270 0.930 . S
H1262 C1275 0.929 . S
H1263 C1273 0.929 . S
H1264 C1268 0.929 . S
H1265 C1274 0.929 . S
C1266 H1260 0.930 . S
C1266 C1267 1.367 . S
C1266 C1274 1.378 . S
C1267 C1266 1.367 . S
C1267 C1275 1.433 . S
C1268 H1264 0.929 . S
C1268 C1270 1.378 . S
C1268 C1272 1.350 . S
C1269 C1272 1.463 . S
C1269 C1274 1.350 . S
C1269 N1277 1.427 . S
C1270 H1261 0.930 . S
C1270 C1268 1.378 . S
C1270 C1271 1.367 . S
C1271 C1270 1.367 . S
C1271 C1273 1.433 . S
C1272 C1268 1.350 . S
C1272 C1269 1.463 . S
C1272 N1276 1.427 . S
C1273 H1263 0.929 . S
C1273 C1271 1.433 . S
C1273 N1276 1.384 . S
C1274 H1265 0.929 . S
C1274 C1266 1.378 . S
C1274 C1269 1.350 . S
C1275 H1262 0.929 . S
C1275 C1267 1.433 . S
C1275 N1277 1.384 . S
N1276 C1272 1.427 . S
N1276 C1273 1.384 . S
N1277 C1269 1.427 . S
N1277 C1275 1.384 . S
H1278 C1284 0.930 . S
H1279 C1288 0.930 . S
H1280 C1293 0.929 . S
H1281 C1291 0.929 . S
H1282 C1286 0.929 . S
H1283 C1292 0.929 . S
C1284 H1278 0.930 . S
C1284 C1285 1.367 . S
C1284 C1292 1.378 . S
C1285 C1284 1.367 . S
C1285 C1293 1.433 . S
C1286 H1282 0.929 . S
C1286 C1288 1.378 . S
C1286 C1290 1.350 . S
C1287 C1290 1.463 . S
C1287 C1292 1.350 . S
C1287 N1295 1.427 . S
C1288 H1279 0.930 . S
C1288 C1286 1.378 . S
C1288 C1289 1.367 . S
C1289 C1288 1.367 . S
C1289 C1291 1.433 . S
C1290 C1286 1.350 . S
C1290 C1287 1.463 . S
C1290 N1294 1.427 . S
C1291 H1281 0.929 . S
C1291 C1289 1.433 . S
C1291 N1294 1.384 . S
C1292 H1283 0.929 . S
C1292 C1284 1.378 . S
C1292 C1287 1.350 . S
C1293 H1280 0.929 . S
C1293 C1285 1.433 . S
C1293 N1295 1.384 . S
N1294 C1290 1.427 . S
N1294 C1291 1.384 . S
N1295 C1287 1.427 . S
N1295 C1293 1.384 . S
H1296 C1302 0.930 . S
H1297 C1306 0.930 . S
H1298 C1311 0.929 . S
H1299 C1309 0.929 . S
H1300 C1304 0.929 . S
H1301 C1310 0.929 . S
C1302 H1296 0.930 . S
C1302 C1303 1.367 . S
C1302 C1310 1.378 . S
C1303 C1302 1.367 . S
C1303 C1311 1.433 . S
C1304 H1300 0.929 . S
C1304 C1306 1.378 . S
C1304 C1308 1.350 . S
C1305 C1308 1.463 . S
C1305 C1310 1.350 . S
C1305 N1313 1.427 . S
C1306 H1297 0.930 . S
C1306 C1304 1.378 . S
C1306 C1307 1.367 . S
C1307 C1306 1.367 . S
C1307 C1309 1.433 . S
C1308 C1304 1.350 . S
C1308 C1305 1.463 . S
C1308 N1312 1.427 . S
C1309 H1299 0.929 . S
C1309 C1307 1.433 . S
C1309 N1312 1.384 . S
C1310 H1301 0.929 . S
C1310 C1302 1.378 . S
C1310 C1305 1.350 . S
C1311 H1298 0.929 . S
C1311 C1303 1.433 . S
C1311 N1313 1.384 . S
N1312 C1308 1.427 . S
N1312 C1309 1.384 . S
N1313 C1305 1.427 . S
N1313 C1311 1.384 . S
H1314 C1320 0.930 . S
H1315 C1324 0.930 . S
H1316 C1329 0.929 . S
H1317 C1327 0.929 . S
H1318 C1322 0.929 . S
H1319 C1328 0.929 . S
C1320 H1314 0.930 . S
C1320 C1321 1.367 . S
C1320 C1328 1.378 . S
C1321 C1320 1.367 . S
C1321 C1329 1.433 . S
C1322 H1318 0.929 . S
C1322 C1324 1.378 . S
C1322 C1326 1.350 . S
C1323 C1326 1.463 . S
C1323 C1328 1.350 . S
C1323 N1331 1.427 . S
C1324 H1315 0.930 . S
C1324 C1322 1.378 . S
C1324 C1325 1.367 . S
C1325 C1324 1.367 . S
C1325 C1327 1.433 . S
C1326 C1322 1.350 . S
C1326 C1323 1.463 . S
C1326 N1330 1.427 . S
C1327 H1317 0.929 . S
C1327 C1325 1.433 . S
C1327 N1330 1.384 . S
C1328 H1319 0.929 . S
C1328 C1320 1.378 . S
C1328 C1323 1.350 . S
C1329 H1316 0.929 . S
C1329 C1321 1.433 . S
C1329 N1331 1.384 . S
N1330 C1326 1.427 . S
N1330 C1327 1.384 . S
N1331 C1323 1.427 . S
N1331 C1329 1.384 . S
H1332 C1338 0.930 . S
H1333 C1342 0.930 . S
H1334 C1347 0.929 . S
H1335 C1345 0.929 . S
H1336 C1340 0.929 . S
H1337 C1346 0.929 . S
C1338 H1332 0.930 . S
C1338 C1339 1.367 . S
C1338 C1346 1.378 . S
C1339 C1338 1.367 . S
C1339 C1347 1.433 . S
C1340 H1336 0.929 . S
C1340 C1342 1.378 . S
C1340 C1344 1.350 . S
C1341 C1344 1.463 . S
C1341 C1346 1.350 . S
C1341 N1349 1.427 . S
C1342 H1333 0.930 . S
C1342 C1340 1.378 . S
C1342 C1343 1.367 . S
C1343 C1342 1.367 . S
C1343 C1345 1.433 . S
C1344 C1340 1.350 . S
C1344 C1341 1.463 . S
C1344 N1348 1.427 . S
C1345 H1335 0.929 . S
C1345 C1343 1.433 . S
C1345 N1348 1.384 . S
C1346 H1337 0.929 . S
C1346 C1338 1.378 . S
C1346 C1341 1.350 . S
C1347 H1334 0.929 . S
C1347 C1339 1.433 . S
C1347 N1349 1.384 . S
N1348 C1344 1.427 . S
N1348 C1345 1.384 . S
N1349 C1341 1.427 . S
N1349 C1347 1.384 . S
H1350 C1356 0.930 . S
H1351 C1360 0.930 . S
H1352 C1365 0.929 . S
H1353 C1363 0.929 . S
H1354 C1358 0.929 . S
H1355 C1364 0.929 . S
C1356 H1350 0.930 . S
C1356 C1357 1.367 . S
C1356 C1364 1.378 . S
C1357 C1356 1.367 . S
C1357 C1365 1.433 . S
C1358 H1354 0.929 . S
C1358 C1360 1.378 . S
C1358 C1362 1.350 . S
C1359 C1362 1.463 . S
C1359 C1364 1.350 . S
C1359 N1367 1.427 . S
C1360 H1351 0.930 . S
C1360 C1358 1.378 . S
C1360 C1361 1.367 . S
C1361 C1360 1.367 . S
C1361 C1363 1.433 . S
C1362 C1358 1.350 . S
C1362 C1359 1.463 . S
C1362 N1366 1.427 . S
C1363 H1353 0.929 . S
C1363 C1361 1.433 . S
C1363 N1366 1.384 . S
C1364 H1355 0.929 . S
C1364 C1356 1.378 . S
C1364 C1359 1.350 . S
C1365 H1352 0.929 . S
C1365 C1357 1.433 . S
C1365 N1367 1.384 . S
N1366 C1362 1.427 . S
N1366 C1363 1.384 . S
N1367 C1359 1.427 . S
N1367 C1365 1.384 . S
H1368 C1374 0.930 . S
H1369 C1378 0.930 . S
H1370 C1383 0.929 . S
H1371 C1381 0.929 . S
H1372 C1376 0.929 . S
H1373 C1382 0.929 . S
C1374 H1368 0.930 . S
C1374 C1375 1.367 . S
C1374 C1382 1.378 . S
C1375 C1374 1.367 . S
C1375 C1383 1.433 . S
C1376 H1372 0.929 . S
C1376 C1378 1.378 . S
C1376 C1380 1.350 . S
C1377 C1380 1.463 . S
C1377 C1382 1.350 . S
C1377 N1385 1.427 . S
C1378 H1369 0.930 . S
C1378 C1376 1.378 . S
C1378 C1379 1.367 . S
C1379 C1378 1.367 . S
C1379 C1381 1.433 . S
C1380 C1376 1.350 . S
C1380 C1377 1.463 . S
C1380 N1384 1.427 . S
C1381 H1371 0.929 . S
C1381 C1379 1.433 . S
C1381 N1384 1.384 . S
C1382 H1373 0.929 . S
C1382 C1374 1.378 . S
C1382 C1377 1.350 . S
C1383 H1370 0.929 . S
C1383 C1375 1.433 . S
C1383 N1385 1.384 . S
N1384 C1380 1.427 . S
N1384 C1381 1.384 . S
N1385 C1377 1.427 . S
N1385 C1383 1.384 . S
H1386 C1392 0.930 . S
H1387 C1396 0.930 . S
H1388 C1401 0.929 . S
H1389 C1399 0.929 . S
H1390 C1394 0.929 . S
H1391 C1400 0.929 . S
C1392 H1386 0.930 . S
C1392 C1393 1.367 . S
C1392 C1400 1.378 . S
C1393 C1392 1.367 . S
C1393 C1401 1.433 . S
C1394 H1390 0.929 . S
C1394 C1396 1.378 . S
C1394 C1398 1.350 . S
C1395 C1398 1.463 . S
C1395 C1400 1.350 . S
C1395 N1403 1.427 . S
C1396 H1387 0.930 . S
C1396 C1394 1.378 . S
C1396 C1397 1.367 . S
C1397 C1396 1.367 . S
C1397 C1399 1.433 . S
C1398 C1394 1.350 . S
C1398 C1395 1.463 . S
C1398 N1402 1.427 . S
C1399 H1389 0.929 . S
C1399 C1397 1.433 . S
C1399 N1402 1.384 . S
C1400 H1391 0.929 . S
C1400 C1392 1.378 . S
C1400 C1395 1.350 . S
C1401 H1388 0.929 . S
C1401 C1393 1.433 . S
C1401 N1403 1.384 . S
N1402 C1398 1.427 . S
N1402 C1399 1.384 . S
N1403 C1395 1.427 . S
N1403 C1401 1.384 . S
H1404 C1410 0.930 . S
H1405 C1414 0.930 . S
H1406 C1419 0.929 . S
H1407 C1417 0.929 . S
H1408 C1412 0.929 . S
H1409 C1418 0.929 . S
C1410 H1404 0.930 . S
C1410 C1411 1.367 . S
C1410 C1418 1.378 . S
C1411 C1410 1.367 . S
C1411 C1419 1.433 . S
C1412 H1408 0.929 . S
C1412 C1414 1.378 . S
C1412 C1416 1.350 . S
C1413 C1416 1.463 . S
C1413 C1418 1.350 . S
C1413 N1421 1.427 . S
C1414 H1405 0.930 . S
C1414 C1412 1.378 . S
C1414 C1415 1.367 . S
C1415 C1414 1.367 . S
C1415 C1417 1.433 . S
C1416 C1412 1.350 . S
C1416 C1413 1.463 . S
C1416 N1420 1.427 . S
C1417 H1407 0.929 . S
C1417 C1415 1.433 . S
C1417 N1420 1.384 . S
C1418 H1409 0.929 . S
C1418 C1410 1.378 . S
C1418 C1413 1.350 . S
C1419 H1406 0.929 . S
C1419 C1411 1.433 . S
C1419 N1421 1.384 . S
N1420 C1416 1.427 . S
N1420 C1417 1.384 . S
N1421 C1413 1.427 . S
N1421 C1419 1.384 . S
H1422 C1428 0.930 . S
H1423 C1432 0.930 . S
H1424 C1437 0.929 . S
H1425 C1435 0.929 . S
H1426 C1430 0.929 . S
H1427 C1436 0.929 . S
C1428 H1422 0.930 . S
C1428 C1429 1.367 . S
C1428 C1436 1.378 1_556 S
C1429 C1428 1.367 . S
C1429 C1437 1.433 . S
C1430 H1426 0.929 . S
C1430 C1432 1.378 . S
C1430 C1434 1.350 . S
C1431 C1434 1.463 . S
C1431 C1436 1.350 . S
C1431 N1439 1.427 1_554 S
C1432 H1423 0.930 . S
C1432 C1430 1.378 . S
C1432 C1433 1.367 . S
C1433 C1432 1.367 . S
C1433 C1435 1.433 . S
C1434 C1430 1.350 . S
C1434 C1431 1.463 . S
C1434 N1438 1.427 . S
C1435 H1425 0.929 . S
C1435 C1433 1.433 . S
C1435 N1438 1.384 . S
C1436 H1427 0.929 . S
C1436 C1428 1.378 1_554 S
C1436 C1431 1.350 . S
C1437 H1424 0.929 . S
C1437 C1429 1.433 . S
C1437 N1439 1.384 . S
N1438 C1434 1.427 . S
N1438 C1435 1.384 . S
N1439 C1431 1.427 1_556 S
N1439 C1437 1.384 . S
H1440 C1446 0.930 . S
H1441 C1450 0.930 . S
H1442 C1455 0.929 . S
H1443 C1453 0.929 . S
H1444 C1448 0.929 . S
H1445 C1454 0.929 . S
C1446 H1440 0.930 . S
C1446 C1447 1.367 . S
C1446 C1454 1.378 . S
C1447 C1446 1.367 . S
C1447 C1455 1.433 . S
C1448 H1444 0.929 . S
C1448 C1450 1.378 . S
C1448 C1452 1.350 . S
C1449 C1452 1.463 1_556 S
C1449 C1454 1.350 . S
C1449 N1457 1.427 1_556 S
C1450 H1441 0.930 . S
C1450 C1448 1.378 . S
C1450 C1451 1.367 . S
C1451 C1450 1.367 . S
C1451 C1453 1.433 . S
C1452 C1448 1.350 . S
C1452 C1449 1.463 1_554 S
C1452 N1456 1.427 . S
C1453 H1443 0.929 . S
C1453 C1451 1.433 . S
C1453 N1456 1.384 . S
C1454 H1445 0.929 . S
C1454 C1446 1.378 . S
C1454 C1449 1.350 . S
C1455 H1442 0.929 . S
C1455 C1447 1.433 . S
C1455 N1457 1.384 1_556 S
N1456 C1452 1.427 . S
N1456 C1453 1.384 . S
N1457 C1449 1.427 1_554 S
N1457 C1455 1.384 1_554 S
H1458 C1464 0.930 . S
H1459 C1468 0.930 . S
H1460 C1473 0.929 . S
H1461 C1471 0.929 . S
H1462 C1466 0.929 . S
H1463 C1472 0.929 . S
C1464 H1458 0.930 . S
C1464 C1465 1.367 . S
C1464 C1472 1.378 . S
C1465 C1464 1.367 . S
C1465 C1473 1.433 . S
C1466 H1462 0.929 . S
C1466 C1468 1.378 . S
C1466 C1470 1.350 . S
C1467 C1470 1.456 1_556 S
C1467 C1472 1.359 . S
C1467 N1475 1.424 1_556 S
C1468 H1459 0.930 . S
C1468 C1466 1.378 . S
C1468 C1469 1.367 . S
C1469 C1468 1.367 . S
C1469 C1471 1.433 . S
C1470 C1466 1.350 . S
C1470 C1467 1.456 1_554 S
C1470 N1474 1.427 . S
C1471 H1461 0.929 . S
C1471 C1469 1.433 . S
C1471 N1474 1.384 . S
C1472 H1463 0.929 . S
C1472 C1464 1.378 . S
C1472 C1467 1.359 . S
C1473 H1460 0.929 . S
C1473 C1465 1.433 . S
C1473 N1475 1.384 1_556 S
N1474 C1470 1.427 . S
N1474 C1471 1.384 . S
N1475 C1467 1.424 1_554 S
N1475 C1473 1.384 1_554 S
H1476 C1482 0.930 . S
H1477 C1486 0.930 . S
H1478 C1491 0.929 . S
H1479 C1489 0.929 . S
H1480 C1484 0.929 1_554 S
H1481 C1490 0.929 . S
C1482 H1476 0.930 . S
C1482 C1483 1.367 . S
C1482 C1490 1.378 . S
C1483 C1482 1.367 . S
C1483 C1491 1.433 . S
C1484 H1480 0.929 1_556 S
C1484 C1486 1.378 1_556 S
C1484 C1488 1.350 . S
C1485 C1488 1.463 . S
C1485 C1490 1.350 . S
C1485 N1493 1.427 . S
C1486 H1477 0.930 . S
C1486 C1484 1.378 1_554 S
C1486 C1487 1.367 . S
C1487 C1486 1.367 . S
C1487 C1489 1.433 1_554 S
C1488 C1484 1.350 . S
C1488 C1485 1.463 . S
C1488 N1492 1.427 . S
C1489 H1479 0.929 . S
C1489 C1487 1.433 1_556 S
C1489 N1492 1.384 . S
C1490 H1481 0.929 . S
C1490 C1482 1.378 . S
C1490 C1485 1.350 . S
C1491 H1478 0.929 . S
C1491 C1483 1.433 . S
C1491 N1493 1.384 . S
N1492 C1488 1.427 . S
N1492 C1489 1.384 . S
N1493 C1485 1.427 . S
N1493 C1491 1.384 . S
H1494 C1500 0.930 . S
H1495 C1504 0.930 . S
H1496 C1509 0.929 . S
H1497 C1507 0.929 . S
H1498 C1502 0.929 . S
H1499 C1508 0.929 . S
C1500 H1494 0.930 . S
C1500 C1501 1.367 1_556 S
C1500 C1508 1.378 . S
C1501 C1500 1.367 1_554 S
C1501 C1509 1.433 . S
C1502 H1498 0.929 . S
C1502 C1504 1.378 . S
C1502 C1506 1.350 . S
C1503 C1506 1.463 . S
C1503 C1508 1.350 . S
C1503 N1511 1.427 . S
C1504 H1495 0.930 . S
C1504 C1502 1.378 . S
C1504 C1505 1.367 . S
C1505 C1504 1.367 . S
C1505 C1507 1.433 . S
C1506 C1502 1.350 . S
C1506 C1503 1.463 . S
C1506 N1510 1.427 . S
C1507 H1497 0.929 . S
C1507 C1505 1.433 . S
C1507 N1510 1.384 . S
C1508 H1499 0.929 . S
C1508 C1500 1.378 . S
C1508 C1503 1.350 . S
C1509 H1496 0.929 . S
C1509 C1501 1.433 . S
C1509 N1511 1.384 1_554 S
N1510 C1506 1.427 . S
N1510 C1507 1.384 . S
N1511 C1503 1.427 . S
N1511 C1509 1.384 1_556 S
H1512 C1518 0.930 . S
H1513 C1522 0.930 . S
H1514 C1527 0.929 . S
H1515 C1525 0.929 . S
H1516 C1520 0.929 . S
H1517 C1526 0.929 . S
C1518 H1512 0.930 . S
C1518 C1519 1.367 . S
C1518 C1526 1.378 . S
C1519 C1518 1.367 . S
C1519 C1527 1.433 . S
C1520 H1516 0.929 . S
C1520 C1522 1.378 1_556 S
C1520 C1524 1.350 . S
C1521 C1524 1.463 . S
C1521 C1526 1.350 . S
C1521 N1529 1.427 . S
C1522 H1513 0.930 . S
C1522 C1520 1.378 1_554 S
C1522 C1523 1.367 . S
C1523 C1522 1.367 . S
C1523 C1525 1.433 1_554 S
C1524 C1520 1.350 . S
C1524 C1521 1.463 . S
C1524 N1528 1.427 . S
C1525 H1515 0.929 . S
C1525 C1523 1.433 1_556 S
C1525 N1528 1.384 . S
C1526 H1517 0.929 . S
C1526 C1518 1.378 . S
C1526 C1521 1.350 . S
C1527 H1514 0.929 . S
C1527 C1519 1.433 . S
C1527 N1529 1.384 . S
N1528 C1524 1.427 . S
N1528 C1525 1.384 . S
N1529 C1521 1.427 . S
N1529 C1527 1.384 . S
H1530 C1536 0.930 . S
H1531 C1540 0.930 . S
H1532 C1545 0.929 . S
H1533 C1543 0.929 . S
H1534 C1538 0.929 . S
H1535 C1544 0.929 . S
C1536 H1530 0.930 . S
C1536 C1537 1.367 . S
C1536 C1544 1.378 . S
C1537 C1536 1.367 . S
C1537 C1545 1.433 . S
C1538 H1534 0.929 . S
C1538 C1540 1.378 . S
C1538 C1542 1.350 . S
C1539 C1542 1.463 . S
C1539 C1544 1.350 . S
C1539 N1547 1.427 . S
C1540 H1531 0.930 . S
C1540 C1538 1.378 . S
C1540 C1541 1.367 . S
C1541 C1540 1.367 . S
C1541 C1543 1.433 . S
C1542 C1538 1.350 . S
C1542 C1539 1.463 . S
C1542 N1546 1.427 . S
C1543 H1533 0.929 . S
C1543 C1541 1.433 . S
C1543 N1546 1.384 . S
C1544 H1535 0.929 . S
C1544 C1536 1.378 . S
C1544 C1539 1.350 . S
C1545 H1532 0.929 . S
C1545 C1537 1.433 . S
C1545 N1547 1.384 . S
N1546 C1542 1.427 . S
N1546 C1543 1.384 . S
N1547 C1539 1.427 . S
N1547 C1545 1.384 . S
H1548 C1554 0.930 . S
H1549 C1558 0.930 . S
H1550 C1563 0.929 . S
H1551 C1561 0.929 . S
H1552 C1556 0.929 . S
H1553 C1562 0.929 . S
C1554 H1548 0.930 . S
C1554 C1555 1.367 . S
C1554 C1562 1.378 . S
C1555 C1554 1.367 . S
C1555 C1563 1.433 . S
C1556 H1552 0.929 . S
C1556 C1558 1.378 . S
C1556 C1560 1.350 . S
C1557 C1560 1.463 . S
C1557 C1562 1.350 . S
C1557 N1565 1.427 . S
C1558 H1549 0.930 . S
C1558 C1556 1.378 . S
C1558 C1559 1.367 . S
C1559 C1558 1.367 . S
C1559 C1561 1.433 . S
C1560 C1556 1.350 . S
C1560 C1557 1.463 . S
C1560 N1564 1.427 . S
C1561 H1551 0.929 . S
C1561 C1559 1.433 . S
C1561 N1564 1.384 . S
C1562 H1553 0.929 . S
C1562 C1554 1.378 . S
C1562 C1557 1.350 . S
C1563 H1550 0.929 . S
C1563 C1555 1.433 . S
C1563 N1565 1.384 . S
N1564 C1560 1.427 . S
N1564 C1561 1.384 . S
N1565 C1557 1.427 . S
N1565 C1563 1.384 . S
H1566 C1572 0.930 . S
H1567 C1576 0.930 . S
H1568 C1581 0.929 . S
H1569 C1579 0.929 . S
H1570 C1574 0.929 . S
H1571 C1580 0.929 . S
C1572 H1566 0.930 . S
C1572 C1573 1.367 . S
C1572 C1580 1.378 . S
C1573 C1572 1.367 . S
C1573 C1581 1.433 . S
C1574 H1570 0.929 . S
C1574 C1576 1.378 . S
C1574 C1578 1.350 . S
C1575 C1578 1.463 . S
C1575 C1580 1.350 . S
C1575 N1583 1.427 . S
C1576 H1567 0.930 . S
C1576 C1574 1.378 . S
C1576 C1577 1.367 . S
C1577 C1576 1.367 . S
C1577 C1579 1.433 . S
C1578 C1574 1.350 . S
C1578 C1575 1.463 . S
C1578 N1582 1.427 . S
C1579 H1569 0.929 . S
C1579 C1577 1.433 . S
C1579 N1582 1.384 . S
C1580 H1571 0.929 . S
C1580 C1572 1.378 . S
C1580 C1575 1.350 . S
C1581 H1568 0.929 . S
C1581 C1573 1.433 . S
C1581 N1583 1.384 . S
N1582 C1578 1.427 . S
N1582 C1579 1.384 . S
N1583 C1575 1.427 . S
N1583 C1581 1.384 . S
H1584 C1590 0.930 . S
H1585 C1594 0.930 . S
H1586 C1599 0.929 . S
H1587 C1597 0.929 . S
H1588 C1592 0.929 . S
H1589 C1598 0.926 1_556 S
C1590 H1584 0.930 . S
C1590 C1591 1.367 . S
C1590 C1598 1.378 1_556 S
C1591 C1590 1.367 . S
C1591 C1599 1.433 1_556 S
C1592 H1588 0.929 . S
C1592 C1594 1.378 . S
C1592 C1596 1.350 . S
C1593 C1596 1.463 . S
C1593 C1598 1.350 . S
C1593 N1601 1.427 . S
C1594 H1585 0.930 . S
C1594 C1592 1.378 . S
C1594 C1595 1.367 . S
C1595 C1594 1.367 . S
C1595 C1597 1.433 . S
C1596 C1592 1.350 . S
C1596 C1593 1.463 . S
C1596 N1600 1.427 . S
C1597 H1587 0.929 . S
C1597 C1595 1.433 . S
C1597 N1600 1.384 . S
C1598 H1589 0.926 1_554 S
C1598 C1590 1.378 1_554 S
C1598 C1593 1.350 . S
C1599 H1586 0.929 . S
C1599 C1591 1.433 1_554 S
C1599 N1601 1.384 . S
N1600 C1596 1.427 . S
N1600 C1597 1.384 . S
N1601 C1593 1.427 . S
N1601 C1599 1.384 . S
H1602 C1608 0.930 . S
H1603 C1612 0.930 . S
H1604 C1617 0.929 . S
H1605 C1615 0.929 . S
H1606 C1610 0.929 . S
H1607 C1616 0.929 . S
C1608 H1602 0.930 . S
C1608 C1609 1.367 . S
C1608 C1616 1.378 . S
C1609 C1608 1.367 . S
C1609 C1617 1.433 . S
C1610 H1606 0.929 . S
C1610 C1612 1.378 . S
C1610 C1614 1.350 . S
C1611 C1614 1.463 . S
C1611 C1616 1.350 . S
C1611 N1619 1.427 . S
C1612 H1603 0.930 . S
C1612 C1610 1.378 . S
C1612 C1613 1.367 1_554 S
C1613 C1612 1.367 1_556 S
C1613 C1615 1.433 . S
C1614 C1610 1.350 . S
C1614 C1611 1.463 . S
C1614 N1618 1.427 1_554 S
C1615 H1605 0.929 . S
C1615 C1613 1.433 . S
C1615 N1618 1.384 . S
C1616 H1607 0.929 . S
C1616 C1608 1.378 . S
C1616 C1611 1.350 . S
C1617 H1604 0.929 . S
C1617 C1609 1.433 . S
C1617 N1619 1.384 . S
N1618 C1614 1.427 1_556 S
N1618 C1615 1.384 . S
N1619 C1611 1.427 . S
N1619 C1617 1.384 . S
H1620 C1626 0.930 . S
H1621 C1630 0.930 . S
H1622 C1635 0.929 . S
H1623 C1633 0.929 . S
H1624 C1628 0.929 . S
H1625 C1634 0.929 . S
C1626 H1620 0.930 . S
C1626 C1627 1.367 . S
C1626 C1634 1.378 . S
C1627 C1626 1.367 . S
C1627 C1635 1.433 . S
C1628 H1624 0.929 . S
C1628 C1630 1.378 1_554 S
C1628 C1632 1.350 . S
C1629 C1632 1.463 . S
C1629 C1634 1.350 . S
C1629 N1637 1.427 . S
C1630 H1621 0.930 . S
C1630 C1628 1.378 1_556 S
C1630 C1631 1.367 . S
C1631 C1630 1.367 . S
C1631 C1633 1.433 1_556 S
C1632 C1628 1.350 . S
C1632 C1629 1.463 . S
C1632 N1636 1.427 . S
C1633 H1623 0.929 . S
C1633 C1631 1.433 1_554 S
C1633 N1636 1.384 . S
C1634 H1625 0.929 . S
C1634 C1626 1.378 . S
C1634 C1629 1.350 . S
C1635 H1622 0.929 . S
C1635 C1627 1.433 . S
C1635 N1637 1.384 . S
N1636 C1632 1.427 . S
N1636 C1633 1.384 . S
N1637 C1629 1.427 . S
N1637 C1635 1.384 . S
H1638 C1644 0.930 . S
H1639 C1648 0.930 . S
H1640 C1653 0.929 . S
H1641 C1651 0.929 . S
H1642 C1646 0.929 . S
H1643 C1652 0.929 . S
C1644 H1638 0.930 . S
C1644 C1645 1.367 . S
C1644 C1652 1.378 . S
C1645 C1644 1.367 . S
C1645 C1653 1.433 . S
C1646 H1642 0.929 . S
C1646 C1648 1.378 . S
C1646 C1650 1.350 . S
C1647 C1650 1.463 . S
C1647 C1652 1.350 . S
C1647 N1655 1.427 . S
C1648 H1639 0.930 . S
C1648 C1646 1.378 . S
C1648 C1649 1.367 . S
C1649 C1648 1.367 . S
C1649 C1651 1.433 . S
C1650 C1646 1.350 . S
C1650 C1647 1.463 . S
C1650 N1654 1.427 . S
C1651 H1641 0.929 . S
C1651 C1649 1.433 . S
C1651 N1654 1.384 . S
C1652 H1643 0.929 . S
C1652 C1644 1.378 . S
C1652 C1647 1.350 . S
C1653 H1640 0.929 . S
C1653 C1645 1.433 . S
C1653 N1655 1.384 . S
N1654 C1650 1.427 . S
N1654 C1651 1.384 . S
N1655 C1647 1.427 . S
N1655 C1653 1.384 . S
H1656 C1662 0.930 . S
H1657 C1666 0.930 . S
H1658 C1671 0.929 . S
H1659 C1669 0.929 . S
H1660 C1664 0.929 . S
H1661 C1670 0.929 . S
C1662 H1656 0.930 . S
C1662 C1663 1.367 . S
C1662 C1670 1.378 . S
C1663 C1662 1.367 . S
C1663 C1671 1.433 . S
C1664 H1660 0.929 . S
C1664 C1666 1.378 . S
C1664 C1668 1.350 . S
C1665 C1668 1.463 . S
C1665 C1670 1.350 . S
C1665 N1673 1.427 . S
C1666 H1657 0.930 . S
C1666 C1664 1.378 . S
C1666 C1667 1.367 . S
C1667 C1666 1.367 . S
C1667 C1669 1.433 . S
C1668 C1664 1.350 . S
C1668 C1665 1.463 . S
C1668 N1672 1.427 . S
C1669 H1659 0.929 . S
C1669 C1667 1.433 . S
C1669 N1672 1.384 . S
C1670 H1661 0.929 . S
C1670 C1662 1.378 . S
C1670 C1665 1.350 . S
C1671 H1658 0.929 . S
C1671 C1663 1.433 . S
C1671 N1673 1.384 . S
N1672 C1668 1.427 . S
N1672 C1669 1.384 . S
N1673 C1665 1.427 . S
N1673 C1671 1.384 . S
H1674 C1680 0.930 . S
H1675 C1684 0.930 . S
H1676 C1689 0.929 . S
H1677 C1687 0.929 . S
H1678 C1682 0.929 . S
H1679 C1688 0.929 . S
C1680 H1674 0.930 . S
C1680 C1681 1.367 . S
C1680 C1688 1.378 . S
C1681 C1680 1.367 . S
C1681 C1689 1.433 . S
C1682 H1678 0.929 . S
C1682 C1684 1.378 . S
C1682 C1686 1.350 . S
C1683 C1686 1.463 . S
C1683 C1688 1.350 . S
C1683 N1691 1.427 . S
C1684 H1675 0.930 . S
C1684 C1682 1.378 . S
C1684 C1685 1.367 . S
C1685 C1684 1.367 . S
C1685 C1687 1.433 . S
C1686 C1682 1.350 . S
C1686 C1683 1.463 . S
C1686 N1690 1.427 . S
C1687 H1677 0.929 . S
C1687 C1685 1.433 . S
C1687 N1690 1.384 . S
C1688 H1679 0.929 . S
C1688 C1680 1.378 . S
C1688 C1683 1.350 . S
C1689 H1676 0.929 . S
C1689 C1681 1.433 . S
C1689 N1691 1.384 . S
N1690 C1686 1.427 . S
N1690 C1687 1.384 . S
N1691 C1683 1.427 . S
N1691 C1689 1.384 . S
H1692 C1698 0.930 . S
H1693 C1702 0.930 . S
H1694 C1707 0.929 . S
H1695 C1705 0.929 . S
H1696 C1700 0.929 . S
H1697 C1706 0.929 . S
C1698 H1692 0.930 . S
C1698 C1699 1.367 . S
C1698 C1706 1.378 . S
C1699 C1698 1.367 . S
C1699 C1707 1.433 . S
C1700 H1696 0.929 . S
C1700 C1702 1.378 . S
C1700 C1704 1.350 . S
C1701 C1704 1.463 1_655 S
C1701 C1706 1.350 . S
C1701 N1709 1.427 . S
C1702 H1693 0.930 . S
C1702 C1700 1.378 . S
C1702 C1703 1.367 . S
C1703 C1702 1.367 . S
C1703 C1705 1.433 . S
C1704 C1700 1.350 . S
C1704 C1701 1.463 1_455 S
C1704 N1708 1.427 . S
C1705 H1695 0.929 . S
C1705 C1703 1.433 . S
C1705 N1708 1.384 . S
C1706 H1697 0.929 . S
C1706 C1698 1.378 . S
C1706 C1701 1.350 . S
C1707 H1694 0.929 . S
C1707 C1699 1.433 . S
C1707 N1709 1.384 . S
N1708 C1704 1.427 . S
N1708 C1705 1.384 . S
N1709 C1701 1.427 . S
N1709 C1707 1.384 . S
H1710 C1716 0.930 . S
H1711 C1720 0.930 . S
H1712 C1725 0.929 . S
H1713 C1723 0.929 . S
H1714 C1718 0.929 . S
H1715 C1724 0.929 . S
C1716 H1710 0.930 . S
C1716 C1717 1.367 . S
C1716 C1724 1.378 . S
C1717 C1716 1.367 . S
C1717 C1725 1.433 . S
C1718 H1714 0.929 . S
C1718 C1720 1.378 . S
C1718 C1722 1.350 . S
C1719 C1722 1.463 . S
C1719 C1724 1.350 . S
C1719 N1727 1.427 . S
C1720 H1711 0.930 . S
C1720 C1718 1.378 . S
C1720 C1721 1.367 . S
C1721 C1720 1.367 . S
C1721 C1723 1.433 . S
C1722 C1718 1.350 . S
C1722 C1719 1.463 . S
C1722 N1726 1.427 . S
C1723 H1713 0.929 . S
C1723 C1721 1.433 . S
C1723 N1726 1.384 . S
C1724 H1715 0.929 . S
C1724 C1716 1.378 . S
C1724 C1719 1.350 . S
C1725 H1712 0.929 . S
C1725 C1717 1.433 . S
C1725 N1727 1.384 . S
N1726 C1722 1.427 . S
N1726 C1723 1.384 . S
N1727 C1719 1.427 . S
N1727 C1725 1.384 . S
H1728 C1734 0.930 . S
H1729 C1738 0.930 . S
H1730 C1743 0.929 . S
H1731 C1741 0.929 . S
H1732 C1736 0.929 . S
H1733 C1742 0.929 . S
C1734 H1728 0.930 . S
C1734 C1735 1.367 . S
C1734 C1742 1.378 . S
C1735 C1734 1.367 . S
C1735 C1743 1.433 . S
C1736 H1732 0.929 . S
C1736 C1738 1.378 . S
C1736 C1740 1.350 . S
C1737 C1740 1.463 1_565 S
C1737 C1742 1.350 . S
C1737 N1745 1.427 . S
C1738 H1729 0.930 . S
C1738 C1736 1.378 . S
C1738 C1739 1.367 . S
C1739 C1738 1.367 . S
C1739 C1741 1.433 . S
C1740 C1736 1.350 . S
C1740 C1737 1.463 1_545 S
C1740 N1744 1.427 . S
C1741 H1731 0.929 . S
C1741 C1739 1.433 . S
C1741 N1744 1.384 . S
C1742 H1733 0.929 . S
C1742 C1734 1.378 . S
C1742 C1737 1.350 . S
C1743 H1730 0.929 . S
C1743 C1735 1.433 . S
C1743 N1745 1.384 . S
N1744 C1740 1.427 . S
N1744 C1741 1.384 . S
N1745 C1737 1.427 . S
N1745 C1743 1.384 . S
H1746 C1752 0.930 . S
H1747 C1756 0.930 . S
H1748 C1761 0.929 . S
H1749 C1759 0.929 . S
H1750 C1754 0.929 1_545 S
H1751 C1760 0.929 1_565 S
C1752 H1746 0.930 . S
C1752 C1753 1.367 . S
C1752 C1760 1.378 . S
C1753 C1752 1.367 . S
C1753 C1761 1.433 . S
C1754 H1750 0.929 1_565 S
C1754 C1756 1.378 . S
C1754 C1758 1.350 . S
C1755 C1758 1.463 1_545 S
C1755 C1760 1.350 . S
C1755 N1763 1.427 . S
C1756 H1747 0.930 . S
C1756 C1754 1.378 . S
C1756 C1757 1.367 . S
C1757 C1756 1.367 . S
C1757 C1759 1.433 . S
C1758 C1754 1.350 . S
C1758 C1755 1.463 1_565 S
C1758 N1762 1.427 . S
C1759 H1749 0.929 . S
C1759 C1757 1.433 . S
C1759 N1762 1.384 . S
C1760 H1751 0.929 1_545 S
C1760 C1752 1.378 . S
C1760 C1755 1.350 . S
C1761 H1748 0.929 . S
C1761 C1753 1.433 . S
C1761 N1763 1.384 . S
N1762 C1758 1.427 . S
N1762 C1759 1.384 . S
N1763 C1755 1.427 . S
N1763 C1761 1.384 . S
H1764 C1770 0.930 . S
H1765 C1774 0.930 . S
H1766 C1779 0.929 . S
H1767 C1777 0.929 . S
H1768 C1772 0.929 . S
H1769 C1778 0.929 . S
C1770 H1764 0.930 . S
C1770 C1771 1.367 . S
C1770 C1778 1.378 . S
C1771 C1770 1.367 . S
C1771 C1779 1.433 . S
C1772 H1768 0.929 . S
C1772 C1774 1.378 . S
C1772 C1776 1.350 . S
C1773 C1776 1.463 1_455 S
C1773 C1778 1.350 . S
C1773 N1781 1.427 . S
C1774 H1765 0.930 . S
C1774 C1772 1.378 . S
C1774 C1775 1.367 . S
C1775 C1774 1.367 . S
C1775 C1777 1.433 . S
C1776 C1772 1.350 . S
C1776 C1773 1.463 1_655 S
C1776 N1780 1.427 . S
C1777 H1767 0.929 . S
C1777 C1775 1.433 . S
C1777 N1780 1.384 . S
C1778 H1769 0.929 . S
C1778 C1770 1.378 . S
C1778 C1773 1.350 . S
C1779 H1766 0.929 . S
C1779 C1771 1.433 . S
C1779 N1781 1.384 . S
N1780 C1776 1.427 . S
N1780 C1777 1.384 . S
N1781 C1773 1.427 . S
N1781 C1779 1.384 . S
H1782 C1788 0.930 . S
H1783 C1792 0.930 . S
H1784 C1797 0.929 . S
H1785 C1795 0.929 . S
H1786 C1790 0.929 . S
H1787 C1796 0.929 . S
C1788 H1782 0.930 . S
C1788 C1789 1.367 . S
C1788 C1796 1.378 . S
C1789 C1788 1.367 . S
C1789 C1797 1.433 . S
C1790 H1786 0.929 . S
C1790 C1792 1.378 . S
C1790 C1794 1.350 . S
C1791 C1794 1.463 . S
C1791 C1796 1.350 . S
C1791 N1799 1.427 . S
C1792 H1783 0.930 . S
C1792 C1790 1.378 . S
C1792 C1793 1.367 . S
C1793 C1792 1.367 . S
C1793 C1795 1.433 . S
C1794 C1790 1.350 . S
C1794 C1791 1.463 . S
C1794 N1798 1.427 . S
C1795 H1785 0.929 . S
C1795 C1793 1.433 . S
C1795 N1798 1.384 . S
C1796 H1787 0.929 . S
C1796 C1788 1.378 . S
C1796 C1791 1.350 . S
C1797 H1784 0.929 . S
C1797 C1789 1.433 . S
C1797 N1799 1.384 . S
N1798 C1794 1.427 . S
N1798 C1795 1.384 . S
N1799 C1791 1.427 . S
N1799 C1797 1.384 . S
C511 C81 1.194 . S
C515 C11 1.186 . S
C529 C25 1.193 . S
C533 C53 1.184 . S
C547 C67 1.190 . S
C551 C39 1.181 . S
C565 C95 1.182 . S
C569 C165 1.177 . S
C583 C109 1.196 . S
C587 C137 1.190 . S
C601 C151 1.193 . S
C605 C123 1.184 . S
C619 C249 1.196 . S
C623 C179 1.192 . S
C637 C193 1.180 . S
C641 C221 1.189 . S
C655 C235 1.183 . S
C659 C207 1.192 . S
C673 C263 1.193 . S
C677 C333 1.196 . S
C691 C277 1.177 . S
C695 C305 1.183 . S
C709 C291 1.183 . S
C713 C319 1.177 . S
C727 C347 1.196 . S
C731 C417 1.193 . S
C745 C389 1.192 . S
C749 C361 1.196 . S
C763 C375 1.196 . S
C767 C403 1.193 . S
C781 C431 1.180 . S
C785 C501 1.177 . S
C799 C445 1.196 . S
C803 C473 1.189 . S
C817 C459 1.177 . S
C821 C487 1.179 . S
C835 C152 0.917 . S
C839 C4 0.910 1_556 S
C853 C166 0.910 . S
C857 C18 0.891 1_556 S
C871 C138 0.909 . S
C875 C32 0.891 1_556 S
C889 C124 0.917 . S
C893 C46 0.910 . S
C907 C60 0.906 . S
C911 C96 0.915 . S
C925 C74 0.912 . S
C929 C110 0.919 . S
C943 C88 0.907 1_554 S
C947 C68 0.916 . S
C961 C102 0.912 1_554 S
C965 C82 0.919 . S
C979 C116 0.911 1_554 S
C983 C54 0.918 . S
C997 C40 0.915 . S
C1001 C130 0.903 . S
C1015 C12 0.918 . S
C1019 C144 0.912 . S
C1033 C158 0.912 . S
C1037 C26 0.918 . S
C1051 C172 0.908 . S
C1055 C320 0.917 . S
C1069 C186 0.891 . S
C1073 C334 0.910 . S
C1087 C306 0.917 . S
C1091 C200 0.910 . S
C1105 C214 0.893 . S
C1109 C292 0.910 . S
C1123 C228 0.910 . S
C1127 C264 0.918 . S
C1141 C242 0.892 . S
C1145 C278 0.910 . S
C1159 C256 0.905 . S
C1163 C236 0.915 . S
C1177 C250 0.911 . S
C1181 C270 0.895 . S
C1195 C222 0.909 . S
C1199 C284 0.891 . S
C1213 C298 0.905 . S
C1217 C208 0.916 . S
C1231 C180 0.915 . S
C1235 C312 0.904 . S
C1249 C194 0.911 . S
C1253 C326 0.894 . S
C1267 C488 0.910 . S
C1271 C340 0.892 . S
C1285 C354 0.892 . S
C1289 C502 0.910 . S
C1303 C368 0.902 . S
C1307 C474 0.914 . S
C1321 C460 0.919 . S
C1325 C382 0.912 . S
C1339 C432 0.916 . S
C1343 C396 0.906 . S
C1357 C446 0.918 . S
C1361 C410 0.912 . S
C1375 C424 0.895 . S
C1379 C404 0.911 . S
C1393 C418 0.917 . S
C1397 C438 0.909 . S
C1411 C452 0.909 . S
C1415 C390 0.917 . S
C1429 C376 0.916 . S
C1433 C466 0.906 . S
C1447 C348 0.912 . S
C1451 C480 0.896 . S
C1465 C362 0.909 . S
C1469 C494 0.891 . S
C1483 C229 1.388 . S
C1487 C5 1.395 . S
C1501 C19 1.404 . S
C1505 C243 1.396 . S
C1519 C215 1.392 . S
C1523 C33 1.401 . S
C1537 C369 1.409 . S
C1541 C47 1.404 . S
C1555 C61 1.389 . S
C1559 C341 1.396 . S
C1573 C75 1.390 . S
C1577 C355 1.387 . S
C1591 C89 1.395 . S
C1595 C481 1.389 . S
C1609 C495 1.407 . S
C1613 C103 1.410 . S
C1627 C467 1.390 . S
C1631 C117 1.397 . S
C1645 C285 1.388 . S
C1649 C131 1.392 . S
C1663 C145 1.407 . S
C1667 C257 1.399 . S
C1681 C159 1.389 . S
C1685 C271 1.396 . S
C1699 C173 1.406 . S
C1703 C397 1.410 . S
C1717 C411 1.390 . S
C1721 C187 1.387 . S
C1735 C383 1.400 . S
C1739 C201 1.407 . S
C1753 C299 1.389 . S
C1757 C453 1.388 . S
C1771 C425 1.394 . S
C1775 C313 1.403 . S
C1789 C439 1.408 . S
C1793 C327 1.400 . S
