# Generated by pormake.
# Topology msp, (4)-cn, num edge types: 1
# Building blocks:
#     Node 0, Type 0, BuildingBlock: QUQFOY_clean_sbu_1, # of connection points: 4
#     Node 1, Type 0, BuildingBlock: QUQFOY_clean_sbu_1, # of connection points: 4
#     Node 2, Type 0, BuildingBlock: QUQFOY_clean_sbu_1, # of connection points: 4
#     Node 3, Type 0, BuildingBlock: QUQFOY_clean_sbu_1, # of connection points: 4
#     Node 4, Type 0, BuildingBlock: QUQFOY_clean_sbu_1, # of connection points: 4
#     Node 5, Type 0, BuildingBlock: QUQFOY_clean_sbu_1, # of connection points: 4
#     Node 6, Type 0, BuildingBlock: QUQFOY_clean_sbu_1, # of connection points: 4
#     Node 7, Type 0, BuildingBlock: QUQFOY_clean_sbu_1, # of connection points: 4
#     Edge 8, Type (0, 0), BuildingBlock: UVAHIK_clean_linker_0, # of connection points: 2
#     Edge 9, Type (0, 0), BuildingBlock: UVAHIK_clean_linker_0, # of connection points: 2
#     Edge 10, Type (0, 0), BuildingBlock: UVAHIK_clean_linker_0, # of connection points: 2
#     Edge 11, Type (0, 0), BuildingBlock: UVAHIK_clean_linker_0, # of connection points: 2
#     Edge 12, Type (0, 0), BuildingBlock: UVAHIK_clean_linker_0, # of connection points: 2
#     Edge 13, Type (0, 0), BuildingBlock: UVAHIK_clean_linker_0, # of connection points: 2
#     Edge 14, Type (0, 0), BuildingBlock: UVAHIK_clean_linker_0, # of connection points: 2
#     Edge 15, Type (0, 0), BuildingBlock: UVAHIK_clean_linker_0, # of connection points: 2
#     Edge 16, Type (0, 0), BuildingBlock: UVAHIK_clean_linker_0, # of connection points: 2
#     Edge 17, Type (0, 0), BuildingBlock: UVAHIK_clean_linker_0, # of connection points: 2
#     Edge 18, Type (0, 0), BuildingBlock: UVAHIK_clean_linker_0, # of connection points: 2
#     Edge 19, Type (0, 0), BuildingBlock: UVAHIK_clean_linker_0, # of connection points: 2
#     Edge 20, Type (0, 0), BuildingBlock: UVAHIK_clean_linker_0, # of connection points: 2
#     Edge 21, Type (0, 0), BuildingBlock: UVAHIK_clean_linker_0, # of connection points: 2
#     Edge 22, Type (0, 0), BuildingBlock: UVAHIK_clean_linker_0, # of connection points: 2
#     Edge 23, Type (0, 0), BuildingBlock: UVAHIK_clean_linker_0, # of connection points: 2
# Relax obj value: 0.072
# Max RMSD: 0.126
# Mean RMSD: 0.126
data_MOF--net-msp--node1-QUQFOY_clean_sbu_1--edge1-UVAHIK_clean_linker_0
_symmetry_space_group_name_H-M    P1
_symmetry_Int_Tables_number       1
_symmetry_cell_setting            triclinic
loop_
_symmetry_equiv_pos_as_xyz
'x, y, z'
_cell_length_a     30.847887
_cell_length_b     48.140103
_cell_length_c     44.224466
_cell_angle_alpha  89.994356
_cell_angle_beta   93.227293
_cell_angle_gamma 89.975503
loop_
_atom_site_label
_atom_site_type_symbol
_atom_site_fract_x
_atom_site_fract_y
_atom_site_fract_z
_atom_type_partial_charge
O0 O 0.04643 0.29822 0.33898 0.0
Cd1 Cd 0.00119 0.2948 0.37083 0.0
Cd2 Cd 0.04641 0.34234 0.39278 0.0
O3 O 0.08082 0.33644 0.3541 0.0
O4 O 0.96101 0.26654 0.35221 0.0
O5 O 0.94074 0.3096 0.36135 0.0
C6 C 0.93141 0.2854 0.35018 0.0
C7 C 0.03259 0.38719 0.41133 0.0
C8 C 0.07606 0.31609 0.3358 0.0
C9 C 0.04938 0.28882 0.43024 0.0
O10 O 0.06033 0.31402 0.42678 0.0
O11 O 0.02432 0.27668 0.4107 0.0
O12 O 0.0713 0.37722 0.41131 0.0
O13 O 0.00144 0.37222 0.39931 0.0
O14 O 0.44431 0.29811 0.66124 0.0
Cd15 Cd 0.48894 0.2948 0.62895 0.0
Cd16 Cd 0.44389 0.34251 0.60768 0.0
O17 O 0.41009 0.33656 0.64663 0.0
O18 O 0.52966 0.26657 0.64704 0.0
O19 O 0.5494 0.30973 0.63786 0.0
C20 C 0.55914 0.28551 0.64885 0.0
C21 C 0.45795 0.38738 0.5893 0.0
C22 C 0.41493 0.31609 0.66478 0.0
C23 C 0.43977 0.28922 0.56988 0.0
O24 O 0.42907 0.31444 0.57359 0.0
O25 O 0.46508 0.27691 0.58915 0.0
O26 O 0.41914 0.37762 0.58958 0.0
O27 O 0.48909 0.37218 0.60097 0.0
O28 O 0.94518 0.72189 0.66113 0.0
Cd29 Cd 0.99039 0.72492 0.62921 0.0
Cd30 Cd 0.945 0.67738 0.60774 0.0
O31 O 0.91066 0.68361 0.64641 0.0
O32 O 0.0309 0.75313 0.64754 0.0
O33 O 0.05068 0.70991 0.63875 0.0
C34 C 0.06029 0.73415 0.64972 0.0
C35 C 0.95892 0.63242 0.58958 0.0
C36 C 0.9155 0.70409 0.66451 0.0
C37 C 0.94216 0.73059 0.56979 0.0
O38 O 0.93106 0.70546 0.5735 0.0
O39 O 0.96735 0.74281 0.58919 0.0
O40 O 0.92018 0.64236 0.58953 0.0
O41 O 0.99004 0.64749 0.60146 0.0
O42 O 0.54663 0.72174 0.33906 0.0
Cd43 Cd 0.50211 0.72536 0.37138 0.0
Cd44 Cd 0.54701 0.67757 0.39287 0.0
O45 O 0.58076 0.68331 0.35385 0.0
O46 O 0.4618 0.75377 0.35319 0.0
O47 O 0.44143 0.71077 0.36251 0.0
C48 C 0.43205 0.73501 0.35143 0.0
C49 C 0.53289 0.63279 0.41147 0.0
C50 C 0.57594 0.70369 0.3356 0.0
C51 C 0.55148 0.73102 0.43038 0.0
O52 O 0.56201 0.70576 0.42681 0.0
O53 O 0.52623 0.74332 0.41107 0.0
O54 O 0.57171 0.64251 0.41112 0.0
O55 O 0.50176 0.64798 0.39976 0.0
O56 O 0.54768 0.7981 0.83948 0.0
Cd57 Cd 0.50275 0.79492 0.87157 0.0
Cd58 Cd 0.54797 0.84242 0.89299 0.0
O59 O 0.58212 0.83641 0.85421 0.0
O60 O 0.46222 0.76669 0.85331 0.0
O61 O 0.44235 0.80986 0.86231 0.0
C62 C 0.43274 0.78563 0.85131 0.0
C63 C 0.5335 0.88729 0.91121 0.0
C64 C 0.57726 0.81596 0.83606 0.0
C65 C 0.55155 0.78914 0.93076 0.0
O66 O 0.56247 0.81432 0.92712 0.0
O67 O 0.52622 0.77695 0.91143 0.0
O68 O 0.57238 0.87757 0.91119 0.0
O69 O 0.50255 0.87204 0.89939 0.0
O70 O 0.94267 0.79795 0.16069 0.0
Cd71 Cd 0.98848 0.79446 0.12925 0.0
Cd72 Cd 0.9431 0.84169 0.10654 0.0
O73 O 0.90798 0.83588 0.14492 0.0
O74 O 0.02855 0.76639 0.1484 0.0
O75 O 0.04872 0.80942 0.13907 0.0
C76 C 0.05803 0.78531 0.1505 0.0
C77 C 0.95696 0.88651 0.08794 0.0
C78 C 0.91271 0.81569 0.16345 0.0
C79 C 0.94134 0.78793 0.06952 0.0
O80 O 0.93011 0.81313 0.07264 0.0
O81 O 0.96614 0.776 0.08939 0.0
O82 O 0.91831 0.87642 0.08757 0.0
O83 O 0.988 0.87167 0.10034 0.0
O84 O 0.44255 0.2214 0.16105 0.0
Cd85 Cd 0.48754 0.22499 0.12905 0.0
Cd86 Cd 0.44255 0.17745 0.10712 0.0
O87 O 0.40829 0.18314 0.14592 0.0
O88 O 0.52767 0.25332 0.14759 0.0
O89 O 0.54813 0.21033 0.13828 0.0
C90 C 0.55739 0.23453 0.14948 0.0
C91 C 0.45691 0.1327 0.08853 0.0
C92 C 0.41304 0.20345 0.16427 0.0
C93 C 0.43882 0.23104 0.06983 0.0
O94 O 0.42808 0.2058 0.07324 0.0
O95 O 0.46399 0.24317 0.08932 0.0
O96 O 0.41807 0.14245 0.08861 0.0
O97 O 0.4879 0.14784 0.10049 0.0
O98 O 0.0479 0.22168 0.83955 0.0
Cd99 Cd 0.00207 0.22501 0.871 0.0
Cd100 Cd 0.04747 0.17769 0.89347 0.0
O101 O 0.08256 0.18368 0.8551 0.0
O102 O 0.96197 0.25316 0.85203 0.0
O103 O 0.94182 0.21007 0.86112 0.0
C104 C 0.93249 0.23424 0.84984 0.0
C105 C 0.03364 0.13278 0.91186 0.0
C106 C 0.07784 0.20395 0.83669 0.0
C107 C 0.04919 0.23127 0.93078 0.0
O108 O 0.06046 0.2061 0.92752 0.0
O109 O 0.02437 0.24327 0.91098 0.0
O110 O 0.07229 0.14288 0.91226 0.0
O111 O 0.00259 0.14766 0.89954 0.0
C112 C 0.0594 0.42961 0.43936 0.0
C113 C 0.0244 0.41397 0.42671 0.0
C114 C 0.05217 0.45342 0.45649 0.0
C115 C 0.96928 0.48629 0.502 0.0
H116 H 0.04301 0.5512 0.49747 0.0
C117 C 0.93221 0.58984 0.56179 0.0
C118 C 0.96717 0.60556 0.57437 0.0
C119 C 0.93951 0.56598 0.54476 0.0
C120 C 0.02249 0.5331 0.49935 0.0
H121 H 0.95421 0.41162 0.42151 0.0
H122 H 0.94151 0.45343 0.45116 0.0
H123 H 0.05411 0.5117 0.46429 0.0
H124 H 0.03736 0.608 0.57957 0.0
H125 H 0.05017 0.56609 0.5501 0.0
H126 H 0.93766 0.5077 0.53705 0.0
C127 C 0.97464 0.44701 0.44816 0.0
C128 C 0.02877 0.51045 0.48022 0.0
C129 C 0.98191 0.42317 0.43092 0.0
C130 C 0.00969 0.59638 0.57021 0.0
C131 C 0.01702 0.57249 0.55308 0.0
C132 C 0.963 0.50894 0.52112 0.0
C133 C 0.00971 0.46224 0.46149 0.0
C134 C 0.00225 0.48672 0.48128 0.0
C135 C 0.98199 0.55718 0.53979 0.0
C136 C 0.98951 0.53267 0.52005 0.0
H137 H 0.09259 0.42312 0.43667 0.0
H138 H 0.07996 0.46439 0.46663 0.0
H139 H 0.94875 0.46819 0.50386 0.0
H140 H 0.89901 0.59631 0.56445 0.0
H141 H 0.91174 0.55495 0.53467 0.0
C142 C 0.55957 0.59016 0.4392 0.0
C143 C 0.52459 0.60604 0.42689 0.0
C144 C 0.55231 0.56641 0.4564 0.0
C145 C 0.46864 0.51449 0.47433 0.0
H146 H 0.54283 0.50316 0.54706 0.0
C147 C 0.43122 0.43008 0.56172 0.0
C148 C 0.46622 0.41418 0.57398 0.0
C149 C 0.43846 0.45387 0.54458 0.0
C150 C 0.5221 0.50582 0.52668 0.0
H151 H 0.45441 0.6089 0.4224 0.0
H152 H 0.44166 0.56744 0.45256 0.0
H153 H 0.55484 0.54309 0.51467 0.0
H154 H 0.53641 0.41134 0.57846 0.0
H155 H 0.54912 0.45287 0.5484 0.0
H156 H 0.4359 0.47723 0.48634 0.0
C157 C 0.4748 0.57327 0.44871 0.0
C158 C 0.529 0.52874 0.50804 0.0
C159 C 0.48208 0.59709 0.43145 0.0
C160 C 0.50872 0.42316 0.56945 0.0
C161 C 0.51599 0.44702 0.55225 0.0
C162 C 0.46174 0.49158 0.49297 0.0
C163 C 0.50986 0.55786 0.46181 0.0
C164 C 0.5024 0.53337 0.48159 0.0
C165 C 0.48091 0.46244 0.53918 0.0
C166 C 0.48834 0.48694 0.51942 0.0
H167 H 0.59277 0.59634 0.43605 0.0
H168 H 0.58009 0.55478 0.46558 0.0
H169 H 0.44791 0.51715 0.45395 0.0
H170 H 0.39803 0.42387 0.56485 0.0
H171 H 0.41067 0.4655 0.53542 0.0
C172 C 0.43059 0.09012 0.06057 0.0
C173 C 0.46541 0.10594 0.07319 0.0
C174 C 0.43811 0.0663 0.04353 0.0
C175 C 0.52142 0.03362 0.99823 0.0
H176 H 0.4484 0.9684 0.00304 0.0
C177 C 0.55971 0.93003 0.93893 0.0
C178 C 0.52493 0.91411 0.92639 0.0
C179 C 0.55213 0.95389 0.95587 0.0
C180 C 0.46872 0.98658 0.00109 0.0
H181 H 0.53557 0.10863 0.0784 0.0
H182 H 0.54876 0.0668 0.04891 0.0
H183 H 0.43682 1.00799 0.036 0.0
H184 H 0.45478 0.91135 0.92118 0.0
H185 H 0.44148 0.95327 0.95049 0.0
H186 H 0.55333 0.01221 0.96331 0.0
C187 C 0.51555 0.07308 0.05187 0.0
C188 C 0.46216 1.00928 0.02008 0.0
C189 C 0.50801 0.09693 0.06902 0.0
C190 C 0.48231 0.92311 0.93051 0.0
C191 C 0.4747 0.94701 0.94756 0.0
C192 C 0.52798 0.01091 0.97923 0.0
C193 C 0.48067 0.05765 0.03858 0.0
C194 C 0.48842 0.03312 0.01892 0.0
C195 C 0.50954 0.96252 0.96079 0.0
C196 C 0.50174 0.98707 0.9804 0.0
H197 H 0.39734 0.09646 0.06324 0.0
H198 H 0.41044 0.05517 0.03343 0.0
H199 H 0.54175 0.05179 0.99628 0.0
H200 H 0.59298 0.9237 0.93629 0.0
H201 H 0.57977 0.96508 0.96593 0.0
C202 C 0.00779 0.92273 0.06903 0.0
C203 C 0.96526 0.9133 0.07261 0.0
C204 C 0.01524 0.94663 0.05194 0.0
C205 C 0.96258 0.99062 0.99146 0.0
H206 H 0.05326 0.04317 0.01532 0.0
C207 C 0.98285 0.09649 0.93066 0.0
C208 C 0.02537 0.10594 0.92709 0.0
C209 C 0.97541 0.07255 0.94769 0.0
C210 C 0.02812 0.02853 0.0081 0.0
H211 H 0.89717 0.92221 0.06185 0.0
H212 H 0.91011 0.96391 0.03261 0.0
H213 H 0.04081 1.00306 0.04733 0.0
H214 H 0.09347 0.09701 0.93779 0.0
H215 H 0.08056 0.05525 0.96693 0.0
H216 H 0.94988 0.01609 0.95223 0.0
C217 C 0.93781 0.9526 0.04244 0.0
C218 C 0.02097 1.00551 0.02651 0.0
C219 C 0.93038 0.92877 0.05946 0.0
C220 C 0.06026 0.09044 0.94017 0.0
C221 C 0.05285 0.06657 0.95714 0.0
C222 C 0.96973 0.01364 0.97305 0.0
C223 C 0.98033 0.96164 0.03803 0.0
C224 C 0.98806 0.98624 0.01847 0.0
C225 C 0.01034 0.05752 0.96155 0.0
C226 C 0.00263 0.03291 0.98109 0.0
H227 H 0.03539 0.91125 0.07873 0.0
H228 H 0.04844 0.95285 0.04887 0.0
H229 H 0.93744 0.97597 0.98424 0.0
H230 H 0.95523 0.10799 0.921 0.0
H231 H 0.94222 0.06633 0.95077 0.0
C232 C 0.62829 0.2186 0.17425 0.0
C233 C 0.59919 0.24021 0.16638 0.0
C234 C 0.66487 0.22362 0.19366 0.0
C235 C 0.70423 0.2725 0.25334 0.0
H236 H 0.81593 0.23818 0.24246 0.0
C237 C 0.86068 0.30144 0.32525 0.0
C238 C 0.88968 0.27979 0.33316 0.0
C239 C 0.82415 0.29647 0.30577 0.0
C240 C 0.78478 0.24766 0.24603 0.0
H241 H 0.5868 0.28431 0.17142 0.0
H242 H 0.65077 0.29309 0.20473 0.0
H243 H 0.75596 0.23003 0.20524 0.0
H244 H 0.90195 0.23567 0.32811 0.0
H245 H 0.83807 0.22699 0.29468 0.0
H246 H 0.73305 0.29013 0.29413 0.0
C247 C 0.6449 0.27215 0.19652 0.0
C248 C 0.75045 0.24301 0.22465 0.0
C249 C 0.6084 0.26714 0.17722 0.0
C250 C 0.88042 0.25288 0.32228 0.0
C251 C 0.84398 0.24792 0.30291 0.0
C252 C 0.73855 0.27716 0.27471 0.0
C253 C 0.67304 0.25036 0.20552 0.0
C254 C 0.70978 0.2554 0.22804 0.0
C255 C 0.81594 0.26975 0.29388 0.0
C256 C 0.77922 0.26475 0.27133 0.0
H257 H 0.62198 0.19761 0.16636 0.0
H258 H 0.6858 0.20634 0.20027 0.0
H259 H 0.67307 0.28197 0.25691 0.0
H260 H 0.86701 0.32242 0.33317 0.0
H261 H 0.80328 0.31378 0.29913 0.0
C262 C 0.63015 0.30168 0.67317 0.0
C263 C 0.60122 0.27996 0.66544 0.0
C264 C 0.667 0.29678 0.69236 0.0
C265 C 0.73787 0.24088 0.7252 0.0
H266 H 0.76103 0.29387 0.79014 0.0
C267 C 0.86202 0.21808 0.82465 0.0
C268 C 0.89088 0.23978 0.83263 0.0
C269 C 0.82555 0.22301 0.80511 0.0
C270 C 0.75521 0.27899 0.77201 0.0
H271 H 0.58928 0.23584 0.67066 0.0
H272 H 0.65321 0.22737 0.70402 0.0
H273 H 0.70227 0.30271 0.75216 0.0
H274 H 0.90317 0.28386 0.82738 0.0
H275 H 0.83988 0.29237 0.79341 0.0
H276 H 0.79079 0.21714 0.74508 0.0
C277 C 0.64769 0.24815 0.69524 0.0
C278 C 0.72167 0.28411 0.75016 0.0
C279 C 0.61089 0.25305 0.67618 0.0
C280 C 0.88158 0.26667 0.82168 0.0
C281 C 0.84516 0.2716 0.80228 0.0
C282 C 0.77142 0.23575 0.74705 0.0
C283 C 0.67571 0.27004 0.70406 0.0
C284 C 0.71259 0.26512 0.72651 0.0
C285 C 0.81715 0.24975 0.7933 0.0
C286 C 0.78047 0.25474 0.77072 0.0
H287 H 0.6236 0.32264 0.66526 0.0
H288 H 0.68835 0.314 0.69839 0.0
H289 H 0.73203 0.22599 0.70708 0.0
H290 H 0.8683 0.19714 0.83271 0.0
H291 H 0.80419 0.20582 0.79895 0.0
C292 C 0.1308 0.71792 0.67482 0.0
C293 C 0.1021 0.73968 0.66666 0.0
C294 C 0.16735 0.72285 0.69428 0.0
C295 C 0.23808 0.77878 0.72704 0.0
H296 H 0.26029 0.7262 0.79253 0.0
C297 C 0.3621 0.80183 0.8264 0.0
C298 C 0.39085 0.78008 0.83448 0.0
C299 C 0.32548 0.79689 0.807 0.0
C300 C 0.25472 0.74097 0.77426 0.0
H301 H 0.09026 0.78387 0.67143 0.0
H302 H 0.15368 0.79238 0.70526 0.0
H303 H 0.20179 0.71728 0.75437 0.0
H304 H 0.40271 0.7359 0.82968 0.0
H305 H 0.33917 0.72737 0.79597 0.0
H306 H 0.29101 0.80247 0.74692 0.0
C307 C 0.14821 0.77156 0.6966 0.0
C308 C 0.22133 0.7358 0.75231 0.0
C309 C 0.1117 0.76663 0.67728 0.0
C310 C 0.38123 0.75313 0.82388 0.0
C311 C 0.34465 0.74819 0.80462 0.0
C312 C 0.27146 0.78395 0.74899 0.0
C313 C 0.17599 0.74965 0.70582 0.0
C314 C 0.21262 0.75464 0.72845 0.0
C315 C 0.31683 0.7701 0.79545 0.0
C316 C 0.28018 0.76511 0.77285 0.0
H317 H 0.12428 0.69693 0.66701 0.0
H318 H 0.18853 0.70562 0.70061 0.0
H319 H 0.23251 0.79355 0.70876 0.0
H320 H 0.36863 0.82282 0.8342 0.0
H321 H 0.30427 0.81412 0.80071 0.0
C322 C 0.38079 0.7677 0.324 0.0
C323 C 0.39008 0.74075 0.33477 0.0
C324 C 0.34416 0.77275 0.30482 0.0
C325 C 0.23851 0.74368 0.27687 0.0
H326 H 0.25587 0.79058 0.20721 0.0
C327 C 0.10884 0.75303 0.17896 0.0
C328 C 0.09959 0.77986 0.16781 0.0
C329 C 0.14514 0.74823 0.19852 0.0
C330 C 0.25037 0.77767 0.22668 0.0
H331 H 0.36726 0.69817 0.33486 0.0
H332 H 0.30321 0.70698 0.30118 0.0
H333 H 0.31584 0.78252 0.24446 0.0
H334 H 0.12209 0.82251 0.16757 0.0
H335 H 0.1856 0.81413 0.20192 0.0
H336 H 0.17304 0.73881 0.25907 0.0
C337 C 0.32419 0.72424 0.30774 0.0
C338 C 0.2847 0.77308 0.24808 0.0
C339 C 0.3609 0.71917 0.32701 0.0
C340 C 0.12844 0.80159 0.17569 0.0
C341 C 0.16483 0.79677 0.19534 0.0
C342 C 0.20417 0.74827 0.25548 0.0
C343 C 0.31597 0.75098 0.2959 0.0
C344 C 0.27916 0.75604 0.27343 0.0
C345 C 0.17306 0.77013 0.20746 0.0
C346 C 0.20973 0.76528 0.2301 0.0
H347 H 0.40245 0.78485 0.32972 0.0
H348 H 0.33825 0.7937 0.29664 0.0
H349 H 0.23302 0.73074 0.29633 0.0
H350 H 0.08742 0.73578 0.17318 0.0
H351 H 0.15107 0.72735 0.20691 0.0
C352 C 0.33807 0.19862 0.18295 0.0
C353 C 0.38047 0.2092 0.18682 0.0
C354 C 0.3049 0.20927 0.19996 0.0
C355 C 0.28282 0.2528 0.26691 0.0
H356 H 0.17715 0.27184 0.21978 0.0
C357 C 0.1511 0.32079 0.3172 0.0
C358 C 0.10869 0.31024 0.31332 0.0
C359 C 0.18428 0.31008 0.30022 0.0
C360 C 0.20634 0.26652 0.23331 0.0
H361 H 0.42199 0.23761 0.21323 0.0
H362 H 0.36449 0.25599 0.24279 0.0
H363 H 0.23455 0.24646 0.19596 0.0
H364 H 0.06715 0.28182 0.28692 0.0
H365 H 0.12466 0.26336 0.25743 0.0
H366 H 0.2546 0.27286 0.30425 0.0
C367 C 0.35662 0.23959 0.22664 0.0
C368 C 0.23913 0.2518 0.21972 0.0
C369 C 0.38962 0.22908 0.2096 0.0
C370 C 0.09953 0.29033 0.29057 0.0
C371 C 0.13254 0.27977 0.27356 0.0
C372 C 0.25003 0.26752 0.2805 0.0
C373 C 0.31359 0.23054 0.2213 0.0
C374 C 0.27777 0.24475 0.23635 0.0
C375 C 0.17558 0.2888 0.2789 0.0
C376 C 0.21139 0.27457 0.26387 0.0
H377 H 0.32993 0.18336 0.16555 0.0
H378 H 0.27218 0.2015 0.19572 0.0
H379 H 0.31201 0.24749 0.28044 0.0
H380 H 0.15925 0.33607 0.33457 0.0
H381 H 0.21701 0.31784 0.30447 0.0
C382 C 0.39184 0.29018 0.71002 0.0
C383 C 0.38258 0.31025 0.68746 0.0
C384 C 0.35896 0.27967 0.7272 0.0
C385 C 0.24144 0.26789 0.72078 0.0
H386 H 0.25725 0.24665 0.80526 0.0
C387 C 0.10176 0.22977 0.79164 0.0
C388 C 0.11073 0.20985 0.8144 0.0
C389 C 0.13488 0.24026 0.7747 0.0
C390 C 0.25258 0.25204 0.78152 0.0
H391 H 0.33204 0.33645 0.66671 0.0
H392 H 0.27453 0.31831 0.69708 0.0
H393 H 0.31474 0.2718 0.78128 0.0
H394 H 0.16112 0.18395 0.83581 0.0
H395 H 0.21909 0.20203 0.8058 0.0
H396 H 0.17933 0.24809 0.72098 0.0
C397 C 0.30722 0.31038 0.70106 0.0
C398 C 0.28542 0.26664 0.76784 0.0
C399 C 0.34026 0.32103 0.68394 0.0
C400 C 0.15311 0.19924 0.81841 0.0
C401 C 0.18641 0.20987 0.8015 0.0
C402 C 0.20862 0.25327 0.73445 0.0
C403 C 0.31598 0.28894 0.72218 0.0
C404 C 0.28022 0.27477 0.73731 0.0
C405 C 0.17787 0.23113 0.78011 0.0
C406 C 0.21376 0.24519 0.765 0.0
H407 H 0.42416 0.28149 0.71339 0.0
H408 H 0.36687 0.26314 0.74318 0.0
H409 H 0.23676 0.27329 0.69705 0.0
H410 H 0.06941 0.23833 0.78789 0.0
H411 H 0.1271 0.25668 0.75854 0.0
C412 C 0.60033 0.79003 0.79084 0.0
C413 C 0.60972 0.80998 0.8135 0.0
C414 C 0.6332 0.77932 0.77382 0.0
C415 C 0.74701 0.78904 0.75332 0.0
H416 H 0.74461 0.70876 0.74517 0.0
C417 C 0.8923 0.73016 0.7096 0.0
C418 C 0.88295 0.71017 0.68698 0.0
C419 C 0.8594 0.74091 0.72657 0.0
C420 C 0.74558 0.73119 0.74702 0.0
H421 H 0.66054 0.8357 0.8346 0.0
H422 H 0.71813 0.81694 0.80482 0.0
H423 H 0.68575 0.73249 0.76917 0.0
H424 H 0.83216 0.68443 0.66587 0.0
H425 H 0.77451 0.70326 0.69556 0.0
H426 H 0.80684 0.78774 0.73117 0.0
C427 C 0.68523 0.80963 0.80019 0.0
C428 C 0.71177 0.74484 0.76068 0.0
C429 C 0.6522 0.82046 0.81722 0.0
C430 C 0.84047 0.6997 0.68323 0.0
C431 C 0.80741 0.71057 0.7002 0.0
C432 C 0.78081 0.77539 0.73966 0.0
C433 C 0.67632 0.78821 0.77907 0.0
C434 C 0.71202 0.77394 0.76395 0.0
C435 C 0.81628 0.73202 0.7213 0.0
C436 C 0.78056 0.74629 0.73639 0.0
H437 H 0.56783 0.78171 0.78718 0.0
H438 H 0.62502 0.7634 0.75715 0.0
H439 H 0.74798 0.81147 0.75517 0.0
H440 H 0.92481 0.73847 0.71329 0.0
H441 H 0.86756 0.75684 0.74322 0.0
C442 C 0.88887 0.79013 0.20869 0.0
C443 C 0.87981 0.80988 0.18575 0.0
C444 C 0.85576 0.77964 0.22564 0.0
C445 C 0.73819 0.76741 0.21863 0.0
H446 H 0.75379 0.7467 0.30327 0.0
C447 C 0.59893 0.72928 0.29012 0.0
C448 C 0.60826 0.70939 0.31286 0.0
C449 C 0.63178 0.73974 0.2729 0.0
C450 C 0.74918 0.75195 0.27949 0.0
H451 H 0.82929 0.83549 0.16405 0.0
H452 H 0.77134 0.81741 0.19409 0.0
H453 H 0.8111 0.77198 0.27931 0.0
H454 H 0.65892 0.68346 0.33389 0.0
H455 H 0.7164 0.70154 0.30346 0.0
H456 H 0.6762 0.74742 0.21886 0.0
C457 C 0.80408 0.80971 0.19852 0.0
C458 C 0.78193 0.76661 0.26581 0.0
C459 C 0.83736 0.82033 0.18158 0.0
C460 C 0.65065 0.69873 0.31652 0.0
C461 C 0.68367 0.70935 0.29936 0.0
C462 C 0.70542 0.75277 0.23233 0.0
C463 C 0.81271 0.7886 0.22007 0.0
C464 C 0.77687 0.7745 0.2352 0.0
C465 C 0.67483 0.73064 0.27806 0.0
C466 C 0.71054 0.74483 0.26292 0.0
H467 H 0.92127 0.7817 0.21256 0.0
H468 H 0.86361 0.76336 0.24194 0.0
H469 H 0.73359 0.77265 0.19485 0.0
H470 H 0.56656 0.73786 0.28665 0.0
H471 H 0.62381 0.75616 0.25678 0.0
C472 C 0.39218 0.24922 0.55622 0.0
C473 C 0.41388 0.2732 0.54707 0.0
C474 C 0.35345 0.24097 0.54079 0.0
C475 C 0.26624 0.28012 0.50385 0.0
H476 H 0.20519 0.21001 0.49405 0.0
C477 C 0.08766 0.28518 0.48076 0.0
C478 C 0.07485 0.2726 0.45311 0.0
C479 C 0.1256 0.27661 0.4967 0.0
C480 C 0.22194 0.22969 0.49687 0.0
H481 H 0.41682 0.30446 0.51213 0.0
H482 H 0.35071 0.2892 0.48423 0.0
H483 H 0.28417 0.21025 0.50594 0.0
H484 H 0.08783 0.23887 0.42249 0.0
H485 H 0.15497 0.22446 0.44982 0.0
H486 H 0.20521 0.29978 0.4947 0.0
C487 C 0.36234 0.27745 0.50395 0.0
C488 C 0.26701 0.22982 0.50352 0.0
C489 C 0.40042 0.28603 0.51969 0.0
C490 C 0.09702 0.24883 0.44387 0.0
C491 C 0.13562 0.24062 0.45949 0.0
C492 C 0.22166 0.27998 0.49751 0.0
C493 C 0.33659 0.25643 0.51587 0.0
C494 C 0.2896 0.25514 0.50678 0.0
C495 C 0.15188 0.25589 0.48472 0.0
C496 C 0.19882 0.25485 0.49404 0.0
H497 H 0.40187 0.23905 0.57739 0.0
H498 H 0.33449 0.22458 0.5504 0.0
H499 H 0.2823 0.3 0.507 0.0
H500 H 0.07089 0.30345 0.4884 0.0
H501 H 0.13674 0.2882 0.51665 0.0
C502 C 0.90373 0.73393 0.5193 0.0
C503 C 0.91676 0.74671 0.54679 0.0
C504 C 0.86585 0.74253 0.50331 0.0
C505 C 0.77008 0.78996 0.50274 0.0
H506 H 0.70887 0.71988 0.49333 0.0
C507 C 0.59952 0.77089 0.44373 0.0
C508 C 0.57755 0.74708 0.45307 0.0
C509 C 0.63837 0.77904 0.45906 0.0
C510 C 0.72518 0.73971 0.49628 0.0
H511 H 0.90424 0.78079 0.57706 0.0
H512 H 0.8372 0.79527 0.54966 0.0
H513 H 0.78597 0.7198 0.50556 0.0
H514 H 0.57431 0.71607 0.48825 0.0
H515 H 0.64063 0.73118 0.51598 0.0
H516 H 0.70807 0.80964 0.49354 0.0
C517 C 0.85634 0.77892 0.54014 0.0
C518 C 0.76976 0.73966 0.50259 0.0
C519 C 0.89488 0.77067 0.55581 0.0
C520 C 0.59091 0.73436 0.48054 0.0
C521 C 0.62911 0.74286 0.49618 0.0
C522 C 0.72501 0.79 0.49613 0.0
C523 C 0.83984 0.76349 0.51509 0.0
C524 C 0.7929 0.7647 0.5058 0.0
C525 C 0.65509 0.76366 0.48409 0.0
C526 C 0.70211 0.76478 0.49313 0.0
H527 H 0.92028 0.71551 0.51183 0.0
H528 H 0.85454 0.73081 0.48349 0.0
H529 H 0.78707 0.80957 0.50536 0.0
H530 H 0.58991 0.78096 0.42248 0.0
H531 H 0.65749 0.79526 0.44931 0.0
C532 C 0.90379 0.78373 0.01881 0.0
C533 C 0.91628 0.77145 0.04669 0.0
C534 C 0.86597 0.77506 0.00281 0.0
C535 C 0.76913 0.7286 0.00317 0.0
H536 H 0.70949 0.79913 0.9924 0.0
C537 C 0.59859 0.74882 0.94436 0.0
C538 C 0.57731 0.77296 0.95354 0.0
C539 C 0.63734 0.74037 0.95964 0.0
C540 C 0.72537 0.7792 0.99572 0.0
H541 H 0.90296 0.73805 0.07764 0.0
H542 H 0.83601 0.72349 0.05022 0.0
H543 H 0.78664 0.79862 0.0044 0.0
H544 H 0.57512 0.80432 0.98844 0.0
H545 H 0.6413 0.78875 0.01604 0.0
H546 H 0.70661 0.70942 0.99458 0.0
C547 C 0.85551 0.73949 0.04041 0.0
C548 C 0.76997 0.77888 0.00189 0.0
C549 C 0.89401 0.74779 0.0561 0.0
C550 C 0.59119 0.78577 0.98085 0.0
C551 C 0.6293 0.777 0.99642 0.0
C552 C 0.72402 0.72892 0.99668 0.0
C553 C 0.83949 0.75456 0.01496 0.0
C554 C 0.79254 0.75366 0.00563 0.0
C555 C 0.65464 0.7558 0.98443 0.0
C556 C 0.7017 0.75432 0.99322 0.0
H557 H 0.92066 0.8019 0.01104 0.0
H558 H 0.85502 0.78647 0.98269 0.0
H559 H 0.78566 0.70886 0.0062 0.0
H560 H 0.58857 0.73866 0.92325 0.0
H561 H 0.65598 0.72385 0.94999 0.0
C562 C 0.39938 0.23468 0.01971 0.0
C563 C 0.41299 0.2473 0.04718 0.0
C564 C 0.36122 0.24338 0.00416 0.0
C565 C 0.26582 0.29088 0.00426 0.0
H566 H 0.20418 0.22088 0.99576 0.0
C567 C 0.09615 0.27151 0.94454 0.0
C568 C 0.07415 0.24767 0.95375 0.0
C569 C 0.13454 0.27989 0.9603 0.0
C570 C 0.22058 0.24069 0.99849 0.0
H571 H 0.40118 0.28126 0.0778 0.0
H572 H 0.33367 0.29593 0.0511 0.0
H573 H 0.28133 0.22072 0.00783 0.0
H574 H 0.07015 0.21691 0.98912 0.0
H575 H 0.13561 0.23245 0.0176 0.0
H576 H 0.20391 0.31065 0.99488 0.0
C577 C 0.35257 0.27961 0.0413 0.0
C578 C 0.26518 0.24059 0.0047 0.0
C579 C 0.39137 0.27124 0.05656 0.0
C580 C 0.08681 0.23522 0.9815 0.0
C581 C 0.12452 0.24396 0.99758 0.0
C582 C 0.22072 0.29099 0.99772 0.0
C583 C 0.33555 0.26431 0.01632 0.0
C584 C 0.28849 0.26559 0.00748 0.0
C585 C 0.15074 0.26471 0.98563 0.0
C586 C 0.19767 0.2658 0.99499 0.0
H587 H 0.41572 0.21628 0.01196 0.0
H588 H 0.34944 0.23174 0.9844 0.0
H589 H 0.28296 0.31046 0.00659 0.0
H590 H 0.08707 0.28139 0.92309 0.0
H591 H 0.15384 0.29607 0.95064 0.0
loop_
_geom_bond_atom_site_label_1
_geom_bond_atom_site_label_2
_geom_bond_distance
_geom_bond_site_symmetry_2
_ccdc_geom_bond_type
O0 Cd1 2.223 . S
O0 C8 1.315 . S
Cd1 O0 2.223 . S
Cd1 O4 2.297 1_455 S
Cd1 O5 2.439 1_455 S
Cd1 O11 2.240 . S
Cd2 O3 2.240 . S
Cd2 O10 2.223 . S
Cd2 O12 2.297 . S
Cd2 O13 2.446 . S
O3 Cd2 2.240 . S
O3 C8 1.279 . S
O4 Cd1 2.297 1_655 S
O4 C6 1.247 . S
O5 Cd1 2.439 1_655 S
O5 C6 1.208 . S
C6 O4 1.247 . S
C6 O5 1.208 . S
C7 O12 1.247 . S
C7 O13 1.212 . S
C8 O0 1.315 . S
C8 O3 1.279 . S
C9 O10 1.315 . S
C9 O11 1.279 . S
O10 Cd2 2.223 . S
O10 C9 1.315 . S
O11 Cd1 2.240 . S
O11 C9 1.279 . S
O12 Cd2 2.297 . S
O12 C7 1.247 . S
O13 Cd2 2.446 . S
O13 C7 1.212 . S
O14 Cd15 2.223 . S
O14 C22 1.315 . S
Cd15 O14 2.223 . S
Cd15 O18 2.297 . S
Cd15 O19 2.439 . S
Cd15 O25 2.240 . S
Cd16 O17 2.240 . S
Cd16 O24 2.223 . S
Cd16 O26 2.297 . S
Cd16 O27 2.439 . S
O17 Cd16 2.240 . S
O17 C22 1.279 . S
O18 Cd15 2.297 . S
O18 C20 1.247 . S
O19 Cd15 2.439 . S
O19 C20 1.208 . S
C20 O18 1.247 . S
C20 O19 1.208 . S
C21 O26 1.247 . S
C21 O27 1.208 . S
C22 O14 1.315 . S
C22 O17 1.279 . S
C23 O24 1.315 . S
C23 O25 1.279 . S
O24 Cd16 2.223 . S
O24 C23 1.315 . S
O25 Cd15 2.240 . S
O25 C23 1.279 . S
O26 Cd16 2.297 . S
O26 C21 1.247 . S
O27 Cd16 2.439 . S
O27 C21 1.208 . S
O28 Cd29 2.223 . S
O28 C36 1.315 . S
Cd29 O28 2.223 . S
Cd29 O32 2.297 1_655 S
Cd29 O33 2.439 1_655 S
Cd29 O39 2.240 . S
Cd30 O31 2.240 . S
Cd30 O38 2.223 . S
Cd30 O40 2.297 . S
Cd30 O41 2.446 . S
O31 Cd30 2.240 . S
O31 C36 1.279 . S
O32 Cd29 2.297 1_455 S
O32 C34 1.247 . S
O33 Cd29 2.439 1_455 S
O33 C34 1.208 . S
C34 O32 1.247 . S
C34 O33 1.208 . S
C35 O40 1.247 . S
C35 O41 1.212 . S
C36 O28 1.315 . S
C36 O31 1.279 . S
C37 O38 1.315 . S
C37 O39 1.279 . S
O38 Cd30 2.223 . S
O38 C37 1.315 . S
O39 Cd29 2.240 . S
O39 C37 1.279 . S
O40 Cd30 2.297 . S
O40 C35 1.247 . S
O41 Cd30 2.446 . S
O41 C35 1.212 . S
O42 Cd43 2.223 . S
O42 C50 1.315 . S
Cd43 O42 2.223 . S
Cd43 O46 2.297 . S
Cd43 O47 2.439 . S
Cd43 O53 2.240 . S
Cd44 O45 2.240 . S
Cd44 O52 2.223 . S
Cd44 O54 2.297 . S
Cd44 O55 2.439 . S
O45 Cd44 2.240 . S
O45 C50 1.279 . S
O46 Cd43 2.297 . S
O46 C48 1.247 . S
O47 Cd43 2.439 . S
O47 C48 1.208 . S
C48 O46 1.247 . S
C48 O47 1.208 . S
C49 O54 1.247 . S
C49 O55 1.208 . S
C50 O42 1.315 . S
C50 O45 1.279 . S
C51 O52 1.315 . S
C51 O53 1.279 . S
O52 Cd44 2.223 . S
O52 C51 1.315 . S
O53 Cd43 2.240 . S
O53 C51 1.279 . S
O54 Cd44 2.297 . S
O54 C49 1.247 . S
O55 Cd44 2.439 . S
O55 C49 1.208 . S
O56 Cd57 2.223 . S
O56 C64 1.315 . S
Cd57 O56 2.223 . S
Cd57 O60 2.297 . S
Cd57 O61 2.439 . S
Cd57 O67 2.240 . S
Cd58 O59 2.240 . S
Cd58 O66 2.223 . S
Cd58 O68 2.297 . S
Cd58 O69 2.439 . S
O59 Cd58 2.240 . S
O59 C64 1.279 . S
O60 Cd57 2.297 . S
O60 C62 1.247 . S
O61 Cd57 2.439 . S
O61 C62 1.208 . S
C62 O60 1.247 . S
C62 O61 1.208 . S
C63 O68 1.247 . S
C63 O69 1.208 . S
C64 O56 1.315 . S
C64 O59 1.279 . S
C65 O66 1.315 . S
C65 O67 1.279 . S
O66 Cd58 2.223 . S
O66 C65 1.315 . S
O67 Cd57 2.240 . S
O67 C65 1.279 . S
O68 Cd58 2.297 . S
O68 C63 1.247 . S
O69 Cd58 2.439 . S
O69 C63 1.208 . S
O70 Cd71 2.223 . S
O70 C78 1.315 . S
Cd71 O70 2.223 . S
Cd71 O74 2.297 1_655 S
Cd71 O75 2.439 1_655 S
Cd71 O81 2.240 . S
Cd72 O73 2.240 . S
Cd72 O80 2.223 . S
Cd72 O82 2.297 . S
Cd72 O83 2.446 . S
O73 Cd72 2.240 . S
O73 C78 1.279 . S
O74 Cd71 2.297 1_455 S
O74 C76 1.247 . S
O75 Cd71 2.439 1_455 S
O75 C76 1.208 . S
C76 O74 1.247 . S
C76 O75 1.208 . S
C77 O82 1.247 . S
C77 O83 1.212 . S
C78 O70 1.315 . S
C78 O73 1.279 . S
C79 O80 1.315 . S
C79 O81 1.279 . S
O80 Cd72 2.223 . S
O80 C79 1.315 . S
O81 Cd71 2.240 . S
O81 C79 1.279 . S
O82 Cd72 2.297 . S
O82 C77 1.247 . S
O83 Cd72 2.446 . S
O83 C77 1.212 . S
O84 Cd85 2.223 . S
O84 C92 1.315 . S
Cd85 O84 2.223 . S
Cd85 O88 2.297 . S
Cd85 O89 2.439 . S
Cd85 O95 2.240 . S
Cd86 O87 2.240 . S
Cd86 O94 2.223 . S
Cd86 O96 2.297 . S
Cd86 O97 2.439 . S
O87 Cd86 2.240 . S
O87 C92 1.279 . S
O88 Cd85 2.297 . S
O88 C90 1.247 . S
O89 Cd85 2.439 . S
O89 C90 1.208 . S
C90 O88 1.247 . S
C90 O89 1.208 . S
C91 O96 1.247 . S
C91 O97 1.208 . S
C92 O84 1.315 . S
C92 O87 1.279 . S
C93 O94 1.315 . S
C93 O95 1.279 . S
O94 Cd86 2.223 . S
O94 C93 1.315 . S
O95 Cd85 2.240 . S
O95 C93 1.279 . S
O96 Cd86 2.297 . S
O96 C91 1.247 . S
O97 Cd86 2.439 . S
O97 C91 1.208 . S
O98 Cd99 2.223 . S
O98 C106 1.315 . S
Cd99 O98 2.223 . S
Cd99 O102 2.297 1_455 S
Cd99 O103 2.439 1_455 S
Cd99 O109 2.240 . S
Cd100 O101 2.240 . S
Cd100 O108 2.223 . S
Cd100 O110 2.297 . S
Cd100 O111 2.446 . S
O101 Cd100 2.240 . S
O101 C106 1.279 . S
O102 Cd99 2.297 1_655 S
O102 C104 1.247 . S
O103 Cd99 2.439 1_655 S
O103 C104 1.208 . S
C104 O102 1.247 . S
C104 O103 1.208 . S
C105 O110 1.247 . S
C105 O111 1.212 . S
C106 O98 1.315 . S
C106 O101 1.279 . S
C107 O108 1.315 . S
C107 O109 1.279 . S
O108 Cd100 2.223 . S
O108 C107 1.315 . S
O109 Cd99 2.240 . S
O109 C107 1.279 . S
O110 Cd100 2.297 . S
O110 C105 1.247 . S
O111 Cd100 2.446 . S
O111 C105 1.212 . S
C112 C113 1.349 . S
C112 C114 1.327 . S
C112 H137 0.950 . S
C113 C112 1.349 . S
C113 C129 1.349 1_455 S
C114 C112 1.327 . S
C114 C133 1.429 . S
C114 H138 0.950 . S
C115 C132 1.574 . S
C115 C134 1.368 1_655 S
C115 H139 0.949 . S
H116 C120 0.949 . S
C117 C118 1.349 . S
C117 C119 1.327 . S
C117 H140 0.950 . S
C118 C117 1.349 . S
C118 C130 1.349 1_655 S
C119 C117 1.327 . S
C119 C135 1.429 . S
C119 H141 0.950 . S
C120 H116 0.949 . S
C120 C128 1.574 . S
C120 C136 1.368 1_455 S
H121 C129 0.950 . S
H122 C127 0.950 . S
H123 C128 0.949 . S
H124 C130 0.950 . S
H125 C131 0.950 . S
H126 C132 0.949 . S
C127 H122 0.950 . S
C127 C129 1.327 . S
C127 C133 1.429 1_655 S
C128 C120 1.574 . S
C128 H123 0.949 . S
C128 C134 1.368 . S
C129 C113 1.349 1_655 S
C129 H121 0.950 . S
C129 C127 1.327 . S
C130 C118 1.349 1_455 S
C130 H124 0.950 . S
C130 C131 1.327 . S
C131 H125 0.950 . S
C131 C130 1.327 . S
C131 C135 1.429 1_455 S
C132 C115 1.574 . S
C132 H126 0.949 . S
C132 C136 1.368 . S
C133 C114 1.429 . S
C133 C127 1.429 1_455 S
C133 C134 1.523 . S
C134 C115 1.368 1_455 S
C134 C128 1.368 . S
C134 C133 1.523 . S
C135 C119 1.429 . S
C135 C131 1.429 1_655 S
C135 C136 1.523 . S
C136 C120 1.368 1_655 S
C136 C132 1.368 . S
C136 C135 1.523 . S
H137 C112 0.950 . S
H138 C114 0.950 . S
H139 C115 0.949 . S
H140 C117 0.950 . S
H141 C119 0.950 . S
C142 C143 1.349 . S
C142 C144 1.327 . S
C142 H167 0.950 . S
C143 C142 1.349 . S
C143 C159 1.349 . S
C144 C142 1.327 . S
C144 C163 1.429 . S
C144 H168 0.950 . S
C145 C162 1.574 . S
C145 C164 1.368 . S
C145 H169 0.949 . S
H146 C150 0.949 . S
C147 C148 1.349 . S
C147 C149 1.327 . S
C147 H170 0.950 . S
C148 C147 1.349 . S
C148 C160 1.349 . S
C149 C147 1.327 . S
C149 C165 1.429 . S
C149 H171 0.950 . S
C150 H146 0.949 . S
C150 C158 1.574 . S
C150 C166 1.368 . S
H151 C159 0.950 . S
H152 C157 0.950 . S
H153 C158 0.949 . S
H154 C160 0.950 . S
H155 C161 0.950 . S
H156 C162 0.949 . S
C157 H152 0.950 . S
C157 C159 1.327 . S
C157 C163 1.429 . S
C158 C150 1.574 . S
C158 H153 0.949 . S
C158 C164 1.368 . S
C159 C143 1.349 . S
C159 H151 0.950 . S
C159 C157 1.327 . S
C160 C148 1.349 . S
C160 H154 0.950 . S
C160 C161 1.327 . S
C161 H155 0.950 . S
C161 C160 1.327 . S
C161 C165 1.429 . S
C162 C145 1.574 . S
C162 H156 0.949 . S
C162 C166 1.368 . S
C163 C144 1.429 . S
C163 C157 1.429 . S
C163 C164 1.523 . S
C164 C145 1.368 . S
C164 C158 1.368 . S
C164 C163 1.523 . S
C165 C149 1.429 . S
C165 C161 1.429 . S
C165 C166 1.523 . S
C166 C150 1.368 . S
C166 C162 1.368 . S
C166 C165 1.523 . S
H167 C142 0.950 . S
H168 C144 0.950 . S
H169 C145 0.949 . S
H170 C147 0.950 . S
H171 C149 0.950 . S
C172 C173 1.349 . S
C172 C174 1.327 . S
C172 H197 0.950 . S
C173 C172 1.349 . S
C173 C189 1.349 . S
C174 C172 1.327 . S
C174 C193 1.429 . S
C174 H198 0.950 . S
C175 C192 1.574 1_545 S
C175 C194 1.368 1_556 S
C175 H199 0.949 . S
H176 C180 0.949 . S
C177 C178 1.349 . S
C177 C179 1.327 . S
C177 H200 0.950 . S
C178 C177 1.349 . S
C178 C190 1.349 . S
C179 C177 1.327 . S
C179 C195 1.429 . S
C179 H201 0.950 . S
C180 H176 0.949 . S
C180 C188 1.574 1_565 S
C180 C196 1.368 1_554 S
H181 C189 0.950 . S
H182 C187 0.950 . S
H183 C188 0.949 . S
H184 C190 0.950 . S
H185 C191 0.950 . S
H186 C192 0.949 . S
C187 H182 0.950 . S
C187 C189 1.327 . S
C187 C193 1.429 . S
C188 C180 1.574 1_545 S
C188 H183 0.949 . S
C188 C194 1.368 . S
C189 C173 1.349 . S
C189 H181 0.950 . S
C189 C187 1.327 . S
C190 C178 1.349 . S
C190 H184 0.950 . S
C190 C191 1.327 . S
C191 H185 0.950 . S
C191 C190 1.327 . S
C191 C195 1.429 . S
C192 C175 1.574 1_565 S
C192 H186 0.949 . S
C192 C196 1.368 . S
C193 C174 1.429 . S
C193 C187 1.429 . S
C193 C194 1.523 . S
C194 C175 1.368 1_554 S
C194 C188 1.368 . S
C194 C193 1.523 . S
C195 C179 1.429 . S
C195 C191 1.429 . S
C195 C196 1.523 . S
C196 C180 1.368 1_556 S
C196 C192 1.368 . S
C196 C195 1.523 . S
H197 C172 0.950 . S
H198 C174 0.950 . S
H199 C175 0.949 . S
H200 C177 0.950 . S
H201 C179 0.950 . S
C202 C203 1.349 1_455 S
C202 C204 1.327 . S
C202 H227 0.950 . S
C203 C202 1.349 1_655 S
C203 C219 1.349 . S
C204 C202 1.327 . S
C204 C223 1.429 1_455 S
C204 H228 0.950 . S
C205 C222 1.574 1_565 S
C205 C224 1.368 1_556 S
C205 H229 0.949 . S
H206 C210 0.949 . S
C207 C208 1.349 1_655 S
C207 C209 1.327 . S
C207 H230 0.950 . S
C208 C207 1.349 1_455 S
C208 C220 1.349 . S
C209 C207 1.327 . S
C209 C225 1.429 1_655 S
C209 H231 0.950 . S
C210 H206 0.949 . S
C210 C218 1.574 1_545 S
C210 C226 1.368 1_554 S
H211 C219 0.950 . S
H212 C217 0.977 . S
H213 C218 0.949 . S
H214 C220 0.950 . S
H215 C221 0.977 . S
H216 C222 0.949 . S
C217 H212 0.977 . S
C217 C219 1.327 . S
C217 C223 1.429 . S
C218 C210 1.574 1_565 S
C218 H213 0.949 . S
C218 C224 1.368 1_455 S
C219 C203 1.349 . S
C219 H211 0.950 . S
C219 C217 1.327 . S
C220 C208 1.349 . S
C220 H214 0.950 . S
C220 C221 1.327 . S
C221 H215 0.977 . S
C221 C220 1.327 . S
C221 C225 1.429 . S
C222 C205 1.574 1_545 S
C222 H216 0.949 . S
C222 C226 1.368 1_655 S
C223 C204 1.429 1_655 S
C223 C217 1.429 . S
C223 C224 1.523 . S
C224 C205 1.368 1_554 S
C224 C218 1.368 1_655 S
C224 C223 1.523 . S
C225 C209 1.429 1_455 S
C225 C221 1.429 . S
C225 C226 1.523 . S
C226 C210 1.368 1_556 S
C226 C222 1.368 1_455 S
C226 C225 1.523 . S
H227 C202 0.950 . S
H228 C204 0.950 . S
H229 C205 0.949 . S
H230 C207 0.950 . S
H231 C209 0.950 . S
C232 C233 1.349 . S
C232 C234 1.327 . S
C232 H257 0.950 . S
C233 C232 1.349 . S
C233 C249 1.349 . S
C234 C232 1.327 . S
C234 C253 1.429 . S
C234 H258 0.950 . S
C235 C252 1.574 . S
C235 C254 1.368 . S
C235 H259 0.949 . S
H236 C240 0.949 . S
C237 C238 1.349 . S
C237 C239 1.327 . S
C237 H260 0.950 . S
C238 C237 1.349 . S
C238 C250 1.349 . S
C239 C237 1.327 . S
C239 C255 1.429 . S
C239 H261 0.950 . S
C240 H236 0.949 . S
C240 C248 1.574 . S
C240 C256 1.368 . S
H241 C249 0.950 . S
H242 C247 0.950 . S
H243 C248 0.949 . S
H244 C250 0.950 . S
H245 C251 0.950 . S
H246 C252 0.949 . S
C247 H242 0.950 . S
C247 C249 1.327 . S
C247 C253 1.429 . S
C248 C240 1.574 . S
C248 H243 0.949 . S
C248 C254 1.368 . S
C249 C233 1.349 . S
C249 H241 0.950 . S
C249 C247 1.327 . S
C250 C238 1.349 . S
C250 H244 0.950 . S
C250 C251 1.327 . S
C251 H245 0.950 . S
C251 C250 1.327 . S
C251 C255 1.429 . S
C252 C235 1.574 . S
C252 H246 0.949 . S
C252 C256 1.368 . S
C253 C234 1.429 . S
C253 C247 1.429 . S
C253 C254 1.523 . S
C254 C235 1.368 . S
C254 C248 1.368 . S
C254 C253 1.523 . S
C255 C239 1.429 . S
C255 C251 1.429 . S
C255 C256 1.523 . S
C256 C240 1.368 . S
C256 C252 1.368 . S
C256 C255 1.523 . S
H257 C232 0.950 . S
H258 C234 0.950 . S
H259 C235 0.949 . S
H260 C237 0.950 . S
H261 C239 0.950 . S
C262 C263 1.349 . S
C262 C264 1.327 . S
C262 H287 0.950 . S
C263 C262 1.349 . S
C263 C279 1.349 . S
C264 C262 1.327 . S
C264 C283 1.429 . S
C264 H288 0.950 . S
C265 C282 1.574 . S
C265 C284 1.368 . S
C265 H289 0.949 . S
H266 C270 0.949 . S
C267 C268 1.349 . S
C267 C269 1.327 . S
C267 H290 0.950 . S
C268 C267 1.349 . S
C268 C280 1.349 . S
C269 C267 1.327 . S
C269 C285 1.429 . S
C269 H291 0.950 . S
C270 H266 0.949 . S
C270 C278 1.574 . S
C270 C286 1.368 . S
H271 C279 0.950 . S
H272 C277 0.950 . S
H273 C278 0.949 . S
H274 C280 0.950 . S
H275 C281 0.950 . S
H276 C282 0.949 . S
C277 H272 0.950 . S
C277 C279 1.327 . S
C277 C283 1.429 . S
C278 C270 1.574 . S
C278 H273 0.949 . S
C278 C284 1.368 . S
C279 C263 1.349 . S
C279 H271 0.950 . S
C279 C277 1.327 . S
C280 C268 1.349 . S
C280 H274 0.950 . S
C280 C281 1.327 . S
C281 H275 0.950 . S
C281 C280 1.327 . S
C281 C285 1.429 . S
C282 C265 1.574 . S
C282 H276 0.949 . S
C282 C286 1.368 . S
C283 C264 1.429 . S
C283 C277 1.429 . S
C283 C284 1.523 . S
C284 C265 1.368 . S
C284 C278 1.368 . S
C284 C283 1.523 . S
C285 C269 1.429 . S
C285 C281 1.429 . S
C285 C286 1.523 . S
C286 C270 1.368 . S
C286 C282 1.368 . S
C286 C285 1.523 . S
H287 C262 0.950 . S
H288 C264 0.950 . S
H289 C265 0.949 . S
H290 C267 0.950 . S
H291 C269 0.950 . S
C292 C293 1.349 . S
C292 C294 1.327 . S
C292 H317 0.950 . S
C293 C292 1.349 . S
C293 C309 1.349 . S
C294 C292 1.327 . S
C294 C313 1.429 . S
C294 H318 0.950 . S
C295 C312 1.574 . S
C295 C314 1.368 . S
C295 H319 0.949 . S
H296 C300 0.949 . S
C297 C298 1.349 . S
C297 C299 1.327 . S
C297 H320 0.950 . S
C298 C297 1.349 . S
C298 C310 1.349 . S
C299 C297 1.327 . S
C299 C315 1.429 . S
C299 H321 0.950 . S
C300 H296 0.949 . S
C300 C308 1.574 . S
C300 C316 1.368 . S
H301 C309 0.950 . S
H302 C307 0.950 . S
H303 C308 0.949 . S
H304 C310 0.950 . S
H305 C311 0.950 . S
H306 C312 0.949 . S
C307 H302 0.950 . S
C307 C309 1.327 . S
C307 C313 1.429 . S
C308 C300 1.574 . S
C308 H303 0.949 . S
C308 C314 1.368 . S
C309 C293 1.349 . S
C309 H301 0.950 . S
C309 C307 1.327 . S
C310 C298 1.349 . S
C310 H304 0.950 . S
C310 C311 1.327 . S
C311 H305 0.950 . S
C311 C310 1.327 . S
C311 C315 1.429 . S
C312 C295 1.574 . S
C312 H306 0.949 . S
C312 C316 1.368 . S
C313 C294 1.429 . S
C313 C307 1.429 . S
C313 C314 1.523 . S
C314 C295 1.368 . S
C314 C308 1.368 . S
C314 C313 1.523 . S
C315 C299 1.429 . S
C315 C311 1.429 . S
C315 C316 1.523 . S
C316 C300 1.368 . S
C316 C312 1.368 . S
C316 C315 1.523 . S
H317 C292 0.950 . S
H318 C294 0.950 . S
H319 C295 0.949 . S
H320 C297 0.950 . S
H321 C299 0.950 . S
C322 C323 1.349 . S
C322 C324 1.327 . S
C322 H347 0.950 . S
C323 C322 1.349 . S
C323 C339 1.349 . S
C324 C322 1.327 . S
C324 C343 1.429 . S
C324 H348 0.950 . S
C325 C342 1.574 . S
C325 C344 1.368 . S
C325 H349 0.949 . S
H326 C330 0.949 . S
C327 C328 1.349 . S
C327 C329 1.327 . S
C327 H350 0.950 . S
C328 C327 1.349 . S
C328 C340 1.349 . S
C329 C327 1.327 . S
C329 C345 1.429 . S
C329 H351 0.950 . S
C330 H326 0.949 . S
C330 C338 1.574 . S
C330 C346 1.368 . S
H331 C339 0.950 . S
H332 C337 0.950 . S
H333 C338 0.949 . S
H334 C340 0.950 . S
H335 C341 0.950 . S
H336 C342 0.949 . S
C337 H332 0.950 . S
C337 C339 1.327 . S
C337 C343 1.429 . S
C338 C330 1.574 . S
C338 H333 0.949 . S
C338 C344 1.368 . S
C339 C323 1.349 . S
C339 H331 0.950 . S
C339 C337 1.327 . S
C340 C328 1.349 . S
C340 H334 0.950 . S
C340 C341 1.327 . S
C341 H335 0.950 . S
C341 C340 1.327 . S
C341 C345 1.429 . S
C342 C325 1.574 . S
C342 H336 0.949 . S
C342 C346 1.368 . S
C343 C324 1.429 . S
C343 C337 1.429 . S
C343 C344 1.523 . S
C344 C325 1.368 . S
C344 C338 1.368 . S
C344 C343 1.523 . S
C345 C329 1.429 . S
C345 C341 1.429 . S
C345 C346 1.523 . S
C346 C330 1.368 . S
C346 C342 1.368 . S
C346 C345 1.523 . S
H347 C322 0.950 . S
H348 C324 0.950 . S
H349 C325 0.949 . S
H350 C327 0.950 . S
H351 C329 0.950 . S
C352 C353 1.349 . S
C352 C354 1.327 . S
C352 H377 0.950 . S
C353 C352 1.349 . S
C353 C369 1.349 . S
C354 C352 1.327 . S
C354 C373 1.429 . S
C354 H378 0.950 . S
C355 C372 1.574 . S
C355 C374 1.368 . S
C355 H379 0.949 . S
H356 C360 0.949 . S
C357 C358 1.349 . S
C357 C359 1.327 . S
C357 H380 0.950 . S
C358 C357 1.349 . S
C358 C370 1.349 . S
C359 C357 1.327 . S
C359 C375 1.429 . S
C359 H381 0.950 . S
C360 H356 0.949 . S
C360 C368 1.574 . S
C360 C376 1.368 . S
H361 C369 0.950 . S
H362 C367 0.950 . S
H363 C368 0.949 . S
H364 C370 0.950 . S
H365 C371 0.950 . S
H366 C372 0.949 . S
C367 H362 0.950 . S
C367 C369 1.327 . S
C367 C373 1.429 . S
C368 C360 1.574 . S
C368 H363 0.949 . S
C368 C374 1.368 . S
C369 C353 1.349 . S
C369 H361 0.950 . S
C369 C367 1.327 . S
C370 C358 1.349 . S
C370 H364 0.950 . S
C370 C371 1.327 . S
C371 H365 0.950 . S
C371 C370 1.327 . S
C371 C375 1.429 . S
C372 C355 1.574 . S
C372 H366 0.949 . S
C372 C376 1.368 . S
C373 C354 1.429 . S
C373 C367 1.429 . S
C373 C374 1.523 . S
C374 C355 1.368 . S
C374 C368 1.368 . S
C374 C373 1.523 . S
C375 C359 1.429 . S
C375 C371 1.429 . S
C375 C376 1.523 . S
C376 C360 1.368 . S
C376 C372 1.368 . S
C376 C375 1.523 . S
H377 C352 0.950 . S
H378 C354 0.950 . S
H379 C355 0.949 . S
H380 C357 0.950 . S
H381 C359 0.950 . S
C382 C383 1.349 . S
C382 C384 1.327 . S
C382 H407 0.950 . S
C383 C382 1.349 . S
C383 C399 1.349 . S
C384 C382 1.327 . S
C384 C403 1.429 . S
C384 H408 0.950 . S
C385 C402 1.574 . S
C385 C404 1.368 . S
C385 H409 0.949 . S
H386 C390 0.949 . S
C387 C388 1.349 . S
C387 C389 1.327 . S
C387 H410 0.950 . S
C388 C387 1.349 . S
C388 C400 1.349 . S
C389 C387 1.327 . S
C389 C405 1.429 . S
C389 H411 0.950 . S
C390 H386 0.949 . S
C390 C398 1.574 . S
C390 C406 1.368 . S
H391 C399 0.950 . S
H392 C397 0.950 . S
H393 C398 0.949 . S
H394 C400 0.950 . S
H395 C401 0.950 . S
H396 C402 0.949 . S
C397 H392 0.950 . S
C397 C399 1.327 . S
C397 C403 1.429 . S
C398 C390 1.574 . S
C398 H393 0.949 . S
C398 C404 1.368 . S
C399 C383 1.349 . S
C399 H391 0.950 . S
C399 C397 1.327 . S
C400 C388 1.349 . S
C400 H394 0.950 . S
C400 C401 1.327 . S
C401 H395 0.950 . S
C401 C400 1.327 . S
C401 C405 1.429 . S
C402 C385 1.574 . S
C402 H396 0.949 . S
C402 C406 1.368 . S
C403 C384 1.429 . S
C403 C397 1.429 . S
C403 C404 1.523 . S
C404 C385 1.368 . S
C404 C398 1.368 . S
C404 C403 1.523 . S
C405 C389 1.429 . S
C405 C401 1.429 . S
C405 C406 1.523 . S
C406 C390 1.368 . S
C406 C402 1.368 . S
C406 C405 1.523 . S
H407 C382 0.950 . S
H408 C384 0.950 . S
H409 C385 0.949 . S
H410 C387 0.950 . S
H411 C389 0.950 . S
C412 C413 1.349 . S
C412 C414 1.327 . S
C412 H437 0.950 . S
C413 C412 1.349 . S
C413 C429 1.349 . S
C414 C412 1.327 . S
C414 C433 1.429 . S
C414 H438 0.950 . S
C415 C432 1.574 . S
C415 C434 1.368 . S
C415 H439 0.949 . S
H416 C420 0.949 . S
C417 C418 1.349 . S
C417 C419 1.327 . S
C417 H440 0.950 . S
C418 C417 1.349 . S
C418 C430 1.349 . S
C419 C417 1.327 . S
C419 C435 1.429 . S
C419 H441 0.950 . S
C420 H416 0.949 . S
C420 C428 1.574 . S
C420 C436 1.368 . S
H421 C429 0.950 . S
H422 C427 0.950 . S
H423 C428 0.949 . S
H424 C430 0.950 . S
H425 C431 0.950 . S
H426 C432 0.949 . S
C427 H422 0.950 . S
C427 C429 1.327 . S
C427 C433 1.429 . S
C428 C420 1.574 . S
C428 H423 0.949 . S
C428 C434 1.368 . S
C429 C413 1.349 . S
C429 H421 0.950 . S
C429 C427 1.327 . S
C430 C418 1.349 . S
C430 H424 0.950 . S
C430 C431 1.327 . S
C431 H425 0.950 . S
C431 C430 1.327 . S
C431 C435 1.429 . S
C432 C415 1.574 . S
C432 H426 0.949 . S
C432 C436 1.368 . S
C433 C414 1.429 . S
C433 C427 1.429 . S
C433 C434 1.523 . S
C434 C415 1.368 . S
C434 C428 1.368 . S
C434 C433 1.523 . S
C435 C419 1.429 . S
C435 C431 1.429 . S
C435 C436 1.523 . S
C436 C420 1.368 . S
C436 C432 1.368 . S
C436 C435 1.523 . S
H437 C412 0.950 . S
H438 C414 0.950 . S
H439 C415 0.949 . S
H440 C417 0.950 . S
H441 C419 0.950 . S
C442 C443 1.349 . S
C442 C444 1.327 . S
C442 H467 0.950 . S
C443 C442 1.349 . S
C443 C459 1.349 . S
C444 C442 1.327 . S
C444 C463 1.429 . S
C444 H468 0.950 . S
C445 C462 1.574 . S
C445 C464 1.368 . S
C445 H469 0.949 . S
H446 C450 0.949 . S
C447 C448 1.349 . S
C447 C449 1.327 . S
C447 H470 0.950 . S
C448 C447 1.349 . S
C448 C460 1.349 . S
C449 C447 1.327 . S
C449 C465 1.429 . S
C449 H471 0.950 . S
C450 H446 0.949 . S
C450 C458 1.574 . S
C450 C466 1.368 . S
H451 C459 0.950 . S
H452 C457 0.950 . S
H453 C458 0.949 . S
H454 C460 0.950 . S
H455 C461 0.950 . S
H456 C462 0.949 . S
C457 H452 0.950 . S
C457 C459 1.327 . S
C457 C463 1.429 . S
C458 C450 1.574 . S
C458 H453 0.949 . S
C458 C464 1.368 . S
C459 C443 1.349 . S
C459 H451 0.950 . S
C459 C457 1.327 . S
C460 C448 1.349 . S
C460 H454 0.950 . S
C460 C461 1.327 . S
C461 H455 0.950 . S
C461 C460 1.327 . S
C461 C465 1.429 . S
C462 C445 1.574 . S
C462 H456 0.949 . S
C462 C466 1.368 . S
C463 C444 1.429 . S
C463 C457 1.429 . S
C463 C464 1.523 . S
C464 C445 1.368 . S
C464 C458 1.368 . S
C464 C463 1.523 . S
C465 C449 1.429 . S
C465 C461 1.429 . S
C465 C466 1.523 . S
C466 C450 1.368 . S
C466 C462 1.368 . S
C466 C465 1.523 . S
H467 C442 0.950 . S
H468 C444 0.950 . S
H469 C445 0.949 . S
H470 C447 0.950 . S
H471 C449 0.950 . S
C472 C473 1.349 . S
C472 C474 1.327 . S
C472 H497 0.950 . S
C473 C472 1.349 . S
C473 C489 1.349 . S
C474 C472 1.327 . S
C474 C493 1.429 . S
C474 H498 0.950 . S
C475 C492 1.574 . S
C475 C494 1.368 . S
C475 H499 0.949 . S
H476 C480 0.949 . S
C477 C478 1.349 . S
C477 C479 1.327 . S
C477 H500 0.950 . S
C478 C477 1.349 . S
C478 C490 1.349 . S
C479 C477 1.327 . S
C479 C495 1.429 . S
C479 H501 0.950 . S
C480 H476 0.949 . S
C480 C488 1.574 . S
C480 C496 1.368 . S
H481 C489 0.950 . S
H482 C487 0.950 . S
H483 C488 0.949 . S
H484 C490 0.950 . S
H485 C491 0.950 . S
H486 C492 0.949 . S
C487 H482 0.950 . S
C487 C489 1.327 . S
C487 C493 1.429 . S
C488 C480 1.574 . S
C488 H483 0.949 . S
C488 C494 1.368 . S
C489 C473 1.349 . S
C489 H481 0.950 . S
C489 C487 1.327 . S
C490 C478 1.349 . S
C490 H484 0.950 . S
C490 C491 1.327 . S
C491 H485 0.950 . S
C491 C490 1.327 . S
C491 C495 1.429 . S
C492 C475 1.574 . S
C492 H486 0.949 . S
C492 C496 1.368 . S
C493 C474 1.429 . S
C493 C487 1.429 . S
C493 C494 1.523 . S
C494 C475 1.368 . S
C494 C488 1.368 . S
C494 C493 1.523 . S
C495 C479 1.429 . S
C495 C491 1.429 . S
C495 C496 1.523 . S
C496 C480 1.368 . S
C496 C492 1.368 . S
C496 C495 1.523 . S
H497 C472 0.950 . S
H498 C474 0.950 . S
H499 C475 0.949 . S
H500 C477 0.950 . S
H501 C479 0.950 . S
C502 C503 1.349 . S
C502 C504 1.327 . S
C502 H527 0.950 . S
C503 C502 1.349 . S
C503 C519 1.349 . S
C504 C502 1.327 . S
C504 C523 1.429 . S
C504 H528 0.950 . S
C505 C522 1.574 . S
C505 C524 1.368 . S
C505 H529 0.949 . S
H506 C510 0.949 . S
C507 C508 1.349 . S
C507 C509 1.327 . S
C507 H530 0.950 . S
C508 C507 1.349 . S
C508 C520 1.349 . S
C509 C507 1.327 . S
C509 C525 1.429 . S
C509 H531 0.950 . S
C510 H506 0.949 . S
C510 C518 1.574 . S
C510 C526 1.368 . S
H511 C519 0.950 . S
H512 C517 0.950 . S
H513 C518 0.949 . S
H514 C520 0.950 . S
H515 C521 0.950 . S
H516 C522 0.949 . S
C517 H512 0.950 . S
C517 C519 1.327 . S
C517 C523 1.429 . S
C518 C510 1.574 . S
C518 H513 0.949 . S
C518 C524 1.368 . S
C519 C503 1.349 . S
C519 H511 0.950 . S
C519 C517 1.327 . S
C520 C508 1.349 . S
C520 H514 0.950 . S
C520 C521 1.327 . S
C521 H515 0.950 . S
C521 C520 1.327 . S
C521 C525 1.429 . S
C522 C505 1.574 . S
C522 H516 0.949 . S
C522 C526 1.368 . S
C523 C504 1.429 . S
C523 C517 1.429 . S
C523 C524 1.523 . S
C524 C505 1.368 . S
C524 C518 1.368 . S
C524 C523 1.523 . S
C525 C509 1.429 . S
C525 C521 1.429 . S
C525 C526 1.523 . S
C526 C510 1.368 . S
C526 C522 1.368 . S
C526 C525 1.523 . S
H527 C502 0.950 . S
H528 C504 0.950 . S
H529 C505 0.949 . S
H530 C507 0.950 . S
H531 C509 0.950 . S
C532 C533 1.349 . S
C532 C534 1.327 . S
C532 H557 0.950 . S
C533 C532 1.349 . S
C533 C549 1.349 . S
C534 C532 1.327 . S
C534 C553 1.429 . S
C534 H558 0.950 . S
C535 C552 1.574 . S
C535 C554 1.368 . S
C535 H559 0.949 . S
H536 C540 0.949 . S
C537 C538 1.349 . S
C537 C539 1.327 . S
C537 H560 0.950 . S
C538 C537 1.349 . S
C538 C550 1.349 . S
C539 C537 1.327 . S
C539 C555 1.429 . S
C539 H561 0.950 . S
C540 H536 0.949 . S
C540 C548 1.574 . S
C540 C556 1.368 . S
H541 C549 0.950 . S
H542 C547 0.950 . S
H543 C548 0.949 . S
H544 C550 0.950 . S
H545 C551 0.950 . S
H546 C552 0.949 . S
C547 H542 0.950 . S
C547 C549 1.327 . S
C547 C553 1.429 . S
C548 C540 1.574 . S
C548 H543 0.949 . S
C548 C554 1.368 1_556 S
C549 C533 1.349 . S
C549 H541 0.950 . S
C549 C547 1.327 . S
C550 C538 1.349 . S
C550 H544 0.950 . S
C550 C551 1.327 . S
C551 H545 0.950 . S
C551 C550 1.327 . S
C551 C555 1.429 . S
C552 C535 1.574 . S
C552 H546 0.949 . S
C552 C556 1.368 1_554 S
C553 C534 1.429 . S
C553 C547 1.429 . S
C553 C554 1.523 . S
C554 C535 1.368 . S
C554 C548 1.368 1_554 S
C554 C553 1.523 . S
C555 C539 1.429 . S
C555 C551 1.429 . S
C555 C556 1.523 . S
C556 C540 1.368 . S
C556 C552 1.368 1_556 S
C556 C555 1.523 . S
H557 C532 0.950 . S
H558 C534 0.950 . S
H559 C535 0.949 . S
H560 C537 0.950 . S
H561 C539 0.950 . S
C562 C563 1.349 . S
C562 C564 1.327 . S
C562 H587 0.950 . S
C563 C562 1.349 . S
C563 C579 1.349 . S
C564 C562 1.327 . S
C564 C583 1.429 . S
C564 H588 0.950 . S
C565 C582 1.574 . S
C565 C584 1.368 1_556 S
C565 H589 0.949 . S
H566 C570 0.949 . S
C567 C568 1.349 . S
C567 C569 1.327 . S
C567 H590 0.950 . S
C568 C567 1.349 . S
C568 C580 1.349 . S
C569 C567 1.327 . S
C569 C585 1.429 . S
C569 H591 0.950 . S
C570 H566 0.949 . S
C570 C578 1.574 . S
C570 C586 1.368 1_554 S
H571 C579 0.950 . S
H572 C577 0.950 . S
H573 C578 0.949 . S
H574 C580 0.950 . S
H575 C581 0.950 . S
H576 C582 0.949 . S
C577 H572 0.950 . S
C577 C579 1.327 . S
C577 C583 1.429 . S
C578 C570 1.574 . S
C578 H573 0.949 . S
C578 C584 1.368 . S
C579 C563 1.349 . S
C579 H571 0.950 . S
C579 C577 1.327 . S
C580 C568 1.349 . S
C580 H574 0.950 . S
C580 C581 1.327 . S
C581 H575 0.950 . S
C581 C580 1.327 . S
C581 C585 1.429 . S
C582 C565 1.574 . S
C582 H576 0.949 . S
C582 C586 1.368 . S
C583 C564 1.429 . S
C583 C577 1.429 . S
C583 C584 1.523 . S
C584 C565 1.368 1_554 S
C584 C578 1.368 . S
C584 C583 1.523 . S
C585 C569 1.429 . S
C585 C581 1.429 . S
C585 C586 1.523 . S
C586 C570 1.368 1_556 S
C586 C582 1.368 . S
C586 C585 1.523 . S
H587 C562 0.950 . S
H588 C564 0.950 . S
H589 C565 0.949 . S
H590 C567 0.950 . S
H591 C569 0.950 . S
C113 C7 1.498 . S
C118 C35 1.498 . S
C143 C49 1.498 . S
C148 C21 1.498 . S
C173 C91 1.498 . S
C178 C63 1.498 . S
C203 C77 1.498 . S
C208 C105 1.498 . S
C233 C90 1.690 . S
C238 C6 1.690 . S
C263 C20 1.689 . S
C268 C104 1.689 . S
C293 C34 1.690 . S
C298 C62 1.690 . S
C323 C48 1.689 . S
C328 C76 1.689 . S
C353 C92 1.620 . S
C358 C8 1.620 . S
C383 C22 1.620 . S
C388 C106 1.620 . S
C413 C64 1.620 . S
C418 C36 1.620 . S
C443 C78 1.620 . S
C448 C50 1.620 . S
C473 C23 0.475 . S
C478 C9 0.475 . S
C503 C37 0.475 . S
C508 C51 0.475 . S
C533 C79 0.475 . S
C538 C65 0.475 . S
C563 C93 0.475 . S
C568 C107 0.475 . S
