# Generated by pormake.
# Topology dia-f, (3)-cn, num edge types: 1
# Building blocks:
#     Node 0, Type 0, BuildingBlock: OLANEW_clean_sbu_2, # of connection points: 3
#     Node 1, Type 0, BuildingBlock: OLANEW_clean_sbu_2, # of connection points: 3
#     Node 2, Type 0, BuildingBlock: OLANEW_clean_sbu_2, # of connection points: 3
#     Node 3, Type 0, BuildingBlock: OLANEW_clean_sbu_2, # of connection points: 3
#     Node 4, Type 0, BuildingBlock: OLANEW_clean_sbu_2, # of connection points: 3
#     Node 5, Type 0, BuildingBlock: OLANEW_clean_sbu_2, # of connection points: 3
#     Node 6, Type 0, BuildingBlock: OLANEW_clean_sbu_2, # of connection points: 3
#     Node 7, Type 0, BuildingBlock: OLANEW_clean_sbu_2, # of connection points: 3
#     Node 8, Type 0, BuildingBlock: OLANEW_clean_sbu_2, # of connection points: 3
#     Node 9, Type 0, BuildingBlock: OLANEW_clean_sbu_2, # of connection points: 3
#     Node 10, Type 0, BuildingBlock: OLANEW_clean_sbu_2, # of connection points: 3
#     Node 11, Type 0, BuildingBlock: OLANEW_clean_sbu_2, # of connection points: 3
#     Node 12, Type 0, BuildingBlock: OLANEW_clean_sbu_2, # of connection points: 3
#     Node 13, Type 0, BuildingBlock: OLANEW_clean_sbu_2, # of connection points: 3
#     Node 14, Type 0, BuildingBlock: OLANEW_clean_sbu_2, # of connection points: 3
#     Node 15, Type 0, BuildingBlock: OLANEW_clean_sbu_2, # of connection points: 3
#     Edge 16, Type (0, 0), BuildingBlock: CIFDUS_clean_linker_0, # of connection points: 2
#     Edge 17, Type (0, 0), BuildingBlock: CIFDUS_clean_linker_0, # of connection points: 2
#     Edge 18, Type (0, 0), BuildingBlock: CIFDUS_clean_linker_0, # of connection points: 2
#     Edge 19, Type (0, 0), BuildingBlock: CIFDUS_clean_linker_0, # of connection points: 2
#     Edge 20, Type (0, 0), BuildingBlock: CIFDUS_clean_linker_0, # of connection points: 2
#     Edge 21, Type (0, 0), BuildingBlock: CIFDUS_clean_linker_0, # of connection points: 2
#     Edge 22, Type (0, 0), BuildingBlock: CIFDUS_clean_linker_0, # of connection points: 2
#     Edge 23, Type (0, 0), BuildingBlock: CIFDUS_clean_linker_0, # of connection points: 2
#     Edge 24, Type (0, 0), BuildingBlock: CIFDUS_clean_linker_0, # of connection points: 2
#     Edge 25, Type (0, 0), BuildingBlock: CIFDUS_clean_linker_0, # of connection points: 2
#     Edge 26, Type (0, 0), BuildingBlock: CIFDUS_clean_linker_0, # of connection points: 2
#     Edge 27, Type (0, 0), BuildingBlock: CIFDUS_clean_linker_0, # of connection points: 2
#     Edge 28, Type (0, 0), BuildingBlock: CIFDUS_clean_linker_0, # of connection points: 2
#     Edge 29, Type (0, 0), BuildingBlock: CIFDUS_clean_linker_0, # of connection points: 2
#     Edge 30, Type (0, 0), BuildingBlock: CIFDUS_clean_linker_0, # of connection points: 2
#     Edge 31, Type (0, 0), BuildingBlock: CIFDUS_clean_linker_0, # of connection points: 2
#     Edge 32, Type (0, 0), BuildingBlock: CIFDUS_clean_linker_0, # of connection points: 2
#     Edge 33, Type (0, 0), BuildingBlock: CIFDUS_clean_linker_0, # of connection points: 2
#     Edge 34, Type (0, 0), BuildingBlock: CIFDUS_clean_linker_0, # of connection points: 2
#     Edge 35, Type (0, 0), BuildingBlock: CIFDUS_clean_linker_0, # of connection points: 2
#     Edge 36, Type (0, 0), BuildingBlock: CIFDUS_clean_linker_0, # of connection points: 2
#     Edge 37, Type (0, 0), BuildingBlock: CIFDUS_clean_linker_0, # of connection points: 2
#     Edge 38, Type (0, 0), BuildingBlock: CIFDUS_clean_linker_0, # of connection points: 2
#     Edge 39, Type (0, 0), BuildingBlock: CIFDUS_clean_linker_0, # of connection points: 2
# Relax obj value: 0.008
# Max RMSD: 0.057
# Mean RMSD: 0.040
data_MOF--net-dia-f--node1-OLANEW_clean_sbu_2--edge1-CIFDUS_clean_linker_0
_symmetry_space_group_name_H-M    P1
_symmetry_Int_Tables_number       1
_symmetry_cell_setting            triclinic
loop_
_symmetry_equiv_pos_as_xyz
'x, y, z'
_cell_length_a     65.792444
_cell_length_b     65.4739
_cell_length_c     17.852015
_cell_angle_alpha  90.033156
_cell_angle_beta   90.009403
_cell_angle_gamma 97.647695
loop_
_atom_site_label
_atom_site_type_symbol
_atom_site_fract_x
_atom_site_fract_y
_atom_site_fract_z
_atom_type_partial_charge
O0 O 0.07552 0.60074 0.12114 0.0
Cd1 Cd 0.05314 0.5729 0.18248 0.0
O2 O 0.09784 0.60251 0.2133 0.0
Cd3 Cd 0.07467 0.58728 0.28906 0.0
O4 O 0.05007 0.59818 0.35349 0.0
C5 C 0.0523 0.60233 0.42278 0.0
O6 O 0.06882 0.59793 0.4573 0.0
C7 C 0.09295 0.60786 0.14795 0.0
C8 C 0.05056 0.53725 0.0959 0.0
O9 O 0.0363 0.5488 0.09385 0.0
O10 O 0.06585 0.5424 0.13951 0.0
O11 O 0.68898 0.70117 0.65134 0.0
Cd12 Cd 0.71141 0.71293 0.75614 0.0
O13 O 0.68708 0.73298 0.61658 0.0
Cd14 Cd 0.67653 0.75703 0.54682 0.0
O15 O 0.66127 0.77914 0.48328 0.0
C16 C 0.65677 0.7953 0.51519 0.0
O17 O 0.66187 0.79862 0.58575 0.0
C18 C 0.6815 0.71373 0.6084 0.0
C19 C 0.75236 0.7263 0.72207 0.0
O20 O 0.74608 0.7072 0.73401 0.0
O21 O 0.73912 0.739 0.7239 0.0
O22 O 0.55695 0.39359 0.46478 0.0
Cd23 Cd 0.52824 0.41299 0.44171 0.0
O24 O 0.53716 0.37457 0.54325 0.0
Cd25 Cd 0.52713 0.35085 0.62712 0.0
O26 O 0.51035 0.33157 0.71304 0.0
C27 C 0.50985 0.33871 0.77914 0.0
O28 O 0.51999 0.35696 0.79359 0.0
C29 C 0.55432 0.37841 0.50969 0.0
C30 C 0.53998 0.45319 0.39177 0.0
O31 O 0.53654 0.44938 0.46139 0.0
O32 O 0.53811 0.43797 0.346 0.0
O33 O 0.91585 0.30109 0.47919 0.0
Cd34 Cd 0.89594 0.26735 0.50164 0.0
O35 O 0.92941 0.29082 0.37558 0.0
Cd36 Cd 0.92122 0.25847 0.40459 0.0
O37 O 0.93865 0.23672 0.46043 0.0
C38 C 0.95344 0.24532 0.50003 0.0
O39 O 0.95603 0.26552 0.50584 0.0
C40 C 0.92688 0.30519 0.42119 0.0
C41 C 0.85492 0.26989 0.53524 0.0
O42 O 0.86838 0.27014 0.58729 0.0
O43 O 0.8609 0.26856 0.46729 0.0
O44 O 0.04789 0.38065 0.76951 0.0
Cd45 Cd 0.02684 0.40658 0.7281 0.0
O46 O 0.06964 0.38642 0.67583 0.0
Cd47 Cd 0.04917 0.40499 0.61856 0.0
O48 O 0.01769 0.40129 0.57716 0.0
C49 C 0.01378 0.39454 0.5113 0.0
O50 O 0.02917 0.39257 0.46609 0.0
C51 C 0.06426 0.37713 0.73677 0.0
C52 C 0.02808 0.43936 0.82807 0.0
O53 O 0.0129 0.42489 0.82804 0.0
O54 O 0.04262 0.4383 0.78108 0.0
O55 O 0.93689 0.77473 0.66523 0.0
Cd56 Cd 0.91519 0.7597 0.76738 0.0
O57 O 0.94249 0.74405 0.62871 0.0
Cd58 Cd 0.95748 0.72135 0.56692 0.0
O59 O 0.97184 0.69673 0.51454 0.0
C60 C 0.98126 0.68507 0.55502 0.0
O61 O 0.98216 0.68817 0.62774 0.0
C62 C 0.94575 0.76353 0.62099 0.0
C63 C 0.87428 0.74729 0.72966 0.0
O64 O 0.88047 0.76589 0.74953 0.0
O65 O 0.88757 0.73466 0.72591 0.0
O66 O 0.59866 0.63212 0.31368 0.0
Cd67 Cd 0.56902 0.61397 0.24795 0.0
O68 O 0.5838 0.65999 0.32941 0.0
Cd69 Cd 0.55644 0.64921 0.26356 0.0
O70 O 0.52986 0.65093 0.19157 0.0
C71 C 0.53185 0.65032 0.12083 0.0
O72 O 0.54967 0.64732 0.0927 0.0
C73 C 0.59902 0.65023 0.33993 0.0
C74 C 0.56007 0.57361 0.30021 0.0
O75 O 0.57128 0.57773 0.24204 0.0
O76 O 0.55299 0.58855 0.33328 0.0
O77 O 0.67562 0.23364 0.58583 0.0
Cd78 Cd 0.69217 0.26922 0.59691 0.0
O79 O 0.66084 0.23993 0.47939 0.0
Cd80 Cd 0.66557 0.27332 0.4938 0.0
O81 O 0.64666 0.29798 0.51084 0.0
C82 C 0.62862 0.29168 0.53387 0.0
O83 O 0.62365 0.27191 0.54732 0.0
C84 C 0.66504 0.22718 0.5289 0.0
C85 C 0.73392 0.27158 0.56439 0.0
O86 O 0.72734 0.26899 0.63175 0.0
O87 O 0.72076 0.27327 0.51255 0.0
O88 O 0.42322 0.2807 0.09108 0.0
Cd89 Cd 0.40077 0.26653 0.19269 0.0
O90 O 0.42612 0.24982 0.04864 0.0
Cd91 Cd 0.43907 0.22699 0.98027 0.0
O92 O 0.45338 0.20344 0.92099 0.0
C93 C 0.45805 0.18792 0.95668 0.0
O94 O 0.45391 0.18632 0.02861 0.0
C95 C 0.43079 0.26927 0.04392 0.0
C96 C 0.35912 0.26186 0.15721 0.0
O97 O 0.36849 0.27923 0.17942 0.0
O98 O 0.36952 0.24673 0.15067 0.0
O99 O 0.17779 0.72044 0.07514 0.0
Cd100 Cd 0.19294 0.75599 0.05188 0.0
O101 O 0.15487 0.71987 0.98534 0.0
Cd102 Cd 0.15968 0.75328 0.97339 0.0
O103 O 0.14539 0.78067 0.99966 0.0
C104 C 0.12677 0.77669 0.02007 0.0
O105 O 0.11832 0.75734 0.02215 0.0
C106 C 0.16356 0.71056 0.0362 0.0
C107 C 0.23501 0.75709 0.02955 0.0
O108 O 0.22761 0.7588 0.09532 0.0
O109 O 0.22252 0.75524 0.9741 0.0
O110 O 0.17709 0.20862 0.02762 0.0
Cd111 Cd 0.19564 0.22655 0.1323 0.0
O112 O 0.16259 0.23615 0.00434 0.0
Cd113 Cd 0.14316 0.25549 0.94523 0.0
O114 O 0.12679 0.27968 0.90018 0.0
C115 C 0.11206 0.28534 0.93741 0.0
O116 O 0.10679 0.2761 0.00117 0.0
C117 C 0.16445 0.21747 0.98969 0.0
C118 C 0.23826 0.23004 0.12252 0.0
O119 O 0.22774 0.21359 0.14772 0.0
O120 O 0.22859 0.2447 0.10048 0.0
O121 O 0.41848 0.77615 0.02157 0.0
Cd122 Cd 0.396 0.74329 0.01695 0.0
O123 O 0.43289 0.7719 0.91262 0.0
Cd124 Cd 0.42029 0.73935 0.91094 0.0
O125 O 0.42985 0.71153 0.95935 0.0
C126 C 0.4445 0.704 0.92779 0.0
O127 O 0.45148 0.71182 0.86354 0.0
C128 C 0.43074 0.78307 0.96964 0.0
C129 C 0.35496 0.7484 0.03723 0.0
O130 O 0.36654 0.74586 0.09327 0.0
O131 O 0.36282 0.74854 0.97149 0.0
O132 O 0.5808 0.12089 0.56318 0.0
Cd133 Cd 0.54756 0.0994 0.57435 0.0
O134 O 0.59234 0.11363 0.67424 0.0
Cd135 Cd 0.56198 0.09885 0.70661 0.0
O136 O 0.5339 0.10814 0.75262 0.0
C137 C 0.53008 0.10648 0.82228 0.0
O138 O 0.54223 0.09716 0.86515 0.0
C139 C 0.59515 0.12274 0.61148 0.0
C140 C 0.54824 0.0596 0.51989 0.0
O141 O 0.54553 0.07443 0.47577 0.0
O142 O 0.55073 0.0636 0.58985 0.0
O143 O 0.08058 0.89516 0.09035 0.0
Cd144 Cd 0.0565 0.91992 0.11144 0.0
O145 O 0.05914 0.87422 0.1569 0.0
Cd146 Cd 0.04635 0.84647 0.21839 0.0
O147 O 0.02791 0.8266 0.29841 0.0
C148 C 0.02527 0.83445 0.36223 0.0
O149 O 0.03411 0.85328 0.37598 0.0
C150 C 0.07549 0.87735 0.11811 0.0
C151 C 0.06588 0.95639 0.03121 0.0
O152 O 0.0708 0.95544 0.10048 0.0
O153 O 0.05675 0.94009 0.99986 0.0
O154 O 0.5708 0.88337 0.41365 0.0
Cd155 Cd 0.54148 0.89967 0.37139 0.0
O156 O 0.57524 0.86846 0.30555 0.0
Cd157 Cd 0.54809 0.87854 0.25451 0.0
O158 O 0.51733 0.87104 0.20785 0.0
C159 C 0.51509 0.86689 0.13855 0.0
O160 O 0.53136 0.86903 0.09513 0.0
C161 C 0.58068 0.8721 0.37313 0.0
C162 C 0.54308 0.93973 0.4263 0.0
O163 O 0.53545 0.9242 0.46557 0.0
O164 O 0.54994 0.93633 0.3609 0.0
O165 O 0.11101 0.11359 0.71704 0.0
Cd166 Cd 0.08536 0.08716 0.66416 0.0
O167 O 0.08794 0.13418 0.7013 0.0
Cd168 Cd 0.07163 0.16118 0.69716 0.0
O169 O 0.04729 0.17932 0.66688 0.0
C170 C 0.04802 0.19837 0.6819 0.0
O171 O 0.06402 0.2078 0.71787 0.0
C172 C 0.10566 0.13142 0.72463 0.0
C173 C 0.08239 0.05065 0.74579 0.0
O174 O 0.09251 0.05259 0.68429 0.0
O175 O 0.0737 0.0659 0.76856 0.0
H176 H 0.13231 0.68573 0.96903 0.0
H177 H 0.17674 0.68689 0.14763 0.0
H178 H 0.16006 0.6537 0.19275 0.0
H179 H 0.13057 0.62658 0.19063 0.0
H180 H 0.08556 0.62589 0.01424 0.0
H181 H 0.10496 0.6565 0.9587 0.0
C182 C 0.13856 0.6786 0.01715 0.0
C183 C 0.15557 0.68898 0.05553 0.0
C184 C 0.12869 0.65965 0.04364 0.0
C185 C 0.16356 0.67937 0.11735 0.0
C186 C 0.15399 0.66039 0.1434 0.0
C187 C 0.12514 0.63291 0.13939 0.0
C188 C 0.10645 0.62411 0.1074 0.0
C189 C 0.13618 0.65073 0.10841 0.0
C190 C 0.09979 0.63243 0.04051 0.0
C191 C 0.11085 0.65 0.00879 0.0
H192 H 0.64231 0.82933 0.57056 0.0
H193 H 0.64404 0.79301 0.36926 0.0
H194 H 0.62206 0.81473 0.30563 0.0
H195 H 0.60049 0.8425 0.3097 0.0
H196 H 0.59788 0.87816 0.51221 0.0
H197 H 0.62224 0.85835 0.57236 0.0
C198 C 0.63802 0.82624 0.51258 0.0
C199 C 0.64471 0.80944 0.47501 0.0
C200 C 0.62518 0.83866 0.4765 0.0
C201 C 0.63904 0.80575 0.39976 0.0
C202 C 0.62645 0.81817 0.36326 0.0
C203 C 0.60542 0.84614 0.3667 0.0
C204 C 0.59724 0.86174 0.40643 0.0
C205 C 0.61916 0.83445 0.40146 0.0
C206 C 0.60383 0.86618 0.48033 0.0
C207 C 0.61773 0.85482 0.5149 0.0
H208 H 0.45713 0.30433 0.05805 0.0
H209 H 0.43649 0.25604 0.90056 0.0
H210 H 0.46002 0.2726 0.80597 0.0
H211 H 0.4855 0.30165 0.76653 0.0
H212 H 0.50539 0.35026 0.92428 0.0
H213 H 0.48307 0.33278 0.01993 0.0
C214 C 0.45784 0.29739 0.00305 0.0
C215 C 0.44535 0.27879 0.98679 0.0
C216 C 0.47119 0.30714 0.9488 0.0
C217 C 0.4464 0.26999 0.91533 0.0
C218 C 0.45968 0.2796 0.8609 0.0
C219 C 0.48505 0.30837 0.82195 0.0
C220 C 0.49707 0.32731 0.83795 0.0
C221 C 0.47208 0.29825 0.87689 0.0
C222 C 0.49629 0.33575 0.91017 0.0
C223 C 0.4835 0.32577 0.96502 0.0
H224 H 0.9868 0.2598 0.58333 0.0
H225 H 0.95396 0.20358 0.49386 0.0
H226 H 0.98004 0.18405 0.54426 0.0
H227 H 0.0128 0.18316 0.60946 0.0
H228 H 0.04569 0.23952 0.69777 0.0
H229 H 0.01888 0.25875 0.65201 0.0
C230 C 0.98524 0.24325 0.57511 0.0
C231 C 0.96847 0.2332 0.53454 0.0
C232 C 0.00035 0.23215 0.60375 0.0
C233 C 0.96672 0.21173 0.52472 0.0
C234 C 0.98166 0.20055 0.55341 0.0
C235 C 0.0141 0.19964 0.61897 0.0
C236 C 0.03132 0.20988 0.65673 0.0
C237 C 0.99864 0.21064 0.5923 0.0
C238 C 0.03266 0.23123 0.66877 0.0
C239 C 0.01733 0.24226 0.64258 0.0
H240 H 0.05629 0.35393 0.86233 0.0
H241 H 0.09927 0.36486 0.67936 0.0
H242 H 0.11785 0.3375 0.72535 0.0
H243 H 0.12139 0.30988 0.81564 0.0
H244 H 0.07833 0.29906 0.99841 0.0
H245 H 0.06028 0.32694 0.95403 0.0
C246 C 0.06978 0.35044 0.83263 0.0
C247 C 0.07632 0.36145 0.76736 0.0
C248 C 0.08033 0.33461 0.85907 0.0
C249 C 0.09387 0.35667 0.72974 0.0
C250 C 0.10449 0.34097 0.75588 0.0
C251 C 0.10805 0.3136 0.84578 0.0
C252 C 0.1012 0.30231 0.91012 0.0
C253 C 0.09776 0.32973 0.82012 0.0
C254 C 0.08395 0.30745 0.94868 0.0
C255 C 0.0736 0.32342 0.92338 0.0
H256 H 0.0032 0.7961 0.35051 0.0
H257 H 0.01689 0.8475 0.50227 0.0
H258 H 0.99373 0.82994 0.59512 0.0
H259 H 0.96911 0.80043 0.63285 0.0
H260 H 0.95464 0.74917 0.48173 0.0
H261 H 0.9787 0.76611 0.38947 0.0
C262 C 0.00119 0.80341 0.40402 0.0
C263 C 0.01176 0.82313 0.41916 0.0
C264 C 0.98775 0.79323 0.45745 0.0
C265 C 0.00895 0.83237 0.48887 0.0
C266 C 0.99568 0.82235 0.54213 0.0
C267 C 0.97123 0.79295 0.57971 0.0
C268 C 0.96037 0.77341 0.5647 0.0
C269 C 0.98491 0.80287 0.52684 0.0
C270 C 0.96327 0.76391 0.49566 0.0
C271 C 0.97687 0.77371 0.44252 0.0
H272 H 0.47718 0.68638 0.87851 0.0
H273 H 0.43794 0.68956 0.07081 0.0
H274 H 0.4606 0.67117 0.146 0.0
H275 H 0.49359 0.65792 0.1609 0.0
H276 H 0.53313 0.65542 0.96901 0.0
H277 H 0.50822 0.66961 0.88999 0.0
C278 C 0.47339 0.68278 0.93655 0.0
C279 C 0.45604 0.68964 0.96917 0.0
C280 C 0.48667 0.67249 0.97987 0.0
C281 C 0.45127 0.68462 0.0443 0.0
C282 C 0.46428 0.67417 0.08752 0.0
C283 C 0.49666 0.66022 0.10159 0.0
C284 C 0.51538 0.65591 0.07128 0.0
C285 C 0.48236 0.66863 0.05651 0.0
C286 C 0.51895 0.65876 0.9941 0.0
C287 C 0.50472 0.66694 0.94879 0.0
H288 H 0.60525 0.14533 0.48607 0.0
H289 H 0.62649 0.13466 0.70972 0.0
H290 H 0.65239 0.16487 0.69945 0.0
H291 H 0.66526 0.19714 0.63463 0.0
H292 H 0.64283 0.20834 0.41305 0.0
H293 H 0.62137 0.17502 0.41475 0.0
C294 C 0.61579 0.14934 0.53211 0.0
C295 C 0.61364 0.13794 0.59908 0.0
C296 C 0.63031 0.16703 0.52662 0.0
C297 C 0.62764 0.14325 0.65772 0.0
C298 C 0.64241 0.16062 0.65209 0.0
C299 C 0.656 0.19213 0.58608 0.0
C300 C 0.65539 0.20543 0.52442 0.0
C301 C 0.64331 0.17309 0.58798 0.0
C302 C 0.64341 0.19858 0.46175 0.0
C303 C 0.63108 0.17951 0.46267 0.0
H304 H 0.00116 0.37401 0.38348 0.0
H305 H 0.97947 0.39166 0.59924 0.0
H306 H 0.94813 0.36763 0.58343 0.0
H307 H 0.93017 0.33731 0.51938 0.0
H308 H 0.95276 0.3186 0.30641 0.0
H309 H 0.98015 0.34757 0.30957 0.0
C310 C 0.98938 0.37297 0.42634 0.0
C311 C 0.99292 0.38424 0.49324 0.0
C312 C 0.97161 0.35871 0.41784 0.0
C313 C 0.97732 0.38293 0.54762 0.0
C314 C 0.9594 0.36911 0.53881 0.0
C315 C 0.94076 0.33984 0.47271 0.0
C316 C 0.93968 0.32549 0.41366 0.0
C317 C 0.95686 0.35622 0.47583 0.0
C318 C 0.95339 0.3292 0.35321 0.0
C319 C 0.96915 0.34574 0.35509 0.0
H320 H 0.50855 0.13392 0.75418 0.0
H321 H 0.51644 0.1047 0.96702 0.0
H322 H 0.49371 0.12649 0.02651 0.0
H323 H 0.47376 0.15559 0.01993 0.0
H324 H 0.46708 0.18565 0.80779 0.0
H325 H 0.48716 0.16173 0.7463 0.0
C326 C 0.5051 0.13209 0.8134 0.0
C327 C 0.51429 0.11775 0.85613 0.0
C328 C 0.49239 0.14498 0.84757 0.0
C329 C 0.50965 0.11567 0.93284 0.0
C330 C 0.4967 0.12817 0.96698 0.0
C331 C 0.47655 0.15682 0.96013 0.0
C332 C 0.46904 0.17251 0.91871 0.0
C333 C 0.48834 0.14318 0.92521 0.0
C334 C 0.47278 0.17383 0.8412 0.0
C335 C 0.48426 0.16014 0.80592 0.0
H336 H 0.60452 0.6885 0.40211 0.0
H337 H 0.63372 0.63359 0.37722 0.0
H338 H 0.66238 0.64894 0.45459 0.0
H339 H 0.67846 0.67741 0.53382 0.0
H340 H 0.64825 0.73142 0.56291 0.0
H341 H 0.62094 0.71716 0.47825 0.0
C342 C 0.61718 0.67988 0.41321 0.0
C343 C 0.61687 0.65986 0.3841 0.0
C344 C 0.63356 0.68874 0.45802 0.0
C345 C 0.63349 0.649 0.39903 0.0
C346 C 0.6499 0.65776 0.44332 0.0
C347 C 0.66599 0.68613 0.52089 0.0
C348 C 0.66575 0.70575 0.55277 0.0
C349 C 0.65 0.67754 0.47372 0.0
C350 C 0.64937 0.71676 0.53642 0.0
C351 C 0.63352 0.70842 0.48901 0.0
H352 H 0.06287 0.8362 0.1092 0.0
H353 H 0.1165 0.88151 0.08975 0.0
H354 H 0.13729 0.85444 0.05784 0.0
H355 H 0.14004 0.81786 0.0336 0.0
H356 H 0.08616 0.77275 0.05481 0.0
H357 H 0.06577 0.79974 0.08937 0.0
C358 C 0.0792 0.84011 0.10027 0.0
C359 C 0.0882 0.86077 0.10358 0.0
C360 C 0.09101 0.8245 0.08171 0.0
C361 C 0.10923 0.86567 0.08803 0.0
C362 C 0.12113 0.85021 0.06974 0.0
C363 C 0.12385 0.81394 0.04586 0.0
C364 C 0.11466 0.7933 0.0414 0.0
C365 C 0.11215 0.82956 0.06597 0.0
C366 C 0.09366 0.78849 0.05772 0.0
C367 C 0.08195 0.80392 0.07754 0.0
H368 H 0.023 0.62219 0.35866 0.0
H369 H 0.05026 0.61096 0.57216 0.0
H370 H 0.02982 0.63481 0.63265 0.0
H371 H 0.00594 0.66052 0.62341 0.0
H372 H 0.97985 0.67272 0.40868 0.0
H373 H 0.99814 0.64681 0.35029 0.0
C374 C 0.0243 0.62473 0.41861 0.0
C375 C 0.03819 0.61483 0.46077 0.0
C376 C 0.01286 0.63881 0.45272 0.0
C377 C 0.03973 0.61841 0.53833 0.0
C378 C 0.02809 0.6321 0.57295 0.0
C379 C 0.00414 0.65743 0.56391 0.0
C380 C 0.99162 0.66866 0.52048 0.0
C381 C 0.0149 0.64267 0.53044 0.0
C382 C 0.98947 0.66442 0.44344 0.0
C383 C 0.99991 0.64958 0.40995 0.0
H384 H 0.0964 0.16677 0.79172 0.0
H385 H 0.14671 0.13267 0.74425 0.0
H386 H 0.16971 0.1572 0.81758 0.0
H387 H 0.17502 0.18682 0.90276 0.0
H388 H 0.12481 0.22087 0.95099 0.0
H389 H 0.10247 0.19835 0.86761 0.0
C390 C 0.11247 0.16501 0.79528 0.0
C391 C 0.11975 0.14791 0.7619 0.0
C392 C 0.12568 0.17921 0.8378 0.0
C393 C 0.14062 0.14563 0.76952 0.0
C394 C 0.15382 0.15966 0.81146 0.0
C395 C 0.15925 0.18947 0.89411 0.0
C396 C 0.15166 0.20564 0.93224 0.0
C397 C 0.14643 0.17626 0.84706 0.0
C398 C 0.13121 0.2089 0.92076 0.0
C399 C 0.11833 0.19583 0.87382 0.0
H400 H 0.63338 0.33332 0.51108 0.0
H401 H 0.58833 0.28176 0.57046 0.0
H402 H 0.5616 0.30416 0.57199 0.0
H403 H 0.55054 0.33775 0.54746 0.0
H404 H 0.59531 0.3896 0.49013 0.0
H405 H 0.62255 0.36765 0.49553 0.0
C406 C 0.61775 0.32702 0.52493 0.0
C407 C 0.61289 0.30584 0.54009 0.0
C408 C 0.60235 0.34 0.52557 0.0
C409 C 0.59255 0.29797 0.55824 0.0
C410 C 0.5772 0.31077 0.55905 0.0
C411 C 0.56629 0.34446 0.53879 0.0
C412 C 0.57088 0.36539 0.51991 0.0
C413 C 0.58187 0.33175 0.54189 0.0
C414 C 0.59136 0.37352 0.50507 0.0
C415 C 0.60695 0.36099 0.50813 0.0
H416 H 0.43251 0.80876 0.08998 0.0
H417 H 0.46054 0.80112 0.87485 0.0
H418 H 0.48795 0.8288 0.9047 0.0
H419 H 0.50651 0.85144 0.9988 0.0
H420 H 0.47913 0.85796 0.21585 0.0
H421 H 0.44884 0.83468 0.17778 0.0
C422 C 0.44438 0.8134 0.04893 0.0
C423 C 0.44463 0.80259 0.98081 0.0
C424 C 0.46039 0.82899 0.06714 0.0
C425 C 0.46005 0.80899 0.92806 0.0
C426 C 0.47581 0.82478 0.94521 0.0
C427 C 0.49378 0.84808 0.03739 0.0
C428 C 0.4953 0.85614 0.11057 0.0
C429 C 0.47656 0.83431 0.01572 0.0
C430 C 0.47852 0.85178 0.15948 0.0
C431 C 0.46119 0.83841 0.13784 0.0
H432 H 0.0166 0.5138 0.04172 0.0
H433 H 0.08267 0.51936 0.04291 0.0
H434 H 0.08158 0.48972 0.95902 0.0
H435 H 0.06184 0.46257 0.8836 0.0
H436 H 0.99574 0.45528 0.88987 0.0
H437 H 0.99679 0.48519 0.97272 0.0
C438 C 0.03073 0.50848 0.02357 0.0
C439 C 0.04969 0.5188 0.04787 0.0
C440 C 0.02997 0.49115 0.97672 0.0
C441 C 0.06789 0.51162 0.02496 0.0
C442 C 0.06728 0.49472 0.97685 0.0
C443 C 0.04768 0.46757 0.90318 0.0
C444 C 0.02875 0.45691 0.88029 0.0
C445 C 0.04842 0.48444 0.95209 0.0
C446 C 0.0105 0.46327 0.90687 0.0
C447 C 0.0111 0.48039 0.95403 0.0
H448 H 0.78342 0.70309 0.70531 0.0
H449 H 0.77099 0.76612 0.71668 0.0
H450 H 0.80771 0.77826 0.715 0.0
H451 H 0.84332 0.77088 0.72039 0.0
H452 H 0.85573 0.70786 0.70872 0.0
H453 H 0.81906 0.69587 0.69985 0.0
C454 C 0.78873 0.7195 0.70667 0.0
C455 C 0.77446 0.73365 0.71192 0.0
C456 C 0.80987 0.72639 0.70607 0.0
C457 C 0.78162 0.75486 0.71291 0.0
C458 C 0.80263 0.76184 0.71221 0.0
C459 C 0.83802 0.75453 0.71523 0.0
C460 C 0.85225 0.74029 0.71605 0.0
C461 C 0.81689 0.74772 0.7104 0.0
C462 C 0.84513 0.71917 0.70854 0.0
C463 C 0.82414 0.71228 0.70367 0.0
H464 H 0.53568 0.48866 0.46567 0.0
H465 H 0.55646 0.46566 0.25649 0.0
H466 H 0.56493 0.50088 0.21033 0.0
H467 H 0.566 0.53821 0.22868 0.0
H468 H 0.54376 0.5611 0.43571 0.0
H469 H 0.53628 0.52594 0.4833 0.0
C470 C 0.54217 0.49136 0.41013 0.0
C471 C 0.54551 0.47457 0.36471 0.0
C472 C 0.54667 0.51163 0.38344 0.0
C473 C 0.55371 0.47832 0.29256 0.0
C474 C 0.55857 0.49845 0.26612 0.0
C475 C 0.55956 0.53551 0.28428 0.0
C476 C 0.55549 0.55226 0.3286 0.0
C477 C 0.55504 0.51523 0.31094 0.0
C478 C 0.54699 0.54848 0.40032 0.0
C479 C 0.54275 0.52838 0.42767 0.0
H480 H 0.8236 0.27227 0.43745 0.0
H481 H 0.83715 0.26956 0.67358 0.0
H482 H 0.80102 0.27013 0.70339 0.0
H483 H 0.76547 0.27077 0.66247 0.0
H484 H 0.75198 0.27378 0.42638 0.0
H485 H 0.78819 0.27377 0.39667 0.0
C486 C 0.81867 0.27184 0.49546 0.0
C487 C 0.83307 0.2708 0.55313 0.0
C488 C 0.79786 0.27221 0.51228 0.0
C489 C 0.8264 0.27035 0.62802 0.0
C490 C 0.80573 0.27065 0.64517 0.0
C491 C 0.77044 0.27147 0.60451 0.0
C492 C 0.75599 0.27222 0.54678 0.0
C493 C 0.79131 0.27149 0.58775 0.0
C494 C 0.76275 0.27319 0.47197 0.0
C495 C 0.78346 0.27317 0.45487 0.0
H496 H 0.33328 0.22595 0.14807 0.0
H497 H 0.33485 0.29193 0.13408 0.0
H498 H 0.29769 0.28779 0.11671 0.0
H499 H 0.26459 0.26555 0.11183 0.0
H500 H 0.26279 0.1997 0.13371 0.0
H501 H 0.30019 0.20365 0.14125 0.0
C502 C 0.32551 0.23941 0.14052 0.0
C503 C 0.33681 0.25921 0.14235 0.0
C504 C 0.30409 0.23694 0.13226 0.0
C505 C 0.32649 0.27652 0.13317 0.0
C506 C 0.30525 0.27417 0.12321 0.0
C507 C 0.27239 0.25205 0.1175 0.0
C508 C 0.26093 0.23237 0.12215 0.0
C509 C 0.29387 0.25447 0.12358 0.0
C510 C 0.27126 0.21503 0.13023 0.0
C511 C 0.29265 0.21728 0.13456 0.0
H512 H 0.32616 0.75138 0.92976 0.0
H513 H 0.33466 0.75096 0.16955 0.0
H514 H 0.29851 0.75434 0.18814 0.0
H515 H 0.26433 0.7566 0.13658 0.0
H516 H 0.25561 0.75632 0.89688 0.0
H517 H 0.29202 0.75411 0.87813 0.0
C518 C 0.32013 0.75209 0.98611 0.0
C519 C 0.33311 0.75088 0.04813 0.0
C520 C 0.29928 0.7539 0.99647 0.0
C521 C 0.32502 0.7518 0.12076 0.0
C522 C 0.30434 0.75375 0.13149 0.0
C523 C 0.2704 0.75617 0.0802 0.0
C524 C 0.25724 0.75662 0.01826 0.0
C525 C 0.29131 0.7547 0.06979 0.0
C526 C 0.26537 0.75597 0.94559 0.0
C527 C 0.2862 0.75469 0.93478 0.0
H528 H 0.54933 0.97552 0.34753 0.0
H529 H 0.53849 0.95153 0.57116 0.0
H530 H 0.53976 0.98651 0.62017 0.0
H531 H 0.54362 0.02392 0.5994 0.0
H532 H 0.55276 0.04782 0.37495 0.0
H533 H 0.55252 0.01289 0.32642 0.0
C534 C 0.54732 0.97796 0.40702 0.0
C535 C 0.54389 0.96095 0.45564 0.0
C536 C 0.54774 0.9981 0.43468 0.0
C537 C 0.5411 0.96435 0.53249 0.0
C538 C 0.54186 0.98435 0.56061 0.0
C539 C 0.54564 0.02148 0.53991 0.0
C540 C 0.54828 0.03844 0.49091 0.0
C541 C 0.54513 0.00134 0.51221 0.0
C542 C 0.55067 0.03502 0.41386 0.0
C543 C 0.55055 0.01506 0.38605 0.0
H544 H 0.07799 0.04614 0.8959 0.0
H545 H 0.08284 0.01184 0.69184 0.0
H546 H 0.07811 0.9795 0.76226 0.0
H547 H 0.07168 0.96098 0.8816 0.0
H548 H 0.06948 0.99543 0.08678 0.0
H549 H 0.07422 0.02776 0.01638 0.0
C550 C 0.07802 0.03156 0.86702 0.0
C551 C 0.08053 0.03128 0.78888 0.0
C552 C 0.0758 0.01311 0.90804 0.0
C553 C 0.08092 0.01238 0.75205 0.0
C554 C 0.07817 0.99391 0.79221 0.0
C555 C 0.0723 0.97559 0.91078 0.0
C556 C 0.07005 0.97587 0.98904 0.0
C557 C 0.07545 0.99409 0.87014 0.0
C558 C 0.07119 0.99486 0.02648 0.0
C559 C 0.07382 0.01333 0.98628 0.0
loop_
_geom_bond_atom_site_label_1
_geom_bond_atom_site_label_2
_geom_bond_distance
_geom_bond_site_symmetry_2
_ccdc_geom_bond_type
O0 Cd1 2.300 . S
O0 C7 1.275 . S
Cd1 O0 2.300 . S
Cd1 O9 2.381 . S
Cd1 O10 2.378 . S
O2 Cd3 2.385 . S
O2 C7 1.255 . S
Cd3 O2 2.385 . S
Cd3 O4 2.317 . S
O4 Cd3 2.317 . S
O4 C5 1.232 . S
C5 O4 1.232 . S
C5 O6 1.218 . S
O6 C5 1.218 . S
C7 O0 1.275 . S
C7 O2 1.255 . S
C8 O9 1.258 . S
C8 O10 1.256 . S
O9 Cd1 2.381 . S
O9 C8 1.258 . S
O10 Cd1 2.378 . S
O10 C8 1.256 . S
O11 Cd12 2.300 . S
O11 C18 1.275 . S
Cd12 O11 2.300 . S
Cd12 O20 2.381 . S
Cd12 O21 2.378 . S
O13 Cd14 2.385 . S
O13 C18 1.255 . S
Cd14 O13 2.385 . S
Cd14 O15 2.317 . S
O15 Cd14 2.317 . S
O15 C16 1.232 . S
C16 O15 1.232 . S
C16 O17 1.218 . S
O17 C16 1.218 . S
C18 O11 1.275 . S
C18 O13 1.255 . S
C19 O20 1.258 . S
C19 O21 1.256 . S
O20 Cd12 2.381 . S
O20 C19 1.258 . S
O21 Cd12 2.378 . S
O21 C19 1.256 . S
O22 Cd23 2.300 . S
O22 C29 1.275 . S
Cd23 O22 2.300 . S
Cd23 O31 2.381 . S
Cd23 O32 2.378 . S
O24 Cd25 2.385 . S
O24 C29 1.255 . S
Cd25 O24 2.385 . S
Cd25 O26 2.317 . S
O26 Cd25 2.317 . S
O26 C27 1.232 . S
C27 O26 1.232 . S
C27 O28 1.218 . S
O28 C27 1.218 . S
C29 O22 1.275 . S
C29 O24 1.255 . S
C30 O31 1.258 . S
C30 O32 1.256 . S
O31 Cd23 2.381 . S
O31 C30 1.258 . S
O32 Cd23 2.378 . S
O32 C30 1.256 . S
O33 Cd34 2.300 . S
O33 C40 1.275 . S
Cd34 O33 2.300 . S
Cd34 O42 2.381 . S
Cd34 O43 2.378 . S
O35 Cd36 2.385 . S
O35 C40 1.255 . S
Cd36 O35 2.385 . S
Cd36 O37 2.317 . S
O37 Cd36 2.317 . S
O37 C38 1.232 . S
C38 O37 1.232 . S
C38 O39 1.218 . S
O39 C38 1.218 . S
C40 O33 1.275 . S
C40 O35 1.255 . S
C41 O42 1.258 . S
C41 O43 1.256 . S
O42 Cd34 2.381 . S
O42 C41 1.258 . S
O43 Cd34 2.378 . S
O43 C41 1.256 . S
O44 Cd45 2.300 . S
O44 C51 1.275 . S
Cd45 O44 2.300 . S
Cd45 O53 2.381 . S
Cd45 O54 2.378 . S
O46 Cd47 2.385 . S
O46 C51 1.255 . S
Cd47 O46 2.385 . S
Cd47 O48 2.317 . S
O48 Cd47 2.317 . S
O48 C49 1.232 . S
C49 O48 1.232 . S
C49 O50 1.218 . S
O50 C49 1.218 . S
C51 O44 1.275 . S
C51 O46 1.255 . S
C52 O53 1.258 . S
C52 O54 1.256 . S
O53 Cd45 2.381 . S
O53 C52 1.258 . S
O54 Cd45 2.378 . S
O54 C52 1.256 . S
O55 Cd56 2.300 . S
O55 C62 1.275 . S
Cd56 O55 2.300 . S
Cd56 O64 2.381 . S
Cd56 O65 2.378 . S
O57 Cd58 2.385 . S
O57 C62 1.255 . S
Cd58 O57 2.385 . S
Cd58 O59 2.317 . S
O59 Cd58 2.317 . S
O59 C60 1.232 . S
C60 O59 1.232 . S
C60 O61 1.218 . S
O61 C60 1.218 . S
C62 O55 1.275 . S
C62 O57 1.255 . S
C63 O64 1.258 . S
C63 O65 1.256 . S
O64 Cd56 2.381 . S
O64 C63 1.258 . S
O65 Cd56 2.378 . S
O65 C63 1.256 . S
O66 Cd67 2.300 . S
O66 C73 1.275 . S
Cd67 O66 2.300 . S
Cd67 O75 2.381 . S
Cd67 O76 2.378 . S
O68 Cd69 2.385 . S
O68 C73 1.255 . S
Cd69 O68 2.385 . S
Cd69 O70 2.317 . S
O70 Cd69 2.317 . S
O70 C71 1.232 . S
C71 O70 1.232 . S
C71 O72 1.218 . S
O72 C71 1.218 . S
C73 O66 1.275 . S
C73 O68 1.255 . S
C74 O75 1.258 . S
C74 O76 1.256 . S
O75 Cd67 2.381 . S
O75 C74 1.258 . S
O76 Cd67 2.378 . S
O76 C74 1.256 . S
O77 Cd78 2.300 . S
O77 C84 1.275 . S
Cd78 O77 2.300 . S
Cd78 O86 2.381 . S
Cd78 O87 2.378 . S
O79 Cd80 2.385 . S
O79 C84 1.255 . S
Cd80 O79 2.385 . S
Cd80 O81 2.317 . S
O81 Cd80 2.317 . S
O81 C82 1.232 . S
C82 O81 1.232 . S
C82 O83 1.218 . S
O83 C82 1.218 . S
C84 O77 1.275 . S
C84 O79 1.255 . S
C85 O86 1.258 . S
C85 O87 1.256 . S
O86 Cd78 2.381 . S
O86 C85 1.258 . S
O87 Cd78 2.378 . S
O87 C85 1.256 . S
O88 Cd89 2.300 . S
O88 C95 1.275 . S
Cd89 O88 2.300 . S
Cd89 O97 2.381 1_556 S
Cd89 O98 2.378 . S
O90 Cd91 2.385 . S
O90 C95 1.255 . S
Cd91 O90 2.385 . S
Cd91 O92 2.317 . S
O92 Cd91 2.317 . S
O92 C93 1.232 . S
C93 O92 1.232 . S
C93 O94 1.218 . S
O94 C93 1.218 . S
C95 O88 1.275 . S
C95 O90 1.255 . S
C96 O97 1.258 . S
C96 O98 1.256 1_554 S
O97 Cd89 2.381 1_554 S
O97 C96 1.258 . S
O98 Cd89 2.378 . S
O98 C96 1.256 1_556 S
O99 Cd100 2.300 1_554 S
O99 C106 1.275 . S
Cd100 O99 2.300 1_556 S
Cd100 O108 2.381 1_556 S
Cd100 O109 2.378 . S
O101 Cd102 2.385 . S
O101 C106 1.255 1_556 S
Cd102 O101 2.385 . S
Cd102 O103 2.317 . S
O103 Cd102 2.317 . S
O103 C104 1.232 1_556 S
C104 O103 1.232 1_554 S
C104 O105 1.218 1_554 S
O105 C104 1.218 1_556 S
C106 O99 1.275 . S
C106 O101 1.255 1_554 S
C107 O108 1.258 1_556 S
C107 O109 1.256 . S
O108 Cd100 2.381 1_554 S
O108 C107 1.258 1_554 S
O109 Cd100 2.378 . S
O109 C107 1.256 . S
O110 Cd111 2.300 . S
O110 C117 1.275 . S
Cd111 O110 2.300 . S
Cd111 O119 2.381 1_556 S
Cd111 O120 2.378 . S
O112 Cd113 2.385 . S
O112 C117 1.255 . S
Cd113 O112 2.385 . S
Cd113 O114 2.317 . S
O114 Cd113 2.317 . S
O114 C115 1.232 . S
C115 O114 1.232 . S
C115 O116 1.218 . S
O116 C115 1.218 . S
C117 O110 1.275 . S
C117 O112 1.255 . S
C118 O119 1.258 1_556 S
C118 O120 1.256 . S
O119 Cd111 2.381 1_554 S
O119 C118 1.258 1_554 S
O120 Cd111 2.378 . S
O120 C118 1.256 . S
O121 Cd122 2.300 1_554 S
O121 C128 1.275 . S
Cd122 O121 2.300 1_556 S
Cd122 O130 2.381 1_556 S
Cd122 O131 2.378 . S
O123 Cd124 2.385 . S
O123 C128 1.255 1_556 S
Cd124 O123 2.385 . S
Cd124 O125 2.317 . S
O125 Cd124 2.317 . S
O125 C126 1.232 1_556 S
C126 O125 1.232 1_554 S
C126 O127 1.218 . S
O127 C126 1.218 . S
C128 O121 1.275 . S
C128 O123 1.255 1_554 S
C129 O130 1.258 1_556 S
C129 O131 1.256 . S
O130 Cd122 2.381 1_554 S
O130 C129 1.258 1_554 S
O131 Cd122 2.378 . S
O131 C129 1.256 . S
O132 Cd133 2.300 . S
O132 C139 1.275 . S
Cd133 O132 2.300 . S
Cd133 O141 2.381 . S
Cd133 O142 2.378 . S
O134 Cd135 2.385 . S
O134 C139 1.255 . S
Cd135 O134 2.385 . S
Cd135 O136 2.317 . S
O136 Cd135 2.317 . S
O136 C137 1.232 . S
C137 O136 1.232 . S
C137 O138 1.218 . S
O138 C137 1.218 . S
C139 O132 1.275 . S
C139 O134 1.255 . S
C140 O141 1.258 . S
C140 O142 1.256 . S
O141 Cd133 2.381 . S
O141 C140 1.258 . S
O142 Cd133 2.378 . S
O142 C140 1.256 . S
O143 Cd144 2.300 . S
O143 C150 1.275 . S
Cd144 O143 2.300 . S
Cd144 O152 2.381 . S
Cd144 O153 2.378 . S
O145 Cd146 2.385 . S
O145 C150 1.255 . S
Cd146 O145 2.385 . S
Cd146 O147 2.317 . S
O147 Cd146 2.317 . S
O147 C148 1.232 . S
C148 O147 1.232 . S
C148 O149 1.218 . S
O149 C148 1.218 . S
C150 O143 1.275 . S
C150 O145 1.255 . S
C151 O152 1.258 . S
C151 O153 1.256 . S
O152 Cd144 2.381 . S
O152 C151 1.258 . S
O153 Cd144 2.378 . S
O153 C151 1.256 . S
O154 Cd155 2.300 . S
O154 C161 1.275 . S
Cd155 O154 2.300 . S
Cd155 O163 2.381 . S
Cd155 O164 2.378 . S
O156 Cd157 2.385 . S
O156 C161 1.255 . S
Cd157 O156 2.385 . S
Cd157 O158 2.317 . S
O158 Cd157 2.317 . S
O158 C159 1.232 . S
C159 O158 1.232 . S
C159 O160 1.218 . S
O160 C159 1.218 . S
C161 O154 1.275 . S
C161 O156 1.255 . S
C162 O163 1.258 . S
C162 O164 1.256 . S
O163 Cd155 2.381 . S
O163 C162 1.258 . S
O164 Cd155 2.378 . S
O164 C162 1.256 . S
O165 Cd166 2.300 . S
O165 C172 1.275 . S
Cd166 O165 2.300 . S
Cd166 O174 2.381 . S
Cd166 O175 2.378 . S
O167 Cd168 2.385 . S
O167 C172 1.255 . S
Cd168 O167 2.385 . S
Cd168 O169 2.317 . S
O169 Cd168 2.317 . S
O169 C170 1.232 . S
C170 O169 1.232 . S
C170 O171 1.218 . S
O171 C170 1.218 . S
C172 O165 1.275 . S
C172 O167 1.255 . S
C173 O174 1.258 . S
C173 O175 1.256 . S
O174 Cd166 2.381 . S
O174 C173 1.258 . S
O175 Cd166 2.378 . S
O175 C173 1.256 . S
H176 C182 0.930 1_556 S
H177 C185 0.930 . S
H178 C186 0.930 . S
H179 C187 0.930 . S
H180 C190 0.930 . S
H181 C191 0.930 . S
C182 H176 0.930 1_554 S
C182 C183 1.355 . S
C182 C184 1.415 . S
C183 C182 1.355 . S
C183 C185 1.419 . S
C184 C182 1.415 . S
C184 C189 1.425 . S
C184 C191 1.409 . S
C185 H177 0.930 . S
C185 C183 1.419 . S
C185 C186 1.362 . S
C186 H178 0.930 . S
C186 C185 1.362 . S
C186 C189 1.409 . S
C187 H179 0.930 . S
C187 C188 1.355 . S
C187 C189 1.415 . S
C188 C187 1.355 . S
C188 C190 1.419 . S
C189 C184 1.425 . S
C189 C186 1.409 . S
C189 C187 1.415 . S
C190 H180 0.930 . S
C190 C188 1.419 . S
C190 C191 1.362 . S
C191 H181 0.930 . S
C191 C184 1.409 . S
C191 C190 1.362 . S
H192 C198 0.930 . S
H193 C201 0.930 . S
H194 C202 0.930 . S
H195 C203 0.930 . S
H196 C206 0.930 . S
H197 C207 0.930 . S
C198 H192 0.930 . S
C198 C199 1.355 . S
C198 C200 1.415 . S
C199 C198 1.355 . S
C199 C201 1.419 . S
C200 C198 1.415 . S
C200 C205 1.425 . S
C200 C207 1.409 . S
C201 H193 0.930 . S
C201 C199 1.419 . S
C201 C202 1.362 . S
C202 H194 0.930 . S
C202 C201 1.362 . S
C202 C205 1.409 . S
C203 H195 0.930 . S
C203 C204 1.355 . S
C203 C205 1.415 . S
C204 C203 1.355 . S
C204 C206 1.419 . S
C205 C200 1.425 . S
C205 C202 1.409 . S
C205 C203 1.415 . S
C206 H196 0.930 . S
C206 C204 1.419 . S
C206 C207 1.362 . S
C207 H197 0.930 . S
C207 C200 1.409 . S
C207 C206 1.362 . S
H208 C214 0.930 1_554 S
H209 C217 0.930 . S
H210 C218 0.930 . S
H211 C219 0.930 . S
H212 C222 0.930 . S
H213 C223 0.930 1_554 S
C214 H208 0.930 1_556 S
C214 C215 1.355 . S
C214 C216 1.415 . S
C215 C214 1.355 . S
C215 C217 1.419 . S
C216 C214 1.415 . S
C216 C221 1.425 . S
C216 C223 1.409 . S
C217 H209 0.930 . S
C217 C215 1.419 . S
C217 C218 1.362 . S
C218 H210 0.930 . S
C218 C217 1.362 . S
C218 C221 1.409 . S
C219 H211 0.930 . S
C219 C220 1.355 . S
C219 C221 1.415 . S
C220 C219 1.355 . S
C220 C222 1.419 . S
C221 C216 1.425 . S
C221 C218 1.409 . S
C221 C219 1.415 . S
C222 H212 0.930 . S
C222 C220 1.419 . S
C222 C223 1.362 . S
C223 H213 0.930 1_556 S
C223 C216 1.409 . S
C223 C222 1.362 . S
H224 C230 0.930 . S
H225 C233 0.930 . S
H226 C234 0.930 . S
H227 C235 0.930 . S
H228 C238 0.930 . S
H229 C239 0.930 . S
C230 H224 0.930 . S
C230 C231 1.355 . S
C230 C232 1.415 . S
C231 C230 1.355 . S
C231 C233 1.419 . S
C232 C230 1.415 . S
C232 C237 1.425 . S
C232 C239 1.409 1_655 S
C233 H225 0.930 . S
C233 C231 1.419 . S
C233 C234 1.362 . S
C234 H226 0.930 . S
C234 C233 1.362 . S
C234 C237 1.409 . S
C235 H227 0.930 . S
C235 C236 1.355 1_655 S
C235 C237 1.415 . S
C236 C235 1.355 1_455 S
C236 C238 1.419 . S
C237 C232 1.425 . S
C237 C234 1.409 . S
C237 C235 1.415 . S
C238 H228 0.930 . S
C238 C236 1.419 . S
C238 C239 1.362 . S
C239 H229 0.930 . S
C239 C232 1.409 1_455 S
C239 C238 1.362 . S
H240 C246 0.930 . S
H241 C249 0.930 . S
H242 C250 0.930 . S
H243 C251 0.930 . S
H244 C254 0.930 1_554 S
H245 C255 0.930 . S
C246 H240 0.930 . S
C246 C247 1.355 . S
C246 C248 1.415 . S
C247 C246 1.355 . S
C247 C249 1.419 . S
C248 C246 1.415 . S
C248 C253 1.425 . S
C248 C255 1.409 . S
C249 H241 0.930 . S
C249 C247 1.419 . S
C249 C250 1.362 . S
C250 H242 0.930 . S
C250 C249 1.362 . S
C250 C253 1.409 . S
C251 H243 0.930 . S
C251 C252 1.355 . S
C251 C253 1.415 . S
C252 C251 1.355 . S
C252 C254 1.419 . S
C253 C248 1.425 . S
C253 C250 1.409 . S
C253 C251 1.415 . S
C254 H244 0.930 1_556 S
C254 C252 1.419 . S
C254 C255 1.362 . S
C255 H245 0.930 . S
C255 C248 1.409 . S
C255 C254 1.362 . S
H256 C262 0.930 . S
H257 C265 0.930 . S
H258 C266 0.930 . S
H259 C267 0.930 . S
H260 C270 0.930 . S
H261 C271 0.930 . S
C262 H256 0.930 . S
C262 C263 1.355 1_655 S
C262 C264 1.415 . S
C263 C262 1.355 1_455 S
C263 C265 1.419 . S
C264 C262 1.415 . S
C264 C269 1.425 . S
C264 C271 1.409 . S
C265 H257 0.930 . S
C265 C263 1.419 . S
C265 C266 1.362 1_455 S
C266 H258 0.930 . S
C266 C265 1.362 1_655 S
C266 C269 1.409 . S
C267 H259 0.930 . S
C267 C268 1.355 . S
C267 C269 1.415 . S
C268 C267 1.355 . S
C268 C270 1.419 . S
C269 C264 1.425 . S
C269 C266 1.409 . S
C269 C267 1.415 . S
C270 H260 0.930 . S
C270 C268 1.419 . S
C270 C271 1.362 . S
C271 H261 0.930 . S
C271 C264 1.409 . S
C271 C270 1.362 . S
H272 C278 0.930 . S
H273 C281 0.930 . S
H274 C282 0.930 . S
H275 C283 0.930 . S
H276 C286 0.930 . S
H277 C287 0.930 . S
C278 H272 0.930 . S
C278 C279 1.355 . S
C278 C280 1.415 . S
C279 C278 1.355 . S
C279 C281 1.419 . S
C280 C278 1.415 . S
C280 C285 1.425 . S
C280 C287 1.409 . S
C281 H273 0.930 . S
C281 C279 1.419 . S
C281 C282 1.362 . S
C282 H274 0.930 . S
C282 C281 1.362 . S
C282 C285 1.409 . S
C283 H275 0.930 . S
C283 C284 1.355 . S
C283 C285 1.415 . S
C284 C283 1.355 . S
C284 C286 1.419 . S
C285 C280 1.425 . S
C285 C282 1.409 . S
C285 C283 1.415 . S
C286 H276 0.930 . S
C286 C284 1.419 . S
C286 C287 1.362 . S
C287 H277 0.930 . S
C287 C280 1.409 . S
C287 C286 1.362 . S
H288 C294 0.930 . S
H289 C297 0.930 . S
H290 C298 0.930 . S
H291 C299 0.930 . S
H292 C302 0.930 . S
H293 C303 0.930 . S
C294 H288 0.930 . S
C294 C295 1.355 . S
C294 C296 1.415 . S
C295 C294 1.355 . S
C295 C297 1.419 . S
C296 C294 1.415 . S
C296 C301 1.425 . S
C296 C303 1.409 . S
C297 H289 0.930 . S
C297 C295 1.419 . S
C297 C298 1.362 . S
C298 H290 0.930 . S
C298 C297 1.362 . S
C298 C301 1.409 . S
C299 H291 0.930 . S
C299 C300 1.355 . S
C299 C301 1.415 . S
C300 C299 1.355 . S
C300 C302 1.419 . S
C301 C296 1.425 . S
C301 C298 1.409 . S
C301 C299 1.415 . S
C302 H292 0.930 . S
C302 C300 1.419 . S
C302 C303 1.362 . S
C303 H293 0.930 . S
C303 C296 1.409 . S
C303 C302 1.362 . S
H304 C310 0.930 . S
H305 C313 0.930 . S
H306 C314 0.930 . S
H307 C315 0.930 . S
H308 C318 0.930 . S
H309 C319 0.930 1_455 S
C310 H304 0.930 . S
C310 C311 1.355 . S
C310 C312 1.415 1_455 S
C311 C310 1.355 . S
C311 C313 1.419 1_455 S
C312 C310 1.415 1_655 S
C312 C317 1.425 . S
C312 C319 1.409 . S
C313 H305 0.930 . S
C313 C311 1.419 1_655 S
C313 C314 1.362 . S
C314 H306 0.930 . S
C314 C313 1.362 . S
C314 C317 1.409 . S
C315 H307 0.930 . S
C315 C316 1.355 . S
C315 C317 1.415 . S
C316 C315 1.355 . S
C316 C318 1.419 . S
C317 C312 1.425 . S
C317 C314 1.409 . S
C317 C315 1.415 . S
C318 H308 0.930 . S
C318 C316 1.419 . S
C318 C319 1.362 . S
C319 H309 0.930 1_655 S
C319 C312 1.409 . S
C319 C318 1.362 . S
H320 C326 0.930 . S
H321 C329 0.930 . S
H322 C330 0.930 . S
H323 C331 0.930 . S
H324 C334 0.930 . S
H325 C335 0.930 . S
C326 H320 0.930 . S
C326 C327 1.355 . S
C326 C328 1.415 . S
C327 C326 1.355 . S
C327 C329 1.419 . S
C328 C326 1.415 . S
C328 C333 1.425 . S
C328 C335 1.409 . S
C329 H321 0.930 . S
C329 C327 1.419 . S
C329 C330 1.362 . S
C330 H322 0.930 . S
C330 C329 1.362 . S
C330 C333 1.409 . S
C331 H323 0.930 . S
C331 C332 1.355 . S
C331 C333 1.415 . S
C332 C331 1.355 . S
C332 C334 1.419 . S
C333 C328 1.425 . S
C333 C330 1.409 . S
C333 C331 1.415 . S
C334 H324 0.930 . S
C334 C332 1.419 . S
C334 C335 1.362 . S
C335 H325 0.930 . S
C335 C328 1.409 . S
C335 C334 1.362 . S
H336 C342 0.930 . S
H337 C345 0.930 . S
H338 C346 0.930 . S
H339 C347 0.930 . S
H340 C350 0.930 . S
H341 C351 0.930 . S
C342 H336 0.930 . S
C342 C343 1.355 . S
C342 C344 1.415 . S
C343 C342 1.355 . S
C343 C345 1.419 . S
C344 C342 1.415 . S
C344 C349 1.425 . S
C344 C351 1.409 . S
C345 H337 0.930 . S
C345 C343 1.419 . S
C345 C346 1.362 . S
C346 H338 0.930 . S
C346 C345 1.362 . S
C346 C349 1.409 . S
C347 H339 0.930 . S
C347 C348 1.355 . S
C347 C349 1.415 . S
C348 C347 1.355 . S
C348 C350 1.419 . S
C349 C344 1.425 . S
C349 C346 1.409 . S
C349 C347 1.415 . S
C350 H340 0.930 . S
C350 C348 1.419 . S
C350 C351 1.362 . S
C351 H341 0.930 . S
C351 C344 1.409 . S
C351 C350 1.362 . S
H352 C358 0.930 . S
H353 C361 0.930 . S
H354 C362 0.930 . S
H355 C363 0.930 . S
H356 C366 0.930 . S
H357 C367 0.930 . S
C358 H352 0.930 . S
C358 C359 1.355 . S
C358 C360 1.415 . S
C359 C358 1.355 . S
C359 C361 1.419 . S
C360 C358 1.415 . S
C360 C365 1.425 . S
C360 C367 1.409 . S
C361 H353 0.930 . S
C361 C359 1.419 . S
C361 C362 1.362 . S
C362 H354 0.930 . S
C362 C361 1.362 . S
C362 C365 1.409 . S
C363 H355 0.930 . S
C363 C364 1.355 . S
C363 C365 1.415 . S
C364 C363 1.355 . S
C364 C366 1.419 . S
C365 C360 1.425 . S
C365 C362 1.409 . S
C365 C363 1.415 . S
C366 H356 0.930 . S
C366 C364 1.419 . S
C366 C367 1.362 . S
C367 H357 0.930 . S
C367 C360 1.409 . S
C367 C366 1.362 . S
H368 C374 0.930 . S
H369 C377 0.930 . S
H370 C378 0.930 . S
H371 C379 0.930 . S
H372 C382 0.930 . S
H373 C383 0.930 . S
C374 H368 0.930 . S
C374 C375 1.355 1_655 S
C374 C376 1.415 . S
C375 C374 1.355 1_455 S
C375 C377 1.419 . S
C376 C374 1.415 . S
C376 C381 1.425 . S
C376 C383 1.409 . S
C377 H369 0.930 . S
C377 C375 1.419 . S
C377 C378 1.362 . S
C378 H370 0.930 . S
C378 C377 1.362 . S
C378 C381 1.409 1_455 S
C379 H371 0.930 . S
C379 C380 1.355 . S
C379 C381 1.415 . S
C380 C379 1.355 . S
C380 C382 1.419 . S
C381 C376 1.425 . S
C381 C378 1.409 1_655 S
C381 C379 1.415 . S
C382 H372 0.930 . S
C382 C380 1.419 . S
C382 C383 1.362 . S
C383 H373 0.930 . S
C383 C376 1.409 . S
C383 C382 1.362 . S
H384 C390 0.930 . S
H385 C393 0.930 . S
H386 C394 0.930 . S
H387 C395 0.930 . S
H388 C398 0.930 . S
H389 C399 0.930 . S
C390 H384 0.930 . S
C390 C391 1.355 . S
C390 C392 1.415 . S
C391 C390 1.355 . S
C391 C393 1.419 . S
C392 C390 1.415 . S
C392 C397 1.425 . S
C392 C399 1.409 . S
C393 H385 0.930 . S
C393 C391 1.419 . S
C393 C394 1.362 . S
C394 H386 0.930 . S
C394 C393 1.362 . S
C394 C397 1.409 . S
C395 H387 0.930 . S
C395 C396 1.355 . S
C395 C397 1.415 . S
C396 C395 1.355 . S
C396 C398 1.419 . S
C397 C392 1.425 . S
C397 C394 1.409 . S
C397 C395 1.415 . S
C398 H388 0.930 . S
C398 C396 1.419 . S
C398 C399 1.362 . S
C399 H389 0.930 . S
C399 C392 1.409 . S
C399 C398 1.362 . S
H400 C406 0.930 . S
H401 C409 0.930 . S
H402 C410 0.930 . S
H403 C411 0.930 . S
H404 C414 0.930 . S
H405 C415 0.930 . S
C406 H400 0.930 . S
C406 C407 1.355 . S
C406 C408 1.415 . S
C407 C406 1.355 . S
C407 C409 1.419 . S
C408 C406 1.415 . S
C408 C413 1.425 . S
C408 C415 1.409 . S
C409 H401 0.930 . S
C409 C407 1.419 . S
C409 C410 1.362 . S
C410 H402 0.930 . S
C410 C409 1.362 . S
C410 C413 1.409 . S
C411 H403 0.930 . S
C411 C412 1.355 . S
C411 C413 1.415 . S
C412 C411 1.355 . S
C412 C414 1.419 . S
C413 C408 1.425 . S
C413 C410 1.409 . S
C413 C411 1.415 . S
C414 H404 0.930 . S
C414 C412 1.419 . S
C414 C415 1.362 . S
C415 H405 0.930 . S
C415 C408 1.409 . S
C415 C414 1.362 . S
H416 C422 0.930 . S
H417 C425 0.928 1_556 S
H418 C426 0.930 . S
H419 C427 0.930 . S
H420 C430 0.930 . S
H421 C431 0.930 . S
C422 H416 0.930 . S
C422 C423 1.355 . S
C422 C424 1.415 . S
C423 C422 1.355 . S
C423 C425 1.419 . S
C424 C422 1.415 . S
C424 C429 1.425 . S
C424 C431 1.409 . S
C425 H417 0.928 1_554 S
C425 C423 1.419 . S
C425 C426 1.362 . S
C426 H418 0.930 . S
C426 C425 1.362 . S
C426 C429 1.409 . S
C427 H419 0.930 . S
C427 C428 1.355 . S
C427 C429 1.415 . S
C428 C427 1.355 . S
C428 C430 1.419 . S
C429 C424 1.425 . S
C429 C426 1.409 . S
C429 C427 1.415 . S
C430 H420 0.930 . S
C430 C428 1.419 . S
C430 C431 1.362 . S
C431 H421 0.930 . S
C431 C424 1.409 . S
C431 C430 1.362 . S
H432 C438 0.930 . S
H433 C441 0.930 . S
H434 C442 0.930 . S
H435 C443 0.930 . S
H436 C446 0.930 . S
H437 C447 0.930 . S
C438 H432 0.930 . S
C438 C439 1.355 . S
C438 C440 1.415 . S
C439 C438 1.355 . S
C439 C441 1.419 . S
C440 C438 1.415 . S
C440 C445 1.425 1_554 S
C440 C447 1.409 . S
C441 H433 0.930 . S
C441 C439 1.419 . S
C441 C442 1.362 1_554 S
C442 H434 0.930 . S
C442 C441 1.362 1_556 S
C442 C445 1.409 . S
C443 H435 0.930 . S
C443 C444 1.355 . S
C443 C445 1.415 . S
C444 C443 1.355 . S
C444 C446 1.419 . S
C445 C440 1.425 1_556 S
C445 C442 1.409 . S
C445 C443 1.415 . S
C446 H436 0.930 . S
C446 C444 1.419 . S
C446 C447 1.362 1_556 S
C447 H437 0.930 . S
C447 C440 1.409 . S
C447 C446 1.362 1_554 S
H448 C454 0.930 . S
H449 C457 0.930 . S
H450 C458 0.930 . S
H451 C459 0.930 . S
H452 C462 0.930 . S
H453 C463 0.930 . S
C454 H448 0.930 . S
C454 C455 1.355 . S
C454 C456 1.415 . S
C455 C454 1.355 . S
C455 C457 1.419 . S
C456 C454 1.415 . S
C456 C461 1.425 . S
C456 C463 1.409 . S
C457 H449 0.930 . S
C457 C455 1.419 . S
C457 C458 1.362 . S
C458 H450 0.930 . S
C458 C457 1.362 . S
C458 C461 1.409 . S
C459 H451 0.930 . S
C459 C460 1.355 . S
C459 C461 1.415 . S
C460 C459 1.355 . S
C460 C462 1.419 . S
C461 C456 1.425 . S
C461 C458 1.409 . S
C461 C459 1.415 . S
C462 H452 0.930 . S
C462 C460 1.419 . S
C462 C463 1.362 . S
C463 H453 0.930 . S
C463 C456 1.409 . S
C463 C462 1.362 . S
H464 C470 0.930 . S
H465 C473 0.930 . S
H466 C474 0.930 . S
H467 C475 0.930 . S
H468 C478 0.930 . S
H469 C479 0.930 . S
C470 H464 0.930 . S
C470 C471 1.355 . S
C470 C472 1.415 . S
C471 C470 1.355 . S
C471 C473 1.419 . S
C472 C470 1.415 . S
C472 C477 1.425 . S
C472 C479 1.409 . S
C473 H465 0.930 . S
C473 C471 1.419 . S
C473 C474 1.362 . S
C474 H466 0.930 . S
C474 C473 1.362 . S
C474 C477 1.409 . S
C475 H467 0.930 . S
C475 C476 1.355 . S
C475 C477 1.415 . S
C476 C475 1.355 . S
C476 C478 1.419 . S
C477 C472 1.425 . S
C477 C474 1.409 . S
C477 C475 1.415 . S
C478 H468 0.930 . S
C478 C476 1.419 . S
C478 C479 1.362 . S
C479 H469 0.930 . S
C479 C472 1.409 . S
C479 C478 1.362 . S
H480 C486 0.930 . S
H481 C489 0.930 . S
H482 C490 0.930 . S
H483 C491 0.930 . S
H484 C494 0.930 . S
H485 C495 0.930 . S
C486 H480 0.930 . S
C486 C487 1.355 . S
C486 C488 1.415 . S
C487 C486 1.355 . S
C487 C489 1.419 . S
C488 C486 1.415 . S
C488 C493 1.425 . S
C488 C495 1.409 . S
C489 H481 0.930 . S
C489 C487 1.419 . S
C489 C490 1.362 . S
C490 H482 0.930 . S
C490 C489 1.362 . S
C490 C493 1.409 . S
C491 H483 0.930 . S
C491 C492 1.355 . S
C491 C493 1.415 . S
C492 C491 1.355 . S
C492 C494 1.419 . S
C493 C488 1.425 . S
C493 C490 1.409 . S
C493 C491 1.415 . S
C494 H484 0.930 . S
C494 C492 1.419 . S
C494 C495 1.362 . S
C495 H485 0.930 . S
C495 C488 1.409 . S
C495 C494 1.362 . S
H496 C502 0.930 . S
H497 C505 0.930 . S
H498 C506 0.930 . S
H499 C507 0.927 1_556 S
H500 C510 0.930 . S
H501 C511 0.930 . S
C502 H496 0.930 . S
C502 C503 1.355 . S
C502 C504 1.415 . S
C503 C502 1.355 . S
C503 C505 1.419 1_554 S
C504 C502 1.415 . S
C504 C509 1.425 . S
C504 C511 1.409 . S
C505 H497 0.930 . S
C505 C503 1.419 1_556 S
C505 C506 1.362 . S
C506 H498 0.930 . S
C506 C505 1.362 . S
C506 C509 1.409 1_556 S
C507 H499 0.927 1_554 S
C507 C508 1.357 . S
C507 C509 1.415 . S
C508 C507 1.357 . S
C508 C510 1.419 . S
C509 C504 1.425 . S
C509 C506 1.409 1_554 S
C509 C507 1.415 . S
C510 H500 0.930 . S
C510 C508 1.419 . S
C510 C511 1.362 . S
C511 H501 0.930 . S
C511 C504 1.409 . S
C511 C510 1.362 . S
H512 C518 0.930 . S
H513 C521 0.930 . S
H514 C522 0.930 1_554 S
H515 C523 0.930 1_554 S
H516 C526 0.930 . S
H517 C527 0.930 . S
C518 H512 0.930 . S
C518 C519 1.355 . S
C518 C520 1.415 . S
C519 C518 1.355 . S
C519 C521 1.419 . S
C520 C518 1.415 . S
C520 C525 1.425 . S
C520 C527 1.409 . S
C521 H513 0.930 . S
C521 C519 1.419 . S
C521 C522 1.362 . S
C522 H514 0.930 1_556 S
C522 C521 1.362 . S
C522 C525 1.409 . S
C523 H515 0.930 1_556 S
C523 C524 1.355 . S
C523 C525 1.415 . S
C524 C523 1.355 . S
C524 C526 1.419 . S
C525 C520 1.425 . S
C525 C522 1.409 . S
C525 C523 1.415 . S
C526 H516 0.930 . S
C526 C524 1.419 . S
C526 C527 1.362 . S
C527 H517 0.930 . S
C527 C520 1.409 . S
C527 C526 1.362 . S
H528 C534 0.930 . S
H529 C537 0.930 . S
H530 C538 0.930 . S
H531 C539 0.930 . S
H532 C542 0.930 . S
H533 C543 0.930 . S
C534 H528 0.930 . S
C534 C535 1.355 . S
C534 C536 1.415 1_565 S
C535 C534 1.355 . S
C535 C537 1.419 . S
C536 C534 1.415 1_545 S
C536 C541 1.425 1_545 S
C536 C543 1.409 . S
C537 H529 0.930 . S
C537 C535 1.419 . S
C537 C538 1.362 . S
C538 H530 0.930 . S
C538 C537 1.362 . S
C538 C541 1.409 . S
C539 H531 0.930 . S
C539 C540 1.355 . S
C539 C541 1.415 1_545 S
C540 C539 1.355 . S
C540 C542 1.419 . S
C541 C536 1.425 1_565 S
C541 C538 1.409 . S
C541 C539 1.415 1_565 S
C542 H532 0.930 . S
C542 C540 1.419 . S
C542 C543 1.362 . S
C543 H533 0.930 . S
C543 C536 1.409 . S
C543 C542 1.362 . S
H544 C550 0.930 . S
H545 C553 0.930 . S
H546 C554 0.930 . S
H547 C555 0.930 . S
H548 C558 0.930 . S
H549 C559 0.930 . S
C550 H544 0.930 . S
C550 C551 1.355 . S
C550 C552 1.415 1_556 S
C551 C550 1.355 . S
C551 C553 1.419 . S
C552 C550 1.415 1_554 S
C552 C557 1.425 1_544 S
C552 C559 1.409 . S
C553 H545 0.930 . S
C553 C551 1.419 . S
C553 C554 1.362 1_545 S
C554 H546 0.930 . S
C554 C553 1.362 1_565 S
C554 C557 1.409 . S
C555 H547 0.930 . S
C555 C556 1.355 . S
C555 C557 1.415 1_554 S
C556 C555 1.355 . S
C556 C558 1.419 . S
C557 C552 1.425 1_566 S
C557 C554 1.409 . S
C557 C555 1.415 1_556 S
C558 H548 0.930 . S
C558 C556 1.419 . S
C558 C559 1.362 1_565 S
C559 H549 0.930 . S
C559 C552 1.409 . S
C559 C558 1.362 1_545 S
C183 C106 1.676 . S
C188 C7 1.650 . S
C199 C16 1.241 . S
C204 C161 1.650 . S
C215 C95 1.419 . S
C220 C27 1.303 . S
C231 C38 1.419 . S
C236 C170 1.250 . S
C247 C51 1.649 . S
C252 C115 1.336 . S
C263 C148 1.303 . S
C268 C62 1.422 . S
C279 C126 1.379 . S
C284 C71 1.197 . S
C295 C139 1.658 . S
C300 C84 1.675 . S
C311 C49 1.415 . S
C316 C40 1.507 . S
C327 C137 1.344 . S
C332 C93 1.248 . S
C343 C73 1.568 . S
C348 C18 1.589 . S
C359 C150 1.598 . S
C364 C104 1.526 . S
C375 C5 1.375 . S
C380 C60 1.284 . S
C391 C172 1.601 . S
C396 C117 1.610 . S
C407 C82 1.543 . S
C412 C29 1.572 . S
C423 C128 1.498 . S
C428 C159 1.422 . S
C439 C8 1.621 . S
C444 C52 1.634 . S
C455 C19 1.571 . S
C460 C63 1.539 . S
C471 C30 1.549 . S
C476 C74 1.555 . S
C487 C41 1.577 . S
C492 C85 1.571 . S
C503 C96 1.527 . S
C508 C118 1.568 1_554 S
C519 C129 1.575 . S
C524 C107 1.574 . S
C535 C162 1.619 . S
C540 C140 1.627 . S
C551 C173 1.604 . S
C556 C151 1.607 . S
