# Generated by pormake.
# Topology bcu-g, (3)-cn, num edge types: 1
# Building blocks:
#     Node 0, Type 0, BuildingBlock: OLANEW_clean_sbu_2, # of connection points: 3
#     Node 1, Type 0, BuildingBlock: OLANEW_clean_sbu_2, # of connection points: 3
#     Node 2, Type 0, BuildingBlock: OLANEW_clean_sbu_2, # of connection points: 3
#     Node 3, Type 0, BuildingBlock: OLANEW_clean_sbu_2, # of connection points: 3
#     Node 4, Type 0, BuildingBlock: OLANEW_clean_sbu_2, # of connection points: 3
#     Node 5, Type 0, BuildingBlock: OLANEW_clean_sbu_2, # of connection points: 3
#     Node 6, Type 0, BuildingBlock: OLANEW_clean_sbu_2, # of connection points: 3
#     Node 7, Type 0, BuildingBlock: OLANEW_clean_sbu_2, # of connection points: 3
#     Node 8, Type 0, BuildingBlock: OLANEW_clean_sbu_2, # of connection points: 3
#     Node 9, Type 0, BuildingBlock: OLANEW_clean_sbu_2, # of connection points: 3
#     Node 10, Type 0, BuildingBlock: OLANEW_clean_sbu_2, # of connection points: 3
#     Node 11, Type 0, BuildingBlock: OLANEW_clean_sbu_2, # of connection points: 3
#     Node 12, Type 0, BuildingBlock: OLANEW_clean_sbu_2, # of connection points: 3
#     Node 13, Type 0, BuildingBlock: OLANEW_clean_sbu_2, # of connection points: 3
#     Node 14, Type 0, BuildingBlock: OLANEW_clean_sbu_2, # of connection points: 3
#     Node 15, Type 0, BuildingBlock: OLANEW_clean_sbu_2, # of connection points: 3
#     Edge 16, Type (0, 0), BuildingBlock: EZIPEK_clean_linker_0, # of connection points: 2
#     Edge 17, Type (0, 0), BuildingBlock: EZIPEK_clean_linker_0, # of connection points: 2
#     Edge 18, Type (0, 0), BuildingBlock: EZIPEK_clean_linker_0, # of connection points: 2
#     Edge 19, Type (0, 0), BuildingBlock: EZIPEK_clean_linker_0, # of connection points: 2
#     Edge 20, Type (0, 0), BuildingBlock: EZIPEK_clean_linker_0, # of connection points: 2
#     Edge 21, Type (0, 0), BuildingBlock: EZIPEK_clean_linker_0, # of connection points: 2
#     Edge 22, Type (0, 0), BuildingBlock: EZIPEK_clean_linker_0, # of connection points: 2
#     Edge 23, Type (0, 0), BuildingBlock: EZIPEK_clean_linker_0, # of connection points: 2
#     Edge 24, Type (0, 0), BuildingBlock: EZIPEK_clean_linker_0, # of connection points: 2
#     Edge 25, Type (0, 0), BuildingBlock: EZIPEK_clean_linker_0, # of connection points: 2
#     Edge 26, Type (0, 0), BuildingBlock: EZIPEK_clean_linker_0, # of connection points: 2
#     Edge 27, Type (0, 0), BuildingBlock: EZIPEK_clean_linker_0, # of connection points: 2
#     Edge 28, Type (0, 0), BuildingBlock: EZIPEK_clean_linker_0, # of connection points: 2
#     Edge 29, Type (0, 0), BuildingBlock: EZIPEK_clean_linker_0, # of connection points: 2
#     Edge 30, Type (0, 0), BuildingBlock: EZIPEK_clean_linker_0, # of connection points: 2
#     Edge 31, Type (0, 0), BuildingBlock: EZIPEK_clean_linker_0, # of connection points: 2
#     Edge 32, Type (0, 0), BuildingBlock: EZIPEK_clean_linker_0, # of connection points: 2
#     Edge 33, Type (0, 0), BuildingBlock: EZIPEK_clean_linker_0, # of connection points: 2
#     Edge 34, Type (0, 0), BuildingBlock: EZIPEK_clean_linker_0, # of connection points: 2
#     Edge 35, Type (0, 0), BuildingBlock: EZIPEK_clean_linker_0, # of connection points: 2
#     Edge 36, Type (0, 0), BuildingBlock: EZIPEK_clean_linker_0, # of connection points: 2
#     Edge 37, Type (0, 0), BuildingBlock: EZIPEK_clean_linker_0, # of connection points: 2
#     Edge 38, Type (0, 0), BuildingBlock: EZIPEK_clean_linker_0, # of connection points: 2
#     Edge 39, Type (0, 0), BuildingBlock: EZIPEK_clean_linker_0, # of connection points: 2
# Relax obj value: 0.041
# Max RMSD: 0.023
# Mean RMSD: 0.023
data_MOF--net-bcu-g--node1-OLANEW_clean_sbu_2--edge1-EZIPEK_clean_linker_0
_symmetry_space_group_name_H-M    P1
_symmetry_Int_Tables_number       1
_symmetry_cell_setting            triclinic
loop_
_symmetry_equiv_pos_as_xyz
'x, y, z'
_cell_length_a     37.203032
_cell_length_b     37.210196
_cell_length_c     30.495406
_cell_angle_alpha  89.963948
_cell_angle_beta   90.130125
_cell_angle_gamma 89.975938
loop_
_atom_site_label
_atom_site_type_symbol
_atom_site_fract_x
_atom_site_fract_y
_atom_site_fract_z
_atom_type_partial_charge
O0 O 0.54965 0.08517 0.20822 0.0
Cd1 Cd 0.60753 0.09617 0.17336 0.0
O2 O 0.54886 0.02981 0.18279 0.0
Cd3 Cd 0.52522 0.97575 0.18445 0.0
O4 O 0.50167 0.92207 0.20728 0.0
C5 C 0.48779 0.89766 0.18291 0.0
O6 O 0.50167 0.92176 0.20894 0.0
C7 C 0.53469 0.05457 0.2057 0.0
C8 C 0.66349 0.06726 0.22313 0.0
O9 O 0.64887 0.04908 0.1922 0.0
O10 O 0.65185 0.09907 0.23066 0.0
O11 O 0.48403 0.67487 0.16174 0.0
Cd12 Cd 0.45029 0.71934 0.1196 0.0
O13 O 0.51221 0.65636 0.10262 0.0
Cd14 Cd 0.54984 0.61892 0.07224 0.0
O15 O 0.57817 0.57551 0.03895 0.0
C16 C 0.55884 0.55121 0.02165 0.0
O17 O 0.52374 0.55283 0.02592 0.0
C18 C 0.50644 0.6539 0.14353 0.0
C19 C 0.42386 0.77376 0.17313 0.0
O20 O 0.40528 0.74535 0.16607 0.0
O21 O 0.45478 0.77647 0.15504 0.0
O22 O 0.93736 0.40215 0.2173 0.0
Cd23 Cd 0.88353 0.36966 0.19389 0.0
O24 O 0.94821 0.41494 0.14858 0.0
Cd25 Cd 0.97999 0.43416 0.09236 0.0
O26 O 0.01958 0.41547 0.04419 0.0
C27 C 0.03881 0.43376 0.01797 0.0
O28 O 0.06075 0.41687 0.99132 0.0
C29 C 0.95657 0.41812 0.18896 0.0
C30 C 0.82113 0.40251 0.22489 0.0
O31 O 0.83639 0.37728 0.24669 0.0
O32 O 0.83523 0.41221 0.18845 0.0
O33 O 0.95874 0.85138 0.13312 0.0
Cd34 Cd 0.98908 0.82368 0.07067 0.0
O35 O 0.90472 0.84331 0.10527 0.0
Cd36 Cd 0.92695 0.84592 0.03945 0.0
O37 O 0.93667 0.89209 -0.00319 0.0
C38 C 0.9098 0.91177 0.98733 0.0
O39 O 0.8776 0.90193 0.00026 0.0
C40 C 0.92477 0.8516 0.13749 0.0
C41 C 0.02573 0.76305 0.10109 0.0
O42 O 0.04147 0.79361 0.09854 0.0
O43 O 0.993 0.76081 0.08823 0.0
O44 O 0.60467 0.54701 0.26784 0.0
Cd45 Cd 0.62966 0.50448 0.32107 0.0
O46 O 0.54911 0.52698 0.27422 0.0
Cd47 Cd 0.56008 0.49245 0.33012 0.0
O48 O 0.543 0.48511 0.39772 0.0
C49 C 0.51509 0.50288 0.40807 0.0
O50 O 0.49906 0.52278 0.37828 0.0
C51 C 0.57177 0.54794 0.25652 0.0
C52 C 0.69176 0.47121 0.28985 0.0
O53 O 0.69338 0.50151 0.30973 0.0
O54 O 0.66086 0.45657 0.28468 0.0
O55 O 0.09722 0.52528 0.2075 0.0
Cd56 Cd 0.13213 0.58055 0.21537 0.0
O57 O 0.05388 0.55251 0.24244 0.0
Cd58 Cd 0.00301 0.55764 0.2788 0.0
O59 O 0.97806 0.55202 0.34368 0.0
C60 C 0.94474 0.54945 0.35228 0.0
O61 O 0.92095 0.5502 0.32041 0.0
C62 C 0.06542 0.5247 0.2225 0.0
C63 C 0.09768 0.63939 0.17713 0.0
O64 O 0.12022 0.62058 0.15521 0.0
O65 O 0.09135 0.63042 0.21696 0.0
O66 O 0.87176 0.94235 0.30369 0.0
Cd67 Cd 0.84294 0.97733 0.36141 0.0
O68 O 0.86191 0.88956 0.33401 0.0
Cd69 Cd 0.85952 0.91505 0.3982 0.0
O70 O 0.89345 0.93454 0.45163 0.0
C71 C 0.92617 0.93995 0.44161 0.0
O72 O 0.93674 0.93454 0.40108 0.0
C73 C 0.87161 0.90825 0.30123 0.0
C74 C 0.78277 0.00874 0.3224 0.0
O75 O 0.81329 0.02468 0.32214 0.0
O76 O 0.78015 0.9786 0.34246 0.0
O77 O 0.38585 0.99774 0.30182 0.0
Cd78 Cd 0.35144 0.94825 0.33283 0.0
O79 O 0.43225 0.96862 0.3281 0.0
Cd80 Cd 0.48991 0.96259 0.34144 0.0
O81 O 0.54108 0.97236 0.38067 0.0
C82 C 0.53711 0.97053 0.42217 0.0
O83 O 0.54306 0.97281 0.38 0.0
C84 C 0.4197 0.99398 0.3046 0.0
C85 C 0.37096 0.88834 0.28385 0.0
O86 O 0.34388 0.9076 0.2727 0.0
O87 O 0.38787 0.89632 0.31917 0.0
O88 O 0.47205 0.95981 0.81884 0.0
Cd89 Cd 0.42236 0.93092 0.85748 0.0
O90 O 0.51575 0.92599 0.8455 0.0
Cd91 Cd 0.48344 0.90298 0.898 0.0
O92 O 0.47435 0.89269 0.9676 0.0
C93 C 0.49075 0.91336 0.99411 0.0
O94 O 0.51072 0.93953 0.97862 0.0
C95 C 0.50492 0.95046 0.81957 0.0
C96 C 0.35852 0.94447 0.81177 0.0
O97 O 0.37879 0.918 0.80131 0.0
O98 O 0.36798 0.96415 0.84429 0.0
O99 O 0.52972 0.35598 0.86556 0.0
Cd100 Cd 0.57965 0.31938 0.89239 0.0
O101 O 0.56478 0.38202 0.81683 0.0
Cd102 Cd 0.61168 0.37144 0.85766 0.0
O103 O 0.61671 0.40757 0.91358 0.0
C104 C 0.60328 0.43829 0.90547 0.0
O105 O 0.59198 0.44545 0.86558 0.0
C106 C 0.53363 0.37611 0.83224 0.0
C107 C 0.59563 0.26765 0.82927 0.0
O108 O 0.57228 0.2616 0.85919 0.0
O109 O 0.61224 0.29781 0.82965 0.0
O110 O 0.06828 0.59531 0.84618 0.0
Cd111 Cd 0.12137 0.61617 0.88606 0.0
O112 O 0.02803 0.63302 0.8726 0.0
Cd113 Cd 0.0655 0.64524 0.92527 0.0
O114 O 0.06894 0.59549 0.96248 0.0
C115 C 0.04179 0.58607 0.98492 0.0
O116 O 0.01524 0.60888 0.99053 0.0
C117 C 0.03651 0.60797 0.84625 0.0
C118 C 0.18254 0.5915 0.84272 0.0
O119 O 0.16839 0.57311 0.87374 0.0
O120 O 0.16838 0.62182 0.83273 0.0
O121 O 0.01042 0.17446 0.81186 0.0
Cd122 Cd 0.96142 0.2014 0.85377 0.0
O123 O 1.00114 0.11848 0.83364 0.0
Cd124 Cd 0.95787 0.12208 0.88127 0.0
O125 O 0.94016 0.07607 0.92023 0.0
C126 C 0.93009 0.04842 0.89901 0.0
O127 O 0.92752 0.05022 0.85608 0.0
C128 C 0.01814 0.1412 0.81053 0.0
C129 C 0.93932 0.26528 0.8138 0.0
O130 O 0.96459 0.26514 0.84242 0.0
O131 O 0.92406 0.23538 0.80437 0.0
O132 O 0.39603 0.46279 0.74266 0.0
Cd133 Cd 0.36094 0.50553 0.69907 0.0
O134 O 0.44743 0.48539 0.71944 0.0
Cd135 Cd 0.42518 0.51918 0.66803 0.0
O136 O 0.43847 0.52596 0.59912 0.0
C137 C 0.45928 0.50167 0.58458 0.0
O138 O 0.46982 0.47569 0.61081 0.0
C139 C 0.43017 0.46363 0.74353 0.0
C140 C 0.30364 0.53421 0.74626 0.0
O141 O 0.33466 0.54916 0.74733 0.0
O142 O 0.29961 0.50582 0.72301 0.0
O143 O 0.918 0.51071 0.73977 0.0
Cd144 Cd 0.88747 0.46723 0.69293 0.0
O145 O 0.94456 0.54178 0.68732 0.0
Cd146 Cd 0.91675 0.51797 0.63137 0.0
O147 O 0.91028 0.51415 0.56031 0.0
C148 C 0.92055 0.54144 0.53859 0.0
O149 O 0.93199 0.57 0.55971 0.0
C150 C 0.93973 0.53513 0.72774 0.0
C151 C 0.9009 0.39958 0.72911 0.0
O152 O 0.92201 0.41298 0.70027 0.0
O153 O 0.87283 0.41747 0.73985 0.0
O154 O 0.1391 0.0472 0.70156 0.0
Cd155 Cd 0.1669 0.99544 0.66587 0.0
O156 O 0.0836 0.03605 0.67924 0.0
Cd157 Cd 0.09131 0.9929 0.632 0.0
O158 O 0.05821 0.96871 0.58059 0.0
C159 C 0.03061 0.98702 0.57013 0.0
O160 O 0.02489 0.01805 0.58942 0.0
C161 C 0.10567 0.05427 0.702 0.0
C162 C 0.22944 0.97695 0.71169 0.0
O163 O 0.19873 0.96481 0.72355 0.0
O164 O 0.23075 0.99724 0.67775 0.0
O165 O 0.58146 0.05178 0.67917 0.0
Cd166 Cd 0.61205 0.09966 0.63931 0.0
O167 O 0.63156 0.02429 0.69843 0.0
Cd168 Cd 0.65617 0.04732 0.64011 0.0
O169 O 0.63478 0.0376 0.57458 0.0
C170 C 0.64088 0.00763 0.55607 0.0
O171 O 0.66401 0.98519 0.57378 0.0
C172 C 0.59782 0.02856 0.70238 0.0
C173 C 0.61292 0.15783 0.6967 0.0
O174 O 0.58705 0.15359 0.6694 0.0
O175 O 0.63926 0.13564 0.69555 0.0
C176 C 0.46914 0.04055 0.2108 0.0
C177 C 0.5024 0.04669 0.2321 0.0
C178 C 0.47486 0.03218 0.30258 0.0
C179 C 0.44463 0.01794 0.28024 0.0
N180 N 0.4122 0.00913 0.2119 0.0
N181 N 0.53786 0.04776 0.29836 0.0
C182 C 0.44106 0.02296 0.23407 0.0
C183 C 0.50541 0.04293 0.27815 0.0
N184 N 0.46455 0.05168 0.16845 0.0
N185 N 0.47401 0.03593 0.34712 0.0
H186 H 0.56096 0.05595 0.28185 0.0
H187 H 0.54245 0.04103 0.33096 0.0
H188 H 0.4515 0.02903 0.36567 0.0
H189 H 0.49398 0.04914 0.36486 0.0
H190 H 0.43984 0.05156 0.15235 0.0
H191 H 0.48492 0.06432 0.15071 0.0
H192 H 0.4095 0.00992 0.17796 0.0
H193 H 0.3917 0.99452 0.22658 0.0
C194 C 0.5479 0.63815 0.20531 0.0
C195 C 0.52574 0.62672 0.1701 0.0
C196 C 0.54071 0.56393 0.18633 0.0
C197 C 0.55879 0.57522 0.22491 0.0
N198 N 0.57487 0.62291 0.27508 0.0
N199 N 0.49705 0.5786 0.13005 0.0
C200 C 0.5614 0.61231 0.23538 0.0
C201 C 0.52122 0.58954 0.16115 0.0
N202 N 0.55684 0.67364 0.20938 0.0
N203 N 0.54281 0.52884 0.17336 0.0
H204 H 0.48192 0.59645 0.11119 0.0
H205 H 0.48977 0.55185 0.12538 0.0
H206 H 0.55737 0.50952 0.19075 0.0
H207 H 0.53301 0.51958 0.14344 0.0
H208 H 0.57596 0.68297 0.23164 0.0
H209 H 0.54783 0.69336 0.18765 0.0
H210 H 0.57345 0.64927 0.28641 0.0
H211 H 0.58463 0.605 0.29855 0.0
C212 C 0.01942 0.44056 0.1764 0.0
C213 C 0.98815 0.44009 0.20271 0.0
C214 C 0.01809 0.48283 0.25125 0.0
C215 C 0.04239 0.49209 0.21752 0.0
N216 N 0.06282 0.47967 0.14322 0.0
N217 N 0.95675 0.46656 0.26482 0.0
C218 C 0.04268 0.47066 0.17885 0.0
C219 C 0.98722 0.46241 0.24056 0.0
N220 N 0.02756 0.41206 0.15014 0.0
N221 N 0.02501 0.49214 0.29363 0.0
H222 H 0.93217 0.4549 0.25695 0.0
H223 H 0.95521 0.48543 0.28998 0.0
H224 H 0.04852 0.50552 0.30281 0.0
H225 H 0.00917 0.48309 0.31952 0.0
H226 H 0.05172 0.41032 0.13296 0.0
H227 H 0.01176 0.38888 0.14932 0.0
H228 H 0.06086 0.46541 0.11396 0.0
H229 H 0.07794 0.50309 0.14081 0.0
C230 C 0.86696 0.90217 0.21977 0.0
C231 C 0.88272 0.89075 0.25981 0.0
C232 C 0.9204 0.84813 0.21946 0.0
C233 C 0.90871 0.86365 0.17938 0.0
N234 N 0.87582 0.91089 0.14211 0.0
N235 N 0.92915 0.85698 0.29728 0.0
C236 C 0.88314 0.89204 0.17959 0.0
C237 C 0.91059 0.86463 0.25967 0.0
N238 N 0.83603 0.92201 0.22002 0.0
N239 N 0.94016 0.81715 0.21922 0.0
H240 H 0.92381 0.86925 0.32728 0.0
H241 H 0.95218 0.84104 0.2978 0.0
H242 H 0.94709 0.80373 0.19041 0.0
H243 H 0.94643 0.80284 0.2476 0.0
H244 H 0.82164 0.92818 0.19163 0.0
H245 H 0.82263 0.92893 0.24883 0.0
H246 H 0.86022 0.93417 0.14179 0.0
H247 H 0.88824 0.90578 0.11217 0.0
C248 C 0.57941 0.01192 0.77871 0.0
C249 C 0.57693 0.00594 0.73288 0.0
C250 C 0.52786 0.96293 0.74393 0.0
C251 C 0.53075 0.96833 0.7899 0.0
N252 N 0.56186 0.99391 0.85207 0.0
N253 N 0.55406 0.97177 0.67187 0.0
C254 C 0.55753 0.99141 0.80761 0.0
C255 C 0.5526 0.98029 0.71548 0.0
N256 N 0.60133 0.03853 0.79435 0.0
N257 N 0.5012 0.94145 0.7275 0.0
H258 H 0.57189 0.98402 0.65015 0.0
H259 H 0.53983 0.95071 0.65765 0.0
H260 H 0.48419 0.92622 0.74727 0.0
H261 H 0.49465 0.93995 0.69436 0.0
H262 H 0.60119 0.04748 0.82666 0.0
H263 H 0.61839 0.05347 0.77429 0.0
H264 H 0.58351 0.00672 0.86701 0.0
H265 H 0.54485 0.98137 0.87447 0.0
C266 C 0.46471 0.44921 0.81165 0.0
C267 C 0.45072 0.43796 0.77065 0.0
C268 C 0.48793 0.38361 0.77264 0.0
C269 C 0.50243 0.39516 0.81327 0.0
N270 N 0.50071 0.43482 0.87583 0.0
N271 N 0.44287 0.39212 0.71576 0.0
C272 C 0.48935 0.42659 0.83432 0.0
C273 C 0.46031 0.40426 0.7524 0.0
N274 N 0.45539 0.48217 0.82792 0.0
N275 N 0.50138 0.35347 0.75294 0.0
H276 H 0.42282 0.40689 0.69994 0.0
H277 H 0.44611 0.36647 0.7028 0.0
H278 H 0.52019 0.33673 0.76807 0.0
H279 H 0.49526 0.34573 0.72101 0.0
H280 H 0.46774 0.49416 0.85483 0.0
H281 H 0.43605 0.49851 0.81313 0.0
H282 H 0.48982 0.45534 0.89476 0.0
H283 H 0.51959 0.41951 0.89287 0.0
C284 C 0.00353 0.55285 0.82296 0.0
C285 C 0.00879 0.59045 0.81872 0.0
C286 C 0.96278 0.59242 0.76115 0.0
C287 C 0.9618 0.55426 0.76084 0.0
N288 N 0.98672 0.49786 0.78643 0.0
N289 N 0.99654 0.64586 0.78033 0.0
C290 C 0.98344 0.53431 0.79058 0.0
C291 C 0.98908 0.61034 0.78708 0.0
N292 N 0.01702 0.53487 0.8585 0.0
N293 N 0.93797 0.61154 0.73764 0.0
H294 H 0.01579 0.65987 0.79841 0.0
H295 H 0.98583 0.66066 0.75441 0.0
H296 H 0.91781 0.5993 0.71911 0.0
H297 H 0.93517 0.63933 0.73998 0.0
H298 H 0.0107 0.50819 0.86549 0.0
H299 H 0.0313 0.54757 0.88356 0.0
H300 H 0.0052 0.48276 0.80439 0.0
H301 H 0.97386 0.483 0.76206 0.0
C302 C 0.07494 0.10678 0.80202 0.0
C303 C 0.04744 0.12764 0.78227 0.0
C304 C 0.0694 0.11019 0.70978 0.0
C305 C 0.09124 0.08353 0.72974 0.0
N306 N 0.11387 0.05503 0.79558 0.0
N307 N 0.01745 0.14892 0.71684 0.0
C308 C 0.09445 0.08187 0.77609 0.0
C309 C 0.0448 0.12996 0.73593 0.0
N310 N 0.08219 0.11083 0.84568 0.0
N311 N 0.0723 0.1165 0.66578 0.0
H312 H 0.99894 0.16399 0.73464 0.0
H313 H 0.01165 0.14782 0.68344 0.0
H314 H 0.09053 0.10264 0.64604 0.0
H315 H 0.05949 0.13774 0.64989 0.0
H316 H 0.10404 0.09878 0.86126 0.0
H317 H 0.06848 0.1293 0.86524 0.0
H318 H 0.11338 0.05003 0.82919 0.0
H319 H 0.12847 0.03596 0.77811 0.0
C320 C 0.50109 0.87691 0.06226 0.0
C321 C 0.48741 0.90844 0.04211 0.0
C322 C 0.47238 0.93348 0.11425 0.0
C323 C 0.48603 0.90179 0.13445 0.0
N324 N 0.50477 0.83997 0.12756 0.0
N325 N 0.45352 0.9634 0.04714 0.0
C326 C 0.49747 0.87239 0.10832 0.0
C327 C 0.47138 0.93593 0.06765 0.0
N328 N 0.51928 0.85211 0.03772 0.0
N329 N 0.45945 0.96085 0.13943 0.0
H330 H 0.4517 0.96564 0.01311 0.0
H331 H 0.43792 0.9824 0.06334 0.0
H332 H 0.4544 0.9582 0.17282 0.0
H333 H 0.45458 0.98654 0.12739 0.0
H334 H 0.53361 0.83074 0.05121 0.0
H335 H 0.52265 0.85441 0.0039 0.0
H336 H 0.50933 0.81649 0.10987 0.0
H337 H 0.50328 0.83567 0.16132 0.0
C338 C 0.5745 0.4578 0.97619 0.0
C339 C 0.59765 0.46532 0.94038 0.0
C340 C 0.59721 0.52931 0.95914 0.0
C341 C 0.5752 0.52163 -0.00403 0.0
N342 N 0.55117 0.47771 0.04615 0.0
N343 N 0.63854 0.50604 0.90478 0.0
C344 C 0.5665 0.48555 0.00659 0.0
C345 C 0.61149 0.50042 0.93423 0.0
N346 N 0.55832 0.42495 0.97983 0.0
N347 N 0.60261 0.56404 0.94604 0.0
H348 H 0.64987 0.48525 0.88646 0.0
H349 H 0.65215 0.53039 0.90187 0.0
H350 H 0.59187 0.58615 0.96236 0.0
H351 H 0.61504 0.57084 0.91661 0.0
H352 H 0.53787 0.41962 0.00218 0.0
H353 H 0.56306 0.40376 0.9583 0.0
H354 H 0.54749 0.45156 0.05749 0.0
H355 H 0.54558 0.49734 0.06955 0.0
C356 C 0.06802 0.494 0.02733 0.0
C357 C 0.03703 0.47351 0.01654 0.0
C358 C 0.00817 0.52724 0.98625 0.0
C359 C 0.03837 0.54815 -0.00063 0.0
N360 N 0.09264 0.55302 0.04223 0.0
N361 N 0.97477 0.47178 0.99408 0.0
C362 C 0.06699 0.53198 0.02292 0.0
C363 C 0.00601 0.49063 -0.0007 0.0
N364 N 0.09871 0.47719 0.04115 0.0
N365 N 0.98299 0.54123 0.95826 0.0
H366 H 0.97248 0.44442 0.00082 0.0
H367 H 0.95032 0.48396 0.98647 0.0
H368 H 0.9842 0.56717 0.94554 0.0
H369 H 0.96286 0.52587 0.94367 0.0
H370 H 0.12334 0.49027 0.04409 0.0
H371 H 0.09998 0.44971 0.04776 0.0
H372 H 0.1121 0.54301 0.06361 0.0
H373 H 0.09224 0.58102 0.04045 0.0
C374 C 0.94346 0.98248 0.90697 0.0
C375 C 0.92482 0.01353 0.92179 0.0
C376 C 0.90026 0.97867 0.98295 0.0
C377 C 0.91493 0.94674 0.96465 0.0
N378 N 0.94444 0.91756 0.90384 0.0
N379 N 0.87978 0.03937 0.96916 0.0
C380 C 0.93483 0.94841 0.92509 0.0
C381 C 0.90157 0.01114 0.95847 0.0
N382 N 0.9707 0.9856 0.87719 0.0
N383 N 0.88669 0.97855 0.02457 0.0
H384 H 0.87925 0.06334 0.95143 0.0
H385 H 0.8597 0.03762 0.99283 0.0
H386 H 0.88681 0.95587 0.04465 0.0
H387 H 0.87897 0.00189 0.04091 0.0
H388 H 0.9874 0.96423 0.8687 0.0
H389 H 0.9793 0.0102 0.86465 0.0
H390 H 0.95579 0.91746 0.87262 0.0
H391 H 0.93772 0.89201 0.91523 0.0
C392 C 0.50956 0.51293 0.53204 0.0
C393 C 0.47316 0.50322 0.5393 0.0
C394 C 0.46549 0.48996 0.46117 0.0
C395 C 0.50106 0.50219 0.4534 0.0
N396 N 0.55488 0.53135 0.4797 0.0
N397 N 0.41481 0.48707 0.51096 0.0
C398 C 0.52266 0.51516 0.48839 0.0
C399 C 0.45056 0.49328 0.50384 0.0
N400 N 0.53166 0.51991 0.56691 0.0
N401 N 0.44664 0.47357 0.42822 0.0
H402 H 0.40321 0.48773 0.54205 0.0
H403 H 0.39611 0.4838 0.48583 0.0
H404 H 0.45694 0.47 0.39674 0.0
H405 H 0.42214 0.46064 0.43288 0.0
H406 H 0.55942 0.52263 0.56417 0.0
H407 H 0.5226 0.52085 0.59924 0.0
H408 H 0.56998 0.54494 0.5032 0.0
H409 H 0.56525 0.53403 0.44813 0.0
C410 C 0.94375 0.5143 0.46865 0.0
C411 C 0.92239 0.54057 0.49004 0.0
C412 C 0.91325 0.57191 0.42002 0.0
C413 C 0.93335 0.54475 0.39852 0.0
N414 N 0.95846 0.48509 0.40021 0.0
N415 N 0.87985 0.58929 0.48486 0.0
C416 C 0.94568 0.51435 0.42221 0.0
C417 C 0.90494 0.56783 0.46529 0.0
N418 N 0.96401 0.49062 0.49253 0.0
N419 N 0.9036 0.60239 0.3979 0.0
H420 H 0.87271 0.5866 0.51777 0.0
H421 H 0.86367 0.60729 0.46762 0.0
H422 H 0.90899 0.60634 0.36471 0.0
H423 H 0.89264 0.62489 0.41316 0.0
H424 H 0.98311 0.47372 0.47849 0.0
H425 H 0.96438 0.49006 0.52668 0.0
H426 H 0.96465 0.4608 0.41548 0.0
H427 H 0.95889 0.48381 0.36612 0.0
C428 C 0.99892 0.99468 0.49822 0.0
C429 C 0.00485 0.97395 0.53664 0.0
C430 C 0.96088 0.92945 0.51122 0.0
C431 C 0.95247 0.95198 0.47503 0.0
N432 N 0.95892 0.00882 0.43782 0.0
N433 N 0.98741 0.92477 0.58364 0.0
C434 C 0.97028 0.98537 0.4695 0.0
C435 C 0.98479 0.94212 0.54422 0.0
N436 N 0.02148 0.02253 0.48838 0.0
N437 N 0.94713 0.89542 0.51325 0.0
H438 H 0.00451 0.9332 0.60874 0.0
H439 H 0.97045 0.90386 0.59291 0.0
H440 H 0.92965 0.88504 0.48968 0.0
H441 H 0.95546 0.87639 0.53618 0.0
H442 H 0.02089 0.03621 0.45858 0.0
H443 H 0.0431 0.02985 0.5083 0.0
H444 H 0.96824 0.03513 0.43526 0.0
H445 H 0.9377 0.00318 0.41649 0.0
C446 C 0.57184 0.9551 0.48945 0.0
C447 C 0.56612 0.97909 0.45399 0.0
C448 C 0.61488 0.01745 0.4812 0.0
C449 C 0.61741 0.99596 0.51943 0.0
N450 N 0.59321 0.94774 0.56379 0.0
N451 N 0.57595 0.03813 0.42306 0.0
C452 C 0.59473 0.96549 0.52455 0.0
C453 C 0.58615 0.01156 0.45135 0.0
N454 N 0.5557 0.92208 0.48942 0.0
N455 N 0.64001 0.04341 0.47326 0.0
H456 H 0.55264 0.03655 0.40429 0.0
H457 H 0.58784 0.06347 0.42251 0.0
H458 H 0.66156 0.04827 0.4944 0.0
H459 H 0.64141 0.05747 0.44374 0.0
H460 H 0.56207 0.90196 0.51191 0.0
H461 H 0.5383 0.91358 0.46463 0.0
H462 H 0.57404 0.92818 0.57081 0.0
H463 H 0.60868 0.95471 0.59098 0.0
C464 C 0.72015 0.03424 0.31941 0.0
C465 C 0.75197 0.0236 0.29736 0.0
C466 C 0.7267 0.04425 0.22739 0.0
C467 C 0.69383 0.0522 0.2488 0.0
N468 N 0.65687 0.04946 0.31362 0.0
N469 N 0.78304 0.01171 0.22945 0.0
C470 C 0.68987 0.04578 0.29445 0.0
C471 C 0.75459 0.02675 0.25107 0.0
N472 N 0.71928 0.03448 0.36423 0.0
N473 N 0.73183 0.05466 0.18485 0.0
H474 H 0.80392 0.99831 0.24543 0.0
H475 H 0.78433 0.00956 0.19544 0.0
H476 H 0.71219 0.06778 0.16636 0.0
H477 H 0.7566 0.05325 0.1691 0.0
H478 H 0.69832 0.04556 0.38231 0.0
H479 H 0.74094 0.02623 0.38354 0.0
H480 H 0.65133 0.04147 0.34563 0.0
H481 H 0.63407 0.05772 0.29636 0.0
C482 C 0.39443 0.86646 0.21158 0.0
C483 C 0.38372 0.85879 0.2553 0.0
C484 C 0.40215 0.79598 0.24611 0.0
C485 C 0.40985 0.80295 0.20133 0.0
N486 N 0.40774 0.8431 0.13919 0.0
N487 N 0.37125 0.81528 0.31189 0.0
C488 C 0.40442 0.83774 0.18339 0.0
C489 C 0.3859 0.82326 0.27198 0.0
N490 N 0.39648 0.90133 0.19754 0.0
N491 N 0.41174 0.76382 0.26445 0.0
H492 H 0.35872 0.83445 0.33157 0.0
H493 H 0.36853 0.78916 0.32371 0.0
H494 H 0.42409 0.74327 0.24677 0.0
H495 H 0.41046 0.75867 0.29798 0.0
H496 H 0.40681 0.90883 0.16723 0.0
H497 H 0.39075 0.92328 0.21757 0.0
H498 H 0.40051 0.86687 0.12346 0.0
H499 H 0.41483 0.82272 0.1174 0.0
C500 C 0.75693 0.42209 0.21449 0.0
C501 C 0.78801 0.4201 0.24148 0.0
C502 C 0.75449 0.44779 0.3018 0.0
C503 C 0.72485 0.45356 0.27321 0.0
N504 N 0.70102 0.45297 0.19944 0.0
N505 N 0.81863 0.43823 0.30783 0.0
C506 C 0.7269 0.44258 0.2287 0.0
C507 C 0.78746 0.43494 0.28436 0.0
N508 N 0.75538 0.40322 0.17608 0.0
N509 N 0.75083 0.45307 0.34592 0.0
H510 H 0.8436 0.43026 0.29578 0.0
H511 H 0.82026 0.45225 0.33734 0.0
H512 H 0.72681 0.46128 0.36036 0.0
H513 H 0.77047 0.44572 0.36862 0.0
H514 H 0.73198 0.40078 0.15749 0.0
H515 H 0.77631 0.38696 0.16502 0.0
H516 H 0.7032 0.44882 0.16576 0.0
H517 H 0.67917 0.46902 0.20804 0.0
C518 C 0.04632 0.69865 0.09634 0.0
C519 C 0.04449 0.7314 0.1201 0.0
C520 C 0.08144 0.70494 0.17846 0.0
C521 C 0.07967 0.67107 0.15717 0.0
N522 N 0.05404 0.63412 0.10001 0.0
N523 N 0.05357 0.76305 0.18844 0.0
C524 C 0.06039 0.66745 0.11717 0.0
C525 C 0.06021 0.73386 0.16248 0.0
N526 N 0.03592 0.69756 0.05335 0.0
N527 N 0.10445 0.71002 0.21291 0.0
H528 H 0.03708 0.78431 0.17881 0.0
H529 H 0.06131 0.76438 0.22126 0.0
H530 H 0.1214 0.68992 0.22483 0.0
H531 H 0.10945 0.73517 0.22663 0.0
H532 H 0.04027 0.67536 0.03323 0.0
H533 H 0.02626 0.72 0.03654 0.0
H534 H 0.03683 0.62976 0.07357 0.0
H535 H 0.06293 0.61045 0.11479 0.0
C536 C 0.28567 0.99665 0.75092 0.0
C537 C 0.26248 0.96848 0.73723 0.0
C538 C 0.29992 0.92516 0.77734 0.0
C539 C 0.32539 0.95265 0.78623 0.0
N540 N 0.34612 0.01311 0.7719 0.0
N541 N 0.25204 0.90468 0.72973 0.0
C542 C 0.31931 0.98803 0.77034 0.0
C543 C 0.27083 0.93233 0.74829 0.0
N544 N 0.27505 0.0317 0.74729 0.0
N545 N 0.30251 0.89265 0.79799 0.0
H546 H 0.23142 0.90862 0.70702 0.0
H547 H 0.25943 0.87782 0.73331 0.0
H548 H 0.32256 0.88668 0.82079 0.0
H549 H 0.28261 0.87302 0.79598 0.0
H550 H 0.28953 0.05294 0.76086 0.0
H551 H 0.24998 0.03933 0.7351 0.0
H552 H 0.34409 0.03814 0.75673 0.0
H553 H 0.37177 0.00764 0.78399 0.0
C554 C 0.6067 0.22282 0.71756 0.0
C555 C 0.61126 0.18647 0.73043 0.0
C556 C 0.61235 0.20489 0.8076 0.0
C557 C 0.60291 0.24036 0.79498 0.0
N558 N 0.58546 0.28199 0.73787 0.0
N559 N 0.61176 0.14192 0.78821 0.0
C560 C 0.59876 0.24916 0.74989 0.0
C561 C 0.61248 0.17719 0.77561 0.0
N562 N 0.61093 0.23238 0.6746 0.0
N563 N 0.62224 0.19781 0.84993 0.0
H564 H 0.61067 0.12065 0.76603 0.0
H565 H 0.60864 0.13381 0.82068 0.0
H566 H 0.62336 0.21758 0.87413 0.0
H567 H 0.63288 0.17322 0.85992 0.0
H568 H 0.61159 0.25899 0.66399 0.0
H569 H 0.61733 0.2139 0.65012 0.0
H570 H 0.57811 0.28832 0.7058 0.0
H571 H 0.57862 0.30191 0.76036 0.0
C572 C 0.24651 0.56985 0.84031 0.0
C573 C 0.21384 0.57748 0.81804 0.0
C574 C 0.24167 0.56074 0.74812 0.0
C575 C 0.273 0.54956 0.77099 0.0
N576 N 0.30323 0.53783 0.83963 0.0
N577 N 0.17805 0.57401 0.75201 0.0
C578 C 0.27495 0.55265 0.81733 0.0
C579 C 0.21079 0.57131 0.77224 0.0
N580 N 0.25085 0.58021 0.883 0.0
N581 N 0.2418 0.56256 0.70334 0.0
H582 H 0.15458 0.58107 0.76853 0.0
H583 H 0.17349 0.56596 0.71977 0.0
H584 H 0.26406 0.55557 0.68443 0.0
H585 H 0.22113 0.57421 0.68514 0.0
H586 H 0.27535 0.5789 0.89951 0.0
H587 H 0.2308 0.59322 0.9008 0.0
H588 H 0.30415 0.53576 0.87368 0.0
H589 H 0.3244 0.52461 0.82411 0.0
C590 C 0.92852 0.30186 0.74549 0.0
C591 C 0.92825 0.29924 0.79197 0.0
C592 C 0.91288 0.36319 0.7971 0.0
C593 C 0.90954 0.36485 0.75073 0.0
N594 N 0.90713 0.33384 0.68132 0.0
N595 N 0.91249 0.32545 0.86175 0.0
C596 C 0.91534 0.33361 0.72503 0.0
C597 C 0.91822 0.32936 0.81774 0.0
N598 N 0.94295 0.27481 0.72082 0.0
N599 N 0.91273 0.39405 0.82141 0.0
H600 H 0.91515 0.30092 0.87799 0.0
H601 H 0.90156 0.34565 0.88124 0.0
H602 H 0.91001 0.41957 0.80764 0.0
H603 H 0.91895 0.39463 0.85473 0.0
H604 H 0.94733 0.27702 0.6872 0.0
H605 H 0.95387 0.25151 0.73441 0.0
H606 H 0.90726 0.31078 0.66197 0.0
H607 H 0.89676 0.35635 0.66528 0.0
loop_
_geom_bond_atom_site_label_1
_geom_bond_atom_site_label_2
_geom_bond_distance
_geom_bond_site_symmetry_2
_ccdc_geom_bond_type
O0 Cd1 2.300 . S
O0 C7 1.275 . S
Cd1 O0 2.300 . S
Cd1 O9 2.381 . S
Cd1 O10 2.378 . S
O2 Cd3 2.385 1_545 S
O2 C7 1.255 . S
Cd3 O2 2.385 1_565 S
Cd3 O4 2.317 1_565 S
O4 Cd3 2.317 1_545 S
O4 C5 1.232 . S
C5 O4 1.232 . S
C5 O6 1.218 . S
O6 C5 1.218 . S
C7 O0 1.275 . S
C7 O2 1.255 . S
C8 O9 1.258 . S
C8 O10 1.256 . S
O9 Cd1 2.381 . S
O9 C8 1.258 . S
O10 Cd1 2.378 . S
O10 C8 1.256 . S
O11 Cd12 2.300 . S
O11 C18 1.275 . S
Cd12 O11 2.300 . S
Cd12 O20 2.381 . S
Cd12 O21 2.378 . S
O13 Cd14 2.385 . S
O13 C18 1.255 . S
Cd14 O13 2.385 . S
Cd14 O15 2.317 . S
O15 Cd14 2.317 . S
O15 C16 1.232 . S
C16 O15 1.232 . S
C16 O17 1.218 . S
O17 C16 1.218 . S
C18 O11 1.275 . S
C18 O13 1.255 . S
C19 O20 1.258 . S
C19 O21 1.256 . S
O20 Cd12 2.381 . S
O20 C19 1.258 . S
O21 Cd12 2.378 . S
O21 C19 1.256 . S
O22 Cd23 2.300 . S
O22 C29 1.275 . S
Cd23 O22 2.300 . S
Cd23 O31 2.381 . S
Cd23 O32 2.378 . S
O24 Cd25 2.385 . S
O24 C29 1.255 . S
Cd25 O24 2.385 . S
Cd25 O26 2.317 . S
O26 Cd25 2.317 . S
O26 C27 1.232 . S
C27 O26 1.232 . S
C27 O28 1.218 . S
O28 C27 1.218 . S
C29 O22 1.275 . S
C29 O24 1.255 . S
C30 O31 1.258 . S
C30 O32 1.256 . S
O31 Cd23 2.381 . S
O31 C30 1.258 . S
O32 Cd23 2.378 . S
O32 C30 1.256 . S
O33 Cd34 2.300 . S
O33 C40 1.275 . S
Cd34 O33 2.300 . S
Cd34 O42 2.381 . S
Cd34 O43 2.378 . S
O35 Cd36 2.385 1_455 S
O35 C40 1.255 . S
Cd36 O35 2.385 1_655 S
Cd36 O37 2.317 1_655 S
O37 Cd36 2.317 1_455 S
O37 C38 1.232 . S
C38 O37 1.232 . S
C38 O39 1.218 . S
O39 C38 1.218 . S
C40 O33 1.275 . S
C40 O35 1.255 . S
C41 O42 1.258 . S
C41 O43 1.256 . S
O42 Cd34 2.381 . S
O42 C41 1.258 . S
O43 Cd34 2.378 . S
O43 C41 1.256 . S
O44 Cd45 2.300 . S
O44 C51 1.275 . S
Cd45 O44 2.300 . S
Cd45 O53 2.381 . S
Cd45 O54 2.378 . S
O46 Cd47 2.385 . S
O46 C51 1.255 . S
Cd47 O46 2.385 . S
Cd47 O48 2.317 . S
O48 Cd47 2.317 . S
O48 C49 1.232 . S
C49 O48 1.232 . S
C49 O50 1.218 . S
O50 C49 1.218 . S
C51 O44 1.275 . S
C51 O46 1.255 . S
C52 O53 1.258 . S
C52 O54 1.256 . S
O53 Cd45 2.381 . S
O53 C52 1.258 . S
O54 Cd45 2.378 . S
O54 C52 1.256 . S
O55 Cd56 2.300 . S
O55 C62 1.275 . S
Cd56 O55 2.300 . S
Cd56 O64 2.381 . S
Cd56 O65 2.378 . S
O57 Cd58 2.385 1_455 S
O57 C62 1.255 . S
Cd58 O57 2.385 1_655 S
Cd58 O59 2.317 1_655 S
O59 Cd58 2.317 1_455 S
O59 C60 1.232 . S
C60 O59 1.232 . S
C60 O61 1.218 . S
O61 C60 1.218 . S
C62 O55 1.275 . S
C62 O57 1.255 . S
C63 O64 1.258 . S
C63 O65 1.256 . S
O64 Cd56 2.381 . S
O64 C63 1.258 . S
O65 Cd56 2.378 . S
O65 C63 1.256 . S
O66 Cd67 2.300 . S
O66 C73 1.275 . S
Cd67 O66 2.300 . S
Cd67 O75 2.381 . S
Cd67 O76 2.378 . S
O68 Cd69 2.385 1_545 S
O68 C73 1.255 . S
Cd69 O68 2.385 1_565 S
Cd69 O70 2.317 1_565 S
O70 Cd69 2.317 1_545 S
O70 C71 1.232 . S
C71 O70 1.232 . S
C71 O72 1.218 . S
O72 C71 1.218 . S
C73 O66 1.275 . S
C73 O68 1.255 . S
C74 O75 1.258 . S
C74 O76 1.256 . S
O75 Cd67 2.381 . S
O75 C74 1.258 . S
O76 Cd67 2.378 . S
O76 C74 1.256 . S
O77 Cd78 2.300 . S
O77 C84 1.275 . S
Cd78 O77 2.300 . S
Cd78 O86 2.381 . S
Cd78 O87 2.378 . S
O79 Cd80 2.385 . S
O79 C84 1.255 . S
Cd80 O79 2.385 . S
Cd80 O81 2.317 . S
O81 Cd80 2.317 . S
O81 C82 1.232 . S
C82 O81 1.232 . S
C82 O83 1.218 . S
O83 C82 1.218 . S
C84 O77 1.275 . S
C84 O79 1.255 . S
C85 O86 1.258 . S
C85 O87 1.256 . S
O86 Cd78 2.381 . S
O86 C85 1.258 . S
O87 Cd78 2.378 . S
O87 C85 1.256 . S
O88 Cd89 2.300 . S
O88 C95 1.275 . S
Cd89 O88 2.300 . S
Cd89 O97 2.381 . S
Cd89 O98 2.378 . S
O90 Cd91 2.385 . S
O90 C95 1.255 . S
Cd91 O90 2.385 . S
Cd91 O92 2.317 . S
O92 Cd91 2.317 . S
O92 C93 1.232 . S
C93 O92 1.232 . S
C93 O94 1.218 . S
O94 C93 1.218 . S
C95 O88 1.275 . S
C95 O90 1.255 . S
C96 O97 1.258 . S
C96 O98 1.256 . S
O97 Cd89 2.381 . S
O97 C96 1.258 . S
O98 Cd89 2.378 . S
O98 C96 1.256 . S
O99 Cd100 2.300 . S
O99 C106 1.275 . S
Cd100 O99 2.300 . S
Cd100 O108 2.381 . S
Cd100 O109 2.378 . S
O101 Cd102 2.385 . S
O101 C106 1.255 . S
Cd102 O101 2.385 . S
Cd102 O103 2.317 . S
O103 Cd102 2.317 . S
O103 C104 1.232 . S
C104 O103 1.232 . S
C104 O105 1.218 . S
O105 C104 1.218 . S
C106 O99 1.275 . S
C106 O101 1.255 . S
C107 O108 1.258 . S
C107 O109 1.256 . S
O108 Cd100 2.381 . S
O108 C107 1.258 . S
O109 Cd100 2.378 . S
O109 C107 1.256 . S
O110 Cd111 2.300 . S
O110 C117 1.275 . S
Cd111 O110 2.300 . S
Cd111 O119 2.381 . S
Cd111 O120 2.378 . S
O112 Cd113 2.385 . S
O112 C117 1.255 . S
Cd113 O112 2.385 . S
Cd113 O114 2.317 . S
O114 Cd113 2.317 . S
O114 C115 1.232 . S
C115 O114 1.232 . S
C115 O116 1.218 1_455 S
O116 C115 1.218 1_655 S
C117 O110 1.275 . S
C117 O112 1.255 . S
C118 O119 1.258 . S
C118 O120 1.256 . S
O119 Cd111 2.381 . S
O119 C118 1.258 . S
O120 Cd111 2.378 . S
O120 C118 1.256 . S
O121 Cd122 2.300 . S
O121 C128 1.275 . S
Cd122 O121 2.300 . S
Cd122 O130 2.381 . S
Cd122 O131 2.378 . S
O123 Cd124 2.385 . S
O123 C128 1.255 . S
Cd124 O123 2.385 . S
Cd124 O125 2.317 . S
O125 Cd124 2.317 . S
O125 C126 1.232 . S
C126 O125 1.232 . S
C126 O127 1.218 1_545 S
O127 C126 1.218 1_565 S
C128 O121 1.275 . S
C128 O123 1.255 . S
C129 O130 1.258 . S
C129 O131 1.256 . S
O130 Cd122 2.381 . S
O130 C129 1.258 . S
O131 Cd122 2.378 . S
O131 C129 1.256 . S
O132 Cd133 2.300 . S
O132 C139 1.275 . S
Cd133 O132 2.300 . S
Cd133 O141 2.381 . S
Cd133 O142 2.378 . S
O134 Cd135 2.385 . S
O134 C139 1.255 . S
Cd135 O134 2.385 . S
Cd135 O136 2.317 . S
O136 Cd135 2.317 . S
O136 C137 1.232 . S
C137 O136 1.232 . S
C137 O138 1.218 . S
O138 C137 1.218 . S
C139 O132 1.275 . S
C139 O134 1.255 . S
C140 O141 1.258 . S
C140 O142 1.256 . S
O141 Cd133 2.381 . S
O141 C140 1.258 . S
O142 Cd133 2.378 . S
O142 C140 1.256 . S
O143 Cd144 2.300 . S
O143 C150 1.275 . S
Cd144 O143 2.300 . S
Cd144 O152 2.381 . S
Cd144 O153 2.378 . S
O145 Cd146 2.385 . S
O145 C150 1.255 . S
Cd146 O145 2.385 . S
Cd146 O147 2.317 . S
O147 Cd146 2.317 . S
O147 C148 1.232 . S
C148 O147 1.232 . S
C148 O149 1.218 . S
O149 C148 1.218 . S
C150 O143 1.275 . S
C150 O145 1.255 . S
C151 O152 1.258 . S
C151 O153 1.256 . S
O152 Cd144 2.381 . S
O152 C151 1.258 . S
O153 Cd144 2.378 . S
O153 C151 1.256 . S
O154 Cd155 2.300 . S
O154 C161 1.275 . S
Cd155 O154 2.300 . S
Cd155 O163 2.381 . S
Cd155 O164 2.378 . S
O156 Cd157 2.385 . S
O156 C161 1.255 . S
Cd157 O156 2.385 . S
Cd157 O158 2.317 . S
O158 Cd157 2.317 . S
O158 C159 1.232 . S
C159 O158 1.232 . S
C159 O160 1.218 1_455 S
O160 C159 1.218 1_655 S
C161 O154 1.275 . S
C161 O156 1.255 . S
C162 O163 1.258 . S
C162 O164 1.256 . S
O163 Cd155 2.381 . S
O163 C162 1.258 . S
O164 Cd155 2.378 . S
O164 C162 1.256 . S
O165 Cd166 2.300 . S
O165 C172 1.275 . S
Cd166 O165 2.300 . S
Cd166 O174 2.381 . S
Cd166 O175 2.378 . S
O167 Cd168 2.385 . S
O167 C172 1.255 . S
Cd168 O167 2.385 . S
Cd168 O169 2.317 . S
O169 Cd168 2.317 . S
O169 C170 1.232 . S
C170 O169 1.232 . S
C170 O171 1.218 1_545 S
O171 C170 1.218 1_565 S
C172 O165 1.275 . S
C172 O167 1.255 . S
C173 O174 1.258 . S
C173 O175 1.256 . S
O174 Cd166 2.381 . S
O174 C173 1.258 . S
O175 Cd166 2.378 . S
O175 C173 1.256 . S
C176 C177 1.363 . S
C176 C182 1.379 1_545 S
C176 N184 1.356 . S
C177 C176 1.363 . S
C177 C183 1.363 . S
C178 C179 1.363 1_545 S
C178 C183 1.379 . S
C178 N185 1.356 1_545 S
C179 C178 1.363 1_565 S
C179 C182 1.363 . S
N180 C182 1.356 . S
N180 H192 0.984 . S
N180 H193 0.985 . S
N181 C183 1.356 . S
N181 H186 0.984 . S
N181 H187 0.985 . S
C182 C176 1.379 1_565 S
C182 C179 1.363 . S
C182 N180 1.356 . S
C183 C177 1.363 . S
C183 C178 1.379 . S
C183 N181 1.356 . S
N184 C176 1.356 . S
N184 H190 0.984 . S
N184 H191 0.984 . S
N185 C178 1.356 1_565 S
N185 H188 0.984 . S
N185 H189 0.985 . S
H186 N181 0.984 . S
H187 N181 0.985 . S
H188 N185 0.984 . S
H189 N185 0.985 . S
H190 N184 0.984 . S
H191 N184 0.984 . S
H192 N180 0.984 . S
H193 N180 0.985 . S
C194 C195 1.363 . S
C194 C200 1.379 . S
C194 N202 1.356 . S
C195 C194 1.363 . S
C195 C201 1.363 . S
C196 C197 1.363 . S
C196 C201 1.379 . S
C196 N203 1.356 . S
C197 C196 1.363 . S
C197 C200 1.363 . S
N198 C200 1.356 . S
N198 H210 0.984 . S
N198 H211 0.985 . S
N199 C201 1.356 . S
N199 H204 0.984 . S
N199 H205 0.985 . S
C200 C194 1.379 . S
C200 C197 1.363 . S
C200 N198 1.356 . S
C201 C195 1.363 . S
C201 C196 1.379 . S
C201 N199 1.356 . S
N202 C194 1.356 . S
N202 H208 0.984 . S
N202 H209 0.984 . S
N203 C196 1.356 . S
N203 H206 0.984 . S
N203 H207 0.985 . S
H204 N199 0.984 . S
H205 N199 0.985 . S
H206 N203 0.984 . S
H207 N203 0.985 . S
H208 N202 0.984 . S
H209 N202 0.984 . S
H210 N198 0.984 . S
H211 N198 0.985 . S
C212 C213 1.363 1_455 S
C212 C218 1.379 . S
C212 N220 1.349 1_455 S
C213 C212 1.363 1_655 S
C213 C219 1.363 . S
C214 C215 1.363 . S
C214 C219 1.379 1_455 S
C214 N221 1.356 . S
C215 C214 1.363 . S
C215 C218 1.363 . S
N216 C218 1.356 . S
N216 H228 0.984 . S
N216 H229 0.985 . S
N217 C219 1.356 . S
N217 H222 0.984 . S
N217 H223 0.985 . S
C218 C212 1.379 . S
C218 C215 1.363 . S
C218 N216 1.356 . S
C219 C213 1.363 . S
C219 C214 1.379 1_655 S
C219 N217 1.356 . S
N220 C212 1.349 1_655 S
N220 H226 0.973 1_655 S
N220 H227 1.004 . S
N221 C214 1.356 . S
N221 H224 0.984 . S
N221 H225 0.985 . S
H222 N217 0.984 . S
H223 N217 0.985 . S
H224 N221 0.984 . S
H225 N221 0.985 . S
H226 N220 0.973 1_455 S
H227 N220 1.004 . S
H228 N216 0.984 . S
H229 N216 0.985 . S
C230 C231 1.363 . S
C230 C236 1.379 1_645 S
C230 N238 1.356 . S
C231 C230 1.363 . S
C231 C237 1.363 1_655 S
C232 C233 1.363 1_545 S
C232 C237 1.379 . S
C232 N239 1.356 1_545 S
C233 C232 1.363 1_565 S
C233 C236 1.363 . S
N234 C236 1.356 . S
N234 H246 0.984 1_455 S
N234 H247 0.985 . S
N235 C237 1.356 . S
N235 H240 0.984 1_455 S
N235 H241 0.985 . S
C236 C230 1.379 1_465 S
C236 C233 1.363 . S
C236 N234 1.356 . S
C237 C231 1.363 1_455 S
C237 C232 1.379 . S
C237 N235 1.356 . S
N238 C230 1.356 . S
N238 H244 0.984 . S
N238 H245 0.984 . S
N239 C232 1.356 1_565 S
N239 H242 0.984 . S
N239 H243 0.985 1_565 S
H240 N235 0.984 1_655 S
H241 N235 0.985 . S
H242 N239 0.984 . S
H243 N239 0.985 1_545 S
H244 N238 0.984 . S
H245 N238 0.984 . S
H246 N234 0.984 1_655 S
H247 N234 0.985 . S
C248 C249 1.363 . S
C248 C254 1.379 1_545 S
C248 N256 1.356 . S
C249 C248 1.363 . S
C249 C255 1.363 1_545 S
C250 C251 1.363 . S
C250 C255 1.379 . S
C250 N257 1.356 . S
C251 C250 1.363 . S
C251 C254 1.363 . S
N252 C254 1.356 . S
N252 H264 0.984 . S
N252 H265 0.985 . S
N253 C255 1.356 1_545 S
N253 H258 0.984 . S
N253 H259 0.985 . S
C254 C248 1.379 1_565 S
C254 C251 1.363 . S
C254 N252 1.356 . S
C255 C249 1.363 1_565 S
C255 C250 1.379 . S
C255 N253 1.356 1_565 S
N256 C248 1.356 . S
N256 H262 0.984 . S
N256 H263 0.984 . S
N257 C250 1.356 . S
N257 H260 0.984 . S
N257 H261 0.985 . S
H258 N253 0.984 . S
H259 N253 0.985 . S
H260 N257 0.984 . S
H261 N257 0.985 . S
H262 N256 0.984 . S
H263 N256 0.984 . S
H264 N252 0.984 . S
H265 N252 0.985 . S
C266 C267 1.363 . S
C266 C272 1.379 . S
C266 N274 1.356 . S
C267 C266 1.363 . S
C267 C273 1.363 . S
C268 C269 1.363 . S
C268 C273 1.379 . S
C268 N275 1.356 . S
C269 C268 1.363 . S
C269 C272 1.363 . S
N270 C272 1.356 . S
N270 H282 0.984 . S
N270 H283 0.985 . S
N271 C273 1.356 . S
N271 H276 0.984 . S
N271 H277 0.985 . S
C272 C266 1.379 . S
C272 C269 1.363 . S
C272 N270 1.356 . S
C273 C267 1.363 . S
C273 C268 1.379 . S
C273 N271 1.356 . S
N274 C266 1.356 . S
N274 H280 0.984 . S
N274 H281 0.984 . S
N275 C268 1.356 . S
N275 H278 0.984 . S
N275 H279 0.985 . S
H276 N271 0.984 . S
H277 N271 0.985 . S
H278 N275 0.984 . S
H279 N275 0.985 . S
H280 N274 0.984 . S
H281 N274 0.984 . S
H282 N270 0.984 . S
H283 N270 0.985 . S
C284 C285 1.363 . S
C284 C290 1.379 1_455 S
C284 N292 1.356 . S
C285 C284 1.363 . S
C285 C291 1.363 1_455 S
C286 C287 1.363 . S
C286 C291 1.379 . S
C286 N293 1.356 . S
C287 C286 1.363 . S
C287 C290 1.363 . S
N288 C290 1.356 . S
N288 H300 0.984 1_655 S
N288 H301 0.985 . S
N289 C291 1.356 . S
N289 H294 0.984 1_655 S
N289 H295 0.985 . S
C290 C284 1.379 1_655 S
C290 C287 1.363 . S
C290 N288 1.356 . S
C291 C285 1.363 1_655 S
C291 C286 1.379 . S
C291 N289 1.356 . S
N292 C284 1.356 . S
N292 H298 0.984 . S
N292 H299 0.984 . S
N293 C286 1.356 . S
N293 H296 0.984 . S
N293 H297 0.985 . S
H294 N289 0.984 1_455 S
H295 N289 0.985 . S
H296 N293 0.984 . S
H297 N293 0.985 . S
H298 N292 0.984 . S
H299 N292 0.984 . S
H300 N288 0.984 1_455 S
H301 N288 0.985 . S
C302 C303 1.363 . S
C302 C308 1.379 1_645 S
C302 N310 1.356 . S
C303 C302 1.363 . S
C303 C309 1.363 1_545 S
C304 C305 1.363 1_655 S
C304 C309 1.379 . S
C304 N311 1.356 . S
C305 C304 1.363 1_455 S
C305 C308 1.363 . S
N306 C308 1.356 . S
N306 H318 0.984 . S
N306 H319 0.985 . S
N307 C309 1.356 1_545 S
N307 H312 0.984 . S
N307 H313 0.985 . S
C308 C302 1.379 1_465 S
C308 C305 1.363 . S
C308 N306 1.356 . S
C309 C303 1.363 1_565 S
C309 C304 1.379 . S
C309 N307 1.356 1_565 S
N310 C302 1.356 . S
N310 H316 0.984 1_655 S
N310 H317 0.984 . S
N311 C304 1.356 . S
N311 H314 0.984 1_655 S
N311 H315 0.985 . S
H312 N307 0.984 . S
H313 N307 0.985 . S
H314 N311 0.984 1_455 S
H315 N311 0.985 . S
H316 N310 0.984 1_455 S
H317 N310 0.984 . S
H318 N306 0.984 . S
H319 N306 0.985 . S
C320 C321 1.363 1_554 S
C320 C326 1.379 1_565 S
C320 N328 1.356 . S
C321 C320 1.363 1_556 S
C321 C327 1.363 . S
C322 C323 1.363 1_556 S
C322 C327 1.379 1_545 S
C322 N329 1.356 . S
C323 C322 1.363 1_554 S
C323 C326 1.363 . S
N324 C326 1.356 . S
N324 H336 0.974 1_545 S
N324 H337 0.985 . S
N325 C327 1.356 . S
N325 H330 0.984 . S
N325 H331 0.974 1_565 S
C326 C320 1.379 1_545 S
C326 C323 1.363 . S
C326 N324 1.356 . S
C327 C321 1.363 . S
C327 C322 1.379 1_565 S
C327 N325 1.356 . S
N328 C320 1.356 . S
N328 H334 0.984 . S
N328 H335 0.984 1_554 S
N329 C322 1.356 . S
N329 H332 0.984 1_556 S
N329 H333 0.985 . S
H330 N325 0.984 . S
H331 N325 0.974 1_545 S
H332 N329 0.984 1_554 S
H333 N329 0.985 . S
H334 N328 0.984 . S
H335 N328 0.984 1_556 S
H336 N324 0.974 1_565 S
H337 N324 0.985 . S
C338 C339 1.363 . S
C338 C344 1.379 1_556 S
C338 N346 1.356 . S
C339 C338 1.363 . S
C339 C345 1.363 . S
C340 C341 1.363 . S
C340 C345 1.379 1_554 S
C340 N347 1.356 . S
C341 C340 1.363 . S
C341 C344 1.363 . S
N342 C344 1.356 . S
N342 H354 0.984 . S
N342 H355 0.985 . S
N343 C345 1.356 . S
N343 H348 0.984 . S
N343 H349 0.985 . S
C344 C338 1.379 1_554 S
C344 C341 1.363 . S
C344 N342 1.356 . S
C345 C339 1.363 . S
C345 C340 1.379 1_556 S
C345 N343 1.356 . S
N346 C338 1.356 . S
N346 H352 0.984 . S
N346 H353 0.984 . S
N347 C340 1.356 . S
N347 H350 0.984 . S
N347 H351 0.985 . S
H348 N343 0.984 . S
H349 N343 0.985 . S
H350 N347 0.984 . S
H351 N347 0.985 . S
H352 N346 0.984 . S
H353 N346 0.984 . S
H354 N342 0.984 . S
H355 N342 0.985 . S
C356 C357 1.363 1_455 S
C356 C362 1.379 . S
C356 N364 1.356 1_455 S
C357 C356 1.363 1_655 S
C357 C363 1.363 1_554 S
C358 C359 1.363 1_655 S
C358 C363 1.379 . S
C358 N365 1.356 1_655 S
C359 C358 1.363 1_455 S
C359 C362 1.363 1_556 S
N360 C362 1.356 . S
N360 H372 0.984 . S
N360 H373 0.986 . S
N361 C363 1.356 . S
N361 H366 0.986 . S
N361 H367 0.985 . S
C362 C356 1.379 . S
C362 C359 1.363 1_554 S
C362 N360 1.356 . S
C363 C357 1.363 1_556 S
C363 C358 1.379 . S
C363 N361 1.356 . S
N364 C356 1.356 1_655 S
N364 H370 0.984 1_655 S
N364 H371 0.984 . S
N365 C358 1.356 1_455 S
N365 H368 0.984 . S
N365 H369 0.985 1_455 S
H366 N361 0.986 . S
H367 N361 0.985 . S
H368 N365 0.984 . S
H369 N365 0.985 1_655 S
H370 N364 0.984 1_455 S
H371 N364 0.984 . S
H372 N360 0.984 . S
H373 N360 0.986 . S
C374 C375 1.363 1_565 S
C374 C380 1.379 1_655 S
C374 N382 1.356 . S
C375 C374 1.363 1_545 S
C375 C381 1.363 1_556 S
C376 C377 1.363 1_545 S
C376 C381 1.379 1_455 S
C376 N383 1.356 . S
C377 C376 1.363 1_565 S
C377 C380 1.363 1_554 S
N378 C380 1.356 . S
N378 H390 0.984 . S
N378 H391 0.985 1_556 S
N379 C381 1.356 . S
N379 H384 0.984 1_554 S
N379 H385 0.985 . S
C380 C374 1.379 1_455 S
C380 C377 1.363 1_556 S
C380 N378 1.356 . S
C381 C375 1.363 1_554 S
C381 C376 1.379 1_655 S
C381 N379 1.356 . S
N382 C374 1.356 . S
N382 H388 0.984 . S
N382 H389 0.984 . S
N383 C376 1.356 . S
N383 H386 0.984 . S
N383 H387 0.985 . S
H384 N379 0.984 1_556 S
H385 N379 0.985 . S
H386 N383 0.984 . S
H387 N383 0.985 . S
H388 N382 0.984 . S
H389 N382 0.984 . S
H390 N378 0.984 . S
H391 N378 0.985 1_554 S
C392 C393 1.363 . S
C392 C398 1.379 . S
C392 N400 1.356 . S
C393 C392 1.363 . S
C393 C399 1.363 . S
C394 C395 1.363 . S
C394 C399 1.379 . S
C394 N401 1.356 . S
C395 C394 1.363 . S
C395 C398 1.363 . S
N396 C398 1.356 . S
N396 H408 0.984 . S
N396 H409 0.985 . S
N397 C399 1.356 . S
N397 H402 0.984 . S
N397 H403 0.985 . S
C398 C392 1.379 . S
C398 C395 1.363 . S
C398 N396 1.356 . S
C399 C393 1.363 . S
C399 C394 1.379 . S
C399 N397 1.356 . S
N400 C392 1.356 . S
N400 H406 0.984 . S
N400 H407 0.984 . S
N401 C394 1.356 . S
N401 H404 0.984 . S
N401 H405 0.985 . S
H402 N397 0.984 . S
H403 N397 0.985 . S
H404 N401 0.984 . S
H405 N401 0.985 . S
H406 N400 0.984 . S
H407 N400 0.984 . S
H408 N396 0.984 . S
H409 N396 0.985 . S
C410 C411 1.363 . S
C410 C416 1.379 1_655 S
C410 N418 1.356 . S
C411 C410 1.363 . S
C411 C417 1.363 . S
C412 C413 1.363 . S
C412 C417 1.379 1_455 S
C412 N419 1.356 . S
C413 C412 1.363 . S
C413 C416 1.363 . S
N414 C416 1.356 . S
N414 H426 0.984 . S
N414 H427 0.985 . S
N415 C417 1.356 . S
N415 H420 0.984 . S
N415 H421 0.985 . S
C416 C410 1.379 1_455 S
C416 C413 1.363 . S
C416 N414 1.356 . S
C417 C411 1.363 . S
C417 C412 1.379 1_655 S
C417 N415 1.356 . S
N418 C410 1.356 . S
N418 H424 0.983 1_655 S
N418 H425 0.984 . S
N419 C412 1.356 . S
N419 H422 0.984 . S
N419 H423 0.983 1_455 S
H420 N415 0.984 . S
H421 N415 0.985 . S
H422 N419 0.984 . S
H423 N419 0.983 1_655 S
H424 N418 0.983 1_455 S
H425 N418 0.984 . S
H426 N414 0.984 . S
H427 N414 0.985 . S
C428 C429 1.363 1_545 S
C428 C434 1.379 . S
C428 N436 1.356 . S
C429 C428 1.363 1_565 S
C429 C435 1.363 1_455 S
C430 C431 1.363 1_565 S
C430 C435 1.379 . S
C430 N437 1.356 . S
C431 C430 1.363 1_545 S
C431 C434 1.363 1_655 S
N432 C434 1.357 . S
N432 H444 0.991 . S
N432 H445 0.977 1_455 S
N433 C435 1.357 . S
N433 H438 0.977 1_655 S
N433 H439 0.991 . S
C434 C428 1.379 . S
C434 C431 1.363 1_455 S
C434 N432 1.357 . S
C435 C429 1.363 1_655 S
C435 C430 1.379 . S
C435 N433 1.357 . S
N436 C428 1.356 . S
N436 H442 0.984 . S
N436 H443 0.984 1_545 S
N437 C430 1.356 . S
N437 H440 0.984 1_565 S
N437 H441 0.985 . S
H438 N433 0.977 1_455 S
H439 N433 0.991 . S
H440 N437 0.984 1_545 S
H441 N437 0.985 . S
H442 N436 0.984 . S
H443 N436 0.984 1_565 S
H444 N432 0.991 . S
H445 N432 0.977 1_655 S
C446 C447 1.363 . S
C446 C452 1.379 . S
C446 N454 1.356 . S
C447 C446 1.363 . S
C447 C453 1.363 1_565 S
C448 C449 1.363 . S
C448 C453 1.379 . S
C448 N455 1.356 . S
C449 C448 1.363 . S
C449 C452 1.363 1_545 S
N450 C452 1.356 . S
N450 H462 0.984 . S
N450 H463 0.985 . S
N451 C453 1.356 . S
N451 H456 0.984 . S
N451 H457 0.985 . S
C452 C446 1.379 . S
C452 C449 1.363 1_565 S
C452 N450 1.356 . S
C453 C447 1.363 1_545 S
C453 C448 1.379 . S
C453 N451 1.356 . S
N454 C446 1.356 . S
N454 H460 0.984 . S
N454 H461 0.984 . S
N455 C448 1.356 . S
N455 H458 0.984 . S
N455 H459 0.985 . S
H456 N451 0.984 . S
H457 N451 0.985 . S
H458 N455 0.984 . S
H459 N455 0.985 . S
H460 N454 0.984 . S
H461 N454 0.984 . S
H462 N450 0.984 . S
H463 N450 0.985 . S
C464 C465 1.363 . S
C464 C470 1.379 . S
C464 N472 1.356 . S
C465 C464 1.363 . S
C465 C471 1.363 . S
C466 C467 1.363 . S
C466 C471 1.379 . S
C466 N473 1.356 . S
C467 C466 1.363 . S
C467 C470 1.363 . S
N468 C470 1.356 . S
N468 H480 0.984 . S
N468 H481 0.985 . S
N469 C471 1.356 . S
N469 H474 0.984 . S
N469 H475 0.985 . S
C470 C464 1.379 . S
C470 C467 1.363 . S
C470 N468 1.356 . S
C471 C465 1.363 . S
C471 C466 1.379 . S
C471 N469 1.356 . S
N472 C464 1.356 . S
N472 H478 0.984 . S
N472 H479 0.984 . S
N473 C466 1.356 . S
N473 H476 0.984 . S
N473 H477 0.985 . S
H474 N469 0.984 . S
H475 N469 0.985 . S
H476 N473 0.984 . S
H477 N473 0.985 . S
H478 N472 0.984 . S
H479 N472 0.984 . S
H480 N468 0.984 . S
H481 N468 0.985 . S
C482 C483 1.363 . S
C482 C488 1.379 . S
C482 N490 1.356 . S
C483 C482 1.363 . S
C483 C489 1.363 . S
C484 C485 1.363 . S
C484 C489 1.379 . S
C484 N491 1.356 . S
C485 C484 1.363 . S
C485 C488 1.363 . S
N486 C488 1.356 . S
N486 H498 0.984 . S
N486 H499 0.985 . S
N487 C489 1.356 . S
N487 H492 0.984 . S
N487 H493 0.985 . S
C488 C482 1.379 . S
C488 C485 1.363 . S
C488 N486 1.356 . S
C489 C483 1.363 . S
C489 C484 1.379 . S
C489 N487 1.356 . S
N490 C482 1.356 . S
N490 H496 0.984 . S
N490 H497 0.984 . S
N491 C484 1.356 . S
N491 H494 0.984 . S
N491 H495 0.985 . S
H492 N487 0.984 . S
H493 N487 0.985 . S
H494 N491 0.984 . S
H495 N491 0.985 . S
H496 N490 0.984 . S
H497 N490 0.984 . S
H498 N486 0.984 . S
H499 N486 0.985 . S
C500 C501 1.363 . S
C500 C506 1.379 . S
C500 N508 1.356 . S
C501 C500 1.363 . S
C501 C507 1.363 . S
C502 C503 1.363 . S
C502 C507 1.379 . S
C502 N509 1.356 . S
C503 C502 1.363 . S
C503 C506 1.363 . S
N504 C506 1.356 . S
N504 H516 0.984 . S
N504 H517 0.985 . S
N505 C507 1.356 . S
N505 H510 0.984 . S
N505 H511 0.985 . S
C506 C500 1.379 . S
C506 C503 1.363 . S
C506 N504 1.356 . S
C507 C501 1.363 . S
C507 C502 1.379 . S
C507 N505 1.356 . S
N508 C500 1.356 . S
N508 H514 0.984 . S
N508 H515 0.984 . S
N509 C502 1.356 . S
N509 H512 0.984 . S
N509 H513 0.985 . S
H510 N505 0.984 . S
H511 N505 0.985 . S
H512 N509 0.984 . S
H513 N509 0.985 . S
H514 N508 0.984 . S
H515 N508 0.984 . S
H516 N504 0.984 . S
H517 N504 0.985 . S
C518 C519 1.363 . S
C518 C524 1.379 . S
C518 N526 1.356 . S
C519 C518 1.363 . S
C519 C525 1.363 . S
C520 C521 1.363 . S
C520 C525 1.379 . S
C520 N527 1.356 . S
C521 C520 1.363 . S
C521 C524 1.363 . S
N522 C524 1.356 . S
N522 H534 0.984 . S
N522 H535 0.985 . S
N523 C525 1.356 . S
N523 H528 0.984 . S
N523 H529 0.985 . S
C524 C518 1.379 . S
C524 C521 1.363 . S
C524 N522 1.356 . S
C525 C519 1.363 . S
C525 C520 1.379 . S
C525 N523 1.356 . S
N526 C518 1.356 . S
N526 H532 0.984 . S
N526 H533 0.984 . S
N527 C520 1.356 . S
N527 H530 0.984 . S
N527 H531 0.985 . S
H528 N523 0.984 . S
H529 N523 0.985 . S
H530 N527 0.984 . S
H531 N527 0.985 . S
H532 N526 0.984 . S
H533 N526 0.984 . S
H534 N522 0.984 . S
H535 N522 0.985 . S
C536 C537 1.363 . S
C536 C542 1.379 . S
C536 N544 1.356 . S
C537 C536 1.363 . S
C537 C543 1.363 . S
C538 C539 1.363 . S
C538 C543 1.379 . S
C538 N545 1.356 . S
C539 C538 1.363 . S
C539 C542 1.363 . S
N540 C542 1.356 . S
N540 H552 0.984 . S
N540 H553 0.985 . S
N541 C543 1.356 . S
N541 H546 0.984 . S
N541 H547 0.985 . S
C542 C536 1.379 . S
C542 C539 1.363 . S
C542 N540 1.356 . S
C543 C537 1.363 . S
C543 C538 1.379 . S
C543 N541 1.356 . S
N544 C536 1.356 . S
N544 H550 0.984 . S
N544 H551 0.984 . S
N545 C538 1.356 . S
N545 H548 0.984 . S
N545 H549 0.985 . S
H546 N541 0.984 . S
H547 N541 0.985 . S
H548 N545 0.984 . S
H549 N545 0.985 . S
H550 N544 0.984 . S
H551 N544 0.984 . S
H552 N540 0.984 . S
H553 N540 0.985 . S
C554 C555 1.363 . S
C554 C560 1.379 . S
C554 N562 1.356 . S
C555 C554 1.363 . S
C555 C561 1.363 . S
C556 C557 1.363 . S
C556 C561 1.379 . S
C556 N563 1.356 . S
C557 C556 1.363 . S
C557 C560 1.363 . S
N558 C560 1.356 . S
N558 H570 0.984 . S
N558 H571 0.985 . S
N559 C561 1.356 . S
N559 H564 0.984 . S
N559 H565 0.985 . S
C560 C554 1.379 . S
C560 C557 1.363 . S
C560 N558 1.356 . S
C561 C555 1.363 . S
C561 C556 1.379 . S
C561 N559 1.356 . S
N562 C554 1.356 . S
N562 H568 0.984 . S
N562 H569 0.984 . S
N563 C556 1.356 . S
N563 H566 0.984 . S
N563 H567 0.985 . S
H564 N559 0.984 . S
H565 N559 0.985 . S
H566 N563 0.984 . S
H567 N563 0.985 . S
H568 N562 0.984 . S
H569 N562 0.984 . S
H570 N558 0.984 . S
H571 N558 0.985 . S
C572 C573 1.363 . S
C572 C578 1.379 . S
C572 N580 1.356 . S
C573 C572 1.363 . S
C573 C579 1.363 . S
C574 C575 1.363 . S
C574 C579 1.379 . S
C574 N581 1.356 . S
C575 C574 1.363 . S
C575 C578 1.363 . S
N576 C578 1.356 . S
N576 H588 0.984 . S
N576 H589 0.985 . S
N577 C579 1.356 . S
N577 H582 0.984 . S
N577 H583 0.985 . S
C578 C572 1.379 . S
C578 C575 1.363 . S
C578 N576 1.356 . S
C579 C573 1.363 . S
C579 C574 1.379 . S
C579 N577 1.356 . S
N580 C572 1.356 . S
N580 H586 0.984 . S
N580 H587 0.984 . S
N581 C574 1.356 . S
N581 H584 0.984 . S
N581 H585 0.985 . S
H582 N577 0.984 . S
H583 N577 0.985 . S
H584 N581 0.984 . S
H585 N581 0.985 . S
H586 N580 0.984 . S
H587 N580 0.984 . S
H588 N576 0.984 . S
H589 N576 0.985 . S
C590 C591 1.363 . S
C590 C596 1.379 . S
C590 N598 1.356 . S
C591 C590 1.363 . S
C591 C597 1.363 . S
C592 C593 1.363 . S
C592 C597 1.379 . S
C592 N599 1.356 . S
C593 C592 1.363 . S
C593 C596 1.363 . S
N594 C596 1.356 . S
N594 H606 0.984 . S
N594 H607 0.985 . S
N595 C597 1.356 . S
N595 H600 0.984 . S
N595 H601 0.985 . S
C596 C590 1.379 . S
C596 C593 1.363 . S
C596 N594 1.356 . S
C597 C591 1.363 . S
C597 C592 1.379 . S
C597 N595 1.356 . S
N598 C590 1.356 . S
N598 H604 0.984 . S
N598 H605 0.984 . S
N599 C592 1.356 . S
N599 H602 0.984 . S
N599 H603 0.985 . S
H600 N595 0.984 . S
H601 N595 0.985 . S
H602 N599 0.984 . S
H603 N599 0.985 . S
H604 N598 0.984 . S
H605 N598 0.984 . S
H606 N594 0.984 . S
H607 N594 0.985 . S
C177 C7 1.292 . S
C179 C84 1.292 . S
C195 C18 1.291 . S
C197 C51 1.291 . S
C213 C29 1.292 . S
C215 C62 1.292 . S
C231 C73 1.292 . S
C233 C40 1.292 . S
C249 C172 1.388 . S
C251 C95 1.388 . S
C267 C139 1.388 . S
C269 C106 1.388 . S
C285 C117 1.388 . S
C287 C150 1.388 . S
C303 C128 1.388 . S
C305 C161 1.388 . S
C321 C93 1.975 . S
C323 C5 1.369 . S
C339 C104 1.975 . S
C341 C16 1.369 . S
C357 C27 1.369 . S
C359 C115 1.975 . S
C375 C126 1.975 . S
C377 C38 1.369 . S
C393 C137 1.975 . S
C395 C49 1.369 . S
C411 C148 1.975 . S
C413 C60 1.369 . S
C429 C159 1.975 . S
C431 C71 1.369 . S
C447 C82 1.369 . S
C449 C170 1.975 . S
C465 C74 1.732 . S
C467 C8 1.732 . S
C483 C85 1.732 . S
C485 C19 1.732 . S
C501 C30 1.732 . S
C503 C52 1.732 . S
C519 C41 1.732 . S
C521 C63 1.732 . S
C537 C162 1.777 . S
C539 C96 1.777 . S
C555 C173 1.777 . S
C557 C107 1.777 . S
C573 C118 1.777 . S
C575 C140 1.777 . S
C591 C129 1.777 . S
C593 C151 1.777 . S
