# Generated by pormake.
# Topology cha, (4)-cn, num edge types: 1
# Building blocks:
#     Node 0, Type 0, BuildingBlock: KUFVIS_clean_sbu_0, # of connection points: 4
#     Node 1, Type 0, BuildingBlock: KUFVIS_clean_sbu_0, # of connection points: 4
#     Node 2, Type 0, BuildingBlock: KUFVIS_clean_sbu_0, # of connection points: 4
#     Node 3, Type 0, BuildingBlock: KUFVIS_clean_sbu_0, # of connection points: 4
#     Node 4, Type 0, BuildingBlock: KUFVIS_clean_sbu_0, # of connection points: 4
#     Node 5, Type 0, BuildingBlock: KUFVIS_clean_sbu_0, # of connection points: 4
#     Node 6, Type 0, BuildingBlock: KUFVIS_clean_sbu_0, # of connection points: 4
#     Node 7, Type 0, BuildingBlock: KUFVIS_clean_sbu_0, # of connection points: 4
#     Node 8, Type 0, BuildingBlock: KUFVIS_clean_sbu_0, # of connection points: 4
#     Node 9, Type 0, BuildingBlock: KUFVIS_clean_sbu_0, # of connection points: 4
#     Node 10, Type 0, BuildingBlock: KUFVIS_clean_sbu_0, # of connection points: 4
#     Node 11, Type 0, BuildingBlock: KUFVIS_clean_sbu_0, # of connection points: 4
#     Node 12, Type 0, BuildingBlock: KUFVIS_clean_sbu_0, # of connection points: 4
#     Node 13, Type 0, BuildingBlock: KUFVIS_clean_sbu_0, # of connection points: 4
#     Node 14, Type 0, BuildingBlock: KUFVIS_clean_sbu_0, # of connection points: 4
#     Node 15, Type 0, BuildingBlock: KUFVIS_clean_sbu_0, # of connection points: 4
#     Node 16, Type 0, BuildingBlock: KUFVIS_clean_sbu_0, # of connection points: 4
#     Node 17, Type 0, BuildingBlock: KUFVIS_clean_sbu_0, # of connection points: 4
#     Node 18, Type 0, BuildingBlock: KUFVIS_clean_sbu_0, # of connection points: 4
#     Node 19, Type 0, BuildingBlock: KUFVIS_clean_sbu_0, # of connection points: 4
#     Node 20, Type 0, BuildingBlock: KUFVIS_clean_sbu_0, # of connection points: 4
#     Node 21, Type 0, BuildingBlock: KUFVIS_clean_sbu_0, # of connection points: 4
#     Node 22, Type 0, BuildingBlock: KUFVIS_clean_sbu_0, # of connection points: 4
#     Node 23, Type 0, BuildingBlock: KUFVIS_clean_sbu_0, # of connection points: 4
#     Node 24, Type 0, BuildingBlock: KUFVIS_clean_sbu_0, # of connection points: 4
#     Node 25, Type 0, BuildingBlock: KUFVIS_clean_sbu_0, # of connection points: 4
#     Node 26, Type 0, BuildingBlock: KUFVIS_clean_sbu_0, # of connection points: 4
#     Node 27, Type 0, BuildingBlock: KUFVIS_clean_sbu_0, # of connection points: 4
#     Node 28, Type 0, BuildingBlock: KUFVIS_clean_sbu_0, # of connection points: 4
#     Node 29, Type 0, BuildingBlock: KUFVIS_clean_sbu_0, # of connection points: 4
#     Node 30, Type 0, BuildingBlock: KUFVIS_clean_sbu_0, # of connection points: 4
#     Node 31, Type 0, BuildingBlock: KUFVIS_clean_sbu_0, # of connection points: 4
#     Node 32, Type 0, BuildingBlock: KUFVIS_clean_sbu_0, # of connection points: 4
#     Node 33, Type 0, BuildingBlock: KUFVIS_clean_sbu_0, # of connection points: 4
#     Node 34, Type 0, BuildingBlock: KUFVIS_clean_sbu_0, # of connection points: 4
#     Node 35, Type 0, BuildingBlock: KUFVIS_clean_sbu_0, # of connection points: 4
#     Edge 36, Type (0, 0), BuildingBlock: OJICUG_clean_linker_0, # of connection points: 2
#     Edge 37, Type (0, 0), BuildingBlock: OJICUG_clean_linker_0, # of connection points: 2
#     Edge 38, Type (0, 0), BuildingBlock: OJICUG_clean_linker_0, # of connection points: 2
#     Edge 39, Type (0, 0), BuildingBlock: OJICUG_clean_linker_0, # of connection points: 2
#     Edge 40, Type (0, 0), BuildingBlock: OJICUG_clean_linker_0, # of connection points: 2
#     Edge 41, Type (0, 0), BuildingBlock: OJICUG_clean_linker_0, # of connection points: 2
#     Edge 42, Type (0, 0), BuildingBlock: OJICUG_clean_linker_0, # of connection points: 2
#     Edge 43, Type (0, 0), BuildingBlock: OJICUG_clean_linker_0, # of connection points: 2
#     Edge 44, Type (0, 0), BuildingBlock: OJICUG_clean_linker_0, # of connection points: 2
#     Edge 45, Type (0, 0), BuildingBlock: OJICUG_clean_linker_0, # of connection points: 2
#     Edge 46, Type (0, 0), BuildingBlock: OJICUG_clean_linker_0, # of connection points: 2
#     Edge 47, Type (0, 0), BuildingBlock: OJICUG_clean_linker_0, # of connection points: 2
#     Edge 48, Type (0, 0), BuildingBlock: OJICUG_clean_linker_0, # of connection points: 2
#     Edge 49, Type (0, 0), BuildingBlock: OJICUG_clean_linker_0, # of connection points: 2
#     Edge 50, Type (0, 0), BuildingBlock: OJICUG_clean_linker_0, # of connection points: 2
#     Edge 51, Type (0, 0), BuildingBlock: OJICUG_clean_linker_0, # of connection points: 2
#     Edge 52, Type (0, 0), BuildingBlock: OJICUG_clean_linker_0, # of connection points: 2
#     Edge 53, Type (0, 0), BuildingBlock: OJICUG_clean_linker_0, # of connection points: 2
#     Edge 54, Type (0, 0), BuildingBlock: OJICUG_clean_linker_0, # of connection points: 2
#     Edge 55, Type (0, 0), BuildingBlock: OJICUG_clean_linker_0, # of connection points: 2
#     Edge 56, Type (0, 0), BuildingBlock: OJICUG_clean_linker_0, # of connection points: 2
#     Edge 57, Type (0, 0), BuildingBlock: OJICUG_clean_linker_0, # of connection points: 2
#     Edge 58, Type (0, 0), BuildingBlock: OJICUG_clean_linker_0, # of connection points: 2
#     Edge 59, Type (0, 0), BuildingBlock: OJICUG_clean_linker_0, # of connection points: 2
#     Edge 60, Type (0, 0), BuildingBlock: OJICUG_clean_linker_0, # of connection points: 2
#     Edge 61, Type (0, 0), BuildingBlock: OJICUG_clean_linker_0, # of connection points: 2
#     Edge 62, Type (0, 0), BuildingBlock: OJICUG_clean_linker_0, # of connection points: 2
#     Edge 63, Type (0, 0), BuildingBlock: OJICUG_clean_linker_0, # of connection points: 2
#     Edge 64, Type (0, 0), BuildingBlock: OJICUG_clean_linker_0, # of connection points: 2
#     Edge 65, Type (0, 0), BuildingBlock: OJICUG_clean_linker_0, # of connection points: 2
#     Edge 66, Type (0, 0), BuildingBlock: OJICUG_clean_linker_0, # of connection points: 2
#     Edge 67, Type (0, 0), BuildingBlock: OJICUG_clean_linker_0, # of connection points: 2
#     Edge 68, Type (0, 0), BuildingBlock: OJICUG_clean_linker_0, # of connection points: 2
#     Edge 69, Type (0, 0), BuildingBlock: OJICUG_clean_linker_0, # of connection points: 2
#     Edge 70, Type (0, 0), BuildingBlock: OJICUG_clean_linker_0, # of connection points: 2
#     Edge 71, Type (0, 0), BuildingBlock: OJICUG_clean_linker_0, # of connection points: 2
#     Edge 72, Type (0, 0), BuildingBlock: OJICUG_clean_linker_0, # of connection points: 2
#     Edge 73, Type (0, 0), BuildingBlock: OJICUG_clean_linker_0, # of connection points: 2
#     Edge 74, Type (0, 0), BuildingBlock: OJICUG_clean_linker_0, # of connection points: 2
#     Edge 75, Type (0, 0), BuildingBlock: OJICUG_clean_linker_0, # of connection points: 2
#     Edge 76, Type (0, 0), BuildingBlock: OJICUG_clean_linker_0, # of connection points: 2
#     Edge 77, Type (0, 0), BuildingBlock: OJICUG_clean_linker_0, # of connection points: 2
#     Edge 78, Type (0, 0), BuildingBlock: OJICUG_clean_linker_0, # of connection points: 2
#     Edge 79, Type (0, 0), BuildingBlock: OJICUG_clean_linker_0, # of connection points: 2
#     Edge 80, Type (0, 0), BuildingBlock: OJICUG_clean_linker_0, # of connection points: 2
#     Edge 81, Type (0, 0), BuildingBlock: OJICUG_clean_linker_0, # of connection points: 2
#     Edge 82, Type (0, 0), BuildingBlock: OJICUG_clean_linker_0, # of connection points: 2
#     Edge 83, Type (0, 0), BuildingBlock: OJICUG_clean_linker_0, # of connection points: 2
#     Edge 84, Type (0, 0), BuildingBlock: OJICUG_clean_linker_0, # of connection points: 2
#     Edge 85, Type (0, 0), BuildingBlock: OJICUG_clean_linker_0, # of connection points: 2
#     Edge 86, Type (0, 0), BuildingBlock: OJICUG_clean_linker_0, # of connection points: 2
#     Edge 87, Type (0, 0), BuildingBlock: OJICUG_clean_linker_0, # of connection points: 2
#     Edge 88, Type (0, 0), BuildingBlock: OJICUG_clean_linker_0, # of connection points: 2
#     Edge 89, Type (0, 0), BuildingBlock: OJICUG_clean_linker_0, # of connection points: 2
#     Edge 90, Type (0, 0), BuildingBlock: OJICUG_clean_linker_0, # of connection points: 2
#     Edge 91, Type (0, 0), BuildingBlock: OJICUG_clean_linker_0, # of connection points: 2
#     Edge 92, Type (0, 0), BuildingBlock: OJICUG_clean_linker_0, # of connection points: 2
#     Edge 93, Type (0, 0), BuildingBlock: OJICUG_clean_linker_0, # of connection points: 2
#     Edge 94, Type (0, 0), BuildingBlock: OJICUG_clean_linker_0, # of connection points: 2
#     Edge 95, Type (0, 0), BuildingBlock: OJICUG_clean_linker_0, # of connection points: 2
#     Edge 96, Type (0, 0), BuildingBlock: OJICUG_clean_linker_0, # of connection points: 2
#     Edge 97, Type (0, 0), BuildingBlock: OJICUG_clean_linker_0, # of connection points: 2
#     Edge 98, Type (0, 0), BuildingBlock: OJICUG_clean_linker_0, # of connection points: 2
#     Edge 99, Type (0, 0), BuildingBlock: OJICUG_clean_linker_0, # of connection points: 2
#     Edge 100, Type (0, 0), BuildingBlock: OJICUG_clean_linker_0, # of connection points: 2
#     Edge 101, Type (0, 0), BuildingBlock: OJICUG_clean_linker_0, # of connection points: 2
#     Edge 102, Type (0, 0), BuildingBlock: OJICUG_clean_linker_0, # of connection points: 2
#     Edge 103, Type (0, 0), BuildingBlock: OJICUG_clean_linker_0, # of connection points: 2
#     Edge 104, Type (0, 0), BuildingBlock: OJICUG_clean_linker_0, # of connection points: 2
#     Edge 105, Type (0, 0), BuildingBlock: OJICUG_clean_linker_0, # of connection points: 2
#     Edge 106, Type (0, 0), BuildingBlock: OJICUG_clean_linker_0, # of connection points: 2
#     Edge 107, Type (0, 0), BuildingBlock: OJICUG_clean_linker_0, # of connection points: 2
# Relax obj value: 0.089
# Max RMSD: 0.120
# Mean RMSD: 0.120
data_MOF--net-cha--node1-KUFVIS_clean_sbu_0--edge1-OJICUG_clean_linker_0
_symmetry_space_group_name_H-M    P1
_symmetry_Int_Tables_number       1
_symmetry_cell_setting            triclinic
loop_
_symmetry_equiv_pos_as_xyz
'x, y, z'
_cell_length_a     40.477216
_cell_length_b     40.459997
_cell_length_c     62.184754
_cell_angle_alpha  89.763887
_cell_angle_beta   90.046032
_cell_angle_gamma 120.05777
loop_
_atom_site_label
_atom_site_type_symbol
_atom_site_fract_x
_atom_site_fract_y
_atom_site_fract_z
_atom_type_partial_charge
Mn0 Mn 0.02667 0.30129 0.10317 0.0
Mn1 Mn 0.02948 0.22807 0.07864 0.0
C2 C 0.97042 0.24425 0.09886 0.0
C3 C 0.03497 0.33377 0.13534 0.0
C4 C 0.0323 0.29569 0.05472 0.0
O5 O 0.08333 0.31973 0.10175 0.0
O6 O 0.07978 0.26526 0.09079 0.0
C7 C 0.05461 0.19172 0.1041 0.0
N8 N 0.02124 0.18875 0.09848 0.0
C9 C 0.00065 0.14235 0.069 0.0
C10 C 0.0491 0.16166 0.07048 0.0
C11 C 0.07162 0.18173 0.08823 0.0
C12 C 0.99597 0.15408 0.08952 0.0
H13 H 0.07187 0.211 0.11672 0.0
C14 C 0.09837 0.29957 0.09746 0.0
O15 O 0.0374 0.35036 0.11697 0.0
O16 O 0.02813 0.29895 0.1349 0.0
N17 N 0.98568 0.18943 0.0654 0.0
C18 C 0.96252 0.19772 0.05339 0.0
C19 C 0.93337 0.16967 0.03982 0.0
C20 C 0.91844 0.10872 0.03203 0.0
C21 C 0.94723 0.09865 0.04693 0.0
C22 C 0.98633 0.15161 0.06737 0.0
H23 H 0.96594 0.22586 0.05449 0.0
O24 O 0.97022 0.27522 0.10372 0.0
O25 O 0.00371 0.24667 0.09782 0.0
O26 O 0.02649 0.31195 0.07073 0.0
O27 O 0.03626 0.26625 0.05628 0.0
C28 C 0.942 0.05877 0.04196 0.0
C29 C 0.95586 0.09184 0.05101 0.0
H30 H 0.06656 0.15902 0.05811 0.0
H31 H 0.10173 0.19094 0.08881 0.0
H32 H 0.92054 0.18667 0.03418 0.0
H33 H 0.89747 0.08568 0.02169 0.0
H34 H 0.91898 0.0452 0.02875 0.0
H35 H 0.95303 0.05362 0.05077 0.0
Mn36 Mn 0.77417 0.76259 0.09918 0.0
Mn37 Mn 0.84456 0.83035 0.06805 0.0
C38 C 0.82892 0.75923 0.0916 0.0
C39 C 0.747 0.74121 0.13339 0.0
C40 C 0.76858 0.76689 0.05082 0.0
O41 O 0.76125 0.80592 0.09814 0.0
O42 O 0.81551 0.85091 0.08233 0.0
C43 C 0.88826 0.88053 0.10357 0.0
N44 N 0.88876 0.8606 0.08628 0.0
C45 C 0.96135 0.90493 0.08196 0.0
C46 C 0.95713 0.92152 0.10209 0.0
C47 C 0.92211 0.90884 0.11241 0.0
C48 C 0.92212 0.86439 0.0793 0.0
H49 H 0.86163 0.87483 0.11074 0.0
C50 C 0.7835 0.84006 0.09147 0.0
O51 O 0.72703 0.72796 0.11596 0.0
O52 O 0.78219 0.76817 0.13102 0.0
N53 N 0.87515 0.81629 0.05039 0.0
C54 C 0.86404 0.80814 0.02496 0.0
C55 C 0.89662 0.82187 1.00299 0.0
C56 C 0.94681 0.84661 1.00508 0.0
C57 C 0.96908 0.86052 0.03043 0.0
C58 C 0.91728 0.83801 0.06023 0.0
H59 H 0.8348 0.79646 0.02018 0.0
O60 O 0.79824 0.72936 0.0985 0.0
O61 O 0.8267 0.78977 0.08955 0.0
O62 O 0.75568 0.74784 0.0682 0.0
O63 O 0.79958 0.79914 0.04953 0.0
C64 C 0.00707 0.8994 0.03247 0.0
C65 C 0.01249 0.92584 0.05237 0.0
H66 H 0.97989 0.94596 0.11018 0.0
H67 H 0.92093 0.92341 0.12672 0.0
H68 H 0.8846 0.8156 0.98698 0.0
H69 H 0.9638 0.85641 0.99059 0.0
H70 H 0.02739 0.91013 0.01952 0.0
H71 H 0.04033 0.95206 0.05054 0.0
Mn72 Mn 0.31526 0.05368 0.09634 0.0
Mn73 Mn 0.23859 0.05583 0.07829 0.0
C74 C 0.31733 0.1124 0.09271 0.0
C75 C 0.34342 0.04654 0.12767 0.0
C76 C 0.28949 0.03572 0.05095 0.0
O77 O 0.27154 0.99788 0.09712 0.0
O78 O 0.22202 0.00863 0.09564 0.0
C79 C 0.20189 0.05831 0.11813 0.0
N80 N 0.21697 0.07555 0.0991 0.0
C81 C 0.16998 0.1011 0.0968 0.0
C82 C 0.15896 0.08397 0.11842 0.0
C83 C 0.17524 0.06458 0.12853 0.0
C84 C 0.20988 0.10264 0.09132 0.0
H85 H 0.20995 0.03906 0.12535 0.0
C86 C 0.23579 0.98635 0.09785 0.0
O87 O 0.35332 0.04054 0.10882 0.0
O88 O 0.31718 0.05576 0.12819 0.0
N89 N 0.25033 0.099 0.05925 0.0
C90 C 0.25335 0.09301 0.03368 0.0
C91 C 0.2336 0.10728 0.01241 0.0
C92 C 0.20841 0.13205 0.0156 0.0
C93 C 0.20033 0.14427 0.04146 0.0
C94 C 0.23077 0.12062 0.07004 0.0
H95 H 0.27327 0.08471 0.02885 0.0
O96 O 0.34874 0.11151 0.09493 0.0
O97 O 0.28673 0.07958 0.09299 0.0
O98 O 0.31868 0.04811 0.06326 0.0
O99 O 0.25871 0.03474 0.05692 0.0
C100 C 0.16198 0.1432 0.0462 0.0
C101 C 0.14102 0.12559 0.06831 0.0
H102 H 0.13634 0.08309 0.1281 0.0
H103 H 0.16456 0.05143 0.1441 0.0
H104 H 0.23838 0.1012 0.99616 0.0
H105 H 0.19517 0.13689 1.00175 0.0
H106 H 0.14778 0.15008 0.03374 0.0
H107 H 0.11432 0.12652 0.06835 0.0
Mn108 Mn 0.28168 0.0012 0.91274 0.0
Mn109 Mn 0.20461 0.99902 0.93328 0.0
C110 C 0.22485 0.94232 0.91664 0.0
C111 C 0.31533 0.01088 0.88049 0.0
C112 C 0.27758 0.01852 0.95855 0.0
O113 O 0.294 0.05708 0.91348 0.0
O114 O 0.23365 0.04565 0.91542 0.0
C115 C 0.16193 0.99622 0.89486 0.0
N116 N 0.16136 0.97928 0.91375 0.0
C117 C 0.08977 0.95619 0.91887 0.0
C118 C 0.09381 0.97272 0.89722 0.0
C119 C 0.12824 0.99076 0.88581 0.0
C120 C 0.12781 0.95317 0.92264 0.0
H121 H 0.18858 0.01464 0.88675 0.0
C122 C 0.26964 0.06842 0.91358 0.0
O123 O 0.33219 0.01547 0.89897 0.0
O124 O 0.27964 0.00095 0.88087 0.0
N125 N 0.17496 0.95609 0.95277 0.0
C126 C 0.18712 0.96246 0.97794 0.0
C127 C 0.15589 0.94996 1.00047 0.0
C128 C 0.1057 0.92672 0.9992 0.0
C129 C 0.08217 0.91435 0.97415 0.0
C130 C 0.13252 0.93539 0.94355 0.0
H131 H 0.21554 0.96949 0.98162 0.0
O132 O 0.2568 0.94306 0.91309 0.0
O133 O 0.22754 0.97526 0.91735 0.0
O134 O 0.29275 0.00532 0.94561 0.0
O135 O 0.24786 0.02036 0.95343 0.0
C136 C 0.04525 0.91688 0.97102 0.0
C137 C 0.04008 0.93432 0.94934 0.0
H138 H 0.07141 0.97417 0.88852 0.0
H139 H 0.12934 0.00361 0.87031 0.0
H140 H 0.16869 0.95599 0.01628 0.0
H141 H 0.08972 0.92286 0.0138 0.0
H142 H 0.02575 0.9112 0.98411 0.0
H143 H 0.01306 0.93453 0.95053 0.0
Mn144 Mn 0.03614 0.29797 0.91803 0.0
Mn145 Mn 0.03487 0.22575 0.94636 0.0
C146 C 0.09286 0.29849 0.92482 0.0
C147 C 0.03068 0.32156 0.88442 0.0
C148 C 0.02404 0.28849 0.96599 0.0
O149 O 0.97944 0.25614 0.91862 0.0
O150 O 0.98619 0.2071 0.93067 0.0
C151 C 0.03023 0.17749 0.91024 0.0
N152 N 0.04997 0.19666 0.92789 0.0
C153 C 0.0767 0.15096 0.93257 0.0
C154 C 0.05683 0.13542 0.91205 0.0
C155 C 0.03556 0.14907 0.90142 0.0
C156 C 0.07861 0.19173 0.93547 0.0
H157 H 0.00992 0.18383 0.9028 0.0
C158 C 0.96615 0.22075 0.92298 0.0
O159 O 0.02523 0.3348 0.90225 0.0
O160 O 0.03784 0.29383 0.8861 0.0
N161 N 0.0787 0.23869 0.96477 0.0
C162 C 0.0747 0.24595 0.99021 0.0
C163 C 0.09202 0.23086 0.01231 0.0
C164 C 0.11695 0.20565 0.01041 0.0
C165 C 0.12639 0.19265 0.98511 0.0
C166 C 0.09931 0.21706 0.95503 0.0
H167 H 0.05731 0.25779 0.99489 0.0
O168 O 0.09347 0.3295 0.91876 0.0
O169 O 0.05951 0.26845 0.92628 0.0
O170 O 0.03356 0.31067 0.94968 0.0
O171 O 0.01939 0.25478 0.96549 0.0
C172 C 0.12489 0.15353 0.9829 0.0
C173 C 0.10467 0.12808 0.9625 0.0
H174 H 0.05505 0.11106 0.90383 0.0
H175 H 0.02038 0.13513 0.88684 0.0
H176 H 0.08547 0.23643 0.02829 0.0
H177 H 0.1229 0.19475 0.02491 0.0
H178 H 0.13318 0.14192 0.99616 0.0
H179 H 0.10561 0.10149 0.96423 0.0
Mn180 Mn 0.73929 0.75537 0.91649 0.0
Mn181 Mn 0.81415 0.82727 0.94192 0.0
C182 C 0.74001 0.81236 0.92173 0.0
C183 C 0.71539 0.72464 0.88369 0.0
C184 C 0.75212 0.75503 0.96372 0.0
O185 O 0.77973 0.73919 0.91771 0.0
O186 O 0.83104 0.79628 0.9257 0.0
C187 C 0.86273 0.87093 0.90547 0.0
N188 N 0.84299 0.87134 0.92292 0.0
C189 C 0.88779 0.94461 0.92677 0.0
C190 C 0.90384 0.94004 0.90653 0.0
C191 C 0.89092 0.90484 0.89641 0.0
C192 C 0.84767 0.90491 0.93025 0.0
H193 H 0.85708 0.84432 0.89836 0.0
C194 C 0.81559 0.76118 0.92019 0.0
O195 O 0.70166 0.70691 0.90183 0.0
O196 O 0.74334 0.7595 0.88468 0.0
N197 N 0.80213 0.85855 0.96034 0.0
C198 C 0.79538 0.84847 0.98597 0.0
C199 C 0.80914 0.88192 0.00739 0.0
C200 C 0.83247 0.93198 1.00443 0.0
C201 C 0.84471 0.95316 0.97867 0.0
C202 C 0.82225 0.90022 0.94975 0.0
H203 H 0.78549 0.81978 0.99122 0.0
O204 O 0.70856 0.78174 0.91655 0.0
O205 O 0.76994 0.80878 0.92308 0.0
O206 O 0.72781 0.74241 0.94847 0.0
O207 O 0.78615 0.78329 0.96176 0.0
C208 C 0.88295 0.99155 0.97594 0.0
C209 C 0.90882 0.99679 0.95571 0.0
H210 H 0.92797 0.96275 0.8981 0.0
H211 H 0.9052 0.90357 0.88197 0.0
H212 H 0.80425 0.87063 0.02358 0.0
H213 H 0.84282 0.94978 0.01857 0.0
H214 H 0.89379 0.01212 0.98886 0.0
H215 H 0.9348 0.02494 0.95705 0.0
Mn216 Mn 0.01909 0.75211 0.91217 0.0
Mn217 Mn 0.02218 0.8277 0.93666 0.0
C218 C 0.07648 0.80797 0.91568 0.0
C219 C 0.01391 0.71864 0.88056 0.0
C220 C 0.02337 0.7641 0.96146 0.0
O221 O 0.96306 0.73701 0.9118 0.0
O222 O 0.9692 0.78585 0.93178 0.0
C223 C 0.98192 0.84869 0.90242 0.0
N224 N 0.0129 0.85894 0.9153 0.0
C225 C 0.02292 0.93017 0.91311 0.0
C226 C 0.99133 0.91508 0.89967 0.0
C227 C 0.97207 0.87572 0.89431 0.0
C228 C 0.03442 0.89546 0.92023 0.0
H229 H 0.96339 0.819 0.89851 0.0
C230 C 0.94901 0.75424 0.92202 0.0
O231 O 0.00845 0.70216 0.89927 0.0
O232 O 0.02038 0.75329 0.88031 0.0
N233 N 0.07238 0.87086 0.94411 0.0
C234 C 0.10013 0.86956 0.95908 0.0
C235 C 0.13083 0.9046 0.97282 0.0
C236 C 0.13405 0.97015 0.97073 0.0
C237 C 0.10266 0.96797 0.95372 0.0
C238 C 0.06822 0.90289 0.938 0.0
H239 H 0.098 0.84232 0.9623 0.0
O240 O 0.07503 0.77563 0.91286 0.0
O241 O 0.04396 0.80768 0.91564 0.0
O242 O 0.01683 0.7417 0.94542 0.0
O243 O 0.02815 0.79758 0.95958 0.0
C244 C 0.08599 0.99848 0.94331 0.0
C245 C 0.04599 0.97896 0.9233 0.0
H246 H 0.98079 0.93324 0.89372 0.0
H247 H 0.94713 0.86514 0.88412 0.0
H248 H 0.14738 0.89518 0.9825 0.0
H249 H 0.15206 0.99749 0.97875 0.0
H250 H 0.10313 0.02901 0.95091 0.0
H251 H 0.06703 0.99328 0.93356 0.0
Mn252 Mn 0.28118 0.28268 0.91467 0.0
Mn253 Mn 0.20769 0.21549 0.94403 0.0
C254 C 0.22731 0.28675 0.9203 0.0
C255 C 0.31245 0.30739 0.88167 0.0
C256 C 0.276 0.28149 0.96447 0.0
O257 O 0.29293 0.23961 0.91426 0.0
O258 O 0.2483 0.20226 0.93837 0.0
C259 C 0.1826 0.15132 0.91152 0.0
N260 N 0.17387 0.17286 0.92467 0.0
C261 C 0.10339 0.11083 0.92652 0.0
C262 C 0.11685 0.09333 0.91273 0.0
C263 C 0.15504 0.11348 0.9052 0.0
C264 C 0.13813 0.15819 0.93116 0.0
H265 H 0.21149 0.16265 0.90591 0.0
C266 C 0.27699 0.21017 0.92628 0.0
O267 O 0.33055 0.31891 0.89983 0.0
O268 O 0.27693 0.28097 0.88269 0.0
N269 N 0.1649 0.22357 0.95275 0.0
C270 C 0.16709 0.25389 0.96715 0.0
C271 C 0.13332 0.24994 0.98249 0.0
C272 C 0.06927 0.18608 0.98408 0.0
C273 C 0.07016 0.15579 0.96773 0.0
C274 C 0.13253 0.18623 0.94865 0.0
H275 H 0.19436 0.2797 0.96892 0.0
O276 O 0.25965 0.3169 0.9158 0.0
O277 O 0.22636 0.25406 0.92095 0.0
O278 O 0.2962 0.29305 0.94724 0.0
O279 O 0.24114 0.25483 0.96475 0.0
C280 C 0.03935 0.10727 0.95966 0.0
C281 C 0.05662 0.08537 0.93931 0.0
H282 H 0.09835 0.0639 0.90809 0.0
H283 H 0.1644 0.09849 0.89469 0.0
H284 H 0.14285 0.2768 0.9912 0.0
H285 H 0.04274 0.17688 0.99297 0.0
H286 H 0.01011 0.0941 0.96884 0.0
H287 H 0.04358 0.09281 0.95002 0.0
Mn288 Mn 0.75462 0.01562 0.90673 0.0
Mn289 Mn 0.81926 0.00731 0.93673 0.0
C290 C 0.7497 0.9571 0.91253 0.0
C291 C 0.72988 0.02215 0.87391 0.0
C292 C 0.75409 0.01039 0.95641 0.0
O293 O 0.79839 0.07049 0.90603 0.0
O294 O 0.83154 0.06123 0.93194 0.0
C295 C 0.88422 0.04885 0.90464 0.0
N296 N 0.86313 0.0182 0.91778 0.0
C297 C 0.92602 0.01151 0.91956 0.0
C298 C 0.94308 0.04275 0.90579 0.0
C299 C 0.92228 0.0601 0.89826 0.0
C300 C 0.87823 0.99738 0.92404 0.0
H301 H 0.87234 0.06594 0.89906 0.0
C302 C 0.82547 0.08311 0.91963 0.0
O303 O 0.71892 0.02942 0.89205 0.0
O304 O 0.7558 0.01239 0.87484 0.0
N305 N 0.81275 0.95713 0.94569 0.0
C306 C 0.78307 0.92901 0.96061 0.0
C307 C 0.78853 0.90108 0.97688 0.0
C308 C 0.85391 0.90417 0.97903 0.0
C309 C 0.88331 0.93503 0.96214 0.0
C310 C 0.85087 0.96389 0.94198 0.0
H311 H 0.75656 0.92913 0.96213 0.0
O312 O 0.71973 0.95975 0.90838 0.0
O313 O 0.78252 0.98856 0.91306 0.0
O314 O 0.74553 0.02223 0.93928 0.0
O315 O 0.7772 0.99765 0.95623 0.0
C316 C 0.93203 0.95409 0.9541 0.0
C317 C 0.95276 0.99237 0.93307 0.0
H318 H 0.97274 0.05463 0.90133 0.0
H319 H 0.93694 0.08473 0.8878 0.0
H320 H 0.76198 0.88348 0.98589 0.0
H321 H 0.86453 0.88889 0.98883 0.0
H322 H 0.94613 0.93941 0.9638 0.0
H323 H 0.94596 0.97251 0.94417 0.0
Mn324 Mn 0.77397 0.04587 0.09453 0.0
Mn325 Mn 0.85457 0.06173 0.06923 0.0
C326 C 0.8275 0.10601 0.09258 0.0
C327 C 0.74068 0.03521 0.12719 0.0
C328 C 0.78131 0.04402 0.04538 0.0
O329 O 0.76722 0.99263 0.09366 0.0
O330 O 0.8238 0.0065 0.07827 0.0
C331 C 0.89364 0.03769 0.10197 0.0
N332 N 0.89637 0.06747 0.08994 0.0
C333 C 0.97196 0.08088 0.08378 0.0
C334 C 0.96141 0.04976 0.09699 0.0
C335 C 0.9245 0.03081 0.10637 0.0
C336 C 0.93146 0.09519 0.08464 0.0
H337 H 0.866 0.01666 0.10811 0.0
C338 C 0.79121 0.98318 0.08694 0.0
O339 O 0.72314 0.02892 0.10883 0.0
O340 O 0.77649 0.04577 0.12649 0.0
N341 N 0.88255 0.1159 0.0573 0.0
C342 C 0.87025 0.12385 0.03275 0.0
C343 C 0.90184 0.14175 0.00802 0.0
C344 C 0.95373 0.15666 0.00743 0.0
C345 C 0.97911 0.1546 0.03163 0.0
C346 C 0.92418 0.12776 0.06593 0.0
H347 H 0.84163 0.11896 0.03102 0.0
O348 O 0.79414 0.10258 0.09523 0.0
O349 O 0.8284 0.0748 0.09052 0.0
O350 O 0.7607 0.04221 0.06152 0.0
O351 O 0.81552 0.05124 0.04759 0.0
C352 C 0.01315 0.13102 0.0339 0.0
C353 C 0.01135 0.09484 0.05884 0.0
H354 H 0.98005 0.03794 0.09873 0.0
H355 H 0.91773 0.00608 0.11622 0.0
H356 H 0.889 0.14372 0.99318 0.0
H357 H 0.96811 0.16285 0.99205 0.0
H358 H 0.03091 0.13394 0.02028 0.0
H359 H 0.02895 0.08171 0.05805 0.0
Mn360 Mn 0.03189 0.77084 0.10093 0.0
Mn361 Mn 0.02647 0.83906 0.07213 0.0
C362 C 0.97417 0.76801 0.09603 0.0
C363 C 0.03813 0.7454 0.13383 0.0
C364 C 0.02691 0.77245 0.05116 0.0
O365 O 0.08739 0.81344 0.10094 0.0
O366 O 0.08017 0.85217 0.07781 0.0
C367 C 0.06596 0.90358 0.10432 0.0
N368 N 0.03543 0.88179 0.09137 0.0
C369 C 0.02826 0.94444 0.08822 0.0
C370 C 0.05927 0.96212 0.10202 0.0
C371 C 0.07682 0.94182 0.11009 0.0
C372 C 0.01486 0.8967 0.08437 0.0
H373 H 0.08334 0.89215 0.11014 0.0
C374 C 0.10092 0.84348 0.08937 0.0
O375 O 0.04406 0.7337 0.11557 0.0
O376 O 0.03028 0.77269 0.13298 0.0
N377 N 0.97568 0.83066 0.06347 0.0
C378 C 0.94743 0.79989 0.04933 0.0
C379 C 0.91813 0.80366 0.03349 0.0
C380 C 0.91902 0.86793 0.03056 0.0
C381 C 0.95036 0.89873 0.04675 0.0
C382 C 0.98122 0.86831 0.06695 0.0
H383 H 0.94856 0.77385 0.04807 0.0
O384 O 0.97586 0.73754 0.10032 0.0
O385 O 0.00637 0.80032 0.09513 0.0
O386 O 0.03488 0.75976 0.0682 0.0
O387 O 0.02049 0.8002 0.05124 0.0
C388 C 0.96877 0.94772 0.05409 0.0
C389 C 0.0078 0.96999 0.07458 0.0
H390 H 0.07068 0.99181 0.1062 0.0
H391 H 0.10131 0.957 0.12051 0.0
H392 H 0.90072 0.77655 0.02502 0.0
H393 H 0.90267 0.87741 0.02086 0.0
H394 H 0.95323 0.96091 0.0444 0.0
H395 H 0.98748 0.9624 0.06372 0.0
Mn396 Mn 0.30832 0.30545 0.10277 0.0
Mn397 Mn 0.23257 0.22992 0.08001 0.0
C398 C 0.30828 0.24895 0.09866 0.0
C399 C 0.33779 0.33959 0.13398 0.0
C400 C 0.29537 0.29268 0.05371 0.0
O401 O 0.26864 0.32186 0.10415 0.0
O402 O 0.22277 0.27219 0.08602 0.0
C403 C 0.17598 0.2101 0.11675 0.0
N404 N 0.19434 0.19926 0.10247 0.0
C405 C 0.13178 0.12907 0.1052 0.0
C406 C 0.11786 0.14453 0.12012 0.0
C407 C 0.13984 0.18361 0.12595 0.0
C408 C 0.17774 0.16281 0.09712 0.0
H409 H 0.18852 0.23985 0.12098 0.0
C410 C 0.23616 0.30453 0.0952 0.0
O411 O 0.34856 0.3556 0.11514 0.0
O412 O 0.31006 0.30471 0.13455 0.0
N413 N 0.23782 0.18622 0.07132 0.0
C414 C 0.26492 0.1869 0.05513 0.0
C415 C 0.25793 0.1518 0.04051 0.0
C416 C 0.19435 0.08744 0.04331 0.0
C417 C 0.16742 0.09027 0.06162 0.0
C418 C 0.20159 0.1548 0.078 0.0
H419 H 0.29022 0.21385 0.05157 0.0
O420 O 0.33979 0.28092 0.10119 0.0
O421 O 0.27651 0.24998 0.09958 0.0
O422 O 0.31378 0.31504 0.0694 0.0
O423 O 0.26626 0.25963 0.05623 0.0
C424 C 0.12093 0.06073 0.07312 0.0
C425 C 0.10359 0.08076 0.09462 0.0
H426 H 0.08968 0.12693 0.1269 0.0
H427 H 0.1274 0.19453 0.13728 0.0
H428 H 0.28282 0.16066 0.02999 0.0
H429 H 0.18331 0.06021 0.03488 0.0
H430 H 0.10583 0.03043 0.06515 0.0
H431 H 0.10859 0.06625 0.08362 0.0
Mn432 Mn 0.68842 0.62219 0.4347 0.0
Mn433 Mn 0.68262 0.54806 0.40681 0.0
C434 C 0.63069 0.56784 0.42932 0.0
C435 C 0.69377 0.65435 0.46698 0.0
C436 C 0.68611 0.61538 0.38499 0.0
O437 O 0.74337 0.63466 0.43581 0.0
O438 O 0.73622 0.58992 0.41198 0.0
C439 C 0.72264 0.52539 0.44015 0.0
N440 N 0.69214 0.51557 0.42695 0.0
C441 C 0.68493 0.44562 0.42637 0.0
C442 C 0.71592 0.46007 0.44023 0.0
C443 C 0.73339 0.4985 0.44722 0.0
C444 C 0.67145 0.47951 0.42098 0.0
H445 H 0.74005 0.55465 0.44519 0.0
C446 C 0.75698 0.6194 0.42352 0.0
O447 O 0.70088 0.67196 0.44856 0.0
O448 O 0.68486 0.61887 0.46664 0.0
N449 N 0.63195 0.5044 0.39846 0.0
C450 C 0.60353 0.50549 0.38369 0.0
C451 C 0.57423 0.47099 0.36856 0.0
C452 C 0.57555 0.40771 0.3681 0.0
C453 C 0.60692 0.4098 0.38482 0.0
C454 C 0.63765 0.47268 0.40319 0.0
H455 H 0.6045 0.53245 0.3814 0.0
O456 O 0.63263 0.60029 0.43285 0.0
O457 O 0.66254 0.56717 0.42927 0.0
O458 O 0.6948 0.63616 0.40192 0.0
O459 O 0.67606 0.58007 0.3854 0.0
C460 C 0.62546 0.38003 0.39363 0.0
C461 C 0.66453 0.39858 0.41413 0.0
H462 H 0.72738 0.44219 0.44527 0.0
H463 H 0.75786 0.50866 0.45776 0.0
H464 H 0.55664 0.47977 0.35942 0.0
H465 H 0.55921 0.38104 0.35922 0.0
H466 H 0.60999 0.35057 0.38473 0.0
H467 H 0.64419 0.38492 0.40341 0.0
Mn468 Mn 0.4324 0.0929 0.42922 0.0
Mn469 Mn 0.50958 0.17084 0.4079 0.0
C470 C 0.48808 0.09158 0.423 0.0
C471 C 0.39867 0.06236 0.46054 0.0
C472 C 0.44131 0.11327 0.38133 0.0
O473 O 0.41737 0.13383 0.43216 0.0
O474 O 0.47277 0.18369 0.4211 0.0
C475 C 0.54447 0.22611 0.43745 0.0
N476 N 0.54684 0.19655 0.42961 0.0
C477 C 0.59602 0.22762 0.40188 0.0
C478 C 0.57678 0.25653 0.40516 0.0
C479 C 0.55608 0.25628 0.42338 0.0
C480 C 0.58207 0.20706 0.42121 0.0
H481 H 0.52504 0.2221 0.45042 0.0
C482 C 0.43927 0.16938 0.42896 0.0
O483 O 0.38214 0.0531 0.44183 0.0
O484 O 0.434 0.08918 0.46096 0.0
N485 N 0.54916 0.16681 0.39428 0.0
C486 C 0.5424 0.1379 0.38032 0.0
C487 C 0.57247 0.13935 0.36701 0.0
C488 C 0.63413 0.18684 0.36253 0.0
C489 C 0.64218 0.22233 0.37961 0.0
C490 C 0.58687 0.20446 0.39877 0.0
H491 H 0.5138 0.11359 0.3792 0.0
O492 O 0.45599 0.06029 0.42597 0.0
O493 O 0.48736 0.12319 0.42454 0.0
O494 O 0.42234 0.08991 0.39653 0.0
O495 O 0.47304 0.14453 0.38398 0.0
C496 C 0.68255 0.25783 0.37687 0.0
C497 C 0.64849 0.23693 0.38457 0.0
H498 H 0.58051 0.27881 0.39397 0.0
H499 H 0.54786 0.2777 0.42572 0.0
H500 H 0.55655 0.11085 0.35957 0.0
H501 H 0.65854 0.19123 0.35257 0.0
H502 H 0.6977 0.25114 0.36325 0.0
H503 H 0.68662 0.27215 0.38655 0.0
Mn504 Mn 0.96915 0.37408 0.43583 0.0
Mn505 Mn 0.90996 0.38809 0.40291 0.0
C506 C 0.97643 0.43399 0.43048 0.0
C507 C 0.98707 0.36339 0.46982 0.0
C508 C 0.97249 0.37344 0.38695 0.0
O509 O 0.92331 0.31988 0.43277 0.0
O510 O 0.88538 0.33412 0.41254 0.0
C511 C 0.84131 0.36382 0.43187 0.0
N512 N 0.86989 0.39329 0.42038 0.0
C513 C 0.80941 0.40836 0.41157 0.0
C514 C 0.7872 0.37748 0.42459 0.0
C515 C 0.80359 0.35789 0.43499 0.0
C516 C 0.86384 0.42151 0.41428 0.0
H517 H 0.84666 0.34242 0.43876 0.0
C518 C 0.89211 0.31049 0.42279 0.0
O519 O 0.00033 0.35701 0.4523 0.0
O520 O 0.9615 0.37356 0.46762 0.0
N521 N 0.93564 0.44065 0.3893 0.0
C522 C 0.95704 0.4469 0.36504 0.0
C523 C 0.94617 0.46545 0.3396 0.0
C524 C 0.9105 0.4818 0.33744 0.0
C525 C 0.88165 0.48084 0.36061 0.0
C526 C 0.90565 0.45334 0.39648 0.0
H527 H 0.97677 0.43686 0.36308 0.0
O528 O 0.00507 0.4307 0.43708 0.0
O529 O 0.94472 0.40274 0.42727 0.0
O530 O 0.98669 0.37203 0.40498 0.0
O531 O 0.94401 0.37844 0.38498 0.0
C532 C 0.82407 0.45847 0.36097 0.0
C533 C 0.78686 0.4229 0.3853 0.0
H534 H 0.75673 0.36635 0.42543 0.0
H535 H 0.78445 0.33346 0.4447 0.0
H536 H 0.96096 0.46564 0.32509 0.0
H537 H 0.90359 0.48785 0.32164 0.0
H538 H 0.81106 0.46206 0.34663 0.0
H539 H 0.7563 0.41039 0.38357 0.0
Mn540 Mn 0.97521 0.36125 0.25192 0.0
Mn541 Mn 0.90167 0.36086 0.27718 0.0
C542 C 0.91919 0.30296 0.2582 0.0
C543 C 0.00488 0.36832 0.2188 0.0
C544 C 0.97351 0.37168 0.29977 0.0
O545 O 0.9898 0.41789 0.25148 0.0
O546 O 0.9331 0.40968 0.26179 0.0
C547 C 0.8654 0.36406 0.23715 0.0
N548 N 0.86129 0.3456 0.256 0.0
C549 C 0.78846 0.31554 0.25456 0.0
C550 C 0.79683 0.33502 0.23351 0.0
C551 C 0.83367 0.35708 0.22521 0.0
C552 C 0.82703 0.31567 0.26149 0.0
H553 H 0.89329 0.38414 0.231 0.0
C554 C 0.96659 0.43017 0.25415 0.0
O555 O 0.02365 0.37356 0.23664 0.0
O556 O 0.96951 0.35941 0.22029 0.0
N557 N 0.86769 0.31746 0.29497 0.0
C558 C 0.87324 0.32214 0.32099 0.0
C559 C 0.83616 0.30357 0.34065 0.0
C560 C 0.78681 0.27672 0.33522 0.0
C561 C 0.77021 0.26648 0.30849 0.0
C562 C 0.82806 0.29556 0.28236 0.0
H563 H 0.90117 0.34109 0.32735 0.0
O564 O 0.95051 0.30367 0.253 0.0
O565 O 0.92185 0.33605 0.25925 0.0
O566 O 0.98887 0.36464 0.28381 0.0
O567 O 0.94354 0.37494 0.29846 0.0
C568 C 0.73253 0.26617 0.30245 0.0
C569 C 0.73111 0.28575 0.28056 0.0
H570 H 0.77594 0.33573 0.22296 0.0
H571 H 0.83775 0.37138 0.20986 0.0
H572 H 0.84457 0.31072 0.35726 0.0
H573 H 0.76667 0.27003 0.34822 0.0
H574 H 0.70971 0.25703 0.31409 0.0
H575 H 0.70292 0.28346 0.27943 0.0
Mn576 Mn 0.71294 0.63526 0.24713 0.0
Mn577 Mn 0.71698 0.56524 0.27462 0.0
C578 C 0.77007 0.63742 0.25256 0.0
C579 C 0.70896 0.66394 0.21508 0.0
C580 C 0.71495 0.62928 0.29681 0.0
O581 O 0.65755 0.59336 0.24581 0.0
O582 O 0.66375 0.55477 0.26957 0.0
C583 C 0.67597 0.50388 0.24087 0.0
N584 N 0.70661 0.52367 0.25411 0.0
C585 C 0.71274 0.46032 0.2536 0.0
C586 C 0.68165 0.44474 0.2398 0.0
C587 C 0.66458 0.4664 0.23336 0.0
C588 C 0.72692 0.50762 0.25963 0.0
H589 H 0.65894 0.51634 0.23613 0.0
C590 C 0.64342 0.56424 0.2581 0.0
O591 O 0.70178 0.67387 0.23357 0.0
O592 O 0.71689 0.6367 0.21517 0.0
N593 N 0.76715 0.5708 0.28289 0.0
C594 C 0.79576 0.59929 0.29796 0.0
C595 C 0.82455 0.59272 0.31285 0.0
C596 C 0.82195 0.52752 0.31233 0.0
C597 C 0.7905 0.49944 0.29532 0.0
C598 C 0.76081 0.53337 0.27762 0.0
H599 H 0.7953 0.62542 0.30066 0.0
O600 O 0.76882 0.66837 0.24919 0.0
O601 O 0.73789 0.60514 0.25238 0.0
O602 O 0.70659 0.64203 0.27995 0.0
O603 O 0.72435 0.60355 0.29629 0.0
C604 C 0.77132 0.45153 0.28589 0.0
C605 C 0.7324 0.43251 0.2653 0.0
H606 H 0.66984 0.4156 0.23438 0.0
H607 H 0.64009 0.4529 0.22281 0.0
H608 H 0.84239 0.61855 0.3223 0.0
H609 H 0.83787 0.51635 0.32101 0.0
H610 H 0.78635 0.43689 0.29459 0.0
H611 H 0.75259 0.43834 0.27601 0.0
Mn612 Mn 0.43855 0.1141 0.2426 0.0
Mn613 Mn 0.50484 0.18739 0.27222 0.0
C614 C 0.43456 0.16849 0.24762 0.0
C615 C 0.41626 0.08318 0.20948 0.0
C616 C 0.43827 0.11878 0.29219 0.0
O617 O 0.48101 0.10126 0.24346 0.0
O618 O 0.51967 0.14814 0.26592 0.0
C619 C 0.5686 0.2162 0.23929 0.0
N620 N 0.5471 0.22303 0.25346 0.0
C621 C 0.60922 0.29241 0.25847 0.0
C622 C 0.62645 0.28166 0.24301 0.0
C623 C 0.60607 0.24511 0.23324 0.0
C624 C 0.56164 0.25756 0.26165 0.0
H625 H 0.55721 0.18805 0.23246 0.0
C626 C 0.51103 0.11825 0.25484 0.0
O627 O 0.40325 0.06499 0.22757 0.0
O628 O 0.44267 0.1187 0.21068 0.0
N629 N 0.49488 0.22833 0.28192 0.0
C630 C 0.46346 0.22422 0.29613 0.0
C631 C 0.46642 0.25565 0.31297 0.0
C632 C 0.53043 0.31886 0.31747 0.0
C633 C 0.56189 0.32007 0.30116 0.0
C634 C 0.53258 0.26087 0.27932 0.0
H635 H 0.43746 0.19692 0.29662 0.0
O636 O 0.40471 0.13635 0.24258 0.0
O637 O 0.46693 0.16896 0.24898 0.0
O638 O 0.42571 0.09873 0.27503 0.0
O639 O 0.46615 0.15281 0.29246 0.0
C640 C 0.61109 0.35159 0.29449 0.0
C641 C 0.63421 0.33706 0.27334 0.0
H642 H 0.65537 0.30181 0.23842 0.0
H643 H 0.62014 0.23804 0.22091 0.0
H644 H 0.43894 0.24504 0.32125 0.0
H645 H 0.53937 0.34376 0.32777 0.0
H646 H 0.6238 0.37931 0.30499 0.0
H647 H 0.6262 0.34863 0.28466 0.0
Mn648 Mn 0.71706 0.11017 0.24139 0.0
Mn649 Mn 0.72268 0.18541 0.26778 0.0
C650 C 0.77573 0.16513 0.24702 0.0
C651 C 0.70983 0.07723 0.20906 0.0
C652 C 0.71894 0.11848 0.29101 0.0
O653 O 0.6611 0.09677 0.24074 0.0
O654 O 0.66976 0.14518 0.26173 0.0
C655 C 0.69162 0.20695 0.22902 0.0
N656 N 0.71709 0.21695 0.24546 0.0
C657 C 0.72362 0.28608 0.24316 0.0
C658 C 0.69976 0.2725 0.22534 0.0
C659 C 0.68504 0.23429 0.2183 0.0
C660 C 0.73636 0.25293 0.2513 0.0
H661 H 0.67606 0.17758 0.22379 0.0
C662 C 0.64823 0.11446 0.25161 0.0
O663 O 0.70386 0.0601 0.22758 0.0
O664 O 0.71936 0.1129 0.20938 0.0
N665 N 0.77185 0.22887 0.27775 0.0
C666 C 0.79701 0.228 0.29491 0.0
C667 C 0.82206 0.26223 0.31128 0.0
C668 C 0.81923 0.32469 0.30934 0.0
C669 C 0.79141 0.32233 0.29011 0.0
C670 C 0.76611 0.26006 0.27155 0.0
H671 H 0.7964 0.2014 0.29789 0.0
O672 O 0.77379 0.13288 0.24285 0.0
O673 O 0.74372 0.16518 0.24688 0.0
O674 O 0.71232 0.09746 0.27429 0.0
O675 O 0.72601 0.15301 0.29032 0.0
C676 C 0.77411 0.35151 0.27852 0.0
C677 C 0.74009 0.33276 0.25528 0.0
H678 H 0.6927 0.29123 0.21657 0.0
H679 H 0.66621 0.22483 0.20452 0.0
H680 H 0.83785 0.2537 0.32221 0.0
H681 H 0.83298 0.35113 0.31869 0.0
H682 H 0.78702 0.38066 0.28758 0.0
H683 H 0.75761 0.34651 0.26728 0.0
Mn684 Mn 0.96996 0.64332 0.24902 0.0
Mn685 Mn 0.89705 0.56886 0.27476 0.0
C686 C 0.91412 0.64444 0.25591 0.0
C687 C 6e-05 0.66895 0.21584 0.0
C688 C 0.97066 0.62844 0.29626 0.0
O689 O 0.98404 0.60095 0.24865 0.0
O690 O 0.92627 0.55107 0.25734 0.0
C691 C 0.85262 0.52485 0.23754 0.0
N692 N 0.85268 0.54263 0.25593 0.0
C693 C 0.77975 0.49806 0.26017 0.0
C694 C 0.78364 0.48395 0.23908 0.0
C695 C 0.81848 0.4978 0.22832 0.0
C696 C 0.81945 0.53783 0.26397 0.0
H697 H 0.87902 0.53124 0.2298 0.0
C698 C 0.96069 0.56511 0.25068 0.0
O699 O 0.01842 0.68089 0.23389 0.0
O700 O 0.96498 0.64149 0.21705 0.0
N701 N 0.86681 0.58099 0.29427 0.0
C702 C 0.8777 0.5857 0.3198 0.0
C703 C 0.84495 0.56977 0.34175 0.0
C704 C 0.79482 0.54633 0.33958 0.0
C705 C 0.77276 0.53622 0.31412 0.0
C706 C 0.82472 0.5616 0.28432 0.0
H707 H 0.90679 0.59627 0.32449 0.0
O708 O 0.94506 0.67558 0.25061 0.0
O709 O 0.91668 0.61393 0.25645 0.0
O710 O 0.9839 0.65288 0.28098 0.0
O711 O 0.94166 0.5948 0.29436 0.0
C712 C 0.73436 0.49813 0.31104 0.0
C713 C 0.72852 0.47419 0.28991 0.0
H714 H 0.76068 0.46065 0.23038 0.0
H715 H 0.81929 0.48501 0.2132 0.0
H716 H 0.85678 0.57362 0.35776 0.0
H717 H 0.77755 0.53463 0.35388 0.0
H718 H 0.7142 0.48599 0.32409 0.0
H719 H 0.70043 0.44806 0.29108 0.0
Mn720 Mn 0.42532 0.36116 0.25067 0.0
Mn721 Mn 0.49356 0.35864 0.28084 0.0
C722 C 0.4235 0.30327 0.25635 0.0
C723 C 0.40648 0.37103 0.21681 0.0
C724 C 0.4286 0.36731 0.29897 0.0
O725 O 0.46692 0.4176 0.25318 0.0
O726 O 0.51349 0.40915 0.26728 0.0
C727 C 0.54507 0.36864 0.24535 0.0
N728 N 0.52474 0.34672 0.26224 0.0
C729 C 0.56947 0.31892 0.26582 0.0
C730 C 0.58675 0.34166 0.2462 0.0
C731 C 0.574 0.36434 0.23636 0.0
C732 C 0.52878 0.31697 0.26861 0.0
H733 H 0.53923 0.38981 0.23862 0.0
C734 C 0.50134 0.43014 0.25922 0.0
O735 O 0.39107 0.37455 0.23433 0.0
O736 O 0.43342 0.36282 0.219 0.0
N737 N 0.4796 0.31285 0.29766 0.0
C738 C 0.47041 0.31332 0.32318 0.0
C739 C 0.48326 0.29238 0.34451 0.0
C740 C 0.50819 0.26727 0.34156 0.0
C741 C 0.52317 0.26147 0.31593 0.0
C742 C 0.50178 0.29355 0.28715 0.0
H743 H 0.45898 0.33076 0.3285 0.0
O744 O 0.39344 0.30377 0.24958 0.0
O745 O 0.45336 0.33633 0.25928 0.0
O746 O 0.40895 0.36085 0.28185 0.0
O747 O 0.4617 0.37056 0.29971 0.0
C748 C 0.56217 0.26271 0.31377 0.0
C749 C 0.58948 0.28593 0.29437 0.0
H750 H 0.6117 0.34451 0.23811 0.0
H751 H 0.58891 0.38124 0.22235 0.0
H752 H 0.47649 0.29672 0.3607 0.0
H753 H 0.51774 0.25893 0.35576 0.0
H754 H 0.57183 0.25111 0.32631 0.0
H755 H 0.61567 0.28424 0.29595 0.0
Mn756 Mn 0.42975 0.37478 0.43349 0.0
Mn757 Mn 0.50077 0.37341 0.40584 0.0
C758 C 0.48561 0.43175 0.42645 0.0
C759 C 0.40062 0.36802 0.46678 0.0
C760 C 0.42665 0.36185 0.3861 0.0
O761 O 0.41476 0.31824 0.43309 0.0
O762 O 0.47138 0.32565 0.42262 0.0
C763 C 0.54504 0.37083 0.44245 0.0
N764 N 0.54526 0.38961 0.42435 0.0
C765 C 0.61797 0.41744 0.41999 0.0
C766 C 0.61389 0.39832 0.44081 0.0
C767 C 0.57901 0.37704 0.4515 0.0
C768 C 0.57864 0.41832 0.41658 0.0
H769 H 0.51856 0.3507 0.45013 0.0
C770 C 0.43762 0.30557 0.43017 0.0
O771 O 0.38188 0.36305 0.44899 0.0
O772 O 0.43582 0.37609 0.46522 0.0
N773 N 0.53146 0.41645 0.38675 0.0
C774 C 0.52035 0.41146 0.36126 0.0
C775 C 0.55293 0.42885 0.33923 0.0
C776 C 0.60311 0.45483 0.34128 0.0
C777 C 0.62539 0.46538 0.36669 0.0
C778 C 0.57365 0.4381 0.39661 0.0
H779 H 0.49116 0.39324 0.3566 0.0
O780 O 0.45515 0.43206 0.43259 0.0
O781 O 0.48262 0.39854 0.42524 0.0
O782 O 0.41445 0.37211 0.40214 0.0
O783 O 0.45567 0.35704 0.38672 0.0
C784 C 0.66346 0.46492 0.36939 0.0
C785 C 0.66904 0.44558 0.39018 0.0
H786 H 0.63668 0.39726 0.4493 0.0
H787 H 0.578 0.36259 0.4664 0.0
H788 H 0.54092 0.42166 0.32323 0.0
H789 H 0.62022 0.46083 0.32689 0.0
H790 H 0.68356 0.47345 0.3563 0.0
H791 H 0.6969 0.44719 0.38877 0.0
Mn792 Mn 0.68529 0.09276 0.42787 0.0
Mn793 Mn 0.67488 0.1593 0.39975 0.0
C794 C 0.62604 0.08665 0.42193 0.0
C795 C 0.69206 0.06862 0.46107 0.0
C796 C 0.69162 0.10145 0.37878 0.0
O797 O 0.73963 0.13862 0.42815 0.0
O798 O 0.72805 0.18072 0.4103 0.0
C799 C 0.69685 0.21866 0.43467 0.0
N800 N 0.66856 0.19427 0.42098 0.0
C801 C 0.65558 0.25717 0.41875 0.0
C802 C 0.68502 0.27489 0.43323 0.0
C803 C 0.70292 0.2551 0.4415 0.0
C804 C 0.64122 0.20238 0.41629 0.0
H805 H 0.7171 0.21083 0.44054 0.0
C806 C 0.75037 0.17162 0.42004 0.0
O807 O 0.70018 0.05815 0.44304 0.0
O808 O 0.68177 0.09414 0.45986 0.0
N809 N 0.62363 0.13835 0.38498 0.0
C810 C 0.6198 0.12417 0.35906 0.0
C811 C 0.60457 0.14288 0.33536 0.0
C812 C 0.5894 0.17952 0.33697 0.0
C813 C 0.58824 0.20157 0.36264 0.0
C814 C 0.61076 0.16645 0.39523 0.0
H815 H 0.63012 0.1051 0.35493 0.0
O816 O 0.62859 0.05671 0.42652 0.0
O817 O 0.65757 0.11872 0.42098 0.0
O818 O 0.6919 0.08349 0.39572 0.0
O819 O 0.68569 0.12956 0.37893 0.0
C820 C 0.61135 0.25844 0.36842 0.0
C821 C 0.64456 0.28761 0.39536 0.0
H822 H 0.69637 0.30474 0.43695 0.0
H823 H 0.7262 0.27073 0.45261 0.0
H824 H 0.6059 0.13251 0.31964 0.0
H825 H 0.58546 0.19117 0.32215 0.0
H826 H 0.60989 0.27597 0.35576 0.0
H827 H 0.65773 0.31834 0.39643 0.0
Mn828 Mn 0.97149 0.62883 0.43419 0.0
Mn829 Mn 0.90076 0.55449 0.40658 0.0
C830 C 0.97381 0.57332 0.42913 0.0
C831 C 0.99507 0.65938 0.46731 0.0
C832 C 0.96578 0.62424 0.38488 0.0
O833 O 0.93024 0.64389 0.43329 0.0
O834 O 0.88593 0.59155 0.41629 0.0
C835 C 0.83716 0.51906 0.43059 0.0
N836 N 0.86782 0.5158 0.4262 0.0
C837 C 0.8446 0.46962 0.39672 0.0
C838 C 0.8163 0.48994 0.39644 0.0
C839 C 0.81198 0.50968 0.41377 0.0
C840 C 0.85886 0.48104 0.41765 0.0
H841 H 0.83817 0.5382 0.44301 0.0
C842 C 0.89716 0.62371 0.4252 0.0
O843 O 0.00834 0.67752 0.44923 0.0
O844 O 0.96754 0.62438 0.46611 0.0
N845 N 0.90747 0.51555 0.39482 0.0
C846 C 0.93976 0.52313 0.38371 0.0
C847 C 0.94131 0.49441 0.3707 0.0
C848 C 0.89468 0.43384 0.3626 0.0
C849 C 0.85495 0.42492 0.37615 0.0
C850 C 0.86827 0.47831 0.39596 0.0
H851 H 0.96468 0.55118 0.38494 0.0
O852 O 0.00416 0.60497 0.43418 0.0
O853 O 0.9423 0.57424 0.42773 0.0
O854 O 0.98349 0.64245 0.40184 0.0
O855 O 0.93467 0.59208 0.38501 0.0
C856 C 0.82012 0.38536 0.37067 0.0
C857 C 0.83916 0.41845 0.37971 0.0
H858 H 0.79781 0.48789 0.38323 0.0
H859 H 0.79124 0.51911 0.41337 0.0
H860 H 0.9716 0.51056 0.3658 0.0
H861 H 0.8926 0.41035 0.35267 0.0
H862 H 0.83017 0.37124 0.35816 0.0
H863 H 0.80327 0.38065 0.3789 0.0
Mn864 Mn 0.3506 0.96444 0.76141 0.0
Mn865 Mn 0.35025 0.89372 0.73275 0.0
C866 C 0.2927 0.90903 0.75388 0.0
C867 C 0.35566 0.99006 0.79583 0.0
C868 C 0.36208 0.9682 0.71308 0.0
O869 O 0.40705 0.97843 0.76187 0.0
O870 O 0.39931 0.92385 0.74788 0.0
C871 C 0.35523 0.8531 0.7705 0.0
N872 N 0.33595 0.85108 0.75233 0.0
C873 C 0.30774 0.77843 0.75034 0.0
C874 C 0.32828 0.78442 0.77085 0.0
C875 C 0.34972 0.82009 0.78055 0.0
C876 C 0.30659 0.81724 0.74593 0.0
H877 H 0.37499 0.88026 0.77749 0.0
C878 C 0.41949 0.95593 0.75712 0.0
O879 O 0.36193 0.01091 0.77867 0.0
O880 O 0.3473 0.9551 0.79294 0.0
N881 N 0.30607 0.86161 0.71503 0.0
C882 C 0.30913 0.87041 0.68925 0.0
C883 C 0.28995 0.83584 0.66832 0.0
C884 C 0.26409 0.78587 0.67202 0.0
C885 C 0.25558 0.76596 0.6981 0.0
C886 C 0.28532 0.82044 0.72623 0.0
H887 H 0.32728 0.89916 0.68368 0.0
O888 O 0.29314 0.93981 0.76001 0.0
O889 O 0.32582 0.91191 0.75243 0.0
O890 O 0.35538 0.9821 0.72988 0.0
O891 O 0.36408 0.93751 0.71301 0.0
C892 C 0.25631 0.7281 0.70173 0.0
C893 C 0.27731 0.72445 0.72236 0.0
H894 H 0.33017 0.76253 0.7799 0.0
H895 H 0.36474 0.82244 0.79541 0.0
H896 H 0.296 0.84635 0.65195 0.0
H897 H 0.25696 0.76744 0.65817 0.0
H898 H 0.24697 0.70684 0.68922 0.0
H899 H 0.27561 0.69647 0.72178 0.0
Mn900 Mn 0.10184 0.42417 0.77018 0.0
Mn901 Mn 0.17791 0.49256 0.74358 0.0
C902 C 0.15554 0.41892 0.76465 0.0
C903 C 0.06898 0.39729 0.80245 0.0
C904 C 0.11081 0.4308 0.72055 0.0
O905 O 0.09014 0.46778 0.77109 0.0
O906 O 0.13753 0.50572 0.74869 0.0
C907 C 0.19884 0.5469 0.78139 0.0
N908 N 0.20898 0.53047 0.76558 0.0
C909 C 0.27904 0.59184 0.76845 0.0
C910 C 0.2651 0.60293 0.7857 0.0
C911 C 0.22632 0.58063 0.79212 0.0
C912 C 0.24521 0.54631 0.76027 0.0
H913 H 0.16933 0.53385 0.78629 0.0
C914 C 0.10732 0.49746 0.75928 0.0
O915 O 0.05156 0.38729 0.78402 0.0
O916 O 0.10458 0.42348 0.80212 0.0
N917 N 0.22143 0.4858 0.73483 0.0
C918 C 0.221 0.45874 0.71857 0.0
C919 C 0.25649 0.46594 0.70366 0.0
C920 C 0.32043 0.52973 0.70641 0.0
C921 C 0.31748 0.55644 0.72459 0.0
C922 C 0.25302 0.52225 0.74123 0.0
H923 H 0.19406 0.43338 0.71514 0.0
O924 O 0.12272 0.38894 0.7684 0.0
O925 O 0.15683 0.45164 0.7649 0.0
O926 O 0.08939 0.41763 0.73729 0.0
O927 O 0.14608 0.45647 0.72119 0.0
C928 C 0.3471 0.60292 0.73596 0.0
C929 C 0.32725 0.62012 0.75764 0.0
H930 H 0.28439 0.62765 0.79494 0.0
H931 H 0.21674 0.59031 0.80567 0.0
H932 H 0.24803 0.44116 0.6932 0.0
H933 H 0.34774 0.54115 0.69792 0.0
H934 H 0.37731 0.61799 0.72782 0.0
H935 H 0.34165 0.61524 0.74649 0.0
Mn936 Mn 0.62135 0.6964 0.76796 0.0
Mn937 Mn 0.55207 0.69899 0.73877 0.0
C938 C 0.62251 0.75292 0.76239 0.0
C939 C 0.64544 0.68978 0.80088 0.0
C940 C 0.62095 0.70176 0.71836 0.0
O941 O 0.58083 0.64068 0.76791 0.0
O942 O 0.54096 0.64538 0.74459 0.0
C943 C 0.48929 0.65836 0.77199 0.0
N944 N 0.50946 0.68877 0.75854 0.0
C945 C 0.44616 0.69483 0.75795 0.0
C946 C 0.43021 0.66407 0.77209 0.0
C947 C 0.45161 0.64709 0.77913 0.0
C948 C 0.49369 0.70911 0.75251 0.0
H949 H 0.50164 0.64147 0.77721 0.0
C950 C 0.55112 0.62576 0.75628 0.0
O951 O 0.65864 0.68509 0.78279 0.0
O952 O 0.61797 0.69732 0.79979 0.0
N953 N 0.5577 0.7491 0.7297 0.0
C954 C 0.58668 0.77762 0.71468 0.0
C955 C 0.58051 0.80594 0.69907 0.0
C956 C 0.51506 0.80283 0.69832 0.0
C957 C 0.48645 0.77166 0.71543 0.0
C958 C 0.52002 0.74272 0.73437 0.0
H959 H 0.61311 0.77757 0.71268 0.0
O960 O 0.65335 0.75242 0.76732 0.0
O961 O 0.59068 0.7203 0.76162 0.0
O962 O 0.63351 0.69409 0.73552 0.0
O963 O 0.59219 0.7068 0.71805 0.0
C964 C 0.43815 0.75241 0.72436 0.0
C965 C 0.4186 0.71395 0.74535 0.0
H966 H 0.40101 0.65243 0.77738 0.0
H967 H 0.43774 0.62277 0.78988 0.0
H968 H 0.60669 0.82375 0.6898 0.0
H969 H 0.50402 0.81829 0.68904 0.0
H970 H 0.42355 0.76706 0.71517 0.0
H971 H 0.42474 0.73387 0.73436 0.0
Mn972 Mn 0.62569 0.68368 0.58196 0.0
Mn973 Mn 0.55026 0.67357 0.61121 0.0
C974 C 0.57223 0.62466 0.58761 0.0
C975 C 0.65574 0.69168 0.54853 0.0
C976 C 0.62624 0.69073 0.63082 0.0
O977 O 0.63416 0.73785 0.58221 0.0
O978 O 0.58009 0.72667 0.5996 0.0
C979 C 0.5065 0.69415 0.57949 0.0
N980 N 0.50545 0.66589 0.59227 0.0
C981 C 0.42977 0.65186 0.59988 0.0
C982 C 0.4387 0.68141 0.58572 0.0
C983 C 0.47478 0.69981 0.57534 0.0
C984 C 0.47106 0.63848 0.59885 0.0
H985 H 0.53336 0.71483 0.57236 0.0
C986 C 0.61158 0.74862 0.58965 0.0
O987 O 0.67472 0.69894 0.56641 0.0
O988 O 0.61995 0.68141 0.55004 0.0
N989 N 0.52338 0.62212 0.62615 0.0
C990 C 0.53812 0.61801 0.65099 0.0
C991 C 0.50825 0.60174 0.67631 0.0
C992 C 0.45617 0.58548 0.67775 0.0
C993 C 0.42865 0.58427 0.65381 0.0
C994 C 0.48078 0.60852 0.6183 0.0
H995 H 0.56795 0.62817 0.65331 0.0
O996 O 0.60451 0.627 0.58274 0.0
O997 O 0.57207 0.65639 0.58907 0.0
O998 O 0.64311 0.68899 0.61386 0.0
O999 O 0.59282 0.6862 0.63076 0.0
C1000 C 0.39363 0.6067 0.65167 0.0
C1001 C 0.39232 0.63986 0.62576 0.0
H1002 H 0.41952 0.69258 0.58389 0.0
H1003 H 0.48022 0.72326 0.5647 0.0
H1004 H 0.52276 0.60321 0.69115 0.0
H1005 H 0.44297 0.58094 0.69342 0.0
H1006 H 0.37681 0.6043 0.66571 0.0
H1007 H 0.37427 0.65249 0.62645 0.0
Mn1008 Mn 0.36959 0.97058 0.57679 0.0
Mn1009 Mn 0.37909 0.90723 0.60858 0.0
C1010 C 0.42803 0.97497 0.5821 0.0
C1011 C 0.36011 0.98952 0.54279 0.0
C1012 C 0.36831 0.97161 0.62587 0.0
O1013 O 0.31477 0.92658 0.57915 0.0
O1014 O 0.32521 0.88554 0.59899 0.0
C1015 C 0.35172 0.83949 0.57855 0.0
N1016 N 0.382 0.86682 0.59007 0.0
C1017 C 0.39527 0.80436 0.59616 0.0
C1018 C 0.36367 0.78366 0.58345 0.0
C1019 C 0.34451 0.80159 0.57434 0.0
C1020 C 0.40977 0.85939 0.59503 0.0
H1021 H 0.33064 0.846 0.57248 0.0
C1022 C 0.30336 0.89454 0.58862 0.0
O1023 O 0.35466 0.00361 0.56028 0.0
O1024 O 0.36933 0.96331 0.54508 0.0
N1025 N 0.43148 0.92964 0.62199 0.0
C1026 C 0.43892 0.94923 0.6468 0.0
C1027 C 0.4577 0.93577 0.67119 0.0
C1028 C 0.47284 0.89906 0.67151 0.0
C1029 C 0.47035 0.87164 0.64735 0.0
C1030 C 0.44288 0.89947 0.61332 0.0
H1031 H 0.42909 0.96885 0.64993 0.0
O1032 O 0.42634 0.00473 0.57587 0.0
O1033 O 0.39598 0.94376 0.58491 0.0
O1034 O 0.36759 0.98695 0.60803 0.0
O1035 O 0.37178 0.94206 0.62734 0.0
C1036 C 0.44665 0.81396 0.64558 0.0
C1037 C 0.40972 0.77909 0.62111 0.0
H1038 H 0.35164 0.75312 0.58195 0.0
H1039 H 0.3194 0.78351 0.56487 0.0
H1040 H 0.45865 0.94954 0.68623 0.0
H1041 H 0.47908 0.89067 0.68683 0.0
H1042 H 0.45042 0.79965 0.65929 0.0
H1043 H 0.39653 0.74834 0.62214 0.0
Mn1044 Mn 0.09297 0.43574 0.58262 0.0
Mn1045 Mn 0.16335 0.50982 0.60968 0.0
C1046 C 0.09122 0.49103 0.5878 0.0
C1047 C 0.06424 0.40274 0.55091 0.0
C1048 C 0.09889 0.44378 0.63214 0.0
O1049 O 0.13466 0.42201 0.5813 0.0
O1050 O 0.17388 0.46739 0.60439 0.0
C1051 C 0.22441 0.53094 0.57545 0.0
N1052 N 0.20491 0.54143 0.58912 0.0
C1053 C 0.26867 0.61068 0.58916 0.0
C1054 C 0.28395 0.59565 0.57484 0.0
C1055 C 0.26189 0.55728 0.56786 0.0
C1056 C 0.2213 0.57753 0.59509 0.0
H1057 H 0.21169 0.50159 0.57041 0.0
C1058 C 0.1642 0.43744 0.59314 0.0
O1059 O 0.05425 0.38585 0.56953 0.0
O1060 O 0.09153 0.43797 0.55069 0.0
N1061 N 0.15779 0.55416 0.61818 0.0
C1062 C 0.1291 0.55387 0.63325 0.0
C1063 C 0.13551 0.58885 0.64829 0.0
C1064 C 0.20078 0.6515 0.64807 0.0
C1065 C 0.22918 0.6485 0.63108 0.0
C1066 C 0.19541 0.58529 0.61312 0.0
H1067 H 0.10286 0.52722 0.63579 0.0
O1068 O 0.06017 0.45885 0.58456 0.0
O1069 O 0.12337 0.49094 0.5876 0.0
O1070 O 0.08584 0.42265 0.61542 0.0
O1071 O 0.12523 0.47867 0.63148 0.0
C1072 C 0.27733 0.67744 0.62174 0.0
C1073 C 0.2965 0.65789 0.60106 0.0
H1074 H 0.3131 0.61306 0.56937 0.0
H1075 H 0.27521 0.54666 0.55693 0.0
H1076 H 0.10953 0.58064 0.65769 0.0
H1077 H 0.2118 0.67842 0.6568 0.0
H1078 H 0.29214 0.70713 0.63042 0.0
H1079 H 0.29057 0.67202 0.61183 0.0
Mn1080 Mn 0.37091 0.43165 0.58216 0.0
Mn1081 Mn 0.37476 0.50632 0.60918 0.0
C1082 C 0.429 0.48652 0.58794 0.0
C1083 C 0.36426 0.40077 0.54954 0.0
C1084 C 0.36898 0.43666 0.63129 0.0
O1085 O 0.31479 0.417 0.58212 0.0
O1086 O 0.32266 0.46847 0.59985 0.0
C1087 C 0.34622 0.53976 0.58378 0.0
N1088 N 0.38023 0.54358 0.58861 0.0
C1089 C 0.40329 0.59206 0.61675 0.0
C1090 C 0.35462 0.5716 0.61696 0.0
C1091 C 0.33043 0.55021 0.60005 0.0
C1092 C 0.40609 0.57896 0.59634 0.0
H1093 H 0.32802 0.51949 0.57178 0.0
C1094 C 0.30175 0.43666 0.59059 0.0
O1095 O 0.35862 0.38264 0.5677 0.0
O1096 O 0.37268 0.43609 0.55039 0.0
N1097 N 0.42031 0.54646 0.62074 0.0
C1098 C 0.44479 0.53995 0.63295 0.0
C1099 C 0.4749 0.56989 0.64561 0.0
C1100 C 0.48873 0.63112 0.6515 0.0
C1101 C 0.45818 0.63872 0.63669 0.0
C1102 C 0.41836 0.58354 0.61811 0.0
H1103 H 0.44165 0.51182 0.63287 0.0
O1104 O 0.42738 0.45469 0.58307 0.0
O1105 O 0.39681 0.48617 0.58861 0.0
O1106 O 0.36755 0.41799 0.6144 0.0
O1107 O 0.37146 0.46951 0.63121 0.0
C1108 C 0.46366 0.6791 0.64004 0.0
C1109 C 0.44893 0.64479 0.63263 0.0
H1110 H 0.33815 0.5748 0.62973 0.0
H1111 H 0.30017 0.54037 0.60043 0.0
H1112 H 0.48894 0.55426 0.65158 0.0
H1113 H 0.51 0.6555 0.66099 0.0
H1114 H 0.4887 0.69462 0.6519 0.0
H1115 H 0.45089 0.68264 0.63181 0.0
Mn1116 Mn 0.61905 0.9633 0.57457 0.0
Mn1117 Mn 0.54184 0.89156 0.60037 0.0
C1118 C 0.56444 0.96729 0.57961 0.0
C1119 C 0.65208 0.98953 0.54215 0.0
C1120 C 0.61206 0.95281 0.62358 0.0
O1121 O 0.63216 0.92055 0.5749 0.0
O1122 O 0.57721 0.87518 0.58957 0.0
C1123 C 0.50447 0.83093 0.57455 0.0
N1124 N 0.50258 0.86179 0.58035 0.0
C1125 C 0.45706 0.83716 0.61027 0.0
C1126 C 0.47609 0.80779 0.60876 0.0
C1127 C 0.49471 0.80413 0.5906 0.0
C1128 C 0.46826 0.85307 0.58957 0.0
H1129 H 0.523 0.83245 0.56158 0.0
C1130 C 0.61005 0.88649 0.58143 0.0
O1131 O 0.6691 0.00043 0.56064 0.0
O1132 O 0.61676 0.96248 0.54249 0.0
N1133 N 0.50424 0.89941 0.61307 0.0
C1134 C 0.51298 0.9311 0.62508 0.0
C1135 C 0.48513 0.9325 0.63904 0.0
C1136 C 0.42439 0.88626 0.64735 0.0
C1137 C 0.41403 0.84731 0.63265 0.0
C1138 C 0.46637 0.86086 0.61166 0.0
H1139 H 0.54136 0.95555 0.6239 0.0
O1140 O 0.59678 0.99739 0.57516 0.0
O1141 O 0.5641 0.93508 0.58033 0.0
O1142 O 0.63098 0.97232 0.60714 0.0
O1143 O 0.57969 0.92204 0.6226 0.0
C1144 C 0.37417 0.81274 0.63805 0.0
C1145 C 0.40709 0.83178 0.62873 0.0
H1146 H 0.47389 0.78804 0.62131 0.0
H1147 H 0.50314 0.78264 0.58982 0.0
H1148 H 0.50204 0.96236 0.64451 0.0
H1149 H 0.4015 0.88402 0.65794 0.0
H1150 H 0.36085 0.82241 0.65128 0.0
H1151 H 0.36885 0.79639 0.62944 0.0
Mn1152 Mn 0.08765 0.68627 0.58423 0.0
Mn1153 Mn 0.16051 0.68627 0.6107 0.0
C1154 C 0.08535 0.62873 0.59131 0.0
C1155 C 0.06439 0.69235 0.55073 0.0
C1156 C 0.10115 0.70142 0.63154 0.0
O1157 O 0.13028 0.7424 0.58422 0.0
O1158 O 0.1793 0.73394 0.5939 0.0
C1159 C 0.20513 0.68699 0.57352 0.0
N1160 N 0.18698 0.66869 0.5918 0.0
C1161 C 0.23115 0.64004 0.59589 0.0
C1162 C 0.24571 0.65866 0.57489 0.0
C1163 C 0.23226 0.68011 0.56425 0.0
C1164 C 0.19142 0.63993 0.59967 0.0
H1165 H 0.19901 0.70734 0.56591 0.0
C1166 C 0.16577 0.75473 0.5873 0.0
O1167 O 0.05156 0.69842 0.56856 0.0
O1168 O 0.09109 0.68376 0.55238 0.0
N1169 N 0.14767 0.64332 0.62992 0.0
C1170 C 0.14249 0.64892 0.65544 0.0
C1171 C 0.15796 0.63154 0.67736 0.0
C1172 C 0.18135 0.60482 0.67513 0.0
C1173 C 0.1919 0.59347 0.64964 0.0
C1174 C 0.16723 0.6209 0.61991 0.0
H1175 H 0.13142 0.66704 0.66014 0.0
O1176 O 0.05467 0.62906 0.58567 0.0
O1177 O 0.11604 0.66165 0.59212 0.0
O1178 O 0.07719 0.69083 0.61608 0.0
O1179 O 0.13416 0.70446 0.63013 0.0
C1180 C 0.23 0.59314 0.6466 0.0
C1181 C 0.25434 0.61177 0.62552 0.0
H1182 H 0.26911 0.65919 0.56619 0.0
H1183 H 0.24539 0.69419 0.54923 0.0
H1184 H 0.15379 0.63912 0.69338 0.0
H1185 H 0.19269 0.59882 0.68943 0.0
H1186 H 0.24178 0.58464 0.65967 0.0
H1187 H 0.28036 0.60967 0.62666 0.0
Mn1188 Mn 0.102 0.70481 0.76879 0.0
Mn1189 Mn 0.17691 0.71241 0.74044 0.0
C1190 C 0.15682 0.76362 0.76404 0.0
C1191 C 0.06777 0.69459 0.80085 0.0
C1192 C 0.10959 0.71132 0.71941 0.0
O1193 O 0.089 0.6492 0.76801 0.0
O1194 O 0.13707 0.65863 0.74627 0.0
C1195 C 0.20198 0.67745 0.77564 0.0
N1196 N 0.21043 0.7052 0.76062 0.0
C1197 C 0.27999 0.71237 0.75899 0.0
C1198 C 0.26784 0.68569 0.77539 0.0
C1199 C 0.23023 0.6695 0.78378 0.0
C1200 C 0.24582 0.72516 0.75358 0.0
H1201 H 0.17314 0.66094 0.78169 0.0
C1202 C 0.10663 0.63674 0.75676 0.0
O1203 O 0.05157 0.6901 0.78222 0.0
O1204 O 0.10356 0.70432 0.80086 0.0
N1205 N 0.21938 0.76281 0.73076 0.0
C1206 C 0.2171 0.78976 0.7153 0.0
C1207 C 0.25022 0.81735 0.6988 0.0
C1208 C 0.31332 0.81577 0.69732 0.0
C1209 C 0.31255 0.78596 0.71482 0.0
C1210 C 0.25125 0.75714 0.73492 0.0
H1211 H 0.19024 0.78906 0.71378 0.0
O1212 O 0.12452 0.76124 0.76876 0.0
O1213 O 0.15727 0.73171 0.76309 0.0
O1214 O 0.08882 0.70312 0.73631 0.0
O1215 O 0.14367 0.71738 0.71941 0.0
C1216 C 0.34297 0.76822 0.7237 0.0
C1217 C 0.32604 0.73131 0.74557 0.0
H1218 H 0.28794 0.6785 0.78199 0.0
H1219 H 0.22203 0.64897 0.79671 0.0
H1220 H 0.24074 0.83411 0.68939 0.0
H1221 H 0.33922 0.83115 0.68755 0.0
H1222 H 0.37165 0.78276 0.71397 0.0
H1223 H 0.33887 0.75045 0.73406 0.0
Mn1224 Mn 0.34711 0.40691 0.76614 0.0
Mn1225 Mn 0.35031 0.48273 0.74188 0.0
C1226 C 0.29022 0.407 0.75996 0.0
C1227 C 0.35213 0.38149 0.79921 0.0
C1228 C 0.36285 0.42331 0.71928 0.0
O1229 O 0.40426 0.44817 0.76551 0.0
O1230 O 0.39663 0.49868 0.75917 0.0
C1231 C 0.34991 0.52221 0.78088 0.0
N1232 N 0.3329 0.50756 0.76179 0.0
C1233 C 0.30679 0.55373 0.7598 0.0
C1234 C 0.32411 0.56477 0.78136 0.0
C1235 C 0.34359 0.54862 0.79137 0.0
C1236 C 0.30532 0.51401 0.75432 0.0
H1237 H 0.36876 0.51378 0.78821 0.0
C1238 C 0.41738 0.48411 0.76357 0.0
O1239 O 0.35746 0.36884 0.78111 0.0
O1240 O 0.34531 0.40945 0.79807 0.0
N1241 N 0.30895 0.4735 0.72233 0.0
C1242 C 0.31602 0.47149 0.69665 0.0
C1243 C 0.30118 0.49096 0.67547 0.0
C1244 C 0.27587 0.51561 0.67876 0.0
C1245 C 0.26343 0.52336 0.70467 0.0
C1246 C 0.28717 0.49299 0.73319 0.0
H1247 H 0.33375 0.46023 0.69147 0.0
O1248 O 0.28943 0.37559 0.76522 0.0
O1249 O 0.32377 0.43677 0.75909 0.0
O1250 O 0.35048 0.39778 0.73404 0.0
O1251 O 0.36811 0.45709 0.7217 0.0
C1252 C 0.26458 0.56187 0.70936 0.0
C1253 C 0.28233 0.58294 0.73142 0.0
H1254 H 0.32521 0.58741 0.79107 0.0
H1255 H 0.35668 0.55914 0.80692 0.0
H1256 H 0.30947 0.48852 0.65928 0.0
H1257 H 0.27147 0.52937 0.66499 0.0
H1258 H 0.25776 0.57612 0.69686 0.0
H1259 H 0.28147 0.60968 0.73152 0.0
Mn1260 Mn 0.62905 0.95284 0.7599 0.0
Mn1261 Mn 0.55468 0.87902 0.73515 0.0
C1262 C 0.62988 0.89662 0.75445 0.0
C1263 C 0.6544 0.98446 0.79243 0.0
C1264 C 0.61444 0.95191 0.7127 0.0
O1265 O 0.58691 0.96703 0.75962 0.0
O1266 O 0.53671 0.90894 0.75192 0.0
C1267 C 0.50931 0.83517 0.77239 0.0
N1268 N 0.52797 0.83497 0.7544 0.0
C1269 C 0.48382 0.76176 0.75075 0.0
C1270 C 0.46884 0.76604 0.77147 0.0
C1271 C 0.48203 0.80113 0.78176 0.0
C1272 C 0.52356 0.80156 0.74691 0.0
H1273 H 0.51516 0.8617 0.7797 0.0
C1274 C 0.55104 0.94372 0.75803 0.0
O1275 O 0.66656 0.00198 0.7741 0.0
O1276 O 0.62695 0.94931 0.79184 0.0
N1277 N 0.56758 0.84836 0.7165 0.0
C1278 C 0.57331 0.85868 0.69088 0.0
C1279 C 0.55856 0.82552 0.66932 0.0
C1280 C 0.53537 0.77549 0.67202 0.0
C1281 C 0.52426 0.75387 0.69771 0.0
C1282 C 0.54809 0.80649 0.72694 0.0
H1283 H 0.58388 0.88761 0.68579 0.0
O1284 O 0.66113 0.92778 0.75921 0.0
O1285 O 0.59946 0.89929 0.75354 0.0
O1286 O 0.63891 0.96547 0.72783 0.0
O1287 O 0.58076 0.92307 0.71494 0.0
C1288 C 0.48617 0.71534 0.70082 0.0
C1289 C 0.46137 0.70985 0.7216 0.0
H1290 H 0.44532 0.74319 0.78019 0.0
H1291 H 0.46857 0.80219 0.79659 0.0
H1292 H 0.56309 0.83701 0.65316 0.0
H1293 H 0.52466 0.75824 0.65776 0.0
H1294 H 0.47464 0.69465 0.68803 0.0
H1295 H 0.43543 0.68167 0.7205 0.0
C1296 C 0.15847 0.32145 0.0782 0.0
C1297 C 0.13978 0.31665 0.0979 0.0
H1298 H 0.20555 0.32243 0.06205 0.0
C1299 C 0.15837 0.31778 0.11714 0.0
H1300 H 0.14413 0.32 0.0632 0.0
C1301 C 0.19381 0.31958 0.11649 0.0
C1302 C 0.21025 0.31974 0.09659 0.0
H1303 H 0.14386 0.31326 0.13242 0.0
H1304 H 0.20597 0.31625 0.13131 0.0
C1305 C 0.19352 0.3229 0.07754 0.0
C1306 C 0.77572 0.9216 0.07018 0.0
C1307 C 0.78076 0.9428 0.08884 0.0
H1308 H 0.7697 0.87029 0.05681 0.0
C1309 C 0.77861 0.92602 0.10904 0.0
H1310 H 0.77715 0.93397 0.05447 0.0
C1311 C 0.77475 0.88955 0.1104 0.0
C1312 C 0.7721 0.86934 0.09158 0.0
H1313 H 0.78257 0.94213 0.12363 0.0
H1314 H 0.77695 0.87861 0.12594 0.0
C1315 C 0.77096 0.88505 0.07156 0.0
C1316 C 0.1611 0.89504 0.07339 0.0
C1317 C 0.14137 0.87355 0.09158 0.0
H1318 H 0.2075 0.94752 0.06143 0.0
C1319 C 0.15709 0.88689 0.11209 0.0
H1320 H 0.14936 0.88569 0.05744 0.0
C1321 C 0.19009 0.92283 0.1144 0.0
C1322 C 0.20815 0.94524 0.09619 0.0
H1323 H 0.14193 0.87128 0.12639 0.0
H1324 H 0.19993 0.93413 0.13036 0.0
C1325 C 0.19429 0.93041 0.07568 0.0
C1326 C 0.27931 0.12034 0.93781 0.0
C1327 C 0.28267 0.10903 0.91701 0.0
H1328 H 0.27576 0.16205 0.95715 0.0
C1329 C 0.29115 0.13449 0.89978 0.0
H1330 H 0.27242 0.1009 0.9513 0.0
C1331 C 0.29361 0.16996 0.90318 0.0
C1332 C 0.28682 0.17979 0.92377 0.0
H1333 H 0.29322 0.12596 0.88358 0.0
H1334 H 0.29734 0.18802 0.88943 0.0
C1335 C 0.28125 0.15532 0.94116 0.0
C1336 C 0.90594 0.17492 0.94064 0.0
C1337 C 0.92489 0.19337 0.9216 0.0
H1338 H 0.85884 0.12575 0.95484 0.0
C1339 C 0.90688 0.17884 0.90177 0.0
H1340 H 0.91952 0.18538 0.95611 0.0
C1341 C 0.8717 0.14445 0.90104 0.0
C1342 C 0.85465 0.12417 0.92012 0.0
H1343 H 0.92141 0.19219 0.88688 0.0
H1344 H 0.8598 0.132 0.88555 0.0
C1345 C 0.87125 0.14072 0.93992 0.0
C1346 C 0.85772 0.7428 0.90063 0.0
C1347 C 0.84106 0.74526 0.91988 0.0
H1348 H 0.90562 0.74209 0.88628 0.0
C1349 C 0.8558 0.74166 0.93959 0.0
H1350 H 0.84712 0.74636 0.8853 0.0
C1351 C 0.88909 0.73954 0.94018 0.0
C1352 C 0.90796 0.74074 0.92104 0.0
H1353 H 0.8436 0.74411 0.95461 0.0
H1354 H 0.90203 0.7406 0.95562 0.0
C1355 C 0.89098 0.7402 0.90121 0.0
C1356 C 0.8159 0.63229 0.4045 0.0
C1357 C 0.79826 0.63322 0.42368 0.0
H1358 H 0.86273 0.63032 0.39011 0.0
C1359 C 0.81835 0.64031 0.44318 0.0
H1360 H 0.80105 0.62704 0.38928 0.0
C1361 C 0.85387 0.64202 0.44368 0.0
C1362 C 0.86948 0.63707 0.42465 0.0
H1363 H 0.80506 0.64078 0.45819 0.0
H1364 H 0.86712 0.6434 0.45905 0.0
C1365 C 0.85127 0.6344 0.40497 0.0
C1366 C 0.4469 0.25849 0.45054 0.0
C1367 C 0.4258 0.26567 0.43522 0.0
H1368 H 0.46633 0.22069 0.461 0.0
C1369 C 0.40219 0.23663 0.42087 0.0
H1370 H 0.46582 0.28077 0.46148 0.0
C1371 C 0.40274 0.20223 0.42047 0.0
C1372 C 0.42681 0.19673 0.43447 0.0
H1373 H 0.38653 0.24204 0.40854 0.0
H1374 H 0.38745 0.18176 0.40787 0.0
C1375 C 0.4473 0.22422 0.45021 0.0
C1376 C 0.84708 0.24749 0.44054 0.0
C1377 C 0.86131 0.27026 0.42194 0.0
H1378 H 0.79982 0.19718 0.45459 0.0
C1379 C 0.84177 0.25668 0.40243 0.0
H1380 H 0.86159 0.25758 0.45579 0.0
C1381 C 0.80697 0.22284 0.40178 0.0
C1382 C 0.79091 0.20156 0.4206 0.0
H1383 H 0.85238 0.27348 0.38783 0.0
H1384 H 0.79152 0.21433 0.38669 0.0
C1385 C 0.81187 0.2131 0.43986 0.0
C1386 C 0.00125 0.50068 0.26052 0.0
C1387 C 0.97667 0.46931 0.24774 0.0
H1388 H 0.0161 0.55708 0.27106 0.0
C1389 C 0.95317 0.47362 0.23271 0.0
H1390 H 0.01889 0.49773 0.27262 0.0
C1391 C 0.9512 0.50708 0.23201 0.0
C1392 C 0.97308 0.53717 0.24613 0.0
H1393 H 0.93371 0.44981 0.22281 0.0
H1394 H 0.93021 0.5082 0.22166 0.0
C1395 C 0.99958 0.53457 0.25965 0.0
C1396 C 0.58167 0.52312 0.23891 0.0
C1397 C 0.6019 0.53754 0.25823 0.0
H1398 H 0.53226 0.47668 0.22398 0.0
C1399 C 0.58404 0.5208 0.27779 0.0
H1400 H 0.59516 0.53536 0.22362 0.0
C1401 C 0.54816 0.48803 0.27799 0.0
C1402 C 0.52961 0.47111 0.25863 0.0
H1403 H 0.59907 0.5314 0.29288 0.0
H1404 H 0.53649 0.47381 0.29323 0.0
C1405 C 0.54567 0.48976 0.2391 0.0
C1406 C 0.55869 0.10641 0.27316 0.0
C1407 C 0.53947 0.10554 0.25422 0.0
H1408 H 0.60755 0.10728 0.28694 0.0
C1409 C 0.55221 0.09885 0.23451 0.0
H1410 H 0.54937 0.11131 0.28855 0.0
C1411 C 0.58609 0.0972 0.2336 0.0
C1412 C 0.60709 0.1017 0.25243 0.0
H1413 H 0.538 0.09839 0.21965 0.0
H1414 H 0.59756 0.096 0.21807 0.0
C1415 C 0.59186 0.10405 0.27226 0.0
C1416 C 0.48928 0.98786 0.74944 0.0
C1417 C 0.45836 0.9648 0.76301 0.0
H1418 H 0.54414 0.9998 0.7376 0.0
C1419 C 0.46204 0.9405 0.77779 0.0
H1420 H 0.48667 0.00595 0.73747 0.0
C1421 C 0.4942 0.93622 0.77748 0.0
C1422 C 0.52371 0.95681 0.76269 0.0
H1423 H 0.43849 0.9221 0.78825 0.0
H1424 H 0.49477 0.9148 0.78774 0.0
C1425 C 0.52199 0.98412 0.74942 0.0
C1426 C 0.0992 0.54522 0.73853 0.0
C1427 C 0.09473 0.52602 0.75813 0.0
H1428 H 0.1055 0.59508 0.72277 0.0
C1429 C 0.0862 0.5399 0.77677 0.0
H1430 H 0.10562 0.53507 0.72389 0.0
C1431 C 0.08605 0.57461 0.77609 0.0
C1432 C 0.09451 0.59564 0.75679 0.0
H1433 H 0.08309 0.52586 0.79212 0.0
H1434 H 0.08278 0.58658 0.79095 0.0
C1435 C 0.09915 0.57961 0.73788 0.0
C1436 C 0.47451 0.52582 0.74244 0.0
C1437 C 0.4586 0.5114 0.76279 0.0
H1438 H 0.51651 0.5738 0.72443 0.0
C1439 C 0.47755 0.53238 0.78116 0.0
H1440 H 0.45976 0.51065 0.728 0.0
C1441 C 0.5104 0.56846 0.77906 0.0
C1442 C 0.52388 0.58442 0.75856 0.0
H1443 H 0.46507 0.52251 0.79695 0.0
H1444 H 0.52301 0.58533 0.79338 0.0
C1445 C 0.5066 0.56217 0.74033 0.0
C1446 C 0.6208 0.80839 0.60556 0.0
C1447 C 0.62186 0.78884 0.58729 0.0
H1448 H 0.61818 0.85626 0.61775 0.0
C1449 C 0.62693 0.80599 0.56691 0.0
H1450 H 0.6169 0.79568 0.62141 0.0
C1451 C 0.62732 0.8408 0.56476 0.0
C1452 C 0.62325 0.85872 0.58303 0.0
H1453 H 0.62741 0.79104 0.55261 0.0
H1454 H 0.62759 0.85191 0.54884 0.0
C1455 C 0.6218 0.84312 0.60346 0.0
C1456 C 0.20925 0.81355 0.60638 0.0
C1457 C 0.19326 0.79581 0.58672 0.0
H1458 H 0.25706 0.85944 0.62223 0.0
C1459 C 0.21066 0.81443 0.5674 0.0
H1460 H 0.19659 0.79924 0.62146 0.0
C1461 C 0.24528 0.84925 0.56786 0.0
C1462 C 0.26283 0.86509 0.58763 0.0
H1463 H 0.19924 0.80064 0.55212 0.0
H1464 H 0.25988 0.86194 0.55288 0.0
C1465 C 0.24385 0.84778 0.60683 0.0
C1466 C 0.24474 0.42425 0.61102 0.0
C1467 C 0.26057 0.42279 0.59121 0.0
H1468 H 0.20082 0.42922 0.62708 0.0
C1469 C 0.23967 0.41756 0.57226 0.0
H1470 H 0.26051 0.42845 0.62583 0.0
C1471 C 0.20513 0.41786 0.573 0.0
C1472 C 0.19167 0.42368 0.59267 0.0
H1473 H 0.25172 0.41701 0.55681 0.0
H1474 H 0.19114 0.41744 0.55806 0.0
C1475 C 0.21066 0.42477 0.61174 0.0
C1476 C 0.05045 0.34247 0.17436 0.0
C1477 C 0.0359 0.35148 0.15613 0.0
H1478 H 0.05315 0.34221 0.20882 0.0
C1479 C 0.01652 0.3718 0.15866 0.0
H1480 H 0.06544 0.32668 0.17275 0.0
C1481 C 0.00861 0.3797 0.17928 0.0
C1482 C 0.02102 0.36846 0.19757 0.0
H1483 H 0.00473 0.3787 0.14485 0.0
H1484 H 0.99108 0.39283 0.18096 0.0
C1485 C 0.04358 0.35144 0.19496 0.0
C1486 C 0.74805 0.7434 0.17382 0.0
C1487 C 0.73208 0.72315 0.1547 0.0
H1488 H 0.75184 0.74053 0.2082 0.0
C1489 C 0.70476 0.68407 0.15606 0.0
H1490 H 0.7693 0.77349 0.17326 0.0
C1491 C 0.69567 0.66509 0.17594 0.0
C1492 C 0.71257 0.68508 0.19495 0.0
H1493 H 0.69221 0.6676 0.14162 0.0
H1494 H 0.6764 0.63449 0.1764 0.0
C1495 C 0.73791 0.72463 0.19381 0.0
C1496 C 0.34173 0.03202 0.16673 0.0
C1497 C 0.36313 0.04724 0.1478 0.0
H1498 H 0.34213 0.03035 0.20122 0.0
C1499 C 0.40298 0.06979 0.14926 0.0
H1500 H 0.31089 0.01489 0.16601 0.0
C1501 C 0.42073 0.07969 0.16945 0.0
C1502 C 0.39903 0.06625 0.18845 0.0
H1503 H 0.42001 0.08238 0.13493 0.0
H1504 H 0.4512 0.09935 0.17023 0.0
C1505 C 0.3596 0.04088 0.18687 0.0
C1506 C 0.32573 0.0297 0.8418 0.0
C1507 C 0.33407 0.01369 0.85965 0.0
H1508 H 0.32755 0.03606 0.80745 0.0
C1509 C 0.35472 0.99476 0.8565 0.0
H1510 H 0.30958 0.04423 0.84384 0.0
C1511 C 0.36393 0.98908 0.83563 0.0
C1512 C 0.35376 0.00334 0.81767 0.0
H1513 H 0.36103 0.98175 0.86996 0.0
H1514 H 0.37744 0.97201 0.83345 0.0
C1515 C 0.33608 0.02514 0.821 0.0
C1516 C 0.05804 0.39816 0.84192 0.0
C1517 C 0.05132 0.37724 0.82284 0.0
H1518 H 0.05529 0.39665 0.8764 0.0
C1519 C 0.03356 0.33728 0.82408 0.0
H1520 H 0.07211 0.42905 0.84138 0.0
C1521 C 0.02518 0.31883 0.84416 0.0
C1522 C 0.03326 0.33992 0.8633 0.0
H1523 H 0.02872 0.32058 0.80964 0.0
H1524 H 0.01364 0.28822 0.84474 0.0
C1525 C 0.04841 0.37961 0.86194 0.0
C1526 C 0.70304 0.70946 0.8237 0.0
C1527 C 0.66317 0.69093 0.82182 0.0
H1528 H 0.75101 0.7352 0.84509 0.0
C1529 C 0.64068 0.67881 0.84056 0.0
H1530 H 0.72098 0.71945 0.80951 0.0
C1531 C 0.65782 0.68678 0.86088 0.0
C1532 C 0.69769 0.70814 0.86276 0.0
H1533 H 0.60985 0.66459 0.83949 0.0
H1534 H 0.63986 0.67876 0.87506 0.0
C1535 C 0.72018 0.71857 0.84403 0.0
C1536 C 0.00614 0.70886 0.841 0.0
C1537 C 0.01928 0.70233 0.86059 0.0
H1538 H 0.01039 0.71029 0.80661 0.0
C1539 C 0.0447 0.68826 0.86028 0.0
H1540 H 0.98695 0.72024 0.84085 0.0
C1541 C 0.05923 0.68392 0.84069 0.0
C1542 C 0.04768 0.6925 0.82113 0.0
H1543 H 0.05581 0.68373 0.87517 0.0
H1544 H 0.08071 0.67542 0.8409 0.0
C1545 C 0.01969 0.70333 0.82142 0.0
C1546 C 0.36055 0.3841 0.83919 0.0
C1547 C 0.34921 0.36256 0.82015 0.0
H1548 H 0.35909 0.38331 0.87373 0.0
C1549 C 0.32986 0.32254 0.82166 0.0
H1550 H 0.37527 0.415 0.83848 0.0
C1551 C 0.3195 0.30445 0.84182 0.0
C1552 C 0.32953 0.32602 0.86084 0.0
H1553 H 0.32034 0.30524 0.80727 0.0
H1554 H 0.30243 0.27359 0.84252 0.0
C1555 C 0.3514 0.36598 0.85935 0.0
C1556 C 0.67094 0.00201 0.85218 0.0
C1557 C 0.71091 0.02026 0.85326 0.0
H1558 H 0.62151 0.97574 0.83182 0.0
C1559 C 0.7321 0.03118 0.83404 0.0
H1560 H 0.65395 0.99287 0.86675 0.0
C1561 C 0.71359 0.02252 0.81408 0.0
C1562 C 0.67358 0.00153 0.81302 0.0
H1563 H 0.76296 0.04507 0.83447 0.0
H1564 H 0.73057 0.02974 0.79953 0.0
C1565 C 0.65241 0.99211 0.83223 0.0
C1566 C 0.73346 0.0251 0.16697 0.0
C1567 C 0.72349 0.03678 0.14789 0.0
H1568 H 0.73552 0.02758 0.20149 0.0
C1569 C 0.70401 0.05725 0.14933 0.0
H1570 H 0.74895 0.00972 0.16629 0.0
C1571 C 0.69762 0.06866 0.16944 0.0
C1572 C 0.70941 0.0587 0.18847 0.0
H1573 H 0.69664 0.06721 0.1349 0.0
H1574 H 0.68497 0.08674 0.17005 0.0
C1575 C 0.72583 0.03536 0.18711 0.0
C1576 C 0.04733 0.74682 0.17376 0.0
C1577 C 0.03538 0.72585 0.15454 0.0
H1578 H 0.04683 0.74508 0.2083 0.0
C1579 C 0.01559 0.68578 0.15571 0.0
H1580 H 0.06236 0.77775 0.17331 0.0
C1581 C 0.00556 0.66712 0.17573 0.0
C1582 C 0.01632 0.68814 0.19496 0.0
H1583 H 0.00556 0.6689 0.14118 0.0
H1584 H 0.98826 0.63626 0.17618 0.0
C1585 C 0.03852 0.72814 0.19377 0.0
C1586 C 0.33595 0.35386 0.17257 0.0
C1587 C 0.35761 0.35778 0.15412 0.0
H1588 H 0.33486 0.35628 0.20695 0.0
C1589 C 0.39685 0.37137 0.15623 0.0
H1590 H 0.3055 0.34293 0.17132 0.0
C1591 C 0.41346 0.37785 0.1767 0.0
C1592 C 0.39123 0.37174 0.19528 0.0
H1593 H 0.41393 0.3739 0.14225 0.0
H1594 H 0.44324 0.38587 0.17804 0.0
C1595 C 0.35274 0.36139 0.19295 0.0
C1596 C 0.65975 0.69857 0.50839 0.0
C1597 C 0.67221 0.6899 0.52761 0.0
H1598 H 0.6584 0.69555 0.47388 0.0
C1599 C 0.69621 0.67418 0.52645 0.0
H1600 H 0.64102 0.71048 0.50886 0.0
C1601 C 0.70506 0.66451 0.50651 0.0
C1602 C 0.69133 0.67176 0.48734 0.0
H1603 H 0.70583 0.66677 0.54099 0.0
H1604 H 0.72141 0.64997 0.5061 0.0
C1605 C 0.66981 0.6902 0.4884 0.0
C1606 C 0.36414 0.00248 0.4823 0.0
C1607 C 0.37995 0.04217 0.48063 0.0
H1608 H 0.34577 0.95447 0.5036 0.0
C1609 C 0.38415 0.06334 0.49929 0.0
H1610 H 0.36124 0.98569 0.46815 0.0
C1611 C 0.37435 0.04544 0.51944 0.0
C1612 C 0.3615 0.00625 0.52136 0.0
H1613 H 0.39668 0.09408 0.49838 0.0
H1614 H 0.37961 0.06283 0.53363 0.0
C1615 C 0.35552 0.98472 0.50256 0.0
C1616 C 0.98453 0.36007 0.5102 0.0
C1617 C 0.00495 0.36565 0.49097 0.0
H1618 H 0.9874 0.36604 0.54459 0.0
C1619 C 0.04431 0.3788 0.49206 0.0
H1620 H 0.95423 0.35021 0.5098 0.0
C1621 C 0.06337 0.38899 0.51182 0.0
C1622 C 0.04323 0.3848 0.53094 0.0
H1623 H 0.06089 0.38382 0.47751 0.0
H1624 H 0.09412 0.40152 0.51208 0.0
C1625 C 0.00344 0.36896 0.53007 0.0
C1626 C 0.35223 0.39315 0.51014 0.0
C1627 C 0.36577 0.38421 0.52879 0.0
H1628 H 0.35157 0.39357 0.47566 0.0
C1629 C 0.38657 0.36514 0.5269 0.0
H1630 H 0.33636 0.40812 0.51125 0.0
C1631 C 0.39637 0.35802 0.50656 0.0
C1632 C 0.38441 0.36869 0.48788 0.0
H1633 H 0.39774 0.35846 0.54107 0.0
H1634 H 0.41459 0.34558 0.50543 0.0
C1635 C 0.36089 0.38481 0.48982 0.0
C1636 C 0.66206 0.98972 0.50236 0.0
C1637 C 0.66973 0.00995 0.52177 0.0
H1638 H 0.66476 0.99271 0.46785 0.0
C1639 C 0.68926 0.05006 0.52105 0.0
H1640 H 0.64674 0.95878 0.50245 0.0
C1641 C 0.69833 0.06941 0.50124 0.0
C1642 C 0.68937 0.04909 0.48179 0.0
H1643 H 0.69503 0.06635 0.53574 0.0
H1644 H 0.71111 0.10019 0.5011 0.0
C1645 C 0.67246 0.00914 0.48257 0.0
C1646 C 0.05293 0.69493 0.4904 0.0
C1647 C 0.01303 0.67538 0.48834 0.0
H1648 H 0.10055 0.71509 0.51199 0.0
C1649 C 0.99048 0.66588 0.50703 0.0
H1650 H 0.07094 0.70209 0.47628 0.0
C1651 C 0.00745 0.67437 0.52744 0.0
C1652 C 0.0472 0.69123 0.52952 0.0
H1653 H 0.95963 0.65053 0.50587 0.0
H1654 H 0.98932 0.66529 0.54157 0.0
C1655 C 0.06983 0.70217 0.51082 0.0
C1656 C 0.06193 0.32798 0.0201 0.0
C1657 C 0.02905 0.30712 0.03267 0.0
H1658 H 0.08545 0.34017 0.98823 0.0
C1659 C 0.99328 0.288 0.02251 0.0
H1660 H 0.08985 0.34226 0.02757 0.0
C1661 C 0.99087 0.28545 1.00008 0.0
C1662 C 0.02408 0.30343 0.98753 0.0
H1663 H 0.96747 0.27176 0.03186 0.0
H1664 H 0.96349 0.26677 0.99268 0.0
C1665 C 0.05935 0.32683 0.99761 0.0
C1666 C 0.76133 0.72634 0.99653 0.0
C1667 C 0.74056 0.7405 0.98572 0.0
H1668 H 0.78503 0.7224 0.02656 0.0
C1669 C 0.72024 0.75384 0.99774 0.0
H1670 H 0.7777 0.71653 0.98754 0.0
C1671 C 0.72594 0.75895 0.01999 0.0
C1672 C 0.75053 0.74901 0.03036 0.0
H1673 H 0.70473 0.76566 0.98965 0.0
H1674 H 0.71431 0.77404 0.02862 0.0
C1675 C 0.76575 0.73001 0.01881 0.0
C1676 C 0.31825 0.0251 0.99278 0.0
C1677 C 0.28849 0.027 0.98181 0.0
H1678 H 0.34524 0.03062 0.02402 0.0
C1679 C 0.26278 0.03213 0.99441 0.0
H1680 H 0.33957 0.02215 0.98385 0.0
C1681 C 0.25876 0.02282 0.01571 0.0
C1682 C 0.29012 0.0272 0.02751 0.0
H1683 H 0.24078 0.03674 0.98757 0.0
H1684 H 0.23283 0.01877 0.02321 0.0
C1685 C 0.32066 0.02831 0.01572 0.0
C1686 C 0.99023 0.73448 0.99594 0.0
C1687 C 0.02423 0.7519 0.98392 0.0
H1688 H 0.96452 0.72658 0.02716 0.0
C1689 C 0.05916 0.76885 0.99508 0.0
H1690 H 0.96294 0.72253 0.98783 0.0
C1691 C 0.06008 0.77091 0.01767 0.0
C1692 C 0.02608 0.75642 0.02958 0.0
H1693 H 0.0858 0.78371 0.98626 0.0
H1694 H 0.08738 0.78732 0.02563 0.0
C1695 C 0.99115 0.73689 0.01851 0.0
C1696 C 0.28338 0.31916 0.02058 0.0
C1697 C 0.30457 0.30492 0.03096 0.0
H1698 H 0.25799 0.32316 0.99105 0.0
C1699 C 0.3225 0.28973 0.01824 0.0
H1700 H 0.26799 0.3296 0.02999 0.0
C1701 C 0.31708 0.28639 0.99582 0.0
C1702 C 0.29302 0.2975 0.98577 0.0
H1703 H 0.33765 0.27708 0.02585 0.0
H1704 H 0.32852 0.27159 0.98671 0.0
C1705 C 0.27741 0.31521 0.99827 0.0
C1706 C 0.78808 0.05378 0.98485 0.0
C1707 C 0.75242 0.02587 0.97762 0.0
H1708 H 0.82599 0.07136 0.01004 0.0
C1709 C 0.72301 0.00643 0.99296 0.0
H1710 H 0.81183 0.06784 0.97372 0.0
C1711 C 0.73042 0.01474 0.01528 0.0
C1712 C 0.76805 0.03977 0.02239 0.0
H1713 H 0.69536 0.98357 0.9879 0.0
H1714 H 0.70789 0.999 0.02687 0.0
C1715 C 0.79629 0.05759 1.00646 0.0
C1716 C 0.67076 0.62338 0.32619 0.0
C1717 C 0.7084 0.63965 0.31854 0.0
H1718 H 0.63395 0.60305 0.35384 0.0
C1719 C 0.73853 0.65539 0.33343 0.0
H1720 H 0.64699 0.60991 0.3151 0.0
C1721 C 0.73107 0.65245 0.35561 0.0
C1722 C 0.69333 0.63272 0.36329 0.0
H1723 H 0.76771 0.66701 0.32798 0.0
H1724 H 0.75473 0.66176 0.3667 0.0
C1725 C 0.66327 0.61946 0.34838 0.0
C1726 C 0.41175 0.12307 0.34863 0.0
C1727 C 0.4276 0.10344 0.35899 0.0
H1728 H 0.39999 0.14086 0.31852 0.0
C1729 C 0.43763 0.08069 0.34672 0.0
H1730 H 0.40434 0.1412 0.35776 0.0
C1731 C 0.43524 0.08054 0.32418 0.0
C1732 C 0.42275 0.10312 0.31368 0.0
H1733 H 0.45061 0.06589 0.35439 0.0
H1734 H 0.44721 0.06634 0.31498 0.0
C1735 C 0.40902 0.12261 0.32618 0.0
C1736 C 0.96593 0.33464 0.35537 0.0
C1737 C 0.98816 0.3687 0.36664 0.0
H1738 H 0.94499 0.3091 0.32461 0.0
C1739 C 0.01412 0.40159 0.35516 0.0
H1740 H 0.94539 0.30904 0.36385 0.0
C1741 C 0.01239 0.40222 0.33264 0.0
C1742 C 0.9862 0.3693 0.32157 0.0
H1743 H 0.0315 0.42822 0.36357 0.0
H1744 H 0.02875 0.42907 0.32414 0.0
C1745 C 0.96532 0.33485 0.33293 0.0
C1746 C 0.73874 0.11833 0.34971 0.0
C1747 C 0.70207 0.09299 0.35762 0.0
H1748 H 0.77312 0.14556 0.32194 0.0
C1749 C 0.67336 0.06951 0.34301 0.0
H1750 H 0.76108 0.13743 0.36058 0.0
C1751 C 0.68028 0.07415 0.32073 0.0
C1752 C 0.71589 0.10258 0.31286 0.0
H1753 H 0.64459 0.0505 0.34868 0.0
H1754 H 0.65669 0.05854 0.30977 0.0
C1755 C 0.74556 0.12316 0.32756 0.0
C1756 C 0.99616 0.61723 0.35221 0.0
C1757 C 0.98268 0.63816 0.36347 0.0
H1758 H 0.00319 0.59791 0.32143 0.0
C1759 C 0.97492 0.66349 0.35206 0.0
H1760 H 0.00243 0.59757 0.36064 0.0
C1761 C 0.97684 0.6648 0.32951 0.0
C1762 C 0.98542 0.63993 0.31824 0.0
H1763 H 0.96365 0.67924 0.36035 0.0
H1764 H 0.96694 0.68154 0.32092 0.0
C1765 C 0.99697 0.61765 0.32977 0.0
C1766 C 0.42489 0.39737 0.35437 0.0
C1767 C 0.41148 0.36204 0.36476 0.0
H1768 H 0.44102 0.42693 0.32412 0.0
C1769 C 0.39314 0.32832 0.35278 0.0
H1770 H 0.43962 0.42371 0.36341 0.0
C1771 C 0.39215 0.33017 0.33036 0.0
C1772 C 0.41128 0.36573 0.31986 0.0
H1773 H 0.38307 0.30088 0.36054 0.0
H1774 H 0.38164 0.304 0.32127 0.0
C1775 C 0.42553 0.39927 0.33193 0.0
C1776 C 0.32815 0.96665 0.67979 0.0
C1777 C 0.36213 0.98423 0.69174 0.0
H1778 H 0.30352 0.94919 0.64845 0.0
C1779 C 0.39667 0.00789 0.68108 0.0
H1780 H 0.30121 0.94793 0.6877 0.0
C1781 C 0.39765 0.01019 0.65854 0.0
C1782 C 0.36452 0.98718 0.64652 0.0
H1783 H 0.42326 0.02141 0.68994 0.0
H1784 H 0.42511 0.02555 0.65056 0.0
C1785 C 0.32939 0.96759 0.6573 0.0
C1786 C 0.10725 0.40296 0.68441 0.0
C1787 C 0.09417 0.42059 0.6988 0.0
H1788 H 0.11698 0.39493 0.65139 0.0
C1789 C 0.07487 0.43866 0.6906 0.0
H1790 H 0.12326 0.38991 0.69032 0.0
C1791 C 0.07213 0.44237 0.66834 0.0
C1792 C 0.08776 0.4272 0.65393 0.0
H1793 H 0.06567 0.45354 0.70133 0.0
H1794 H 0.06088 0.46 0.66242 0.0
C1795 C 0.10359 0.40579 0.66214 0.0
C1796 C 0.63776 0.672 0.68802 0.0
C1797 C 0.639 0.7043 0.69721 0.0
H1798 H 0.63513 0.64293 0.65863 0.0
C1799 C 0.64849 0.73608 0.684 0.0
H1800 H 0.63008 0.64694 0.69779 0.0
C1801 C 0.65146 0.73383 0.66173 0.0
C1802 C 0.64485 0.6997 0.65215 0.0
H1803 H 0.64994 0.76145 0.69064 0.0
H1804 H 0.65404 0.75713 0.65182 0.0
C1805 C 0.64093 0.66983 0.66558 0.0
C1806 C 0.33565 0.38988 0.685 0.0
C1807 C 0.36806 0.41371 0.69733 0.0
H1808 H 0.31053 0.37871 0.65349 0.0
C1809 C 0.4027 0.43786 0.68693 0.0
H1810 H 0.30844 0.37173 0.69279 0.0
C1811 C 0.40391 0.44158 0.66463 0.0
C1812 C 0.37043 0.42151 0.65249 0.0
H1813 H 0.42785 0.45681 0.69617 0.0
H1814 H 0.43021 0.46283 0.65712 0.0
C1815 C 0.33676 0.39402 0.66259 0.0
C1816 C 0.64996 0.95754 0.67906 0.0
C1817 C 0.62581 0.96669 0.69067 0.0
H1818 H 0.6644 0.9457 0.64785 0.0
C1819 C 0.60476 0.98014 0.67957 0.0
H1820 H 0.66578 0.94626 0.68734 0.0
C1821 C 0.60504 0.98107 0.65712 0.0
C1822 C 0.62529 0.96728 0.64543 0.0
H1823 H 0.58566 0.98693 0.68819 0.0
H1824 H 0.58656 0.9892 0.64898 0.0
C1825 C 0.64921 0.95723 0.65649 0.0
C1826 C 0.06731 0.67874 0.6882 0.0
C1827 C 0.09442 0.71275 0.69812 0.0
H1828 H 0.04731 0.64881 0.65829 0.0
C1829 C 0.11575 0.74547 0.6854 0.0
H1830 H 0.05111 0.65297 0.69766 0.0
C1831 C 0.11407 0.74298 0.66302 0.0
C1832 C 0.09044 0.70789 0.65303 0.0
H1833 H 0.13673 0.77203 0.69268 0.0
H1834 H 0.13409 0.7675 0.65359 0.0
C1835 C 0.06517 0.67639 0.66568 0.0
C1836 C 0.89241 0.14321 0.10758 0.0
C1837 C 0.86275 0.14235 0.0954 0.0
H1838 H 0.95073 0.17636 0.1176 0.0
C1839 C 0.86809 0.17547 0.08514 0.0
H1840 H 0.88822 0.11807 0.11619 0.0
C1841 C 0.90364 0.2087 0.08611 0.0
C1842 C 0.93405 0.20877 0.09709 0.0
H1843 H 0.84534 0.17528 0.07585 0.0
H1844 H 0.90769 0.23415 0.07789 0.0
C1845 C 0.92808 0.17619 0.10822 0.0
C1846 C 0.93105 0.79263 0.10531 0.0
C1847 C 0.93691 0.76543 0.09491 0.0
H1848 H 0.89081 0.81002 0.11347 0.0
C1849 C 0.90628 0.73442 0.08449 0.0
H1850 H 0.95388 0.81579 0.1142 0.0
C1851 C 0.87091 0.73246 0.08298 0.0
C1852 C 0.86574 0.76084 0.09248 0.0
H1853 H 0.91015 0.71255 0.07688 0.0
H1854 H 0.84784 0.70914 0.07431 0.0
C1855 C 0.89532 0.78967 0.10458 0.0
C1856 C 0.29163 0.15032 0.10949 0.0
C1857 C 0.31628 0.14796 0.0945 0.0
H1858 H 0.26759 0.18339 0.12148 0.0
C1859 C 0.34034 0.17996 0.08203 0.0
H1860 H 0.27523 0.12703 0.12054 0.0
C1861 C 0.33789 0.21311 0.08363 0.0
C1862 C 0.31025 0.21389 0.09701 0.0
H1863 H 0.36053 0.17915 0.07094 0.0
H1864 H 0.35657 0.23768 0.07383 0.0
C1865 C 0.28764 0.18258 0.11026 0.0
C1866 C 0.15931 0.90486 0.90196 0.0
C1867 C 0.18769 0.90701 0.91584 0.0
H1868 H 0.10062 0.87279 0.89219 0.0
C1869 C 0.18009 0.87544 0.92861 0.0
H1870 H 0.16561 0.92779 0.89074 0.0
C1871 C 0.1437 0.84302 0.9284 0.0
C1872 C 0.11419 0.84258 0.91615 0.0
H1873 H 0.20197 0.87608 0.93894 0.0
H1874 H 0.13816 0.81876 0.93838 0.0
C1875 C 0.1224 0.8734 0.90259 0.0
C1876 C 0.16012 0.26377 0.91073 0.0
C1877 C 0.1931 0.28992 0.92166 0.0
H1878 H 0.10314 0.24819 0.90204 0.0
C1879 C 0.19395 0.32062 0.93265 0.0
H1880 H 0.15956 0.24094 0.90138 0.0
C1881 C 0.16094 0.32322 0.93417 0.0
C1882 C 0.12744 0.29588 0.92407 0.0
H1883 H 0.21972 0.3417 0.94065 0.0
H1884 H 0.16146 0.34626 0.94326 0.0
C1885 C 0.12785 0.26751 0.91142 0.0
C1886 C 0.77075 0.87757 0.90683 0.0
C1887 C 0.74255 0.84944 0.91999 0.0
H1888 H 0.79623 0.93491 0.89501 0.0
C1889 C 0.7143 0.85541 0.92903 0.0
H1890 H 0.79059 0.87207 0.89808 0.0
C1891 C 0.71588 0.89037 0.92605 0.0
C1892 C 0.74642 0.91976 0.91462 0.0
H1893 H 0.69125 0.8332 0.93839 0.0
H1894 H 0.69426 0.895 0.93338 0.0
C1895 C 0.77341 0.91299 0.90465 0.0
C1896 C 0.52792 0.49959 0.41613 0.0
C1897 C 0.52253 0.46666 0.42671 0.0
H1898 H 0.56735 0.5584 0.40889 0.0
C1899 C 0.55173 0.46808 0.43948 0.0
H1900 H 0.50502 0.4993 0.40694 0.0
C1901 C 0.58743 0.50086 0.43987 0.0
C1902 C 0.5935 0.53327 0.42846 0.0
H1903 H 0.54691 0.44381 0.4492 0.0
H1904 H 0.61005 0.50109 0.44933 0.0
C1905 C 0.56323 0.53309 0.4173 0.0
C1906 C 0.55859 0.05978 0.41043 0.0
C1907 C 0.58982 0.08591 0.4226 0.0
H1908 H 0.50119 0.04184 0.40072 0.0
C1909 C 0.58702 0.1128 0.43543 0.0
H1910 H 0.56037 0.03861 0.40067 0.0
C1911 C 0.55395 0.11507 0.4352 0.0
C1912 C 0.5233 0.09026 0.42228 0.0
H1913 H 0.61062 0.13234 0.44548 0.0
H1914 H 0.55212 0.13573 0.44539 0.0
C1915 C 0.52521 0.06186 0.41034 0.0
C1916 C 0.94748 0.47237 0.44066 0.0
C1917 C 0.9775 0.47043 0.43071 0.0
H1918 H 0.92278 0.50697 0.44772 0.0
C1919 C 0.00739 0.50289 0.42099 0.0
H1920 H 0.92488 0.44777 0.4489 0.0
C1921 C 0.00615 0.53673 0.42035 0.0
C1922 C 0.97486 0.5379 0.42924 0.0
H1923 H 0.03097 0.50179 0.41351 0.0
H1924 H 0.02909 0.56168 0.41256 0.0
C1925 C 0.94605 0.5059 0.43983 0.0
C1926 C 0.84077 0.20005 0.26326 0.0
C1927 C 0.81272 0.19992 0.24986 0.0
H1928 H 0.89636 0.23399 0.27737 0.0
C1929 C 0.82067 0.23307 0.23855 0.0
H1930 H 0.83536 0.17435 0.27171 0.0
C1931 C 0.85576 0.2663 0.24114 0.0
C1932 C 0.88242 0.26758 0.25601 0.0
H1933 H 0.79996 0.23311 0.2275 0.0
H1934 H 0.8621 0.29105 0.23143 0.0
C1935 C 0.87533 0.23396 0.26657 0.0
C1936 C 0.84846 0.61613 0.24223 0.0
C1937 C 0.87742 0.64287 0.25551 0.0
H1938 H 0.79047 0.59197 0.23191 0.0
C1939 C 0.87212 0.66996 0.26651 0.0
H1940 H 0.85331 0.59722 0.23216 0.0
C1941 C 0.83708 0.66865 0.26524 0.0
C1942 C 0.80694 0.63943 0.25358 0.0
H1943 H 0.89488 0.69184 0.2761 0.0
H1944 H 0.83304 0.68951 0.27395 0.0
C1945 C 0.81295 0.6136 0.24177 0.0
C1946 C 0.45558 0.26958 0.24228 0.0
C1947 C 0.426 0.26861 0.25449 0.0
H1948 H 0.48265 0.23871 0.23147 0.0
C1949 C 0.39728 0.23381 0.26285 0.0
H1950 H 0.47617 0.2955 0.23415 0.0
C1951 C 0.39961 0.20078 0.26015 0.0
C1952 C 0.43132 0.20271 0.24969 0.0
H1953 H 0.37333 0.23225 0.27151 0.0
H1954 H 0.3775 0.17409 0.26693 0.0
C1955 C 0.45889 0.2371 0.24038 0.0
C1956 C 0.25766 0.8441 0.76948 0.0
C1957 C 0.25771 0.87192 0.75591 0.0
H1958 H 0.22592 0.78693 0.78172 0.0
C1959 C 0.22346 0.86527 0.74652 0.0
H1960 H 0.28295 0.84996 0.77842 0.0
C1961 C 0.1901 0.8301 0.7496 0.0
C1962 C 0.19118 0.80103 0.7615 0.0
H1963 H 0.22258 0.88709 0.73679 0.0
H1964 H 0.16386 0.82507 0.74203 0.0
C1965 C 0.22497 0.80846 0.77174 0.0
C1966 C 0.22306 0.38448 0.74896 0.0
C1967 C 0.25557 0.40968 0.76067 0.0
H1968 H 0.16497 0.36758 0.74128 0.0
C1969 C 0.25392 0.43568 0.77481 0.0
H1970 H 0.22338 0.36313 0.73865 0.0
C1971 C 0.22167 0.43951 0.77556 0.0
C1972 C 0.18972 0.41556 0.76316 0.0
H1973 H 0.27762 0.45306 0.78534 0.0
H1974 H 0.2214 0.46062 0.78611 0.0
C1975 C 0.18993 0.387 0.75049 0.0
C1976 C 0.59806 0.79611 0.77103 0.0
C1977 C 0.62422 0.78946 0.76004 0.0
H1978 H 0.58178 0.83719 0.77907 0.0
C1979 C 0.65393 0.81894 0.74816 0.0
H1980 H 0.57611 0.77418 0.7811 0.0
C1981 C 0.65541 0.85392 0.74577 0.0
C1982 C 0.62806 0.85989 0.75597 0.0
H1983 H 0.67508 0.81439 0.74013 0.0
H1984 H 0.67766 0.87613 0.736 0.0
C1985 C 0.60084 0.83168 0.76954 0.0
C1986 C 0.50552 0.58647 0.57603 0.0
C1987 C 0.53654 0.58844 0.58719 0.0
H1988 H 0.44651 0.55232 0.56799 0.0
C1989 C 0.53272 0.55622 0.59789 0.0
H1990 H 0.50852 0.61077 0.56698 0.0
C1991 C 0.49732 0.52268 0.59827 0.0
C1992 C 0.46574 0.52163 0.5882 0.0
H1993 H 0.5567 0.55729 0.60629 0.0
H1994 H 0.49435 0.49789 0.60676 0.0
C1995 C 0.47017 0.55334 0.57671 0.0
C1996 C 0.49674 0.0031 0.59089 0.0
C1997 C 0.46356 0.9744 0.58121 0.0
H1998 H 0.55549 0.02278 0.59819 0.0
C1999 C 0.46417 0.94463 0.57013 0.0
H2000 H 0.49667 0.02657 0.59915 0.0
C2001 C 0.49716 0.94224 0.56976 0.0
C2002 C 0.52986 0.96975 0.58033 0.0
H2003 H 0.43902 0.92308 0.56187 0.0
H2004 H 0.49728 0.91927 0.56097 0.0
C2005 C 0.52999 0.00084 0.59037 0.0
C2006 C 0.05906 0.5608 0.60172 0.0
C2007 C 0.08654 0.59339 0.59085 0.0
H2008 H 0.03897 0.50189 0.60903 0.0
C2009 C 0.11345 0.59125 0.57766 0.0
H2010 H 0.03709 0.56164 0.61124 0.0
C2011 C 0.11569 0.55811 0.57714 0.0
C2012 C 0.08944 0.52603 0.58882 0.0
H2013 H 0.13274 0.61523 0.56771 0.0
H2014 H 0.13744 0.55733 0.56736 0.0
C2015 C 0.06012 0.52693 0.60041 0.0
loop_
_geom_bond_atom_site_label_1
_geom_bond_atom_site_label_2
_geom_bond_distance
_geom_bond_site_symmetry_2
_ccdc_geom_bond_type
Mn0 O5 2.095 . S
Mn0 O15 2.162 . S
Mn0 O16 2.297 . S
Mn0 O24 2.385 1_455 S
Mn0 O25 2.209 . S
Mn0 O26 2.094 . S
Mn1 O6 2.121 . S
Mn1 N8 2.257 . S
Mn1 N17 2.282 1_455 S
Mn1 O25 2.215 . S
Mn1 O27 2.117 . S
C2 O24 1.234 . S
C2 O25 1.283 1_655 S
C3 O15 1.281 . S
C3 O16 1.236 . S
C4 O26 1.240 . S
C4 O27 1.264 . S
O5 Mn0 2.095 . S
O5 C14 1.250 . S
O6 Mn1 2.121 . S
O6 C14 1.258 . S
C7 N8 1.326 . S
C7 C11 1.460 . S
C7 H13 0.929 . S
N8 Mn1 2.257 . S
N8 C7 1.326 . S
N8 C12 1.362 1_455 S
C9 C10 1.258 . S
C9 C12 1.431 . S
C9 C29 1.449 . S
C10 C9 1.258 . S
C10 C11 1.477 1_655 S
C10 H30 0.931 . S
C11 C7 1.460 . S
C11 C10 1.477 1_455 S
C11 H31 0.930 . S
C12 N8 1.362 1_655 S
C12 C9 1.431 . S
C12 C22 1.476 . S
H13 C7 0.929 . S
C14 O5 1.250 . S
C14 O6 1.258 . S
O15 Mn0 2.162 . S
O15 C3 1.281 . S
O16 Mn0 2.297 . S
O16 C3 1.236 . S
N17 Mn1 2.282 1_655 S
N17 C18 1.328 . S
N17 C22 1.318 . S
C18 N17 1.328 . S
C18 C19 1.457 . S
C18 H23 0.929 . S
C19 C18 1.457 . S
C19 C20 1.291 . S
C19 H32 0.931 . S
C20 C19 1.291 . S
C20 C21 1.373 . S
C20 H33 0.929 . S
C21 C20 1.373 . S
C21 C22 1.396 . S
C21 C28 1.403 . S
C22 C12 1.476 . S
C22 N17 1.318 . S
C22 C21 1.396 . S
H23 C18 0.929 . S
O24 Mn0 2.385 1_655 S
O24 C2 1.234 . S
O25 Mn0 2.209 . S
O25 Mn1 2.215 . S
O25 C2 1.283 1_455 S
O26 Mn0 2.094 . S
O26 C4 1.240 . S
O27 Mn1 2.117 . S
O27 C4 1.264 . S
C28 C21 1.403 . S
C28 C29 1.399 . S
C28 H34 0.929 . S
C29 C9 1.449 . S
C29 C28 1.399 . S
C29 H35 0.930 . S
H30 C10 0.931 . S
H31 C11 0.930 . S
H32 C19 0.931 . S
H33 C20 0.929 . S
H34 C28 0.929 . S
H35 C29 0.930 . S
Mn36 O41 2.095 . S
Mn36 O51 2.162 . S
Mn36 O52 2.297 . S
Mn36 O60 2.385 . S
Mn36 O61 2.209 . S
Mn36 O62 2.094 . S
Mn37 O42 2.121 . S
Mn37 N44 2.257 . S
Mn37 N53 2.282 . S
Mn37 O61 2.215 . S
Mn37 O63 2.117 . S
C38 O60 1.234 . S
C38 O61 1.283 . S
C39 O51 1.281 . S
C39 O52 1.236 . S
C40 O62 1.240 . S
C40 O63 1.264 . S
O41 Mn36 2.095 . S
O41 C50 1.250 . S
O42 Mn37 2.121 . S
O42 C50 1.258 . S
C43 N44 1.326 . S
C43 C47 1.460 . S
C43 H49 0.929 . S
N44 Mn37 2.257 . S
N44 C43 1.326 . S
N44 C48 1.362 . S
C45 C46 1.258 . S
C45 C48 1.431 . S
C45 C65 1.449 . S
C46 C45 1.258 . S
C46 C47 1.477 . S
C46 H66 0.931 . S
C47 C43 1.460 . S
C47 C46 1.477 . S
C47 H67 0.930 . S
C48 N44 1.362 . S
C48 C45 1.431 . S
C48 C58 1.476 . S
H49 C43 0.929 . S
C50 O41 1.250 . S
C50 O42 1.258 . S
O51 Mn36 2.162 . S
O51 C39 1.281 . S
O52 Mn36 2.297 . S
O52 C39 1.236 . S
N53 Mn37 2.282 . S
N53 C54 1.328 . S
N53 C58 1.318 . S
C54 N53 1.328 . S
C54 C55 1.457 . S
C54 H59 0.929 . S
C55 C54 1.457 . S
C55 C56 1.291 . S
C55 H68 0.931 . S
C56 C55 1.291 . S
C56 C57 1.373 . S
C56 H69 0.929 . S
C57 C56 1.373 . S
C57 C58 1.396 . S
C57 C64 1.403 . S
C58 C48 1.476 . S
C58 N53 1.318 . S
C58 C57 1.396 . S
H59 C54 0.929 . S
O60 Mn36 2.385 . S
O60 C38 1.234 . S
O61 Mn36 2.209 . S
O61 Mn37 2.215 . S
O61 C38 1.283 . S
O62 Mn36 2.094 . S
O62 C40 1.240 . S
O63 Mn37 2.117 . S
O63 C40 1.264 . S
C64 C57 1.403 . S
C64 C65 1.399 . S
C64 H70 0.929 . S
C65 C45 1.449 . S
C65 C64 1.399 . S
C65 H71 0.930 1_655 S
H66 C46 0.931 . S
H67 C47 0.930 . S
H68 C55 0.931 . S
H69 C56 0.929 . S
H70 C64 0.929 . S
H71 C65 0.930 1_455 S
Mn72 O77 2.095 1_545 S
Mn72 O87 2.162 . S
Mn72 O88 2.297 . S
Mn72 O96 2.385 . S
Mn72 O97 2.209 . S
Mn72 O98 2.094 . S
Mn73 O78 2.121 1_545 S
Mn73 N80 2.257 . S
Mn73 N89 2.282 . S
Mn73 O97 2.215 . S
Mn73 O99 2.117 . S
C74 O96 1.234 . S
C74 O97 1.283 . S
C75 O87 1.281 . S
C75 O88 1.236 . S
C76 O98 1.240 . S
C76 O99 1.264 . S
O77 Mn72 2.095 1_565 S
O77 C86 1.250 . S
O78 Mn73 2.121 1_565 S
O78 C86 1.258 . S
C79 N80 1.326 . S
C79 C83 1.460 . S
C79 H85 0.929 1_545 S
N80 Mn73 2.257 . S
N80 C79 1.326 . S
N80 C84 1.362 . S
C81 C82 1.258 . S
C81 C84 1.431 . S
C81 C101 1.449 . S
C82 C81 1.258 . S
C82 C83 1.477 . S
C82 H102 0.931 . S
C83 C79 1.460 . S
C83 C82 1.477 . S
C83 H103 0.930 . S
C84 N80 1.362 . S
C84 C81 1.431 . S
C84 C94 1.476 . S
H85 C79 0.929 1_565 S
C86 O77 1.250 . S
C86 O78 1.258 . S
O87 Mn72 2.162 . S
O87 C75 1.281 . S
O88 Mn72 2.297 . S
O88 C75 1.236 . S
N89 Mn73 2.282 . S
N89 C90 1.328 . S
N89 C94 1.318 . S
C90 N89 1.328 . S
C90 C91 1.457 . S
C90 H95 0.929 . S
C91 C90 1.457 . S
C91 C92 1.291 . S
C91 H104 0.931 . S
C92 C91 1.291 . S
C92 C93 1.373 . S
C92 H105 0.929 . S
C93 C92 1.373 . S
C93 C94 1.396 . S
C93 C100 1.403 . S
C94 C84 1.476 . S
C94 N89 1.318 . S
C94 C93 1.396 . S
H95 C90 0.929 . S
O96 Mn72 2.385 . S
O96 C74 1.234 . S
O97 Mn72 2.209 . S
O97 Mn73 2.215 . S
O97 C74 1.283 . S
O98 Mn72 2.094 . S
O98 C76 1.240 . S
O99 Mn73 2.117 . S
O99 C76 1.264 . S
C100 C93 1.403 . S
C100 C101 1.399 . S
C100 H106 0.929 . S
C101 C81 1.449 . S
C101 C100 1.399 . S
C101 H107 0.930 . S
H102 C82 0.931 . S
H103 C83 0.930 . S
H104 C91 0.931 . S
H105 C92 0.929 . S
H106 C100 0.929 . S
H107 C101 0.930 . S
Mn108 O113 2.095 . S
Mn108 O123 2.162 . S
Mn108 O124 2.297 . S
Mn108 O132 2.385 1_545 S
Mn108 O133 2.209 . S
Mn108 O134 2.094 . S
Mn109 O114 2.121 . S
Mn109 N116 2.257 . S
Mn109 N125 2.282 1_545 S
Mn109 O133 2.215 . S
Mn109 O135 2.117 . S
C110 O132 1.234 . S
C110 O133 1.283 1_565 S
C111 O123 1.281 . S
C111 O124 1.236 . S
C112 O134 1.240 . S
C112 O135 1.264 . S
O113 Mn108 2.095 . S
O113 C122 1.250 . S
O114 Mn109 2.121 . S
O114 C122 1.258 . S
C115 N116 1.326 . S
C115 C119 1.460 . S
C115 H121 0.929 . S
N116 Mn109 2.257 . S
N116 C115 1.326 . S
N116 C120 1.362 1_545 S
C117 C118 1.258 . S
C117 C120 1.431 . S
C117 C137 1.449 . S
C118 C117 1.258 . S
C118 C119 1.477 1_565 S
C118 H138 0.931 . S
C119 C115 1.460 . S
C119 C118 1.477 1_545 S
C119 H139 0.930 . S
C120 N116 1.362 1_565 S
C120 C117 1.431 . S
C120 C130 1.476 . S
H121 C115 0.929 . S
C122 O113 1.250 . S
C122 O114 1.258 . S
O123 Mn108 2.162 . S
O123 C111 1.281 . S
O124 Mn108 2.297 . S
O124 C111 1.236 . S
N125 Mn109 2.282 1_565 S
N125 C126 1.328 . S
N125 C130 1.318 . S
C126 N125 1.328 . S
C126 C127 1.457 . S
C126 H131 0.929 . S
C127 C126 1.457 . S
C127 C128 1.291 . S
C127 H140 0.931 . S
C128 C127 1.291 . S
C128 C129 1.373 . S
C128 H141 0.929 . S
C129 C128 1.373 . S
C129 C130 1.396 . S
C129 C136 1.403 . S
C130 C120 1.476 . S
C130 N125 1.318 . S
C130 C129 1.396 . S
H131 C126 0.929 . S
O132 Mn108 2.385 1_565 S
O132 C110 1.234 . S
O133 Mn108 2.209 . S
O133 Mn109 2.215 . S
O133 C110 1.283 1_545 S
O134 Mn108 2.094 . S
O134 C112 1.240 . S
O135 Mn109 2.117 . S
O135 C112 1.264 . S
C136 C129 1.403 . S
C136 C137 1.399 . S
C136 H142 0.929 . S
C137 C117 1.449 . S
C137 C136 1.399 . S
C137 H143 0.930 . S
H138 C118 0.931 . S
H139 C119 0.930 . S
H140 C127 0.931 . S
H141 C128 0.929 . S
H142 C136 0.929 . S
H143 C137 0.930 . S
Mn144 O149 2.095 1_455 S
Mn144 O159 2.162 . S
Mn144 O160 2.297 . S
Mn144 O168 2.385 . S
Mn144 O169 2.209 . S
Mn144 O170 2.094 . S
Mn145 O150 2.121 1_455 S
Mn145 N152 2.257 . S
Mn145 N161 2.282 . S
Mn145 O169 2.215 . S
Mn145 O171 2.117 . S
C146 O168 1.234 . S
C146 O169 1.283 . S
C147 O159 1.281 . S
C147 O160 1.236 . S
C148 O170 1.240 . S
C148 O171 1.264 . S
O149 Mn144 2.095 1_655 S
O149 C158 1.250 . S
O150 Mn145 2.121 1_655 S
O150 C158 1.258 . S
C151 N152 1.326 . S
C151 C155 1.460 . S
C151 H157 0.929 1_455 S
N152 Mn145 2.257 . S
N152 C151 1.326 . S
N152 C156 1.362 . S
C153 C154 1.258 . S
C153 C156 1.431 . S
C153 C173 1.449 . S
C154 C153 1.258 . S
C154 C155 1.477 . S
C154 H174 0.931 . S
C155 C151 1.460 . S
C155 C154 1.477 . S
C155 H175 0.930 . S
C156 N152 1.362 . S
C156 C153 1.431 . S
C156 C166 1.476 . S
H157 C151 0.929 1_655 S
C158 O149 1.250 . S
C158 O150 1.258 . S
O159 Mn144 2.162 . S
O159 C147 1.281 . S
O160 Mn144 2.297 . S
O160 C147 1.236 . S
N161 Mn145 2.282 . S
N161 C162 1.328 . S
N161 C166 1.318 . S
C162 N161 1.328 . S
C162 C163 1.457 . S
C162 H167 0.929 . S
C163 C162 1.457 . S
C163 C164 1.291 . S
C163 H176 0.931 . S
C164 C163 1.291 . S
C164 C165 1.373 . S
C164 H177 0.929 . S
C165 C164 1.373 . S
C165 C166 1.396 . S
C165 C172 1.403 . S
C166 C156 1.476 . S
C166 N161 1.318 . S
C166 C165 1.396 . S
H167 C162 0.929 . S
O168 Mn144 2.385 . S
O168 C146 1.234 . S
O169 Mn144 2.209 . S
O169 Mn145 2.215 . S
O169 C146 1.283 . S
O170 Mn144 2.094 . S
O170 C148 1.240 . S
O171 Mn145 2.117 . S
O171 C148 1.264 . S
C172 C165 1.403 . S
C172 C173 1.399 . S
C172 H178 0.929 . S
C173 C153 1.449 . S
C173 C172 1.399 . S
C173 H179 0.930 . S
H174 C154 0.931 . S
H175 C155 0.930 . S
H176 C163 0.931 . S
H177 C164 0.929 . S
H178 C172 0.929 . S
H179 C173 0.930 . S
Mn180 O185 2.095 . S
Mn180 O195 2.162 . S
Mn180 O196 2.297 . S
Mn180 O204 2.385 . S
Mn180 O205 2.209 . S
Mn180 O206 2.094 . S
Mn181 O186 2.121 . S
Mn181 N188 2.257 . S
Mn181 N197 2.282 . S
Mn181 O205 2.215 . S
Mn181 O207 2.117 . S
C182 O204 1.234 . S
C182 O205 1.283 . S
C183 O195 1.281 . S
C183 O196 1.236 . S
C184 O206 1.240 . S
C184 O207 1.264 . S
O185 Mn180 2.095 . S
O185 C194 1.250 . S
O186 Mn181 2.121 . S
O186 C194 1.258 . S
C187 N188 1.326 . S
C187 C191 1.460 . S
C187 H193 0.929 . S
N188 Mn181 2.257 . S
N188 C187 1.326 . S
N188 C192 1.362 . S
C189 C190 1.258 . S
C189 C192 1.431 . S
C189 C209 1.449 . S
C190 C189 1.258 . S
C190 C191 1.477 . S
C190 H210 0.931 . S
C191 C187 1.460 . S
C191 C190 1.477 . S
C191 H211 0.930 . S
C192 N188 1.362 . S
C192 C189 1.431 . S
C192 C202 1.476 . S
H193 C187 0.929 . S
C194 O185 1.250 . S
C194 O186 1.258 . S
O195 Mn180 2.162 . S
O195 C183 1.281 . S
O196 Mn180 2.297 . S
O196 C183 1.236 . S
N197 Mn181 2.282 . S
N197 C198 1.328 . S
N197 C202 1.318 . S
C198 N197 1.328 . S
C198 C199 1.457 . S
C198 H203 0.929 . S
C199 C198 1.457 . S
C199 C200 1.291 . S
C199 H212 0.931 . S
C200 C199 1.291 . S
C200 C201 1.373 . S
C200 H213 0.929 . S
C201 C200 1.373 . S
C201 C202 1.396 . S
C201 C208 1.403 . S
C202 C192 1.476 . S
C202 N197 1.318 . S
C202 C201 1.396 . S
H203 C198 0.929 . S
O204 Mn180 2.385 . S
O204 C182 1.234 . S
O205 Mn180 2.209 . S
O205 Mn181 2.215 . S
O205 C182 1.283 . S
O206 Mn180 2.094 . S
O206 C184 1.240 . S
O207 Mn181 2.117 . S
O207 C184 1.264 . S
C208 C201 1.403 . S
C208 C209 1.399 . S
C208 H214 0.929 . S
C209 C189 1.449 . S
C209 C208 1.399 . S
C209 H215 0.930 1_565 S
H210 C190 0.931 . S
H211 C191 0.930 . S
H212 C199 0.931 . S
H213 C200 0.929 . S
H214 C208 0.929 . S
H215 C209 0.930 1_545 S
Mn216 O221 2.095 1_455 S
Mn216 O231 2.162 . S
Mn216 O232 2.297 . S
Mn216 O240 2.385 . S
Mn216 O241 2.209 . S
Mn216 O242 2.094 . S
Mn217 O222 2.121 1_455 S
Mn217 N224 2.257 . S
Mn217 N233 2.282 . S
Mn217 O241 2.215 . S
Mn217 O243 2.117 . S
C218 O240 1.234 . S
C218 O241 1.283 . S
C219 O231 1.281 . S
C219 O232 1.236 . S
C220 O242 1.240 . S
C220 O243 1.264 . S
O221 Mn216 2.095 1_655 S
O221 C230 1.250 . S
O222 Mn217 2.121 1_655 S
O222 C230 1.258 . S
C223 N224 1.326 . S
C223 C227 1.460 . S
C223 H229 0.929 1_455 S
N224 Mn217 2.257 . S
N224 C223 1.326 . S
N224 C228 1.362 . S
C225 C226 1.258 . S
C225 C228 1.431 . S
C225 C245 1.449 . S
C226 C225 1.258 . S
C226 C227 1.477 . S
C226 H246 0.931 . S
C227 C223 1.460 . S
C227 C226 1.477 . S
C227 H247 0.930 . S
C228 N224 1.362 . S
C228 C225 1.431 . S
C228 C238 1.476 . S
H229 C223 0.929 1_655 S
C230 O221 1.250 . S
C230 O222 1.258 . S
O231 Mn216 2.162 . S
O231 C219 1.281 . S
O232 Mn216 2.297 . S
O232 C219 1.236 . S
N233 Mn217 2.282 . S
N233 C234 1.328 . S
N233 C238 1.318 . S
C234 N233 1.328 . S
C234 C235 1.457 . S
C234 H239 0.929 . S
C235 C234 1.457 . S
C235 C236 1.291 . S
C235 H248 0.931 . S
C236 C235 1.291 . S
C236 C237 1.373 . S
C236 H249 0.929 . S
C237 C236 1.373 . S
C237 C238 1.396 . S
C237 C244 1.403 . S
C238 C228 1.476 . S
C238 N233 1.318 . S
C238 C237 1.396 . S
H239 C234 0.929 . S
O240 Mn216 2.385 . S
O240 C218 1.234 . S
O241 Mn216 2.209 . S
O241 Mn217 2.215 . S
O241 C218 1.283 . S
O242 Mn216 2.094 . S
O242 C220 1.240 . S
O243 Mn217 2.117 . S
O243 C220 1.264 . S
C244 C237 1.403 . S
C244 C245 1.399 . S
C244 H250 0.929 . S
C245 C225 1.449 . S
C245 C244 1.399 . S
C245 H251 0.930 1_565 S
H246 C226 0.931 . S
H247 C227 0.930 . S
H248 C235 0.931 . S
H249 C236 0.929 . S
H250 C244 0.929 . S
H251 C245 0.930 1_545 S
Mn252 O257 2.095 . S
Mn252 O267 2.162 . S
Mn252 O268 2.297 . S
Mn252 O276 2.385 . S
Mn252 O277 2.209 . S
Mn252 O278 2.094 . S
Mn253 O258 2.121 . S
Mn253 N260 2.257 . S
Mn253 N269 2.282 . S
Mn253 O277 2.215 . S
Mn253 O279 2.117 . S
C254 O276 1.234 . S
C254 O277 1.283 . S
C255 O267 1.281 . S
C255 O268 1.236 . S
C256 O278 1.240 . S
C256 O279 1.264 . S
O257 Mn252 2.095 . S
O257 C266 1.250 . S
O258 Mn253 2.121 . S
O258 C266 1.258 . S
C259 N260 1.326 . S
C259 C263 1.460 . S
C259 H265 0.929 . S
N260 Mn253 2.257 . S
N260 C259 1.326 . S
N260 C264 1.362 . S
C261 C262 1.258 . S
C261 C264 1.431 . S
C261 C281 1.449 . S
C262 C261 1.258 . S
C262 C263 1.477 . S
C262 H282 0.931 . S
C263 C259 1.460 . S
C263 C262 1.477 . S
C263 H283 0.930 . S
C264 N260 1.362 . S
C264 C261 1.431 . S
C264 C274 1.476 . S
H265 C259 0.929 . S
C266 O257 1.250 . S
C266 O258 1.258 . S
O267 Mn252 2.162 . S
O267 C255 1.281 . S
O268 Mn252 2.297 . S
O268 C255 1.236 . S
N269 Mn253 2.282 . S
N269 C270 1.328 . S
N269 C274 1.318 . S
C270 N269 1.328 . S
C270 C271 1.457 . S
C270 H275 0.929 . S
C271 C270 1.457 . S
C271 C272 1.291 . S
C271 H284 0.931 . S
C272 C271 1.291 . S
C272 C273 1.373 . S
C272 H285 0.929 . S
C273 C272 1.373 . S
C273 C274 1.396 . S
C273 C280 1.403 . S
C274 C264 1.476 . S
C274 N269 1.318 . S
C274 C273 1.396 . S
H275 C270 0.929 . S
O276 Mn252 2.385 . S
O276 C254 1.234 . S
O277 Mn252 2.209 . S
O277 Mn253 2.215 . S
O277 C254 1.283 . S
O278 Mn252 2.094 . S
O278 C256 1.240 . S
O279 Mn253 2.117 . S
O279 C256 1.264 . S
C280 C273 1.403 . S
C280 C281 1.399 . S
C280 H286 0.929 . S
C281 C261 1.449 . S
C281 C280 1.399 . S
C281 H287 0.930 . S
H282 C262 0.931 . S
H283 C263 0.930 . S
H284 C271 0.931 . S
H285 C272 0.929 . S
H286 C280 0.929 . S
H287 C281 0.930 . S
Mn288 O293 2.095 . S
Mn288 O303 2.162 . S
Mn288 O304 2.297 . S
Mn288 O312 2.385 1_545 S
Mn288 O313 2.209 . S
Mn288 O314 2.094 . S
Mn289 O294 2.121 . S
Mn289 N296 2.257 . S
Mn289 N305 2.282 1_545 S
Mn289 O313 2.215 . S
Mn289 O315 2.117 . S
C290 O312 1.234 . S
C290 O313 1.283 1_565 S
C291 O303 1.281 . S
C291 O304 1.236 . S
C292 O314 1.240 . S
C292 O315 1.264 . S
O293 Mn288 2.095 . S
O293 C302 1.250 . S
O294 Mn289 2.121 . S
O294 C302 1.258 . S
C295 N296 1.326 . S
C295 C299 1.460 . S
C295 H301 0.929 . S
N296 Mn289 2.257 . S
N296 C295 1.326 . S
N296 C300 1.362 1_545 S
C297 C298 1.258 . S
C297 C300 1.431 . S
C297 C317 1.449 . S
C298 C297 1.258 . S
C298 C299 1.477 1_565 S
C298 H318 0.931 . S
C299 C295 1.460 . S
C299 C298 1.477 1_545 S
C299 H319 0.930 . S
C300 N296 1.362 1_565 S
C300 C297 1.431 . S
C300 C310 1.476 . S
H301 C295 0.929 . S
C302 O293 1.250 . S
C302 O294 1.258 . S
O303 Mn288 2.162 . S
O303 C291 1.281 . S
O304 Mn288 2.297 . S
O304 C291 1.236 . S
N305 Mn289 2.282 1_565 S
N305 C306 1.328 . S
N305 C310 1.318 . S
C306 N305 1.328 . S
C306 C307 1.457 . S
C306 H311 0.929 . S
C307 C306 1.457 . S
C307 C308 1.291 . S
C307 H320 0.931 . S
C308 C307 1.291 . S
C308 C309 1.373 . S
C308 H321 0.929 . S
C309 C308 1.373 . S
C309 C310 1.396 . S
C309 C316 1.403 . S
C310 C300 1.476 . S
C310 N305 1.318 . S
C310 C309 1.396 . S
H311 C306 0.929 . S
O312 Mn288 2.385 1_565 S
O312 C290 1.234 . S
O313 Mn288 2.209 . S
O313 Mn289 2.215 . S
O313 C290 1.283 1_545 S
O314 Mn288 2.094 . S
O314 C292 1.240 . S
O315 Mn289 2.117 . S
O315 C292 1.264 . S
C316 C309 1.403 . S
C316 C317 1.399 . S
C316 H322 0.929 . S
C317 C297 1.449 . S
C317 C316 1.399 . S
C317 H323 0.930 . S
H318 C298 0.931 . S
H319 C299 0.930 . S
H320 C307 0.931 . S
H321 C308 0.929 . S
H322 C316 0.929 . S
H323 C317 0.930 . S
Mn324 O329 2.095 1_545 S
Mn324 O339 2.162 . S
Mn324 O340 2.297 . S
Mn324 O348 2.385 . S
Mn324 O349 2.209 . S
Mn324 O350 2.094 . S
Mn325 O330 2.121 1_545 S
Mn325 N332 2.257 . S
Mn325 N341 2.282 . S
Mn325 O349 2.215 . S
Mn325 O351 2.117 . S
C326 O348 1.234 . S
C326 O349 1.283 . S
C327 O339 1.281 . S
C327 O340 1.236 . S
C328 O350 1.240 . S
C328 O351 1.264 . S
O329 Mn324 2.095 1_565 S
O329 C338 1.250 . S
O330 Mn325 2.121 1_565 S
O330 C338 1.258 . S
C331 N332 1.326 . S
C331 C335 1.460 . S
C331 H337 0.929 1_545 S
N332 Mn325 2.257 . S
N332 C331 1.326 . S
N332 C336 1.362 . S
C333 C334 1.258 . S
C333 C336 1.431 . S
C333 C353 1.449 . S
C334 C333 1.258 . S
C334 C335 1.477 . S
C334 H354 0.931 . S
C335 C331 1.460 . S
C335 C334 1.477 . S
C335 H355 0.930 . S
C336 N332 1.362 . S
C336 C333 1.431 . S
C336 C346 1.476 . S
H337 C331 0.929 1_565 S
C338 O329 1.250 . S
C338 O330 1.258 . S
O339 Mn324 2.162 . S
O339 C327 1.281 . S
O340 Mn324 2.297 . S
O340 C327 1.236 . S
N341 Mn325 2.282 . S
N341 C342 1.328 . S
N341 C346 1.318 . S
C342 N341 1.328 . S
C342 C343 1.457 . S
C342 H347 0.929 . S
C343 C342 1.457 . S
C343 C344 1.291 . S
C343 H356 0.931 . S
C344 C343 1.291 . S
C344 C345 1.373 . S
C344 H357 0.929 . S
C345 C344 1.373 . S
C345 C346 1.396 . S
C345 C352 1.403 . S
C346 C336 1.476 . S
C346 N341 1.318 . S
C346 C345 1.396 . S
H347 C342 0.929 . S
O348 Mn324 2.385 . S
O348 C326 1.234 . S
O349 Mn324 2.209 . S
O349 Mn325 2.215 . S
O349 C326 1.283 . S
O350 Mn324 2.094 . S
O350 C328 1.240 . S
O351 Mn325 2.117 . S
O351 C328 1.264 . S
C352 C345 1.403 . S
C352 C353 1.399 . S
C352 H358 0.929 . S
C353 C333 1.449 . S
C353 C352 1.399 . S
C353 H359 0.930 1_655 S
H354 C334 0.931 . S
H355 C335 0.930 . S
H356 C343 0.931 . S
H357 C344 0.929 . S
H358 C352 0.929 . S
H359 C353 0.930 1_455 S
Mn360 O365 2.095 . S
Mn360 O375 2.162 . S
Mn360 O376 2.297 . S
Mn360 O384 2.385 1_455 S
Mn360 O385 2.209 . S
Mn360 O386 2.094 . S
Mn361 O366 2.121 . S
Mn361 N368 2.257 . S
Mn361 N377 2.282 1_455 S
Mn361 O385 2.215 . S
Mn361 O387 2.117 . S
C362 O384 1.234 . S
C362 O385 1.283 1_655 S
C363 O375 1.281 . S
C363 O376 1.236 . S
C364 O386 1.240 . S
C364 O387 1.264 . S
O365 Mn360 2.095 . S
O365 C374 1.250 . S
O366 Mn361 2.121 . S
O366 C374 1.258 . S
C367 N368 1.326 . S
C367 C371 1.460 . S
C367 H373 0.929 . S
N368 Mn361 2.257 . S
N368 C367 1.326 . S
N368 C372 1.362 1_455 S
C369 C370 1.258 . S
C369 C372 1.431 . S
C369 C389 1.449 . S
C370 C369 1.258 . S
C370 C371 1.477 1_655 S
C370 H390 0.931 . S
C371 C367 1.460 . S
C371 C370 1.477 1_455 S
C371 H391 0.930 . S
C372 N368 1.362 1_655 S
C372 C369 1.431 . S
C372 C382 1.476 . S
H373 C367 0.929 . S
C374 O365 1.250 . S
C374 O366 1.258 . S
O375 Mn360 2.162 . S
O375 C363 1.281 . S
O376 Mn360 2.297 . S
O376 C363 1.236 . S
N377 Mn361 2.282 1_655 S
N377 C378 1.328 . S
N377 C382 1.318 . S
C378 N377 1.328 . S
C378 C379 1.457 . S
C378 H383 0.929 . S
C379 C378 1.457 . S
C379 C380 1.291 . S
C379 H392 0.931 . S
C380 C379 1.291 . S
C380 C381 1.373 . S
C380 H393 0.929 . S
C381 C380 1.373 . S
C381 C382 1.396 . S
C381 C388 1.403 . S
C382 C372 1.476 . S
C382 N377 1.318 . S
C382 C381 1.396 . S
H383 C378 0.929 . S
O384 Mn360 2.385 1_655 S
O384 C362 1.234 . S
O385 Mn360 2.209 . S
O385 Mn361 2.215 . S
O385 C362 1.283 1_455 S
O386 Mn360 2.094 . S
O386 C364 1.240 . S
O387 Mn361 2.117 . S
O387 C364 1.264 . S
C388 C381 1.403 . S
C388 C389 1.399 . S
C388 H394 0.929 . S
C389 C369 1.449 . S
C389 C388 1.399 . S
C389 H395 0.930 . S
H390 C370 0.931 . S
H391 C371 0.930 . S
H392 C379 0.931 . S
H393 C380 0.929 . S
H394 C388 0.929 . S
H395 C389 0.930 . S
Mn396 O401 2.095 . S
Mn396 O411 2.162 . S
Mn396 O412 2.297 . S
Mn396 O420 2.385 . S
Mn396 O421 2.209 . S
Mn396 O422 2.094 . S
Mn397 O402 2.121 . S
Mn397 N404 2.257 . S
Mn397 N413 2.282 . S
Mn397 O421 2.215 . S
Mn397 O423 2.117 . S
C398 O420 1.234 . S
C398 O421 1.283 . S
C399 O411 1.281 . S
C399 O412 1.236 . S
C400 O422 1.240 . S
C400 O423 1.264 . S
O401 Mn396 2.095 . S
O401 C410 1.250 . S
O402 Mn397 2.121 . S
O402 C410 1.258 . S
C403 N404 1.326 . S
C403 C407 1.460 . S
C403 H409 0.929 . S
N404 Mn397 2.257 . S
N404 C403 1.326 . S
N404 C408 1.362 . S
C405 C406 1.258 . S
C405 C408 1.431 . S
C405 C425 1.449 . S
C406 C405 1.258 . S
C406 C407 1.477 . S
C406 H426 0.931 . S
C407 C403 1.460 . S
C407 C406 1.477 . S
C407 H427 0.930 . S
C408 N404 1.362 . S
C408 C405 1.431 . S
C408 C418 1.476 . S
H409 C403 0.929 . S
C410 O401 1.250 . S
C410 O402 1.258 . S
O411 Mn396 2.162 . S
O411 C399 1.281 . S
O412 Mn396 2.297 . S
O412 C399 1.236 . S
N413 Mn397 2.282 . S
N413 C414 1.328 . S
N413 C418 1.318 . S
C414 N413 1.328 . S
C414 C415 1.457 . S
C414 H419 0.929 . S
C415 C414 1.457 . S
C415 C416 1.291 . S
C415 H428 0.931 . S
C416 C415 1.291 . S
C416 C417 1.373 . S
C416 H429 0.929 . S
C417 C416 1.373 . S
C417 C418 1.396 . S
C417 C424 1.403 . S
C418 C408 1.476 . S
C418 N413 1.318 . S
C418 C417 1.396 . S
H419 C414 0.929 . S
O420 Mn396 2.385 . S
O420 C398 1.234 . S
O421 Mn396 2.209 . S
O421 Mn397 2.215 . S
O421 C398 1.283 . S
O422 Mn396 2.094 . S
O422 C400 1.240 . S
O423 Mn397 2.117 . S
O423 C400 1.264 . S
C424 C417 1.403 . S
C424 C425 1.399 . S
C424 H430 0.929 . S
C425 C405 1.449 . S
C425 C424 1.399 . S
C425 H431 0.930 . S
H426 C406 0.931 . S
H427 C407 0.930 . S
H428 C415 0.931 . S
H429 C416 0.929 . S
H430 C424 0.929 . S
H431 C425 0.930 . S
Mn432 O437 2.095 . S
Mn432 O447 2.162 . S
Mn432 O448 2.297 . S
Mn432 O456 2.385 . S
Mn432 O457 2.209 . S
Mn432 O458 2.094 . S
Mn433 O438 2.121 . S
Mn433 N440 2.257 . S
Mn433 N449 2.282 . S
Mn433 O457 2.215 . S
Mn433 O459 2.117 . S
C434 O456 1.234 . S
C434 O457 1.283 . S
C435 O447 1.281 . S
C435 O448 1.236 . S
C436 O458 1.240 . S
C436 O459 1.264 . S
O437 Mn432 2.095 . S
O437 C446 1.250 . S
O438 Mn433 2.121 . S
O438 C446 1.258 . S
C439 N440 1.326 . S
C439 C443 1.460 . S
C439 H445 0.929 . S
N440 Mn433 2.257 . S
N440 C439 1.326 . S
N440 C444 1.362 . S
C441 C442 1.258 . S
C441 C444 1.431 . S
C441 C461 1.449 . S
C442 C441 1.258 . S
C442 C443 1.477 . S
C442 H462 0.931 . S
C443 C439 1.460 . S
C443 C442 1.477 . S
C443 H463 0.930 . S
C444 N440 1.362 . S
C444 C441 1.431 . S
C444 C454 1.476 . S
H445 C439 0.929 . S
C446 O437 1.250 . S
C446 O438 1.258 . S
O447 Mn432 2.162 . S
O447 C435 1.281 . S
O448 Mn432 2.297 . S
O448 C435 1.236 . S
N449 Mn433 2.282 . S
N449 C450 1.328 . S
N449 C454 1.318 . S
C450 N449 1.328 . S
C450 C451 1.457 . S
C450 H455 0.929 . S
C451 C450 1.457 . S
C451 C452 1.291 . S
C451 H464 0.931 . S
C452 C451 1.291 . S
C452 C453 1.373 . S
C452 H465 0.929 . S
C453 C452 1.373 . S
C453 C454 1.396 . S
C453 C460 1.403 . S
C454 C444 1.476 . S
C454 N449 1.318 . S
C454 C453 1.396 . S
H455 C450 0.929 . S
O456 Mn432 2.385 . S
O456 C434 1.234 . S
O457 Mn432 2.209 . S
O457 Mn433 2.215 . S
O457 C434 1.283 . S
O458 Mn432 2.094 . S
O458 C436 1.240 . S
O459 Mn433 2.117 . S
O459 C436 1.264 . S
C460 C453 1.403 . S
C460 C461 1.399 . S
C460 H466 0.929 . S
C461 C441 1.449 . S
C461 C460 1.399 . S
C461 H467 0.930 . S
H462 C442 0.931 . S
H463 C443 0.930 . S
H464 C451 0.931 . S
H465 C452 0.929 . S
H466 C460 0.929 . S
H467 C461 0.930 . S
Mn468 O473 2.095 . S
Mn468 O483 2.162 . S
Mn468 O484 2.297 . S
Mn468 O492 2.385 . S
Mn468 O493 2.209 . S
Mn468 O494 2.094 . S
Mn469 O474 2.121 . S
Mn469 N476 2.257 . S
Mn469 N485 2.282 . S
Mn469 O493 2.215 . S
Mn469 O495 2.117 . S
C470 O492 1.234 . S
C470 O493 1.283 . S
C471 O483 1.281 . S
C471 O484 1.236 . S
C472 O494 1.240 . S
C472 O495 1.264 . S
O473 Mn468 2.095 . S
O473 C482 1.250 . S
O474 Mn469 2.121 . S
O474 C482 1.258 . S
C475 N476 1.326 . S
C475 C479 1.460 . S
C475 H481 0.929 . S
N476 Mn469 2.257 . S
N476 C475 1.326 . S
N476 C480 1.362 . S
C477 C478 1.258 . S
C477 C480 1.431 . S
C477 C497 1.449 . S
C478 C477 1.258 . S
C478 C479 1.477 . S
C478 H498 0.931 . S
C479 C475 1.460 . S
C479 C478 1.477 . S
C479 H499 0.930 . S
C480 N476 1.362 . S
C480 C477 1.431 . S
C480 C490 1.476 . S
H481 C475 0.929 . S
C482 O473 1.250 . S
C482 O474 1.258 . S
O483 Mn468 2.162 . S
O483 C471 1.281 . S
O484 Mn468 2.297 . S
O484 C471 1.236 . S
N485 Mn469 2.282 . S
N485 C486 1.328 . S
N485 C490 1.318 . S
C486 N485 1.328 . S
C486 C487 1.457 . S
C486 H491 0.929 . S
C487 C486 1.457 . S
C487 C488 1.291 . S
C487 H500 0.931 . S
C488 C487 1.291 . S
C488 C489 1.373 . S
C488 H501 0.929 . S
C489 C488 1.373 . S
C489 C490 1.396 . S
C489 C496 1.403 . S
C490 C480 1.476 . S
C490 N485 1.318 . S
C490 C489 1.396 . S
H491 C486 0.929 . S
O492 Mn468 2.385 . S
O492 C470 1.234 . S
O493 Mn468 2.209 . S
O493 Mn469 2.215 . S
O493 C470 1.283 . S
O494 Mn468 2.094 . S
O494 C472 1.240 . S
O495 Mn469 2.117 . S
O495 C472 1.264 . S
C496 C489 1.403 . S
C496 C497 1.399 . S
C496 H502 0.929 . S
C497 C477 1.449 . S
C497 C496 1.399 . S
C497 H503 0.930 . S
H498 C478 0.931 . S
H499 C479 0.930 . S
H500 C487 0.931 . S
H501 C488 0.929 . S
H502 C496 0.929 . S
H503 C497 0.930 . S
Mn504 O509 2.095 . S
Mn504 O519 2.162 1_655 S
Mn504 O520 2.297 . S
Mn504 O528 2.385 1_655 S
Mn504 O529 2.209 . S
Mn504 O530 2.094 . S
Mn505 O510 2.121 . S
Mn505 N512 2.257 . S
Mn505 N521 2.282 . S
Mn505 O529 2.215 . S
Mn505 O531 2.117 . S
C506 O528 1.234 1_655 S
C506 O529 1.283 . S
C507 O519 1.281 . S
C507 O520 1.236 1_455 S
C508 O530 1.240 . S
C508 O531 1.264 . S
O509 Mn504 2.095 . S
O509 C518 1.250 . S
O510 Mn505 2.121 . S
O510 C518 1.258 . S
C511 N512 1.326 . S
C511 C515 1.460 . S
C511 H517 0.929 . S
N512 Mn505 2.257 . S
N512 C511 1.326 . S
N512 C516 1.362 . S
C513 C514 1.258 . S
C513 C516 1.431 . S
C513 C533 1.449 . S
C514 C513 1.258 . S
C514 C515 1.477 . S
C514 H534 0.931 . S
C515 C511 1.460 . S
C515 C514 1.477 . S
C515 H535 0.930 . S
C516 N512 1.362 . S
C516 C513 1.431 . S
C516 C526 1.476 . S
H517 C511 0.929 . S
C518 O509 1.250 . S
C518 O510 1.258 . S
O519 Mn504 2.162 1_455 S
O519 C507 1.281 . S
O520 Mn504 2.297 . S
O520 C507 1.236 1_655 S
N521 Mn505 2.282 . S
N521 C522 1.328 . S
N521 C526 1.318 . S
C522 N521 1.328 . S
C522 C523 1.457 . S
C522 H527 0.929 . S
C523 C522 1.457 . S
C523 C524 1.291 . S
C523 H536 0.931 . S
C524 C523 1.291 . S
C524 C525 1.373 . S
C524 H537 0.929 . S
C525 C524 1.373 . S
C525 C526 1.396 . S
C525 C532 1.403 . S
C526 C516 1.476 . S
C526 N521 1.318 . S
C526 C525 1.396 . S
H527 C522 0.929 . S
O528 Mn504 2.385 1_455 S
O528 C506 1.234 1_455 S
O529 Mn504 2.209 . S
O529 Mn505 2.215 . S
O529 C506 1.283 . S
O530 Mn504 2.094 . S
O530 C508 1.240 . S
O531 Mn505 2.117 . S
O531 C508 1.264 . S
C532 C525 1.403 . S
C532 C533 1.399 . S
C532 H538 0.929 . S
C533 C513 1.449 . S
C533 C532 1.399 . S
C533 H539 0.930 . S
H534 C514 0.931 . S
H535 C515 0.930 . S
H536 C523 0.931 . S
H537 C524 0.929 . S
H538 C532 0.929 . S
H539 C533 0.930 . S
Mn540 O545 2.095 . S
Mn540 O555 2.162 1_655 S
Mn540 O556 2.297 . S
Mn540 O564 2.385 . S
Mn540 O565 2.209 . S
Mn540 O566 2.094 . S
Mn541 O546 2.121 . S
Mn541 N548 2.257 . S
Mn541 N557 2.282 . S
Mn541 O565 2.215 . S
Mn541 O567 2.117 . S
C542 O564 1.234 . S
C542 O565 1.283 . S
C543 O555 1.291 . S
C543 O556 1.215 1_455 S
C544 O566 1.240 . S
C544 O567 1.264 . S
O545 Mn540 2.095 . S
O545 C554 1.250 . S
O546 Mn541 2.121 . S
O546 C554 1.258 . S
C547 N548 1.326 . S
C547 C551 1.460 . S
C547 H553 0.929 . S
N548 Mn541 2.257 . S
N548 C547 1.326 . S
N548 C552 1.362 . S
C549 C550 1.258 . S
C549 C552 1.431 . S
C549 C569 1.449 . S
C550 C549 1.258 . S
C550 C551 1.477 . S
C550 H570 0.931 . S
C551 C547 1.460 . S
C551 C550 1.477 . S
C551 H571 0.930 . S
C552 N548 1.362 . S
C552 C549 1.431 . S
C552 C562 1.476 . S
H553 C547 0.929 . S
C554 O545 1.250 . S
C554 O546 1.258 . S
O555 Mn540 2.162 1_455 S
O555 C543 1.291 . S
O556 Mn540 2.297 . S
O556 C543 1.215 1_655 S
N557 Mn541 2.282 . S
N557 C558 1.328 . S
N557 C562 1.318 . S
C558 N557 1.328 . S
C558 C559 1.457 . S
C558 H563 0.929 . S
C559 C558 1.457 . S
C559 C560 1.291 . S
C559 H572 0.931 . S
C560 C559 1.291 . S
C560 C561 1.373 . S
C560 H573 0.929 . S
C561 C560 1.373 . S
C561 C562 1.396 . S
C561 C568 1.403 . S
C562 C552 1.476 . S
C562 N557 1.318 . S
C562 C561 1.396 . S
H563 C558 0.929 . S
O564 Mn540 2.385 . S
O564 C542 1.234 . S
O565 Mn540 2.209 . S
O565 Mn541 2.215 . S
O565 C542 1.283 . S
O566 Mn540 2.094 . S
O566 C544 1.240 . S
O567 Mn541 2.117 . S
O567 C544 1.264 . S
C568 C561 1.403 . S
C568 C569 1.399 . S
C568 H574 0.929 . S
C569 C549 1.449 . S
C569 C568 1.399 . S
C569 H575 0.930 . S
H570 C550 0.931 . S
H571 C551 0.930 . S
H572 C559 0.931 . S
H573 C560 0.929 . S
H574 C568 0.929 . S
H575 C569 0.930 . S
Mn576 O581 2.095 . S
Mn576 O591 2.162 . S
Mn576 O592 2.297 . S
Mn576 O600 2.385 . S
Mn576 O601 2.209 . S
Mn576 O602 2.094 . S
Mn577 O582 2.121 . S
Mn577 N584 2.257 . S
Mn577 N593 2.282 . S
Mn577 O601 2.215 . S
Mn577 O603 2.117 . S
C578 O600 1.234 . S
C578 O601 1.283 . S
C579 O591 1.281 . S
C579 O592 1.236 . S
C580 O602 1.240 . S
C580 O603 1.264 . S
O581 Mn576 2.095 . S
O581 C590 1.250 . S
O582 Mn577 2.121 . S
O582 C590 1.258 . S
C583 N584 1.326 . S
C583 C587 1.460 . S
C583 H589 0.929 . S
N584 Mn577 2.257 . S
N584 C583 1.326 . S
N584 C588 1.362 . S
C585 C586 1.258 . S
C585 C588 1.431 . S
C585 C605 1.449 . S
C586 C585 1.258 . S
C586 C587 1.477 . S
C586 H606 0.931 . S
C587 C583 1.460 . S
C587 C586 1.477 . S
C587 H607 0.930 . S
C588 N584 1.362 . S
C588 C585 1.431 . S
C588 C598 1.476 . S
H589 C583 0.929 . S
C590 O581 1.250 . S
C590 O582 1.258 . S
O591 Mn576 2.162 . S
O591 C579 1.281 . S
O592 Mn576 2.297 . S
O592 C579 1.236 . S
N593 Mn577 2.282 . S
N593 C594 1.328 . S
N593 C598 1.318 . S
C594 N593 1.328 . S
C594 C595 1.457 . S
C594 H599 0.929 . S
C595 C594 1.457 . S
C595 C596 1.291 . S
C595 H608 0.931 . S
C596 C595 1.291 . S
C596 C597 1.373 . S
C596 H609 0.929 . S
C597 C596 1.373 . S
C597 C598 1.396 . S
C597 C604 1.403 . S
C598 C588 1.476 . S
C598 N593 1.318 . S
C598 C597 1.396 . S
H599 C594 0.929 . S
O600 Mn576 2.385 . S
O600 C578 1.234 . S
O601 Mn576 2.209 . S
O601 Mn577 2.215 . S
O601 C578 1.283 . S
O602 Mn576 2.094 . S
O602 C580 1.240 . S
O603 Mn577 2.117 . S
O603 C580 1.264 . S
C604 C597 1.403 . S
C604 C605 1.399 . S
C604 H610 0.929 . S
C605 C585 1.449 . S
C605 C604 1.399 . S
C605 H611 0.930 . S
H606 C586 0.931 . S
H607 C587 0.930 . S
H608 C595 0.931 . S
H609 C596 0.929 . S
H610 C604 0.929 . S
H611 C605 0.930 . S
Mn612 O617 2.095 . S
Mn612 O627 2.162 . S
Mn612 O628 2.297 . S
Mn612 O636 2.385 . S
Mn612 O637 2.209 . S
Mn612 O638 2.094 . S
Mn613 O618 2.121 . S
Mn613 N620 2.257 . S
Mn613 N629 2.282 . S
Mn613 O637 2.215 . S
Mn613 O639 2.117 . S
C614 O636 1.234 . S
C614 O637 1.283 . S
C615 O627 1.281 . S
C615 O628 1.236 . S
C616 O638 1.240 . S
C616 O639 1.264 . S
O617 Mn612 2.095 . S
O617 C626 1.250 . S
O618 Mn613 2.121 . S
O618 C626 1.258 . S
C619 N620 1.326 . S
C619 C623 1.460 . S
C619 H625 0.929 . S
N620 Mn613 2.257 . S
N620 C619 1.326 . S
N620 C624 1.362 . S
C621 C622 1.258 . S
C621 C624 1.431 . S
C621 C641 1.449 . S
C622 C621 1.258 . S
C622 C623 1.477 . S
C622 H642 0.931 . S
C623 C619 1.460 . S
C623 C622 1.477 . S
C623 H643 0.930 . S
C624 N620 1.362 . S
C624 C621 1.431 . S
C624 C634 1.476 . S
H625 C619 0.929 . S
C626 O617 1.250 . S
C626 O618 1.258 . S
O627 Mn612 2.162 . S
O627 C615 1.281 . S
O628 Mn612 2.297 . S
O628 C615 1.236 . S
N629 Mn613 2.282 . S
N629 C630 1.328 . S
N629 C634 1.318 . S
C630 N629 1.328 . S
C630 C631 1.457 . S
C630 H635 0.929 . S
C631 C630 1.457 . S
C631 C632 1.291 . S
C631 H644 0.931 . S
C632 C631 1.291 . S
C632 C633 1.373 . S
C632 H645 0.929 . S
C633 C632 1.373 . S
C633 C634 1.396 . S
C633 C640 1.403 . S
C634 C624 1.476 . S
C634 N629 1.318 . S
C634 C633 1.396 . S
H635 C630 0.929 . S
O636 Mn612 2.385 . S
O636 C614 1.234 . S
O637 Mn612 2.209 . S
O637 Mn613 2.215 . S
O637 C614 1.283 . S
O638 Mn612 2.094 . S
O638 C616 1.240 . S
O639 Mn613 2.117 . S
O639 C616 1.264 . S
C640 C633 1.403 . S
C640 C641 1.399 . S
C640 H646 0.929 . S
C641 C621 1.449 . S
C641 C640 1.399 . S
C641 H647 0.930 . S
H642 C622 0.931 . S
H643 C623 0.930 . S
H644 C631 0.931 . S
H645 C632 0.929 . S
H646 C640 0.929 . S
H647 C641 0.930 . S
Mn648 O653 2.095 . S
Mn648 O663 2.162 . S
Mn648 O664 2.297 . S
Mn648 O672 2.385 . S
Mn648 O673 2.209 . S
Mn648 O674 2.094 . S
Mn649 O654 2.121 . S
Mn649 N656 2.257 . S
Mn649 N665 2.282 . S
Mn649 O673 2.215 . S
Mn649 O675 2.117 . S
C650 O672 1.234 . S
C650 O673 1.283 . S
C651 O663 1.281 . S
C651 O664 1.236 . S
C652 O674 1.240 . S
C652 O675 1.264 . S
O653 Mn648 2.095 . S
O653 C662 1.250 . S
O654 Mn649 2.121 . S
O654 C662 1.258 . S
C655 N656 1.326 . S
C655 C659 1.460 . S
C655 H661 0.929 . S
N656 Mn649 2.257 . S
N656 C655 1.326 . S
N656 C660 1.362 . S
C657 C658 1.258 . S
C657 C660 1.431 . S
C657 C677 1.449 . S
C658 C657 1.258 . S
C658 C659 1.477 . S
C658 H678 0.931 . S
C659 C655 1.460 . S
C659 C658 1.477 . S
C659 H679 0.930 . S
C660 N656 1.362 . S
C660 C657 1.431 . S
C660 C670 1.476 . S
H661 C655 0.929 . S
C662 O653 1.250 . S
C662 O654 1.258 . S
O663 Mn648 2.162 . S
O663 C651 1.281 . S
O664 Mn648 2.297 . S
O664 C651 1.236 . S
N665 Mn649 2.282 . S
N665 C666 1.328 . S
N665 C670 1.318 . S
C666 N665 1.328 . S
C666 C667 1.457 . S
C666 H671 0.929 . S
C667 C666 1.457 . S
C667 C668 1.291 . S
C667 H680 0.931 . S
C668 C667 1.291 . S
C668 C669 1.373 . S
C668 H681 0.929 . S
C669 C668 1.373 . S
C669 C670 1.396 . S
C669 C676 1.403 . S
C670 C660 1.476 . S
C670 N665 1.318 . S
C670 C669 1.396 . S
H671 C666 0.929 . S
O672 Mn648 2.385 . S
O672 C650 1.234 . S
O673 Mn648 2.209 . S
O673 Mn649 2.215 . S
O673 C650 1.283 . S
O674 Mn648 2.094 . S
O674 C652 1.240 . S
O675 Mn649 2.117 . S
O675 C652 1.264 . S
C676 C669 1.403 . S
C676 C677 1.399 . S
C676 H682 0.929 . S
C677 C657 1.449 . S
C677 C676 1.399 . S
C677 H683 0.930 . S
H678 C658 0.931 . S
H679 C659 0.930 . S
H680 C667 0.931 . S
H681 C668 0.929 . S
H682 C676 0.929 . S
H683 C677 0.930 . S
Mn684 O689 2.095 . S
Mn684 O699 2.162 1_655 S
Mn684 O700 2.297 . S
Mn684 O708 2.385 . S
Mn684 O709 2.209 . S
Mn684 O710 2.094 . S
Mn685 O690 2.121 . S
Mn685 N692 2.257 . S
Mn685 N701 2.282 . S
Mn685 O709 2.215 . S
Mn685 O711 2.117 . S
C686 O708 1.234 . S
C686 O709 1.283 . S
C687 O699 1.288 . S
C687 O700 1.226 1_455 S
C688 O710 1.240 . S
C688 O711 1.264 . S
O689 Mn684 2.095 . S
O689 C698 1.250 . S
O690 Mn685 2.121 . S
O690 C698 1.258 . S
C691 N692 1.326 . S
C691 C695 1.460 . S
C691 H697 0.929 . S
N692 Mn685 2.257 . S
N692 C691 1.326 . S
N692 C696 1.362 . S
C693 C694 1.258 . S
C693 C696 1.431 . S
C693 C713 1.449 . S
C694 C693 1.258 . S
C694 C695 1.477 . S
C694 H714 0.931 . S
C695 C691 1.460 . S
C695 C694 1.477 . S
C695 H715 0.930 . S
C696 N692 1.362 . S
C696 C693 1.431 . S
C696 C706 1.476 . S
H697 C691 0.929 . S
C698 O689 1.250 . S
C698 O690 1.258 . S
O699 Mn684 2.162 1_455 S
O699 C687 1.288 . S
O700 Mn684 2.297 . S
O700 C687 1.226 1_655 S
N701 Mn685 2.282 . S
N701 C702 1.328 . S
N701 C706 1.318 . S
C702 N701 1.328 . S
C702 C703 1.457 . S
C702 H707 0.929 . S
C703 C702 1.457 . S
C703 C704 1.291 . S
C703 H716 0.931 . S
C704 C703 1.291 . S
C704 C705 1.373 . S
C704 H717 0.929 . S
C705 C704 1.373 . S
C705 C706 1.396 . S
C705 C712 1.403 . S
C706 C696 1.476 . S
C706 N701 1.318 . S
C706 C705 1.396 . S
H707 C702 0.929 . S
O708 Mn684 2.385 . S
O708 C686 1.234 . S
O709 Mn684 2.209 . S
O709 Mn685 2.215 . S
O709 C686 1.283 . S
O710 Mn684 2.094 . S
O710 C688 1.240 . S
O711 Mn685 2.117 . S
O711 C688 1.264 . S
C712 C705 1.403 . S
C712 C713 1.399 . S
C712 H718 0.929 . S
C713 C693 1.449 . S
C713 C712 1.399 . S
C713 H719 0.930 . S
H714 C694 0.931 . S
H715 C695 0.930 . S
H716 C703 0.931 . S
H717 C704 0.929 . S
H718 C712 0.929 . S
H719 C713 0.930 . S
Mn720 O725 2.095 . S
Mn720 O735 2.162 . S
Mn720 O736 2.297 . S
Mn720 O744 2.385 . S
Mn720 O745 2.209 . S
Mn720 O746 2.094 . S
Mn721 O726 2.121 . S
Mn721 N728 2.257 . S
Mn721 N737 2.282 . S
Mn721 O745 2.215 . S
Mn721 O747 2.117 . S
C722 O744 1.234 . S
C722 O745 1.283 . S
C723 O735 1.281 . S
C723 O736 1.236 . S
C724 O746 1.240 . S
C724 O747 1.264 . S
O725 Mn720 2.095 . S
O725 C734 1.250 . S
O726 Mn721 2.121 . S
O726 C734 1.258 . S
C727 N728 1.326 . S
C727 C731 1.460 . S
C727 H733 0.929 . S
N728 Mn721 2.257 . S
N728 C727 1.326 . S
N728 C732 1.362 . S
C729 C730 1.258 . S
C729 C732 1.431 . S
C729 C749 1.449 . S
C730 C729 1.258 . S
C730 C731 1.477 . S
C730 H750 0.931 . S
C731 C727 1.460 . S
C731 C730 1.477 . S
C731 H751 0.930 . S
C732 N728 1.362 . S
C732 C729 1.431 . S
C732 C742 1.476 . S
H733 C727 0.929 . S
C734 O725 1.250 . S
C734 O726 1.258 . S
O735 Mn720 2.162 . S
O735 C723 1.281 . S
O736 Mn720 2.297 . S
O736 C723 1.236 . S
N737 Mn721 2.282 . S
N737 C738 1.328 . S
N737 C742 1.318 . S
C738 N737 1.328 . S
C738 C739 1.457 . S
C738 H743 0.929 . S
C739 C738 1.457 . S
C739 C740 1.291 . S
C739 H752 0.931 . S
C740 C739 1.291 . S
C740 C741 1.373 . S
C740 H753 0.929 . S
C741 C740 1.373 . S
C741 C742 1.396 . S
C741 C748 1.403 . S
C742 C732 1.476 . S
C742 N737 1.318 . S
C742 C741 1.396 . S
H743 C738 0.929 . S
O744 Mn720 2.385 . S
O744 C722 1.234 . S
O745 Mn720 2.209 . S
O745 Mn721 2.215 . S
O745 C722 1.283 . S
O746 Mn720 2.094 . S
O746 C724 1.240 . S
O747 Mn721 2.117 . S
O747 C724 1.264 . S
C748 C741 1.403 . S
C748 C749 1.399 . S
C748 H754 0.929 . S
C749 C729 1.449 . S
C749 C748 1.399 . S
C749 H755 0.930 . S
H750 C730 0.931 . S
H751 C731 0.930 . S
H752 C739 0.931 . S
H753 C740 0.929 . S
H754 C748 0.929 . S
H755 C749 0.930 . S
Mn756 O761 2.095 . S
Mn756 O771 2.162 . S
Mn756 O772 2.297 . S
Mn756 O780 2.385 . S
Mn756 O781 2.209 . S
Mn756 O782 2.094 . S
Mn757 O762 2.121 . S
Mn757 N764 2.257 . S
Mn757 N773 2.282 . S
Mn757 O781 2.215 . S
Mn757 O783 2.117 . S
C758 O780 1.234 . S
C758 O781 1.283 . S
C759 O771 1.281 . S
C759 O772 1.236 . S
C760 O782 1.240 . S
C760 O783 1.264 . S
O761 Mn756 2.095 . S
O761 C770 1.250 . S
O762 Mn757 2.121 . S
O762 C770 1.258 . S
C763 N764 1.326 . S
C763 C767 1.460 . S
C763 H769 0.929 . S
N764 Mn757 2.257 . S
N764 C763 1.326 . S
N764 C768 1.362 . S
C765 C766 1.258 . S
C765 C768 1.431 . S
C765 C785 1.449 . S
C766 C765 1.258 . S
C766 C767 1.477 . S
C766 H786 0.931 . S
C767 C763 1.460 . S
C767 C766 1.477 . S
C767 H787 0.930 . S
C768 N764 1.362 . S
C768 C765 1.431 . S
C768 C778 1.476 . S
H769 C763 0.929 . S
C770 O761 1.250 . S
C770 O762 1.258 . S
O771 Mn756 2.162 . S
O771 C759 1.281 . S
O772 Mn756 2.297 . S
O772 C759 1.236 . S
N773 Mn757 2.282 . S
N773 C774 1.328 . S
N773 C778 1.318 . S
C774 N773 1.328 . S
C774 C775 1.457 . S
C774 H779 0.929 . S
C775 C774 1.457 . S
C775 C776 1.291 . S
C775 H788 0.931 . S
C776 C775 1.291 . S
C776 C777 1.373 . S
C776 H789 0.929 . S
C777 C776 1.373 . S
C777 C778 1.396 . S
C777 C784 1.403 . S
C778 C768 1.476 . S
C778 N773 1.318 . S
C778 C777 1.396 . S
H779 C774 0.929 . S
O780 Mn756 2.385 . S
O780 C758 1.234 . S
O781 Mn756 2.209 . S
O781 Mn757 2.215 . S
O781 C758 1.283 . S
O782 Mn756 2.094 . S
O782 C760 1.240 . S
O783 Mn757 2.117 . S
O783 C760 1.264 . S
C784 C777 1.403 . S
C784 C785 1.399 . S
C784 H790 0.929 . S
C785 C765 1.449 . S
C785 C784 1.399 . S
C785 H791 0.930 . S
H786 C766 0.931 . S
H787 C767 0.930 . S
H788 C775 0.931 . S
H789 C776 0.929 . S
H790 C784 0.929 . S
H791 C785 0.930 . S
Mn792 O797 2.095 . S
Mn792 O807 2.162 . S
Mn792 O808 2.297 . S
Mn792 O816 2.385 . S
Mn792 O817 2.209 . S
Mn792 O818 2.094 . S
Mn793 O798 2.121 . S
Mn793 N800 2.257 . S
Mn793 N809 2.282 . S
Mn793 O817 2.215 . S
Mn793 O819 2.117 . S
C794 O816 1.234 . S
C794 O817 1.283 . S
C795 O807 1.281 . S
C795 O808 1.236 . S
C796 O818 1.240 . S
C796 O819 1.264 . S
O797 Mn792 2.095 . S
O797 C806 1.250 . S
O798 Mn793 2.121 . S
O798 C806 1.258 . S
C799 N800 1.326 . S
C799 C803 1.460 . S
C799 H805 0.929 . S
N800 Mn793 2.257 . S
N800 C799 1.326 . S
N800 C804 1.362 . S
C801 C802 1.258 . S
C801 C804 1.431 . S
C801 C821 1.449 . S
C802 C801 1.258 . S
C802 C803 1.477 . S
C802 H822 0.931 . S
C803 C799 1.460 . S
C803 C802 1.477 . S
C803 H823 0.930 . S
C804 N800 1.362 . S
C804 C801 1.431 . S
C804 C814 1.476 . S
H805 C799 0.929 . S
C806 O797 1.250 . S
C806 O798 1.258 . S
O807 Mn792 2.162 . S
O807 C795 1.281 . S
O808 Mn792 2.297 . S
O808 C795 1.236 . S
N809 Mn793 2.282 . S
N809 C810 1.328 . S
N809 C814 1.318 . S
C810 N809 1.328 . S
C810 C811 1.457 . S
C810 H815 0.929 . S
C811 C810 1.457 . S
C811 C812 1.291 . S
C811 H824 0.931 . S
C812 C811 1.291 . S
C812 C813 1.373 . S
C812 H825 0.929 . S
C813 C812 1.373 . S
C813 C814 1.396 . S
C813 C820 1.403 . S
C814 C804 1.476 . S
C814 N809 1.318 . S
C814 C813 1.396 . S
H815 C810 0.929 . S
O816 Mn792 2.385 . S
O816 C794 1.234 . S
O817 Mn792 2.209 . S
O817 Mn793 2.215 . S
O817 C794 1.283 . S
O818 Mn792 2.094 . S
O818 C796 1.240 . S
O819 Mn793 2.117 . S
O819 C796 1.264 . S
C820 C813 1.403 . S
C820 C821 1.399 . S
C820 H826 0.929 . S
C821 C801 1.449 . S
C821 C820 1.399 . S
C821 H827 0.930 . S
H822 C802 0.931 . S
H823 C803 0.930 . S
H824 C811 0.931 . S
H825 C812 0.929 . S
H826 C820 0.929 . S
H827 C821 0.930 . S
Mn828 O833 2.095 . S
Mn828 O843 2.162 1_655 S
Mn828 O844 2.297 . S
Mn828 O852 2.385 1_655 S
Mn828 O853 2.209 . S
Mn828 O854 2.094 . S
Mn829 O834 2.121 . S
Mn829 N836 2.257 . S
Mn829 N845 2.282 . S
Mn829 O853 2.215 . S
Mn829 O855 2.117 . S
C830 O852 1.234 1_655 S
C830 O853 1.283 . S
C831 O843 1.281 . S
C831 O844 1.236 1_455 S
C832 O854 1.240 . S
C832 O855 1.264 . S
O833 Mn828 2.095 . S
O833 C842 1.250 . S
O834 Mn829 2.121 . S
O834 C842 1.258 . S
C835 N836 1.326 . S
C835 C839 1.460 . S
C835 H841 0.929 . S
N836 Mn829 2.257 . S
N836 C835 1.326 . S
N836 C840 1.362 . S
C837 C838 1.258 . S
C837 C840 1.431 . S
C837 C857 1.449 . S
C838 C837 1.258 . S
C838 C839 1.477 . S
C838 H858 0.931 . S
C839 C835 1.460 . S
C839 C838 1.477 . S
C839 H859 0.930 . S
C840 N836 1.362 . S
C840 C837 1.431 . S
C840 C850 1.476 . S
H841 C835 0.929 . S
C842 O833 1.250 . S
C842 O834 1.258 . S
O843 Mn828 2.162 1_455 S
O843 C831 1.281 . S
O844 Mn828 2.297 . S
O844 C831 1.236 1_655 S
N845 Mn829 2.282 . S
N845 C846 1.328 . S
N845 C850 1.318 . S
C846 N845 1.328 . S
C846 C847 1.457 . S
C846 H851 0.929 . S
C847 C846 1.457 . S
C847 C848 1.291 . S
C847 H860 0.931 . S
C848 C847 1.291 . S
C848 C849 1.373 . S
C848 H861 0.929 . S
C849 C848 1.373 . S
C849 C850 1.396 . S
C849 C856 1.403 . S
C850 C840 1.476 . S
C850 N845 1.318 . S
C850 C849 1.396 . S
H851 C846 0.929 . S
O852 Mn828 2.385 1_455 S
O852 C830 1.234 1_455 S
O853 Mn828 2.209 . S
O853 Mn829 2.215 . S
O853 C830 1.283 . S
O854 Mn828 2.094 . S
O854 C832 1.240 . S
O855 Mn829 2.117 . S
O855 C832 1.264 . S
C856 C849 1.403 . S
C856 C857 1.399 . S
C856 H862 0.929 . S
C857 C837 1.449 . S
C857 C856 1.399 . S
C857 H863 0.930 . S
H858 C838 0.931 . S
H859 C839 0.930 . S
H860 C847 0.931 . S
H861 C848 0.929 . S
H862 C856 0.929 . S
H863 C857 0.930 . S
Mn864 O869 2.095 . S
Mn864 O879 2.162 1_565 S
Mn864 O880 2.297 . S
Mn864 O888 2.385 . S
Mn864 O889 2.209 . S
Mn864 O890 2.094 . S
Mn865 O870 2.121 . S
Mn865 N872 2.257 . S
Mn865 N881 2.282 . S
Mn865 O889 2.215 . S
Mn865 O891 2.117 . S
C866 O888 1.234 . S
C866 O889 1.283 . S
C867 O879 1.291 . S
C867 O880 1.215 1_545 S
C868 O890 1.240 . S
C868 O891 1.264 . S
O869 Mn864 2.095 . S
O869 C878 1.250 . S
O870 Mn865 2.121 . S
O870 C878 1.258 . S
C871 N872 1.326 . S
C871 C875 1.460 . S
C871 H877 0.929 . S
N872 Mn865 2.257 . S
N872 C871 1.326 . S
N872 C876 1.362 . S
C873 C874 1.258 . S
C873 C876 1.431 . S
C873 C893 1.449 . S
C874 C873 1.258 . S
C874 C875 1.477 . S
C874 H894 0.931 . S
C875 C871 1.460 . S
C875 C874 1.477 . S
C875 H895 0.930 . S
C876 N872 1.362 . S
C876 C873 1.431 . S
C876 C886 1.476 . S
H877 C871 0.929 . S
C878 O869 1.250 . S
C878 O870 1.258 . S
O879 Mn864 2.162 1_545 S
O879 C867 1.291 . S
O880 Mn864 2.297 . S
O880 C867 1.215 1_565 S
N881 Mn865 2.282 . S
N881 C882 1.328 . S
N881 C886 1.318 . S
C882 N881 1.328 . S
C882 C883 1.457 . S
C882 H887 0.929 . S
C883 C882 1.457 . S
C883 C884 1.291 . S
C883 H896 0.931 . S
C884 C883 1.291 . S
C884 C885 1.373 . S
C884 H897 0.929 . S
C885 C884 1.373 . S
C885 C886 1.396 . S
C885 C892 1.403 . S
C886 C876 1.476 . S
C886 N881 1.318 . S
C886 C885 1.396 . S
H887 C882 0.929 . S
O888 Mn864 2.385 . S
O888 C866 1.234 . S
O889 Mn864 2.209 . S
O889 Mn865 2.215 . S
O889 C866 1.283 . S
O890 Mn864 2.094 . S
O890 C868 1.240 . S
O891 Mn865 2.117 . S
O891 C868 1.264 . S
C892 C885 1.403 . S
C892 C893 1.399 . S
C892 H898 0.929 . S
C893 C873 1.449 . S
C893 C892 1.399 . S
C893 H899 0.930 . S
H894 C874 0.931 . S
H895 C875 0.930 . S
H896 C883 0.931 . S
H897 C884 0.929 . S
H898 C892 0.929 . S
H899 C893 0.930 . S
Mn900 O905 2.095 . S
Mn900 O915 2.162 . S
Mn900 O916 2.297 . S
Mn900 O924 2.385 . S
Mn900 O925 2.209 . S
Mn900 O926 2.094 . S
Mn901 O906 2.121 . S
Mn901 N908 2.257 . S
Mn901 N917 2.282 . S
Mn901 O925 2.215 . S
Mn901 O927 2.117 . S
C902 O924 1.234 . S
C902 O925 1.283 . S
C903 O915 1.281 . S
C903 O916 1.236 . S
C904 O926 1.240 . S
C904 O927 1.264 . S
O905 Mn900 2.095 . S
O905 C914 1.250 . S
O906 Mn901 2.121 . S
O906 C914 1.258 . S
C907 N908 1.326 . S
C907 C911 1.460 . S
C907 H913 0.929 . S
N908 Mn901 2.257 . S
N908 C907 1.326 . S
N908 C912 1.362 . S
C909 C910 1.258 . S
C909 C912 1.431 . S
C909 C929 1.449 . S
C910 C909 1.258 . S
C910 C911 1.477 . S
C910 H930 0.931 . S
C911 C907 1.460 . S
C911 C910 1.477 . S
C911 H931 0.930 . S
C912 N908 1.362 . S
C912 C909 1.431 . S
C912 C922 1.476 . S
H913 C907 0.929 . S
C914 O905 1.250 . S
C914 O906 1.258 . S
O915 Mn900 2.162 . S
O915 C903 1.281 . S
O916 Mn900 2.297 . S
O916 C903 1.236 . S
N917 Mn901 2.282 . S
N917 C918 1.328 . S
N917 C922 1.318 . S
C918 N917 1.328 . S
C918 C919 1.457 . S
C918 H923 0.929 . S
C919 C918 1.457 . S
C919 C920 1.291 . S
C919 H932 0.931 . S
C920 C919 1.291 . S
C920 C921 1.373 . S
C920 H933 0.929 . S
C921 C920 1.373 . S
C921 C922 1.396 . S
C921 C928 1.403 . S
C922 C912 1.476 . S
C922 N917 1.318 . S
C922 C921 1.396 . S
H923 C918 0.929 . S
O924 Mn900 2.385 . S
O924 C902 1.234 . S
O925 Mn900 2.209 . S
O925 Mn901 2.215 . S
O925 C902 1.283 . S
O926 Mn900 2.094 . S
O926 C904 1.240 . S
O927 Mn901 2.117 . S
O927 C904 1.264 . S
C928 C921 1.403 . S
C928 C929 1.399 . S
C928 H934 0.929 . S
C929 C909 1.449 . S
C929 C928 1.399 . S
C929 H935 0.930 . S
H930 C910 0.931 . S
H931 C911 0.930 . S
H932 C919 0.931 . S
H933 C920 0.929 . S
H934 C928 0.929 . S
H935 C929 0.930 . S
Mn936 O941 2.095 . S
Mn936 O951 2.162 . S
Mn936 O952 2.297 . S
Mn936 O960 2.385 . S
Mn936 O961 2.209 . S
Mn936 O962 2.094 . S
Mn937 O942 2.121 . S
Mn937 N944 2.257 . S
Mn937 N953 2.282 . S
Mn937 O961 2.215 . S
Mn937 O963 2.117 . S
C938 O960 1.234 . S
C938 O961 1.283 . S
C939 O951 1.281 . S
C939 O952 1.236 . S
C940 O962 1.240 . S
C940 O963 1.264 . S
O941 Mn936 2.095 . S
O941 C950 1.250 . S
O942 Mn937 2.121 . S
O942 C950 1.258 . S
C943 N944 1.326 . S
C943 C947 1.460 . S
C943 H949 0.929 . S
N944 Mn937 2.257 . S
N944 C943 1.326 . S
N944 C948 1.362 . S
C945 C946 1.258 . S
C945 C948 1.431 . S
C945 C965 1.449 . S
C946 C945 1.258 . S
C946 C947 1.477 . S
C946 H966 0.931 . S
C947 C943 1.460 . S
C947 C946 1.477 . S
C947 H967 0.930 . S
C948 N944 1.362 . S
C948 C945 1.431 . S
C948 C958 1.476 . S
H949 C943 0.929 . S
C950 O941 1.250 . S
C950 O942 1.258 . S
O951 Mn936 2.162 . S
O951 C939 1.281 . S
O952 Mn936 2.297 . S
O952 C939 1.236 . S
N953 Mn937 2.282 . S
N953 C954 1.328 . S
N953 C958 1.318 . S
C954 N953 1.328 . S
C954 C955 1.457 . S
C954 H959 0.929 . S
C955 C954 1.457 . S
C955 C956 1.291 . S
C955 H968 0.931 . S
C956 C955 1.291 . S
C956 C957 1.373 . S
C956 H969 0.929 . S
C957 C956 1.373 . S
C957 C958 1.396 . S
C957 C964 1.403 . S
C958 C948 1.476 . S
C958 N953 1.318 . S
C958 C957 1.396 . S
H959 C954 0.929 . S
O960 Mn936 2.385 . S
O960 C938 1.234 . S
O961 Mn936 2.209 . S
O961 Mn937 2.215 . S
O961 C938 1.283 . S
O962 Mn936 2.094 . S
O962 C940 1.240 . S
O963 Mn937 2.117 . S
O963 C940 1.264 . S
C964 C957 1.403 . S
C964 C965 1.399 . S
C964 H970 0.929 . S
C965 C945 1.449 . S
C965 C964 1.399 . S
C965 H971 0.930 . S
H966 C946 0.931 . S
H967 C947 0.930 . S
H968 C955 0.931 . S
H969 C956 0.929 . S
H970 C964 0.929 . S
H971 C965 0.930 . S
Mn972 O977 2.095 . S
Mn972 O987 2.162 . S
Mn972 O988 2.297 . S
Mn972 O996 2.385 . S
Mn972 O997 2.209 . S
Mn972 O998 2.094 . S
Mn973 O978 2.121 . S
Mn973 N980 2.257 . S
Mn973 N989 2.282 . S
Mn973 O997 2.215 . S
Mn973 O999 2.117 . S
C974 O996 1.234 . S
C974 O997 1.283 . S
C975 O987 1.281 . S
C975 O988 1.236 . S
C976 O998 1.240 . S
C976 O999 1.264 . S
O977 Mn972 2.095 . S
O977 C986 1.250 . S
O978 Mn973 2.121 . S
O978 C986 1.258 . S
C979 N980 1.326 . S
C979 C983 1.460 . S
C979 H985 0.929 . S
N980 Mn973 2.257 . S
N980 C979 1.326 . S
N980 C984 1.362 . S
C981 C982 1.258 . S
C981 C984 1.431 . S
C981 C1001 1.449 . S
C982 C981 1.258 . S
C982 C983 1.477 . S
C982 H1002 0.931 . S
C983 C979 1.460 . S
C983 C982 1.477 . S
C983 H1003 0.930 . S
C984 N980 1.362 . S
C984 C981 1.431 . S
C984 C994 1.476 . S
H985 C979 0.929 . S
C986 O977 1.250 . S
C986 O978 1.258 . S
O987 Mn972 2.162 . S
O987 C975 1.281 . S
O988 Mn972 2.297 . S
O988 C975 1.236 . S
N989 Mn973 2.282 . S
N989 C990 1.328 . S
N989 C994 1.318 . S
C990 N989 1.328 . S
C990 C991 1.457 . S
C990 H995 0.929 . S
C991 C990 1.457 . S
C991 C992 1.291 . S
C991 H1004 0.931 . S
C992 C991 1.291 . S
C992 C993 1.373 . S
C992 H1005 0.929 . S
C993 C992 1.373 . S
C993 C994 1.396 . S
C993 C1000 1.403 . S
C994 C984 1.476 . S
C994 N989 1.318 . S
C994 C993 1.396 . S
H995 C990 0.929 . S
O996 Mn972 2.385 . S
O996 C974 1.234 . S
O997 Mn972 2.209 . S
O997 Mn973 2.215 . S
O997 C974 1.283 . S
O998 Mn972 2.094 . S
O998 C976 1.240 . S
O999 Mn973 2.117 . S
O999 C976 1.264 . S
C1000 C993 1.403 . S
C1000 C1001 1.399 . S
C1000 H1006 0.929 . S
C1001 C981 1.449 . S
C1001 C1000 1.399 . S
C1001 H1007 0.930 . S
H1002 C982 0.931 . S
H1003 C983 0.930 . S
H1004 C991 0.931 . S
H1005 C992 0.929 . S
H1006 C1000 0.929 . S
H1007 C1001 0.930 . S
Mn1008 O1013 2.095 . S
Mn1008 O1023 2.162 1_565 S
Mn1008 O1024 2.297 . S
Mn1008 O1032 2.385 1_565 S
Mn1008 O1033 2.209 . S
Mn1008 O1034 2.094 . S
Mn1009 O1014 2.121 . S
Mn1009 N1016 2.257 . S
Mn1009 N1025 2.282 . S
Mn1009 O1033 2.215 . S
Mn1009 O1035 2.117 . S
C1010 O1032 1.234 1_565 S
C1010 O1033 1.283 . S
C1011 O1023 1.281 . S
C1011 O1024 1.236 1_545 S
C1012 O1034 1.240 . S
C1012 O1035 1.264 . S
O1013 Mn1008 2.095 . S
O1013 C1022 1.250 . S
O1014 Mn1009 2.121 . S
O1014 C1022 1.258 . S
C1015 N1016 1.326 . S
C1015 C1019 1.460 . S
C1015 H1021 0.929 . S
N1016 Mn1009 2.257 . S
N1016 C1015 1.326 . S
N1016 C1020 1.362 . S
C1017 C1018 1.258 . S
C1017 C1020 1.431 . S
C1017 C1037 1.449 . S
C1018 C1017 1.258 . S
C1018 C1019 1.477 . S
C1018 H1038 0.931 . S
C1019 C1015 1.460 . S
C1019 C1018 1.477 . S
C1019 H1039 0.930 . S
C1020 N1016 1.362 . S
C1020 C1017 1.431 . S
C1020 C1030 1.476 . S
H1021 C1015 0.929 . S
C1022 O1013 1.250 . S
C1022 O1014 1.258 . S
O1023 Mn1008 2.162 1_545 S
O1023 C1011 1.281 . S
O1024 Mn1008 2.297 . S
O1024 C1011 1.236 1_565 S
N1025 Mn1009 2.282 . S
N1025 C1026 1.328 . S
N1025 C1030 1.318 . S
C1026 N1025 1.328 . S
C1026 C1027 1.457 . S
C1026 H1031 0.929 . S
C1027 C1026 1.457 . S
C1027 C1028 1.291 . S
C1027 H1040 0.931 . S
C1028 C1027 1.291 . S
C1028 C1029 1.373 . S
C1028 H1041 0.929 . S
C1029 C1028 1.373 . S
C1029 C1030 1.396 . S
C1029 C1036 1.403 . S
C1030 C1020 1.476 . S
C1030 N1025 1.318 . S
C1030 C1029 1.396 . S
H1031 C1026 0.929 . S
O1032 Mn1008 2.385 1_545 S
O1032 C1010 1.234 1_545 S
O1033 Mn1008 2.209 . S
O1033 Mn1009 2.215 . S
O1033 C1010 1.283 . S
O1034 Mn1008 2.094 . S
O1034 C1012 1.240 . S
O1035 Mn1009 2.117 . S
O1035 C1012 1.264 . S
C1036 C1029 1.403 . S
C1036 C1037 1.399 . S
C1036 H1042 0.929 . S
C1037 C1017 1.449 . S
C1037 C1036 1.399 . S
C1037 H1043 0.930 . S
H1038 C1018 0.931 . S
H1039 C1019 0.930 . S
H1040 C1027 0.931 . S
H1041 C1028 0.929 . S
H1042 C1036 0.929 . S
H1043 C1037 0.930 . S
Mn1044 O1049 2.095 . S
Mn1044 O1059 2.162 . S
Mn1044 O1060 2.297 . S
Mn1044 O1068 2.385 . S
Mn1044 O1069 2.209 . S
Mn1044 O1070 2.094 . S
Mn1045 O1050 2.121 . S
Mn1045 N1052 2.257 . S
Mn1045 N1061 2.282 . S
Mn1045 O1069 2.215 . S
Mn1045 O1071 2.117 . S
C1046 O1068 1.234 . S
C1046 O1069 1.283 . S
C1047 O1059 1.281 . S
C1047 O1060 1.236 . S
C1048 O1070 1.240 . S
C1048 O1071 1.264 . S
O1049 Mn1044 2.095 . S
O1049 C1058 1.250 . S
O1050 Mn1045 2.121 . S
O1050 C1058 1.258 . S
C1051 N1052 1.326 . S
C1051 C1055 1.460 . S
C1051 H1057 0.929 . S
N1052 Mn1045 2.257 . S
N1052 C1051 1.326 . S
N1052 C1056 1.362 . S
C1053 C1054 1.258 . S
C1053 C1056 1.431 . S
C1053 C1073 1.449 . S
C1054 C1053 1.258 . S
C1054 C1055 1.477 . S
C1054 H1074 0.931 . S
C1055 C1051 1.460 . S
C1055 C1054 1.477 . S
C1055 H1075 0.930 . S
C1056 N1052 1.362 . S
C1056 C1053 1.431 . S
C1056 C1066 1.476 . S
H1057 C1051 0.929 . S
C1058 O1049 1.250 . S
C1058 O1050 1.258 . S
O1059 Mn1044 2.162 . S
O1059 C1047 1.281 . S
O1060 Mn1044 2.297 . S
O1060 C1047 1.236 . S
N1061 Mn1045 2.282 . S
N1061 C1062 1.328 . S
N1061 C1066 1.318 . S
C1062 N1061 1.328 . S
C1062 C1063 1.457 . S
C1062 H1067 0.929 . S
C1063 C1062 1.457 . S
C1063 C1064 1.291 . S
C1063 H1076 0.931 . S
C1064 C1063 1.291 . S
C1064 C1065 1.373 . S
C1064 H1077 0.929 . S
C1065 C1064 1.373 . S
C1065 C1066 1.396 . S
C1065 C1072 1.403 . S
C1066 C1056 1.476 . S
C1066 N1061 1.318 . S
C1066 C1065 1.396 . S
H1067 C1062 0.929 . S
O1068 Mn1044 2.385 . S
O1068 C1046 1.234 . S
O1069 Mn1044 2.209 . S
O1069 Mn1045 2.215 . S
O1069 C1046 1.283 . S
O1070 Mn1044 2.094 . S
O1070 C1048 1.240 . S
O1071 Mn1045 2.117 . S
O1071 C1048 1.264 . S
C1072 C1065 1.403 . S
C1072 C1073 1.399 . S
C1072 H1078 0.929 . S
C1073 C1053 1.449 . S
C1073 C1072 1.399 . S
C1073 H1079 0.930 . S
H1074 C1054 0.931 . S
H1075 C1055 0.930 . S
H1076 C1063 0.931 . S
H1077 C1064 0.929 . S
H1078 C1072 0.929 . S
H1079 C1073 0.930 . S
Mn1080 O1085 2.095 . S
Mn1080 O1095 2.162 . S
Mn1080 O1096 2.297 . S
Mn1080 O1104 2.385 . S
Mn1080 O1105 2.209 . S
Mn1080 O1106 2.094 . S
Mn1081 O1086 2.121 . S
Mn1081 N1088 2.257 . S
Mn1081 N1097 2.282 . S
Mn1081 O1105 2.215 . S
Mn1081 O1107 2.117 . S
C1082 O1104 1.234 . S
C1082 O1105 1.283 . S
C1083 O1095 1.281 . S
C1083 O1096 1.236 . S
C1084 O1106 1.240 . S
C1084 O1107 1.264 . S
O1085 Mn1080 2.095 . S
O1085 C1094 1.250 . S
O1086 Mn1081 2.121 . S
O1086 C1094 1.258 . S
C1087 N1088 1.326 . S
C1087 C1091 1.460 . S
C1087 H1093 0.929 . S
N1088 Mn1081 2.257 . S
N1088 C1087 1.326 . S
N1088 C1092 1.362 . S
C1089 C1090 1.258 . S
C1089 C1092 1.431 . S
C1089 C1109 1.449 . S
C1090 C1089 1.258 . S
C1090 C1091 1.477 . S
C1090 H1110 0.931 . S
C1091 C1087 1.460 . S
C1091 C1090 1.477 . S
C1091 H1111 0.930 . S
C1092 N1088 1.362 . S
C1092 C1089 1.431 . S
C1092 C1102 1.476 . S
H1093 C1087 0.929 . S
C1094 O1085 1.250 . S
C1094 O1086 1.258 . S
O1095 Mn1080 2.162 . S
O1095 C1083 1.281 . S
O1096 Mn1080 2.297 . S
O1096 C1083 1.236 . S
N1097 Mn1081 2.282 . S
N1097 C1098 1.328 . S
N1097 C1102 1.318 . S
C1098 N1097 1.328 . S
C1098 C1099 1.457 . S
C1098 H1103 0.929 . S
C1099 C1098 1.457 . S
C1099 C1100 1.291 . S
C1099 H1112 0.931 . S
C1100 C1099 1.291 . S
C1100 C1101 1.373 . S
C1100 H1113 0.929 . S
C1101 C1100 1.373 . S
C1101 C1102 1.396 . S
C1101 C1108 1.403 . S
C1102 C1092 1.476 . S
C1102 N1097 1.318 . S
C1102 C1101 1.396 . S
H1103 C1098 0.929 . S
O1104 Mn1080 2.385 . S
O1104 C1082 1.234 . S
O1105 Mn1080 2.209 . S
O1105 Mn1081 2.215 . S
O1105 C1082 1.283 . S
O1106 Mn1080 2.094 . S
O1106 C1084 1.240 . S
O1107 Mn1081 2.117 . S
O1107 C1084 1.264 . S
C1108 C1101 1.403 . S
C1108 C1109 1.399 . S
C1108 H1114 0.929 . S
C1109 C1089 1.449 . S
C1109 C1108 1.399 . S
C1109 H1115 0.930 . S
H1110 C1090 0.931 . S
H1111 C1091 0.930 . S
H1112 C1099 0.931 . S
H1113 C1100 0.929 . S
H1114 C1108 0.929 . S
H1115 C1109 0.930 . S
Mn1116 O1121 2.095 . S
Mn1116 O1131 2.162 1_565 S
Mn1116 O1132 2.297 . S
Mn1116 O1140 2.385 1_565 S
Mn1116 O1141 2.209 . S
Mn1116 O1142 2.094 . S
Mn1117 O1122 2.121 . S
Mn1117 N1124 2.257 . S
Mn1117 N1133 2.282 . S
Mn1117 O1141 2.215 . S
Mn1117 O1143 2.117 . S
C1118 O1140 1.234 1_565 S
C1118 O1141 1.283 . S
C1119 O1131 1.281 . S
C1119 O1132 1.236 1_545 S
C1120 O1142 1.240 . S
C1120 O1143 1.264 . S
O1121 Mn1116 2.095 . S
O1121 C1130 1.250 . S
O1122 Mn1117 2.121 . S
O1122 C1130 1.258 . S
C1123 N1124 1.326 . S
C1123 C1127 1.460 . S
C1123 H1129 0.929 . S
N1124 Mn1117 2.257 . S
N1124 C1123 1.326 . S
N1124 C1128 1.362 . S
C1125 C1126 1.258 . S
C1125 C1128 1.431 . S
C1125 C1145 1.449 . S
C1126 C1125 1.258 . S
C1126 C1127 1.477 . S
C1126 H1146 0.931 . S
C1127 C1123 1.460 . S
C1127 C1126 1.477 . S
C1127 H1147 0.930 . S
C1128 N1124 1.362 . S
C1128 C1125 1.431 . S
C1128 C1138 1.476 . S
H1129 C1123 0.929 . S
C1130 O1121 1.250 . S
C1130 O1122 1.258 . S
O1131 Mn1116 2.162 1_545 S
O1131 C1119 1.281 . S
O1132 Mn1116 2.297 . S
O1132 C1119 1.236 1_565 S
N1133 Mn1117 2.282 . S
N1133 C1134 1.328 . S
N1133 C1138 1.318 . S
C1134 N1133 1.328 . S
C1134 C1135 1.457 . S
C1134 H1139 0.929 . S
C1135 C1134 1.457 . S
C1135 C1136 1.291 . S
C1135 H1148 0.931 . S
C1136 C1135 1.291 . S
C1136 C1137 1.373 . S
C1136 H1149 0.929 . S
C1137 C1136 1.373 . S
C1137 C1138 1.396 . S
C1137 C1144 1.403 . S
C1138 C1128 1.476 . S
C1138 N1133 1.318 . S
C1138 C1137 1.396 . S
H1139 C1134 0.929 . S
O1140 Mn1116 2.385 1_545 S
O1140 C1118 1.234 1_545 S
O1141 Mn1116 2.209 . S
O1141 Mn1117 2.215 . S
O1141 C1118 1.283 . S
O1142 Mn1116 2.094 . S
O1142 C1120 1.240 . S
O1143 Mn1117 2.117 . S
O1143 C1120 1.264 . S
C1144 C1137 1.403 . S
C1144 C1145 1.399 . S
C1144 H1150 0.929 . S
C1145 C1125 1.449 . S
C1145 C1144 1.399 . S
C1145 H1151 0.930 . S
H1146 C1126 0.931 . S
H1147 C1127 0.930 . S
H1148 C1135 0.931 . S
H1149 C1136 0.929 . S
H1150 C1144 0.929 . S
H1151 C1145 0.930 . S
Mn1152 O1157 2.095 . S
Mn1152 O1167 2.162 . S
Mn1152 O1168 2.297 . S
Mn1152 O1176 2.385 . S
Mn1152 O1177 2.209 . S
Mn1152 O1178 2.094 . S
Mn1153 O1158 2.121 . S
Mn1153 N1160 2.257 . S
Mn1153 N1169 2.282 . S
Mn1153 O1177 2.215 . S
Mn1153 O1179 2.117 . S
C1154 O1176 1.234 . S
C1154 O1177 1.283 . S
C1155 O1167 1.281 . S
C1155 O1168 1.236 . S
C1156 O1178 1.240 . S
C1156 O1179 1.264 . S
O1157 Mn1152 2.095 . S
O1157 C1166 1.250 . S
O1158 Mn1153 2.121 . S
O1158 C1166 1.258 . S
C1159 N1160 1.326 . S
C1159 C1163 1.460 . S
C1159 H1165 0.929 . S
N1160 Mn1153 2.257 . S
N1160 C1159 1.326 . S
N1160 C1164 1.362 . S
C1161 C1162 1.258 . S
C1161 C1164 1.431 . S
C1161 C1181 1.449 . S
C1162 C1161 1.258 . S
C1162 C1163 1.477 . S
C1162 H1182 0.931 . S
C1163 C1159 1.460 . S
C1163 C1162 1.477 . S
C1163 H1183 0.930 . S
C1164 N1160 1.362 . S
C1164 C1161 1.431 . S
C1164 C1174 1.476 . S
H1165 C1159 0.929 . S
C1166 O1157 1.250 . S
C1166 O1158 1.258 . S
O1167 Mn1152 2.162 . S
O1167 C1155 1.281 . S
O1168 Mn1152 2.297 . S
O1168 C1155 1.236 . S
N1169 Mn1153 2.282 . S
N1169 C1170 1.328 . S
N1169 C1174 1.318 . S
C1170 N1169 1.328 . S
C1170 C1171 1.457 . S
C1170 H1175 0.929 . S
C1171 C1170 1.457 . S
C1171 C1172 1.291 . S
C1171 H1184 0.931 . S
C1172 C1171 1.291 . S
C1172 C1173 1.373 . S
C1172 H1185 0.929 . S
C1173 C1172 1.373 . S
C1173 C1174 1.396 . S
C1173 C1180 1.403 . S
C1174 C1164 1.476 . S
C1174 N1169 1.318 . S
C1174 C1173 1.396 . S
H1175 C1170 0.929 . S
O1176 Mn1152 2.385 . S
O1176 C1154 1.234 . S
O1177 Mn1152 2.209 . S
O1177 Mn1153 2.215 . S
O1177 C1154 1.283 . S
O1178 Mn1152 2.094 . S
O1178 C1156 1.240 . S
O1179 Mn1153 2.117 . S
O1179 C1156 1.264 . S
C1180 C1173 1.403 . S
C1180 C1181 1.399 . S
C1180 H1186 0.929 . S
C1181 C1161 1.449 . S
C1181 C1180 1.399 . S
C1181 H1187 0.930 . S
H1182 C1162 0.931 . S
H1183 C1163 0.930 . S
H1184 C1171 0.931 . S
H1185 C1172 0.929 . S
H1186 C1180 0.929 . S
H1187 C1181 0.930 . S
Mn1188 O1193 2.095 . S
Mn1188 O1203 2.162 . S
Mn1188 O1204 2.297 . S
Mn1188 O1212 2.385 . S
Mn1188 O1213 2.209 . S
Mn1188 O1214 2.094 . S
Mn1189 O1194 2.121 . S
Mn1189 N1196 2.257 . S
Mn1189 N1205 2.282 . S
Mn1189 O1213 2.215 . S
Mn1189 O1215 2.117 . S
C1190 O1212 1.234 . S
C1190 O1213 1.283 . S
C1191 O1203 1.281 . S
C1191 O1204 1.236 . S
C1192 O1214 1.240 . S
C1192 O1215 1.264 . S
O1193 Mn1188 2.095 . S
O1193 C1202 1.250 . S
O1194 Mn1189 2.121 . S
O1194 C1202 1.258 . S
C1195 N1196 1.326 . S
C1195 C1199 1.460 . S
C1195 H1201 0.929 . S
N1196 Mn1189 2.257 . S
N1196 C1195 1.326 . S
N1196 C1200 1.362 . S
C1197 C1198 1.258 . S
C1197 C1200 1.431 . S
C1197 C1217 1.449 . S
C1198 C1197 1.258 . S
C1198 C1199 1.477 . S
C1198 H1218 0.931 . S
C1199 C1195 1.460 . S
C1199 C1198 1.477 . S
C1199 H1219 0.930 . S
C1200 N1196 1.362 . S
C1200 C1197 1.431 . S
C1200 C1210 1.476 . S
H1201 C1195 0.929 . S
C1202 O1193 1.250 . S
C1202 O1194 1.258 . S
O1203 Mn1188 2.162 . S
O1203 C1191 1.281 . S
O1204 Mn1188 2.297 . S
O1204 C1191 1.236 . S
N1205 Mn1189 2.282 . S
N1205 C1206 1.328 . S
N1205 C1210 1.318 . S
C1206 N1205 1.328 . S
C1206 C1207 1.457 . S
C1206 H1211 0.929 . S
C1207 C1206 1.457 . S
C1207 C1208 1.291 . S
C1207 H1220 0.931 . S
C1208 C1207 1.291 . S
C1208 C1209 1.373 . S
C1208 H1221 0.929 . S
C1209 C1208 1.373 . S
C1209 C1210 1.396 . S
C1209 C1216 1.403 . S
C1210 C1200 1.476 . S
C1210 N1205 1.318 . S
C1210 C1209 1.396 . S
H1211 C1206 0.929 . S
O1212 Mn1188 2.385 . S
O1212 C1190 1.234 . S
O1213 Mn1188 2.209 . S
O1213 Mn1189 2.215 . S
O1213 C1190 1.283 . S
O1214 Mn1188 2.094 . S
O1214 C1192 1.240 . S
O1215 Mn1189 2.117 . S
O1215 C1192 1.264 . S
C1216 C1209 1.403 . S
C1216 C1217 1.399 . S
C1216 H1222 0.929 . S
C1217 C1197 1.449 . S
C1217 C1216 1.399 . S
C1217 H1223 0.930 . S
H1218 C1198 0.931 . S
H1219 C1199 0.930 . S
H1220 C1207 0.931 . S
H1221 C1208 0.929 . S
H1222 C1216 0.929 . S
H1223 C1217 0.930 . S
Mn1224 O1229 2.095 . S
Mn1224 O1239 2.162 . S
Mn1224 O1240 2.297 . S
Mn1224 O1248 2.385 . S
Mn1224 O1249 2.209 . S
Mn1224 O1250 2.094 . S
Mn1225 O1230 2.121 . S
Mn1225 N1232 2.257 . S
Mn1225 N1241 2.282 . S
Mn1225 O1249 2.215 . S
Mn1225 O1251 2.117 . S
C1226 O1248 1.234 . S
C1226 O1249 1.283 . S
C1227 O1239 1.281 . S
C1227 O1240 1.236 . S
C1228 O1250 1.240 . S
C1228 O1251 1.264 . S
O1229 Mn1224 2.095 . S
O1229 C1238 1.250 . S
O1230 Mn1225 2.121 . S
O1230 C1238 1.258 . S
C1231 N1232 1.326 . S
C1231 C1235 1.460 . S
C1231 H1237 0.929 . S
N1232 Mn1225 2.257 . S
N1232 C1231 1.326 . S
N1232 C1236 1.362 . S
C1233 C1234 1.258 . S
C1233 C1236 1.431 . S
C1233 C1253 1.449 . S
C1234 C1233 1.258 . S
C1234 C1235 1.477 . S
C1234 H1254 0.931 . S
C1235 C1231 1.460 . S
C1235 C1234 1.477 . S
C1235 H1255 0.930 . S
C1236 N1232 1.362 . S
C1236 C1233 1.431 . S
C1236 C1246 1.476 . S
H1237 C1231 0.929 . S
C1238 O1229 1.250 . S
C1238 O1230 1.258 . S
O1239 Mn1224 2.162 . S
O1239 C1227 1.281 . S
O1240 Mn1224 2.297 . S
O1240 C1227 1.236 . S
N1241 Mn1225 2.282 . S
N1241 C1242 1.328 . S
N1241 C1246 1.318 . S
C1242 N1241 1.328 . S
C1242 C1243 1.457 . S
C1242 H1247 0.929 . S
C1243 C1242 1.457 . S
C1243 C1244 1.291 . S
C1243 H1256 0.931 . S
C1244 C1243 1.291 . S
C1244 C1245 1.373 . S
C1244 H1257 0.929 . S
C1245 C1244 1.373 . S
C1245 C1246 1.396 . S
C1245 C1252 1.403 . S
C1246 C1236 1.476 . S
C1246 N1241 1.318 . S
C1246 C1245 1.396 . S
H1247 C1242 0.929 . S
O1248 Mn1224 2.385 . S
O1248 C1226 1.234 . S
O1249 Mn1224 2.209 . S
O1249 Mn1225 2.215 . S
O1249 C1226 1.283 . S
O1250 Mn1224 2.094 . S
O1250 C1228 1.240 . S
O1251 Mn1225 2.117 . S
O1251 C1228 1.264 . S
C1252 C1245 1.403 . S
C1252 C1253 1.399 . S
C1252 H1258 0.929 . S
C1253 C1233 1.449 . S
C1253 C1252 1.399 . S
C1253 H1259 0.930 . S
H1254 C1234 0.931 . S
H1255 C1235 0.930 . S
H1256 C1243 0.931 . S
H1257 C1244 0.929 . S
H1258 C1252 0.929 . S
H1259 C1253 0.930 . S
Mn1260 O1265 2.095 . S
Mn1260 O1275 2.162 1_565 S
Mn1260 O1276 2.297 . S
Mn1260 O1284 2.385 . S
Mn1260 O1285 2.209 . S
Mn1260 O1286 2.094 . S
Mn1261 O1266 2.121 . S
Mn1261 N1268 2.257 . S
Mn1261 N1277 2.282 . S
Mn1261 O1285 2.215 . S
Mn1261 O1287 2.117 . S
C1262 O1284 1.234 . S
C1262 O1285 1.283 . S
C1263 O1275 1.288 . S
C1263 O1276 1.226 1_545 S
C1264 O1286 1.240 . S
C1264 O1287 1.264 . S
O1265 Mn1260 2.095 . S
O1265 C1274 1.250 . S
O1266 Mn1261 2.121 . S
O1266 C1274 1.258 . S
C1267 N1268 1.326 . S
C1267 C1271 1.460 . S
C1267 H1273 0.929 . S
N1268 Mn1261 2.257 . S
N1268 C1267 1.326 . S
N1268 C1272 1.362 . S
C1269 C1270 1.258 . S
C1269 C1272 1.431 . S
C1269 C1289 1.449 . S
C1270 C1269 1.258 . S
C1270 C1271 1.477 . S
C1270 H1290 0.931 . S
C1271 C1267 1.460 . S
C1271 C1270 1.477 . S
C1271 H1291 0.930 . S
C1272 N1268 1.362 . S
C1272 C1269 1.431 . S
C1272 C1282 1.476 . S
H1273 C1267 0.929 . S
C1274 O1265 1.250 . S
C1274 O1266 1.258 . S
O1275 Mn1260 2.162 1_545 S
O1275 C1263 1.288 . S
O1276 Mn1260 2.297 . S
O1276 C1263 1.226 1_565 S
N1277 Mn1261 2.282 . S
N1277 C1278 1.328 . S
N1277 C1282 1.318 . S
C1278 N1277 1.328 . S
C1278 C1279 1.457 . S
C1278 H1283 0.929 . S
C1279 C1278 1.457 . S
C1279 C1280 1.291 . S
C1279 H1292 0.931 . S
C1280 C1279 1.291 . S
C1280 C1281 1.373 . S
C1280 H1293 0.929 . S
C1281 C1280 1.373 . S
C1281 C1282 1.396 . S
C1281 C1288 1.403 . S
C1282 C1272 1.476 . S
C1282 N1277 1.318 . S
C1282 C1281 1.396 . S
H1283 C1278 0.929 . S
O1284 Mn1260 2.385 . S
O1284 C1262 1.234 . S
O1285 Mn1260 2.209 . S
O1285 Mn1261 2.215 . S
O1285 C1262 1.283 . S
O1286 Mn1260 2.094 . S
O1286 C1264 1.240 . S
O1287 Mn1261 2.117 . S
O1287 C1264 1.264 . S
C1288 C1281 1.403 . S
C1288 C1289 1.399 . S
C1288 H1294 0.929 . S
C1289 C1269 1.449 . S
C1289 C1288 1.399 . S
C1289 H1295 0.930 . S
H1290 C1270 0.931 . S
H1291 C1271 0.930 . S
H1292 C1279 0.931 . S
H1293 C1280 0.929 . S
H1294 C1288 0.929 . S
H1295 C1289 0.930 . S
C1296 C1297 1.387 . S
C1296 H1300 0.950 . S
C1296 C1305 1.390 . S
C1297 C1296 1.387 . S
C1297 C1299 1.387 . S
H1298 C1305 0.950 . S
C1299 C1297 1.387 . S
C1299 C1301 1.390 . S
C1299 H1303 0.950 . S
H1300 C1296 0.950 . S
C1301 C1299 1.390 . S
C1301 C1302 1.387 . S
C1301 H1304 0.950 . S
C1302 C1301 1.387 . S
C1302 C1305 1.387 . S
H1303 C1299 0.950 . S
H1304 C1301 0.950 . S
C1305 C1296 1.390 . S
C1305 H1298 0.950 . S
C1305 C1302 1.387 . S
C1306 C1307 1.387 . S
C1306 H1310 0.950 . S
C1306 C1315 1.390 . S
C1307 C1306 1.387 . S
C1307 C1309 1.387 . S
H1308 C1315 0.950 . S
C1309 C1307 1.387 . S
C1309 C1311 1.390 . S
C1309 H1313 0.950 . S
H1310 C1306 0.950 . S
C1311 C1309 1.390 . S
C1311 C1312 1.387 . S
C1311 H1314 0.950 . S
C1312 C1311 1.387 . S
C1312 C1315 1.387 . S
H1313 C1309 0.950 . S
H1314 C1311 0.950 . S
C1315 C1306 1.390 . S
C1315 H1308 0.950 . S
C1315 C1312 1.387 . S
C1316 C1317 1.387 . S
C1316 H1320 0.950 . S
C1316 C1325 1.390 . S
C1317 C1316 1.387 . S
C1317 C1319 1.387 . S
H1318 C1325 0.950 . S
C1319 C1317 1.387 . S
C1319 C1321 1.390 . S
C1319 H1323 0.950 . S
H1320 C1316 0.950 . S
C1321 C1319 1.390 . S
C1321 C1322 1.387 . S
C1321 H1324 0.950 . S
C1322 C1321 1.387 . S
C1322 C1325 1.387 . S
H1323 C1319 0.950 . S
H1324 C1321 0.950 . S
C1325 C1316 1.390 . S
C1325 H1318 0.950 . S
C1325 C1322 1.387 . S
C1326 C1327 1.387 . S
C1326 H1330 0.950 . S
C1326 C1335 1.390 . S
C1327 C1326 1.387 . S
C1327 C1329 1.387 . S
H1328 C1335 0.950 . S
C1329 C1327 1.387 . S
C1329 C1331 1.390 . S
C1329 H1333 0.950 . S
H1330 C1326 0.950 . S
C1331 C1329 1.390 . S
C1331 C1332 1.387 . S
C1331 H1334 0.950 . S
C1332 C1331 1.387 . S
C1332 C1335 1.387 . S
H1333 C1329 0.950 . S
H1334 C1331 0.950 . S
C1335 C1326 1.390 . S
C1335 H1328 0.950 . S
C1335 C1332 1.387 . S
C1336 C1337 1.387 . S
C1336 H1340 0.950 . S
C1336 C1345 1.390 . S
C1337 C1336 1.387 . S
C1337 C1339 1.387 . S
H1338 C1345 0.950 . S
C1339 C1337 1.387 . S
C1339 C1341 1.390 . S
C1339 H1343 0.950 . S
H1340 C1336 0.950 . S
C1341 C1339 1.390 . S
C1341 C1342 1.387 . S
C1341 H1344 0.950 . S
C1342 C1341 1.387 . S
C1342 C1345 1.387 . S
H1343 C1339 0.950 . S
H1344 C1341 0.950 . S
C1345 C1336 1.390 . S
C1345 H1338 0.950 . S
C1345 C1342 1.387 . S
C1346 C1347 1.387 . S
C1346 H1350 0.950 . S
C1346 C1355 1.390 . S
C1347 C1346 1.387 . S
C1347 C1349 1.387 . S
H1348 C1355 0.950 . S
C1349 C1347 1.387 . S
C1349 C1351 1.390 . S
C1349 H1353 0.950 . S
H1350 C1346 0.950 . S
C1351 C1349 1.390 . S
C1351 C1352 1.387 . S
C1351 H1354 0.950 . S
C1352 C1351 1.387 . S
C1352 C1355 1.387 . S
H1353 C1349 0.950 . S
H1354 C1351 0.950 . S
C1355 C1346 1.390 . S
C1355 H1348 0.950 . S
C1355 C1352 1.387 . S
C1356 C1357 1.387 . S
C1356 H1360 0.950 . S
C1356 C1365 1.390 . S
C1357 C1356 1.387 . S
C1357 C1359 1.387 . S
H1358 C1365 0.950 . S
C1359 C1357 1.387 . S
C1359 C1361 1.390 . S
C1359 H1363 0.950 . S
H1360 C1356 0.950 . S
C1361 C1359 1.390 . S
C1361 C1362 1.387 . S
C1361 H1364 0.950 . S
C1362 C1361 1.387 . S
C1362 C1365 1.387 . S
H1363 C1359 0.950 . S
H1364 C1361 0.950 . S
C1365 C1356 1.390 . S
C1365 H1358 0.950 . S
C1365 C1362 1.387 . S
C1366 C1367 1.387 . S
C1366 H1370 0.950 . S
C1366 C1375 1.390 . S
C1367 C1366 1.387 . S
C1367 C1369 1.387 . S
H1368 C1375 0.950 . S
C1369 C1367 1.387 . S
C1369 C1371 1.390 . S
C1369 H1373 0.950 . S
H1370 C1366 0.950 . S
C1371 C1369 1.390 . S
C1371 C1372 1.387 . S
C1371 H1374 0.950 . S
C1372 C1371 1.387 . S
C1372 C1375 1.387 . S
H1373 C1369 0.950 . S
H1374 C1371 0.950 . S
C1375 C1366 1.390 . S
C1375 H1368 0.950 . S
C1375 C1372 1.387 . S
C1376 C1377 1.387 . S
C1376 H1380 0.950 . S
C1376 C1385 1.390 . S
C1377 C1376 1.387 . S
C1377 C1379 1.387 . S
H1378 C1385 0.950 . S
C1379 C1377 1.387 . S
C1379 C1381 1.390 . S
C1379 H1383 0.950 . S
H1380 C1376 0.950 . S
C1381 C1379 1.390 . S
C1381 C1382 1.387 . S
C1381 H1384 0.950 . S
C1382 C1381 1.387 . S
C1382 C1385 1.387 . S
H1383 C1379 0.950 . S
H1384 C1381 0.950 . S
C1385 C1376 1.390 . S
C1385 H1378 0.950 . S
C1385 C1382 1.387 . S
C1386 C1387 1.387 . S
C1386 H1390 0.950 . S
C1386 C1395 1.390 . S
C1387 C1386 1.387 . S
C1387 C1389 1.387 . S
H1388 C1395 0.950 . S
C1389 C1387 1.387 . S
C1389 C1391 1.390 . S
C1389 H1393 0.950 . S
H1390 C1386 0.950 . S
C1391 C1389 1.390 . S
C1391 C1392 1.387 . S
C1391 H1394 0.950 . S
C1392 C1391 1.387 . S
C1392 C1395 1.387 . S
H1393 C1389 0.950 . S
H1394 C1391 0.950 . S
C1395 C1386 1.390 . S
C1395 H1388 0.950 . S
C1395 C1392 1.387 . S
C1396 C1397 1.387 . S
C1396 H1400 0.950 . S
C1396 C1405 1.390 . S
C1397 C1396 1.387 . S
C1397 C1399 1.387 . S
H1398 C1405 0.950 . S
C1399 C1397 1.387 . S
C1399 C1401 1.390 . S
C1399 H1403 0.950 . S
H1400 C1396 0.950 . S
C1401 C1399 1.390 . S
C1401 C1402 1.387 . S
C1401 H1404 0.950 . S
C1402 C1401 1.387 . S
C1402 C1405 1.387 . S
H1403 C1399 0.950 . S
H1404 C1401 0.950 . S
C1405 C1396 1.390 . S
C1405 H1398 0.950 . S
C1405 C1402 1.387 . S
C1406 C1407 1.387 . S
C1406 H1410 0.950 . S
C1406 C1415 1.390 . S
C1407 C1406 1.387 . S
C1407 C1409 1.387 . S
H1408 C1415 0.950 . S
C1409 C1407 1.387 . S
C1409 C1411 1.390 . S
C1409 H1413 0.950 . S
H1410 C1406 0.950 . S
C1411 C1409 1.390 . S
C1411 C1412 1.387 . S
C1411 H1414 0.950 . S
C1412 C1411 1.387 . S
C1412 C1415 1.387 . S
H1413 C1409 0.950 . S
H1414 C1411 0.950 . S
C1415 C1406 1.390 . S
C1415 H1408 0.950 . S
C1415 C1412 1.387 . S
C1416 C1417 1.387 1_545 S
C1416 H1420 0.950 . S
C1416 C1425 1.390 . S
C1417 C1416 1.387 1_565 S
C1417 C1419 1.387 . S
H1418 C1425 0.950 . S
C1419 C1417 1.387 . S
C1419 C1421 1.390 . S
C1419 H1423 0.950 . S
H1420 C1416 0.950 . S
C1421 C1419 1.390 . S
C1421 C1422 1.387 . S
C1421 H1424 0.950 . S
C1422 C1421 1.387 . S
C1422 C1425 1.387 1_565 S
H1423 C1419 0.950 . S
H1424 C1421 0.950 . S
C1425 C1416 1.390 . S
C1425 H1418 0.950 . S
C1425 C1422 1.387 1_545 S
C1426 C1427 1.387 . S
C1426 H1430 0.950 . S
C1426 C1435 1.390 . S
C1427 C1426 1.387 . S
C1427 C1429 1.387 . S
H1428 C1435 0.950 . S
C1429 C1427 1.387 . S
C1429 C1431 1.390 . S
C1429 H1433 0.950 . S
H1430 C1426 0.950 . S
C1431 C1429 1.390 . S
C1431 C1432 1.387 . S
C1431 H1434 0.950 . S
C1432 C1431 1.387 . S
C1432 C1435 1.387 . S
H1433 C1429 0.950 . S
H1434 C1431 0.950 . S
C1435 C1426 1.390 . S
C1435 H1428 0.950 . S
C1435 C1432 1.387 . S
C1436 C1437 1.387 . S
C1436 H1440 0.950 . S
C1436 C1445 1.390 . S
C1437 C1436 1.387 . S
C1437 C1439 1.387 . S
H1438 C1445 0.950 . S
C1439 C1437 1.387 . S
C1439 C1441 1.390 . S
C1439 H1443 0.950 . S
H1440 C1436 0.950 . S
C1441 C1439 1.390 . S
C1441 C1442 1.387 . S
C1441 H1444 0.950 . S
C1442 C1441 1.387 . S
C1442 C1445 1.387 . S
H1443 C1439 0.950 . S
H1444 C1441 0.950 . S
C1445 C1436 1.390 . S
C1445 H1438 0.950 . S
C1445 C1442 1.387 . S
C1446 C1447 1.387 . S
C1446 H1450 0.950 . S
C1446 C1455 1.390 . S
C1447 C1446 1.387 . S
C1447 C1449 1.387 . S
H1448 C1455 0.950 . S
C1449 C1447 1.387 . S
C1449 C1451 1.390 . S
C1449 H1453 0.950 . S
H1450 C1446 0.950 . S
C1451 C1449 1.390 . S
C1451 C1452 1.387 . S
C1451 H1454 0.950 . S
C1452 C1451 1.387 . S
C1452 C1455 1.387 . S
H1453 C1449 0.950 . S
H1454 C1451 0.950 . S
C1455 C1446 1.390 . S
C1455 H1448 0.950 . S
C1455 C1452 1.387 . S
C1456 C1457 1.387 . S
C1456 H1460 0.950 . S
C1456 C1465 1.390 . S
C1457 C1456 1.387 . S
C1457 C1459 1.387 . S
H1458 C1465 0.950 . S
C1459 C1457 1.387 . S
C1459 C1461 1.390 . S
C1459 H1463 0.950 . S
H1460 C1456 0.950 . S
C1461 C1459 1.390 . S
C1461 C1462 1.387 . S
C1461 H1464 0.950 . S
C1462 C1461 1.387 . S
C1462 C1465 1.387 . S
H1463 C1459 0.950 . S
H1464 C1461 0.950 . S
C1465 C1456 1.390 . S
C1465 H1458 0.950 . S
C1465 C1462 1.387 . S
C1466 C1467 1.387 . S
C1466 H1470 0.950 . S
C1466 C1475 1.390 . S
C1467 C1466 1.387 . S
C1467 C1469 1.387 . S
H1468 C1475 0.950 . S
C1469 C1467 1.387 . S
C1469 C1471 1.390 . S
C1469 H1473 0.950 . S
H1470 C1466 0.950 . S
C1471 C1469 1.390 . S
C1471 C1472 1.387 . S
C1471 H1474 0.950 . S
C1472 C1471 1.387 . S
C1472 C1475 1.387 . S
H1473 C1469 0.950 . S
H1474 C1471 0.950 . S
C1475 C1466 1.390 . S
C1475 H1468 0.950 . S
C1475 C1472 1.387 . S
C1476 C1477 1.387 . S
C1476 H1480 0.950 . S
C1476 C1485 1.390 . S
C1477 C1476 1.387 . S
C1477 C1479 1.387 . S
H1478 C1485 0.950 . S
C1479 C1477 1.387 . S
C1479 C1481 1.390 . S
C1479 H1483 0.950 . S
H1480 C1476 0.950 . S
C1481 C1479 1.390 . S
C1481 C1482 1.387 . S
C1481 H1484 0.950 . S
C1482 C1481 1.387 . S
C1482 C1485 1.387 . S
H1483 C1479 0.950 . S
H1484 C1481 0.950 . S
C1485 C1476 1.390 . S
C1485 H1478 0.950 . S
C1485 C1482 1.387 . S
C1486 C1487 1.387 . S
C1486 H1490 0.950 . S
C1486 C1495 1.390 . S
C1487 C1486 1.387 . S
C1487 C1489 1.387 . S
H1488 C1495 0.950 . S
C1489 C1487 1.387 . S
C1489 C1491 1.390 . S
C1489 H1493 0.950 . S
H1490 C1486 0.950 . S
C1491 C1489 1.390 . S
C1491 C1492 1.387 . S
C1491 H1494 0.950 . S
C1492 C1491 1.387 . S
C1492 C1495 1.387 . S
H1493 C1489 0.950 . S
H1494 C1491 0.950 . S
C1495 C1486 1.390 . S
C1495 H1488 0.950 . S
C1495 C1492 1.387 . S
C1496 C1497 1.387 . S
C1496 H1500 0.950 1_545 S
C1496 C1505 1.390 . S
C1497 C1496 1.387 . S
C1497 C1499 1.387 . S
H1498 C1505 0.950 1_565 S
C1499 C1497 1.387 . S
C1499 C1501 1.390 . S
C1499 H1503 0.950 . S
H1500 C1496 0.950 1_565 S
C1501 C1499 1.390 . S
C1501 C1502 1.387 . S
C1501 H1504 0.950 . S
C1502 C1501 1.387 . S
C1502 C1505 1.387 . S
H1503 C1499 0.950 . S
H1504 C1501 0.950 . S
C1505 C1496 1.390 . S
C1505 H1498 0.950 1_545 S
C1505 C1502 1.387 . S
C1506 C1507 1.387 . S
C1506 H1510 0.950 . S
C1506 C1515 1.390 . S
C1507 C1506 1.387 . S
C1507 C1509 1.387 1_545 S
H1508 C1515 0.950 . S
C1509 C1507 1.387 1_565 S
C1509 C1511 1.390 . S
C1509 H1513 0.950 . S
H1510 C1506 0.950 . S
C1511 C1509 1.390 . S
C1511 C1512 1.387 1_565 S
C1511 H1514 0.950 . S
C1512 C1511 1.387 1_545 S
C1512 C1515 1.387 . S
H1513 C1509 0.950 . S
H1514 C1511 0.950 . S
C1515 C1506 1.390 . S
C1515 H1508 0.950 . S
C1515 C1512 1.387 . S
C1516 C1517 1.387 . S
C1516 H1520 0.950 1_455 S
C1516 C1525 1.390 . S
C1517 C1516 1.387 . S
C1517 C1519 1.387 . S
H1518 C1525 0.950 1_655 S
C1519 C1517 1.387 . S
C1519 C1521 1.390 . S
C1519 H1523 0.950 . S
H1520 C1516 0.950 1_655 S
C1521 C1519 1.390 . S
C1521 C1522 1.387 . S
C1521 H1524 0.950 . S
C1522 C1521 1.387 . S
C1522 C1525 1.387 . S
H1523 C1519 0.950 . S
H1524 C1521 0.950 . S
C1525 C1516 1.390 . S
C1525 H1518 0.950 1_455 S
C1525 C1522 1.387 . S
C1526 C1527 1.387 . S
C1526 H1530 0.950 . S
C1526 C1535 1.390 . S
C1527 C1526 1.387 . S
C1527 C1529 1.387 . S
H1528 C1535 0.950 . S
C1529 C1527 1.387 . S
C1529 C1531 1.390 . S
C1529 H1533 0.950 . S
H1530 C1526 0.950 . S
C1531 C1529 1.390 . S
C1531 C1532 1.387 . S
C1531 H1534 0.950 . S
C1532 C1531 1.387 . S
C1532 C1535 1.387 . S
H1533 C1529 0.950 . S
H1534 C1531 0.950 . S
C1535 C1526 1.390 . S
C1535 H1528 0.950 . S
C1535 C1532 1.387 . S
C1536 C1537 1.387 . S
C1536 H1540 0.950 . S
C1536 C1545 1.390 . S
C1537 C1536 1.387 . S
C1537 C1539 1.387 . S
H1538 C1545 0.950 . S
C1539 C1537 1.387 . S
C1539 C1541 1.390 . S
C1539 H1543 0.950 . S
H1540 C1536 0.950 . S
C1541 C1539 1.390 . S
C1541 C1542 1.387 . S
C1541 H1544 0.950 . S
C1542 C1541 1.387 . S
C1542 C1545 1.387 . S
H1543 C1539 0.950 . S
H1544 C1541 0.950 . S
C1545 C1536 1.390 . S
C1545 H1538 0.950 . S
C1545 C1542 1.387 . S
C1546 C1547 1.387 . S
C1546 H1550 0.950 . S
C1546 C1555 1.390 . S
C1547 C1546 1.387 . S
C1547 C1549 1.387 . S
H1548 C1555 0.950 . S
C1549 C1547 1.387 . S
C1549 C1551 1.390 . S
C1549 H1553 0.950 . S
H1550 C1546 0.950 . S
C1551 C1549 1.390 . S
C1551 C1552 1.387 . S
C1551 H1554 0.950 . S
C1552 C1551 1.387 . S
C1552 C1555 1.387 . S
H1553 C1549 0.950 . S
H1554 C1551 0.950 . S
C1555 C1546 1.390 . S
C1555 H1548 0.950 . S
C1555 C1552 1.387 . S
C1556 C1557 1.387 1_565 S
C1556 H1560 0.950 . S
C1556 C1565 1.390 . S
C1557 C1556 1.387 1_545 S
C1557 C1559 1.387 . S
H1558 C1565 0.950 . S
C1559 C1557 1.387 . S
C1559 C1561 1.390 . S
C1559 H1563 0.950 . S
H1560 C1556 0.950 . S
C1561 C1559 1.390 . S
C1561 C1562 1.387 . S
C1561 H1564 0.950 . S
C1562 C1561 1.387 . S
C1562 C1565 1.387 1_545 S
H1563 C1559 0.950 . S
H1564 C1561 0.950 . S
C1565 C1556 1.390 . S
C1565 H1558 0.950 . S
C1565 C1562 1.387 1_565 S
C1566 C1567 1.387 . S
C1566 H1570 0.950 1_545 S
C1566 C1575 1.390 . S
C1567 C1566 1.387 . S
C1567 C1569 1.387 . S
H1568 C1575 0.950 1_565 S
C1569 C1567 1.387 . S
C1569 C1571 1.390 . S
C1569 H1573 0.950 . S
H1570 C1566 0.950 1_565 S
C1571 C1569 1.390 . S
C1571 C1572 1.387 . S
C1571 H1574 0.950 . S
C1572 C1571 1.387 . S
C1572 C1575 1.387 . S
H1573 C1569 0.950 . S
H1574 C1571 0.950 . S
C1575 C1566 1.390 . S
C1575 H1568 0.950 1_545 S
C1575 C1572 1.387 . S
C1576 C1577 1.387 . S
C1576 H1580 0.950 . S
C1576 C1585 1.390 . S
C1577 C1576 1.387 . S
C1577 C1579 1.387 1_455 S
H1578 C1585 0.950 . S
C1579 C1577 1.387 1_655 S
C1579 C1581 1.390 . S
C1579 H1583 0.950 . S
H1580 C1576 0.950 . S
C1581 C1579 1.390 . S
C1581 C1582 1.387 1_655 S
C1581 H1584 0.950 . S
C1582 C1581 1.387 1_455 S
C1582 C1585 1.387 . S
H1583 C1579 0.950 . S
H1584 C1581 0.950 . S
C1585 C1576 1.390 . S
C1585 H1578 0.950 . S
C1585 C1582 1.387 . S
C1586 C1587 1.387 . S
C1586 H1590 0.950 . S
C1586 C1595 1.390 . S
C1587 C1586 1.387 . S
C1587 C1589 1.387 . S
H1588 C1595 0.950 . S
C1589 C1587 1.387 . S
C1589 C1591 1.390 . S
C1589 H1593 0.950 . S
H1590 C1586 0.950 . S
C1591 C1589 1.390 . S
C1591 C1592 1.387 . S
C1591 H1594 0.950 . S
C1592 C1591 1.387 . S
C1592 C1595 1.387 . S
H1593 C1589 0.950 . S
H1594 C1591 0.950 . S
C1595 C1586 1.390 . S
C1595 H1588 0.950 . S
C1595 C1592 1.387 . S
C1596 C1597 1.387 . S
C1596 H1600 0.950 . S
C1596 C1605 1.390 . S
C1597 C1596 1.387 . S
C1597 C1599 1.387 . S
H1598 C1605 0.950 . S
C1599 C1597 1.387 . S
C1599 C1601 1.390 . S
C1599 H1603 0.950 . S
H1600 C1596 0.950 . S
C1601 C1599 1.390 . S
C1601 C1602 1.387 . S
C1601 H1604 0.950 . S
C1602 C1601 1.387 . S
C1602 C1605 1.387 . S
H1603 C1599 0.950 . S
H1604 C1601 0.950 . S
C1605 C1596 1.390 . S
C1605 H1598 0.950 . S
C1605 C1602 1.387 . S
C1606 C1607 1.387 . S
C1606 H1610 0.950 . S
C1606 C1615 1.390 . S
C1607 C1606 1.387 . S
C1607 C1609 1.387 . S
H1608 C1615 0.950 . S
C1609 C1607 1.387 . S
C1609 C1611 1.390 . S
C1609 H1613 0.950 . S
H1610 C1606 0.950 . S
C1611 C1609 1.390 . S
C1611 C1612 1.387 . S
C1611 H1614 0.950 . S
C1612 C1611 1.387 . S
C1612 C1615 1.387 . S
H1613 C1609 0.950 . S
H1614 C1611 0.950 . S
C1615 C1606 1.390 . S
C1615 H1608 0.950 . S
C1615 C1612 1.387 . S
C1616 C1617 1.387 . S
C1616 H1620 0.950 . S
C1616 C1625 1.390 . S
C1617 C1616 1.387 . S
C1617 C1619 1.387 . S
H1618 C1625 0.950 . S
C1619 C1617 1.387 . S
C1619 C1621 1.390 . S
C1619 H1623 0.950 . S
H1620 C1616 0.950 . S
C1621 C1619 1.390 . S
C1621 C1622 1.387 . S
C1621 H1624 0.950 . S
C1622 C1621 1.387 . S
C1622 C1625 1.387 . S
H1623 C1619 0.950 . S
H1624 C1621 0.950 . S
C1625 C1616 1.390 . S
C1625 H1618 0.950 . S
C1625 C1622 1.387 . S
C1626 C1627 1.387 . S
C1626 H1630 0.950 . S
C1626 C1635 1.390 . S
C1627 C1626 1.387 . S
C1627 C1629 1.387 . S
H1628 C1635 0.950 . S
C1629 C1627 1.387 . S
C1629 C1631 1.390 . S
C1629 H1633 0.950 . S
H1630 C1626 0.950 . S
C1631 C1629 1.390 . S
C1631 C1632 1.387 . S
C1631 H1634 0.950 . S
C1632 C1631 1.387 . S
C1632 C1635 1.387 . S
H1633 C1629 0.950 . S
H1634 C1631 0.950 . S
C1635 C1626 1.390 . S
C1635 H1628 0.950 . S
C1635 C1632 1.387 . S
C1636 C1637 1.387 . S
C1636 H1640 0.950 . S
C1636 C1645 1.390 . S
C1637 C1636 1.387 . S
C1637 C1639 1.387 . S
H1638 C1645 0.950 . S
C1639 C1637 1.387 . S
C1639 C1641 1.390 . S
C1639 H1643 0.950 . S
H1640 C1636 0.950 . S
C1641 C1639 1.390 . S
C1641 C1642 1.387 . S
C1641 H1644 0.950 . S
C1642 C1641 1.387 . S
C1642 C1645 1.387 . S
H1643 C1639 0.950 . S
H1644 C1641 0.950 . S
C1645 C1636 1.390 . S
C1645 H1638 0.950 . S
C1645 C1642 1.387 . S
C1646 C1647 1.387 . S
C1646 H1650 0.950 . S
C1646 C1655 1.390 . S
C1647 C1646 1.387 . S
C1647 C1649 1.387 . S
H1648 C1655 0.950 . S
C1649 C1647 1.387 . S
C1649 C1651 1.390 . S
C1649 H1653 0.950 1_455 S
H1650 C1646 0.950 . S
C1651 C1649 1.390 . S
C1651 C1652 1.387 . S
C1651 H1654 0.950 . S
C1652 C1651 1.387 . S
C1652 C1655 1.387 . S
H1653 C1649 0.950 1_655 S
H1654 C1651 0.950 . S
C1655 C1646 1.390 . S
C1655 H1648 0.950 . S
C1655 C1652 1.387 . S
C1656 C1657 1.387 . S
C1656 H1660 0.950 . S
C1656 C1665 1.390 1_554 S
C1657 C1656 1.387 . S
C1657 C1659 1.387 . S
H1658 C1665 0.950 . S
C1659 C1657 1.387 . S
C1659 C1661 1.390 1_554 S
C1659 H1663 0.950 . S
H1660 C1656 0.950 . S
C1661 C1659 1.390 1_556 S
C1661 C1662 1.387 . S
C1661 H1664 0.950 . S
C1662 C1661 1.387 . S
C1662 C1665 1.387 . S
H1663 C1659 0.950 . S
H1664 C1661 0.950 . S
C1665 C1656 1.390 1_556 S
C1665 H1658 0.950 . S
C1665 C1662 1.387 . S
C1666 C1667 1.387 . S
C1666 H1670 0.950 . S
C1666 C1675 1.390 1_556 S
C1667 C1666 1.387 . S
C1667 C1669 1.387 . S
H1668 C1675 0.950 . S
C1669 C1667 1.387 . S
C1669 C1671 1.390 1_556 S
C1669 H1673 0.950 . S
H1670 C1666 0.950 . S
C1671 C1669 1.390 1_554 S
C1671 C1672 1.387 . S
C1671 H1674 0.950 . S
C1672 C1671 1.387 . S
C1672 C1675 1.387 . S
H1673 C1669 0.950 . S
H1674 C1671 0.950 . S
C1675 C1666 1.390 1_554 S
C1675 H1668 0.950 . S
C1675 C1672 1.387 . S
C1676 C1677 1.387 . S
C1676 H1680 0.950 . S
C1676 C1685 1.390 1_556 S
C1677 C1676 1.387 . S
C1677 C1679 1.387 . S
H1678 C1685 0.950 . S
C1679 C1677 1.387 . S
C1679 C1681 1.390 1_556 S
C1679 H1683 0.950 . S
H1680 C1676 0.950 . S
C1681 C1679 1.390 1_554 S
C1681 C1682 1.387 . S
C1681 H1684 0.950 . S
C1682 C1681 1.387 . S
C1682 C1685 1.387 . S
H1683 C1679 0.950 . S
H1684 C1681 0.950 . S
C1685 C1676 1.390 1_554 S
C1685 H1678 0.950 . S
C1685 C1682 1.387 . S
C1686 C1687 1.387 . S
C1686 H1690 0.950 1_455 S
C1686 C1695 1.390 1_556 S
C1687 C1686 1.387 . S
C1687 C1689 1.387 . S
H1688 C1695 0.950 1_655 S
C1689 C1687 1.387 . S
C1689 C1691 1.390 1_556 S
C1689 H1693 0.950 . S
H1690 C1686 0.950 1_655 S
C1691 C1689 1.390 1_554 S
C1691 C1692 1.387 . S
C1691 H1694 0.950 . S
C1692 C1691 1.387 . S
C1692 C1695 1.387 . S
H1693 C1689 0.950 . S
H1694 C1691 0.950 . S
C1695 C1686 1.390 1_554 S
C1695 H1688 0.950 1_455 S
C1695 C1692 1.387 . S
C1696 C1697 1.387 . S
C1696 H1700 0.950 . S
C1696 C1705 1.390 1_554 S
C1697 C1696 1.387 . S
C1697 C1699 1.387 . S
H1698 C1705 0.950 . S
C1699 C1697 1.387 . S
C1699 C1701 1.390 1_554 S
C1699 H1703 0.950 . S
H1700 C1696 0.950 . S
C1701 C1699 1.390 1_556 S
C1701 C1702 1.387 . S
C1701 H1704 0.950 . S
C1702 C1701 1.387 . S
C1702 C1705 1.387 . S
H1703 C1699 0.950 . S
H1704 C1701 0.950 . S
C1705 C1696 1.390 1_556 S
C1705 H1698 0.950 . S
C1705 C1702 1.387 . S
C1706 C1707 1.387 . S
C1706 H1710 0.950 . S
C1706 C1715 1.390 1_556 S
C1707 C1706 1.387 . S
C1707 C1709 1.387 . S
H1708 C1715 0.950 . S
C1709 C1707 1.387 . S
C1709 C1711 1.390 1_556 S
C1709 H1713 0.950 . S
H1710 C1706 0.950 . S
C1711 C1709 1.390 1_554 S
C1711 C1712 1.387 . S
C1711 H1714 0.950 . S
C1712 C1711 1.387 . S
C1712 C1715 1.387 . S
H1713 C1709 0.950 . S
H1714 C1711 0.950 . S
C1715 C1706 1.390 1_554 S
C1715 H1708 0.950 . S
C1715 C1712 1.387 . S
C1716 C1717 1.387 . S
C1716 H1720 0.950 . S
C1716 C1725 1.390 . S
C1717 C1716 1.387 . S
C1717 C1719 1.387 . S
H1718 C1725 0.950 . S
C1719 C1717 1.387 . S
C1719 C1721 1.390 . S
C1719 H1723 0.950 . S
H1720 C1716 0.950 . S
C1721 C1719 1.390 . S
C1721 C1722 1.387 . S
C1721 H1724 0.950 . S
C1722 C1721 1.387 . S
C1722 C1725 1.387 . S
H1723 C1719 0.950 . S
H1724 C1721 0.950 . S
C1725 C1716 1.390 . S
C1725 H1718 0.950 . S
C1725 C1722 1.387 . S
C1726 C1727 1.387 . S
C1726 H1730 0.950 . S
C1726 C1735 1.390 . S
C1727 C1726 1.387 . S
C1727 C1729 1.387 . S
H1728 C1735 0.950 . S
C1729 C1727 1.387 . S
C1729 C1731 1.390 . S
C1729 H1733 0.950 . S
H1730 C1726 0.950 . S
C1731 C1729 1.390 . S
C1731 C1732 1.387 . S
C1731 H1734 0.950 . S
C1732 C1731 1.387 . S
C1732 C1735 1.387 . S
H1733 C1729 0.950 . S
H1734 C1731 0.950 . S
C1735 C1726 1.390 . S
C1735 H1728 0.950 . S
C1735 C1732 1.387 . S
C1736 C1737 1.387 1_455 S
C1736 H1740 0.950 . S
C1736 C1745 1.390 . S
C1737 C1736 1.387 1_655 S
C1737 C1739 1.387 . S
H1738 C1745 0.950 . S
C1739 C1737 1.387 . S
C1739 C1741 1.390 . S
C1739 H1743 0.950 . S
H1740 C1736 0.950 . S
C1741 C1739 1.390 . S
C1741 C1742 1.387 . S
C1741 H1744 0.950 . S
C1742 C1741 1.387 . S
C1742 C1745 1.387 1_655 S
H1743 C1739 0.950 . S
H1744 C1741 0.950 . S
C1745 C1736 1.390 . S
C1745 H1738 0.950 . S
C1745 C1742 1.387 1_455 S
C1746 C1747 1.387 . S
C1746 H1750 0.950 . S
C1746 C1755 1.390 . S
C1747 C1746 1.387 . S
C1747 C1749 1.387 . S
H1748 C1755 0.950 . S
C1749 C1747 1.387 . S
C1749 C1751 1.390 . S
C1749 H1753 0.950 . S
H1750 C1746 0.950 . S
C1751 C1749 1.390 . S
C1751 C1752 1.387 . S
C1751 H1754 0.950 . S
C1752 C1751 1.387 . S
C1752 C1755 1.387 . S
H1753 C1749 0.950 . S
H1754 C1751 0.950 . S
C1755 C1746 1.390 . S
C1755 H1748 0.950 . S
C1755 C1752 1.387 . S
C1756 C1757 1.387 . S
C1756 H1760 0.950 . S
C1756 C1765 1.390 . S
C1757 C1756 1.387 . S
C1757 C1759 1.387 1_655 S
H1758 C1765 0.950 . S
C1759 C1757 1.387 1_455 S
C1759 C1761 1.390 . S
C1759 H1763 0.950 . S
H1760 C1756 0.950 . S
C1761 C1759 1.390 . S
C1761 C1762 1.387 1_455 S
C1761 H1764 0.950 . S
C1762 C1761 1.387 1_655 S
C1762 C1765 1.387 . S
H1763 C1759 0.950 . S
H1764 C1761 0.950 . S
C1765 C1756 1.390 . S
C1765 H1758 0.950 . S
C1765 C1762 1.387 . S
C1766 C1767 1.387 . S
C1766 H1770 0.950 . S
C1766 C1775 1.390 . S
C1767 C1766 1.387 . S
C1767 C1769 1.387 . S
H1768 C1775 0.950 . S
C1769 C1767 1.387 . S
C1769 C1771 1.390 . S
C1769 H1773 0.950 . S
H1770 C1766 0.950 . S
C1771 C1769 1.390 . S
C1771 C1772 1.387 . S
C1771 H1774 0.950 . S
C1772 C1771 1.387 . S
C1772 C1775 1.387 . S
H1773 C1769 0.950 . S
H1774 C1771 0.950 . S
C1775 C1766 1.390 . S
C1775 H1768 0.950 . S
C1775 C1772 1.387 . S
C1776 C1777 1.387 1_545 S
C1776 H1780 0.950 . S
C1776 C1785 1.390 . S
C1777 C1776 1.387 1_565 S
C1777 C1779 1.387 . S
H1778 C1785 0.950 . S
C1779 C1777 1.387 . S
C1779 C1781 1.390 . S
C1779 H1783 0.950 . S
H1780 C1776 0.950 . S
C1781 C1779 1.390 . S
C1781 C1782 1.387 . S
C1781 H1784 0.950 . S
C1782 C1781 1.387 . S
C1782 C1785 1.387 1_565 S
H1783 C1779 0.950 . S
H1784 C1781 0.950 . S
C1785 C1776 1.390 . S
C1785 H1778 0.950 . S
C1785 C1782 1.387 1_545 S
C1786 C1787 1.387 . S
C1786 H1790 0.950 . S
C1786 C1795 1.390 . S
C1787 C1786 1.387 . S
C1787 C1789 1.387 . S
H1788 C1795 0.950 . S
C1789 C1787 1.387 . S
C1789 C1791 1.390 . S
C1789 H1793 0.950 . S
H1790 C1786 0.950 . S
C1791 C1789 1.390 . S
C1791 C1792 1.387 . S
C1791 H1794 0.950 . S
C1792 C1791 1.387 . S
C1792 C1795 1.387 . S
H1793 C1789 0.950 . S
H1794 C1791 0.950 . S
C1795 C1786 1.390 . S
C1795 H1788 0.950 . S
C1795 C1792 1.387 . S
C1796 C1797 1.387 . S
C1796 H1800 0.950 . S
C1796 C1805 1.390 . S
C1797 C1796 1.387 . S
C1797 C1799 1.387 . S
H1798 C1805 0.950 . S
C1799 C1797 1.387 . S
C1799 C1801 1.390 . S
C1799 H1803 0.950 . S
H1800 C1796 0.950 . S
C1801 C1799 1.390 . S
C1801 C1802 1.387 . S
C1801 H1804 0.950 . S
C1802 C1801 1.387 . S
C1802 C1805 1.387 . S
H1803 C1799 0.950 . S
H1804 C1801 0.950 . S
C1805 C1796 1.390 . S
C1805 H1798 0.950 . S
C1805 C1802 1.387 . S
C1806 C1807 1.387 . S
C1806 H1810 0.950 . S
C1806 C1815 1.390 . S
C1807 C1806 1.387 . S
C1807 C1809 1.387 . S
H1808 C1815 0.950 . S
C1809 C1807 1.387 . S
C1809 C1811 1.390 . S
C1809 H1813 0.950 . S
H1810 C1806 0.950 . S
C1811 C1809 1.390 . S
C1811 C1812 1.387 . S
C1811 H1814 0.950 . S
C1812 C1811 1.387 . S
C1812 C1815 1.387 . S
H1813 C1809 0.950 . S
H1814 C1811 0.950 . S
C1815 C1806 1.390 . S
C1815 H1808 0.950 . S
C1815 C1812 1.387 . S
C1816 C1817 1.387 1_545 S
C1816 H1820 0.950 . S
C1816 C1825 1.390 . S
C1817 C1816 1.387 1_565 S
C1817 C1819 1.387 . S
H1818 C1825 0.950 . S
C1819 C1817 1.387 . S
C1819 C1821 1.390 . S
C1819 H1823 0.950 . S
H1820 C1816 0.950 . S
C1821 C1819 1.390 . S
C1821 C1822 1.387 . S
C1821 H1824 0.950 . S
C1822 C1821 1.387 . S
C1822 C1825 1.387 1_565 S
H1823 C1819 0.950 . S
H1824 C1821 0.950 . S
C1825 C1816 1.390 . S
C1825 H1818 0.950 . S
C1825 C1822 1.387 1_545 S
C1826 C1827 1.387 . S
C1826 H1830 0.950 . S
C1826 C1835 1.390 . S
C1827 C1826 1.387 . S
C1827 C1829 1.387 . S
H1828 C1835 0.950 . S
C1829 C1827 1.387 . S
C1829 C1831 1.390 . S
C1829 H1833 0.950 . S
H1830 C1826 0.950 . S
C1831 C1829 1.390 . S
C1831 C1832 1.387 . S
C1831 H1834 0.950 . S
C1832 C1831 1.387 . S
C1832 C1835 1.387 . S
H1833 C1829 0.950 . S
H1834 C1831 0.950 . S
C1835 C1826 1.390 . S
C1835 H1828 0.950 . S
C1835 C1832 1.387 . S
C1836 C1837 1.387 . S
C1836 H1840 0.950 . S
C1836 C1845 1.390 . S
C1837 C1836 1.387 . S
C1837 C1839 1.387 . S
H1838 C1845 0.950 . S
C1839 C1837 1.387 . S
C1839 C1841 1.390 . S
C1839 H1843 0.950 . S
H1840 C1836 0.950 . S
C1841 C1839 1.390 . S
C1841 C1842 1.387 . S
C1841 H1844 0.950 . S
C1842 C1841 1.387 . S
C1842 C1845 1.387 . S
H1843 C1839 0.950 . S
H1844 C1841 0.950 . S
C1845 C1836 1.390 . S
C1845 H1838 0.950 . S
C1845 C1842 1.387 . S
C1846 C1847 1.387 . S
C1846 H1850 0.950 . S
C1846 C1855 1.390 . S
C1847 C1846 1.387 . S
C1847 C1849 1.387 . S
H1848 C1855 0.950 . S
C1849 C1847 1.387 . S
C1849 C1851 1.390 . S
C1849 H1853 0.950 . S
H1850 C1846 0.950 . S
C1851 C1849 1.390 . S
C1851 C1852 1.387 . S
C1851 H1854 0.950 . S
C1852 C1851 1.387 . S
C1852 C1855 1.387 . S
H1853 C1849 0.950 . S
H1854 C1851 0.950 . S
C1855 C1846 1.390 . S
C1855 H1848 0.950 . S
C1855 C1852 1.387 . S
C1856 C1857 1.387 . S
C1856 H1860 0.950 . S
C1856 C1865 1.390 . S
C1857 C1856 1.387 . S
C1857 C1859 1.387 . S
H1858 C1865 0.950 . S
C1859 C1857 1.387 . S
C1859 C1861 1.390 . S
C1859 H1863 0.950 . S
H1860 C1856 0.950 . S
C1861 C1859 1.390 . S
C1861 C1862 1.387 . S
C1861 H1864 0.950 . S
C1862 C1861 1.387 . S
C1862 C1865 1.387 . S
H1863 C1859 0.950 . S
H1864 C1861 0.950 . S
C1865 C1856 1.390 . S
C1865 H1858 0.950 . S
C1865 C1862 1.387 . S
C1866 C1867 1.387 . S
C1866 H1870 0.950 . S
C1866 C1875 1.390 . S
C1867 C1866 1.387 . S
C1867 C1869 1.387 . S
H1868 C1875 0.950 . S
C1869 C1867 1.387 . S
C1869 C1871 1.390 . S
C1869 H1873 0.950 . S
H1870 C1866 0.950 . S
C1871 C1869 1.390 . S
C1871 C1872 1.387 . S
C1871 H1874 0.950 . S
C1872 C1871 1.387 . S
C1872 C1875 1.387 . S
H1873 C1869 0.950 . S
H1874 C1871 0.950 . S
C1875 C1866 1.390 . S
C1875 H1868 0.950 . S
C1875 C1872 1.387 . S
C1876 C1877 1.387 . S
C1876 H1880 0.950 . S
C1876 C1885 1.390 . S
C1877 C1876 1.387 . S
C1877 C1879 1.387 . S
H1878 C1885 0.950 . S
C1879 C1877 1.387 . S
C1879 C1881 1.390 . S
C1879 H1883 0.950 . S
H1880 C1876 0.950 . S
C1881 C1879 1.390 . S
C1881 C1882 1.387 . S
C1881 H1884 0.950 . S
C1882 C1881 1.387 . S
C1882 C1885 1.387 . S
H1883 C1879 0.950 . S
H1884 C1881 0.950 . S
C1885 C1876 1.390 . S
C1885 H1878 0.950 . S
C1885 C1882 1.387 . S
C1886 C1887 1.387 . S
C1886 H1890 0.950 . S
C1886 C1895 1.390 . S
C1887 C1886 1.387 . S
C1887 C1889 1.387 . S
H1888 C1895 0.950 . S
C1889 C1887 1.387 . S
C1889 C1891 1.390 . S
C1889 H1893 0.950 . S
H1890 C1886 0.950 . S
C1891 C1889 1.390 . S
C1891 C1892 1.387 . S
C1891 H1894 0.950 . S
C1892 C1891 1.387 . S
C1892 C1895 1.387 . S
H1893 C1889 0.950 . S
H1894 C1891 0.950 . S
C1895 C1886 1.390 . S
C1895 H1888 0.950 . S
C1895 C1892 1.387 . S
C1896 C1897 1.387 . S
C1896 H1900 0.950 . S
C1896 C1905 1.390 . S
C1897 C1896 1.387 . S
C1897 C1899 1.387 . S
H1898 C1905 0.950 . S
C1899 C1897 1.387 . S
C1899 C1901 1.390 . S
C1899 H1903 0.950 . S
H1900 C1896 0.950 . S
C1901 C1899 1.390 . S
C1901 C1902 1.387 . S
C1901 H1904 0.950 . S
C1902 C1901 1.387 . S
C1902 C1905 1.387 . S
H1903 C1899 0.950 . S
H1904 C1901 0.950 . S
C1905 C1896 1.390 . S
C1905 H1898 0.950 . S
C1905 C1902 1.387 . S
C1906 C1907 1.387 . S
C1906 H1910 0.950 . S
C1906 C1915 1.390 . S
C1907 C1906 1.387 . S
C1907 C1909 1.387 . S
H1908 C1915 0.950 . S
C1909 C1907 1.387 . S
C1909 C1911 1.390 . S
C1909 H1913 0.950 . S
H1910 C1906 0.950 . S
C1911 C1909 1.390 . S
C1911 C1912 1.387 . S
C1911 H1914 0.950 . S
C1912 C1911 1.387 . S
C1912 C1915 1.387 . S
H1913 C1909 0.950 . S
H1914 C1911 0.950 . S
C1915 C1906 1.390 . S
C1915 H1908 0.950 . S
C1915 C1912 1.387 . S
C1916 C1917 1.387 . S
C1916 H1920 0.950 . S
C1916 C1925 1.390 . S
C1917 C1916 1.387 . S
C1917 C1919 1.387 . S
H1918 C1925 0.950 . S
C1919 C1917 1.387 . S
C1919 C1921 1.390 . S
C1919 H1923 0.950 . S
H1920 C1916 0.950 . S
C1921 C1919 1.390 . S
C1921 C1922 1.387 . S
C1921 H1924 0.950 . S
C1922 C1921 1.387 . S
C1922 C1925 1.387 . S
H1923 C1919 0.950 . S
H1924 C1921 0.950 . S
C1925 C1916 1.390 . S
C1925 H1918 0.950 . S
C1925 C1922 1.387 . S
C1926 C1927 1.387 . S
C1926 H1930 0.950 . S
C1926 C1935 1.390 . S
C1927 C1926 1.387 . S
C1927 C1929 1.387 . S
H1928 C1935 0.950 . S
C1929 C1927 1.387 . S
C1929 C1931 1.390 . S
C1929 H1933 0.950 . S
H1930 C1926 0.950 . S
C1931 C1929 1.390 . S
C1931 C1932 1.387 . S
C1931 H1934 0.950 . S
C1932 C1931 1.387 . S
C1932 C1935 1.387 . S
H1933 C1929 0.950 . S
H1934 C1931 0.950 . S
C1935 C1926 1.390 . S
C1935 H1928 0.950 . S
C1935 C1932 1.387 . S
C1936 C1937 1.387 . S
C1936 H1940 0.950 . S
C1936 C1945 1.390 . S
C1937 C1936 1.387 . S
C1937 C1939 1.387 . S
H1938 C1945 0.950 . S
C1939 C1937 1.387 . S
C1939 C1941 1.390 . S
C1939 H1943 0.950 . S
H1940 C1936 0.950 . S
C1941 C1939 1.390 . S
C1941 C1942 1.387 . S
C1941 H1944 0.950 . S
C1942 C1941 1.387 . S
C1942 C1945 1.387 . S
H1943 C1939 0.950 . S
H1944 C1941 0.950 . S
C1945 C1936 1.390 . S
C1945 H1938 0.950 . S
C1945 C1942 1.387 . S
C1946 C1947 1.387 . S
C1946 H1950 0.950 . S
C1946 C1955 1.390 . S
C1947 C1946 1.387 . S
C1947 C1949 1.387 . S
H1948 C1955 0.950 . S
C1949 C1947 1.387 . S
C1949 C1951 1.390 . S
C1949 H1953 0.950 . S
H1950 C1946 0.950 . S
C1951 C1949 1.390 . S
C1951 C1952 1.387 . S
C1951 H1954 0.950 . S
C1952 C1951 1.387 . S
C1952 C1955 1.387 . S
H1953 C1949 0.950 . S
H1954 C1951 0.950 . S
C1955 C1946 1.390 . S
C1955 H1948 0.950 . S
C1955 C1952 1.387 . S
C1956 C1957 1.387 . S
C1956 H1960 0.950 . S
C1956 C1965 1.390 . S
C1957 C1956 1.387 . S
C1957 C1959 1.387 . S
H1958 C1965 0.950 . S
C1959 C1957 1.387 . S
C1959 C1961 1.390 . S
C1959 H1963 0.950 . S
H1960 C1956 0.950 . S
C1961 C1959 1.390 . S
C1961 C1962 1.387 . S
C1961 H1964 0.950 . S
C1962 C1961 1.387 . S
C1962 C1965 1.387 . S
H1963 C1959 0.950 . S
H1964 C1961 0.950 . S
C1965 C1956 1.390 . S
C1965 H1958 0.950 . S
C1965 C1962 1.387 . S
C1966 C1967 1.387 . S
C1966 H1970 0.950 . S
C1966 C1975 1.390 . S
C1967 C1966 1.387 . S
C1967 C1969 1.387 . S
H1968 C1975 0.950 . S
C1969 C1967 1.387 . S
C1969 C1971 1.390 . S
C1969 H1973 0.950 . S
H1970 C1966 0.950 . S
C1971 C1969 1.390 . S
C1971 C1972 1.387 . S
C1971 H1974 0.950 . S
C1972 C1971 1.387 . S
C1972 C1975 1.387 . S
H1973 C1969 0.950 . S
H1974 C1971 0.950 . S
C1975 C1966 1.390 . S
C1975 H1968 0.950 . S
C1975 C1972 1.387 . S
C1976 C1977 1.387 . S
C1976 H1980 0.950 . S
C1976 C1985 1.390 . S
C1977 C1976 1.387 . S
C1977 C1979 1.387 . S
H1978 C1985 0.950 . S
C1979 C1977 1.387 . S
C1979 C1981 1.390 . S
C1979 H1983 0.950 . S
H1980 C1976 0.950 . S
C1981 C1979 1.390 . S
C1981 C1982 1.387 . S
C1981 H1984 0.950 . S
C1982 C1981 1.387 . S
C1982 C1985 1.387 . S
H1983 C1979 0.950 . S
H1984 C1981 0.950 . S
C1985 C1976 1.390 . S
C1985 H1978 0.950 . S
C1985 C1982 1.387 . S
C1986 C1987 1.387 . S
C1986 H1990 0.950 . S
C1986 C1995 1.390 . S
C1987 C1986 1.387 . S
C1987 C1989 1.387 . S
H1988 C1995 0.950 . S
C1989 C1987 1.387 . S
C1989 C1991 1.390 . S
C1989 H1993 0.950 . S
H1990 C1986 0.950 . S
C1991 C1989 1.390 . S
C1991 C1992 1.387 . S
C1991 H1994 0.950 . S
C1992 C1991 1.387 . S
C1992 C1995 1.387 . S
H1993 C1989 0.950 . S
H1994 C1991 0.950 . S
C1995 C1986 1.390 . S
C1995 H1988 0.950 . S
C1995 C1992 1.387 . S
C1996 C1997 1.387 . S
C1996 H2000 0.950 1_565 S
C1996 C2005 1.390 . S
C1997 C1996 1.387 . S
C1997 C1999 1.387 . S
H1998 C2005 0.950 1_545 S
C1999 C1997 1.387 . S
C1999 C2001 1.390 . S
C1999 H2003 0.950 . S
H2000 C1996 0.950 1_545 S
C2001 C1999 1.390 . S
C2001 C2002 1.387 . S
C2001 H2004 0.950 . S
C2002 C2001 1.387 . S
C2002 C2005 1.387 . S
H2003 C1999 0.950 . S
H2004 C2001 0.950 . S
C2005 C1996 1.390 . S
C2005 H1998 0.950 1_565 S
C2005 C2002 1.387 . S
C2006 C2007 1.387 . S
C2006 H2010 0.950 . S
C2006 C2015 1.390 . S
C2007 C2006 1.387 . S
C2007 C2009 1.387 . S
H2008 C2015 0.950 . S
C2009 C2007 1.387 . S
C2009 C2011 1.390 . S
C2009 H2013 0.950 . S
H2010 C2006 0.950 . S
C2011 C2009 1.390 . S
C2011 C2012 1.387 . S
C2011 H2014 0.950 . S
C2012 C2011 1.387 . S
C2012 C2015 1.387 . S
H2013 C2009 0.950 . S
H2014 C2011 0.950 . S
C2015 C2006 1.390 . S
C2015 H2008 0.950 . S
C2015 C2012 1.387 . S
C1297 C14 1.391 . S
C1302 C410 1.394 . S
C1307 C338 1.394 . S
C1312 C50 1.392 . S
C1317 C374 1.394 . S
C1322 C86 1.392 . S
C1327 C122 1.392 . S
C1332 C266 1.394 . S
C1337 C158 1.392 . S
C1342 C302 1.394 . S
C1347 C194 1.395 . S
C1352 C230 1.391 . S
C1357 C446 1.391 . S
C1362 C842 1.395 . S
C1367 C770 1.392 . S
C1372 C482 1.394 . S
C1377 C518 1.394 . S
C1382 C806 1.392 . S
C1387 C554 1.392 . S
C1392 C698 1.394 . S
C1397 C590 1.394 . S
C1402 C734 1.392 . S
C1407 C626 1.391 . S
C1412 C662 1.395 . S
C1417 C878 1.391 . S
C1422 C1274 1.395 . S
C1427 C914 1.392 . S
C1432 C1202 1.394 . S
C1437 C1238 1.394 . S
C1442 C950 1.392 . S
C1447 C986 1.392 . S
C1452 C1130 1.394 . S
C1457 C1166 1.394 . S
C1462 C1022 1.392 . S
C1467 C1094 1.395 . S
C1472 C1058 1.391 . S
C1477 C3 1.341 . S
C1482 C543 1.350 . S
C1487 C39 1.342 . S
C1492 C579 1.342 . S
C1497 C75 1.340 . S
C1502 C615 1.341 . S
C1507 C111 1.340 . S
C1512 C867 1.348 . S
C1517 C903 1.340 . S
C1522 C147 1.340 . S
C1527 C939 1.342 . S
C1532 C183 1.342 . S
C1537 C219 1.341 . S
C1542 C1191 1.340 . S
C1547 C1227 1.340 . S
C1552 C255 1.340 . S
C1557 C291 1.340 . S
C1562 C1263 1.342 . S
C1567 C327 1.342 . S
C1572 C651 1.342 . S
C1577 C363 1.342 . S
C1582 C687 1.344 . S
C1587 C399 1.342 . S
C1592 C723 1.341 . S
C1597 C975 1.340 . S
C1602 C435 1.340 . S
C1607 C471 1.342 . S
C1612 C1011 1.342 . S
C1617 C507 1.340 . S
C1622 C1047 1.340 . S
C1627 C1083 1.340 . S
C1632 C759 1.340 . S
C1637 C1119 1.342 . S
C1642 C795 1.342 . S
C1647 C831 1.341 . S
C1652 C1155 1.342 . S
C1657 C4 1.360 . S
C1662 C148 1.359 . S
C1667 C184 1.360 . S
C1672 C40 1.360 . S
C1677 C112 1.359 . S
C1682 C76 1.359 . S
C1687 C220 1.359 . S
C1692 C364 1.361 . S
C1697 C400 1.358 . S
C1702 C256 1.361 . S
C1707 C292 1.359 . S
C1712 C328 1.359 . S
C1717 C580 1.361 . S
C1722 C436 1.359 . S
C1727 C472 1.361 . S
C1732 C616 1.358 . S
C1737 C508 1.359 . S
C1742 C544 1.359 . S
C1747 C796 1.358 . S
C1752 C652 1.360 . S
C1757 C832 1.360 . S
C1762 C688 1.358 . S
C1767 C760 1.359 . S
C1772 C724 1.359 . S
C1777 C868 1.359 . S
C1782 C1012 1.359 . S
C1787 C904 1.358 . S
C1792 C1048 1.360 . S
C1797 C940 1.360 . S
C1802 C976 1.358 . S
C1807 C1228 1.361 . S
C1812 C1084 1.359 . S
C1817 C1264 1.359 . S
C1822 C1120 1.361 . S
C1827 C1192 1.360 . S
C1832 C1156 1.360 . S
C1837 C326 1.557 . S
C1842 C2 1.559 . S
C1847 C362 1.558 . S
C1852 C38 1.558 . S
C1857 C74 1.558 . S
C1862 C398 1.557 . S
C1867 C110 1.559 . S
C1872 C218 1.557 . S
C1877 C254 1.558 . S
C1882 C146 1.558 . S
C1887 C182 1.559 . S
C1892 C290 1.557 . S
C1897 C758 1.559 . S
C1902 C434 1.557 . S
C1907 C794 1.558 . S
C1912 C470 1.558 . S
C1917 C506 1.559 . S
C1922 C830 1.557 . S
C1927 C650 1.559 . S
C1932 C542 1.557 . S
C1937 C686 1.558 . S
C1942 C578 1.558 . S
C1947 C722 1.557 . S
C1952 C614 1.559 . S
C1957 C866 1.559 . S
C1962 C1190 1.557 . S
C1967 C1226 1.558 . S
C1972 C902 1.558 . S
C1977 C938 1.559 . S
C1982 C1262 1.557 . S
C1987 C974 1.559 . S
C1992 C1082 1.557 . S
C1997 C1010 1.558 . S
C2002 C1118 1.558 . S
C2007 C1154 1.559 . S
C2012 C1046 1.557 . S
