# Generated by pormake.
# Topology snw, (6)-cn, num edge types: 1
# Building blocks:
#     Node 0, Type 0, BuildingBlock: IZENUY_clean_sbu_0, # of connection points: 6
#     Node 1, Type 0, BuildingBlock: IZENUY_clean_sbu_0, # of connection points: 6
#     Node 2, Type 0, BuildingBlock: IZENUY_clean_sbu_0, # of connection points: 6
#     Node 3, Type 0, BuildingBlock: IZENUY_clean_sbu_0, # of connection points: 6
#     Node 4, Type 0, BuildingBlock: IZENUY_clean_sbu_0, # of connection points: 6
#     Node 5, Type 0, BuildingBlock: IZENUY_clean_sbu_0, # of connection points: 6
#     Node 6, Type 0, BuildingBlock: IZENUY_clean_sbu_0, # of connection points: 6
#     Node 7, Type 0, BuildingBlock: IZENUY_clean_sbu_0, # of connection points: 6
#     Edge 8, Type (0, 0), BuildingBlock: ZUJKAS_clean_linker_0, # of connection points: 2
#     Edge 9, Type (0, 0), BuildingBlock: ZUJKAS_clean_linker_0, # of connection points: 2
#     Edge 10, Type (0, 0), BuildingBlock: ZUJKAS_clean_linker_0, # of connection points: 2
#     Edge 11, Type (0, 0), BuildingBlock: ZUJKAS_clean_linker_0, # of connection points: 2
#     Edge 12, Type (0, 0), BuildingBlock: ZUJKAS_clean_linker_0, # of connection points: 2
#     Edge 13, Type (0, 0), BuildingBlock: ZUJKAS_clean_linker_0, # of connection points: 2
#     Edge 14, Type (0, 0), BuildingBlock: ZUJKAS_clean_linker_0, # of connection points: 2
#     Edge 15, Type (0, 0), BuildingBlock: ZUJKAS_clean_linker_0, # of connection points: 2
#     Edge 16, Type (0, 0), BuildingBlock: ZUJKAS_clean_linker_0, # of connection points: 2
#     Edge 17, Type (0, 0), BuildingBlock: ZUJKAS_clean_linker_0, # of connection points: 2
#     Edge 18, Type (0, 0), BuildingBlock: ZUJKAS_clean_linker_0, # of connection points: 2
#     Edge 19, Type (0, 0), BuildingBlock: ZUJKAS_clean_linker_0, # of connection points: 2
#     Edge 20, Type (0, 0), BuildingBlock: ZUJKAS_clean_linker_0, # of connection points: 2
#     Edge 21, Type (0, 0), BuildingBlock: ZUJKAS_clean_linker_0, # of connection points: 2
#     Edge 22, Type (0, 0), BuildingBlock: ZUJKAS_clean_linker_0, # of connection points: 2
#     Edge 23, Type (0, 0), BuildingBlock: ZUJKAS_clean_linker_0, # of connection points: 2
#     Edge 24, Type (0, 0), BuildingBlock: ZUJKAS_clean_linker_0, # of connection points: 2
#     Edge 25, Type (0, 0), BuildingBlock: ZUJKAS_clean_linker_0, # of connection points: 2
#     Edge 26, Type (0, 0), BuildingBlock: ZUJKAS_clean_linker_0, # of connection points: 2
#     Edge 27, Type (0, 0), BuildingBlock: ZUJKAS_clean_linker_0, # of connection points: 2
#     Edge 28, Type (0, 0), BuildingBlock: ZUJKAS_clean_linker_0, # of connection points: 2
#     Edge 29, Type (0, 0), BuildingBlock: ZUJKAS_clean_linker_0, # of connection points: 2
#     Edge 30, Type (0, 0), BuildingBlock: ZUJKAS_clean_linker_0, # of connection points: 2
#     Edge 31, Type (0, 0), BuildingBlock: ZUJKAS_clean_linker_0, # of connection points: 2
# Relax obj value: 0.015
# Max RMSD: 0.047
# Mean RMSD: 0.047
data_MOF--net-snw--node1-IZENUY_clean_sbu_0--edge1-ZUJKAS_clean_linker_0
_symmetry_space_group_name_H-M    P1
_symmetry_Int_Tables_number       1
_symmetry_cell_setting            triclinic
loop_
_symmetry_equiv_pos_as_xyz
'x, y, z'
_cell_length_a     26.165285
_cell_length_b     26.175207
_cell_length_c     95.581677
_cell_angle_alpha  90.013637
_cell_angle_beta   89.994955
_cell_angle_gamma 90.001627
loop_
_atom_site_label
_atom_site_type_symbol
_atom_site_fract_x
_atom_site_fract_y
_atom_site_fract_z
_atom_type_partial_charge
Fe0 Fe 0.01885 0.25697 0.1147 0.0
Fe1 Fe 0.07801 0.25446 0.08702 0.0
O2 O 0.01918 0.25655 0.09619 0.0
Fe3 Fe 0.96062 0.25821 0.0869 0.0
O4 O 0.92689 0.29743 0.09998 0.0
O5 O 0.98645 0.31799 0.11516 0.0
O6 O 0.07896 0.29233 0.11646 0.0
C7 C 0.10209 0.32137 0.10798 0.0
C8 C 0.93577 0.1923 0.10797 0.0
O9 O 0.09933 0.31378 0.09497 0.0
C10 C 0.0211 0.18905 0.07105 0.0
O11 O 0.0513 0.19596 0.11546 0.0
O12 O 0.11119 0.2156 0.10026 0.0
O13 O 0.93937 0.19904 0.09494 0.0
O14 O 0.95858 0.22174 0.11642 0.0
C15 C 0.01793 0.32322 0.07092 0.0
O16 O 0.06072 0.19513 0.0784 0.0
O17 O 0.98362 0.21944 0.07215 0.0
C18 C 0.09418 0.18717 0.10995 0.0
O19 O 0.05543 0.29288 0.07216 0.0
O20 O 0.97808 0.31728 0.07819 0.0
C21 C 0.94363 0.32639 0.10959 0.0
Fe22 Fe 0.02197 0.81365 0.33728 0.0
Fe23 Fe 0.01688 0.7534 0.36481 0.0
O24 O 0.01888 0.75452 0.3463 0.0
Fe25 Fe 0.01792 0.69627 0.33685 0.0
O26 O 0.05757 0.71968 0.32234 0.0
O27 O 0.08182 0.7963 0.32894 0.0
O28 O 0.06006 0.84617 0.35081 0.0
C29 C 0.08735 0.82882 0.3607 0.0
C30 C 0.95395 0.75415 0.32073 0.0
O31 O 0.07777 0.78589 0.36607 0.0
C32 C 0.94792 0.67844 0.35904 0.0
O33 O 0.96236 0.83542 0.34495 0.0
O34 O 0.98114 0.81322 0.36653 0.0
O35 O 0.95946 0.71408 0.32792 0.0
O36 O 0.98427 0.79161 0.32218 0.0
C37 C 0.08224 0.67065 0.35821 0.0
O38 O 0.95585 0.72102 0.36478 0.0
O39 O 0.97783 0.66197 0.34963 0.0
C40 C 0.95336 0.83713 0.3579 0.0
O41 O 0.05212 0.69312 0.36655 0.0
O42 O 0.07657 0.67482 0.34515 0.0
C43 C 0.08815 0.75706 0.32148 0.0
Fe44 Fe 0.57735 0.7553 0.58713 0.0
Fe45 Fe 0.45947 0.75633 0.58731 0.0
O46 O 0.51861 0.75529 0.59638 0.0
Fe47 Fe 0.51891 0.75412 0.6149 0.0
O48 O 0.55226 0.81456 0.61568 0.0
O49 O 0.61142 0.79393 0.60029 0.0
O50 O 0.56207 0.8148 0.5784 0.0
C51 C 0.52223 0.82336 0.57135 0.0
C52 C 0.60046 0.68837 0.60815 0.0
O53 O 0.48285 0.79562 0.57273 0.0
C54 C 0.44271 0.68608 0.60949 0.0
O55 O 0.55339 0.71721 0.57237 0.0
O56 O 0.47427 0.69761 0.57811 0.0
O57 O 0.57851 0.71844 0.61653 0.0
O58 O 0.59725 0.69538 0.59513 0.0
C59 C 0.43749 0.82102 0.60891 0.0
O60 O 0.42564 0.71669 0.60031 0.0
O61 O 0.4857 0.6935 0.61511 0.0
C62 C 0.51396 0.68956 0.57094 0.0
O63 O 0.44028 0.8155 0.59583 0.0
O64 O 0.45934 0.78971 0.61698 0.0
C65 C 0.59489 0.82294 0.60994 0.0
Fe66 Fe 0.51831 0.31557 0.83745 0.0
Fe67 Fe 0.51792 0.25546 0.86493 0.0
O68 O 0.51867 0.25628 0.84641 0.0
Fe69 Fe 0.5196 0.19784 0.83704 0.0
O70 O 0.57875 0.21444 0.82829 0.0
O71 O 0.55778 0.2933 0.82276 0.0
O72 O 0.5773 0.33581 0.8459 0.0
C73 C 0.58298 0.33847 0.85898 0.0
C74 C 0.45244 0.26026 0.82103 0.0
O75 O 0.55238 0.31564 0.86706 0.0
C76 C 0.45351 0.17291 0.8581 0.0
O77 O 0.47833 0.34827 0.85057 0.0
O78 O 0.45662 0.28749 0.86532 0.0
O79 O 0.48107 0.2215 0.82233 0.0
O80 O 0.45957 0.29974 0.82835 0.0
C81 C 0.58807 0.18098 0.85966 0.0
O82 O 0.48342 0.19515 0.86647 0.0
O83 O 0.4601 0.17668 0.84507 0.0
C84 C 0.44824 0.33042 0.85977 0.0
O85 O 0.57907 0.22325 0.86552 0.0
O86 O 0.55895 0.16413 0.85008 0.0
C87 C 0.58635 0.25456 0.82129 0.0
Fe88 Fe 0.0782 0.75461 0.94222 0.0
Fe89 Fe 0.9606 0.75816 0.94248 0.0
O90 O 0.0191 0.75597 0.93316 0.0
Fe91 Fe 0.01861 0.75499 0.91465 0.0
O92 O 0.05012 0.6934 0.91432 0.0
O93 O 0.11082 0.71456 0.92913 0.0
O94 O 0.06119 0.69599 0.95123 0.0
C95 C 0.02146 0.68981 0.95853 0.0
C96 C 0.10197 0.8194 0.92077 0.0
O97 O 0.98351 0.71953 0.95725 0.0
C98 C 0.94464 0.82599 0.91967 0.0
O99 O 0.05616 0.79401 0.95693 0.0
O100 O 0.97825 0.8173 0.95113 0.0
O101 O 0.07913 0.78904 0.91262 0.0
O102 O 0.0993 0.81341 0.93385 0.0
C103 C 0.93526 0.69163 0.92151 0.0
O104 O 0.92749 0.79757 0.92935 0.0
O105 O 0.98695 0.81639 0.9139 0.0
C106 C 0.01829 0.82377 0.95828 0.0
O107 O 0.93861 0.69885 0.93453 0.0
O108 O 0.95802 0.72091 0.91307 0.0
C109 C 0.09295 0.68471 0.91988 0.0
Fe110 Fe 0.51802 0.69816 0.19258 0.0
Fe111 Fe 0.52155 0.81553 0.19243 0.0
O112 O 0.51941 0.7567 0.18326 0.0
Fe113 Fe 0.51863 0.75634 0.16474 0.0
O114 O 0.45785 0.7235 0.16436 0.0
O115 O 0.4788 0.66419 0.17955 0.0
O116 O 0.45898 0.71552 0.20132 0.0
C117 C 0.45311 0.7553 0.20862 0.0
C118 C 0.58418 0.6739 0.17146 0.0
O119 O 0.48339 0.79284 0.20735 0.0
C120 C 0.58826 0.83194 0.16938 0.0
O121 O 0.55695 0.72134 0.20729 0.0
O122 O 0.58107 0.79834 0.20094 0.0
O123 O 0.55455 0.69647 0.16301 0.0
O124 O 0.57709 0.677 0.18449 0.0
C125 C 0.45397 0.83936 0.17159 0.0
O126 O 0.5602 0.84885 0.17916 0.0
O127 O 0.57928 0.78919 0.16385 0.0
C128 C 0.58735 0.75886 0.20831 0.0
O129 O 0.46204 0.83676 0.18458 0.0
O130 O 0.48268 0.81613 0.16304 0.0
C131 C 0.4497 0.68071 0.16996 0.0
Fe132 Fe 0.57713 0.25674 0.44276 0.0
Fe133 Fe 0.45952 0.25497 0.44283 0.0
O134 O 0.51825 0.25477 0.43358 0.0
Fe135 Fe 0.51836 0.25245 0.41507 0.0
O136 O 0.55331 0.19276 0.41509 0.0
O137 O 0.61245 0.21825 0.42983 0.0
O138 O 0.56279 0.19769 0.45187 0.0
C139 C 0.52316 0.18989 0.4591 0.0
C140 C 0.59832 0.32176 0.42123 0.0
O141 O 0.48401 0.21805 0.45776 0.0
C142 C 0.4406 0.31997 0.41953 0.0
O143 O 0.5528 0.29551 0.45734 0.0
O144 O 0.47432 0.31532 0.45122 0.0
O145 O 0.57696 0.29029 0.41304 0.0
O146 O 0.5953 0.31608 0.4343 0.0
C147 C 0.43752 0.18564 0.42225 0.0
O148 O 0.42474 0.29205 0.42948 0.0
O149 O 0.48337 0.31177 0.41389 0.0
C150 C 0.51377 0.32386 0.45842 0.0
O151 O 0.44025 0.19444 0.4352 0.0
O152 O 0.45978 0.21448 0.41357 0.0
C153 C 0.59671 0.18726 0.42059 0.0
Fe154 Fe 0.01831 0.19714 0.69283 0.0
Fe155 Fe 0.01888 0.31479 0.69245 0.0
O156 O 0.01892 0.25557 0.68346 0.0
Fe157 Fe 0.01977 0.25481 0.66494 0.0
O158 O 0.95903 0.22185 0.66429 0.0
O159 O 0.97952 0.16297 0.67974 0.0
O160 O 0.95889 0.2133 0.7015 0.0
C161 C 0.95109 0.25333 0.70853 0.0
C162 C 0.08503 0.17295 0.67184 0.0
O163 O 0.97968 0.29209 0.70715 0.0
C164 C 0.08849 0.33069 0.67007 0.0
O165 O 0.05644 0.22114 0.70757 0.0
O166 O 0.07783 0.29934 0.7015 0.0
O167 O 0.05512 0.19494 0.66341 0.0
O168 O 0.07809 0.17658 0.68486 0.0
C169 C 0.95379 0.33712 0.67097 0.0
O170 O 0.05839 0.34803 0.67934 0.0
O171 O 0.08065 0.28763 0.66455 0.0
C172 C 0.08506 0.25993 0.70885 0.0
O173 O 0.9597 0.3345 0.68405 0.0
O174 O 0.98444 0.31457 0.66284 0.0
C175 C 0.95046 0.17944 0.6701 0.0
H176 H 0.94197 0.39031 0.06347 0.0
H177 H 0.94299 0.45204 0.04423 0.0
H178 H 0.09715 0.40752 0.03398 0.0
H179 H 0.09643 0.34541 0.05303 0.0
H180 H 0.00925 0.53482 0.03934 0.0
H181 H 0.02171 0.39146 0.99665 0.0
H182 H 1.00454 0.3746 1.01435 0.0
H183 H 0.07033 0.38534 1.00981 0.0
C184 C 0.97612 0.39361 0.05713 0.0
C185 C 0.01895 0.36249 0.05973 0.0
C186 C 0.97662 0.42892 0.04614 0.0
C187 C 0.01978 0.43364 0.03751 0.0
C188 C 0.06301 0.40365 0.0403 0.0
H189 H 0.09798 0.62325 0.96593 0.0
H190 H 0.09759 0.56156 0.98519 0.0
C191 C 0.06258 0.36835 0.05126 0.0
C192 C 0.01986 0.4703 0.02568 0.0
H193 H 0.03166 0.47837 0.99015 0.0
C194 C 0.0139 0.52252 0.02858 0.0
C195 C 0.02608 0.45408 1.01166 0.0
C196 C 0.03058 0.39829 1.00787 0.0
C197 C 0.01485 0.5591 0.01784 0.0
C198 C 0.02102 0.54289 1.00381 0.0
C199 C 0.02704 0.49068 1.00092 0.0
C200 C 0.02078 0.57953 0.99198 0.0
C201 C 0.01033 0.6149 0.02163 0.0
C202 C 0.97733 0.60925 0.98923 0.0
C203 C 0.9774 0.64451 0.97826 0.0
C204 C 0.02088 0.65061 0.96974 0.0
C205 C 0.06394 0.61977 0.97231 0.0
C206 C 0.0638 0.58448 0.98331 0.0
H207 H 0.01932 0.62175 0.03283 0.0
H208 H 0.03625 0.63862 1.01511 0.0
H209 H 0.97053 0.62779 0.01972 0.0
H210 H 0.94331 0.6052 0.99559 0.0
H211 H 0.94339 0.66723 0.97653 0.0
H212 H 0.6096 0.68186 0.22668 0.0
H213 H 0.67221 0.68259 0.24564 0.0
H214 H 0.71845 0.8348 0.23394 0.0
H215 H 0.65548 0.83479 0.21501 0.0
H216 H 0.77861 0.69605 0.24458 0.0
H217 H 0.685 0.84877 0.27578 0.0
H218 H 0.65292 0.81596 0.26167 0.0
H219 H 0.69839 0.86555 0.25793 0.0
C220 C 0.63302 0.71558 0.22811 0.0
C221 C 0.62713 0.75847 0.21938 0.0
C222 C 0.66884 0.71586 0.23896 0.0
C223 C 0.69933 0.75905 0.24134 0.0
C224 C 0.69452 0.80147 0.23246 0.0
H225 H 0.93379 0.83205 0.30243 0.0
H226 H 0.87237 0.83258 0.28316 0.0
C227 C 0.6587 0.80126 0.22159 0.0
C228 C 0.73636 0.75939 0.25309 0.0
H229 H 0.76571 0.8199 0.28373 0.0
C230 C 0.77576 0.72301 0.25316 0.0
C231 C 0.73248 0.79463 0.26427 0.0
C232 C 0.6897 0.8332 0.26504 0.0
C233 C 0.8119 0.72139 0.26402 0.0
C234 C 0.80793 0.75653 0.27522 0.0
C235 C 0.76863 0.79302 0.27513 0.0
C236 C 0.84436 0.75618 0.2871 0.0
C237 C 0.85462 0.68276 0.26326 0.0
C238 C 0.84827 0.71339 0.29588 0.0
C239 C 0.88336 0.7129 0.30692 0.0
C240 C 0.91511 0.75534 0.30942 0.0
C241 C 0.91018 0.7986 0.30078 0.0
C242 C 0.87506 0.79903 0.28976 0.0
H243 H 0.85971 0.66767 0.25248 0.0
H244 H 0.89131 0.69973 0.2668 0.0
H245 H 0.84552 0.6501 0.27023 0.0
H246 H 0.82414 0.68033 0.2942 0.0
H247 H 0.88581 0.67909 0.31342 0.0
H248 H 0.43111 0.63745 0.56065 0.0
H249 H 0.42981 0.57498 0.54155 0.0
H250 H 0.59295 0.5899 0.53689 0.0
H251 H 0.59479 0.65259 0.55588 0.0
H252 H 0.47414 0.5949 0.51235 0.0
H253 H 0.55916 0.43076 0.54113 0.0
H254 H 0.52678 0.48258 0.54995 0.0
H255 H 0.58985 0.49194 0.54307 0.0
C256 C 0.46679 0.62727 0.55563 0.0
C257 C 0.51307 0.65011 0.55979 0.0
C258 C 0.46591 0.59168 0.5447 0.0
C259 C 0.5113 0.57778 0.5379 0.0
C260 C 0.55758 0.59996 0.5421 0.0
H261 H 0.59446 0.36205 0.47325 0.0
H262 H 0.59257 0.42547 0.492 0.0
C263 C 0.55849 0.63587 0.55293 0.0
C264 C 0.51028 0.54098 0.52615 0.0
H265 H 0.54581 0.42022 0.51689 0.0
C266 C 0.48954 0.55658 0.51331 0.0
C267 C 0.53077 0.49132 0.52748 0.0
C268 C 0.55269 0.47272 0.54115 0.0
C269 C 0.48969 0.52402 0.50162 0.0
C270 C 0.5099 0.47404 0.50295 0.0
C271 C 0.53035 0.45848 0.51586 0.0
C272 C 0.51077 0.43732 0.49109 0.0
C273 C 0.46968 0.54409 0.48787 0.0
C274 C 0.46542 0.42282 0.4843 0.0
C275 C 0.46644 0.38692 0.47345 0.0
C276 C 0.51276 0.3641 0.46935 0.0
C277 C 0.55811 0.37875 0.47616 0.0
C278 C 0.5571 0.41499 0.4869 0.0
H279 H 0.46993 0.58653 0.48757 0.0
H280 H 0.49265 0.52958 0.47894 0.0
H281 H 0.42959 0.53127 0.48646 0.0
H282 H 0.42903 0.43851 0.48757 0.0
H283 H 0.43075 0.37618 0.46852 0.0
H284 H 0.64051 0.17304 0.81106 0.0
H285 H 0.70281 0.17305 0.79194 0.0
H286 H 0.68441 0.33576 0.78727 0.0
H287 H 0.62178 0.3363 0.8063 0.0
H288 H 0.68063 0.21743 0.76275 0.0
H289 H 0.84474 0.30441 0.79118 0.0
H290 H 0.79399 0.27079 0.80012 0.0
H291 H 0.78291 0.33366 0.79332 0.0
C292 C 0.64991 0.20893 0.80605 0.0
C293 C 0.62605 0.25469 0.81021 0.0
C294 C 0.68541 0.20879 0.7951 0.0
C295 C 0.69823 0.25441 0.78827 0.0
C296 C 0.67516 0.30023 0.7925 0.0
H297 H 0.91404 0.33523 0.72312 0.0
H298 H 0.85074 0.33494 0.74192 0.0
C299 C 0.63931 0.30039 0.80335 0.0
C300 C 0.73466 0.25397 0.77644 0.0
H301 H 0.85524 0.28965 0.76701 0.0
C302 C 0.7189 0.23302 0.76364 0.0
C303 C 0.78424 0.27475 0.77768 0.0
C304 C 0.80293 0.297 0.79131 0.0
C305 C 0.75131 0.23301 0.75192 0.0
C306 C 0.80133 0.25324 0.75318 0.0
C307 C 0.81697 0.27414 0.76604 0.0
C308 C 0.83812 0.25324 0.74134 0.0
C309 C 0.73108 0.21265 0.73823 0.0
C310 C 0.85222 0.20741 0.73474 0.0
C311 C 0.88801 0.20751 0.72387 0.0
C312 C 0.91117 0.25339 0.71955 0.0
C313 C 0.89704 0.29921 0.7262 0.0
C314 C 0.86088 0.29911 0.73696 0.0
H315 H 0.68863 0.21332 0.73793 0.0
H316 H 0.74583 0.23509 0.72923 0.0
H317 H 0.74348 0.17239 0.73694 0.0
H318 H 0.83624 0.17136 0.73816 0.0
H319 H 0.89834 0.17146 0.71907 0.0
H320 H 0.38249 0.33547 0.81518 0.0
H321 H 0.31977 0.33702 0.79617 0.0
H322 H 0.37044 0.18839 0.78256 0.0
H323 H 0.43336 0.18644 0.80143 0.0
H324 H 0.36235 0.26299 0.7608 0.0
H325 H 0.18666 0.25132 0.79338 0.0
H326 H 0.23124 0.30057 0.79818 0.0
H327 H 0.24911 0.23469 0.80001 0.0
C328 C 0.38018 0.30297 0.80819 0.0
C329 C 0.41303 0.26081 0.80986 0.0
C330 C 0.34416 0.30387 0.79737 0.0
C331 C 0.34023 0.26264 0.78804 0.0
C332 C 0.37283 0.22055 0.78967 0.0
H333 H 0.10385 0.18649 0.72855 0.0
H334 H 0.16677 0.18858 0.74741 0.0
C335 C 0.4087 0.21949 0.8005 0.0
C336 C 0.30292 0.26365 0.77637 0.0
H337 H 0.17516 0.26386 0.76907 0.0
C338 C 0.32141 0.26328 0.76258 0.0
C339 C 0.24959 0.26356 0.77877 0.0
C340 C 0.22772 0.26214 0.79337 0.0
C341 C 0.28791 0.26307 0.7511 0.0
C342 C 0.23459 0.26367 0.75349 0.0
C343 C 0.2161 0.26378 0.76728 0.0
C344 C 0.19727 0.2626 0.74183 0.0
C345 C 0.30975 0.26113 0.7365 0.0
C346 C 0.1935 0.30366 0.73245 0.0
C347 C 0.15745 0.30269 0.72163 0.0
C348 C 0.12445 0.26062 0.72002 0.0
C349 C 0.12863 0.21947 0.72943 0.0
C350 C 0.1645 0.2206 0.74026 0.0
H351 H 0.35077 0.25014 0.73651 0.0
H352 H 0.28823 0.23355 0.72992 0.0
H353 H 0.30636 0.29942 0.73161 0.0
H354 H 0.21803 0.33673 0.73359 0.0
H355 H 0.15526 0.33505 0.7146 0.0
H356 H 0.43276 0.8325 0.22711 0.0
H357 H 0.37153 0.83227 0.2464 0.0
H358 H 0.3232 0.68046 0.23493 0.0
H359 H 0.38482 0.67995 0.21567 0.0
H360 H 0.26529 0.82003 0.24602 0.0
H361 H 0.35915 0.66576 0.27651 0.0
H362 H 0.39053 0.69818 0.26223 0.0
H363 H 0.34424 0.64905 0.25875 0.0
C364 C 0.40916 0.79897 0.22866 0.0
C365 C 0.4141 0.75603 0.21989 0.0
C366 C 0.37414 0.79898 0.2397 0.0
C367 C 0.34348 0.75603 0.24225 0.0
C368 C 0.34731 0.71358 0.23333 0.0
H369 H 0.11018 0.68054 0.30295 0.0
H370 H 0.17246 0.6817 0.28393 0.0
C371 C 0.38235 0.7135 0.22227 0.0
C372 C 0.30729 0.75595 0.2542 0.0
H373 H 0.27862 0.69449 0.28473 0.0
C374 C 0.26828 0.79275 0.25452 0.0
C375 C 0.31138 0.72034 0.26528 0.0
C376 C 0.35382 0.68134 0.2658 0.0
C377 C 0.23257 0.79424 0.26548 0.0
C378 C 0.23658 0.75854 0.27654 0.0
C379 C 0.27567 0.72183 0.27624 0.0
C380 C 0.19991 0.75793 0.28838 0.0
C381 C 0.19009 0.83319 0.26496 0.0
C382 C 0.1954 0.80006 0.29739 0.0
C383 C 0.15972 0.79961 0.3083 0.0
C384 C 0.12803 0.75687 0.31043 0.0
C385 C 0.1337 0.71423 0.30159 0.0
C386 C 0.16934 0.71475 0.2907 0.0
H387 H 0.1851 0.8492 0.25428 0.0
H388 H 0.15329 0.81615 0.26838 0.0
H389 H 0.19934 0.86521 0.27213 0.0
H390 H 0.2194 0.83336 0.29596 0.0
H391 H 0.15666 0.83295 0.31496 0.0
H392 H 0.60575 0.1373 0.46937 0.0
H393 H 0.60658 0.07457 0.48841 0.0
H394 H 0.4435 0.09032 0.49301 0.0
H395 H 0.44213 0.15326 0.4741 0.0
H396 H 0.56146 0.09464 0.51767 0.0
H397 H 0.47709 0.93086 0.48855 0.0
H398 H 0.51009 0.98254 0.47985 0.0
H399 H 0.44683 0.99223 0.48657 0.0
C400 C 0.56999 0.12725 0.47437 0.0
C401 C 0.52386 0.1504 0.47022 0.0
C402 C 0.57061 0.09152 0.48526 0.0
C403 C 0.52509 0.07778 0.49203 0.0
C404 C 0.47896 0.10027 0.48783 0.0
H405 H 0.44131 0.86105 0.55647 0.0
H406 H 0.44302 0.92453 0.53773 0.0
C407 C 0.47833 0.13633 0.47705 0.0
C408 C 0.5258 0.04084 0.50374 0.0
H409 H 0.49012 0.91993 0.51279 0.0
C410 C 0.54613 0.05632 0.51663 0.0
C411 C 0.50536 0.99119 0.50231 0.0
C412 C 0.4838 0.97277 0.48857 0.0
C413 C 0.54569 0.02361 0.52829 0.0
C414 C 0.52561 0.97361 0.52686 0.0
C415 C 0.50549 0.9582 0.51389 0.0
C416 C 0.52477 0.93666 0.53866 0.0
C417 C 0.56531 0.04353 0.5421 0.0
C418 C 0.57017 0.92224 0.54542 0.0
C419 C 0.56926 0.88632 0.55625 0.0
C420 C 0.523 0.86338 0.56037 0.0
C421 C 0.47761 0.87787 0.55355 0.0
C422 C 0.47852 0.91413 0.54282 0.0
H423 H 0.56486 0.08596 0.54245 0.0
H424 H 0.54221 0.02876 0.55096 0.0
H425 H 0.60542 0.03087 0.54356 0.0
H426 H 0.6065 0.93809 0.54217 0.0
H427 H 0.605 0.87574 0.56118 0.0
H428 H 0.09789 0.12299 0.06348 0.0
H429 H 0.09741 0.06142 0.04418 0.0
H430 H 0.94234 0.1036 0.03424 0.0
H431 H 0.94252 0.16553 0.05333 0.0
H432 H 0.03269 0.97766 0.03919 0.0
H433 H 0.01648 0.12184 0.99684 0.0
H434 H 0.03366 0.13858 1.01455 0.0
H435 H 0.96799 0.12677 1.01007 0.0
C436 C 0.06364 0.11918 0.0572 0.0
C437 C 0.02041 0.14964 0.05989 0.0
C438 C 0.06346 0.08397 0.04617 0.0
C439 C 0.0202 0.0787 0.03761 0.0
C440 C 0.97655 0.10793 0.04051 0.0
H441 H 0.94163 0.88969 0.96599 0.0
H442 H 0.94238 0.95113 0.98532 0.0
C443 C 0.97667 0.14314 0.05149 0.0
C444 C 0.02048 0.04233 0.0257 0.0
H445 H 0.00741 0.03494 0.99019 0.0
C446 C 0.02744 0.99015 0.02847 0.0
C447 C 0.01348 0.05878 1.01172 0.0
C448 C 0.00793 0.11458 1.00805 0.0
C449 C 0.02665 0.95381 0.01765 0.0
C450 C 0.01962 0.97027 1.00368 0.0
C451 C 0.01268 0.02245 1.00091 0.0
C452 C 0.01973 0.9339 0.99177 0.0
C453 C 0.03222 0.89801 0.02132 0.0
C454 C 0.06336 0.90472 0.98881 0.0
C455 C 0.06309 0.8696 0.9778 0.0
C456 C 0.01921 0.86312 0.96946 0.0
C457 C 0.97598 0.89349 0.97223 0.0
C458 C 0.97632 0.92863 0.98327 0.0
H459 H 0.02389 0.89075 0.03254 0.0
H460 H 0.00632 0.87405 1.01486 0.0
H461 H 0.0721 0.88577 0.01924 0.0
H462 H 0.09766 0.90904 0.99504 0.0
H463 H 0.09723 0.84723 0.97591 0.0
H464 H 0.42285 0.84894 0.14448 0.0
H465 H 0.35792 0.9063 0.13508 0.0
H466 H 0.32716 0.96328 0.17655 0.0
H467 H 0.39254 0.90603 0.18614 0.0
H468 H 0.25171 0.91376 0.14209 0.0
H469 H 0.35973 0.09267 0.15285 0.0
H470 H 0.38961 0.0305 0.15301 0.0
H471 H 0.35067 0.05043 0.16748 0.0
C472 C 0.40241 0.87365 0.15165 0.0
C473 C 0.41329 0.87321 0.16607 0.0
C474 C 0.36516 0.90628 0.14624 0.0
C475 C 0.33822 0.93935 0.1551 0.0
C476 C 0.34812 0.93847 0.16953 0.0
H477 H 0.07162 0.12019 0.13112 0.0
H478 H 0.12906 0.05866 0.14223 0.0
C479 C 0.38535 0.90563 0.17499 0.0
C480 C 0.30027 0.97506 0.14908 0.0
H481 H 0.27782 0.10149 0.14284 0.0
C482 C 0.25717 0.95484 0.14231 0.0
C483 C 0.308 0.02852 0.14925 0.0
C484 C 0.35464 0.05206 0.15593 0.0
C485 C 0.22151 0.98675 0.13567 0.0
C486 C 0.22907 0.04023 0.13593 0.0
C487 C 0.2721 0.06044 0.14272 0.0
C488 C 0.19353 0.07594 0.12888 0.0
C489 C 0.17678 0.96302 0.12812 0.0
C490 C 0.21089 0.10621 0.11775 0.0
C491 C 0.17827 0.14146 0.11138 0.0
C492 C 0.1277 0.14744 0.11611 0.0
C493 C 0.11028 0.11656 0.12719 0.0
C494 C 0.14296 0.08121 0.13353 0.0
H495 H 0.18239 0.92145 0.12635 0.0
H496 H 0.14171 0.96813 0.1345 0.0
H497 H 0.17045 0.98193 0.11787 0.0
H498 H 0.24986 0.10271 0.11403 0.0
H499 H 0.193 0.16459 0.10289 0.0
H500 H 0.1543 0.80426 0.3817 0.0
H501 H 0.21558 0.86073 0.39333 0.0
H502 H 0.17137 0.98421 0.36606 0.0
H503 H 0.10986 0.92833 0.35439 0.0
H504 H 0.29892 0.91788 0.38167 0.0
H505 H 0.15198 0.04212 0.40617 0.0
H506 H 0.13733 0.97984 0.39908 0.0
H507 H 0.14485 0.03368 0.38761 0.0
C508 C 0.15764 0.8434 0.37814 0.0
C509 C 0.1268 0.86187 0.36718 0.0
C510 C 0.19271 0.87556 0.3848 0.0
C511 C 0.1973 0.92678 0.3807 0.0
C512 C 0.16767 0.945 0.36954 0.0
H513 H 0.42809 0.15269 0.3953 0.0
H514 H 0.37149 0.08647 0.38624 0.0
C515 C 0.13274 0.91288 0.36283 0.0
C516 C 0.23309 0.96132 0.38808 0.0
H517 H 0.23805 0.07112 0.40732 0.0
C518 C 0.28568 0.9512 0.38736 0.0
C519 C 0.21556 1.00428 0.39567 0.0
C520 C 0.15933 0.01555 0.39732 0.0
C521 C 0.3214 0.98402 0.39364 0.0
C522 C 0.30396 0.02822 0.4007 0.0
C523 C 0.25129 0.03735 0.40182 0.0
C524 C 0.33976 0.06672 0.40642 0.0
C525 C 0.3775 0.97122 0.39266 0.0
C526 C 0.34016 0.07808 0.42078 0.0
C527 C 0.37248 0.11615 0.42603 0.0
C528 C 0.40447 0.14392 0.41696 0.0
C529 C 0.40397 0.13215 0.40259 0.0
C530 C 0.37189 0.09403 0.39739 0.0
H531 H 0.38366 0.93006 0.39036 0.0
H532 H 0.39496 0.99373 0.38406 0.0
H533 H 0.39767 0.98099 0.40253 0.0
H534 H 0.31533 0.05758 0.4279 0.0
H535 H 0.37187 0.12426 0.43714 0.0
H536 H 0.10739 0.15676 0.64438 0.0
H537 H 0.17071 0.09913 0.6345 0.0
H538 H 0.21819 0.05533 0.676 0.0
H539 H 0.15385 0.11274 0.68612 0.0
H540 H 0.27615 0.09723 0.6377 0.0
H541 H 0.1861 0.91829 0.65707 0.0
H542 H 0.15331 0.97895 0.65723 0.0
H543 H 0.20054 0.96482 0.67031 0.0
C544 C 0.13111 0.1349 0.65148 0.0
C545 C 0.12512 0.139 0.66608 0.0
C546 C 0.16745 0.10206 0.64577 0.0
C547 C 0.1986 0.0725 0.6545 0.0
C548 C 0.19377 0.0772 0.66909 0.0
H549 H 0.42678 0.84358 0.63654 0.0
H550 H 0.37076 0.90669 0.64724 0.0
C551 C 0.1572 0.11014 0.67485 0.0
C552 C 0.23569 0.03661 0.64816 0.0
H553 H 0.26419 0.90997 0.64491 0.0
C554 C 0.27365 0.05627 0.63928 0.0
C555 C 0.232 0.98323 0.65018 0.0
C556 C 0.19058 0.95984 0.65911 0.0
C557 C 0.30846 0.02393 0.63246 0.0
C558 C 0.30462 0.97058 0.63445 0.0
C559 C 0.26688 0.95095 0.6434 0.0
C560 C 0.3401 0.93426 0.62764 0.0
C561 C 0.34951 0.04709 0.62337 0.0
C562 C 0.34146 0.9289 0.61302 0.0
C563 C 0.37363 0.89265 0.6068 0.0
C564 C 0.40457 0.86101 0.61514 0.0
C565 C 0.4033 0.86706 0.62978 0.0
C566 C 0.37131 0.90316 0.63594 0.0
H567 H 0.35452 0.08854 0.62547 0.0
H568 H 0.38667 0.0275 0.62502 0.0
H569 H 0.33873 0.04247 0.61221 0.0
H570 H 0.31699 0.95208 0.60645 0.0
H571 H 0.37365 0.8889 0.59552 0.0
H572 H 0.16715 0.88561 0.9343 0.0
H573 H 0.22374 0.94926 0.92353 0.0
H574 H 0.16946 0.90562 0.88264 0.0
H575 H 0.11277 0.84285 0.89319 0.0
H576 H 0.30166 0.92977 0.90379 0.0
H577 H 0.15553 0.06132 0.88206 0.0
H578 H 0.14093 0.01449 0.89535 0.0
H579 H 0.14617 0.99562 0.87731 0.0
C580 C 0.16701 0.88989 0.92303 0.0
C581 C 0.13548 0.85907 0.91462 0.0
C582 C 0.19931 0.92621 0.9169 0.0
C583 C 0.20014 0.93259 0.90231 0.0
C584 C 0.16862 0.90205 0.89393 0.0
H585 H 0.38657 0.10968 0.84405 0.0
H586 H 0.32427 0.0505 0.85446 0.0
C587 C 0.13651 0.86585 0.90001 0.0
C588 C 0.2358 0.96919 0.89569 0.0
H589 H 0.24105 0.07318 0.87414 0.0
C590 C 0.28845 0.96136 0.89739 0.0
C591 C 0.21834 0.01002 0.88724 0.0
C592 C 0.16216 0.02127 0.88546 0.0
C593 C 0.32422 0.99291 0.89071 0.0
C594 C 0.30678 0.03375 0.88228 0.0
C595 C 0.25416 0.04157 0.88054 0.0
C596 C 0.34282 0.07033 0.87584 0.0
C597 C 0.38044 0.9819 0.89256 0.0
C598 C 0.37274 0.10162 0.88443 0.0
C599 C 0.40802 0.1352 0.87858 0.0
C600 C 0.41412 0.13838 0.86397 0.0
C601 C 0.38304 0.10791 0.85533 0.0
C602 C 0.34749 0.07418 0.86124 0.0
H603 H 0.38721 0.94229 0.89631 0.0
H604 H 0.4015 0.98756 0.88259 0.0
H605 H 0.39651 0.0086 0.90044 0.0
H606 H 0.36894 0.09989 0.89571 0.0
H607 H 0.43081 0.15846 0.88558 0.0
H608 H 0.85494 0.86264 0.93037 0.0
H609 H 0.79802 0.92623 0.92001 0.0
H610 H 0.90209 0.94475 0.88539 0.0
H611 H 0.95991 0.88206 0.89582 0.0
H612 H 0.86453 0.03617 0.89466 0.0
H613 H 0.70668 0.89788 0.88661 0.0
H614 H 0.72738 0.90188 0.90447 0.0
H615 H 0.77047 0.87818 0.89131 0.0
C616 C 0.86584 0.88031 0.92057 0.0
C617 C 0.91171 0.86679 0.91385 0.0
C618 C 0.83312 0.91647 0.91463 0.0
C619 C 0.84528 0.93931 0.90177 0.0
C620 C 0.89181 0.92726 0.89527 0.0
H621 H 0.62398 0.09176 0.84852 0.0
H622 H 0.68944 0.03526 0.85816 0.0
C623 C 0.92478 0.89137 0.90125 0.0
C624 C 0.80919 0.97529 0.89501 0.0
H625 H 0.68717 0.98536 0.88271 0.0
C626 C 0.82579 0.02508 0.89199 0.0
C627 C 0.75898 0.96041 0.89131 0.0
C628 C 0.7399 0.90654 0.89345 0.0
C629 C 0.79317 0.06074 0.88561 0.0
C630 C 0.7423 0.04646 0.88244 0.0
C631 C 0.72604 0.9964 0.88525 0.0
C632 C 0.70508 0.08262 0.87622 0.0
C633 C 0.81382 0.11302 0.88209 0.0
C634 C 0.69217 0.12808 0.88316 0.0
C635 C 0.65502 0.16068 0.87762 0.0
C636 C 0.62946 0.148 0.86514 0.0
C637 C 0.64276 0.10259 0.85817 0.0
C638 C 0.68018 0.07024 0.86366 0.0
H639 H 0.85619 0.1128 0.88131 0.0
H640 H 0.79779 0.12729 0.87207 0.0
H641 H 0.80306 0.14016 0.89051 0.0
H642 H 0.70999 0.13783 0.89303 0.0
H643 H 0.64552 0.1952 0.88331 0.0
H644 H 0.89351 0.19313 0.64635 0.0
H645 H 0.83005 0.13508 0.63644 0.0
H646 H 0.85103 0.03227 0.67123 0.0
H647 H 0.91554 0.08948 0.68106 0.0
H648 H 0.85385 0.98256 0.64663 0.0
H649 H 0.68401 0.10891 0.64802 0.0
H650 H 0.73702 0.13668 0.63886 0.0
H651 H 0.74222 0.12372 0.6573 0.0
C652 C 0.88434 0.1584 0.65198 0.0
C653 C 0.90971 0.14591 0.6645 0.0
C654 C 0.84776 0.12539 0.64633 0.0
C655 C 0.83523 0.07969 0.6532 0.0
C656 C 0.86001 0.06744 0.66578 0.0
H657 H 0.58061 0.87943 0.63374 0.0
H658 H 0.63899 0.94178 0.64405 0.0
C659 C 0.89687 0.1002 0.67138 0.0
C660 C 0.79834 0.04331 0.6469 0.0
H661 H 0.67622 0.03229 0.63467 0.0
C662 C 0.81492 0.99336 0.64408 0.0
C663 C 0.7474 0.05729 0.64372 0.0
C664 C 0.72638 0.10941 0.64726 0.0
C665 C 0.7822 0.95715 0.63801 0.0
C666 C 0.73188 0.9717 0.63432 0.0
C667 C 0.71502 0.02143 0.63733 0.0
C668 C 0.69576 0.93541 0.62767 0.0
C669 C 0.8016 0.90338 0.63589 0.0
C670 C 0.70775 0.91198 0.61487 0.0
C671 C 0.67468 0.87594 0.60901 0.0
C672 C 0.62862 0.86316 0.61574 0.0
C673 C 0.61585 0.88817 0.6283 0.0
C674 C 0.64916 0.92388 0.63421 0.0
H675 H 0.83489 0.89498 0.64273 0.0
H676 H 0.7712 0.87485 0.63806 0.0
H677 H 0.8141 0.89871 0.62487 0.0
H678 H 0.74289 0.92133 0.60946 0.0
H679 H 0.68536 0.8579 0.59923 0.0
H680 H 0.9188 0.92706 0.34675 0.0
H681 H 0.85751 0.98663 0.35729 0.0
H682 H 0.83392 0.88159 0.39149 0.0
H683 H 0.89697 0.82348 0.3814 0.0
H684 H 0.76066 0.98346 0.3636 0.0
H685 H 0.86827 0.00666 0.41296 0.0
H686 H 0.89446 0.97346 0.39808 0.0
H687 H 0.85195 0.94109 0.40999 0.0
C688 C 0.90041 0.9168 0.35651 0.0
C689 C 0.91311 0.87113 0.36339 0.0
C690 C 0.86546 0.9508 0.36253 0.0
C691 C 0.84217 0.93931 0.37541 0.0
C692 C 0.85281 0.89229 0.38185 0.0
H693 H 0.57292 0.09805 0.4073 0.0
H694 H 0.63197 0.03731 0.39645 0.0
C695 C 0.88853 0.85892 0.37602 0.0
C696 C 0.80689 0.97641 0.38214 0.0
H697 H 0.78265 0.03794 0.41293 0.0
C698 C 0.76567 0.99567 0.37436 0.0
C699 C 0.81396 0.99325 0.3961 0.0
C700 C 0.85988 0.97797 0.4047 0.0
C701 C 0.7309 0.03057 0.38019 0.0
C702 C 0.73629 0.04504 0.39441 0.0
C703 C 0.77796 0.02633 0.40211 0.0
C704 C 0.70017 0.08064 0.40143 0.0
C705 C 0.68972 0.05252 0.37091 0.0
C706 C 0.71885 0.12383 0.40851 0.0
C707 C 0.6853 0.15765 0.4151 0.0
C708 C 0.63229 0.14934 0.41458 0.0
C709 C 0.6136 0.10568 0.40772 0.0
C710 C 0.64728 0.07125 0.40139 0.0
H711 H 0.70081 0.05082 0.3597 0.0
H712 H 0.65423 0.02979 0.37217 0.0
H713 H 0.68132 0.09288 0.37364 0.0
H714 H 0.75947 0.13183 0.40876 0.0
H715 H 0.70083 0.19109 0.42025 0.0
H716 H 0.64122 0.8172 0.14501 0.0
H717 H 0.70318 0.87485 0.13413 0.0
H718 H 0.68758 0.97942 0.1687 0.0
H719 H 0.62514 0.92232 0.17967 0.0
H720 H 0.67929 0.9898 0.12864 0.0
H721 H 0.84831 0.94762 0.16211 0.0
H722 H 0.79739 0.90195 0.15945 0.0
H723 H 0.78744 0.95608 0.17062 0.0
C724 C 0.65116 0.85226 0.15038 0.0
C725 C 0.62807 0.86524 0.16321 0.0
C726 C 0.68648 0.88513 0.14412 0.0
C727 C 0.69987 0.9311 0.15066 0.0
C728 C 0.67777 0.94385 0.16356 0.0
H729 H 0.90315 0.18161 0.1349 0.0
H730 H 0.84575 0.11701 0.14437 0.0
C731 C 0.64207 0.91125 0.16978 0.0
C732 C 0.7356 0.96677 0.14377 0.0
H733 H 0.85639 0.01498 0.14585 0.0
C734 C 0.71816 0.99523 0.1323 0.0
C735 C 0.78598 0.97361 0.14867 0.0
C736 C 0.80634 0.94312 0.16084 0.0
C737 C 0.74955 0.03171 0.12581 0.0
C738 C 0.80014 0.03871 0.13071 0.0
C739 C 0.81768 0.00951 0.14208 0.0
C740 C 0.83481 0.07776 0.12467 0.0
C741 C 0.72757 0.06366 0.11412 0.0
C742 C 0.84812 0.077 0.11043 0.0
C743 C 0.88065 0.11439 0.10491 0.0
C744 C 0.90102 0.15268 0.11361 0.0
C745 C 0.88819 0.15272 0.1279 0.0
C746 C 0.85538 0.11574 0.13335 0.0
H747 H 0.68511 0.06302 0.11415 0.0
H748 H 0.7405 0.10396 0.11492 0.0
H749 H 0.74071 0.04817 0.10393 0.0
H750 H 0.83369 0.04731 0.1036 0.0
H751 H 0.89025 0.11298 0.0939 0.0
H752 H 0.93312 0.35137 0.64332 0.0
H753 H 0.87072 0.40879 0.63287 0.0
H754 H 0.82118 0.45567 0.67394 0.0
H755 H 0.88445 0.39855 0.68461 0.0
H756 H 0.76489 0.41203 0.63563 0.0
H757 H 0.8559 0.5911 0.6545 0.0
H758 H 0.88801 0.53011 0.65504 0.0
H759 H 0.84069 0.54574 0.66798 0.0
C760 C 0.90911 0.37388 0.65019 0.0
C761 C 0.91422 0.37076 0.66483 0.0
C762 C 0.87332 0.40658 0.64417 0.0
C763 C 0.84191 0.43697 0.65262 0.0
C764 C 0.84583 0.43317 0.66724 0.0
H765 H 0.61237 0.66332 0.63556 0.0
H766 H 0.6697 0.60021 0.64567 0.0
C767 C 0.8818 0.40038 0.67331 0.0
C768 C 0.80548 0.47281 0.646 0.0
H769 H 0.77702 0.59941 0.64264 0.0
C770 C 0.7675 0.45302 0.63714 0.0
C771 C 0.80937 0.52623 0.64791 0.0
C772 C 0.85093 0.54976 0.65676 0.0
C773 C 0.73259 0.48529 0.63033 0.0
C774 C 0.73634 0.53864 0.63232 0.0
C775 C 0.77438 0.55841 0.64114 0.0
C776 C 0.7 0.57479 0.62581 0.0
C777 C 0.69134 0.46209 0.62132 0.0
C778 C 0.69793 0.58127 0.61123 0.0
C779 C 0.66501 0.61759 0.60534 0.0
C780 C 0.63399 0.6481 0.61398 0.0
C781 C 0.63589 0.64078 0.62857 0.0
C782 C 0.66863 0.60466 0.6344 0.0
H783 H 0.68722 0.42039 0.62317 0.0
H784 H 0.65398 0.48087 0.62332 0.0
H785 H 0.70112 0.46796 0.61014 0.0
H786 H 0.72245 0.55897 0.60445 0.0
H787 H 0.66448 0.62232 0.59409 0.0
H788 H 0.87139 0.62586 0.9357 0.0
H789 H 0.81439 0.56124 0.92551 0.0
H790 H 0.86516 0.60315 0.88415 0.0
H791 H 0.9222 0.66677 0.89411 0.0
H792 H 0.73481 0.57845 0.9062 0.0
H793 H 0.88062 0.44791 0.88396 0.0
H794 H 0.8958 0.49561 0.89696 0.0
H795 H 0.88917 0.51336 0.87888 0.0
C796 C 0.87065 0.621 0.92445 0.0
C797 C 0.90134 0.65153 0.91574 0.0
C798 C 0.83812 0.58412 0.91865 0.0
C799 C 0.83625 0.57692 0.90409 0.0
C800 C 0.86686 0.60728 0.89542 0.0
H801 H 0.65092 0.40232 0.84558 0.0
H802 H 0.71293 0.46037 0.85654 0.0
C803 C 0.89918 0.64399 0.90116 0.0
C804 C 0.8005 0.53967 0.89778 0.0
H805 H 0.79488 0.43624 0.87603 0.0
C806 C 0.74789 0.54703 0.89972 0.0
C807 C 0.8178 0.49903 0.88923 0.0
C808 C 0.87395 0.48811 0.88722 0.0
C809 C 0.71198 0.51547 0.89309 0.0
C810 C 0.72927 0.47509 0.88447 0.0
C811 C 0.78185 0.4675 0.88257 0.0
C812 C 0.69315 0.43923 0.87775 0.0
C813 C 0.6558 0.52624 0.89512 0.0
C814 C 0.66255 0.40756 0.88605 0.0
C815 C 0.62736 0.3746 0.87988 0.0
C816 C 0.62209 0.37243 0.86523 0.0
C817 C 0.65381 0.40331 0.85688 0.0
C818 C 0.68921 0.4364 0.86311 0.0
H819 H 0.64904 0.56557 0.89908 0.0
H820 H 0.63447 0.52121 0.88517 0.0
H821 H 0.64 0.49898 0.90289 0.0
H822 H 0.6658 0.40846 0.89735 0.0
H823 H 0.60404 0.35099 0.88665 0.0
H824 H 0.64667 0.60797 0.18587 0.0
H825 H 0.71265 0.55166 0.17617 0.0
H826 H 0.6795 0.60744 0.13472 0.0
H827 H 0.6139 0.66381 0.14423 0.0
H828 H 0.69812 0.4742 0.15545 0.0
H829 H 0.83645 0.62208 0.13821 0.0
H830 H 0.7863 0.63497 0.15071 0.0
H831 H 0.77208 0.63257 0.13233 0.0
C832 C 0.65361 0.60847 0.1747 0.0
C833 C 0.62492 0.64037 0.16583 0.0
C834 C 0.69129 0.57628 0.16919 0.0
C835 C 0.70131 0.57593 0.15476 0.0
C836 C 0.67293 0.6078 0.14591 0.0
H837 H 0.84396 0.3469 0.10288 0.0
H838 H 0.78657 0.40799 0.11418 0.0
C839 C 0.63518 0.63974 0.15137 0.0
C840 C 0.7399 0.54076 0.14881 0.0
H841 H 0.85003 0.53759 0.12965 0.0
C842 C 0.73155 0.48798 0.1499 0.0
C843 C 0.78366 0.55894 0.14169 0.0
C844 C 0.79558 0.61523 0.14074 0.0
C845 C 0.7651 0.45282 0.14369 0.0
C846 C 0.80773 0.47107 0.13608 0.0
C847 C 0.81695 0.5238 0.13535 0.0
C848 C 0.84316 0.43585 0.12881 0.0
C849 C 0.7548 0.39643 0.14536 0.0
C850 C 0.89441 0.43257 0.133 0.0
C851 C 0.92741 0.39781 0.12654 0.0
C852 C 0.90977 0.36591 0.11571 0.0
C853 C 0.85876 0.37062 0.11124 0.0
C854 C 0.82579 0.40529 0.11773 0.0
H855 H 0.72827 0.38866 0.15418 0.0
H856 H 0.737 0.38158 0.13564 0.0
H857 H 0.79088 0.37508 0.14715 0.0
H858 H 0.90859 0.45616 0.14147 0.0
H859 H 0.96652 0.39544 0.1302 0.0
H860 H 0.92909 0.57844 0.35239 0.0
H861 H 0.86617 0.52129 0.36303 0.0
H862 H 0.81328 0.64405 0.38939 0.0
H863 H 0.87577 0.70168 0.37879 0.0
H864 H 0.86 0.49731 0.39217 0.0
H865 H 0.68089 0.58454 0.37197 0.0
H866 H 0.74266 0.59684 0.36423 0.0
H867 H 0.72474 0.62798 0.38023 0.0
C868 C 0.90374 0.59351 0.36034 0.0
C869 C 0.90756 0.64465 0.36475 0.0
C870 C 0.86792 0.56074 0.36643 0.0
C871 C 0.83492 0.57859 0.37691 0.0
C872 C 0.83797 0.62975 0.38118 0.0
H873 H 0.66139 0.38842 0.4352 0.0
H874 H 0.71834 0.45268 0.42496 0.0
C875 C 0.87389 0.66253 0.37514 0.0
C876 C 0.79885 0.54303 0.3838 0.0
H877 H 0.67198 0.5185 0.38873 0.0
C878 C 0.81888 0.50189 0.39144 0.0
C879 C 0.74531 0.54912 0.38274 0.0
C880 C 0.7219 0.59173 0.37426 0.0
C881 C 0.78669 0.46659 0.39811 0.0
C882 C 0.73315 0.47303 0.3972 0.0
C883 C 0.7131 0.51407 0.38951 0.0
C884 C 0.69732 0.43593 0.40355 0.0
C885 C 0.81015 0.42203 0.40579 0.0
C886 C 0.66585 0.40625 0.39491 0.0
C887 C 0.63335 0.36965 0.4007 0.0
C888 C 0.63146 0.36217 0.41527 0.0
C889 C 0.66214 0.39296 0.42394 0.0
C890 C 0.69483 0.42954 0.41812 0.0
H891 H 0.8512 0.41699 0.40315 0.0
H892 H 0.80712 0.42867 0.41723 0.0
H893 H 0.78951 0.38608 0.40331 0.0
H894 H 0.66711 0.41081 0.38365 0.0
H895 H 0.61 0.34692 0.39371 0.0
H896 H 0.45463 0.37418 0.39535 0.0
H897 H 0.39645 0.43609 0.38471 0.0
H898 H 0.29122 0.41662 0.41899 0.0
H899 H 0.34897 0.35429 0.42974 0.0
H900 H 0.28586 0.41398 0.37798 0.0
H901 H 0.3175 0.57637 0.41456 0.0
H902 H 0.36372 0.52576 0.41225 0.0
H903 H 0.3068 0.51449 0.42224 0.0
C904 C 0.41927 0.38319 0.4007 0.0
C905 C 0.40641 0.35916 0.4134 0.0
C906 C 0.38609 0.41852 0.39458 0.0
C907 C 0.33984 0.43099 0.40112 0.0
C908 C 0.32705 0.4077 0.41386 0.0
H909 H 0.08803 0.63327 0.38477 0.0
H910 H 0.15144 0.57483 0.39439 0.0
C911 C 0.36001 0.37201 0.41995 0.0
C912 C 0.30414 0.46716 0.39439 0.0
H913 H 0.25211 0.58597 0.39773 0.0
C914 C 0.27854 0.45173 0.38221 0.0
C915 C 0.2948 0.51612 0.40002 0.0
C916 C 0.32229 0.53461 0.41294 0.0
C917 C 0.24254 0.48361 0.3757 0.0
C918 C 0.23312 0.53279 0.38132 0.0
C919 C 0.25938 0.54833 0.39342 0.0
C920 C 0.19473 0.56801 0.37519 0.0
C921 C 0.21371 0.46353 0.36317 0.0
C922 C 0.19811 0.58403 0.36118 0.0
C923 C 0.16138 0.61707 0.35557 0.0
C924 C 0.12118 0.63539 0.36395 0.0
C925 C 0.1185 0.61994 0.37802 0.0
C926 C 0.15478 0.58653 0.38356 0.0
H927 H 0.21507 0.42115 0.36261 0.0
H928 H 0.17308 0.47572 0.36343 0.0
H929 H 0.23138 0.47877 0.35348 0.0
H930 H 0.22936 0.57132 0.35462 0.0
H931 H 0.16482 0.62874 0.34474 0.0
H932 H 0.16923 0.38292 0.09362 0.0
H933 H 0.22665 0.44776 0.10343 0.0
H934 H 0.169 0.41592 0.14477 0.0
H935 H 0.1115 0.35157 0.13515 0.0
H936 H 0.17657 0.52209 0.13803 0.0
H937 H 0.35574 0.41455 0.12721 0.0
H938 H 0.31373 0.42403 0.11255 0.0
H939 H 0.29355 0.38467 0.1269 0.0
C940 C 0.16873 0.38977 0.1048 0.0
C941 C 0.13607 0.36171 0.11361 0.0
C942 C 0.20168 0.42667 0.11038 0.0
C943 C 0.2024 0.43611 0.12483 0.0
C944 C 0.16911 0.40902 0.13359 0.0
H945 H 0.4283 0.58166 0.17708 0.0
H946 H 0.36647 0.52428 0.16607 0.0
C947 C 0.13639 0.37211 0.12806 0.0
C948 C 0.23803 0.47383 0.13099 0.0
H949 H 0.36441 0.49628 0.13736 0.0
C950 C 0.21767 0.51668 0.13784 0.0
C951 C 0.29151 0.46614 0.13085 0.0
C952 C 0.31517 0.41971 0.12409 0.0
C953 C 0.24948 0.55217 0.14458 0.0
C954 C 0.30299 0.54473 0.14433 0.0
C955 C 0.32334 0.50189 0.13747 0.0
C956 C 0.33862 0.58046 0.15133 0.0
C957 C 0.22556 0.59664 0.1522 0.0
C958 C 0.34325 0.63107 0.1467 0.0
C959 C 0.3785 0.66402 0.15297 0.0
C960 C 0.40999 0.64683 0.16395 0.0
C961 C 0.40467 0.59621 0.16867 0.0
C962 C 0.36947 0.5633 0.16237 0.0
H963 H 0.1841 0.59058 0.15408 0.0
H964 H 0.24477 0.60319 0.1624 0.0
H965 H 0.23002 0.63173 0.1458 0.0
H966 H 0.32028 0.64482 0.13806 0.0
H967 H 0.38161 0.70271 0.14904 0.0
H968 H 0.06439 0.60642 0.90257 0.0
H969 H 0.11881 0.53933 0.89277 0.0
H970 H 0.24901 0.60265 0.91436 0.0
H971 H 0.19479 0.6688 0.9245 0.0
H972 H 0.19877 0.54826 0.87564 0.0
H973 H 0.26223 0.45438 0.92447 0.0
H974 H 0.21025 0.49966 0.92409 0.0
H975 H 0.27548 0.52157 0.92464 0.0
C976 C 0.10453 0.60576 0.90534 0.0
C977 C 0.12522 0.64289 0.91435 0.0
C978 C 0.13556 0.5674 0.89973 0.0
C979 C 0.18783 0.56544 0.90301 0.0
C980 C 0.20855 0.6025 0.91198 0.0
H981 H 0.43217 0.43221 0.85508 0.0
H982 H 0.36577 0.48636 0.86515 0.0
C983 C 0.1775 0.64055 0.9177 0.0
C984 C 0.2213 0.52639 0.89648 0.0
H985 H 0.31152 0.43622 0.90389 0.0
C986 C 0.22301 0.52335 0.88182 0.0
C987 C 0.2523 0.49327 0.90453 0.0
C988 C 0.24961 0.49195 0.9203 0.0
C989 C 0.25617 0.48937 0.87499 0.0
C990 C 0.28949 0.45858 0.88305 0.0
C991 C 0.28646 0.46031 0.89771 0.0
C992 C 0.32863 0.4252 0.87652 0.0
C993 C 0.25486 0.48663 0.85922 0.0
C994 C 0.33068 0.37299 0.87983 0.0
C995 C 0.36916 0.34202 0.87426 0.0
C996 C 0.40634 0.36272 0.86526 0.0
C997 C 0.4039 0.41494 0.86188 0.0
C998 C 0.36571 0.44593 0.86755 0.0
H999 H 0.21726 0.49916 0.85505 0.0
H1000 H 0.28446 0.51251 0.85488 0.0
H1001 H 0.26265 0.44728 0.85544 0.0
H1002 H 0.3026 0.35623 0.88678 0.0
H1003 H 0.36987 0.30192 0.87705 0.0
H1004 H 0.16643 0.30374 0.65245 0.0
H1005 H 0.23216 0.35933 0.64249 0.0
H1006 H 0.16797 0.48812 0.6645 0.0
H1007 H 0.10308 0.43271 0.6748 0.0
H1008 H 0.22094 0.43991 0.62551 0.0
H1009 H 0.31688 0.50246 0.67418 0.0
H1010 H 0.27222 0.44995 0.67381 0.0
H1011 H 0.24949 0.51483 0.67455 0.0
C1012 C 0.16659 0.34382 0.65528 0.0
C1013 C 0.12957 0.36376 0.66446 0.0
C1014 C 0.20417 0.37553 0.64957 0.0
C1015 C 0.20548 0.42773 0.65291 0.0
C1016 C 0.16856 0.44772 0.66205 0.0
H1017 H 0.34038 0.67242 0.60492 0.0
H1018 H 0.2849 0.60711 0.61502 0.0
C1019 C 0.13126 0.416 0.66787 0.0
C1020 C 0.24387 0.46179 0.64632 0.0
H1021 H 0.3348 0.5514 0.6536 0.0
C1022 C 0.2462 0.46394 0.63165 0.0
C1023 C 0.27738 0.49255 0.65432 0.0
C1024 C 0.27931 0.48949 0.67008 0.0
C1025 C 0.28006 0.49709 0.62477 0.0
C1026 C 0.3115 0.52993 0.63279 0.0
C1027 C 0.31025 0.52667 0.64745 0.0
C1028 C 0.34551 0.56844 0.62623 0.0
C1029 C 0.28211 0.49616 0.609 0.0
C1030 C 0.39787 0.5692 0.62942 0.0
C1031 C 0.42958 0.607 0.62383 0.0
C1032 C 0.40952 0.6448 0.61493 0.0
C1033 C 0.35715 0.64364 0.61164 0.0
C1034 C 0.3254 0.60609 0.61734 0.0
H1035 H 0.26862 0.45897 0.60477 0.0
H1036 H 0.2567 0.52644 0.6048 0.0
H1037 H 0.32148 0.50323 0.60512 0.0
H1038 H 0.41418 0.54063 0.6363 0.0
H1039 H 0.46978 0.60671 0.62655 0.0
loop_
_geom_bond_atom_site_label_1
_geom_bond_atom_site_label_2
_geom_bond_distance
_geom_bond_site_symmetry_2
_ccdc_geom_bond_type
Fe0 O2 1.918 . S
Fe0 O5 1.997 1_455 S
Fe0 O6 2.002 . S
Fe0 O11 1.976 . S
Fe0 O14 1.996 1_455 S
Fe1 O2 1.918 . S
Fe1 O9 1.997 . S
Fe1 O12 1.996 . S
Fe1 O16 1.976 . S
Fe1 O19 2.002 . S
O2 Fe0 1.918 . S
O2 Fe1 1.918 . S
O2 Fe3 1.918 1_455 S
Fe3 O2 1.918 1_655 S
Fe3 O4 2.002 . S
Fe3 O13 1.976 . S
Fe3 O17 1.996 . S
Fe3 O20 1.997 . S
O4 Fe3 2.002 . S
O4 C21 1.295 . S
O5 Fe0 1.997 1_655 S
O5 C21 1.235 . S
O6 Fe0 2.002 . S
O6 C7 1.295 . S
C7 O6 1.295 . S
C7 O9 1.235 . S
C8 O13 1.287 . S
C8 O14 1.255 . S
O9 Fe1 1.997 . S
O9 C7 1.235 . S
C10 O16 1.287 . S
C10 O17 1.255 1_455 S
O11 Fe0 1.976 . S
O11 C18 1.287 . S
O12 Fe1 1.996 . S
O12 C18 1.255 . S
O13 Fe3 1.976 . S
O13 C8 1.287 . S
O14 Fe0 1.996 1_655 S
O14 C8 1.255 . S
C15 O19 1.295 . S
C15 O20 1.235 1_455 S
O16 Fe1 1.976 . S
O16 C10 1.287 . S
O17 Fe3 1.996 . S
O17 C10 1.255 1_655 S
C18 O11 1.287 . S
C18 O12 1.255 . S
O19 Fe1 2.002 . S
O19 C15 1.295 . S
O20 Fe3 1.997 . S
O20 C15 1.235 1_655 S
C21 O4 1.295 . S
C21 O5 1.235 . S
Fe22 O24 1.918 . S
Fe22 O27 1.997 . S
Fe22 O28 2.002 . S
Fe22 O33 1.976 1_455 S
Fe22 O36 1.996 1_455 S
Fe23 O24 1.918 . S
Fe23 O31 1.997 . S
Fe23 O34 1.996 1_455 S
Fe23 O38 1.976 1_455 S
Fe23 O41 2.002 . S
O24 Fe22 1.918 . S
O24 Fe23 1.918 . S
O24 Fe25 1.918 . S
Fe25 O24 1.918 . S
Fe25 O26 2.002 . S
Fe25 O35 1.976 1_455 S
Fe25 O39 1.996 1_455 S
Fe25 O42 1.997 . S
O26 Fe25 2.002 . S
O26 C43 1.295 . S
O27 Fe22 1.997 . S
O27 C43 1.235 . S
O28 Fe22 2.002 . S
O28 C29 1.295 . S
C29 O28 1.295 . S
C29 O31 1.235 . S
C30 O35 1.287 . S
C30 O36 1.255 . S
O31 Fe23 1.997 . S
O31 C29 1.235 . S
C32 O38 1.287 . S
C32 O39 1.255 . S
O33 Fe22 1.976 1_655 S
O33 C40 1.287 . S
O34 Fe23 1.996 1_655 S
O34 C40 1.255 . S
O35 Fe25 1.976 1_655 S
O35 C30 1.287 . S
O36 Fe22 1.996 1_655 S
O36 C30 1.255 . S
C37 O41 1.295 . S
C37 O42 1.235 . S
O38 Fe23 1.976 1_655 S
O38 C32 1.287 . S
O39 Fe25 1.996 1_655 S
O39 C32 1.255 . S
C40 O33 1.287 . S
C40 O34 1.255 . S
O41 Fe23 2.002 . S
O41 C37 1.295 . S
O42 Fe25 1.997 . S
O42 C37 1.235 . S
C43 O26 1.295 . S
C43 O27 1.235 . S
Fe44 O46 1.918 . S
Fe44 O49 1.997 . S
Fe44 O50 2.002 . S
Fe44 O55 1.976 . S
Fe44 O58 1.996 . S
Fe45 O46 1.918 . S
Fe45 O53 1.997 . S
Fe45 O56 1.996 . S
Fe45 O60 1.976 . S
Fe45 O63 2.002 . S
O46 Fe44 1.918 . S
O46 Fe45 1.918 . S
O46 Fe47 1.918 . S
Fe47 O46 1.918 . S
Fe47 O48 2.002 . S
Fe47 O57 1.976 . S
Fe47 O61 1.996 . S
Fe47 O64 1.997 . S
O48 Fe47 2.002 . S
O48 C65 1.295 . S
O49 Fe44 1.997 . S
O49 C65 1.235 . S
O50 Fe44 2.002 . S
O50 C51 1.295 . S
C51 O50 1.295 . S
C51 O53 1.235 . S
C52 O57 1.287 . S
C52 O58 1.255 . S
O53 Fe45 1.997 . S
O53 C51 1.235 . S
C54 O60 1.287 . S
C54 O61 1.255 . S
O55 Fe44 1.976 . S
O55 C62 1.287 . S
O56 Fe45 1.996 . S
O56 C62 1.255 . S
O57 Fe47 1.976 . S
O57 C52 1.287 . S
O58 Fe44 1.996 . S
O58 C52 1.255 . S
C59 O63 1.295 . S
C59 O64 1.235 . S
O60 Fe45 1.976 . S
O60 C54 1.287 . S
O61 Fe47 1.996 . S
O61 C54 1.255 . S
C62 O55 1.287 . S
C62 O56 1.255 . S
O63 Fe45 2.002 . S
O63 C59 1.295 . S
O64 Fe47 1.997 . S
O64 C59 1.235 . S
C65 O48 1.295 . S
C65 O49 1.235 . S
Fe66 O68 1.918 . S
Fe66 O71 1.997 . S
Fe66 O72 2.002 . S
Fe66 O77 1.976 . S
Fe66 O80 1.996 . S
Fe67 O68 1.918 . S
Fe67 O75 1.997 . S
Fe67 O78 1.996 . S
Fe67 O82 1.976 . S
Fe67 O85 2.002 . S
O68 Fe66 1.918 . S
O68 Fe67 1.918 . S
O68 Fe69 1.918 . S
Fe69 O68 1.918 . S
Fe69 O70 2.002 . S
Fe69 O79 1.976 . S
Fe69 O83 1.996 . S
Fe69 O86 1.997 . S
O70 Fe69 2.002 . S
O70 C87 1.295 . S
O71 Fe66 1.997 . S
O71 C87 1.235 . S
O72 Fe66 2.002 . S
O72 C73 1.295 . S
C73 O72 1.295 . S
C73 O75 1.235 . S
C74 O79 1.287 . S
C74 O80 1.255 . S
O75 Fe67 1.997 . S
O75 C73 1.235 . S
C76 O82 1.287 . S
C76 O83 1.255 . S
O77 Fe66 1.976 . S
O77 C84 1.287 . S
O78 Fe67 1.996 . S
O78 C84 1.255 . S
O79 Fe69 1.976 . S
O79 C74 1.287 . S
O80 Fe66 1.996 . S
O80 C74 1.255 . S
C81 O85 1.295 . S
C81 O86 1.235 . S
O82 Fe67 1.976 . S
O82 C76 1.287 . S
O83 Fe69 1.996 . S
O83 C76 1.255 . S
C84 O77 1.287 . S
C84 O78 1.255 . S
O85 Fe67 2.002 . S
O85 C81 1.295 . S
O86 Fe69 1.997 . S
O86 C81 1.235 . S
C87 O70 1.295 . S
C87 O71 1.235 . S
Fe88 O90 1.918 . S
Fe88 O93 1.997 . S
Fe88 O94 2.002 . S
Fe88 O99 1.976 . S
Fe88 O102 1.996 . S
Fe89 O90 1.918 1_655 S
Fe89 O97 1.997 . S
Fe89 O100 1.996 . S
Fe89 O104 1.976 . S
Fe89 O107 2.002 . S
O90 Fe88 1.918 . S
O90 Fe89 1.918 1_455 S
O90 Fe91 1.918 . S
Fe91 O90 1.918 . S
Fe91 O92 2.002 . S
Fe91 O101 1.976 . S
Fe91 O105 1.996 1_455 S
Fe91 O108 1.997 1_455 S
O92 Fe91 2.002 . S
O92 C109 1.295 . S
O93 Fe88 1.997 . S
O93 C109 1.235 . S
O94 Fe88 2.002 . S
O94 C95 1.295 . S
C95 O94 1.295 . S
C95 O97 1.235 1_455 S
C96 O101 1.287 . S
C96 O102 1.255 . S
O97 Fe89 1.997 . S
O97 C95 1.235 1_655 S
C98 O104 1.287 . S
C98 O105 1.255 . S
O99 Fe88 1.976 . S
O99 C106 1.287 . S
O100 Fe89 1.996 . S
O100 C106 1.255 1_655 S
O101 Fe91 1.976 . S
O101 C96 1.287 . S
O102 Fe88 1.996 . S
O102 C96 1.255 . S
C103 O107 1.295 . S
C103 O108 1.235 . S
O104 Fe89 1.976 . S
O104 C98 1.287 . S
O105 Fe91 1.996 1_655 S
O105 C98 1.255 . S
C106 O99 1.287 . S
C106 O100 1.255 1_455 S
O107 Fe89 2.002 . S
O107 C103 1.295 . S
O108 Fe91 1.997 1_655 S
O108 C103 1.235 . S
C109 O92 1.295 . S
C109 O93 1.235 . S
Fe110 O112 1.918 . S
Fe110 O115 1.997 . S
Fe110 O116 2.002 . S
Fe110 O121 1.976 . S
Fe110 O124 1.996 . S
Fe111 O112 1.918 . S
Fe111 O119 1.997 . S
Fe111 O122 1.996 . S
Fe111 O126 1.976 . S
Fe111 O129 2.002 . S
O112 Fe110 1.918 . S
O112 Fe111 1.918 . S
O112 Fe113 1.918 . S
Fe113 O112 1.918 . S
Fe113 O114 2.002 . S
Fe113 O123 1.976 . S
Fe113 O127 1.996 . S
Fe113 O130 1.997 . S
O114 Fe113 2.002 . S
O114 C131 1.295 . S
O115 Fe110 1.997 . S
O115 C131 1.235 . S
O116 Fe110 2.002 . S
O116 C117 1.295 . S
C117 O116 1.295 . S
C117 O119 1.235 . S
C118 O123 1.287 . S
C118 O124 1.255 . S
O119 Fe111 1.997 . S
O119 C117 1.235 . S
C120 O126 1.287 . S
C120 O127 1.255 . S
O121 Fe110 1.976 . S
O121 C128 1.287 . S
O122 Fe111 1.996 . S
O122 C128 1.255 . S
O123 Fe113 1.976 . S
O123 C118 1.287 . S
O124 Fe110 1.996 . S
O124 C118 1.255 . S
C125 O129 1.295 . S
C125 O130 1.235 . S
O126 Fe111 1.976 . S
O126 C120 1.287 . S
O127 Fe113 1.996 . S
O127 C120 1.255 . S
C128 O121 1.287 . S
C128 O122 1.255 . S
O129 Fe111 2.002 . S
O129 C125 1.295 . S
O130 Fe113 1.997 . S
O130 C125 1.235 . S
C131 O114 1.295 . S
C131 O115 1.235 . S
Fe132 O134 1.918 . S
Fe132 O137 1.997 . S
Fe132 O138 2.002 . S
Fe132 O143 1.976 . S
Fe132 O146 1.996 . S
Fe133 O134 1.918 . S
Fe133 O141 1.997 . S
Fe133 O144 1.996 . S
Fe133 O148 1.976 . S
Fe133 O151 2.002 . S
O134 Fe132 1.918 . S
O134 Fe133 1.918 . S
O134 Fe135 1.918 . S
Fe135 O134 1.918 . S
Fe135 O136 2.002 . S
Fe135 O145 1.976 . S
Fe135 O149 1.996 . S
Fe135 O152 1.997 . S
O136 Fe135 2.002 . S
O136 C153 1.295 . S
O137 Fe132 1.997 . S
O137 C153 1.235 . S
O138 Fe132 2.002 . S
O138 C139 1.295 . S
C139 O138 1.295 . S
C139 O141 1.235 . S
C140 O145 1.287 . S
C140 O146 1.255 . S
O141 Fe133 1.997 . S
O141 C139 1.235 . S
C142 O148 1.287 . S
C142 O149 1.255 . S
O143 Fe132 1.976 . S
O143 C150 1.287 . S
O144 Fe133 1.996 . S
O144 C150 1.255 . S
O145 Fe135 1.976 . S
O145 C140 1.287 . S
O146 Fe132 1.996 . S
O146 C140 1.255 . S
C147 O151 1.295 . S
C147 O152 1.235 . S
O148 Fe133 1.976 . S
O148 C142 1.287 . S
O149 Fe135 1.996 . S
O149 C142 1.255 . S
C150 O143 1.287 . S
C150 O144 1.255 . S
O151 Fe133 2.002 . S
O151 C147 1.295 . S
O152 Fe135 1.997 . S
O152 C147 1.235 . S
C153 O136 1.295 . S
C153 O137 1.235 . S
Fe154 O156 1.918 . S
Fe154 O159 1.997 1_455 S
Fe154 O160 2.002 1_455 S
Fe154 O165 1.976 . S
Fe154 O168 1.996 . S
Fe155 O156 1.918 . S
Fe155 O163 1.997 1_455 S
Fe155 O166 1.996 . S
Fe155 O170 1.976 . S
Fe155 O173 2.002 1_455 S
O156 Fe154 1.918 . S
O156 Fe155 1.918 . S
O156 Fe157 1.918 . S
Fe157 O156 1.918 . S
Fe157 O158 2.002 1_455 S
Fe157 O167 1.976 . S
Fe157 O171 1.996 . S
Fe157 O174 1.997 1_455 S
O158 Fe157 2.002 1_655 S
O158 C175 1.295 . S
O159 Fe154 1.997 1_655 S
O159 C175 1.235 . S
O160 Fe154 2.002 1_655 S
O160 C161 1.295 . S
C161 O160 1.295 . S
C161 O163 1.235 . S
C162 O167 1.287 . S
C162 O168 1.255 . S
O163 Fe155 1.997 1_655 S
O163 C161 1.235 . S
C164 O170 1.287 . S
C164 O171 1.255 . S
O165 Fe154 1.976 . S
O165 C172 1.287 . S
O166 Fe155 1.996 . S
O166 C172 1.255 . S
O167 Fe157 1.976 . S
O167 C162 1.287 . S
O168 Fe154 1.996 . S
O168 C162 1.255 . S
C169 O173 1.295 . S
C169 O174 1.235 . S
O170 Fe155 1.976 . S
O170 C164 1.287 . S
O171 Fe157 1.996 . S
O171 C164 1.255 . S
C172 O165 1.287 . S
C172 O166 1.255 . S
O173 Fe155 2.002 1_655 S
O173 C169 1.295 . S
O174 Fe157 1.997 1_655 S
O174 C169 1.235 . S
C175 O158 1.295 . S
C175 O159 1.235 . S
H176 C184 0.929 . S
H177 C186 0.930 . S
H178 C188 0.930 . S
H179 C191 0.929 . S
H180 C194 0.930 . S
H181 C196 0.960 . S
H182 C196 0.960 . S
H183 C196 0.960 1_455 S
C184 H176 0.929 . S
C184 C185 1.377 1_655 S
C184 C186 1.384 . S
C185 C184 1.377 1_455 S
C185 C191 1.390 . S
C186 H177 0.930 . S
C186 C184 1.384 . S
C186 C187 1.372 1_655 S
C187 C186 1.372 1_455 S
C187 C188 1.400 . S
C187 C192 1.490 . S
C188 H178 0.930 . S
C188 C187 1.400 . S
C188 C191 1.386 . S
H189 C205 0.930 . S
H190 C206 0.931 . S
C191 H179 0.929 . S
C191 C185 1.390 . S
C191 C188 1.386 . S
C192 C187 1.490 . S
C192 C194 1.395 . S
C192 C195 1.403 1_554 S
H193 C199 0.930 . S
C194 H180 0.930 . S
C194 C192 1.395 . S
C194 C197 1.403 . S
C195 C192 1.403 1_556 S
C195 C196 1.524 1_455 S
C195 C199 1.400 . S
C196 H181 0.960 . S
C196 H182 0.960 . S
C196 H183 0.960 1_655 S
C196 C195 1.524 1_655 S
C197 C194 1.403 . S
C197 C198 1.392 1_554 S
C197 C201 1.495 . S
C198 C197 1.392 1_556 S
C198 C199 1.385 . S
C198 C200 1.478 . S
C199 H193 0.930 . S
C199 C195 1.400 . S
C199 C198 1.385 . S
C200 C198 1.478 . S
C200 C202 1.381 1_455 S
C200 C206 1.383 . S
C201 C197 1.495 . S
C201 H207 0.959 . S
C201 H208 0.961 . S
C201 H209 0.960 . S
C202 C200 1.381 1_655 S
C202 C203 1.394 . S
C202 H210 0.930 . S
C203 C202 1.394 . S
C203 C204 1.383 1_655 S
C203 H211 0.929 . S
C204 C203 1.383 1_455 S
C204 C205 1.377 . S
C205 H189 0.930 . S
C205 C204 1.377 . S
C205 C206 1.379 . S
C206 H190 0.931 . S
C206 C200 1.383 . S
C206 C205 1.379 . S
H207 C201 0.959 . S
H208 C201 0.961 . S
H209 C201 0.960 . S
H210 C202 0.930 . S
H211 C203 0.929 . S
H212 C220 0.929 . S
H213 C222 0.930 . S
H214 C224 0.930 . S
H215 C227 0.929 . S
H216 C230 0.930 . S
H217 C232 0.960 . S
H218 C232 0.960 . S
H219 C232 0.960 . S
C220 H212 0.929 . S
C220 C221 1.377 . S
C220 C222 1.384 . S
C221 C220 1.377 . S
C221 C227 1.390 . S
C222 H213 0.930 . S
C222 C220 1.384 . S
C222 C223 1.372 . S
C223 C222 1.372 . S
C223 C224 1.400 . S
C223 C228 1.490 . S
C224 H214 0.930 . S
C224 C223 1.400 . S
C224 C227 1.386 . S
H225 C241 0.930 . S
H226 C242 0.931 . S
C227 H215 0.929 . S
C227 C221 1.390 . S
C227 C224 1.386 . S
C228 C223 1.490 . S
C228 C230 1.395 . S
C228 C231 1.403 . S
H229 C235 0.930 . S
C230 H216 0.930 . S
C230 C228 1.395 . S
C230 C233 1.403 . S
C231 C228 1.403 . S
C231 C232 1.524 . S
C231 C235 1.400 . S
C232 H217 0.960 . S
C232 H218 0.960 . S
C232 H219 0.960 . S
C232 C231 1.524 . S
C233 C230 1.403 . S
C233 C234 1.392 . S
C233 C237 1.495 . S
C234 C233 1.392 . S
C234 C235 1.385 . S
C234 C236 1.478 . S
C235 H229 0.930 . S
C235 C231 1.400 . S
C235 C234 1.385 . S
C236 C234 1.478 . S
C236 C238 1.381 . S
C236 C242 1.383 . S
C237 C233 1.495 . S
C237 H243 0.959 . S
C237 H244 0.961 . S
C237 H245 0.960 . S
C238 C236 1.381 . S
C238 C239 1.394 . S
C238 H246 0.930 . S
C239 C238 1.394 . S
C239 C240 1.383 . S
C239 H247 0.929 . S
C240 C239 1.383 . S
C240 C241 1.377 . S
C241 H225 0.930 . S
C241 C240 1.377 . S
C241 C242 1.379 . S
C242 H226 0.931 . S
C242 C236 1.383 . S
C242 C241 1.379 . S
H243 C237 0.959 . S
H244 C237 0.961 . S
H245 C237 0.960 . S
H246 C238 0.930 . S
H247 C239 0.929 . S
H248 C256 0.929 . S
H249 C258 0.930 . S
H250 C260 0.930 . S
H251 C263 0.929 . S
H252 C266 0.930 . S
H253 C268 0.960 . S
H254 C268 0.960 . S
H255 C268 0.960 . S
C256 H248 0.929 . S
C256 C257 1.377 . S
C256 C258 1.384 . S
C257 C256 1.377 . S
C257 C263 1.390 . S
C258 H249 0.930 . S
C258 C256 1.384 . S
C258 C259 1.372 . S
C259 C258 1.372 . S
C259 C260 1.400 . S
C259 C264 1.490 . S
C260 H250 0.930 . S
C260 C259 1.400 . S
C260 C263 1.386 . S
H261 C277 0.930 . S
H262 C278 0.931 . S
C263 H251 0.929 . S
C263 C257 1.390 . S
C263 C260 1.386 . S
C264 C259 1.490 . S
C264 C266 1.395 . S
C264 C267 1.403 . S
H265 C271 0.930 . S
C266 H252 0.930 . S
C266 C264 1.395 . S
C266 C269 1.403 . S
C267 C264 1.403 . S
C267 C268 1.524 . S
C267 C271 1.400 . S
C268 H253 0.960 . S
C268 H254 0.960 . S
C268 H255 0.960 . S
C268 C267 1.524 . S
C269 C266 1.403 . S
C269 C270 1.392 . S
C269 C273 1.495 . S
C270 C269 1.392 . S
C270 C271 1.385 . S
C270 C272 1.478 . S
C271 H265 0.930 . S
C271 C267 1.400 . S
C271 C270 1.385 . S
C272 C270 1.478 . S
C272 C274 1.381 . S
C272 C278 1.383 . S
C273 C269 1.495 . S
C273 H279 0.959 . S
C273 H280 0.961 . S
C273 H281 0.960 . S
C274 C272 1.381 . S
C274 C275 1.394 . S
C274 H282 0.930 . S
C275 C274 1.394 . S
C275 C276 1.383 . S
C275 H283 0.929 . S
C276 C275 1.383 . S
C276 C277 1.377 . S
C277 H261 0.930 . S
C277 C276 1.377 . S
C277 C278 1.379 . S
C278 H262 0.931 . S
C278 C272 1.383 . S
C278 C277 1.379 . S
H279 C273 0.959 . S
H280 C273 0.961 . S
H281 C273 0.960 . S
H282 C274 0.930 . S
H283 C275 0.929 . S
H284 C292 0.929 . S
H285 C294 0.930 . S
H286 C296 0.930 . S
H287 C299 0.929 . S
H288 C302 0.930 . S
H289 C304 0.960 . S
H290 C304 0.960 . S
H291 C304 0.960 . S
C292 H284 0.929 . S
C292 C293 1.377 . S
C292 C294 1.384 . S
C293 C292 1.377 . S
C293 C299 1.390 . S
C294 H285 0.930 . S
C294 C292 1.384 . S
C294 C295 1.372 . S
C295 C294 1.372 . S
C295 C296 1.400 . S
C295 C300 1.490 . S
C296 H286 0.930 . S
C296 C295 1.400 . S
C296 C299 1.386 . S
H297 C313 0.930 . S
H298 C314 0.931 . S
C299 H287 0.929 . S
C299 C293 1.390 . S
C299 C296 1.386 . S
C300 C295 1.490 . S
C300 C302 1.395 . S
C300 C303 1.403 . S
H301 C307 0.930 . S
C302 H288 0.930 . S
C302 C300 1.395 . S
C302 C305 1.403 . S
C303 C300 1.403 . S
C303 C304 1.524 . S
C303 C307 1.400 . S
C304 H289 0.960 . S
C304 H290 0.960 . S
C304 H291 0.960 . S
C304 C303 1.524 . S
C305 C302 1.403 . S
C305 C306 1.392 . S
C305 C309 1.495 . S
C306 C305 1.392 . S
C306 C307 1.385 . S
C306 C308 1.478 . S
C307 H301 0.930 . S
C307 C303 1.400 . S
C307 C306 1.385 . S
C308 C306 1.478 . S
C308 C310 1.381 . S
C308 C314 1.383 . S
C309 C305 1.495 . S
C309 H315 0.959 . S
C309 H316 0.961 . S
C309 H317 0.960 . S
C310 C308 1.381 . S
C310 C311 1.394 . S
C310 H318 0.930 . S
C311 C310 1.394 . S
C311 C312 1.383 . S
C311 H319 0.929 . S
C312 C311 1.383 . S
C312 C313 1.377 . S
C313 H297 0.930 . S
C313 C312 1.377 . S
C313 C314 1.379 . S
C314 H298 0.931 . S
C314 C308 1.383 . S
C314 C313 1.379 . S
H315 C309 0.959 . S
H316 C309 0.961 . S
H317 C309 0.960 . S
H318 C310 0.930 . S
H319 C311 0.929 . S
H320 C328 0.929 . S
H321 C330 0.930 . S
H322 C332 0.930 . S
H323 C335 0.929 . S
H324 C338 0.930 . S
H325 C340 0.960 . S
H326 C340 0.960 . S
H327 C340 0.960 . S
C328 H320 0.929 . S
C328 C329 1.377 . S
C328 C330 1.384 . S
C329 C328 1.377 . S
C329 C335 1.390 . S
C330 H321 0.930 . S
C330 C328 1.384 . S
C330 C331 1.372 . S
C331 C330 1.372 . S
C331 C332 1.400 . S
C331 C336 1.490 . S
C332 H322 0.930 . S
C332 C331 1.400 . S
C332 C335 1.386 . S
H333 C349 0.930 . S
H334 C350 0.931 . S
C335 H323 0.929 . S
C335 C329 1.390 . S
C335 C332 1.386 . S
C336 C331 1.490 . S
C336 C338 1.395 . S
C336 C339 1.403 . S
H337 C343 0.930 . S
C338 H324 0.930 . S
C338 C336 1.395 . S
C338 C341 1.403 . S
C339 C336 1.403 . S
C339 C340 1.524 . S
C339 C343 1.400 . S
C340 H325 0.960 . S
C340 H326 0.960 . S
C340 H327 0.960 . S
C340 C339 1.524 . S
C341 C338 1.403 . S
C341 C342 1.392 . S
C341 C345 1.495 . S
C342 C341 1.392 . S
C342 C343 1.385 . S
C342 C344 1.478 . S
C343 H337 0.930 . S
C343 C339 1.400 . S
C343 C342 1.385 . S
C344 C342 1.478 . S
C344 C346 1.381 . S
C344 C350 1.383 . S
C345 C341 1.495 . S
C345 H351 0.959 . S
C345 H352 0.961 . S
C345 H353 0.960 . S
C346 C344 1.381 . S
C346 C347 1.394 . S
C346 H354 0.930 . S
C347 C346 1.394 . S
C347 C348 1.383 . S
C347 H355 0.929 . S
C348 C347 1.383 . S
C348 C349 1.377 . S
C349 H333 0.930 . S
C349 C348 1.377 . S
C349 C350 1.379 . S
C350 H334 0.931 . S
C350 C344 1.383 . S
C350 C349 1.379 . S
H351 C345 0.959 . S
H352 C345 0.961 . S
H353 C345 0.960 . S
H354 C346 0.930 . S
H355 C347 0.929 . S
H356 C364 0.929 . S
H357 C366 0.930 . S
H358 C368 0.930 . S
H359 C371 0.929 . S
H360 C374 0.930 . S
H361 C376 0.960 . S
H362 C376 0.960 . S
H363 C376 0.960 . S
C364 H356 0.929 . S
C364 C365 1.377 . S
C364 C366 1.384 . S
C365 C364 1.377 . S
C365 C371 1.390 . S
C366 H357 0.930 . S
C366 C364 1.384 . S
C366 C367 1.372 . S
C367 C366 1.372 . S
C367 C368 1.400 . S
C367 C372 1.490 . S
C368 H358 0.930 . S
C368 C367 1.400 . S
C368 C371 1.386 . S
H369 C385 0.930 . S
H370 C386 0.931 . S
C371 H359 0.929 . S
C371 C365 1.390 . S
C371 C368 1.386 . S
C372 C367 1.490 . S
C372 C374 1.395 . S
C372 C375 1.403 . S
H373 C379 0.930 . S
C374 H360 0.930 . S
C374 C372 1.395 . S
C374 C377 1.403 . S
C375 C372 1.403 . S
C375 C376 1.524 . S
C375 C379 1.400 . S
C376 H361 0.960 . S
C376 H362 0.960 . S
C376 H363 0.960 . S
C376 C375 1.524 . S
C377 C374 1.403 . S
C377 C378 1.392 . S
C377 C381 1.495 . S
C378 C377 1.392 . S
C378 C379 1.385 . S
C378 C380 1.478 . S
C379 H373 0.930 . S
C379 C375 1.400 . S
C379 C378 1.385 . S
C380 C378 1.478 . S
C380 C382 1.381 . S
C380 C386 1.383 . S
C381 C377 1.495 . S
C381 H387 0.959 . S
C381 H388 0.961 . S
C381 H389 0.960 . S
C382 C380 1.381 . S
C382 C383 1.394 . S
C382 H390 0.930 . S
C383 C382 1.394 . S
C383 C384 1.383 . S
C383 H391 0.929 . S
C384 C383 1.383 . S
C384 C385 1.377 . S
C385 H369 0.930 . S
C385 C384 1.377 . S
C385 C386 1.379 . S
C386 H370 0.931 . S
C386 C380 1.383 . S
C386 C385 1.379 . S
H387 C381 0.959 . S
H388 C381 0.961 . S
H389 C381 0.960 . S
H390 C382 0.930 . S
H391 C383 0.929 . S
H392 C400 0.929 . S
H393 C402 0.930 . S
H394 C404 0.930 . S
H395 C407 0.929 . S
H396 C410 0.930 . S
H397 C412 0.960 . S
H398 C412 0.960 . S
H399 C412 0.960 . S
C400 H392 0.929 . S
C400 C401 1.377 . S
C400 C402 1.384 . S
C401 C400 1.377 . S
C401 C407 1.390 . S
C402 H393 0.930 . S
C402 C400 1.384 . S
C402 C403 1.372 . S
C403 C402 1.372 . S
C403 C404 1.400 . S
C403 C408 1.490 . S
C404 H394 0.930 . S
C404 C403 1.400 . S
C404 C407 1.386 . S
H405 C421 0.930 . S
H406 C422 0.931 . S
C407 H395 0.929 . S
C407 C401 1.390 . S
C407 C404 1.386 . S
C408 C403 1.490 . S
C408 C410 1.395 . S
C408 C411 1.403 1_545 S
H409 C415 0.930 . S
C410 H396 0.930 . S
C410 C408 1.395 . S
C410 C413 1.403 . S
C411 C408 1.403 1_565 S
C411 C412 1.524 . S
C411 C415 1.400 . S
C412 H397 0.960 . S
C412 H398 0.960 . S
C412 H399 0.960 . S
C412 C411 1.524 . S
C413 C410 1.403 . S
C413 C414 1.392 1_545 S
C413 C417 1.495 . S
C414 C413 1.392 1_565 S
C414 C415 1.385 . S
C414 C416 1.478 . S
C415 H409 0.930 . S
C415 C411 1.400 . S
C415 C414 1.385 . S
C416 C414 1.478 . S
C416 C418 1.381 . S
C416 C422 1.383 . S
C417 C413 1.495 . S
C417 H423 0.959 . S
C417 H424 0.961 . S
C417 H425 0.960 . S
C418 C416 1.381 . S
C418 C419 1.394 . S
C418 H426 0.930 . S
C419 C418 1.394 . S
C419 C420 1.383 . S
C419 H427 0.929 . S
C420 C419 1.383 . S
C420 C421 1.377 . S
C421 H405 0.930 . S
C421 C420 1.377 . S
C421 C422 1.379 . S
C422 H406 0.931 . S
C422 C416 1.383 . S
C422 C421 1.379 . S
H423 C417 0.959 . S
H424 C417 0.961 . S
H425 C417 0.960 . S
H426 C418 0.930 . S
H427 C419 0.929 . S
H428 C436 0.929 . S
H429 C438 0.930 . S
H430 C440 0.930 . S
H431 C443 0.929 . S
H432 C446 0.930 . S
H433 C448 0.960 . S
H434 C448 0.960 . S
H435 C448 0.960 1_554 S
C436 H428 0.929 . S
C436 C437 1.377 . S
C436 C438 1.384 . S
C437 C436 1.377 . S
C437 C443 1.390 1_455 S
C438 H429 0.930 . S
C438 C436 1.384 . S
C438 C439 1.372 . S
C439 C438 1.372 . S
C439 C440 1.400 1_455 S
C439 C444 1.490 . S
C440 H430 0.930 . S
C440 C439 1.400 1_655 S
C440 C443 1.386 . S
H441 C457 0.930 . S
H442 C458 0.931 . S
C443 H431 0.929 . S
C443 C437 1.390 1_655 S
C443 C440 1.386 . S
C444 C439 1.490 . S
C444 C446 1.395 1_545 S
C444 C447 1.403 1_454 S
H445 C451 0.930 . S
C446 H432 0.930 . S
C446 C444 1.395 1_565 S
C446 C449 1.403 . S
C447 C444 1.403 1_656 S
C447 C448 1.524 . S
C447 C451 1.400 . S
C448 H433 0.960 . S
C448 H434 0.960 . S
C448 H435 0.960 1_556 S
C448 C447 1.524 . S
C449 C446 1.403 . S
C449 C450 1.392 1_554 S
C449 C453 1.495 . S
C450 C449 1.392 1_556 S
C450 C451 1.385 1_465 S
C450 C452 1.478 . S
C451 H445 0.930 . S
C451 C447 1.400 . S
C451 C450 1.385 1_645 S
C452 C450 1.478 . S
C452 C454 1.381 . S
C452 C458 1.383 1_455 S
C453 C449 1.495 . S
C453 H459 0.959 . S
C453 H460 0.961 . S
C453 H461 0.960 1_554 S
C454 C452 1.381 . S
C454 C455 1.394 . S
C454 H462 0.930 . S
C455 C454 1.394 . S
C455 C456 1.383 . S
C455 H463 0.929 . S
C456 C455 1.383 . S
C456 C457 1.377 1_455 S
C457 H441 0.930 . S
C457 C456 1.377 1_655 S
C457 C458 1.379 . S
C458 H442 0.931 . S
C458 C452 1.383 1_655 S
C458 C457 1.379 . S
H459 C453 0.959 . S
H460 C453 0.961 . S
H461 C453 0.960 1_556 S
H462 C454 0.930 . S
H463 C455 0.929 . S
H464 C472 0.929 . S
H465 C474 0.930 . S
H466 C476 0.930 . S
H467 C479 0.929 . S
H468 C482 0.930 . S
H469 C484 0.960 . S
H470 C484 0.960 . S
H471 C484 0.960 . S
C472 H464 0.929 . S
C472 C473 1.377 . S
C472 C474 1.384 . S
C473 C472 1.377 . S
C473 C479 1.390 . S
C474 H465 0.930 . S
C474 C472 1.384 . S
C474 C475 1.372 . S
C475 C474 1.372 . S
C475 C476 1.400 . S
C475 C480 1.490 . S
C476 H466 0.930 . S
C476 C475 1.400 . S
C476 C479 1.386 . S
H477 C493 0.930 . S
H478 C494 0.931 . S
C479 H467 0.929 . S
C479 C473 1.390 . S
C479 C476 1.386 . S
C480 C475 1.490 . S
C480 C482 1.395 . S
C480 C483 1.403 1_565 S
H481 C487 0.930 . S
C482 H468 0.930 . S
C482 C480 1.395 . S
C482 C485 1.403 . S
C483 C480 1.403 1_545 S
C483 C484 1.524 . S
C483 C487 1.400 . S
C484 H469 0.960 . S
C484 H470 0.960 . S
C484 H471 0.960 . S
C484 C483 1.524 . S
C485 C482 1.403 . S
C485 C486 1.392 1_565 S
C485 C489 1.495 . S
C486 C485 1.392 1_545 S
C486 C487 1.385 . S
C486 C488 1.478 . S
C487 H481 0.930 . S
C487 C483 1.400 . S
C487 C486 1.385 . S
C488 C486 1.478 . S
C488 C490 1.381 . S
C488 C494 1.383 . S
C489 C485 1.495 . S
C489 H495 0.959 . S
C489 H496 0.961 . S
C489 H497 0.960 . S
C490 C488 1.381 . S
C490 C491 1.394 . S
C490 H498 0.930 . S
C491 C490 1.394 . S
C491 C492 1.383 . S
C491 H499 0.929 . S
C492 C491 1.383 . S
C492 C493 1.377 . S
C493 H477 0.930 . S
C493 C492 1.377 . S
C493 C494 1.379 . S
C494 H478 0.931 . S
C494 C488 1.383 . S
C494 C493 1.379 . S
H495 C489 0.959 . S
H496 C489 0.961 . S
H497 C489 0.960 . S
H498 C490 0.930 . S
H499 C491 0.929 . S
H500 C508 0.929 . S
H501 C510 0.930 . S
H502 C512 0.930 . S
H503 C515 0.929 . S
H504 C518 0.930 . S
H505 C520 0.967 . S
H506 C520 0.951 1_565 S
H507 C520 0.962 . S
C508 H500 0.929 . S
C508 C509 1.377 . S
C508 C510 1.384 . S
C509 C508 1.377 . S
C509 C515 1.390 . S
C510 H501 0.930 . S
C510 C508 1.384 . S
C510 C511 1.372 . S
C511 C510 1.372 . S
C511 C512 1.400 . S
C511 C516 1.490 . S
C512 H502 0.930 . S
C512 C511 1.400 . S
C512 C515 1.386 . S
H513 C529 0.930 . S
H514 C530 0.931 . S
C515 H503 0.929 . S
C515 C509 1.390 . S
C515 C512 1.386 . S
C516 C511 1.490 . S
C516 C518 1.395 . S
C516 C519 1.394 1_565 S
H517 C523 0.930 . S
C518 H504 0.930 . S
C518 C516 1.395 . S
C518 C521 1.403 1_565 S
C519 C516 1.394 1_545 S
C519 C520 1.524 . S
C519 C523 1.409 . S
C520 H505 0.967 . S
C520 H506 0.951 1_545 S
C520 H507 0.962 . S
C520 C519 1.524 . S
C521 C518 1.403 1_545 S
C521 C522 1.392 . S
C521 C525 1.495 . S
C522 C521 1.392 . S
C522 C523 1.385 . S
C522 C524 1.478 . S
C523 H517 0.930 . S
C523 C519 1.409 . S
C523 C522 1.385 . S
C524 C522 1.478 . S
C524 C526 1.381 . S
C524 C530 1.383 . S
C525 C521 1.495 . S
C525 H531 0.959 1_545 S
C525 H532 0.961 . S
C525 H533 0.960 1_545 S
C526 C524 1.381 . S
C526 C527 1.394 . S
C526 H534 0.930 . S
C527 C526 1.394 . S
C527 C528 1.383 . S
C527 H535 0.929 . S
C528 C527 1.383 . S
C528 C529 1.377 . S
C529 H513 0.930 . S
C529 C528 1.377 . S
C529 C530 1.379 . S
C530 H514 0.931 . S
C530 C524 1.383 . S
C530 C529 1.379 . S
H531 C525 0.959 1_565 S
H532 C525 0.961 . S
H533 C525 0.960 1_565 S
H534 C526 0.930 . S
H535 C527 0.929 . S
H536 C544 0.929 . S
H537 C546 0.930 . S
H538 C548 0.930 . S
H539 C551 0.929 . S
H540 C554 0.930 . S
H541 C556 0.960 . S
H542 C556 0.960 . S
H543 C556 0.960 . S
C544 H536 0.929 . S
C544 C545 1.377 . S
C544 C546 1.384 . S
C545 C544 1.377 . S
C545 C551 1.390 . S
C546 H537 0.930 . S
C546 C544 1.384 . S
C546 C547 1.372 . S
C547 C546 1.372 . S
C547 C548 1.400 . S
C547 C552 1.490 . S
C548 H538 0.930 . S
C548 C547 1.400 . S
C548 C551 1.386 . S
H549 C565 0.930 . S
H550 C566 0.931 . S
C551 H539 0.929 . S
C551 C545 1.390 . S
C551 C548 1.386 . S
C552 C547 1.490 . S
C552 C554 1.395 . S
C552 C555 1.403 1_545 S
H553 C559 0.930 . S
C554 H540 0.930 . S
C554 C552 1.395 . S
C554 C557 1.403 . S
C555 C552 1.403 1_565 S
C555 C556 1.524 . S
C555 C559 1.400 . S
C556 H541 0.960 . S
C556 H542 0.960 . S
C556 H543 0.960 . S
C556 C555 1.524 . S
C557 C554 1.403 . S
C557 C558 1.392 1_545 S
C557 C561 1.495 . S
C558 C557 1.392 1_565 S
C558 C559 1.385 . S
C558 C560 1.478 . S
C559 H553 0.930 . S
C559 C555 1.400 . S
C559 C558 1.385 . S
C560 C558 1.478 . S
C560 C562 1.381 . S
C560 C566 1.383 . S
C561 C557 1.495 . S
C561 H567 0.959 . S
C561 H568 0.961 . S
C561 H569 0.960 . S
C562 C560 1.381 . S
C562 C563 1.394 . S
C562 H570 0.930 . S
C563 C562 1.394 . S
C563 C564 1.383 . S
C563 H571 0.929 . S
C564 C563 1.383 . S
C564 C565 1.377 . S
C565 H549 0.930 . S
C565 C564 1.377 . S
C565 C566 1.379 . S
C566 H550 0.931 . S
C566 C560 1.383 . S
C566 C565 1.379 . S
H567 C561 0.959 . S
H568 C561 0.961 . S
H569 C561 0.960 . S
H570 C562 0.930 . S
H571 C563 0.929 . S
H572 C580 0.929 . S
H573 C582 0.930 . S
H574 C584 0.930 . S
H575 C587 0.929 . S
H576 C590 0.930 . S
H577 C592 0.960 . S
H578 C592 0.960 . S
H579 C592 0.960 . S
C580 H572 0.929 . S
C580 C581 1.377 . S
C580 C582 1.384 . S
C581 C580 1.377 . S
C581 C587 1.390 . S
C582 H573 0.930 . S
C582 C580 1.384 . S
C582 C583 1.372 . S
C583 C582 1.372 . S
C583 C584 1.400 . S
C583 C588 1.490 . S
C584 H574 0.930 . S
C584 C583 1.400 . S
C584 C587 1.386 . S
H585 C601 0.930 . S
H586 C602 0.931 . S
C587 H575 0.929 . S
C587 C581 1.390 . S
C587 C584 1.386 . S
C588 C583 1.490 . S
C588 C590 1.395 . S
C588 C591 1.403 1_565 S
H589 C595 0.930 . S
C590 H576 0.930 . S
C590 C588 1.395 . S
C590 C593 1.403 . S
C591 C588 1.403 1_545 S
C591 C592 1.524 . S
C591 C595 1.400 . S
C592 H577 0.960 . S
C592 H578 0.960 . S
C592 H579 0.960 . S
C592 C591 1.524 . S
C593 C590 1.403 . S
C593 C594 1.392 1_565 S
C593 C597 1.495 . S
C594 C593 1.392 1_545 S
C594 C595 1.385 . S
C594 C596 1.478 . S
C595 H589 0.930 . S
C595 C591 1.400 . S
C595 C594 1.385 . S
C596 C594 1.478 . S
C596 C598 1.381 . S
C596 C602 1.383 . S
C597 C593 1.495 . S
C597 H603 0.959 . S
C597 H604 0.961 . S
C597 H605 0.960 . S
C598 C596 1.381 . S
C598 C599 1.394 . S
C598 H606 0.930 . S
C599 C598 1.394 . S
C599 C600 1.383 . S
C599 H607 0.929 . S
C600 C599 1.383 . S
C600 C601 1.377 . S
C601 H585 0.930 . S
C601 C600 1.377 . S
C601 C602 1.379 . S
C602 H586 0.931 . S
C602 C596 1.383 . S
C602 C601 1.379 . S
H603 C597 0.959 . S
H604 C597 0.961 . S
H605 C597 0.960 . S
H606 C598 0.930 . S
H607 C599 0.929 . S
H608 C616 0.929 . S
H609 C618 0.930 . S
H610 C620 0.930 . S
H611 C623 0.929 . S
H612 C626 0.930 . S
H613 C628 0.960 . S
H614 C628 0.960 . S
H615 C628 0.960 . S
C616 H608 0.929 . S
C616 C617 1.377 . S
C616 C618 1.384 . S
C617 C616 1.377 . S
C617 C623 1.390 . S
C618 H609 0.930 . S
C618 C616 1.384 . S
C618 C619 1.372 . S
C619 C618 1.372 . S
C619 C620 1.400 . S
C619 C624 1.490 . S
C620 H610 0.930 . S
C620 C619 1.400 . S
C620 C623 1.386 . S
H621 C637 0.930 . S
H622 C638 0.931 . S
C623 H611 0.929 . S
C623 C617 1.390 . S
C623 C620 1.386 . S
C624 C619 1.490 . S
C624 C626 1.395 1_565 S
C624 C627 1.403 . S
H625 C631 0.930 . S
C626 H612 0.930 . S
C626 C624 1.395 1_545 S
C626 C629 1.403 . S
C627 C624 1.403 . S
C627 C628 1.524 . S
C627 C631 1.400 . S
C628 H613 0.960 . S
C628 H614 0.960 . S
C628 H615 0.960 . S
C628 C627 1.524 . S
C629 C626 1.403 . S
C629 C630 1.392 . S
C629 C633 1.495 . S
C630 C629 1.392 . S
C630 C631 1.385 1_545 S
C630 C632 1.478 . S
C631 H625 0.930 . S
C631 C627 1.400 . S
C631 C630 1.385 1_565 S
C632 C630 1.478 . S
C632 C634 1.381 . S
C632 C638 1.383 . S
C633 C629 1.495 . S
C633 H639 0.959 . S
C633 H640 0.961 . S
C633 H641 0.960 . S
C634 C632 1.381 . S
C634 C635 1.394 . S
C634 H642 0.930 . S
C635 C634 1.394 . S
C635 C636 1.383 . S
C635 H643 0.929 . S
C636 C635 1.383 . S
C636 C637 1.377 . S
C637 H621 0.930 . S
C637 C636 1.377 . S
C637 C638 1.379 . S
C638 H622 0.931 . S
C638 C632 1.383 . S
C638 C637 1.379 . S
H639 C633 0.959 . S
H640 C633 0.961 . S
H641 C633 0.960 . S
H642 C634 0.930 . S
H643 C635 0.929 . S
H644 C652 0.929 . S
H645 C654 0.930 . S
H646 C656 0.930 . S
H647 C659 0.929 . S
H648 C662 0.930 . S
H649 C664 0.960 . S
H650 C664 0.960 . S
H651 C664 0.960 . S
C652 H644 0.929 . S
C652 C653 1.377 . S
C652 C654 1.384 . S
C653 C652 1.377 . S
C653 C659 1.390 . S
C654 H645 0.930 . S
C654 C652 1.384 . S
C654 C655 1.372 . S
C655 C654 1.372 . S
C655 C656 1.400 . S
C655 C660 1.490 . S
C656 H646 0.930 . S
C656 C655 1.400 . S
C656 C659 1.386 . S
H657 C673 0.930 . S
H658 C674 0.931 . S
C659 H647 0.929 . S
C659 C653 1.390 . S
C659 C656 1.386 . S
C660 C655 1.490 . S
C660 C662 1.395 1_545 S
C660 C663 1.403 . S
H661 C667 0.930 . S
C662 H648 0.930 . S
C662 C660 1.395 1_565 S
C662 C665 1.403 . S
C663 C660 1.403 . S
C663 C664 1.524 . S
C663 C667 1.400 1_545 S
C664 H649 0.960 . S
C664 H650 0.960 . S
C664 H651 0.960 . S
C664 C663 1.524 . S
C665 C662 1.403 . S
C665 C666 1.392 . S
C665 C669 1.495 . S
C666 C665 1.392 . S
C666 C667 1.385 . S
C666 C668 1.478 . S
C667 H661 0.930 . S
C667 C663 1.400 1_565 S
C667 C666 1.385 . S
C668 C666 1.478 . S
C668 C670 1.381 . S
C668 C674 1.383 . S
C669 C665 1.495 . S
C669 H675 0.959 . S
C669 H676 0.961 . S
C669 H677 0.960 . S
C670 C668 1.381 . S
C670 C671 1.394 . S
C670 H678 0.930 . S
C671 C670 1.394 . S
C671 C672 1.383 . S
C671 H679 0.929 . S
C672 C671 1.383 . S
C672 C673 1.377 . S
C673 H657 0.930 . S
C673 C672 1.377 . S
C673 C674 1.379 . S
C674 H658 0.931 . S
C674 C668 1.383 . S
C674 C673 1.379 . S
H675 C669 0.959 . S
H676 C669 0.961 . S
H677 C669 0.960 . S
H678 C670 0.930 . S
H679 C671 0.929 . S
H680 C688 0.929 . S
H681 C690 0.930 . S
H682 C692 0.930 . S
H683 C695 0.929 . S
H684 C698 0.930 . S
H685 C700 0.960 . S
H686 C700 0.960 . S
H687 C700 0.960 . S
C688 H680 0.929 . S
C688 C689 1.377 . S
C688 C690 1.384 . S
C689 C688 1.377 . S
C689 C695 1.390 . S
C690 H681 0.930 . S
C690 C688 1.384 . S
C690 C691 1.372 . S
C691 C690 1.372 . S
C691 C692 1.400 . S
C691 C696 1.490 . S
C692 H682 0.930 . S
C692 C691 1.400 . S
C692 C695 1.386 . S
H693 C709 0.930 . S
H694 C710 0.931 . S
C695 H683 0.929 . S
C695 C689 1.390 . S
C695 C692 1.386 . S
C696 C691 1.490 . S
C696 C698 1.395 1_565 S
C696 C699 1.403 . S
H697 C703 0.930 . S
C698 H684 0.930 . S
C698 C696 1.395 1_545 S
C698 C701 1.403 . S
C699 C696 1.403 . S
C699 C700 1.524 . S
C699 C703 1.400 1_565 S
C700 H685 0.960 . S
C700 H686 0.960 . S
C700 H687 0.960 . S
C700 C699 1.524 . S
C701 C698 1.403 . S
C701 C702 1.392 . S
C701 C705 1.495 . S
C702 C701 1.392 . S
C702 C703 1.385 . S
C702 C704 1.478 . S
C703 H697 0.930 . S
C703 C699 1.400 1_545 S
C703 C702 1.385 . S
C704 C702 1.478 . S
C704 C706 1.381 . S
C704 C710 1.383 . S
C705 C701 1.495 . S
C705 H711 0.959 . S
C705 H712 0.961 . S
C705 H713 0.960 . S
C706 C704 1.381 . S
C706 C707 1.394 . S
C706 H714 0.930 . S
C707 C706 1.394 . S
C707 C708 1.383 . S
C707 H715 0.929 . S
C708 C707 1.383 . S
C708 C709 1.377 . S
C709 H693 0.930 . S
C709 C708 1.377 . S
C709 C710 1.379 . S
C710 H694 0.931 . S
C710 C704 1.383 . S
C710 C709 1.379 . S
H711 C705 0.959 . S
H712 C705 0.961 . S
H713 C705 0.960 . S
H714 C706 0.930 . S
H715 C707 0.929 . S
H716 C724 0.929 . S
H717 C726 0.930 . S
H718 C728 0.930 . S
H719 C731 0.929 . S
H720 C734 0.930 . S
H721 C736 0.960 . S
H722 C736 0.960 . S
H723 C736 0.960 . S
C724 H716 0.929 . S
C724 C725 1.377 . S
C724 C726 1.384 . S
C725 C724 1.377 . S
C725 C731 1.390 . S
C726 H717 0.930 . S
C726 C724 1.384 . S
C726 C727 1.372 . S
C727 C726 1.372 . S
C727 C728 1.400 . S
C727 C732 1.490 . S
C728 H718 0.930 . S
C728 C727 1.400 . S
C728 C731 1.386 . S
H729 C745 0.930 . S
H730 C746 0.931 . S
C731 H719 0.929 . S
C731 C725 1.390 . S
C731 C728 1.386 . S
C732 C727 1.490 . S
C732 C734 1.395 1_565 S
C732 C735 1.403 . S
H733 C739 0.930 . S
C734 H720 0.930 . S
C734 C732 1.395 1_545 S
C734 C737 1.403 . S
C735 C732 1.403 . S
C735 C736 1.524 . S
C735 C739 1.400 1_565 S
C736 H721 0.960 . S
C736 H722 0.960 . S
C736 H723 0.960 . S
C736 C735 1.524 . S
C737 C734 1.403 . S
C737 C738 1.392 . S
C737 C741 1.495 . S
C738 C737 1.392 . S
C738 C739 1.385 . S
C738 C740 1.478 . S
C739 H733 0.930 . S
C739 C735 1.400 1_545 S
C739 C738 1.385 . S
C740 C738 1.478 . S
C740 C742 1.381 . S
C740 C746 1.383 . S
C741 C737 1.495 . S
C741 H747 0.959 . S
C741 H748 0.961 . S
C741 H749 0.960 . S
C742 C740 1.381 . S
C742 C743 1.394 . S
C742 H750 0.930 . S
C743 C742 1.394 . S
C743 C744 1.383 . S
C743 H751 0.929 . S
C744 C743 1.383 . S
C744 C745 1.377 . S
C745 H729 0.930 . S
C745 C744 1.377 . S
C745 C746 1.379 . S
C746 H730 0.931 . S
C746 C740 1.383 . S
C746 C745 1.379 . S
H747 C741 0.959 . S
H748 C741 0.961 . S
H749 C741 0.960 . S
H750 C742 0.930 . S
H751 C743 0.929 . S
H752 C760 0.929 . S
H753 C762 0.930 . S
H754 C764 0.930 . S
H755 C767 0.929 . S
H756 C770 0.930 . S
H757 C772 0.960 . S
H758 C772 0.960 . S
H759 C772 0.960 . S
C760 H752 0.929 . S
C760 C761 1.377 . S
C760 C762 1.384 . S
C761 C760 1.377 . S
C761 C767 1.390 . S
C762 H753 0.930 . S
C762 C760 1.384 . S
C762 C763 1.372 . S
C763 C762 1.372 . S
C763 C764 1.400 . S
C763 C768 1.490 . S
C764 H754 0.930 . S
C764 C763 1.400 . S
C764 C767 1.386 . S
H765 C781 0.930 . S
H766 C782 0.931 . S
C767 H755 0.929 . S
C767 C761 1.390 . S
C767 C764 1.386 . S
C768 C763 1.490 . S
C768 C770 1.395 . S
C768 C771 1.403 . S
H769 C775 0.930 . S
C770 H756 0.930 . S
C770 C768 1.395 . S
C770 C773 1.403 . S
C771 C768 1.403 . S
C771 C772 1.524 . S
C771 C775 1.400 . S
C772 H757 0.960 . S
C772 H758 0.960 . S
C772 H759 0.960 . S
C772 C771 1.524 . S
C773 C770 1.403 . S
C773 C774 1.392 . S
C773 C777 1.495 . S
C774 C773 1.392 . S
C774 C775 1.385 . S
C774 C776 1.478 . S
C775 H769 0.930 . S
C775 C771 1.400 . S
C775 C774 1.385 . S
C776 C774 1.478 . S
C776 C778 1.381 . S
C776 C782 1.383 . S
C777 C773 1.495 . S
C777 H783 0.959 . S
C777 H784 0.961 . S
C777 H785 0.960 . S
C778 C776 1.381 . S
C778 C779 1.394 . S
C778 H786 0.930 . S
C779 C778 1.394 . S
C779 C780 1.383 . S
C779 H787 0.929 . S
C780 C779 1.383 . S
C780 C781 1.377 . S
C781 H765 0.930 . S
C781 C780 1.377 . S
C781 C782 1.379 . S
C782 H766 0.931 . S
C782 C776 1.383 . S
C782 C781 1.379 . S
H783 C777 0.959 . S
H784 C777 0.961 . S
H785 C777 0.960 . S
H786 C778 0.930 . S
H787 C779 0.929 . S
H788 C796 0.929 . S
H789 C798 0.930 . S
H790 C800 0.930 . S
H791 C803 0.929 . S
H792 C806 0.930 . S
H793 C808 0.960 . S
H794 C808 0.960 . S
H795 C808 0.960 . S
C796 H788 0.929 . S
C796 C797 1.377 . S
C796 C798 1.384 . S
C797 C796 1.377 . S
C797 C803 1.390 . S
C798 H789 0.930 . S
C798 C796 1.384 . S
C798 C799 1.372 . S
C799 C798 1.372 . S
C799 C800 1.400 . S
C799 C804 1.490 . S
C800 H790 0.930 . S
C800 C799 1.400 . S
C800 C803 1.386 . S
H801 C817 0.930 . S
H802 C818 0.931 . S
C803 H791 0.929 . S
C803 C797 1.390 . S
C803 C800 1.386 . S
C804 C799 1.490 . S
C804 C806 1.395 . S
C804 C807 1.403 . S
H805 C811 0.930 . S
C806 H792 0.930 . S
C806 C804 1.395 . S
C806 C809 1.403 . S
C807 C804 1.403 . S
C807 C808 1.524 . S
C807 C811 1.400 . S
C808 H793 0.960 . S
C808 H794 0.960 . S
C808 H795 0.960 . S
C808 C807 1.524 . S
C809 C806 1.403 . S
C809 C810 1.392 . S
C809 C813 1.495 . S
C810 C809 1.392 . S
C810 C811 1.385 . S
C810 C812 1.478 . S
C811 H805 0.930 . S
C811 C807 1.400 . S
C811 C810 1.385 . S
C812 C810 1.478 . S
C812 C814 1.381 . S
C812 C818 1.383 . S
C813 C809 1.495 . S
C813 H819 0.959 . S
C813 H820 0.961 . S
C813 H821 0.960 . S
C814 C812 1.381 . S
C814 C815 1.394 . S
C814 H822 0.930 . S
C815 C814 1.394 . S
C815 C816 1.383 . S
C815 H823 0.929 . S
C816 C815 1.383 . S
C816 C817 1.377 . S
C817 H801 0.930 . S
C817 C816 1.377 . S
C817 C818 1.379 . S
C818 H802 0.931 . S
C818 C812 1.383 . S
C818 C817 1.379 . S
H819 C813 0.959 . S
H820 C813 0.961 . S
H821 C813 0.960 . S
H822 C814 0.930 . S
H823 C815 0.929 . S
H824 C832 0.929 . S
H825 C834 0.930 . S
H826 C836 0.930 . S
H827 C839 0.929 . S
H828 C842 0.930 . S
H829 C844 0.960 . S
H830 C844 0.960 . S
H831 C844 0.960 . S
C832 H824 0.929 . S
C832 C833 1.377 . S
C832 C834 1.384 . S
C833 C832 1.377 . S
C833 C839 1.390 . S
C834 H825 0.930 . S
C834 C832 1.384 . S
C834 C835 1.372 . S
C835 C834 1.372 . S
C835 C836 1.400 . S
C835 C840 1.490 . S
C836 H826 0.930 . S
C836 C835 1.400 . S
C836 C839 1.386 . S
H837 C853 0.930 . S
H838 C854 0.931 . S
C839 H827 0.929 . S
C839 C833 1.390 . S
C839 C836 1.386 . S
C840 C835 1.490 . S
C840 C842 1.395 . S
C840 C843 1.403 . S
H841 C847 0.930 . S
C842 H828 0.930 . S
C842 C840 1.395 . S
C842 C845 1.403 . S
C843 C840 1.403 . S
C843 C844 1.524 . S
C843 C847 1.400 . S
C844 H829 0.960 . S
C844 H830 0.960 . S
C844 H831 0.960 . S
C844 C843 1.524 . S
C845 C842 1.403 . S
C845 C846 1.392 . S
C845 C849 1.495 . S
C846 C845 1.392 . S
C846 C847 1.385 . S
C846 C848 1.478 . S
C847 H841 0.930 . S
C847 C843 1.400 . S
C847 C846 1.385 . S
C848 C846 1.478 . S
C848 C850 1.381 . S
C848 C854 1.383 . S
C849 C845 1.495 . S
C849 H855 0.959 . S
C849 H856 0.961 . S
C849 H857 0.960 . S
C850 C848 1.381 . S
C850 C851 1.394 . S
C850 H858 0.930 . S
C851 C850 1.394 . S
C851 C852 1.383 . S
C851 H859 0.929 . S
C852 C851 1.383 . S
C852 C853 1.377 . S
C853 H837 0.930 . S
C853 C852 1.377 . S
C853 C854 1.379 . S
C854 H838 0.931 . S
C854 C848 1.383 . S
C854 C853 1.379 . S
H855 C849 0.959 . S
H856 C849 0.961 . S
H857 C849 0.960 . S
H858 C850 0.930 . S
H859 C851 0.929 . S
H860 C868 0.929 . S
H861 C870 0.930 . S
H862 C872 0.930 . S
H863 C875 0.929 . S
H864 C878 0.930 . S
H865 C880 0.960 . S
H866 C880 0.960 . S
H867 C880 0.960 . S
C868 H860 0.929 . S
C868 C869 1.377 . S
C868 C870 1.384 . S
C869 C868 1.377 . S
C869 C875 1.390 . S
C870 H861 0.930 . S
C870 C868 1.384 . S
C870 C871 1.372 . S
C871 C870 1.372 . S
C871 C872 1.400 . S
C871 C876 1.490 . S
C872 H862 0.930 . S
C872 C871 1.400 . S
C872 C875 1.386 . S
H873 C889 0.930 . S
H874 C890 0.931 . S
C875 H863 0.929 . S
C875 C869 1.390 . S
C875 C872 1.386 . S
C876 C871 1.490 . S
C876 C878 1.395 . S
C876 C879 1.403 . S
H877 C883 0.930 . S
C878 H864 0.930 . S
C878 C876 1.395 . S
C878 C881 1.403 . S
C879 C876 1.403 . S
C879 C880 1.524 . S
C879 C883 1.400 . S
C880 H865 0.960 . S
C880 H866 0.960 . S
C880 H867 0.960 . S
C880 C879 1.524 . S
C881 C878 1.403 . S
C881 C882 1.392 . S
C881 C885 1.495 . S
C882 C881 1.392 . S
C882 C883 1.385 . S
C882 C884 1.478 . S
C883 H877 0.930 . S
C883 C879 1.400 . S
C883 C882 1.385 . S
C884 C882 1.478 . S
C884 C886 1.381 . S
C884 C890 1.383 . S
C885 C881 1.495 . S
C885 H891 0.959 . S
C885 H892 0.961 . S
C885 H893 0.960 . S
C886 C884 1.381 . S
C886 C887 1.394 . S
C886 H894 0.930 . S
C887 C886 1.394 . S
C887 C888 1.383 . S
C887 H895 0.929 . S
C888 C887 1.383 . S
C888 C889 1.377 . S
C889 H873 0.930 . S
C889 C888 1.377 . S
C889 C890 1.379 . S
C890 H874 0.931 . S
C890 C884 1.383 . S
C890 C889 1.379 . S
H891 C885 0.959 . S
H892 C885 0.961 . S
H893 C885 0.960 . S
H894 C886 0.930 . S
H895 C887 0.929 . S
H896 C904 0.929 . S
H897 C906 0.930 . S
H898 C908 0.930 . S
H899 C911 0.929 . S
H900 C914 0.930 . S
H901 C916 0.960 . S
H902 C916 0.960 . S
H903 C916 0.960 . S
C904 H896 0.929 . S
C904 C905 1.377 . S
C904 C906 1.384 . S
C905 C904 1.377 . S
C905 C911 1.390 . S
C906 H897 0.930 . S
C906 C904 1.384 . S
C906 C907 1.372 . S
C907 C906 1.372 . S
C907 C908 1.400 . S
C907 C912 1.490 . S
C908 H898 0.930 . S
C908 C907 1.400 . S
C908 C911 1.386 . S
H909 C925 0.930 . S
H910 C926 0.931 . S
C911 H899 0.929 . S
C911 C905 1.390 . S
C911 C908 1.386 . S
C912 C907 1.490 . S
C912 C914 1.395 . S
C912 C915 1.403 . S
H913 C919 0.930 . S
C914 H900 0.930 . S
C914 C912 1.395 . S
C914 C917 1.403 . S
C915 C912 1.403 . S
C915 C916 1.524 . S
C915 C919 1.400 . S
C916 H901 0.960 . S
C916 H902 0.960 . S
C916 H903 0.960 . S
C916 C915 1.524 . S
C917 C914 1.403 . S
C917 C918 1.392 . S
C917 C921 1.495 . S
C918 C917 1.392 . S
C918 C919 1.385 . S
C918 C920 1.478 . S
C919 H913 0.930 . S
C919 C915 1.400 . S
C919 C918 1.385 . S
C920 C918 1.478 . S
C920 C922 1.381 . S
C920 C926 1.383 . S
C921 C917 1.495 . S
C921 H927 0.959 . S
C921 H928 0.961 . S
C921 H929 0.960 . S
C922 C920 1.381 . S
C922 C923 1.394 . S
C922 H930 0.930 . S
C923 C922 1.394 . S
C923 C924 1.383 . S
C923 H931 0.929 . S
C924 C923 1.383 . S
C924 C925 1.377 . S
C925 H909 0.930 . S
C925 C924 1.377 . S
C925 C926 1.379 . S
C926 H910 0.931 . S
C926 C920 1.383 . S
C926 C925 1.379 . S
H927 C921 0.959 . S
H928 C921 0.961 . S
H929 C921 0.960 . S
H930 C922 0.930 . S
H931 C923 0.929 . S
H932 C940 0.929 . S
H933 C942 0.930 . S
H934 C944 0.930 . S
H935 C947 0.929 . S
H936 C950 0.930 . S
H937 C952 0.960 . S
H938 C952 0.960 . S
H939 C952 0.960 . S
C940 H932 0.929 . S
C940 C941 1.377 . S
C940 C942 1.384 . S
C941 C940 1.377 . S
C941 C947 1.390 . S
C942 H933 0.930 . S
C942 C940 1.384 . S
C942 C943 1.372 . S
C943 C942 1.372 . S
C943 C944 1.400 . S
C943 C948 1.490 . S
C944 H934 0.930 . S
C944 C943 1.400 . S
C944 C947 1.386 . S
H945 C961 0.930 . S
H946 C962 0.931 . S
C947 H935 0.929 . S
C947 C941 1.390 . S
C947 C944 1.386 . S
C948 C943 1.490 . S
C948 C950 1.395 . S
C948 C951 1.403 . S
H949 C955 0.930 . S
C950 H936 0.930 . S
C950 C948 1.395 . S
C950 C953 1.403 . S
C951 C948 1.403 . S
C951 C952 1.524 . S
C951 C955 1.400 . S
C952 H937 0.960 . S
C952 H938 0.960 . S
C952 H939 0.960 . S
C952 C951 1.524 . S
C953 C950 1.403 . S
C953 C954 1.392 . S
C953 C957 1.495 . S
C954 C953 1.392 . S
C954 C955 1.385 . S
C954 C956 1.478 . S
C955 H949 0.930 . S
C955 C951 1.400 . S
C955 C954 1.385 . S
C956 C954 1.478 . S
C956 C958 1.381 . S
C956 C962 1.383 . S
C957 C953 1.495 . S
C957 H963 0.959 . S
C957 H964 0.961 . S
C957 H965 0.960 . S
C958 C956 1.381 . S
C958 C959 1.394 . S
C958 H966 0.930 . S
C959 C958 1.394 . S
C959 C960 1.383 . S
C959 H967 0.929 . S
C960 C959 1.383 . S
C960 C961 1.377 . S
C961 H945 0.930 . S
C961 C960 1.377 . S
C961 C962 1.379 . S
C962 H946 0.931 . S
C962 C956 1.383 . S
C962 C961 1.379 . S
H963 C957 0.959 . S
H964 C957 0.961 . S
H965 C957 0.960 . S
H966 C958 0.930 . S
H967 C959 0.929 . S
H968 C976 0.929 . S
H969 C978 0.930 . S
H970 C980 0.930 . S
H971 C983 0.929 . S
H972 C986 0.930 . S
H973 C988 0.960 . S
H974 C988 0.960 . S
H975 C988 0.960 . S
C976 H968 0.929 . S
C976 C977 1.377 . S
C976 C978 1.384 . S
C977 C976 1.377 . S
C977 C983 1.390 . S
C978 H969 0.930 . S
C978 C976 1.384 . S
C978 C979 1.372 . S
C979 C978 1.372 . S
C979 C980 1.400 . S
C979 C984 1.490 . S
C980 H970 0.930 . S
C980 C979 1.400 . S
C980 C983 1.386 . S
H981 C997 0.930 . S
H982 C998 0.931 . S
C983 H971 0.929 . S
C983 C977 1.390 . S
C983 C980 1.386 . S
C984 C979 1.490 . S
C984 C986 1.395 . S
C984 C987 1.403 . S
H985 C991 0.930 . S
C986 H972 0.930 . S
C986 C984 1.395 . S
C986 C989 1.403 . S
C987 C984 1.403 . S
C987 C988 1.524 . S
C987 C991 1.400 . S
C988 H973 0.960 . S
C988 H974 0.960 . S
C988 H975 0.960 . S
C988 C987 1.524 . S
C989 C986 1.403 . S
C989 C990 1.392 . S
C989 C993 1.495 . S
C990 C989 1.392 . S
C990 C991 1.385 . S
C990 C992 1.478 . S
C991 H985 0.930 . S
C991 C987 1.400 . S
C991 C990 1.385 . S
C992 C990 1.478 . S
C992 C994 1.381 . S
C992 C998 1.383 . S
C993 C989 1.495 . S
C993 H999 0.959 . S
C993 H1000 0.961 . S
C993 H1001 0.960 . S
C994 C992 1.381 . S
C994 C995 1.394 . S
C994 H1002 0.930 . S
C995 C994 1.394 . S
C995 C996 1.383 . S
C995 H1003 0.929 . S
C996 C995 1.383 . S
C996 C997 1.377 . S
C997 H981 0.930 . S
C997 C996 1.377 . S
C997 C998 1.379 . S
C998 H982 0.931 . S
C998 C992 1.383 . S
C998 C997 1.379 . S
H999 C993 0.959 . S
H1000 C993 0.961 . S
H1001 C993 0.960 . S
H1002 C994 0.930 . S
H1003 C995 0.929 . S
H1004 C1012 0.929 . S
H1005 C1014 0.930 . S
H1006 C1016 0.930 . S
H1007 C1019 0.929 . S
H1008 C1022 0.930 . S
H1009 C1024 0.960 . S
H1010 C1024 0.960 . S
H1011 C1024 0.960 . S
C1012 H1004 0.929 . S
C1012 C1013 1.377 . S
C1012 C1014 1.384 . S
C1013 C1012 1.377 . S
C1013 C1019 1.390 . S
C1014 H1005 0.930 . S
C1014 C1012 1.384 . S
C1014 C1015 1.372 . S
C1015 C1014 1.372 . S
C1015 C1016 1.400 . S
C1015 C1020 1.490 . S
C1016 H1006 0.930 . S
C1016 C1015 1.400 . S
C1016 C1019 1.386 . S
H1017 C1033 0.930 . S
H1018 C1034 0.931 . S
C1019 H1007 0.929 . S
C1019 C1013 1.390 . S
C1019 C1016 1.386 . S
C1020 C1015 1.490 . S
C1020 C1022 1.395 . S
C1020 C1023 1.403 . S
H1021 C1027 0.930 . S
C1022 H1008 0.930 . S
C1022 C1020 1.395 . S
C1022 C1025 1.403 . S
C1023 C1020 1.403 . S
C1023 C1024 1.524 . S
C1023 C1027 1.400 . S
C1024 H1009 0.960 . S
C1024 H1010 0.960 . S
C1024 H1011 0.960 . S
C1024 C1023 1.524 . S
C1025 C1022 1.403 . S
C1025 C1026 1.392 . S
C1025 C1029 1.495 . S
C1026 C1025 1.392 . S
C1026 C1027 1.385 . S
C1026 C1028 1.478 . S
C1027 H1021 0.930 . S
C1027 C1023 1.400 . S
C1027 C1026 1.385 . S
C1028 C1026 1.478 . S
C1028 C1030 1.381 . S
C1028 C1034 1.383 . S
C1029 C1025 1.495 . S
C1029 H1035 0.959 . S
C1029 H1036 0.961 . S
C1029 H1037 0.960 . S
C1030 C1028 1.381 . S
C1030 C1031 1.394 . S
C1030 H1038 0.930 . S
C1031 C1030 1.394 . S
C1031 C1032 1.383 . S
C1031 H1039 0.929 . S
C1032 C1031 1.383 . S
C1032 C1033 1.377 . S
C1033 H1017 0.930 . S
C1033 C1032 1.377 . S
C1033 C1034 1.379 . S
C1034 H1018 0.931 . S
C1034 C1028 1.383 . S
C1034 C1033 1.379 . S
H1035 C1029 0.959 . S
H1036 C1029 0.961 . S
H1037 C1029 0.960 . S
H1038 C1030 0.930 . S
H1039 C1031 0.929 . S
C185 C15 1.663 . S
C204 C95 1.649 . S
C221 C128 1.547 . S
C240 C30 1.541 . S
C257 C62 1.546 . S
C276 C150 1.545 . S
C293 C87 1.664 . S
C312 C161 1.668 . S
C329 C74 1.546 . S
C348 C172 1.546 . S
C365 C117 1.661 . S
C384 C43 1.657 . S
C401 C139 1.664 . S
C420 C51 1.669 . S
C437 C10 1.546 . S
C456 C106 1.542 . S
C473 C125 1.360 . S
C492 C18 1.369 . S
C509 C29 1.432 . S
C528 C147 1.433 . S
C545 C162 1.369 . S
C564 C59 1.370 . S
C581 C96 1.299 . S
C600 C76 1.293 . S
C617 C98 1.369 . S
C636 C81 1.368 . S
C653 C175 1.431 . S
C672 C65 1.422 . S
C689 C40 1.367 . S
C708 C153 1.349 . S
C725 C120 1.297 . S
C744 C8 1.296 . S
C761 C169 1.360 . S
C780 C52 1.369 . S
C797 C103 1.435 . S
C816 C73 1.419 . S
C833 C118 1.370 . S
C852 C21 1.348 . S
C869 C32 1.299 . S
C888 C140 1.296 . S
C905 C142 1.368 . S
C924 C37 1.368 . S
C941 C7 1.432 . S
C960 C131 1.439 . S
C977 C109 1.363 . S
C996 C84 1.369 . S
C1013 C164 1.298 . S
C1032 C54 1.299 . S
