# Generated by pormake.
# Topology wkt, (7)-cn, num edge types: 1
# Building blocks:
#     Node 0, Type 0, BuildingBlock: HICVOG_clean_sbu_0, # of connection points: 7
#     Node 1, Type 0, BuildingBlock: HICVOG_clean_sbu_0, # of connection points: 7
#     Node 2, Type 0, BuildingBlock: HICVOG_clean_sbu_0, # of connection points: 7
#     Node 3, Type 0, BuildingBlock: HICVOG_clean_sbu_0, # of connection points: 7
#     Node 4, Type 0, BuildingBlock: HICVOG_clean_sbu_0, # of connection points: 7
#     Node 5, Type 0, BuildingBlock: HICVOG_clean_sbu_0, # of connection points: 7
#     Node 6, Type 0, BuildingBlock: HICVOG_clean_sbu_0, # of connection points: 7
#     Node 7, Type 0, BuildingBlock: HICVOG_clean_sbu_0, # of connection points: 7
#     Node 8, Type 0, BuildingBlock: HICVOG_clean_sbu_0, # of connection points: 7
#     Node 9, Type 0, BuildingBlock: HICVOG_clean_sbu_0, # of connection points: 7
#     Node 10, Type 0, BuildingBlock: HICVOG_clean_sbu_0, # of connection points: 7
#     Node 11, Type 0, BuildingBlock: HICVOG_clean_sbu_0, # of connection points: 7
#     Edge 12, Type (0, 0), BuildingBlock: CIFDUS_clean_linker_0, # of connection points: 2
#     Edge 13, Type (0, 0), BuildingBlock: CIFDUS_clean_linker_0, # of connection points: 2
#     Edge 14, Type (0, 0), BuildingBlock: CIFDUS_clean_linker_0, # of connection points: 2
#     Edge 15, Type (0, 0), BuildingBlock: CIFDUS_clean_linker_0, # of connection points: 2
#     Edge 16, Type (0, 0), BuildingBlock: CIFDUS_clean_linker_0, # of connection points: 2
#     Edge 17, Type (0, 0), BuildingBlock: CIFDUS_clean_linker_0, # of connection points: 2
#     Edge 18, Type (0, 0), BuildingBlock: CIFDUS_clean_linker_0, # of connection points: 2
#     Edge 19, Type (0, 0), BuildingBlock: CIFDUS_clean_linker_0, # of connection points: 2
#     Edge 20, Type (0, 0), BuildingBlock: CIFDUS_clean_linker_0, # of connection points: 2
#     Edge 21, Type (0, 0), BuildingBlock: CIFDUS_clean_linker_0, # of connection points: 2
#     Edge 22, Type (0, 0), BuildingBlock: CIFDUS_clean_linker_0, # of connection points: 2
#     Edge 23, Type (0, 0), BuildingBlock: CIFDUS_clean_linker_0, # of connection points: 2
#     Edge 24, Type (0, 0), BuildingBlock: CIFDUS_clean_linker_0, # of connection points: 2
#     Edge 25, Type (0, 0), BuildingBlock: CIFDUS_clean_linker_0, # of connection points: 2
#     Edge 26, Type (0, 0), BuildingBlock: CIFDUS_clean_linker_0, # of connection points: 2
#     Edge 27, Type (0, 0), BuildingBlock: CIFDUS_clean_linker_0, # of connection points: 2
#     Edge 28, Type (0, 0), BuildingBlock: CIFDUS_clean_linker_0, # of connection points: 2
#     Edge 29, Type (0, 0), BuildingBlock: CIFDUS_clean_linker_0, # of connection points: 2
#     Edge 30, Type (0, 0), BuildingBlock: CIFDUS_clean_linker_0, # of connection points: 2
#     Edge 31, Type (0, 0), BuildingBlock: CIFDUS_clean_linker_0, # of connection points: 2
#     Edge 32, Type (0, 0), BuildingBlock: CIFDUS_clean_linker_0, # of connection points: 2
#     Edge 33, Type (0, 0), BuildingBlock: CIFDUS_clean_linker_0, # of connection points: 2
#     Edge 34, Type (0, 0), BuildingBlock: CIFDUS_clean_linker_0, # of connection points: 2
#     Edge 35, Type (0, 0), BuildingBlock: CIFDUS_clean_linker_0, # of connection points: 2
#     Edge 36, Type (0, 0), BuildingBlock: CIFDUS_clean_linker_0, # of connection points: 2
#     Edge 37, Type (0, 0), BuildingBlock: CIFDUS_clean_linker_0, # of connection points: 2
#     Edge 38, Type (0, 0), BuildingBlock: CIFDUS_clean_linker_0, # of connection points: 2
#     Edge 39, Type (0, 0), BuildingBlock: CIFDUS_clean_linker_0, # of connection points: 2
#     Edge 40, Type (0, 0), BuildingBlock: CIFDUS_clean_linker_0, # of connection points: 2
#     Edge 41, Type (0, 0), BuildingBlock: CIFDUS_clean_linker_0, # of connection points: 2
#     Edge 42, Type (0, 0), BuildingBlock: CIFDUS_clean_linker_0, # of connection points: 2
#     Edge 43, Type (0, 0), BuildingBlock: CIFDUS_clean_linker_0, # of connection points: 2
#     Edge 44, Type (0, 0), BuildingBlock: CIFDUS_clean_linker_0, # of connection points: 2
#     Edge 45, Type (0, 0), BuildingBlock: CIFDUS_clean_linker_0, # of connection points: 2
#     Edge 46, Type (0, 0), BuildingBlock: CIFDUS_clean_linker_0, # of connection points: 2
#     Edge 47, Type (0, 0), BuildingBlock: CIFDUS_clean_linker_0, # of connection points: 2
#     Edge 48, Type (0, 0), BuildingBlock: CIFDUS_clean_linker_0, # of connection points: 2
#     Edge 49, Type (0, 0), BuildingBlock: CIFDUS_clean_linker_0, # of connection points: 2
#     Edge 50, Type (0, 0), BuildingBlock: CIFDUS_clean_linker_0, # of connection points: 2
#     Edge 51, Type (0, 0), BuildingBlock: CIFDUS_clean_linker_0, # of connection points: 2
#     Edge 52, Type (0, 0), BuildingBlock: CIFDUS_clean_linker_0, # of connection points: 2
#     Edge 53, Type (0, 0), BuildingBlock: CIFDUS_clean_linker_0, # of connection points: 2
# Relax obj value: 0.211
# Max RMSD: 0.211
# Mean RMSD: 0.211
data_MOF--net-wkt--node1-HICVOG_clean_sbu_0--edge1-CIFDUS_clean_linker_0
_symmetry_space_group_name_H-M    P1
_symmetry_Int_Tables_number       1
_symmetry_cell_setting            triclinic
loop_
_symmetry_equiv_pos_as_xyz
'x, y, z'
_cell_length_a     28.976821
_cell_length_b     28.806909
_cell_length_c     49.464471
_cell_angle_alpha  89.950692
_cell_angle_beta   90.055984
_cell_angle_gamma 119.90969
loop_
_atom_site_label
_atom_site_type_symbol
_atom_site_fract_x
_atom_site_fract_y
_atom_site_fract_z
_atom_type_partial_charge
Zn0 Zn 0.37584 0.44589 0.08141 0.0
C1 C 0.3765 0.32106 0.11835 0.0
N2 N 0.34566 0.32936 0.13577 0.0
C3 C 0.35371 0.37791 0.12835 0.0
N4 N 0.38595 0.39787 0.10669 0.0
N5 N 0.40066 0.36221 0.10065 0.0
C6 C 0.46522 0.3037 0.03705 0.0
O7 O 0.49734 0.35033 1.02594 0.0
O8 O 0.37946 0.5134 0.10147 0.0
Zn9 Zn 0.45351 0.37275 0.07491 0.0
N10 N 0.30443 0.39704 0.06875 0.0
C11 C 0.24259 0.30842 0.05409 0.0
C12 C 0.29262 0.34571 0.06391 0.0
C13 C 0.26804 0.41255 0.06393 0.0
N14 N 0.20701 0.32445 0.04818 0.0
C15 C 0.21839 0.37554 0.05295 0.0
O16 O 0.45855 0.41932 0.04322 0.0
C17 C 0.44862 0.45395 0.03302 0.0
O18 O 0.4208 0.46987 0.04588 0.0
H19 H 0.32206 0.33381 0.06717 0.0
H20 H 0.27887 0.45395 0.06698 0.0
C21 C 0.56141 0.44779 0.07981 0.0
C22 C 0.60971 0.48159 0.09288 0.0
C23 C 0.57095 0.43921 0.13458 0.0
C24 C 0.52291 0.40637 0.12145 0.0
N25 N 0.51954 0.41073 0.09422 0.0
N26 N 0.61308 0.47607 0.12005 0.0
H27 H 0.5557 0.45189 0.0586 0.0
C28 C 0.3771 0.55276 0.0906 0.0
O29 O 0.37187 0.55299 0.06422 0.0
O30 O 0.44234 0.30249 0.05924 0.0
H31 H 0.4884 0.37903 0.13305 0.0
H32 H 0.23287 0.26759 0.05016 0.0
H33 H 0.57445 0.43622 0.1562 0.0
Zn34 Zn 0.08424 0.47469 0.21944 0.0
C35 C 0.98611 0.35524 0.26827 0.0
N36 N 1.02978 0.35218 0.27464 0.0
C37 C 0.06742 0.38875 0.25829 0.0
N38 N 0.04669 0.41209 0.24201 0.0
N39 N 0.99567 0.39161 0.24853 0.0
C40 C 0.84792 0.4157 0.24145 0.0
O41 O 0.85632 0.43532 0.21683 0.0
O42 O 0.14591 0.47326 0.20085 0.0
Zn43 Zn 0.9405 0.39988 0.22771 0.0
N44 N 0.09916 0.53054 0.24526 0.0
C45 C 0.06118 0.55117 0.28273 0.0
C46 C 0.05536 0.52212 0.25933 0.0
C47 C 0.14869 0.56875 0.25296 0.0
N48 N 0.11061 0.5888 0.29071 0.0
C49 C 0.15498 0.59886 0.27656 0.0
O50 O 0.96195 0.45627 0.19686 0.0
C51 C 1.00129 0.4776 0.18057 0.0
O52 O 0.04571 0.48226 0.18717 0.0
H53 H 1.01619 0.49149 0.25295 0.0
H54 H 0.18219 0.57504 0.24073 0.0
C55 C 0.87662 0.33889 0.18587 0.0
C56 C 0.8547 0.29826 0.16653 0.0
C57 C 0.90051 0.25791 0.1868 0.0
C58 C 0.92127 0.29806 0.20633 0.0
N59 N 0.90836 0.3374 0.20554 0.0
N60 N 0.86744 0.25867 0.16757 0.0
H61 H 0.86959 0.37225 0.18524 0.0
C62 C 0.12893 0.43305 0.18515 0.0
O63 O 0.07724 0.4011 0.18292 0.0
O64 O 0.87911 0.39991 0.25087 0.0
H65 H 0.94838 0.29838 0.22138 0.0
H66 H 1.02674 0.54411 0.29442 0.0
H67 H 0.91035 0.22629 0.18697 0.0
Zn68 Zn 0.60687 0.95857 0.40984 0.0
C69 C 0.7372 0.08996 0.44544 0.0
N70 N 0.73347 0.05053 0.46138 0.0
C71 C 0.68838 1.0074 0.45303 0.0
N72 N 0.66464 1.01828 0.43244 0.0
N73 N 0.69554 0.07054 0.42746 0.0
C74 C 0.75208 0.14034 0.361 0.0
O75 O 0.73224 0.08817 0.36149 0.0
O76 O 0.54342 0.89281 0.43275 0.0
Zn77 Zn 0.67491 0.11107 0.40386 0.0
N78 N 0.64631 0.93286 0.38895 0.0
C79 C 0.72659 0.93588 0.37507 0.0
C80 C 0.69939 0.95195 0.39252 0.0
C81 C 0.62023 0.90053 0.36776 0.0
N82 N 0.70009 0.90261 0.35419 0.0
C83 C 0.64764 0.88523 0.34976 0.0
O84 O 0.61623 0.06825 0.3762 0.0
C85 C 0.58105 0.02283 0.36709 0.0
O86 O 0.57271 0.97969 0.37865 0.0
H87 H 0.72114 0.98049 0.40818 0.0
H88 H 0.57843 0.88706 0.36501 0.0
C89 C 0.61809 0.16398 0.41918 0.0
C90 C 0.59729 0.18685 0.43697 0.0
C91 C 0.64635 0.17867 0.4729 0.0
C92 C 0.665 0.15374 0.45548 0.0
N93 N 0.65173 0.14805 0.42871 0.0
N94 N 0.61267 0.19457 0.46329 0.0
H95 H 0.60707 0.15799 0.39802 0.0
C96 C 0.50232 0.85033 0.4235 0.0
O97 O 0.49635 0.84465 0.39718 0.0
O98 O 0.73478 0.16124 0.37793 0.0
H99 H 0.68915 0.13864 0.46374 0.0
H100 H 0.76861 0.95027 0.37791 0.0
H101 H 0.65749 0.18413 0.49403 0.0
Zn102 Zn 0.6095 0.65455 0.5492 0.0
C103 C 0.707 0.63745 0.59982 0.0
N104 N 0.71733 0.68675 0.60768 0.0
C105 C 0.68968 0.69827 0.58981 0.0
N106 N 0.66369 0.65776 0.57203 0.0
N107 N 0.67422 0.61894 0.57799 0.0
C108 C 0.65862 0.4624 0.5909 0.0
O109 O 0.65774 0.48351 0.61428 0.0
O110 O 0.63169 0.72438 0.53194 0.0
Zn111 Zn 0.65609 0.55539 0.55383 0.0
N112 N 0.5524 0.64018 0.57278 0.0
C113 C 0.50074 0.66559 0.59955 0.0
C114 C 0.54201 0.67886 0.58126 0.0
C115 C 0.52265 0.58879 0.58098 0.0
N116 N 0.469 0.61349 0.60662 0.0
C117 C 0.47818 0.57428 0.59732 0.0
O118 O 0.59316 0.52981 0.52648 0.0
C119 C 0.57417 0.55396 0.51261 0.0
O120 O 0.58176 0.5997 0.51954 0.0
H121 H 0.56579 0.71953 0.57409 0.0
H122 H 0.53185 0.55913 0.57333 0.0
C123 C 0.70879 0.54513 0.51058 0.0
C124 C 0.74499 0.55981 0.4892 0.0
C125 C 0.77967 0.65137 0.50112 0.0
C126 C 0.74491 0.63606 0.52303 0.0
N127 N 0.71072 0.58317 0.52733 0.0
N128 N 0.77944 0.61302 0.48505 0.0
H129 H 0.67888 0.50399 0.51427 0.0
C130 C 0.66876 0.74462 0.51463 0.0
O131 O 0.69575 0.72037 0.50892 0.0
O132 O 0.65748 0.48596 0.56901 0.0
H133 H 0.74459 0.66594 0.5361 0.0
H134 H 0.49243 0.69593 0.60706 0.0
H135 H 0.80718 0.69325 0.49716 0.0
Zn136 Zn 0.10219 0.67327 0.75366 0.0
C137 C 0.97131 0.66566 0.78958 0.0
N138 N 1.00833 0.69659 0.8078 0.0
C139 C 0.05188 0.69487 0.79983 0.0
N140 N 0.04251 0.66438 0.77746 0.0
N141 N 0.99172 0.64613 0.77088 0.0
C142 C 0.87614 0.56905 0.7014 0.0
O143 O 0.89809 0.54315 0.69057 0.0
O144 O 0.165 0.66975 0.77473 0.0
Zn145 Zn 0.95224 0.58887 0.74493 0.0
N146 N 0.12775 0.74435 0.73939 0.0
C147 C 0.11734 0.81988 0.72993 0.0
C148 C 0.09789 0.7688 0.74088 0.0
C149 C 0.17463 0.7677 0.72605 0.0
N150 N 0.16445 0.84324 0.71652 0.0
C151 C 0.193 0.81775 0.71397 0.0
O152 O 0.99712 0.58147 0.71555 0.0
C153 C 0.04285 0.59388 0.70636 0.0
O154 O 0.08494 0.62644 0.71915 0.0
H155 H 0.05931 0.74919 0.75043 0.0
H156 H 0.19676 0.74681 0.72426 0.0
C157 C 0.92792 0.4846 0.75785 0.0
C158 C 0.90287 0.43553 0.77157 0.0
C159 C 0.86835 0.4723 0.80323 0.0
C160 C 0.89117 0.52006 0.78861 0.0
N161 N 0.92029 0.52494 0.76618 0.0
N162 N 0.87406 0.43092 0.79418 0.0
H163 H 0.95265 0.4909 0.74038 0.0
C164 C 0.20397 0.66739 0.76363 0.0
O165 O 0.20573 0.66601 0.73713 0.0
O166 O 0.89234 0.59134 0.72443 0.0
H167 H 0.88562 0.55275 0.79505 0.0
H168 H 0.09454 0.84018 0.73149 0.0
H169 H 0.84521 0.46766 0.82122 0.0
Zn170 Zn 0.42805 0.96712 0.88742 0.0
C171 C 0.40436 0.06183 0.93674 0.0
N172 N 0.35909 1.01697 0.94379 0.0
C173 C 0.3564 0.98008 0.92625 0.0
N174 N 0.39864 1.00198 0.9089 0.0
N175 N 0.42866 0.05345 0.91532 0.0
C176 C 0.59504 0.20988 0.90338 0.0
O177 O 0.6024 0.20679 0.8774 0.0
O178 O 0.36975 0.8946 0.87485 0.0
Zn179 Zn 0.4886 0.10876 0.8923 0.0
N180 N 0.479 0.96754 0.91265 0.0
C181 C 0.54801 0.02282 0.94329 0.0
C182 C 0.5171 1.01714 0.92072 0.0
C183 C 0.47119 0.923 0.92597 0.0
N184 N 0.5404 0.97848 0.95662 0.0
C185 C 0.50294 0.92823 0.94876 0.0
O186 O 0.52366 0.08665 0.86189 0.0
C187 C 0.50445 0.04742 0.84534 0.0
O188 O 0.46481 1.00268 0.85207 0.0
H189 H 0.5218 0.05226 0.91046 0.0
H190 H 0.44065 0.88466 0.91857 0.0
C191 C 0.48059 0.16496 0.84804 0.0
C192 C 0.45613 0.1821 0.82919 0.0
C193 C 0.37442 0.1328 0.85286 0.0
C194 C 0.39951 0.11738 0.87194 0.0
N195 N 0.45235 0.13444 0.86932 0.0
N196 N 0.40334 0.1652 0.83217 0.0
H197 H 0.52151 0.17486 0.84584 0.0
C198 C 0.33777 0.90057 0.85957 0.0
O199 O 0.3481 0.94952 0.85416 0.0
O200 O 0.5516 0.17337 0.91412 0.0
H201 H 0.37667 0.09134 0.88834 0.0
H202 H 0.57785 0.06213 0.95019 0.0
H203 H 0.33245 0.1196 0.85458 0.0
Zn204 Zn 0.55985 0.65709 0.84141 0.0
C205 C 0.70357 0.67994 0.81262 0.0
N206 N 0.69833 0.71164 0.79447 0.0
C207 C 0.65059 0.70628 0.80066 0.0
N208 N 0.62674 0.67217 0.82161 0.0
N209 N 0.66035 0.65561 0.82907 0.0
C210 C 0.7095 0.59483 0.88725 0.0
O211 O 0.68066 0.6108 0.90052 0.0
O212 O 0.50008 0.66358 0.81868 0.0
Zn213 Zn 0.63643 0.58671 0.84571 0.0
N214 N 0.58699 0.70986 0.86966 0.0
C215 C 0.65877 0.78167 0.89293 0.0
C216 C 0.63905 0.74887 0.87031 0.0
C217 C 0.55409 0.70188 0.89082 0.0
N218 N 0.62521 0.77519 0.91351 0.0
C219 C 0.57286 0.73633 0.91319 0.0
O220 O 0.58241 0.56772 0.87586 0.0
C221 C 0.53928 0.5673 0.88121 0.0
O222 O 0.52134 0.58964 0.86537 0.0
H223 H 0.66543 0.75392 0.85378 0.0
H224 H 0.51394 0.66879 0.89001 0.0
C225 C 0.6166 0.49843 0.81126 0.0
C226 C 0.59874 0.46782 0.78737 0.0
C227 C 0.56387 0.5224 0.7723 0.0
C228 C 0.57952 0.55086 0.79644 0.0
N229 N 0.60635 0.53897 0.81525 0.0
N230 N 0.57318 0.48124 0.76848 0.0
H231 H 0.63655 0.4893 0.8271 0.0
C232 C 0.45473 0.6532 0.82845 0.0
O233 O 0.44351 0.63591 0.85346 0.0
O234 O 0.69782 0.58055 0.86265 0.0
H235 H 0.57069 0.58253 0.79989 0.0
H236 H 0.70015 0.8127 0.89394 0.0
H237 H 0.54323 0.532 0.757 0.0
Zn238 Zn 0.10362 0.65872 0.98364 0.0
C239 C 0.99708 0.64278 0.92693 0.0
N240 N 0.03744 0.68945 0.91756 0.0
C241 C 0.07769 0.69984 0.93469 0.0
N242 N 0.06155 0.66168 0.95422 0.0
N243 N 1.01079 0.62593 0.94947 0.0
C244 C 0.85049 0.47168 0.96739 0.0
O245 O 0.8475 0.47118 0.9939 0.0
O246 O 0.15243 0.73037 0.99968 0.0
Zn247 Zn 0.9549 0.57782 0.97557 0.0
N248 N 0.14785 0.63277 0.96956 0.0
C249 C 0.2285 0.64527 0.95045 0.0
C250 C 0.19738 0.66635 0.95977 0.0
C251 C 0.12949 0.57961 0.97215 0.0
N252 N 0.21079 0.59224 0.9538 0.0
C253 C 0.16238 0.55898 0.96502 0.0
O254 O 0.97593 0.55404 1.01125 0.0
C255 C 1.01918 0.57292 1.02477 0.0
O256 O 0.06266 0.60986 1.01496 0.0
H257 H 0.21322 0.70907 0.96002 0.0
H258 H 0.09108 0.5544 0.98144 0.0
C259 C 0.87851 0.60697 0.99216 0.0
C260 C 0.86219 0.64161 1.00269 0.0
C261 C 0.95209 0.7114 1.00429 0.0
C262 C 0.96823 0.67631 0.9946 0.0
N263 N 0.93101 0.62487 0.98867 0.0
N264 N 0.89953 0.69303 1.00861 0.0
H265 H 0.85014 0.56547 0.98802 0.0
C266 C 0.1773 0.72781 1.02031 0.0
O267 O 0.16864 0.68084 1.02868 0.0
O268 O 0.89097 0.51088 0.95592 0.0
H269 H 1.01007 0.68994 0.99187 0.0
H270 H 0.26765 0.67125 0.94212 0.0
H271 H 0.98115 0.75245 1.00905 0.0
Zn272 Zn 0.39304 0.92442 0.1676 0.0
C273 C 0.38456 0.04691 0.12905 0.0
N274 N 0.35322 1.00869 0.11157 0.0
C275 C 0.3546 0.96525 0.12056 0.0
N276 N 0.38508 0.97573 0.14304 0.0
N277 N 0.40362 0.02722 0.14836 0.0
C278 C 0.42097 0.13196 0.18916 0.0
O279 O 0.37799 0.08444 0.18912 0.0
O280 O 0.39006 0.85752 0.147 0.0
Zn281 Zn 0.46278 0.06664 0.17192 0.0
N282 N 0.3336 0.90166 0.19158 0.0
C283 C 0.2584 0.90554 0.20771 0.0
C284 C 0.29513 0.9148 0.18735 0.0
C285 C 0.33729 0.88042 0.21538 0.0
N286 N 0.2612 0.88278 0.23121 0.0
C287 C 0.29969 0.86963 0.23577 0.0
O288 O 0.46388 0.03239 0.20789 0.0
C289 C 0.46677 0.99102 0.21416 0.0
O290 O 0.45388 0.95332 0.19691 0.0
H291 H 0.29367 0.9336 0.16874 0.0
H292 H 0.37002 0.87313 0.21825 0.0
C293 C 0.5585 0.11801 0.13845 0.0
C294 C 0.59065 0.1161 0.11743 0.0
C295 C 0.54105 1.02101 0.11902 0.0
C296 C 0.51071 0.02338 0.14006 0.0
N297 N 0.5192 0.07161 0.14907 0.0
N298 N 0.58023 0.06716 0.10838 0.0
H299 H 0.56368 0.1551 0.14646 0.0
C300 C 0.39246 0.8181 0.15775 0.0
O301 O 0.39855 0.81808 0.18406 0.0
O302 O 0.46542 0.13643 0.18223 0.0
H303 H 0.47903 0.98676 0.14835 0.0
H304 H 0.22767 0.91597 0.20481 0.0
H305 H 0.53385 0.98284 0.1113 0.0
Zn306 Zn 0.38723 0.45466 0.32139 0.0
C307 C 0.40403 0.37317 0.25817 0.0
N308 N 0.35963 0.37317 0.24991 0.0
C309 C 0.35063 0.39992 0.26948 0.0
N310 N 0.38781 0.41543 0.28929 0.0
N311 N 0.42226 0.39972 0.28223 0.0
C312 C 0.58237 0.40146 0.30366 0.0
O313 O 0.57542 0.38554 0.32895 0.0
O314 O 0.3163 0.41953 0.34002 0.0
Zn315 Zn 0.47029 0.39123 0.30843 0.0
N316 N 0.39531 0.52092 0.30807 0.0
C317 C 0.35566 0.57032 0.29163 0.0
C318 C 0.35088 0.52416 0.30316 0.0
C319 C 0.44462 0.56279 0.30318 0.0
N320 N 0.4049 0.6125 0.28702 0.0
C321 C 0.45012 0.61087 0.29279 0.0
O322 O 0.48973 0.43204 0.34401 0.0
C323 C 0.47676 0.45898 0.35938 0.0
O324 O 0.44066 0.46936 0.35225 0.0
H325 H 0.31197 0.49083 0.30781 0.0
H326 H 0.47829 0.5582 0.30833 0.0
C327 C 0.44236 0.29621 0.33884 0.0
C328 C 0.40863 0.24454 0.3489 0.0
C329 C 0.33885 0.23723 0.32129 0.0
C330 C 0.37205 0.28904 0.31183 0.0
N331 N 0.42379 0.31726 0.32027 0.0
N332 N 0.3579 0.21592 0.33955 0.0
H333 H 0.48301 0.31964 0.3457 0.0
C334 C 0.31793 0.44624 0.36085 0.0
O335 O 0.36294 0.48925 0.36727 0.0
O336 O 0.54658 0.40851 0.29217 0.0
H337 H 0.3557 0.30612 0.29818 0.0
H338 H 0.32067 0.57321 0.28702 0.0
H339 H 0.29806 0.21435 0.3144 0.0
Zn340 Zn 0.14443 0.48771 0.51003 0.0
C341 C 1.01145 0.3609 0.47593 0.0
N342 N 0.04472 0.36469 0.45624 0.0
C343 C 0.09075 0.4089 0.4631 0.0
N344 N 0.08626 0.43207 0.48616 0.0
N345 N 0.03625 0.40071 0.49422 0.0
C346 C 0.93694 0.34016 0.55212 0.0
O347 O 0.98435 0.36524 0.56327 0.0
O348 O 0.21248 0.55202 0.48865 0.0
Zn349 Zn 0.99775 0.42353 0.51599 0.0
N350 N 0.15886 0.43936 0.53095 0.0
C351 C 0.11573 0.36134 0.55875 0.0
C352 C 0.11411 0.40097 0.54339 0.0
C353 C 0.20566 0.43971 0.53343 0.0
N354 N 0.16257 0.36215 0.56169 0.0
C355 C 0.20747 0.39996 0.54922 0.0
O356 O 0.03619 0.46984 0.5483 0.0
C357 C 0.08147 0.50691 0.55624 0.0
O358 O 0.12322 0.52159 0.54181 0.0
H359 H 0.07726 0.4013 0.54141 0.0
H360 H 0.24119 0.47143 0.52404 0.0
C361 C 0.94161 0.45199 0.47698 0.0
C362 C 0.94057 0.48435 0.45578 0.0
C363 C 0.03373 0.54276 0.46157 0.0
C364 C 0.03374 0.51212 0.48322 0.0
N365 N 0.98781 0.46758 0.4905 0.0
N366 N 0.98729 0.52864 0.44871 0.0
H367 H 0.90698 0.41499 0.48294 0.0
C368 C 0.25215 0.59518 0.49827 0.0
O369 O 0.25413 0.60306 0.5245 0.0
O370 O 0.92982 0.35809 0.52987 0.0
H371 H 0.0705 0.52248 0.49358 0.0
H372 H 0.08027 0.33083 0.56872 0.0
H373 H 0.07009 0.57794 0.45525 0.0
Zn374 Zn 0.5967 0.9476 0.65128 0.0
C375 C 0.70453 0.05366 0.59953 0.0
N376 N 0.7081 1.01128 0.59054 0.0
C377 C 0.67651 0.9717 0.60771 0.0
N378 N 0.65464 0.99001 0.62644 0.0
N379 N 0.67285 0.04178 0.62152 0.0
C380 C 0.66869 0.18696 0.6124 0.0
O381 O 0.64694 0.15446 0.5918 0.0
O382 O 0.6099 0.89538 0.67333 0.0
Zn383 Zn 0.67727 0.09742 0.64791 0.0
N384 N 0.53379 0.91256 0.62853 0.0
C385 C 0.49123 0.88363 0.58561 0.0
C386 C 0.53732 0.90783 0.60127 0.0
C387 C 0.48613 0.89621 0.64042 0.0
N388 N 0.44349 0.86719 0.59757 0.0
C389 C 0.43993 0.87373 0.62456 0.0
O390 O 0.62516 0.07481 0.68044 0.0
C391 C 0.59168 0.03079 0.69152 0.0
O392 O 0.58181 0.98652 0.68108 0.0
H393 H 0.57534 0.92251 0.59157 0.0
H394 H 0.48449 0.90123 0.66202 0.0
C395 C 0.77734 0.16657 0.67282 0.0
C396 C 0.82297 0.17819 0.68777 0.0
C397 C 0.79669 0.08612 0.68832 0.0
C398 C 0.75089 0.0746 0.67382 0.0
N399 N 0.74222 0.11511 0.6664 0.0
N400 N 0.83131 0.13757 0.69537 0.0
H401 H 0.76848 0.19769 0.66734 0.0
C402 C 0.58466 0.87399 0.69507 0.0
O403 O 0.54837 0.8851 0.70362 0.0
O404 O 0.6823 0.17004 0.63332 0.0
H405 H 0.72211 0.0336 0.6689 0.0
H406 H 0.49345 0.87877 0.56405 0.0
H407 H 0.80399 0.05432 0.6945 0.0
H408 H 0.36868 0.63929 0.07319 0.0
H409 H 0.39389 0.57087 0.14543 0.0
H410 H 0.40005 0.64531 0.1721 0.0
H411 H 0.39945 0.73089 0.17513 0.0
H412 H 0.37495 0.7999 0.10287 0.0
H413 H 0.36765 0.7248 0.07626 0.0
C414 C 0.37552 0.64043 0.09478 0.0
C415 C 0.38055 0.59861 0.10712 0.0
C416 C 0.37941 0.68397 0.1101 0.0
C417 C 0.38939 0.60161 0.13521 0.0
C418 C 0.39313 0.64456 0.15053 0.0
C419 C 0.39254 0.72977 0.15354 0.0
C420 C 0.38803 0.77187 0.14119 0.0
C421 C 0.38836 0.68612 0.13823 0.0
C422 C 0.37891 0.76881 0.11311 0.0
C423 C 0.37465 0.72558 0.09782 0.0
H424 H 0.77001 0.43631 0.22407 0.0
H425 H 0.82005 0.38444 0.29447 0.0
H426 H 0.74362 0.3763 0.31972 0.0
H427 H 0.6619 0.38344 0.32185 0.0
H428 H 0.61148 0.43406 0.25105 0.0
H429 H 0.68852 0.44323 0.22614 0.0
C430 C 0.7645 0.42334 0.24498 0.0
C431 C 0.80138 0.41107 0.25725 0.0
C432 C 0.72012 0.41857 0.2594 0.0
C433 C 0.79275 0.39408 0.28437 0.0
C434 C 0.74889 0.38948 0.29886 0.0
C435 C 0.6677 0.39671 0.30098 0.0
C436 C 0.63048 0.40831 0.28852 0.0
C437 C 0.71221 0.40157 0.2866 0.0
C438 C 0.6391 0.42507 0.26136 0.0
C439 C 0.6833 0.43025 0.24703 0.0
H440 H 0.34058 0.69095 0.51344 0.0
H441 H 0.26374 0.59611 0.44266 0.0
H442 H 0.33318 0.66513 0.41409 0.0
H443 H 0.41562 0.75336 0.40872 0.0
H444 H 0.49279 0.84826 0.4794 0.0
H445 H 0.42405 0.77872 0.50811 0.0
C446 C 0.33877 0.68503 0.49175 0.0
C447 C 0.29589 0.6375 0.48049 0.0
C448 C 0.37936 0.72534 0.47525 0.0
C449 C 0.29537 0.63159 0.4522 0.0
C450 C 0.3354 0.67137 0.43576 0.0
C451 C 0.41775 0.75915 0.43042 0.0
C452 C 0.46035 0.80697 0.4416 0.0
C453 C 0.37757 0.71859 0.44697 0.0
C454 C 0.46141 0.81255 0.46992 0.0
C455 C 0.42169 0.77252 0.48644 0.0
H456 H 0.681 0.41252 0.63251 0.0
H457 H 0.64247 0.39589 0.54754 0.0
H458 H 0.64325 0.3113 0.54646 0.0
H459 H 0.65231 0.23975 0.56986 0.0
H460 H 0.69413 0.25828 0.65446 0.0
H461 H 0.69487 0.34355 0.65528 0.0
C462 C 0.6727 0.39051 0.61369 0.0
C463 C 0.66105 0.41105 0.59017 0.0
C464 C 0.67382 0.34168 0.61312 0.0
C465 C 0.65128 0.38164 0.56603 0.0
C466 C 0.6517 0.33293 0.5654 0.0
C467 C 0.66184 0.26241 0.58852 0.0
C468 C 0.67282 0.24157 0.61216 0.0
C469 C 0.66253 0.31219 0.58885 0.0
C470 C 0.68543 0.2725 0.63593 0.0
C471 C 0.68571 0.32153 0.63644 0.0
H472 H 0.30076 0.68267 0.746 0.0
H473 H 0.20487 0.64651 0.81794 0.0
H474 H 0.27365 0.64035 0.84395 0.0
H475 H 0.36008 0.64256 0.84621 0.0
H476 H 0.45678 0.6796 0.77446 0.0
H477 H 0.38887 0.68778 0.74861 0.0
C478 C 0.29474 0.67349 0.7674 0.0
C479 C 0.2471 0.66529 0.7799 0.0
C480 C 0.33475 0.6698 0.7823 0.0
C481 C 0.24085 0.65369 0.80772 0.0
C482 C 0.28025 0.64981 0.8226 0.0
C483 C 0.36659 0.65246 0.82489 0.0
C484 C 0.41397 0.65995 0.8124 0.0
C485 C 0.32725 0.65742 0.81011 0.0
C486 C 0.42112 0.67326 0.78475 0.0
C487 C 0.38206 0.67795 0.76992 0.0
H488 H 0.6877 0.29573 0.88477 0.0
H489 H 0.59879 0.22909 0.95828 0.0
H490 H 0.66897 0.30342 0.98413 0.0
H491 H 0.75653 0.38711 0.98612 0.0
H492 H 0.84444 0.45421 0.91239 0.0
H493 H 0.77391 0.38041 0.88658 0.0
C494 C 0.68343 0.2972 0.90647 0.0
C495 C 0.63756 0.25597 0.91944 0.0
C496 C 0.72408 0.34047 0.92127 0.0
C497 C 0.63328 0.25956 0.94761 0.0
C498 C 0.67361 0.30229 0.96244 0.0
C499 C 0.76049 0.38577 0.96439 0.0
C500 C 0.80655 0.4267 0.95139 0.0
C501 C 0.71937 0.34291 0.94954 0.0
C502 C 0.81004 0.42379 0.92313 0.0
C503 C 0.76952 0.38132 0.9083 0.0
H504 H 0.38631 0.07241 0.98933 0.0
H505 H 0.46276 0.16576 0.91832 0.0
H506 H 0.49213 0.24821 0.94369 0.0
H507 H 0.49212 0.2939 0.98559 0.0
H508 H 0.41021 0.20063 0.05605 0.0
H509 H 0.3864 0.1181 0.03139 0.0
C510 C 0.40955 0.11083 0.97938 0.0
C511 C 0.42363 0.11273 0.95194 0.0
C512 C 0.42482 0.15813 0.99406 0.0
C513 C 0.45325 0.16283 0.93947 0.0
C514 C 0.46938 0.21015 0.95398 0.0
C515 C 0.46938 0.25558 0.99567 0.0
C516 C 0.45299 0.25358 1.02269 0.0
C517 C 0.45508 0.20827 0.98124 0.0
C518 C 0.42326 0.20343 0.0353 0.0
C519 C 0.40959 0.15619 1.02118 0.0
H520 H 0.23787 0.48454 0.18782 0.0
H521 H 0.10204 0.3513 0.14993 0.0
H522 H 0.16001 0.32414 0.12817 0.0
H523 H 0.24847 0.33452 0.1219 0.0
H524 H 0.38527 0.46799 0.15818 0.0
H525 H 0.3279 0.49853 0.17886 0.0
C526 C 0.22106 0.44983 0.17465 0.0
C527 C 0.16561 0.41978 0.17075 0.0
C528 C 0.25474 0.4342 0.16209 0.0
C529 C 0.1445 0.37499 0.15351 0.0
C530 C 0.17759 0.35929 0.14102 0.0
C531 C 0.26556 0.37066 0.13407 0.0
C532 C 0.32055 0.39927 0.13859 0.0
C533 C 0.23257 0.38805 0.14548 0.0
C534 C 0.34279 0.44581 0.15442 0.0
C535 C 0.31006 0.46309 0.16622 0.0
H536 H 0.79077 0.24618 0.34799 0.0
H537 H 0.8072 0.109 0.32855 0.0
H538 H 0.87712 0.16227 0.29617 0.0
H539 H 0.93749 0.24887 0.27515 0.0
H540 H 0.92342 0.38693 0.29434 0.0
H541 H 0.84826 0.33237 0.32457 0.0
C542 C 0.80957 0.22795 0.33661 0.0
C543 C 0.79389 0.17362 0.34095 0.0
C544 C 0.84979 0.25887 0.31769 0.0
C545 C 0.81842 0.15062 0.32579 0.0
C546 C 0.85846 0.18107 0.30718 0.0
C547 C 0.917 0.2666 0.28549 0.0
C548 C 0.93476 0.32136 0.28201 0.0
C549 C 0.87479 0.23526 0.30314 0.0
C550 C 0.90889 0.34435 0.29588 0.0
C551 C 0.86657 0.31333 0.3135 0.0
H552 H 0.74899 0.9618 0.45231 0.0
H553 H 0.59625 0.93673 0.47792 0.0
H554 H 0.5763 0.85175 0.49932 0.0
H555 H 0.60438 0.78729 0.51192 0.0
H556 H 0.75731 0.81236 0.48578 0.0
H557 H 0.7754 0.89522 0.46309 0.0
C558 C 0.71089 0.93696 0.46211 0.0
C559 C 0.67317 0.95387 0.46292 0.0
C560 C 0.70021 0.8889 0.47435 0.0
C561 C 0.62468 0.92286 0.47626 0.0
C562 C 0.6137 0.87489 0.48871 0.0
C563 C 0.64169 0.81087 0.50125 0.0
C564 C 0.6797 0.79409 0.50062 0.0
C565 C 0.65144 0.85787 0.48805 0.0
C566 C 0.72755 0.82461 0.48651 0.0
C567 C 0.73788 0.87188 0.47357 0.0
H568 H 0.71063 0.62764 0.65321 0.0
H569 H 0.76002 0.58904 0.57851 0.0
H570 H 0.81439 0.56007 0.6038 0.0
H571 H 0.8548 0.5551 0.64719 0.0
H572 H 0.80409 0.5941 0.72148 0.0
H573 H 0.74348 0.61407 0.6964 0.0
C574 C 0.73257 0.61188 0.64253 0.0
C575 C 0.73118 0.60995 0.61415 0.0
C576 C 0.76421 0.59649 0.65714 0.0
C577 C 0.75993 0.59 0.60039 0.0
C578 C 0.79137 0.57401 0.61486 0.0
C579 C 0.83004 0.5674 0.6579 0.0
C580 C 0.83524 0.57495 0.68617 0.0
C581 C 0.79489 0.57844 0.64324 0.0
C582 C 0.8024 0.59022 0.69973 0.0
C583 C 0.76732 0.60102 0.68539 0.0
H584 H 0.13117 0.68462 0.82471 0.0
H585 H 0.0894 0.8 0.79559 0.0
H586 H 0.17516 0.87327 0.81006 0.0
H587 H 0.26026 0.9049 0.83184 0.0
H588 H 0.30252 0.7926 0.8651 0.0
H589 H 0.21801 0.71785 0.84888 0.0
C590 C 0.14154 0.72589 0.82128 0.0
C591 C 0.1051 0.73721 0.80828 0.0
C592 C 0.19058 0.76821 0.83064 0.0
C593 C 0.11762 0.79058 0.80489 0.0
C594 C 0.16646 0.83247 0.81328 0.0
C595 C 0.25147 0.86412 0.83537 0.0
C596 C 0.28791 0.85441 0.84942 0.0
C597 C 0.20307 0.82177 0.82624 0.0
C598 C 0.2753 0.80119 0.8541 0.0
C599 C 0.22704 0.75843 0.84474 0.0
H600 H 0.76861 0.54731 0.87391 0.0
H601 H 0.76534 0.66398 0.92744 0.0
H602 H 0.85337 0.68846 0.94435 0.0
H603 H 0.93434 0.68214 0.94162 0.0
H604 H 0.93717 0.56109 0.89199 0.0
H605 H 0.84712 0.53373 0.87527 0.0
C606 C 0.78701 0.5776 0.88949 0.0
C607 C 0.76048 0.6041 0.89917 0.0
C608 C 0.83788 0.59122 0.89954 0.0
C609 C 0.78468 0.64296 0.91954 0.0
C610 C 0.8353 0.65732 0.92916 0.0
C611 C 0.91457 0.64879 0.92773 0.0
C612 C 0.94155 0.62292 0.91839 0.0
C613 C 0.86258 0.63242 0.91901 0.0
C614 C 0.91656 0.58103 0.89966 0.0
C615 C 0.86521 0.56551 0.89012 0.0
H616 H 0.33608 0.95449 0.06757 0.0
H617 H 0.30631 0.862 0.14054 0.0
H618 H 0.25264 0.77931 0.11502 0.0
H619 H 0.2084 0.73465 0.07246 0.0
H620 H 0.23057 0.82969 1.00095 0.0
H621 H 0.29222 0.91076 1.02559 0.0
C622 C 0.31811 0.91618 0.07793 0.0
C623 C 0.32624 0.91413 0.10583 0.0
C624 C 0.28518 0.86962 0.06342 0.0
C625 C 0.30248 0.86443 0.11896 0.0
C626 C 0.27099 0.81729 0.10442 0.0
C627 C 0.22704 0.77313 0.06227 0.0
C628 C 0.21501 0.77646 0.03501 0.0
C629 C 0.26138 0.81959 0.07672 0.0
C630 C 0.23895 0.82639 1.02201 0.0
C631 C 0.27427 0.87259 0.03603 0.0
H632 H 0.36093 0.31041 0.21328 0.0
H633 H 0.4726 0.34044 0.27653 0.0
H634 H 0.49938 0.28181 0.25668 0.0
H635 H 0.48228 0.21123 0.22392 0.0
H636 H 0.34531 0.15463 0.17228 0.0
H637 H 0.33545 0.23158 0.18431 0.0
C638 C 0.39181 0.30494 0.22255 0.0
C639 C 0.41935 0.33542 0.2455 0.0
C640 C 0.40105 0.26428 0.21276 0.0
C641 C 0.45662 0.32456 0.2575 0.0
C642 C 0.46992 0.28833 0.24651 0.0
C643 C 0.45092 0.21645 0.21502 0.0
C644 C 0.41635 0.17921 0.19611 0.0
C645 C 0.44183 0.25727 0.22433 0.0
C646 C 0.37407 0.18455 0.18576 0.0
C647 C 0.36792 0.22807 0.19301 0.0
H648 H 0.09592 0.38605 0.41101 0.0
H649 H 0.19442 0.46131 0.48051 0.0
H650 H 0.27387 0.48134 0.45463 0.0
H651 H 0.31435 0.47383 0.41247 0.0
H652 H 0.21437 0.38964 0.3443 0.0
H653 H 0.13558 0.37448 0.36973 0.0
C654 C 0.13484 0.40715 0.42049 0.0
C655 C 0.13971 0.42445 0.44749 0.0
C656 C 0.1796 0.41552 0.4058 0.0
C657 C 0.1901 0.45065 0.45952 0.0
C658 C 0.23531 0.46087 0.4448 0.0
C659 C 0.27525 0.45203 0.40322 0.0
C660 C 0.26992 0.43287 0.37661 0.0
C661 C 0.23039 0.44315 0.41798 0.0
C662 C 0.2192 0.40429 0.36487 0.0
C663 C 0.17433 0.39602 0.37931 0.0
H664 H 0.7948 0.1328 0.62089 0.0
H665 H 0.69148 0.09299 0.55198 0.0
H666 H 0.75283 0.17974 0.53106 0.0
H667 H 0.83877 0.2657 0.53191 0.0
H668 H 0.94054 0.30306 0.60192 0.0
H669 H 0.87665 0.2193 0.62307 0.0
C670 C 0.78471 0.14418 0.60189 0.0
C671 C 0.73797 0.10788 0.58847 0.0
C672 C 0.82023 0.19366 0.59008 0.0
C673 C 0.72692 0.12121 0.56289 0.0
C674 C 0.76203 0.17063 0.55093 0.0
C675 C 0.84648 0.25584 0.55195 0.0
C676 C 0.89462 0.29077 0.56518 0.0
C677 C 0.80923 0.20712 0.56425 0.0
C678 C 0.90411 0.27703 0.5911 0.0
C679 C 0.86748 0.22909 0.60336 0.0
H680 H 0.55779 0.84205 0.7474 0.0
H681 H 0.64036 0.82602 0.67856 0.0
H682 H 0.66412 0.7695 0.70494 0.0
H683 H 0.66468 0.72774 0.74777 0.0
H684 H 0.59 0.74974 0.81801 0.0
H685 H 0.55863 0.79976 0.79081 0.0
C686 C 0.58065 0.82585 0.73813 0.0
C687 C 0.59725 0.83823 0.71101 0.0
C688 C 0.59518 0.79418 0.75363 0.0
C689 C 0.62721 0.81728 0.69936 0.0
C690 C 0.64079 0.78491 0.71443 0.0
C691 C 0.64124 0.74323 0.75711 0.0
C692 C 0.6282 0.73374 0.78469 0.0
C693 C 0.62549 0.77363 0.74161 0.0
C694 C 0.59849 0.75455 0.7966 0.0
C695 C 0.58138 0.7839 0.78111 0.0
H696 H 0.41402 0.49899 0.99375 0.0
H697 H 0.53543 0.45756 1.01021 0.0
H698 H 0.57175 0.48602 0.96516 0.0
H699 H 0.56983 0.52197 0.92074 0.0
H700 H 0.45 0.56468 0.90281 0.0
H701 H 0.41245 0.53608 0.94818 0.0
C702 C 0.44864 0.49661 0.98752 0.0
C703 C 0.47162 0.47582 1.00566 0.0
C704 C 0.46949 0.51273 0.96101 0.0
C705 C 0.51634 0.47281 0.99692 0.0
C706 C 0.53733 0.48912 0.97099 0.0
C707 C 0.53516 0.52469 0.92651 0.0
C708 C 0.51276 0.54521 0.90796 0.0
C709 C 0.51409 0.50872 0.95277 0.0
C710 C 0.46804 0.54864 0.91631 0.0
C711 C 0.44665 0.53254 0.94244 0.0
H712 H 0.07574 0.51869 0.14028 0.0
H713 H 0.91195 0.47162 0.15664 0.0
H714 H 0.90139 0.49366 0.10995 0.0
H715 H 0.93943 0.52758 0.06386 0.0
H716 H 0.10365 0.57397 0.04904 0.0
H717 H 0.11264 0.55035 0.09517 0.0
C718 C 0.03764 0.51346 0.13385 0.0
C719 C 0.99493 0.49391 0.15244 0.0
C720 C 0.03168 0.52578 0.10685 0.0
C721 C 0.94589 0.48708 0.14317 0.0
C722 C 0.93971 0.49946 0.11629 0.0
C723 C 0.97696 0.53195 0.07066 0.0
C724 C 1.02081 0.55278 0.05265 0.0
C725 C 0.98234 0.51883 0.09781 0.0
C726 C 0.06923 0.55851 0.06218 0.0
C727 C 0.07453 0.54503 0.08873 0.0
H728 H 0.50175 0.0661 0.25478 0.0
H729 H 0.47205 0.90665 0.23781 0.0
H730 H 0.50034 0.90034 0.28375 0.0
H731 H 0.53625 0.94136 0.32898 0.0
H732 H 0.56767 0.10185 0.34457 0.0
H733 H 0.53539 0.10586 0.29955 0.0
C734 C 0.50139 0.02981 0.26097 0.0
C735 C 0.48492 0.98708 0.24234 0.0
C736 C 0.51785 0.02644 0.28755 0.0
C737 C 0.48479 0.94051 0.25127 0.0
C738 C 0.50085 0.93678 0.27774 0.0
C739 C 0.53543 0.97696 0.32266 0.0
C740 C 0.55452 1.02123 0.34054 0.0
C741 C 0.51771 0.97958 0.29613 0.0
C742 C 0.55343 0.06711 0.33158 0.0
C743 C 0.53508 0.06955 0.30564 0.0
H744 H 0.44983 0.504 0.40124 0.0
H745 H 0.55682 0.44574 0.38102 0.0
H746 H 0.5927 0.46468 0.42692 0.0
H747 H 0.59582 0.50023 0.4731 0.0
H748 H 0.49011 0.56019 0.4926 0.0
H749 H 0.4514 0.53733 0.44732 0.0
C750 C 0.48121 0.49566 0.40673 0.0
C751 C 0.50064 0.47379 0.38726 0.0
C752 C 0.50166 0.50638 0.43342 0.0
C753 C 0.54106 0.46291 0.39523 0.0
C754 C 0.56157 0.47351 0.42166 0.0
C755 C 0.56352 0.50719 0.4676 0.0
C756 C 0.54554 0.53138 0.4865 0.0
C757 C 0.54223 0.49524 0.44102 0.0
C758 C 0.50455 0.54133 0.47865 0.0
C759 C 0.48257 0.52858 0.45261 0.0
H760 H 0.12582 0.63121 0.66913 0.0
H761 H 0.96555 0.50241 0.68335 0.0
H762 H 0.9635 0.46576 0.63885 0.0
H763 H 1.00506 0.47046 0.5953 0.0
H764 H 0.16569 0.59673 0.57977 0.0
H765 H 0.16953 0.6338 0.62497 0.0
C766 C 0.09067 0.59486 0.66257 0.0
C767 C 0.04563 0.57014 0.67978 0.0
C768 C 0.08952 0.5736 0.63647 0.0
C769 C 1.00051 0.52304 0.67067 0.0
C770 C 0.99926 0.50183 0.6451 0.0
C771 C 0.04105 0.5063 0.60158 0.0
C772 C 0.08484 0.5309 0.58371 0.0
C773 C 0.04315 0.52704 0.62768 0.0
C774 C 0.13117 0.57689 0.59279 0.0
C775 C 0.1334 0.59811 0.61877 0.0
H776 H 0.46758 0.97537 0.80342 0.0
H777 H 0.5925 0.13493 0.82333 0.0
H778 H 0.62862 0.14571 0.77753 0.0
H779 H 0.62641 0.10868 0.73158 0.0
H780 H 0.50028 0.9491 0.71253 0.0
H781 H 0.46328 0.94008 0.7577 0.0
C782 C 0.50286 1.01259 0.7979 0.0
C783 C 0.52738 0.054 0.81729 0.0
C784 C 0.52331 1.01874 0.77134 0.0
C785 C 0.57276 0.10201 0.80922 0.0
C786 C 0.59345 0.10831 0.78286 0.0
C787 C 0.5904 0.07223 0.73716 0.0
C788 C 0.56649 0.02958 0.71834 0.0
C789 C 0.56922 0.06689 0.76366 0.0
C790 C 0.52004 0.98254 0.72635 0.0
C791 C 0.49874 0.97723 0.75234 0.0
H792 H 0.31118 0.07655 0.12106 0.0
H793 H 0.48031 0.14221 0.12743 0.0
H794 H 0.4943 0.23319 0.12218 0.0
H795 H 0.4569 0.29429 0.11815 0.0
H796 H 0.28668 0.2265 0.11367 0.0
H797 H 0.27456 0.13643 0.11488 0.0
C798 C 0.35116 0.11084 0.12131 0.0
C799 C 0.39463 0.1028 0.12603 0.0
C800 C 0.35856 0.16276 0.11805 0.0
C801 C 0.44617 0.14748 0.12532 0.0
C802 C 0.45406 0.19947 0.12195 0.0
C803 C 0.41727 0.26005 0.11724 0.0
C804 C 0.37269 0.26754 0.11585 0.0
C805 C 0.4104 0.2078 0.11879 0.0
C806 C 0.32164 0.22206 0.11472 0.0
C807 C 0.31464 0.17043 0.11542 0.0
H808 H 0.31643 0.46881 0.25243 0.0
H809 H 0.26339 0.3165 0.29104 0.0
H810 H 0.17124 0.2981 0.28993 0.0
H811 H 0.10492 0.32398 0.27637 0.0
H812 H 0.15987 0.48394 0.2484 0.0
H813 H 0.25144 0.50137 0.24682 0.0
C814 C 0.28486 0.43234 0.26132 0.0
C815 C 0.29704 0.39467 0.27248 0.0
C816 C 0.23198 0.42306 0.26179 0.0
C817 C 0.2553 0.34674 0.28301 0.0
C818 C 0.2025 0.33606 0.28221 0.0
C819 C 0.13684 0.36272 0.26985 0.0
C820 C 0.12449 0.4013 0.25986 0.0
C821 C 0.19018 0.37369 0.2714 0.0
C822 C 0.16718 0.45196 0.25328 0.0
C823 C 0.21995 0.46226 0.25315 0.0
H824 H 0.92355 0.33534 0.44494 0.0
H825 H 0.97912 0.27784 0.51063 0.0
H826 H 0.89942 0.18918 0.50697 0.0
H827 H 0.8187 0.12579 0.48203 0.0
H828 H 0.75527 0.18611 0.42189 0.0
H829 H 0.83328 0.27481 0.42555 0.0
C830 C 0.91738 0.30373 0.45892 0.0
C831 C 0.95708 0.31336 0.47823 0.0
C832 C 0.87104 0.25264 0.45677 0.0
C833 C 0.94885 0.27179 0.49594 0.0
C834 C 0.90353 0.22083 0.49359 0.0
C835 C 0.82157 0.15803 0.46951 0.0
C836 C 0.78228 0.14703 0.44949 0.0
C837 C 0.8651 0.21032 0.47352 0.0
C838 C 0.78667 0.1909 0.43491 0.0
C839 C 0.83088 0.24256 0.43788 0.0
H840 H 0.62738 0.72921 0.61732 0.0
H841 H 0.75894 0.78761 0.56191 0.0
H842 H 0.76746 0.87683 0.56263 0.0
H843 H 0.73828 0.9393 0.58002 0.0
H844 H 0.59589 0.8746 0.62786 0.0
H845 H 0.59043 0.78807 0.62915 0.0
C846 C 0.6571 0.76117 0.60492 0.0
C847 C 0.69162 0.75123 0.58906 0.0
C848 C 0.66042 0.81201 0.60461 0.0
C849 C 0.73122 0.7938 0.57392 0.0
C850 C 0.73614 0.84495 0.57438 0.0
C851 C 0.70595 0.90643 0.59081 0.0
C852 C 0.66971 0.91587 0.60587 0.0
C853 C 0.70105 0.85477 0.58979 0.0
C854 C 0.62727 0.8713 0.61847 0.0
C855 C 0.62331 0.82072 0.61853 0.0
H856 H 0.75725 0.6714 0.76935 0.0
H857 H 0.76312 0.68312 0.85596 0.0
H858 H 0.84226 0.67277 0.85673 0.0
H859 H 0.91025 0.66054 0.83251 0.0
H860 H 0.91882 0.67557 0.74603 0.0
H861 H 0.83412 0.67539 0.74521 0.0
C862 C 0.77516 0.67038 0.78845 0.0
C863 C 0.75117 0.67265 0.81289 0.0
C864 C 0.82281 0.66803 0.78853 0.0
C865 C 0.77743 0.67561 0.8372 0.0
C866 C 0.82332 0.67079 0.83755 0.0
C867 C 0.89273 0.66218 0.81339 0.0
C868 C 0.91812 0.66232 0.78897 0.0
C869 C 0.84595 0.66607 0.81332 0.0
C870 C 0.89688 0.66864 0.76466 0.0
C871 C 0.84917 0.67013 0.76433 0.0
H872 H 0.18262 0.73019 0.9232 0.0
H873 H 0.08108 0.79303 0.94556 0.0
H874 H 0.15679 0.88432 0.94348 0.0
H875 H 0.25216 0.94694 0.93508 0.0
H876 H 0.35806 0.88476 0.92377 0.0
H877 H 0.28196 0.79296 0.92268 0.0
C878 C 0.1778 0.76359 0.92923 0.0
C879 C 0.12646 0.75425 0.93587 0.0
C880 C 0.22247 0.81635 0.92929 0.0
C881 C 0.12016 0.79876 0.94102 0.0
C882 C 0.16354 0.85111 0.93977 0.0
C883 C 0.25869 0.91333 0.93225 0.0
C884 C 0.3108 0.92324 0.927 0.0
C885 C 0.21491 0.86051 0.93384 0.0
C886 C 0.31831 0.87881 0.92509 0.0
C887 C 0.27466 0.82612 0.92519 0.0
H888 H 0.83128 0.66141 0.05019 0.0
H889 H 0.77055 0.57183 0.97625 0.0
H890 H 0.68378 0.51634 0.99747 0.0
H891 H 0.63252 0.48408 0.03877 0.0
H892 H 0.69302 0.57256 0.11334 0.0
H893 H 0.77394 0.63722 0.09006 0.0
C894 C 0.79846 0.63089 0.0385 0.0
C895 C 0.80715 0.61979 1.012 0.0
C896 C 0.7496 0.59803 0.05111 0.0
C897 C 0.76465 0.58024 0.99691 0.0
C898 C 0.71533 0.54837 1.00907 0.0
C899 C 0.66214 0.51826 0.04998 0.0
C900 C 0.65634 0.52316 0.07793 0.0
C901 C 0.70834 0.55532 0.03652 0.0
C902 C 0.69664 0.56727 0.09192 0.0
C903 C 0.74279 0.60452 0.0786 0.0
H904 H 0.34259 0.8037 0.24382 0.0
H905 H 0.24693 0.86092 0.28288 0.0
H906 H 0.20284 0.77914 0.30948 0.0
H907 H 0.16936 0.68323 0.30678 0.0
H908 H 0.2586 0.62388 0.26338 0.0
H909 H 0.32849 0.71528 0.25425 0.0
C910 C 0.31375 0.79997 0.25877 0.0
C911 C 0.29524 0.83687 0.25984 0.0
C912 C 0.28623 0.7515 0.27274 0.0
C913 C 0.25984 0.83173 0.28059 0.0
C914 C 0.23441 0.78481 0.29578 0.0
C915 C 0.20488 0.68998 0.29612 0.0
C916 C 0.20634 0.64715 0.28331 0.0
C917 C 0.24339 0.74248 0.28971 0.0
C918 C 0.25428 0.65648 0.27136 0.0
C919 C 0.29452 0.70883 0.26626 0.0
H920 H 0.47024 0.29239 0.39249 0.0
H921 H 0.39076 0.14296 0.34881 0.0
H922 H 0.4384 0.10859 0.37544 0.0
H923 H 0.51179 0.12667 0.40596 0.0
H924 H 0.59487 0.27781 0.44788 0.0
H925 H 0.53626 0.30633 0.42712 0.0
C926 C 0.46318 0.25216 0.38901 0.0
C927 C 0.42865 0.2206 0.36834 0.0
C928 C 0.4916 0.2335 0.40376 0.0
C929 C 0.41784 0.16791 0.36453 0.0
C930 C 0.44524 0.14849 0.37956 0.0
C931 C 0.5168 0.16576 0.41055 0.0
C932 C 0.55821 0.20105 0.42754 0.0
C933 C 0.48377 0.18187 0.39834 0.0
C934 C 0.56346 0.25064 0.43441 0.0
C935 C 0.53019 0.26686 0.42256 0.0
H936 H 0.24558 0.40767 0.59897 0.0
H937 H 0.28341 0.40517 0.51497 0.0
H938 H 0.37764 0.44359 0.52631 0.0
H939 H 0.44715 0.50187 0.55697 0.0
H940 H 0.40922 0.52273 0.63882 0.0
H941 H 0.31736 0.45119 0.63213 0.0
C942 C 0.27444 0.41358 0.58342 0.0
C943 C 0.25867 0.40489 0.55625 0.0
C944 C 0.32858 0.43968 0.58986 0.0
C945 C 0.29553 0.4125 0.53599 0.0
C946 C 0.34919 0.4346 0.54249 0.0
C947 C 0.4197 0.48917 0.57387 0.0
C948 C 0.43443 0.51837 0.59819 0.0
C949 C 0.36631 0.45214 0.56899 0.0
C950 C 0.3983 0.50123 0.61979 0.0
C951 C 0.34571 0.46084 0.61584 0.0
H952 H 0.85184 0.20458 0.73948 0.0
H953 H 0.86683 0.272 0.65994 0.0
H954 H 0.90214 0.36115 0.6794 0.0
H955 H 0.91102 0.41451 0.71859 0.0
H956 H 0.89056 0.34767 0.7989 0.0
H957 H 0.8739 0.26266 0.77945 0.0
C958 C 0.86457 0.23922 0.72648 0.0
C959 C 0.85665 0.23225 0.69846 0.0
C960 C 0.88228 0.28975 0.73792 0.0
C961 C 0.87254 0.27684 0.6816 0.0
C962 C 0.89227 0.32757 0.69273 0.0
C963 C 0.90525 0.38252 0.73215 0.0
C964 C 0.90236 0.38776 0.76029 0.0
C965 C 0.89478 0.33388 0.72088 0.0
C966 C 0.89268 0.34456 0.77716 0.0
C967 C 0.88323 0.29602 0.76607 0.0
H968 H 0.59969 0.78935 0.96095 0.0
H969 H 0.4613 0.68762 0.91248 0.0
H970 H 0.41582 0.73186 0.9301 0.0
H971 H 0.42966 0.8191 0.94401 0.0
H972 H 0.57553 0.92995 0.98486 0.0
H973 H 0.60128 0.86195 0.98702 0.0
C974 C 0.55892 0.77561 0.95483 0.0
C975 C 0.53628 0.73868 0.93353 0.0
C976 C 0.53432 0.8043 0.96328 0.0
C977 C 0.48192 0.71839 0.92749 0.0
C978 C 0.45548 0.74404 0.93751 0.0
C979 C 0.46709 0.82877 0.95346 0.0
C980 C 0.50339 0.88159 0.96146 0.0
C981 C 0.48382 0.79085 0.95277 0.0
C982 C 0.54828 0.89073 0.97671 0.0
C983 C 0.56334 0.85179 0.97793 0.0
H984 H 0.5264 0.38129 0.75979 0.0
H985 H 0.66701 0.43627 0.80927 0.0
H986 H 0.63922 0.34414 0.82165 0.0
H987 H 0.56322 0.25584 0.8293 0.0
H988 H 0.4193 0.20191 0.7824 0.0
H989 H 0.46107 0.28628 0.7577 0.0
C990 C 0.55211 0.37323 0.77252 0.0
C991 C 0.59666 0.41563 0.78517 0.0
C992 C 0.53467 0.32051 0.78051 0.0
C993 C 0.63065 0.40435 0.80063 0.0
C994 C 0.61483 0.35164 0.80768 0.0
C995 C 0.54125 0.26091 0.81297 0.0
C996 C 0.48721 0.22308 0.80848 0.0
C997 C 0.56469 0.31018 0.7996 0.0
C998 C 0.46035 0.2311 0.7869 0.0
C999 C 0.48419 0.27937 0.77276 0.0
H1000 H 0.13286 0.52258 1.0155 0.0
H1001 H 0.17206 0.48166 0.93835 0.0
H1002 H 0.17937 0.40868 0.95952 0.0
H1003 H 0.19379 0.37124 1.00097 0.0
H1004 H 0.17136 0.42497 0.07854 0.0
H1005 H 0.13675 0.47761 0.05641 0.0
C1006 C 0.14084 0.49625 1.00315 0.0
C1007 C 0.15161 0.50684 0.97544 0.0
C1008 C 0.14868 0.45735 1.01576 0.0
C1009 C 0.16344 0.4737 0.95971 0.0
C1010 C 0.16796 0.43241 0.97184 0.0
C1011 C 0.17944 0.39305 1.01292 0.0
C1012 C 0.18473 0.39469 0.04112 0.0
C1013 C 0.16349 0.42591 1.00002 0.0
C1014 C 0.16729 0.42353 0.05672 0.0
C1015 C 0.14798 0.45372 0.04408 0.0
H1016 H 0.82761 0.24545 0.1189 0.0
H1017 H 0.78741 0.34055 0.17102 0.0
H1018 H 0.70132 0.30373 0.14988 0.0
H1019 H 0.62976 0.22425 0.12901 0.0
H1020 H 0.66606 0.11909 0.08291 0.0
H1021 H 0.76037 0.18191 0.08755 0.0
C1022 C 0.8006 0.25931 0.12508 0.0
C1023 C 0.81329 0.29359 0.1474 0.0
C1024 C 0.74935 0.23527 0.11412 0.0
C1025 C 0.77894 0.31322 0.15434 0.0
C1026 C 0.72895 0.29174 0.14236 0.0
C1027 C 0.65782 0.21465 0.11984 0.0
C1028 C 0.64074 0.16398 0.10837 0.0
C1029 C 0.71218 0.24906 0.12425 0.0
C1030 C 0.67797 0.15606 0.0937 0.0
C1031 C 0.73225 0.19193 0.09642 0.0
H1032 H 0.66004 0.80266 0.33387 0.0
H1033 H 0.57132 0.88274 0.31627 0.0
H1034 H 0.50695 0.80568 0.29015 0.0
H1035 H 0.4664 0.71017 0.28204 0.0
H1036 H 0.5538 0.6286 0.30105 0.0
H1037 H 0.62878 0.71222 0.31592 0.0
C1038 C 0.62752 0.80379 0.3236 0.0
C1039 C 0.61884 0.84696 0.32788 0.0
C1040 C 0.58988 0.75878 0.3093 0.0
C1041 C 0.57732 0.84873 0.3141 0.0
C1042 C 0.54067 0.80482 0.29911 0.0
C1043 C 0.502 0.71031 0.28894 0.0
C1044 C 0.50212 0.66183 0.29235 0.0
C1045 C 0.5448 0.75842 0.29815 0.0
C1046 C 0.55017 0.66406 0.2999 0.0
C1047 C 0.59373 0.71228 0.30829 0.0
H1048 H 0.83557 0.41399 0.47088 0.0
H1049 H 0.92916 0.5401 0.41384 0.0
H1050 H 0.8613 0.56602 0.41311 0.0
H1051 H 0.7959 0.57375 0.44135 0.0
H1052 H 0.71054 0.45326 0.50248 0.0
H1053 H 0.75348 0.40449 0.48831 0.0
C1054 C 0.84133 0.44647 0.45777 0.0
C1055 C 0.89021 0.47852 0.44457 0.0
C1056 C 0.80368 0.46333 0.45865 0.0
C1057 C 0.89353 0.5169 0.42577 0.0
C1058 C 0.85477 0.53209 0.4254 0.0
C1059 C 0.78545 0.536 0.45109 0.0
C1060 C 0.75232 0.51949 0.47398 0.0
C1061 C 0.81281 0.50921 0.44396 0.0
C1062 C 0.73709 0.46889 0.48537 0.0
C1063 C 0.76209 0.44058 0.47738 0.0
H1064 H 0.20993 0.76883 0.67253 0.0
H1065 H 0.28101 0.91632 0.71775 0.0
H1066 H 0.36461 0.9484 0.69268 0.0
H1067 H 0.41822 0.93083 0.66035 0.0
H1068 H 0.34635 0.78314 0.61508 0.0
H1069 H 0.26118 0.75437 0.63768 0.0
C1070 C 0.24378 0.80815 0.67667 0.0
C1071 C 0.24046 0.84015 0.69702 0.0
C1072 C 0.29102 0.8258 0.66238 0.0
C1073 C 0.28348 0.89135 0.7021 0.0
C1074 C 0.33101 0.90938 0.68793 0.0
C1075 C 0.38384 0.89231 0.65554 0.0
C1076 C 0.38825 0.85836 0.63669 0.0
C1077 C 0.33544 0.87636 0.66848 0.0
C1078 C 0.34346 0.80943 0.62979 0.0
C1079 C 0.29506 0.79304 0.64269 0.0
loop_
_geom_bond_atom_site_label_1
_geom_bond_atom_site_label_2
_geom_bond_distance
_geom_bond_site_symmetry_2
_ccdc_geom_bond_type
Zn0 N4 2.020 . S
Zn0 O8 2.019 . S
Zn0 N10 2.119 . S
Zn0 O18 1.994 . S
C1 N2 1.334 . S
C1 N5 1.336 . S
N2 C1 1.334 . S
N2 C3 1.334 . S
C3 N2 1.334 . S
C3 N4 1.336 . S
N4 Zn0 2.020 . S
N4 C3 1.336 . S
N4 N5 1.354 . S
N5 C1 1.336 . S
N5 N4 1.354 . S
N5 Zn9 2.020 . S
C6 O7 1.244 . S
C6 O30 1.257 . S
O7 C6 1.244 . S
O8 Zn0 2.019 . S
O8 C28 1.257 . S
Zn9 N5 2.020 . S
Zn9 O16 1.975 1_554 S
Zn9 N25 2.119 . S
Zn9 O30 2.019 1_554 S
N10 Zn0 2.119 . S
N10 C12 1.334 1_554 S
N10 C13 1.328 . S
C11 C12 1.391 . S
C11 N14 1.329 . S
C11 H32 0.930 . S
C12 N10 1.334 1_556 S
C12 C11 1.391 . S
C12 H19 0.930 . S
C13 N10 1.328 . S
C13 C15 1.392 1_554 S
C13 H20 0.930 . S
N14 C11 1.329 . S
N14 C15 1.331 . S
C15 C13 1.392 1_556 S
C15 N14 1.331 . S
O16 Zn9 1.975 1_556 S
O16 C17 1.252 . S
C17 O16 1.252 . S
C17 O18 1.231 1_556 S
O18 Zn0 1.994 . S
O18 C17 1.231 1_554 S
H19 C12 0.930 . S
H20 C13 0.930 . S
C21 C22 1.392 . S
C21 N25 1.328 . S
C21 H27 0.930 . S
C22 C21 1.392 . S
C22 N26 1.331 . S
C23 C24 1.391 . S
C23 N26 1.329 . S
C23 H33 0.930 . S
C24 C23 1.391 . S
C24 N25 1.334 . S
C24 H31 0.930 . S
N25 Zn9 2.119 . S
N25 C21 1.328 . S
N25 C24 1.334 . S
N26 C22 1.331 . S
N26 C23 1.329 . S
H27 C21 0.930 . S
C28 O8 1.257 . S
C28 O29 1.244 . S
O29 C28 1.244 . S
O30 C6 1.257 . S
O30 Zn9 2.019 1_556 S
H31 C24 0.930 . S
H32 C11 0.930 . S
H33 C23 0.930 . S
Zn34 N38 2.020 1_455 S
Zn34 O42 2.019 . S
Zn34 N44 2.119 . S
Zn34 O52 1.975 1_455 S
C35 N36 1.334 . S
C35 N39 1.336 . S
N36 C35 1.334 . S
N36 C37 1.334 . S
C37 N36 1.334 . S
C37 N38 1.336 . S
N38 Zn34 2.020 1_655 S
N38 C37 1.336 . S
N38 N39 1.354 . S
N39 C35 1.336 . S
N39 N38 1.354 . S
N39 Zn43 2.020 . S
C40 O41 1.244 . S
C40 O64 1.257 . S
O41 C40 1.244 . S
O42 Zn34 2.019 . S
O42 C62 1.257 . S
Zn43 N39 2.020 . S
Zn43 O50 1.975 . S
Zn43 N59 2.119 . S
Zn43 O64 2.019 . S
N44 Zn34 2.119 . S
N44 C46 1.334 . S
N44 C47 1.328 . S
C45 C46 1.391 . S
C45 N48 1.329 . S
C45 H66 0.930 . S
C46 N44 1.334 . S
C46 C45 1.391 . S
C46 H53 0.930 1_455 S
C47 N44 1.328 . S
C47 C49 1.392 . S
C47 H54 0.930 . S
N48 C45 1.329 . S
N48 C49 1.331 . S
C49 C47 1.392 . S
C49 N48 1.331 . S
O50 Zn43 1.975 . S
O50 C51 1.252 . S
C51 O50 1.252 . S
C51 O52 1.252 . S
O52 Zn34 1.975 1_655 S
O52 C51 1.252 . S
H53 C46 0.930 1_655 S
H54 C47 0.930 . S
C55 C56 1.392 . S
C55 N59 1.328 . S
C55 H61 0.930 . S
C56 C55 1.392 . S
C56 N60 1.331 . S
C57 C58 1.391 . S
C57 N60 1.329 . S
C57 H67 0.930 . S
C58 C57 1.391 . S
C58 N59 1.334 . S
C58 H65 0.930 . S
N59 Zn43 2.119 . S
N59 C55 1.328 . S
N59 C58 1.334 . S
N60 C56 1.331 . S
N60 C57 1.329 . S
H61 C55 0.930 . S
C62 O42 1.257 . S
C62 O63 1.244 . S
O63 C62 1.244 . S
O64 C40 1.257 . S
O64 Zn43 2.019 . S
H65 C58 0.930 . S
H66 C45 0.930 . S
H67 C57 0.930 . S
Zn68 N72 2.020 . S
Zn68 O76 2.019 . S
Zn68 N78 2.119 . S
Zn68 O86 1.975 . S
C69 N70 1.334 . S
C69 N73 1.336 . S
N70 C69 1.334 . S
N70 C71 1.334 . S
C71 N70 1.334 . S
C71 N72 1.336 . S
N72 Zn68 2.020 . S
N72 C71 1.336 . S
N72 N73 1.354 . S
N73 C69 1.336 . S
N73 N72 1.354 . S
N73 Zn77 2.020 1_565 S
C74 O75 1.244 . S
C74 O98 1.257 . S
O75 C74 1.244 . S
O76 Zn68 2.019 . S
O76 C96 1.257 . S
Zn77 N73 2.020 1_545 S
Zn77 O84 1.975 1_545 S
Zn77 N93 2.119 . S
Zn77 O98 2.019 . S
N78 Zn68 2.119 . S
N78 C80 1.334 . S
N78 C81 1.328 . S
C79 C80 1.391 . S
C79 N82 1.329 . S
C79 H100 0.930 . S
C80 N78 1.334 . S
C80 C79 1.391 . S
C80 H87 0.930 . S
C81 N78 1.328 . S
C81 C83 1.392 . S
C81 H88 0.930 . S
N82 C79 1.329 . S
N82 C83 1.331 . S
C83 C81 1.392 . S
C83 N82 1.331 . S
O84 Zn77 1.975 1_565 S
O84 C85 1.252 . S
C85 O84 1.252 . S
C85 O86 1.252 . S
O86 Zn68 1.975 . S
O86 C85 1.252 . S
H87 C80 0.930 . S
H88 C81 0.930 . S
C89 C90 1.392 . S
C89 N93 1.328 . S
C89 H95 0.930 . S
C90 C89 1.392 . S
C90 N94 1.331 . S
C91 C92 1.391 . S
C91 N94 1.329 . S
C91 H101 0.930 . S
C92 C91 1.391 . S
C92 N93 1.334 . S
C92 H99 0.930 1_545 S
N93 Zn77 2.119 . S
N93 C89 1.328 . S
N93 C92 1.334 . S
N94 C90 1.331 . S
N94 C91 1.329 . S
H95 C89 0.930 . S
C96 O76 1.257 . S
C96 O97 1.244 . S
O97 C96 1.244 . S
O98 C74 1.257 . S
O98 Zn77 2.019 . S
H99 C92 0.930 1_565 S
H100 C79 0.930 . S
H101 C91 0.930 . S
Zn102 N106 2.020 . S
Zn102 O110 2.019 . S
Zn102 N112 2.119 . S
Zn102 O120 1.975 . S
C103 N104 1.334 . S
C103 N107 1.336 . S
N104 C103 1.334 . S
N104 C105 1.334 . S
C105 N104 1.334 . S
C105 N106 1.336 . S
N106 Zn102 2.020 . S
N106 C105 1.336 . S
N106 N107 1.354 . S
N107 C103 1.336 . S
N107 N106 1.354 . S
N107 Zn111 2.020 . S
C108 O109 1.244 . S
C108 O132 1.257 . S
O109 C108 1.244 . S
O110 Zn102 2.019 . S
O110 C130 1.257 . S
Zn111 N107 2.020 . S
Zn111 O118 1.975 . S
Zn111 N127 2.119 . S
Zn111 O132 2.019 . S
N112 Zn102 2.119 . S
N112 C114 1.334 . S
N112 C115 1.328 . S
C113 C114 1.391 . S
C113 N116 1.329 . S
C113 H134 0.930 . S
C114 N112 1.334 . S
C114 C113 1.391 . S
C114 H121 0.930 . S
C115 N112 1.328 . S
C115 C117 1.392 . S
C115 H122 0.930 . S
N116 C113 1.329 . S
N116 C117 1.331 . S
C117 C115 1.392 . S
C117 N116 1.331 . S
O118 Zn111 1.975 . S
O118 C119 1.252 . S
C119 O118 1.252 . S
C119 O120 1.252 . S
O120 Zn102 1.975 . S
O120 C119 1.252 . S
H121 C114 0.930 . S
H122 C115 0.930 . S
C123 C124 1.392 . S
C123 N127 1.328 . S
C123 H129 0.930 . S
C124 C123 1.392 . S
C124 N128 1.331 . S
C125 C126 1.391 . S
C125 N128 1.329 . S
C125 H135 0.930 . S
C126 C125 1.391 . S
C126 N127 1.334 . S
C126 H133 0.930 . S
N127 Zn111 2.119 . S
N127 C123 1.328 . S
N127 C126 1.334 . S
N128 C124 1.331 . S
N128 C125 1.329 . S
H129 C123 0.930 . S
C130 O110 1.257 . S
C130 O131 1.244 . S
O131 C130 1.244 . S
O132 C108 1.257 . S
O132 Zn111 2.019 . S
H133 C126 0.930 . S
H134 C113 0.930 . S
H135 C125 0.930 . S
Zn136 N140 2.020 . S
Zn136 O144 2.019 . S
Zn136 N146 2.119 . S
Zn136 O154 1.975 . S
C137 N138 1.334 . S
C137 N141 1.336 . S
N138 C137 1.334 . S
N138 C139 1.334 . S
C139 N138 1.334 . S
C139 N140 1.336 . S
N140 Zn136 2.020 . S
N140 C139 1.336 . S
N140 N141 1.354 . S
N141 C137 1.336 . S
N141 N140 1.354 . S
N141 Zn145 2.020 1_455 S
C142 O143 1.244 . S
C142 O166 1.257 . S
O143 C142 1.244 . S
O144 Zn136 2.019 . S
O144 C164 1.257 . S
Zn145 N141 2.020 1_655 S
Zn145 O152 1.975 1_655 S
Zn145 N161 2.119 . S
Zn145 O166 2.019 . S
N146 Zn136 2.119 . S
N146 C148 1.334 . S
N146 C149 1.328 . S
C147 C148 1.391 . S
C147 N150 1.329 . S
C147 H168 0.930 . S
C148 N146 1.334 . S
C148 C147 1.391 . S
C148 H155 0.930 . S
C149 N146 1.328 . S
C149 C151 1.392 . S
C149 H156 0.930 . S
N150 C147 1.329 . S
N150 C151 1.331 . S
C151 C149 1.392 . S
C151 N150 1.331 . S
O152 Zn145 1.975 1_455 S
O152 C153 1.252 . S
C153 O152 1.252 . S
C153 O154 1.252 . S
O154 Zn136 1.975 . S
O154 C153 1.252 . S
H155 C148 0.930 . S
H156 C149 0.930 . S
C157 C158 1.392 . S
C157 N161 1.328 . S
C157 H163 0.930 . S
C158 C157 1.392 . S
C158 N162 1.331 . S
C159 C160 1.391 . S
C159 N162 1.329 . S
C159 H169 0.930 . S
C160 C159 1.391 . S
C160 N161 1.334 . S
C160 H167 0.930 1_655 S
N161 Zn145 2.119 . S
N161 C157 1.328 . S
N161 C160 1.334 . S
N162 C158 1.331 . S
N162 C159 1.329 . S
H163 C157 0.930 . S
C164 O144 1.257 . S
C164 O165 1.244 . S
O165 C164 1.244 . S
O166 C142 1.257 . S
O166 Zn145 2.019 . S
H167 C160 0.930 1_455 S
H168 C147 0.930 . S
H169 C159 0.930 . S
Zn170 N174 2.020 1_565 S
Zn170 O178 2.019 . S
Zn170 N180 2.119 . S
Zn170 O188 1.975 1_565 S
C171 N172 1.334 . S
C171 N175 1.336 . S
N172 C171 1.334 . S
N172 C173 1.334 . S
C173 N172 1.334 . S
C173 N174 1.336 . S
N174 Zn170 2.020 1_545 S
N174 C173 1.336 . S
N174 N175 1.354 . S
N175 C171 1.336 . S
N175 N174 1.354 . S
N175 Zn179 2.020 . S
C176 O177 1.244 . S
C176 O200 1.257 . S
O177 C176 1.244 . S
O178 Zn170 2.019 . S
O178 C198 1.257 . S
Zn179 N175 2.020 . S
Zn179 O186 1.975 . S
Zn179 N195 2.119 . S
Zn179 O200 2.019 . S
N180 Zn170 2.119 . S
N180 C182 1.334 . S
N180 C183 1.328 . S
C181 C182 1.391 . S
C181 N184 1.329 . S
C181 H202 0.930 . S
C182 N180 1.334 . S
C182 C181 1.391 . S
C182 H189 0.930 1_565 S
C183 N180 1.328 . S
C183 C185 1.392 . S
C183 H190 0.930 . S
N184 C181 1.329 . S
N184 C185 1.331 . S
C185 C183 1.392 . S
C185 N184 1.331 . S
O186 Zn179 1.975 . S
O186 C187 1.252 . S
C187 O186 1.252 . S
C187 O188 1.252 . S
O188 Zn170 1.975 1_545 S
O188 C187 1.252 . S
H189 C182 0.930 1_545 S
H190 C183 0.930 . S
C191 C192 1.392 . S
C191 N195 1.328 . S
C191 H197 0.930 . S
C192 C191 1.392 . S
C192 N196 1.331 . S
C193 C194 1.391 . S
C193 N196 1.329 . S
C193 H203 0.930 . S
C194 C193 1.391 . S
C194 N195 1.334 . S
C194 H201 0.930 . S
N195 Zn179 2.119 . S
N195 C191 1.328 . S
N195 C194 1.334 . S
N196 C192 1.331 . S
N196 C193 1.329 . S
H197 C191 0.930 . S
C198 O178 1.257 . S
C198 O199 1.244 . S
O199 C198 1.244 . S
O200 C176 1.257 . S
O200 Zn179 2.019 . S
H201 C194 0.930 . S
H202 C181 0.930 . S
H203 C193 0.930 . S
Zn204 N208 2.020 . S
Zn204 O212 2.019 . S
Zn204 N214 2.119 . S
Zn204 O222 1.975 . S
C205 N206 1.334 . S
C205 N209 1.336 . S
N206 C205 1.334 . S
N206 C207 1.334 . S
C207 N206 1.334 . S
C207 N208 1.336 . S
N208 Zn204 2.020 . S
N208 C207 1.336 . S
N208 N209 1.354 . S
N209 C205 1.336 . S
N209 N208 1.354 . S
N209 Zn213 2.020 . S
C210 O211 1.244 . S
C210 O234 1.257 . S
O211 C210 1.244 . S
O212 Zn204 2.019 . S
O212 C232 1.257 . S
Zn213 N209 2.020 . S
Zn213 O220 1.975 . S
Zn213 N229 2.119 . S
Zn213 O234 2.019 . S
N214 Zn204 2.119 . S
N214 C216 1.334 . S
N214 C217 1.328 . S
C215 C216 1.391 . S
C215 N218 1.329 . S
C215 H236 0.930 . S
C216 N214 1.334 . S
C216 C215 1.391 . S
C216 H223 0.930 . S
C217 N214 1.328 . S
C217 C219 1.392 . S
C217 H224 0.930 . S
N218 C215 1.329 . S
N218 C219 1.331 . S
C219 C217 1.392 . S
C219 N218 1.331 . S
O220 Zn213 1.975 . S
O220 C221 1.252 . S
C221 O220 1.252 . S
C221 O222 1.252 . S
O222 Zn204 1.975 . S
O222 C221 1.252 . S
H223 C216 0.930 . S
H224 C217 0.930 . S
C225 C226 1.392 . S
C225 N229 1.328 . S
C225 H231 0.930 . S
C226 C225 1.392 . S
C226 N230 1.331 . S
C227 C228 1.391 . S
C227 N230 1.329 . S
C227 H237 0.930 . S
C228 C227 1.391 . S
C228 N229 1.334 . S
C228 H235 0.930 . S
N229 Zn213 2.119 . S
N229 C225 1.328 . S
N229 C228 1.334 . S
N230 C226 1.331 . S
N230 C227 1.329 . S
H231 C225 0.930 . S
C232 O212 1.257 . S
C232 O233 1.244 . S
O233 C232 1.244 . S
O234 C210 1.257 . S
O234 Zn213 2.019 . S
H235 C228 0.930 . S
H236 C215 0.930 . S
H237 C227 0.930 . S
Zn238 N242 2.020 1_455 S
Zn238 O246 2.019 1_556 S
Zn238 N248 2.119 . S
Zn238 O256 1.975 1_456 S
C239 N240 1.334 . S
C239 N243 1.336 . S
N240 C239 1.334 . S
N240 C241 1.334 . S
C241 N240 1.334 . S
C241 N242 1.336 . S
N242 Zn238 2.020 1_655 S
N242 C241 1.336 . S
N242 N243 1.354 . S
N243 C239 1.336 . S
N243 N242 1.354 . S
N243 Zn247 2.020 . S
C244 O245 1.244 . S
C244 O268 1.257 . S
O245 C244 1.244 . S
O246 Zn238 2.019 1_554 S
O246 C266 1.257 . S
Zn247 N243 2.020 . S
Zn247 O254 1.994 . S
Zn247 N263 2.119 . S
Zn247 O268 2.019 . S
N248 Zn238 2.119 . S
N248 C250 1.334 . S
N248 C251 1.328 . S
C249 C250 1.391 . S
C249 N252 1.329 . S
C249 H270 0.930 . S
C250 N248 1.334 . S
C250 C249 1.391 . S
C250 H257 0.930 1_455 S
C251 N248 1.328 . S
C251 C253 1.392 . S
C251 H258 0.930 . S
N252 C249 1.329 . S
N252 C253 1.331 . S
C253 C251 1.392 . S
C253 N252 1.331 . S
O254 Zn247 1.994 . S
O254 C255 1.231 1_556 S
C255 O254 1.231 1_554 S
C255 O256 1.252 . S
O256 Zn238 1.975 1_654 S
O256 C255 1.252 . S
H257 C250 0.930 1_655 S
H258 C251 0.930 . S
C259 C260 1.392 1_556 S
C259 N263 1.328 . S
C259 H265 0.930 . S
C260 C259 1.392 1_554 S
C260 N264 1.331 . S
C261 C262 1.391 . S
C261 N264 1.329 . S
C261 H271 0.930 . S
C262 C261 1.391 . S
C262 N263 1.334 1_554 S
C262 H269 0.930 . S
N263 Zn247 2.119 . S
N263 C259 1.328 . S
N263 C262 1.334 1_556 S
N264 C260 1.331 . S
N264 C261 1.329 . S
H265 C259 0.930 . S
C266 O246 1.257 . S
C266 O267 1.244 . S
O267 C266 1.244 . S
O268 C244 1.257 . S
O268 Zn247 2.019 . S
H269 C262 0.930 . S
H270 C249 0.930 . S
H271 C261 0.930 . S
Zn272 N276 2.020 . S
Zn272 O280 2.019 . S
Zn272 N282 2.119 . S
Zn272 O290 1.975 . S
C273 N274 1.334 . S
C273 N277 1.336 . S
N274 C273 1.334 . S
N274 C275 1.334 . S
C275 N274 1.334 . S
C275 N276 1.336 . S
N276 Zn272 2.020 . S
N276 C275 1.336 . S
N276 N277 1.354 . S
N277 C273 1.336 . S
N277 N276 1.354 . S
N277 Zn281 2.020 1_565 S
C278 O279 1.244 . S
C278 O302 1.257 . S
O279 C278 1.244 . S
O280 Zn272 2.019 . S
O280 C300 1.257 . S
Zn281 N277 2.020 1_545 S
Zn281 O288 1.975 1_545 S
Zn281 N297 2.119 . S
Zn281 O302 2.019 . S
N282 Zn272 2.119 . S
N282 C284 1.334 . S
N282 C285 1.328 . S
C283 C284 1.391 . S
C283 N286 1.329 . S
C283 H304 0.930 . S
C284 N282 1.334 . S
C284 C283 1.391 . S
C284 H291 0.930 . S
C285 N282 1.328 . S
C285 C287 1.392 . S
C285 H292 0.930 . S
N286 C283 1.329 . S
N286 C287 1.331 . S
C287 C285 1.392 . S
C287 N286 1.331 . S
O288 Zn281 1.975 1_565 S
O288 C289 1.252 . S
C289 O288 1.252 . S
C289 O290 1.252 . S
O290 Zn272 1.975 . S
O290 C289 1.252 . S
H291 C284 0.930 . S
H292 C285 0.930 . S
C293 C294 1.392 . S
C293 N297 1.328 . S
C293 H299 0.930 . S
C294 C293 1.392 . S
C294 N298 1.331 . S
C295 C296 1.391 . S
C295 N298 1.329 . S
C295 H305 0.930 . S
C296 C295 1.391 . S
C296 N297 1.334 . S
C296 H303 0.930 1_545 S
N297 Zn281 2.119 . S
N297 C293 1.328 . S
N297 C296 1.334 . S
N298 C294 1.331 . S
N298 C295 1.329 . S
H299 C293 0.930 . S
C300 O280 1.257 . S
C300 O301 1.244 . S
O301 C300 1.244 . S
O302 C278 1.257 . S
O302 Zn281 2.019 . S
H303 C296 0.930 1_565 S
H304 C283 0.930 . S
H305 C295 0.930 . S
Zn306 N310 2.020 . S
Zn306 O314 2.019 . S
Zn306 N316 2.119 . S
Zn306 O324 1.975 . S
C307 N308 1.334 . S
C307 N311 1.336 . S
N308 C307 1.334 . S
N308 C309 1.334 . S
C309 N308 1.334 . S
C309 N310 1.336 . S
N310 Zn306 2.020 . S
N310 C309 1.336 . S
N310 N311 1.354 . S
N311 C307 1.336 . S
N311 N310 1.354 . S
N311 Zn315 2.020 . S
C312 O313 1.244 . S
C312 O336 1.257 . S
O313 C312 1.244 . S
O314 Zn306 2.019 . S
O314 C334 1.257 . S
Zn315 N311 2.020 . S
Zn315 O322 1.975 . S
Zn315 N331 2.119 . S
Zn315 O336 2.019 . S
N316 Zn306 2.119 . S
N316 C318 1.334 . S
N316 C319 1.328 . S
C317 C318 1.391 . S
C317 N320 1.329 . S
C317 H338 0.930 . S
C318 N316 1.334 . S
C318 C317 1.391 . S
C318 H325 0.930 . S
C319 N316 1.328 . S
C319 C321 1.392 . S
C319 H326 0.930 . S
N320 C317 1.329 . S
N320 C321 1.331 . S
C321 C319 1.392 . S
C321 N320 1.331 . S
O322 Zn315 1.975 . S
O322 C323 1.252 . S
C323 O322 1.252 . S
C323 O324 1.252 . S
O324 Zn306 1.975 . S
O324 C323 1.252 . S
H325 C318 0.930 . S
H326 C319 0.930 . S
C327 C328 1.392 . S
C327 N331 1.328 . S
C327 H333 0.930 . S
C328 C327 1.392 . S
C328 N332 1.331 . S
C329 C330 1.391 . S
C329 N332 1.329 . S
C329 H339 0.930 . S
C330 C329 1.391 . S
C330 N331 1.334 . S
C330 H337 0.930 . S
N331 Zn315 2.119 . S
N331 C327 1.328 . S
N331 C330 1.334 . S
N332 C328 1.331 . S
N332 C329 1.329 . S
H333 C327 0.930 . S
C334 O314 1.257 . S
C334 O335 1.244 . S
O335 C334 1.244 . S
O336 C312 1.257 . S
O336 Zn315 2.019 . S
H337 C330 0.930 . S
H338 C317 0.930 . S
H339 C329 0.930 . S
Zn340 N344 2.020 . S
Zn340 O348 2.019 . S
Zn340 N350 2.119 . S
Zn340 O358 1.975 . S
C341 N342 1.334 . S
C341 N345 1.336 . S
N342 C341 1.334 . S
N342 C343 1.334 . S
C343 N342 1.334 . S
C343 N344 1.336 . S
N344 Zn340 2.020 . S
N344 C343 1.336 . S
N344 N345 1.354 . S
N345 C341 1.336 . S
N345 N344 1.354 . S
N345 Zn349 2.020 1_455 S
C346 O347 1.244 . S
C346 O370 1.257 . S
O347 C346 1.244 . S
O348 Zn340 2.019 . S
O348 C368 1.257 . S
Zn349 N345 2.020 1_655 S
Zn349 O356 1.975 1_655 S
Zn349 N365 2.119 . S
Zn349 O370 2.019 . S
N350 Zn340 2.119 . S
N350 C352 1.334 . S
N350 C353 1.328 . S
C351 C352 1.391 . S
C351 N354 1.329 . S
C351 H372 0.930 . S
C352 N350 1.334 . S
C352 C351 1.391 . S
C352 H359 0.930 . S
C353 N350 1.328 . S
C353 C355 1.392 . S
C353 H360 0.930 . S
N354 C351 1.329 . S
N354 C355 1.331 . S
C355 C353 1.392 . S
C355 N354 1.331 . S
O356 Zn349 1.975 1_455 S
O356 C357 1.252 . S
C357 O356 1.252 . S
C357 O358 1.252 . S
O358 Zn340 1.975 . S
O358 C357 1.252 . S
H359 C352 0.930 . S
H360 C353 0.930 . S
C361 C362 1.392 . S
C361 N365 1.328 . S
C361 H367 0.930 . S
C362 C361 1.392 . S
C362 N366 1.331 . S
C363 C364 1.391 . S
C363 N366 1.329 . S
C363 H373 0.930 . S
C364 C363 1.391 . S
C364 N365 1.334 . S
C364 H371 0.930 1_655 S
N365 Zn349 2.119 . S
N365 C361 1.328 . S
N365 C364 1.334 . S
N366 C362 1.331 . S
N366 C363 1.329 . S
H367 C361 0.930 . S
C368 O348 1.257 . S
C368 O369 1.244 . S
O369 C368 1.244 . S
O370 C346 1.257 . S
O370 Zn349 2.019 . S
H371 C364 0.930 1_455 S
H372 C351 0.930 . S
H373 C363 0.930 . S
Zn374 N378 2.020 1_565 S
Zn374 O382 2.019 . S
Zn374 N384 2.119 . S
Zn374 O392 1.975 1_565 S
C375 N376 1.334 . S
C375 N379 1.336 . S
N376 C375 1.334 . S
N376 C377 1.334 . S
C377 N376 1.334 . S
C377 N378 1.336 . S
N378 Zn374 2.020 1_545 S
N378 C377 1.336 . S
N378 N379 1.354 . S
N379 C375 1.336 . S
N379 N378 1.354 . S
N379 Zn383 2.020 . S
C380 O381 1.244 . S
C380 O404 1.257 . S
O381 C380 1.244 . S
O382 Zn374 2.019 . S
O382 C402 1.257 . S
Zn383 N379 2.020 . S
Zn383 O390 1.975 . S
Zn383 N399 2.119 . S
Zn383 O404 2.019 . S
N384 Zn374 2.119 . S
N384 C386 1.334 . S
N384 C387 1.328 . S
C385 C386 1.391 . S
C385 N388 1.329 . S
C385 H406 0.930 . S
C386 N384 1.334 . S
C386 C385 1.391 . S
C386 H393 0.930 1_565 S
C387 N384 1.328 . S
C387 C389 1.392 . S
C387 H394 0.930 . S
N388 C385 1.329 . S
N388 C389 1.331 . S
C389 C387 1.392 . S
C389 N388 1.331 . S
O390 Zn383 1.975 . S
O390 C391 1.252 . S
C391 O390 1.252 . S
C391 O392 1.252 . S
O392 Zn374 1.975 1_545 S
O392 C391 1.252 . S
H393 C386 0.930 1_545 S
H394 C387 0.930 . S
C395 C396 1.392 . S
C395 N399 1.328 . S
C395 H401 0.930 . S
C396 C395 1.392 . S
C396 N400 1.331 . S
C397 C398 1.391 . S
C397 N400 1.329 . S
C397 H407 0.930 . S
C398 C397 1.391 . S
C398 N399 1.334 . S
C398 H405 0.930 . S
N399 Zn383 2.119 . S
N399 C395 1.328 . S
N399 C398 1.334 . S
N400 C396 1.331 . S
N400 C397 1.329 . S
H401 C395 0.930 . S
C402 O382 1.257 . S
C402 O403 1.244 . S
O403 C402 1.244 . S
O404 C380 1.257 . S
O404 Zn383 2.019 . S
H405 C398 0.930 . S
H406 C385 0.930 . S
H407 C397 0.930 . S
H408 C414 0.930 . S
H409 C417 0.930 . S
H410 C418 0.930 . S
H411 C419 0.930 . S
H412 C422 0.930 . S
H413 C423 0.930 . S
C414 H408 0.930 . S
C414 C415 1.355 . S
C414 C416 1.415 . S
C415 C414 1.355 . S
C415 C417 1.419 . S
C416 C414 1.415 . S
C416 C421 1.425 . S
C416 C423 1.409 . S
C417 H409 0.930 . S
C417 C415 1.419 . S
C417 C418 1.362 . S
C418 H410 0.930 . S
C418 C417 1.362 . S
C418 C421 1.409 . S
C419 H411 0.930 . S
C419 C420 1.355 . S
C419 C421 1.415 . S
C420 C419 1.355 . S
C420 C422 1.419 . S
C421 C416 1.425 . S
C421 C418 1.409 . S
C421 C419 1.415 . S
C422 H412 0.930 . S
C422 C420 1.419 . S
C422 C423 1.362 . S
C423 H413 0.930 . S
C423 C416 1.409 . S
C423 C422 1.362 . S
H424 C430 0.930 . S
H425 C433 0.930 . S
H426 C434 0.930 . S
H427 C435 0.930 . S
H428 C438 0.930 . S
H429 C439 0.930 . S
C430 H424 0.930 . S
C430 C431 1.355 . S
C430 C432 1.415 . S
C431 C430 1.355 . S
C431 C433 1.419 . S
C432 C430 1.415 . S
C432 C437 1.425 . S
C432 C439 1.409 . S
C433 H425 0.930 . S
C433 C431 1.419 . S
C433 C434 1.362 . S
C434 H426 0.930 . S
C434 C433 1.362 . S
C434 C437 1.409 . S
C435 H427 0.930 . S
C435 C436 1.355 . S
C435 C437 1.415 . S
C436 C435 1.355 . S
C436 C438 1.419 . S
C437 C432 1.425 . S
C437 C434 1.409 . S
C437 C435 1.415 . S
C438 H428 0.930 . S
C438 C436 1.419 . S
C438 C439 1.362 . S
C439 H429 0.930 . S
C439 C432 1.409 . S
C439 C438 1.362 . S
H440 C446 0.930 . S
H441 C449 0.930 . S
H442 C450 0.930 . S
H443 C451 0.930 . S
H444 C454 0.930 . S
H445 C455 0.930 . S
C446 H440 0.930 . S
C446 C447 1.355 . S
C446 C448 1.415 . S
C447 C446 1.355 . S
C447 C449 1.419 . S
C448 C446 1.415 . S
C448 C453 1.425 . S
C448 C455 1.409 . S
C449 H441 0.930 . S
C449 C447 1.419 . S
C449 C450 1.362 . S
C450 H442 0.930 . S
C450 C449 1.362 . S
C450 C453 1.409 . S
C451 H443 0.930 . S
C451 C452 1.355 . S
C451 C453 1.415 . S
C452 C451 1.355 . S
C452 C454 1.419 . S
C453 C448 1.425 . S
C453 C450 1.409 . S
C453 C451 1.415 . S
C454 H444 0.930 . S
C454 C452 1.419 . S
C454 C455 1.362 . S
C455 H445 0.930 . S
C455 C448 1.409 . S
C455 C454 1.362 . S
H456 C462 0.930 . S
H457 C465 0.930 . S
H458 C466 0.930 . S
H459 C467 0.930 . S
H460 C470 0.930 . S
H461 C471 0.930 . S
C462 H456 0.930 . S
C462 C463 1.355 . S
C462 C464 1.415 . S
C463 C462 1.355 . S
C463 C465 1.419 . S
C464 C462 1.415 . S
C464 C469 1.425 . S
C464 C471 1.409 . S
C465 H457 0.930 . S
C465 C463 1.419 . S
C465 C466 1.362 . S
C466 H458 0.930 . S
C466 C465 1.362 . S
C466 C469 1.409 . S
C467 H459 0.930 . S
C467 C468 1.355 . S
C467 C469 1.415 . S
C468 C467 1.355 . S
C468 C470 1.419 . S
C469 C464 1.425 . S
C469 C466 1.409 . S
C469 C467 1.415 . S
C470 H460 0.930 . S
C470 C468 1.419 . S
C470 C471 1.362 . S
C471 H461 0.930 . S
C471 C464 1.409 . S
C471 C470 1.362 . S
H472 C478 0.930 . S
H473 C481 0.930 . S
H474 C482 0.930 . S
H475 C483 0.930 . S
H476 C486 0.930 . S
H477 C487 0.930 . S
C478 H472 0.930 . S
C478 C479 1.355 . S
C478 C480 1.415 . S
C479 C478 1.355 . S
C479 C481 1.419 . S
C480 C478 1.415 . S
C480 C485 1.425 . S
C480 C487 1.409 . S
C481 H473 0.930 . S
C481 C479 1.419 . S
C481 C482 1.362 . S
C482 H474 0.930 . S
C482 C481 1.362 . S
C482 C485 1.409 . S
C483 H475 0.930 . S
C483 C484 1.355 . S
C483 C485 1.415 . S
C484 C483 1.355 . S
C484 C486 1.419 . S
C485 C480 1.425 . S
C485 C482 1.409 . S
C485 C483 1.415 . S
C486 H476 0.930 . S
C486 C484 1.419 . S
C486 C487 1.362 . S
C487 H477 0.930 . S
C487 C480 1.409 . S
C487 C486 1.362 . S
H488 C494 0.930 . S
H489 C497 0.930 . S
H490 C498 0.930 . S
H491 C499 0.930 . S
H492 C502 0.930 . S
H493 C503 0.930 . S
C494 H488 0.930 . S
C494 C495 1.355 . S
C494 C496 1.415 . S
C495 C494 1.355 . S
C495 C497 1.419 . S
C496 C494 1.415 . S
C496 C501 1.425 . S
C496 C503 1.409 . S
C497 H489 0.930 . S
C497 C495 1.419 . S
C497 C498 1.362 . S
C498 H490 0.930 . S
C498 C497 1.362 . S
C498 C501 1.409 . S
C499 H491 0.930 . S
C499 C500 1.355 . S
C499 C501 1.415 . S
C500 C499 1.355 . S
C500 C502 1.419 . S
C501 C496 1.425 . S
C501 C498 1.409 . S
C501 C499 1.415 . S
C502 H492 0.930 . S
C502 C500 1.419 . S
C502 C503 1.362 . S
C503 H493 0.930 . S
C503 C496 1.409 . S
C503 C502 1.362 . S
H504 C510 0.930 . S
H505 C513 0.930 . S
H506 C514 0.930 . S
H507 C515 0.930 . S
H508 C518 0.930 . S
H509 C519 0.930 . S
C510 H504 0.930 . S
C510 C511 1.355 . S
C510 C512 1.415 . S
C511 C510 1.355 . S
C511 C513 1.419 . S
C512 C510 1.415 . S
C512 C517 1.425 . S
C512 C519 1.409 . S
C513 H505 0.930 . S
C513 C511 1.419 . S
C513 C514 1.362 . S
C514 H506 0.930 . S
C514 C513 1.362 . S
C514 C517 1.409 . S
C515 H507 0.930 . S
C515 C516 1.355 . S
C515 C517 1.415 . S
C516 C515 1.355 . S
C516 C518 1.419 . S
C517 C512 1.425 . S
C517 C514 1.409 . S
C517 C515 1.415 . S
C518 H508 0.930 . S
C518 C516 1.419 . S
C518 C519 1.362 . S
C519 H509 0.930 . S
C519 C512 1.409 . S
C519 C518 1.362 . S
H520 C526 0.930 . S
H521 C529 0.930 . S
H522 C530 0.930 . S
H523 C531 0.930 . S
H524 C534 0.930 . S
H525 C535 0.930 . S
C526 H520 0.930 . S
C526 C527 1.355 . S
C526 C528 1.415 . S
C527 C526 1.355 . S
C527 C529 1.419 . S
C528 C526 1.415 . S
C528 C533 1.425 . S
C528 C535 1.409 . S
C529 H521 0.930 . S
C529 C527 1.419 . S
C529 C530 1.362 . S
C530 H522 0.930 . S
C530 C529 1.362 . S
C530 C533 1.409 . S
C531 H523 0.930 . S
C531 C532 1.355 . S
C531 C533 1.415 . S
C532 C531 1.355 . S
C532 C534 1.419 . S
C533 C528 1.425 . S
C533 C530 1.409 . S
C533 C531 1.415 . S
C534 H524 0.930 . S
C534 C532 1.419 . S
C534 C535 1.362 . S
C535 H525 0.930 . S
C535 C528 1.409 . S
C535 C534 1.362 . S
H536 C542 0.930 . S
H537 C545 0.930 . S
H538 C546 0.930 . S
H539 C547 0.930 . S
H540 C550 0.930 . S
H541 C551 0.930 . S
C542 H536 0.930 . S
C542 C543 1.355 . S
C542 C544 1.415 . S
C543 C542 1.355 . S
C543 C545 1.419 . S
C544 C542 1.415 . S
C544 C549 1.425 . S
C544 C551 1.409 . S
C545 H537 0.930 . S
C545 C543 1.419 . S
C545 C546 1.362 . S
C546 H538 0.930 . S
C546 C545 1.362 . S
C546 C549 1.409 . S
C547 H539 0.930 . S
C547 C548 1.355 . S
C547 C549 1.415 . S
C548 C547 1.355 . S
C548 C550 1.419 . S
C549 C544 1.425 . S
C549 C546 1.409 . S
C549 C547 1.415 . S
C550 H540 0.930 . S
C550 C548 1.419 . S
C550 C551 1.362 . S
C551 H541 0.930 . S
C551 C544 1.409 . S
C551 C550 1.362 . S
H552 C558 0.930 . S
H553 C561 0.930 . S
H554 C562 0.930 . S
H555 C563 0.930 . S
H556 C566 0.930 . S
H557 C567 0.930 . S
C558 H552 0.930 . S
C558 C559 1.355 . S
C558 C560 1.415 . S
C559 C558 1.355 . S
C559 C561 1.419 . S
C560 C558 1.415 . S
C560 C565 1.425 . S
C560 C567 1.409 . S
C561 H553 0.930 . S
C561 C559 1.419 . S
C561 C562 1.362 . S
C562 H554 0.930 . S
C562 C561 1.362 . S
C562 C565 1.409 . S
C563 H555 0.930 . S
C563 C564 1.355 . S
C563 C565 1.415 . S
C564 C563 1.355 . S
C564 C566 1.419 . S
C565 C560 1.425 . S
C565 C562 1.409 . S
C565 C563 1.415 . S
C566 H556 0.930 . S
C566 C564 1.419 . S
C566 C567 1.362 . S
C567 H557 0.930 . S
C567 C560 1.409 . S
C567 C566 1.362 . S
H568 C574 0.930 . S
H569 C577 0.930 . S
H570 C578 0.930 . S
H571 C579 0.930 . S
H572 C582 0.930 . S
H573 C583 0.930 . S
C574 H568 0.930 . S
C574 C575 1.355 . S
C574 C576 1.415 . S
C575 C574 1.355 . S
C575 C577 1.419 . S
C576 C574 1.415 . S
C576 C581 1.425 . S
C576 C583 1.409 . S
C577 H569 0.930 . S
C577 C575 1.419 . S
C577 C578 1.362 . S
C578 H570 0.930 . S
C578 C577 1.362 . S
C578 C581 1.409 . S
C579 H571 0.930 . S
C579 C580 1.355 . S
C579 C581 1.415 . S
C580 C579 1.355 . S
C580 C582 1.419 . S
C581 C576 1.425 . S
C581 C578 1.409 . S
C581 C579 1.415 . S
C582 H572 0.930 . S
C582 C580 1.419 . S
C582 C583 1.362 . S
C583 H573 0.930 . S
C583 C576 1.409 . S
C583 C582 1.362 . S
H584 C590 0.930 . S
H585 C593 0.930 . S
H586 C594 0.930 . S
H587 C595 0.930 . S
H588 C598 0.930 . S
H589 C599 0.930 . S
C590 H584 0.930 . S
C590 C591 1.355 . S
C590 C592 1.415 . S
C591 C590 1.355 . S
C591 C593 1.419 . S
C592 C590 1.415 . S
C592 C597 1.425 . S
C592 C599 1.409 . S
C593 H585 0.930 . S
C593 C591 1.419 . S
C593 C594 1.362 . S
C594 H586 0.930 . S
C594 C593 1.362 . S
C594 C597 1.409 . S
C595 H587 0.930 . S
C595 C596 1.355 . S
C595 C597 1.415 . S
C596 C595 1.355 . S
C596 C598 1.419 . S
C597 C592 1.425 . S
C597 C594 1.409 . S
C597 C595 1.415 . S
C598 H588 0.930 . S
C598 C596 1.419 . S
C598 C599 1.362 . S
C599 H589 0.930 . S
C599 C592 1.409 . S
C599 C598 1.362 . S
H600 C606 0.930 . S
H601 C609 0.930 . S
H602 C610 0.930 . S
H603 C611 0.930 . S
H604 C614 0.930 . S
H605 C615 0.930 . S
C606 H600 0.930 . S
C606 C607 1.355 . S
C606 C608 1.415 . S
C607 C606 1.355 . S
C607 C609 1.419 . S
C608 C606 1.415 . S
C608 C613 1.425 . S
C608 C615 1.409 . S
C609 H601 0.930 . S
C609 C607 1.419 . S
C609 C610 1.362 . S
C610 H602 0.930 . S
C610 C609 1.362 . S
C610 C613 1.409 . S
C611 H603 0.930 . S
C611 C612 1.355 . S
C611 C613 1.415 . S
C612 C611 1.355 . S
C612 C614 1.419 . S
C613 C608 1.425 . S
C613 C610 1.409 . S
C613 C611 1.415 . S
C614 H604 0.930 . S
C614 C612 1.419 . S
C614 C615 1.362 . S
C615 H605 0.930 . S
C615 C608 1.409 . S
C615 C614 1.362 . S
H616 C622 0.930 . S
H617 C625 0.930 . S
H618 C626 0.930 . S
H619 C627 0.930 . S
H620 C630 0.930 . S
H621 C631 0.930 . S
C622 H616 0.930 . S
C622 C623 1.355 . S
C622 C624 1.415 . S
C623 C622 1.355 . S
C623 C625 1.419 . S
C624 C622 1.415 . S
C624 C629 1.425 . S
C624 C631 1.409 . S
C625 H617 0.930 . S
C625 C623 1.419 . S
C625 C626 1.362 . S
C626 H618 0.930 . S
C626 C625 1.362 . S
C626 C629 1.409 . S
C627 H619 0.930 . S
C627 C628 1.355 . S
C627 C629 1.415 . S
C628 C627 1.355 . S
C628 C630 1.419 . S
C629 C624 1.425 . S
C629 C626 1.409 . S
C629 C627 1.415 . S
C630 H620 0.930 . S
C630 C628 1.419 . S
C630 C631 1.362 . S
C631 H621 0.930 . S
C631 C624 1.409 . S
C631 C630 1.362 . S
H632 C638 0.930 . S
H633 C641 0.930 . S
H634 C642 0.930 . S
H635 C643 0.930 . S
H636 C646 0.930 . S
H637 C647 0.930 . S
C638 H632 0.930 . S
C638 C639 1.355 . S
C638 C640 1.415 . S
C639 C638 1.355 . S
C639 C641 1.419 . S
C640 C638 1.415 . S
C640 C645 1.425 . S
C640 C647 1.409 . S
C641 H633 0.930 . S
C641 C639 1.419 . S
C641 C642 1.362 . S
C642 H634 0.930 . S
C642 C641 1.362 . S
C642 C645 1.409 . S
C643 H635 0.930 . S
C643 C644 1.355 . S
C643 C645 1.415 . S
C644 C643 1.355 . S
C644 C646 1.419 . S
C645 C640 1.425 . S
C645 C642 1.409 . S
C645 C643 1.415 . S
C646 H636 0.930 . S
C646 C644 1.419 . S
C646 C647 1.362 . S
C647 H637 0.930 . S
C647 C640 1.409 . S
C647 C646 1.362 . S
H648 C654 0.930 . S
H649 C657 0.930 . S
H650 C658 0.930 . S
H651 C659 0.930 . S
H652 C662 0.930 . S
H653 C663 0.930 . S
C654 H648 0.930 . S
C654 C655 1.355 . S
C654 C656 1.415 . S
C655 C654 1.355 . S
C655 C657 1.419 . S
C656 C654 1.415 . S
C656 C661 1.425 . S
C656 C663 1.409 . S
C657 H649 0.930 . S
C657 C655 1.419 . S
C657 C658 1.362 . S
C658 H650 0.930 . S
C658 C657 1.362 . S
C658 C661 1.409 . S
C659 H651 0.930 . S
C659 C660 1.355 . S
C659 C661 1.415 . S
C660 C659 1.355 . S
C660 C662 1.419 . S
C661 C656 1.425 . S
C661 C658 1.409 . S
C661 C659 1.415 . S
C662 H652 0.930 . S
C662 C660 1.419 . S
C662 C663 1.362 . S
C663 H653 0.930 . S
C663 C656 1.409 . S
C663 C662 1.362 . S
H664 C670 0.930 . S
H665 C673 0.930 . S
H666 C674 0.930 . S
H667 C675 0.930 . S
H668 C678 0.930 . S
H669 C679 0.930 . S
C670 H664 0.930 . S
C670 C671 1.355 . S
C670 C672 1.415 . S
C671 C670 1.355 . S
C671 C673 1.419 . S
C672 C670 1.415 . S
C672 C677 1.425 . S
C672 C679 1.409 . S
C673 H665 0.930 . S
C673 C671 1.419 . S
C673 C674 1.362 . S
C674 H666 0.930 . S
C674 C673 1.362 . S
C674 C677 1.409 . S
C675 H667 0.930 . S
C675 C676 1.355 . S
C675 C677 1.415 . S
C676 C675 1.355 . S
C676 C678 1.419 . S
C677 C672 1.425 . S
C677 C674 1.409 . S
C677 C675 1.415 . S
C678 H668 0.930 . S
C678 C676 1.419 . S
C678 C679 1.362 . S
C679 H669 0.930 . S
C679 C672 1.409 . S
C679 C678 1.362 . S
H680 C686 0.930 . S
H681 C689 0.930 . S
H682 C690 0.930 . S
H683 C691 0.930 . S
H684 C694 0.930 . S
H685 C695 0.930 . S
C686 H680 0.930 . S
C686 C687 1.355 . S
C686 C688 1.415 . S
C687 C686 1.355 . S
C687 C689 1.419 . S
C688 C686 1.415 . S
C688 C693 1.425 . S
C688 C695 1.409 . S
C689 H681 0.930 . S
C689 C687 1.419 . S
C689 C690 1.362 . S
C690 H682 0.930 . S
C690 C689 1.362 . S
C690 C693 1.409 . S
C691 H683 0.930 . S
C691 C692 1.355 . S
C691 C693 1.415 . S
C692 C691 1.355 . S
C692 C694 1.419 . S
C693 C688 1.425 . S
C693 C690 1.409 . S
C693 C691 1.415 . S
C694 H684 0.930 . S
C694 C692 1.419 . S
C694 C695 1.362 . S
C695 H685 0.930 . S
C695 C688 1.409 . S
C695 C694 1.362 . S
H696 C702 0.930 . S
H697 C705 0.930 . S
H698 C706 0.930 . S
H699 C707 0.930 . S
H700 C710 0.930 . S
H701 C711 0.930 . S
C702 H696 0.930 . S
C702 C703 1.355 . S
C702 C704 1.415 . S
C703 C702 1.355 . S
C703 C705 1.419 . S
C704 C702 1.415 . S
C704 C709 1.425 . S
C704 C711 1.409 . S
C705 H697 0.930 . S
C705 C703 1.419 . S
C705 C706 1.362 . S
C706 H698 0.930 . S
C706 C705 1.362 . S
C706 C709 1.409 . S
C707 H699 0.930 . S
C707 C708 1.355 . S
C707 C709 1.415 . S
C708 C707 1.355 . S
C708 C710 1.419 . S
C709 C704 1.425 . S
C709 C706 1.409 . S
C709 C707 1.415 . S
C710 H700 0.930 . S
C710 C708 1.419 . S
C710 C711 1.362 . S
C711 H701 0.930 . S
C711 C704 1.409 . S
C711 C710 1.362 . S
H712 C718 0.930 . S
H713 C721 0.930 . S
H714 C722 0.930 . S
H715 C723 0.930 . S
H716 C726 0.930 . S
H717 C727 0.930 . S
C718 H712 0.930 . S
C718 C719 1.355 . S
C718 C720 1.415 . S
C719 C718 1.355 . S
C719 C721 1.419 . S
C720 C718 1.415 . S
C720 C725 1.425 . S
C720 C727 1.409 . S
C721 H713 0.930 . S
C721 C719 1.419 . S
C721 C722 1.362 . S
C722 H714 0.930 . S
C722 C721 1.362 . S
C722 C725 1.409 . S
C723 H715 0.930 . S
C723 C724 1.355 . S
C723 C725 1.415 . S
C724 C723 1.355 . S
C724 C726 1.419 . S
C725 C720 1.425 . S
C725 C722 1.409 . S
C725 C723 1.415 . S
C726 H716 0.930 . S
C726 C724 1.419 . S
C726 C727 1.362 . S
C727 H717 0.930 . S
C727 C720 1.409 . S
C727 C726 1.362 . S
H728 C734 0.930 . S
H729 C737 0.930 . S
H730 C738 0.930 . S
H731 C739 0.930 . S
H732 C742 0.930 . S
H733 C743 0.930 1_545 S
C734 H728 0.930 . S
C734 C735 1.355 . S
C734 C736 1.415 . S
C735 C734 1.355 . S
C735 C737 1.419 . S
C736 C734 1.415 . S
C736 C741 1.425 . S
C736 C743 1.409 . S
C737 H729 0.930 . S
C737 C735 1.419 . S
C737 C738 1.362 . S
C738 H730 0.930 . S
C738 C737 1.362 . S
C738 C741 1.409 . S
C739 H731 0.930 . S
C739 C740 1.355 . S
C739 C741 1.415 . S
C740 C739 1.355 . S
C740 C742 1.419 . S
C741 C736 1.425 . S
C741 C738 1.409 . S
C741 C739 1.415 . S
C742 H732 0.930 . S
C742 C740 1.419 . S
C742 C743 1.362 . S
C743 H733 0.930 1_565 S
C743 C736 1.409 . S
C743 C742 1.362 . S
H744 C750 0.930 . S
H745 C753 0.930 . S
H746 C754 0.930 . S
H747 C755 0.930 . S
H748 C758 0.930 . S
H749 C759 0.930 . S
C750 H744 0.930 . S
C750 C751 1.355 . S
C750 C752 1.415 . S
C751 C750 1.355 . S
C751 C753 1.419 . S
C752 C750 1.415 . S
C752 C757 1.425 . S
C752 C759 1.409 . S
C753 H745 0.930 . S
C753 C751 1.419 . S
C753 C754 1.362 . S
C754 H746 0.930 . S
C754 C753 1.362 . S
C754 C757 1.409 . S
C755 H747 0.930 . S
C755 C756 1.355 . S
C755 C757 1.415 . S
C756 C755 1.355 . S
C756 C758 1.419 . S
C757 C752 1.425 . S
C757 C754 1.409 . S
C757 C755 1.415 . S
C758 H748 0.930 . S
C758 C756 1.419 . S
C758 C759 1.362 . S
C759 H749 0.930 . S
C759 C752 1.409 . S
C759 C758 1.362 . S
H760 C766 0.930 . S
H761 C769 0.930 . S
H762 C770 0.930 . S
H763 C771 0.930 . S
H764 C774 0.930 . S
H765 C775 0.930 . S
C766 H760 0.930 . S
C766 C767 1.355 . S
C766 C768 1.415 . S
C767 C766 1.355 . S
C767 C769 1.419 . S
C768 C766 1.415 . S
C768 C773 1.425 . S
C768 C775 1.409 . S
C769 H761 0.930 . S
C769 C767 1.419 . S
C769 C770 1.362 . S
C770 H762 0.930 . S
C770 C769 1.362 . S
C770 C773 1.409 . S
C771 H763 0.930 . S
C771 C772 1.355 . S
C771 C773 1.415 . S
C772 C771 1.355 . S
C772 C774 1.419 . S
C773 C768 1.425 . S
C773 C770 1.409 . S
C773 C771 1.415 . S
C774 H764 0.930 . S
C774 C772 1.419 . S
C774 C775 1.362 . S
C775 H765 0.930 . S
C775 C768 1.409 . S
C775 C774 1.362 . S
H776 C782 0.930 . S
H777 C785 0.930 . S
H778 C786 0.930 . S
H779 C787 0.930 . S
H780 C790 0.930 . S
H781 C791 0.930 . S
C782 H776 0.930 . S
C782 C783 1.355 . S
C782 C784 1.415 . S
C783 C782 1.355 . S
C783 C785 1.419 . S
C784 C782 1.415 . S
C784 C789 1.425 . S
C784 C791 1.409 . S
C785 H777 0.930 . S
C785 C783 1.419 . S
C785 C786 1.362 . S
C786 H778 0.930 . S
C786 C785 1.362 . S
C786 C789 1.409 . S
C787 H779 0.930 . S
C787 C788 1.355 . S
C787 C789 1.415 . S
C788 C787 1.355 . S
C788 C790 1.419 . S
C789 C784 1.425 . S
C789 C786 1.409 . S
C789 C787 1.415 . S
C790 H780 0.930 . S
C790 C788 1.419 . S
C790 C791 1.362 . S
C791 H781 0.930 . S
C791 C784 1.409 . S
C791 C790 1.362 . S
H792 C798 0.930 . S
H793 C801 0.930 . S
H794 C802 0.930 . S
H795 C803 0.930 . S
H796 C806 0.930 . S
H797 C807 0.930 . S
C798 H792 0.930 . S
C798 C799 1.355 . S
C798 C800 1.415 . S
C799 C798 1.355 . S
C799 C801 1.419 . S
C800 C798 1.415 . S
C800 C805 1.425 . S
C800 C807 1.409 . S
C801 H793 0.930 . S
C801 C799 1.419 . S
C801 C802 1.362 . S
C802 H794 0.930 . S
C802 C801 1.362 . S
C802 C805 1.409 . S
C803 H795 0.930 . S
C803 C804 1.355 . S
C803 C805 1.415 . S
C804 C803 1.355 . S
C804 C806 1.419 . S
C805 C800 1.425 . S
C805 C802 1.409 . S
C805 C803 1.415 . S
C806 H796 0.930 . S
C806 C804 1.419 . S
C806 C807 1.362 . S
C807 H797 0.930 . S
C807 C800 1.409 . S
C807 C806 1.362 . S
H808 C814 0.930 . S
H809 C817 0.930 . S
H810 C818 0.930 . S
H811 C819 0.930 . S
H812 C822 0.930 . S
H813 C823 0.930 . S
C814 H808 0.930 . S
C814 C815 1.355 . S
C814 C816 1.415 . S
C815 C814 1.355 . S
C815 C817 1.419 . S
C816 C814 1.415 . S
C816 C821 1.425 . S
C816 C823 1.409 . S
C817 H809 0.930 . S
C817 C815 1.419 . S
C817 C818 1.362 . S
C818 H810 0.930 . S
C818 C817 1.362 . S
C818 C821 1.409 . S
C819 H811 0.930 . S
C819 C820 1.355 . S
C819 C821 1.415 . S
C820 C819 1.355 . S
C820 C822 1.419 . S
C821 C816 1.425 . S
C821 C818 1.409 . S
C821 C819 1.415 . S
C822 H812 0.930 . S
C822 C820 1.419 . S
C822 C823 1.362 . S
C823 H813 0.930 . S
C823 C816 1.409 . S
C823 C822 1.362 . S
H824 C830 0.930 . S
H825 C833 0.930 . S
H826 C834 0.930 . S
H827 C835 0.930 . S
H828 C838 0.930 . S
H829 C839 0.930 . S
C830 H824 0.930 . S
C830 C831 1.355 . S
C830 C832 1.415 . S
C831 C830 1.355 . S
C831 C833 1.419 . S
C832 C830 1.415 . S
C832 C837 1.425 . S
C832 C839 1.409 . S
C833 H825 0.930 . S
C833 C831 1.419 . S
C833 C834 1.362 . S
C834 H826 0.930 . S
C834 C833 1.362 . S
C834 C837 1.409 . S
C835 H827 0.930 . S
C835 C836 1.355 . S
C835 C837 1.415 . S
C836 C835 1.355 . S
C836 C838 1.419 . S
C837 C832 1.425 . S
C837 C834 1.409 . S
C837 C835 1.415 . S
C838 H828 0.930 . S
C838 C836 1.419 . S
C838 C839 1.362 . S
C839 H829 0.930 . S
C839 C832 1.409 . S
C839 C838 1.362 . S
H840 C846 0.930 . S
H841 C849 0.930 . S
H842 C850 0.930 . S
H843 C851 0.930 . S
H844 C854 0.930 . S
H845 C855 0.930 . S
C846 H840 0.930 . S
C846 C847 1.355 . S
C846 C848 1.415 . S
C847 C846 1.355 . S
C847 C849 1.419 . S
C848 C846 1.415 . S
C848 C853 1.425 . S
C848 C855 1.409 . S
C849 H841 0.930 . S
C849 C847 1.419 . S
C849 C850 1.362 . S
C850 H842 0.930 . S
C850 C849 1.362 . S
C850 C853 1.409 . S
C851 H843 0.930 . S
C851 C852 1.355 . S
C851 C853 1.415 . S
C852 C851 1.355 . S
C852 C854 1.419 . S
C853 C848 1.425 . S
C853 C850 1.409 . S
C853 C851 1.415 . S
C854 H844 0.930 . S
C854 C852 1.419 . S
C854 C855 1.362 . S
C855 H845 0.930 . S
C855 C848 1.409 . S
C855 C854 1.362 . S
H856 C862 0.930 . S
H857 C865 0.930 . S
H858 C866 0.930 . S
H859 C867 0.930 . S
H860 C870 0.930 . S
H861 C871 0.930 . S
C862 H856 0.930 . S
C862 C863 1.355 . S
C862 C864 1.415 . S
C863 C862 1.355 . S
C863 C865 1.419 . S
C864 C862 1.415 . S
C864 C869 1.425 . S
C864 C871 1.409 . S
C865 H857 0.930 . S
C865 C863 1.419 . S
C865 C866 1.362 . S
C866 H858 0.930 . S
C866 C865 1.362 . S
C866 C869 1.409 . S
C867 H859 0.930 . S
C867 C868 1.355 . S
C867 C869 1.415 . S
C868 C867 1.355 . S
C868 C870 1.419 . S
C869 C864 1.425 . S
C869 C866 1.409 . S
C869 C867 1.415 . S
C870 H860 0.930 . S
C870 C868 1.419 . S
C870 C871 1.362 . S
C871 H861 0.930 . S
C871 C864 1.409 . S
C871 C870 1.362 . S
H872 C878 0.930 . S
H873 C881 0.930 . S
H874 C882 0.930 . S
H875 C883 0.930 . S
H876 C886 0.930 . S
H877 C887 0.930 . S
C878 H872 0.930 . S
C878 C879 1.355 . S
C878 C880 1.415 . S
C879 C878 1.355 . S
C879 C881 1.419 . S
C880 C878 1.415 . S
C880 C885 1.425 . S
C880 C887 1.409 . S
C881 H873 0.930 . S
C881 C879 1.419 . S
C881 C882 1.362 . S
C882 H874 0.930 . S
C882 C881 1.362 . S
C882 C885 1.409 . S
C883 H875 0.930 . S
C883 C884 1.355 . S
C883 C885 1.415 . S
C884 C883 1.355 . S
C884 C886 1.419 . S
C885 C880 1.425 . S
C885 C882 1.409 . S
C885 C883 1.415 . S
C886 H876 0.930 . S
C886 C884 1.419 . S
C886 C887 1.362 . S
C887 H877 0.930 . S
C887 C880 1.409 . S
C887 C886 1.362 . S
H888 C894 0.930 . S
H889 C897 0.930 . S
H890 C898 0.930 1_556 S
H891 C899 0.930 . S
H892 C902 0.930 . S
H893 C903 0.930 . S
C894 H888 0.930 . S
C894 C895 1.355 . S
C894 C896 1.415 . S
C895 C894 1.355 . S
C895 C897 1.419 1_554 S
C896 C894 1.415 . S
C896 C901 1.425 . S
C896 C903 1.409 . S
C897 H889 0.930 . S
C897 C895 1.419 1_556 S
C897 C898 1.362 1_556 S
C898 H890 0.930 1_554 S
C898 C897 1.362 1_554 S
C898 C901 1.409 . S
C899 H891 0.930 . S
C899 C900 1.355 . S
C899 C901 1.415 . S
C900 C899 1.355 . S
C900 C902 1.419 . S
C901 C896 1.425 . S
C901 C898 1.409 . S
C901 C899 1.415 . S
C902 H892 0.930 . S
C902 C900 1.419 . S
C902 C903 1.362 . S
C903 H893 0.930 . S
C903 C896 1.409 . S
C903 C902 1.362 . S
H904 C910 0.930 . S
H905 C913 0.930 . S
H906 C914 0.930 . S
H907 C915 0.930 . S
H908 C918 0.930 . S
H909 C919 0.930 . S
C910 H904 0.930 . S
C910 C911 1.355 . S
C910 C912 1.415 . S
C911 C910 1.355 . S
C911 C913 1.419 . S
C912 C910 1.415 . S
C912 C917 1.425 . S
C912 C919 1.409 . S
C913 H905 0.930 . S
C913 C911 1.419 . S
C913 C914 1.362 . S
C914 H906 0.930 . S
C914 C913 1.362 . S
C914 C917 1.409 . S
C915 H907 0.930 . S
C915 C916 1.355 . S
C915 C917 1.415 . S
C916 C915 1.355 . S
C916 C918 1.419 . S
C917 C912 1.425 . S
C917 C914 1.409 . S
C917 C915 1.415 . S
C918 H908 0.930 . S
C918 C916 1.419 . S
C918 C919 1.362 . S
C919 H909 0.930 . S
C919 C912 1.409 . S
C919 C918 1.362 . S
H920 C926 0.930 . S
H921 C929 0.930 . S
H922 C930 0.930 . S
H923 C931 0.930 . S
H924 C934 0.930 . S
H925 C935 0.930 . S
C926 H920 0.930 . S
C926 C927 1.355 . S
C926 C928 1.415 . S
C927 C926 1.355 . S
C927 C929 1.419 . S
C928 C926 1.415 . S
C928 C933 1.425 . S
C928 C935 1.409 . S
C929 H921 0.930 . S
C929 C927 1.419 . S
C929 C930 1.362 . S
C930 H922 0.930 . S
C930 C929 1.362 . S
C930 C933 1.409 . S
C931 H923 0.930 . S
C931 C932 1.355 . S
C931 C933 1.415 . S
C932 C931 1.355 . S
C932 C934 1.419 . S
C933 C928 1.425 . S
C933 C930 1.409 . S
C933 C931 1.415 . S
C934 H924 0.930 . S
C934 C932 1.419 . S
C934 C935 1.362 . S
C935 H925 0.930 . S
C935 C928 1.409 . S
C935 C934 1.362 . S
H936 C942 0.930 . S
H937 C945 0.930 . S
H938 C946 0.930 . S
H939 C947 0.930 . S
H940 C950 0.930 . S
H941 C951 0.930 . S
C942 H936 0.930 . S
C942 C943 1.355 . S
C942 C944 1.415 . S
C943 C942 1.355 . S
C943 C945 1.419 . S
C944 C942 1.415 . S
C944 C949 1.425 . S
C944 C951 1.409 . S
C945 H937 0.930 . S
C945 C943 1.419 . S
C945 C946 1.362 . S
C946 H938 0.930 . S
C946 C945 1.362 . S
C946 C949 1.409 . S
C947 H939 0.930 . S
C947 C948 1.355 . S
C947 C949 1.415 . S
C948 C947 1.355 . S
C948 C950 1.419 . S
C949 C944 1.425 . S
C949 C946 1.409 . S
C949 C947 1.415 . S
C950 H940 0.930 . S
C950 C948 1.419 . S
C950 C951 1.362 . S
C951 H941 0.930 . S
C951 C944 1.409 . S
C951 C950 1.362 . S
H952 C958 0.930 . S
H953 C961 0.930 . S
H954 C962 0.930 . S
H955 C963 0.930 . S
H956 C966 0.930 . S
H957 C967 0.930 . S
C958 H952 0.930 . S
C958 C959 1.355 . S
C958 C960 1.415 . S
C959 C958 1.355 . S
C959 C961 1.419 . S
C960 C958 1.415 . S
C960 C965 1.425 . S
C960 C967 1.409 . S
C961 H953 0.930 . S
C961 C959 1.419 . S
C961 C962 1.362 . S
C962 H954 0.930 . S
C962 C961 1.362 . S
C962 C965 1.409 . S
C963 H955 0.930 . S
C963 C964 1.355 . S
C963 C965 1.415 . S
C964 C963 1.355 . S
C964 C966 1.419 . S
C965 C960 1.425 . S
C965 C962 1.409 . S
C965 C963 1.415 . S
C966 H956 0.930 . S
C966 C964 1.419 . S
C966 C967 1.362 . S
C967 H957 0.930 . S
C967 C960 1.409 . S
C967 C966 1.362 . S
H968 C974 0.930 . S
H969 C977 0.930 . S
H970 C978 0.930 . S
H971 C979 0.930 . S
H972 C982 0.930 . S
H973 C983 0.930 . S
C974 H968 0.930 . S
C974 C975 1.355 . S
C974 C976 1.415 . S
C975 C974 1.355 . S
C975 C977 1.419 . S
C976 C974 1.415 . S
C976 C981 1.425 . S
C976 C983 1.409 . S
C977 H969 0.930 . S
C977 C975 1.419 . S
C977 C978 1.362 . S
C978 H970 0.930 . S
C978 C977 1.362 . S
C978 C981 1.409 . S
C979 H971 0.930 . S
C979 C980 1.355 . S
C979 C981 1.415 . S
C980 C979 1.355 . S
C980 C982 1.419 . S
C981 C976 1.425 . S
C981 C978 1.409 . S
C981 C979 1.415 . S
C982 H972 0.930 . S
C982 C980 1.419 . S
C982 C983 1.362 . S
C983 H973 0.930 . S
C983 C976 1.409 . S
C983 C982 1.362 . S
H984 C990 0.930 . S
H985 C993 0.930 . S
H986 C994 0.930 . S
H987 C995 0.930 . S
H988 C998 0.930 . S
H989 C999 0.930 . S
C990 H984 0.930 . S
C990 C991 1.355 . S
C990 C992 1.415 . S
C991 C990 1.355 . S
C991 C993 1.419 . S
C992 C990 1.415 . S
C992 C997 1.425 . S
C992 C999 1.409 . S
C993 H985 0.930 . S
C993 C991 1.419 . S
C993 C994 1.362 . S
C994 H986 0.930 . S
C994 C993 1.362 . S
C994 C997 1.409 . S
C995 H987 0.930 . S
C995 C996 1.355 . S
C995 C997 1.415 . S
C996 C995 1.355 . S
C996 C998 1.419 . S
C997 C992 1.425 . S
C997 C994 1.409 . S
C997 C995 1.415 . S
C998 H988 0.930 . S
C998 C996 1.419 . S
C998 C999 1.362 . S
C999 H989 0.930 . S
C999 C992 1.409 . S
C999 C998 1.362 . S
H1000 C1006 0.930 1_554 S
H1001 C1009 0.930 . S
H1002 C1010 0.930 . S
H1003 C1011 0.930 . S
H1004 C1014 0.930 . S
H1005 C1015 0.930 . S
C1006 H1000 0.930 1_556 S
C1006 C1007 1.355 . S
C1006 C1008 1.415 . S
C1007 C1006 1.355 . S
C1007 C1009 1.419 . S
C1008 C1006 1.415 . S
C1008 C1013 1.425 . S
C1008 C1015 1.409 1_556 S
C1009 H1001 0.930 . S
C1009 C1007 1.419 . S
C1009 C1010 1.362 . S
C1010 H1002 0.930 . S
C1010 C1009 1.362 . S
C1010 C1013 1.409 . S
C1011 H1003 0.930 . S
C1011 C1012 1.355 . S
C1011 C1013 1.415 . S
C1012 C1011 1.355 . S
C1012 C1014 1.419 1_556 S
C1013 C1008 1.425 . S
C1013 C1010 1.409 . S
C1013 C1011 1.415 . S
C1014 H1004 0.930 . S
C1014 C1012 1.419 1_554 S
C1014 C1015 1.362 . S
C1015 H1005 0.930 . S
C1015 C1008 1.409 1_554 S
C1015 C1014 1.362 . S
H1016 C1022 0.930 . S
H1017 C1025 0.930 . S
H1018 C1026 0.930 . S
H1019 C1027 0.930 . S
H1020 C1030 0.930 . S
H1021 C1031 0.930 . S
C1022 H1016 0.930 . S
C1022 C1023 1.355 . S
C1022 C1024 1.415 . S
C1023 C1022 1.355 . S
C1023 C1025 1.419 . S
C1024 C1022 1.415 . S
C1024 C1029 1.425 . S
C1024 C1031 1.409 . S
C1025 H1017 0.930 . S
C1025 C1023 1.419 . S
C1025 C1026 1.362 . S
C1026 H1018 0.930 . S
C1026 C1025 1.362 . S
C1026 C1029 1.409 . S
C1027 H1019 0.930 . S
C1027 C1028 1.355 . S
C1027 C1029 1.415 . S
C1028 C1027 1.355 . S
C1028 C1030 1.419 . S
C1029 C1024 1.425 . S
C1029 C1026 1.409 . S
C1029 C1027 1.415 . S
C1030 H1020 0.930 . S
C1030 C1028 1.419 . S
C1030 C1031 1.362 . S
C1031 H1021 0.930 . S
C1031 C1024 1.409 . S
C1031 C1030 1.362 . S
H1032 C1038 0.930 . S
H1033 C1041 0.930 . S
H1034 C1042 0.930 . S
H1035 C1043 0.930 . S
H1036 C1046 0.930 . S
H1037 C1047 0.930 . S
C1038 H1032 0.930 . S
C1038 C1039 1.355 . S
C1038 C1040 1.415 . S
C1039 C1038 1.355 . S
C1039 C1041 1.419 . S
C1040 C1038 1.415 . S
C1040 C1045 1.425 . S
C1040 C1047 1.409 . S
C1041 H1033 0.930 . S
C1041 C1039 1.419 . S
C1041 C1042 1.362 . S
C1042 H1034 0.930 . S
C1042 C1041 1.362 . S
C1042 C1045 1.409 . S
C1043 H1035 0.930 . S
C1043 C1044 1.355 . S
C1043 C1045 1.415 . S
C1044 C1043 1.355 . S
C1044 C1046 1.419 . S
C1045 C1040 1.425 . S
C1045 C1042 1.409 . S
C1045 C1043 1.415 . S
C1046 H1036 0.930 . S
C1046 C1044 1.419 . S
C1046 C1047 1.362 . S
C1047 H1037 0.930 . S
C1047 C1040 1.409 . S
C1047 C1046 1.362 . S
H1048 C1054 0.930 . S
H1049 C1057 0.930 . S
H1050 C1058 0.930 . S
H1051 C1059 0.930 . S
H1052 C1062 0.930 . S
H1053 C1063 0.930 . S
C1054 H1048 0.930 . S
C1054 C1055 1.355 . S
C1054 C1056 1.415 . S
C1055 C1054 1.355 . S
C1055 C1057 1.419 . S
C1056 C1054 1.415 . S
C1056 C1061 1.425 . S
C1056 C1063 1.409 . S
C1057 H1049 0.930 . S
C1057 C1055 1.419 . S
C1057 C1058 1.362 . S
C1058 H1050 0.930 . S
C1058 C1057 1.362 . S
C1058 C1061 1.409 . S
C1059 H1051 0.930 . S
C1059 C1060 1.355 . S
C1059 C1061 1.415 . S
C1060 C1059 1.355 . S
C1060 C1062 1.419 . S
C1061 C1056 1.425 . S
C1061 C1058 1.409 . S
C1061 C1059 1.415 . S
C1062 H1052 0.930 . S
C1062 C1060 1.419 . S
C1062 C1063 1.362 . S
C1063 H1053 0.930 . S
C1063 C1056 1.409 . S
C1063 C1062 1.362 . S
H1064 C1070 0.930 . S
H1065 C1073 0.930 . S
H1066 C1074 0.930 . S
H1067 C1075 0.930 . S
H1068 C1078 0.930 . S
H1069 C1079 0.930 . S
C1070 H1064 0.930 . S
C1070 C1071 1.355 . S
C1070 C1072 1.415 . S
C1071 C1070 1.355 . S
C1071 C1073 1.419 . S
C1072 C1070 1.415 . S
C1072 C1077 1.425 . S
C1072 C1079 1.409 . S
C1073 H1065 0.930 . S
C1073 C1071 1.419 . S
C1073 C1074 1.362 . S
C1074 H1066 0.930 . S
C1074 C1073 1.362 . S
C1074 C1077 1.409 . S
C1075 H1067 0.930 . S
C1075 C1076 1.355 . S
C1075 C1077 1.415 . S
C1076 C1075 1.355 . S
C1076 C1078 1.419 . S
C1077 C1072 1.425 . S
C1077 C1074 1.409 . S
C1077 C1075 1.415 . S
C1078 H1068 0.930 . S
C1078 C1076 1.419 . S
C1078 C1079 1.362 . S
C1079 H1069 0.930 . S
C1079 C1072 1.409 . S
C1079 C1078 1.362 . S
C415 C28 1.834 . S
C420 C300 1.824 . S
C431 C40 1.826 . S
C436 C312 1.833 . S
C447 C368 1.834 . S
C452 C96 1.825 . S
C463 C108 1.825 . S
C468 C380 1.831 . S
C479 C164 1.832 . S
C484 C232 1.828 . S
C495 C176 1.833 . S
C500 C244 1.826 . S
C511 C171 1.363 . S
C516 C6 1.396 . S
C527 C62 1.410 . S
C532 C3 1.405 . S
C543 C74 1.415 . S
C548 C35 1.402 . S
C559 C71 1.404 . S
C564 C130 1.414 . S
C575 C103 1.359 . S
C580 C142 1.396 . S
C591 C139 1.341 . S
C596 C198 1.400 . S
C607 C210 1.411 . S
C612 C239 1.406 . S
C623 C275 1.350 . S
C628 C266 1.396 . S
C639 C307 1.381 . S
C644 C278 1.399 . S
C655 C343 1.359 . S
C660 C334 1.396 . S
C671 C375 1.379 . S
C676 C346 1.414 . S
C687 C402 1.402 . S
C692 C207 1.390 . S
C703 C17 1.613 . S
C708 C221 1.616 . S
C719 C51 1.627 . S
C724 C255 1.607 . S
C735 C289 1.631 . S
C740 C85 1.609 . S
C751 C323 1.625 . S
C756 C119 1.608 . S
C767 C153 1.619 . S
C772 C357 1.611 . S
C783 C187 1.620 . S
C788 C391 1.610 . S
C799 C273 2.853 1_545 S
C804 C1 2.835 . S
C815 C309 2.827 . S
C820 C37 2.845 1_455 S
C831 C341 2.838 1_655 S
C836 C69 2.855 1_545 S
C847 C105 2.829 . S
C852 C377 2.847 1_565 S
C863 C205 2.857 . S
C868 C137 2.850 1_655 S
C879 C241 2.836 1_455 S
C884 C173 2.853 1_565 S
C895 C260 0.628 . S
C900 C22 0.598 . S
C911 C287 0.653 . S
C916 C49 0.723 . S
C927 C328 0.769 . S
C932 C90 0.859 . S
C943 C355 0.721 . S
C948 C117 0.721 . S
C959 C396 0.763 . S
C964 C158 0.809 . S
C975 C219 0.626 . S
C980 C185 0.597 . S
C991 C226 0.602 . S
C996 C192 0.614 . S
C1007 C253 0.719 . S
C1012 C15 0.719 . S
C1023 C56 0.666 . S
C1028 C294 0.636 . S
C1039 C83 0.613 . S
C1044 C321 0.604 . S
C1055 C362 0.632 . S
C1060 C124 0.663 . S
C1071 C151 0.619 . S
C1076 C389 0.597 . S
