# Generated by pormake.
# Topology unp, (4)-cn, num edge types: 1
# Building blocks:
#     Node 0, Type 0, BuildingBlock: AZAVOO_clean_sbu_0, # of connection points: 4
#     Node 1, Type 0, BuildingBlock: AZAVOO_clean_sbu_0, # of connection points: 4
#     Node 2, Type 0, BuildingBlock: AZAVOO_clean_sbu_0, # of connection points: 4
#     Node 3, Type 0, BuildingBlock: AZAVOO_clean_sbu_0, # of connection points: 4
#     Node 4, Type 0, BuildingBlock: AZAVOO_clean_sbu_0, # of connection points: 4
#     Node 5, Type 0, BuildingBlock: AZAVOO_clean_sbu_0, # of connection points: 4
#     Node 6, Type 0, BuildingBlock: AZAVOO_clean_sbu_0, # of connection points: 4
#     Node 7, Type 0, BuildingBlock: AZAVOO_clean_sbu_0, # of connection points: 4
#     Node 8, Type 0, BuildingBlock: AZAVOO_clean_sbu_0, # of connection points: 4
#     Node 9, Type 0, BuildingBlock: AZAVOO_clean_sbu_0, # of connection points: 4
#     Node 10, Type 0, BuildingBlock: AZAVOO_clean_sbu_0, # of connection points: 4
#     Node 11, Type 0, BuildingBlock: AZAVOO_clean_sbu_0, # of connection points: 4
#     Node 12, Type 0, BuildingBlock: AZAVOO_clean_sbu_0, # of connection points: 4
#     Node 13, Type 0, BuildingBlock: AZAVOO_clean_sbu_0, # of connection points: 4
#     Node 14, Type 0, BuildingBlock: AZAVOO_clean_sbu_0, # of connection points: 4
#     Node 15, Type 0, BuildingBlock: AZAVOO_clean_sbu_0, # of connection points: 4
#     Node 16, Type 0, BuildingBlock: AZAVOO_clean_sbu_0, # of connection points: 4
#     Node 17, Type 0, BuildingBlock: AZAVOO_clean_sbu_0, # of connection points: 4
#     Edge 18, Type (0, 0), BuildingBlock: MIFKUJ_clean_linker_0, # of connection points: 2
#     Edge 19, Type (0, 0), BuildingBlock: MIFKUJ_clean_linker_0, # of connection points: 2
#     Edge 20, Type (0, 0), BuildingBlock: MIFKUJ_clean_linker_0, # of connection points: 2
#     Edge 21, Type (0, 0), BuildingBlock: MIFKUJ_clean_linker_0, # of connection points: 2
#     Edge 22, Type (0, 0), BuildingBlock: MIFKUJ_clean_linker_0, # of connection points: 2
#     Edge 23, Type (0, 0), BuildingBlock: MIFKUJ_clean_linker_0, # of connection points: 2
#     Edge 24, Type (0, 0), BuildingBlock: MIFKUJ_clean_linker_0, # of connection points: 2
#     Edge 25, Type (0, 0), BuildingBlock: MIFKUJ_clean_linker_0, # of connection points: 2
#     Edge 26, Type (0, 0), BuildingBlock: MIFKUJ_clean_linker_0, # of connection points: 2
#     Edge 27, Type (0, 0), BuildingBlock: MIFKUJ_clean_linker_0, # of connection points: 2
#     Edge 28, Type (0, 0), BuildingBlock: MIFKUJ_clean_linker_0, # of connection points: 2
#     Edge 29, Type (0, 0), BuildingBlock: MIFKUJ_clean_linker_0, # of connection points: 2
#     Edge 30, Type (0, 0), BuildingBlock: MIFKUJ_clean_linker_0, # of connection points: 2
#     Edge 31, Type (0, 0), BuildingBlock: MIFKUJ_clean_linker_0, # of connection points: 2
#     Edge 32, Type (0, 0), BuildingBlock: MIFKUJ_clean_linker_0, # of connection points: 2
#     Edge 33, Type (0, 0), BuildingBlock: MIFKUJ_clean_linker_0, # of connection points: 2
#     Edge 34, Type (0, 0), BuildingBlock: MIFKUJ_clean_linker_0, # of connection points: 2
#     Edge 35, Type (0, 0), BuildingBlock: MIFKUJ_clean_linker_0, # of connection points: 2
#     Edge 36, Type (0, 0), BuildingBlock: MIFKUJ_clean_linker_0, # of connection points: 2
#     Edge 37, Type (0, 0), BuildingBlock: MIFKUJ_clean_linker_0, # of connection points: 2
#     Edge 38, Type (0, 0), BuildingBlock: MIFKUJ_clean_linker_0, # of connection points: 2
#     Edge 39, Type (0, 0), BuildingBlock: MIFKUJ_clean_linker_0, # of connection points: 2
#     Edge 40, Type (0, 0), BuildingBlock: MIFKUJ_clean_linker_0, # of connection points: 2
#     Edge 41, Type (0, 0), BuildingBlock: MIFKUJ_clean_linker_0, # of connection points: 2
#     Edge 42, Type (0, 0), BuildingBlock: MIFKUJ_clean_linker_0, # of connection points: 2
#     Edge 43, Type (0, 0), BuildingBlock: MIFKUJ_clean_linker_0, # of connection points: 2
#     Edge 44, Type (0, 0), BuildingBlock: MIFKUJ_clean_linker_0, # of connection points: 2
#     Edge 45, Type (0, 0), BuildingBlock: MIFKUJ_clean_linker_0, # of connection points: 2
#     Edge 46, Type (0, 0), BuildingBlock: MIFKUJ_clean_linker_0, # of connection points: 2
#     Edge 47, Type (0, 0), BuildingBlock: MIFKUJ_clean_linker_0, # of connection points: 2
#     Edge 48, Type (0, 0), BuildingBlock: MIFKUJ_clean_linker_0, # of connection points: 2
#     Edge 49, Type (0, 0), BuildingBlock: MIFKUJ_clean_linker_0, # of connection points: 2
#     Edge 50, Type (0, 0), BuildingBlock: MIFKUJ_clean_linker_0, # of connection points: 2
#     Edge 51, Type (0, 0), BuildingBlock: MIFKUJ_clean_linker_0, # of connection points: 2
#     Edge 52, Type (0, 0), BuildingBlock: MIFKUJ_clean_linker_0, # of connection points: 2
#     Edge 53, Type (0, 0), BuildingBlock: MIFKUJ_clean_linker_0, # of connection points: 2
# Relax obj value: 0.372
# Max RMSD: 0.194
# Mean RMSD: 0.184
data_MOF--net-unp--node1-AZAVOO_clean_sbu_0--edge1-MIFKUJ_clean_linker_0
_symmetry_space_group_name_H-M    P1
_symmetry_Int_Tables_number       1
_symmetry_cell_setting            triclinic
loop_
_symmetry_equiv_pos_as_xyz
'x, y, z'
_cell_length_a     53.810323
_cell_length_b     53.803656
_cell_length_c     95.908262
_cell_angle_alpha  90.124221
_cell_angle_beta   89.86065
_cell_angle_gamma 120.46075
loop_
_atom_site_label
_atom_site_type_symbol
_atom_site_fract_x
_atom_site_fract_y
_atom_site_fract_z
_atom_type_partial_charge
Mg0 Mg 0.16727 0.24087 0.09623 0.0
O1 O 0.16151 0.19589 0.09627 0.0
O2 O 0.12548 0.16795 0.08181 0.0
Mg3 Mg 0.10933 0.19569 0.07171 0.0
C4 C 0.14492 0.17158 0.09056 0.0
C5 C 0.2073 0.24635 0.12053 0.0
O6 O 0.18174 0.22733 0.12535 0.0
O7 O 0.19077 0.25034 0.07508 0.0
O8 O 0.15322 0.22306 0.06123 0.0
O9 O 0.1329 0.22474 0.11268 0.0
O10 O 0.12408 0.22345 0.09014 0.0
C11 C 0.18004 0.241 0.06299 0.0
C12 C 0.11441 0.21567 0.1026 0.0
O13 O 0.20923 0.2567 0.10839 0.0
Mg14 Mg 0.75962 0.93675 0.10045 0.0
O15 O 0.80819 0.96953 0.09869 0.0
O16 O 0.82891 0.94782 0.08771 0.0
Mg17 Mg 0.7931 0.90395 0.07991 0.0
C18 C 0.83046 0.96936 0.09415 0.0
C19 C 0.72654 0.96778 0.1089 0.0
O20 O 0.70661 0.9456 0.10191 0.0
O21 O 0.75358 0.94699 0.07795 0.0
O22 O 0.77407 0.92566 0.06654 0.0
O23 O 0.7698 0.91918 0.11922 0.0
O24 O 0.76746 0.90274 0.09784 0.0
C25 C 0.76097 0.93991 0.06662 0.0
C26 C 0.77457 0.9034 0.11068 0.0
O27 O 0.75175 0.97139 0.10955 0.0
Mg28 Mg 0.05736 0.8395 0.10265 0.0
O29 O 0.02023 0.84904 0.10144 0.0
O30 O 0.03298 0.88403 0.08552 0.0
Mg31 Mg 0.07651 0.89508 0.07595 0.0
C32 C 0.01549 0.86662 0.09462 0.0
C33 C 0.04439 0.7945 0.12498 0.0
O34 O 0.07247 0.81182 0.12554 0.0
O35 O 0.0416 0.81363 0.08221 0.0
O36 O 0.05699 0.84974 0.06688 0.0
O37 O 0.07926 0.87463 0.1186 0.0
O38 O 0.08571 0.88171 0.09591 0.0
C39 C 0.04519 0.82295 0.06969 0.0
C40 C 0.08971 0.89248 0.10828 0.0
O41 O 0.03018 0.79937 0.11591 0.0
Mg42 Mg 0.2403 0.1657 0.90199 0.0
O43 O 0.19506 0.15871 0.90503 0.0
O44 O 0.17157 0.12281 0.92033 0.0
Mg45 Mg 0.20199 0.10703 0.92722 0.0
C46 C 0.17257 0.14192 0.91208 0.0
C47 C 0.26198 0.20876 0.87775 0.0
O48 O 0.26298 0.18655 0.87272 0.0
O49 O 0.25381 0.1888 0.92328 0.0
O50 O 0.23114 0.15078 0.93752 0.0
O51 O 0.22115 0.13189 0.88539 0.0
O52 O 0.2251 0.12264 0.90745 0.0
C53 C 0.24783 0.17776 0.9355 0.0
C54 C 0.21495 0.11322 0.89522 0.0
O55 O 0.25365 0.20769 0.89028 0.0
Mg56 Mg 0.83675 0.05671 0.89891 0.0
O57 O 0.84716 0.02018 0.89948 0.0
O58 O 0.88367 0.03354 0.91447 0.0
Mg59 Mg 0.89379 0.07607 0.92481 0.0
C60 C 0.86568 0.01589 0.90562 0.0
C61 C 0.78075 0.03928 0.88319 0.0
O62 O 0.78755 0.06436 0.88865 0.0
O63 O 0.81178 0.04038 0.91946 0.0
O64 O 0.84846 0.05443 0.93446 0.0
O65 O 0.87239 0.07949 0.88329 0.0
O66 O 0.87796 0.08644 0.90605 0.0
C67 C 0.82158 0.04273 0.93181 0.0
C68 C 0.88937 0.09118 0.89385 0.0
O69 O 0.79669 0.02874 0.88579 0.0
Mg70 Mg 0.93739 0.75935 0.90302 0.0
O71 O 0.97046 0.8075 0.90625 0.0
O72 O 0.94895 0.82654 0.91875 0.0
Mg73 Mg 0.90384 0.79029 0.92491 0.0
C74 C 0.97064 0.82904 0.91203 0.0
C75 C 0.96386 0.73846 0.88175 0.0
O76 O 0.93796 0.73079 0.87714 0.0
O77 O 0.94633 0.75033 0.92525 0.0
O78 O 0.92338 0.76809 0.93757 0.0
O79 O 0.92108 0.772 0.88461 0.0
O80 O 0.90374 0.76774 0.90593 0.0
C81 C 0.93784 0.75526 0.93684 0.0
C82 C 0.90503 0.77614 0.89325 0.0
O83 O 0.97179 0.7515 0.8934 0.0
Mg84 Mg 0.82595 0.56366 0.43709 0.0
O85 O 0.81617 0.51715 0.4348 0.0
O86 O 0.7813 0.49514 0.41891 0.0
Mg87 Mg 0.76986 0.52791 0.41043 0.0
C88 C 0.79887 0.49483 0.42776 0.0
C89 C 0.8634 0.56689 0.46255 0.0
O90 O 0.83736 0.55148 0.4678 0.0
O91 O 0.85145 0.57521 0.41654 0.0
O92 O 0.81522 0.55451 0.40118 0.0
O93 O 0.78987 0.54768 0.45271 0.0
O94 O 0.78444 0.55128 0.43016 0.0
C95 C 0.84204 0.56974 0.40402 0.0
C96 C 0.77284 0.54235 0.44221 0.0
O97 O 0.8662 0.57492 0.44989 0.0
Mg98 Mg 0.42211 0.25502 0.43231 0.0
O99 O 0.46955 0.2909 0.4316 0.0
O100 O 0.49256 0.27673 0.41707 0.0
Mg101 Mg 0.45946 0.23368 0.40718 0.0
C102 C 0.49256 0.29488 0.42567 0.0
C103 C 0.41713 0.28924 0.4574 0.0
O104 O 0.43028 0.27715 0.46339 0.0
O105 O 0.41482 0.27079 0.41134 0.0
O106 O 0.43672 0.25519 0.39684 0.0
O107 O 0.43453 0.23316 0.44849 0.0
O108 O 0.43311 0.22469 0.42589 0.0
C109 C 0.42213 0.26755 0.39908 0.0
C110 C 0.44026 0.22127 0.4382 0.0
O111 O 0.41118 0.28485 0.44448 0.0
Mg112 Mg 0.72697 0.16133 0.42835 0.0
O113 O 0.69057 0.17159 0.42689 0.0
O114 O 0.70447 0.20805 0.41187 0.0
Mg115 Mg 0.74886 0.22017 0.40321 0.0
C116 C 0.68611 0.18967 0.4204 0.0
C117 C 0.68828 0.12195 0.45238 0.0
O118 O 0.69567 0.14762 0.45725 0.0
O119 O 0.71283 0.13805 0.40722 0.0
O120 O 0.7297 0.17587 0.39276 0.0
O121 O 0.74784 0.19525 0.44495 0.0
O122 O 0.75698 0.20372 0.4225 0.0
C123 C 0.71742 0.14878 0.39496 0.0
C124 C 0.76003 0.21373 0.43497 0.0
O125 O 0.69713 0.11994 0.44035 0.0
Mg126 Mg 0.88862 0.50478 0.23837 0.0
O127 O 0.84277 0.49683 0.24076 0.0
O128 O 0.81909 0.46035 0.25567 0.0
Mg129 Mg 0.84956 0.44456 0.26264 0.0
C130 C 0.82006 0.4797 0.2476 0.0
C131 C 0.92851 0.56511 0.22525 0.0
O132 O 0.9477 0.55974 0.23068 0.0
O133 O 0.90017 0.52656 0.25995 0.0
O134 O 0.87814 0.48763 0.27372 0.0
O135 O 0.87294 0.47172 0.22125 0.0
O136 O 0.87442 0.46188 0.24344 0.0
C137 C 0.89433 0.51478 0.272 0.0
C138 C 0.86685 0.45268 0.2309 0.0
O139 O 0.9019 0.54701 0.22708 0.0
Mg140 Mg 0.48838 0.4027 0.23553 0.0
O141 O 0.50346 0.36999 0.23769 0.0
O142 O 0.54133 0.38842 0.25206 0.0
Mg143 Mg 0.54888 0.43189 0.26013 0.0
C144 C 0.52351 0.36842 0.24397 0.0
C145 C 0.45148 0.36144 0.21177 0.0
O146 O 0.47777 0.37117 0.20707 0.0
O147 O 0.46608 0.38841 0.25687 0.0
O148 O 0.50472 0.40917 0.27086 0.0
O149 O 0.52165 0.4243 0.21878 0.0
O150 O 0.5294 0.43621 0.24105 0.0
C151 C 0.47748 0.39458 0.269 0.0
C152 C 0.53956 0.43864 0.22868 0.0
O153 O 0.44812 0.36935 0.2238 0.0
Mg154 Mg 0.58706 0.09917 0.23209 0.0
O155 O 0.62504 0.14533 0.23423 0.0
O156 O 0.61324 0.16757 0.25041 0.0
Mg157 Mg 0.5684 0.13558 0.25898 0.0
C158 C 0.63083 0.16765 0.2414 0.0
C159 C 0.60308 0.07343 0.20771 0.0
O160 O 0.57626 0.0662 0.20515 0.0
O161 O 0.60071 0.08715 0.25253 0.0
O162 O 0.58622 0.10839 0.26803 0.0
O163 O 0.56841 0.11616 0.21659 0.0
O164 O 0.55883 0.11248 0.23915 0.0
C165 C 0.59719 0.0928 0.2651 0.0
C166 C 0.55717 0.12204 0.22711 0.0
O167 O 0.61493 0.08746 0.21879 0.0
Mg168 Mg 0.50216 0.8944 0.76277 0.0
O169 O 0.49633 0.84926 0.76154 0.0
O170 O 0.4598 0.82314 0.74696 0.0
Mg171 Mg 0.44299 0.85157 0.73848 0.0
C172 C 0.47943 0.82562 0.75529 0.0
C173 C 0.55202 0.93179 0.78251 0.0
O174 O 0.53599 0.94379 0.78302 0.0
O175 O 0.52447 0.90518 0.74133 0.0
O176 O 0.4862 0.87994 0.72752 0.0
O177 O 0.46919 0.87791 0.77981 0.0
O178 O 0.45877 0.87732 0.75752 0.0
C179 C 0.51314 0.89736 0.72923 0.0
C180 C 0.44993 0.86927 0.77008 0.0
O181 O 0.54456 0.91046 0.77439 0.0
Mg182 Mg 0.09713 0.58648 0.77179 0.0
O183 O 0.14547 0.61985 0.77013 0.0
O184 O 0.16601 0.60143 0.75658 0.0
Mg185 Mg 0.13062 0.55765 0.74849 0.0
C186 C 0.16768 0.62151 0.76435 0.0
C187 C 0.10303 0.63196 0.79369 0.0
O188 O 0.12295 0.62658 0.79808 0.0
O189 O 0.08966 0.59932 0.74995 0.0
O190 O 0.11003 0.57988 0.73699 0.0
O191 O 0.10846 0.56648 0.78924 0.0
O192 O 0.10545 0.55346 0.76715 0.0
C193 C 0.09659 0.5937 0.73808 0.0
C194 C 0.1129 0.55207 0.77972 0.0
O195 O 0.08911 0.61964 0.78265 0.0
Mg196 Mg 0.40005 0.49428 0.76349 0.0
O197 O 0.36332 0.50428 0.76419 0.0
O198 O 0.37619 0.54297 0.75086 0.0
Mg199 Mg 0.41972 0.55652 0.74079 0.0
C200 C 0.3584 0.52326 0.75906 0.0
C201 C 0.36152 0.45306 0.78689 0.0
O202 O 0.36656 0.47817 0.79156 0.0
O203 O 0.3847 0.47333 0.74173 0.0
O204 O 0.3993 0.51351 0.72933 0.0
O205 O 0.42216 0.52691 0.78066 0.0
O206 O 0.42953 0.53705 0.75825 0.0
C207 C 0.38772 0.48615 0.73008 0.0
C208 C 0.43374 0.54605 0.77091 0.0
O209 O 0.37159 0.45188 0.77504 0.0
Mg210 Mg 0.56047 0.82982 0.5633 0.0
O211 O 0.51292 0.81632 0.56641 0.0
O212 O 0.49308 0.77818 0.58075 0.0
Mg213 Mg 0.52864 0.77012 0.58845 0.0
C214 C 0.49124 0.79633 0.5729 0.0
C215 C 0.56571 0.86957 0.53857 0.0
O216 O 0.55665 0.84481 0.53221 0.0
O217 O 0.57085 0.85271 0.58451 0.0
O218 O 0.55233 0.8147 0.59892 0.0
O219 O 0.54652 0.7959 0.54665 0.0
O220 O 0.55118 0.78828 0.56881 0.0
C221 C 0.56593 0.84186 0.59675 0.0
C222 C 0.54257 0.77791 0.55652 0.0
O223 O 0.5689 0.87075 0.55175 0.0
Mg224 Mg 0.15702 0.72504 0.57367 0.0
O225 O 0.16771 0.68868 0.57236 0.0
O226 O 0.20852 0.70306 0.58433 0.0
Mg227 Mg 0.21858 0.74342 0.5965 0.0
C228 C 0.18839 0.68521 0.57635 0.0
C229 C 0.11585 0.69053 0.54931 0.0
O230 O 0.14122 0.7005 0.54342 0.0
O231 O 0.13578 0.70828 0.59498 0.0
O232 O 0.17473 0.71796 0.60755 0.0
O233 O 0.18947 0.74706 0.55675 0.0
O234 O 0.19976 0.75465 0.57921 0.0
C235 C 0.14754 0.70728 0.60635 0.0
C236 C 0.20862 0.75797 0.56651 0.0
O237 O 0.11466 0.69625 0.56209 0.0
Mg238 Mg 0.25842 0.42523 0.56631 0.0
O239 O 0.29564 0.47243 0.56521 0.0
O240 O 0.28265 0.49918 0.57773 0.0
Mg241 Mg 0.24157 0.46878 0.58959 0.0
C242 C 0.30007 0.49683 0.56953 0.0
C243 C 0.29367 0.41988 0.54205 0.0
O244 O 0.28544 0.43686 0.53652 0.0
O245 O 0.27469 0.41987 0.58752 0.0
O246 O 0.26563 0.4491 0.60044 0.0
O247 O 0.23687 0.43641 0.5496 0.0
O248 O 0.22955 0.43868 0.57214 0.0
C249 C 0.27576 0.43229 0.59906 0.0
C250 C 0.22608 0.44435 0.55953 0.0
O251 O 0.28647 0.41141 0.55456 0.0
H252 H 0.45235 0.35188 0.18388 0.0
H253 H 0.4113 0.32864 0.16801 0.0
H254 H 0.35294 0.30923 0.20258 0.0
H255 H 0.39401 0.3329 0.2186 0.0
H256 H 0.33657 0.26263 0.18142 0.0
H257 H 0.36608 0.36403 0.18569 0.0
H258 H 0.40186 0.41605 0.18494 0.0
H259 H 0.42051 0.40835 0.14212 0.0
H260 H 0.38511 0.35617 0.14268 0.0
H261 H 0.20891 0.23649 0.14826 0.0
H262 H 0.25117 0.25273 0.16301 0.0
H263 H 0.30658 0.293 0.12748 0.0
H264 H 0.26415 0.27763 0.1127 0.0
H265 H 0.32644 0.32777 0.14834 0.0
H266 H 0.29652 0.2289 0.14244 0.0
H267 H 0.263 0.17634 0.14209 0.0
H268 H 0.24789 0.17743 0.18601 0.0
H269 H 0.28102 0.23008 0.18659 0.0
C270 C 0.4308 0.34236 0.18818 0.0
C271 C 0.42645 0.34445 0.2025 0.0
C272 C 0.40738 0.32911 0.17907 0.0
C273 C 0.37917 0.31741 0.18413 0.0
C274 C 0.3746 0.31814 0.1985 0.0
C275 C 0.39807 0.33176 0.20761 0.0
C276 C 0.35466 0.30632 0.17429 0.0
C277 C 0.33407 0.27681 0.17427 0.0
C278 C 0.35214 0.32476 0.16465 0.0
C279 C 0.37318 0.35617 0.16427 0.0
C280 C 0.37799 0.37339 0.17615 0.0
C281 C 0.39816 0.40291 0.17575 0.0
C282 C 0.41351 0.41549 0.1635 0.0
C283 C 0.40864 0.39858 0.15161 0.0
C284 C 0.38851 0.36904 0.15196 0.0
C285 C 0.23008 0.2487 0.14355 0.0
C286 C 0.23317 0.25575 0.1293 0.0
C287 C 0.25427 0.25781 0.152 0.0
C288 C 0.28215 0.27367 0.14634 0.0
C289 C 0.28531 0.28072 0.13209 0.0
C290 C 0.26106 0.27191 0.12365 0.0
C291 C 0.30786 0.28388 0.15546 0.0
C292 C 0.32881 0.31334 0.15538 0.0
C293 C 0.31096 0.26522 0.16481 0.0
C294 C 0.29109 0.23351 0.16453 0.0
C295 C 0.28589 0.21797 0.15201 0.0
C296 C 0.26699 0.18815 0.15177 0.0
C297 C 0.25328 0.17357 0.16401 0.0
C298 C 0.25851 0.18877 0.17653 0.0
C299 C 0.27738 0.2186 0.17682 0.0
H300 H 0.23864 0.15048 0.16381 0.0
H301 H 0.42912 0.43834 0.16321 0.0
H302 H 0.67511 0.96639 0.10938 0.0
H303 H 0.65998 0.99128 0.12555 0.0
H304 H 0.74452 0.03426 0.14422 0.0
H305 H 0.75984 0.00923 0.1281 0.0
H306 H 0.70261 0.00948 0.16368 0.0
H307 H 0.72262 0.0724 0.12511 0.0
H308 H 0.72096 0.08585 0.10072 0.0
H309 H 0.62904 0.04737 0.1035 0.0
H310 H 0.63008 0.0333 0.12786 0.0
H311 H 0.66001 0.08821 0.20856 0.0
H312 H 0.68626 0.07648 0.19134 0.0
H313 H 0.60871 0.0301 0.16686 0.0
H314 H 0.58258 0.04208 0.18381 0.0
H315 H 0.65362 0.06308 0.15049 0.0
H316 H 0.63326 0.99514 0.1879 0.0
H317 H 0.6345 0.98081 0.21218 0.0
H318 H 0.72706 0.02848 0.2114 0.0
H319 H 0.72636 0.04338 0.18715 0.0
C320 C 0.69066 0.98146 0.11678 0.0
C321 C 0.71865 0.98571 0.11748 0.0
C322 C 0.68199 0.99578 0.12599 0.0
C323 C 0.70115 0.01475 0.13607 0.0
C324 C 0.72939 0.01972 0.13653 0.0
C325 C 0.73813 0.00548 0.12726 0.0
C326 C 0.6909 0.02764 0.1467 0.0
C327 C 0.69244 0.02174 0.16082 0.0
C328 C 0.67717 0.04317 0.14295 0.0
C329 C 0.67642 0.05161 0.12829 0.0
C330 C 0.70202 0.06659 0.12049 0.0
C331 C 0.70119 0.07437 0.10668 0.0
C332 C 0.67491 0.06742 0.10056 0.0
C333 C 0.64939 0.05273 0.10825 0.0
C334 C 0.65009 0.04488 0.12207 0.0
C335 C 0.64856 0.07546 0.19952 0.0
C336 C 0.61917 0.06601 0.19759 0.0
C337 C 0.66358 0.06874 0.1897 0.0
C338 C 0.64941 0.05225 0.17784 0.0
C339 C 0.62013 0.04293 0.17589 0.0
C340 C 0.60518 0.0497 0.18565 0.0
C341 C 0.66476 0.04434 0.16743 0.0
C342 C 0.66417 0.05118 0.15336 0.0
C343 C 0.67932 0.02962 0.17122 0.0
C344 C 0.67975 0.02065 0.18578 0.0
C345 C 0.65387 0.00275 0.19295 0.0
C346 C 0.65448 0.99449 0.20669 0.0
C347 C 0.68084 0.00381 0.21334 0.0
C348 C 0.70666 0.02133 0.20624 0.0
C349 C 0.70617 0.02968 0.1925 0.0
H350 H 0.68127 0.99739 0.22399 0.0
H351 H 0.67432 0.07347 0.08986 0.0
H352 H 0.98347 0.60869 0.22005 0.0
H353 H 0.99908 0.64853 0.20365 0.0
H354 H 0.91046 0.61895 0.19318 0.0
H355 H 0.89459 0.57878 0.20954 0.0
H356 H 0.94383 0.63067 0.17001 0.0
H357 H 0.94788 0.67909 0.21238 0.0
H358 H 0.96089 0.69413 0.23685 0.0
H359 H 0.05076 0.73646 0.22621 0.0
H360 H 0.0383 0.72132 0.2017 0.0
H361 H 0.98628 0.75683 0.12837 0.0
H362 H 0.96287 0.71859 0.14586 0.0
H363 H 0.0462 0.73993 0.16196 0.0
H364 H 0.06962 0.77828 0.14475 0.0
H365 H 0.01041 0.73294 0.18273 0.0
H366 H 0.00631 0.68053 0.141 0.0
H367 H 0.99358 0.66491 0.11657 0.0
H368 H 0.9039 0.62984 0.12611 0.0
H369 H 0.91616 0.64561 0.15058 0.0
C370 C 0.96725 0.61076 0.21437 0.0
C371 C 0.93778 0.59052 0.21611 0.0
C372 C 0.97622 0.63364 0.20503 0.0
C373 C 0.95593 0.63685 0.19726 0.0
C374 C 0.92647 0.61689 0.19908 0.0
C375 C 0.91745 0.59403 0.20848 0.0
C376 C 0.96572 0.6604 0.18685 0.0
C377 C 0.95795 0.65311 0.17283 0.0
C378 C 0.98452 0.6896 0.19048 0.0
C379 C 0.99214 0.69887 0.20521 0.0
C380 C 0.97042 0.69142 0.21527 0.0
C381 C 0.9777 0.7 0.22915 0.0
C382 C 0.00663 0.71619 0.23309 0.0
C383 C 0.02835 0.7239 0.22314 0.0
C384 C 0.02119 0.71535 0.20925 0.0
C385 C 0.9996 0.75328 0.1356 0.0
C386 C 0.02983 0.7706 0.13515 0.0
C387 C 0.98619 0.73139 0.14558 0.0
C388 C 0.00279 0.72628 0.15519 0.0
C389 C 0.03293 0.74352 0.1547 0.0
C390 C 0.0463 0.76539 0.1448 0.0
C391 C 0.98903 0.70315 0.16585 0.0
C392 C 0.99603 0.71054 0.17993 0.0
C393 C 0.96956 0.67404 0.16227 0.0
C394 C 0.96218 0.66455 0.14757 0.0
C395 C 0.9839 0.66971 0.13786 0.0
C396 C 0.97676 0.66078 0.12401 0.0
C397 C 0.94795 0.64648 0.11978 0.0
C398 C 0.92621 0.64098 0.1294 0.0
C399 C 0.93324 0.64989 0.14326 0.0
H400 H 0.94247 0.63958 0.10906 0.0
H401 H 0.01222 0.72281 0.24384 0.0
H402 H 0.34984 0.39818 0.7812 0.0
H403 H 0.32894 0.35673 0.79694 0.0
H404 H 0.31882 0.40783 0.8287 0.0
H405 H 0.33992 0.44943 0.81309 0.0
H406 H 0.34357 0.37948 0.83913 0.0
H407 H 0.26048 0.35532 0.81163 0.0
H408 H 0.23245 0.34678 0.79004 0.0
H409 H 0.2473 0.27805 0.77886 0.0
H410 H 0.27578 0.28645 0.80029 0.0
H411 H 0.26399 0.25934 0.88471 0.0
H412 H 0.27737 0.30095 0.86958 0.0
H413 H 0.29146 0.25713 0.83547 0.0
H414 H 0.27795 0.21555 0.8504 0.0
H415 H 0.26186 0.28261 0.82702 0.0
H416 H 0.34776 0.30931 0.85366 0.0
H417 H 0.37609 0.31807 0.87516 0.0
H418 H 0.35574 0.38228 0.88791 0.0
H419 H 0.32696 0.37362 0.86655 0.0
C420 C 0.34289 0.40053 0.79148 0.0
C421 C 0.34663 0.42716 0.79589 0.0
C422 C 0.33085 0.37678 0.80045 0.0
C423 C 0.32217 0.37913 0.81399 0.0
C424 C 0.3254 0.40553 0.81832 0.0
C425 C 0.33739 0.42927 0.80935 0.0
C426 C 0.31103 0.35446 0.82383 0.0
C427 C 0.32536 0.35842 0.83658 0.0
C428 C 0.28763 0.32685 0.82041 0.0
C429 C 0.27049 0.3217 0.80751 0.0
C430 C 0.25797 0.33854 0.80451 0.0
C431 C 0.24196 0.33369 0.79231 0.0
C432 C 0.23815 0.31193 0.78307 0.0
C433 C 0.25029 0.29492 0.78603 0.0
C434 C 0.26635 0.2997 0.7982 0.0
C435 C 0.26994 0.25859 0.87399 0.0
C436 C 0.27002 0.23416 0.86879 0.0
C437 C 0.27763 0.2824 0.86536 0.0
C438 C 0.2856 0.28222 0.85141 0.0
C439 C 0.28534 0.25773 0.84618 0.0
C440 C 0.27773 0.23401 0.85477 0.0
C441 C 0.29459 0.30759 0.84222 0.0
C442 C 0.27988 0.30375 0.8296 0.0
C443 C 0.31763 0.33533 0.84576 0.0
C444 C 0.33494 0.34058 0.85859 0.0
C445 C 0.34913 0.32512 0.8611 0.0
C446 C 0.3653 0.3301 0.87325 0.0
C447 C 0.36764 0.35065 0.88291 0.0
C448 C 0.35387 0.36633 0.88043 0.0
C449 C 0.33764 0.36141 0.8683 0.0
H450 H 0.38018 0.35448 0.89231 0.0
H451 H 0.22575 0.30821 0.77363 0.0
H452 H 0.7635 0.98985 0.86798 0.0
H453 H 0.72421 0.96777 0.85097 0.0
H454 H 0.70334 0.03396 0.85921 0.0
H455 H 0.7422 0.05591 0.87627 0.0
H456 H 0.65541 0.98152 0.85774 0.0
H457 H 0.74233 0.03678 0.83048 0.0
H458 H 0.79119 0.05056 0.82237 0.0
H459 H 0.76004 0.96427 0.80769 0.0
H460 H 0.71105 0.94989 0.81589 0.0
H461 H 0.57421 0.97794 0.80013 0.0
H462 H 0.61277 0.99236 0.81713 0.0
H463 H 0.62439 0.92222 0.80393 0.0
H464 H 0.58594 0.90782 0.78665 0.0
H465 H 0.67573 0.97093 0.80826 0.0
H466 H 0.58812 0.91643 0.83374 0.0
H467 H 0.53913 0.90241 0.84171 0.0
H468 H 0.57119 0.98622 0.85988 0.0
H469 H 0.62033 0.0009 0.85184 0.0
C470 C 0.75042 0.99958 0.86624 0.0
C471 C 0.75607 0.02472 0.87345 0.0
C472 C 0.72807 0.98702 0.85646 0.0
C473 C 0.71105 0.9994 0.8537 0.0
C474 C 0.71621 0.02404 0.86115 0.0
C475 C 0.73851 0.03661 0.87089 0.0
C476 C 0.68804 0.98713 0.84295 0.0
C477 C 0.6599 0.97941 0.8469 0.0
C478 C 0.6937 0.98354 0.82889 0.0
C479 C 0.72312 0.99219 0.82394 0.0
C480 C 0.74596 0.02069 0.82562 0.0
C481 C 0.77366 0.02862 0.82099 0.0
C482 C 0.77874 0.00828 0.81456 0.0
C483 C 0.75609 0.97999 0.8127 0.0
C484 C 0.72835 0.97194 0.81733 0.0
C485 C 0.58503 0.96562 0.80076 0.0
C486 C 0.57684 0.94159 0.7921 0.0
C487 C 0.607 0.97383 0.81055 0.0
C488 C 0.62109 0.95804 0.812 0.0
C489 C 0.61368 0.93461 0.80305 0.0
C490 C 0.5917 0.92641 0.79319 0.0
C491 C 0.64325 0.96594 0.823 0.0
C492 C 0.67117 0.97276 0.81912 0.0
C493 C 0.63739 0.96862 0.83715 0.0
C494 C 0.60788 0.95983 0.84209 0.0
C495 C 0.5847 0.93195 0.83935 0.0
C496 C 0.5569 0.92387 0.84389 0.0
C497 C 0.55204 0.94343 0.85127 0.0
C498 C 0.57499 0.97109 0.85415 0.0
C499 C 0.60282 0.97929 0.84962 0.0
H500 H 0.53051 0.93714 0.85478 0.0
H501 H 0.8002 0.01446 0.81097 0.0
H502 H 0.05955 0.64327 0.78901 0.0
H503 H 0.04322 0.66828 0.80443 0.0
H504 H 0.11158 0.68576 0.8333 0.0
H505 H 0.12779 0.66032 0.81802 0.0
H506 H 0.06199 0.66467 0.8467 0.0
H507 H 0.11289 0.74021 0.81402 0.0
H508 H 0.12759 0.76302 0.79088 0.0
H509 H 0.04093 0.74311 0.78285 0.0
H510 H 0.02559 0.71979 0.80587 0.0
H511 H 0.01695 0.74608 0.88868 0.0
H512 H 0.04762 0.73458 0.87427 0.0
H513 H 0.98468 0.70537 0.84124 0.0
H514 H 0.9542 0.71677 0.85542 0.0
H515 H 0.03936 0.73895 0.8313 0.0
H516 H 0.98816 0.65771 0.86273 0.0
H517 H 0.97366 0.63468 0.88585 0.0
H518 H 0.06237 0.66642 0.89621 0.0
H519 H 0.07742 0.68996 0.87319 0.0
C520 C 0.07137 0.65274 0.79855 0.0
C521 C 0.09493 0.64969 0.80229 0.0
C522 C 0.06207 0.66717 0.80734 0.0
C523 C 0.07631 0.67913 0.82 0.0
C524 C 0.10027 0.67672 0.8236 0.0
C525 C 0.10954 0.66222 0.81482 0.0
C526 C 0.06496 0.69244 0.82981 0.0
C527 C 0.05764 0.68138 0.84341 0.0
C528 C 0.05894 0.714 0.82551 0.0
C529 C 0.06806 0.72807 0.81165 0.0
C530 C 0.09691 0.7405 0.80728 0.0
C531 C 0.10537 0.75356 0.79419 0.0
C532 C 0.0852 0.75447 0.78539 0.0
C533 C 0.05653 0.74238 0.78968 0.0
C534 C 0.04795 0.72927 0.80276 0.0
C535 C 0.00974 0.73728 0.87833 0.0
C536 C 0.98307 0.7322 0.87323 0.0
C537 C 0.02725 0.73069 0.87012 0.0
C538 C 0.01836 0.71901 0.8567 0.0
C539 C 0.99202 0.71445 0.85154 0.0
C540 C 0.97453 0.72084 0.85972 0.0
C541 C 0.03583 0.71066 0.848 0.0
C542 C 0.04425 0.72264 0.83462 0.0
C543 C 0.04297 0.69004 0.85252 0.0
C544 C 0.03393 0.67589 0.86633 0.0
C545 C 0.00458 0.65998 0.86999 0.0
C546 C 0.99626 0.6468 0.88306 0.0
C547 C 0.01709 0.64917 0.89251 0.0
C548 C 0.04627 0.66466 0.88889 0.0
C549 C 0.05471 0.67791 0.87584 0.0
H550 H 0.0106 0.63894 0.90263 0.0
H551 H 0.09179 0.76459 0.77526 0.0
H552 H 0.92037 0.59531 0.45484 0.0
H553 H 0.96246 0.61268 0.47007 0.0
H554 H 0.90649 0.57726 0.50578 0.0
H555 H 0.86436 0.5598 0.49069 0.0
H556 H 0.94984 0.63362 0.50979 0.0
H557 H 0.94063 0.54464 0.49381 0.0
H558 H 0.93631 0.50927 0.47616 0.0
H559 H 0.01833 0.57145 0.45888 0.0
H560 H 0.02295 0.60735 0.4763 0.0
H561 H 0.05977 0.66104 0.55843 0.0
H562 H 0.01611 0.63639 0.5442 0.0
H563 H 0.06823 0.65991 0.50692 0.0
H564 H 0.11182 0.68364 0.52107 0.0
H565 H 0.02547 0.60749 0.50421 0.0
H566 H 0.03414 0.69723 0.51848 0.0
H567 H 0.03898 0.73435 0.53518 0.0
H568 H 0.95898 0.67313 0.55454 0.0
H569 H 0.95385 0.63553 0.53805 0.0
C570 C 0.91701 0.59104 0.46592 0.0
C571 C 0.889 0.57619 0.47155 0.0
C572 C 0.94108 0.6009 0.4746 0.0
C573 C 0.93757 0.59614 0.48905 0.0
C574 C 0.90966 0.58116 0.49467 0.0
C575 C 0.88561 0.57112 0.486 0.0
C576 C 0.96301 0.6077 0.49838 0.0
C577 C 0.96617 0.62758 0.50872 0.0
C578 C 0.98465 0.60038 0.49673 0.0
C579 C 0.982 0.57877 0.48629 0.0
C580 C 0.95764 0.55085 0.48618 0.0
C581 C 0.95516 0.53069 0.47623 0.0
C582 C 0.977 0.53813 0.46638 0.0
C583 C 0.00141 0.56573 0.4665 0.0
C584 C 0.00398 0.58598 0.47642 0.0
C585 C 0.06191 0.66082 0.54721 0.0
C586 C 0.08927 0.67447 0.54088 0.0
C587 C 0.03693 0.64683 0.53907 0.0
C588 C 0.03882 0.6467 0.52444 0.0
C589 C 0.06616 0.65971 0.51816 0.0
C590 C 0.0911 0.67337 0.52629 0.0
C591 C 0.01245 0.63359 0.51562 0.0
C592 C 0.00909 0.61345 0.50535 0.0
C593 C 0.99076 0.64093 0.51722 0.0
C594 C 0.99378 0.6635 0.52713 0.0
C595 C 0.0177 0.69164 0.52636 0.0
C596 C 0.02047 0.71277 0.53578 0.0
C597 C 0.99935 0.70608 0.54594 0.0
C598 C 0.97535 0.67827 0.54668 0.0
C599 C 0.97249 0.65704 0.5373 0.0
H600 H 0.00153 0.72248 0.55322 0.0
H601 H 0.97503 0.5225 0.45868 0.0
H602 H 0.30453 0.42716 0.5141 0.0
H603 H 0.32832 0.40781 0.4997 0.0
H604 H 0.34271 0.3699 0.53609 0.0
H605 H 0.31875 0.38909 0.55064 0.0
H606 H 0.39112 0.39762 0.5179 0.0
H607 H 0.28936 0.32796 0.5159 0.0
H608 H 0.23814 0.31202 0.51199 0.0
H609 H 0.25684 0.34102 0.46954 0.0
H610 H 0.30829 0.35752 0.47326 0.0
H611 H 0.42 0.29628 0.48567 0.0
H612 H 0.40207 0.32175 0.4997 0.0
H613 H 0.3757 0.34657 0.46231 0.0
H614 H 0.39293 0.3204 0.44819 0.0
H615 H 0.33429 0.32736 0.48073 0.0
H616 H 0.43518 0.39557 0.48187 0.0
H617 H 0.48682 0.41288 0.48534 0.0
H618 H 0.47104 0.38892 0.52853 0.0
H619 H 0.41921 0.37108 0.52527 0.0
C620 C 0.31289 0.41487 0.51909 0.0
C621 C 0.30958 0.40951 0.53352 0.0
C622 C 0.32643 0.40378 0.51082 0.0
C623 C 0.33704 0.38724 0.51682 0.0
C624 C 0.33463 0.38261 0.53128 0.0
C625 C 0.32084 0.39349 0.53955 0.0
C626 C 0.34974 0.37398 0.5079 0.0
C627 C 0.37868 0.382 0.50987 0.0
C628 C 0.33365 0.35427 0.49718 0.0
C629 C 0.30271 0.34425 0.49491 0.0
C630 C 0.28259 0.33117 0.50577 0.0
C631 C 0.25351 0.32199 0.50358 0.0
C632 C 0.24425 0.32558 0.49053 0.0
C633 C 0.26405 0.33829 0.47964 0.0
C634 C 0.29317 0.34754 0.48178 0.0
C635 C 0.41061 0.30734 0.4804 0.0
C636 C 0.40788 0.30628 0.4658 0.0
C637 C 0.40049 0.32206 0.48845 0.0
C638 C 0.38782 0.3364 0.48207 0.0
C639 C 0.38541 0.33569 0.46747 0.0
C640 C 0.39532 0.32077 0.45941 0.0
C641 C 0.37584 0.35092 0.49068 0.0
C642 C 0.34693 0.3431 0.48868 0.0
C643 C 0.39208 0.37101 0.50128 0.0
C644 C 0.42325 0.38174 0.50329 0.0
C645 C 0.44268 0.39377 0.49208 0.0
C646 C 0.47199 0.40372 0.49402 0.0
C647 C 0.48219 0.40193 0.50714 0.0
C648 C 0.4631 0.39026 0.51837 0.0
C649 C 0.43375 0.38025 0.51649 0.0
H650 H 0.5049 0.40965 0.50862 0.0
H651 H 0.22173 0.31845 0.48885 0.0
H652 H 0.67303 0.1201 0.47971 0.0
H653 H 0.64856 0.07781 0.49479 0.0
H654 H 0.64144 0.02297 0.46033 0.0
H655 H 0.66605 0.06523 0.44513 0.0
H656 H 0.59073 0.0009 0.47655 0.0
H657 H 0.69302 0.04038 0.48314 0.0
H658 H 0.74261 0.07887 0.48858 0.0
H659 H 0.71521 0.08932 0.52916 0.0
H660 H 0.66534 0.05114 0.52388 0.0
H661 H 0.56668 0.87438 0.51026 0.0
H662 H 0.58344 0.91789 0.49643 0.0
H663 H 0.60001 0.968 0.53405 0.0
H664 H 0.58391 0.9244 0.54806 0.0
H665 H 0.64399 0.99425 0.51718 0.0
H666 H 0.54282 0.95408 0.51176 0.0
H667 H 0.49256 0.91678 0.50676 0.0
H668 H 0.51622 0.90855 0.46495 0.0
H669 H 0.56672 0.94575 0.46972 0.0
C670 C 0.6661 0.09905 0.47529 0.0
C671 C 0.67168 0.09607 0.46122 0.0
C672 C 0.65217 0.07491 0.48394 0.0
C673 C 0.64345 0.04731 0.47871 0.0
C674 C 0.64805 0.04411 0.46457 0.0
C675 C 0.6622 0.06829 0.45592 0.0
C676 C 0.63045 0.02192 0.4881 0.0
C677 C 0.60242 0.99926 0.48536 0.0
C678 C 0.64541 0.02027 0.49985 0.0
C679 C 0.6754 0.04313 0.50305 0.0
C680 C 0.69752 0.05106 0.49317 0.0
C681 C 0.72569 0.07279 0.49624 0.0
C682 C 0.73204 0.08659 0.50919 0.0
C683 C 0.71025 0.07864 0.51912 0.0
C684 C 0.68203 0.05695 0.5161 0.0
C685 C 0.57362 0.89458 0.51564 0.0
C686 C 0.57397 0.89589 0.53029 0.0
C687 C 0.58305 0.91948 0.50768 0.0
C688 C 0.59265 0.94625 0.51417 0.0
C689 C 0.59264 0.9476 0.52881 0.0
C690 C 0.58338 0.92265 0.5368 0.0
C691 C 0.60419 0.97292 0.50562 0.0
C692 C 0.63205 0.99588 0.50848 0.0
C693 C 0.58894 0.97495 0.49407 0.0
C694 C 0.55861 0.95253 0.49114 0.0
C695 C 0.53736 0.94416 0.50153 0.0
C696 C 0.50881 0.92306 0.49873 0.0
C697 C 0.50121 0.91019 0.48557 0.0
C698 C 0.52214 0.91851 0.47515 0.0
C699 C 0.55072 0.93966 0.47788 0.0
H700 H 0.47909 0.89384 0.48343 0.0
H701 H 0.75386 0.1034 0.51155 0.0
H702 H 0.09439 0.17153 0.12134 0.0
H703 H 0.04584 0.12863 0.12219 0.0
H704 H 0.0185 0.16382 0.08929 0.0
H705 H 0.06718 0.20619 0.08804 0.0
H706 H 0.98072 0.13686 0.11718 0.0
H707 H 0.03012 0.12204 0.07737 0.0
H708 H 0.06648 0.11441 0.06556 0.0
H709 H 0.04854 0.0454 0.09377 0.0
H710 H 0.0125 0.05303 0.10594 0.0
H711 H 0.84689 0.02613 0.09213 0.0
H712 H 0.89498 0.06776 0.09602 0.0
H713 H 0.92606 0.0106 0.10739 0.0
H714 H 0.8785 0.96905 0.10241 0.0
H715 H 0.96373 0.04798 0.09304 0.0
H716 H 0.91345 0.05586 0.13176 0.0
H717 H 0.87481 0.05796 0.14461 0.0
H718 H 0.89404 0.13525 0.12272 0.0
H719 H 0.93255 0.13341 0.10959 0.0
C720 C 0.07784 0.17032 0.11449 0.0
C721 C 0.08437 0.19223 0.1047 0.0
C722 C 0.05027 0.14576 0.11491 0.0
C723 C 0.02876 0.14312 0.10575 0.0
C724 C 0.03489 0.16554 0.09641 0.0
C725 C 0.0626 0.18971 0.09574 0.0
C726 C 0.0 0.1167 0.10559 0.0
C727 C 0.97681 0.11737 0.11187 0.0
C728 C 0.99534 0.09101 0.09919 0.0
C729 C 0.01891 0.08839 0.09268 0.0
C730 C 0.03439 0.1057 0.08126 0.0
C731 C 0.05479 0.10122 0.07443 0.0
C732 C 0.05965 0.07931 0.07886 0.0
C733 C 0.04466 0.06228 0.09033 0.0
C734 C 0.02432 0.06673 0.09721 0.0
C735 C 0.86407 0.0226 0.09547 0.0
C736 C 0.85916 0.99452 0.09692 0.0
C737 C 0.89151 0.04639 0.09786 0.0
C738 C 0.91426 0.04256 0.10233 0.0
C739 C 0.90906 0.01433 0.10395 0.0
C740 C 0.88189 0.99056 0.10111 0.0
C741 C 0.94378 0.06785 0.10452 0.0
C742 C 0.96731 0.0671 0.09861 0.0
C743 C 0.94885 0.09308 0.11171 0.0
C744 C 0.92575 0.09436 0.1196 0.0
C745 C 0.90931 0.0732 0.12961 0.0
C746 C 0.88745 0.07436 0.13696 0.0
C747 C 0.88193 0.09669 0.13446 0.0
C748 C 0.89833 0.11795 0.12463 0.0
C749 C 0.9202 0.11689 0.11725 0.0
H750 H 0.86499 0.09754 0.14015 0.0
H751 H 0.07493 0.07541 0.07337 0.0
H752 H 0.77531 0.85694 0.10013 0.0
H753 H 0.81528 0.84756 0.10142 0.0
H754 H 0.86025 0.91943 0.12957 0.0
H755 H 0.82003 0.92851 0.12856 0.0
H756 H 0.8894 0.92232 0.10398 0.0
H757 H 0.84198 0.8575 0.14196 0.0
H758 H 0.80118 0.81666 0.15395 0.0
H759 H 0.79863 0.75871 0.12237 0.0
H760 H 0.83916 0.79928 0.11007 0.0
H761 H 0.01502 0.9121 0.10622 0.0
H762 H 0.97291 0.91608 0.11221 0.0
H763 H 0.91687 0.83041 0.0961 0.0
H764 H 0.95906 0.8257 0.09106 0.0
H765 H 0.89326 0.83543 0.11746 0.0
H766 H 0.93847 0.89894 0.07865 0.0
H767 H 0.97661 0.93933 0.0652 0.0
H768 H 0.98022 0.99939 0.09582 0.0
H769 H 0.94273 0.95935 0.10968 0.0
C770 C 0.79326 0.87003 0.107 0.0
C771 C 0.79457 0.89331 0.1143 0.0
C772 C 0.81605 0.86469 0.10771 0.0
C773 C 0.84066 0.88283 0.11558 0.0
C774 C 0.84132 0.90511 0.12351 0.0
C775 C 0.81826 0.91012 0.12301 0.0
C776 C 0.86698 0.8809 0.11396 0.0
C777 C 0.89063 0.90362 0.10716 0.0
C778 C 0.86782 0.85596 0.11764 0.0
C779 C 0.84347 0.8315 0.12503 0.0
C780 C 0.83256 0.8361 0.1375 0.0
C781 C 0.80951 0.81298 0.14437 0.0
C782 C 0.79728 0.78512 0.13891 0.0
C783 C 0.80811 0.78031 0.12658 0.0
C784 C 0.83115 0.80336 0.11967 0.0
C785 C 0.99363 0.89414 0.10404 0.0
C786 C 0.99003 0.86866 0.09815 0.0
C787 C 0.96963 0.8965 0.10736 0.0
C788 C 0.94164 0.8739 0.10433 0.0
C789 C 0.93816 0.84824 0.09854 0.0
C790 C 0.96218 0.84554 0.0956 0.0
C791 C 0.91607 0.8769 0.1073 0.0
C792 C 0.8924 0.85433 0.11433 0.0
C793 C 0.91501 0.9019 0.10358 0.0
C794 C 0.93804 0.926 0.09533 0.0
C795 C 0.94765 0.92071 0.08262 0.0
C796 C 0.96917 0.94358 0.07492 0.0
C797 C 0.98095 0.9719 0.07969 0.0
C798 C 0.97117 0.97744 0.09216 0.0
C799 C 0.94985 0.95465 0.09997 0.0
H800 H 0.99757 0.98958 0.0737 0.0
H801 H 0.77944 0.76725 0.14424 0.0
H802 H 0.17312 0.1669 0.11333 0.0
H803 H 0.17084 0.12299 0.12211 0.0
H804 H 0.11806 0.07529 0.08704 0.0
H805 H 0.12103 0.11913 0.07796 0.0
H806 H 0.09522 0.05266 0.11526 0.0
H807 H 0.18344 0.09032 0.08643 0.0
H808 H 0.23344 0.12807 0.08103 0.0
H809 H 0.25943 0.12211 0.12261 0.0
H810 H 0.20948 0.08448 0.12827 0.0
H811 H 0.0835 0.92959 0.09143 0.0
H812 H 0.1001 0.97992 0.09518 0.0
H813 H 0.13776 0.97742 0.13438 0.0
H814 H 0.12092 0.92583 0.13056 0.0
H815 H 0.17325 0.02915 0.11351 0.0
H816 H 0.08933 0.98381 0.14083 0.0
H817 H 0.03984 0.94788 0.14791 0.0
H818 H 0.00618 0.97053 0.11277 0.0
H819 H 0.05544 0.00603 0.10522 0.0
C820 C 0.1614 0.14714 0.10737 0.0
C821 C 0.14668 0.14625 0.09507 0.0
C822 C 0.16007 0.12213 0.11244 0.0
C823 C 0.14396 0.09597 0.10531 0.0
C824 C 0.13027 0.0953 0.09277 0.0
C825 C 0.13186 0.12026 0.08763 0.0
C826 C 0.14009 0.06873 0.11096 0.0
C827 C 0.11227 0.04751 0.11501 0.0
C828 C 0.16275 0.06269 0.11133 0.0
C829 C 0.19275 0.08484 0.10781 0.0
C830 C 0.1998 0.0972 0.09444 0.0
C831 C 0.22812 0.11852 0.09132 0.0
C832 C 0.24959 0.12753 0.10148 0.0
C833 C 0.24279 0.11513 0.11475 0.0
C834 C 0.21449 0.09378 0.11791 0.0
C835 C 0.09594 0.93953 0.10065 0.0
C836 C 0.10142 0.92368 0.1105 0.0
C837 C 0.10516 0.96843 0.10288 0.0
C838 C 0.12016 0.98233 0.11502 0.0
C839 C 0.12627 0.96697 0.1249 0.0
C840 C 0.11661 0.93762 0.12272 0.0
C841 C 0.12799 0.01264 0.11711 0.0
C842 C 0.15642 0.03453 0.11438 0.0
C843 C 0.106 0.01956 0.11828 0.0
C844 C 0.07618 0.9976 0.12244 0.0
C845 C 0.0714 0.98089 0.1345 0.0
C846 C 0.04336 0.96061 0.13861 0.0
C847 C 0.01986 0.95696 0.13081 0.0
C848 C 0.02438 0.97342 0.11881 0.0
C849 C 0.05237 0.99363 0.11461 0.0
H850 H 0.99816 0.9414 0.13407 0.0
H851 H 0.27149 0.14407 0.09906 0.0
H852 H 0.97328 0.88098 0.9139 0.0
H853 H 0.01532 0.92898 0.91014 0.0
H854 H 0.06807 0.89103 0.90274 0.0
H855 H 0.026 0.84281 0.90626 0.0
H856 H 0.09069 0.9425 0.92245 0.0
H857 H 0.05025 0.90979 0.87543 0.0
H858 H 0.00861 0.88993 0.85946 0.0
H859 H 0.99622 0.96107 0.86866 0.0
H860 H 0.03765 0.98119 0.88478 0.0
H861 H 0.21663 0.06436 0.89988 0.0
H862 H 0.17543 0.01506 0.90096 0.0
H863 H 0.1184 0.04653 0.89006 0.0
H864 H 0.15998 0.09532 0.8878 0.0
H865 H 0.09634 0.9976 0.87993 0.0
H866 H 0.13175 0.03267 0.92518 0.0
H867 H 0.16723 0.05438 0.94419 0.0
H868 H 0.18204 0.98314 0.94277 0.0
H869 H 0.14694 0.9612 0.9236 0.0
C870 C 0.99387 0.88283 0.91159 0.0
C871 C 0.99635 0.8581 0.91039 0.0
C872 C 0.01781 0.91025 0.9094 0.0
C873 C 0.04469 0.91343 0.90616 0.0
C874 C 0.04744 0.88891 0.90526 0.0
C875 C 0.02341 0.86143 0.90722 0.0
C876 C 0.06982 0.94234 0.90334 0.0
C877 C 0.09228 0.95447 0.91307 0.0
C878 C 0.07099 0.95835 0.89146 0.0
C879 C 0.04698 0.94694 0.8813 0.0
C880 C 0.03863 0.92117 0.87404 0.0
C881 C 0.01507 0.90987 0.86497 0.0
C882 C -0.00022 0.92423 0.86305 0.0
C883 C 0.00811 0.95 0.87014 0.0
C884 C 0.03167 0.96141 0.87921 0.0
C885 C 0.19533 0.06044 0.89732 0.0
C886 C 0.19132 0.08333 0.89363 0.0
C887 C 0.17173 0.03238 0.89814 0.0
C888 C 0.14353 0.02703 0.89604 0.0
C889 C 0.13978 0.04991 0.89177 0.0
C890 C 0.16353 0.07779 0.89044 0.0
C891 C 0.118 0.99802 0.89895 0.0
C892 C 0.09519 0.98581 0.8893 0.0
C893 C 0.11591 0.98244 0.91126 0.0
C894 C 0.13693 0.99544 0.92285 0.0
C895 C 0.14271 0.02172 0.92886 0.0
C896 C 0.16274 0.03406 0.93967 0.0
C897 C 0.17693 0.02018 0.94466 0.0
C898 C 0.17106 0.99389 0.93888 0.0
C899 C 0.15109 0.98148 0.92804 0.0
H900 H 0.19244 0.02977 0.95303 0.0
H901 H 0.98147 0.91539 0.85607 0.0
H902 H 0.15652 0.15886 0.88868 0.0
H903 H 0.11072 0.15667 0.88438 0.0
H904 H 0.08379 0.12707 0.92655 0.0
H905 H 0.12892 0.12775 0.93061 0.0
H906 H 0.04301 0.09527 0.91069 0.0
H907 H 0.10349 0.1979 0.91396 0.0
H908 H 0.14504 0.24573 0.90831 0.0
H909 H 0.11658 0.23638 0.86583 0.0
H910 H 0.07505 0.18831 0.87118 0.0
H911 H 0.92975 0.13476 0.90961 0.0
H912 H 0.98131 0.15115 0.91075 0.0
H913 H 0.97121 0.09315 0.87728 0.0
H914 H 0.91971 0.07731 0.87578 0.0
H915 H 0.03049 0.17157 0.88861 0.0
H916 H 0.99455 0.05285 0.89418 0.0
H917 H 0.95337 0.00764 0.90295 0.0
H918 H 0.93482 0.05505 0.93316 0.0
H919 H 0.97578 0.10061 0.92444 0.0
C920 C 0.14094 0.15223 0.89708 0.0
C921 C 0.14621 0.14342 0.90998 0.0
C922 C 0.11481 0.15114 0.89463 0.0
C923 C 0.09381 0.14199 0.90517 0.0
C924 C 0.09954 0.13409 0.91821 0.0
C925 C 0.12536 0.13453 0.92055 0.0
C926 C 0.06505 0.13853 0.90238 0.0
C927 C 0.04054 0.11214 0.90589 0.0
C928 C 0.06145 0.16043 0.89617 0.0
C929 C 0.0863 0.18939 0.89295 0.0
C930 C 0.1062 0.20596 0.90339 0.0
C931 C 0.12973 0.23313 0.90025 0.0
C932 C 0.13349 0.24406 0.88672 0.0
C933 C 0.11367 0.22788 0.87631 0.0
C934 C 0.09011 0.20068 0.87939 0.0
C935 C 0.93877 0.12623 0.90219 0.0
C936 C 0.9209 0.10488 0.89257 0.0
C937 C 0.96817 0.13568 0.90282 0.0
C938 C 0.97994 0.12339 0.89409 0.0
C939 C 0.96245 0.10306 0.88401 0.0
C940 C 0.93313 0.09408 0.88315 0.0
C941 C 0.00915 0.12852 0.89691 0.0
C942 C 0.03344 0.15497 0.89336 0.0
C943 C 0.01279 0.10718 0.90349 0.0
C944 C 0.98795 0.08 0.90858 0.0
C945 C 0.98165 0.05356 0.90268 0.0
C946 C 0.95842 0.0279 0.90768 0.0
C947 C 0.94158 0.02842 0.91868 0.0
C948 C 0.94787 0.05466 0.92465 0.0
C949 C 0.97097 0.08042 0.91963 0.0
H950 H 0.9235 0.00851 0.9225 0.0
H951 H 0.15173 0.26509 0.8843 0.0
H952 H 0.85999 0.77815 0.905 0.0
H953 H 0.84926 0.81712 0.90279 0.0
H954 H 0.91714 0.85887 0.87231 0.0
H955 H 0.92749 0.81962 0.8742 0.0
H956 H 0.92172 0.89034 0.89808 0.0
H957 H 0.8563 0.83978 0.86085 0.0
H958 H 0.81549 0.79799 0.84942 0.0
H959 H 0.75778 0.79708 0.88069 0.0
H960 H 0.79834 0.83861 0.89244 0.0
H961 H 0.90767 0.01409 0.89099 0.0
H962 H 0.91234 0.97175 0.88625 0.0
H963 H 0.83158 0.91769 0.90743 0.0
H964 H 0.82697 0.96013 0.91206 0.0
H965 H 0.83391 0.89226 0.88441 0.0
H966 H 0.89638 0.93698 0.92309 0.0
H967 H 0.93611 0.9717 0.93806 0.0
H968 H 0.99788 0.97915 0.90744 0.0
H969 H 0.95851 0.94464 0.89223 0.0
C970 C 0.87198 0.79518 0.89751 0.0
C971 C 0.89455 0.79592 0.88978 0.0
C972 C 0.86579 0.81734 0.89623 0.0
C973 C 0.88238 0.84074 0.88736 0.0
C974 C 0.90396 0.8408 0.87911 0.0
C975 C 0.90977 0.81834 0.88017 0.0
C976 C 0.88012 0.86693 0.88837 0.0
C977 C 0.90286 0.89117 0.89478 0.0
C978 C 0.8549 0.86718 0.88463 0.0
C979 C 0.83044 0.84217 0.8776 0.0
C980 C 0.83497 0.8305 0.86538 0.0
C981 C 0.81186 0.80689 0.85882 0.0
C982 C 0.78407 0.79484 0.86434 0.0
C983 C 0.77932 0.80642 0.87642 0.0
C984 C 0.80236 0.83002 0.88303 0.0
C985 C 0.89105 0.99309 0.89463 0.0
C986 C 0.86721 0.99016 0.90203 0.0
C987 C 0.89373 0.969 0.89198 0.0
C988 C 0.87261 0.9416 0.89672 0.0
C989 C 0.84825 0.93862 0.90374 0.0
C990 C 0.84557 0.96276 0.90637 0.0
C991 C 0.87568 0.91604 0.89416 0.0
C992 C 0.85304 0.89181 0.88752 0.0
C993 C 0.90088 0.91554 0.89796 0.0
C994 C 0.92441 0.93858 0.9064 0.0
C995 C 0.91838 0.94643 0.91942 0.0
C996 C 0.94087 0.96585 0.92802 0.0
C997 C 0.9695 0.97763 0.92371 0.0
C998 C 0.9757 0.97006 0.91077 0.0
C999 C 0.9533 0.95059 0.90215 0.0
H1000 H 0.98685 0.99268 0.93038 0.0
H1001 H 0.7662 0.77657 0.85925 0.0
H1002 H 0.73131 0.53662 0.42426 0.0
H1003 H 0.68118 0.49753 0.42339 0.0
H1004 H 0.69359 0.46184 0.4612 0.0
H1005 H 0.74379 0.50135 0.46224 0.0
H1006 H 0.66484 0.44356 0.41952 0.0
H1007 H 0.62802 0.41998 0.47736 0.0
H1008 H 0.63508 0.44659 0.49936 0.0
H1009 H 0.65486 0.52287 0.47637 0.0
H1010 H 0.64754 0.49663 0.45425 0.0
H1011 H 0.54669 0.30288 0.42359 0.0
H1012 H 0.59244 0.34669 0.4285 0.0
H1013 H 0.54685 0.39053 0.43992 0.0
H1014 H 0.50086 0.3463 0.43553 0.0
H1015 H 0.59058 0.40673 0.45679 0.0
H1016 H 0.57857 0.39887 0.40707 0.0
H1017 H 0.56945 0.37449 0.38426 0.0
H1018 H 0.6445 0.36674 0.38936 0.0
H1019 H 0.65386 0.39075 0.41228 0.0
C1020 C 0.72321 0.52076 0.43254 0.0
C1021 C 0.7415 0.5219 0.44326 0.0
C1022 C 0.69457 0.49838 0.43202 0.0
C1023 C 0.68361 0.47663 0.44218 0.0
C1024 C 0.70143 0.47853 0.45332 0.0
C1025 C 0.73013 0.50112 0.45391 0.0
C1026 C 0.65455 0.45075 0.44032 0.0
C1027 C 0.64861 0.43561 0.42768 0.0
C1028 C 0.63322 0.44045 0.45089 0.0
C1029 C 0.63753 0.45639 0.46414 0.0
C1030 C 0.63379 0.4424 0.477 0.0
C1031 C 0.63785 0.45743 0.4895 0.0
C1032 C 0.64551 0.48643 0.48927 0.0
C1033 C 0.64905 0.50044 0.47654 0.0
C1034 C 0.645 0.48551 0.46402 0.0
C1035 C 0.5464 0.32185 0.42713 0.0
C1036 C 0.5202 0.32128 0.42896 0.0
C1037 C 0.57258 0.3469 0.42994 0.0
C1038 C 0.57316 0.37214 0.4343 0.0
C1039 C 0.54698 0.37138 0.43653 0.0
C1040 C 0.52072 0.34613 0.43395 0.0
C1041 C 0.60107 0.39952 0.43603 0.0
C1042 C 0.60684 0.41481 0.44865 0.0
C1043 C 0.62209 0.41043 0.42532 0.0
C1044 C 0.61678 0.39641 0.41143 0.0
C1045 C 0.59305 0.39184 0.40335 0.0
C1046 C 0.58784 0.3781 0.3904 0.0
C1047 C 0.60635 0.36902 0.38538 0.0
C1048 C 0.63017 0.37376 0.39327 0.0
C1049 C 0.63546 0.38747 0.40623 0.0
H1050 H 0.60227 0.35836 0.37536 0.0
H1051 H 0.64865 0.49802 0.49895 0.0
H1052 H 0.48379 0.23777 0.45712 0.0
H1053 H 0.52345 0.22784 0.4557 0.0
H1054 H 0.48134 0.17011 0.42115 0.0
H1055 H 0.44232 0.18076 0.42223 0.0
H1056 H 0.53278 0.18362 0.45679 0.0
H1057 H 0.5261 0.178 0.39719 0.0
H1058 H 0.5113 0.19691 0.37743 0.0
H1059 H 0.53062 0.27214 0.4013 0.0
H1060 H 0.54483 0.25332 0.42135 0.0
H1061 H 0.63643 0.1475 0.43266 0.0
H1062 H 0.59209 0.14835 0.4371 0.0
H1063 H 0.63111 0.23374 0.41937 0.0
H1064 H 0.6747 0.23234 0.41422 0.0
H1065 H 0.58036 0.2053 0.41044 0.0
H1066 H 0.6221 0.21728 0.45609 0.0
H1067 H 0.6414 0.20367 0.47615 0.0
H1068 H 0.5599 0.12573 0.48134 0.0
H1069 H 0.54029 0.13859 0.46118 0.0
C1070 C 0.48267 0.22237 0.44948 0.0
C1071 C 0.46015 0.21017 0.43971 0.0
C1072 C 0.50538 0.2168 0.44864 0.0
C1073 C 0.50571 0.19879 0.43809 0.0
C1074 C 0.48192 0.18465 0.42914 0.0
C1075 C 0.45952 0.19056 0.42983 0.0
C1076 C 0.53182 0.19662 0.43568 0.0
C1077 C 0.54321 0.18829 0.44667 0.0
C1078 C 0.5457 0.20313 0.42253 0.0
C1079 C 0.53626 0.21414 0.41076 0.0
C1080 C 0.52699 0.19849 0.39824 0.0
C1081 C 0.51858 0.20912 0.38703 0.0
C1082 C 0.51976 0.23559 0.38818 0.0
C1083 C 0.5293 0.25145 0.40054 0.0
C1084 C 0.53738 0.24075 0.41184 0.0
C1085 C 0.63549 0.16642 0.42967 0.0
C1086 C 0.6591 0.18986 0.42309 0.0
C1087 C 0.61019 0.16697 0.43232 0.0
C1088 C 0.60831 0.1913 0.42878 0.0
C1089 C 0.6319 0.21465 0.42217 0.0
C1090 C 0.65687 0.21383 0.41923 0.0
C1091 C 0.58171 0.19246 0.43157 0.0
C1092 C 0.57004 0.2005 0.4206 0.0
C1093 C 0.56814 0.18637 0.44483 0.0
C1094 C 0.57983 0.1788 0.45705 0.0
C1095 C 0.60837 0.19717 0.46147 0.0
C1096 C 0.61936 0.1896 0.47285 0.0
C1097 C 0.6019 0.16386 0.47999 0.0
C1098 C 0.57341 0.14565 0.47579 0.0
C1099 C 0.56235 0.15307 0.46439 0.0
H1100 H 0.61045 0.15804 0.4888 0.0
H1101 H 0.51342 0.24389 0.37946 0.0
H1102 H 0.83583 0.48613 0.44391 0.0
H1103 H 0.83439 0.4406 0.44825 0.0
H1104 H 0.75987 0.39619 0.42167 0.0
H1105 H 0.76102 0.44141 0.41728 0.0
H1106 H 0.75353 0.36771 0.4465 0.0
H1107 H 0.82499 0.41334 0.40986 0.0
H1108 H 0.86992 0.45304 0.39994 0.0
H1109 H 0.91862 0.44488 0.43316 0.0
H1110 H 0.87386 0.40543 0.44345 0.0
H1111 H 0.78893 0.25743 0.41633 0.0
H1112 H 0.80033 0.30707 0.41859 0.0
H1113 H 0.77351 0.29191 0.4617 0.0
H1114 H 0.75977 0.24122 0.45912 0.0
H1115 H 0.83358 0.35264 0.43218 0.0
H1116 H 0.74586 0.3356 0.4706 0.0
H1117 H 0.70015 0.29716 0.48059 0.0
H1118 H 0.68248 0.24805 0.44287 0.0
H1119 H 0.72783 0.2865 0.43248 0.0
C1120 C 0.81914 0.46669 0.43896 0.0
C1121 C 0.79857 0.46747 0.43021 0.0
C1122 C 0.81839 0.44071 0.44146 0.0
C1123 C 0.79705 0.41506 0.43526 0.0
C1124 C 0.77645 0.41574 0.42659 0.0
C1125 C 0.77726 0.44167 0.42403 0.0
C1126 C 0.79611 0.38738 0.43763 0.0
C1127 C 0.77108 0.3644 0.44343 0.0
C1128 C 0.81914 0.38324 0.43379 0.0
C1129 C 0.84606 0.40665 0.4275 0.0
C1130 C 0.84525 0.42014 0.4151 0.0
C1131 C 0.87069 0.44258 0.40941 0.0
C1132 C 0.8971 0.45152 0.41592 0.0
C1133 C 0.89814 0.43797 0.42814 0.0
C1134 C 0.87275 0.41557 0.43391 0.0
C1135 C 0.78518 0.26449 0.42627 0.0
C1136 C 0.77235 0.24504 0.43736 0.0
C1137 C 0.79213 0.29311 0.42762 0.0
C1138 C 0.78701 0.30317 0.4402 0.0
C1139 C 0.77679 0.28448 0.45174 0.0
C1140 C 0.76917 0.25555 0.45029 0.0
C1141 C 0.7905 0.33245 0.44066 0.0
C1142 C 0.81612 0.35591 0.43544 0.0
C1143 C 0.7679 0.33702 0.44498 0.0
C1144 C 0.74039 0.31376 0.45086 0.0
C1145 C 0.73216 0.31663 0.46441 0.0
C1146 C 0.70632 0.29489 0.47012 0.0
C1147 C 0.68847 0.2702 0.46235 0.0
C1148 C 0.69636 0.26723 0.44883 0.0
C1149 C 0.72212 0.289 0.44302 0.0
H1150 H 0.66853 0.25342 0.46681 0.0
H1151 H 0.91677 0.4689 0.41149 0.0
H1152 H 0.66953 0.17983 0.22011 0.0
H1153 H 0.71297 0.22605 0.21504 0.0
H1154 H 0.69765 0.26306 0.25168 0.0
H1155 H 0.65415 0.21731 0.25669 0.0
H1156 H 0.70854 0.29713 0.23019 0.0
H1157 H 0.75066 0.24479 0.25038 0.0
H1158 H 0.76009 0.20458 0.25214 0.0
H1159 H 0.79696 0.22333 0.21104 0.0
H1160 H 0.7874 0.26346 0.20898 0.0
H1161 H 0.86065 0.4085 0.24711 0.0
H1162 H 0.82461 0.35738 0.24479 0.0
H1163 H 0.79462 0.375 0.20648 0.0
H1164 H 0.83079 0.42636 0.20873 0.0
H1165 H 0.80722 0.31252 0.22529 0.0
H1166 H 0.72346 0.34311 0.20956 0.0
H1167 H 0.71447 0.38362 0.21229 0.0
H1168 H 0.76159 0.40733 0.25082 0.0
H1169 H 0.77084 0.36735 0.24827 0.0
C1170 C 0.67554 0.19776 0.22716 0.0
C1171 C 0.65823 0.19489 0.23878 0.0
C1172 C 0.70042 0.22414 0.22424 0.0
C1173 C 0.70857 0.24801 0.23298 0.0
C1174 C 0.69166 0.24499 0.24473 0.0
C1175 C 0.66678 0.21876 0.2476 0.0
C1176 C 0.73405 0.27658 0.22976 0.0
C1177 C 0.73001 0.30031 0.22892 0.0
C1178 C 0.76217 0.28091 0.22821 0.0
C1179 C 0.768 0.25689 0.22946 0.0
C1180 C 0.76056 0.24018 0.24168 0.0
C1181 C 0.76597 0.21744 0.24274 0.0
C1182 C 0.77903 0.21134 0.23169 0.0
C1183 C 0.78679 0.22804 0.21958 0.0
C1184 C 0.7814 0.25079 0.21846 0.0
C1185 C 0.84674 0.40143 0.23805 0.0
C1186 C 0.84825 0.42146 0.2282 0.0
C1187 C 0.82634 0.37216 0.23667 0.0
C1188 C 0.80688 0.36243 0.22551 0.0
C1189 C 0.80947 0.38212 0.21518 0.0
C1190 C 0.83011 0.41143 0.21649 0.0
C1191 C 0.78152 0.3328 0.22587 0.0
C1192 C 0.78556 0.309 0.22614 0.0
C1193 C 0.75338 0.32828 0.22727 0.0
C1194 C 0.7481 0.35256 0.22864 0.0
C1195 C 0.73193 0.35712 0.21857 0.0
C1196 C 0.72683 0.38003 0.22008 0.0
C1197 C 0.73759 0.3982 0.23168 0.0
C1198 C 0.75347 0.39355 0.24177 0.0
C1199 C 0.7587 0.37082 0.24029 0.0
H1200 H 0.73349 0.41574 0.23292 0.0
H1201 H 0.78321 0.19373 0.23253 0.0
H1202 H 0.76864 0.44954 0.26142 0.0
H1203 H 0.72363 0.44771 0.25621 0.0
H1204 H 0.76725 0.51509 0.2256 0.0
H1205 H 0.81177 0.51474 0.22976 0.0
H1206 H 0.70264 0.47759 0.25866 0.0
H1207 H 0.72594 0.51574 0.20169 0.0
H1208 H 0.75322 0.51393 0.18134 0.0
H1209 H 0.74451 0.43475 0.19639 0.0
H1210 H 0.71673 0.43598 0.21665 0.0
H1211 H 0.58209 0.48617 0.24145 0.0
H1212 H 0.63311 0.50079 0.24263 0.0
H1213 H 0.61783 0.43204 0.21427 0.0
H1214 H 0.56716 0.41853 0.21246 0.0
H1215 H 0.66923 0.47354 0.2101 0.0
H1216 H 0.61671 0.42314 0.25097 0.0
H1217 H 0.58532 0.41269 0.27155 0.0
H1218 H 0.64426 0.49624 0.28844 0.0
H1219 H 0.67615 0.50711 0.26801 0.0
C1220 C 0.76858 0.46355 0.25336 0.0
C1221 C 0.79362 0.48143 0.24564 0.0
C1222 C 0.7428 0.46283 0.25052 0.0
C1223 C 0.74155 0.48067 0.24018 0.0
C1224 C 0.7671 0.50012 0.23317 0.0
C1225 C 0.79274 0.5002 0.23571 0.0
C1226 C 0.71348 0.47868 0.2369 0.0
C1227 C 0.69551 0.47676 0.24801 0.0
C1228 C 0.70361 0.47721 0.22305 0.0
C1229 C 0.71986 0.47624 0.21079 0.0
C1230 C 0.72986 0.49797 0.20062 0.0
C1231 C 0.74536 0.49704 0.1891 0.0
C1232 C 0.75076 0.47434 0.18762 0.0
C1233 C 0.74051 0.45243 0.1976 0.0
C1234 C 0.72497 0.45327 0.20911 0.0
C1235 C 0.58992 0.47484 0.23513 0.0
C1236 C 0.57084 0.45129 0.22686 0.0
C1237 C 0.61897 0.48298 0.23592 0.0
C1238 C 0.62919 0.46699 0.22887 0.0
C1239 C 0.6105 0.44468 0.21985 0.0
C1240 C 0.58156 0.43701 0.21877 0.0
C1241 C 0.65841 0.47178 0.23186 0.0
C1242 C 0.67659 0.47453 0.22072 0.0
C1243 C 0.66785 0.47233 0.24569 0.0
C1244 C 0.64863 0.46606 0.25791 0.0
C1245 C 0.62288 0.43934 0.25904 0.0
C1246 C 0.60504 0.43332 0.27068 0.0
C1247 C 0.61268 0.45386 0.28124 0.0
C1248 C 0.63832 0.48039 0.28023 0.0
C1249 C 0.65634 0.48646 0.26865 0.0
H1250 H 0.59879 0.44916 0.29023 0.0
H1251 H 0.76278 0.47367 0.1787 0.0
H1252 H 0.56868 0.36125 0.25124 0.0
H1253 H 0.57402 0.31949 0.24675 0.0
H1254 H 0.4904 0.27572 0.22711 0.0
H1255 H 0.48523 0.31766 0.23121 0.0
H1256 H 0.54617 0.26681 0.25534 0.0
H1257 H 0.48821 0.23108 0.20169 0.0
H1258 H 0.48053 0.25327 0.18089 0.0
H1259 H 0.55772 0.33332 0.19006 0.0
H1260 H 0.56608 0.31151 0.21078 0.0
H1261 H 0.51892 0.12737 0.24354 0.0
H1262 H 0.51123 0.16837 0.24473 0.0
H1263 H 0.57059 0.20878 0.21052 0.0
H1264 H 0.57723 0.16709 0.20889 0.0
H1265 H 0.5304 0.22151 0.2086 0.0
H1266 H 0.59217 0.22572 0.24554 0.0
H1267 H 0.60649 0.20775 0.26583 0.0
H1268 H 0.53372 0.19816 0.28892 0.0
H1269 H 0.51884 0.21594 0.26875 0.0
C1270 C 0.55141 0.34275 0.24596 0.0
C1271 C 0.52654 0.34285 0.24157 0.0
C1272 C 0.5545 0.31886 0.24341 0.0
C1273 C 0.53278 0.29454 0.23644 0.0
C1274 C 0.50773 0.29442 0.23224 0.0
C1275 C 0.50474 0.3184 0.23466 0.0
C1276 C 0.53608 0.26911 0.23383 0.0
C1277 C 0.54273 0.25695 0.24511 0.0
C1278 C 0.53222 0.25652 0.22043 0.0
C1279 C 0.52758 0.26971 0.20787 0.0
C1280 C 0.5036 0.25338 0.19923 0.0
C1281 C 0.49913 0.2659 0.18746 0.0
C1282 C 0.51858 0.29471 0.18418 0.0
C1283 C 0.54261 0.31103 0.19263 0.0
C1284 C 0.54721 0.29861 0.2044 0.0
C1285 C 0.52981 0.14473 0.23608 0.0
C1286 C 0.54874 0.14414 0.22616 0.0
C1287 C 0.52561 0.16827 0.23684 0.0
C1288 C 0.54097 0.19209 0.22798 0.0
C1289 C 0.55861 0.19076 0.21752 0.0
C1290 C 0.56234 0.1669 0.21657 0.0
C1291 C 0.53995 0.21894 0.23017 0.0
C1292 C 0.53378 0.23137 0.21882 0.0
C1293 C 0.54522 0.23241 0.24342 0.0
C1294 C 0.55426 0.22194 0.2556 0.0
C1295 C 0.57914 0.21964 0.25492 0.0
C1296 C 0.58736 0.2095 0.26639 0.0
C1297 C 0.57097 0.2017 0.27862 0.0
C1298 C 0.54638 0.20417 0.27943 0.0
C1299 C 0.53807 0.21433 0.268 0.0
H1300 H 0.57737 0.19382 0.28748 0.0
H1301 H 0.51505 0.30437 0.17507 0.0
H1302 H 0.21871 0.63671 0.75126 0.0
H1303 H 0.26595 0.67893 0.75568 0.0
H1304 H 0.22937 0.70602 0.78827 0.0
H1305 H 0.18182 0.6643 0.7836 0.0
H1306 H 0.26283 0.74987 0.77329 0.0
H1307 H 0.27219 0.67566 0.7949 0.0
H1308 H 0.2703 0.62906 0.7969 0.0
H1309 H 0.33484 0.65477 0.765 0.0
H1310 H 0.33665 0.70129 0.76255 0.0
H1311 H 0.42802 0.83315 0.79259 0.0
H1312 H 0.37907 0.79173 0.79525 0.0
H1313 H 0.35508 0.81223 0.7559 0.0
H1314 H 0.40358 0.85373 0.75331 0.0
H1315 H 0.35165 0.74457 0.77893 0.0
H1316 H 0.28551 0.79363 0.75635 0.0
H1317 H 0.28697 0.8402 0.75631 0.0
H1318 H 0.3353 0.86422 0.79446 0.0
H1319 H 0.33378 0.81765 0.79483 0.0
C1320 C 0.22067 0.65162 0.75938 0.0
C1321 C 0.19641 0.64714 0.76704 0.0
C1322 C 0.24779 0.67566 0.76198 0.0
C1323 C 0.25137 0.69548 0.77246 0.0
C1324 C 0.22719 0.69103 0.78014 0.0
C1325 C 0.19998 0.66715 0.77744 0.0
C1326 C 0.28005 0.72152 0.77497 0.0
C1327 C 0.28219 0.74863 0.7746 0.0
C1328 C 0.30533 0.71997 0.777 0.0
C1329 C 0.30436 0.69195 0.77846 0.0
C1330 C 0.2858 0.67131 0.78821 0.0
C1331 C 0.28475 0.6449 0.78943 0.0
C1332 C 0.30238 0.63893 0.78106 0.0
C1333 C 0.32115 0.6594 0.77146 0.0
C1334 C 0.32218 0.68581 0.77015 0.0
C1335 C 0.41212 0.82914 0.78465 0.0
C1336 C 0.41965 0.84665 0.77271 0.0
C1337 C 0.38425 0.80534 0.78613 0.0
C1338 C 0.36339 0.79891 0.7758 0.0
C1339 C 0.3707 0.81692 0.76409 0.0
C1340 C 0.3985 0.84057 0.76258 0.0
C1341 C 0.33433 0.77273 0.7768 0.0
C1342 C 0.33216 0.74566 0.77779 0.0
C1343 C 0.30893 0.77422 0.77563 0.0
C1344 C 0.30971 0.80221 0.77555 0.0
C1345 C 0.29633 0.80879 0.76476 0.0
C1346 C 0.29719 0.8352 0.76468 0.0
C1347 C 0.31129 0.85518 0.77536 0.0
C1348 C 0.32448 0.84876 0.78616 0.0
C1349 C 0.32366 0.82238 0.78631 0.0
H1350 H 0.31194 0.87562 0.77527 0.0
H1351 H 0.30154 0.61847 0.78202 0.0
H1352 H 0.34051 0.55954 0.74999 0.0
H1353 H 0.29721 0.56017 0.75651 0.0
H1354 H 0.27036 0.48513 0.78234 0.0
H1355 H 0.31484 0.48552 0.7765 0.0
H1356 H 0.24549 0.52602 0.7515 0.0
H1357 H 0.22509 0.47943 0.80659 0.0
H1358 H 0.25217 0.47809 0.82705 0.0
H1359 H 0.32401 0.56071 0.81579 0.0
H1360 H 0.29704 0.56258 0.79542 0.0
H1361 H 0.11067 0.50561 0.76743 0.0
H1362 H 0.14915 0.49408 0.7668 0.0
H1363 H 0.19911 0.56377 0.79549 0.0
H1364 H 0.15995 0.57439 0.79666 0.0
H1365 H 0.21041 0.52214 0.79978 0.0
H1366 H 0.21093 0.57561 0.75863 0.0
H1367 H 0.19076 0.58524 0.73757 0.0
H1368 H 0.16638 0.50145 0.72147 0.0
H1369 H 0.18712 0.49163 0.74222 0.0
C1370 C 0.32568 0.54342 0.75723 0.0
C1371 C 0.33141 0.52275 0.76284 0.0
C1372 C 0.3007 0.54363 0.76088 0.0
C1373 C 0.28052 0.52291 0.77008 0.0
C1374 C 0.28588 0.50185 0.77554 0.0
C1375 C 0.31122 0.50193 0.77205 0.0
C1376 C 0.25344 0.5229 0.77328 0.0
C1377 C 0.23791 0.5251 0.76209 0.0
C1378 C 0.24331 0.52176 0.78705 0.0
C1379 C 0.25935 0.52093 0.79938 0.0
C1380 C 0.24665 0.49729 0.80851 0.0
C1381 C 0.26194 0.49644 0.82009 0.0
C1382 C 0.28986 0.51922 0.82268 0.0
C1383 C 0.30247 0.54298 0.81373 0.0
C1384 C 0.28724 0.54392 0.80215 0.0
C1385 C 0.12947 0.51779 0.77396 0.0
C1386 C 0.13242 0.54084 0.78209 0.0
C1387 C 0.15156 0.51141 0.77349 0.0
C1388 C 0.17737 0.52859 0.78078 0.0
C1389 C 0.17944 0.55027 0.78973 0.0
C1390 C 0.15702 0.55626 0.79045 0.0
C1391 C 0.20304 0.52584 0.77801 0.0
C1392 C 0.21805 0.52288 0.78923 0.0
C1393 C 0.21336 0.52723 0.76428 0.0
C1394 C 0.20022 0.53277 0.75201 0.0
C1395 C 0.2011 0.5592 0.75062 0.0
C1396 C 0.18968 0.56473 0.73874 0.0
C1397 C 0.17702 0.54387 0.72828 0.0
C1398 C 0.17608 0.51754 0.7296 0.0
C1399 C 0.18782 0.51205 0.74137 0.0
H1400 H 0.16809 0.54817 0.71913 0.0
H1401 H 0.30167 0.51852 0.83164 0.0
H1402 H 0.51235 0.81939 0.77529 0.0
H1403 H 0.51121 0.77493 0.782 0.0
H1404 H 0.44974 0.72897 0.74931 0.0
H1405 H 0.45043 0.77295 0.74266 0.0
H1406 H 0.43166 0.70168 0.77354 0.0
H1407 H 0.51968 0.74618 0.74664 0.0
H1408 H 0.56901 0.78472 0.74077 0.0
H1409 H 0.59863 0.77625 0.78105 0.0
H1410 H 0.54933 0.7379 0.78723 0.0
H1411 H 0.46789 0.59007 0.75355 0.0
H1412 H 0.48169 0.64052 0.75586 0.0
H1413 H 0.44402 0.62374 0.79699 0.0
H1414 H 0.42892 0.57255 0.79448 0.0
H1415 H 0.51417 0.68492 0.77404 0.0
H1416 H 0.41333 0.64619 0.80014 0.0
H1417 H 0.36131 0.60998 0.80143 0.0
H1418 H 0.35595 0.60894 0.75675 0.0
H1419 H 0.40806 0.64402 0.75523 0.0
C1420 C 0.49884 0.79988 0.76943 0.0
C1421 C 0.48129 0.79969 0.7585 0.0
C1422 C 0.49826 0.77452 0.77328 0.0
C1423 C 0.48029 0.74865 0.7662 0.0
C1424 C 0.46357 0.74867 0.75499 0.0
C1425 C 0.46405 0.77388 0.75118 0.0
C1426 C 0.47751 0.72104 0.77072 0.0
C1427 C 0.44984 0.6982 0.77386 0.0
C1428 C 0.50116 0.71646 0.77118 0.0
C1429 C 0.53077 0.73946 0.76747 0.0
C1430 C 0.53666 0.75273 0.7543 0.0
C1431 C 0.56462 0.77449 0.7509 0.0
C1432 C 0.58692 0.783 0.76055 0.0
C1433 C 0.58132 0.76969 0.7736 0.0
C1434 C 0.55338 0.74793 0.77705 0.0
C1435 C 0.46266 0.59709 0.76314 0.0
C1436 C 0.44677 0.57723 0.77371 0.0
C1437 C 0.47074 0.62601 0.76448 0.0
C1438 C 0.46326 0.63578 0.77645 0.0
C1439 C 0.44928 0.61648 0.7875 0.0
C1440 C 0.44099 0.58733 0.78613 0.0
C1441 C 0.4682 0.66551 0.77659 0.0
C1442 C 0.49624 0.68879 0.77429 0.0
C1443 C 0.44485 0.67054 0.7766 0.0
C1444 C 0.41455 0.64703 0.77757 0.0
C1445 C 0.40113 0.63757 0.79061 0.0
C1446 C 0.37166 0.61727 0.79138 0.0
C1447 C 0.35544 0.6069 0.77917 0.0
C1448 C 0.36864 0.61652 0.76618 0.0
C1449 C 0.39814 0.63639 0.76536 0.0
H1450 H 0.33258 0.59172 0.77975 0.0
H1451 H 0.60856 0.79984 0.7579 0.0
H1452 H 0.53801 0.73525 0.5734 0.0
H1453 H 0.50045 0.68444 0.57295 0.0
H1454 H 0.46616 0.69858 0.53513 0.0
H1455 H 0.50383 0.7496 0.53551 0.0
H1456 H 0.4446 0.66736 0.57562 0.0
H1457 H 0.42883 0.63283 0.51759 0.0
H1458 H 0.45802 0.6423 0.49627 0.0
H1459 H 0.5326 0.6639 0.52111 0.0
H1460 H 0.50378 0.65418 0.54257 0.0
H1461 H 0.30572 0.54917 0.56539 0.0
H1462 H 0.35003 0.59488 0.56071 0.0
H1463 H 0.39738 0.55003 0.55789 0.0
H1464 H 0.35297 0.50421 0.56285 0.0
H1465 H 0.41474 0.59446 0.53791 0.0
H1466 H 0.39848 0.58034 0.58736 0.0
H1467 H 0.37067 0.57055 0.60917 0.0
H1468 H 0.36376 0.64572 0.60259 0.0
H1469 H 0.39101 0.65563 0.58058 0.0
C1470 C 0.52278 0.72746 0.56485 0.0
C1471 C 0.52361 0.74648 0.5546 0.0
C1472 C 0.50135 0.69841 0.56461 0.0
C1473 C 0.48041 0.68774 0.55407 0.0
C1474 C 0.48225 0.70628 0.54331 0.0
C1475 C 0.50378 0.73544 0.54354 0.0
C1476 C 0.45503 0.65823 0.55526 0.0
C1477 C 0.43817 0.65143 0.56738 0.0
C1478 C 0.44668 0.6374 0.54453 0.0
C1479 C 0.46418 0.64304 0.53169 0.0
C1480 C 0.45143 0.6395 0.5185 0.0
C1481 C 0.46792 0.64492 0.5064 0.0
C1482 C 0.49717 0.65378 0.50734 0.0
C1483 C 0.50997 0.65715 0.5204 0.0
C1484 C 0.49358 0.65174 0.53254 0.0
C1485 C 0.32565 0.54918 0.5639 0.0
C1486 C 0.3262 0.52345 0.56498 0.0
C1487 C 0.35084 0.57517 0.56106 0.0
C1488 C 0.37705 0.57587 0.5592 0.0
C1489 C 0.37736 0.54992 0.55936 0.0
C1490 C 0.35205 0.52383 0.56222 0.0
C1491 C 0.40432 0.60393 0.55819 0.0
C1492 C 0.42135 0.61045 0.54613 0.0
C1493 C 0.41306 0.62456 0.56903 0.0
C1494 C 0.39659 0.61859 0.58226 0.0
C1495 C 0.39081 0.59464 0.5905 0.0
C1496 C 0.37519 0.5891 0.60291 0.0
C1497 C 0.36549 0.60752 0.60727 0.0
C1498 C 0.37136 0.63151 0.59922 0.0
C1499 C 0.38685 0.63708 0.58676 0.0
H1500 H 0.35338 0.60318 0.61687 0.0
H1501 H 0.5099 0.65798 0.49795 0.0
H1502 H 0.22843 0.73185 0.54917 0.0
H1503 H 0.27746 0.73951 0.54854 0.0
H1504 H 0.30568 0.81033 0.57738 0.0
H1505 H 0.25638 0.80189 0.57855 0.0
H1506 H 0.34224 0.81246 0.54891 0.0
H1507 H 0.29631 0.76436 0.5933 0.0
H1508 H 0.25791 0.7251 0.60715 0.0
H1509 H 0.27085 0.66307 0.58506 0.0
H1510 H 0.30867 0.70191 0.57072 0.0
H1511 H 0.47846 0.83923 0.57188 0.0
H1512 H 0.43086 0.83407 0.56915 0.0
H1513 H 0.39276 0.74172 0.56555 0.0
H1514 H 0.44002 0.74685 0.56941 0.0
H1515 H 0.35964 0.74927 0.57999 0.0
H1516 H 0.40429 0.79089 0.53663 0.0
H1517 H 0.44178 0.82572 0.52069 0.0
H1518 H 0.4304 0.89358 0.53715 0.0
H1519 H 0.39309 0.85923 0.55332 0.0
C1520 C 0.2453 0.74955 0.55506 0.0
C1521 C 0.23886 0.76656 0.56378 0.0
C1522 C 0.27316 0.75373 0.55478 0.0
C1523 C 0.295 0.77539 0.56295 0.0
C1524 C 0.28901 0.79353 0.571 0.0
C1525 C 0.26099 0.7888 0.57162 0.0
C1526 C 0.3236 0.77796 0.56384 0.0
C1527 C 0.34628 0.79888 0.55577 0.0
C1528 C 0.32832 0.75938 0.57237 0.0
C1529 C 0.30492 0.73602 0.58073 0.0
C1530 C 0.29055 0.74232 0.59117 0.0
C1531 C 0.26899 0.72014 0.59917 0.0
C1532 C 0.26184 0.69159 0.59694 0.0
C1533 C 0.27634 0.68518 0.58675 0.0
C1534 C 0.29774 0.70725 0.57864 0.0
C1535 C 0.45983 0.81789 0.57051 0.0
C1536 C 0.46275 0.79343 0.57089 0.0
C1537 C 0.43265 0.81492 0.5688 0.0
C1538 C 0.40806 0.78751 0.56684 0.0
C1539 C 0.41121 0.76311 0.56708 0.0
C1540 C 0.43822 0.76602 0.56926 0.0
C1541 C 0.37894 0.78408 0.56508 0.0
C1542 C 0.35594 0.76289 0.573 0.0
C1543 C 0.37376 0.8018 0.55603 0.0
C1544 C 0.39607 0.82252 0.54627 0.0
C1545 C 0.40992 0.81328 0.53691 0.0
C1546 C 0.43111 0.83292 0.52783 0.0
C1547 C 0.43851 0.86184 0.52793 0.0
C1548 C 0.42467 0.87117 0.53709 0.0
C1549 C 0.40347 0.85162 0.54621 0.0
H1550 H 0.45491 0.877 0.5209 0.0
H1551 H 0.24513 0.67445 0.60314 0.0
H1552 H 0.2537 0.49293 0.5439 0.0
H1553 H 0.2451 0.53361 0.54418 0.0
H1554 H 0.17047 0.48487 0.57032 0.0
H1555 H 0.17985 0.44468 0.57062 0.0
H1556 H 0.1684 0.52139 0.54473 0.0
H1557 H 0.21744 0.52158 0.58724 0.0
H1558 H 0.25596 0.52251 0.60146 0.0
H1559 H 0.31831 0.60195 0.58212 0.0
H1560 H 0.28032 0.60095 0.56741 0.0
H1561 H 0.1446 0.62927 0.57481 0.0
H1562 H 0.14865 0.58714 0.56877 0.0
H1563 H 0.23927 0.64315 0.55998 0.0
H1564 H 0.23531 0.68498 0.56651 0.0
H1565 H 0.23336 0.60246 0.5757 0.0
H1566 H 0.18663 0.60512 0.53394 0.0
H1567 H 0.14931 0.60675 0.51977 0.0
H1568 H 0.08482 0.5256 0.53687 0.0
H1569 H 0.1217 0.52366 0.5513 0.0
C1570 C 0.235 0.49064 0.54935 0.0
C1571 C 0.21715 0.46565 0.55709 0.0
C1572 C 0.23026 0.5139 0.5496 0.0
C1573 C 0.20722 0.51214 0.5573 0.0
C1574 C 0.1883 0.4865 0.56429 0.0
C1575 C 0.19358 0.4636 0.56442 0.0
C1576 C 0.20415 0.53776 0.55895 0.0
C1577 C 0.18242 0.53911 0.55155 0.0
C1578 C 0.22298 0.56104 0.56761 0.0
C1579 C 0.24607 0.5608 0.57596 0.0
C1580 C 0.23944 0.53886 0.58575 0.0
C1581 C 0.26118 0.53951 0.59398 0.0
C1582 C 0.28958 0.56222 0.59267 0.0
C1583 C 0.29631 0.58437 0.58314 0.0
C1584 C 0.27471 0.58366 0.57478 0.0
C1585 C 0.16523 0.63244 0.57143 0.0
C1586 C 0.18977 0.66012 0.57132 0.0
C1587 C 0.16754 0.60844 0.5679 0.0
C1588 C 0.19427 0.61191 0.56385 0.0
C1589 C 0.21847 0.63984 0.56316 0.0
C1590 C 0.21625 0.66369 0.56693 0.0
C1591 C 0.19766 0.5865 0.56139 0.0
C1592 C 0.21945 0.58504 0.56871 0.0
C1593 C 0.17912 0.56337 0.55252 0.0
C1594 C 0.1569 0.56438 0.5438 0.0
C1595 C 0.16446 0.58772 0.53476 0.0
C1596 C 0.14339 0.58868 0.52667 0.0
C1597 C 0.11471 0.56633 0.52745 0.0
C1598 C 0.10705 0.54292 0.53629 0.0
C1599 C 0.12803 0.54186 0.54442 0.0
H1600 H 0.09842 0.56712 0.52118 0.0
H1601 H 0.30635 0.56263 0.59904 0.0
H1602 H 0.16444 0.24175 0.03624 0.0
H1603 H 0.19079 0.24354 0.01524 0.0
H1604 H 0.26404 0.25948 0.04011 0.0
H1605 H 0.23759 0.25769 0.06142 0.0
H1606 H 0.27262 0.28827 0.00925 0.0
H1607 H 0.2318 0.19843 0.03581 0.0
H1608 H 0.1927 0.15995 0.04976 0.0
H1609 H 0.13397 0.13946 0.0156 0.0
H1610 H 0.17265 0.1782 0.00154 0.0
H1611 H 0.26631 0.16664 0.95958 0.0
H1612 H 0.27064 0.18945 0.98216 0.0
H1613 H 0.25409 0.25184 0.96267 0.0
H1614 H 0.25072 0.22949 0.93988 0.0
H1615 H 0.22548 0.18666 0.99313 0.0
H1616 H 0.2747 0.30988 0.98471 0.0
H1617 H 0.31361 0.34932 0.97111 0.0
H1618 H 0.35895 0.30281 0.96917 0.0
H1619 H 0.32054 0.26328 0.98292 0.0
C1620 C 0.18645 0.24643 0.03727 0.0
C1621 C 0.19877 0.24907 0.0505 0.0
C1622 C 0.20154 0.24768 0.02523 0.0
C1623 C 0.22923 0.25149 0.02615 0.0
C1624 C 0.24273 0.25675 0.03922 0.0
C1625 C 0.22757 0.25561 0.05137 0.0
C1626 C 0.24097 0.24419 0.01386 0.0
C1627 C 0.26269 0.2661 0.00572 0.0
C1628 C 0.22808 0.21522 0.00941 0.0
C1629 C 0.20504 0.19132 0.01767 0.0
C1630 C 0.2105 0.18582 0.03131 0.0
C1631 C 0.18843 0.16397 0.03924 0.0
C1632 C 0.16085 0.1473 0.03358 0.0
C1633 C 0.15533 0.15239 0.01997 0.0
C1634 C 0.17733 0.17427 0.01201 0.0
C1635 C 0.26464 0.18587 0.96005 0.0
C1636 C 0.25803 0.19624 0.94803 0.0
C1637 C 0.26704 0.19885 0.97296 0.0
C1638 C 0.26243 0.22221 0.97418 0.0
C1639 C 0.25807 0.23406 0.96201 0.0
C1640 C 0.25613 0.22128 0.94898 0.0
C1641 C 0.2574 0.23072 0.98822 0.0
C1642 C 0.2363 0.20888 0.99667 0.0
C1643 C 0.27122 0.25969 0.99293 0.0
C1644 C 0.29458 0.28349 0.98476 0.0
C1645 C 0.29303 0.30812 0.98144 0.0
C1646 C 0.31499 0.33049 0.97369 0.0
C1647 C 0.3387 0.32854 0.96924 0.0
C1648 C 0.34052 0.30425 0.97257 0.0
C1649 C 0.31863 0.28183 0.98032 0.0
H1650 H 0.35567 0.34587 0.96324 0.0
H1651 H 0.14378 0.13042 0.03974 0.0
H1652 H 0.79065 0.98729 0.94043 0.0
H1653 H 0.76795 0.97063 0.9633 0.0
H1654 H 0.78655 0.05678 0.97312 0.0
H1655 H 0.81032 0.07352 0.95043 0.0
H1656 H 0.80565 0.0394 0.99269 0.0
H1657 H 0.71501 0.99705 0.97013 0.0
H1658 H 0.67802 0.96881 0.95248 0.0
H1659 H 0.67798 0.89221 0.96499 0.0
H1660 H 0.71527 0.92006 0.9826 0.0
H1661 H 0.75391 0.98605 0.061 0.0
H1662 H 0.75183 0.00449 0.03786 0.0
H1663 H 0.75375 0.93304 0.01852 0.0
H1664 H 0.75596 0.91469 0.04141 0.0
H1665 H 0.71694 0.94766 0.00475 0.0
H1666 H 0.81491 0.99379 0.02334 0.0
H1667 H 0.8521 0.0222 0.04092 0.0
H1668 H 0.8369 0.09261 0.0355 0.0
H1669 H 0.79931 0.06441 0.01802 0.0
C1670 C 0.78891 0.00233 0.94732 0.0
C1671 C 0.80174 0.0315 0.94371 0.0
C1672 C 0.7759 0.99285 0.96039 0.0
C1673 C 0.77524 0.01238 0.96997 0.0
C1674 C 0.7867 0.04128 0.96595 0.0
C1675 C 0.80006 0.0508 0.95297 0.0
C1676 C 0.76628 0.0035 0.98468 0.0
C1677 C 0.78579 0.01975 0.99531 0.0
C1678 C 0.74062 0.97765 0.9882 0.0
C1679 C 0.71809 0.96072 0.97765 0.0
C1680 C 0.70727 0.97423 0.96907 0.0
C1681 C 0.68621 0.95827 0.95907 0.0
C1682 C 0.67568 0.92874 0.95761 0.0
C1683 C 0.68615 0.91509 0.96615 0.0
C1684 C 0.70721 0.93094 0.97615 0.0
C1685 C 0.75329 0.97401 0.05181 0.0
C1686 C 0.75547 0.94913 0.05301 0.0
C1687 C 0.75214 0.98456 0.03862 0.0
C1688 C 0.75284 0.9702 0.02649 0.0
C1689 C 0.75312 0.94441 0.02774 0.0
C1690 C 0.75462 0.93409 0.04084 0.0
C1691 C 0.75655 0.98331 0.01249 0.0
C1692 C 0.73624 0.96777 0.00206 0.0
C1693 C 0.78137 0.00989 0.00911 0.0
C1694 C 0.80407 0.02688 0.01953 0.0
C1695 C 0.81935 0.01525 0.02599 0.0
C1696 C 0.84052 0.03132 0.03591 0.0
C1697 C 0.84679 0.05916 0.03936 0.0
C1698 C 0.83197 0.07102 0.03285 0.0
C1699 C 0.81073 0.05501 0.02293 0.0
H1700 H 0.86319 0.07157 0.04705 0.0
H1701 H 0.65939 0.91643 0.94986 0.0
H1702 H 0.99156 0.76841 0.945 0.0
H1703 H 0.00667 0.76575 0.96871 0.0
H1704 H 0.91774 0.72201 0.98217 0.0
H1705 H 0.90305 0.72672 0.95868 0.0
H1706 H 0.94468 0.76172 0.9987 0.0
H1707 H 0.96394 0.69013 0.9819 0.0
H1708 H 0.98315 0.66744 0.96624 0.0
H1709 H 0.06952 0.73555 0.97475 0.0
H1710 H 0.05085 0.75889 0.99032 0.0
H1711 H 0.99482 0.77095 0.06772 0.0
H1712 H 0.97311 0.7439 0.0461 0.0
H1713 H 0.04983 0.803 0.02333 0.0
H1714 H 0.07124 0.83015 0.0447 0.0
H1715 H 0.02292 0.74445 0.01346 0.0
H1716 H -9e-05 0.81921 0.0259 0.0
H1717 H 0.98019 0.84083 0.04196 0.0
H1718 H 0.89825 0.76212 0.04179 0.0
H1719 H 0.91768 0.73992 0.02588 0.0
C1720 C 0.97527 0.75756 0.95298 0.0
C1721 C 0.9462 0.74775 0.95009 0.0
C1722 C 0.98385 0.75586 0.96654 0.0
C1723 C 0.96337 0.74344 0.97735 0.0
C1724 C 0.93405 0.73185 0.97413 0.0
C1725 C 0.92561 0.73438 0.96069 0.0
C1726 C 0.97268 0.74593 0.99219 0.0
C1727 C 0.96117 0.75701 0.00192 0.0
C1728 C 0.99456 0.74034 0.99656 0.0
C1729 C 0.00595 0.72635 0.98723 0.0
C1730 C 0.98703 0.70038 0.98037 0.0
C1731 C 0.99782 0.68738 0.97152 0.0
C1732 C 0.02753 0.70007 0.96949 0.0
C1733 C 0.04651 0.72575 0.97634 0.0
C1734 C 0.03583 0.73885 0.9852 0.0
C1735 C 0.00732 0.77753 0.05817 0.0
C1736 C 0.03454 0.80274 0.05781 0.0
C1737 C 0.99492 0.76213 0.04585 0.0
C1738 C 0.00984 0.77161 0.03311 0.0
C1739 C 0.03801 0.79527 0.03303 0.0
C1740 C 0.05014 0.81086 0.04524 0.0
C1741 C 0.99498 0.76026 0.01961 0.0
C1742 C 0.00567 0.74797 0.01017 0.0
C1743 C 0.97208 0.76431 0.01549 0.0
C1744 C 0.96032 0.77782 0.02485 0.0
C1745 C 0.97775 0.80648 0.02937 0.0
C1746 C 0.96663 0.81883 0.03843 0.0
C1747 C 0.93801 0.80283 0.04293 0.0
C1748 C 0.92043 0.77447 0.03833 0.0
C1749 C 0.93148 0.76199 0.02929 0.0
H1750 H 0.92944 0.81242 0.04996 0.0
H1751 H 0.03584 0.68997 0.96263 0.0
H1752 H 0.8904 0.56184 0.27901 0.0
H1753 H 0.89674 0.58261 0.3024 0.0
H1754 H 0.92886 0.5282 0.31692 0.0
H1755 H 0.92085 0.50636 0.2938 0.0
H1756 H 0.88885 0.52052 0.33274 0.0
H1757 H 0.97084 0.60557 0.31636 0.0
H1758 H 1e-05 0.64666 0.30076 0.0
H1759 H 0.94329 0.67954 0.30836 0.0
H1760 H 0.9135 0.63841 0.32386 0.0
H1761 H 0.89105 0.56679 0.40154 0.0
H1762 H 0.91615 0.56961 0.37964 0.0
H1763 H 0.86298 0.59562 0.35789 0.0
H1764 H 0.83748 0.59212 0.37959 0.0
H1765 H 0.92288 0.62124 0.34734 0.0
H1766 H 0.83743 0.5293 0.36038 0.0
H1767 H 0.81027 0.48849 0.37645 0.0
H1768 H 0.87849 0.46914 0.37503 0.0
H1769 H 0.90637 0.51037 0.35927 0.0
C1770 C 0.89966 0.55507 0.28712 0.0
C1771 C 0.9051 0.53255 0.28469 0.0
C1772 C 0.90339 0.56698 0.3005 0.0
C1773 C 0.91332 0.55703 0.31152 0.0
C1774 C 0.92096 0.53613 0.30869 0.0
C1775 C 0.91654 0.52376 0.29546 0.0
C1776 C 0.91176 0.56511 0.32624 0.0
C1777 C 0.89711 0.5427 0.33594 0.0
C1778 C 0.92199 0.59394 0.33053 0.0
C1779 C 0.9398 0.61876 0.32121 0.0
C1780 C 0.96444 0.62143 0.31463 0.0
C1781 C 0.98112 0.64476 0.30581 0.0
C1782 C 0.97348 0.66567 0.30355 0.0
C1783 C 0.94917 0.66332 0.31012 0.0
C1784 C 0.9324 0.64002 0.31894 0.0
C1785 C 0.88554 0.57417 0.39218 0.0
C1786 C 0.86227 0.57906 0.39217 0.0
C1787 C 0.89984 0.57575 0.37969 0.0
C1788 C 0.89127 0.58268 0.36715 0.0
C1789 C 0.87 0.59039 0.36745 0.0
C1790 C 0.85536 0.58824 0.37983 0.0
C1791 C 0.90013 0.57668 0.35352 0.0
C1792 C 0.91563 0.5993 0.34407 0.0
C1793 C 0.89112 0.54809 0.34944 0.0
C1794 C 0.87418 0.52318 0.35884 0.0
C1795 C 0.84678 0.51656 0.36364 0.0
C1796 C 0.83124 0.49334 0.37269 0.0
C1797 C 0.84271 0.47632 0.37684 0.0
C1798 C 0.86969 0.48244 0.3719 0.0
C1799 C 0.88539 0.50575 0.36292 0.0
H1800 H 0.83064 0.45833 0.38383 0.0
H1801 H 0.98642 0.68371 0.29672 0.0
H1802 H 0.48096 0.4245 0.29229 0.0
H1803 H 0.46006 0.40456 0.31508 0.0
H1804 H 0.41464 0.31912 0.29724 0.0
H1805 H 0.43449 0.33939 0.27419 0.0
H1806 H 0.3844 0.3224 0.31866 0.0
H1807 H 0.48179 0.34605 0.31089 0.0
H1808 H 0.53289 0.37717 0.30439 0.0
H1809 H 0.54438 0.43496 0.33797 0.0
H1810 H 0.49317 0.40439 0.34453 0.0
H1811 H 0.40536 0.24349 0.37347 0.0
H1812 H 0.40304 0.26702 0.35211 0.0
H1813 H 0.42353 0.34348 0.3756 0.0
H1814 H 0.42494 0.31958 0.39718 0.0
H1815 H 0.46328 0.34769 0.35257 0.0
H1816 H 0.36404 0.31576 0.36187 0.0
H1817 H 0.31362 0.28015 0.36773 0.0
H1818 H 0.3068 0.232 0.33073 0.0
H1819 H 0.35735 0.26709 0.32476 0.0
C1820 C 0.46571 0.40159 0.29317 0.0
C1821 C 0.4594 0.38339 0.28158 0.0
C1822 C 0.45391 0.39019 0.30619 0.0
C1823 C 0.43647 0.36025 0.30796 0.0
C1824 C 0.42817 0.34227 0.29614 0.0
C1825 C 0.43947 0.35382 0.28299 0.0
C1826 C 0.43019 0.34766 0.3222 0.0
C1827 C 0.40163 0.32787 0.32606 0.0
C1828 C 0.45268 0.35483 0.33192 0.0
C1829 C 0.48357 0.37313 0.3281 0.0
C1830 C 0.49516 0.3655 0.31683 0.0
C1831 C 0.52414 0.38303 0.31313 0.0
C1832 C 0.54185 0.40808 0.32073 0.0
C1833 C 0.53062 0.41558 0.33207 0.0
C1834 C 0.50162 0.39817 0.33578 0.0
C1835 C 0.40851 0.26501 0.37413 0.0
C1836 C 0.41534 0.27978 0.38693 0.0
C1837 C 0.40709 0.27836 0.36195 0.0
C1838 C 0.41304 0.30691 0.36231 0.0
C1839 C 0.41863 0.32132 0.37517 0.0
C1840 C 0.41935 0.30767 0.38746 0.0
C1841 C 0.41754 0.32266 0.34906 0.0
C1842 C 0.44596 0.34278 0.34529 0.0
C1843 C 0.39502 0.31512 0.33938 0.0
C1844 C 0.3646 0.29396 0.34292 0.0
C1845 C 0.35189 0.29744 0.35505 0.0
C1846 C 0.32326 0.27737 0.35837 0.0
C1847 C 0.30703 0.2538 0.34962 0.0
C1848 C 0.3194 0.25027 0.33751 0.0
C1849 C 0.34804 0.27027 0.33414 0.0
H1850 H 0.28486 0.23829 0.35222 0.0
H1851 H 0.56428 0.42163 0.31786 0.0
H1852 H 0.74906 0.14979 0.37282 0.0
H1853 H 0.73079 0.12735 0.35006 0.0
H1854 H 0.64382 0.08545 0.36612 0.0
H1855 H 0.66241 0.10663 0.38916 0.0
H1856 H 0.64679 0.05302 0.34629 0.0
H1857 H 0.67574 0.15298 0.35061 0.0
H1858 H 0.70883 0.20443 0.3558 0.0
H1859 H 0.76715 0.20814 0.32412 0.0
H1860 H 0.73456 0.15654 0.31889 0.0
H1861 H 0.57165 0.0731 0.29021 0.0
H1862 H 0.59436 0.0692 0.31148 0.0
H1863 H 0.67122 0.09017 0.2882 0.0
H1864 H 0.64817 0.09338 0.26672 0.0
H1865 H 0.67772 0.1291 0.31022 0.0
H1866 H 0.63948 0.02831 0.30341 0.0
H1867 H 0.60182 0.9781 0.2985 0.0
H1868 H 0.55522 0.97748 0.33502 0.0
H1869 H 0.59238 0.02785 0.34005 0.0
C1870 C 0.72615 0.13492 0.37158 0.0
C1871 C 0.70707 0.12987 0.38265 0.0
C1872 C 0.71569 0.12229 0.35857 0.0
C1873 C 0.68585 0.10541 0.35624 0.0
C1874 C 0.66692 0.0985 0.36762 0.0
C1875 C 0.6775 0.11055 0.38078 0.0
C1876 C 0.67439 0.09819 0.34177 0.0
C1877 C 0.65351 0.06964 0.33841 0.0
C1878 C 0.6833 0.11981 0.33139 0.0
C1879 C 0.70291 0.15084 0.33448 0.0
C1880 C 0.69573 0.16472 0.34483 0.0
C1881 C 0.71437 0.19391 0.34777 0.0
C1882 C 0.74012 0.20952 0.34032 0.0
C1883 C 0.74723 0.19599 0.3299 0.0
C1884 C 0.72869 0.16678 0.32694 0.0
C1885 C 0.59301 0.07585 0.28955 0.0
C1886 C 0.60821 0.08357 0.27686 0.0
C1887 C 0.60592 0.07352 0.30169 0.0
C1888 C 0.63444 0.07936 0.30141 0.0
C1889 C 0.64909 0.08536 0.28859 0.0
C1890 C 0.6359 0.08708 0.27634 0.0
C1891 C 0.6501 0.08401 0.31474 0.0
C1892 C 0.67158 0.11229 0.31796 0.0
C1893 C 0.64109 0.0623 0.32503 0.0
C1894 C 0.61867 0.03197 0.32206 0.0
C1895 C 0.62109 0.01757 0.31034 0.0
C1896 C 0.59985 0.98905 0.30754 0.0
C1897 C 0.57612 0.97462 0.31643 0.0
C1898 C 0.57361 0.98868 0.32814 0.0
C1899 C 0.59479 0.01721 0.33098 0.0
H1900 H 0.5597 0.95254 0.31425 0.0
H1901 H 0.75453 0.23212 0.34261 0.0
H1902 H 0.54852 0.87942 0.60407 0.0
H1903 H 0.55372 0.90145 0.62701 0.0
H1904 H 0.60854 0.86872 0.64009 0.0
H1905 H 0.60144 0.84496 0.61745 0.0
H1906 H 0.57162 0.85503 0.6583 0.0
H1907 H 0.63186 0.94527 0.63665 0.0
H1908 H 0.64749 0.9838 0.6191 0.0
H1909 H 0.5748 0.99315 0.62905 0.0
H1910 H 0.55848 0.9544 0.64652 0.0
H1911 H 0.56751 0.90579 0.72587 0.0
H1912 H 0.59188 0.91007 0.70352 0.0
H1913 H 0.52359 0.91354 0.68183 0.0
H1914 H 0.49915 0.90894 0.70396 0.0
H1915 H 0.57937 0.94875 0.66949 0.0
H1916 H 0.51593 0.85039 0.68712 0.0
H1917 H 0.50172 0.8127 0.70505 0.0
H1918 H 0.58543 0.82129 0.70266 0.0
H1919 H 0.60025 0.85935 0.68485 0.0
C1920 C 0.56234 0.87773 0.61175 0.0
C1921 C 0.57475 0.86074 0.60906 0.0
C1922 C 0.56547 0.89044 0.62487 0.0
C1923 C 0.5818 0.88709 0.63537 0.0
C1924 C 0.59575 0.87161 0.63226 0.0
C1925 C 0.59189 0.85821 0.6193 0.0
C1926 C 0.58113 0.89627 0.65001 0.0
C1927 C 0.57425 0.87594 0.66071 0.0
C1928 C 0.58411 0.92336 0.65334 0.0
C1929 C 0.59387 0.94679 0.64287 0.0
C1930 C 0.6191 0.95541 0.63504 0.0
C1931 C 0.62809 0.97732 0.62511 0.0
C1932 C 0.61213 0.99089 0.62295 0.0
C1933 C 0.58715 0.98262 0.63074 0.0
C1934 C 0.57805 0.96072 0.64068 0.0
C1935 C 0.55826 0.90843 0.71636 0.0
C1936 C 0.53133 0.90674 0.71659 0.0
C1937 C 0.57213 0.9108 0.70362 0.0
C1938 C 0.55938 0.91188 0.69103 0.0
C1939 C 0.53383 0.91282 0.69141 0.0
C1940 C 0.51981 0.91001 0.70406 0.0
C1941 C 0.56965 0.90742 0.67742 0.0
C1942 C 0.57792 0.92839 0.66697 0.0
C1943 C 0.56841 0.88113 0.6743 0.0
C1944 C 0.55929 0.8579 0.6848 0.0
C1945 C 0.53135 0.84435 0.69049 0.0
C1946 C 0.52318 0.82292 0.70062 0.0
C1947 C 0.54269 0.81467 0.70502 0.0
C1948 C 0.57036 0.82775 0.69926 0.0
C1949 C 0.57866 0.84924 0.68915 0.0
H1950 H 0.53634 0.79809 0.71288 0.0
H1951 H 0.61913 0.00783 0.61525 0.0
H1952 H 0.10884 0.71808 0.61959 0.0
H1953 H 0.08537 0.69832 0.64228 0.0
H1954 H 0.12294 0.64406 0.64315 0.0
H1955 H 0.14709 0.66442 0.62094 0.0
H1956 H 0.0608 0.61719 0.65199 0.0
H1957 H 0.15845 0.70202 0.65876 0.0
H1958 H 0.19401 0.7537 0.6557 0.0
H1959 H 0.13597 0.77598 0.6752 0.0
H1960 H 0.09991 0.72434 0.6782 0.0
H1961 H 0.09961 0.57697 0.71171 0.0
H1962 H 0.09308 0.59558 0.68996 0.0
H1963 H 0.07141 0.65159 0.71245 0.0
H1964 H 0.07856 0.63318 0.73465 0.0
H1965 H 0.11003 0.68068 0.69254 0.0
H1966 H 0.01955 0.59595 0.69268 0.0
H1967 H 0.9835 0.54453 0.69591 0.0
H1968 H 0.02381 0.52173 0.66365 0.0
H1969 H 0.0604 0.57295 0.66035 0.0
C1970 C 0.1115 0.70151 0.62456 0.0
C1971 C 0.12963 0.69263 0.61862 0.0
C1972 C 0.0982 0.69033 0.63747 0.0
C1973 C 0.10242 0.66971 0.64433 0.0
C1974 C 0.11928 0.6598 0.63797 0.0
C1975 C 0.1331 0.67146 0.62533 0.0
C1976 C 0.09183 0.66008 0.65868 0.0
C1977 C 0.07125 0.63101 0.66091 0.0
C1978 C 0.10469 0.67849 0.67026 0.0
C1979 C 0.12639 0.70941 0.66852 0.0
C1980 C 0.15319 0.71795 0.66227 0.0
C1981 C 0.17345 0.74722 0.66057 0.0
C1982 C 0.16722 0.76811 0.66521 0.0
C1983 C 0.14074 0.75977 0.67159 0.0
C1984 C 0.12039 0.73052 0.67328 0.0
C1985 C 0.09317 0.59305 0.71215 0.0
C1986 C 0.08974 0.60366 0.72499 0.0
C1987 C 0.08912 0.60348 0.69963 0.0
C1988 C 0.08123 0.62464 0.69951 0.0
C1989 C 0.07725 0.63506 0.71228 0.0
C1990 C 0.08128 0.62449 0.72495 0.0
C1991 C 0.07993 0.63721 0.68593 0.0
C1992 C 0.09845 0.66689 0.68378 0.0
C1993 C 0.0648 0.61936 0.67442 0.0
C1994 C 0.04278 0.58839 0.67628 0.0
C1995 C 0.02085 0.57998 0.68632 0.0
C1996 C 0.00029 0.55084 0.68816 0.0
C1997 C 0.00136 0.52988 0.67999 0.0
C1998 C 0.02298 0.538 0.66995 0.0
C1999 C 0.0436 0.56711 0.66807 0.0
H2000 H 0.98543 0.50733 0.68144 0.0
H2001 H 0.18293 0.79077 0.66389 0.0
H2002 H 0.27095 0.38199 0.60876 0.0
H2003 H 0.29052 0.37556 0.63086 0.0
H2004 H 0.33171 0.46695 0.63867 0.0
H2005 H 0.31154 0.47327 0.6171 0.0
H2006 H 0.36651 0.43612 0.64301 0.0
H2007 H 0.27434 0.43382 0.65353 0.0
H2008 H 0.22165 0.41106 0.65082 0.0
H2009 H 0.21054 0.33005 0.66446 0.0
H2010 H 0.26326 0.35234 0.66708 0.0
H2011 H 0.39922 0.50836 0.70396 0.0
H2012 H 0.38134 0.4837 0.68205 0.0
H2013 H 0.33584 0.402 0.7034 0.0
H2014 H 0.35352 0.42709 0.72592 0.0
H2015 H 0.30183 0.40702 0.68424 0.0
H2016 H 0.39282 0.41552 0.68223 0.0
H2017 H 0.44535 0.43767 0.68512 0.0
H2018 H 0.4597 0.50304 0.65529 0.0
H2019 H 0.40729 0.4816 0.65236 0.0
C2020 C 0.2845 0.40065 0.61516 0.0
C2021 C 0.28973 0.42811 0.61131 0.0
C2022 C 0.29557 0.39695 0.62773 0.0
C2023 C 0.31255 0.42082 0.63632 0.0
C2024 C 0.31873 0.44832 0.63213 0.0
C2025 C 0.30713 0.45188 0.61986 0.0
C2026 C 0.3228 0.41777 0.65015 0.0
C2027 C 0.35246 0.42939 0.65206 0.0
C2028 C 0.30421 0.40782 0.66182 0.0
C2029 C 0.27265 0.39461 0.66032 0.0
C2030 C 0.26065 0.4111 0.65583 0.0
C2031 C 0.2308 0.39831 0.65433 0.0
C2032 C 0.21276 0.3691 0.65742 0.0
C2033 C 0.22454 0.35265 0.66204 0.0
C2034 C 0.25439 0.36535 0.66353 0.0
C2035 C 0.38559 0.48511 0.70415 0.0
C2036 C 0.37778 0.46975 0.7168 0.0
C2037 C 0.37559 0.47094 0.6915 0.0
C2038 C 0.35774 0.44089 0.69099 0.0
C2039 C 0.3499 0.4252 0.70354 0.0
C2040 C 0.36003 0.43953 0.71638 0.0
C2041 C 0.34597 0.42711 0.67725 0.0
C2042 C 0.31599 0.41244 0.67528 0.0
C2043 C 0.36432 0.43387 0.66549 0.0
C2044 C 0.39601 0.44685 0.66706 0.0
C2045 C 0.40715 0.43468 0.67632 0.0
C2046 C 0.43694 0.44713 0.67797 0.0
C2047 C 0.45585 0.47173 0.67039 0.0
C2048 C 0.44502 0.48393 0.66113 0.0
C2049 C 0.41526 0.47158 0.65944 0.0
H2050 H 0.4789 0.48135 0.67169 0.0
H2051 H 0.18965 0.35923 0.65626 0.0
loop_
_geom_bond_atom_site_label_1
_geom_bond_atom_site_label_2
_geom_bond_distance
_geom_bond_site_symmetry_2
_ccdc_geom_bond_type
Mg0 O1 2.028 . S
Mg0 O7 1.986 . S
Mg0 O9 2.114 . S
Mg0 O10 2.251 . S
Mg0 O13 2.010 . S
O1 Mg0 2.028 . S
O1 C4 1.250 . S
O2 Mg3 2.028 . S
O2 C4 1.248 . S
Mg3 O2 2.028 . S
Mg3 O8 2.032 . S
Mg3 O10 2.079 . S
C4 O1 1.250 . S
C4 O2 1.248 . S
C5 O6 1.264 . S
C5 O13 1.249 . S
O6 C5 1.264 . S
O7 Mg0 1.986 . S
O7 C11 1.246 . S
O8 Mg3 2.032 . S
O8 C11 1.259 . S
O9 Mg0 2.114 . S
O9 C12 1.252 . S
O10 Mg0 2.251 . S
O10 Mg3 2.079 . S
O10 C12 1.273 . S
C11 O7 1.246 . S
C11 O8 1.259 . S
C12 O9 1.252 . S
C12 O10 1.273 . S
O13 Mg0 2.010 . S
O13 C5 1.249 . S
Mg14 O15 2.028 1_565 S
Mg14 O21 1.986 . S
Mg14 O23 2.114 . S
Mg14 O24 2.251 . S
Mg14 O27 2.010 . S
O15 Mg14 2.028 1_545 S
O15 C18 1.250 . S
O16 Mg17 2.028 1_545 S
O16 C18 1.248 . S
Mg17 O16 2.028 1_565 S
Mg17 O22 2.032 . S
Mg17 O24 2.079 . S
C18 O15 1.250 . S
C18 O16 1.248 . S
C19 O20 1.264 1_545 S
C19 O27 1.249 1_545 S
O20 C19 1.264 1_565 S
O21 Mg14 1.986 . S
O21 C25 1.246 . S
O22 Mg17 2.032 . S
O22 C25 1.259 . S
O23 Mg14 2.114 . S
O23 C26 1.252 . S
O24 Mg14 2.251 . S
O24 Mg17 2.079 . S
O24 C26 1.273 . S
C25 O21 1.246 . S
C25 O22 1.259 . S
C26 O23 1.252 . S
C26 O24 1.273 . S
O27 Mg14 2.010 . S
O27 C19 1.249 1_565 S
Mg28 O29 2.028 1_455 S
Mg28 O35 1.986 . S
Mg28 O37 2.114 . S
Mg28 O38 2.251 . S
Mg28 O41 2.010 . S
O29 Mg28 2.028 1_655 S
O29 C32 1.250 . S
O30 Mg31 2.028 1_655 S
O30 C32 1.248 . S
Mg31 O30 2.028 1_455 S
Mg31 O36 2.032 . S
Mg31 O38 2.079 . S
C32 O29 1.250 . S
C32 O30 1.248 . S
C33 O34 1.264 1_655 S
C33 O41 1.249 1_655 S
O34 C33 1.264 1_455 S
O35 Mg28 1.986 . S
O35 C39 1.246 . S
O36 Mg31 2.032 . S
O36 C39 1.259 . S
O37 Mg28 2.114 . S
O37 C40 1.252 . S
O38 Mg28 2.251 . S
O38 Mg31 2.079 . S
O38 C40 1.273 . S
C39 O35 1.246 . S
C39 O36 1.259 . S
C40 O37 1.252 . S
C40 O38 1.273 . S
O41 Mg28 2.010 . S
O41 C33 1.249 1_455 S
Mg42 O43 2.028 . S
Mg42 O49 1.986 . S
Mg42 O51 2.114 . S
Mg42 O52 2.251 . S
Mg42 O55 2.010 . S
O43 Mg42 2.028 . S
O43 C46 1.250 . S
O44 Mg45 2.028 . S
O44 C46 1.248 . S
Mg45 O44 2.028 . S
Mg45 O50 2.032 . S
Mg45 O52 2.079 . S
C46 O43 1.250 . S
C46 O44 1.248 . S
C47 O48 1.264 . S
C47 O55 1.249 . S
O48 C47 1.264 . S
O49 Mg42 1.986 . S
O49 C53 1.246 . S
O50 Mg45 2.032 . S
O50 C53 1.259 . S
O51 Mg42 2.114 . S
O51 C54 1.252 . S
O52 Mg42 2.251 . S
O52 Mg45 2.079 . S
O52 C54 1.273 . S
C53 O49 1.246 . S
C53 O50 1.259 . S
C54 O51 1.252 . S
C54 O52 1.273 . S
O55 Mg42 2.010 . S
O55 C47 1.249 . S
Mg56 O57 2.028 1_545 S
Mg56 O63 1.986 . S
Mg56 O65 2.114 . S
Mg56 O66 2.251 . S
Mg56 O69 2.010 . S
O57 Mg56 2.028 1_565 S
O57 C60 1.250 . S
O58 Mg59 2.028 1_565 S
O58 C60 1.248 . S
Mg59 O58 2.028 1_545 S
Mg59 O64 2.032 . S
Mg59 O66 2.079 . S
C60 O57 1.250 . S
C60 O58 1.248 . S
C61 O62 1.264 1_565 S
C61 O69 1.249 1_565 S
O62 C61 1.264 1_545 S
O63 Mg56 1.986 . S
O63 C67 1.246 . S
O64 Mg59 2.032 . S
O64 C67 1.259 . S
O65 Mg56 2.114 . S
O65 C68 1.252 . S
O66 Mg56 2.251 . S
O66 Mg59 2.079 . S
O66 C68 1.273 . S
C67 O63 1.246 . S
C67 O64 1.259 . S
C68 O65 1.252 . S
C68 O66 1.273 . S
O69 Mg56 2.010 . S
O69 C61 1.249 1_545 S
Mg70 O71 2.028 1_655 S
Mg70 O77 1.986 . S
Mg70 O79 2.114 . S
Mg70 O80 2.251 . S
Mg70 O83 2.010 . S
O71 Mg70 2.028 1_455 S
O71 C74 1.250 . S
O72 Mg73 2.028 1_455 S
O72 C74 1.248 . S
Mg73 O72 2.028 1_655 S
Mg73 O78 2.032 . S
Mg73 O80 2.079 . S
C74 O71 1.250 . S
C74 O72 1.248 . S
C75 O76 1.264 1_455 S
C75 O83 1.249 1_455 S
O76 C75 1.264 1_655 S
O77 Mg70 1.986 . S
O77 C81 1.246 . S
O78 Mg73 2.032 . S
O78 C81 1.259 . S
O79 Mg70 2.114 . S
O79 C82 1.252 . S
O80 Mg70 2.251 . S
O80 Mg73 2.079 . S
O80 C82 1.273 . S
C81 O77 1.246 . S
C81 O78 1.259 . S
C82 O79 1.252 . S
C82 O80 1.273 . S
O83 Mg70 2.010 . S
O83 C75 1.249 1_655 S
Mg84 O85 2.028 . S
Mg84 O91 1.986 . S
Mg84 O93 2.114 . S
Mg84 O94 2.251 . S
Mg84 O97 2.010 . S
O85 Mg84 2.028 . S
O85 C88 1.250 . S
O86 Mg87 2.028 . S
O86 C88 1.248 . S
Mg87 O86 2.028 . S
Mg87 O92 2.032 . S
Mg87 O94 2.079 . S
C88 O85 1.250 . S
C88 O86 1.248 . S
C89 O90 1.264 . S
C89 O97 1.249 . S
O90 C89 1.264 . S
O91 Mg84 1.986 . S
O91 C95 1.246 . S
O92 Mg87 2.032 . S
O92 C95 1.259 . S
O93 Mg84 2.114 . S
O93 C96 1.252 . S
O94 Mg84 2.251 . S
O94 Mg87 2.079 . S
O94 C96 1.273 . S
C95 O91 1.246 . S
C95 O92 1.259 . S
C96 O93 1.252 . S
C96 O94 1.273 . S
O97 Mg84 2.010 . S
O97 C89 1.249 . S
Mg98 O99 2.028 . S
Mg98 O105 1.986 . S
Mg98 O107 2.114 . S
Mg98 O108 2.251 . S
Mg98 O111 2.010 . S
O99 Mg98 2.028 . S
O99 C102 1.250 . S
O100 Mg101 2.028 . S
O100 C102 1.248 . S
Mg101 O100 2.028 . S
Mg101 O106 2.032 . S
Mg101 O108 2.079 . S
C102 O99 1.250 . S
C102 O100 1.248 . S
C103 O104 1.264 . S
C103 O111 1.249 . S
O104 C103 1.264 . S
O105 Mg98 1.986 . S
O105 C109 1.246 . S
O106 Mg101 2.032 . S
O106 C109 1.259 . S
O107 Mg98 2.114 . S
O107 C110 1.252 . S
O108 Mg98 2.251 . S
O108 Mg101 2.079 . S
O108 C110 1.273 . S
C109 O105 1.246 . S
C109 O106 1.259 . S
C110 O107 1.252 . S
C110 O108 1.273 . S
O111 Mg98 2.010 . S
O111 C103 1.249 . S
Mg112 O113 2.028 . S
Mg112 O119 1.986 . S
Mg112 O121 2.114 . S
Mg112 O122 2.251 . S
Mg112 O125 2.010 . S
O113 Mg112 2.028 . S
O113 C116 1.250 . S
O114 Mg115 2.028 . S
O114 C116 1.248 . S
Mg115 O114 2.028 . S
Mg115 O120 2.032 . S
Mg115 O122 2.079 . S
C116 O113 1.250 . S
C116 O114 1.248 . S
C117 O118 1.264 . S
C117 O125 1.249 . S
O118 C117 1.264 . S
O119 Mg112 1.986 . S
O119 C123 1.246 . S
O120 Mg115 2.032 . S
O120 C123 1.259 . S
O121 Mg112 2.114 . S
O121 C124 1.252 . S
O122 Mg112 2.251 . S
O122 Mg115 2.079 . S
O122 C124 1.273 . S
C123 O119 1.246 . S
C123 O120 1.259 . S
C124 O121 1.252 . S
C124 O122 1.273 . S
O125 Mg112 2.010 . S
O125 C117 1.249 . S
Mg126 O127 2.028 . S
Mg126 O133 1.986 . S
Mg126 O135 2.114 . S
Mg126 O136 2.251 . S
Mg126 O139 2.010 . S
O127 Mg126 2.028 . S
O127 C130 1.250 . S
O128 Mg129 2.028 . S
O128 C130 1.248 . S
Mg129 O128 2.028 . S
Mg129 O134 2.032 . S
Mg129 O136 2.079 . S
C130 O127 1.250 . S
C130 O128 1.248 . S
C131 O132 1.264 . S
C131 O139 1.249 . S
O132 C131 1.264 . S
O133 Mg126 1.986 . S
O133 C137 1.246 . S
O134 Mg129 2.032 . S
O134 C137 1.259 . S
O135 Mg126 2.114 . S
O135 C138 1.252 . S
O136 Mg126 2.251 . S
O136 Mg129 2.079 . S
O136 C138 1.273 . S
C137 O133 1.246 . S
C137 O134 1.259 . S
C138 O135 1.252 . S
C138 O136 1.273 . S
O139 Mg126 2.010 . S
O139 C131 1.249 . S
Mg140 O141 2.028 . S
Mg140 O147 1.986 . S
Mg140 O149 2.114 . S
Mg140 O150 2.251 . S
Mg140 O153 2.010 . S
O141 Mg140 2.028 . S
O141 C144 1.250 . S
O142 Mg143 2.028 . S
O142 C144 1.248 . S
Mg143 O142 2.028 . S
Mg143 O148 2.032 . S
Mg143 O150 2.079 . S
C144 O141 1.250 . S
C144 O142 1.248 . S
C145 O146 1.264 . S
C145 O153 1.249 . S
O146 C145 1.264 . S
O147 Mg140 1.986 . S
O147 C151 1.246 . S
O148 Mg143 2.032 . S
O148 C151 1.259 . S
O149 Mg140 2.114 . S
O149 C152 1.252 . S
O150 Mg140 2.251 . S
O150 Mg143 2.079 . S
O150 C152 1.273 . S
C151 O147 1.246 . S
C151 O148 1.259 . S
C152 O149 1.252 . S
C152 O150 1.273 . S
O153 Mg140 2.010 . S
O153 C145 1.249 . S
Mg154 O155 2.028 . S
Mg154 O161 1.986 . S
Mg154 O163 2.114 . S
Mg154 O164 2.251 . S
Mg154 O167 2.010 . S
O155 Mg154 2.028 . S
O155 C158 1.250 . S
O156 Mg157 2.028 . S
O156 C158 1.248 . S
Mg157 O156 2.028 . S
Mg157 O162 2.032 . S
Mg157 O164 2.079 . S
C158 O155 1.250 . S
C158 O156 1.248 . S
C159 O160 1.264 . S
C159 O167 1.249 . S
O160 C159 1.264 . S
O161 Mg154 1.986 . S
O161 C165 1.246 . S
O162 Mg157 2.032 . S
O162 C165 1.259 . S
O163 Mg154 2.114 . S
O163 C166 1.252 . S
O164 Mg154 2.251 . S
O164 Mg157 2.079 . S
O164 C166 1.273 . S
C165 O161 1.246 . S
C165 O162 1.259 . S
C166 O163 1.252 . S
C166 O164 1.273 . S
O167 Mg154 2.010 . S
O167 C159 1.249 . S
Mg168 O169 2.028 . S
Mg168 O175 1.986 . S
Mg168 O177 2.114 . S
Mg168 O178 2.251 . S
Mg168 O181 2.010 . S
O169 Mg168 2.028 . S
O169 C172 1.250 . S
O170 Mg171 2.028 . S
O170 C172 1.248 . S
Mg171 O170 2.028 . S
Mg171 O176 2.032 . S
Mg171 O178 2.079 . S
C172 O169 1.250 . S
C172 O170 1.248 . S
C173 O174 1.264 . S
C173 O181 1.249 . S
O174 C173 1.264 . S
O175 Mg168 1.986 . S
O175 C179 1.246 . S
O176 Mg171 2.032 . S
O176 C179 1.259 . S
O177 Mg168 2.114 . S
O177 C180 1.252 . S
O178 Mg168 2.251 . S
O178 Mg171 2.079 . S
O178 C180 1.273 . S
C179 O175 1.246 . S
C179 O176 1.259 . S
C180 O177 1.252 . S
C180 O178 1.273 . S
O181 Mg168 2.010 . S
O181 C173 1.249 . S
Mg182 O183 2.028 . S
Mg182 O189 1.986 . S
Mg182 O191 2.114 . S
Mg182 O192 2.251 . S
Mg182 O195 2.010 . S
O183 Mg182 2.028 . S
O183 C186 1.250 . S
O184 Mg185 2.028 . S
O184 C186 1.248 . S
Mg185 O184 2.028 . S
Mg185 O190 2.032 . S
Mg185 O192 2.079 . S
C186 O183 1.250 . S
C186 O184 1.248 . S
C187 O188 1.264 . S
C187 O195 1.249 . S
O188 C187 1.264 . S
O189 Mg182 1.986 . S
O189 C193 1.246 . S
O190 Mg185 2.032 . S
O190 C193 1.259 . S
O191 Mg182 2.114 . S
O191 C194 1.252 . S
O192 Mg182 2.251 . S
O192 Mg185 2.079 . S
O192 C194 1.273 . S
C193 O189 1.246 . S
C193 O190 1.259 . S
C194 O191 1.252 . S
C194 O192 1.273 . S
O195 Mg182 2.010 . S
O195 C187 1.249 . S
Mg196 O197 2.028 . S
Mg196 O203 1.986 . S
Mg196 O205 2.114 . S
Mg196 O206 2.251 . S
Mg196 O209 2.010 . S
O197 Mg196 2.028 . S
O197 C200 1.250 . S
O198 Mg199 2.028 . S
O198 C200 1.248 . S
Mg199 O198 2.028 . S
Mg199 O204 2.032 . S
Mg199 O206 2.079 . S
C200 O197 1.250 . S
C200 O198 1.248 . S
C201 O202 1.264 . S
C201 O209 1.249 . S
O202 C201 1.264 . S
O203 Mg196 1.986 . S
O203 C207 1.246 . S
O204 Mg199 2.032 . S
O204 C207 1.259 . S
O205 Mg196 2.114 . S
O205 C208 1.252 . S
O206 Mg196 2.251 . S
O206 Mg199 2.079 . S
O206 C208 1.273 . S
C207 O203 1.246 . S
C207 O204 1.259 . S
C208 O205 1.252 . S
C208 O206 1.273 . S
O209 Mg196 2.010 . S
O209 C201 1.249 . S
Mg210 O211 2.028 . S
Mg210 O217 1.986 . S
Mg210 O219 2.114 . S
Mg210 O220 2.251 . S
Mg210 O223 2.010 . S
O211 Mg210 2.028 . S
O211 C214 1.250 . S
O212 Mg213 2.028 . S
O212 C214 1.248 . S
Mg213 O212 2.028 . S
Mg213 O218 2.032 . S
Mg213 O220 2.079 . S
C214 O211 1.250 . S
C214 O212 1.248 . S
C215 O216 1.264 . S
C215 O223 1.249 . S
O216 C215 1.264 . S
O217 Mg210 1.986 . S
O217 C221 1.246 . S
O218 Mg213 2.032 . S
O218 C221 1.259 . S
O219 Mg210 2.114 . S
O219 C222 1.252 . S
O220 Mg210 2.251 . S
O220 Mg213 2.079 . S
O220 C222 1.273 . S
C221 O217 1.246 . S
C221 O218 1.259 . S
C222 O219 1.252 . S
C222 O220 1.273 . S
O223 Mg210 2.010 . S
O223 C215 1.249 . S
Mg224 O225 2.028 . S
Mg224 O231 1.986 . S
Mg224 O233 2.114 . S
Mg224 O234 2.251 . S
Mg224 O237 2.010 . S
O225 Mg224 2.028 . S
O225 C228 1.250 . S
O226 Mg227 2.028 . S
O226 C228 1.248 . S
Mg227 O226 2.028 . S
Mg227 O232 2.032 . S
Mg227 O234 2.079 . S
C228 O225 1.250 . S
C228 O226 1.248 . S
C229 O230 1.264 . S
C229 O237 1.249 . S
O230 C229 1.264 . S
O231 Mg224 1.986 . S
O231 C235 1.246 . S
O232 Mg227 2.032 . S
O232 C235 1.259 . S
O233 Mg224 2.114 . S
O233 C236 1.252 . S
O234 Mg224 2.251 . S
O234 Mg227 2.079 . S
O234 C236 1.273 . S
C235 O231 1.246 . S
C235 O232 1.259 . S
C236 O233 1.252 . S
C236 O234 1.273 . S
O237 Mg224 2.010 . S
O237 C229 1.249 . S
Mg238 O239 2.028 . S
Mg238 O245 1.986 . S
Mg238 O247 2.114 . S
Mg238 O248 2.251 . S
Mg238 O251 2.010 . S
O239 Mg238 2.028 . S
O239 C242 1.250 . S
O240 Mg241 2.028 . S
O240 C242 1.248 . S
Mg241 O240 2.028 . S
Mg241 O246 2.032 . S
Mg241 O248 2.079 . S
C242 O239 1.250 . S
C242 O240 1.248 . S
C243 O244 1.264 . S
C243 O251 1.249 . S
O244 C243 1.264 . S
O245 Mg238 1.986 . S
O245 C249 1.246 . S
O246 Mg241 2.032 . S
O246 C249 1.259 . S
O247 Mg238 2.114 . S
O247 C250 1.252 . S
O248 Mg238 2.251 . S
O248 Mg241 2.079 . S
O248 C250 1.273 . S
C249 O245 1.246 . S
C249 O246 1.259 . S
C250 O247 1.252 . S
C250 O248 1.273 . S
O251 Mg238 2.010 . S
O251 C243 1.249 . S
H252 C270 0.951 . S
H253 C272 0.951 . S
H254 C274 0.950 . S
H255 C275 0.950 . S
H256 C277 0.950 . S
H257 C280 0.950 . S
H258 C281 0.950 . S
H259 C283 0.950 . S
H260 C284 0.950 . S
H261 C285 0.951 . S
H262 C287 0.951 . S
H263 C289 0.950 . S
H264 C290 0.950 . S
H265 C292 0.950 . S
H266 C295 0.950 . S
H267 C296 0.950 . S
H268 C298 0.950 . S
H269 C299 0.950 . S
C270 H252 0.951 . S
C270 C271 1.366 . S
C270 C272 1.388 . S
C271 C270 1.366 . S
C271 C275 1.385 . S
C272 H253 0.951 . S
C272 C270 1.388 . S
C272 C273 1.366 . S
C273 C272 1.366 . S
C273 C274 1.414 . S
C273 C276 1.499 . S
C274 H254 0.950 . S
C274 C273 1.414 . S
C274 C275 1.374 . S
C275 H255 0.950 . S
C275 C271 1.385 . S
C275 C274 1.374 . S
C276 C273 1.499 . S
C276 C277 1.373 . S
C276 C278 1.389 . S
C277 H256 0.950 . S
C277 C276 1.373 . S
C277 C293 1.377 . S
C278 C276 1.389 . S
C278 C279 1.524 . S
C278 C292 1.377 . S
C279 C278 1.524 . S
C279 C280 1.397 . S
C279 C284 1.363 . S
C280 H257 0.950 . S
C280 C279 1.397 . S
C280 C281 1.334 . S
C281 H258 0.950 . S
C281 C280 1.334 . S
C281 C282 1.287 . S
C282 C281 1.287 . S
C282 C283 1.524 . S
C282 H301 0.913 . S
C283 H259 0.950 . S
C283 C282 1.524 . S
C283 C284 1.415 . S
C284 H260 0.950 . S
C284 C279 1.363 . S
C284 C283 1.415 . S
C285 H261 0.951 . S
C285 C286 1.366 . S
C285 C287 1.388 . S
C286 C285 1.366 . S
C286 C290 1.385 . S
C287 H262 0.951 . S
C287 C285 1.388 . S
C287 C288 1.366 . S
C288 C287 1.366 . S
C288 C289 1.414 . S
C288 C291 1.499 . S
C289 H263 0.950 . S
C289 C288 1.414 . S
C289 C290 1.374 . S
C290 H264 0.950 . S
C290 C286 1.385 . S
C290 C289 1.374 . S
C291 C288 1.499 . S
C291 C292 1.373 . S
C291 C293 1.389 . S
C292 H265 0.950 . S
C292 C278 1.377 . S
C292 C291 1.373 . S
C293 C277 1.377 . S
C293 C291 1.389 . S
C293 C294 1.524 . S
C294 C293 1.524 . S
C294 C295 1.397 . S
C294 C299 1.363 . S
C295 H266 0.950 . S
C295 C294 1.397 . S
C295 C296 1.334 . S
C296 H267 0.950 . S
C296 C295 1.334 . S
C296 C297 1.287 . S
C297 C296 1.287 . S
C297 C298 1.524 . S
C297 H300 0.999 . S
C298 H268 0.950 . S
C298 C297 1.524 . S
C298 C299 1.415 . S
C299 H269 0.950 . S
C299 C294 1.363 . S
C299 C298 1.415 . S
H300 C297 0.999 . S
H301 C282 0.913 . S
H302 C320 0.951 1_565 S
H303 C322 0.951 . S
H304 C324 0.950 . S
H305 C325 0.950 . S
H306 C327 0.950 . S
H307 C330 0.950 . S
H308 C331 0.950 . S
H309 C333 0.950 . S
H310 C334 0.950 . S
H311 C335 0.951 . S
H312 C337 0.951 . S
H313 C339 0.950 . S
H314 C340 0.950 . S
H315 C342 0.950 . S
H316 C345 0.950 . S
H317 C346 0.950 . S
H318 C348 0.950 . S
H319 C349 0.950 . S
C320 H302 0.951 1_545 S
C320 C321 1.366 . S
C320 C322 1.388 . S
C321 C320 1.366 . S
C321 C325 1.385 . S
C322 H303 0.951 . S
C322 C320 1.388 . S
C322 C323 1.366 . S
C323 C322 1.366 . S
C323 C324 1.414 . S
C323 C326 1.499 . S
C324 H304 0.950 . S
C324 C323 1.414 . S
C324 C325 1.374 . S
C325 H305 0.950 . S
C325 C321 1.385 . S
C325 C324 1.374 . S
C326 C323 1.499 . S
C326 C327 1.373 . S
C326 C328 1.389 . S
C327 H306 0.950 . S
C327 C326 1.373 . S
C327 C343 1.377 . S
C328 C326 1.389 . S
C328 C329 1.524 . S
C328 C342 1.377 . S
C329 C328 1.524 . S
C329 C330 1.397 . S
C329 C334 1.363 . S
C330 H307 0.950 . S
C330 C329 1.397 . S
C330 C331 1.334 . S
C331 H308 0.950 . S
C331 C330 1.334 . S
C331 C332 1.287 . S
C332 C331 1.287 . S
C332 C333 1.524 . S
C332 H351 0.913 . S
C333 H309 0.950 . S
C333 C332 1.524 . S
C333 C334 1.415 . S
C334 H310 0.950 . S
C334 C329 1.363 . S
C334 C333 1.415 . S
C335 H311 0.951 . S
C335 C336 1.366 . S
C335 C337 1.388 . S
C336 C335 1.366 . S
C336 C340 1.385 . S
C337 H312 0.951 . S
C337 C335 1.388 . S
C337 C338 1.366 . S
C338 C337 1.366 . S
C338 C339 1.414 . S
C338 C341 1.499 . S
C339 H313 0.950 . S
C339 C338 1.414 . S
C339 C340 1.374 . S
C340 H314 0.950 . S
C340 C336 1.385 . S
C340 C339 1.374 . S
C341 C338 1.499 . S
C341 C342 1.373 . S
C341 C343 1.389 . S
C342 H315 0.950 . S
C342 C328 1.377 . S
C342 C341 1.373 . S
C343 C327 1.377 . S
C343 C341 1.389 . S
C343 C344 1.524 . S
C344 C343 1.524 . S
C344 C345 1.397 . S
C344 C349 1.363 . S
C345 H316 0.950 . S
C345 C344 1.397 . S
C345 C346 1.334 . S
C346 H317 0.950 . S
C346 C345 1.334 . S
C346 C347 1.287 . S
C347 C346 1.287 . S
C347 C348 1.524 . S
C347 H350 0.999 . S
C348 H318 0.950 . S
C348 C347 1.524 . S
C348 C349 1.415 . S
C349 H319 0.950 . S
C349 C344 1.363 . S
C349 C348 1.415 . S
H350 C347 0.999 . S
H351 C332 0.913 . S
H352 C370 0.951 . S
H353 C372 0.951 . S
H354 C374 0.950 . S
H355 C375 0.950 . S
H356 C377 0.950 . S
H357 C380 0.950 . S
H358 C381 0.950 . S
H359 C383 0.950 1_455 S
H360 C384 0.950 . S
H361 C385 0.951 . S
H362 C387 0.951 . S
H363 C389 0.950 1_455 S
H364 C390 0.950 . S
H365 C392 0.950 . S
H366 C395 0.950 . S
H367 C396 0.950 . S
H368 C398 0.950 . S
H369 C399 0.950 . S
C370 H352 0.951 . S
C370 C371 1.366 . S
C370 C372 1.388 . S
C371 C370 1.366 . S
C371 C375 1.385 . S
C372 H353 0.951 . S
C372 C370 1.388 . S
C372 C373 1.366 . S
C373 C372 1.366 . S
C373 C374 1.414 . S
C373 C376 1.499 . S
C374 H354 0.950 . S
C374 C373 1.414 . S
C374 C375 1.374 . S
C375 H355 0.950 . S
C375 C371 1.385 . S
C375 C374 1.374 . S
C376 C373 1.499 . S
C376 C377 1.373 . S
C376 C378 1.389 . S
C377 H356 0.950 . S
C377 C376 1.373 . S
C377 C393 1.377 . S
C378 C376 1.389 . S
C378 C379 1.524 . S
C378 C392 1.377 . S
C379 C378 1.524 . S
C379 C380 1.397 . S
C379 C384 1.363 . S
C380 H357 0.950 . S
C380 C379 1.397 . S
C380 C381 1.334 . S
C381 H358 0.950 . S
C381 C380 1.334 . S
C381 C382 1.287 . S
C382 C381 1.287 . S
C382 C383 1.524 . S
C382 H401 0.913 . S
C383 H359 0.950 1_655 S
C383 C382 1.524 . S
C383 C384 1.415 . S
C384 H360 0.950 . S
C384 C379 1.363 . S
C384 C383 1.415 . S
C385 H361 0.951 . S
C385 C386 1.366 . S
C385 C387 1.388 . S
C386 C385 1.366 . S
C386 C390 1.385 1_655 S
C387 H362 0.951 . S
C387 C385 1.388 . S
C387 C388 1.366 . S
C388 C387 1.366 . S
C388 C389 1.414 . S
C388 C391 1.499 . S
C389 H363 0.950 1_655 S
C389 C388 1.414 . S
C389 C390 1.374 1_655 S
C390 H364 0.950 . S
C390 C386 1.385 1_455 S
C390 C389 1.374 1_455 S
C391 C388 1.499 . S
C391 C392 1.373 . S
C391 C393 1.389 . S
C392 H365 0.950 . S
C392 C378 1.377 . S
C392 C391 1.373 . S
C393 C377 1.377 . S
C393 C391 1.389 . S
C393 C394 1.524 . S
C394 C393 1.524 . S
C394 C395 1.397 . S
C394 C399 1.363 . S
C395 H366 0.950 . S
C395 C394 1.397 . S
C395 C396 1.334 . S
C396 H367 0.950 . S
C396 C395 1.334 . S
C396 C397 1.287 . S
C397 C396 1.287 . S
C397 C398 1.524 . S
C397 H400 0.999 . S
C398 H368 0.950 . S
C398 C397 1.524 . S
C398 C399 1.415 . S
C399 H369 0.950 . S
C399 C394 1.363 . S
C399 C398 1.415 . S
H400 C397 0.999 . S
H401 C382 0.913 . S
H402 C420 0.951 . S
H403 C422 0.951 . S
H404 C424 0.950 . S
H405 C425 0.950 . S
H406 C427 0.950 . S
H407 C430 0.950 . S
H408 C431 0.950 . S
H409 C433 0.950 . S
H410 C434 0.950 . S
H411 C435 0.951 . S
H412 C437 0.951 . S
H413 C439 0.950 . S
H414 C440 0.950 . S
H415 C442 0.950 . S
H416 C445 0.950 . S
H417 C446 0.950 . S
H418 C448 0.950 . S
H419 C449 0.950 . S
C420 H402 0.951 . S
C420 C421 1.366 . S
C420 C422 1.388 . S
C421 C420 1.366 . S
C421 C425 1.385 . S
C422 H403 0.951 . S
C422 C420 1.388 . S
C422 C423 1.366 . S
C423 C422 1.366 . S
C423 C424 1.414 . S
C423 C426 1.499 . S
C424 H404 0.950 . S
C424 C423 1.414 . S
C424 C425 1.374 . S
C425 H405 0.950 . S
C425 C421 1.385 . S
C425 C424 1.374 . S
C426 C423 1.499 . S
C426 C427 1.373 . S
C426 C428 1.389 . S
C427 H406 0.950 . S
C427 C426 1.373 . S
C427 C443 1.377 . S
C428 C426 1.389 . S
C428 C429 1.524 . S
C428 C442 1.377 . S
C429 C428 1.524 . S
C429 C430 1.397 . S
C429 C434 1.363 . S
C430 H407 0.950 . S
C430 C429 1.397 . S
C430 C431 1.334 . S
C431 H408 0.950 . S
C431 C430 1.334 . S
C431 C432 1.287 . S
C432 C431 1.287 . S
C432 C433 1.524 . S
C432 H451 0.913 . S
C433 H409 0.950 . S
C433 C432 1.524 . S
C433 C434 1.415 . S
C434 H410 0.950 . S
C434 C429 1.363 . S
C434 C433 1.415 . S
C435 H411 0.951 . S
C435 C436 1.366 . S
C435 C437 1.388 . S
C436 C435 1.366 . S
C436 C440 1.385 . S
C437 H412 0.951 . S
C437 C435 1.388 . S
C437 C438 1.366 . S
C438 C437 1.366 . S
C438 C439 1.414 . S
C438 C441 1.499 . S
C439 H413 0.950 . S
C439 C438 1.414 . S
C439 C440 1.374 . S
C440 H414 0.950 . S
C440 C436 1.385 . S
C440 C439 1.374 . S
C441 C438 1.499 . S
C441 C442 1.373 . S
C441 C443 1.389 . S
C442 H415 0.950 . S
C442 C428 1.377 . S
C442 C441 1.373 . S
C443 C427 1.377 . S
C443 C441 1.389 . S
C443 C444 1.524 . S
C444 C443 1.524 . S
C444 C445 1.397 . S
C444 C449 1.363 . S
C445 H416 0.950 . S
C445 C444 1.397 . S
C445 C446 1.334 . S
C446 H417 0.950 . S
C446 C445 1.334 . S
C446 C447 1.287 . S
C447 C446 1.287 . S
C447 C448 1.524 . S
C447 H450 0.999 . S
C448 H418 0.950 . S
C448 C447 1.524 . S
C448 C449 1.415 . S
C449 H419 0.950 . S
C449 C444 1.363 . S
C449 C448 1.415 . S
H450 C447 0.999 . S
H451 C432 0.913 . S
H452 C470 0.951 . S
H453 C472 0.951 . S
H454 C474 0.972 . S
H455 C475 0.950 1_545 S
H456 C477 0.950 . S
H457 C480 0.950 . S
H458 C481 0.950 . S
H459 C483 0.950 . S
H460 C484 0.950 . S
H461 C485 0.951 . S
H462 C487 0.951 . S
H463 C489 0.950 . S
H464 C490 0.950 . S
H465 C492 0.950 . S
H466 C495 0.950 . S
H467 C496 0.950 . S
H468 C498 0.950 . S
H469 C499 0.950 . S
C470 H452 0.951 . S
C470 C471 1.366 . S
C470 C472 1.388 . S
C471 C470 1.366 . S
C471 C475 1.385 . S
C472 H453 0.951 . S
C472 C470 1.388 . S
C472 C473 1.366 . S
C473 C472 1.366 . S
C473 C474 1.414 . S
C473 C476 1.499 . S
C474 H454 0.972 . S
C474 C473 1.414 . S
C474 C475 1.374 . S
C475 H455 0.950 1_565 S
C475 C471 1.385 . S
C475 C474 1.374 . S
C476 C473 1.499 . S
C476 C477 1.373 . S
C476 C478 1.389 . S
C477 H456 0.950 . S
C477 C476 1.373 . S
C477 C493 1.377 . S
C478 C476 1.389 . S
C478 C479 1.524 . S
C478 C492 1.377 . S
C479 C478 1.524 . S
C479 C480 1.397 . S
C479 C484 1.363 . S
C480 H457 0.950 . S
C480 C479 1.397 . S
C480 C481 1.334 . S
C481 H458 0.950 . S
C481 C480 1.334 . S
C481 C482 1.287 . S
C482 C481 1.287 . S
C482 C483 1.524 . S
C482 H501 0.913 . S
C483 H459 0.950 . S
C483 C482 1.524 . S
C483 C484 1.415 . S
C484 H460 0.950 . S
C484 C479 1.363 . S
C484 C483 1.415 . S
C485 H461 0.951 . S
C485 C486 1.366 . S
C485 C487 1.388 . S
C486 C485 1.366 . S
C486 C490 1.385 . S
C487 H462 0.951 . S
C487 C485 1.388 . S
C487 C488 1.366 . S
C488 C487 1.366 . S
C488 C489 1.414 . S
C488 C491 1.499 . S
C489 H463 0.950 . S
C489 C488 1.414 . S
C489 C490 1.374 . S
C490 H464 0.950 . S
C490 C486 1.385 . S
C490 C489 1.374 . S
C491 C488 1.499 . S
C491 C492 1.373 . S
C491 C493 1.389 . S
C492 H465 0.950 . S
C492 C478 1.377 . S
C492 C491 1.373 . S
C493 C477 1.377 . S
C493 C491 1.389 . S
C493 C494 1.524 . S
C494 C493 1.524 . S
C494 C495 1.397 . S
C494 C499 1.363 . S
C495 H466 0.950 . S
C495 C494 1.397 . S
C495 C496 1.334 . S
C496 H467 0.950 . S
C496 C495 1.334 . S
C496 C497 1.287 . S
C497 C496 1.287 . S
C497 C498 1.524 . S
C497 H500 0.999 . S
C498 H468 0.950 . S
C498 C497 1.524 . S
C498 C499 1.415 . S
C499 H469 0.950 . S
C499 C494 1.363 . S
C499 C498 1.415 . S
H500 C497 0.999 . S
H501 C482 0.913 . S
H502 C520 0.951 . S
H503 C522 0.951 . S
H504 C524 0.950 . S
H505 C525 0.950 . S
H506 C527 0.950 . S
H507 C530 0.950 . S
H508 C531 0.950 . S
H509 C533 0.950 . S
H510 C534 0.950 . S
H511 C535 0.951 . S
H512 C537 0.951 . S
H513 C539 0.950 . S
H514 C540 0.950 1_655 S
H515 C542 0.950 . S
H516 C545 0.931 1_655 S
H517 C546 0.961 . S
H518 C548 0.950 . S
H519 C549 0.950 . S
C520 H502 0.951 . S
C520 C521 1.366 . S
C520 C522 1.388 . S
C521 C520 1.366 . S
C521 C525 1.385 . S
C522 H503 0.951 . S
C522 C520 1.388 . S
C522 C523 1.366 . S
C523 C522 1.366 . S
C523 C524 1.414 . S
C523 C526 1.499 . S
C524 H504 0.950 . S
C524 C523 1.414 . S
C524 C525 1.374 . S
C525 H505 0.950 . S
C525 C521 1.385 . S
C525 C524 1.374 . S
C526 C523 1.499 . S
C526 C527 1.373 . S
C526 C528 1.389 . S
C527 H506 0.950 . S
C527 C526 1.373 . S
C527 C543 1.377 . S
C528 C526 1.389 . S
C528 C529 1.524 . S
C528 C542 1.377 . S
C529 C528 1.524 . S
C529 C530 1.397 . S
C529 C534 1.363 . S
C530 H507 0.950 . S
C530 C529 1.397 . S
C530 C531 1.334 . S
C531 H508 0.950 . S
C531 C530 1.334 . S
C531 C532 1.287 . S
C532 C531 1.287 . S
C532 C533 1.524 . S
C532 H551 0.913 . S
C533 H509 0.950 . S
C533 C532 1.524 . S
C533 C534 1.415 . S
C534 H510 0.950 . S
C534 C529 1.363 . S
C534 C533 1.415 . S
C535 H511 0.951 . S
C535 C536 1.366 . S
C535 C537 1.388 . S
C536 C535 1.366 . S
C536 C540 1.385 . S
C537 H512 0.951 . S
C537 C535 1.388 . S
C537 C538 1.366 . S
C538 C537 1.366 . S
C538 C539 1.414 . S
C538 C541 1.499 . S
C539 H513 0.950 . S
C539 C538 1.414 . S
C539 C540 1.374 . S
C540 H514 0.950 1_455 S
C540 C536 1.385 . S
C540 C539 1.374 . S
C541 C538 1.499 . S
C541 C542 1.373 . S
C541 C543 1.389 . S
C542 H515 0.950 . S
C542 C528 1.377 . S
C542 C541 1.373 . S
C543 C527 1.377 . S
C543 C541 1.389 . S
C543 C544 1.524 . S
C544 C543 1.524 . S
C544 C545 1.397 . S
C544 C549 1.363 . S
C545 H516 0.931 1_455 S
C545 C544 1.397 . S
C545 C546 1.332 1_455 S
C546 H517 0.961 . S
C546 C545 1.332 1_655 S
C546 C547 1.277 1_655 S
C547 C546 1.277 1_455 S
C547 C548 1.524 . S
C547 H550 0.999 . S
C548 H518 0.950 . S
C548 C547 1.524 . S
C548 C549 1.415 . S
C549 H519 0.950 . S
C549 C544 1.363 . S
C549 C548 1.415 . S
H550 C547 0.999 . S
H551 C532 0.913 . S
H552 C570 0.951 . S
H553 C572 0.951 . S
H554 C574 0.950 . S
H555 C575 0.950 . S
H556 C577 0.950 . S
H557 C580 0.950 . S
H558 C581 0.950 . S
H559 C583 0.950 . S
H560 C584 0.950 . S
H561 C585 0.951 . S
H562 C587 0.951 . S
H563 C589 0.950 . S
H564 C590 0.950 . S
H565 C592 0.950 . S
H566 C595 0.950 . S
H567 C596 0.950 . S
H568 C598 0.950 . S
H569 C599 0.950 . S
C570 H552 0.951 . S
C570 C571 1.366 . S
C570 C572 1.388 . S
C571 C570 1.366 . S
C571 C575 1.385 . S
C572 H553 0.951 . S
C572 C570 1.388 . S
C572 C573 1.366 . S
C573 C572 1.366 . S
C573 C574 1.414 . S
C573 C576 1.499 . S
C574 H554 0.950 . S
C574 C573 1.414 . S
C574 C575 1.374 . S
C575 H555 0.950 . S
C575 C571 1.385 . S
C575 C574 1.374 . S
C576 C573 1.499 . S
C576 C577 1.373 . S
C576 C578 1.389 . S
C577 H556 0.950 . S
C577 C576 1.373 . S
C577 C593 1.377 . S
C578 C576 1.389 . S
C578 C579 1.524 . S
C578 C592 1.377 1_655 S
C579 C578 1.524 . S
C579 C580 1.397 . S
C579 C584 1.363 1_655 S
C580 H557 0.950 . S
C580 C579 1.397 . S
C580 C581 1.334 . S
C581 H558 0.950 . S
C581 C580 1.334 . S
C581 C582 1.287 . S
C582 C581 1.287 . S
C582 C583 1.524 1_655 S
C582 H601 0.913 . S
C583 H559 0.950 . S
C583 C582 1.524 1_455 S
C583 C584 1.415 . S
C584 H560 0.950 . S
C584 C579 1.363 1_455 S
C584 C583 1.415 . S
C585 H561 0.951 . S
C585 C586 1.366 . S
C585 C587 1.388 . S
C586 C585 1.366 . S
C586 C590 1.385 . S
C587 H562 0.951 . S
C587 C585 1.388 . S
C587 C588 1.366 . S
C588 C587 1.366 . S
C588 C589 1.414 . S
C588 C591 1.499 . S
C589 H563 0.950 . S
C589 C588 1.414 . S
C589 C590 1.374 . S
C590 H564 0.950 . S
C590 C586 1.385 . S
C590 C589 1.374 . S
C591 C588 1.499 . S
C591 C592 1.373 . S
C591 C593 1.389 1_455 S
C592 H565 0.950 . S
C592 C578 1.377 1_455 S
C592 C591 1.373 . S
C593 C577 1.377 . S
C593 C591 1.389 1_655 S
C593 C594 1.524 . S
C594 C593 1.524 . S
C594 C595 1.397 1_655 S
C594 C599 1.363 . S
C595 H566 0.950 . S
C595 C594 1.397 1_455 S
C595 C596 1.334 . S
C596 H567 0.950 . S
C596 C595 1.334 . S
C596 C597 1.287 1_455 S
C597 C596 1.287 1_655 S
C597 C598 1.524 . S
C597 H600 0.999 . S
C598 H568 0.950 . S
C598 C597 1.524 . S
C598 C599 1.415 . S
C599 H569 0.950 . S
C599 C594 1.363 . S
C599 C598 1.415 . S
H600 C597 0.999 . S
H601 C582 0.913 . S
H602 C620 0.951 . S
H603 C622 0.951 . S
H604 C624 0.950 . S
H605 C625 0.950 . S
H606 C627 0.950 . S
H607 C630 0.950 . S
H608 C631 0.950 . S
H609 C633 0.950 . S
H610 C634 0.950 . S
H611 C635 0.951 . S
H612 C637 0.951 . S
H613 C639 0.950 . S
H614 C640 0.950 . S
H615 C642 0.950 . S
H616 C645 0.950 . S
H617 C646 0.950 . S
H618 C648 0.950 . S
H619 C649 0.950 . S
C620 H602 0.951 . S
C620 C621 1.366 . S
C620 C622 1.388 . S
C621 C620 1.366 . S
C621 C625 1.385 . S
C622 H603 0.951 . S
C622 C620 1.388 . S
C622 C623 1.366 . S
C623 C622 1.366 . S
C623 C624 1.414 . S
C623 C626 1.499 . S
C624 H604 0.950 . S
C624 C623 1.414 . S
C624 C625 1.374 . S
C625 H605 0.950 . S
C625 C621 1.385 . S
C625 C624 1.374 . S
C626 C623 1.499 . S
C626 C627 1.373 . S
C626 C628 1.389 . S
C627 H606 0.950 . S
C627 C626 1.373 . S
C627 C643 1.377 . S
C628 C626 1.389 . S
C628 C629 1.524 . S
C628 C642 1.377 . S
C629 C628 1.524 . S
C629 C630 1.397 . S
C629 C634 1.363 . S
C630 H607 0.950 . S
C630 C629 1.397 . S
C630 C631 1.334 . S
C631 H608 0.950 . S
C631 C630 1.334 . S
C631 C632 1.287 . S
C632 C631 1.287 . S
C632 C633 1.524 . S
C632 H651 0.913 . S
C633 H609 0.950 . S
C633 C632 1.524 . S
C633 C634 1.415 . S
C634 H610 0.950 . S
C634 C629 1.363 . S
C634 C633 1.415 . S
C635 H611 0.951 . S
C635 C636 1.366 . S
C635 C637 1.388 . S
C636 C635 1.366 . S
C636 C640 1.385 . S
C637 H612 0.951 . S
C637 C635 1.388 . S
C637 C638 1.366 . S
C638 C637 1.366 . S
C638 C639 1.414 . S
C638 C641 1.499 . S
C639 H613 0.950 . S
C639 C638 1.414 . S
C639 C640 1.374 . S
C640 H614 0.950 . S
C640 C636 1.385 . S
C640 C639 1.374 . S
C641 C638 1.499 . S
C641 C642 1.373 . S
C641 C643 1.389 . S
C642 H615 0.950 . S
C642 C628 1.377 . S
C642 C641 1.373 . S
C643 C627 1.377 . S
C643 C641 1.389 . S
C643 C644 1.524 . S
C644 C643 1.524 . S
C644 C645 1.397 . S
C644 C649 1.363 . S
C645 H616 0.950 . S
C645 C644 1.397 . S
C645 C646 1.334 . S
C646 H617 0.950 . S
C646 C645 1.334 . S
C646 C647 1.287 . S
C647 C646 1.287 . S
C647 C648 1.524 . S
C647 H650 0.999 . S
C648 H618 0.950 . S
C648 C647 1.524 . S
C648 C649 1.415 . S
C649 H619 0.950 . S
C649 C644 1.363 . S
C649 C648 1.415 . S
H650 C647 0.999 . S
H651 C632 0.913 . S
H652 C670 0.951 . S
H653 C672 0.951 . S
H654 C674 0.950 . S
H655 C675 0.950 . S
H656 C677 0.950 . S
H657 C680 0.950 . S
H658 C681 0.950 . S
H659 C683 0.950 . S
H660 C684 0.950 . S
H661 C685 0.951 . S
H662 C687 0.951 . S
H663 C689 0.950 . S
H664 C690 0.950 . S
H665 C692 0.950 . S
H666 C695 0.950 . S
H667 C696 0.950 . S
H668 C698 0.950 . S
H669 C699 0.950 . S
C670 H652 0.951 . S
C670 C671 1.366 . S
C670 C672 1.388 . S
C671 C670 1.366 . S
C671 C675 1.385 . S
C672 H653 0.951 . S
C672 C670 1.388 . S
C672 C673 1.366 . S
C673 C672 1.366 . S
C673 C674 1.414 . S
C673 C676 1.499 . S
C674 H654 0.950 . S
C674 C673 1.414 . S
C674 C675 1.374 . S
C675 H655 0.950 . S
C675 C671 1.385 . S
C675 C674 1.374 . S
C676 C673 1.499 . S
C676 C677 1.373 1_545 S
C676 C678 1.389 . S
C677 H656 0.950 . S
C677 C676 1.373 1_565 S
C677 C693 1.377 . S
C678 C676 1.389 . S
C678 C679 1.524 . S
C678 C692 1.377 1_545 S
C679 C678 1.524 . S
C679 C680 1.397 . S
C679 C684 1.363 . S
C680 H657 0.950 . S
C680 C679 1.397 . S
C680 C681 1.334 . S
C681 H658 0.950 . S
C681 C680 1.334 . S
C681 C682 1.287 . S
C682 C681 1.287 . S
C682 C683 1.524 . S
C682 H701 0.913 . S
C683 H659 0.950 . S
C683 C682 1.524 . S
C683 C684 1.415 . S
C684 H660 0.950 . S
C684 C679 1.363 . S
C684 C683 1.415 . S
C685 H661 0.951 . S
C685 C686 1.366 . S
C685 C687 1.388 . S
C686 C685 1.366 . S
C686 C690 1.385 . S
C687 H662 0.951 . S
C687 C685 1.388 . S
C687 C688 1.366 . S
C688 C687 1.366 . S
C688 C689 1.414 . S
C688 C691 1.499 . S
C689 H663 0.950 . S
C689 C688 1.414 . S
C689 C690 1.374 . S
C690 H664 0.950 . S
C690 C686 1.385 . S
C690 C689 1.374 . S
C691 C688 1.499 . S
C691 C692 1.373 . S
C691 C693 1.389 . S
C692 H665 0.950 . S
C692 C678 1.377 1_565 S
C692 C691 1.373 . S
C693 C677 1.377 . S
C693 C691 1.389 . S
C693 C694 1.524 . S
C694 C693 1.524 . S
C694 C695 1.397 . S
C694 C699 1.363 . S
C695 H666 0.950 . S
C695 C694 1.397 . S
C695 C696 1.334 . S
C696 H667 0.950 . S
C696 C695 1.334 . S
C696 C697 1.287 . S
C697 C696 1.287 . S
C697 C698 1.524 . S
C697 H700 0.999 . S
C698 H668 0.950 . S
C698 C697 1.524 . S
C698 C699 1.415 . S
C699 H669 0.950 . S
C699 C694 1.363 . S
C699 C698 1.415 . S
H700 C697 0.999 . S
H701 C682 0.913 . S
H702 C720 0.951 . S
H703 C722 0.951 . S
H704 C724 0.950 . S
H705 C725 0.950 . S
H706 C727 0.950 . S
H707 C730 0.950 . S
H708 C731 0.950 . S
H709 C733 0.950 . S
H710 C734 0.950 . S
H711 C735 0.951 . S
H712 C737 0.951 . S
H713 C739 0.950 . S
H714 C740 0.950 . S
H715 C742 0.950 . S
H716 C745 0.950 . S
H717 C746 0.950 . S
H718 C748 0.950 . S
H719 C749 0.950 . S
C720 H702 0.951 . S
C720 C721 1.366 . S
C720 C722 1.388 . S
C721 C720 1.366 . S
C721 C725 1.385 . S
C722 H703 0.951 . S
C722 C720 1.388 . S
C722 C723 1.366 . S
C723 C722 1.366 . S
C723 C724 1.414 . S
C723 C726 1.499 . S
C724 H704 0.950 . S
C724 C723 1.414 . S
C724 C725 1.374 . S
C725 H705 0.950 . S
C725 C721 1.385 . S
C725 C724 1.374 . S
C726 C723 1.499 . S
C726 C727 1.373 . S
C726 C728 1.389 . S
C727 H706 0.950 . S
C727 C726 1.373 . S
C727 C743 1.377 1_455 S
C728 C726 1.389 . S
C728 C729 1.524 . S
C728 C742 1.377 1_455 S
C729 C728 1.524 . S
C729 C730 1.397 . S
C729 C734 1.363 . S
C730 H707 0.950 . S
C730 C729 1.397 . S
C730 C731 1.334 . S
C731 H708 0.950 . S
C731 C730 1.334 . S
C731 C732 1.287 . S
C732 C731 1.287 . S
C732 C733 1.524 . S
C732 H751 0.913 . S
C733 H709 0.950 . S
C733 C732 1.524 . S
C733 C734 1.415 . S
C734 H710 0.950 . S
C734 C729 1.363 . S
C734 C733 1.415 . S
C735 H711 0.951 . S
C735 C736 1.366 . S
C735 C737 1.388 . S
C736 C735 1.366 . S
C736 C740 1.385 . S
C737 H712 0.951 . S
C737 C735 1.388 . S
C737 C738 1.366 . S
C738 C737 1.366 . S
C738 C739 1.414 . S
C738 C741 1.499 . S
C739 H713 0.950 . S
C739 C738 1.414 . S
C739 C740 1.374 . S
C740 H714 0.950 . S
C740 C736 1.385 . S
C740 C739 1.374 . S
C741 C738 1.499 . S
C741 C742 1.373 . S
C741 C743 1.389 . S
C742 H715 0.950 . S
C742 C728 1.377 1_655 S
C742 C741 1.373 . S
C743 C727 1.377 1_655 S
C743 C741 1.389 . S
C743 C744 1.524 . S
C744 C743 1.524 . S
C744 C745 1.397 . S
C744 C749 1.363 . S
C745 H716 0.950 . S
C745 C744 1.397 . S
C745 C746 1.334 . S
C746 H717 0.950 . S
C746 C745 1.334 . S
C746 C747 1.287 . S
C747 C746 1.287 . S
C747 C748 1.524 . S
C747 H750 0.999 . S
C748 H718 0.950 . S
C748 C747 1.524 . S
C748 C749 1.415 . S
C749 H719 0.950 . S
C749 C744 1.363 . S
C749 C748 1.415 . S
H750 C747 0.999 . S
H751 C732 0.913 . S
H752 C770 0.951 . S
H753 C772 0.951 . S
H754 C774 0.950 . S
H755 C775 0.950 . S
H756 C777 0.950 . S
H757 C780 0.950 . S
H758 C781 0.950 . S
H759 C783 0.950 . S
H760 C784 0.950 . S
H761 C785 0.951 . S
H762 C787 0.951 . S
H763 C789 0.950 . S
H764 C790 0.950 . S
H765 C792 0.950 . S
H766 C795 0.950 . S
H767 C796 0.950 . S
H768 C798 0.950 . S
H769 C799 0.950 . S
C770 H752 0.951 . S
C770 C771 1.366 . S
C770 C772 1.388 . S
C771 C770 1.366 . S
C771 C775 1.385 . S
C772 H753 0.951 . S
C772 C770 1.388 . S
C772 C773 1.366 . S
C773 C772 1.366 . S
C773 C774 1.414 . S
C773 C776 1.499 . S
C774 H754 0.950 . S
C774 C773 1.414 . S
C774 C775 1.374 . S
C775 H755 0.950 . S
C775 C771 1.385 . S
C775 C774 1.374 . S
C776 C773 1.499 . S
C776 C777 1.373 . S
C776 C778 1.389 . S
C777 H756 0.950 . S
C777 C776 1.373 . S
C777 C793 1.377 . S
C778 C776 1.389 . S
C778 C779 1.524 . S
C778 C792 1.377 . S
C779 C778 1.524 . S
C779 C780 1.397 . S
C779 C784 1.363 . S
C780 H757 0.950 . S
C780 C779 1.397 . S
C780 C781 1.334 . S
C781 H758 0.950 . S
C781 C780 1.334 . S
C781 C782 1.287 . S
C782 C781 1.287 . S
C782 C783 1.524 . S
C782 H801 0.913 . S
C783 H759 0.950 . S
C783 C782 1.524 . S
C783 C784 1.415 . S
C784 H760 0.950 . S
C784 C779 1.363 . S
C784 C783 1.415 . S
C785 H761 0.951 . S
C785 C786 1.366 . S
C785 C787 1.388 . S
C786 C785 1.366 . S
C786 C790 1.385 . S
C787 H762 0.951 . S
C787 C785 1.388 . S
C787 C788 1.366 . S
C788 C787 1.366 . S
C788 C789 1.414 . S
C788 C791 1.499 . S
C789 H763 0.950 . S
C789 C788 1.414 . S
C789 C790 1.374 . S
C790 H764 0.950 . S
C790 C786 1.385 . S
C790 C789 1.374 . S
C791 C788 1.499 . S
C791 C792 1.373 . S
C791 C793 1.389 . S
C792 H765 0.950 . S
C792 C778 1.377 . S
C792 C791 1.373 . S
C793 C777 1.377 . S
C793 C791 1.389 . S
C793 C794 1.524 . S
C794 C793 1.524 . S
C794 C795 1.397 . S
C794 C799 1.363 . S
C795 H766 0.950 . S
C795 C794 1.397 . S
C795 C796 1.334 . S
C796 H767 0.950 . S
C796 C795 1.334 . S
C796 C797 1.287 . S
C797 C796 1.287 . S
C797 C798 1.524 . S
C797 H800 0.999 1_655 S
C798 H768 0.950 . S
C798 C797 1.524 . S
C798 C799 1.415 . S
C799 H769 0.950 . S
C799 C794 1.363 . S
C799 C798 1.415 . S
H800 C797 0.999 1_455 S
H801 C782 0.913 . S
H802 C820 0.951 . S
H803 C822 0.951 . S
H804 C824 0.950 . S
H805 C825 0.950 . S
H806 C827 0.950 . S
H807 C830 0.950 . S
H808 C831 0.950 . S
H809 C833 0.950 . S
H810 C834 0.950 . S
H811 C835 0.951 . S
H812 C837 0.951 . S
H813 C839 0.950 . S
H814 C840 0.950 . S
H815 C842 0.946 1_565 S
H816 C845 0.950 . S
H817 C846 0.950 . S
H818 C848 0.950 1_655 S
H819 C849 0.950 . S
C820 H802 0.951 . S
C820 C821 1.366 . S
C820 C822 1.388 . S
C821 C820 1.366 . S
C821 C825 1.385 . S
C822 H803 0.951 . S
C822 C820 1.388 . S
C822 C823 1.366 . S
C823 C822 1.366 . S
C823 C824 1.414 . S
C823 C826 1.499 . S
C824 H804 0.950 . S
C824 C823 1.414 . S
C824 C825 1.374 . S
C825 H805 0.950 . S
C825 C821 1.385 . S
C825 C824 1.374 . S
C826 C823 1.499 . S
C826 C827 1.373 . S
C826 C828 1.389 . S
C827 H806 0.950 . S
C827 C826 1.373 . S
C827 C843 1.377 1_545 S
C828 C826 1.389 . S
C828 C829 1.524 . S
C828 C842 1.381 . S
C829 C828 1.524 . S
C829 C830 1.397 . S
C829 C834 1.363 . S
C830 H807 0.950 . S
C830 C829 1.397 . S
C830 C831 1.334 . S
C831 H808 0.950 . S
C831 C830 1.334 . S
C831 C832 1.287 . S
C832 C831 1.287 . S
C832 C833 1.524 . S
C832 H851 0.913 . S
C833 H809 0.950 . S
C833 C832 1.524 . S
C833 C834 1.415 . S
C834 H810 0.950 . S
C834 C829 1.363 . S
C834 C833 1.415 . S
C835 H811 0.951 . S
C835 C836 1.366 . S
C835 C837 1.388 . S
C836 C835 1.366 . S
C836 C840 1.385 . S
C837 H812 0.951 . S
C837 C835 1.388 . S
C837 C838 1.366 . S
C838 C837 1.366 . S
C838 C839 1.414 . S
C838 C841 1.499 . S
C839 H813 0.950 . S
C839 C838 1.414 . S
C839 C840 1.374 . S
C840 H814 0.950 . S
C840 C836 1.385 . S
C840 C839 1.374 . S
C841 C838 1.499 . S
C841 C842 1.373 1_565 S
C841 C843 1.389 . S
C842 H815 0.946 1_545 S
C842 C828 1.381 . S
C842 C841 1.373 1_545 S
C843 C827 1.377 1_565 S
C843 C841 1.389 . S
C843 C844 1.524 . S
C844 C843 1.524 . S
C844 C845 1.397 . S
C844 C849 1.363 . S
C845 H816 0.950 . S
C845 C844 1.397 . S
C845 C846 1.334 . S
C846 H817 0.950 . S
C846 C845 1.334 . S
C846 C847 1.287 1_455 S
C847 C846 1.287 1_655 S
C847 C848 1.524 1_655 S
C847 H850 0.999 . S
C848 H818 0.950 1_455 S
C848 C847 1.524 1_455 S
C848 C849 1.415 . S
C849 H819 0.950 . S
C849 C844 1.363 . S
C849 C848 1.415 . S
H850 C847 0.999 . S
H851 C832 0.913 . S
H852 C870 0.951 . S
H853 C872 0.951 . S
H854 C874 0.950 . S
H855 C875 0.950 . S
H856 C877 0.950 . S
H857 C880 0.950 . S
H858 C881 0.950 . S
H859 C883 0.950 . S
H860 C884 0.950 . S
H861 C885 0.951 . S
H862 C887 0.951 . S
H863 C889 0.950 . S
H864 C890 0.950 . S
H865 C892 0.950 . S
H866 C895 0.950 . S
H867 C896 0.950 . S
H868 C898 0.950 . S
H869 C899 0.950 1_565 S
C870 H852 0.951 . S
C870 C871 1.366 . S
C870 C872 1.388 . S
C871 C870 1.366 . S
C871 C875 1.385 . S
C872 H853 0.951 . S
C872 C870 1.388 . S
C872 C873 1.366 . S
C873 C872 1.366 . S
C873 C874 1.414 . S
C873 C876 1.499 . S
C874 H854 0.950 . S
C874 C873 1.414 . S
C874 C875 1.374 . S
C875 H855 0.950 . S
C875 C871 1.385 . S
C875 C874 1.374 . S
C876 C873 1.499 . S
C876 C877 1.373 . S
C876 C878 1.389 . S
C877 H856 0.950 . S
C877 C876 1.373 . S
C877 C893 1.377 1_565 S
C878 C876 1.389 . S
C878 C879 1.524 . S
C878 C892 1.377 1_565 S
C879 C878 1.524 . S
C879 C880 1.397 . S
C879 C884 1.363 . S
C880 H857 0.950 . S
C880 C879 1.397 . S
C880 C881 1.334 . S
C881 H858 0.950 . S
C881 C880 1.334 . S
C881 C882 1.287 . S
C882 C881 1.287 . S
C882 C883 1.524 . S
C882 H901 0.913 . S
C883 H859 0.950 . S
C883 C882 1.524 . S
C883 C884 1.415 . S
C884 H860 0.950 . S
C884 C879 1.363 . S
C884 C883 1.415 . S
C885 H861 0.951 . S
C885 C886 1.366 . S
C885 C887 1.388 . S
C886 C885 1.366 . S
C886 C890 1.385 . S
C887 H862 0.951 . S
C887 C885 1.388 . S
C887 C888 1.366 . S
C888 C887 1.366 . S
C888 C889 1.414 . S
C888 C891 1.499 . S
C889 H863 0.950 . S
C889 C888 1.414 . S
C889 C890 1.374 . S
C890 H864 0.950 . S
C890 C886 1.385 . S
C890 C889 1.374 . S
C891 C888 1.499 . S
C891 C892 1.373 . S
C891 C893 1.389 . S
C892 H865 0.950 . S
C892 C878 1.377 1_545 S
C892 C891 1.373 . S
C893 C877 1.377 1_545 S
C893 C891 1.389 . S
C893 C894 1.524 . S
C894 C893 1.524 . S
C894 C895 1.397 . S
C894 C899 1.363 . S
C895 H866 0.950 . S
C895 C894 1.397 . S
C895 C896 1.334 . S
C896 H867 0.950 . S
C896 C895 1.334 . S
C896 C897 1.287 . S
C897 C896 1.287 . S
C897 C898 1.524 . S
C897 H900 0.999 . S
C898 H868 0.950 . S
C898 C897 1.524 . S
C898 C899 1.415 . S
C899 H869 0.950 1_545 S
C899 C894 1.363 . S
C899 C898 1.415 . S
H900 C897 0.999 . S
H901 C882 0.913 . S
H902 C920 0.951 . S
H903 C922 0.951 . S
H904 C924 0.950 . S
H905 C925 0.950 . S
H906 C927 0.950 . S
H907 C930 0.950 . S
H908 C931 0.950 . S
H909 C933 0.950 . S
H910 C934 0.950 . S
H911 C935 0.951 . S
H912 C937 0.951 . S
H913 C939 0.950 . S
H914 C940 0.950 . S
H915 C942 0.929 1_655 S
H916 C945 0.950 . S
H917 C946 0.950 1_565 S
H918 C948 0.950 . S
H919 C949 0.950 . S
C920 H902 0.951 . S
C920 C921 1.366 . S
C920 C922 1.388 . S
C921 C920 1.366 . S
C921 C925 1.385 . S
C922 H903 0.951 . S
C922 C920 1.388 . S
C922 C923 1.366 . S
C923 C922 1.366 . S
C923 C924 1.414 . S
C923 C926 1.499 . S
C924 H904 0.950 . S
C924 C923 1.414 . S
C924 C925 1.374 . S
C925 H905 0.950 . S
C925 C921 1.385 . S
C925 C924 1.374 . S
C926 C923 1.499 . S
C926 C927 1.373 . S
C926 C928 1.389 . S
C927 H906 0.950 . S
C927 C926 1.373 . S
C927 C943 1.377 1_455 S
C928 C926 1.389 . S
C928 C929 1.524 . S
C928 C942 1.401 . S
C929 C928 1.524 . S
C929 C930 1.397 . S
C929 C934 1.363 . S
C930 H907 0.950 . S
C930 C929 1.397 . S
C930 C931 1.334 . S
C931 H908 0.950 . S
C931 C930 1.334 . S
C931 C932 1.287 . S
C932 C931 1.287 . S
C932 C933 1.524 . S
C932 H951 0.913 . S
C933 H909 0.950 . S
C933 C932 1.524 . S
C933 C934 1.415 . S
C934 H910 0.950 . S
C934 C929 1.363 . S
C934 C933 1.415 . S
C935 H911 0.951 . S
C935 C936 1.366 . S
C935 C937 1.388 . S
C936 C935 1.366 . S
C936 C940 1.385 . S
C937 H912 0.951 . S
C937 C935 1.388 . S
C937 C938 1.366 . S
C938 C937 1.366 . S
C938 C939 1.414 . S
C938 C941 1.499 . S
C939 H913 0.950 . S
C939 C938 1.414 . S
C939 C940 1.374 . S
C940 H914 0.950 . S
C940 C936 1.385 . S
C940 C939 1.374 . S
C941 C938 1.499 . S
C941 C942 1.370 1_655 S
C941 C943 1.389 . S
C942 H915 0.929 1_455 S
C942 C928 1.401 . S
C942 C941 1.370 1_455 S
C943 C927 1.377 1_655 S
C943 C941 1.389 . S
C943 C944 1.524 . S
C944 C943 1.524 . S
C944 C945 1.397 . S
C944 C949 1.363 . S
C945 H916 0.950 . S
C945 C944 1.397 . S
C945 C946 1.334 . S
C946 H917 0.950 1_545 S
C946 C945 1.334 . S
C946 C947 1.287 1_545 S
C947 C946 1.287 1_565 S
C947 C948 1.524 1_565 S
C947 H950 0.999 . S
C948 H918 0.950 . S
C948 C947 1.524 1_545 S
C948 C949 1.415 . S
C949 H919 0.950 . S
C949 C944 1.363 . S
C949 C948 1.415 . S
H950 C947 0.999 . S
H951 C932 0.913 . S
H952 C970 0.951 . S
H953 C972 0.951 . S
H954 C974 0.950 . S
H955 C975 0.950 . S
H956 C977 0.950 . S
H957 C980 0.950 . S
H958 C981 0.950 . S
H959 C983 0.950 . S
H960 C984 0.950 . S
H961 C985 0.951 . S
H962 C987 0.951 . S
H963 C989 0.950 . S
H964 C990 0.950 . S
H965 C992 0.950 . S
H966 C995 0.950 . S
H967 C996 0.950 . S
H968 C998 0.950 . S
H969 C999 0.950 . S
C970 H952 0.951 . S
C970 C971 1.366 . S
C970 C972 1.388 . S
C971 C970 1.366 . S
C971 C975 1.385 . S
C972 H953 0.951 . S
C972 C970 1.388 . S
C972 C973 1.366 . S
C973 C972 1.366 . S
C973 C974 1.414 . S
C973 C976 1.499 . S
C974 H954 0.950 . S
C974 C973 1.414 . S
C974 C975 1.374 . S
C975 H955 0.950 . S
C975 C971 1.385 . S
C975 C974 1.374 . S
C976 C973 1.499 . S
C976 C977 1.373 . S
C976 C978 1.389 . S
C977 H956 0.950 . S
C977 C976 1.373 . S
C977 C993 1.377 . S
C978 C976 1.389 . S
C978 C979 1.524 . S
C978 C992 1.377 . S
C979 C978 1.524 . S
C979 C980 1.397 . S
C979 C984 1.363 . S
C980 H957 0.950 . S
C980 C979 1.397 . S
C980 C981 1.334 . S
C981 H958 0.950 . S
C981 C980 1.334 . S
C981 C982 1.287 . S
C982 C981 1.287 . S
C982 C983 1.524 . S
C982 H1001 0.913 . S
C983 H959 0.950 . S
C983 C982 1.524 . S
C983 C984 1.415 . S
C984 H960 0.950 . S
C984 C979 1.363 . S
C984 C983 1.415 . S
C985 H961 0.951 . S
C985 C986 1.366 . S
C985 C987 1.388 . S
C986 C985 1.366 . S
C986 C990 1.385 . S
C987 H962 0.951 . S
C987 C985 1.388 . S
C987 C988 1.366 . S
C988 C987 1.366 . S
C988 C989 1.414 . S
C988 C991 1.499 . S
C989 H963 0.950 . S
C989 C988 1.414 . S
C989 C990 1.374 . S
C990 H964 0.950 . S
C990 C986 1.385 . S
C990 C989 1.374 . S
C991 C988 1.499 . S
C991 C992 1.373 . S
C991 C993 1.389 . S
C992 H965 0.950 . S
C992 C978 1.377 . S
C992 C991 1.373 . S
C993 C977 1.377 . S
C993 C991 1.389 . S
C993 C994 1.524 . S
C994 C993 1.524 . S
C994 C995 1.397 . S
C994 C999 1.363 . S
C995 H966 0.950 . S
C995 C994 1.397 . S
C995 C996 1.334 . S
C996 H967 0.950 . S
C996 C995 1.334 . S
C996 C997 1.287 . S
C997 C996 1.287 . S
C997 C998 1.524 . S
C997 H1000 0.999 . S
C998 H968 0.950 . S
C998 C997 1.524 . S
C998 C999 1.415 . S
C999 H969 0.950 . S
C999 C994 1.363 . S
C999 C998 1.415 . S
H1000 C997 0.999 . S
H1001 C982 0.913 . S
H1002 C1020 0.951 . S
H1003 C1022 0.951 . S
H1004 C1024 0.950 . S
H1005 C1025 0.950 . S
H1006 C1027 0.950 . S
H1007 C1030 0.950 . S
H1008 C1031 0.950 . S
H1009 C1033 0.950 . S
H1010 C1034 0.950 . S
H1011 C1035 0.951 . S
H1012 C1037 0.951 . S
H1013 C1039 0.950 . S
H1014 C1040 0.950 . S
H1015 C1042 0.950 . S
H1016 C1045 0.950 . S
H1017 C1046 0.950 . S
H1018 C1048 0.950 . S
H1019 C1049 0.950 . S
C1020 H1002 0.951 . S
C1020 C1021 1.366 . S
C1020 C1022 1.388 . S
C1021 C1020 1.366 . S
C1021 C1025 1.385 . S
C1022 H1003 0.951 . S
C1022 C1020 1.388 . S
C1022 C1023 1.366 . S
C1023 C1022 1.366 . S
C1023 C1024 1.414 . S
C1023 C1026 1.499 . S
C1024 H1004 0.950 . S
C1024 C1023 1.414 . S
C1024 C1025 1.374 . S
C1025 H1005 0.950 . S
C1025 C1021 1.385 . S
C1025 C1024 1.374 . S
C1026 C1023 1.499 . S
C1026 C1027 1.373 . S
C1026 C1028 1.389 . S
C1027 H1006 0.950 . S
C1027 C1026 1.373 . S
C1027 C1043 1.377 . S
C1028 C1026 1.389 . S
C1028 C1029 1.524 . S
C1028 C1042 1.377 . S
C1029 C1028 1.524 . S
C1029 C1030 1.397 . S
C1029 C1034 1.363 . S
C1030 H1007 0.950 . S
C1030 C1029 1.397 . S
C1030 C1031 1.334 . S
C1031 H1008 0.950 . S
C1031 C1030 1.334 . S
C1031 C1032 1.287 . S
C1032 C1031 1.287 . S
C1032 C1033 1.524 . S
C1032 H1051 0.913 . S
C1033 H1009 0.950 . S
C1033 C1032 1.524 . S
C1033 C1034 1.415 . S
C1034 H1010 0.950 . S
C1034 C1029 1.363 . S
C1034 C1033 1.415 . S
C1035 H1011 0.951 . S
C1035 C1036 1.366 . S
C1035 C1037 1.388 . S
C1036 C1035 1.366 . S
C1036 C1040 1.385 . S
C1037 H1012 0.951 . S
C1037 C1035 1.388 . S
C1037 C1038 1.366 . S
C1038 C1037 1.366 . S
C1038 C1039 1.414 . S
C1038 C1041 1.499 . S
C1039 H1013 0.950 . S
C1039 C1038 1.414 . S
C1039 C1040 1.374 . S
C1040 H1014 0.950 . S
C1040 C1036 1.385 . S
C1040 C1039 1.374 . S
C1041 C1038 1.499 . S
C1041 C1042 1.373 . S
C1041 C1043 1.389 . S
C1042 H1015 0.950 . S
C1042 C1028 1.377 . S
C1042 C1041 1.373 . S
C1043 C1027 1.377 . S
C1043 C1041 1.389 . S
C1043 C1044 1.524 . S
C1044 C1043 1.524 . S
C1044 C1045 1.397 . S
C1044 C1049 1.363 . S
C1045 H1016 0.950 . S
C1045 C1044 1.397 . S
C1045 C1046 1.334 . S
C1046 H1017 0.950 . S
C1046 C1045 1.334 . S
C1046 C1047 1.287 . S
C1047 C1046 1.287 . S
C1047 C1048 1.524 . S
C1047 H1050 0.999 . S
C1048 H1018 0.950 . S
C1048 C1047 1.524 . S
C1048 C1049 1.415 . S
C1049 H1019 0.950 . S
C1049 C1044 1.363 . S
C1049 C1048 1.415 . S
H1050 C1047 0.999 . S
H1051 C1032 0.913 . S
H1052 C1070 0.951 . S
H1053 C1072 0.951 . S
H1054 C1074 0.950 . S
H1055 C1075 0.950 . S
H1056 C1077 0.950 . S
H1057 C1080 0.950 . S
H1058 C1081 0.950 . S
H1059 C1083 0.950 . S
H1060 C1084 0.950 . S
H1061 C1085 0.951 . S
H1062 C1087 0.951 . S
H1063 C1089 0.950 . S
H1064 C1090 0.950 . S
H1065 C1092 0.950 . S
H1066 C1095 0.950 . S
H1067 C1096 0.950 . S
H1068 C1098 0.950 . S
H1069 C1099 0.950 . S
C1070 H1052 0.951 . S
C1070 C1071 1.366 . S
C1070 C1072 1.388 . S
C1071 C1070 1.366 . S
C1071 C1075 1.385 . S
C1072 H1053 0.951 . S
C1072 C1070 1.388 . S
C1072 C1073 1.366 . S
C1073 C1072 1.366 . S
C1073 C1074 1.414 . S
C1073 C1076 1.499 . S
C1074 H1054 0.950 . S
C1074 C1073 1.414 . S
C1074 C1075 1.374 . S
C1075 H1055 0.950 . S
C1075 C1071 1.385 . S
C1075 C1074 1.374 . S
C1076 C1073 1.499 . S
C1076 C1077 1.373 . S
C1076 C1078 1.389 . S
C1077 H1056 0.950 . S
C1077 C1076 1.373 . S
C1077 C1093 1.377 . S
C1078 C1076 1.389 . S
C1078 C1079 1.524 . S
C1078 C1092 1.377 . S
C1079 C1078 1.524 . S
C1079 C1080 1.397 . S
C1079 C1084 1.363 . S
C1080 H1057 0.950 . S
C1080 C1079 1.397 . S
C1080 C1081 1.334 . S
C1081 H1058 0.950 . S
C1081 C1080 1.334 . S
C1081 C1082 1.287 . S
C1082 C1081 1.287 . S
C1082 C1083 1.524 . S
C1082 H1101 0.913 . S
C1083 H1059 0.950 . S
C1083 C1082 1.524 . S
C1083 C1084 1.415 . S
C1084 H1060 0.950 . S
C1084 C1079 1.363 . S
C1084 C1083 1.415 . S
C1085 H1061 0.951 . S
C1085 C1086 1.366 . S
C1085 C1087 1.388 . S
C1086 C1085 1.366 . S
C1086 C1090 1.385 . S
C1087 H1062 0.951 . S
C1087 C1085 1.388 . S
C1087 C1088 1.366 . S
C1088 C1087 1.366 . S
C1088 C1089 1.414 . S
C1088 C1091 1.499 . S
C1089 H1063 0.950 . S
C1089 C1088 1.414 . S
C1089 C1090 1.374 . S
C1090 H1064 0.950 . S
C1090 C1086 1.385 . S
C1090 C1089 1.374 . S
C1091 C1088 1.499 . S
C1091 C1092 1.373 . S
C1091 C1093 1.389 . S
C1092 H1065 0.950 . S
C1092 C1078 1.377 . S
C1092 C1091 1.373 . S
C1093 C1077 1.377 . S
C1093 C1091 1.389 . S
C1093 C1094 1.524 . S
C1094 C1093 1.524 . S
C1094 C1095 1.397 . S
C1094 C1099 1.363 . S
C1095 H1066 0.950 . S
C1095 C1094 1.397 . S
C1095 C1096 1.334 . S
C1096 H1067 0.950 . S
C1096 C1095 1.334 . S
C1096 C1097 1.287 . S
C1097 C1096 1.287 . S
C1097 C1098 1.524 . S
C1097 H1100 0.999 . S
C1098 H1068 0.950 . S
C1098 C1097 1.524 . S
C1098 C1099 1.415 . S
C1099 H1069 0.950 . S
C1099 C1094 1.363 . S
C1099 C1098 1.415 . S
H1100 C1097 0.999 . S
H1101 C1082 0.913 . S
H1102 C1120 0.951 . S
H1103 C1122 0.951 . S
H1104 C1124 0.950 . S
H1105 C1125 0.950 . S
H1106 C1127 0.950 . S
H1107 C1130 0.950 . S
H1108 C1131 0.950 . S
H1109 C1133 0.950 . S
H1110 C1134 0.950 . S
H1111 C1135 0.951 . S
H1112 C1137 0.951 . S
H1113 C1139 0.950 . S
H1114 C1140 0.950 . S
H1115 C1142 0.950 . S
H1116 C1145 0.950 . S
H1117 C1146 0.950 . S
H1118 C1148 0.950 . S
H1119 C1149 0.950 . S
C1120 H1102 0.951 . S
C1120 C1121 1.366 . S
C1120 C1122 1.388 . S
C1121 C1120 1.366 . S
C1121 C1125 1.385 . S
C1122 H1103 0.951 . S
C1122 C1120 1.388 . S
C1122 C1123 1.366 . S
C1123 C1122 1.366 . S
C1123 C1124 1.414 . S
C1123 C1126 1.499 . S
C1124 H1104 0.950 . S
C1124 C1123 1.414 . S
C1124 C1125 1.374 . S
C1125 H1105 0.950 . S
C1125 C1121 1.385 . S
C1125 C1124 1.374 . S
C1126 C1123 1.499 . S
C1126 C1127 1.373 . S
C1126 C1128 1.389 . S
C1127 H1106 0.950 . S
C1127 C1126 1.373 . S
C1127 C1143 1.377 . S
C1128 C1126 1.389 . S
C1128 C1129 1.524 . S
C1128 C1142 1.377 . S
C1129 C1128 1.524 . S
C1129 C1130 1.397 . S
C1129 C1134 1.363 . S
C1130 H1107 0.950 . S
C1130 C1129 1.397 . S
C1130 C1131 1.334 . S
C1131 H1108 0.950 . S
C1131 C1130 1.334 . S
C1131 C1132 1.287 . S
C1132 C1131 1.287 . S
C1132 C1133 1.524 . S
C1132 H1151 0.913 . S
C1133 H1109 0.950 . S
C1133 C1132 1.524 . S
C1133 C1134 1.415 . S
C1134 H1110 0.950 . S
C1134 C1129 1.363 . S
C1134 C1133 1.415 . S
C1135 H1111 0.951 . S
C1135 C1136 1.366 . S
C1135 C1137 1.388 . S
C1136 C1135 1.366 . S
C1136 C1140 1.385 . S
C1137 H1112 0.951 . S
C1137 C1135 1.388 . S
C1137 C1138 1.366 . S
C1138 C1137 1.366 . S
C1138 C1139 1.414 . S
C1138 C1141 1.499 . S
C1139 H1113 0.950 . S
C1139 C1138 1.414 . S
C1139 C1140 1.374 . S
C1140 H1114 0.950 . S
C1140 C1136 1.385 . S
C1140 C1139 1.374 . S
C1141 C1138 1.499 . S
C1141 C1142 1.373 . S
C1141 C1143 1.389 . S
C1142 H1115 0.950 . S
C1142 C1128 1.377 . S
C1142 C1141 1.373 . S
C1143 C1127 1.377 . S
C1143 C1141 1.389 . S
C1143 C1144 1.524 . S
C1144 C1143 1.524 . S
C1144 C1145 1.397 . S
C1144 C1149 1.363 . S
C1145 H1116 0.950 . S
C1145 C1144 1.397 . S
C1145 C1146 1.334 . S
C1146 H1117 0.950 . S
C1146 C1145 1.334 . S
C1146 C1147 1.287 . S
C1147 C1146 1.287 . S
C1147 C1148 1.524 . S
C1147 H1150 0.999 . S
C1148 H1118 0.950 . S
C1148 C1147 1.524 . S
C1148 C1149 1.415 . S
C1149 H1119 0.950 . S
C1149 C1144 1.363 . S
C1149 C1148 1.415 . S
H1150 C1147 0.999 . S
H1151 C1132 0.913 . S
H1152 C1170 0.951 . S
H1153 C1172 0.951 . S
H1154 C1174 0.950 . S
H1155 C1175 0.950 . S
H1156 C1177 0.950 . S
H1157 C1180 0.950 . S
H1158 C1181 0.950 . S
H1159 C1183 0.950 . S
H1160 C1184 0.950 . S
H1161 C1185 0.951 . S
H1162 C1187 0.951 . S
H1163 C1189 0.950 . S
H1164 C1190 0.950 . S
H1165 C1192 0.950 . S
H1166 C1195 0.950 . S
H1167 C1196 0.950 . S
H1168 C1198 0.950 . S
H1169 C1199 0.950 . S
C1170 H1152 0.951 . S
C1170 C1171 1.366 . S
C1170 C1172 1.388 . S
C1171 C1170 1.366 . S
C1171 C1175 1.385 . S
C1172 H1153 0.951 . S
C1172 C1170 1.388 . S
C1172 C1173 1.366 . S
C1173 C1172 1.366 . S
C1173 C1174 1.414 . S
C1173 C1176 1.499 . S
C1174 H1154 0.950 . S
C1174 C1173 1.414 . S
C1174 C1175 1.374 . S
C1175 H1155 0.950 . S
C1175 C1171 1.385 . S
C1175 C1174 1.374 . S
C1176 C1173 1.499 . S
C1176 C1177 1.373 . S
C1176 C1178 1.389 . S
C1177 H1156 0.950 . S
C1177 C1176 1.373 . S
C1177 C1193 1.377 . S
C1178 C1176 1.389 . S
C1178 C1179 1.524 . S
C1178 C1192 1.377 . S
C1179 C1178 1.524 . S
C1179 C1180 1.397 . S
C1179 C1184 1.363 . S
C1180 H1157 0.950 . S
C1180 C1179 1.397 . S
C1180 C1181 1.334 . S
C1181 H1158 0.950 . S
C1181 C1180 1.334 . S
C1181 C1182 1.287 . S
C1182 C1181 1.287 . S
C1182 C1183 1.524 . S
C1182 H1201 0.913 . S
C1183 H1159 0.950 . S
C1183 C1182 1.524 . S
C1183 C1184 1.415 . S
C1184 H1160 0.950 . S
C1184 C1179 1.363 . S
C1184 C1183 1.415 . S
C1185 H1161 0.951 . S
C1185 C1186 1.366 . S
C1185 C1187 1.388 . S
C1186 C1185 1.366 . S
C1186 C1190 1.385 . S
C1187 H1162 0.951 . S
C1187 C1185 1.388 . S
C1187 C1188 1.366 . S
C1188 C1187 1.366 . S
C1188 C1189 1.414 . S
C1188 C1191 1.499 . S
C1189 H1163 0.950 . S
C1189 C1188 1.414 . S
C1189 C1190 1.374 . S
C1190 H1164 0.950 . S
C1190 C1186 1.385 . S
C1190 C1189 1.374 . S
C1191 C1188 1.499 . S
C1191 C1192 1.373 . S
C1191 C1193 1.389 . S
C1192 H1165 0.950 . S
C1192 C1178 1.377 . S
C1192 C1191 1.373 . S
C1193 C1177 1.377 . S
C1193 C1191 1.389 . S
C1193 C1194 1.524 . S
C1194 C1193 1.524 . S
C1194 C1195 1.397 . S
C1194 C1199 1.363 . S
C1195 H1166 0.950 . S
C1195 C1194 1.397 . S
C1195 C1196 1.334 . S
C1196 H1167 0.950 . S
C1196 C1195 1.334 . S
C1196 C1197 1.287 . S
C1197 C1196 1.287 . S
C1197 C1198 1.524 . S
C1197 H1200 0.999 . S
C1198 H1168 0.950 . S
C1198 C1197 1.524 . S
C1198 C1199 1.415 . S
C1199 H1169 0.950 . S
C1199 C1194 1.363 . S
C1199 C1198 1.415 . S
H1200 C1197 0.999 . S
H1201 C1182 0.913 . S
H1202 C1220 0.951 . S
H1203 C1222 0.951 . S
H1204 C1224 0.950 . S
H1205 C1225 0.950 . S
H1206 C1227 0.950 . S
H1207 C1230 0.950 . S
H1208 C1231 0.950 . S
H1209 C1233 0.950 . S
H1210 C1234 0.950 . S
H1211 C1235 0.951 . S
H1212 C1237 0.951 . S
H1213 C1239 0.950 . S
H1214 C1240 0.950 . S
H1215 C1242 0.950 . S
H1216 C1245 0.950 . S
H1217 C1246 0.950 . S
H1218 C1248 0.950 . S
H1219 C1249 0.950 . S
C1220 H1202 0.951 . S
C1220 C1221 1.366 . S
C1220 C1222 1.388 . S
C1221 C1220 1.366 . S
C1221 C1225 1.385 . S
C1222 H1203 0.951 . S
C1222 C1220 1.388 . S
C1222 C1223 1.366 . S
C1223 C1222 1.366 . S
C1223 C1224 1.414 . S
C1223 C1226 1.499 . S
C1224 H1204 0.950 . S
C1224 C1223 1.414 . S
C1224 C1225 1.374 . S
C1225 H1205 0.950 . S
C1225 C1221 1.385 . S
C1225 C1224 1.374 . S
C1226 C1223 1.499 . S
C1226 C1227 1.373 . S
C1226 C1228 1.389 . S
C1227 H1206 0.950 . S
C1227 C1226 1.373 . S
C1227 C1243 1.377 . S
C1228 C1226 1.389 . S
C1228 C1229 1.524 . S
C1228 C1242 1.377 . S
C1229 C1228 1.524 . S
C1229 C1230 1.397 . S
C1229 C1234 1.363 . S
C1230 H1207 0.950 . S
C1230 C1229 1.397 . S
C1230 C1231 1.334 . S
C1231 H1208 0.950 . S
C1231 C1230 1.334 . S
C1231 C1232 1.287 . S
C1232 C1231 1.287 . S
C1232 C1233 1.524 . S
C1232 H1251 0.913 . S
C1233 H1209 0.950 . S
C1233 C1232 1.524 . S
C1233 C1234 1.415 . S
C1234 H1210 0.950 . S
C1234 C1229 1.363 . S
C1234 C1233 1.415 . S
C1235 H1211 0.951 . S
C1235 C1236 1.366 . S
C1235 C1237 1.388 . S
C1236 C1235 1.366 . S
C1236 C1240 1.385 . S
C1237 H1212 0.951 . S
C1237 C1235 1.388 . S
C1237 C1238 1.366 . S
C1238 C1237 1.366 . S
C1238 C1239 1.414 . S
C1238 C1241 1.499 . S
C1239 H1213 0.950 . S
C1239 C1238 1.414 . S
C1239 C1240 1.374 . S
C1240 H1214 0.950 . S
C1240 C1236 1.385 . S
C1240 C1239 1.374 . S
C1241 C1238 1.499 . S
C1241 C1242 1.373 . S
C1241 C1243 1.389 . S
C1242 H1215 0.950 . S
C1242 C1228 1.377 . S
C1242 C1241 1.373 . S
C1243 C1227 1.377 . S
C1243 C1241 1.389 . S
C1243 C1244 1.524 . S
C1244 C1243 1.524 . S
C1244 C1245 1.397 . S
C1244 C1249 1.363 . S
C1245 H1216 0.950 . S
C1245 C1244 1.397 . S
C1245 C1246 1.334 . S
C1246 H1217 0.950 . S
C1246 C1245 1.334 . S
C1246 C1247 1.287 . S
C1247 C1246 1.287 . S
C1247 C1248 1.524 . S
C1247 H1250 0.999 . S
C1248 H1218 0.950 . S
C1248 C1247 1.524 . S
C1248 C1249 1.415 . S
C1249 H1219 0.950 . S
C1249 C1244 1.363 . S
C1249 C1248 1.415 . S
H1250 C1247 0.999 . S
H1251 C1232 0.913 . S
H1252 C1270 0.951 . S
H1253 C1272 0.951 . S
H1254 C1274 0.950 . S
H1255 C1275 0.950 . S
H1256 C1277 0.950 . S
H1257 C1280 0.950 . S
H1258 C1281 0.950 . S
H1259 C1283 0.950 . S
H1260 C1284 0.950 . S
H1261 C1285 0.951 . S
H1262 C1287 0.951 . S
H1263 C1289 0.950 . S
H1264 C1290 0.950 . S
H1265 C1292 0.950 . S
H1266 C1295 0.950 . S
H1267 C1296 0.950 . S
H1268 C1298 0.950 . S
H1269 C1299 0.950 . S
C1270 H1252 0.951 . S
C1270 C1271 1.366 . S
C1270 C1272 1.388 . S
C1271 C1270 1.366 . S
C1271 C1275 1.385 . S
C1272 H1253 0.951 . S
C1272 C1270 1.388 . S
C1272 C1273 1.366 . S
C1273 C1272 1.366 . S
C1273 C1274 1.414 . S
C1273 C1276 1.499 . S
C1274 H1254 0.950 . S
C1274 C1273 1.414 . S
C1274 C1275 1.374 . S
C1275 H1255 0.950 . S
C1275 C1271 1.385 . S
C1275 C1274 1.374 . S
C1276 C1273 1.499 . S
C1276 C1277 1.373 . S
C1276 C1278 1.389 . S
C1277 H1256 0.950 . S
C1277 C1276 1.373 . S
C1277 C1293 1.377 . S
C1278 C1276 1.389 . S
C1278 C1279 1.524 . S
C1278 C1292 1.377 . S
C1279 C1278 1.524 . S
C1279 C1280 1.397 . S
C1279 C1284 1.363 . S
C1280 H1257 0.950 . S
C1280 C1279 1.397 . S
C1280 C1281 1.334 . S
C1281 H1258 0.950 . S
C1281 C1280 1.334 . S
C1281 C1282 1.287 . S
C1282 C1281 1.287 . S
C1282 C1283 1.524 . S
C1282 H1301 0.913 . S
C1283 H1259 0.950 . S
C1283 C1282 1.524 . S
C1283 C1284 1.415 . S
C1284 H1260 0.950 . S
C1284 C1279 1.363 . S
C1284 C1283 1.415 . S
C1285 H1261 0.951 . S
C1285 C1286 1.366 . S
C1285 C1287 1.388 . S
C1286 C1285 1.366 . S
C1286 C1290 1.385 . S
C1287 H1262 0.951 . S
C1287 C1285 1.388 . S
C1287 C1288 1.366 . S
C1288 C1287 1.366 . S
C1288 C1289 1.414 . S
C1288 C1291 1.499 . S
C1289 H1263 0.950 . S
C1289 C1288 1.414 . S
C1289 C1290 1.374 . S
C1290 H1264 0.950 . S
C1290 C1286 1.385 . S
C1290 C1289 1.374 . S
C1291 C1288 1.499 . S
C1291 C1292 1.373 . S
C1291 C1293 1.389 . S
C1292 H1265 0.950 . S
C1292 C1278 1.377 . S
C1292 C1291 1.373 . S
C1293 C1277 1.377 . S
C1293 C1291 1.389 . S
C1293 C1294 1.524 . S
C1294 C1293 1.524 . S
C1294 C1295 1.397 . S
C1294 C1299 1.363 . S
C1295 H1266 0.950 . S
C1295 C1294 1.397 . S
C1295 C1296 1.334 . S
C1296 H1267 0.950 . S
C1296 C1295 1.334 . S
C1296 C1297 1.287 . S
C1297 C1296 1.287 . S
C1297 C1298 1.524 . S
C1297 H1300 0.999 . S
C1298 H1268 0.950 . S
C1298 C1297 1.524 . S
C1298 C1299 1.415 . S
C1299 H1269 0.950 . S
C1299 C1294 1.363 . S
C1299 C1298 1.415 . S
H1300 C1297 0.999 . S
H1301 C1282 0.913 . S
H1302 C1320 0.951 . S
H1303 C1322 0.951 . S
H1304 C1324 0.950 . S
H1305 C1325 0.950 . S
H1306 C1327 0.950 . S
H1307 C1330 0.950 . S
H1308 C1331 0.950 . S
H1309 C1333 0.950 . S
H1310 C1334 0.950 . S
H1311 C1335 0.951 . S
H1312 C1337 0.951 . S
H1313 C1339 0.950 . S
H1314 C1340 0.950 . S
H1315 C1342 0.950 . S
H1316 C1345 0.950 . S
H1317 C1346 0.950 . S
H1318 C1348 0.950 . S
H1319 C1349 0.950 . S
C1320 H1302 0.951 . S
C1320 C1321 1.366 . S
C1320 C1322 1.388 . S
C1321 C1320 1.366 . S
C1321 C1325 1.385 . S
C1322 H1303 0.951 . S
C1322 C1320 1.388 . S
C1322 C1323 1.366 . S
C1323 C1322 1.366 . S
C1323 C1324 1.414 . S
C1323 C1326 1.499 . S
C1324 H1304 0.950 . S
C1324 C1323 1.414 . S
C1324 C1325 1.374 . S
C1325 H1305 0.950 . S
C1325 C1321 1.385 . S
C1325 C1324 1.374 . S
C1326 C1323 1.499 . S
C1326 C1327 1.373 . S
C1326 C1328 1.389 . S
C1327 H1306 0.950 . S
C1327 C1326 1.373 . S
C1327 C1343 1.377 . S
C1328 C1326 1.389 . S
C1328 C1329 1.524 . S
C1328 C1342 1.377 . S
C1329 C1328 1.524 . S
C1329 C1330 1.397 . S
C1329 C1334 1.363 . S
C1330 H1307 0.950 . S
C1330 C1329 1.397 . S
C1330 C1331 1.334 . S
C1331 H1308 0.950 . S
C1331 C1330 1.334 . S
C1331 C1332 1.287 . S
C1332 C1331 1.287 . S
C1332 C1333 1.524 . S
C1332 H1351 0.913 . S
C1333 H1309 0.950 . S
C1333 C1332 1.524 . S
C1333 C1334 1.415 . S
C1334 H1310 0.950 . S
C1334 C1329 1.363 . S
C1334 C1333 1.415 . S
C1335 H1311 0.951 . S
C1335 C1336 1.366 . S
C1335 C1337 1.388 . S
C1336 C1335 1.366 . S
C1336 C1340 1.385 . S
C1337 H1312 0.951 . S
C1337 C1335 1.388 . S
C1337 C1338 1.366 . S
C1338 C1337 1.366 . S
C1338 C1339 1.414 . S
C1338 C1341 1.499 . S
C1339 H1313 0.950 . S
C1339 C1338 1.414 . S
C1339 C1340 1.374 . S
C1340 H1314 0.950 . S
C1340 C1336 1.385 . S
C1340 C1339 1.374 . S
C1341 C1338 1.499 . S
C1341 C1342 1.373 . S
C1341 C1343 1.389 . S
C1342 H1315 0.950 . S
C1342 C1328 1.377 . S
C1342 C1341 1.373 . S
C1343 C1327 1.377 . S
C1343 C1341 1.389 . S
C1343 C1344 1.524 . S
C1344 C1343 1.524 . S
C1344 C1345 1.397 . S
C1344 C1349 1.363 . S
C1345 H1316 0.950 . S
C1345 C1344 1.397 . S
C1345 C1346 1.334 . S
C1346 H1317 0.950 . S
C1346 C1345 1.334 . S
C1346 C1347 1.287 . S
C1347 C1346 1.287 . S
C1347 C1348 1.524 . S
C1347 H1350 0.999 . S
C1348 H1318 0.950 . S
C1348 C1347 1.524 . S
C1348 C1349 1.415 . S
C1349 H1319 0.950 . S
C1349 C1344 1.363 . S
C1349 C1348 1.415 . S
H1350 C1347 0.999 . S
H1351 C1332 0.913 . S
H1352 C1370 0.951 . S
H1353 C1372 0.951 . S
H1354 C1374 0.950 . S
H1355 C1375 0.950 . S
H1356 C1377 0.950 . S
H1357 C1380 0.950 . S
H1358 C1381 0.950 . S
H1359 C1383 0.950 . S
H1360 C1384 0.950 . S
H1361 C1385 0.951 . S
H1362 C1387 0.951 . S
H1363 C1389 0.950 . S
H1364 C1390 0.950 . S
H1365 C1392 0.950 . S
H1366 C1395 0.950 . S
H1367 C1396 0.950 . S
H1368 C1398 0.950 . S
H1369 C1399 0.950 . S
C1370 H1352 0.951 . S
C1370 C1371 1.366 . S
C1370 C1372 1.388 . S
C1371 C1370 1.366 . S
C1371 C1375 1.385 . S
C1372 H1353 0.951 . S
C1372 C1370 1.388 . S
C1372 C1373 1.366 . S
C1373 C1372 1.366 . S
C1373 C1374 1.414 . S
C1373 C1376 1.499 . S
C1374 H1354 0.950 . S
C1374 C1373 1.414 . S
C1374 C1375 1.374 . S
C1375 H1355 0.950 . S
C1375 C1371 1.385 . S
C1375 C1374 1.374 . S
C1376 C1373 1.499 . S
C1376 C1377 1.373 . S
C1376 C1378 1.389 . S
C1377 H1356 0.950 . S
C1377 C1376 1.373 . S
C1377 C1393 1.377 . S
C1378 C1376 1.389 . S
C1378 C1379 1.524 . S
C1378 C1392 1.377 . S
C1379 C1378 1.524 . S
C1379 C1380 1.397 . S
C1379 C1384 1.363 . S
C1380 H1357 0.950 . S
C1380 C1379 1.397 . S
C1380 C1381 1.334 . S
C1381 H1358 0.950 . S
C1381 C1380 1.334 . S
C1381 C1382 1.287 . S
C1382 C1381 1.287 . S
C1382 C1383 1.524 . S
C1382 H1401 0.913 . S
C1383 H1359 0.950 . S
C1383 C1382 1.524 . S
C1383 C1384 1.415 . S
C1384 H1360 0.950 . S
C1384 C1379 1.363 . S
C1384 C1383 1.415 . S
C1385 H1361 0.951 . S
C1385 C1386 1.366 . S
C1385 C1387 1.388 . S
C1386 C1385 1.366 . S
C1386 C1390 1.385 . S
C1387 H1362 0.951 . S
C1387 C1385 1.388 . S
C1387 C1388 1.366 . S
C1388 C1387 1.366 . S
C1388 C1389 1.414 . S
C1388 C1391 1.499 . S
C1389 H1363 0.950 . S
C1389 C1388 1.414 . S
C1389 C1390 1.374 . S
C1390 H1364 0.950 . S
C1390 C1386 1.385 . S
C1390 C1389 1.374 . S
C1391 C1388 1.499 . S
C1391 C1392 1.373 . S
C1391 C1393 1.389 . S
C1392 H1365 0.950 . S
C1392 C1378 1.377 . S
C1392 C1391 1.373 . S
C1393 C1377 1.377 . S
C1393 C1391 1.389 . S
C1393 C1394 1.524 . S
C1394 C1393 1.524 . S
C1394 C1395 1.397 . S
C1394 C1399 1.363 . S
C1395 H1366 0.950 . S
C1395 C1394 1.397 . S
C1395 C1396 1.334 . S
C1396 H1367 0.950 . S
C1396 C1395 1.334 . S
C1396 C1397 1.287 . S
C1397 C1396 1.287 . S
C1397 C1398 1.524 . S
C1397 H1400 0.999 . S
C1398 H1368 0.950 . S
C1398 C1397 1.524 . S
C1398 C1399 1.415 . S
C1399 H1369 0.950 . S
C1399 C1394 1.363 . S
C1399 C1398 1.415 . S
H1400 C1397 0.999 . S
H1401 C1382 0.913 . S
H1402 C1420 0.951 . S
H1403 C1422 0.951 . S
H1404 C1424 0.950 . S
H1405 C1425 0.950 . S
H1406 C1427 0.950 . S
H1407 C1430 0.950 . S
H1408 C1431 0.950 . S
H1409 C1433 0.950 . S
H1410 C1434 0.950 . S
H1411 C1435 0.951 . S
H1412 C1437 0.951 . S
H1413 C1439 0.950 . S
H1414 C1440 0.950 . S
H1415 C1442 0.950 . S
H1416 C1445 0.950 . S
H1417 C1446 0.950 . S
H1418 C1448 0.950 . S
H1419 C1449 0.950 . S
C1420 H1402 0.951 . S
C1420 C1421 1.366 . S
C1420 C1422 1.388 . S
C1421 C1420 1.366 . S
C1421 C1425 1.385 . S
C1422 H1403 0.951 . S
C1422 C1420 1.388 . S
C1422 C1423 1.366 . S
C1423 C1422 1.366 . S
C1423 C1424 1.414 . S
C1423 C1426 1.499 . S
C1424 H1404 0.950 . S
C1424 C1423 1.414 . S
C1424 C1425 1.374 . S
C1425 H1405 0.950 . S
C1425 C1421 1.385 . S
C1425 C1424 1.374 . S
C1426 C1423 1.499 . S
C1426 C1427 1.373 . S
C1426 C1428 1.389 . S
C1427 H1406 0.950 . S
C1427 C1426 1.373 . S
C1427 C1443 1.377 . S
C1428 C1426 1.389 . S
C1428 C1429 1.524 . S
C1428 C1442 1.377 . S
C1429 C1428 1.524 . S
C1429 C1430 1.397 . S
C1429 C1434 1.363 . S
C1430 H1407 0.950 . S
C1430 C1429 1.397 . S
C1430 C1431 1.334 . S
C1431 H1408 0.950 . S
C1431 C1430 1.334 . S
C1431 C1432 1.287 . S
C1432 C1431 1.287 . S
C1432 C1433 1.524 . S
C1432 H1451 0.913 . S
C1433 H1409 0.950 . S
C1433 C1432 1.524 . S
C1433 C1434 1.415 . S
C1434 H1410 0.950 . S
C1434 C1429 1.363 . S
C1434 C1433 1.415 . S
C1435 H1411 0.951 . S
C1435 C1436 1.366 . S
C1435 C1437 1.388 . S
C1436 C1435 1.366 . S
C1436 C1440 1.385 . S
C1437 H1412 0.951 . S
C1437 C1435 1.388 . S
C1437 C1438 1.366 . S
C1438 C1437 1.366 . S
C1438 C1439 1.414 . S
C1438 C1441 1.499 . S
C1439 H1413 0.950 . S
C1439 C1438 1.414 . S
C1439 C1440 1.374 . S
C1440 H1414 0.950 . S
C1440 C1436 1.385 . S
C1440 C1439 1.374 . S
C1441 C1438 1.499 . S
C1441 C1442 1.373 . S
C1441 C1443 1.389 . S
C1442 H1415 0.950 . S
C1442 C1428 1.377 . S
C1442 C1441 1.373 . S
C1443 C1427 1.377 . S
C1443 C1441 1.389 . S
C1443 C1444 1.524 . S
C1444 C1443 1.524 . S
C1444 C1445 1.397 . S
C1444 C1449 1.363 . S
C1445 H1416 0.950 . S
C1445 C1444 1.397 . S
C1445 C1446 1.334 . S
C1446 H1417 0.950 . S
C1446 C1445 1.334 . S
C1446 C1447 1.287 . S
C1447 C1446 1.287 . S
C1447 C1448 1.524 . S
C1447 H1450 0.999 . S
C1448 H1418 0.950 . S
C1448 C1447 1.524 . S
C1448 C1449 1.415 . S
C1449 H1419 0.950 . S
C1449 C1444 1.363 . S
C1449 C1448 1.415 . S
H1450 C1447 0.999 . S
H1451 C1432 0.913 . S
H1452 C1470 0.951 . S
H1453 C1472 0.951 . S
H1454 C1474 0.950 . S
H1455 C1475 0.950 . S
H1456 C1477 0.950 . S
H1457 C1480 0.950 . S
H1458 C1481 0.950 . S
H1459 C1483 0.950 . S
H1460 C1484 0.950 . S
H1461 C1485 0.951 . S
H1462 C1487 0.951 . S
H1463 C1489 0.950 . S
H1464 C1490 0.950 . S
H1465 C1492 0.950 . S
H1466 C1495 0.950 . S
H1467 C1496 0.950 . S
H1468 C1498 0.950 . S
H1469 C1499 0.950 . S
C1470 H1452 0.951 . S
C1470 C1471 1.366 . S
C1470 C1472 1.388 . S
C1471 C1470 1.366 . S
C1471 C1475 1.385 . S
C1472 H1453 0.951 . S
C1472 C1470 1.388 . S
C1472 C1473 1.366 . S
C1473 C1472 1.366 . S
C1473 C1474 1.414 . S
C1473 C1476 1.499 . S
C1474 H1454 0.950 . S
C1474 C1473 1.414 . S
C1474 C1475 1.374 . S
C1475 H1455 0.950 . S
C1475 C1471 1.385 . S
C1475 C1474 1.374 . S
C1476 C1473 1.499 . S
C1476 C1477 1.373 . S
C1476 C1478 1.389 . S
C1477 H1456 0.950 . S
C1477 C1476 1.373 . S
C1477 C1493 1.377 . S
C1478 C1476 1.389 . S
C1478 C1479 1.524 . S
C1478 C1492 1.377 . S
C1479 C1478 1.524 . S
C1479 C1480 1.397 . S
C1479 C1484 1.363 . S
C1480 H1457 0.950 . S
C1480 C1479 1.397 . S
C1480 C1481 1.334 . S
C1481 H1458 0.950 . S
C1481 C1480 1.334 . S
C1481 C1482 1.287 . S
C1482 C1481 1.287 . S
C1482 C1483 1.524 . S
C1482 H1501 0.913 . S
C1483 H1459 0.950 . S
C1483 C1482 1.524 . S
C1483 C1484 1.415 . S
C1484 H1460 0.950 . S
C1484 C1479 1.363 . S
C1484 C1483 1.415 . S
C1485 H1461 0.951 . S
C1485 C1486 1.366 . S
C1485 C1487 1.388 . S
C1486 C1485 1.366 . S
C1486 C1490 1.385 . S
C1487 H1462 0.951 . S
C1487 C1485 1.388 . S
C1487 C1488 1.366 . S
C1488 C1487 1.366 . S
C1488 C1489 1.414 . S
C1488 C1491 1.499 . S
C1489 H1463 0.950 . S
C1489 C1488 1.414 . S
C1489 C1490 1.374 . S
C1490 H1464 0.950 . S
C1490 C1486 1.385 . S
C1490 C1489 1.374 . S
C1491 C1488 1.499 . S
C1491 C1492 1.373 . S
C1491 C1493 1.389 . S
C1492 H1465 0.950 . S
C1492 C1478 1.377 . S
C1492 C1491 1.373 . S
C1493 C1477 1.377 . S
C1493 C1491 1.389 . S
C1493 C1494 1.524 . S
C1494 C1493 1.524 . S
C1494 C1495 1.397 . S
C1494 C1499 1.363 . S
C1495 H1466 0.950 . S
C1495 C1494 1.397 . S
C1495 C1496 1.334 . S
C1496 H1467 0.950 . S
C1496 C1495 1.334 . S
C1496 C1497 1.287 . S
C1497 C1496 1.287 . S
C1497 C1498 1.524 . S
C1497 H1500 0.999 . S
C1498 H1468 0.950 . S
C1498 C1497 1.524 . S
C1498 C1499 1.415 . S
C1499 H1469 0.950 . S
C1499 C1494 1.363 . S
C1499 C1498 1.415 . S
H1500 C1497 0.999 . S
H1501 C1482 0.913 . S
H1502 C1520 0.951 . S
H1503 C1522 0.951 . S
H1504 C1524 0.950 . S
H1505 C1525 0.950 . S
H1506 C1527 0.950 . S
H1507 C1530 0.950 . S
H1508 C1531 0.950 . S
H1509 C1533 0.950 . S
H1510 C1534 0.950 . S
H1511 C1535 0.951 . S
H1512 C1537 0.951 . S
H1513 C1539 0.950 . S
H1514 C1540 0.950 . S
H1515 C1542 0.950 . S
H1516 C1545 0.950 . S
H1517 C1546 0.950 . S
H1518 C1548 0.950 . S
H1519 C1549 0.950 . S
C1520 H1502 0.951 . S
C1520 C1521 1.366 . S
C1520 C1522 1.388 . S
C1521 C1520 1.366 . S
C1521 C1525 1.385 . S
C1522 H1503 0.951 . S
C1522 C1520 1.388 . S
C1522 C1523 1.366 . S
C1523 C1522 1.366 . S
C1523 C1524 1.414 . S
C1523 C1526 1.499 . S
C1524 H1504 0.950 . S
C1524 C1523 1.414 . S
C1524 C1525 1.374 . S
C1525 H1505 0.950 . S
C1525 C1521 1.385 . S
C1525 C1524 1.374 . S
C1526 C1523 1.499 . S
C1526 C1527 1.373 . S
C1526 C1528 1.389 . S
C1527 H1506 0.950 . S
C1527 C1526 1.373 . S
C1527 C1543 1.377 . S
C1528 C1526 1.389 . S
C1528 C1529 1.524 . S
C1528 C1542 1.377 . S
C1529 C1528 1.524 . S
C1529 C1530 1.397 . S
C1529 C1534 1.363 . S
C1530 H1507 0.950 . S
C1530 C1529 1.397 . S
C1530 C1531 1.334 . S
C1531 H1508 0.950 . S
C1531 C1530 1.334 . S
C1531 C1532 1.287 . S
C1532 C1531 1.287 . S
C1532 C1533 1.524 . S
C1532 H1551 0.913 . S
C1533 H1509 0.950 . S
C1533 C1532 1.524 . S
C1533 C1534 1.415 . S
C1534 H1510 0.950 . S
C1534 C1529 1.363 . S
C1534 C1533 1.415 . S
C1535 H1511 0.951 . S
C1535 C1536 1.366 . S
C1535 C1537 1.388 . S
C1536 C1535 1.366 . S
C1536 C1540 1.385 . S
C1537 H1512 0.951 . S
C1537 C1535 1.388 . S
C1537 C1538 1.366 . S
C1538 C1537 1.366 . S
C1538 C1539 1.414 . S
C1538 C1541 1.499 . S
C1539 H1513 0.950 . S
C1539 C1538 1.414 . S
C1539 C1540 1.374 . S
C1540 H1514 0.950 . S
C1540 C1536 1.385 . S
C1540 C1539 1.374 . S
C1541 C1538 1.499 . S
C1541 C1542 1.373 . S
C1541 C1543 1.389 . S
C1542 H1515 0.950 . S
C1542 C1528 1.377 . S
C1542 C1541 1.373 . S
C1543 C1527 1.377 . S
C1543 C1541 1.389 . S
C1543 C1544 1.524 . S
C1544 C1543 1.524 . S
C1544 C1545 1.397 . S
C1544 C1549 1.363 . S
C1545 H1516 0.950 . S
C1545 C1544 1.397 . S
C1545 C1546 1.334 . S
C1546 H1517 0.950 . S
C1546 C1545 1.334 . S
C1546 C1547 1.287 . S
C1547 C1546 1.287 . S
C1547 C1548 1.524 . S
C1547 H1550 0.999 . S
C1548 H1518 0.950 . S
C1548 C1547 1.524 . S
C1548 C1549 1.415 . S
C1549 H1519 0.950 . S
C1549 C1544 1.363 . S
C1549 C1548 1.415 . S
H1550 C1547 0.999 . S
H1551 C1532 0.913 . S
H1552 C1570 0.951 . S
H1553 C1572 0.951 . S
H1554 C1574 0.950 . S
H1555 C1575 0.950 . S
H1556 C1577 0.950 . S
H1557 C1580 0.950 . S
H1558 C1581 0.950 . S
H1559 C1583 0.950 . S
H1560 C1584 0.950 . S
H1561 C1585 0.951 . S
H1562 C1587 0.951 . S
H1563 C1589 0.950 . S
H1564 C1590 0.950 . S
H1565 C1592 0.950 . S
H1566 C1595 0.950 . S
H1567 C1596 0.950 . S
H1568 C1598 0.950 . S
H1569 C1599 0.950 . S
C1570 H1552 0.951 . S
C1570 C1571 1.366 . S
C1570 C1572 1.388 . S
C1571 C1570 1.366 . S
C1571 C1575 1.385 . S
C1572 H1553 0.951 . S
C1572 C1570 1.388 . S
C1572 C1573 1.366 . S
C1573 C1572 1.366 . S
C1573 C1574 1.414 . S
C1573 C1576 1.499 . S
C1574 H1554 0.950 . S
C1574 C1573 1.414 . S
C1574 C1575 1.374 . S
C1575 H1555 0.950 . S
C1575 C1571 1.385 . S
C1575 C1574 1.374 . S
C1576 C1573 1.499 . S
C1576 C1577 1.373 . S
C1576 C1578 1.389 . S
C1577 H1556 0.950 . S
C1577 C1576 1.373 . S
C1577 C1593 1.377 . S
C1578 C1576 1.389 . S
C1578 C1579 1.524 . S
C1578 C1592 1.377 . S
C1579 C1578 1.524 . S
C1579 C1580 1.397 . S
C1579 C1584 1.363 . S
C1580 H1557 0.950 . S
C1580 C1579 1.397 . S
C1580 C1581 1.334 . S
C1581 H1558 0.950 . S
C1581 C1580 1.334 . S
C1581 C1582 1.287 . S
C1582 C1581 1.287 . S
C1582 C1583 1.524 . S
C1582 H1601 0.913 . S
C1583 H1559 0.950 . S
C1583 C1582 1.524 . S
C1583 C1584 1.415 . S
C1584 H1560 0.950 . S
C1584 C1579 1.363 . S
C1584 C1583 1.415 . S
C1585 H1561 0.951 . S
C1585 C1586 1.366 . S
C1585 C1587 1.388 . S
C1586 C1585 1.366 . S
C1586 C1590 1.385 . S
C1587 H1562 0.951 . S
C1587 C1585 1.388 . S
C1587 C1588 1.366 . S
C1588 C1587 1.366 . S
C1588 C1589 1.414 . S
C1588 C1591 1.499 . S
C1589 H1563 0.950 . S
C1589 C1588 1.414 . S
C1589 C1590 1.374 . S
C1590 H1564 0.950 . S
C1590 C1586 1.385 . S
C1590 C1589 1.374 . S
C1591 C1588 1.499 . S
C1591 C1592 1.373 . S
C1591 C1593 1.389 . S
C1592 H1565 0.950 . S
C1592 C1578 1.377 . S
C1592 C1591 1.373 . S
C1593 C1577 1.377 . S
C1593 C1591 1.389 . S
C1593 C1594 1.524 . S
C1594 C1593 1.524 . S
C1594 C1595 1.397 . S
C1594 C1599 1.363 . S
C1595 H1566 0.950 . S
C1595 C1594 1.397 . S
C1595 C1596 1.334 . S
C1596 H1567 0.950 . S
C1596 C1595 1.334 . S
C1596 C1597 1.287 . S
C1597 C1596 1.287 . S
C1597 C1598 1.524 . S
C1597 H1600 0.999 . S
C1598 H1568 0.950 . S
C1598 C1597 1.524 . S
C1598 C1599 1.415 . S
C1599 H1569 0.950 . S
C1599 C1594 1.363 . S
C1599 C1598 1.415 . S
H1600 C1597 0.999 . S
H1601 C1582 0.913 . S
H1602 C1620 0.951 . S
H1603 C1622 0.951 . S
H1604 C1624 0.950 . S
H1605 C1625 0.950 . S
H1606 C1627 0.950 . S
H1607 C1630 0.950 . S
H1608 C1631 0.950 . S
H1609 C1633 0.950 . S
H1610 C1634 0.950 . S
H1611 C1635 0.951 . S
H1612 C1637 0.951 . S
H1613 C1639 0.950 . S
H1614 C1640 0.950 . S
H1615 C1642 0.950 . S
H1616 C1645 0.950 . S
H1617 C1646 0.950 . S
H1618 C1648 0.950 . S
H1619 C1649 0.950 . S
C1620 H1602 0.951 . S
C1620 C1621 1.366 . S
C1620 C1622 1.388 . S
C1621 C1620 1.366 . S
C1621 C1625 1.385 . S
C1622 H1603 0.951 . S
C1622 C1620 1.388 . S
C1622 C1623 1.366 . S
C1623 C1622 1.366 . S
C1623 C1624 1.414 . S
C1623 C1626 1.499 . S
C1624 H1604 0.950 . S
C1624 C1623 1.414 . S
C1624 C1625 1.374 . S
C1625 H1605 0.950 . S
C1625 C1621 1.385 . S
C1625 C1624 1.374 . S
C1626 C1623 1.499 . S
C1626 C1627 1.373 . S
C1626 C1628 1.389 . S
C1627 H1606 0.950 . S
C1627 C1626 1.373 . S
C1627 C1643 1.377 1_554 S
C1628 C1626 1.389 . S
C1628 C1629 1.524 . S
C1628 C1642 1.377 1_554 S
C1629 C1628 1.524 . S
C1629 C1630 1.397 . S
C1629 C1634 1.363 . S
C1630 H1607 0.950 . S
C1630 C1629 1.397 . S
C1630 C1631 1.334 . S
C1631 H1608 0.950 . S
C1631 C1630 1.334 . S
C1631 C1632 1.287 . S
C1632 C1631 1.287 . S
C1632 C1633 1.524 . S
C1632 H1651 0.913 . S
C1633 H1609 0.950 . S
C1633 C1632 1.524 . S
C1633 C1634 1.415 . S
C1634 H1610 0.950 . S
C1634 C1629 1.363 . S
C1634 C1633 1.415 . S
C1635 H1611 0.951 . S
C1635 C1636 1.366 . S
C1635 C1637 1.388 . S
C1636 C1635 1.366 . S
C1636 C1640 1.385 . S
C1637 H1612 0.951 . S
C1637 C1635 1.388 . S
C1637 C1638 1.366 . S
C1638 C1637 1.366 . S
C1638 C1639 1.414 . S
C1638 C1641 1.499 . S
C1639 H1613 0.950 . S
C1639 C1638 1.414 . S
C1639 C1640 1.374 . S
C1640 H1614 0.950 . S
C1640 C1636 1.385 . S
C1640 C1639 1.374 . S
C1641 C1638 1.499 . S
C1641 C1642 1.373 . S
C1641 C1643 1.389 . S
C1642 H1615 0.950 . S
C1642 C1628 1.377 1_556 S
C1642 C1641 1.373 . S
C1643 C1627 1.377 1_556 S
C1643 C1641 1.389 . S
C1643 C1644 1.524 . S
C1644 C1643 1.524 . S
C1644 C1645 1.397 . S
C1644 C1649 1.363 . S
C1645 H1616 0.950 . S
C1645 C1644 1.397 . S
C1645 C1646 1.334 . S
C1646 H1617 0.950 . S
C1646 C1645 1.334 . S
C1646 C1647 1.287 . S
C1647 C1646 1.287 . S
C1647 C1648 1.524 . S
C1647 H1650 0.999 . S
C1648 H1618 0.950 . S
C1648 C1647 1.524 . S
C1648 C1649 1.415 . S
C1649 H1619 0.950 . S
C1649 C1644 1.363 . S
C1649 C1648 1.415 . S
H1650 C1647 0.999 . S
H1651 C1632 0.913 . S
H1652 C1670 0.951 . S
H1653 C1672 0.951 . S
H1654 C1674 0.950 . S
H1655 C1675 0.950 . S
H1656 C1677 0.950 . S
H1657 C1680 0.950 . S
H1658 C1681 0.950 . S
H1659 C1683 0.950 . S
H1660 C1684 0.950 . S
H1661 C1685 0.951 . S
H1662 C1687 0.951 . S
H1663 C1689 0.950 . S
H1664 C1690 0.950 . S
H1665 C1692 0.950 . S
H1666 C1695 0.950 . S
H1667 C1696 0.950 . S
H1668 C1698 0.950 . S
H1669 C1699 0.950 . S
C1670 H1652 0.951 . S
C1670 C1671 1.366 1_565 S
C1670 C1672 1.388 . S
C1671 C1670 1.366 1_545 S
C1671 C1675 1.385 . S
C1672 H1653 0.951 . S
C1672 C1670 1.388 . S
C1672 C1673 1.366 1_565 S
C1673 C1672 1.366 1_545 S
C1673 C1674 1.414 . S
C1673 C1676 1.499 . S
C1674 H1654 0.950 . S
C1674 C1673 1.414 . S
C1674 C1675 1.374 . S
C1675 H1655 0.950 . S
C1675 C1671 1.385 . S
C1675 C1674 1.374 . S
C1676 C1673 1.499 . S
C1676 C1677 1.373 . S
C1676 C1678 1.389 1_545 S
C1677 H1656 0.950 . S
C1677 C1676 1.373 . S
C1677 C1693 1.377 1_556 S
C1678 C1676 1.389 1_565 S
C1678 C1679 1.524 . S
C1678 C1692 1.377 1_556 S
C1679 C1678 1.524 . S
C1679 C1680 1.397 . S
C1679 C1684 1.363 . S
C1680 H1657 0.950 . S
C1680 C1679 1.397 . S
C1680 C1681 1.334 . S
C1681 H1658 0.950 . S
C1681 C1680 1.334 . S
C1681 C1682 1.287 . S
C1682 C1681 1.287 . S
C1682 C1683 1.524 . S
C1682 H1701 0.913 . S
C1683 H1659 0.950 . S
C1683 C1682 1.524 . S
C1683 C1684 1.415 . S
C1684 H1660 0.950 . S
C1684 C1679 1.363 . S
C1684 C1683 1.415 . S
C1685 H1661 0.951 . S
C1685 C1686 1.366 1_545 S
C1685 C1687 1.388 . S
C1686 C1685 1.366 1_565 S
C1686 C1690 1.385 . S
C1687 H1662 0.951 . S
C1687 C1685 1.388 . S
C1687 C1688 1.366 1_545 S
C1688 C1687 1.366 1_565 S
C1688 C1689 1.414 . S
C1688 C1691 1.499 . S
C1689 H1663 0.950 . S
C1689 C1688 1.414 . S
C1689 C1690 1.374 . S
C1690 H1664 0.950 . S
C1690 C1686 1.385 . S
C1690 C1689 1.374 . S
C1691 C1688 1.499 . S
C1691 C1692 1.373 . S
C1691 C1693 1.389 1_565 S
C1692 H1665 0.950 . S
C1692 C1678 1.377 1_554 S
C1692 C1691 1.373 . S
C1693 C1677 1.377 1_554 S
C1693 C1691 1.389 1_545 S
C1693 C1694 1.524 . S
C1694 C1693 1.524 . S
C1694 C1695 1.397 . S
C1694 C1699 1.363 . S
C1695 H1666 0.950 . S
C1695 C1694 1.397 . S
C1695 C1696 1.334 . S
C1696 H1667 0.950 . S
C1696 C1695 1.334 . S
C1696 C1697 1.287 . S
C1697 C1696 1.287 . S
C1697 C1698 1.524 . S
C1697 H1700 0.999 . S
C1698 H1668 0.950 . S
C1698 C1697 1.524 . S
C1698 C1699 1.415 . S
C1699 H1669 0.950 . S
C1699 C1694 1.363 . S
C1699 C1698 1.415 . S
H1700 C1697 0.999 . S
H1701 C1682 0.913 . S
H1702 C1720 0.951 . S
H1703 C1722 0.951 . S
H1704 C1724 0.950 . S
H1705 C1725 0.950 . S
H1706 C1727 0.950 . S
H1707 C1730 0.950 . S
H1708 C1731 0.950 . S
H1709 C1733 0.950 . S
H1710 C1734 0.950 . S
H1711 C1735 0.951 . S
H1712 C1737 0.951 . S
H1713 C1739 0.950 . S
H1714 C1740 0.950 . S
H1715 C1742 0.950 . S
H1716 C1745 0.950 . S
H1717 C1746 0.950 . S
H1718 C1748 0.950 . S
H1719 C1749 0.950 . S
C1720 H1702 0.951 . S
C1720 C1721 1.366 1_455 S
C1720 C1722 1.388 . S
C1721 C1720 1.366 1_655 S
C1721 C1725 1.385 . S
C1722 H1703 0.951 . S
C1722 C1720 1.388 . S
C1722 C1723 1.347 1_455 S
C1723 C1722 1.347 1_655 S
C1723 C1724 1.434 . S
C1723 C1726 1.499 . S
C1724 H1704 0.950 . S
C1724 C1723 1.434 . S
C1724 C1725 1.374 . S
C1725 H1705 0.950 . S
C1725 C1721 1.385 . S
C1725 C1724 1.374 . S
C1726 C1723 1.499 . S
C1726 C1727 1.408 . S
C1726 C1728 1.357 1_655 S
C1727 H1706 0.950 . S
C1727 C1726 1.408 . S
C1727 C1743 1.377 1_556 S
C1728 C1726 1.357 1_455 S
C1728 C1729 1.524 . S
C1728 C1742 1.377 1_556 S
C1729 C1728 1.524 . S
C1729 C1730 1.397 . S
C1729 C1734 1.363 . S
C1730 H1707 0.950 . S
C1730 C1729 1.397 . S
C1730 C1731 1.334 . S
C1731 H1708 0.950 . S
C1731 C1730 1.334 . S
C1731 C1732 1.287 . S
C1732 C1731 1.287 . S
C1732 C1733 1.524 . S
C1732 H1751 0.913 . S
C1733 H1709 0.950 . S
C1733 C1732 1.524 . S
C1733 C1734 1.415 . S
C1734 H1710 0.950 . S
C1734 C1729 1.363 . S
C1734 C1733 1.415 . S
C1735 H1711 0.951 . S
C1735 C1736 1.366 1_655 S
C1735 C1737 1.388 . S
C1736 C1735 1.366 1_455 S
C1736 C1740 1.385 . S
C1737 H1712 0.951 . S
C1737 C1735 1.388 . S
C1737 C1738 1.366 1_655 S
C1738 C1737 1.366 1_455 S
C1738 C1739 1.414 . S
C1738 C1741 1.499 . S
C1739 H1713 0.950 . S
C1739 C1738 1.414 . S
C1739 C1740 1.374 . S
C1740 H1714 0.950 . S
C1740 C1736 1.385 . S
C1740 C1739 1.374 . S
C1741 C1738 1.499 . S
C1741 C1742 1.373 . S
C1741 C1743 1.389 1_455 S
C1742 H1715 0.950 . S
C1742 C1728 1.377 1_554 S
C1742 C1741 1.373 . S
C1743 C1727 1.377 1_554 S
C1743 C1741 1.389 1_655 S
C1743 C1744 1.524 . S
C1744 C1743 1.524 . S
C1744 C1745 1.397 . S
C1744 C1749 1.363 . S
C1745 H1716 0.950 . S
C1745 C1744 1.397 . S
C1745 C1746 1.334 . S
C1746 H1717 0.950 . S
C1746 C1745 1.334 . S
C1746 C1747 1.287 . S
C1747 C1746 1.287 . S
C1747 C1748 1.524 . S
C1747 H1750 0.999 . S
C1748 H1718 0.950 . S
C1748 C1747 1.524 . S
C1748 C1749 1.415 . S
C1749 H1719 0.950 . S
C1749 C1744 1.363 . S
C1749 C1748 1.415 . S
H1750 C1747 0.999 . S
H1751 C1732 0.913 . S
H1752 C1770 0.951 . S
H1753 C1772 0.951 . S
H1754 C1774 0.950 . S
H1755 C1775 0.950 . S
H1756 C1777 0.950 . S
H1757 C1780 0.950 . S
H1758 C1781 0.950 . S
H1759 C1783 0.950 . S
H1760 C1784 0.950 . S
H1761 C1785 0.951 . S
H1762 C1787 0.951 . S
H1763 C1789 0.950 . S
H1764 C1790 0.950 . S
H1765 C1792 0.950 . S
H1766 C1795 0.950 . S
H1767 C1796 0.950 . S
H1768 C1798 0.950 . S
H1769 C1799 0.950 . S
C1770 H1752 0.951 . S
C1770 C1771 1.366 . S
C1770 C1772 1.388 . S
C1771 C1770 1.366 . S
C1771 C1775 1.385 . S
C1772 H1753 0.951 . S
C1772 C1770 1.388 . S
C1772 C1773 1.366 . S
C1773 C1772 1.366 . S
C1773 C1774 1.414 . S
C1773 C1776 1.499 . S
C1774 H1754 0.950 . S
C1774 C1773 1.414 . S
C1774 C1775 1.374 . S
C1775 H1755 0.950 . S
C1775 C1771 1.385 . S
C1775 C1774 1.374 . S
C1776 C1773 1.499 . S
C1776 C1777 1.373 . S
C1776 C1778 1.389 . S
C1777 H1756 0.950 . S
C1777 C1776 1.373 . S
C1777 C1793 1.377 . S
C1778 C1776 1.389 . S
C1778 C1779 1.524 . S
C1778 C1792 1.377 . S
C1779 C1778 1.524 . S
C1779 C1780 1.397 . S
C1779 C1784 1.363 . S
C1780 H1757 0.950 . S
C1780 C1779 1.397 . S
C1780 C1781 1.334 . S
C1781 H1758 0.950 . S
C1781 C1780 1.334 . S
C1781 C1782 1.287 . S
C1782 C1781 1.287 . S
C1782 C1783 1.524 . S
C1782 H1801 0.913 . S
C1783 H1759 0.950 . S
C1783 C1782 1.524 . S
C1783 C1784 1.415 . S
C1784 H1760 0.950 . S
C1784 C1779 1.363 . S
C1784 C1783 1.415 . S
C1785 H1761 0.951 . S
C1785 C1786 1.366 . S
C1785 C1787 1.388 . S
C1786 C1785 1.366 . S
C1786 C1790 1.385 . S
C1787 H1762 0.951 . S
C1787 C1785 1.388 . S
C1787 C1788 1.366 . S
C1788 C1787 1.366 . S
C1788 C1789 1.414 . S
C1788 C1791 1.499 . S
C1789 H1763 0.950 . S
C1789 C1788 1.414 . S
C1789 C1790 1.374 . S
C1790 H1764 0.950 . S
C1790 C1786 1.385 . S
C1790 C1789 1.374 . S
C1791 C1788 1.499 . S
C1791 C1792 1.373 . S
C1791 C1793 1.389 . S
C1792 H1765 0.950 . S
C1792 C1778 1.377 . S
C1792 C1791 1.373 . S
C1793 C1777 1.377 . S
C1793 C1791 1.389 . S
C1793 C1794 1.524 . S
C1794 C1793 1.524 . S
C1794 C1795 1.397 . S
C1794 C1799 1.363 . S
C1795 H1766 0.950 . S
C1795 C1794 1.397 . S
C1795 C1796 1.334 . S
C1796 H1767 0.950 . S
C1796 C1795 1.334 . S
C1796 C1797 1.287 . S
C1797 C1796 1.287 . S
C1797 C1798 1.524 . S
C1797 H1800 0.999 . S
C1798 H1768 0.950 . S
C1798 C1797 1.524 . S
C1798 C1799 1.415 . S
C1799 H1769 0.950 . S
C1799 C1794 1.363 . S
C1799 C1798 1.415 . S
H1800 C1797 0.999 . S
H1801 C1782 0.913 . S
H1802 C1820 0.951 . S
H1803 C1822 0.951 . S
H1804 C1824 0.950 . S
H1805 C1825 0.950 . S
H1806 C1827 0.950 . S
H1807 C1830 0.950 . S
H1808 C1831 0.950 . S
H1809 C1833 0.950 . S
H1810 C1834 0.950 . S
H1811 C1835 0.951 . S
H1812 C1837 0.951 . S
H1813 C1839 0.950 . S
H1814 C1840 0.950 . S
H1815 C1842 0.950 . S
H1816 C1845 0.950 . S
H1817 C1846 0.950 . S
H1818 C1848 0.950 . S
H1819 C1849 0.950 . S
C1820 H1802 0.951 . S
C1820 C1821 1.366 . S
C1820 C1822 1.388 . S
C1821 C1820 1.366 . S
C1821 C1825 1.385 . S
C1822 H1803 0.951 . S
C1822 C1820 1.388 . S
C1822 C1823 1.366 . S
C1823 C1822 1.366 . S
C1823 C1824 1.414 . S
C1823 C1826 1.499 . S
C1824 H1804 0.950 . S
C1824 C1823 1.414 . S
C1824 C1825 1.374 . S
C1825 H1805 0.950 . S
C1825 C1821 1.385 . S
C1825 C1824 1.374 . S
C1826 C1823 1.499 . S
C1826 C1827 1.373 . S
C1826 C1828 1.389 . S
C1827 H1806 0.950 . S
C1827 C1826 1.373 . S
C1827 C1843 1.377 . S
C1828 C1826 1.389 . S
C1828 C1829 1.524 . S
C1828 C1842 1.377 . S
C1829 C1828 1.524 . S
C1829 C1830 1.397 . S
C1829 C1834 1.363 . S
C1830 H1807 0.950 . S
C1830 C1829 1.397 . S
C1830 C1831 1.334 . S
C1831 H1808 0.950 . S
C1831 C1830 1.334 . S
C1831 C1832 1.287 . S
C1832 C1831 1.287 . S
C1832 C1833 1.524 . S
C1832 H1851 0.913 . S
C1833 H1809 0.950 . S
C1833 C1832 1.524 . S
C1833 C1834 1.415 . S
C1834 H1810 0.950 . S
C1834 C1829 1.363 . S
C1834 C1833 1.415 . S
C1835 H1811 0.951 . S
C1835 C1836 1.366 . S
C1835 C1837 1.388 . S
C1836 C1835 1.366 . S
C1836 C1840 1.385 . S
C1837 H1812 0.951 . S
C1837 C1835 1.388 . S
C1837 C1838 1.366 . S
C1838 C1837 1.366 . S
C1838 C1839 1.414 . S
C1838 C1841 1.499 . S
C1839 H1813 0.950 . S
C1839 C1838 1.414 . S
C1839 C1840 1.374 . S
C1840 H1814 0.950 . S
C1840 C1836 1.385 . S
C1840 C1839 1.374 . S
C1841 C1838 1.499 . S
C1841 C1842 1.373 . S
C1841 C1843 1.389 . S
C1842 H1815 0.950 . S
C1842 C1828 1.377 . S
C1842 C1841 1.373 . S
C1843 C1827 1.377 . S
C1843 C1841 1.389 . S
C1843 C1844 1.524 . S
C1844 C1843 1.524 . S
C1844 C1845 1.397 . S
C1844 C1849 1.363 . S
C1845 H1816 0.950 . S
C1845 C1844 1.397 . S
C1845 C1846 1.334 . S
C1846 H1817 0.950 . S
C1846 C1845 1.334 . S
C1846 C1847 1.287 . S
C1847 C1846 1.287 . S
C1847 C1848 1.524 . S
C1847 H1850 0.999 . S
C1848 H1818 0.950 . S
C1848 C1847 1.524 . S
C1848 C1849 1.415 . S
C1849 H1819 0.950 . S
C1849 C1844 1.363 . S
C1849 C1848 1.415 . S
H1850 C1847 0.999 . S
H1851 C1832 0.913 . S
H1852 C1870 0.951 . S
H1853 C1872 0.951 . S
H1854 C1874 0.950 . S
H1855 C1875 0.950 . S
H1856 C1877 0.950 . S
H1857 C1880 0.950 . S
H1858 C1881 0.950 . S
H1859 C1883 0.950 . S
H1860 C1884 0.950 . S
H1861 C1885 0.951 . S
H1862 C1887 0.951 . S
H1863 C1889 0.950 . S
H1864 C1890 0.950 . S
H1865 C1892 0.950 . S
H1866 C1895 0.950 . S
H1867 C1896 0.950 . S
H1868 C1898 0.950 . S
H1869 C1899 0.950 . S
C1870 H1852 0.951 . S
C1870 C1871 1.366 . S
C1870 C1872 1.388 . S
C1871 C1870 1.366 . S
C1871 C1875 1.385 . S
C1872 H1853 0.951 . S
C1872 C1870 1.388 . S
C1872 C1873 1.366 . S
C1873 C1872 1.366 . S
C1873 C1874 1.414 . S
C1873 C1876 1.499 . S
C1874 H1854 0.950 . S
C1874 C1873 1.414 . S
C1874 C1875 1.374 . S
C1875 H1855 0.950 . S
C1875 C1871 1.385 . S
C1875 C1874 1.374 . S
C1876 C1873 1.499 . S
C1876 C1877 1.373 . S
C1876 C1878 1.389 . S
C1877 H1856 0.950 . S
C1877 C1876 1.373 . S
C1877 C1893 1.377 . S
C1878 C1876 1.389 . S
C1878 C1879 1.524 . S
C1878 C1892 1.377 . S
C1879 C1878 1.524 . S
C1879 C1880 1.397 . S
C1879 C1884 1.363 . S
C1880 H1857 0.950 . S
C1880 C1879 1.397 . S
C1880 C1881 1.334 . S
C1881 H1858 0.950 . S
C1881 C1880 1.334 . S
C1881 C1882 1.287 . S
C1882 C1881 1.287 . S
C1882 C1883 1.524 . S
C1882 H1901 0.913 . S
C1883 H1859 0.950 . S
C1883 C1882 1.524 . S
C1883 C1884 1.415 . S
C1884 H1860 0.950 . S
C1884 C1879 1.363 . S
C1884 C1883 1.415 . S
C1885 H1861 0.951 . S
C1885 C1886 1.366 . S
C1885 C1887 1.388 . S
C1886 C1885 1.366 . S
C1886 C1890 1.385 . S
C1887 H1862 0.951 . S
C1887 C1885 1.388 . S
C1887 C1888 1.366 . S
C1888 C1887 1.366 . S
C1888 C1889 1.414 . S
C1888 C1891 1.499 . S
C1889 H1863 0.950 . S
C1889 C1888 1.414 . S
C1889 C1890 1.374 . S
C1890 H1864 0.950 . S
C1890 C1886 1.385 . S
C1890 C1889 1.374 . S
C1891 C1888 1.499 . S
C1891 C1892 1.373 . S
C1891 C1893 1.389 . S
C1892 H1865 0.950 . S
C1892 C1878 1.377 . S
C1892 C1891 1.373 . S
C1893 C1877 1.377 . S
C1893 C1891 1.389 . S
C1893 C1894 1.524 . S
C1894 C1893 1.524 . S
C1894 C1895 1.397 . S
C1894 C1899 1.363 . S
C1895 H1866 0.950 . S
C1895 C1894 1.397 . S
C1895 C1896 1.334 . S
C1896 H1867 0.950 . S
C1896 C1895 1.334 . S
C1896 C1897 1.287 . S
C1897 C1896 1.287 . S
C1897 C1898 1.524 . S
C1897 H1900 1.002 1_545 S
C1898 H1868 0.950 . S
C1898 C1897 1.524 . S
C1898 C1899 1.415 . S
C1899 H1869 0.950 . S
C1899 C1894 1.363 . S
C1899 C1898 1.415 . S
H1900 C1897 1.002 1_565 S
H1901 C1882 0.913 . S
H1902 C1920 0.951 . S
H1903 C1922 0.951 . S
H1904 C1924 0.950 . S
H1905 C1925 0.950 . S
H1906 C1927 0.950 . S
H1907 C1930 0.950 . S
H1908 C1931 0.950 . S
H1909 C1933 0.950 . S
H1910 C1934 0.950 . S
H1911 C1935 0.951 . S
H1912 C1937 0.951 . S
H1913 C1939 0.950 . S
H1914 C1940 0.950 . S
H1915 C1942 0.950 . S
H1916 C1945 0.950 . S
H1917 C1946 0.950 . S
H1918 C1948 0.950 . S
H1919 C1949 0.950 . S
C1920 H1902 0.951 . S
C1920 C1921 1.366 . S
C1920 C1922 1.388 . S
C1921 C1920 1.366 . S
C1921 C1925 1.385 . S
C1922 H1903 0.951 . S
C1922 C1920 1.388 . S
C1922 C1923 1.366 . S
C1923 C1922 1.366 . S
C1923 C1924 1.414 . S
C1923 C1926 1.499 . S
C1924 H1904 0.950 . S
C1924 C1923 1.414 . S
C1924 C1925 1.374 . S
C1925 H1905 0.950 . S
C1925 C1921 1.385 . S
C1925 C1924 1.374 . S
C1926 C1923 1.499 . S
C1926 C1927 1.373 . S
C1926 C1928 1.389 . S
C1927 H1906 0.950 . S
C1927 C1926 1.373 . S
C1927 C1943 1.377 . S
C1928 C1926 1.389 . S
C1928 C1929 1.524 . S
C1928 C1942 1.377 . S
C1929 C1928 1.524 . S
C1929 C1930 1.397 . S
C1929 C1934 1.363 . S
C1930 H1907 0.950 . S
C1930 C1929 1.397 . S
C1930 C1931 1.334 . S
C1931 H1908 0.950 . S
C1931 C1930 1.334 . S
C1931 C1932 1.287 . S
C1932 C1931 1.287 . S
C1932 C1933 1.524 . S
C1932 H1951 0.913 . S
C1933 H1909 0.950 . S
C1933 C1932 1.524 . S
C1933 C1934 1.415 . S
C1934 H1910 0.950 . S
C1934 C1929 1.363 . S
C1934 C1933 1.415 . S
C1935 H1911 0.951 . S
C1935 C1936 1.366 . S
C1935 C1937 1.388 . S
C1936 C1935 1.366 . S
C1936 C1940 1.385 . S
C1937 H1912 0.951 . S
C1937 C1935 1.388 . S
C1937 C1938 1.366 . S
C1938 C1937 1.366 . S
C1938 C1939 1.414 . S
C1938 C1941 1.499 . S
C1939 H1913 0.950 . S
C1939 C1938 1.414 . S
C1939 C1940 1.374 . S
C1940 H1914 0.950 . S
C1940 C1936 1.385 . S
C1940 C1939 1.374 . S
C1941 C1938 1.499 . S
C1941 C1942 1.373 . S
C1941 C1943 1.389 . S
C1942 H1915 0.950 . S
C1942 C1928 1.377 . S
C1942 C1941 1.373 . S
C1943 C1927 1.377 . S
C1943 C1941 1.389 . S
C1943 C1944 1.524 . S
C1944 C1943 1.524 . S
C1944 C1945 1.397 . S
C1944 C1949 1.363 . S
C1945 H1916 0.950 . S
C1945 C1944 1.397 . S
C1945 C1946 1.334 . S
C1946 H1917 0.950 . S
C1946 C1945 1.334 . S
C1946 C1947 1.287 . S
C1947 C1946 1.287 . S
C1947 C1948 1.524 . S
C1947 H1950 0.999 . S
C1948 H1918 0.950 . S
C1948 C1947 1.524 . S
C1948 C1949 1.415 . S
C1949 H1919 0.950 . S
C1949 C1944 1.363 . S
C1949 C1948 1.415 . S
H1950 C1947 0.999 . S
H1951 C1932 0.913 . S
H1952 C1970 0.951 . S
H1953 C1972 0.951 . S
H1954 C1974 0.950 . S
H1955 C1975 0.950 . S
H1956 C1977 0.950 . S
H1957 C1980 0.950 . S
H1958 C1981 0.950 . S
H1959 C1983 0.950 . S
H1960 C1984 0.950 . S
H1961 C1985 0.951 . S
H1962 C1987 0.951 . S
H1963 C1989 0.950 . S
H1964 C1990 0.950 . S
H1965 C1992 0.950 . S
H1966 C1995 0.950 . S
H1967 C1996 0.950 . S
H1968 C1998 0.950 . S
H1969 C1999 0.950 . S
C1970 H1952 0.951 . S
C1970 C1971 1.366 . S
C1970 C1972 1.388 . S
C1971 C1970 1.366 . S
C1971 C1975 1.385 . S
C1972 H1953 0.951 . S
C1972 C1970 1.388 . S
C1972 C1973 1.366 . S
C1973 C1972 1.366 . S
C1973 C1974 1.414 . S
C1973 C1976 1.499 . S
C1974 H1954 0.950 . S
C1974 C1973 1.414 . S
C1974 C1975 1.374 . S
C1975 H1955 0.950 . S
C1975 C1971 1.385 . S
C1975 C1974 1.374 . S
C1976 C1973 1.499 . S
C1976 C1977 1.373 . S
C1976 C1978 1.389 . S
C1977 H1956 0.950 . S
C1977 C1976 1.373 . S
C1977 C1993 1.377 . S
C1978 C1976 1.389 . S
C1978 C1979 1.524 . S
C1978 C1992 1.377 . S
C1979 C1978 1.524 . S
C1979 C1980 1.397 . S
C1979 C1984 1.363 . S
C1980 H1957 0.950 . S
C1980 C1979 1.397 . S
C1980 C1981 1.334 . S
C1981 H1958 0.950 . S
C1981 C1980 1.334 . S
C1981 C1982 1.287 . S
C1982 C1981 1.287 . S
C1982 C1983 1.524 . S
C1982 H2001 0.913 . S
C1983 H1959 0.950 . S
C1983 C1982 1.524 . S
C1983 C1984 1.415 . S
C1984 H1960 0.950 . S
C1984 C1979 1.363 . S
C1984 C1983 1.415 . S
C1985 H1961 0.951 . S
C1985 C1986 1.366 . S
C1985 C1987 1.388 . S
C1986 C1985 1.366 . S
C1986 C1990 1.385 . S
C1987 H1962 0.951 . S
C1987 C1985 1.388 . S
C1987 C1988 1.366 . S
C1988 C1987 1.366 . S
C1988 C1989 1.414 . S
C1988 C1991 1.499 . S
C1989 H1963 0.950 . S
C1989 C1988 1.414 . S
C1989 C1990 1.374 . S
C1990 H1964 0.950 . S
C1990 C1986 1.385 . S
C1990 C1989 1.374 . S
C1991 C1988 1.499 . S
C1991 C1992 1.373 . S
C1991 C1993 1.389 . S
C1992 H1965 0.950 . S
C1992 C1978 1.377 . S
C1992 C1991 1.373 . S
C1993 C1977 1.377 . S
C1993 C1991 1.389 . S
C1993 C1994 1.524 . S
C1994 C1993 1.524 . S
C1994 C1995 1.397 . S
C1994 C1999 1.363 . S
C1995 H1966 0.950 . S
C1995 C1994 1.397 . S
C1995 C1996 1.334 . S
C1996 H1967 0.950 . S
C1996 C1995 1.334 . S
C1996 C1997 1.287 . S
C1997 C1996 1.287 . S
C1997 C1998 1.524 . S
C1997 H2000 0.999 . S
C1998 H1968 0.950 . S
C1998 C1997 1.524 . S
C1998 C1999 1.415 . S
C1999 H1969 0.950 . S
C1999 C1994 1.363 . S
C1999 C1998 1.415 . S
H2000 C1997 0.999 . S
H2001 C1982 0.913 . S
H2002 C2020 0.951 . S
H2003 C2022 0.951 . S
H2004 C2024 0.950 . S
H2005 C2025 0.950 . S
H2006 C2027 0.950 . S
H2007 C2030 0.950 . S
H2008 C2031 0.950 . S
H2009 C2033 0.950 . S
H2010 C2034 0.950 . S
H2011 C2035 0.951 . S
H2012 C2037 0.951 . S
H2013 C2039 0.950 . S
H2014 C2040 0.950 . S
H2015 C2042 0.950 . S
H2016 C2045 0.950 . S
H2017 C2046 0.950 . S
H2018 C2048 0.950 . S
H2019 C2049 0.950 . S
C2020 H2002 0.951 . S
C2020 C2021 1.366 . S
C2020 C2022 1.388 . S
C2021 C2020 1.366 . S
C2021 C2025 1.385 . S
C2022 H2003 0.951 . S
C2022 C2020 1.388 . S
C2022 C2023 1.366 . S
C2023 C2022 1.366 . S
C2023 C2024 1.414 . S
C2023 C2026 1.499 . S
C2024 H2004 0.950 . S
C2024 C2023 1.414 . S
C2024 C2025 1.374 . S
C2025 H2005 0.950 . S
C2025 C2021 1.385 . S
C2025 C2024 1.374 . S
C2026 C2023 1.499 . S
C2026 C2027 1.373 . S
C2026 C2028 1.389 . S
C2027 H2006 0.950 . S
C2027 C2026 1.373 . S
C2027 C2043 1.377 . S
C2028 C2026 1.389 . S
C2028 C2029 1.524 . S
C2028 C2042 1.377 . S
C2029 C2028 1.524 . S
C2029 C2030 1.397 . S
C2029 C2034 1.363 . S
C2030 H2007 0.950 . S
C2030 C2029 1.397 . S
C2030 C2031 1.334 . S
C2031 H2008 0.950 . S
C2031 C2030 1.334 . S
C2031 C2032 1.287 . S
C2032 C2031 1.287 . S
C2032 C2033 1.524 . S
C2032 H2051 0.913 . S
C2033 H2009 0.950 . S
C2033 C2032 1.524 . S
C2033 C2034 1.415 . S
C2034 H2010 0.950 . S
C2034 C2029 1.363 . S
C2034 C2033 1.415 . S
C2035 H2011 0.951 . S
C2035 C2036 1.366 . S
C2035 C2037 1.388 . S
C2036 C2035 1.366 . S
C2036 C2040 1.385 . S
C2037 H2012 0.951 . S
C2037 C2035 1.388 . S
C2037 C2038 1.366 . S
C2038 C2037 1.366 . S
C2038 C2039 1.414 . S
C2038 C2041 1.499 . S
C2039 H2013 0.950 . S
C2039 C2038 1.414 . S
C2039 C2040 1.374 . S
C2040 H2014 0.950 . S
C2040 C2036 1.385 . S
C2040 C2039 1.374 . S
C2041 C2038 1.499 . S
C2041 C2042 1.373 . S
C2041 C2043 1.389 . S
C2042 H2015 0.950 . S
C2042 C2028 1.377 . S
C2042 C2041 1.373 . S
C2043 C2027 1.377 . S
C2043 C2041 1.389 . S
C2043 C2044 1.524 . S
C2044 C2043 1.524 . S
C2044 C2045 1.397 . S
C2044 C2049 1.363 . S
C2045 H2016 0.950 . S
C2045 C2044 1.397 . S
C2045 C2046 1.334 . S
C2046 H2017 0.950 . S
C2046 C2045 1.334 . S
C2046 C2047 1.287 . S
C2047 C2046 1.287 . S
C2047 C2048 1.524 . S
C2047 H2050 0.999 . S
C2048 H2018 0.950 . S
C2048 C2047 1.524 . S
C2048 C2049 1.415 . S
C2049 H2019 0.950 . S
C2049 C2044 1.363 . S
C2049 C2048 1.415 . S
H2050 C2047 0.999 . S
H2051 C2032 0.913 . S
C271 C145 0.887 . S
C286 C5 0.886 . S
C321 C19 0.864 . S
C336 C159 0.871 . S
C371 C131 0.868 . S
C386 C33 0.853 . S
C421 C201 0.885 . S
C436 C47 0.889 . S
C471 C61 0.856 . S
C486 C173 0.871 . S
C521 C187 0.869 . S
C536 C75 0.861 . S
C571 C89 0.921 . S
C586 C229 0.922 . S
C621 C243 0.892 . S
C636 C103 0.889 . S
C671 C117 0.921 . S
C686 C215 0.921 . S
C721 C12 0.734 . S
C736 C18 0.729 . S
C771 C26 0.741 . S
C786 C32 0.741 . S
C821 C4 0.803 . S
C836 C40 0.808 . S
C871 C74 0.733 . S
C886 C54 0.735 . S
C921 C46 0.802 . S
C936 C68 0.808 . S
C971 C82 0.741 . S
C986 C60 0.741 . S
C1021 C96 0.792 . S
C1036 C102 0.793 . S
C1071 C110 0.776 . S
C1086 C116 0.774 . S
C1121 C88 0.785 . S
C1136 C124 0.787 . S
C1171 C158 0.802 . S
C1186 C138 0.805 . S
C1221 C130 0.758 . S
C1236 C152 0.758 . S
C1271 C144 0.767 . S
C1286 C166 0.768 . S
C1321 C186 0.805 . S
C1336 C180 0.803 . S
C1371 C200 0.767 . S
C1386 C194 0.769 . S
C1421 C172 0.758 . S
C1436 C208 0.759 . S
C1471 C222 0.792 . S
C1486 C242 0.793 . S
C1521 C236 0.788 . S
C1536 C214 0.784 . S
C1571 C250 0.776 . S
C1586 C228 0.773 . S
C1621 C11 1.347 . S
C1636 C53 1.345 . S
C1671 C67 1.297 . S
C1686 C25 1.285 . S
C1721 C81 1.285 . S
C1736 C39 1.300 . S
C1771 C137 1.338 . S
C1786 C95 1.342 . S
C1821 C151 1.324 . S
C1836 C109 1.325 . S
C1871 C123 1.352 . S
C1886 C165 1.352 . S
C1921 C221 1.341 . S
C1936 C179 1.339 . S
C1971 C235 1.351 . S
C1986 C193 1.352 . S
C2021 C249 1.326 . S
C2036 C207 1.323 . S
