# Generated by pormake.
# Topology why, (6)-cn, num edge types: 1
# Building blocks:
#     Node 0, Type 0, BuildingBlock: MIDCAF_clean_sbu_0, # of connection points: 6
#     Node 1, Type 0, BuildingBlock: MIDCAF_clean_sbu_0, # of connection points: 6
#     Node 2, Type 0, BuildingBlock: MIDCAF_clean_sbu_0, # of connection points: 6
#     Node 3, Type 0, BuildingBlock: MIDCAF_clean_sbu_0, # of connection points: 6
#     Node 4, Type 0, BuildingBlock: MIDCAF_clean_sbu_0, # of connection points: 6
#     Node 5, Type 0, BuildingBlock: MIDCAF_clean_sbu_0, # of connection points: 6
#     Node 6, Type 0, BuildingBlock: MIDCAF_clean_sbu_0, # of connection points: 6
#     Node 7, Type 0, BuildingBlock: MIDCAF_clean_sbu_0, # of connection points: 6
#     Node 8, Type 0, BuildingBlock: MIDCAF_clean_sbu_0, # of connection points: 6
#     Node 9, Type 0, BuildingBlock: MIDCAF_clean_sbu_0, # of connection points: 6
#     Node 10, Type 0, BuildingBlock: MIDCAF_clean_sbu_0, # of connection points: 6
#     Node 11, Type 0, BuildingBlock: MIDCAF_clean_sbu_0, # of connection points: 6
#     Node 12, Type 0, BuildingBlock: MIDCAF_clean_sbu_0, # of connection points: 6
#     Node 13, Type 0, BuildingBlock: MIDCAF_clean_sbu_0, # of connection points: 6
#     Node 14, Type 0, BuildingBlock: MIDCAF_clean_sbu_0, # of connection points: 6
#     Node 15, Type 0, BuildingBlock: MIDCAF_clean_sbu_0, # of connection points: 6
#     Edge 16, Type (0, 0), BuildingBlock: XIVTED_clean_linker_0, # of connection points: 2
#     Edge 17, Type (0, 0), BuildingBlock: XIVTED_clean_linker_0, # of connection points: 2
#     Edge 18, Type (0, 0), BuildingBlock: XIVTED_clean_linker_0, # of connection points: 2
#     Edge 19, Type (0, 0), BuildingBlock: XIVTED_clean_linker_0, # of connection points: 2
#     Edge 20, Type (0, 0), BuildingBlock: XIVTED_clean_linker_0, # of connection points: 2
#     Edge 21, Type (0, 0), BuildingBlock: XIVTED_clean_linker_0, # of connection points: 2
#     Edge 22, Type (0, 0), BuildingBlock: XIVTED_clean_linker_0, # of connection points: 2
#     Edge 23, Type (0, 0), BuildingBlock: XIVTED_clean_linker_0, # of connection points: 2
#     Edge 24, Type (0, 0), BuildingBlock: XIVTED_clean_linker_0, # of connection points: 2
#     Edge 25, Type (0, 0), BuildingBlock: XIVTED_clean_linker_0, # of connection points: 2
#     Edge 26, Type (0, 0), BuildingBlock: XIVTED_clean_linker_0, # of connection points: 2
#     Edge 27, Type (0, 0), BuildingBlock: XIVTED_clean_linker_0, # of connection points: 2
#     Edge 28, Type (0, 0), BuildingBlock: XIVTED_clean_linker_0, # of connection points: 2
#     Edge 29, Type (0, 0), BuildingBlock: XIVTED_clean_linker_0, # of connection points: 2
#     Edge 30, Type (0, 0), BuildingBlock: XIVTED_clean_linker_0, # of connection points: 2
#     Edge 31, Type (0, 0), BuildingBlock: XIVTED_clean_linker_0, # of connection points: 2
#     Edge 32, Type (0, 0), BuildingBlock: XIVTED_clean_linker_0, # of connection points: 2
#     Edge 33, Type (0, 0), BuildingBlock: XIVTED_clean_linker_0, # of connection points: 2
#     Edge 34, Type (0, 0), BuildingBlock: XIVTED_clean_linker_0, # of connection points: 2
#     Edge 35, Type (0, 0), BuildingBlock: XIVTED_clean_linker_0, # of connection points: 2
#     Edge 36, Type (0, 0), BuildingBlock: XIVTED_clean_linker_0, # of connection points: 2
#     Edge 37, Type (0, 0), BuildingBlock: XIVTED_clean_linker_0, # of connection points: 2
#     Edge 38, Type (0, 0), BuildingBlock: XIVTED_clean_linker_0, # of connection points: 2
#     Edge 39, Type (0, 0), BuildingBlock: XIVTED_clean_linker_0, # of connection points: 2
#     Edge 40, Type (0, 0), BuildingBlock: XIVTED_clean_linker_0, # of connection points: 2
#     Edge 41, Type (0, 0), BuildingBlock: XIVTED_clean_linker_0, # of connection points: 2
#     Edge 42, Type (0, 0), BuildingBlock: XIVTED_clean_linker_0, # of connection points: 2
#     Edge 43, Type (0, 0), BuildingBlock: XIVTED_clean_linker_0, # of connection points: 2
#     Edge 44, Type (0, 0), BuildingBlock: XIVTED_clean_linker_0, # of connection points: 2
#     Edge 45, Type (0, 0), BuildingBlock: XIVTED_clean_linker_0, # of connection points: 2
#     Edge 46, Type (0, 0), BuildingBlock: XIVTED_clean_linker_0, # of connection points: 2
#     Edge 47, Type (0, 0), BuildingBlock: XIVTED_clean_linker_0, # of connection points: 2
#     Edge 48, Type (0, 0), BuildingBlock: XIVTED_clean_linker_0, # of connection points: 2
#     Edge 49, Type (0, 0), BuildingBlock: XIVTED_clean_linker_0, # of connection points: 2
#     Edge 50, Type (0, 0), BuildingBlock: XIVTED_clean_linker_0, # of connection points: 2
#     Edge 51, Type (0, 0), BuildingBlock: XIVTED_clean_linker_0, # of connection points: 2
#     Edge 52, Type (0, 0), BuildingBlock: XIVTED_clean_linker_0, # of connection points: 2
#     Edge 53, Type (0, 0), BuildingBlock: XIVTED_clean_linker_0, # of connection points: 2
#     Edge 54, Type (0, 0), BuildingBlock: XIVTED_clean_linker_0, # of connection points: 2
#     Edge 55, Type (0, 0), BuildingBlock: XIVTED_clean_linker_0, # of connection points: 2
#     Edge 56, Type (0, 0), BuildingBlock: XIVTED_clean_linker_0, # of connection points: 2
#     Edge 57, Type (0, 0), BuildingBlock: XIVTED_clean_linker_0, # of connection points: 2
#     Edge 58, Type (0, 0), BuildingBlock: XIVTED_clean_linker_0, # of connection points: 2
#     Edge 59, Type (0, 0), BuildingBlock: XIVTED_clean_linker_0, # of connection points: 2
#     Edge 60, Type (0, 0), BuildingBlock: XIVTED_clean_linker_0, # of connection points: 2
#     Edge 61, Type (0, 0), BuildingBlock: XIVTED_clean_linker_0, # of connection points: 2
#     Edge 62, Type (0, 0), BuildingBlock: XIVTED_clean_linker_0, # of connection points: 2
#     Edge 63, Type (0, 0), BuildingBlock: XIVTED_clean_linker_0, # of connection points: 2
# Relax obj value: 0.309
# Max RMSD: 0.222
# Mean RMSD: 0.222
data_MOF--net-why--node1-MIDCAF_clean_sbu_0--edge1-XIVTED_clean_linker_0
_symmetry_space_group_name_H-M    P1
_symmetry_Int_Tables_number       1
_symmetry_cell_setting            triclinic
loop_
_symmetry_equiv_pos_as_xyz
'x, y, z'
_cell_length_a     47.064399
_cell_length_b     47.064454
_cell_length_c     26.508308
_cell_angle_alpha  89.854138
_cell_angle_beta   90.097859
_cell_angle_gamma 90.351924
loop_
_atom_site_label
_atom_site_type_symbol
_atom_site_fract_x
_atom_site_fract_y
_atom_site_fract_z
_atom_type_partial_charge
Zn0 Zn 0.3723 0.1618 0.19908 0.0
Zn1 Zn 0.31818 0.11762 0.05376 0.0
Zn2 Zn 0.344 0.14166 0.12529 0.0
C3 C 0.36627 0.08628 0.07073 0.0
C4 C 0.34172 0.16861 0.01825 0.0
O5 O 0.3116 0.16123 0.1749 0.0
O6 O 0.34052 0.18569 0.22413 0.0
C7 C 0.36894 0.10176 0.2112 0.0
O8 O 0.36452 0.10002 0.1127 0.0
O9 O 0.34675 0.08885 0.03844 0.0
O10 O 0.32095 0.15237 1.00802 0.0
O11 O 0.35557 0.16542 0.05967 0.0
O12 O 0.37651 0.12411 0.23411 0.0
O13 O 0.35919 0.10355 0.16578 0.0
O14 O 0.37678 0.1707 0.09485 0.0
O15 O 0.40401 0.18044 0.16063 0.0
C16 C 0.39919 0.18228 0.11384 0.0
O17 O 0.29751 0.14856 0.12708 0.0
O18 O 0.28278 0.10888 0.09179 0.0
C19 C 0.3155 0.17947 0.21044 0.0
C20 C 0.27706 0.13183 0.11395 0.0
Zn21 Zn 0.53933 0.59501 0.385 0.0
Zn22 Zn 0.56335 0.54202 0.23254 0.0
Zn23 Zn 0.5533 0.56851 0.30413 0.0
C24 C 0.60277 0.584 0.22964 0.0
C25 C 0.51166 0.55968 0.20904 0.0
O26 O 0.54379 0.53648 0.36491 0.0
O27 O 0.53254 0.56255 0.43109 0.0
C28 C 0.59596 0.61009 0.36621 0.0
O29 O 0.59474 0.58542 0.27607 0.0
O30 O 0.58928 0.56825 0.19949 0.0
O31 O 0.52539 0.53722 0.20119 0.0
O32 O 0.52028 0.57697 0.24377 0.0
O33 O 0.57554 0.61599 0.3951 0.0
O34 O 0.59196 0.59317 0.32844 0.0
O35 O 0.51649 0.59603 0.28456 0.0
O36 O 0.50628 0.61554 0.3581 0.0
C37 C 0.50125 0.61277 0.31162 0.0
O38 O 0.55427 0.52184 0.32233 0.0
O39 O 0.58182 0.50851 0.25968 0.0
C40 C 0.53625 0.53842 0.41166 0.0
C41 C 0.56978 0.50289 0.30081 0.0
Zn42 Zn 0.13221 0.86792 0.48866 0.0
Zn43 Zn 0.09184 0.80996 0.63022 0.0
Zn44 Zn 0.11766 0.83415 0.55732 0.0
C45 C 0.06896 0.78844 0.54024 0.0
C46 C 0.08516 0.86648 0.64958 0.0
O47 O 0.16435 0.83932 0.56319 0.0
O48 O 0.16665 0.88094 0.52488 0.0
C49 C 0.12328 0.81479 0.4441 0.0
O50 O 0.09089 0.80106 0.52149 0.0
O51 O 0.06332 0.79075 0.58661 0.0
O52 O 0.08116 0.84337 0.67284 0.0
O53 O 0.09545 0.86619 0.6044 0.0
O54 O 0.1364 0.83783 0.43565 0.0
O55 O 0.11149 0.8105 0.48729 0.0
O56 O 0.08782 0.87055 0.55331 0.0
O57 O 0.09833 0.89196 0.4816 0.0
C58 C 0.08123 0.88794 0.51748 0.0
O59 O 0.15336 0.81817 0.60484 0.0
O60 O 0.12657 0.78892 0.64965 0.0
C61 C 0.17874 0.86146 0.54963 0.0
C62 C 0.15098 0.7978 0.63719 0.0
Zn63 Zn 0.93313 0.3575 0.90813 0.0
Zn64 Zn 0.87175 0.41276 0.7799 0.0
Zn65 Zn 0.90406 0.38658 0.83897 0.0
C66 C 0.84429 0.3631 0.80311 0.0
C67 C 0.9196 0.39513 0.7263 0.0
O68 O 0.92408 0.41941 0.88637 0.0
O69 O 0.95077 0.3927 0.93595 0.0
C70 C 0.87582 0.34659 0.92743 0.0
O71 O 0.86256 0.3651 0.83913 0.0
O72 O 0.84348 0.38226 0.7698 0.0
O73 O 0.90231 0.41561 0.72609 0.0
O74 O 0.92119 0.37861 0.76491 0.0
O75 O 0.89993 0.33998 0.94474 0.0
O76 O 0.87389 0.36262 0.88792 0.0
O77 O 0.93401 0.35917 0.79801 0.0
O78 O 0.95509 0.33473 0.85881 0.0
C79 C 0.95162 0.34001 0.8125 0.0
O80 O 0.90728 0.43383 0.84422 0.0
O81 O 0.8639 0.44628 0.82284 0.0
C82 C 0.94269 0.41702 0.92172 0.0
C83 C 0.88838 0.45326 0.83802 0.0
Zn84 Zn 0.67238 0.79806 0.03867 0.0
Zn85 Zn 0.60959 0.76837 0.91298 0.0
Zn86 Zn 0.63987 0.78699 0.97932 0.0
C87 C 0.57603 0.76688 0.99661 0.0
C88 C 0.62251 0.82536 0.88826 0.0
O89 O 0.6649 0.82602 0.9571 0.0
O90 O 0.70342 0.81083 0.99508 0.0
C91 C 0.67451 0.74217 0.04239 0.0
O92 O 0.596 0.78376 1.01143 0.0
O93 O 0.57864 0.75351 0.95575 0.0
O94 O 0.60444 0.80606 0.87901 0.0
O95 O 0.64095 0.82152 0.92347 0.0
O96 O 0.67821 0.76225 0.073 0.0
O97 O 0.66414 0.74764 0.99828 0.0
O98 O 0.61554 0.79665 0.04832 0.0
O99 O 0.64868 0.82588 0.07604 0.0
C100 C 0.62374 0.81599 0.07955 0.0
O101 O 0.66085 0.74848 0.94539 0.0
O102 O 0.63416 0.74129 0.87803 0.0
C103 C 0.69187 0.82805 0.96518 0.0
C104 C 0.65645 0.73597 0.90259 0.0
Zn105 Zn 0.41164 0.38931 0.78837 0.0
Zn106 Zn 0.41832 0.34042 0.61763 0.0
Zn107 Zn 0.41402 0.36764 0.70208 0.0
C108 C 0.41889 0.29815 0.68848 0.0
C109 C 0.36644 0.37121 0.61828 0.0
O110 O 0.38091 0.40272 0.70001 0.0
O111 O 0.38499 0.41953 0.77757 0.0
C112 C 0.46782 0.39434 0.75803 0.0
O113 O 0.41343 0.32026 0.71557 0.0
O114 O 0.42327 0.30089 0.64178 0.0
O115 O 0.38004 0.35224 0.59516 0.0
O116 O 0.37633 0.38206 0.65937 0.0
O117 O 0.45184 0.3998 0.79482 0.0
O118 O 0.45722 0.38401 0.7171 0.0
O119 O 0.40529 0.33408 0.75906 0.0
O120 O 0.39928 0.35742 0.83045 0.0
C121 C 0.39931 0.33434 0.80652 0.0
O122 O 0.45344 0.38283 0.66386 0.0
O123 O 0.45092 0.36184 0.58957 0.0
C124 C 0.37423 0.42112 0.73418 0.0
C125 C 0.46274 0.37963 0.61847 0.0
Zn126 Zn 0.83017 0.13541 0.56139 0.0
Zn127 Zn 0.86673 0.19638 0.41536 0.0
Zn128 Zn 0.84456 0.16966 0.48861 0.0
C129 C 0.88611 0.22386 0.49998 0.0
C130 C 0.88291 0.14194 0.39821 0.0
O131 O 0.79792 0.16316 0.48552 0.0
O132 O 0.79357 0.12336 0.52942 0.0
C133 C 0.83931 0.191 0.60089 0.0
O134 O 0.8681 0.20675 0.52069 0.0
O135 O 0.8906 0.22285 0.45316 0.0
O136 O 0.88481 0.16554 0.37577 0.0
O137 O 0.87068 0.14045 0.44176 0.0
O138 O 0.82838 0.16722 0.61234 0.0
O139 O 0.84948 0.1952 0.55639 0.0
O140 O 0.8744 0.13374 0.49333 0.0
O141 O 0.86445 0.11103 0.56407 0.0
C142 C 0.88116 0.11556 0.5277 0.0
O143 O 0.80802 0.1792 0.43896 0.0
O144 O 0.83009 0.21028 0.39011 0.0
C145 C 0.7825 0.14257 0.5025 0.0
C146 C 0.8075 0.19769 0.40316 0.0
Zn147 Zn 0.0296 0.64238 0.1212 0.0
Zn148 Zn 0.09257 0.59914 0.25262 0.0
Zn149 Zn 0.05863 0.61948 0.1893 0.0
C150 C 0.11591 0.65004 0.22614 0.0
C151 C 0.0412 0.61049 0.30273 0.0
O152 O 0.0415 0.58422 0.14211 0.0
O153 O 0.00785 0.60805 0.10279 0.0
C154 C 0.08538 0.6541 0.09541 0.0
O155 O 0.09734 0.64648 0.1908 0.0
O156 O 0.11857 0.63138 0.25998 0.0
O157 O 0.06301 0.59512 0.30743 0.0
O158 O 0.0371 0.6245 0.26157 0.0
O159 O 0.06118 0.65365 0.07481 0.0
O160 O 0.08815 0.64519 0.14127 0.0
O161 O 0.02648 0.64508 0.22905 0.0
O162 O 0.01104 0.67084 0.16486 0.0
C163 C 0.01163 0.66579 0.21164 0.0
O164 O 0.06159 0.57264 0.18009 0.0
O165 O 0.10395 0.56541 0.21323 0.0
C166 C 0.01956 0.58467 0.11294 0.0
C167 C 0.08267 0.55606 0.18938 0.0
Zn168 Zn 0.85963 0.68945 0.6341 0.0
Zn169 Zn 0.82565 0.63595 0.49036 0.0
Zn170 Zn 0.84027 0.66096 0.56472 0.0
C171 C 0.87612 0.61197 0.51745 0.0
C172 C 0.83328 0.69114 0.45919 0.0
O173 O 0.80331 0.67042 0.61414 0.0
O174 O 0.82309 0.707 0.65234 0.0
C175 C 0.87312 0.63287 0.65652 0.0
O176 O 0.86903 0.62413 0.55903 0.0
O177 O 0.86084 0.61522 0.47878 0.0
O178 O 0.8182 0.67014 0.44588 0.0
O179 O 0.84693 0.69004 0.50131 0.0
O180 O 0.87106 0.65674 0.67781 0.0
O181 O 0.86557 0.63027 0.60993 0.0
O182 O 0.86875 0.69518 0.53433 0.0
O183 O 0.89011 0.7124 0.60201 0.0
C184 C 0.88816 0.71092 0.55467 0.0
O185 O 0.79269 0.65551 0.56202 0.0
O186 O 0.79341 0.61524 0.52062 0.0
C187 C 0.80157 0.69132 0.64524 0.0
C188 C 0.77938 0.6338 0.54381 0.0
Zn189 Zn 0.10521 0.09582 0.77627 0.0
Zn190 Zn 0.04437 0.14121 0.8896 0.0
Zn191 Zn 0.07147 0.11539 0.82748 0.0
C192 C 0.03182 0.16771 0.79779 0.0
C193 C 0.10338 0.14294 0.91624 0.0
O194 O 0.0682 0.06878 0.82423 0.0
O195 O 0.11448 0.06345 0.82265 0.0
C196 C 0.05663 0.10486 0.71686 0.0
O197 O 0.04941 0.1487 0.7822 0.0
O198 O 0.02576 0.16934 0.84408 0.0
O199 O 0.07916 0.15105 0.93087 0.0
O200 O 0.1057 0.12909 0.87509 0.0
O201 O 0.07503 0.08549 0.72111 0.0
O202 O 0.05656 0.12487 0.75014 0.0
O203 O 0.08082 0.14522 0.76508 0.0
O204 O 0.12609 0.134 0.76905 0.0
C205 C 0.107 0.15123 0.75515 0.0
O206 O 0.04461 0.0815 0.85909 0.0
O207 O 0.02141 0.10829 0.91302 0.0
C208 C 0.08992 0.05229 0.82506 0.0
C209 C 0.0262 0.08409 0.89448 0.0
Zn210 Zn 0.65118 0.32419 0.04525 0.0
Zn211 Zn 0.60236 0.26057 0.14401 0.0
Zn212 Zn 0.62981 0.28862 0.08611 0.0
C213 C 0.57661 0.25268 0.04926 0.0
C214 C 0.60105 0.31841 0.17476 0.0
O215 O 0.67691 0.28569 0.08596 0.0
O216 O 0.68018 0.33157 0.09875 0.0
C217 C 0.64301 0.28016 0.97578 0.0
O218 O 0.59586 0.27089 0.03592 0.0
O219 O 0.57558 0.24393 0.0943 0.0
O220 O 0.59032 0.29445 0.1857 0.0
O221 O 0.61746 0.32089 0.13678 0.0
O222 O 0.6631 0.29724 0.986 0.0
O223 O 0.62184 0.27868 1.00666 0.0
O224 O 0.60206 0.30308 0.02217 0.0
O225 O 0.61579 0.34731 0.03364 0.0
C226 C 0.59868 0.32989 1.01328 0.0
O227 O 0.66228 0.25969 0.11479 0.0
O228 O 0.63451 0.23694 0.1684 0.0
C229 C 0.69239 0.30776 0.09523 0.0
C230 C 0.65889 0.24099 0.14971 0.0
Zn231 Zn 0.43485 0.82858 0.44703 0.0
Zn232 Zn 0.43458 0.89016 0.29257 0.0
Zn233 Zn 0.42976 0.86145 0.37241 0.0
C234 C 0.41331 0.8393 0.2609 0.0
C235 C 0.48898 0.88388 0.32576 0.0
O236 O 0.46903 0.8732 0.41625 0.0
O237 O 0.46567 0.84739 0.48556 0.0
C238 C 0.3823 0.85862 0.45401 0.0
O239 O 0.41906 0.8341 0.30757 0.0
O240 O 0.41662 0.86404 0.24342 0.0
O241 O 0.47578 0.89377 0.28833 0.0
O242 O 0.47509 0.87375 0.36377 0.0
O243 O 0.3959 0.83724 0.46951 0.0
O244 O 0.3927 0.8741 0.41824 0.0
O245 O 0.42594 0.81639 0.34744 0.0
O246 O 0.44008 0.79143 0.4136 0.0
C247 C 0.43236 0.7924 0.36802 0.0
O248 O 0.39715 0.89574 0.3788 0.0
O249 O 0.41271 0.92226 0.31534 0.0
C250 C 0.47749 0.86737 0.46152 0.0
C251 C 0.39631 0.91878 0.35237 0.0
Zn252 Zn 0.13445 0.36583 0.47986 0.0
Zn253 Zn 0.09934 0.30738 0.35115 0.0
Zn254 Zn 0.12197 0.33124 0.42331 0.0
C255 C 0.06286 0.29897 0.43389 0.0
C256 C 0.10902 0.36637 0.32833 0.0
O257 O 0.16888 0.32987 0.4368 0.0
O258 O 0.1698 0.37645 0.44047 0.0
C259 C 0.14738 0.30948 0.51632 0.0
O260 O 0.08289 0.31342 0.45467 0.0
O261 O 0.06373 0.29375 0.38715 0.0
O262 O 0.09857 0.34383 0.30981 0.0
O263 O 0.12017 0.366 0.37222 0.0
O264 O 0.13808 0.33293 0.53284 0.0
O265 O 0.15187 0.30717 0.46842 0.0
O266 O 0.08902 0.3407 0.47886 0.0
O267 O 0.09713 0.38681 0.48135 0.0
C268 C 0.08113 0.36582 0.49144 0.0
O269 O 0.15543 0.29951 0.41178 0.0
O270 O 0.13299 0.28126 0.34583 0.0
C271 C 0.18328 0.35328 0.43784 0.0
C272 C 0.15433 0.28158 0.37507 0.0
Zn273 Zn 0.869 0.92176 0.24014 0.0
Zn274 Zn 0.92317 0.87701 0.11722 0.0
Zn275 Zn 0.90283 0.90429 0.18576 0.0
C276 C 0.93658 0.84602 0.20446 0.0
C277 C 0.86349 0.88621 0.0987 0.0
O278 O 0.90979 0.9495 0.19651 0.0
O279 O 0.86372 0.95583 0.19499 0.0
C280 C 0.91715 0.90811 0.29834 0.0
O281 O 0.92296 0.86701 0.22417 0.0
O282 O 0.93915 0.84439 0.15711 0.0
O283 O 0.88528 0.87437 0.08043 0.0
O284 O 0.86528 0.89865 0.1413 0.0
O285 O 0.89896 0.92782 0.29715 0.0
O286 O 0.91745 0.89022 0.2614 0.0
O287 O 0.89255 0.87174 0.24181 0.0
O288 O 0.84736 0.88351 0.2406 0.0
C289 C 0.86638 0.8654 0.25082 0.0
O290 O 0.93261 0.93572 0.15695 0.0
O291 O 0.94955 0.90845 0.09674 0.0
C292 C 0.88855 0.96651 0.19591 0.0
C293 C 0.94914 0.93215 0.11913 0.0
Zn294 Zn 0.31093 0.6421 0.99109 0.0
Zn295 Zn 0.36391 0.67822 0.8369 0.0
Zn296 Zn 0.33549 0.66378 0.91717 0.0
C297 C 0.39277 0.7016 0.91972 0.0
C298 C 0.3572 0.61815 0.8356 0.0
O299 O 0.28888 0.67236 0.91425 0.0
O300 O 0.27312 0.6365 0.96028 0.0
C301 C 0.33843 0.69204 0.02321 0.0
O302 O 0.36991 0.69275 0.94144 0.0
O303 O 0.3969 0.69643 0.87351 0.0
O304 O 0.36533 0.63844 0.80759 0.0
O305 O 0.34836 0.6235 0.88064 0.0
O306 O 0.31797 0.67607 0.03618 0.0
O307 O 0.35017 0.68886 0.97989 0.0
O308 O 0.35411 0.6213 0.93391 0.0
O309 O 0.3354 0.60982 1.00746 0.0
C310 C 0.35438 0.60621 0.9747 0.0
O311 O 0.30332 0.68399 0.86761 0.0
O312 O 0.33269 0.70362 0.81254 0.0
C313 C 0.26809 0.65739 0.93181 0.0
C314 C 0.30778 0.70065 0.82975 0.0
Zn315 Zn 0.59124 0.074 0.81601 0.0
Zn316 Zn 0.53712 0.08743 0.65147 0.0
Zn317 Zn 0.56247 0.07993 0.73542 0.0
C318 C 0.50415 0.11486 0.72389 0.0
C319 C 0.59106 0.11121 0.63886 0.0
O320 O 0.57454 0.03409 0.743 0.0
O321 O 0.60773 0.03668 0.80197 0.0
C322 C 0.53429 0.08331 0.84523 0.0
O323 O 0.52192 0.10227 0.75346 0.0
O324 O 0.50647 0.11224 0.67668 0.0
O325 O 0.56963 0.10399 0.61312 0.0
O326 O 0.59123 0.10669 0.68696 0.0
O327 O 0.55802 0.07572 0.86293 0.0
O328 O 0.53175 0.08825 0.79748 0.0
O329 O 0.59735 0.11225 0.7378 0.0
O330 O 0.61644 0.1071 0.81352 0.0
C331 C 0.61463 0.12069 0.77266 0.0
O332 O 0.55875 0.03769 0.69633 0.0
O333 O 0.52896 0.04765 0.63414 0.0
C334 C 0.59413 0.02226 0.76989 0.0
C335 C 0.54364 0.02979 0.65809 0.0
H336 H 0.41998 0.23567 0.12531 0.0
H337 H 0.53638 0.28902 1.01611 0.0
H338 H 0.42595 0.16193 0.03011 0.0
H339 H 0.55917 0.20059 1.01744 0.0
H340 H 0.48627 0.27531 1.00966 0.0
H341 H 0.46012 0.25708 0.08062 0.0
C342 C 0.42944 0.22433 0.0941 0.0
C343 C 0.41992 0.19706 0.08138 0.0
C344 C 0.50231 0.25891 1.00944 0.0
C345 C 0.46604 0.22115 0.03029 0.0
C346 C 0.53098 0.26674 1.01183 0.0
C347 C 0.55186 0.24587 1.01761 0.0
C348 C 0.49472 0.23005 1.0133 0.0
C349 C 0.5436 0.21729 1.01327 0.0
C350 C 0.45214 0.23665 0.06814 0.0
C351 C 0.43282 0.18308 0.04082 0.0
N352 N 0.51556 0.21014 1.01268 0.0
N353 N 0.45587 0.19492 1.01765 0.0
H354 H 0.50965 0.65219 0.23765 0.0
H355 H 0.40347 0.74446 0.39158 0.0
H356 H 0.44637 0.61891 0.33925 0.0
H357 H 0.45988 0.77993 0.27995 0.0
H358 H 0.4098 0.69755 0.3546 0.0
H359 H 0.48311 0.6968 0.23232 0.0
C360 C 0.48936 0.65376 0.25668 0.0
C361 C 0.48024 0.63211 0.28939 0.0
C362 C 0.42046 0.71554 0.33732 0.0
C363 C 0.45041 0.68314 0.28509 0.0
C364 C 0.41681 0.7423 0.35854 0.0
C365 C 0.4315 0.76579 0.33909 0.0
C366 C 0.43984 0.71203 0.29751 0.0
C367 C 0.44839 0.76212 0.29611 0.0
C368 C 0.4744 0.67937 0.25424 0.0
C369 C 0.45414 0.63528 0.31392 0.0
N370 N 0.4527 0.73554 0.27743 0.0
N371 N 0.44047 0.66056 0.31219 0.0
H372 H 0.03307 0.81426 0.47489 0.0
H373 H 0.90265 0.76693 0.54947 0.0
H374 H 0.05392 0.73267 0.53817 0.0
H375 H 0.92606 0.68433 0.49442 0.0
H376 H 0.94788 0.78613 0.51838 0.0
H377 H 0.98528 0.79627 0.45454 0.0
C378 C 0.02805 0.79213 0.48208 0.0
C379 C 0.04728 0.77485 0.50828 0.0
C380 C 0.94269 0.76405 0.51122 0.0
C381 C -0.00712 0.75443 0.48626 0.0
C382 C 0.91694 0.75313 0.52911 0.0
C383 C 0.91069 0.72416 0.524 0.0
C384 C 0.96274 0.74557 0.49002 0.0
C385 C 0.93009 0.7069 0.4984 0.0
C386 C 0.00071 0.78203 0.47114 0.0
C387 C 0.03963 0.74653 0.51777 0.0
N388 N 0.95572 0.71766 0.48383 0.0
N389 N 0.01284 0.73726 0.50737 0.0
H390 H 0.00796 0.33373 0.79467 0.0
H391 H 0.0621 0.20647 0.74358 0.0
H392 H 0.92554 0.30149 0.75241 0.0
H393 H 0.97674 0.18019 0.77939 0.0
H394 H 0.04398 0.25234 0.71442 0.0
H395 H 0.02975 0.29146 0.75914 0.0
C396 C -0.00537 0.31824 0.77565 0.0
C397 C 0.96506 0.32091 0.77621 0.0
C398 C 0.0291 0.23633 0.72748 0.0
C399 C -0.01047 0.27202 0.73666 0.0
C400 C 0.03941 0.20993 0.74305 0.0
C401 C 0.02083 0.1898 0.76405 0.0
C402 C 0.00015 0.24253 0.73417 0.0
C403 C -0.00831 0.19544 0.76385 0.0
C404 C 0.00704 0.29404 0.75511 0.0
C405 C 0.94851 0.3001 0.75229 0.0
N406 N 0.98226 0.22151 0.75007 0.0
N407 N 0.96091 0.2761 0.7347 0.0
H408 H 0.53546 0.8071 0.99217 0.0
H409 H 0.41416 0.68814 1.01282 0.0
H410 H 0.55182 0.72261 0.04696 0.0
H411 H 0.42205 0.7491 0.892 0.0
H412 H 0.4559 0.7099 0.05422 0.0
H413 H 0.48461 0.7956 0.98811 0.0
C414 C 0.52814 0.78672 1.00635 0.0
C415 C 0.54776 0.76578 0.02006 0.0
C416 C 0.44801 0.71884 0.01925 0.0
C417 C 0.48996 0.75225 1.01426 0.0
C418 C 0.42431 0.70649 0.99568 0.0
C419 C 0.41499 0.71674 0.94874 0.0
C420 C 0.46192 0.74194 0.99617 0.0
C421 C 0.42883 0.74044 0.9279 0.0
C422 C 0.49921 0.78 1.00313 0.0
C423 C 0.53726 0.73938 0.03657 0.0
N424 N 0.45164 0.7522 0.95167 0.0
N425 N 0.50908 0.73313 0.03233 0.0
H426 H 0.39713 0.24854 0.65366 0.0
H427 H 0.51134 0.15573 0.79683 0.0
H428 H 0.4491 0.28275 0.77307 0.0
H429 H 0.4505 0.12304 0.6898 0.0
H430 H 0.48353 0.19972 0.80266 0.0
H431 H 0.41055 0.20066 0.67913 0.0
C432 C 0.41097 0.24585 0.686 0.0
C433 C 0.42211 0.26956 0.71115 0.0
C434 C 0.4758 0.18258 0.77907 0.0
C435 C 0.43859 0.21464 0.73972 0.0
C436 C 0.49151 0.15732 0.77622 0.0
C437 C 0.48331 0.13584 0.74242 0.0
C438 C 0.45185 0.18621 0.74781 0.0
C439 C 0.45769 0.13918 0.71601 0.0
C440 C 0.41874 0.21848 0.70058 0.0
C441 C 0.44001 0.26493 0.75279 0.0
N442 N 0.4432 0.16399 0.71862 0.0
N443 N 0.44821 0.23801 0.76516 0.0
H444 H 0.92811 0.20664 0.56275 0.0
H445 H 0.01284 0.32573 0.42343 0.0
H446 H 0.89006 0.28121 0.49796 0.0
H447 H 0.05405 0.26 0.50931 0.0
H448 H 0.96832 0.31519 0.46694 0.0
H449 H 0.97396 0.23139 0.56517 0.0
C450 C 0.92905 0.22886 0.55198 0.0
C451 C 0.9055 0.24185 0.52937 0.0
C452 C -0.01296 0.30312 0.47684 0.0
C453 C 0.95788 0.26976 0.52961 0.0
C454 C 0.01233 0.30898 0.45156 0.0
C455 C 0.03666 0.29315 0.46208 0.0
C456 C 0.98587 0.28065 0.51189 0.0
C457 C 0.03538 0.27221 0.49967 0.0
C458 C 0.95539 0.24283 0.55238 0.0
C459 C 0.90789 0.27044 0.51524 0.0
N460 N 0.01017 0.26612 0.5226 0.0
N461 N 0.93382 0.28319 0.51411 0.0
H462 H 0.03685 0.70414 0.27369 0.0
H463 H 0.90276 0.80171 0.22863 0.0
H464 H 0.95522 0.67553 0.21996 0.0
H465 H -0.01164 0.83311 0.24482 0.0
H466 H 0.91807 0.75519 0.25922 0.0
H467 H 0.01563 0.74976 0.29714 0.0
C468 C 0.01414 0.70697 0.26932 0.0
C469 C -0.00235 0.68625 0.2449 0.0
C470 C 0.93342 0.77241 0.25754 0.0
C471 C 0.97351 0.73833 0.26999 0.0
C472 C 0.9246 0.799 0.24058 0.0
C473 C 0.94433 0.82113 0.23487 0.0
C474 C 0.96236 0.76774 0.26739 0.0
C475 C 0.97257 0.81646 0.24911 0.0
C476 C 0.00212 0.73311 0.28202 0.0
C477 C 0.96854 0.69107 0.23883 0.0
N478 N 0.9809 0.79007 0.26399 0.0
N479 N 0.95746 0.7168 0.25046 0.0
H480 H 0.15943 0.1513 0.89072 0.0
H481 H 0.22638 0.10774 0.14051 0.0
H482 H 0.10322 0.144 0.01857 0.0
H483 H 0.26343 0.17899 0.06167 0.0
H484 H 0.1813 0.11623 0.09615 0.0
H485 H 0.19984 0.15617 0.94942 0.0
C486 C 0.15563 0.15088 0.93101 0.0
C487 C 0.12805 0.14731 0.94991 0.0
C488 C 0.19907 0.13053 0.08988 0.0
C489 C 0.17381 0.15228 1.01662 0.0
C490 C 0.22458 0.12592 0.11557 0.0
C491 C 0.24838 0.14298 0.10522 0.0
C492 C 0.19794 0.15149 0.05218 0.0
C493 C 0.24534 0.16573 0.07132 0.0
C494 C 0.17854 0.15387 0.96434 0.0
C495 C 0.12418 0.14691 1.00251 0.0
N496 N 0.22083 0.1688 0.04469 0.0
N497 N 0.14687 0.14879 0.03409 0.0
H498 H 0.55407 0.3282 0.23251 0.0
H499 H 0.6163 0.4752 0.33313 0.0
H500 H 0.63572 0.36381 0.19264 0.0
H501 H 0.52757 0.46355 0.29863 0.0
H502 H 0.62423 0.42477 0.31631 0.0
H503 H 0.54528 0.36965 0.28644 0.0
C504 C 0.5702 0.34463 0.23545 0.0
C505 C 0.59547 0.34293 0.20756 0.0
C506 C 0.60281 0.43301 0.31461 0.0
C507 C 0.586 0.38941 0.27025 0.0
C508 C 0.5982 0.46161 0.32505 0.0
C509 C 0.57122 0.47333 0.31771 0.0
C510 C 0.58024 0.41625 0.29669 0.0
C511 C 0.54856 0.4551 0.30568 0.0
C512 C 0.56522 0.36807 0.26634 0.0
C513 C 0.61577 0.36461 0.21284 0.0
N514 N 0.55366 0.42744 0.2945 0.0
N515 N 0.6106 0.38698 0.24362 0.0
H516 H 0.34284 0.90099 0.43347 0.0
H517 H 0.21658 0.81777 0.56374 0.0
H518 H 0.35638 0.82645 0.52578 0.0
H519 H 0.21245 0.9083 0.53874 0.0
H520 H 0.26781 0.81983 0.54785 0.0
H521 H 0.29421 0.90385 0.46744 0.0
C522 C 0.3358 0.88547 0.46103 0.0
C523 C 0.35377 0.86337 0.47632 0.0
C524 C 0.25572 0.83933 0.54681 0.0
C525 C 0.29835 0.86624 0.51462 0.0
C526 C 0.22653 0.83818 0.55662 0.0
C527 C 0.21016 0.86287 0.5529 0.0
C528 C 0.26843 0.8652 0.53199 0.0
C529 C 0.2242 0.88867 0.5418 0.0
C530 C 0.30811 0.88711 0.48046 0.0
C531 C 0.3434 0.84381 0.51233 0.0
N532 N 0.25238 0.88909 0.53081 0.0
N533 N 0.3164 0.8455 0.52963 0.0
H534 H 0.89402 0.58125 0.62417 0.0
H535 H 0.86309 0.50108 0.87379 0.0
H536 H 0.87322 0.62814 0.75876 0.0
H537 H 0.93033 0.47226 0.77688 0.0
H538 H 0.86547 0.54784 0.83291 0.0
H539 H 0.90573 0.53998 0.67734 0.0
C540 C 0.89213 0.58295 0.66476 0.0
C541 C 0.8825 0.60814 0.68698 0.0
C542 C 0.88031 0.53155 0.82163 0.0
C543 C 0.89548 0.56113 0.74767 0.0
C544 C 0.87916 0.50503 0.84538 0.0
C545 C 0.89681 0.48302 0.82915 0.0
C546 C 0.89841 0.53561 0.7801 0.0
C547 C 0.91673 0.4889 0.79107 0.0
C548 C 0.899 0.55952 0.69506 0.0
C549 C 0.88057 0.60919 0.73991 0.0
N550 N 0.91646 0.51441 0.76675 0.0
N551 N 0.8865 0.58591 0.76832 0.0
H552 H 0.73499 0.83157 0.89791 0.0
H553 H 0.81133 0.90821 0.12485 0.0
H554 H 0.6901 0.87939 1.01007 0.0
H555 H 0.85468 0.86517 1.00401 0.0
H556 H 0.76739 0.90657 0.07499 0.0
H557 H 0.77904 0.85521 0.92271 0.0
C558 C 0.73411 0.84841 0.92566 0.0
C559 C 0.70902 0.85316 0.95263 0.0
C560 C 0.78663 0.89782 0.05917 0.0
C561 C 0.75958 0.87896 0.98376 0.0
C562 C 0.81167 0.89853 0.08783 0.0
C563 C 0.83666 0.88631 0.0691 0.0
C564 C 0.78655 0.88473 1.01147 0.0
C565 C 0.83589 0.87443 0.02052 0.0
C566 C 0.75946 0.8614 0.94089 0.0
C567 C 0.70913 0.87498 0.98862 0.0
N568 N 0.81127 0.8737 0.99375 0.0
N569 N 0.73425 0.88624 1.00476 0.0
H570 H 0.33241 0.57046 0.87707 0.0
H571 H 0.38885 0.46348 0.66894 0.0
H572 H 0.37943 0.59862 0.74639 0.0
H573 H 0.32763 0.44046 0.7825 0.0
H574 H 0.3815 0.51372 0.68916 0.0
H575 H 0.32866 0.52309 0.83982 0.0
C576 C 0.34214 0.56668 0.84073 0.0
C577 C 0.35648 0.58864 0.81516 0.0
C578 C 0.36893 0.49776 0.70853 0.0
C579 C 0.35192 0.53425 0.77168 0.0
C580 C 0.3726 0.46904 0.69602 0.0
C581 C 0.35876 0.44771 0.72394 0.0
C582 C 0.35143 0.50506 0.74949 0.0
C583 C 0.33859 0.45623 0.75981 0.0
C584 C 0.33972 0.53964 0.81913 0.0
C585 C 0.36831 0.58239 0.76773 0.0
N586 N 0.3361 0.48409 0.77248 0.0
N587 N 0.36594 0.55582 0.74775 0.0
H588 H 0.63291 0.14869 0.67065 0.0
H589 H 0.74508 0.10141 0.47335 0.0
H590 H 0.60793 0.09653 0.54466 0.0
H591 H 0.74961 0.18551 0.53661 0.0
H592 H 0.69525 0.09793 0.49981 0.0
H593 H 0.67696 0.16119 0.62601 0.0
C594 C 0.63664 0.13992 0.63376 0.0
C595 C 0.61682 0.12134 0.61178 0.0
C596 C 0.7069 0.11746 0.50668 0.0
C597 C 0.66709 0.13537 0.56043 0.0
C598 C 0.73519 0.11954 0.49113 0.0
C599 C 0.75122 0.14395 0.50209 0.0
C600 C 0.69496 0.13949 0.5352 0.0
C601 C 0.73773 0.16656 0.5266 0.0
C602 C 0.66161 0.14729 0.60799 0.0
C603 C 0.62258 0.11099 0.56313 0.0
N604 N 0.71055 0.16353 0.54353 0.0
N605 N 0.64735 0.11772 0.53951 0.0
H606 H 0.09575 0.41771 0.36821 0.0
H607 H 0.11984 0.51832 0.14891 0.0
H608 H 0.11217 0.37598 0.22663 0.0
H609 H 0.04074 0.52396 0.22969 0.0
H610 H 0.12419 0.46855 0.17623 0.0
H611 H 0.08382 0.46127 0.32177 0.0
C612 C 0.09728 0.4179 0.32743 0.0
C613 C 0.10513 0.39341 0.3011 0.0
C614 C 0.10544 0.48046 0.18643 0.0
C615 C 0.09159 0.44283 0.24822 0.0
C616 C 0.10279 0.50865 0.17047 0.0
C617 C 0.07976 0.52502 0.18674 0.0
C618 C 0.08552 0.46925 0.2204 0.0
C619 C 0.05858 0.51184 0.21582 0.0
C620 C 0.09009 0.44251 0.30106 0.0
C621 C 0.10629 0.39455 0.24816 0.0
N622 N 0.06243 0.48494 0.23322 0.0
N623 N 0.09998 0.41907 0.22329 0.0
H624 H 0.61189 0.65993 0.41103 0.0
H625 H 0.74551 0.58725 0.53828 0.0
H626 H 0.6446 0.57877 0.36479 0.0
H627 H 0.74337 0.67842 0.52328 0.0
H628 H 0.70136 0.58386 0.4902 0.0
H629 H 0.65506 0.66791 0.4615 0.0
C630 C 0.62855 0.64416 0.41034 0.0
C631 C 0.62476 0.61872 0.38327 0.0
C632 C 0.71026 0.60466 0.49813 0.0
C633 C 0.67337 0.6271 0.44301 0.0
C634 C 0.73516 0.60668 0.52648 0.0
C635 C 0.74827 0.63317 0.53479 0.0
C636 C 0.69794 0.62932 0.4783 0.0
C637 C 0.73392 0.6576 0.51819 0.0
C638 C 0.65298 0.64862 0.43957 0.0
C639 C 0.64678 0.59881 0.38442 0.0
N640 N 0.70961 0.6551 0.49019 0.0
N641 N 0.66986 0.60318 0.41459 0.0
H642 H 0.13218 0.01354 0.81245 0.0
H643 H 0.04829 0.8783 0.72715 0.0
H644 H 0.04078 0.02128 0.80806 0.0
H645 H 0.11299 0.91637 0.63319 0.0
H646 H 0.04689 0.92235 0.77743 0.0
H647 H 0.12801 0.96757 0.77068 0.0
C648 C 0.11116 0.00532 0.80406 0.0
C649 C 0.0868 0.02158 0.81341 0.0
C650 C 0.0611 0.92095 0.74545 0.0
C651 C 0.0821 0.9688 0.76585 0.0
C652 C 0.06191 0.89601 0.71677 0.0
C653 C 0.08073 0.89378 0.67585 0.0
C654 C 0.07996 0.9432 0.73404 0.0
C655 C 0.09802 0.91725 0.66412 0.0
C656 C 0.10889 0.97918 0.77984 0.0
C657 C 0.06014 0.00954 0.8016 0.0
N658 N 0.0976 0.94078 0.69365 0.0
N659 N 0.05846 0.98385 0.77807 0.0
H660 H 0.72968 0.35078 0.11455 0.0
H661 H 0.86737 0.29694 0.98025 0.0
H662 H 0.72579 0.26602 0.05281 0.0
H663 H 0.82549 0.37425 0.93521 0.0
H664 H 0.82472 0.28332 0.02902 0.0
H665 H 0.77606 0.35756 0.07524 0.0
C666 C 0.7389 0.33324 0.09401 0.0
C667 C 0.72351 0.30794 0.08624 0.0
C668 C 0.82503 0.30315 1.0082 0.0
C669 C 0.77672 0.31571 0.04155 0.0
C670 C 0.8492 0.31095 0.98051 0.0
C671 C 0.84985 0.33676 0.95368 0.0
C672 C 0.80198 0.32181 1.01033 0.0
C673 C 0.8258 0.35413 0.95511 0.0
C674 C 0.76526 0.33728 0.07132 0.0
C675 C 0.73682 0.28591 0.05956 0.0
N676 N 0.80301 0.34656 0.98364 0.0
N677 N 0.76266 0.29041 0.03754 0.0
H678 H 0.34611 0.92774 0.30597 0.0
H679 H 0.39258 0.09085 0.30341 0.0
H680 H 0.40483 0.9647 0.41192 0.0
H681 H 0.34503 0.05037 0.18388 0.0
H682 H 0.38939 0.04723 0.35285 0.0
H683 H 0.33474 0.97525 0.27469 0.0
C684 C 0.35525 0.94601 0.32496 0.0
C685 C 0.37664 0.94227 0.36129 0.0
C686 C 0.37959 0.04785 0.31587 0.0
C687 C 0.36485 -0.00341 0.3241 0.0
C688 C 0.3816 0.07272 0.2873 0.0
C689 C 0.36934 0.07428 0.23897 0.0
C690 C 0.36511 0.02416 0.29632 0.0
C691 C 0.35515 0.05008 0.22058 0.0
C692 C 0.34937 0.97312 0.30602 0.0
C693 C 0.38819 0.96666 0.38387 0.0
N694 N 0.35347 0.02602 0.24922 0.0
N695 N 0.38283 -0.00725 0.3639 0.0
H696 H 0.22337 0.39361 0.41639 0.0
H697 H 0.31646 0.35227 0.656 0.0
H698 H 0.21059 0.31595 0.50018 0.0
H699 H 0.35259 0.40026 0.53317 0.0
H700 H 0.27239 0.34658 0.60718 0.0
H701 H 0.26769 0.4019 0.46319 0.0
C702 C 0.23031 0.37791 0.44364 0.0
C703 C 0.21338 0.35393 0.45407 0.0
C704 C 0.28975 0.35891 0.59139 0.0
C705 C 0.26313 0.36409 0.50952 0.0
C706 C 0.31459 0.36272 0.61969 0.0
C707 C 0.33782 0.37738 0.599 0.0
C708 C 0.28813 0.37003 0.54222 0.0
C709 C 0.33482 0.38945 0.55084 0.0
C710 C 0.25538 0.38284 0.47072 0.0
C711 C 0.22311 0.33453 0.49043 0.0
N712 N 0.31044 0.3855 0.52397 0.0
N713 N 0.24707 0.34029 0.5175 0.0
H714 H 0.9224 0.13603 0.32279 0.0
H715 H 0.84672 0.00552 0.20929 0.0
H716 H 0.86094 0.08878 0.41041 0.0
H717 H 0.93756 -0.00471 0.22324 0.0
H718 H 0.84998 0.04857 0.26001 0.0
H719 H 0.92786 0.09451 0.26715 0.0
C720 C 0.91052 0.11678 0.33091 0.0
C721 C 0.89115 0.11581 0.37124 0.0
C722 C 0.86921 0.03709 0.25105 0.0
C723 C 0.89659 0.0692 0.30711 0.0
C724 C 0.86749 0.01267 0.22175 0.0
C725 C 0.89187 -0.0036 0.21259 0.0
C726 C 0.89551 0.04581 0.27037 0.0
C727 C 0.91821 0.00704 0.22963 0.0
C728 C 0.91363 0.09327 0.29917 0.0
C729 C 0.87619 0.09042 0.37998 0.0
N730 N 0.91936 0.03109 0.25822 0.0
N731 N 0.87873 0.06834 0.34744 0.0
H732 H 0.13709 0.67514 0.12782 0.0
H733 H 0.22075 0.63256 0.89209 0.0
H734 H 0.09085 0.65193 0.99328 0.0
H735 H 0.24943 0.70387 0.98031 0.0
H736 H 0.17277 0.63869 0.92626 0.0
H737 H 0.17924 0.68452 0.07584 0.0
C738 C 0.1357 0.67226 0.08743 0.0
C739 C 0.11045 0.66261 0.06497 0.0
C740 C 0.18932 0.65364 0.93677 0.0
C741 C 0.15857 0.67289 1.00549 0.0
C742 C 0.21656 0.65037 0.91674 0.0
C743 C 0.23883 0.66805 0.93281 0.0
C744 C 0.18479 0.67394 0.97464 0.0
C745 C 0.23261 0.69019 0.96629 0.0
C746 C 0.15967 0.67783 0.05774 0.0
C747 C 0.10987 0.65939 1.01222 0.0
N748 N 0.20635 0.69199 0.98739 0.0
N749 N 0.13371 0.66396 0.9844 0.0
H750 H 0.55601 0.97903 0.75556 0.0
H751 H 0.58687 0.83806 0.81015 0.0
H752 H 0.64428 -0.00428 0.78706 0.0
H753 H 0.65413 0.87456 0.9006 0.0
H754 H 0.58077 0.88359 0.76805 0.0
H755 H 0.56363 0.92874 0.77383 0.0
C756 C 0.57726 0.97182 0.76383 0.0
C757 C 0.59957 -0.0086 0.7687 0.0
C758 C 0.5967 0.88179 0.79734 0.0
C759 C 0.60858 0.93407 0.79163 0.0
C760 C 0.60042 0.85565 0.82126 0.0
C761 C 0.6208 0.85248 0.85972 0.0
C762 C 0.6134 0.90512 0.81201 0.0
C763 C 0.63799 0.87599 0.87162 0.0
C764 C 0.58165 0.9431 0.77493 0.0
C765 C 0.62648 0.98123 0.78264 0.0
N766 N 0.6338 0.90136 0.848 0.0
N767 N 0.63013 0.95339 0.79436 0.0
H768 H 0.42002 0.10237 0.10067 0.0
H769 H 0.4774 0.07694 0.82328 0.0
H770 H 0.37558 0.05019 0.9923 0.0
H771 H 0.53519 0.09149 0.94717 0.0
H772 H 0.43824 0.07258 0.88408 0.0
H773 H 0.46221 0.10129 0.04641 0.0
C774 C 0.41943 0.0897 0.06662 0.0
C775 C 0.39407 0.07642 0.05107 0.0
C776 C 0.45953 0.07677 0.89786 0.0
C777 C 0.4418 0.07634 0.98767 0.0
C778 C 0.48179 0.07961 0.86312 0.0
C779 C 0.50963 0.08451 0.88011 0.0
C780 C 0.46503 0.07936 0.94989 0.0
C781 C 0.51408 0.08756 0.93238 0.0
C782 C 0.44339 0.08954 0.03517 0.0
C783 C 0.39456 0.06086 1.00579 0.0
N784 N 0.49206 0.08506 0.96535 0.0
N785 N 0.41772 0.0618 0.97523 0.0
H786 H 0.62721 0.63309 0.26794 0.0
H787 H 0.65371 0.69203 1.00289 0.0
H788 H 0.62997 0.57588 0.14094 0.0
H789 H 0.70125 0.72608 0.12867 0.0
H790 H 0.64603 0.64819 0.05134 0.0
H791 H 0.6557 0.66741 0.21921 0.0
C792 C 0.6344 0.62743 0.23053 0.0
C793 C 0.62563 0.60193 0.20808 0.0
C794 C 0.65877 0.66506 0.0677 0.0
C795 C 0.6574 0.64102 0.15208 0.0
C796 C 0.66329 0.68998 0.03989 0.0
C797 C 0.67753 0.71296 0.06219 0.0
C798 C 0.66808 0.66357 0.11814 0.0
C799 C 0.68951 0.70911 0.11044 0.0
C800 C 0.65056 0.64699 0.20266 0.0
C801 C 0.63561 0.59565 0.15932 0.0
N802 N 0.68379 0.68526 0.13744 0.0
N803 N 0.6503 0.61534 0.13247 0.0
H804 H 0.94515 0.86039 0.33057 0.0
H805 H 0.03382 0.85685 0.5384 0.0
H806 H 0.93414 0.94925 0.36448 0.0
H807 H 0.06119 0.93647 0.47334 0.0
H808 H -0.01148 0.86119 0.49326 0.0
H809 H 0.97951 0.857 0.39988 0.0
C810 C 0.94963 0.87907 0.35303 0.0
C811 C 0.93658 0.90508 0.34201 0.0
C812 C 0.00417 0.87808 0.49014 0.0
C813 C 0.97612 0.90145 0.42075 0.0
C814 C 0.02981 0.8759 0.51654 0.0
C815 C 0.05137 0.89626 0.50922 0.0
C816 C -7e-05 0.9011 0.45724 0.0
C817 C 0.04515 0.92029 0.47981 0.0
C818 C 0.96907 0.87707 0.39279 0.0
C819 C 0.94353 0.92873 0.37201 0.0
N820 N 0.02006 0.92193 0.45443 0.0
N821 N 0.9633 0.92651 0.40933 0.0
H822 H 0.83865 0.18797 0.70422 0.0
H823 H 0.80333 0.35209 0.73282 0.0
H824 H 0.83563 0.24755 0.58037 0.0
H825 H 0.85721 0.3103 0.84176 0.0
H826 H 0.79861 0.30733 0.68728 0.0
H827 H 0.83234 0.22768 0.76346 0.0
C828 C 0.83674 0.20938 0.68957 0.0
C829 C 0.83793 0.21459 0.63739 0.0
C830 C 0.81086 0.30788 0.72191 0.0
C831 C 0.82952 0.25947 0.7044 0.0
C832 C 0.8133 0.33331 0.74835 0.0
C833 C 0.83139 0.33523 0.79044 0.0
C834 C 0.82614 0.2841 0.73819 0.0
C835 C 0.8434 0.30999 0.80912 0.0
C836 C 0.83301 0.23187 0.72328 0.0
C837 C 0.8352 0.24264 0.62028 0.0
N838 N 0.84106 0.28548 0.7822 0.0
N839 N 0.83087 0.264 0.65368 0.0
H840 H 0.5782 0.78877 0.12394 0.0
H841 H 0.53225 0.91719 0.29117 0.0
H842 H 0.62906 0.86525 0.13208 0.0
H843 H 0.51071 0.8311 0.33205 0.0
H844 H 0.5694 0.89926 0.2355 0.0
H845 H 0.55191 0.8045 0.19885 0.0
C846 C 0.58366 0.80892 0.14118 0.0
C847 C 0.60571 0.82579 0.12163 0.0
C848 C 0.5572 0.88428 0.25789 0.0
C849 C 0.57613 0.84369 0.20728 0.0
C850 C 0.53638 0.89457 0.29041 0.0
C851 C 0.51851 0.8756 0.31627 0.0
C852 C 0.55949 0.85486 0.25025 0.0
C853 C 0.52426 0.84643 0.31306 0.0
C854 C 0.56898 0.81768 0.18429 0.0
C855 C 0.61217 0.85158 0.14586 0.0
N856 N 0.54364 0.83684 0.27921 0.0
N857 N 0.59732 0.85984 0.18708 0.0
H858 H 0.41273 0.32321 0.90337 0.0
H859 H 0.33474 0.17186 0.91529 0.0
H860 H 0.3723 0.28592 0.77301 0.0
H861 H 0.36667 0.21853 0.04351 0.0
H862 H 0.3509 0.2108 0.85989 0.0
H863 H 0.40002 0.28151 0.95258 0.0
C864 C 0.4012 0.30608 0.88511 0.0
C865 C 0.39342 0.30794 0.83426 0.0
C866 C 0.35448 0.21229 0.90016 0.0
C867 C 0.37838 0.26015 0.8905 0.0
C868 C 0.34518 0.19023 0.93168 0.0
C869 C 0.34995 0.19179 0.98387 0.0
C870 C 0.36844 0.2359 0.92135 0.0
C871 C 0.36342 0.21597 1.00339 0.0
C872 C 0.39392 0.28225 0.91318 0.0
C873 C 0.37882 0.28507 0.81216 0.0
N874 N 0.37222 0.23698 0.97217 0.0
N875 N 0.37151 0.26206 0.84062 0.0
H876 H 0.03024 0.15045 0.67376 0.0
H877 H 0.92845 0.14136 0.48891 0.0
H878 H 0.03503 0.05907 0.6662 0.0
H879 H 0.90213 0.07031 0.58128 0.0
H880 H 0.97646 0.13729 0.52352 0.0
H881 H -0.00795 0.14942 0.61105 0.0
C882 C 0.0236 0.13022 0.65821 0.0
C883 C 0.03592 0.10482 0.6749 0.0
C884 C 0.96029 0.12217 0.53514 0.0
C885 C -0.00799 0.10345 0.60375 0.0
C886 C 0.93295 0.12416 0.5149 0.0
C887 C 0.91107 0.10641 0.5329 0.0
C888 C 0.96582 0.10202 0.57295 0.0
C889 C 0.91828 0.08464 0.56687 0.0
C890 C 0.00196 0.12966 0.62216 0.0
C891 C 0.02625 0.07914 0.65388 0.0
N892 N 0.94501 0.08327 0.58636 0.0
N893 N 0.00435 0.07903 0.62023 0.0
H894 H 0.11869 0.75761 0.45862 0.0
H895 H 0.16228 0.6628 0.28336 0.0
H896 H 0.12854 0.82092 0.34172 0.0
H897 H 0.09494 0.70194 0.19765 0.0
H898 H 0.16683 0.70617 0.33328 0.0
H899 H 0.12397 0.72042 0.39487 0.0
C900 C 0.12166 0.76368 0.41952 0.0
C901 C 0.12334 0.79232 0.40538 0.0
C902 C 0.15169 0.70547 0.30245 0.0
C903 C 0.1295 0.75006 0.33277 0.0
C904 C 0.1493 0.68094 0.27352 0.0
C905 C 0.12768 0.6785 0.23721 0.0
C906 C 0.13264 0.72776 0.29443 0.0
C907 C 0.11166 0.7028 0.22572 0.0
C908 C 0.12501 0.74252 0.38341 0.0
C909 C 0.12734 0.79901 0.35409 0.0
N910 N 0.11397 0.72636 0.25521 0.0
N911 N 0.13002 0.77796 0.31932 0.0
H912 H 0.92657 0.63173 0.55569 0.0
H913 H 0.98439 0.61944 0.29227 0.0
H914 H 0.89079 0.56886 0.45567 0.0
H915 H 0.04833 0.60018 0.404 0.0
H916 H 0.94776 0.61336 0.3569 0.0
H917 H 0.97155 0.62922 0.50864 0.0
C918 C 0.92863 0.61627 0.52572 0.0
C919 C 0.90486 0.60071 0.50902 0.0
C920 C 0.96988 0.61065 0.36712 0.0
C921 C 0.95534 0.59872 0.45453 0.0
C922 C -0.00923 0.61439 0.33052 0.0
C923 C 0.0194 0.61021 0.3428 0.0
C924 C 0.97768 0.60339 0.41656 0.0
C925 C 0.02641 0.60342 0.39306 0.0
C926 C 0.95413 0.61519 0.49851 0.0
C927 C 0.90855 0.58141 0.46934 0.0
N928 N 0.00564 0.60038 0.42846 0.0
N929 N 0.93295 0.5817 0.44225 0.0
H930 H 0.08074 0.16558 0.66752 0.0
H931 H 0.16038 0.30909 0.61685 0.0
H932 H 0.15083 0.18922 0.76376 0.0
H933 H 0.1366 0.25415 0.49367 0.0
H934 H 0.15298 0.26933 0.67579 0.0
H935 H 0.09515 0.20274 0.60749 0.0
C936 C 0.09897 0.17885 0.67616 0.0
C937 C 0.11448 0.17469 0.7207 0.0
C938 C 0.14992 0.26593 0.63574 0.0
C939 C 0.13108 0.21691 0.65252 0.0
C940 C 0.15422 0.28849 0.60217 0.0
C941 C 0.14928 0.28476 0.55039 0.0
C942 C 0.13967 0.23987 0.61745 0.0
C943 C 0.14099 0.25777 0.53326 0.0
C944 C 0.10735 0.19975 0.64176 0.0
C945 C 0.13828 0.19201 0.72986 0.0
N946 N 0.13585 0.23647 0.56685 0.0
N947 N 0.1457 0.21269 0.69629 0.0
H948 H 0.50214 0.43184 0.80722 0.0
H949 H 0.57024 0.29848 0.94164 0.0
H950 H 0.5004 0.34801 0.74249 0.0
H951 H 0.58705 0.38481 0.98755 0.0
H952 H 0.54672 0.31639 0.86571 0.0
H953 H 0.53872 0.41635 0.86636 0.0
C954 C 0.51058 0.41056 0.80375 0.0
C955 C 0.49808 0.3911 0.77033 0.0
C956 C 0.55569 0.33141 0.8923 0.0
C957 C 0.5386 0.37267 0.83977 0.0
C958 C 0.56881 0.32116 0.93601 0.0
C959 C 0.58063 0.34008 0.97117 0.0
C960 C 0.55413 0.36087 0.88387 0.0
C961 C 0.57818 0.36936 0.96167 0.0
C962 C 0.53104 0.4015 0.83827 0.0
C963 C 0.50952 0.36368 0.76774 0.0
N964 N 0.56517 0.37881 0.9191 0.0
N965 N 0.52848 0.35495 0.80324 0.0
H966 H 0.36718 0.74078 0.99979 0.0
H967 H 0.38452 0.79059 0.28649 0.0
H968 H 0.3337 0.69323 0.12597 0.0
H969 H 0.41791 0.83689 0.15878 0.0
H970 H 0.367 0.75377 0.22915 0.0
H971 H 0.38691 0.77558 0.05814 0.0
C972 C 0.36422 0.73753 0.03986 0.0
C973 C 0.34924 0.71386 0.05814 0.0
C974 C 0.37826 0.77193 0.21372 0.0
C975 C 0.37111 0.754 0.12528 0.0
C976 C 0.3885 0.79279 0.24647 0.0
C977 C 0.40301 0.81657 0.22735 0.0
C978 C 0.38236 0.77511 0.16152 0.0
C979 C 0.40681 0.81887 0.17506 0.0
C980 C 0.3753 0.75753 0.0732 0.0
C981 C 0.34518 0.7112 0.11036 0.0
N982 N 0.39654 0.7984 0.14397 0.0
N983 N 0.35613 0.73103 0.14219 0.0
H984 H 0.05271 0.32631 0.547 0.0
H985 H 0.9436 0.43587 0.66596 0.0
H986 H 0.05002 0.41452 0.50283 0.0
H987 H 0.93935 0.34538 0.68915 0.0
H988 H 0.98061 0.42872 0.60228 0.0
H989 H 0.0097 0.33279 0.59614 0.0
C990 C 0.0427 0.34694 0.54682 0.0
C991 C 0.0546 0.36975 0.51998 0.0
C992 C 0.97149 0.4104 0.62115 0.0
C993 C 0.00587 0.37774 0.57798 0.0
C994 C 0.95035 0.41447 0.65729 0.0
C995 C 0.93919 0.39113 0.68378 0.0
C996 C 0.98136 0.3828 0.61162 0.0
C997 C 0.9484 0.36389 0.67108 0.0
C998 C 0.01824 0.35072 0.57532 0.0
C999 C 0.04142 0.39635 0.52287 0.0
N1000 N 0.96915 0.36045 0.63625 0.0
N1001 N 0.01778 0.39966 0.55164 0.0
H1002 H 0.81891 0.83178 0.24159 0.0
H1003 H 0.81281 0.69831 0.36284 0.0
H1004 H 0.89741 0.84029 0.32432 0.0
H1005 H 0.85849 0.74231 0.48072 0.0
H1006 H 0.81838 0.74025 0.3087 0.0
H1007 H 0.80809 0.7883 0.28976 0.0
C1008 C 0.83388 0.82436 0.26971 0.0
C1009 C 0.85925 0.83926 0.27869 0.0
C1010 C 0.82695 0.74072 0.3466 0.0
C1011 C 0.84719 0.78998 0.3335 0.0
C1012 C 0.82397 0.71674 0.37744 0.0
C1013 C 0.83568 0.71652 0.42625 0.0
C1014 C 0.84186 0.76453 0.36475 0.0
C1015 C 0.84985 0.74105 0.44308 0.0
C1016 C 0.82785 0.79949 0.29677 0.0
C1017 C 0.87786 0.82911 0.31579 0.0
N1018 N 0.8528 0.7639 0.41223 0.0
N1019 N 0.87137 0.80519 0.34208 0.0
H1020 H 0.40801 0.62727 0.96768 0.0
H1021 H 0.47297 0.52189 0.17308 0.0
H1022 H 0.35995 0.55681 0.02806 0.0
H1023 H 0.49557 0.61072 0.16708 0.0
H1024 H 0.43678 0.52995 0.10821 0.0
H1025 H 0.44705 0.61581 0.02561 0.0
C1026 C 0.40622 0.60854 0.99135 0.0
C1027 C 0.38082 0.59269 0.99256 0.0
C1028 C 0.44952 0.54771 0.12128 0.0
C1029 C 0.42503 0.58003 0.05984 0.0
C1030 C 0.47003 0.5432 0.15849 0.0
C1031 C 0.48706 0.56576 0.17588 0.0
C1032 C 0.44643 0.57485 0.10014 0.0
C1033 C 0.48257 0.59287 0.1553 0.0
C1034 C 0.42823 0.60245 0.02523 0.0
C1035 C 0.3793 0.56929 0.02542 0.0
N1036 N 0.46288 0.59663 0.11804 0.0
N1037 N 0.40102 0.56373 0.0579 0.0
H1038 H 0.68837 0.26363 0.91842 0.0
H1039 H 0.58896 0.16908 0.7417 0.0
H1040 H 0.59695 0.25855 0.92647 0.0
H1041 H 0.66692 0.13765 0.80587 0.0
H1042 H 0.6001 0.21626 0.77543 0.0
H1043 H 0.68715 0.23058 0.8465 0.0
C1044 C 0.66805 0.25624 0.9042 0.0
C1045 C 0.64269 0.26373 0.92847 0.0
C1046 C 0.61532 0.19927 0.7802 0.0
C1047 C 0.6412 0.22703 0.84593 0.0
C1048 C 0.60914 0.17246 0.76057 0.0
C1049 C 0.62689 0.14949 0.77183 0.0
C1050 C 0.6395 0.20298 0.81058 0.0
C1051 C 0.65261 0.15489 0.79696 0.0
C1052 C 0.66741 0.23752 0.86327 0.0
C1053 C 0.61695 0.25343 0.90888 0.0
N1054 N 0.65794 0.18105 0.81649 0.0
N1055 N 0.61687 0.23555 0.86884 0.0
H1056 H 0.31868 0.22282 0.27835 0.0
H1057 H 0.1513 0.23157 0.32457 0.0
H1058 H 0.25773 0.16771 0.20518 0.0
H1059 H 0.21172 0.28853 0.39432 0.0
H1060 H 0.19032 0.20517 0.28735 0.0
H1061 H 0.28032 0.24482 0.32523 0.0
C1062 C 0.29719 0.21529 0.27193 0.0
C1063 C 0.29153 0.19333 0.23728 0.0
C1064 C 0.19517 0.22323 0.31118 0.0
C1065 C 0.24721 0.21866 0.29171 0.0
C1066 C 0.17288 0.23828 0.33276 0.0
C1067 C 0.17822 0.26248 0.36238 0.0
C1068 C 0.22322 0.23243 0.31883 0.0
C1069 C 0.20661 0.26999 0.37189 0.0
C1070 C 0.27526 0.22792 0.29899 0.0
C1071 C 0.26316 0.18468 0.23095 0.0
N1072 N 0.22806 0.25521 0.34965 0.0
N1073 N 0.24209 0.19737 0.25785 0.0
H1074 H 0.5229 0.48423 0.38214 0.0
H1075 H 0.48213 0.43076 0.65622 0.0
H1076 H 0.53781 0.53497 0.51455 0.0
H1077 H 0.49026 0.37471 0.52847 0.0
H1078 H 0.50594 0.46829 0.60759 0.0
H1079 H 0.51344 0.44305 0.43608 0.0
C1080 C 0.525 0.48646 0.42244 0.0
C1081 C 0.53174 0.51286 0.44359 0.0
C1082 C 0.50299 0.44759 0.59059 0.0
C1083 C 0.51966 0.46624 0.5062 0.0
C1084 C 0.48958 0.42606 0.61853 0.0
C1085 C 0.48374 0.39965 0.59617 0.0
C1086 C 0.51032 0.44268 0.53991 0.0
C1087 C 0.49387 0.39487 0.54706 0.0
C1088 C 0.51926 0.46306 0.45343 0.0
C1089 C 0.53266 0.51499 0.4965 0.0
N1090 N 0.50616 0.41629 0.52034 0.0
N1091 N 0.52645 0.49208 0.52596 0.0
H1092 H 0.15185 0.74508 0.67819 0.0
H1093 H 0.31267 0.74853 0.77222 0.0
H1094 H 0.20582 0.81835 0.65485 0.0
H1095 H 0.25005 0.68925 0.82874 0.0
H1096 H 0.27553 0.7729 0.72466 0.0
H1097 H 0.18925 0.72277 0.72707 0.0
C1098 C 0.17174 0.75649 0.68294 0.0
C1099 C 0.17565 0.78372 0.66188 0.0
C1100 C 0.26985 0.75471 0.74771 0.0
C1101 C 0.21896 0.75789 0.71861 0.0
C1102 C 0.29104 0.74068 0.77491 0.0
C1103 C 0.28452 0.71666 0.80461 0.0
C1104 C 0.24185 0.7445 0.74944 0.0
C1105 C 0.25608 0.7077 0.80673 0.0
C1106 C 0.19309 0.74366 0.71119 0.0
C1107 C 0.20203 0.79718 0.66935 0.0
N1108 N 0.23587 0.72145 0.77914 0.0
N1109 N 0.22271 0.78411 0.69714 0.0
H1110 H 0.96773 0.57861 0.06901 0.0
H1111 H -0.00804 0.41958 0.9755 0.0
H1112 H 0.04454 0.53205 0.10008 0.0
H1113 H 0.92139 0.47138 0.92814 0.0
H1114 H 0.01077 0.45951 0.02379 0.0
H1115 H 0.94952 0.5384 0.02147 0.0
C1116 C 0.98078 0.5598 0.06617 0.0
C1117 C 0.00782 0.55877 0.08872 0.0
C1118 C -0.00873 0.46223 1.00262 0.0
C1119 C -0.01311 0.5124 0.03368 0.0
C1120 C 0.98045 0.43944 0.97497 0.0
C1121 C 0.95501 0.44213 0.94751 0.0
C1122 C 0.97647 0.48797 1.00332 0.0
C1123 C 0.94118 0.46841 0.94815 0.0
C1124 C 0.97031 0.53684 0.03877 0.0
C1125 C 0.02352 0.5337 0.08389 0.0
N1126 N 0.95202 0.49027 0.97586 0.0
N1127 N 0.01286 0.5115 0.05671 0.0
H1128 H 0.714 0.7422 0.91208 0.0
H1129 H 0.75405 0.65678 0.66123 0.0
H1130 H 0.65006 0.69488 0.83061 0.0
H1131 H 0.79379 0.73495 0.71036 0.0
H1132 H 0.71931 0.66159 0.73057 0.0
H1133 H 0.74914 0.72794 0.84911 0.0
C1134 C 0.70757 0.72796 0.88206 0.0
C1135 C 0.67903 0.71994 0.87636 0.0
C1136 C 0.73572 0.67759 0.72574 0.0
C1137 C 0.71892 0.70407 0.80354 0.0
C1138 C 0.7553 0.67504 0.68592 0.0
C1139 C 0.77703 0.69539 0.67984 0.0
C1140 C 0.73839 0.70028 0.76001 0.0
C1141 C 0.77768 0.71853 0.71342 0.0
C1142 C 0.72751 0.7202 0.84563 0.0
C1143 C 0.67185 0.70172 0.83614 0.0
N1144 N 0.75899 0.72011 0.75211 0.0
N1145 N 0.69157 0.69466 0.80086 0.0
H1146 H 0.65925 0.19255 0.20668 0.0
H1147 H 0.79506 0.24672 0.35563 0.0
H1148 H 0.71339 0.26132 0.15699 0.0
H1149 H 0.7629 0.16162 0.37848 0.0
H1150 H 0.76073 0.25365 0.28842 0.0
H1151 H 0.69454 0.18024 0.27103 0.0
C1152 C 0.67892 0.20459 0.20834 0.0
C1153 C 0.68327 0.22822 0.17654 0.0
C1154 C 0.761 0.23345 0.30809 0.0
C1155 C 0.72316 0.21475 0.25102 0.0
C1156 C 0.78037 0.22958 0.34698 0.0
C1157 C 0.78199 0.20345 0.37241 0.0
C1158 C 0.74279 0.21112 0.29435 0.0
C1159 C 0.76225 0.18212 0.35989 0.0
C1160 C 0.6989 0.19765 0.24535 0.0
C1161 C 0.70909 0.243 0.18038 0.0
N1162 N 0.74347 0.18635 0.32131 0.0
N1163 N 0.7278 0.23634 0.21758 0.0
H1164 H 0.04727 0.02994 0.90372 0.0
H1165 H 0.93592 -0.01114 0.12108 0.0
H1166 H 0.97698 0.08271 0.94769 0.0
H1167 H -0.00395 0.92949 0.05958 0.0
H1168 H 0.95447 0.02541 0.06383 0.0
H1169 H 0.03052 -0.00673 0.96255 0.0
C1170 C 0.02785 0.03346 0.92449 0.0
C1171 C 0.01335 0.05929 0.92032 0.0
C1172 C 0.96382 0.00446 0.06328 0.0
C1173 C -0.00518 0.01812 0.98947 0.0
C1174 C 0.95354 0.98374 0.09659 0.0
C1175 C 0.96442 0.9561 0.09504 0.0
C1176 C 0.98517 -0.00254 0.02838 0.0
C1177 C -0.01305 0.95052 0.06181 0.0
C1178 C 0.01857 0.01275 0.95882 0.0
C1179 C -0.01118 0.06309 0.94966 0.0
N1180 N -0.00357 0.97092 0.02956 0.0
N1181 N 0.98048 0.04288 0.98321 0.0
H1182 H 0.51977 0.98086 0.69538 0.0
H1183 H 0.50647 0.91455 0.42592 0.0
H1184 H 0.56696 0.01463 0.56963 0.0
H1185 H 0.49368 0.86415 0.56042 0.0
H1186 H 0.53064 0.95062 0.47721 0.0
H1187 H 0.51184 0.93677 0.64799 0.0
C1188 C 0.5296 0.97841 0.65877 0.0
C1189 C 0.54488 0.00089 0.637 0.0
C1190 C 0.52301 0.93138 0.49526 0.0
C1191 C 0.53423 0.95155 0.5811 0.0
C1192 C 0.50925 0.91073 0.46592 0.0
C1193 C 0.49766 0.88636 0.4888 0.0
C1194 C 0.5247 0.92788 0.54793 0.0
C1195 C 0.50198 0.88267 0.541 0.0
C1196 C 0.5247 0.95347 0.63131 0.0
C1197 C 0.55556 -0.00257 0.588 0.0
N1198 N 0.51459 0.90342 0.56886 0.0
N1199 N 0.54968 0.97345 0.56137 0.0
loop_
_geom_bond_atom_site_label_1
_geom_bond_atom_site_label_2
_geom_bond_distance
_geom_bond_site_symmetry_2
_ccdc_geom_bond_type
Zn0 O6 1.920 . S
Zn0 O12 1.898 . S
Zn0 O15 1.905 . S
Zn1 O9 1.905 . S
Zn1 O10 1.898 . S
Zn1 O18 1.920 . S
Zn2 O5 2.080 . S
Zn2 O8 2.114 1_554 S
Zn2 O11 2.120 . S
Zn2 O13 2.120 . S
Zn2 O14 2.114 . S
Zn2 O17 2.080 . S
C3 O8 1.166 . S
C3 O9 1.182 . S
C4 O10 1.167 . S
C4 O11 1.299 1_556 S
O5 Zn2 2.080 . S
O5 C19 1.305 . S
O6 Zn0 1.920 . S
O6 C19 1.234 . S
C7 O12 1.167 . S
C7 O13 1.299 . S
O8 Zn2 2.114 1_556 S
O8 C3 1.166 . S
O9 Zn1 1.905 . S
O9 C3 1.182 . S
O10 Zn1 1.898 . S
O10 C4 1.167 . S
O11 Zn2 2.120 . S
O11 C4 1.299 1_554 S
O12 Zn0 1.898 . S
O12 C7 1.167 . S
O13 Zn2 2.120 . S
O13 C7 1.299 . S
O14 Zn2 2.114 . S
O14 C16 1.166 . S
O15 Zn0 1.905 . S
O15 C16 1.182 . S
C16 O14 1.166 . S
C16 O15 1.182 . S
O17 Zn2 2.080 . S
O17 C20 1.305 1_554 S
O18 Zn1 1.920 . S
O18 C20 1.234 . S
C19 O5 1.305 . S
C19 O6 1.234 . S
C20 O17 1.305 1_556 S
C20 O18 1.234 . S
Zn21 O27 1.920 . S
Zn21 O33 1.898 . S
Zn21 O36 1.905 . S
Zn22 O30 1.905 . S
Zn22 O31 1.898 . S
Zn22 O39 1.920 . S
Zn23 O26 2.080 . S
Zn23 O29 2.114 . S
Zn23 O32 2.120 . S
Zn23 O34 2.120 . S
Zn23 O35 2.114 . S
Zn23 O38 2.080 . S
C24 O29 1.166 . S
C24 O30 1.182 . S
C25 O31 1.167 . S
C25 O32 1.299 . S
O26 Zn23 2.080 . S
O26 C40 1.305 . S
O27 Zn21 1.920 . S
O27 C40 1.234 . S
C28 O33 1.167 . S
C28 O34 1.299 . S
O29 Zn23 2.114 . S
O29 C24 1.166 . S
O30 Zn22 1.905 . S
O30 C24 1.182 . S
O31 Zn22 1.898 . S
O31 C25 1.167 . S
O32 Zn23 2.120 . S
O32 C25 1.299 . S
O33 Zn21 1.898 . S
O33 C28 1.167 . S
O34 Zn23 2.120 . S
O34 C28 1.299 . S
O35 Zn23 2.114 . S
O35 C37 1.166 . S
O36 Zn21 1.905 . S
O36 C37 1.182 . S
C37 O35 1.166 . S
C37 O36 1.182 . S
O38 Zn23 2.080 . S
O38 C41 1.305 . S
O39 Zn22 1.920 . S
O39 C41 1.234 . S
C40 O26 1.305 . S
C40 O27 1.234 . S
C41 O38 1.305 . S
C41 O39 1.234 . S
Zn42 O48 1.920 . S
Zn42 O54 1.898 . S
Zn42 O57 1.905 . S
Zn43 O51 1.905 . S
Zn43 O52 1.898 . S
Zn43 O60 1.920 . S
Zn44 O47 2.080 . S
Zn44 O50 2.114 . S
Zn44 O53 2.120 . S
Zn44 O55 2.120 . S
Zn44 O56 2.114 . S
Zn44 O59 2.080 . S
C45 O50 1.166 . S
C45 O51 1.182 . S
C46 O52 1.167 . S
C46 O53 1.299 . S
O47 Zn44 2.080 . S
O47 C61 1.305 . S
O48 Zn42 1.920 . S
O48 C61 1.234 . S
C49 O54 1.167 . S
C49 O55 1.299 . S
O50 Zn44 2.114 . S
O50 C45 1.166 . S
O51 Zn43 1.905 . S
O51 C45 1.182 . S
O52 Zn43 1.898 . S
O52 C46 1.167 . S
O53 Zn44 2.120 . S
O53 C46 1.299 . S
O54 Zn42 1.898 . S
O54 C49 1.167 . S
O55 Zn44 2.120 . S
O55 C49 1.299 . S
O56 Zn44 2.114 . S
O56 C58 1.166 . S
O57 Zn42 1.905 . S
O57 C58 1.182 . S
C58 O56 1.166 . S
C58 O57 1.182 . S
O59 Zn44 2.080 . S
O59 C62 1.305 . S
O60 Zn43 1.920 . S
O60 C62 1.234 . S
C61 O47 1.305 . S
C61 O48 1.234 . S
C62 O59 1.305 . S
C62 O60 1.234 . S
Zn63 O69 1.920 . S
Zn63 O75 1.898 . S
Zn63 O78 1.905 . S
Zn64 O72 1.905 . S
Zn64 O73 1.898 . S
Zn64 O81 1.920 . S
Zn65 O68 2.080 . S
Zn65 O71 2.114 . S
Zn65 O74 2.120 . S
Zn65 O76 2.120 . S
Zn65 O77 2.114 . S
Zn65 O80 2.080 . S
C66 O71 1.166 . S
C66 O72 1.182 . S
C67 O73 1.167 . S
C67 O74 1.299 . S
O68 Zn65 2.080 . S
O68 C82 1.305 . S
O69 Zn63 1.920 . S
O69 C82 1.234 . S
C70 O75 1.167 . S
C70 O76 1.299 . S
O71 Zn65 2.114 . S
O71 C66 1.166 . S
O72 Zn64 1.905 . S
O72 C66 1.182 . S
O73 Zn64 1.898 . S
O73 C67 1.167 . S
O74 Zn65 2.120 . S
O74 C67 1.299 . S
O75 Zn63 1.898 . S
O75 C70 1.167 . S
O76 Zn65 2.120 . S
O76 C70 1.299 . S
O77 Zn65 2.114 . S
O77 C79 1.166 . S
O78 Zn63 1.905 . S
O78 C79 1.182 . S
C79 O77 1.166 . S
C79 O78 1.182 . S
O80 Zn65 2.080 . S
O80 C83 1.305 . S
O81 Zn64 1.920 . S
O81 C83 1.234 . S
C82 O68 1.305 . S
C82 O69 1.234 . S
C83 O80 1.305 . S
C83 O81 1.234 . S
Zn84 O90 1.920 . S
Zn84 O96 1.898 . S
Zn84 O99 1.905 . S
Zn85 O93 1.905 . S
Zn85 O94 1.898 . S
Zn85 O102 1.920 . S
Zn86 O89 2.080 . S
Zn86 O92 2.114 . S
Zn86 O95 2.120 . S
Zn86 O97 2.120 . S
Zn86 O98 2.114 1_556 S
Zn86 O101 2.080 . S
C87 O92 1.166 . S
C87 O93 1.182 . S
C88 O94 1.167 . S
C88 O95 1.299 . S
O89 Zn86 2.080 . S
O89 C103 1.305 1_556 S
O90 Zn84 1.920 . S
O90 C103 1.234 . S
C91 O96 1.167 . S
C91 O97 1.299 1_554 S
O92 Zn86 2.114 . S
O92 C87 1.166 . S
O93 Zn85 1.905 . S
O93 C87 1.182 . S
O94 Zn85 1.898 . S
O94 C88 1.167 . S
O95 Zn86 2.120 . S
O95 C88 1.299 . S
O96 Zn84 1.898 . S
O96 C91 1.167 . S
O97 Zn86 2.120 . S
O97 C91 1.299 1_556 S
O98 Zn86 2.114 1_554 S
O98 C100 1.166 . S
O99 Zn84 1.905 . S
O99 C100 1.182 . S
C100 O98 1.166 . S
C100 O99 1.182 . S
O101 Zn86 2.080 . S
O101 C104 1.305 . S
O102 Zn85 1.920 . S
O102 C104 1.234 . S
C103 O89 1.305 1_554 S
C103 O90 1.234 . S
C104 O101 1.305 . S
C104 O102 1.234 . S
Zn105 O111 1.920 . S
Zn105 O117 1.898 . S
Zn105 O120 1.905 . S
Zn106 O114 1.905 . S
Zn106 O115 1.898 . S
Zn106 O123 1.920 . S
Zn107 O110 2.080 . S
Zn107 O113 2.114 . S
Zn107 O116 2.120 . S
Zn107 O118 2.120 . S
Zn107 O119 2.114 . S
Zn107 O122 2.080 . S
C108 O113 1.166 . S
C108 O114 1.182 . S
C109 O115 1.167 . S
C109 O116 1.299 . S
O110 Zn107 2.080 . S
O110 C124 1.305 . S
O111 Zn105 1.920 . S
O111 C124 1.234 . S
C112 O117 1.167 . S
C112 O118 1.299 . S
O113 Zn107 2.114 . S
O113 C108 1.166 . S
O114 Zn106 1.905 . S
O114 C108 1.182 . S
O115 Zn106 1.898 . S
O115 C109 1.167 . S
O116 Zn107 2.120 . S
O116 C109 1.299 . S
O117 Zn105 1.898 . S
O117 C112 1.167 . S
O118 Zn107 2.120 . S
O118 C112 1.299 . S
O119 Zn107 2.114 . S
O119 C121 1.166 . S
O120 Zn105 1.905 . S
O120 C121 1.182 . S
C121 O119 1.166 . S
C121 O120 1.182 . S
O122 Zn107 2.080 . S
O122 C125 1.305 . S
O123 Zn106 1.920 . S
O123 C125 1.234 . S
C124 O110 1.305 . S
C124 O111 1.234 . S
C125 O122 1.305 . S
C125 O123 1.234 . S
Zn126 O132 1.920 . S
Zn126 O138 1.898 . S
Zn126 O141 1.905 . S
Zn127 O135 1.905 . S
Zn127 O136 1.898 . S
Zn127 O144 1.920 . S
Zn128 O131 2.080 . S
Zn128 O134 2.114 . S
Zn128 O137 2.120 . S
Zn128 O139 2.120 . S
Zn128 O140 2.114 . S
Zn128 O143 2.080 . S
C129 O134 1.166 . S
C129 O135 1.182 . S
C130 O136 1.167 . S
C130 O137 1.299 . S
O131 Zn128 2.080 . S
O131 C145 1.305 . S
O132 Zn126 1.920 . S
O132 C145 1.234 . S
C133 O138 1.167 . S
C133 O139 1.299 . S
O134 Zn128 2.114 . S
O134 C129 1.166 . S
O135 Zn127 1.905 . S
O135 C129 1.182 . S
O136 Zn127 1.898 . S
O136 C130 1.167 . S
O137 Zn128 2.120 . S
O137 C130 1.299 . S
O138 Zn126 1.898 . S
O138 C133 1.167 . S
O139 Zn128 2.120 . S
O139 C133 1.299 . S
O140 Zn128 2.114 . S
O140 C142 1.166 . S
O141 Zn126 1.905 . S
O141 C142 1.182 . S
C142 O140 1.166 . S
C142 O141 1.182 . S
O143 Zn128 2.080 . S
O143 C146 1.305 . S
O144 Zn127 1.920 . S
O144 C146 1.234 . S
C145 O131 1.305 . S
C145 O132 1.234 . S
C146 O143 1.305 . S
C146 O144 1.234 . S
Zn147 O153 1.920 . S
Zn147 O159 1.898 . S
Zn147 O162 1.905 . S
Zn148 O156 1.905 . S
Zn148 O157 1.898 . S
Zn148 O165 1.920 . S
Zn149 O152 2.080 . S
Zn149 O155 2.114 . S
Zn149 O158 2.120 . S
Zn149 O160 2.120 . S
Zn149 O161 2.114 . S
Zn149 O164 2.080 . S
C150 O155 1.166 . S
C150 O156 1.182 . S
C151 O157 1.167 . S
C151 O158 1.299 . S
O152 Zn149 2.080 . S
O152 C166 1.305 . S
O153 Zn147 1.920 . S
O153 C166 1.234 . S
C154 O159 1.167 . S
C154 O160 1.299 . S
O155 Zn149 2.114 . S
O155 C150 1.166 . S
O156 Zn148 1.905 . S
O156 C150 1.182 . S
O157 Zn148 1.898 . S
O157 C151 1.167 . S
O158 Zn149 2.120 . S
O158 C151 1.299 . S
O159 Zn147 1.898 . S
O159 C154 1.167 . S
O160 Zn149 2.120 . S
O160 C154 1.299 . S
O161 Zn149 2.114 . S
O161 C163 1.166 . S
O162 Zn147 1.905 . S
O162 C163 1.182 . S
C163 O161 1.166 . S
C163 O162 1.182 . S
O164 Zn149 2.080 . S
O164 C167 1.305 . S
O165 Zn148 1.920 . S
O165 C167 1.234 . S
C166 O152 1.305 . S
C166 O153 1.234 . S
C167 O164 1.305 . S
C167 O165 1.234 . S
Zn168 O174 1.920 . S
Zn168 O180 1.898 . S
Zn168 O183 1.905 . S
Zn169 O177 1.905 . S
Zn169 O178 1.898 . S
Zn169 O186 1.920 . S
Zn170 O173 2.080 . S
Zn170 O176 2.114 . S
Zn170 O179 2.120 . S
Zn170 O181 2.120 . S
Zn170 O182 2.114 . S
Zn170 O185 2.080 . S
C171 O176 1.166 . S
C171 O177 1.182 . S
C172 O178 1.167 . S
C172 O179 1.299 . S
O173 Zn170 2.080 . S
O173 C187 1.305 . S
O174 Zn168 1.920 . S
O174 C187 1.234 . S
C175 O180 1.167 . S
C175 O181 1.299 . S
O176 Zn170 2.114 . S
O176 C171 1.166 . S
O177 Zn169 1.905 . S
O177 C171 1.182 . S
O178 Zn169 1.898 . S
O178 C172 1.167 . S
O179 Zn170 2.120 . S
O179 C172 1.299 . S
O180 Zn168 1.898 . S
O180 C175 1.167 . S
O181 Zn170 2.120 . S
O181 C175 1.299 . S
O182 Zn170 2.114 . S
O182 C184 1.166 . S
O183 Zn168 1.905 . S
O183 C184 1.182 . S
C184 O182 1.166 . S
C184 O183 1.182 . S
O185 Zn170 2.080 . S
O185 C188 1.305 . S
O186 Zn169 1.920 . S
O186 C188 1.234 . S
C187 O173 1.305 . S
C187 O174 1.234 . S
C188 O185 1.305 . S
C188 O186 1.234 . S
Zn189 O195 1.920 . S
Zn189 O201 1.898 . S
Zn189 O204 1.905 . S
Zn190 O198 1.905 . S
Zn190 O199 1.898 . S
Zn190 O207 1.920 . S
Zn191 O194 2.080 . S
Zn191 O197 2.114 . S
Zn191 O200 2.120 . S
Zn191 O202 2.120 . S
Zn191 O203 2.114 . S
Zn191 O206 2.080 . S
C192 O197 1.166 . S
C192 O198 1.182 . S
C193 O199 1.167 . S
C193 O200 1.299 . S
O194 Zn191 2.080 . S
O194 C208 1.305 . S
O195 Zn189 1.920 . S
O195 C208 1.234 . S
C196 O201 1.167 . S
C196 O202 1.299 . S
O197 Zn191 2.114 . S
O197 C192 1.166 . S
O198 Zn190 1.905 . S
O198 C192 1.182 . S
O199 Zn190 1.898 . S
O199 C193 1.167 . S
O200 Zn191 2.120 . S
O200 C193 1.299 . S
O201 Zn189 1.898 . S
O201 C196 1.167 . S
O202 Zn191 2.120 . S
O202 C196 1.299 . S
O203 Zn191 2.114 . S
O203 C205 1.166 . S
O204 Zn189 1.905 . S
O204 C205 1.182 . S
C205 O203 1.166 . S
C205 O204 1.182 . S
O206 Zn191 2.080 . S
O206 C209 1.305 . S
O207 Zn190 1.920 . S
O207 C209 1.234 . S
C208 O194 1.305 . S
C208 O195 1.234 . S
C209 O206 1.305 . S
C209 O207 1.234 . S
Zn210 O216 1.920 . S
Zn210 O222 1.898 . S
Zn210 O225 1.905 . S
Zn211 O219 1.905 . S
Zn211 O220 1.898 . S
Zn211 O228 1.920 . S
Zn212 O215 2.080 . S
Zn212 O218 2.114 . S
Zn212 O221 2.120 . S
Zn212 O223 2.120 . S
Zn212 O224 2.114 1_554 S
Zn212 O227 2.080 . S
C213 O218 1.166 . S
C213 O219 1.182 . S
C214 O220 1.167 . S
C214 O221 1.299 . S
O215 Zn212 2.080 . S
O215 C229 1.305 1_554 S
O216 Zn210 1.920 . S
O216 C229 1.234 . S
C217 O222 1.167 . S
C217 O223 1.299 1_556 S
O218 Zn212 2.114 . S
O218 C213 1.166 . S
O219 Zn211 1.905 . S
O219 C213 1.182 . S
O220 Zn211 1.898 . S
O220 C214 1.167 . S
O221 Zn212 2.120 . S
O221 C214 1.299 . S
O222 Zn210 1.898 . S
O222 C217 1.167 . S
O223 Zn212 2.120 . S
O223 C217 1.299 1_554 S
O224 Zn212 2.114 1_556 S
O224 C226 1.166 . S
O225 Zn210 1.905 . S
O225 C226 1.182 . S
C226 O224 1.166 . S
C226 O225 1.182 . S
O227 Zn212 2.080 . S
O227 C230 1.305 . S
O228 Zn211 1.920 . S
O228 C230 1.234 . S
C229 O215 1.305 1_556 S
C229 O216 1.234 . S
C230 O227 1.305 . S
C230 O228 1.234 . S
Zn231 O237 1.920 . S
Zn231 O243 1.898 . S
Zn231 O246 1.905 . S
Zn232 O240 1.905 . S
Zn232 O241 1.898 . S
Zn232 O249 1.920 . S
Zn233 O236 2.080 . S
Zn233 O239 2.114 . S
Zn233 O242 2.120 . S
Zn233 O244 2.120 . S
Zn233 O245 2.114 . S
Zn233 O248 2.080 . S
C234 O239 1.166 . S
C234 O240 1.182 . S
C235 O241 1.167 . S
C235 O242 1.299 . S
O236 Zn233 2.080 . S
O236 C250 1.305 . S
O237 Zn231 1.920 . S
O237 C250 1.234 . S
C238 O243 1.167 . S
C238 O244 1.299 . S
O239 Zn233 2.114 . S
O239 C234 1.166 . S
O240 Zn232 1.905 . S
O240 C234 1.182 . S
O241 Zn232 1.898 . S
O241 C235 1.167 . S
O242 Zn233 2.120 . S
O242 C235 1.299 . S
O243 Zn231 1.898 . S
O243 C238 1.167 . S
O244 Zn233 2.120 . S
O244 C238 1.299 . S
O245 Zn233 2.114 . S
O245 C247 1.166 . S
O246 Zn231 1.905 . S
O246 C247 1.182 . S
C247 O245 1.166 . S
C247 O246 1.182 . S
O248 Zn233 2.080 . S
O248 C251 1.305 . S
O249 Zn232 1.920 . S
O249 C251 1.234 . S
C250 O236 1.305 . S
C250 O237 1.234 . S
C251 O248 1.305 . S
C251 O249 1.234 . S
Zn252 O258 1.920 . S
Zn252 O264 1.898 . S
Zn252 O267 1.905 . S
Zn253 O261 1.905 . S
Zn253 O262 1.898 . S
Zn253 O270 1.920 . S
Zn254 O257 2.080 . S
Zn254 O260 2.114 . S
Zn254 O263 2.120 . S
Zn254 O265 2.120 . S
Zn254 O266 2.114 . S
Zn254 O269 2.080 . S
C255 O260 1.166 . S
C255 O261 1.182 . S
C256 O262 1.167 . S
C256 O263 1.299 . S
O257 Zn254 2.080 . S
O257 C271 1.305 . S
O258 Zn252 1.920 . S
O258 C271 1.234 . S
C259 O264 1.167 . S
C259 O265 1.299 . S
O260 Zn254 2.114 . S
O260 C255 1.166 . S
O261 Zn253 1.905 . S
O261 C255 1.182 . S
O262 Zn253 1.898 . S
O262 C256 1.167 . S
O263 Zn254 2.120 . S
O263 C256 1.299 . S
O264 Zn252 1.898 . S
O264 C259 1.167 . S
O265 Zn254 2.120 . S
O265 C259 1.299 . S
O266 Zn254 2.114 . S
O266 C268 1.166 . S
O267 Zn252 1.905 . S
O267 C268 1.182 . S
C268 O266 1.166 . S
C268 O267 1.182 . S
O269 Zn254 2.080 . S
O269 C272 1.305 . S
O270 Zn253 1.920 . S
O270 C272 1.234 . S
C271 O257 1.305 . S
C271 O258 1.234 . S
C272 O269 1.305 . S
C272 O270 1.234 . S
Zn273 O279 1.920 . S
Zn273 O285 1.898 . S
Zn273 O288 1.905 . S
Zn274 O282 1.905 . S
Zn274 O283 1.898 . S
Zn274 O291 1.920 . S
Zn275 O278 2.080 . S
Zn275 O281 2.114 . S
Zn275 O284 2.120 . S
Zn275 O286 2.120 . S
Zn275 O287 2.114 . S
Zn275 O290 2.080 . S
C276 O281 1.166 . S
C276 O282 1.182 . S
C277 O283 1.167 . S
C277 O284 1.299 . S
O278 Zn275 2.080 . S
O278 C292 1.305 . S
O279 Zn273 1.920 . S
O279 C292 1.234 . S
C280 O285 1.167 . S
C280 O286 1.299 . S
O281 Zn275 2.114 . S
O281 C276 1.166 . S
O282 Zn274 1.905 . S
O282 C276 1.182 . S
O283 Zn274 1.898 . S
O283 C277 1.167 . S
O284 Zn275 2.120 . S
O284 C277 1.299 . S
O285 Zn273 1.898 . S
O285 C280 1.167 . S
O286 Zn275 2.120 . S
O286 C280 1.299 . S
O287 Zn275 2.114 . S
O287 C289 1.166 . S
O288 Zn273 1.905 . S
O288 C289 1.182 . S
C289 O287 1.166 . S
C289 O288 1.182 . S
O290 Zn275 2.080 . S
O290 C293 1.305 . S
O291 Zn274 1.920 . S
O291 C293 1.234 . S
C292 O278 1.305 . S
C292 O279 1.234 . S
C293 O290 1.305 . S
C293 O291 1.234 . S
Zn294 O300 1.920 . S
Zn294 O306 1.898 . S
Zn294 O309 1.905 . S
Zn295 O303 1.905 . S
Zn295 O304 1.898 . S
Zn295 O312 1.920 . S
Zn296 O299 2.080 . S
Zn296 O302 2.114 . S
Zn296 O305 2.120 . S
Zn296 O307 2.120 . S
Zn296 O308 2.114 1_556 S
Zn296 O311 2.080 . S
C297 O302 1.166 . S
C297 O303 1.182 . S
C298 O304 1.167 . S
C298 O305 1.299 . S
O299 Zn296 2.080 . S
O299 C313 1.305 1_556 S
O300 Zn294 1.920 . S
O300 C313 1.234 . S
C301 O306 1.167 . S
C301 O307 1.299 1_554 S
O302 Zn296 2.114 . S
O302 C297 1.166 . S
O303 Zn295 1.905 . S
O303 C297 1.182 . S
O304 Zn295 1.898 . S
O304 C298 1.167 . S
O305 Zn296 2.120 . S
O305 C298 1.299 . S
O306 Zn294 1.898 . S
O306 C301 1.167 . S
O307 Zn296 2.120 . S
O307 C301 1.299 1_556 S
O308 Zn296 2.114 1_554 S
O308 C310 1.166 . S
O309 Zn294 1.905 . S
O309 C310 1.182 . S
C310 O308 1.166 . S
C310 O309 1.182 . S
O311 Zn296 2.080 . S
O311 C314 1.305 . S
O312 Zn295 1.920 . S
O312 C314 1.234 . S
C313 O299 1.305 1_554 S
C313 O300 1.234 . S
C314 O311 1.305 . S
C314 O312 1.234 . S
Zn315 O321 1.920 . S
Zn315 O327 1.898 . S
Zn315 O330 1.905 . S
Zn316 O324 1.905 . S
Zn316 O325 1.898 . S
Zn316 O333 1.920 . S
Zn317 O320 2.080 . S
Zn317 O323 2.114 . S
Zn317 O326 2.120 . S
Zn317 O328 2.120 . S
Zn317 O329 2.114 . S
Zn317 O332 2.080 . S
C318 O323 1.166 . S
C318 O324 1.182 . S
C319 O325 1.167 . S
C319 O326 1.299 . S
O320 Zn317 2.080 . S
O320 C334 1.305 . S
O321 Zn315 1.920 . S
O321 C334 1.234 . S
C322 O327 1.167 . S
C322 O328 1.299 . S
O323 Zn317 2.114 . S
O323 C318 1.166 . S
O324 Zn316 1.905 . S
O324 C318 1.182 . S
O325 Zn316 1.898 . S
O325 C319 1.167 . S
O326 Zn317 2.120 . S
O326 C319 1.299 . S
O327 Zn315 1.898 . S
O327 C322 1.167 . S
O328 Zn317 2.120 . S
O328 C322 1.299 . S
O329 Zn317 2.114 . S
O329 C331 1.166 . S
O330 Zn315 1.905 . S
O330 C331 1.182 . S
C331 O329 1.166 . S
C331 O330 1.182 . S
O332 Zn317 2.080 . S
O332 C335 1.305 . S
O333 Zn316 1.920 . S
O333 C335 1.234 . S
C334 O320 1.305 . S
C334 O321 1.234 . S
C335 O332 1.305 . S
C335 O333 1.234 . S
H336 C342 0.930 . S
H337 C346 0.930 . S
H338 C351 0.929 . S
H339 C349 0.929 . S
H340 C344 0.929 . S
H341 C350 0.929 . S
C342 H336 0.930 . S
C342 C343 1.367 . S
C342 C350 1.378 . S
C343 C342 1.367 . S
C343 C351 1.433 . S
C344 H340 0.929 . S
C344 C346 1.378 . S
C344 C348 1.350 . S
C345 C348 1.463 . S
C345 C350 1.350 . S
C345 N353 1.427 . S
C346 H337 0.930 . S
C346 C344 1.378 . S
C346 C347 1.367 . S
C347 C346 1.367 . S
C347 C349 1.433 . S
C348 C344 1.350 . S
C348 C345 1.463 . S
C348 N352 1.427 . S
C349 H339 0.929 . S
C349 C347 1.433 . S
C349 N352 1.384 . S
C350 H341 0.929 . S
C350 C342 1.378 . S
C350 C345 1.350 . S
C351 H338 0.929 . S
C351 C343 1.433 . S
C351 N353 1.384 . S
N352 C348 1.427 . S
N352 C349 1.384 . S
N353 C345 1.427 . S
N353 C351 1.384 . S
H354 C360 0.930 . S
H355 C364 0.930 . S
H356 C369 0.929 . S
H357 C367 0.929 . S
H358 C362 0.929 . S
H359 C368 0.929 . S
C360 H354 0.930 . S
C360 C361 1.367 . S
C360 C368 1.378 . S
C361 C360 1.367 . S
C361 C369 1.433 . S
C362 H358 0.929 . S
C362 C364 1.378 . S
C362 C366 1.350 . S
C363 C366 1.463 . S
C363 C368 1.350 . S
C363 N371 1.427 . S
C364 H355 0.930 . S
C364 C362 1.378 . S
C364 C365 1.367 . S
C365 C364 1.367 . S
C365 C367 1.433 . S
C366 C362 1.350 . S
C366 C363 1.463 . S
C366 N370 1.427 . S
C367 H357 0.929 . S
C367 C365 1.433 . S
C367 N370 1.384 . S
C368 H359 0.929 . S
C368 C360 1.378 . S
C368 C363 1.350 . S
C369 H356 0.929 . S
C369 C361 1.433 . S
C369 N371 1.384 . S
N370 C366 1.427 . S
N370 C367 1.384 . S
N371 C363 1.427 . S
N371 C369 1.384 . S
H372 C378 0.930 . S
H373 C382 0.930 . S
H374 C387 0.929 . S
H375 C385 0.929 . S
H376 C380 0.929 . S
H377 C386 0.929 . S
C378 H372 0.930 . S
C378 C379 1.367 . S
C378 C386 1.378 . S
C379 C378 1.367 . S
C379 C387 1.433 . S
C380 H376 0.929 . S
C380 C382 1.378 . S
C380 C384 1.350 . S
C381 C384 1.463 1_455 S
C381 C386 1.350 . S
C381 N389 1.427 . S
C382 H373 0.930 . S
C382 C380 1.378 . S
C382 C383 1.367 . S
C383 C382 1.367 . S
C383 C385 1.433 . S
C384 C380 1.350 . S
C384 C381 1.463 1_655 S
C384 N388 1.427 . S
C385 H375 0.929 . S
C385 C383 1.433 . S
C385 N388 1.384 . S
C386 H377 0.929 . S
C386 C378 1.378 . S
C386 C381 1.350 . S
C387 H374 0.929 . S
C387 C379 1.433 . S
C387 N389 1.384 . S
N388 C384 1.427 . S
N388 C385 1.384 . S
N389 C381 1.427 . S
N389 C387 1.384 . S
H390 C396 0.930 . S
H391 C400 0.930 . S
H392 C405 0.929 . S
H393 C403 0.929 . S
H394 C398 0.929 . S
H395 C404 0.929 . S
C396 H390 0.930 . S
C396 C397 1.367 . S
C396 C404 1.378 . S
C397 C396 1.367 . S
C397 C405 1.433 1_655 S
C398 H394 0.929 . S
C398 C400 1.378 . S
C398 C402 1.350 . S
C399 C402 1.463 1_655 S
C399 C404 1.350 . S
C399 N407 1.427 1_655 S
C400 H391 0.930 . S
C400 C398 1.378 . S
C400 C401 1.367 . S
C401 C400 1.367 . S
C401 C403 1.433 1_455 S
C402 C398 1.350 . S
C402 C399 1.463 1_455 S
C402 N406 1.427 1_455 S
C403 H393 0.929 . S
C403 C401 1.433 1_655 S
C403 N406 1.384 . S
C404 H395 0.929 . S
C404 C396 1.378 . S
C404 C399 1.350 . S
C405 H392 0.929 . S
C405 C397 1.433 1_455 S
C405 N407 1.384 . S
N406 C402 1.427 1_655 S
N406 C403 1.384 . S
N407 C399 1.427 1_455 S
N407 C405 1.384 . S
H408 C414 0.930 . S
H409 C418 0.930 . S
H410 C423 0.929 . S
H411 C421 0.929 . S
H412 C416 0.929 . S
H413 C422 0.929 . S
C414 H408 0.930 . S
C414 C415 1.367 . S
C414 C422 1.378 . S
C415 C414 1.367 . S
C415 C423 1.433 . S
C416 H412 0.929 . S
C416 C418 1.378 . S
C416 C420 1.350 . S
C417 C420 1.463 . S
C417 C422 1.350 . S
C417 N425 1.427 . S
C418 H409 0.930 . S
C418 C416 1.378 . S
C418 C419 1.367 . S
C419 C418 1.367 . S
C419 C421 1.433 . S
C420 C416 1.350 . S
C420 C417 1.463 . S
C420 N424 1.427 . S
C421 H411 0.929 . S
C421 C419 1.433 . S
C421 N424 1.384 . S
C422 H413 0.929 . S
C422 C414 1.378 . S
C422 C417 1.350 . S
C423 H410 0.929 . S
C423 C415 1.433 . S
C423 N425 1.384 . S
N424 C420 1.427 . S
N424 C421 1.384 . S
N425 C417 1.427 . S
N425 C423 1.384 . S
H426 C432 0.930 . S
H427 C436 0.930 . S
H428 C441 0.929 . S
H429 C439 0.929 . S
H430 C434 0.929 . S
H431 C440 0.929 . S
C432 H426 0.930 . S
C432 C433 1.367 . S
C432 C440 1.378 . S
C433 C432 1.367 . S
C433 C441 1.433 . S
C434 H430 0.929 . S
C434 C436 1.378 . S
C434 C438 1.350 . S
C435 C438 1.463 . S
C435 C440 1.350 . S
C435 N443 1.427 . S
C436 H427 0.930 . S
C436 C434 1.378 . S
C436 C437 1.367 . S
C437 C436 1.367 . S
C437 C439 1.433 . S
C438 C434 1.350 . S
C438 C435 1.463 . S
C438 N442 1.427 . S
C439 H429 0.929 . S
C439 C437 1.433 . S
C439 N442 1.384 . S
C440 H431 0.929 . S
C440 C432 1.378 . S
C440 C435 1.350 . S
C441 H428 0.929 . S
C441 C433 1.433 . S
C441 N443 1.384 . S
N442 C438 1.427 . S
N442 C439 1.384 . S
N443 C435 1.427 . S
N443 C441 1.384 . S
H444 C450 0.930 . S
H445 C454 0.930 . S
H446 C459 0.929 . S
H447 C457 0.929 . S
H448 C452 0.929 . S
H449 C458 0.929 . S
C450 H444 0.930 . S
C450 C451 1.367 . S
C450 C458 1.378 . S
C451 C450 1.367 . S
C451 C459 1.433 . S
C452 H448 0.929 . S
C452 C454 1.378 . S
C452 C456 1.350 . S
C453 C456 1.463 1_655 S
C453 C458 1.350 . S
C453 N461 1.427 . S
C454 H445 0.930 . S
C454 C452 1.378 . S
C454 C455 1.367 . S
C455 C454 1.367 . S
C455 C457 1.433 . S
C456 C452 1.350 . S
C456 C453 1.463 1_455 S
C456 N460 1.427 . S
C457 H447 0.929 . S
C457 C455 1.433 . S
C457 N460 1.384 . S
C458 H449 0.929 . S
C458 C450 1.378 . S
C458 C453 1.350 . S
C459 H446 0.929 . S
C459 C451 1.433 . S
C459 N461 1.384 . S
N460 C456 1.427 . S
N460 C457 1.384 . S
N461 C453 1.427 . S
N461 C459 1.384 . S
H462 C468 0.930 . S
H463 C472 0.930 . S
H464 C477 0.929 . S
H465 C475 0.929 . S
H466 C470 0.929 . S
H467 C476 0.929 . S
C468 H462 0.930 . S
C468 C469 1.367 . S
C468 C476 1.378 . S
C469 C468 1.367 . S
C469 C477 1.433 1_455 S
C470 H466 0.929 . S
C470 C472 1.378 . S
C470 C474 1.350 . S
C471 C474 1.463 1_455 S
C471 C476 1.350 . S
C471 N479 1.427 1_455 S
C472 H463 0.930 . S
C472 C470 1.378 . S
C472 C473 1.367 . S
C473 C472 1.367 . S
C473 C475 1.433 1_655 S
C474 C470 1.350 . S
C474 C471 1.463 1_655 S
C474 N478 1.427 1_655 S
C475 H465 0.929 . S
C475 C473 1.433 1_455 S
C475 N478 1.384 . S
C476 H467 0.929 . S
C476 C468 1.378 . S
C476 C471 1.350 . S
C477 H464 0.929 . S
C477 C469 1.433 1_655 S
C477 N479 1.384 . S
N478 C474 1.427 1_455 S
N478 C475 1.384 . S
N479 C471 1.427 1_655 S
N479 C477 1.384 . S
H480 C486 0.930 . S
H481 C490 0.930 . S
H482 C495 0.929 . S
H483 C493 0.929 . S
H484 C488 0.929 1_554 S
H485 C494 0.929 . S
C486 H480 0.930 . S
C486 C487 1.367 . S
C486 C494 1.378 . S
C487 C486 1.367 . S
C487 C495 1.433 . S
C488 H484 0.929 1_556 S
C488 C490 1.378 1_556 S
C488 C492 1.350 . S
C489 C492 1.463 . S
C489 C494 1.350 . S
C489 N497 1.427 . S
C490 H481 0.930 . S
C490 C488 1.378 1_554 S
C490 C491 1.367 1_554 S
C491 C490 1.367 1_556 S
C491 C493 1.433 . S
C492 C488 1.350 . S
C492 C489 1.463 . S
C492 N496 1.427 . S
C493 H483 0.929 . S
C493 C491 1.433 . S
C493 N496 1.384 . S
C494 H485 0.929 . S
C494 C486 1.378 . S
C494 C489 1.350 . S
C495 H482 0.929 . S
C495 C487 1.433 . S
C495 N497 1.384 . S
N496 C492 1.427 . S
N496 C493 1.384 . S
N497 C489 1.427 . S
N497 C495 1.384 . S
H498 C504 0.930 . S
H499 C508 0.930 . S
H500 C513 0.929 . S
H501 C511 0.929 . S
H502 C506 0.929 . S
H503 C512 0.929 . S
C504 H498 0.930 . S
C504 C505 1.367 . S
C504 C512 1.378 . S
C505 C504 1.367 . S
C505 C513 1.433 . S
C506 H502 0.929 . S
C506 C508 1.378 . S
C506 C510 1.350 . S
C507 C510 1.463 . S
C507 C512 1.350 . S
C507 N515 1.427 . S
C508 H499 0.930 . S
C508 C506 1.378 . S
C508 C509 1.367 . S
C509 C508 1.367 . S
C509 C511 1.433 . S
C510 C506 1.350 . S
C510 C507 1.463 . S
C510 N514 1.427 . S
C511 H501 0.929 . S
C511 C509 1.433 . S
C511 N514 1.384 . S
C512 H503 0.929 . S
C512 C504 1.378 . S
C512 C507 1.350 . S
C513 H500 0.929 . S
C513 C505 1.433 . S
C513 N515 1.384 . S
N514 C510 1.427 . S
N514 C511 1.384 . S
N515 C507 1.427 . S
N515 C513 1.384 . S
H516 C522 0.930 . S
H517 C526 0.930 . S
H518 C531 0.929 . S
H519 C529 0.929 . S
H520 C524 0.929 . S
H521 C530 0.929 . S
C522 H516 0.930 . S
C522 C523 1.367 . S
C522 C530 1.378 . S
C523 C522 1.367 . S
C523 C531 1.433 . S
C524 H520 0.929 . S
C524 C526 1.378 . S
C524 C528 1.350 . S
C525 C528 1.463 . S
C525 C530 1.350 . S
C525 N533 1.427 . S
C526 H517 0.930 . S
C526 C524 1.378 . S
C526 C527 1.367 . S
C527 C526 1.367 . S
C527 C529 1.433 . S
C528 C524 1.350 . S
C528 C525 1.463 . S
C528 N532 1.427 . S
C529 H519 0.929 . S
C529 C527 1.433 . S
C529 N532 1.384 . S
C530 H521 0.929 . S
C530 C522 1.378 . S
C530 C525 1.350 . S
C531 H518 0.929 . S
C531 C523 1.433 . S
C531 N533 1.384 . S
N532 C528 1.427 . S
N532 C529 1.384 . S
N533 C525 1.427 . S
N533 C531 1.384 . S
H534 C540 0.930 . S
H535 C544 0.930 . S
H536 C549 0.929 . S
H537 C547 0.929 . S
H538 C542 0.929 . S
H539 C548 0.929 . S
C540 H534 0.930 . S
C540 C541 1.367 . S
C540 C548 1.378 . S
C541 C540 1.367 . S
C541 C549 1.433 . S
C542 H538 0.929 . S
C542 C544 1.378 . S
C542 C546 1.350 . S
C543 C546 1.463 . S
C543 C548 1.350 . S
C543 N551 1.427 . S
C544 H535 0.930 . S
C544 C542 1.378 . S
C544 C545 1.367 . S
C545 C544 1.367 . S
C545 C547 1.433 . S
C546 C542 1.350 . S
C546 C543 1.463 . S
C546 N550 1.427 . S
C547 H537 0.929 . S
C547 C545 1.433 . S
C547 N550 1.384 . S
C548 H539 0.929 . S
C548 C540 1.378 . S
C548 C543 1.350 . S
C549 H536 0.929 . S
C549 C541 1.433 . S
C549 N551 1.384 . S
N550 C546 1.427 . S
N550 C547 1.384 . S
N551 C543 1.427 . S
N551 C549 1.384 . S
H552 C558 0.935 . S
H553 C562 0.930 . S
H554 C567 0.929 . S
H555 C565 0.929 . S
H556 C560 0.929 . S
H557 C566 0.929 . S
C558 H552 0.935 . S
C558 C559 1.366 1_556 S
C558 C566 1.374 1_556 S
C559 C558 1.366 1_554 S
C559 C567 1.433 . S
C560 H556 0.929 . S
C560 C562 1.378 . S
C560 C564 1.350 . S
C561 C564 1.463 . S
C561 C566 1.350 . S
C561 N569 1.427 . S
C562 H553 0.930 . S
C562 C560 1.378 . S
C562 C563 1.367 . S
C563 C562 1.367 . S
C563 C565 1.433 . S
C564 C560 1.350 . S
C564 C561 1.463 . S
C564 N568 1.427 . S
C565 H555 0.929 . S
C565 C563 1.433 . S
C565 N568 1.384 . S
C566 H557 0.929 . S
C566 C558 1.374 1_554 S
C566 C561 1.350 . S
C567 H554 0.929 . S
C567 C559 1.433 . S
C567 N569 1.384 . S
N568 C564 1.427 . S
N568 C565 1.384 . S
N569 C561 1.427 . S
N569 C567 1.384 . S
H570 C576 0.930 . S
H571 C580 0.930 . S
H572 C585 0.929 . S
H573 C583 0.929 . S
H574 C578 0.929 . S
H575 C584 0.929 . S
C576 H570 0.930 . S
C576 C577 1.367 . S
C576 C584 1.378 . S
C577 C576 1.367 . S
C577 C585 1.433 . S
C578 H574 0.929 . S
C578 C580 1.378 . S
C578 C582 1.350 . S
C579 C582 1.463 . S
C579 C584 1.350 . S
C579 N587 1.427 . S
C580 H571 0.930 . S
C580 C578 1.378 . S
C580 C581 1.367 . S
C581 C580 1.367 . S
C581 C583 1.433 . S
C582 C578 1.350 . S
C582 C579 1.463 . S
C582 N586 1.427 . S
C583 H573 0.929 . S
C583 C581 1.433 . S
C583 N586 1.384 . S
C584 H575 0.929 . S
C584 C576 1.378 . S
C584 C579 1.350 . S
C585 H572 0.929 . S
C585 C577 1.433 . S
C585 N587 1.384 . S
N586 C582 1.427 . S
N586 C583 1.384 . S
N587 C579 1.427 . S
N587 C585 1.384 . S
H588 C594 0.930 . S
H589 C598 0.930 . S
H590 C603 0.929 . S
H591 C601 0.929 . S
H592 C596 0.929 . S
H593 C602 0.929 . S
C594 H588 0.930 . S
C594 C595 1.367 . S
C594 C602 1.378 . S
C595 C594 1.367 . S
C595 C603 1.433 . S
C596 H592 0.929 . S
C596 C598 1.378 . S
C596 C600 1.350 . S
C597 C600 1.463 . S
C597 C602 1.350 . S
C597 N605 1.427 . S
C598 H589 0.930 . S
C598 C596 1.378 . S
C598 C599 1.367 . S
C599 C598 1.367 . S
C599 C601 1.433 . S
C600 C596 1.350 . S
C600 C597 1.463 . S
C600 N604 1.427 . S
C601 H591 0.929 . S
C601 C599 1.433 . S
C601 N604 1.384 . S
C602 H593 0.929 . S
C602 C594 1.378 . S
C602 C597 1.350 . S
C603 H590 0.929 . S
C603 C595 1.433 . S
C603 N605 1.384 . S
N604 C600 1.427 . S
N604 C601 1.384 . S
N605 C597 1.427 . S
N605 C603 1.384 . S
H606 C612 0.930 . S
H607 C616 0.930 . S
H608 C621 0.929 . S
H609 C619 0.929 . S
H610 C614 0.929 . S
H611 C620 0.929 . S
C612 H606 0.930 . S
C612 C613 1.367 . S
C612 C620 1.378 . S
C613 C612 1.367 . S
C613 C621 1.433 . S
C614 H610 0.929 . S
C614 C616 1.378 . S
C614 C618 1.350 . S
C615 C618 1.463 . S
C615 C620 1.350 . S
C615 N623 1.427 . S
C616 H607 0.930 . S
C616 C614 1.378 . S
C616 C617 1.367 . S
C617 C616 1.367 . S
C617 C619 1.433 . S
C618 C614 1.350 . S
C618 C615 1.463 . S
C618 N622 1.427 . S
C619 H609 0.929 . S
C619 C617 1.433 . S
C619 N622 1.384 . S
C620 H611 0.929 . S
C620 C612 1.378 . S
C620 C615 1.350 . S
C621 H608 0.929 . S
C621 C613 1.433 . S
C621 N623 1.384 . S
N622 C618 1.427 . S
N622 C619 1.384 . S
N623 C615 1.427 . S
N623 C621 1.384 . S
H624 C630 0.930 . S
H625 C634 0.930 . S
H626 C639 0.929 . S
H627 C637 0.929 . S
H628 C632 0.929 . S
H629 C638 0.929 . S
C630 H624 0.930 . S
C630 C631 1.367 . S
C630 C638 1.378 . S
C631 C630 1.367 . S
C631 C639 1.433 . S
C632 H628 0.929 . S
C632 C634 1.378 . S
C632 C636 1.350 . S
C633 C636 1.463 . S
C633 C638 1.350 . S
C633 N641 1.427 . S
C634 H625 0.930 . S
C634 C632 1.378 . S
C634 C635 1.367 . S
C635 C634 1.367 . S
C635 C637 1.433 . S
C636 C632 1.350 . S
C636 C633 1.463 . S
C636 N640 1.427 . S
C637 H627 0.929 . S
C637 C635 1.433 . S
C637 N640 1.384 . S
C638 H629 0.929 . S
C638 C630 1.378 . S
C638 C633 1.350 . S
C639 H626 0.929 . S
C639 C631 1.433 . S
C639 N641 1.384 . S
N640 C636 1.427 . S
N640 C637 1.384 . S
N641 C633 1.427 . S
N641 C639 1.384 . S
H642 C648 0.930 . S
H643 C652 0.930 . S
H644 C657 0.929 . S
H645 C655 0.929 . S
H646 C650 0.929 . S
H647 C656 0.929 . S
C648 H642 0.930 . S
C648 C649 1.367 . S
C648 C656 1.378 1_545 S
C649 C648 1.367 . S
C649 C657 1.433 1_545 S
C650 H646 0.929 . S
C650 C652 1.378 . S
C650 C654 1.350 . S
C651 C654 1.463 . S
C651 C656 1.350 . S
C651 N659 1.427 . S
C652 H643 0.930 . S
C652 C650 1.378 . S
C652 C653 1.367 . S
C653 C652 1.367 . S
C653 C655 1.433 . S
C654 C650 1.350 . S
C654 C651 1.463 . S
C654 N658 1.427 . S
C655 H645 0.929 . S
C655 C653 1.433 . S
C655 N658 1.384 . S
C656 H647 0.929 . S
C656 C648 1.378 1_565 S
C656 C651 1.350 . S
C657 H644 0.929 . S
C657 C649 1.433 1_565 S
C657 N659 1.384 . S
N658 C654 1.427 . S
N658 C655 1.384 . S
N659 C651 1.427 . S
N659 C657 1.384 . S
H660 C666 0.930 . S
H661 C670 0.930 . S
H662 C675 0.929 . S
H663 C673 0.929 . S
H664 C668 0.929 . S
H665 C674 0.929 1_554 S
C666 H660 0.930 . S
C666 C667 1.367 1_554 S
C666 C674 1.378 1_554 S
C667 C666 1.367 1_556 S
C667 C675 1.433 . S
C668 H664 0.929 . S
C668 C670 1.378 . S
C668 C672 1.350 . S
C669 C672 1.463 . S
C669 C674 1.350 . S
C669 N677 1.427 . S
C670 H661 0.930 . S
C670 C668 1.378 . S
C670 C671 1.367 . S
C671 C670 1.367 . S
C671 C673 1.433 . S
C672 C668 1.350 . S
C672 C669 1.463 . S
C672 N676 1.427 . S
C673 H663 0.929 . S
C673 C671 1.433 . S
C673 N676 1.384 . S
C674 H665 0.929 1_556 S
C674 C666 1.378 1_556 S
C674 C669 1.350 . S
C675 H662 0.929 . S
C675 C667 1.433 . S
C675 N677 1.384 . S
N676 C672 1.427 . S
N676 C673 1.384 . S
N677 C669 1.427 . S
N677 C675 1.384 . S
H678 C684 0.930 . S
H679 C688 0.930 . S
H680 C693 0.929 . S
H681 C691 0.929 . S
H682 C686 0.929 . S
H683 C692 0.929 . S
C684 H678 0.930 . S
C684 C685 1.367 . S
C684 C692 1.378 1_565 S
C685 C684 1.367 . S
C685 C693 1.433 1_565 S
C686 H682 0.929 . S
C686 C688 1.378 . S
C686 C690 1.350 . S
C687 C690 1.463 . S
C687 C692 1.350 . S
C687 N695 1.427 . S
C688 H679 0.930 . S
C688 C686 1.378 . S
C688 C689 1.367 . S
C689 C688 1.367 . S
C689 C691 1.433 . S
C690 C686 1.350 . S
C690 C687 1.463 . S
C690 N694 1.427 . S
C691 H681 0.929 . S
C691 C689 1.433 . S
C691 N694 1.384 . S
C692 H683 0.929 . S
C692 C684 1.378 1_545 S
C692 C687 1.350 . S
C693 H680 0.929 . S
C693 C685 1.433 1_545 S
C693 N695 1.384 . S
N694 C690 1.427 . S
N694 C691 1.384 . S
N695 C687 1.427 . S
N695 C693 1.384 . S
H696 C702 0.930 . S
H697 C706 0.930 . S
H698 C711 0.929 . S
H699 C709 0.929 . S
H700 C704 0.929 . S
H701 C710 0.929 . S
C702 H696 0.930 . S
C702 C703 1.367 . S
C702 C710 1.378 . S
C703 C702 1.367 . S
C703 C711 1.433 . S
C704 H700 0.929 . S
C704 C706 1.378 . S
C704 C708 1.350 . S
C705 C708 1.463 . S
C705 C710 1.350 . S
C705 N713 1.427 . S
C706 H697 0.930 . S
C706 C704 1.378 . S
C706 C707 1.367 . S
C707 C706 1.367 . S
C707 C709 1.433 . S
C708 C704 1.350 . S
C708 C705 1.463 . S
C708 N712 1.427 . S
C709 H699 0.929 . S
C709 C707 1.433 . S
C709 N712 1.384 . S
C710 H701 0.929 . S
C710 C702 1.378 . S
C710 C705 1.350 . S
C711 H698 0.929 . S
C711 C703 1.433 . S
C711 N713 1.384 . S
N712 C708 1.427 . S
N712 C709 1.384 . S
N713 C705 1.427 . S
N713 C711 1.384 . S
H714 C720 0.930 . S
H715 C724 0.930 . S
H716 C729 0.929 . S
H717 C727 0.929 . S
H718 C722 0.929 . S
H719 C728 0.929 . S
C720 H714 0.930 . S
C720 C721 1.367 . S
C720 C728 1.378 . S
C721 C720 1.367 . S
C721 C729 1.433 . S
C722 H718 0.929 . S
C722 C724 1.378 1_545 S
C722 C726 1.350 . S
C723 C726 1.463 . S
C723 C728 1.350 . S
C723 N731 1.427 . S
C724 H715 0.930 . S
C724 C722 1.378 1_565 S
C724 C725 1.367 . S
C725 C724 1.367 . S
C725 C727 1.433 1_565 S
C726 C722 1.350 . S
C726 C723 1.463 . S
C726 N730 1.427 . S
C727 H717 0.929 . S
C727 C725 1.433 1_545 S
C727 N730 1.384 . S
C728 H719 0.929 . S
C728 C720 1.378 . S
C728 C723 1.350 . S
C729 H716 0.929 . S
C729 C721 1.433 . S
C729 N731 1.384 . S
N730 C726 1.427 . S
N730 C727 1.384 . S
N731 C723 1.427 . S
N731 C729 1.384 . S
H732 C738 0.930 . S
H733 C742 0.930 . S
H734 C747 0.929 . S
H735 C745 0.929 . S
H736 C740 0.929 1_556 S
H737 C746 0.929 . S
C738 H732 0.930 . S
C738 C739 1.367 . S
C738 C746 1.378 . S
C739 C738 1.367 . S
C739 C747 1.433 . S
C740 H736 0.929 1_554 S
C740 C742 1.378 1_554 S
C740 C744 1.350 . S
C741 C744 1.463 . S
C741 C746 1.350 . S
C741 N749 1.427 . S
C742 H733 0.930 . S
C742 C740 1.378 1_556 S
C742 C743 1.367 1_556 S
C743 C742 1.367 1_554 S
C743 C745 1.433 . S
C744 C740 1.350 . S
C744 C741 1.463 . S
C744 N748 1.427 . S
C745 H735 0.929 . S
C745 C743 1.433 . S
C745 N748 1.384 . S
C746 H737 0.929 . S
C746 C738 1.378 . S
C746 C741 1.350 . S
C747 H734 0.929 . S
C747 C739 1.433 . S
C747 N749 1.384 . S
N748 C744 1.427 . S
N748 C745 1.384 . S
N749 C741 1.427 . S
N749 C747 1.384 . S
H750 C756 0.930 . S
H751 C760 0.930 . S
H752 C765 0.929 1_545 S
H753 C763 0.929 . S
H754 C758 0.929 . S
H755 C764 0.929 . S
C756 H750 0.930 . S
C756 C757 1.367 . S
C756 C764 1.378 1_545 S
C757 C756 1.367 . S
C757 C765 1.433 1_545 S
C758 H754 0.929 . S
C758 C760 1.378 . S
C758 C762 1.350 . S
C759 C762 1.463 . S
C759 C764 1.350 . S
C759 N767 1.427 . S
C760 H751 0.930 . S
C760 C758 1.378 . S
C760 C761 1.367 . S
C761 C760 1.367 . S
C761 C763 1.433 . S
C762 C758 1.350 . S
C762 C759 1.463 . S
C762 N766 1.427 . S
C763 H753 0.929 . S
C763 C761 1.433 . S
C763 N766 1.384 . S
C764 H755 0.929 . S
C764 C756 1.378 1_565 S
C764 C759 1.350 . S
C765 H752 0.929 1_565 S
C765 C757 1.433 1_565 S
C765 N767 1.384 . S
N766 C762 1.427 . S
N766 C763 1.384 . S
N767 C759 1.427 . S
N767 C765 1.384 . S
H768 C774 0.930 1_554 S
H769 C778 0.930 . S
H770 C783 0.929 . S
H771 C781 0.929 . S
H772 C776 0.929 . S
H773 C782 0.929 . S
C774 H768 0.930 1_556 S
C774 C775 1.367 . S
C774 C782 1.378 . S
C775 C774 1.367 . S
C775 C783 1.433 . S
C776 H772 0.929 . S
C776 C778 1.378 . S
C776 C780 1.350 . S
C777 C780 1.463 . S
C777 C782 1.350 . S
C777 N785 1.427 . S
C778 H769 0.930 . S
C778 C776 1.378 . S
C778 C779 1.367 . S
C779 C778 1.367 . S
C779 C781 1.433 . S
C780 C776 1.350 . S
C780 C777 1.463 . S
C780 N784 1.427 . S
C781 H771 0.929 . S
C781 C779 1.433 . S
C781 N784 1.384 . S
C782 H773 0.929 . S
C782 C774 1.378 . S
C782 C777 1.350 . S
C783 H770 0.929 . S
C783 C775 1.433 . S
C783 N785 1.384 . S
N784 C780 1.427 . S
N784 C781 1.384 . S
N785 C777 1.427 . S
N785 C783 1.384 . S
H786 C792 0.930 . S
H787 C796 0.913 1_556 S
H788 C801 0.929 . S
H789 C799 0.929 . S
H790 C794 0.929 . S
H791 C800 0.929 . S
C792 H786 0.930 . S
C792 C793 1.367 . S
C792 C800 1.378 . S
C793 C792 1.367 . S
C793 C801 1.433 . S
C794 H790 0.929 . S
C794 C796 1.378 . S
C794 C798 1.350 . S
C795 C798 1.463 . S
C795 C800 1.350 . S
C795 N803 1.427 . S
C796 H787 0.913 1_554 S
C796 C794 1.378 . S
C796 C797 1.367 . S
C797 C796 1.367 . S
C797 C799 1.433 . S
C798 C794 1.350 . S
C798 C795 1.463 . S
C798 N802 1.427 . S
C799 H789 0.929 . S
C799 C797 1.433 . S
C799 N802 1.384 . S
C800 H791 0.929 . S
C800 C792 1.378 . S
C800 C795 1.350 . S
C801 H788 0.929 . S
C801 C793 1.433 . S
C801 N803 1.384 . S
N802 C798 1.427 . S
N802 C799 1.384 . S
N803 C795 1.427 . S
N803 C801 1.384 . S
H804 C810 0.930 . S
H805 C814 0.930 . S
H806 C819 0.929 . S
H807 C817 0.929 . S
H808 C812 0.929 . S
H809 C818 0.929 . S
C810 H804 0.930 . S
C810 C811 1.367 . S
C810 C818 1.378 . S
C811 C810 1.367 . S
C811 C819 1.433 1_455 S
C812 H808 0.929 . S
C812 C814 1.378 . S
C812 C816 1.350 . S
C813 C816 1.463 . S
C813 C818 1.350 . S
C813 N821 1.427 . S
C814 H805 0.930 . S
C814 C812 1.378 . S
C814 C815 1.367 . S
C815 C814 1.367 . S
C815 C817 1.433 . S
C816 C812 1.350 . S
C816 C813 1.463 . S
C816 N820 1.427 . S
C817 H807 0.929 . S
C817 C815 1.433 . S
C817 N820 1.384 . S
C818 H809 0.929 . S
C818 C810 1.378 . S
C818 C813 1.350 . S
C819 H806 0.929 . S
C819 C811 1.433 1_655 S
C819 N821 1.384 1_655 S
N820 C816 1.427 . S
N820 C817 1.384 . S
N821 C813 1.427 . S
N821 C819 1.384 1_455 S
H822 C828 0.930 . S
H823 C832 0.930 . S
H824 C837 0.929 . S
H825 C835 0.929 . S
H826 C830 0.929 . S
H827 C836 0.929 . S
C828 H822 0.930 . S
C828 C829 1.367 . S
C828 C836 1.378 . S
C829 C828 1.367 . S
C829 C837 1.433 . S
C830 H826 0.929 . S
C830 C832 1.378 . S
C830 C834 1.350 . S
C831 C834 1.463 . S
C831 C836 1.350 . S
C831 N839 1.427 . S
C832 H823 0.930 . S
C832 C830 1.378 . S
C832 C833 1.367 . S
C833 C832 1.367 . S
C833 C835 1.433 . S
C834 C830 1.350 . S
C834 C831 1.463 . S
C834 N838 1.427 . S
C835 H825 0.929 . S
C835 C833 1.433 . S
C835 N838 1.384 . S
C836 H827 0.929 . S
C836 C828 1.378 . S
C836 C831 1.350 . S
C837 H824 0.929 . S
C837 C829 1.433 . S
C837 N839 1.384 . S
N838 C834 1.427 . S
N838 C835 1.384 . S
N839 C831 1.427 . S
N839 C837 1.384 . S
H840 C846 0.930 . S
H841 C850 0.930 . S
H842 C855 0.929 . S
H843 C853 0.929 . S
H844 C848 0.929 . S
H845 C854 0.929 . S
C846 H840 0.930 . S
C846 C847 1.367 . S
C846 C854 1.378 . S
C847 C846 1.367 . S
C847 C855 1.433 . S
C848 H844 0.929 . S
C848 C850 1.378 . S
C848 C852 1.350 . S
C849 C852 1.463 . S
C849 C854 1.350 . S
C849 N857 1.427 . S
C850 H841 0.930 . S
C850 C848 1.378 . S
C850 C851 1.367 . S
C851 C850 1.367 . S
C851 C853 1.433 . S
C852 C848 1.350 . S
C852 C849 1.463 . S
C852 N856 1.427 . S
C853 H843 0.929 . S
C853 C851 1.433 . S
C853 N856 1.384 . S
C854 H845 0.929 . S
C854 C846 1.378 . S
C854 C849 1.350 . S
C855 H842 0.929 . S
C855 C847 1.433 . S
C855 N857 1.384 . S
N856 C852 1.427 . S
N856 C853 1.384 . S
N857 C849 1.427 . S
N857 C855 1.384 . S
H858 C864 0.930 . S
H859 C868 0.930 . S
H860 C873 0.929 . S
H861 C871 0.929 . S
H862 C866 0.929 . S
H863 C872 0.929 . S
C864 H858 0.930 . S
C864 C865 1.367 . S
C864 C872 1.378 . S
C865 C864 1.367 . S
C865 C873 1.433 . S
C866 H862 0.929 . S
C866 C868 1.378 . S
C866 C870 1.350 . S
C867 C870 1.463 . S
C867 C872 1.350 . S
C867 N875 1.427 . S
C868 H859 0.930 . S
C868 C866 1.378 . S
C868 C869 1.367 . S
C869 C868 1.367 . S
C869 C871 1.433 . S
C870 C866 1.350 . S
C870 C867 1.463 . S
C870 N874 1.427 . S
C871 H861 0.929 . S
C871 C869 1.433 . S
C871 N874 1.384 . S
C872 H863 0.929 . S
C872 C864 1.378 . S
C872 C867 1.350 . S
C873 H860 0.929 . S
C873 C865 1.433 . S
C873 N875 1.384 . S
N874 C870 1.427 . S
N874 C871 1.384 . S
N875 C867 1.427 . S
N875 C873 1.384 . S
H876 C882 0.930 . S
H877 C886 0.930 . S
H878 C891 0.929 1_455 S
H879 C889 0.929 . S
H880 C884 0.929 . S
H881 C890 0.929 . S
C882 H876 0.930 . S
C882 C883 1.367 . S
C882 C890 1.378 . S
C883 C882 1.367 . S
C883 C891 1.433 . S
C884 H880 0.929 . S
C884 C886 1.378 . S
C884 C888 1.350 . S
C885 C888 1.463 . S
C885 C890 1.350 . S
C885 N893 1.427 . S
C886 H877 0.930 . S
C886 C884 1.378 . S
C886 C887 1.367 . S
C887 C886 1.367 . S
C887 C889 1.433 . S
C888 C884 1.350 . S
C888 C885 1.463 . S
C888 N892 1.427 . S
C889 H879 0.929 . S
C889 C887 1.433 . S
C889 N892 1.384 . S
C890 H881 0.929 . S
C890 C882 1.378 . S
C890 C885 1.350 . S
C891 H878 0.929 1_655 S
C891 C883 1.433 . S
C891 N893 1.384 . S
N892 C888 1.427 . S
N892 C889 1.384 . S
N893 C885 1.427 . S
N893 C891 1.384 . S
H894 C900 0.930 . S
H895 C904 0.930 . S
H896 C909 0.929 . S
H897 C907 0.929 . S
H898 C902 0.929 . S
H899 C908 0.929 . S
C900 H894 0.930 . S
C900 C901 1.367 . S
C900 C908 1.378 . S
C901 C900 1.367 . S
C901 C909 1.433 . S
C902 H898 0.929 . S
C902 C904 1.378 . S
C902 C906 1.350 . S
C903 C906 1.463 . S
C903 C908 1.350 . S
C903 N911 1.427 . S
C904 H895 0.930 . S
C904 C902 1.378 . S
C904 C905 1.367 . S
C905 C904 1.367 . S
C905 C907 1.433 . S
C906 C902 1.350 . S
C906 C903 1.463 . S
C906 N910 1.427 . S
C907 H897 0.929 . S
C907 C905 1.433 . S
C907 N910 1.384 . S
C908 H899 0.929 . S
C908 C900 1.378 . S
C908 C903 1.350 . S
C909 H896 0.929 . S
C909 C901 1.433 . S
C909 N911 1.384 . S
N910 C906 1.427 . S
N910 C907 1.384 . S
N911 C903 1.427 . S
N911 C909 1.384 . S
H912 C918 0.930 . S
H913 C922 0.930 . S
H914 C927 0.929 . S
H915 C925 0.929 . S
H916 C920 0.929 . S
H917 C926 0.929 . S
C918 H912 0.930 . S
C918 C919 1.367 . S
C918 C926 1.378 . S
C919 C918 1.367 . S
C919 C927 1.433 . S
C920 H916 0.929 . S
C920 C922 1.378 . S
C920 C924 1.350 . S
C921 C924 1.463 . S
C921 C926 1.350 . S
C921 N929 1.427 . S
C922 H913 0.930 . S
C922 C920 1.378 . S
C922 C923 1.367 . S
C923 C922 1.367 . S
C923 C925 1.433 1_655 S
C924 C920 1.350 . S
C924 C921 1.463 . S
C924 N928 1.427 . S
C925 H915 0.929 . S
C925 C923 1.433 1_455 S
C925 N928 1.384 1_455 S
C926 H917 0.929 . S
C926 C918 1.378 . S
C926 C921 1.350 . S
C927 H914 0.929 . S
C927 C919 1.433 . S
C927 N929 1.384 . S
N928 C924 1.427 . S
N928 C925 1.384 1_655 S
N929 C921 1.427 . S
N929 C927 1.384 . S
H930 C936 0.930 . S
H931 C940 0.930 . S
H932 C945 0.929 . S
H933 C943 0.929 . S
H934 C938 0.929 . S
H935 C944 0.929 . S
C936 H930 0.930 . S
C936 C937 1.367 . S
C936 C944 1.378 . S
C937 C936 1.367 . S
C937 C945 1.433 . S
C938 H934 0.929 . S
C938 C940 1.378 . S
C938 C942 1.350 . S
C939 C942 1.463 . S
C939 C944 1.350 . S
C939 N947 1.427 . S
C940 H931 0.930 . S
C940 C938 1.378 . S
C940 C941 1.367 . S
C941 C940 1.367 . S
C941 C943 1.433 . S
C942 C938 1.350 . S
C942 C939 1.463 . S
C942 N946 1.427 . S
C943 H933 0.929 . S
C943 C941 1.433 . S
C943 N946 1.384 . S
C944 H935 0.929 . S
C944 C936 1.378 . S
C944 C939 1.350 . S
C945 H932 0.929 . S
C945 C937 1.433 . S
C945 N947 1.384 . S
N946 C942 1.427 . S
N946 C943 1.384 . S
N947 C939 1.427 . S
N947 C945 1.384 . S
H948 C954 0.930 . S
H949 C958 0.930 . S
H950 C963 0.929 . S
H951 C961 0.929 . S
H952 C956 0.929 . S
H953 C962 0.929 . S
C954 H948 0.930 . S
C954 C955 1.367 . S
C954 C962 1.378 . S
C955 C954 1.367 . S
C955 C963 1.433 . S
C956 H952 0.929 . S
C956 C958 1.378 . S
C956 C960 1.350 . S
C957 C960 1.463 . S
C957 C962 1.350 . S
C957 N965 1.427 . S
C958 H949 0.930 . S
C958 C956 1.378 . S
C958 C959 1.367 . S
C959 C958 1.367 . S
C959 C961 1.433 . S
C960 C956 1.350 . S
C960 C957 1.463 . S
C960 N964 1.427 . S
C961 H951 0.929 . S
C961 C959 1.433 . S
C961 N964 1.384 . S
C962 H953 0.929 . S
C962 C954 1.378 . S
C962 C957 1.350 . S
C963 H950 0.929 . S
C963 C955 1.433 . S
C963 N965 1.384 . S
N964 C960 1.427 . S
N964 C961 1.384 . S
N965 C957 1.427 . S
N965 C963 1.384 . S
H966 C972 0.930 1_556 S
H967 C976 0.930 . S
H968 C981 0.929 . S
H969 C979 0.929 . S
H970 C974 0.929 . S
H971 C980 0.929 . S
C972 H966 0.930 1_554 S
C972 C973 1.367 . S
C972 C980 1.378 . S
C973 C972 1.367 . S
C973 C981 1.433 . S
C974 H970 0.929 . S
C974 C976 1.378 . S
C974 C978 1.350 . S
C975 C978 1.463 . S
C975 C980 1.350 . S
C975 N983 1.427 . S
C976 H967 0.930 . S
C976 C974 1.378 . S
C976 C977 1.367 . S
C977 C976 1.367 . S
C977 C979 1.433 . S
C978 C974 1.350 . S
C978 C975 1.463 . S
C978 N982 1.427 . S
C979 H969 0.929 . S
C979 C977 1.433 . S
C979 N982 1.384 . S
C980 H971 0.929 . S
C980 C972 1.378 . S
C980 C975 1.350 . S
C981 H968 0.929 . S
C981 C973 1.433 . S
C981 N983 1.384 . S
N982 C978 1.427 . S
N982 C979 1.384 . S
N983 C975 1.427 . S
N983 C981 1.384 . S
H984 C990 0.930 . S
H985 C994 0.930 1_655 S
H986 C999 0.929 . S
H987 C997 0.929 . S
H988 C992 0.929 . S
H989 C998 0.929 . S
C990 H984 0.930 . S
C990 C991 1.367 . S
C990 C998 1.378 . S
C991 C990 1.367 . S
C991 C999 1.433 . S
C992 H988 0.929 . S
C992 C994 1.378 . S
C992 C996 1.350 . S
C993 C996 1.463 . S
C993 C998 1.350 . S
C993 N1001 1.427 . S
C994 H985 0.930 1_455 S
C994 C992 1.378 . S
C994 C995 1.367 . S
C995 C994 1.367 . S
C995 C997 1.433 . S
C996 C992 1.350 . S
C996 C993 1.463 . S
C996 N1000 1.427 . S
C997 H987 0.929 . S
C997 C995 1.433 . S
C997 N1000 1.384 . S
C998 H989 0.929 . S
C998 C990 1.378 . S
C998 C993 1.350 . S
C999 H986 0.929 . S
C999 C991 1.433 . S
C999 N1001 1.384 . S
N1000 C996 1.427 . S
N1000 C997 1.384 . S
N1001 C993 1.427 . S
N1001 C999 1.384 . S
H1002 C1008 0.930 . S
H1003 C1012 0.930 . S
H1004 C1017 0.929 . S
H1005 C1015 0.929 . S
H1006 C1010 0.929 . S
H1007 C1016 0.929 . S
C1008 H1002 0.930 . S
C1008 C1009 1.367 . S
C1008 C1016 1.378 . S
C1009 C1008 1.367 . S
C1009 C1017 1.433 . S
C1010 H1006 0.929 . S
C1010 C1012 1.378 . S
C1010 C1014 1.350 . S
C1011 C1014 1.463 . S
C1011 C1016 1.350 . S
C1011 N1019 1.427 . S
C1012 H1003 0.930 . S
C1012 C1010 1.378 . S
C1012 C1013 1.367 . S
C1013 C1012 1.367 . S
C1013 C1015 1.433 . S
C1014 C1010 1.350 . S
C1014 C1011 1.463 . S
C1014 N1018 1.427 . S
C1015 H1005 0.929 . S
C1015 C1013 1.433 . S
C1015 N1018 1.384 . S
C1016 H1007 0.929 . S
C1016 C1008 1.378 . S
C1016 C1011 1.350 . S
C1017 H1004 0.929 . S
C1017 C1009 1.433 . S
C1017 N1019 1.384 . S
N1018 C1014 1.427 . S
N1018 C1015 1.384 . S
N1019 C1011 1.427 . S
N1019 C1017 1.384 . S
H1020 C1026 0.930 . S
H1021 C1030 0.930 . S
H1022 C1035 0.929 . S
H1023 C1033 0.929 . S
H1024 C1028 0.929 . S
H1025 C1034 0.929 . S
C1026 H1020 0.930 . S
C1026 C1027 1.367 . S
C1026 C1034 1.378 . S
C1027 C1026 1.367 . S
C1027 C1035 1.433 . S
C1028 H1024 0.929 . S
C1028 C1030 1.378 . S
C1028 C1032 1.350 . S
C1029 C1032 1.463 . S
C1029 C1034 1.350 . S
C1029 N1037 1.427 . S
C1030 H1021 0.930 . S
C1030 C1028 1.378 . S
C1030 C1031 1.367 . S
C1031 C1030 1.367 . S
C1031 C1033 1.433 . S
C1032 C1028 1.350 . S
C1032 C1029 1.463 . S
C1032 N1036 1.427 . S
C1033 H1023 0.929 . S
C1033 C1031 1.433 . S
C1033 N1036 1.384 . S
C1034 H1025 0.929 . S
C1034 C1026 1.378 . S
C1034 C1029 1.350 . S
C1035 H1022 0.929 . S
C1035 C1027 1.433 . S
C1035 N1037 1.384 . S
N1036 C1032 1.427 . S
N1036 C1033 1.384 . S
N1037 C1029 1.427 . S
N1037 C1035 1.384 . S
H1038 C1044 0.930 . S
H1039 C1048 0.930 . S
H1040 C1053 0.929 . S
H1041 C1051 0.929 . S
H1042 C1046 0.929 . S
H1043 C1052 0.929 . S
C1044 H1038 0.930 . S
C1044 C1045 1.367 . S
C1044 C1052 1.378 . S
C1045 C1044 1.367 . S
C1045 C1053 1.433 . S
C1046 H1042 0.929 . S
C1046 C1048 1.378 . S
C1046 C1050 1.350 . S
C1047 C1050 1.463 . S
C1047 C1052 1.350 . S
C1047 N1055 1.427 . S
C1048 H1039 0.930 . S
C1048 C1046 1.378 . S
C1048 C1049 1.367 . S
C1049 C1048 1.367 . S
C1049 C1051 1.433 . S
C1050 C1046 1.350 . S
C1050 C1047 1.463 . S
C1050 N1054 1.427 . S
C1051 H1041 0.929 . S
C1051 C1049 1.433 . S
C1051 N1054 1.384 . S
C1052 H1043 0.929 . S
C1052 C1044 1.378 . S
C1052 C1047 1.350 . S
C1053 H1040 0.929 . S
C1053 C1045 1.433 . S
C1053 N1055 1.384 . S
N1054 C1050 1.427 . S
N1054 C1051 1.384 . S
N1055 C1047 1.427 . S
N1055 C1053 1.384 . S
H1056 C1062 0.930 . S
H1057 C1066 0.930 . S
H1058 C1071 0.929 . S
H1059 C1069 0.929 . S
H1060 C1064 0.929 . S
H1061 C1070 0.929 . S
C1062 H1056 0.930 . S
C1062 C1063 1.367 . S
C1062 C1070 1.378 . S
C1063 C1062 1.367 . S
C1063 C1071 1.433 . S
C1064 H1060 0.929 . S
C1064 C1066 1.378 . S
C1064 C1068 1.350 . S
C1065 C1068 1.463 . S
C1065 C1070 1.350 . S
C1065 N1073 1.427 . S
C1066 H1057 0.930 . S
C1066 C1064 1.378 . S
C1066 C1067 1.367 . S
C1067 C1066 1.367 . S
C1067 C1069 1.433 . S
C1068 C1064 1.350 . S
C1068 C1065 1.463 . S
C1068 N1072 1.427 . S
C1069 H1059 0.929 . S
C1069 C1067 1.433 . S
C1069 N1072 1.384 . S
C1070 H1061 0.929 . S
C1070 C1062 1.378 . S
C1070 C1065 1.350 . S
C1071 H1058 0.929 . S
C1071 C1063 1.433 . S
C1071 N1073 1.384 . S
N1072 C1068 1.427 . S
N1072 C1069 1.384 . S
N1073 C1065 1.427 . S
N1073 C1071 1.384 . S
H1074 C1080 0.930 . S
H1075 C1084 0.930 . S
H1076 C1089 0.929 . S
H1077 C1087 0.929 . S
H1078 C1082 0.929 . S
H1079 C1088 0.929 . S
C1080 H1074 0.930 . S
C1080 C1081 1.367 . S
C1080 C1088 1.378 . S
C1081 C1080 1.367 . S
C1081 C1089 1.433 . S
C1082 H1078 0.929 . S
C1082 C1084 1.378 . S
C1082 C1086 1.350 . S
C1083 C1086 1.463 . S
C1083 C1088 1.350 . S
C1083 N1091 1.427 . S
C1084 H1075 0.930 . S
C1084 C1082 1.378 . S
C1084 C1085 1.367 . S
C1085 C1084 1.367 . S
C1085 C1087 1.433 . S
C1086 C1082 1.350 . S
C1086 C1083 1.463 . S
C1086 N1090 1.427 . S
C1087 H1077 0.929 . S
C1087 C1085 1.433 . S
C1087 N1090 1.384 . S
C1088 H1079 0.929 . S
C1088 C1080 1.378 . S
C1088 C1083 1.350 . S
C1089 H1076 0.929 . S
C1089 C1081 1.433 . S
C1089 N1091 1.384 . S
N1090 C1086 1.427 . S
N1090 C1087 1.384 . S
N1091 C1083 1.427 . S
N1091 C1089 1.384 . S
H1092 C1098 0.930 . S
H1093 C1102 0.930 . S
H1094 C1107 0.929 . S
H1095 C1105 0.929 . S
H1096 C1100 0.929 . S
H1097 C1106 0.929 . S
C1098 H1092 0.930 . S
C1098 C1099 1.367 . S
C1098 C1106 1.378 . S
C1099 C1098 1.367 . S
C1099 C1107 1.433 . S
C1100 H1096 0.929 . S
C1100 C1102 1.378 . S
C1100 C1104 1.350 . S
C1101 C1104 1.463 . S
C1101 C1106 1.350 . S
C1101 N1109 1.427 . S
C1102 H1093 0.930 . S
C1102 C1100 1.378 . S
C1102 C1103 1.367 . S
C1103 C1102 1.367 . S
C1103 C1105 1.433 . S
C1104 C1100 1.350 . S
C1104 C1101 1.463 . S
C1104 N1108 1.427 . S
C1105 H1095 0.929 . S
C1105 C1103 1.433 . S
C1105 N1108 1.384 . S
C1106 H1097 0.929 . S
C1106 C1098 1.378 . S
C1106 C1101 1.350 . S
C1107 H1094 0.929 . S
C1107 C1099 1.433 . S
C1107 N1109 1.384 . S
N1108 C1104 1.427 . S
N1108 C1105 1.384 . S
N1109 C1101 1.427 . S
N1109 C1107 1.384 . S
H1110 C1116 0.930 . S
H1111 C1120 0.930 . S
H1112 C1125 0.929 . S
H1113 C1123 0.929 . S
H1114 C1118 0.929 1_554 S
H1115 C1124 0.929 1_556 S
C1116 H1110 0.930 . S
C1116 C1117 1.367 . S
C1116 C1124 1.378 . S
C1117 C1116 1.367 . S
C1117 C1125 1.433 . S
C1118 H1114 0.929 1_556 S
C1118 C1120 1.378 . S
C1118 C1122 1.350 . S
C1119 C1122 1.463 1_454 S
C1119 C1124 1.350 . S
C1119 N1127 1.427 . S
C1120 H1111 0.930 . S
C1120 C1118 1.378 . S
C1120 C1121 1.367 . S
C1121 C1120 1.367 . S
C1121 C1123 1.433 . S
C1122 C1118 1.350 . S
C1122 C1119 1.463 1_656 S
C1122 N1126 1.427 . S
C1123 H1113 0.929 . S
C1123 C1121 1.433 . S
C1123 N1126 1.384 . S
C1124 H1115 0.929 1_554 S
C1124 C1116 1.378 . S
C1124 C1119 1.350 . S
C1125 H1112 0.929 . S
C1125 C1117 1.433 . S
C1125 N1127 1.384 . S
N1126 C1122 1.427 . S
N1126 C1123 1.384 . S
N1127 C1119 1.427 . S
N1127 C1125 1.384 . S
H1128 C1134 0.930 . S
H1129 C1138 0.930 . S
H1130 C1143 0.929 . S
H1131 C1141 0.929 . S
H1132 C1136 0.929 . S
H1133 C1142 0.929 . S
C1134 H1128 0.930 . S
C1134 C1135 1.367 . S
C1134 C1142 1.378 . S
C1135 C1134 1.367 . S
C1135 C1143 1.433 . S
C1136 H1132 0.929 . S
C1136 C1138 1.378 . S
C1136 C1140 1.350 . S
C1137 C1140 1.463 . S
C1137 C1142 1.350 . S
C1137 N1145 1.427 . S
C1138 H1129 0.930 . S
C1138 C1136 1.378 . S
C1138 C1139 1.367 . S
C1139 C1138 1.367 . S
C1139 C1141 1.433 . S
C1140 C1136 1.350 . S
C1140 C1137 1.463 . S
C1140 N1144 1.427 . S
C1141 H1131 0.929 . S
C1141 C1139 1.433 . S
C1141 N1144 1.384 . S
C1142 H1133 0.929 . S
C1142 C1134 1.378 . S
C1142 C1137 1.350 . S
C1143 H1130 0.929 . S
C1143 C1135 1.433 . S
C1143 N1145 1.384 . S
N1144 C1140 1.427 . S
N1144 C1141 1.384 . S
N1145 C1137 1.427 . S
N1145 C1143 1.384 . S
H1146 C1152 0.930 . S
H1147 C1156 0.930 . S
H1148 C1161 0.929 . S
H1149 C1159 0.929 . S
H1150 C1154 0.929 . S
H1151 C1160 0.929 . S
C1152 H1146 0.930 . S
C1152 C1153 1.367 . S
C1152 C1160 1.378 . S
C1153 C1152 1.367 . S
C1153 C1161 1.433 . S
C1154 H1150 0.929 . S
C1154 C1156 1.378 . S
C1154 C1158 1.350 . S
C1155 C1158 1.463 . S
C1155 C1160 1.350 . S
C1155 N1163 1.427 . S
C1156 H1147 0.930 . S
C1156 C1154 1.378 . S
C1156 C1157 1.367 . S
C1157 C1156 1.367 . S
C1157 C1159 1.433 . S
C1158 C1154 1.350 . S
C1158 C1155 1.463 . S
C1158 N1162 1.427 . S
C1159 H1149 0.929 . S
C1159 C1157 1.433 . S
C1159 N1162 1.384 . S
C1160 H1151 0.929 . S
C1160 C1152 1.378 . S
C1160 C1155 1.350 . S
C1161 H1148 0.929 . S
C1161 C1153 1.433 . S
C1161 N1163 1.384 . S
N1162 C1158 1.427 . S
N1162 C1159 1.384 . S
N1163 C1155 1.427 . S
N1163 C1161 1.384 . S
H1164 C1170 0.930 . S
H1165 C1174 0.930 . S
H1166 C1179 0.929 1_655 S
H1167 C1177 0.929 1_455 S
H1168 C1172 0.929 1_556 S
H1169 C1178 0.929 1_554 S
C1170 H1164 0.930 . S
C1170 C1171 1.367 . S
C1170 C1178 1.378 . S
C1171 C1170 1.367 . S
C1171 C1179 1.433 . S
C1172 H1168 0.929 1_554 S
C1172 C1174 1.378 . S
C1172 C1176 1.350 . S
C1173 C1176 1.463 1_446 S
C1173 C1178 1.350 . S
C1173 N1181 1.427 1_455 S
C1174 H1165 0.930 . S
C1174 C1172 1.378 . S
C1174 C1175 1.367 . S
C1175 C1174 1.367 . S
C1175 C1177 1.433 . S
C1176 C1172 1.350 . S
C1176 C1173 1.463 1_664 S
C1176 N1180 1.427 1_655 S
C1177 H1167 0.929 1_655 S
C1177 C1175 1.433 . S
C1177 N1180 1.384 1_655 S
C1178 H1169 0.929 1_556 S
C1178 C1170 1.378 . S
C1178 C1173 1.350 . S
C1179 H1166 0.929 1_455 S
C1179 C1171 1.433 . S
C1179 N1181 1.384 1_455 S
N1180 C1176 1.427 1_455 S
N1180 C1177 1.384 1_455 S
N1181 C1173 1.427 1_655 S
N1181 C1179 1.384 1_655 S
H1182 C1188 0.930 . S
H1183 C1192 0.930 . S
H1184 C1197 0.929 . S
H1185 C1195 0.929 . S
H1186 C1190 0.936 . S
H1187 C1196 0.936 . S
C1188 H1182 0.930 . S
C1188 C1189 1.367 . S
C1188 C1196 1.373 1_545 S
C1189 C1188 1.367 . S
C1189 C1197 1.433 . S
C1190 H1186 0.936 . S
C1190 C1192 1.373 1_545 S
C1190 C1194 1.347 1_545 S
C1191 C1194 1.463 1_545 S
C1191 C1196 1.347 1_545 S
C1191 N1199 1.427 . S
C1192 H1183 0.930 . S
C1192 C1190 1.373 1_565 S
C1192 C1193 1.367 . S
C1193 C1192 1.367 . S
C1193 C1195 1.433 . S
C1194 C1190 1.347 1_565 S
C1194 C1191 1.463 1_565 S
C1194 N1198 1.427 . S
C1195 H1185 0.929 . S
C1195 C1193 1.433 . S
C1195 N1198 1.384 . S
C1196 H1187 0.936 . S
C1196 C1188 1.373 1_565 S
C1196 C1191 1.347 1_565 S
C1197 H1184 0.929 . S
C1197 C1189 1.433 . S
C1197 N1199 1.384 . S
N1198 C1194 1.427 . S
N1198 C1195 1.384 . S
N1199 C1191 1.427 . S
N1199 C1197 1.384 . S
C343 C16 1.226 . S
C347 C213 1.239 . S
C361 C37 1.228 . S
C365 C247 1.219 . S
C379 C45 1.241 . S
C383 C184 1.233 . S
C397 C79 1.219 . S
C401 C192 1.227 . S
C415 C87 1.227 . S
C419 C297 1.240 . S
C433 C108 1.221 . S
C437 C318 1.234 . S
C451 C129 1.235 . S
C455 C255 1.222 . S
C469 C163 1.221 . S
C473 C276 1.223 . S
C487 C193 1.417 . S
C491 C20 1.364 . S
C505 C214 1.414 . S
C509 C41 1.362 . S
C523 C238 1.402 . S
C527 C61 1.346 . S
C541 C175 1.418 . S
C545 C83 1.365 . S
C559 C103 1.359 . S
C563 C277 1.413 . S
C577 C298 1.415 . S
C581 C124 1.361 . S
C595 C319 1.413 . S
C599 C145 1.360 . S
C613 C256 1.417 . S
C617 C167 1.364 . S
C631 C28 1.414 . S
C635 C188 1.361 . S
C649 C208 1.341 . S
C653 C46 1.397 . S
C667 C229 1.363 . S
C671 C70 1.415 . S
C685 C251 1.343 . S
C689 C7 1.399 . S
C703 C271 1.362 . S
C707 C109 1.415 . S
C721 C130 1.398 . S
C725 C292 1.341 . S
C739 C154 1.418 . S
C743 C313 1.365 . S
C757 C334 1.341 . S
C761 C88 1.398 . S
C775 C3 0.897 . S
C779 C322 0.906 . S
C793 C24 0.898 . S
C797 C91 0.904 . S
C811 C280 0.904 1_455 S
C815 C58 0.888 . S
C829 C133 0.868 . S
C833 C66 0.857 . S
C847 C100 0.875 . S
C851 C235 0.895 . S
C865 C121 0.877 . S
C869 C4 0.877 . S
C883 C196 0.890 1_655 S
C887 C142 0.870 . S
C901 C49 0.869 . S
C905 C150 0.856 . S
C919 C171 0.892 . S
C923 C151 0.906 1_655 S
C937 C205 0.856 . S
C941 C259 0.868 . S
C955 C112 0.871 . S
C959 C226 0.856 . S
C973 C301 0.905 . S
C977 C234 0.890 . S
C991 C268 0.856 . S
C995 C67 0.872 1_455 S
C1009 C289 0.895 . S
C1013 C172 0.896 . S
C1027 C310 0.856 . S
C1031 C25 0.871 . S
C1045 C217 0.894 . S
C1049 C331 0.874 . S
C1063 C19 1.352 . S
C1067 C272 1.352 . S
C1081 C40 1.348 . S
C1085 C125 1.348 . S
C1099 C62 1.333 . S
C1103 C314 1.333 . S
C1117 C166 1.333 . S
C1121 C82 1.333 . S
C1135 C104 1.337 . S
C1139 C187 1.337 . S
C1153 C230 1.352 . S
C1157 C146 1.352 . S
C1171 C209 1.340 . S
C1175 C293 1.340 . S
C1189 C335 1.352 . S
C1193 C250 1.352 . S
