# Generated by pormake.
# Topology uoi, (4)-cn, num edge types: 1
# Building blocks:
#     Node 0, Type 0, BuildingBlock: ICAMEG_clean_sbu_1, # of connection points: 4
#     Node 1, Type 0, BuildingBlock: ICAMEG_clean_sbu_1, # of connection points: 4
#     Node 2, Type 0, BuildingBlock: ICAMEG_clean_sbu_1, # of connection points: 4
#     Node 3, Type 0, BuildingBlock: ICAMEG_clean_sbu_1, # of connection points: 4
#     Node 4, Type 0, BuildingBlock: ICAMEG_clean_sbu_1, # of connection points: 4
#     Node 5, Type 0, BuildingBlock: ICAMEG_clean_sbu_1, # of connection points: 4
#     Node 6, Type 0, BuildingBlock: ICAMEG_clean_sbu_1, # of connection points: 4
#     Node 7, Type 0, BuildingBlock: ICAMEG_clean_sbu_1, # of connection points: 4
#     Node 8, Type 0, BuildingBlock: ICAMEG_clean_sbu_1, # of connection points: 4
#     Node 9, Type 0, BuildingBlock: ICAMEG_clean_sbu_1, # of connection points: 4
#     Node 10, Type 0, BuildingBlock: ICAMEG_clean_sbu_1, # of connection points: 4
#     Node 11, Type 0, BuildingBlock: ICAMEG_clean_sbu_1, # of connection points: 4
#     Node 12, Type 0, BuildingBlock: ICAMEG_clean_sbu_1, # of connection points: 4
#     Node 13, Type 0, BuildingBlock: ICAMEG_clean_sbu_1, # of connection points: 4
#     Node 14, Type 0, BuildingBlock: ICAMEG_clean_sbu_1, # of connection points: 4
#     Node 15, Type 0, BuildingBlock: ICAMEG_clean_sbu_1, # of connection points: 4
#     Node 16, Type 0, BuildingBlock: ICAMEG_clean_sbu_1, # of connection points: 4
#     Node 17, Type 0, BuildingBlock: ICAMEG_clean_sbu_1, # of connection points: 4
#     Node 18, Type 0, BuildingBlock: ICAMEG_clean_sbu_1, # of connection points: 4
#     Node 19, Type 0, BuildingBlock: ICAMEG_clean_sbu_1, # of connection points: 4
#     Node 20, Type 0, BuildingBlock: ICAMEG_clean_sbu_1, # of connection points: 4
#     Node 21, Type 0, BuildingBlock: ICAMEG_clean_sbu_1, # of connection points: 4
#     Node 22, Type 0, BuildingBlock: ICAMEG_clean_sbu_1, # of connection points: 4
#     Node 23, Type 0, BuildingBlock: ICAMEG_clean_sbu_1, # of connection points: 4
#     Node 24, Type 0, BuildingBlock: ICAMEG_clean_sbu_1, # of connection points: 4
#     Node 25, Type 0, BuildingBlock: ICAMEG_clean_sbu_1, # of connection points: 4
#     Node 26, Type 0, BuildingBlock: ICAMEG_clean_sbu_1, # of connection points: 4
#     Node 27, Type 0, BuildingBlock: ICAMEG_clean_sbu_1, # of connection points: 4
#     Node 28, Type 0, BuildingBlock: ICAMEG_clean_sbu_1, # of connection points: 4
#     Node 29, Type 0, BuildingBlock: ICAMEG_clean_sbu_1, # of connection points: 4
#     Node 30, Type 0, BuildingBlock: ICAMEG_clean_sbu_1, # of connection points: 4
#     Node 31, Type 0, BuildingBlock: ICAMEG_clean_sbu_1, # of connection points: 4
#     Edge 32, Type (0, 0), BuildingBlock: KIFKEQ_clean_linker_1, # of connection points: 2
#     Edge 33, Type (0, 0), BuildingBlock: KIFKEQ_clean_linker_1, # of connection points: 2
#     Edge 34, Type (0, 0), BuildingBlock: KIFKEQ_clean_linker_1, # of connection points: 2
#     Edge 35, Type (0, 0), BuildingBlock: KIFKEQ_clean_linker_1, # of connection points: 2
#     Edge 36, Type (0, 0), BuildingBlock: KIFKEQ_clean_linker_1, # of connection points: 2
#     Edge 37, Type (0, 0), BuildingBlock: KIFKEQ_clean_linker_1, # of connection points: 2
#     Edge 38, Type (0, 0), BuildingBlock: KIFKEQ_clean_linker_1, # of connection points: 2
#     Edge 39, Type (0, 0), BuildingBlock: KIFKEQ_clean_linker_1, # of connection points: 2
#     Edge 40, Type (0, 0), BuildingBlock: KIFKEQ_clean_linker_1, # of connection points: 2
#     Edge 41, Type (0, 0), BuildingBlock: KIFKEQ_clean_linker_1, # of connection points: 2
#     Edge 42, Type (0, 0), BuildingBlock: KIFKEQ_clean_linker_1, # of connection points: 2
#     Edge 43, Type (0, 0), BuildingBlock: KIFKEQ_clean_linker_1, # of connection points: 2
#     Edge 44, Type (0, 0), BuildingBlock: KIFKEQ_clean_linker_1, # of connection points: 2
#     Edge 45, Type (0, 0), BuildingBlock: KIFKEQ_clean_linker_1, # of connection points: 2
#     Edge 46, Type (0, 0), BuildingBlock: KIFKEQ_clean_linker_1, # of connection points: 2
#     Edge 47, Type (0, 0), BuildingBlock: KIFKEQ_clean_linker_1, # of connection points: 2
#     Edge 48, Type (0, 0), BuildingBlock: KIFKEQ_clean_linker_1, # of connection points: 2
#     Edge 49, Type (0, 0), BuildingBlock: KIFKEQ_clean_linker_1, # of connection points: 2
#     Edge 50, Type (0, 0), BuildingBlock: KIFKEQ_clean_linker_1, # of connection points: 2
#     Edge 51, Type (0, 0), BuildingBlock: KIFKEQ_clean_linker_1, # of connection points: 2
#     Edge 52, Type (0, 0), BuildingBlock: KIFKEQ_clean_linker_1, # of connection points: 2
#     Edge 53, Type (0, 0), BuildingBlock: KIFKEQ_clean_linker_1, # of connection points: 2
#     Edge 54, Type (0, 0), BuildingBlock: KIFKEQ_clean_linker_1, # of connection points: 2
#     Edge 55, Type (0, 0), BuildingBlock: KIFKEQ_clean_linker_1, # of connection points: 2
#     Edge 56, Type (0, 0), BuildingBlock: KIFKEQ_clean_linker_1, # of connection points: 2
#     Edge 57, Type (0, 0), BuildingBlock: KIFKEQ_clean_linker_1, # of connection points: 2
#     Edge 58, Type (0, 0), BuildingBlock: KIFKEQ_clean_linker_1, # of connection points: 2
#     Edge 59, Type (0, 0), BuildingBlock: KIFKEQ_clean_linker_1, # of connection points: 2
#     Edge 60, Type (0, 0), BuildingBlock: KIFKEQ_clean_linker_1, # of connection points: 2
#     Edge 61, Type (0, 0), BuildingBlock: KIFKEQ_clean_linker_1, # of connection points: 2
#     Edge 62, Type (0, 0), BuildingBlock: KIFKEQ_clean_linker_1, # of connection points: 2
#     Edge 63, Type (0, 0), BuildingBlock: KIFKEQ_clean_linker_1, # of connection points: 2
#     Edge 64, Type (0, 0), BuildingBlock: KIFKEQ_clean_linker_1, # of connection points: 2
#     Edge 65, Type (0, 0), BuildingBlock: KIFKEQ_clean_linker_1, # of connection points: 2
#     Edge 66, Type (0, 0), BuildingBlock: KIFKEQ_clean_linker_1, # of connection points: 2
#     Edge 67, Type (0, 0), BuildingBlock: KIFKEQ_clean_linker_1, # of connection points: 2
#     Edge 68, Type (0, 0), BuildingBlock: KIFKEQ_clean_linker_1, # of connection points: 2
#     Edge 69, Type (0, 0), BuildingBlock: KIFKEQ_clean_linker_1, # of connection points: 2
#     Edge 70, Type (0, 0), BuildingBlock: KIFKEQ_clean_linker_1, # of connection points: 2
#     Edge 71, Type (0, 0), BuildingBlock: KIFKEQ_clean_linker_1, # of connection points: 2
#     Edge 72, Type (0, 0), BuildingBlock: KIFKEQ_clean_linker_1, # of connection points: 2
#     Edge 73, Type (0, 0), BuildingBlock: KIFKEQ_clean_linker_1, # of connection points: 2
#     Edge 74, Type (0, 0), BuildingBlock: KIFKEQ_clean_linker_1, # of connection points: 2
#     Edge 75, Type (0, 0), BuildingBlock: KIFKEQ_clean_linker_1, # of connection points: 2
#     Edge 76, Type (0, 0), BuildingBlock: KIFKEQ_clean_linker_1, # of connection points: 2
#     Edge 77, Type (0, 0), BuildingBlock: KIFKEQ_clean_linker_1, # of connection points: 2
#     Edge 78, Type (0, 0), BuildingBlock: KIFKEQ_clean_linker_1, # of connection points: 2
#     Edge 79, Type (0, 0), BuildingBlock: KIFKEQ_clean_linker_1, # of connection points: 2
#     Edge 80, Type (0, 0), BuildingBlock: KIFKEQ_clean_linker_1, # of connection points: 2
#     Edge 81, Type (0, 0), BuildingBlock: KIFKEQ_clean_linker_1, # of connection points: 2
#     Edge 82, Type (0, 0), BuildingBlock: KIFKEQ_clean_linker_1, # of connection points: 2
#     Edge 83, Type (0, 0), BuildingBlock: KIFKEQ_clean_linker_1, # of connection points: 2
#     Edge 84, Type (0, 0), BuildingBlock: KIFKEQ_clean_linker_1, # of connection points: 2
#     Edge 85, Type (0, 0), BuildingBlock: KIFKEQ_clean_linker_1, # of connection points: 2
#     Edge 86, Type (0, 0), BuildingBlock: KIFKEQ_clean_linker_1, # of connection points: 2
#     Edge 87, Type (0, 0), BuildingBlock: KIFKEQ_clean_linker_1, # of connection points: 2
#     Edge 88, Type (0, 0), BuildingBlock: KIFKEQ_clean_linker_1, # of connection points: 2
#     Edge 89, Type (0, 0), BuildingBlock: KIFKEQ_clean_linker_1, # of connection points: 2
#     Edge 90, Type (0, 0), BuildingBlock: KIFKEQ_clean_linker_1, # of connection points: 2
#     Edge 91, Type (0, 0), BuildingBlock: KIFKEQ_clean_linker_1, # of connection points: 2
#     Edge 92, Type (0, 0), BuildingBlock: KIFKEQ_clean_linker_1, # of connection points: 2
#     Edge 93, Type (0, 0), BuildingBlock: KIFKEQ_clean_linker_1, # of connection points: 2
#     Edge 94, Type (0, 0), BuildingBlock: KIFKEQ_clean_linker_1, # of connection points: 2
#     Edge 95, Type (0, 0), BuildingBlock: KIFKEQ_clean_linker_1, # of connection points: 2
# Relax obj value: 0.157
# Max RMSD: 0.417
# Mean RMSD: 0.367
data_MOF--net-uoi--node1-ICAMEG_clean_sbu_1--edge1-KIFKEQ_clean_linker_1
_symmetry_space_group_name_H-M    P1
_symmetry_Int_Tables_number       1
_symmetry_cell_setting            triclinic
loop_
_symmetry_equiv_pos_as_xyz
'x, y, z'
_cell_length_a     47.762409
_cell_length_b     59.826848
_cell_length_c     24.028246
_cell_angle_alpha  89.996755
_cell_angle_beta   88.781875
_cell_angle_gamma 89.979052
loop_
_atom_site_label
_atom_site_type_symbol
_atom_site_fract_x
_atom_site_fract_y
_atom_site_fract_z
_atom_type_partial_charge
Co0 Co 0.33851 0.22373 0.25677 0.0
Co1 Co 0.2681 0.23544 0.24835 0.0
O2 O 0.30366 0.22579 0.21743 0.0
C3 C 0.34918 0.23587 0.13941 0.0
O4 O 0.33617 0.21717 0.12791 0.0
C5 C 0.25678 0.19627 0.17237 0.0
O6 O 0.28317 0.19531 0.15662 0.0
O7 O 0.27213 0.21356 0.30856 0.0
O8 O 0.31865 0.20848 0.32255 0.0
H9 H 0.20145 0.25795 0.40308 0.0
H10 H 0.38738 0.20376 0.19625 0.0
O11 O 0.35543 0.24031 0.19 0.0
H12 H 0.31631 0.14406 0.20461 0.0
H13 H 0.43191 0.25314 0.3148 0.0
H14 H 0.36582 0.18998 0.32915 0.0
H15 H 0.30654 0.18087 0.24598 0.0
H16 H 0.38685 0.2543 0.2664 0.0
O17 O 0.24789 0.21179 0.20472 0.0
H18 H 0.24635 0.24477 0.36251 0.0
H19 H 0.21185 0.24453 0.20117 0.0
H20 H 0.41049 0.18818 0.37867 0.0
H21 H 0.39811 0.167 0.15424 0.0
H22 H 0.44393 0.2199 0.37146 0.0
H23 H 0.36222 0.13694 0.15774 0.0
O24 O 0.33255 0.25303 0.29389 0.0
H25 H 0.27615 0.26074 0.04823 0.0
H26 H 0.25249 0.28279 0.24092 0.0
H27 H 0.25044 0.31083 0.1655 0.0
H28 H 0.26167 0.29983 0.06852 0.0
H29 H 0.27884 0.23376 0.12467 0.0
H30 H 0.1665 0.2577 0.2399 0.0
H31 H 0.16122 0.26479 0.3415 0.0
O32 O 0.28626 0.25867 0.29725 0.0
C33 C 0.29254 0.20514 0.33493 0.0
C34 C 0.20356 0.25514 0.35869 0.0
C35 C 0.18394 0.25497 0.26712 0.0
N36 N 0.23197 0.24452 0.27939 0.0
C37 C 0.22897 0.24775 0.33548 0.0
C38 C 0.20967 0.24752 0.24543 0.0
C39 C 0.18098 0.25893 0.32412 0.0
C40 C 0.37172 0.19072 0.19801 0.0
N41 N 0.34613 0.19469 0.2228 0.0
C42 C 0.37792 0.16995 0.17419 0.0
C43 C 0.35784 0.15307 0.1763 0.0
C44 C 0.33204 0.15706 0.20253 0.0
C45 C 0.32663 0.17801 0.22602 0.0
C46 C 0.41755 0.23919 0.31811 0.0
C47 C 0.3802 0.20389 0.32609 0.0
C48 C 0.39208 0.23972 0.29063 0.0
N49 N 0.37386 0.22218 0.29468 0.0
C50 C 0.4055 0.20275 0.35406 0.0
C51 C 0.42427 0.22054 0.34996 0.0
C52 C 0.31114 0.26365 0.3115 0.0
C53 C 0.27078 0.26579 0.09039 0.0
C54 C 0.2578 0.27814 0.19882 0.0
C55 C 0.25645 0.29393 0.1563 0.0
C56 C 0.26285 0.2877 0.10174 0.0
N57 N 0.26532 0.25667 0.18753 0.0
C58 C 0.27205 0.25046 0.13409 0.0
Co59 Co 0.10441 0.02247 0.4651 0.0
Co60 Co 0.09111 0.97104 0.52683 0.0
O61 O 0.09829 0.99005 0.46221 0.0
C62 C 0.05854 0.03715 0.39202 0.0
O63 O 0.049 0.0499 0.43266 0.0
C64 C 0.14285 0.95233 0.47751 0.0
O65 O 0.15187 0.97291 0.47129 0.0
O66 O 0.12155 0.98567 0.56803 0.0
O67 O 0.1286 0.01993 0.53176 0.0
H68 H 0.0787 0.95593 0.73149 0.0
H69 H 0.11533 0.99745 0.36007 0.0
O70 O 0.08021 0.02509 0.39846 0.0
H71 H 0.20542 0.03245 0.40576 0.0
H72 H 0.12305 0.09767 0.37752 0.0
H73 H 0.10447 0.05721 0.55314 0.0
H74 H 0.16365 0.03829 0.46617 0.0
H75 H 0.11622 0.0568 0.37757 0.0
O76 O 0.11856 0.94856 0.498 0.0
H77 H 0.08461 0.97952 0.6479 0.0
H78 H 0.08396 0.9219 0.54463 0.0
H79 H 0.11124 0.09807 0.55516 0.0
H80 H 0.15655 0.99118 0.29864 0.0
H81 H 0.12062 0.11858 0.46682 0.0
H82 H 0.20199 0.0088 0.3212 0.0
O83 O 0.07127 0.02657 0.51646 0.0
H84 H 0.05121 0.92935 0.36565 0.0
H85 H 0.03179 0.95892 0.55413 0.0
H86 H 0.99569 0.93671 0.50721 0.0
H87 H 0.00576 0.92107 0.41329 0.0
H88 H 0.08669 0.95172 0.41392 0.0
H89 H 0.07771 0.89771 0.62711 0.0
H90 H 0.07504 0.91472 0.72137 0.0
O91 O 0.0637 0.99308 0.55715 0.0
C92 C 0.13366 0.00462 0.56712 0.0
C93 C 0.07961 0.94833 0.69061 0.0
C94 C 0.07911 0.91566 0.63203 0.0
N95 N 0.08439 0.95212 0.59139 0.0
C96 C 0.08288 0.96161 0.64311 0.0
C97 C 0.08264 0.92944 0.58548 0.0
C98 C 0.07762 0.92521 0.68491 0.0
C99 C 0.13496 0.00532 0.37004 0.0
N100 N 0.137 0.01837 0.41648 0.0
C101 C 0.15827 1.00164 0.33514 0.0
C102 C 0.18377 0.01148 0.34792 0.0
C103 C 0.18571 0.02474 0.39538 0.0
C104 C 0.162 0.02796 0.42948 0.0
C105 C 0.11903 0.08893 0.41631 0.0
C106 C 0.10865 0.06601 0.51465 0.0
C107 C 0.11514 0.06579 0.4166 0.0
N108 N 0.11011 0.05461 0.46543 0.0
C109 C 0.11242 0.08915 0.51599 0.0
C110 C 0.11766 0.10064 0.46642 0.0
C111 C 0.05812 0.01373 0.55048 0.0
C112 C 0.04679 0.93577 0.40702 0.0
C113 C 0.03601 0.95268 0.51258 0.0
C114 C 0.0156 0.93996 0.48648 0.0
C115 C 0.02124 0.93121 0.43369 0.0
N116 N 0.06144 0.95633 0.48703 0.0
C117 C 0.06673 0.94851 0.43444 0.0
Co118 Co 0.17172 0.79729 0.73596 0.0
Co119 Co 0.2428 0.7949 0.74307 0.0
O120 O 0.2088 0.80243 0.70479 0.0
C121 C 0.17247 0.78677 0.61252 0.0
O122 O 0.19624 0.79745 0.6069 0.0
C123 C 0.25123 0.83989 0.7001 0.0
O124 O 0.22655 0.84422 0.72267 0.0
O125 O 0.23136 0.81526 0.8031 0.0
O126 O 0.18523 0.8072 0.81273 0.0
H127 H 0.30064 0.77604 0.90905 0.0
H128 H 0.17908 0.83083 0.63981 0.0
O129 O 0.15917 0.78611 0.65965 0.0
H130 H 0.12777 0.87079 0.7885 0.0
H131 H 0.06647 0.79535 0.73301 0.0
H132 H 0.14995 0.77809 0.84237 0.0
H133 H 0.14256 0.83189 0.80234 0.0
H134 H 0.11387 0.80357 0.69536 0.0
O135 O 0.26166 0.82031 0.70333 0.0
H136 H 0.25726 0.78531 0.86038 0.0
H137 H 0.30265 0.79123 0.70725 0.0
H138 H 0.10305 0.76965 0.88168 0.0
H139 H 0.16435 0.86926 0.62405 0.0
H140 H 0.06087 0.77831 0.82687 0.0
H141 H 0.13834 0.88976 0.69858 0.0
O142 O 0.18164 0.76591 0.75268 0.0
H143 H 0.25846 0.77294 0.54313 0.0
H144 H 0.25856 0.74688 0.73745 0.0
H145 H 0.26628 0.71972 0.66167 0.0
H146 H 0.26643 0.73261 0.56345 0.0
H147 H 0.24977 0.79916 0.62004 0.0
H148 H 0.34664 0.78206 0.75427 0.0
H149 H 0.34577 0.77426 0.85586 0.0
O150 O 0.22421 0.77018 0.78693 0.0
C151 C 0.2082 0.81579 0.83032 0.0
C152 C 0.30129 0.7793 0.86473 0.0
C153 C 0.32709 0.78267 0.77786 0.0
N154 N 0.27734 0.78839 0.78086 0.0
C155 C 0.27675 0.7845 0.8369 0.0
C156 C 0.30213 0.78783 0.75145 0.0
C157 C 0.32659 0.77831 0.83486 0.0
C158 C 0.16735 0.83894 0.67217 0.0
N159 N 0.16105 0.82835 0.72128 0.0
C160 C 0.15925 0.86108 0.66317 0.0
C161 C 0.14477 0.87261 0.70502 0.0
C162 C 0.13883 0.86198 0.7554 0.0
C163 C 0.14729 0.83985 0.76289 0.0
C164 C 0.08468 0.7915 0.75728 0.0
C165 C 0.13172 0.78195 0.81832 0.0
C166 C 0.11154 0.79605 0.7361 0.0
N167 N 0.13461 0.79133 0.76667 0.0
C168 C 0.10521 0.77711 0.84078 0.0
C169 C 0.08156 0.78195 0.80997 0.0
C170 C 0.20098 0.75978 0.78468 0.0
C171 C 0.25854 0.76696 0.58558 0.0
C172 C 0.25819 0.75253 0.69492 0.0
C173 C 0.26292 0.73714 0.6521 0.0
C174 C 0.26297 0.74441 0.59703 0.0
N175 N 0.25299 0.77445 0.6833 0.0
C176 C 0.25366 0.78181 0.62949 0.0
Co177 Co 0.38583 0.9969 0.97344 0.0
Co178 Co 0.39827 0.04981 0.02345 0.0
O179 O 0.39442 0.02861 0.96227 0.0
C180 C 0.43635 0.99442 0.90034 0.0
O181 O 0.44972 0.0056 0.93855 0.0
C182 C 0.35466 0.06945 0.95533 0.0
O183 O 0.34382 0.0493 0.95448 0.0
O184 O 0.36235 0.04004 0.05747 0.0
O185 O 0.361 0.0033 0.04005 0.0
H186 H 0.39589 0.07344 0.22423 0.0
H187 H 0.37821 0.01687 0.86169 0.0
O188 O 0.41054 0.98962 0.90735 0.0
H189 H 0.28498 0.98887 0.91963 0.0
H190 H 0.36366 0.91911 0.90767 0.0
H191 H 0.38274 0.96634 0.07069 0.0
H192 H 0.32544 0.9842 0.98069 0.0
H193 H 0.37317 0.9594 0.89623 0.0
O194 O 0.3775 0.0729 0.98033 0.0
H195 H 0.3918 0.04691 0.14631 0.0
H196 H 0.41143 0.09849 0.03045 0.0
H197 H 0.37313 0.92618 0.08409 0.0
H198 H 0.33843 0.02156 0.79897 0.0
H199 H 0.36347 0.90228 1.00218 0.0
H200 H 0.29137 0.0076 0.82798 0.0
O201 O 0.41789 0.99372 0.02454 0.0
H202 H 0.46035 0.07986 0.86963 0.0
H203 H 0.45562 0.05673 0.06656 0.0
H204 H 0.4997 0.07207 0.02748 0.0
H205 H 0.5019 0.08459 0.92901 0.0
H206 H 0.41677 0.06398 0.9102 0.0
H207 H 0.41558 0.12563 0.10715 0.0
H208 H 0.40794 0.11313 0.20486 0.0
O209 O 0.4186 0.02699 0.06842 0.0
C210 C 0.35236 0.02065 0.06615 0.0
C211 C 0.39946 0.07907 0.18185 0.0
C212 C 0.41048 0.10836 0.11612 0.0
N213 N 0.40176 0.07107 0.08394 0.0
C214 C 0.39727 0.0641 0.13756 0.0
C215 C 0.40804 0.09293 0.07287 0.0
C216 C 0.40619 0.10133 0.17095 0.0
C217 C 0.35788 0.0105 0.87432 0.0
N218 N 0.35419 1.00017 0.9247 0.0
C219 C 0.33539 0.01332 0.83875 0.0
C220 C 0.30899 0.00551 0.85509 0.0
C221 C 0.30538 0.99502 0.90654 0.0
C222 C 0.32835 0.99249 0.94103 0.0
C223 C 0.36771 0.92938 0.94371 0.0
C224 C 0.37828 0.9561 0.03492 0.0
C225 C 0.37311 0.95219 0.9375 0.0
N226 N 0.37805 0.96528 0.98287 0.0
C227 C 0.37298 0.93335 0.04273 0.0
C228 C 0.36761 0.91994 0.99675 0.0
C229 C 0.42611 0.00657 0.06338 0.0
C230 C 0.45947 0.07481 0.91289 0.0
C231 C 0.45665 0.06152 0.02319 0.0
C232 C 0.4816 0.07038 1.00145 0.0
C233 C 0.48281 0.07739 0.94618 0.0
N234 N 0.43357 0.05973 0.99079 0.0
C235 C 0.4349 0.06579 0.93601 0.0
Co236 Co 0.34121 0.78997 0.26934 0.0
Co237 Co 0.27054 0.78335 0.27768 0.0
O238 O 0.30589 0.79158 0.31008 0.0
C239 C 0.34975 0.77749 0.39003 0.0
O240 O 0.32514 0.78593 0.40252 0.0
C241 C 0.26097 0.82537 0.33599 0.0
O242 O 0.28457 0.83162 0.31181 0.0
O243 O 0.27648 0.80679 0.22193 0.0
O244 O 0.3219 0.80075 0.19846 0.0
H245 H 0.20636 0.7662 0.12023 0.0
H246 H 0.33743 0.82086 0.37201 0.0
O247 O 0.35983 0.77824 0.33995 0.0
H248 H 0.37326 0.86732 0.21791 0.0
H249 H 0.44586 0.79585 0.2456 0.0
H250 H 0.35787 0.77446 0.15608 0.0
H251 H 0.36192 0.82785 0.20205 0.0
H252 H 0.40052 0.79966 0.29604 0.0
O253 O 0.25147 0.80572 0.32788 0.0
H254 H 0.25153 0.77505 0.16258 0.0
H255 H 0.2127 0.77663 0.32326 0.0
H256 H 0.40264 0.77049 0.104 0.0
H257 H 0.34893 0.85979 0.38963 0.0
H258 H 0.44707 0.78124 0.14881 0.0
H259 H 0.36708 0.8836 0.31241 0.0
O260 O 0.33342 0.75835 0.24987 0.0
H261 H 0.27546 0.75074 0.4695 0.0
H262 H 0.25927 0.73447 0.27198 0.0
H263 H 0.26468 0.70346 0.33773 0.0
H264 H 0.27257 0.7114 0.43771 0.0
H265 H 0.27141 0.78144 0.40164 0.0
H266 H 0.16671 0.76923 0.28197 0.0
H267 H 0.16348 0.7633 0.18012 0.0
O268 O 0.28902 0.7617 0.22457 0.0
C269 C 0.29753 0.80913 0.18906 0.0
C270 C 0.20754 0.76848 0.16481 0.0
C271 C 0.18533 0.77008 0.25567 0.0
N272 N 0.23483 0.77607 0.24545 0.0
C273 C 0.23312 0.77334 0.18914 0.0
C274 C 0.21137 0.77444 0.27872 0.0
C275 C 0.1835 0.76687 0.19842 0.0
C276 C 0.34584 0.83039 0.33817 0.0
N277 N 0.34958 0.82132 0.28631 0.0
C278 C 0.35208 0.85282 0.34838 0.0
C279 C 0.36215 0.86621 0.30506 0.0
C280 C 0.3656 0.85708 0.25211 0.0
C281 C 0.35909 0.83461 0.24347 0.0
C282 C 0.42665 0.79112 0.22563 0.0
C283 C 0.37709 0.77925 0.17576 0.0
C284 C 0.40096 0.79317 0.25404 0.0
N285 N 0.37662 0.78736 0.22892 0.0
C286 C 0.40239 0.77693 0.14611 0.0
C287 C 0.42731 0.78293 0.1713 0.0
C288 C 0.31264 0.75184 0.22212 0.0
C289 C 0.27172 0.74707 0.42633 0.0
C290 C 0.26297 0.73818 0.31518 0.0
C291 C 0.26588 0.72049 0.35238 0.0
C292 C 0.27033 0.72498 0.40836 0.0
N293 N 0.26595 0.75978 0.33257 0.0
C294 C 0.26933 0.76438 0.38766 0.0
Co295 Co 0.4152 0.03238 0.53128 0.0
Co296 Co 0.42242 0.97763 0.48442 0.0
O297 O 0.41915 0.99996 0.54384 0.0
C298 C 0.43768 0.04366 0.64652 0.0
O299 O 0.41255 0.04844 0.66595 0.0
C300 C 0.3701 0.96368 0.54141 0.0
O301 O 0.36056 0.98402 0.5344 0.0
O302 O 0.39161 0.99158 0.44315 0.0
O303 O 0.38989 0.02779 0.46707 0.0
H304 H 0.42618 0.95196 0.28522 0.0
H305 H 0.39695 0.00646 0.63313 0.0
O306 O 0.44171 0.03752 0.59569 0.0
H307 H 0.31628 0.05367 0.58607 0.0
H308 H 0.40235 0.11482 0.57985 0.0
H309 H 0.41947 0.05991 0.43062 0.0
H310 H 0.35985 0.05551 0.52988 0.0
H311 H 0.40274 0.07495 0.60044 0.0
O312 O 0.39458 0.95834 0.52429 0.0
H313 H 0.42485 0.97976 0.36109 0.0
H314 H 0.42492 0.92774 0.48143 0.0
H315 H 0.41871 0.09988 0.40771 0.0
H316 H 0.35345 0.00367 0.68905 0.0
H317 H 0.41031 0.12779 0.4827 0.0
H318 H 0.31282 0.02766 0.66646 0.0
O319 O 0.44853 0.03178 0.47911 0.0
H320 H 0.46376 0.93639 0.64504 0.0
H321 H 0.48019 0.96308 0.45309 0.0
H322 H 0.51595 0.93982 0.4976 0.0
H323 H 0.50751 0.92581 0.59379 0.0
H324 H 0.42906 0.96047 0.59968 0.0
H325 H 0.42648 0.89942 0.40688 0.0
H326 H 0.42709 0.91148 0.30795 0.0
O327 O 0.45008 0.99679 0.44359 0.0
C328 C 0.38173 0.01119 0.43853 0.0
C329 C 0.42605 0.9465 0.32818 0.0
C330 C 0.42622 0.91702 0.39645 0.0
N331 N 0.42512 0.95541 0.42565 0.0
C332 C 0.4254 0.96217 0.37132 0.0
C333 C 0.42536 0.93315 0.43849 0.0
C334 C 0.42655 0.92379 0.34095 0.0
C335 C 0.37944 0.01696 0.62245 0.0
N336 N 0.38175 0.03207 0.57969 0.0
C337 C 0.35483 0.01534 0.65465 0.0
C338 C 0.33206 0.02879 0.64197 0.0
C339 C 0.33404 0.04347 0.59708 0.0
C340 C 0.35901 0.04467 0.56585 0.0
C341 C 0.40655 0.10286 0.54691 0.0
C342 C 0.41619 0.0718 0.46379 0.0
C343 C 0.40734 0.07999 0.55869 0.0
N344 N 0.41247 0.06463 0.51753 0.0
C345 C 0.41561 0.0945 0.4504 0.0
C346 C 0.41089 0.11013 0.49241 0.0
C347 C 0.45855 0.01698 0.44576 0.0
C348 C 0.46757 0.94223 0.60293 0.0
C349 C 0.47681 0.95774 0.49561 0.0
C350 C 0.49694 0.94426 0.52031 0.0
C351 C 0.49212 0.93632 0.57418 0.0
N352 N 0.45251 0.96309 0.52364 0.0
C353 C 0.44803 0.95594 0.57708 0.0
Co354 Co 0.15468 0.22294 0.75275 0.0
Co355 Co 0.22471 0.23533 0.74567 0.0
O356 O 0.19068 0.22796 0.78495 0.0
C357 C 0.14704 0.26291 0.82458 0.0
O358 O 0.15886 0.27444 0.78417 0.0
C359 C 0.23609 0.19331 0.80369 0.0
O360 O 0.21118 0.18713 0.78776 0.0
O361 O 0.2182 0.2116 0.69116 0.0
O362 O 0.17183 0.20348 0.69154 0.0
H363 H 0.2877 0.2465 0.57789 0.0
H364 H 0.16538 0.21322 0.87235 0.0
O365 O 0.13966 0.24262 0.81593 0.0
H366 H 0.12997 0.1428 0.79396 0.0
H367 H 0.05055 0.21136 0.76759 0.0
H368 H 0.13165 0.2203 0.63904 0.0
H369 H 0.13565 0.17629 0.73482 0.0
H370 H 0.09811 0.21653 0.80384 0.0
O371 O 0.24525 0.21279 0.79161 0.0
H372 H 0.24256 0.24002 0.6271 0.0
H373 H 0.28235 0.24478 0.78308 0.0
H374 H 0.08455 0.215 0.60096 0.0
H375 H 0.15982 0.18024 0.93306 0.0
H376 H 0.0436 0.21049 0.66545 0.0
H377 H 0.14197 0.14469 0.8939 0.0
O378 O 0.15892 0.24882 0.70077 0.0
H379 H 0.2382 0.26356 0.94099 0.0
H380 H 0.22226 0.28588 0.74709 0.0
H381 H 0.22351 0.31429 0.81973 0.0
H382 H 0.23279 0.30366 0.91706 0.0
H383 H 0.23455 0.23523 0.86837 0.0
H384 H 0.32787 0.25152 0.73559 0.0
H385 H 0.3308 0.25204 0.63237 0.0
O386 O 0.20488 0.25658 0.69399 0.0
C387 C 0.19718 0.20079 0.67349 0.0
C388 C 0.28669 0.24626 0.62294 0.0
C389 C 0.30923 0.2491 0.71148 0.0
N390 N 0.25977 0.24236 0.70791 0.0
C391 C 0.26117 0.24268 0.65103 0.0
C392 C 0.28338 0.24539 0.73815 0.0
C393 C 0.31085 0.24943 0.65351 0.0
C394 C 0.15714 0.19796 0.85521 0.0
N395 N 0.15027 0.19686 0.80036 0.0
C396 C 0.15427 0.17926 0.88969 0.0
C397 C 0.14434 0.1593 0.86766 0.0
C398 C 0.13761 0.15824 0.81158 0.0
C399 C 0.14085 0.17726 0.77832 0.0
C400 C 0.06824 0.21326 0.73908 0.0
C401 C 0.11396 0.21817 0.66734 0.0
C402 C 0.09517 0.21625 0.75936 0.0
N403 N 0.1176 0.21851 0.72357 0.0
C404 C 0.08733 0.21526 0.64554 0.0
C405 C 0.06435 0.21276 0.68176 0.0
C406 C 0.17957 0.25944 0.67884 0.0
C407 C 0.23512 0.26857 0.89826 0.0
C408 C 0.22632 0.28064 0.78893 0.0
C409 C 0.22692 0.29703 0.83027 0.0
C410 C 0.23191 0.29101 0.885 0.0
N411 N 0.22998 0.25859 0.80173 0.0
C412 C 0.2336 0.25253 0.85618 0.0
Co413 Co 0.0961 0.99657 0.04156 0.0
Co414 Co 0.08538 0.05105 0.99986 0.0
O415 O 0.08977 0.02835 0.05792 0.0
C416 C 0.05252 0.97482 0.11193 0.0
O417 O 0.04325 0.96538 0.06659 0.0
C418 C 0.13233 0.06841 0.06377 0.0
O419 O 0.14283 0.04815 0.06109 0.0
O420 O 0.11974 0.04074 0.96018 0.0
O421 O 0.11951 0.00368 0.97374 0.0
H422 H 0.08346 0.07899 0.80268 0.0
H423 H 0.10796 0.01389 0.15407 0.0
O424 O 0.07284 0.98866 0.10923 0.0
H425 H 0.19795 0.98397 0.08257 0.0
H426 H 0.1171 0.91643 0.09078 0.0
H427 H 0.09336 0.9686 0.94006 0.0
H428 H 0.15558 0.98181 0.02586 0.0
H429 H 0.11083 0.95664 0.1101 0.0
O430 O 0.10858 0.07249 0.04294 0.0
H431 H 0.08757 0.05056 0.87628 0.0
H432 H 0.07484 0.10022 1.00065 0.0
H433 H 0.09929 0.92854 0.91899 0.0
H434 H 0.14975 0.01634 0.21214 0.0
H435 H 0.11126 0.90214 0.99466 0.0
H436 H 0.19517 1.00126 0.17655 0.0
O437 O 0.06226 0.99601 0.99461 0.0
H438 H 0.02987 0.08007 0.16467 0.0
H439 H 0.0264 0.05924 0.96639 0.0
H440 H 0.98363 0.07296 0.01449 0.0
H441 H 0.98523 0.08359 0.11422 0.0
H442 H 0.07191 0.06553 0.11555 0.0
H443 H 0.07108 0.12927 0.92831 0.0
H444 H 0.07537 0.11872 0.82853 0.0
O445 O 0.06287 0.02998 0.95425 0.0
C446 C 0.12861 0.02117 0.949 0.0
C447 C 0.08149 0.0838 0.84602 0.0
C448 C 0.07456 0.11202 0.91654 0.0
N449 N 0.08122 0.07368 0.94275 0.0
C450 C 0.08366 0.06775 0.88792 0.0
C451 C 0.07675 0.0955 0.95732 0.0
C452 C 0.07696 0.10608 0.86054 0.0
C453 C 0.12757 0.00711 0.13844 0.0
N454 N 0.12927 0.99758 0.08678 0.0
C455 C 0.1512 0.00861 0.17146 0.0
C456 C 0.17669 1.00022 0.15137 0.0
C457 C 0.17827 0.99053 0.09863 0.0
C458 C 0.15422 0.98941 0.06665 0.0
C459 C 0.11197 0.92778 0.05742 0.0
C460 C 0.0987 0.95725 0.97319 0.0
C461 C 0.10847 0.95057 0.06808 0.0
N462 N 0.10196 0.965 0.02616 0.0
C463 C 0.10199 0.93457 0.96101 0.0
C464 C 0.10868 0.91976 1.00349 0.0
C465 C 0.05418 0.00988 0.95803 0.0
C466 C 0.02894 0.07557 0.12112 0.0
C467 C 0.02719 0.06348 0.01003 0.0
C468 C 0.00294 0.07141 0.03692 0.0
C469 C 0.00387 0.07747 0.09284 0.0
N470 N 0.05165 0.06151 0.03814 0.0
C471 C 0.05273 0.06742 0.09298 0.0
Co472 Co 0.67539 0.78658 0.7449 0.0
Co473 Co 0.7444 0.77862 0.70326 0.0
O474 O 0.71495 0.78196 0.75954 0.0
C475 C 0.68005 0.74633 0.81393 0.0
O476 O 0.69756 0.73951 0.77486 0.0
C477 C 0.75959 0.81763 0.76901 0.0
O478 O 0.73317 0.82323 0.76506 0.0
O479 O 0.73018 0.80425 0.66241 0.0
O480 O 0.68431 0.80896 0.68358 0.0
H481 H 0.78315 0.77507 0.50749 0.0
H482 H 0.69703 0.79222 0.85943 0.0
O483 O 0.66688 0.76468 0.80732 0.0
H484 H 0.65337 0.86437 0.81299 0.0
H485 H 0.57409 0.79493 0.80305 0.0
H486 H 0.641 0.79076 0.64419 0.0
H487 H 0.65339 0.8332 0.7458 0.0
H488 H 0.62469 0.79038 0.81861 0.0
O489 O 0.76851 0.79955 0.74674 0.0
H490 H 0.7461 0.77839 0.57988 0.0
H491 H 0.80659 0.77377 0.70639 0.0
H492 H 0.59062 0.79546 0.62669 0.0
H493 H 0.69728 0.8229 0.92795 0.0
H494 H 0.55679 0.79758 0.7065 0.0
H495 H 0.67538 0.8593 0.90484 0.0
O496 O 0.67557 0.762 0.68807 0.0
H497 H 0.77371 0.73814 0.87543 0.0
H498 H 0.76304 0.73295 0.67205 0.0
H499 H 0.78096 0.70081 0.72334 0.0
H500 H 0.78647 0.7031 0.82568 0.0
H501 H 0.75587 0.77023 0.82206 0.0
H502 H 0.84445 0.77083 0.63518 0.0
H503 H 0.83277 0.77126 0.53489 0.0
O504 O 0.72031 0.75827 0.65779 0.0
C505 C 0.70699 0.81433 0.65749 0.0
C506 C 0.7885 0.77466 0.55101 0.0
C507 C 0.8229 0.77239 0.6227 0.0
N508 N 0.77412 0.77586 0.64732 0.0
C509 C 0.76758 0.77641 0.59224 0.0
C510 C 0.80139 0.77407 0.66283 0.0
C511 C 0.81634 0.77263 0.56644 0.0
C512 C 0.68715 0.80791 0.84927 0.0
N513 N 0.67497 0.81081 0.7988 0.0
C514 C 0.6875 0.82527 0.88814 0.0
C515 C 0.67527 0.84571 0.87512 0.0
C516 C 0.66293 0.84857 0.82357 0.0
C517 C 0.66304 0.83086 0.78566 0.0
C518 C 0.58863 0.79408 0.76794 0.0
C519 C 0.62641 0.79182 0.67912 0.0
C520 C 0.61728 0.79146 0.7765 0.0
N521 N 0.63575 0.79051 0.73236 0.0
C522 C 0.59791 0.79441 0.66896 0.0
C523 C 0.57894 0.79558 0.71375 0.0
C524 C 0.69421 0.75357 0.65521 0.0
C525 C 0.77163 0.73694 0.83076 0.0
C526 C 0.76555 0.73422 0.71655 0.0
C527 C 0.77601 0.716 0.74546 0.0
C528 C 0.77889 0.71731 0.8029 0.0
N529 N 0.75864 0.75344 0.74403 0.0
C530 C 0.76155 0.75501 0.80036 0.0
Co531 Co 0.90002 0.97143 0.54934 0.0
Co532 Co 0.90784 0.02304 0.48553 0.0
O533 O 0.90255 0.00417 0.55083 0.0
C534 C 0.94592 0.9606 0.62601 0.0
O535 O 0.95667 0.94762 0.58701 0.0
C536 C 0.85737 0.05133 0.49523 0.0
O537 O 0.85002 0.04395 0.44628 0.0
O538 O 0.87772 0.00673 0.44722 0.0
O539 O 0.87689 0.97164 0.4808 0.0
H540 H 0.91853 0.03733 0.28011 0.0
H541 H 0.88421 0.99672 0.65175 0.0
O542 O 0.92329 0.97126 0.61774 0.0
H543 H 0.79985 0.95412 0.60285 0.0
H544 H 0.88834 0.89598 0.64013 0.0
H545 H 0.90518 0.93601 0.46328 0.0
H546 H 0.84309 0.95113 0.54535 0.0
H547 H 0.89062 0.93718 0.63811 0.0
O548 O 0.87978 0.04456 0.51759 0.0
H549 H 0.91257 0.01418 0.36443 0.0
H550 H 0.91323 0.07229 0.46593 0.0
H551 H 0.90301 0.89483 0.46324 0.0
H552 H 0.84134 1.00031 0.71008 0.0
H553 H 0.89452 0.87453 0.5522 0.0
H554 H 0.79885 0.97877 0.68605 0.0
O555 O 0.93433 0.96926 0.50029 0.0
H556 H 0.94906 0.06672 0.64244 0.0
H557 H 0.96628 0.0363 0.45412 0.0
H558 H 0.00285 0.05878 0.49849 0.0
H559 H 0.99394 0.0748 0.59245 0.0
H560 H 0.91331 0.0436 0.59721 0.0
H561 H 0.91888 0.09611 0.38262 0.0
H562 H 0.9217 0.07862 0.28891 0.0
O563 O 0.93585 1.00194 0.45356 0.0
C564 C 0.86897 0.98663 0.4468 0.0
C565 C 0.91737 0.04515 0.32072 0.0
C566 C 0.91757 0.07814 0.37826 0.0
N567 N 0.91267 0.04186 0.42009 0.0
C568 C 0.91407 0.03212 0.36864 0.0
C569 C 0.91431 0.06458 0.42527 0.0
C570 C 0.91915 0.06831 0.32569 0.0
C571 C 0.86582 0.98725 0.64102 0.0
N572 N 0.86624 0.9736 0.5954 0.0
C573 C 0.84161 0.98936 0.67423 0.0
C574 C 0.81773 0.97733 0.6606 0.0
C575 C 0.81828 0.96351 0.61391 0.0
C576 C 0.84281 0.96192 0.58145 0.0
C577 C 0.89201 0.90463 0.60109 0.0
C578 C 0.9014 0.92731 0.50203 0.0
C579 C 0.89332 0.92795 0.59968 0.0
N580 N 0.8979 0.93899 0.5505 0.0
C581 C 0.90023 0.90398 0.50182 0.0
C582 C 0.89548 0.89261 0.55175 0.0
C583 C 0.9447 0.98226 0.46308 0.0
C584 C 0.95303 0.06002 0.60118 0.0
C585 C 0.96256 0.04265 0.49573 0.0
C586 C 0.98326 0.05554 0.52041 0.0
C587 C 0.97825 0.06451 0.57318 0.0
N588 N 0.93754 0.03886 0.52281 0.0
C589 C 0.93288 0.04694 0.57537 0.0
Co590 Co 0.83662 0.21264 0.2847 0.0
Co591 Co 0.76543 0.21853 0.27174 0.0
O592 O 0.7983 0.21078 0.31376 0.0
C593 C 0.83499 0.22929 0.40336 0.0
O594 O 0.80876 0.22317 0.40794 0.0
C595 C 0.75342 0.17445 0.31814 0.0
O596 O 0.77944 0.16943 0.30475 0.0
O597 O 0.77695 0.19712 0.21429 0.0
O598 O 0.82412 0.20028 0.21022 0.0
H599 H 0.71302 0.23685 0.09831 0.0
H600 H 0.82465 0.18586 0.39008 0.0
O601 O 0.84932 0.22595 0.35836 0.0
H602 H 0.87152 0.13392 0.25969 0.0
H603 H 0.94149 0.20674 0.29532 0.0
H604 H 0.86224 0.22676 0.17684 0.0
H605 H 0.86243 0.17279 0.23189 0.0
H606 H 0.89282 0.20355 0.33114 0.0
O607 O 0.74399 0.19404 0.30954 0.0
H608 H 0.75462 0.22735 0.1525 0.0
H609 H 0.70493 0.22461 0.301 0.0
H610 H 0.91052 0.23006 0.13922 0.0
H611 H 0.8337 0.14747 0.41966 0.0
H612 H 0.95055 0.22 0.19864 0.0
H613 H 0.85732 0.12101 0.35436 0.0
O614 O 0.83043 0.24365 0.25781 0.0
H615 H 0.73878 0.24089 0.46732 0.0
H616 H 0.75437 0.26747 0.27557 0.0
H617 H 0.7441 0.29475 0.35021 0.0
H618 H 0.73584 0.28152 0.44696 0.0
H619 H 0.75237 0.2147 0.39329 0.0
H620 H 0.66274 0.23402 0.24841 0.0
H621 H 0.6666 0.24006 0.14627 0.0
O622 O 0.78627 0.24223 0.22882 0.0
C623 C 0.80072 0.19322 0.19149 0.0
C624 C 0.71106 0.23426 0.14281 0.0
C625 C 0.68285 0.23267 0.22706 0.0
N626 N 0.73232 0.22579 0.23 0.0
C627 C 0.73458 0.22896 0.17376 0.0
C628 C 0.70683 0.2274 0.25664 0.0
C629 C 0.68504 0.23608 0.16975 0.0
C630 C 0.83542 0.17494 0.36156 0.0
N631 N 0.8435 0.18207 0.30959 0.0
C632 C 0.84027 0.15295 0.37848 0.0
C633 C 0.85342 0.13809 0.34179 0.0
C634 C 0.86138 0.14532 0.28871 0.0
C635 C 0.85613 0.16741 0.27322 0.0
C636 C 0.92422 0.21114 0.26901 0.0
C637 C 0.87955 0.22223 0.20283 0.0
C638 C 0.89665 0.20943 0.28911 0.0
N639 N 0.87476 0.21483 0.25597 0.0
C640 C 0.90684 0.22419 0.18136 0.0
C641 C 0.92929 0.21857 0.21474 0.0
C642 C 0.81058 0.25101 0.22854 0.0
C643 C 0.74273 0.24702 0.42567 0.0
C644 C 0.7518 0.26173 0.31777 0.0
C645 C 0.74553 0.27719 0.35976 0.0
C646 C 0.74092 0.26975 0.41407 0.0
N647 N 0.75454 0.23958 0.32983 0.0
C648 C 0.74997 0.23214 0.38304 0.0
Co649 Co 0.61827 0.00892 0.01868 0.0
Co650 Co 0.60565 0.95784 0.95945 0.0
O651 O 0.61005 0.97697 0.02434 0.0
C652 C 0.57266 0.02619 0.09268 0.0
O653 O 0.56401 0.03797 0.05027 0.0
C654 C 0.64541 0.92182 0.98075 0.0
O655 O 0.65449 0.92544 0.92956 0.0
O656 O 0.64249 0.96791 0.93034 0.0
O657 O 0.64245 0.00454 0.94983 0.0
H658 H 0.61089 0.93976 0.75512 0.0
H659 H 0.62771 0.98528 0.1253 0.0
O660 O 0.59405 0.01354 0.08733 0.0
H661 H 0.71949 0.01686 0.06984 0.0
H662 H 0.64079 0.08476 0.09711 0.0
H663 H 0.61987 0.04223 0.92721 0.0
H664 H 0.6783 0.02257 0.01126 0.0
H665 H 0.63196 0.04416 0.10174 0.0
O666 O 0.62488 0.93317 1.00073 0.0
H667 H 0.61539 0.96368 0.83795 0.0
H668 H 0.58768 0.91048 0.94237 0.0
H669 H 0.62868 0.08276 0.92063 0.0
H670 H 0.66825 0.97946 0.18553 0.0
H671 H 0.63923 0.10431 0.00601 0.0
H672 H 0.71456 0.99529 0.15785 0.0
O673 O 0.58548 0.0132 0.96989 0.0
H674 H 0.53923 0.92862 0.10724 0.0
H675 H 0.54836 0.95455 0.91289 0.0
H676 H 0.50226 0.94236 0.94952 0.0
H677 H 0.4976 0.92881 0.0469 0.0
H678 H 0.58492 0.94134 0.06915 0.0
H679 H 0.5831 0.88588 0.86061 0.0
H680 H 0.59475 0.90051 0.76618 0.0
O681 O 0.58731 0.98235 0.91679 0.0
C682 C 0.65185 0.9876 0.92291 0.0
C683 C 0.60572 0.93319 0.79604 0.0
C684 C 0.59009 0.90296 0.85525 0.0
N685 N 0.6016 0.93855 0.89492 0.0
C686 C 0.60814 0.94669 0.84311 0.0
C687 C 0.59267 0.91697 0.90136 0.0
C688 C 0.59665 0.91118 0.80228 0.0
C689 C 0.64775 0.99235 0.11314 0.0
N690 N 0.65058 0.00439 0.06501 0.0
C691 C 0.67065 0.98893 0.14733 0.0
C692 C 0.69663 0.9978 0.13176 0.0
C693 C 0.69942 0.0099 0.08237 0.0
C694 C 0.67604 0.01301 0.04926 0.0
C695 C 0.63631 0.07554 0.05958 0.0
C696 C 0.62465 0.05145 0.96448 0.0
C697 C 0.63131 0.05256 0.06194 0.0
N698 N 0.6257 0.0408 0.01469 0.0
C699 C 0.62953 0.07442 0.96053 0.0
C700 C 0.63543 0.0865 0.00846 0.0
C701 C 0.57904 0.00227 0.92644 0.0
C702 C 0.54108 0.93425 0.0645 0.0
C703 C 0.54645 0.949 0.95562 0.0
C704 C 0.5203 0.94201 0.97602 0.0
C705 C 0.51771 0.93443 0.0307 0.0
N706 N 0.56938 0.94842 0.98873 0.0
C707 C 0.56689 0.94142 0.04271 0.0
Co708 Co 0.66994 0.21096 0.75897 0.0
Co709 Co 0.74112 0.21458 0.75203 0.0
O710 O 0.7054 0.20802 0.71869 0.0
C711 C 0.66358 0.22559 0.64 0.0
O712 O 0.68652 0.21478 0.62628 0.0
C713 C 0.74859 0.17288 0.69015 0.0
O714 O 0.72373 0.1672 0.70957 0.0
O715 O 0.73305 0.19109 0.80686 0.0
O716 O 0.68797 0.19896 0.82932 0.0
H717 H 0.80553 0.22781 0.91142 0.0
H718 H 0.67008 0.18092 0.65406 0.0
O719 O 0.6529 0.2244 0.68939 0.0
H720 H 0.63278 0.13479 0.80736 0.0
H721 H 0.56494 0.20996 0.77987 0.0
H722 H 0.6537 0.22632 0.87272 0.0
H723 H 0.64704 0.17352 0.82467 0.0
H724 H 0.61026 0.20429 0.73048 0.0
O725 O 0.7593 0.19169 0.70249 0.0
H726 H 0.76046 0.21934 0.86806 0.0
H727 H 0.79918 0.2214 0.70743 0.0
H728 H 0.60895 0.23217 0.9237 0.0
H729 H 0.65574 0.14277 0.63511 0.0
H730 H 0.56414 0.22396 0.87722 0.0
H731 H 0.63684 0.1191 0.7119 0.0
O732 O 0.6798 0.24197 0.7802 0.0
H733 H 0.74823 0.24591 0.55824 0.0
H734 H 0.75641 0.26275 0.75756 0.0
H735 H 0.76213 0.29305 0.68883 0.0
H736 H 0.75804 0.28474 0.58816 0.0
H737 H 0.74134 0.21633 0.62829 0.0
H738 H 0.84474 0.22996 0.74899 0.0
H739 H 0.84807 0.23334 0.85171 0.0
O740 O 0.72395 0.23698 0.80513 0.0
C741 C 0.71164 0.1896 0.83915 0.0
C742 C 0.80434 0.22646 0.86661 0.0
C743 C 0.82634 0.22766 0.77545 0.0
N744 N 0.77709 0.22023 0.78526 0.0
C745 C 0.77884 0.2217 0.84182 0.0
C746 C 0.80049 0.22282 0.75215 0.0
C747 C 0.8282 0.22955 0.83308 0.0
C748 C 0.66166 0.17146 0.68792 0.0
N749 N 0.65928 0.18019 0.74041 0.0
C750 C 0.65366 0.14946 0.67686 0.0
C751 C 0.64314 0.13615 0.71992 0.0
C752 C 0.64089 0.14494 0.7734 0.0
C753 C 0.64913 0.16699 0.78288 0.0
C754 C 0.58432 0.21358 0.80057 0.0
C755 C 0.63431 0.22263 0.8523 0.0
C756 C 0.61001 0.21046 0.77278 0.0
N757 N 0.63455 0.2149 0.79879 0.0
C758 C 0.60902 0.22601 0.88134 0.0
C759 C 0.58389 0.22142 0.85521 0.0
C760 C 0.70073 0.24745 0.80885 0.0
C761 C 0.74982 0.2498 0.60185 0.0
C762 C 0.75411 0.25908 0.71399 0.0
C763 C 0.75766 0.27627 0.67519 0.0
C764 C 0.7554 0.27158 0.61873 0.0
N765 N 0.74798 0.23787 0.69718 0.0
C766 C 0.74605 0.23308 0.64184 0.0
Co767 Co 0.5891 0.97498 0.46093 0.0
Co768 Co 0.58522 0.02961 0.50987 0.0
O769 O 0.58556 0.00777 0.44824 0.0
C770 C 0.56492 0.96051 0.34899 0.0
O771 O 0.58857 0.95137 0.33256 0.0
C772 C 0.62328 0.04967 0.42166 0.0
O773 O 0.61809 0.03358 0.3865 0.0
O774 O 0.61909 0.01587 0.53996 0.0
O775 O 0.61407 0.97914 0.52627 0.0
H776 H 0.59094 0.05042 0.71192 0.0
H777 H 0.60315 0.99489 0.35016 0.0
O778 O 0.56246 0.97009 0.3967 0.0
H779 H 0.69023 0.95878 0.40999 0.0
H780 H 0.61233 0.89318 0.41792 0.0
H781 H 0.57685 0.94625 0.55845 0.0
H782 H 0.64746 0.9568 0.46873 0.0
H783 H 0.61261 0.933 0.39881 0.0
O784 O 0.61084 0.05062 0.4689 0.0
H785 H 0.59006 0.02463 0.63198 0.0
H786 H 0.58129 0.07938 0.52108 0.0
H787 H 0.57673 0.90635 0.57971 0.0
H788 H 0.64541 0.99707 0.28987 0.0
H789 H 0.59421 0.87923 0.50897 0.0
H790 H 0.68936 0.97881 0.31949 0.0
O791 O 0.55555 0.97613 0.51196 0.0
H792 H 0.5312 0.07366 0.36901 0.0
H793 H 0.52969 0.04176 0.55784 0.0
H794 H 0.48984 0.06453 0.52759 0.0
H795 H 0.49091 0.08138 0.43321 0.0
H796 H 0.56936 0.04936 0.39941 0.0
H797 H 0.58224 0.10578 0.59988 0.0
H798 H 0.58702 0.09133 0.69612 0.0
O799 O 0.56059 0.00933 0.55484 0.0
C800 C 0.62616 0.99577 0.54855 0.0
C801 C 0.58879 0.05693 0.67019 0.0
C802 C 0.58389 0.08799 0.60729 0.0
N803 N 0.58535 0.05045 0.57191 0.0
C804 C 0.58816 0.0424 0.62474 0.0
C805 C 0.5834 0.07296 0.56282 0.0
C806 C 0.58658 0.07987 0.6613 0.0
C807 C 0.62208 0.98668 0.36319 0.0
N808 N 0.62235 0.97504 0.41214 0.0
C809 C 0.646 0.98805 0.32889 0.0
C810 C 0.67065 0.97786 0.34558 0.0
C811 C 0.67112 0.9666 0.3963 0.0
C812 C 0.64677 0.96555 0.42944 0.0
C813 C 0.60362 0.90472 0.44835 0.0
C814 C 0.58342 0.93485 0.52618 0.0
C815 C 0.60288 0.92762 0.43696 0.0
N816 N 0.59187 0.94255 0.4748 0.0
C817 C 0.58378 0.91209 0.53906 0.0
C818 C 0.59365 0.89691 0.49952 0.0
C819 C 0.54924 0.9902 0.55016 0.0
C820 C 0.53062 0.0666 0.41049 0.0
C821 C 0.52974 0.0481 0.51585 0.0
C822 C 0.50733 0.06137 0.49931 0.0
C823 C 0.50801 0.07092 0.44648 0.0
N824 N 0.55215 0.04425 0.48077 0.0
C825 C 0.55237 0.05285 0.42811 0.0
Co826 Co 0.83871 0.78116 0.27505 0.0
Co827 Co 0.76652 0.77656 0.2844 0.0
O828 O 0.80145 0.7823 0.24353 0.0
C829 C 0.8402 0.76426 0.16005 0.0
O830 O 0.828 0.78328 0.14794 0.0
C831 C 0.75463 0.8179 0.22223 0.0
O832 O 0.77809 0.82565 0.24119 0.0
O833 O 0.77697 0.80055 0.33575 0.0
O834 O 0.82481 0.80064 0.34008 0.0
H835 H 0.70657 0.76892 0.45771 0.0
H836 H 0.88494 0.79021 0.1941 0.0
O837 O 0.84884 0.76076 0.20964 0.0
H838 H 0.8395 0.86334 0.22084 0.0
H839 H 0.92882 0.74263 0.32051 0.0
H840 H 0.87541 0.81304 0.33484 0.0
H841 H 0.82348 0.83081 0.27377 0.0
H842 H 0.88152 0.7455 0.28168 0.0
O843 O 0.74668 0.7983 0.23521 0.0
H844 H 0.75048 0.77492 0.40409 0.0
H845 H 0.70697 0.7695 0.25237 0.0
H846 H 0.92253 0.81089 0.37462 0.0
H847 H 0.90234 0.82262 0.14102 0.0
H848 H 0.9496 0.7755 0.3674 0.0
H849 H 0.87929 0.85954 0.15334 0.0
O850 O 0.82978 0.754 0.31961 0.0
H851 H 0.76526 0.74294 0.09418 0.0
H852 H 0.74511 0.72955 0.29372 0.0
H853 H 0.73733 0.69941 0.22549 0.0
H854 H 0.7498 0.70557 0.1259 0.0
H855 H 0.77056 0.77311 0.16271 0.0
H856 H 0.66248 0.76354 0.30441 0.0
H857 H 0.66214 0.76311 0.40782 0.0
O858 O 0.78382 0.75454 0.33629 0.0
C859 C 0.80011 0.80758 0.35538 0.0
C860 C 0.70647 0.7689 0.41265 0.0
C861 C 0.68173 0.76592 0.3266 0.0
N862 N 0.73142 0.77202 0.32514 0.0
C863 C 0.73131 0.77217 0.38204 0.0
C864 C 0.70699 0.76928 0.29736 0.0
C865 C 0.68155 0.7657 0.38463 0.0
C866 C 0.87401 0.80594 0.19843 0.0
N867 N 0.85086 0.80772 0.23288 0.0
C868 C 0.8843 0.82437 0.16874 0.0
C869 C 0.87145 0.84507 0.17579 0.0
C870 C 0.84902 0.84716 0.21333 0.0
C871 C 0.83936 0.82834 0.24232 0.0
C872 C 0.91727 0.75817 0.32375 0.0
C873 C 0.88702 0.79757 0.33173 0.0
C874 C 0.89054 0.7599 0.30167 0.0
N875 N 0.87585 0.77945 0.30566 0.0
C876 C 0.91372 0.79646 0.35422 0.0
C877 C 0.9289 0.77661 0.35012 0.0
C878 C 0.80813 0.7469 0.34526 0.0
C879 C 0.76041 0.73993 0.13776 0.0
C880 C 0.74917 0.73257 0.24996 0.0
C881 C 0.74509 0.7154 0.21171 0.0
C882 C 0.7515 0.71897 0.15557 0.0
N883 N 0.75825 0.75301 0.23219 0.0
C884 C 0.76341 0.75691 0.17683 0.0
Co885 Co 0.91062 0.00573 0.97059 0.0
Co886 Co 0.92828 0.95154 0.00585 0.0
O887 O 0.92062 0.97485 0.95099 0.0
C888 C 0.95204 0.0306 0.90046 0.0
O889 O 0.96133 0.04008 0.94575 0.0
C890 C 0.88194 0.93396 0.94208 0.0
O891 O 0.87068 0.95378 0.94935 0.0
O892 O 0.89409 0.95909 0.04952 0.0
O893 O 0.88834 0.996 0.03806 0.0
H894 H 0.9385 0.9209 0.19913 0.0
H895 H 0.90027 0.9891 0.8567 0.0
O896 O 0.9326 0.016 0.90336 0.0
H897 H 0.80758 0.01145 0.93196 0.0
H898 H 0.881 0.08469 0.92819 0.0
H899 H 0.90994 0.03232 0.07465 0.0
H900 H 0.84985 0.01606 0.98812 0.0
H901 H 0.89191 0.04539 0.90539 0.0
O902 O 0.90585 0.9297 0.96202 0.0
H903 H 0.92937 0.95002 0.12928 0.0
H904 H 0.94272 0.9031 0.99869 0.0
H905 H 0.89924 0.07145 0.09927 0.0
H906 H 0.85863 0.9842 0.79927 0.0
H907 H 0.88465 0.09795 0.02574 0.0
H908 H 0.81183 0.99545 0.83673 0.0
O909 O 0.94434 0.0081 0.01736 0.0
H910 H 0.98239 0.92685 0.83474 0.0
H911 H 0.9886 0.94663 0.0333 0.0
H912 H 0.03134 0.93546 0.98091 0.0
H913 H 0.02835 0.92533 0.88107 0.0
H914 H 0.9404 0.93897 0.88797 0.0
H915 H 0.95156 0.87335 0.06726 0.0
H916 H 0.94955 0.8822 0.16827 0.0
O917 O 0.94971 0.97329 0.05173 0.0
C918 C 0.88235 0.97753 0.06209 0.0
C919 C 0.93951 0.91684 0.15523 0.0
C920 C 0.94681 0.89016 0.08121 0.0
N921 N 0.93577 0.92832 0.05991 0.0
C922 C 0.93448 0.9333 0.11543 0.0
C923 C 0.94174 0.90706 0.04258 0.0
C924 C 0.94569 0.89514 0.13789 0.0
C925 C 0.88005 0.99427 0.87314 0.0
N926 N 0.87754 0.003 0.92558 0.0
C927 C 0.85651 0.99138 0.84046 0.0
C928 C 0.83026 0.99761 0.86162 0.0
C929 C 0.82786 0.00657 0.91507 0.0
C930 C 0.85186 0.0091 0.94672 0.0
C931 C 0.88726 0.07329 0.96062 0.0
C932 C 0.90346 0.04371 0.04246 0.0
C933 C 0.89342 0.05102 0.94798 0.0
N934 N 0.90133 0.03653 0.98874 0.0
C935 C 0.89748 0.06587 0.05664 0.0
C936 C 0.88932 0.08072 0.01536 0.0
C937 C 0.95513 0.99419 0.0509 0.0
C938 C 0.98393 0.93114 0.87833 0.0
C939 C 0.98719 0.94266 0.9896 0.0
C940 C 0.01143 0.93614 0.9603 0.0
C941 C 0.00973 0.93035 0.9043 0.0
N942 N 0.96199 0.94356 0.96375 0.0
C943 C 0.96017 0.9379 0.90882 0.0
Co944 Co 0.82856 0.62123 0.77233 0.0
Co945 Co 0.75693 0.62967 0.78695 0.0
O946 O 0.79119 0.62577 0.74308 0.0
C947 C 0.83236 0.66204 0.70352 0.0
O948 O 0.81391 0.67014 0.73913 0.0
C949 C 0.7466 0.59079 0.71544 0.0
O950 O 0.77185 0.58394 0.7274 0.0
O951 O 0.76686 0.60387 0.83265 0.0
O952 O 0.81379 0.59927 0.83102 0.0
H953 H 0.70136 0.63814 0.96563 0.0
H954 H 0.82013 0.61656 0.65124 0.0
O955 O 0.84287 0.64272 0.71237 0.0
H956 H 0.84309 0.5408 0.71429 0.0
H957 H 0.93693 0.60169 0.7248 0.0
H958 H 0.85759 0.63627 0.88362 0.0
H959 H 0.84326 0.57234 0.78085 0.0
H960 H 0.88277 0.60164 0.71747 0.0
O961 O 0.73708 0.60897 0.73581 0.0
H962 H 0.74388 0.63158 0.90798 0.0
H963 H 0.69592 0.63341 0.7612 0.0
H964 H 0.94307 0.64044 0.89728 0.0
H965 H 0.82261 0.58594 0.58342 0.0
H966 H 0.96763 0.62055 0.80532 0.0
H967 H 0.83429 0.5477 0.61509 0.0
O968 O 0.82258 0.64629 0.82581 0.0
H969 H 0.74458 0.66637 0.60192 0.0
H970 H 0.73048 0.67485 0.80488 0.0
H971 H 0.71042 0.70266 0.74087 0.0
H972 H 0.718 0.69887 0.63932 0.0
H973 H 0.7614 0.63759 0.66618 0.0
H974 H 0.65273 0.63924 0.81745 0.0
H975 H 0.65542 0.64231 0.92022 0.0
O976 O 0.77613 0.65042 0.83998 0.0
C977 C 0.78884 0.59328 0.846 0.0
C978 C 0.69999 0.63719 0.92077 0.0
C979 C 0.67269 0.63774 0.83761 0.0
N980 N 0.72256 0.63283 0.83114 0.0
C981 C 0.72402 0.63363 0.88786 0.0
C982 C 0.6972 0.63427 0.80601 0.0
C983 C 0.6742 0.63945 0.89531 0.0
C984 C 0.82655 0.60025 0.6652 0.0
N985 N 0.83261 0.59658 0.7199 0.0
C986 C 0.82739 0.58285 0.62658 0.0
C987 C 0.83377 0.56138 0.64439 0.0
C988 C 0.83906 0.55756 0.70029 0.0
C989 C 0.83865 0.57544 0.73773 0.0
C990 C 0.9255 0.60903 0.75959 0.0
C991 C 0.87443 0.63046 0.85603 0.0
C992 C 0.8898 0.6082 0.75639 0.0
N993 N 0.86734 0.61799 0.79957 0.0
C994 C 0.92969 0.63317 0.86561 0.0
C995 C 0.9451 0.62063 0.80961 0.0
C996 C 0.80154 0.65508 0.85107 0.0
C997 C 0.7412 0.66829 0.64635 0.0
C998 C 0.73338 0.67283 0.76042 0.0
C999 C 0.72204 0.68866 0.72455 0.0
C1000 C 0.72625 0.68649 0.6673 0.0
N1001 N 0.74684 0.65446 0.73939 0.0
C1002 C 0.75104 0.65221 0.68314 0.0
Co1003 Co 0.59788 0.58261 0.03729 0.0
Co1004 Co 0.57439 0.52822 0.03155 0.0
O1005 O 0.58706 0.55576 0.99779 0.0
C1006 C 0.54986 0.59369 0.96767 0.0
O1007 O 0.53633 0.57986 1.00076 0.0
C1008 C 0.62375 0.51521 0.9655 0.0
O1009 O 0.63527 0.53362 0.98384 0.0
O1010 O 0.60606 0.52879 0.08197 0.0
O1011 O 0.62015 0.56469 0.09246 0.0
H1012 H 0.55707 0.47534 0.19082 0.0
H1013 H 0.60687 0.5784 0.91521 0.0
O1014 O 0.57498 0.59948 0.9796 0.0
H1015 H 0.70063 0.59041 0.99016 0.0
H1016 H 0.63424 0.66762 0.02131 0.0
H1017 H 0.58964 0.59858 0.16118 0.0
H1018 H 0.65927 0.58923 0.05335 0.0
H1019 H 0.626 0.62571 0.99494 0.0
O1020 O 0.59823 0.51089 0.97744 0.0
H1021 H 0.56834 0.51169 0.14734 0.0
H1022 H 0.55588 0.48428 0.98674 0.0
H1023 H 0.59771 0.66469 0.20729 0.0
H1024 H 0.64776 0.57919 0.85128 0.0
H1025 H 0.62035 0.68798 0.11842 0.0
H1026 H 0.69516 0.58503 0.88883 0.0
O1027 O 0.56469 0.58052 0.08844 0.0
H1028 H 0.53267 0.53469 0.84261 0.0
H1029 H 0.51204 0.52567 0.04326 0.0
H1030 H 0.47341 0.52806 0.97805 0.0
H1031 H 0.48338 0.53247 0.87659 0.0
H1032 H 0.57088 0.53253 0.90955 0.0
H1033 H 0.54459 0.44755 0.02847 0.0
H1034 H 0.54563 0.44289 0.13119 0.0
O1035 O 0.55107 0.54457 0.08902 0.0
C1036 C 0.62196 0.54362 0.10222 0.0
C1037 C 0.55656 0.47719 0.14603 0.0
C1038 C 0.54962 0.46158 0.05487 0.0
N1039 N 0.56236 0.50018 0.06463 0.0
C1040 C 0.56272 0.49777 0.12119 0.0
C1041 C 0.5559 0.48243 0.03149 0.0
C1042 C 0.55011 0.45898 0.11252 0.0
C1043 C 0.62735 0.58127 0.93199 0.0
N1044 N 0.63057 0.5841 0.988 0.0
C1045 C 0.65047 0.58146 0.89553 0.0
C1046 C 0.67706 0.58458 0.91666 0.0
C1047 C 0.68018 0.5875 0.9737 0.0
C1048 C 0.65665 0.58695 0.00912 0.0
C1049 C 0.6255 0.65717 0.05404 0.0
C1050 C 0.59751 0.61319 0.13847 0.0
C1051 C 0.62106 0.62962 0.03782 0.0
N1052 N 0.60824 0.6104 0.07582 0.0
C1053 C 0.60277 0.65573 0.16867 0.0
C1054 C 0.6171 0.67019 0.1145 0.0
C1055 C 0.54947 0.5646 0.10713 0.0
C1056 C 0.52795 0.5324 0.88649 0.0
C1057 C 0.51668 0.52722 0.99932 0.0
C1058 C 0.49464 0.52873 0.96242 0.0
C1059 C 0.5003 0.53122 0.90564 0.0
N1060 N 0.54372 0.52819 0.98021 0.0
C1061 C 0.54951 0.53094 0.92463 0.0
Co1062 Co 0.66928 0.36377 0.25168 0.0
Co1063 Co 0.73967 0.35158 0.2609 0.0
O1064 O 0.70709 0.36185 0.22218 0.0
C1065 C 0.6693 0.32689 0.17029 0.0
O1066 O 0.68724 0.31737 0.20307 0.0
C1067 C 0.755 0.39665 0.22551 0.0
O1068 O 0.73339 0.40259 0.2558 0.0
O1069 O 0.72952 0.37115 0.32488 0.0
O1070 O 0.68302 0.38015 0.32099 0.0
H1071 H 0.79414 0.32538 0.4255 0.0
H1072 H 0.6369 0.37693 0.14951 0.0
O1073 O 0.65812 0.34555 0.1842 0.0
H1074 H 0.68781 0.44475 0.20282 0.0
H1075 H 0.57318 0.33311 0.28761 0.0
H1076 H 0.6328 0.40019 0.29784 0.0
H1077 H 0.68601 0.41246 0.26494 0.0
H1078 H 0.62321 0.33133 0.26058 0.0
O1079 O 0.76195 0.37611 0.22299 0.0
H1080 H 0.75224 0.33873 0.37732 0.0
H1081 H 0.79908 0.34422 0.22567 0.0
H1082 H 0.5825 0.40306 0.32238 0.0
H1083 H 0.63594 0.40963 0.08889 0.0
H1084 H 0.55253 0.36903 0.3182 0.0
H1085 H 0.66229 0.4438 0.11407 0.0
O1086 O 0.67272 0.33632 0.29748 0.0
H1087 H 0.7443 0.33171 0.05822 0.0
H1088 H 0.75318 0.30349 0.24953 0.0
H1089 H 0.75396 0.27678 0.17106 0.0
H1090 H 0.74992 0.29093 0.07433 0.0
H1091 H 0.74207 0.35743 0.13812 0.0
H1092 H 0.84154 0.331 0.2723 0.0
H1093 H 0.83912 0.32119 0.37277 0.0
O1094 O 0.71835 0.32751 0.30104 0.0
C1095 C 0.70726 0.38058 0.34444 0.0
C1096 C 0.79541 0.32944 0.38162 0.0
C1097 C 0.82201 0.33259 0.29563 0.0
N1098 N 0.77311 0.34194 0.29855 0.0
C1099 C 0.77175 0.33703 0.35409 0.0
C1100 C 0.79791 0.3401 0.26948 0.0
C1101 C 0.82064 0.3271 0.352 0.0
C1102 C 0.64909 0.39127 0.16107 0.0
N1103 N 0.66466 0.39137 0.20839 0.0
C1104 C 0.64803 0.41002 0.12647 0.0
C1105 C 0.66271 0.42919 0.14064 0.0
C1106 C 0.67709 0.4297 0.19031 0.0
C1107 C 0.67685 0.4109 0.22476 0.0
C1108 C 0.58606 0.34796 0.28964 0.0
C1109 C 0.61971 0.38556 0.29494 0.0
C1110 C 0.6144 0.34703 0.2747 0.0
N1111 N 0.63078 0.36569 0.27738 0.0
C1112 C 0.59128 0.38722 0.30923 0.0
C1113 C 0.57446 0.36822 0.30677 0.0
C1114 C 0.69274 0.32438 0.31473 0.0
C1115 C 0.74664 0.32531 0.09996 0.0
C1116 C 0.7515 0.30959 0.20762 0.0
C1117 C 0.75209 0.2945 0.16329 0.0
C1118 C 0.74966 0.30245 0.10908 0.0
N1119 N 0.74764 0.33186 0.1985 0.0
C1120 C 0.74564 0.33985 0.14544 0.0
Co1121 Co 0.90643 0.4082 0.53657 0.0
Co1122 Co 0.91925 0.46461 0.54263 0.0
O1123 O 0.909 0.4378 0.50495 0.0
C1124 C 0.92438 0.40569 0.41893 0.0
O1125 O 0.90159 0.41725 0.4097 0.0
C1126 C 0.86852 0.49146 0.52713 0.0
O1127 O 0.86857 0.494 0.58143 0.0
O1128 O 0.89288 0.45717 0.60358 0.0
O1129 O 0.88466 0.41984 0.60409 0.0
H1130 H 0.93736 0.5134 0.70813 0.0
H1131 H 0.8829 0.37132 0.46785 0.0
O1132 O 0.92937 0.39852 0.46824 0.0
H1133 H 0.81264 0.43166 0.46616 0.0
H1134 H 0.94356 0.3315 0.57784 0.0
H1135 H 0.86198 0.38172 0.59502 0.0
H1136 H 0.85544 0.43566 0.52017 0.0
H1137 H 0.94605 0.37019 0.5419 0.0
O1138 O 0.88805 0.48028 0.50277 0.0
H1139 H 0.93156 0.47749 0.65916 0.0
H1140 H 0.92583 0.51152 0.50478 0.0
H1141 H 0.85854 0.34331 0.63161 0.0
H1142 H 0.83988 0.36634 0.41432 0.0
H1143 H 0.89945 0.31782 0.62278 0.0
H1144 H 0.80468 0.39675 0.41207 0.0
O1145 O 0.94192 0.41213 0.57889 0.0
H1146 H 0.94731 0.47387 0.34094 0.0
H1147 H 0.98169 0.46953 0.53244 0.0
H1148 H 0.0153 0.47035 0.45425 0.0
H1149 H 0.99845 0.47373 0.3577 0.0
H1150 H 0.91413 0.47045 0.42001 0.0
H1151 H 0.92985 0.54786 0.55246 0.0
H1152 H 0.93418 0.54893 0.65517 0.0
O1153 O 0.94889 0.44907 0.58609 0.0
C1154 C 0.88131 0.4397 0.62369 0.0
C1155 C 0.93483 0.51312 0.66347 0.0
C1156 C 0.93067 0.53248 0.5761 0.0
N1157 N 0.9287 0.49241 0.57911 0.0
C1158 C 0.93205 0.49282 0.63542 0.0
C1159 C 0.92862 0.51186 0.54929 0.0
C1160 C 0.93333 0.53306 0.63369 0.0
C1161 C 0.86725 0.38439 0.46848 0.0
N1162 N 0.8716 0.4037 0.49754 0.0
C1163 C 0.84306 0.38155 0.43768 0.0
C1164 C 0.82331 0.39866 0.43648 0.0
C1165 C 0.8277 0.41817 0.46681 0.0
C1166 C 0.85201 0.42035 0.49754 0.0
C1167 C 0.92551 0.34239 0.5816 0.0
C1168 C 0.87988 0.37074 0.59111 0.0
C1169 C 0.92683 0.36427 0.56134 0.0
N1170 N 0.90415 0.37808 0.56607 0.0
C1171 C 0.87777 0.34896 0.61168 0.0
C1172 C 0.90076 0.33471 0.6068 0.0
C1173 C 0.95521 0.42891 0.59791 0.0
C1174 C 0.95496 0.47301 0.38296 0.0
C1175 C 0.9738 0.47023 0.49077 0.0
C1176 C 0.99312 0.47088 0.44639 0.0
C1177 C 0.98363 0.47274 0.39226 0.0
N1178 N 0.94566 0.47043 0.48155 0.0
C1179 C 0.93621 0.47148 0.42824 0.0
Co1180 Co 0.83695 0.36405 0.78938 0.0
Co1181 Co 0.7675 0.34934 0.78969 0.0
O1182 O 0.80046 0.36095 0.82465 0.0
C1183 C 0.84324 0.35671 0.90984 0.0
O1184 O 0.82693 0.37422 0.9162 0.0
C1185 C 0.74968 0.38702 0.86462 0.0
O1186 O 0.77558 0.38984 0.87978 0.0
O1187 O 0.77189 0.37248 0.73183 0.0
O1188 O 0.8191 0.37564 0.71762 0.0
H1189 H 0.71055 0.32476 0.62708 0.0
H1190 H 0.88061 0.38833 0.85113 0.0
O1191 O 0.8521 0.35115 0.86096 0.0
H1192 H 0.80583 0.44382 0.82512 0.0
H1193 H 0.9349 0.33726 0.75238 0.0
H1194 H 0.86708 0.3976 0.71763 0.0
H1195 H 0.80113 0.4057 0.78799 0.0
H1196 H 0.88652 0.33486 0.78951 0.0
O1197 O 0.74277 0.37055 0.83406 0.0
H1198 H 0.75208 0.34009 0.67281 0.0
H1199 H 0.71095 0.33513 0.83075 0.0
H1200 H 0.91597 0.40115 0.68178 0.0
H1201 H 0.88543 0.42598 0.89118 0.0
H1202 H 0.94987 0.37061 0.69867 0.0
H1203 H 0.84751 0.45382 0.87961 0.0
O1204 O 0.83528 0.33322 0.75952 0.0
H1205 H 0.77617 0.31986 0.98447 0.0
H1206 H 0.76083 0.30012 0.78857 0.0
H1207 H 0.76736 0.27019 0.85747 0.0
H1208 H 0.77472 0.27997 0.95651 0.0
H1209 H 0.77072 0.34918 0.91385 0.0
H1210 H 0.66865 0.32027 0.78652 0.0
H1211 H 0.66851 0.31454 0.68412 0.0
O1212 O 0.79011 0.32893 0.74054 0.0
C1213 C 0.79336 0.37897 0.70339 0.0
C1214 C 0.71044 0.32698 0.67179 0.0
C1215 C 0.68697 0.32438 0.76132 0.0
N1216 N 0.73412 0.33814 0.75448 0.0
C1217 C 0.73393 0.33561 0.69796 0.0
C1218 C 0.71092 0.33289 0.78609 0.0
C1219 C 0.68686 0.32126 0.70383 0.0
C1220 C 0.86399 0.40035 0.84566 0.0
N1221 N 0.84033 0.3945 0.81791 0.0
C1222 C 0.86685 0.42165 0.86857 0.0
C1223 C 0.84556 0.43724 0.86208 0.0
C1224 C 0.82211 0.43158 0.83167 0.0
C1225 C 0.81977 0.40999 0.80996 0.0
C1226 C 0.92025 0.35067 0.74486 0.0
C1227 C 0.882 0.38446 0.72548 0.0
C1228 C 0.89279 0.34937 0.76554 0.0
N1229 N 0.87414 0.3662 0.75609 0.0
C1230 C 0.90953 0.38655 0.70517 0.0
C1231 C 0.92865 0.36945 0.71477 0.0
C1232 C 0.8157 0.32344 0.73449 0.0
C1233 C 0.77233 0.31537 0.94172 0.0
C1234 C 0.76383 0.3045 0.83152 0.0
C1235 C 0.76751 0.28749 0.87043 0.0
C1236 C 0.77176 0.29299 0.92593 0.0
N1237 N 0.76512 0.32643 0.84695 0.0
C1238 C 0.76899 0.33195 0.90145 0.0
Co1239 Co 0.90483 0.58307 0.96497 0.0
Co1240 Co 0.92052 0.52785 0.99037 0.0
O1241 O 0.91027 0.55761 0.01363 0.0
C1242 C 0.9274 0.60929 0.06422 0.0
O1243 O 0.90309 0.61801 0.07857 0.0
C1244 C 0.86547 0.5197 0.04499 0.0
O1245 O 0.85457 0.5358 0.01535 0.0
O1246 O 0.8931 0.52905 0.93067 0.0
O1247 O 0.88107 0.56492 0.91296 0.0
H1248 H 0.93662 0.46644 0.8508 0.0
H1249 H 0.8829 0.57386 0.08287 0.0
O1250 O 0.93088 0.59935 0.01729 0.0
H1251 H 0.80948 0.6184 0.99455 0.0
H1252 H 0.89484 0.67252 0.93845 0.0
H1253 H 0.90693 0.58677 0.83623 0.0
H1254 H 0.85078 0.60647 0.94067 0.0
H1255 H 0.89536 0.63344 0.98772 0.0
O1256 O 0.89146 0.51539 0.0415 0.0
H1257 H 0.93051 0.50551 0.88155 0.0
H1258 H 0.92789 0.4847 0.0506 0.0
H1259 H 0.9067 0.64691 0.75158 0.0
H1260 H 0.83965 0.5817 0.13429 0.0
H1261 H 0.90004 0.68086 0.8282 0.0
H1262 H 0.8032 0.60566 0.09243 0.0
O1263 O 0.93889 0.57521 0.92037 0.0
H1264 H 0.94916 0.53514 0.18926 0.0
H1265 H 0.98161 0.51771 0.99802 0.0
H1266 H 0.01444 0.51491 0.07563 0.0
H1267 H 0.99837 0.52296 0.17164 0.0
H1268 H 0.91689 0.53771 0.11091 0.0
H1269 H 0.93362 0.44537 0.02163 0.0
H1270 H 0.93804 0.43604 0.92106 0.0
O1271 O 0.94989 0.53935 0.93707 0.0
C1272 C 0.87932 0.54377 0.9046 0.0
C1273 C 0.93481 0.47031 0.89473 0.0
C1274 C 0.93314 0.45848 0.99063 0.0
N1275 N 0.92948 0.49747 0.96786 0.0
C1276 C 0.9317 0.49244 0.91243 0.0
C1277 C 0.93007 0.48081 0.0068 0.0
C1278 C 0.93556 0.45325 0.93418 0.0
C1279 C 0.86692 0.58322 0.06204 0.0
N1280 N 0.87082 0.59082 0.00852 0.0
C1281 C 0.8425 0.58813 0.09251 0.0
C1282 C 0.82203 0.60143 0.06891 0.0
C1283 C 0.82562 0.60868 0.01427 0.0
C1284 C 0.84971 0.60248 0.98418 0.0
C1285 C 0.89735 0.6582 0.91137 0.0
C1286 C 0.90459 0.60404 0.85053 0.0
C1287 C 0.8977 0.6327 0.94329 0.0
N1288 N 0.90108 0.60885 0.91537 0.0
C1289 C 0.90465 0.64269 0.79579 0.0
C1290 C 0.90059 0.66374 0.84256 0.0
C1291 C 0.95421 0.55801 0.91268 0.0
C1292 C 0.95642 0.53108 0.14749 0.0
C1293 C 0.97438 0.5213 0.03986 0.0
C1294 C 0.9931 0.51978 0.08351 0.0
C1295 C 0.984 0.52442 0.13763 0.0
N1296 N 0.94714 0.52702 0.05009 0.0
C1297 C 0.93822 0.53241 0.1029 0.0
Co1298 Co 0.6668 0.62815 0.2398 0.0
Co1299 Co 0.7383 0.63485 0.25143 0.0
O1300 O 0.70106 0.63059 0.2811 0.0
C1301 C 0.63803 0.64971 0.34282 0.0
O1302 O 0.62504 0.63124 0.35718 0.0
C1303 C 0.74267 0.59154 0.30995 0.0
O1304 O 0.72159 0.58458 0.28046 0.0
O1305 O 0.73181 0.61205 0.19431 0.0
O1306 O 0.68504 0.60681 0.18394 0.0
H1307 H 0.82303 0.67926 0.19139 0.0
H1308 H 0.6804 0.61379 0.3571 0.0
O1309 O 0.65121 0.6512 0.29572 0.0
H1310 H 0.61306 0.55799 0.29428 0.0
H1311 H 0.55351 0.62804 0.24279 0.0
H1312 H 0.65479 0.63446 0.113 0.0
H1313 H 0.63202 0.58603 0.22715 0.0
H1314 H 0.6043 0.62042 0.27527 0.0
O1315 O 0.75155 0.61156 0.30507 0.0
H1316 H 0.77333 0.67392 0.21717 0.0
H1317 H 0.78527 0.60378 0.22574 0.0
H1318 H 0.57563 0.64781 0.05505 0.0
H1319 H 0.66679 0.58334 0.41867 0.0
H1320 H 0.53754 0.64143 0.14104 0.0
H1321 H 0.63179 0.55554 0.38835 0.0
O1322 O 0.67838 0.65376 0.19158 0.0
H1323 H 0.78861 0.67092 0.41016 0.0
H1324 H 0.70662 0.67479 0.28929 0.0
H1325 H 0.71327 0.70368 0.36104 0.0
H1326 H 0.75308 0.70089 0.42445 0.0
H1327 H 0.7824 0.64331 0.33508 0.0
H1328 H 0.83552 0.60854 0.20319 0.0
H1329 H 0.85453 0.64637 0.18382 0.0
O1330 O 0.7253 0.6575 0.19587 0.0
C1331 C 0.71093 0.60297 0.17083 0.0
C1332 C 0.81484 0.66263 0.19805 0.0
C1333 C 0.82182 0.6229 0.20458 0.0
N1334 N 0.77634 0.63861 0.22305 0.0
C1335 C 0.78664 0.65951 0.21243 0.0
C1336 C 0.79341 0.62036 0.21798 0.0
C1337 C 0.83253 0.64417 0.19419 0.0
C1338 C 0.6669 0.60109 0.34059 0.0
N1339 N 0.65632 0.60264 0.28789 0.0
C1340 C 0.65874 0.58398 0.37692 0.0
C1341 C 0.6392 0.56841 0.35996 0.0
C1342 C 0.62903 0.5696 0.30634 0.0
C1343 C 0.63912 0.58605 0.26951 0.0
C1344 C 0.56993 0.63029 0.21161 0.0
C1345 C 0.63408 0.63378 0.13323 0.0
C1346 C 0.60326 0.62521 0.23257 0.0
N1347 N 0.63161 0.62719 0.19739 0.0
C1348 C 0.58318 0.6425 0.09564 0.0
C1349 C 0.55951 0.63852 0.14816 0.0
C1350 C 0.70149 0.66273 0.17607 0.0
C1351 C 0.77067 0.67198 0.38348 0.0
C1352 C 0.72477 0.67402 0.31523 0.0
C1353 C 0.72814 0.69019 0.35638 0.0
C1354 C 0.75092 0.68889 0.3913 0.0
N1355 N 0.7442 0.65753 0.3076 0.0
C1356 C 0.767 0.65638 0.341 0.0
Co1357 Co 0.58959 0.4186 0.47076 0.0
Co1358 Co 0.57277 0.47327 0.4423 0.0
O1359 O 0.58166 0.44917 0.49176 0.0
C1360 C 0.54062 0.41806 0.54718 0.0
O1361 O 0.52806 0.4294 0.50826 0.0
C1362 C 0.62262 0.48801 0.50011 0.0
O1363 O 0.63242 0.46809 0.48836 0.0
O1364 O 0.6045 0.46538 0.39311 0.0
O1365 O 0.61336 0.42845 0.40423 0.0
H1366 H 0.56377 0.51095 0.25671 0.0
H1367 H 0.59673 0.42679 0.59286 0.0
O1368 O 0.56485 0.40974 0.53687 0.0
H1369 H 0.6926 0.42644 0.51677 0.0
H1370 H 0.56265 0.33769 0.46109 0.0
H1371 H 0.63758 0.3915 0.41701 0.0
H1372 H 0.65372 0.42043 0.45551 0.0
H1373 H 0.5555 0.37772 0.47896 0.0
O1374 O 0.59808 0.49345 0.48528 0.0
H1375 H 0.56911 0.47873 0.31971 0.0
H1376 H 0.56031 0.52132 0.46027 0.0
H1377 H 0.64552 0.35183 0.3993 0.0
H1378 H 0.63547 0.43096 0.65565 0.0
H1379 H 0.60818 0.32437 0.42177 0.0
H1380 H 0.68414 0.43098 0.61823 0.0
O1381 O 0.55703 0.41736 0.419 0.0
H1382 H 0.5277 0.48699 0.62925 0.0
H1383 H 0.51079 0.47756 0.42882 0.0
H1384 H 0.47074 0.47928 0.49484 0.0
H1385 H 0.47923 0.48476 0.59593 0.0
H1386 H 0.56714 0.48279 0.56276 0.0
H1387 H 0.55507 0.55405 0.39882 0.0
H1388 H 0.55747 0.549 0.29639 0.0
O1389 O 0.54865 0.45331 0.3967 0.0
C1390 C 0.61754 0.44745 0.38063 0.0
C1391 C 0.56257 0.51333 0.30133 0.0
C1392 C 0.55781 0.53754 0.38111 0.0
N1393 N 0.56441 0.49809 0.39362 0.0
C1394 C 0.56534 0.49512 0.33722 0.0
C1395 C 0.56058 0.51894 0.41568 0.0
C1396 C 0.55899 0.53467 0.32358 0.0
C1397 C 0.61745 0.42456 0.57573 0.0
N1398 N 0.62203 0.42042 0.5201 0.0
C1399 C 0.63959 0.42777 0.61189 0.0
C1400 C 0.66687 0.42786 0.59089 0.0
C1401 C 0.67162 0.42499 0.53412 0.0
C1402 C 0.64903 0.42119 0.49934 0.0
C1403 C 0.57948 0.3494 0.45273 0.0
C1404 C 0.62151 0.37998 0.42974 0.0
C1405 C 0.57569 0.37217 0.4634 0.0
N1406 N 0.5968 0.38719 0.45335 0.0
C1407 C 0.62604 0.35732 0.41855 0.0
C1408 C 0.60497 0.34193 0.43066 0.0
C1409 C 0.54438 0.43235 0.39079 0.0
C1410 C 0.52382 0.48497 0.58531 0.0
C1411 C 0.51466 0.47945 0.4727 0.0
C1412 C 0.49186 0.48046 0.50997 0.0
C1413 C 0.49656 0.48354 0.56653 0.0
N1414 N 0.54139 0.48029 0.49165 0.0
C1415 C 0.5461 0.48299 0.54719 0.0
Co1416 Co 0.16574 0.37686 0.23874 0.0
Co1417 Co 0.23597 0.36491 0.24943 0.0
O1418 O 0.19999 0.37345 0.27917 0.0
C1419 C 0.13633 0.35764 0.34432 0.0
O1420 O 0.12294 0.37622 0.35623 0.0
C1421 C 0.24429 0.40972 0.29723 0.0
O1422 O 0.22029 0.41554 0.27607 0.0
O1423 O 0.23091 0.38493 0.18516 0.0
O1424 O 0.18556 0.39633 0.18038 0.0
H1425 H 0.30516 0.34051 0.10091 0.0
H1426 H 0.17963 0.39076 0.35573 0.0
O1427 O 0.14928 0.35528 0.29725 0.0
H1428 H 0.11874 0.45027 0.2887 0.0
H1429 H 0.05272 0.38425 0.24195 0.0
H1430 H 0.15283 0.36918 0.11309 0.0
H1431 H 0.13557 0.42096 0.22301 0.0
H1432 H 0.10417 0.389 0.27384 0.0
O1433 O 0.25374 0.38995 0.29104 0.0
H1434 H 0.25885 0.35146 0.13861 0.0
H1435 H 0.29248 0.36061 0.29883 0.0
H1436 H 0.07253 0.36015 0.05648 0.0
H1437 H 0.16839 0.42223 0.41618 0.0
H1438 H 0.03536 0.37017 0.14171 0.0
H1439 H 0.13665 0.45206 0.38344 0.0
O1440 O 0.17422 0.35005 0.19297 0.0
H1441 H 0.22972 0.34542 0.45295 0.0
H1442 H 0.25209 0.31795 0.26418 0.0
H1443 H 0.25221 0.29151 0.34307 0.0
H1444 H 0.2417 0.30538 0.43875 0.0
H1445 H 0.22791 0.37066 0.3718 0.0
H1446 H 0.33933 0.34965 0.26318 0.0
H1447 H 0.34589 0.33938 0.16351 0.0
O1448 O 0.21899 0.34008 0.20501 0.0
C1449 C 0.21135 0.39623 0.16287 0.0
C1450 C 0.30263 0.34485 0.14445 0.0
C1451 C 0.32177 0.35003 0.23546 0.0
N1452 N 0.27285 0.35658 0.22074 0.0
C1453 C 0.27642 0.35121 0.16587 0.0
C1454 C 0.29519 0.35626 0.25539 0.0
C1455 C 0.32544 0.34426 0.17957 0.0
C1456 C 0.16758 0.40424 0.3385 0.0
N1457 N 0.15764 0.40326 0.28521 0.0
C1458 C 0.16078 0.42195 0.37407 0.0
C1459 C 0.1431 0.43866 0.35575 0.0
C1460 C 0.13346 0.43787 0.30169 0.0
C1461 C 0.14233 0.42076 0.26564 0.0
C1462 C 0.06882 0.38047 0.21106 0.0
C1463 C 0.1323 0.37147 0.13329 0.0
C1464 C 0.10257 0.38363 0.23162 0.0
N1465 N 0.13056 0.37921 0.19678 0.0
C1466 C 0.08066 0.36559 0.0965 0.0
C1467 C 0.05754 0.37193 0.14849 0.0
C1468 C 0.19495 0.33716 0.18386 0.0
C1469 C 0.23464 0.33916 0.41163 0.0
C1470 C 0.24687 0.32371 0.30537 0.0
C1471 C 0.24734 0.30889 0.3501 0.0
C1472 C 0.24134 0.31671 0.40365 0.0
N1473 N 0.23984 0.34551 0.31326 0.0
C1474 C 0.23381 0.35339 0.36556 0.0
Co1475 Co 0.402 0.4177 0.96448 0.0
Co1476 Co 0.41289 0.4735 0.99521 0.0
O1477 O 0.40435 0.44289 0.01588 0.0
C1478 C 0.42446 0.39074 0.06289 0.0
O1479 O 0.40094 0.38002 0.0729 0.0
C1480 C 0.35626 0.47844 0.04637 0.0
O1481 O 0.34824 0.46016 0.02128 0.0
O1482 O 0.38644 0.4716 0.93437 0.0
O1483 O 0.37783 0.43548 0.91205 0.0
H1484 H 0.4271 0.53655 0.85968 0.0
H1485 H 0.37808 0.42298 0.0821 0.0
O1486 O 0.42816 0.40198 0.01782 0.0
H1487 H 0.30954 0.377 0.98363 0.0
H1488 H 0.39808 0.32837 0.93101 0.0
H1489 H 0.4103 0.41532 0.83521 0.0
H1490 H 0.3504 0.39215 0.9336 0.0
H1491 H 0.39344 0.36688 0.98166 0.0
O1492 O 0.38179 0.48451 0.04466 0.0
H1493 H 0.42374 0.49706 0.88836 0.0
H1494 H 0.41557 0.51649 0.0579 0.0
H1495 H 0.41893 0.35585 0.74872 0.0
H1496 H 0.33591 0.41017 0.13171 0.0
H1497 H 0.41007 0.32113 0.82219 0.0
H1498 H 0.3016 0.38638 0.08347 0.0
O1499 O 0.43616 0.42774 0.92372 0.0
H1500 H 0.44047 0.46396 0.19409 0.0
H1501 H 0.4721 0.48838 0.0071 0.0
H1502 H 0.50386 0.49192 0.08646 0.0
H1503 H 0.48809 0.48011 0.1804 0.0
H1504 H 0.40908 0.46118 0.11409 0.0
H1505 H 0.41804 0.55624 0.03091 0.0
H1506 H 0.42369 0.56649 0.93106 0.0
O1507 O 0.444 0.46389 0.9429 0.0
C1508 C 0.37412 0.45666 0.90637 0.0
C1509 C 0.42458 0.5323 0.90327 0.0
C1510 C 0.41955 0.54335 0.99938 0.0
N1511 N 0.42002 0.50441 0.97481 0.0
C1512 C 0.42313 0.50994 0.91984 0.0
C1513 C 0.41835 0.5208 0.01444 0.0
C1514 C 0.42267 0.5491 0.94336 0.0
C1515 C 0.36305 0.41338 0.05925 0.0
N1516 N 0.36793 0.4076 0.0046 0.0
C1517 C 0.33923 0.40585 0.08833 0.0
C1518 C 0.32004 0.39241 0.06136 0.0
C1519 C 0.32452 0.38712 0.00552 0.0
C1520 C 0.34818 0.39545 0.97746 0.0
C1521 C 0.40118 0.34299 0.90514 0.0
C1522 C 0.40842 0.39787 0.84833 0.0
C1523 C 0.39813 0.36818 0.93802 0.0
N1524 N 0.40157 0.39239 0.91208 0.0
C1525 C 0.41411 0.35965 0.79243 0.0
C1526 C 0.4087 0.33813 0.83725 0.0
C1527 C 0.45021 0.44565 0.91799 0.0
C1528 C 0.44754 0.4695 0.15327 0.0
C1529 C 0.46508 0.48317 0.04805 0.0
C1530 C 0.48317 0.48513 0.09266 0.0
C1531 C 0.47427 0.4784 0.14557 0.0
N1532 N 0.43861 0.47509 0.05627 0.0
C1533 C 0.42988 0.46798 0.10784 0.0
Co1534 Co 0.3311 0.64164 0.77339 0.0
Co1535 Co 0.26379 0.65976 0.75525 0.0
O1536 O 0.29295 0.6465 0.79772 0.0
C1537 C 0.32964 0.64938 0.89439 0.0
O1538 O 0.31026 0.6338 0.89621 0.0
C1539 C 0.22286 0.62378 0.76518 0.0
O1540 O 0.22083 0.62535 0.71088 0.0
O1541 O 0.272 0.63822 0.69508 0.0
O1542 O 0.31848 0.6301 0.69813 0.0
H1543 H 0.2175 0.68764 0.58238 0.0
H1544 H 0.36807 0.61414 0.84551 0.0
O1545 O 0.34206 0.65419 0.84808 0.0
H1546 H 0.28527 0.56723 0.81188 0.0
H1547 H 0.43203 0.66396 0.76182 0.0
H1548 H 0.36365 0.60548 0.71531 0.0
H1549 H 0.28946 0.60457 0.76959 0.0
H1550 H 0.38188 0.6688 0.78504 0.0
O1551 O 0.2377 0.63775 0.79172 0.0
H1552 H 0.25553 0.67087 0.63622 0.0
H1553 H 0.20594 0.67501 0.78445 0.0
H1554 H 0.41401 0.59952 0.69321 0.0
H1555 H 0.36458 0.57689 0.88907 0.0
H1556 H 0.44831 0.62915 0.71608 0.0
H1557 H 0.32273 0.55334 0.87314 0.0
O1558 O 0.33383 0.67228 0.74027 0.0
H1559 H 0.26003 0.68273 0.95545 0.0
H1560 H 0.25964 0.70916 0.76153 0.0
H1561 H 0.26333 0.73655 0.83777 0.0
H1562 H 0.26354 0.72334 0.93574 0.0
H1563 H 0.25702 0.65596 0.87799 0.0
H1564 H 0.16695 0.69122 0.73197 0.0
H1565 H 0.17279 0.698 0.63043 0.0
O1566 O 0.28999 0.68073 0.71602 0.0
C1567 C 0.29432 0.62929 0.67513 0.0
C1568 C 0.21482 0.68504 0.62677 0.0
C1569 C 0.18649 0.68713 0.71078 0.0
N1570 N 0.23327 0.67254 0.7136 0.0
C1571 C 0.23638 0.6757 0.65751 0.0
C1572 C 0.20862 0.67793 0.74024 0.0
C1573 C 0.18974 0.69084 0.65374 0.0
C1574 C 0.35004 0.60381 0.83744 0.0
N1575 N 0.32915 0.61151 0.80432 0.0
C1576 C 0.34807 0.58281 0.86264 0.0
C1577 C 0.32457 0.56961 0.85369 0.0
C1578 C 0.30358 0.57738 0.81926 0.0
C1579 C 0.30621 0.5985 0.79491 0.0
C1580 C 0.41722 0.65097 0.75171 0.0
C1581 C 0.37868 0.61819 0.72577 0.0
C1582 C 0.38881 0.65363 0.76456 0.0
N1583 N 0.36999 0.63733 0.75175 0.0
C1584 C 0.40706 0.61478 0.71313 0.0
C1585 C 0.42635 0.63136 0.72603 0.0
C1586 C 0.31632 0.68415 0.71397 0.0
C1587 C 0.25938 0.68873 0.91314 0.0
C1588 C 0.2593 0.70339 0.80401 0.0
C1589 C 0.26146 0.71893 0.84703 0.0
C1590 C 0.26163 0.7115 0.90197 0.0
N1591 N 0.25805 0.68106 0.81522 0.0
C1592 C 0.2575 0.67365 0.86902 0.0
Co1593 Co 0.09688 0.58101 0.46756 0.0
Co1594 Co 0.0807 0.52691 0.43249 0.0
O1595 O 0.0888 0.55015 0.48475 0.0
C1596 C 0.0462 0.57986 0.5401 0.0
O1597 O 0.03426 0.56852 0.50041 0.0
C1598 C 0.1293 0.51169 0.49343 0.0
O1599 O 0.13805 0.53239 0.4889 0.0
O1600 O 0.11345 0.53544 0.38664 0.0
O1601 O 0.12416 0.57162 0.40494 0.0
H1602 H 0.07152 0.49253 0.24309 0.0
H1603 H 0.10046 0.56599 0.58572 0.0
O1604 O 0.07035 0.58838 0.53138 0.0
H1605 H 0.19691 0.58625 0.53199 0.0
H1606 H 0.07394 0.66232 0.49198 0.0
H1607 H 0.14052 0.60972 0.40377 0.0
H1608 H 0.15996 0.58864 0.46436 0.0
H1609 H 0.06383 0.62247 0.49072 0.0
O1610 O 0.1056 0.50608 0.47431 0.0
H1611 H 0.07838 0.52345 0.30932 0.0
H1612 H 0.06732 0.47879 0.44535 0.0
H1613 H 0.15066 0.6498 0.40401 0.0
H1614 H 0.13727 0.56342 0.65471 0.0
H1615 H 0.11889 0.67625 0.45179 0.0
H1616 H 0.18613 0.57365 0.6283 0.0
O1617 O 0.06631 0.58295 0.41164 0.0
H1618 H 0.03363 0.50946 0.61546 0.0
H1619 H 0.01877 0.5233 0.41588 0.0
H1620 H 0.97812 0.52056 0.48007 0.0
H1621 H 0.98557 0.51272 0.58062 0.0
H1622 H 0.0737 0.51499 0.55125 0.0
H1623 H 0.06038 0.44737 0.38059 0.0
H1624 H 0.06318 0.45406 0.27886 0.0
O1625 O 0.05715 0.54747 0.38749 0.0
C1626 C 0.12864 0.5528 0.38007 0.0
C1627 C 0.0702 0.48942 0.2874 0.0
C1628 C 0.06404 0.46405 0.3646 0.0
N1629 N 0.07283 0.50295 0.38109 0.0
C1630 C 0.07397 0.50687 0.32509 0.0
C1631 C 0.06791 0.4819 0.40103 0.0
C1632 C 0.06536 0.46787 0.30745 0.0
C1633 C 0.12123 0.57152 0.57393 0.0
N1634 N 0.12708 0.57935 0.52132 0.0
C1635 C 0.14221 0.56958 0.61329 0.0
C1636 C 0.16959 0.57524 0.59848 0.0
C1637 C 0.17567 0.5824 0.54453 0.0
C1638 C 0.15421 0.58414 0.50626 0.0
C1639 C 0.08912 0.65077 0.47422 0.0
C1640 C 0.12643 0.62077 0.42594 0.0
C1641 C 0.08387 0.62785 0.47439 0.0
N1642 N 0.10341 0.61289 0.45436 0.0
C1643 C 0.13228 0.64362 0.42503 0.0
C1644 C 0.11407 0.65859 0.45111 0.0
C1645 C 0.05365 0.56851 0.38203 0.0
C1646 C 0.03021 0.51247 0.57171 0.0
C1647 C 0.0222 0.52048 0.45961 0.0
C1648 C 0.99905 0.51887 0.49584 0.0
C1649 C 0.00317 0.51447 0.55207 0.0
N1650 N 0.04872 0.51912 0.47949 0.0
C1651 C 0.05285 0.51521 0.5348 0.0
Co1652 Co 0.16162 0.65452 0.23609 0.0
Co1653 Co 0.23228 0.64936 0.23708 0.0
O1654 O 0.19642 0.64427 0.20273 0.0
C1655 C 0.16023 0.66144 0.11163 0.0
O1656 O 0.17815 0.64509 0.10502 0.0
C1657 C 0.23605 0.60378 0.19223 0.0
O1658 O 0.2116 0.60016 0.21657 0.0
O1659 O 0.21956 0.62964 0.29724 0.0
O1660 O 0.17533 0.64296 0.31243 0.0
H1661 H 0.29716 0.66253 0.39582 0.0
H1662 H 0.16891 0.61407 0.15635 0.0
O1663 O 0.15034 0.66649 0.16013 0.0
H1664 H 0.08683 0.59741 0.27532 0.0
H1665 H 0.05947 0.67519 0.23279 0.0
H1666 H 0.14593 0.67869 0.34059 0.0
H1667 H 0.11866 0.62794 0.2993 0.0
H1668 H 0.10278 0.6572 0.19779 0.0
O1669 O 0.24738 0.62307 0.19452 0.0
H1670 H 0.25151 0.65625 0.35277 0.0
H1671 H 0.29105 0.64994 0.1936 0.0
H1672 H 0.10348 0.69813 0.37558 0.0
H1673 H 0.13796 0.58343 0.13089 0.0
H1674 H 0.05968 0.6959 0.32235 0.0
H1675 H 0.09546 0.57552 0.18889 0.0
O1676 O 0.17819 0.68442 0.24862 0.0
H1677 H 0.23776 0.67282 0.03742 0.0
H1678 H 0.25361 0.69632 0.23067 0.0
H1679 H 0.25709 0.72411 0.15549 0.0
H1680 H 0.24994 0.7124 0.05747 0.0
H1681 H 0.23282 0.64597 0.11417 0.0
H1682 H 0.33724 0.65619 0.2349 0.0
H1683 H 0.34049 0.66274 0.33663 0.0
O1684 O 0.2185 0.67498 0.28461 0.0
C1685 C 0.19735 0.63172 0.32739 0.0
C1686 C 0.29605 0.65975 0.3514 0.0
C1687 C 0.31852 0.65623 0.26108 0.0
N1688 N 0.26855 0.65308 0.27063 0.0
C1689 C 0.27022 0.65618 0.32679 0.0
C1690 C 0.29231 0.65271 0.23793 0.0
C1691 C 0.32033 0.65988 0.31818 0.0
C1692 C 0.1501 0.61174 0.18053 0.0
N1693 N 0.14348 0.62536 0.22459 0.0
C1694 C 0.13284 0.59379 0.16661 0.0
C1695 C 0.10909 0.58928 0.19925 0.0
C1696 C 0.1042 0.60158 0.24765 0.0
C1697 C 0.1224 0.61898 0.26084 0.0
C1698 C 0.07836 0.67605 0.25679 0.0
C1699 C 0.12704 0.67779 0.31706 0.0
C1700 C 0.10297 0.66588 0.23724 0.0
N1701 N 0.12687 0.66658 0.26765 0.0
C1702 C 0.10302 0.68874 0.33715 0.0
C1703 C 0.07848 0.68764 0.30703 0.0
C1704 C 0.19772 0.68813 0.28202 0.0
C1705 C 0.24164 0.67814 0.07951 0.0
C1706 C 0.25017 0.69109 0.18836 0.0
C1707 C 0.25256 0.70687 0.14576 0.0
C1708 C 0.2483 0.70032 0.09092 0.0
N1709 N 0.24261 0.66958 0.17698 0.0
C1710 C 0.23893 0.66293 0.12328 0.0
Co1711 Co 0.10204 0.42359 0.03234 0.0
Co1712 Co 0.08214 0.47894 0.0242 0.0
O1713 O 0.09449 0.45096 0.99134 0.0
C1714 C 0.05412 0.41488 0.96015 0.0
O1715 O 0.04187 0.4303 0.99063 0.0
C1716 C 0.13264 0.49271 0.95825 0.0
O1717 O 0.14573 0.47447 0.97339 0.0
O1718 O 0.11301 0.47743 0.07655 0.0
O1719 O 0.12535 0.44101 0.0875 0.0
H1720 H 0.06467 0.53267 0.18166 0.0
H1721 H 0.11259 0.42758 0.91105 0.0
O1722 O 0.07827 0.40754 0.97438 0.0
H1723 H 0.20073 0.39966 0.98656 0.0
H1724 H 0.12873 0.33593 0.02499 0.0
H1725 H 0.09178 0.40994 0.15746 0.0
H1726 H 0.16186 0.4109 0.05019 0.0
H1727 H 0.12484 0.37776 0.99408 0.0
O1728 O 0.10711 0.49592 0.97207 0.0
H1729 H 0.07557 0.496 0.13934 0.0
H1730 H 0.06518 0.52307 0.97769 0.0
H1731 H 0.09291 0.3443 0.21042 0.0
H1732 H 0.15174 0.41835 0.84703 0.0
H1733 H 0.11302 0.31819 0.12426 0.0
H1734 H 0.1961 0.40383 0.88482 0.0
O1735 O 0.06853 0.42752 0.08133 0.0
H1736 H 0.04489 0.47407 0.83113 0.0
H1737 H 0.01944 0.48185 0.03002 0.0
H1738 H 0.98269 0.48042 0.96098 0.0
H1739 H 0.99487 0.47674 0.86043 0.0
H1740 H 0.08134 0.47521 0.90183 0.0
H1741 H 0.05431 0.56006 0.01819 0.0
H1742 H 0.05432 0.56506 0.12083 0.0
O1743 O 0.05677 0.46367 0.08044 0.0
C1744 C 0.12808 0.46211 0.09729 0.0
C1745 C 0.06461 0.53069 0.13687 0.0
C1746 C 0.05883 0.54607 0.0451 0.0
N1747 N 0.07066 0.50733 0.05618 0.0
C1748 C 0.0706 0.50994 0.1127 0.0
C1749 C 0.06488 0.52506 0.02241 0.0
C1750 C 0.05879 0.54886 0.10272 0.0
C1751 C 0.13208 0.4219 0.92813 0.0
N1752 N 0.13479 0.41943 0.98438 0.0
C1753 C 0.15414 0.4166 0.89151 0.0
C1754 C 0.17901 0.40849 0.91275 0.0
C1755 C 0.18182 0.4065 0.9701 0.0
C1756 C 0.15971 0.41277 0.00572 0.0
C1757 C 0.12123 0.34747 0.05659 0.0
C1758 C 0.09804 0.3945 0.13628 0.0
C1759 C 0.11966 0.37492 0.03742 0.0
N1760 N 0.10903 0.39557 0.07337 0.0
C1761 C 0.09885 0.35226 0.1709 0.0
C1762 C 0.11157 0.33604 0.11836 0.0
C1763 C 0.05369 0.4438 0.09855 0.0
C1764 C 0.03913 0.47617 0.87463 0.0
C1765 C 0.02521 0.48073 0.98655 0.0
C1766 C 0.00416 0.4797 0.94739 0.0
C1767 C 0.01111 0.47758 0.89108 0.0
N1768 N 0.05263 0.47967 0.97012 0.0
C1769 C 0.05971 0.47711 0.91496 0.0
Co1770 Co 0.33873 0.37842 0.75273 0.0
Co1771 Co 0.26853 0.36604 0.75313 0.0
O1772 O 0.30359 0.37326 0.71661 0.0
C1773 C 0.34621 0.33919 0.6789 0.0
O1774 O 0.32875 0.32938 0.71377 0.0
C1775 C 0.25728 0.40551 0.68489 0.0
O1776 O 0.28105 0.4136 0.70237 0.0
O1777 O 0.27297 0.39153 0.80392 0.0
O1778 O 0.31943 0.3983 0.81151 0.0
H1779 H 0.20227 0.35674 0.91651 0.0
H1780 H 0.33397 0.38553 0.63149 0.0
O1781 O 0.35616 0.35849 0.69152 0.0
H1782 H 0.35391 0.46007 0.70568 0.0
H1783 H 0.44757 0.40236 0.73062 0.0
H1784 H 0.36199 0.364 0.86975 0.0
H1785 H 0.35095 0.42743 0.76936 0.0
H1786 H 0.39424 0.4004 0.71079 0.0
O1787 O 0.24883 0.38636 0.701 0.0
H1788 H 0.248 0.36379 0.87021 0.0
H1789 H 0.21208 0.35421 0.71179 0.0
H1790 H 0.44611 0.36268 0.90244 0.0
H1791 H 0.33845 0.41733 0.56757 0.0
H1792 H 0.47445 0.38392 0.81715 0.0
H1793 H 0.34853 0.45507 0.60492 0.0
O1794 O 0.33302 0.35201 0.80172 0.0
H1795 H 0.26893 0.33303 0.56095 0.0
H1796 H 0.26486 0.31606 0.76147 0.0
H1797 H 0.26567 0.28549 0.69383 0.0
H1798 H 0.26732 0.29359 0.59267 0.0
H1799 H 0.26929 0.36323 0.62985 0.0
H1800 H 0.16584 0.34727 0.75638 0.0
H1801 H 0.16068 0.34886 0.8594 0.0
O1802 O 0.28685 0.34613 0.80944 0.0
C1803 C 0.29342 0.40259 0.82336 0.0
C1804 C 0.20424 0.35606 0.87158 0.0
C1805 C 0.1838 0.35077 0.78167 0.0
N1806 N 0.23275 0.35913 0.7884 0.0
C1807 C 0.2301 0.35996 0.84512 0.0
C1808 C 0.21003 0.35463 0.75666 0.0
C1809 C 0.18093 0.35161 0.8395 0.0
C1810 C 0.3395 0.40161 0.64822 0.0
N1811 N 0.34337 0.4043 0.70414 0.0
C1812 C 0.34153 0.41969 0.61168 0.0
C1813 C 0.34703 0.44084 0.63265 0.0
C1814 C 0.35019 0.44362 0.68964 0.0
C1815 C 0.34823 0.42513 0.7252 0.0
C1816 C 0.43469 0.39435 0.76237 0.0
C1817 C 0.37996 0.37031 0.8459 0.0
C1818 C 0.39952 0.39382 0.7509 0.0
N1819 N 0.37547 0.38281 0.78827 0.0
C1820 C 0.43424 0.36961 0.86802 0.0
C1821 C 0.45191 0.38311 0.81627 0.0
C1822 C 0.31194 0.34219 0.82364 0.0
C1823 C 0.26744 0.32916 0.60493 0.0
C1824 C 0.26485 0.31995 0.71783 0.0
C1825 C 0.26559 0.30246 0.67944 0.0
C1826 C 0.26664 0.30707 0.6227 0.0
N1827 N 0.26538 0.34159 0.7003 0.0
C1828 C 0.26713 0.34626 0.64447 0.0
Co1829 Co 0.4009 0.59306 0.5475 0.0
Co1830 Co 0.41279 0.53649 0.5568 0.0
O1831 O 0.40286 0.56316 0.51719 0.0
C1832 C 0.41947 0.59525 0.43034 0.0
O1833 O 0.39711 0.58324 0.42046 0.0
C1834 C 0.3577 0.51791 0.52012 0.0
O1835 O 0.34464 0.52825 0.56102 0.0
O1836 O 0.38489 0.54397 0.61535 0.0
O1837 O 0.37899 0.58179 0.61561 0.0
H1838 H 0.43045 0.48899 0.72512 0.0
H1839 H 0.37946 0.62942 0.4747 0.0
O1840 O 0.42402 0.60243 0.47965 0.0
H1841 H 0.30446 0.57286 0.48265 0.0
H1842 H 0.44074 0.66876 0.58823 0.0
H1843 H 0.35657 0.62118 0.60129 0.0
H1844 H 0.34773 0.56776 0.53534 0.0
H1845 H 0.44203 0.62982 0.55424 0.0
O1846 O 0.38413 0.51969 0.51263 0.0
H1847 H 0.42388 0.52442 0.67453 0.0
H1848 H 0.41917 0.48914 0.52173 0.0
H1849 H 0.3541 0.6601 0.63417 0.0
H1850 H 0.33661 0.63539 0.4216 0.0
H1851 H 0.39654 0.68416 0.62841 0.0
H1852 H 0.29895 0.60676 0.42414 0.0
O1853 O 0.43638 0.58911 0.5894 0.0
H1854 H 0.44729 0.53069 0.3585 0.0
H1855 H 0.47502 0.52994 0.5549 0.0
H1856 H 0.51125 0.53049 0.48113 0.0
H1857 H 0.49759 0.53006 0.38178 0.0
H1858 H 0.41162 0.53257 0.43353 0.0
H1859 H 0.42259 0.45321 0.57148 0.0
H1860 H 0.42725 0.45303 0.67425 0.0
O1861 O 0.44103 0.55235 0.60296 0.0
C1862 C 0.37437 0.56201 0.63529 0.0
C1863 C 0.42781 0.48889 0.68049 0.0
C1864 C 0.42337 0.46879 0.5943 0.0
N1865 N 0.4215 0.50891 0.5951 0.0
C1866 C 0.42467 0.50893 0.65147 0.0
C1867 C 0.4214 0.48919 0.56637 0.0
C1868 C 0.42627 0.4687 0.65186 0.0
C1869 C 0.36301 0.61702 0.47681 0.0
N1870 N 0.36621 0.59806 0.5079 0.0
C1871 C 0.33883 0.62044 0.44633 0.0
C1872 C 0.31774 0.60437 0.44783 0.0
C1873 C 0.32084 0.58535 0.48059 0.0
C1874 C 0.34534 0.58251 0.51054 0.0
C1875 C 0.42212 0.65848 0.591 0.0
C1876 C 0.375 0.63162 0.59814 0.0
C1877 C 0.42276 0.63643 0.57201 0.0
N1878 N 0.39938 0.62334 0.57576 0.0
C1879 C 0.37349 0.65367 0.61682 0.0
C1880 C 0.39727 0.66713 0.61345 0.0
C1881 C 0.4485 0.57247 0.61159 0.0
C1882 C 0.45352 0.5304 0.40155 0.0
C1883 C 0.46867 0.53026 0.51206 0.0
C1884 C 0.48942 0.53043 0.47023 0.0
C1885 C 0.48176 0.5302 0.41464 0.0
N1886 N 0.44099 0.53082 0.49902 0.0
C1887 C 0.43334 0.53103 0.44445 0.0
H1888 H 0.17339 0.20052 0.57162 0.0
H1889 H 0.23834 0.17006 0.66789 0.0
H1890 H 0.19951 0.19138 0.48604 0.0
H1891 H 0.26476 0.16133 0.5826 0.0
H1892 H 0.31315 0.20589 0.44039 0.0
H1893 H 0.28719 0.19368 0.52404 0.0
H1894 H 0.22497 0.16275 0.42153 0.0
H1895 H 0.25104 0.17465 0.33833 0.0
C1896 C 0.19233 0.19064 0.57429 0.0
C1897 C 0.20392 0.18607 0.62614 0.0
C1898 C 0.20753 0.18562 0.52537 0.0
C1899 C 0.23447 0.17608 0.52796 0.0
C1900 C 0.24425 0.16892 0.57954 0.0
C1901 C 0.22893 0.17366 0.6282 0.0
C1902 C 0.29477 0.19548 0.43591 0.0
C1903 C 0.28397 0.19134 0.38314 0.0
C1904 C 0.27978 0.18858 0.48367 0.0
C1905 C 0.25384 0.17753 0.47905 0.0
C1906 C 0.24471 0.1714 0.42622 0.0
C1907 C 0.25973 0.17812 0.37874 0.0
H1908 H 0.16831 0.97651 0.62225 0.0
H1909 H 0.13767 0.04435 0.62101 0.0
H1910 H 0.18393 0.9815 0.71732 0.0
H1911 H 0.15124 0.04899 0.7166 0.0
H1912 H 0.1391 0.98282 0.89099 0.0
H1913 H 0.15529 0.98037 0.79564 0.0
H1914 H 0.17674 0.05065 0.79735 0.0
H1915 H 0.15876 0.05331 0.89271 0.0
C1916 C 0.16565 0.9927 0.6419 0.0
C1917 C 0.15121 0.00989 0.61496 0.0
C1918 C 0.17434 0.99553 0.69654 0.0
C1919 C 0.16785 0.01532 0.72575 0.0
C1920 C 0.15665 0.03344 0.69602 0.0
C1921 C 0.14865 0.03079 0.64089 0.0
C1922 C 0.14797 0.99765 0.87172 0.0
C1923 C 0.14671 0.01842 0.89881 0.0
C1924 C 0.1576 0.99623 0.81669 0.0
C1925 C 0.16667 0.01549 0.78778 0.0
C1926 C 0.169 0.03563 0.81758 0.0
C1927 C 0.15884 0.03714 0.87242 0.0
H1928 H 0.26499 0.84494 0.16698 0.0
H1929 H 0.31214 0.79186 0.08745 0.0
H1930 H 0.23871 0.8506 0.08167 0.0
H1931 H 0.28486 0.7969 1.00285 0.0
H1932 H 0.23155 0.85366 0.86956 0.0
H1933 H 0.25599 0.85619 0.958 0.0
H1934 H 0.22017 0.7931 0.00892 0.0
H1935 H 0.19468 0.79105 0.92146 0.0
C1936 C 0.2704 0.83504 0.13054 0.0
C1937 C 0.2905 0.81788 0.13376 0.0
C1938 C 0.25511 0.83809 0.0822 0.0
C1939 C 0.25939 0.82379 0.03672 0.0
C1940 C 0.28102 0.80787 0.03807 0.0
C1941 C 0.29682 0.80518 0.08606 0.0
C1942 C 0.22765 0.84099 0.90105 0.0
C1943 C 0.21116 0.82219 0.88895 0.0
C1944 C 0.24201 0.84226 0.95103 0.0
C1945 C 0.2404 0.82457 0.98911 0.0
C1946 C 0.22191 0.80679 0.9795 0.0
C1947 C 0.20699 0.8058 0.93004 0.0
H1948 H 0.32325 0.05265 0.12481 0.0
H1949 H 0.34336 0.98226 0.12532 0.0
H1950 H 0.31438 0.05135 0.2248 0.0
H1951 H 0.33601 0.98114 0.22477 0.0
H1952 H 0.3748 0.04865 0.37615 0.0
H1953 H 0.35088 0.05096 0.28847 0.0
H1954 H 0.31741 0.98446 0.31459 0.0
H1955 H 0.3429 0.98183 0.40116 0.0
C1956 C 0.32481 0.03671 0.1459 0.0
C1957 C 0.33528 0.01777 0.11764 0.0
C1958 C 0.31997 0.03601 0.20338 0.0
C1959 C 0.32585 0.01646 0.23342 0.0
C1960 C 0.33158 0.99666 0.20353 0.0
C1961 C 0.33598 0.99728 0.146 0.0
C1962 C 0.36168 0.0348 0.36392 0.0
C1963 C 0.36129 0.01486 0.39446 0.0
C1964 C 0.34765 0.03614 0.31367 0.0
C1965 C 0.33259 0.01765 0.29355 0.0
C1966 C 0.32945 0.99875 0.32791 0.0
C1967 C 0.34398 0.99725 0.37755 0.0
H1968 H 0.81802 0.80724 0.46247 0.0
H1969 H 0.77127 0.84585 0.34471 0.0
H1970 H 0.79111 0.82459 0.53887 0.0
H1971 H 0.74357 0.86228 0.42059 0.0
H1972 H 0.68398 0.81521 0.55565 0.0
H1973 H 0.7128 0.82765 0.47674 0.0
H1974 H 0.76591 0.86402 0.58791 0.0
H1975 H 0.73611 0.85253 0.66645 0.0
C1976 C 0.80331 0.82044 0.45314 0.0
C1977 C 0.79642 0.82502 0.39795 0.0
C1978 C 0.78771 0.83026 0.49672 0.0
C1979 C 0.76498 0.84443 0.48517 0.0
C1980 C 0.76093 0.85142 0.4304 0.0
C1981 C 0.77691 0.84205 0.38712 0.0
C1982 C 0.70019 0.82751 0.56271 0.0
C1983 C 0.70815 0.83261 0.61702 0.0
C1984 C 0.71706 0.83436 0.5176 0.0
C1985 C 0.7419 0.84635 0.52675 0.0
C1986 C 0.74694 0.85473 0.57998 0.0
C1987 C 0.72957 0.84841 0.62476 0.0
H1988 H 0.87466 0.94819 0.38785 0.0
H1989 H 0.82879 0.01029 0.39319 0.0
H1990 H 0.86411 0.94399 0.29032 0.0
H1991 H 0.81728 0.00586 0.2955 0.0
H1992 H 0.85653 0.94196 0.1129 0.0
H1993 H 0.83788 0.94085 0.20798 0.0
H1994 H 0.84964 0.01232 0.22099 0.0
H1995 H 0.86715 0.01349 0.12583 0.0
C1996 C 0.86106 0.96037 0.36891 0.0
C1997 C 0.85323 0.97989 0.39754 0.0
C1998 C 0.85493 0.95799 0.31268 0.0
C1999 C 0.84055 0.97499 0.28445 0.0
C2000 C 0.82918 0.99284 0.31553 0.0
C2001 C 0.83566 0.99535 0.37155 0.0
C2002 C 0.85424 0.95753 0.13556 0.0
C2003 C 0.86399 0.97775 0.11236 0.0
C2004 C 0.84364 0.95687 0.19013 0.0
C2005 C 0.84287 0.97637 0.22273 0.0
C2006 C 0.84973 0.99693 0.19729 0.0
C2007 C 0.86002 0.99762 0.14254 0.0
H2008 H 0.74 0.15212 0.86663 0.0
H2009 H 0.70011 0.21084 0.93623 0.0
H2010 H 0.76708 0.14769 0.95155 0.0
H2011 H 0.72779 0.20676 0.02024 0.0
H2012 H 0.81587 0.21333 0.09523 0.0
H2013 H 0.79051 0.20769 0.00884 0.0
H2014 H 0.75361 0.14745 0.07618 0.0
H2015 H 0.77821 0.15353 0.16337 0.0
C2016 C 0.73612 0.16343 0.90117 0.0
C2017 C 0.71788 0.18171 0.89531 0.0
C2018 C 0.75186 0.16107 0.94915 0.0
C2019 C 0.74982 0.17719 0.99124 0.0
C2020 C 0.72979 0.1943 0.98765 0.0
C2021 C 0.71362 0.19639 0.94019 0.0
C2022 C 0.80362 0.19824 0.09036 0.0
C2023 C 0.79902 0.18379 0.13554 0.0
C2024 C 0.78875 0.19524 0.04149 0.0
C2025 C 0.76983 0.1774 0.03693 0.0
C2026 C 0.76803 0.16135 0.07922 0.0
C2027 C 0.78245 0.16461 0.12853 0.0
H2028 H 0.65684 0.02586 0.86176 0.0
H2029 H 0.68427 0.95709 0.86649 0.0
H2030 H 0.66534 0.02666 0.76224 0.0
H2031 H 0.69333 0.95798 0.76643 0.0
H2032 H 0.66588 0.02468 0.58487 0.0
H2033 H 0.68938 0.02299 0.67374 0.0
H2034 H 0.65495 0.95706 0.70227 0.0
H2035 H 0.63208 0.95857 0.61309 0.0
C2036 C 0.66608 0.01125 0.8421 0.0
C2037 C 0.66882 0.99115 0.87158 0.0
C2038 C 0.67103 0.01169 0.78467 0.0
C2039 C 0.67909 0.99209 0.75607 0.0
C2040 C 0.68632 0.97314 0.7871 0.0
C2041 C 0.68127 0.97268 0.84451 0.0
C2042 C 0.66413 0.00952 0.60937 0.0
C2043 C 0.64658 0.99196 0.59279 0.0
C2044 C 0.67759 0.00858 0.66027 0.0
C2045 C 0.67354 0.99015 0.6957 0.0
C2046 C 0.65866 0.97152 0.67602 0.0
C2047 C 0.64537 0.97239 0.62486 0.0
H2048 H 0.82346 0.57359 0.9234 0.0
H2049 H 0.74201 0.56729 0.8526 0.0
H2050 H 0.80407 0.56049 0.01337 0.0
H2051 H 0.72326 0.5529 0.94016 0.0
H2052 H 0.70138 0.55845 0.14208 0.0
H2053 H 0.7252 0.53838 0.0637 0.0
H2054 H 0.76402 0.60027 0.01173 0.0
H2055 H 0.74029 0.61988 0.08676 0.0
C2056 C 0.80176 0.56883 0.92676 0.0
C2057 C 0.78347 0.57412 0.88409 0.0
C2058 C 0.79078 0.56065 0.97746 0.0
C2059 C 0.76163 0.55756 0.98442 0.0
C2060 C 0.74549 0.55633 0.93664 0.0
C2061 C 0.75625 0.56493 0.88662 0.0
C2062 C 0.71462 0.5676 0.11292 0.0
C2063 C 0.71889 0.59069 0.11988 0.0
C2064 C 0.72873 0.55611 0.06929 0.0
C2065 C 0.74773 0.56762 0.03394 0.0
C2066 C 0.75088 0.59075 0.04034 0.0
C2067 C 0.73662 0.60209 0.08232 0.0
H2068 H 0.60692 0.43957 0.27347 0.0
H2069 H 0.66969 0.46456 0.38357 0.0
H2070 H 0.62251 0.466 0.20221 0.0
H2071 H 0.68538 0.49112 0.31197 0.0
H2072 H 0.61201 0.54561 0.20934 0.0
H2073 H 0.62694 0.51765 0.27681 0.0
H2074 H 0.68172 0.48861 0.15177 0.0
H2075 H 0.6684 0.51813 0.08627 0.0
C2076 C 0.62556 0.44939 0.28074 0.0
C2077 C 0.63724 0.44996 0.33375 0.0
C2078 C 0.63418 0.4648 0.2403 0.0
C2079 C 0.65513 0.48047 0.25192 0.0
C2080 C 0.66954 0.4789 0.30193 0.0
C2081 C 0.66083 0.46347 0.3425 0.0
C2082 C 0.62965 0.53495 0.19898 0.0
C2083 C 0.64045 0.53498 0.14466 0.0
C2084 C 0.63759 0.51851 0.23658 0.0
C2085 C 0.65576 0.5013 0.21944 0.0
C2086 C 0.66826 0.50209 0.16617 0.0
C2087 C 0.66083 0.51904 0.12905 0.0
H2088 H 0.74245 0.4149 0.36516 0.0
H2089 H 0.68411 0.36988 0.44594 0.0
H2090 H 0.76592 0.42057 0.45352 0.0
H2091 H 0.70899 0.3743 0.53343 0.0
H2092 H 0.75637 0.41226 0.68494 0.0
H2093 H 0.73205 0.41908 0.59778 0.0
H2094 H 0.78762 0.37304 0.51302 0.0
H2095 H 0.81225 0.36631 0.60013 0.0
C2096 C 0.73396 0.40688 0.40224 0.0
C2097 C 0.71145 0.3918 0.39841 0.0
C2098 C 0.74792 0.40968 0.45241 0.0
C2099 C 0.73996 0.3972 0.49943 0.0
C2100 C 0.71582 0.38382 0.49728 0.0
C2101 C 0.70138 0.38148 0.44735 0.0
C2102 C 0.76424 0.40441 0.64708 0.0
C2103 C 0.78658 0.38907 0.64912 0.0
C2104 C 0.75006 0.4081 0.59753 0.0
C2105 C 0.75791 0.39653 0.54903 0.0
C2106 C 0.78147 0.38241 0.54986 0.0
C2107 C 0.7958 0.37877 0.5995 0.0
H2108 H 0.89729 0.543 0.79884 0.0
H2109 H 0.83021 0.52089 0.90837 0.0
H2110 H 0.88806 0.5117 0.73668 0.0
H2111 H 0.82043 0.48983 0.84464 0.0
H2112 H 0.82866 0.45602 0.63569 0.0
H2113 H 0.81779 0.48452 0.70634 0.0
H2114 H 0.89126 0.46521 0.79552 0.0
H2115 H 0.90175 0.43669 0.72613 0.0
C2116 C 0.87936 0.53236 0.80765 0.0
C2117 C 0.86403 0.53466 0.85767 0.0
C2118 C 0.87457 0.51417 0.77285 0.0
C2119 C 0.8538 0.49841 0.7864 0.0
C2120 C 0.83638 0.50195 0.83323 0.0
C2121 C 0.84162 0.51994 0.86897 0.0
C2122 C 0.84114 0.45666 0.67282 0.0
C2123 C 0.86584 0.44392 0.67585 0.0
C2124 C 0.8352 0.47324 0.71261 0.0
C2125 C 0.85387 0.47704 0.7558 0.0
C2126 C 0.87653 0.46243 0.76257 0.0
C2127 C 0.88217 0.44572 0.72347 0.0
H2128 H 0.32479 0.42243 0.90514 0.0
H2129 H 0.24297 0.42401 0.83434 0.0
H2130 H 0.30421 0.4341 0.99545 0.0
H2131 H 0.2232 0.43806 0.92168 0.0
H2132 H 0.20309 0.44024 0.12624 0.0
H2133 H 0.22637 0.45757 0.04319 0.0
H2134 H 0.26387 0.39399 1.00196 0.0
H2135 H 0.24023 0.37695 0.08049 0.0
C2136 C 0.30271 0.42584 0.90859 0.0
C2137 C 0.28513 0.41987 0.86525 0.0
C2138 C 0.29101 0.43326 0.95947 0.0
C2139 C 0.26176 0.43554 0.96612 0.0
C2140 C 0.24555 0.43531 0.91835 0.0
C2141 C 0.25697 0.42705 0.86841 0.0
C2142 C 0.21609 0.43011 0.09874 0.0
C2143 C 0.22017 0.40726 0.11023 0.0
C2144 C 0.22982 0.44007 0.05221 0.0
C2145 C 0.24824 0.42731 0.01825 0.0
C2146 C 0.25133 0.40451 0.02938 0.0
C2147 C 0.23735 0.39466 0.07403 0.0
H2148 H 0.39442 0.56558 0.73813 0.0
H2149 H 0.32057 0.54752 0.64861 0.0
H2150 H 0.38288 0.53776 0.80862 0.0
H2151 H 0.30937 0.51906 0.71904 0.0
H2152 H 0.39162 0.46035 0.80082 0.0
H2153 H 0.38088 0.49307 0.7445 0.0
H2154 H 0.31269 0.51023 0.85595 0.0
H2155 H 0.32371 0.47757 0.9138 0.0
C2156 C 0.37458 0.55691 0.73565 0.0
C2157 C 0.35854 0.55859 0.68761 0.0
C2158 C 0.36827 0.54063 0.77554 0.0
C2159 C 0.34554 0.52611 0.76856 0.0
C2160 C 0.32694 0.53015 0.72536 0.0
C2161 C 0.33328 0.54655 0.68532 0.0
C2162 C 0.37321 0.47021 0.81148 0.0
C2163 C 0.35804 0.46605 0.86082 0.0
C2164 C 0.36761 0.48923 0.78013 0.0
C2165 C 0.34632 0.5041 0.79634 0.0
C2166 C 0.32908 0.49884 0.84238 0.0
C2167 C 0.335 0.4799 0.87463 0.0
H2168 H 0.21357 0.59115 0.366 0.0
H2169 H 0.19598 0.65869 0.41806 0.0
H2170 H 0.2426 0.5858 0.44798 0.0
H2171 H 0.2245 0.65341 0.49965 0.0
H2172 H 0.27007 0.59032 0.64405 0.0
H2173 H 0.24275 0.5869 0.55944 0.0
H2174 H 0.27902 0.6484 0.49783 0.0
H2175 H 0.30782 0.65073 0.5803 0.0
C2176 C 0.21463 0.60445 0.39651 0.0
C2177 C 0.20197 0.62528 0.3859 0.0
C2178 C 0.23165 0.60151 0.44284 0.0
C2179 C 0.2364 0.61938 0.47928 0.0
C2180 C 0.22165 0.63945 0.4716 0.0
C2181 C 0.20463 0.64232 0.42553 0.0
C2182 C 0.27352 0.60224 0.61063 0.0
C2183 C 0.29117 0.62072 0.61844 0.0
C2184 C 0.25729 0.60065 0.56286 0.0
C2185 C 0.25776 0.61796 0.52331 0.0
C2186 C 0.27762 0.63514 0.52849 0.0
C2187 C 0.2946 0.63621 0.57506 0.0
H2188 H 0.13882 0.57003 0.27729 0.0
H2189 H 0.17203 0.52492 0.39751 0.0
H2190 H 0.15451 0.54522 0.20186 0.0
H2191 H 0.18758 0.49988 0.32334 0.0
H2192 H 0.1778 0.48422 0.08531 0.0
H2193 H 0.19566 0.5112 0.15363 0.0
H2194 H 0.13348 0.4885 0.27305 0.0
H2195 H 0.11478 0.46298 0.20349 0.0
C2196 C 0.15116 0.55567 0.28716 0.0
C2197 C 0.15311 0.54906 0.34272 0.0
C2198 C 0.16019 0.54134 0.2442 0.0
C2199 C 0.17164 0.52036 0.25703 0.0
C2200 C 0.17874 0.51592 0.3123 0.0
C2201 C 0.16993 0.53041 0.35485 0.0
C2202 C 0.16924 0.4841 0.12743 0.0
C2203 C 0.14625 0.47026 0.14123 0.0
C2204 C 0.17922 0.49968 0.1661 0.0
C2205 C 0.16647 0.50135 0.21913 0.0
C2206 C 0.14445 0.48678 0.23334 0.0
C2207 C 0.13418 0.47174 0.19442 0.0
H2208 H 0.11814 0.1126 0.06894 0.0
H2209 H 0.18489 0.06649 0.10641 0.0
H2210 H 0.14773 0.14381 0.09535 0.0
H2211 H 0.2143 0.09777 0.13374 0.0
H2212 H 0.2692 0.15959 0.10898 0.0
H2213 H 0.23834 0.12877 0.08582 0.0
H2214 H 0.17018 0.16098 0.17564 0.0
H2215 H 0.20091 0.19211 0.19809 0.0
C2216 C 0.139 0.10909 0.08348 0.0
C2217 C 0.14924 0.08706 0.08523 0.0
C2218 C 0.15591 0.12699 0.09878 0.0
C2219 C 0.18341 0.12326 0.11617 0.0
C2220 C 0.19335 0.10119 0.11956 0.0
C2221 C 0.17643 0.08326 0.1043 0.0
C2222 C 0.24758 0.16023 0.12347 0.0
C2223 C 0.23751 0.17834 0.15533 0.0
C2224 C 0.22998 0.14244 0.11064 0.0
C2225 C 0.20191 0.14235 0.12935 0.0
C2226 C 0.19168 0.16064 0.16035 0.0
C2227 C 0.2093 0.17845 0.17328 0.0
H2228 H 0.27969 0.86423 0.37986 0.0
H2229 H 0.20501 0.82428 0.36249 0.0
H2230 H 0.25182 0.89433 0.42053 0.0
H2231 H 0.17689 0.85476 0.40145 0.0
H2232 H 0.13595 0.90872 0.50735 0.0
H2233 H 0.16546 0.87706 0.48154 0.0
H2234 H 0.21953 0.92111 0.38538 0.0
H2235 H 0.19051 0.9529 0.41284 0.0
C2236 C 0.25729 0.86186 0.38503 0.0
C2237 C 0.24443 0.84206 0.36742 0.0
C2238 C 0.24131 0.87917 0.40797 0.0
C2239 C 0.21208 0.87713 0.41323 0.0
C2240 C 0.19938 0.85684 0.39822 0.0
C2241 C 0.21546 0.83939 0.37577 0.0
C2242 C 0.15418 0.91164 0.48076 0.0
C2243 C 0.16091 0.93327 0.46191 0.0
C2244 C 0.17104 0.89348 0.46586 0.0
C2245 C 0.19484 0.89653 0.43141 0.0
C2246 C 0.20162 0.91822 0.41283 0.0
C2247 C 0.18491 0.93643 0.42819 0.0
H2248 H 0.31317 0.96406 0.55342 0.0
H2249 H 0.38651 0.92406 0.58498 0.0
H2250 H 0.28335 0.93386 0.58833 0.0
H2251 H 0.35694 0.89433 0.62199 0.0
H2252 H 0.29734 0.83629 0.63181 0.0
H2253 H 0.32511 0.86665 0.59164 0.0
H2254 H 0.26989 0.91482 0.67138 0.0
H2255 H 0.24153 0.88452 0.70934 0.0
C2256 C 0.32289 0.94894 0.56855 0.0
C2257 C 0.35208 0.94632 0.5663 0.0
C2258 C 0.30585 0.93166 0.58863 0.0
C2259 C 0.31777 0.9116 0.60752 0.0
C2260 C 0.34705 0.90931 0.60648 0.0
C2261 C 0.36401 0.92643 0.58576 0.0
C2262 C 0.2911 0.85338 0.64039 0.0
C2263 C 0.26741 0.85807 0.67385 0.0
C2264 C 0.30707 0.87077 0.61773 0.0
C2265 C 0.29986 0.89316 0.62877 0.0
C2266 C 0.27584 0.89778 0.66148 0.0
C2267 C 0.25967 0.88041 0.6835 0.0
H2268 H 0.29289 0.19492 0.81662 0.0
H2269 H 0.21981 0.15446 0.85296 0.0
H2270 H 0.32278 0.16538 0.85295 0.0
H2271 H 0.24945 0.12536 0.89055 0.0
H2272 H 0.3097 0.06739 0.8878 0.0
H2273 H 0.28193 0.09832 0.85336 0.0
H2274 H 0.33599 0.14517 0.93592 0.0
H2275 H 0.36433 0.11416 0.96919 0.0
C2276 C 0.2832 0.17988 0.83319 0.0
C2277 C 0.25407 0.17687 0.83141 0.0
C2278 C 0.3003 0.16298 0.85407 0.0
C2279 C 0.28852 0.14287 0.87382 0.0
C2280 C 0.25925 0.14038 0.87426 0.0
C2281 C 0.24224 0.15714 0.85308 0.0
C2282 C 0.31576 0.08429 0.89837 0.0
C2283 C 0.33911 0.08834 0.93141 0.0
C2284 C 0.29972 0.10202 0.87899 0.0
C2285 C 0.30651 0.12421 0.89255 0.0
C2286 C 0.3303 0.12829 0.92447 0.0
C2287 C 0.34649 0.11052 0.94361 0.0
H2288 H 0.89356 0.88919 0.93645 0.0
H2289 H 0.83454 0.93916 0.88277 0.0
H2290 H 0.8649 0.85999 0.8951 0.0
H2291 H 0.8064 0.91015 0.84056 0.0
H2292 H 0.81703 0.81726 0.76619 0.0
H2293 H 0.84823 0.84516 0.80617 0.0
H2294 H 0.77646 0.88036 0.87508 0.0
H2295 H 0.74548 0.85299 0.83445 0.0
C2296 C 0.87466 0.89395 0.91529 0.0
C2297 C 0.8661 0.91642 0.9134 0.0
C2298 C 0.85832 0.87725 0.89147 0.0
C2299 C 0.83322 0.88275 0.86524 0.0
C2300 C 0.82529 0.90533 0.86165 0.0
C2301 C 0.84149 0.92196 0.8856 0.0
C2302 C 0.80802 0.83089 0.79024 0.0
C2303 C 0.77884 0.83308 0.79673 0.0
C2304 C 0.82585 0.84682 0.81317 0.0
C2305 C 0.81476 0.86512 0.84306 0.0
C2306 C 0.78562 0.86677 0.85108 0.0
C2307 C 0.76787 0.85099 0.82806 0.0
H2308 H 0.80323 0.16254 0.70146 0.0
H2309 H 0.73029 0.1467 0.60647 0.0
H2310 H 0.82931 0.13305 0.65423 0.0
H2311 H 0.75689 0.11859 0.55455 0.0
H2312 H 0.80114 0.05377 0.5119 0.0
H2313 H 0.7749 0.08366 0.55795 0.0
H2314 H 0.85209 0.12068 0.57745 0.0
H2315 H 0.8781 0.08967 0.53668 0.0
C2316 C 0.7931 0.15301 0.66923 0.0
C2317 C 0.76491 0.15668 0.65743 0.0
C2318 C 0.80805 0.13618 0.64166 0.0
C2319 C 0.79539 0.1232 0.60017 0.0
C2320 C 0.76729 0.12765 0.58715 0.0
C2321 C 0.75206 0.14394 0.6163 0.0
C2322 C 0.81227 0.06832 0.52661 0.0
C2323 C 0.84147 0.06949 0.52157 0.0
C2324 C 0.7973 0.08563 0.55243 0.0
C2325 C 0.81121 0.10482 0.57179 0.0
C2326 C 0.84054 0.10604 0.56488 0.0
C2327 C 0.85553 0.08837 0.54103 0.0
H2328 H 0.65365 0.07479 0.49206 0.0
H2329 H 0.6373 0.06476 0.31753 0.0
H2330 H 0.68592 0.10518 0.4681 0.0
H2331 H 0.66914 0.09571 0.29393 0.0
H2332 H 0.69715 0.17251 0.30477 0.0
H2333 H 0.66592 0.14143 0.32924 0.0
H2334 H 0.73526 0.10561 0.39924 0.0
H2335 H 0.76684 0.13639 0.3734 0.0
C2336 C 0.65693 0.07914 0.44862 0.0
C2337 C 0.64304 0.06753 0.40651 0.0
C2338 C 0.6754 0.0964 0.43509 0.0
C2339 C 0.67973 0.1026 0.37941 0.0
C2340 C 0.66588 0.09109 0.33719 0.0
C2341 C 0.64787 0.07344 0.35062 0.0
C2342 C 0.70566 0.15807 0.32575 0.0
C2343 C 0.73432 0.15674 0.33727 0.0
C2344 C 0.68789 0.14032 0.33924 0.0
C2345 C 0.69845 0.12129 0.36554 0.0
C2346 C 0.72687 0.12021 0.37872 0.0
C2347 C 0.7448 0.13773 0.36404 0.0
H2348 H 0.62945 0.90593 0.08373 0.0
H2349 H 0.6936 0.89956 0.9549 0.0
H2350 H 0.65489 0.87928 0.1414 0.0
H2351 H 0.71877 0.87319 0.01249 0.0
H2352 H 0.77147 0.85501 0.16575 0.0
H2353 H 0.74353 0.87889 0.10635 0.0
H2354 H 0.67133 0.83698 0.13746 0.0
H2355 H 0.69941 0.81274 0.19682 0.0
C2356 C 0.64883 0.89878 0.06764 0.0
C2357 C 0.65962 0.90496 0.01497 0.0
C2358 C 0.66325 0.88348 0.10046 0.0
C2359 C 0.68879 0.87437 0.08133 0.0
C2360 C 0.69924 0.88019 0.02831 0.0
C2361 C 0.68475 0.89524 0.99537 0.0
C2362 C 0.74965 0.85084 0.15992 0.0
C2363 C 0.7376 0.83202 0.18583 0.0
C2364 C 0.73374 0.86444 0.12575 0.0
C2365 C 0.70537 0.85969 0.11741 0.0
C2366 C 0.69317 0.84099 0.14355 0.0
C2367 C 0.70924 0.82711 0.17715 0.0
H2368 H 0.66948 0.47848 0.55732 0.0
H2369 H 0.61609 0.53331 0.50985 0.0
H2370 H 0.69951 0.50425 0.60611 0.0
H2371 H 0.64688 0.55941 0.55732 0.0
H2372 H 0.6901 0.59384 0.70405 0.0
H2373 H 0.66014 0.56974 0.64957 0.0
H2374 H 0.73298 0.53321 0.59012 0.0
H2375 H 0.76283 0.55683 0.64632 0.0
C2376 C 0.66428 0.49611 0.55698 0.0
C2377 C 0.6404 0.5039 0.52995 0.0
C2378 C 0.68166 0.51092 0.58459 0.0
C2379 C 0.67573 0.53392 0.58531 0.0
C2380 C 0.65184 0.54175 0.55808 0.0
C2381 C 0.63424 0.52685 0.53084 0.0
C2382 C 0.69971 0.58073 0.67909 0.0
C2383 C 0.72875 0.57705 0.6798 0.0
C2384 C 0.68256 0.56701 0.64759 0.0
C2385 C 0.69413 0.54946 0.61575 0.0
C2386 C 0.72333 0.54628 0.61513 0.0
C2387 C 0.74045 0.55985 0.64712 0.0
H2388 H 0.68027 0.51222 0.96985 0.0
H2389 H 0.60745 0.47807 0.90831 0.0
H2390 H 0.70934 0.48084 0.943 0.0
H2391 H 0.63703 0.44688 0.87787 0.0
H2392 H 0.69392 0.38466 0.89377 0.0
H2393 H 0.66248 0.41631 0.91288 0.0
H2394 H 0.72973 0.462 0.8694 0.0
H2395 H 0.76098 0.43065 0.85487 0.0
C2396 C 0.67058 0.49822 0.94908 0.0
C2397 C 0.64161 0.49759 0.94107 0.0
C2398 C 0.68731 0.48016 0.9334 0.0
C2399 C 0.6756 0.46124 0.90802 0.0
C2400 C 0.64668 0.46098 0.89815 0.0
C2401 C 0.62979 0.47894 0.91494 0.0
C2402 C 0.70175 0.40156 0.8888 0.0
C2403 C 0.7299 0.40539 0.87427 0.0
C2404 C 0.68379 0.41967 0.89911 0.0
C2405 C 0.69365 0.4418 0.89347 0.0
C2406 C 0.72157 0.44532 0.87613 0.0
C2407 C 0.73953 0.42735 0.86755 0.0
H2408 H 0.80495 0.39323 0.16711 0.0
H2409 H 0.73955 0.43989 0.21529 0.0
H2410 H 0.83074 0.42386 0.12155 0.0
H2411 H 0.76511 0.47001 0.17055 0.0
H2412 H 0.80879 0.51405 0.03765 0.0
H2413 H 0.78122 0.4832 0.07699 0.0
H2414 H 0.85467 0.45812 0.1584 0.0
H2415 H 0.88213 0.48869 0.11946 0.0
C2416 C 0.79605 0.40989 0.16765 0.0
C2417 C 0.7704 0.41419 0.19503 0.0
C2418 C 0.81076 0.42737 0.14187 0.0
C2419 C 0.79984 0.44924 0.14285 0.0
C2420 C 0.77384 0.4533 0.16873 0.0
C2421 C 0.75932 0.43599 0.19466 0.0
C2422 C 0.81887 0.50215 0.06469 0.0
C2423 C 0.84758 0.50367 0.07526 0.0
C2424 C 0.8032 0.48445 0.0868 0.0
C2425 C 0.81607 0.46809 0.11966 0.0
C2426 C 0.84447 0.47017 0.13195 0.0
C2427 C 0.86006 0.48782 0.11013 0.0
H2428 H 0.74547 0.54627 0.29797 0.0
H2429 H 0.77523 0.60078 0.39879 0.0
H2430 H 0.77438 0.5201 0.35023 0.0
H2431 H 0.80345 0.57447 0.45187 0.0
H2432 H 0.82356 0.51461 0.56768 0.0
H2433 H 0.79144 0.53814 0.5162 0.0
H2434 H 0.83149 0.51777 0.36174 0.0
H2435 H 0.86473 0.49491 0.41344 0.0
C2436 C 0.75785 0.55259 0.33179 0.0
C2437 C 0.75814 0.57554 0.34443 0.0
C2438 C 0.77446 0.53765 0.36132 0.0
C2439 C 0.79105 0.54536 0.40479 0.0
C2440 C 0.7907 0.56817 0.41854 0.0
C2441 C 0.77463 0.58318 0.38821 0.0
C2442 C 0.82576 0.51529 0.52279 0.0
C2443 C 0.8472 0.5034 0.49474 0.0
C2444 C 0.80724 0.52863 0.49343 0.0
C2445 C 0.80925 0.52985 0.43526 0.0
C2446 C 0.82962 0.51704 0.40672 0.0
C2447 C 0.8486 0.50401 0.43627 0.0
H2448 H 0.30619 0.5252 0.47844 0.0
H2449 H 0.37303 0.47681 0.48313 0.0
H2450 H 0.27892 0.49995 0.42136 0.0
H2451 H 0.3452 0.45069 0.43022 0.0
H2452 H 0.30065 0.41426 0.29569 0.0
H2453 H 0.32825 0.44155 0.3455 0.0
H2454 H 0.25222 0.46822 0.42145 0.0
H2455 H 0.22474 0.44203 0.36743 0.0
C2456 C 0.31488 0.50902 0.46739 0.0
C2457 C 0.34169 0.50293 0.48447 0.0
C2458 C 0.29919 0.49441 0.4352 0.0
C2459 C 0.30968 0.4731 0.42094 0.0
C2460 C 0.33657 0.46709 0.4388 0.0
C2461 C 0.35256 0.48199 0.46948 0.0
C2462 C 0.28998 0.4261 0.32289 0.0
C2463 C 0.26071 0.42616 0.32791 0.0
C2464 C 0.30576 0.44165 0.35194 0.0
C2465 C 0.29265 0.45713 0.38816 0.0
C2466 C 0.26318 0.45698 0.39321 0.0
C2467 C 0.24736 0.44186 0.36268 0.0
H2468 H 0.31038 0.47379 0.11619 0.0
H2469 H 0.35516 0.52092 0.01169 0.0
H2470 H 0.27908 0.50391 0.14883 0.0
H2471 H 0.32348 0.5505 0.04114 0.0
H2472 H 0.29072 0.6032 0.15855 0.0
H2473 H 0.31738 0.57196 0.12159 0.0
H2474 H 0.24315 0.53057 0.12845 0.0
H2475 H 0.21655 0.56185 0.16818 0.0
C2476 C 0.3132 0.49054 0.09985 0.0
C2477 C 0.33549 0.49535 0.06294 0.0
C2478 C 0.29527 0.50774 0.11807 0.0
C2479 C 0.29917 0.52979 0.09858 0.0
C2480 C 0.32046 0.53398 0.0587 0.0
C2481 C 0.33858 0.51703 0.04163 0.0
C2482 C 0.27998 0.58751 0.15186 0.0
C2483 C 0.25152 0.58503 0.16612 0.0
C2484 C 0.29525 0.56955 0.1303 0.0
C2485 C 0.28238 0.54873 0.12147 0.0
C2486 C 0.25378 0.54629 0.13523 0.0
C2487 C 0.23851 0.56426 0.15756 0.0
H2488 H 0.21184 0.61921 0.87659 0.0
H2489 H 0.20717 0.5842 0.71972 0.0
H2490 H 0.19245 0.58642 0.92462 0.0
H2491 H 0.18808 0.55144 0.76791 0.0
H2492 H 0.18041 0.49071 0.89241 0.0
H2493 H 0.20431 0.52229 0.84597 0.0
H2494 H 0.14303 0.56767 0.91699 0.0
H2495 H 0.11913 0.53658 0.96215 0.0
C2496 C 0.20669 0.60453 0.85245 0.0
C2497 C 0.2106 0.60434 0.79439 0.0
C2498 C 0.19571 0.58581 0.87988 0.0
C2499 C 0.18896 0.56647 0.84981 0.0
C2500 C 0.1934 0.5661 0.79196 0.0
C2501 C 0.20394 0.58494 0.76442 0.0
C2502 C 0.17217 0.50745 0.89794 0.0
C2503 C 0.1478 0.51117 0.93035 0.0
C2504 C 0.18574 0.52543 0.87144 0.0
C2505 C 0.17546 0.54732 0.87828 0.0
C2506 C 0.15146 0.55098 0.91148 0.0
C2507 C 0.13767 0.53311 0.93688 0.0
H2508 H 0.202 0.39933 0.66418 0.0
H2509 H 0.27243 0.44228 0.62459 0.0
H2510 H 0.17136 0.424 0.61288 0.0
H2511 H 0.24196 0.46653 0.57133 0.0
H2512 H 0.17434 0.51973 0.55696 0.0
H2513 H 0.20603 0.49268 0.59661 0.0
H2514 H 0.15868 0.43888 0.52379 0.0
H2515 H 0.12617 0.46614 0.48554 0.0
C2516 C 0.21101 0.41385 0.64365 0.0
C2517 C 0.23947 0.41913 0.64905 0.0
C2518 C 0.19348 0.4279 0.61394 0.0
C2519 C 0.20417 0.44736 0.58862 0.0
C2520 C 0.23298 0.45194 0.59156 0.0
C2521 C 0.25044 0.43804 0.62185 0.0
C2522 C 0.17066 0.50212 0.5494 0.0
C2523 C 0.14777 0.495 0.51837 0.0
C2524 C 0.189 0.48662 0.57165 0.0
C2525 C 0.18504 0.46364 0.56288 0.0
C2526 C 0.16213 0.45647 0.53166 0.0
C2527 C 0.14354 0.47204 0.50979 0.0
H2528 H 0.35781 0.22877 0.02924 0.0
H2529 H 0.34101 0.28128 0.14837 0.0
H2530 H 0.34909 0.25457 0.95312 0.0
H2531 H 0.3323 0.30735 0.0716 0.0
H2532 H 0.28178 0.33523 0.92044 0.0
H2533 H 0.29446 0.31124 0.99877 0.0
H2534 H 0.3676 0.2886 0.90647 0.0
H2535 H 0.35511 0.31272 0.82881 0.0
C2536 C 0.35302 0.24604 0.03908 0.0
C2537 C 0.35053 0.25304 0.09482 0.0
C2538 C 0.3479 0.26083 0.9954 0.0
C2539 C 0.33974 0.28301 0.00617 0.0
C2540 C 0.33825 0.29031 0.06193 0.0
C2541 C 0.34376 0.27551 0.10587 0.0
C2542 C 0.30035 0.3249 0.91675 0.0
C2543 C 0.31741 0.32577 0.86841 0.0
C2544 C 0.30781 0.31137 0.96187 0.0
C2545 C 0.33213 0.29804 0.95912 0.0
C2546 C 0.3487 0.29855 0.91004 0.0
C2547 C 0.34156 0.31237 0.86553 0.0
H2548 H 0.93833 0.99406 0.15797 0.0
H2549 H 0.00631 0.01461 0.0488 0.0
H2550 H 0.96306 0.00853 0.23789 0.0
H2551 H 0.03188 0.02817 0.12882 0.0
H2552 H 0.08064 0.02505 0.29142 0.0
H2553 H 0.05598 0.01834 0.20602 0.0
H2554 H 0.97863 0.03994 0.28607 0.0
H2555 H 0.00366 0.04684 0.37188 0.0
C2556 C 0.95862 1.00185 0.15134 0.0
C2557 C 0.9706 0.00325 0.09771 0.0
C2558 C 0.97266 0.01043 0.19693 0.0
C2559 C 0.99926 0.02026 0.18992 0.0
C2560 C 0.01121 0.02137 0.13583 0.0
C2561 C 0.99676 0.01337 0.08994 0.0
C2562 C 0.0584 0.02859 0.29059 0.0
C2563 C 0.04396 0.03609 0.33857 0.0
C2564 C 0.04419 0.0248 0.2414 0.0
C2565 C 0.01503 0.02783 0.23937 0.0
C2566 C 0.00092 0.03669 0.28655 0.0
C2567 C 0.01528 0.04089 0.3356 0.0
H2568 H 0.22162 0.68916 0.38405 0.0
H2569 H 0.16129 0.72367 0.28409 0.0
H2570 H 0.20854 0.71224 0.46374 0.0
H2571 H 0.14808 0.74689 0.3645 0.0
H2572 H 0.16792 0.8003 0.50606 0.0
H2573 H 0.17144 0.77652 0.42361 0.0
H2574 H 0.16636 0.71795 0.52837 0.0
H2575 H 0.16259 0.74195 0.61104 0.0
C2576 C 0.2058 0.70189 0.37875 0.0
C2577 C 0.19283 0.70472 0.32727 0.0
C2578 C 0.198 0.71489 0.42481 0.0
C2579 C 0.17703 0.73122 0.4206 0.0
C2580 C 0.16438 0.73448 0.36892 0.0
C2581 C 0.17211 0.72131 0.32281 0.0
C2582 C 0.16623 0.78235 0.51118 0.0
C2583 C 0.16444 0.77294 0.56473 0.0
C2584 C 0.16846 0.76873 0.46402 0.0
C2585 C 0.16948 0.74538 0.46955 0.0
C2586 C 0.16584 0.73592 0.52294 0.0
C2587 C 0.16317 0.74961 0.57016 0.0
H2588 H 0.55951 0.96353 0.63837 0.0
H2589 H 0.49567 0.00414 0.56461 0.0
H2590 H 0.52997 0.95821 0.72105 0.0
H2591 H 0.46604 0.99928 0.64744 0.0
H2592 H 0.41367 0.9877 0.79836 0.0
H2593 H 0.43846 0.98028 0.71057 0.0
H2594 H 0.51668 0.97809 0.79792 0.0
H2595 H 0.49196 0.9861 0.88475 0.0
C2596 C 0.53874 0.97078 0.63936 0.0
C2597 C 0.5295 0.98383 0.59491 0.0
C2598 C 0.52196 0.96814 0.68726 0.0
C2599 C 0.49577 0.97887 0.6921 0.0
C2600 C 0.48614 0.99101 0.64602 0.0
C2601 C 0.503 0.99374 0.59825 0.0
C2602 C 0.43619 0.98555 0.79856 0.0
C2603 C 0.45101 0.98798 0.84809 0.0
C2604 C 0.45047 0.98143 0.74816 0.0
C2605 C 0.47986 0.9794 0.74633 0.0
C2606 C 0.49424 0.98009 0.79691 0.0
C2607 C 0.48007 0.98474 0.84699 0.0
H2608 H 0.29607 0.68881 0.61098 0.0
H2609 H 0.36208 0.71257 0.7155 0.0
H2610 H 0.31524 0.70979 0.53316 0.0
H2611 H 0.38124 0.73456 0.63645 0.0
H2612 H 0.36302 0.7916 0.49272 0.0
H2613 H 0.36183 0.768 0.57567 0.0
H2614 H 0.35988 0.70934 0.47135 0.0
H2615 H 0.3612 0.73307 0.38833 0.0
C2616 C 0.3145 0.69882 0.61764 0.0
C2617 C 0.3272 0.69933 0.66982 0.0
C2618 C 0.32582 0.71056 0.57256 0.0
C2619 C 0.35007 0.72347 0.57833 0.0
C2620 C 0.36263 0.72454 0.63079 0.0
C2621 C 0.35158 0.71218 0.67601 0.0
C2622 C 0.36409 0.77362 0.48758 0.0
C2623 C 0.36249 0.76412 0.4342 0.0
C2624 C 0.36321 0.76011 0.53512 0.0
C2625 C 0.36031 0.73688 0.52996 0.0
C2626 C 0.36193 0.72726 0.47645 0.0
C2627 C 0.36314 0.74079 0.42887 0.0
H2628 H 0.4941 0.04515 0.62393 0.0
H2629 H 0.43356 0.04149 0.75932 0.0
H2630 H 0.532 0.03994 0.68979 0.0
H2631 H 0.47077 0.03638 0.82463 0.0
H2632 H 0.54011 0.03544 0.94108 0.0
H2633 H 0.50958 0.05106 0.87075 0.0
H2634 H 0.54958 0.00996 0.74494 0.0
H2635 H 0.58012 0.99435 0.81481 0.0
C2636 C 0.48901 0.04355 0.66774 0.0
C2637 C 0.46095 0.04342 0.68619 0.0
C2638 C 0.51063 0.04056 0.70553 0.0
C2639 C 0.50453 0.03772 0.76268 0.0
C2640 C 0.47645 0.03888 0.78122 0.0
C2641 C 0.45497 0.0417 0.74353 0.0
C2642 C 0.54254 0.02992 0.89833 0.0
C2643 C 0.56197 0.01324 0.88374 0.0
C2644 C 0.52502 0.03884 0.85813 0.0
C2645 C 0.52667 0.0315 0.80256 0.0
C2646 C 0.54767 0.01609 0.78726 0.0
C2647 C 0.56488 0.00685 0.82756 0.0
H2648 H 0.14284 0.24095 0.92621 0.0
H2649 H 0.15605 0.3061 0.8531 0.0
H2650 H 0.15686 0.25565 0.01673 0.0
H2651 H 0.16907 0.3208 0.94299 0.0
H2652 H 0.22244 0.33711 0.08476 0.0
H2653 H 0.20947 0.3173 1.00094 0.0
H2654 H 0.145 0.28199 0.09397 0.0
H2655 H 0.15841 0.30203 0.17859 0.0
C2656 C 0.14824 0.25844 0.92947 0.0
C2657 C 0.14881 0.27221 0.88194 0.0
C2658 C 0.15632 0.26688 0.98142 0.0
C2659 C 0.16496 0.28927 0.98684 0.0
C2660 C 0.16355 0.30329 0.94006 0.0
C2661 C 0.15567 0.2949 0.88852 0.0
C2662 C 0.20622 0.32453 0.08782 0.0
C2663 C 0.19174 0.32085 0.13833 0.0
C2664 C 0.19841 0.31339 0.03948 0.0
C2665 C 0.17577 0.29831 0.04028 0.0
C2666 C 0.16253 0.29344 0.09177 0.0
C2667 C 0.17024 0.30484 0.14026 0.0
H2668 H 0.0774 0.97621 0.21262 0.0
H2669 H 0.99948 0.95988 0.13451 0.0
H2670 H 0.0553 0.97124 0.304 0.0
H2671 H 0.97683 0.95599 0.22568 0.0
H2672 H 0.94062 0.94623 0.39535 0.0
H2673 H 0.96972 0.93852 0.31271 0.0
H2674 H 0.02454 0.99282 0.35731 0.0
H2675 H 0.99534 1.00045 0.43916 0.0
C2676 C 0.05552 0.97147 0.2151 0.0
C2677 C 0.03988 0.96913 0.16664 0.0
C2678 C 0.0428 0.96868 0.26747 0.0
C2679 C 0.01406 0.96375 0.2725 0.0
C2680 C 0.99901 0.95968 0.22372 0.0
C2681 C 0.0119 0.96214 0.17128 0.0
C2682 C 0.95946 0.95596 0.38825 0.0
C2683 C 0.96598 0.97377 0.42362 0.0
C2684 C 0.97585 0.95185 0.34039 0.0
C2685 C 0.9992 0.96538 0.32748 0.0
C2686 C 0.00672 0.98214 0.36549 0.0
C2687 C 0.9901 0.98647 0.41266 0.0
H2688 H 0.66718 0.76321 0.91792 0.0
H2689 H 0.69289 0.70281 0.83329 0.0
H2690 H 0.67407 0.74492 0.00759 0.0
H2691 H 0.69914 0.68441 0.92183 0.0
H2692 H 0.7343 0.66129 0.08248 0.0
H2693 H 0.72849 0.68236 0.99671 0.0
H2694 H 0.65897 0.71816 0.0729 0.0
H2695 H 0.66596 0.69765 0.15956 0.0
C2696 C 0.67376 0.74588 0.91842 0.0
C2697 C 0.67968 0.73451 0.86833 0.0
C2698 C 0.67778 0.73535 0.96993 0.0
C2699 C 0.68757 0.71312 0.97251 0.0
C2700 C 0.69232 0.70162 0.92209 0.0
C2701 C 0.68853 0.71216 0.87094 0.0
C2702 C 0.71814 0.67398 0.08107 0.0
C2703 C 0.70056 0.6779 0.12757 0.0
C2704 C 0.7145 0.68589 0.0316 0.0
C2705 C 0.69289 0.70183 0.02703 0.0
C2706 C 0.67597 0.70623 0.07453 0.0
C2707 C 0.67979 0.69438 0.12417 0.0
H2708 H 0.06984 0.00773 0.8502 0.0
H2709 H 0.00092 0.99342 0.96317 0.0
H2710 H 0.04313 0.99343 0.77269 0.0
H2711 H 0.97338 0.98019 0.88558 0.0
H2712 H 1.0006 0.95129 0.64841 0.0
H2713 H 0.02586 0.96122 0.73177 0.0
H2714 H 0.94946 0.98715 0.80646 0.0
H2715 H 0.92429 0.97726 0.72342 0.0
C2716 C 0.04888 1.00139 0.85821 0.0
C2717 C 0.03737 1.00141 0.91234 0.0
C2718 C 0.03365 0.99293 0.81401 0.0
C2719 C 0.00632 0.98466 0.82288 0.0
C2720 C 0.9946 0.98557 0.87717 0.0
C2721 C 0.01022 0.99335 0.92173 0.0
C2722 C 0.98918 0.95892 0.6829 0.0
C2723 C 0.96058 0.96389 0.67891 0.0
C2724 C 0.00374 0.96491 0.73048 0.0
C2725 C 0.99007 0.9759 0.77522 0.0
C2726 C 0.96097 0.97923 0.77267 0.0
C2727 C 0.94646 0.97353 0.72488 0.0
H2728 H 0.7956 0.32457 0.63083 0.0
H2729 H 0.85446 0.28952 0.73306 0.0
H2730 H 0.81013 0.3022 0.55069 0.0
H2731 H 0.86864 0.26642 0.65233 0.0
H2732 H 0.83864 0.21417 0.50845 0.0
H2733 H 0.84033 0.23745 0.59189 0.0
H2734 H 0.85492 0.29563 0.48903 0.0
H2735 H 0.8536 0.27213 0.40545 0.0
C2736 C 0.81141 0.31182 0.63623 0.0
C2737 C 0.82346 0.30835 0.6883 0.0
C2738 C 0.82009 0.29931 0.59014 0.0
C2739 C 0.84074 0.28278 0.59522 0.0
C2740 C 0.85278 0.27916 0.64739 0.0
C2741 C 0.84455 0.29218 0.69346 0.0
C2742 C 0.84368 0.23175 0.504 0.0
C2743 C 0.8464 0.24139 0.45088 0.0
C2744 C 0.84454 0.24507 0.55166 0.0
C2745 C 0.84754 0.26831 0.54678 0.0
C2746 C 0.85255 0.27771 0.49378 0.0
C2747 C 0.85215 0.26429 0.44607 0.0
H2748 H 0.4512 0.04753 0.36405 0.0
H2749 H 0.51122 1.00104 0.42859 0.0
H2750 H 0.48114 0.05409 0.28302 0.0
H2751 H 0.54137 0.00718 0.3474 0.0
H2752 H 0.59406 0.01918 0.19574 0.0
H2753 H 0.57006 0.02242 0.2854 0.0
H2754 H 0.49351 0.03954 0.2014 0.0
H2755 H 0.51824 0.03765 0.11281 0.0
C2756 C 0.47114 0.03901 0.3612 0.0
C2757 C 0.47897 0.0238 0.40241 0.0
C2758 C 0.4882 0.04236 0.31394 0.0
C2759 C 0.51338 0.0303 0.30632 0.0
C2760 C 0.52196 0.01634 0.3501 0.0
C2761 C 0.50474 0.01282 0.3971 0.0
C2762 C 0.57209 0.0237 0.19681 0.0
C2763 C 0.55798 0.02804 0.14729 0.0
C2764 C 0.55811 0.02544 0.24842 0.0
C2765 C 0.52938 0.03091 0.25182 0.0
C2766 C 0.51557 0.03555 0.20173 0.0
C2767 C 0.52971 0.03429 0.15034 0.0
H2768 H 0.69971 0.33527 0.41998 0.0
H2769 H 0.67108 0.28173 0.31638 0.0
H2770 H 0.6835 0.31579 0.50244 0.0
H2771 H 0.65861 0.25991 0.39954 0.0
H2772 H 0.62761 0.22611 0.55333 0.0
H2773 H 0.63095 0.25184 0.47442 0.0
H2774 H 0.69401 0.28947 0.56172 0.0
H2775 H 0.68789 0.26541 0.64113 0.0
C2776 C 0.69027 0.31899 0.41542 0.0
C2777 C 0.68643 0.31 0.36254 0.0
C2778 C 0.68132 0.3075 0.46278 0.0
C2779 C 0.66987 0.28589 0.45874 0.0
C2780 C 0.66663 0.27665 0.40502 0.0
C2781 C 0.67429 0.28886 0.3572 0.0
C2782 C 0.6408 0.24077 0.55628 0.0
C2783 C 0.65692 0.24426 0.60349 0.0
C2784 C 0.64345 0.25519 0.51049 0.0
C2785 C 0.66318 0.27275 0.51037 0.0
C2786 C 0.67805 0.27672 0.55954 0.0
C2787 C 0.67455 0.26289 0.6057 0.0
H2788 H 0.46224 0.97116 0.05347 0.0
H2789 H 0.43157 0.02082 0.17033 0.0
H2790 H 0.49362 0.95677 0.12434 0.0
H2791 H 0.46263 0.00622 0.24072 0.0
H2792 H 0.5084 0.9641 0.36794 0.0
H2793 H 0.47296 0.97367 0.29969 0.0
H2794 H 0.53607 0.97146 0.16856 0.0
H2795 H 0.57145 0.96279 0.2366 0.0
C2796 C 0.46212 0.97893 0.09421 0.0
C2797 C 0.44471 0.99732 0.10606 0.0
C2798 C 0.48014 0.97074 0.13456 0.0
C2799 C 0.48082 0.98052 0.18768 0.0
C2800 C 0.46258 0.9983 0.20019 0.0
C2801 C 0.44499 0.00681 0.15962 0.0
C2802 C 0.51451 0.96545 0.32446 0.0
C2803 C 0.54266 0.96299 0.30773 0.0
C2804 C 0.49426 0.97082 0.28542 0.0
C2805 C 0.50166 0.97311 0.22875 0.0
C2806 C 0.5296 0.96947 0.21176 0.0
C2807 C 0.54988 0.96449 0.25082 0.0
H2808 H 0.82818 0.71975 0.17258 0.0
H2809 H 0.84986 0.76967 0.04971 0.0
H2810 H 0.81859 0.69292 0.09755 0.0
H2811 H 0.84061 0.74311 0.9754 0.0
H2812 H 0.84591 0.68332 0.85729 0.0
H2813 H 0.85809 0.70813 0.93353 0.0
H2814 H 0.78266 0.68865 0.02313 0.0
H2815 H 0.77067 0.6635 0.94662 0.0
C2816 C 0.83182 0.7247 0.12967 0.0
C2817 C 0.84029 0.74662 0.1169 0.0
C2818 C 0.82588 0.70952 0.08684 0.0
C2819 C 0.82882 0.71588 0.03057 0.0
C2820 C 0.83839 0.73756 0.01817 0.0
C2821 C 0.8438 0.75277 0.06076 0.0
C2822 C 0.83201 0.68424 0.89337 0.0
C2823 C 0.80744 0.67134 0.89603 0.0
C2824 C 0.83887 0.69858 0.93693 0.0
C2825 C 0.82146 0.70028 0.98466 0.0
C2826 C 0.79672 0.6875 0.98727 0.0
C2827 C 0.78967 0.6733 0.94319 0.0
H2828 H 0.06316 0.05179 0.61145 0.0
H2829 H 0.00744 0.99667 0.58031 0.0
H2830 H 0.03471 0.06233 0.69311 0.0
H2831 H 0.97875 0.00738 0.66063 0.0
H2832 H 0.92653 0.02917 0.80072 0.0
H2833 H 0.94854 0.03176 0.70875 0.0
H2834 H 0.0278 0.04671 0.78422 0.0
H2835 H 0.00534 0.04478 0.87618 0.0
C2836 C 0.04432 0.04239 0.62108 0.0
C2837 C 0.03746 0.02341 0.58981 0.0
C2838 C 0.02825 0.04821 0.66829 0.0
C2839 C 0.00475 0.03538 0.68431 0.0
C2840 C 0.99679 0.0175 0.65006 0.0
C2841 C 0.01314 0.01139 0.60378 0.0
C2842 C 0.94854 0.03347 0.79748 0.0
C2843 C 0.96444 0.03618 0.84547 0.0
C2844 C 0.9612 0.03491 0.74477 0.0
C2845 C 0.99011 0.03895 0.73891 0.0
C2846 C 0.00547 0.04365 0.78695 0.0
C2847 C 0.99267 0.04242 0.8398 0.0
H2848 H 0.85096 0.7169 0.36176 0.0
H2849 H 0.77493 0.74247 0.43839 0.0
H2850 H 0.86032 0.69549 0.44657 0.0
H2851 H 0.78437 0.72146 0.52257 0.0
H2852 H 0.84627 0.64466 0.5996 0.0
H2853 H 0.84112 0.66361 0.5096 0.0
H2854 H 0.82082 0.72499 0.59552 0.0
H2855 H 0.82686 0.70647 0.68445 0.0
C2856 C 0.83604 0.71772 0.3963 0.0
C2857 C 0.81207 0.73136 0.39299 0.0
C2858 C 0.84142 0.70545 0.44485 0.0
C2859 C 0.82329 0.70695 0.49162 0.0
C2860 C 0.79903 0.72016 0.48768 0.0
C2861 C 0.79347 0.73211 0.43907 0.0
C2862 C 0.84135 0.66231 0.59919 0.0
C2863 C 0.83618 0.6739 0.64938 0.0
C2864 C 0.83827 0.67315 0.54761 0.0
C2865 C 0.82984 0.69571 0.54537 0.0
C2866 C 0.82661 0.70751 0.59562 0.0
C2867 C 0.83003 0.69684 0.64672 0.0
H2868 H 0.46637 0.54372 0.69201 0.0
H2869 H 0.47864 0.61104 0.63126 0.0
H2870 H 0.49326 0.55255 0.77395 0.0
H2871 H 0.50659 0.61958 0.71341 0.0
H2872 H 0.57588 0.60526 0.86672 0.0
H2873 H 0.55535 0.60144 0.77376 0.0
H2874 H 0.47551 0.58529 0.85045 0.0
H2875 H 0.4953 0.58955 0.94195 0.0
C2876 C 0.47528 0.56027 0.69526 0.0
C2877 C 0.46978 0.57676 0.65512 0.0
C2878 C 0.49075 0.5653 0.74243 0.0
C2879 C 0.50183 0.5868 0.75029 0.0
C2880 C 0.49835 0.60286 0.70832 0.0
C2881 C 0.48228 0.59794 0.66137 0.0
C2882 C 0.55378 0.60161 0.86366 0.0
C2883 C 0.53737 0.59755 0.91205 0.0
C2884 C 0.54209 0.59928 0.81047 0.0
C2885 C 0.51396 0.59268 0.80504 0.0
C2886 C 0.4973 0.59011 0.85333 0.0
C2887 C 0.50873 0.5927 0.90588 0.0
H2888 H 0.67057 0.28316 0.14562 0.0
H2889 H 0.66222 0.34809 0.06967 0.0
H2890 H 0.67682 0.26617 0.05434 0.0
H2891 H 0.66894 0.33096 0.97708 0.0
H2892 H 0.6608 0.2804 0.82129 0.0
H2893 H 0.64931 0.30159 0.90647 0.0
H2894 H 0.7178 0.26939 0.98922 0.0
H2895 H 0.72893 0.24835 0.90561 0.0
C2896 C 0.66945 0.29372 0.10913 0.0
C2897 C 0.66592 0.31689 0.11468 0.0
C2898 C 0.67332 0.28404 0.05688 0.0
C2899 C 0.67402 0.29731 0.00867 0.0
C2900 C 0.66853 0.32036 0.01362 0.0
C2901 C 0.6645 0.33012 0.06644 0.0
C2902 C 0.67372 0.2783 0.85741 0.0
C2903 C 0.69611 0.26297 0.85626 0.0
C2904 C 0.66712 0.29038 0.90608 0.0
C2905 C 0.68244 0.28693 0.95466 0.0
C2906 C 0.70532 0.27219 0.95271 0.0
C2907 C 0.71197 0.26032 0.90436 0.0
H2908 H 0.91581 0.39572 0.31125 0.0
H2909 H 0.97969 0.41728 0.42344 0.0
H2910 H 0.94609 0.40528 0.23164 0.0
H2911 H 0.01016 0.42715 0.34336 0.0
H2912 H 0.03625 0.46968 0.18703 0.0
H2913 H 0.00612 0.45786 0.26586 0.0
H2914 H 0.99209 0.39459 0.18504 0.0
H2915 H 0.02161 0.40659 0.10623 0.0
C2916 C 0.93676 0.40181 0.31877 0.0
C2917 C 0.94564 0.40531 0.37344 0.0
C2918 C 0.954 0.40748 0.27321 0.0
C2919 C 0.98034 0.41725 0.28122 0.0
C2920 C 0.9898 0.41987 0.33597 0.0
C2921 C 0.97265 0.4138 0.38175 0.0
C2922 C 0.02642 0.45338 0.186 0.0
C2923 C 0.03185 0.43876 0.14138 0.0
C2924 C 0.00952 0.44649 0.23136 0.0
C2925 C 0.99746 0.42502 0.23243 0.0
C2926 C 0.00143 0.41108 0.18594 0.0
C2927 C 0.01842 0.41789 0.141 0.0
H2928 H 0.85318 0.31156 0.9095 0.0
H2929 H 0.83841 0.36765 0.01939 0.0
H2930 H 0.84804 0.28607 0.98873 0.0
H2931 H 0.83304 0.34225 0.0982 0.0
H2932 H 0.84387 0.28838 0.23496 0.0
H2933 H 0.8567 0.31408 0.15868 0.0
H2934 H 0.80652 0.27539 0.04642 0.0
H2935 H 0.79372 0.25017 0.12205 0.0
C2936 C 0.84966 0.31848 0.95072 0.0
C2937 C 0.84629 0.34161 0.95818 0.0
C2938 C 0.84636 0.30389 0.99601 0.0
C2939 C 0.83993 0.31215 0.04971 0.0
C2940 C 0.83821 0.33536 0.05756 0.0
C2941 C 0.84124 0.3499 0.01231 0.0
C2942 C 0.83549 0.28559 0.19401 0.0
C2943 C 0.81736 0.26758 0.18466 0.0
C2944 C 0.84285 0.30021 0.15038 0.0
C2945 C 0.83283 0.29664 0.09634 0.0
C2946 C 0.81499 0.27842 0.0872 0.0
C2947 C 0.80733 0.26413 0.13079 0.0
H2948 H 0.93066 0.63122 0.16435 0.0
H2949 H 0.97318 0.58161 0.06285 0.0
H2950 H 0.96193 0.62293 0.24098 0.0
H2951 H 0.00423 0.57341 0.13929 0.0
H2952 H 0.03962 0.61177 0.35291 0.0
H2953 H 0.01152 0.62386 0.27419 0.0
H2954 H 0.99733 0.55498 0.23024 0.0
H2955 H 0.02538 0.54283 0.30752 0.0
C2956 C 0.94701 0.61888 0.1579 0.0
C2957 C 0.94934 0.60715 0.10718 0.0
C2958 C 0.96497 0.61415 0.2019 0.0
C2959 C 0.98547 0.59735 0.19659 0.0
C2960 C 0.98852 0.58628 0.14511 0.0
C2961 C 0.97082 0.59117 0.10096 0.0
C2962 C 0.03035 0.59918 0.32666 0.0
C2963 C 0.03489 0.57628 0.33695 0.0
C2964 C 0.01426 0.60613 0.28145 0.0
C2965 C 0.00246 0.59037 0.24526 0.0
C2966 C 0.00665 0.56756 0.25624 0.0
C2967 C 0.02255 0.56061 0.30125 0.0
H2968 H 0.66057 0.69212 0.33179 0.0
H2969 H 0.62445 0.6469 0.45365 0.0
H2970 H 0.67225 0.71812 0.4068 0.0
H2971 H 0.63683 0.67242 0.52779 0.0
H2972 H 0.64346 0.73247 0.64563 0.0
H2973 H 0.62724 0.70945 0.56886 0.0
H2974 H 0.70704 0.71781 0.48371 0.0
H2975 H 0.72337 0.74075 0.56047 0.0
C2976 C 0.65495 0.68775 0.37431 0.0
C2977 C 0.64175 0.66725 0.38638 0.0
C2978 C 0.66188 0.70257 0.41735 0.0
C2979 C 0.65604 0.69719 0.47347 0.0
C2980 C 0.64166 0.67719 0.48518 0.0
C2981 C 0.63456 0.6625 0.44235 0.0
C2982 C 0.65764 0.72935 0.61072 0.0
C2983 C 0.68482 0.73846 0.60971 0.0
C2984 C 0.64832 0.71611 0.56662 0.0
C2985 C 0.66574 0.71182 0.51984 0.0
C2986 C 0.6929 0.72098 0.51867 0.0
C2987 C 0.70236 0.734 0.56308 0.0
H2988 H 0.49001 0.43453 0.58098 0.0
H2989 H 0.56542 0.40534 0.64556 0.0
H2990 H 0.4746 0.44393 0.67462 0.0
H2991 H 0.55007 0.41548 0.73997 0.0
H2992 H 0.4903 0.41408 0.89955 0.0
H2993 H 0.5163 0.40772 0.81241 0.0
H2994 H 0.48402 0.46971 0.7475 0.0
H2995 H 0.45842 0.4761 0.835 0.0
C2996 C 0.50338 0.43011 0.61514 0.0
C2997 C 0.52939 0.41972 0.60526 0.0
C2998 C 0.49462 0.43583 0.669 0.0
C2999 C 0.5114 0.43124 0.71492 0.0
C3000 C 0.53671 0.41961 0.70559 0.0
C3001 C 0.54555 0.41381 0.65134 0.0
C3002 C 0.48964 0.42671 0.86728 0.0
C3003 C 0.47221 0.44549 0.87383 0.0
C3004 C 0.50445 0.42305 0.81719 0.0
C3005 C 0.50141 0.43772 0.77205 0.0
C3006 C 0.4861 0.45763 0.78074 0.0
C3007 C 0.47174 0.46151 0.83124 0.0
H3008 H 0.21667 0.27908 0.6038 0.0
H3009 H 0.12843 0.27428 0.6447 0.0
H3010 H 0.20581 0.30156 0.52175 0.0
H3011 H 0.11763 0.29616 0.56273 0.0
H3012 H 0.10978 0.35625 0.44612 0.0
H3013 H 0.12089 0.33342 0.52627 0.0
H3014 H 0.18429 0.29881 0.42893 0.0
H3015 H 0.17362 0.32222 0.34835 0.0
C3016 C 0.19501 0.28302 0.59581 0.0
C3017 C 0.17353 0.27497 0.6316 0.0
C3018 C 0.18873 0.29565 0.54818 0.0
C3019 C 0.16077 0.3007 0.53512 0.0
C3020 C 0.13941 0.2929 0.57143 0.0
C3021 C 0.14565 0.28025 0.6187 0.0
C3022 C 0.1259 0.34363 0.44129 0.0
C3023 C 0.14064 0.34114 0.39028 0.0
C3024 C 0.13229 0.33044 0.48754 0.0
C3025 C 0.15369 0.31427 0.48459 0.0
C3026 C 0.16802 0.31133 0.43318 0.0
C3027 C 0.16158 0.32455 0.38663 0.0
H3028 H 0.52484 0.45777 0.30534 0.0
H3029 H 0.52018 0.39113 0.37384 0.0
H3030 H 0.49761 0.44598 0.22686 0.0
H3031 H 0.49351 0.379 0.2934 0.0
H3032 H 0.42207 0.37186 0.16698 0.0
H3033 H 0.45022 0.38116 0.247 0.0
H3034 H 0.50053 0.42543 0.14406 0.0
H3035 H 0.47194 0.41665 0.06454 0.0
C3036 C 0.518 0.44054 0.30381 0.0
C3037 C 0.52518 0.42532 0.34585 0.0
C3038 C 0.50256 0.43369 0.25808 0.0
C3039 C 0.49363 0.41141 0.25272 0.0
C3040 C 0.49992 0.39632 0.2958 0.0
C3041 C 0.5154 0.40322 0.34186 0.0
C3042 C 0.43943 0.38332 0.1611 0.0
C3043 C 0.44464 0.39346 0.10898 0.0
C3044 C 0.45568 0.38864 0.20722 0.0
C3045 C 0.47765 0.40425 0.2026 0.0
C3046 C 0.48355 0.41366 0.14983 0.0
C3047 C 0.46729 0.40838 0.10377 0.0
H3048 H 0.34017 0.71156 0.22585 0.0
H3049 H 0.29645 0.756 0.11617 0.0
H3050 H 0.34884 0.68572 0.14748 0.0
H3051 H 0.30588 0.73093 0.03817 0.0
H3052 H 0.34995 0.69204 0.90078 0.0
H3053 H 0.34894 0.7164 0.98268 0.0
H3054 H 0.31663 0.66206 0.08326 0.0
H3055 H 0.31754 0.63774 1.00165 0.0
C3056 C 0.33262 0.71581 0.18499 0.0
C3057 C 0.31758 0.73566 0.17682 0.0
C3058 C 0.33757 0.70114 0.14033 0.0
C3059 C 0.32835 0.70654 0.08671 0.0
C3060 C 0.31371 0.72657 0.07875 0.0
C3061 C 0.30818 0.74085 0.12341 0.0
C3062 C 0.34331 0.68516 0.94062 0.0
C3063 C 0.33383 0.66301 0.94481 0.0
C3064 C 0.34253 0.69912 0.98734 0.0
C3065 C 0.33267 0.69107 0.03917 0.0
C3066 C 0.3246 0.66861 0.04396 0.0
C3067 C 0.32502 0.65475 0.99716 0.0
H3068 H 0.99715 0.56058 0.5747 0.0
H3069 H 0.0689 0.59604 0.63648 0.0
H3070 H 0.98176 0.55286 0.66982 0.0
H3071 H 0.05252 0.58897 0.73211 0.0
H3072 H 0.98647 0.59386 0.88362 0.0
H3073 H 0.01266 0.59906 0.79604 0.0
H3074 H 0.99563 0.53059 0.7512 0.0
H3075 H 0.96985 0.52534 0.83903 0.0
C3076 C 0.00958 0.56683 0.60848 0.0
C3077 C 0.03453 0.5786 0.59775 0.0
C3078 C 1.00074 0.56231 0.66302 0.0
C3079 C 0.01605 0.56997 0.70843 0.0
C3080 C 0.04033 0.5827 0.69797 0.0
C3081 C 0.04959 0.58685 0.64316 0.0
C3082 C 0.98899 0.57977 0.85561 0.0
C3083 C 0.97572 0.55933 0.86766 0.0
C3084 C 0.00401 0.58274 0.80553 0.0
C3085 C 0.00555 0.56544 0.76608 0.0
C3086 C 0.99426 0.54441 0.78027 0.0
C3087 C 0.9797 0.54133 0.83082 0.0
H3088 H 0.15688 0.70705 0.11034 0.0
H3089 H 0.15746 0.64899 1.00376 0.0
H3090 H 0.16423 0.73103 0.02862 0.0
H3091 H 0.16487 0.67278 0.92241 0.0
H3092 H 0.16139 0.72661 0.78385 0.0
H3093 H 0.14562 0.70342 0.8626 0.0
H3094 H 0.2067 0.73504 0.96654 0.0
H3095 H 0.22258 0.75775 0.88831 0.0
C3096 C 0.15749 0.69952 0.06933 0.0
C3097 C 0.15643 0.67621 0.06325 0.0
C3098 C 0.16213 0.71316 0.02265 0.0
C3099 C 0.16544 0.70373 0.96917 0.0
C3100 C 0.16225 0.68056 0.9629 0.0
C3101 C 0.15795 0.66695 0.00949 0.0
C3102 C 0.1718 0.7282 0.82323 0.0
C3103 C 0.19373 0.7436 0.82935 0.0
C3104 C 0.16261 0.71511 0.86841 0.0
C3105 C 0.17469 0.71762 0.92094 0.0
C3106 C 0.19661 0.73299 0.92691 0.0
C3107 C 0.20604 0.74575 0.88169 0.0
H3108 H 0.98098 0.38943 0.62833 0.0
H3109 H 0.97716 0.45967 0.6694 0.0
H3110 H 0.00774 0.3825 0.71301 0.0
H3111 H 0.00309 0.45256 0.7537 0.0
H3112 H 1.00046 0.42244 0.93164 0.0
H3113 H 0.98136 0.42457 0.83908 0.0
H3114 H 0.05911 0.39991 0.76844 0.0
H3115 H 0.07908 0.39838 0.86242 0.0
C3116 C 0.98621 0.40344 0.65467 0.0
C3117 C 0.97633 0.42506 0.64218 0.0
C3118 C 0.00162 0.39945 0.70306 0.0
C3119 C 0.00727 0.41696 0.74018 0.0
C3120 C 0.99891 0.43871 0.72601 0.0
C3121 C 0.98399 0.44275 0.67747 0.0
C3122 C 0.01356 0.41703 0.89681 0.0
C3123 C 0.0415 0.41033 0.90486 0.0
C3124 C 0.00252 0.41837 0.84358 0.0
C3125 C 0.0188 0.41267 0.79648 0.0
C3126 C 0.04611 0.40444 0.80416 0.0
C3127 C 0.05746 0.4034 0.85797 0.0
H3128 H 0.36016 0.35949 0.57711 0.0
H3129 H 0.33616 0.29628 0.65037 0.0
H3130 H 0.35144 0.34405 0.48401 0.0
H3131 H 0.32773 0.28114 0.55864 0.0
H3132 H 0.35442 0.29343 0.32601 0.0
H3133 H 0.36615 0.31338 0.41195 0.0
H3134 H 0.29059 0.28813 0.49086 0.0
H3135 H 0.27934 0.26809 0.40622 0.0
C3136 C 0.35361 0.34225 0.57355 0.0
C3137 C 0.34847 0.3293 0.6217 0.0
C3138 C 0.3485 0.33341 0.52012 0.0
C3139 C 0.33808 0.3115 0.51389 0.0
C3140 C 0.33494 0.29823 0.56183 0.0
C3141 C 0.34012 0.30692 0.61459 0.0
C3142 C 0.33998 0.29266 0.36134 0.0
C3143 C 0.31552 0.27954 0.35854 0.0
C3144 C 0.34673 0.30408 0.41062 0.0
C3145 C 0.3295 0.30222 0.45869 0.0
C3146 C 0.30457 0.28978 0.455 0.0
C3147 C 0.2978 0.27856 0.40591 0.0
H3148 H 0.41118 0.60681 0.32338 0.0
H3149 H 0.47491 0.58493 0.43566 0.0
H3150 H 0.44314 0.60042 0.24405 0.0
H3151 H 0.50679 0.57787 0.35593 0.0
H3152 H 0.53199 0.53768 0.19313 0.0
H3153 H 0.50222 0.54819 0.27338 0.0
H3154 H 0.49166 0.61408 0.20384 0.0
H3155 H 0.52099 0.60344 0.12333 0.0
C3156 C 0.43236 0.60126 0.33103 0.0
C3157 C 0.44084 0.59675 0.38547 0.0
C3158 C 0.45054 0.59746 0.28572 0.0
C3159 C 0.4773 0.58849 0.29392 0.0
C3160 C 0.4862 0.58473 0.34858 0.0
C3161 C 0.46818 0.58908 0.39413 0.0
C3162 C 0.5231 0.55432 0.19481 0.0
C3163 C 0.52914 0.56991 0.1525 0.0
C3164 C 0.5064 0.56042 0.24099 0.0
C3165 C 0.49518 0.58209 0.24527 0.0
C3166 C 0.50032 0.59736 0.20188 0.0
C3167 C 0.5172 0.59133 0.15607 0.0
loop_
_geom_bond_atom_site_label_1
_geom_bond_atom_site_label_2
_geom_bond_distance
_geom_bond_site_symmetry_2
_ccdc_geom_bond_type
Co0 O2 2.143 . S
Co0 O8 2.074 . S
Co0 O11 2.093 . S
Co0 O24 2.097 . S
Co0 N41 2.151 . S
Co0 N49 2.214 . S
Co1 O2 2.160 . S
Co1 O7 2.058 . S
Co1 O17 2.057 . S
Co1 O32 2.037 . S
Co1 N36 2.145 . S
Co1 N57 2.257 . S
O2 Co0 2.143 . S
O2 Co1 2.160 . S
C3 O4 1.278 . S
C3 O11 1.224 . S
O4 C3 1.278 . S
C5 O6 1.245 . S
C5 O17 1.232 . S
O6 C5 1.245 . S
O7 Co1 2.058 . S
O7 C33 1.269 . S
O8 Co0 2.074 . S
O8 C33 1.257 . S
H9 C34 0.930 . S
H10 C40 0.930 . S
O11 Co0 2.093 . S
O11 C3 1.224 . S
H12 C44 0.929 . S
H13 C46 0.930 . S
H14 C47 0.930 . S
H15 C45 0.929 . S
H16 C48 0.928 . S
O17 Co1 2.057 . S
O17 C5 1.232 . S
H18 C37 0.929 . S
H19 C38 0.929 . S
H20 C50 0.931 . S
H21 C42 0.929 . S
H22 C51 0.930 . S
H23 C43 0.931 . S
O24 Co0 2.097 . S
O24 C52 1.214 . S
H25 C53 0.929 . S
H26 C54 0.929 . S
H27 C55 0.930 . S
H28 C56 0.929 . S
H29 C58 0.930 . S
H30 C35 0.930 . S
H31 C39 0.930 . S
O32 Co1 2.037 . S
O32 C52 1.234 . S
C33 O7 1.269 . S
C33 O8 1.257 . S
C34 H9 0.930 . S
C34 C37 1.388 . S
C34 C39 1.418 . S
C35 H30 0.930 . S
C35 C38 1.404 . S
C35 C39 1.353 . S
N36 Co1 2.145 . S
N36 C37 1.397 . S
N36 C38 1.334 . S
C37 H18 0.929 . S
C37 C34 1.388 . S
C37 N36 1.397 . S
C38 H19 0.929 . S
C38 C35 1.404 . S
C38 N36 1.334 . S
C39 H31 0.930 . S
C39 C34 1.418 . S
C39 C35 1.353 . S
C40 H10 0.930 . S
C40 N41 1.330 . S
C40 C42 1.446 . S
N41 Co0 2.151 . S
N41 C40 1.330 . S
N41 C45 1.418 . S
C42 H21 0.929 . S
C42 C40 1.446 . S
C42 C43 1.332 . S
C43 H23 0.931 . S
C43 C42 1.332 . S
C43 C44 1.267 . S
C44 H12 0.929 . S
C44 C43 1.267 . S
C44 C45 1.251 . S
C45 H15 0.929 . S
C45 N41 1.418 . S
C45 C44 1.251 . S
C46 H13 0.930 . S
C46 C48 1.406 . S
C46 C51 1.261 . S
C47 H14 0.930 . S
C47 N49 1.325 . S
C47 C50 1.357 . S
C48 H16 0.928 . S
C48 C46 1.406 . S
C48 N49 1.261 . S
N49 Co0 2.214 . S
N49 C47 1.325 . S
N49 C48 1.261 . S
C50 H20 0.931 . S
C50 C47 1.357 . S
C50 C51 1.312 . S
C51 H22 0.930 . S
C51 C46 1.261 . S
C51 C50 1.312 . S
C52 O24 1.214 . S
C52 O32 1.234 . S
C53 H25 0.929 . S
C53 C56 1.391 . S
C53 C58 1.391 . S
C54 H26 0.929 . S
C54 C55 1.390 . S
C54 N57 1.391 . S
C55 H27 0.930 . S
C55 C54 1.390 . S
C55 C56 1.392 . S
C56 H28 0.929 . S
C56 C53 1.391 . S
C56 C55 1.392 . S
N57 Co1 2.257 . S
N57 C54 1.391 . S
N57 C58 1.388 . S
C58 H29 0.930 . S
C58 C53 1.391 . S
C58 N57 1.388 . S
Co59 O61 2.143 1_545 S
Co59 O67 2.074 . S
Co59 O70 2.093 . S
Co59 O83 2.097 . S
Co59 N100 2.151 . S
Co59 N108 2.214 . S
Co60 O61 2.160 . S
Co60 O66 2.058 . S
Co60 O76 2.057 . S
Co60 O91 2.037 . S
Co60 N95 2.145 . S
Co60 N116 2.257 . S
O61 Co59 2.143 1_565 S
O61 Co60 2.160 . S
C62 O63 1.278 1_545 S
C62 O70 1.224 . S
O63 C62 1.278 1_565 S
C64 O65 1.245 . S
C64 O76 1.232 . S
O65 C64 1.245 . S
O66 Co60 2.058 . S
O66 C92 1.269 1_565 S
O67 Co59 2.074 . S
O67 C92 1.257 . S
H68 C93 0.930 . S
H69 C99 0.930 . S
O70 Co59 2.093 . S
O70 C62 1.224 . S
H71 C103 0.929 . S
H72 C105 0.930 . S
H73 C106 0.930 . S
H74 C104 0.929 . S
H75 C107 0.928 . S
O76 Co60 2.057 . S
O76 C64 1.232 . S
H77 C96 0.929 . S
H78 C97 0.929 . S
H79 C109 0.931 . S
H80 C101 0.929 . S
H81 C110 0.930 . S
H82 C102 0.931 . S
O83 Co59 2.097 . S
O83 C111 1.192 1_545 S
H84 C112 0.929 . S
H85 C113 0.929 . S
H86 C114 0.930 . S
H87 C115 0.929 . S
H88 C117 0.930 . S
H89 C94 0.930 . S
H90 C98 0.930 . S
O91 Co60 2.037 . S
O91 C111 1.256 . S
C92 O66 1.269 1_545 S
C92 O67 1.257 . S
C93 H68 0.930 . S
C93 C96 1.388 . S
C93 C98 1.418 . S
C94 H89 0.930 . S
C94 C97 1.404 . S
C94 C98 1.353 . S
N95 Co60 2.145 . S
N95 C96 1.397 . S
N95 C97 1.334 . S
C96 H77 0.929 . S
C96 C93 1.388 . S
C96 N95 1.397 . S
C97 H78 0.929 . S
C97 C94 1.404 . S
C97 N95 1.334 . S
C98 H90 0.930 . S
C98 C93 1.418 . S
C98 C94 1.353 . S
C99 H69 0.930 . S
C99 N100 1.330 . S
C99 C101 1.446 . S
N100 Co59 2.151 . S
N100 C99 1.330 . S
N100 C104 1.418 . S
C101 H80 0.929 . S
C101 C99 1.446 . S
C101 C102 1.332 . S
C102 H82 0.931 . S
C102 C101 1.332 . S
C102 C103 1.267 . S
C103 H71 0.929 . S
C103 C102 1.267 . S
C103 C104 1.251 . S
C104 H74 0.929 . S
C104 N100 1.418 . S
C104 C103 1.251 . S
C105 H72 0.930 . S
C105 C107 1.406 . S
C105 C110 1.261 . S
C106 H73 0.930 . S
C106 N108 1.325 . S
C106 C109 1.357 . S
C107 H75 0.928 . S
C107 C105 1.406 . S
C107 N108 1.261 . S
N108 Co59 2.214 . S
N108 C106 1.325 . S
N108 C107 1.261 . S
C109 H79 0.931 . S
C109 C106 1.357 . S
C109 C110 1.312 . S
C110 H81 0.930 . S
C110 C105 1.261 . S
C110 C109 1.312 . S
C111 O83 1.192 1_565 S
C111 O91 1.256 . S
C112 H84 0.929 . S
C112 C115 1.391 . S
C112 C117 1.391 . S
C113 H85 0.929 . S
C113 C114 1.390 . S
C113 N116 1.391 . S
C114 H86 0.930 . S
C114 C113 1.390 . S
C114 C115 1.392 . S
C115 H87 0.929 . S
C115 C112 1.391 . S
C115 C114 1.392 . S
N116 Co60 2.257 . S
N116 C113 1.391 . S
N116 C117 1.388 . S
C117 H88 0.930 . S
C117 C112 1.391 . S
C117 N116 1.388 . S
Co118 O120 2.143 . S
Co118 O126 2.074 . S
Co118 O129 2.093 . S
Co118 O142 2.097 . S
Co118 N159 2.151 . S
Co118 N167 2.214 . S
Co119 O120 2.160 . S
Co119 O125 2.058 . S
Co119 O135 2.057 . S
Co119 O150 2.037 . S
Co119 N154 2.145 . S
Co119 N175 2.257 . S
O120 Co118 2.143 . S
O120 Co119 2.160 . S
C121 O122 1.278 . S
C121 O129 1.224 . S
O122 C121 1.278 . S
C123 O124 1.245 . S
C123 O135 1.232 . S
O124 C123 1.245 . S
O125 Co119 2.058 . S
O125 C151 1.269 . S
O126 Co118 2.074 . S
O126 C151 1.257 . S
H127 C152 0.930 . S
H128 C158 0.930 . S
O129 Co118 2.093 . S
O129 C121 1.224 . S
H130 C162 0.929 . S
H131 C164 0.930 . S
H132 C165 0.930 . S
H133 C163 0.929 . S
H134 C166 0.928 . S
O135 Co119 2.057 . S
O135 C123 1.232 . S
H136 C155 0.929 . S
H137 C156 0.929 . S
H138 C168 0.931 . S
H139 C160 0.929 . S
H140 C169 0.930 . S
H141 C161 0.931 . S
O142 Co118 2.097 . S
O142 C170 1.214 . S
H143 C171 0.929 . S
H144 C172 0.929 . S
H145 C173 0.930 . S
H146 C174 0.929 . S
H147 C176 0.930 . S
H148 C153 0.930 . S
H149 C157 0.930 . S
O150 Co119 2.037 . S
O150 C170 1.234 . S
C151 O125 1.269 . S
C151 O126 1.257 . S
C152 H127 0.930 . S
C152 C155 1.388 . S
C152 C157 1.418 . S
C153 H148 0.930 . S
C153 C156 1.404 . S
C153 C157 1.353 . S
N154 Co119 2.145 . S
N154 C155 1.397 . S
N154 C156 1.334 . S
C155 H136 0.929 . S
C155 C152 1.388 . S
C155 N154 1.397 . S
C156 H137 0.929 . S
C156 C153 1.404 . S
C156 N154 1.334 . S
C157 H149 0.930 . S
C157 C152 1.418 . S
C157 C153 1.353 . S
C158 H128 0.930 . S
C158 N159 1.330 . S
C158 C160 1.446 . S
N159 Co118 2.151 . S
N159 C158 1.330 . S
N159 C163 1.418 . S
C160 H139 0.929 . S
C160 C158 1.446 . S
C160 C161 1.332 . S
C161 H141 0.931 . S
C161 C160 1.332 . S
C161 C162 1.267 . S
C162 H130 0.929 . S
C162 C161 1.267 . S
C162 C163 1.251 . S
C163 H133 0.929 . S
C163 N159 1.418 . S
C163 C162 1.251 . S
C164 H131 0.930 . S
C164 C166 1.406 . S
C164 C169 1.261 . S
C165 H132 0.930 . S
C165 N167 1.325 . S
C165 C168 1.357 . S
C166 H134 0.928 . S
C166 C164 1.406 . S
C166 N167 1.261 . S
N167 Co118 2.214 . S
N167 C165 1.325 . S
N167 C166 1.261 . S
C168 H138 0.931 . S
C168 C165 1.357 . S
C168 C169 1.312 . S
C169 H140 0.930 . S
C169 C164 1.261 . S
C169 C168 1.312 . S
C170 O142 1.214 . S
C170 O150 1.234 . S
C171 H143 0.929 . S
C171 C174 1.391 . S
C171 C176 1.391 . S
C172 H144 0.929 . S
C172 C173 1.390 . S
C172 N175 1.391 . S
C173 H145 0.930 . S
C173 C172 1.390 . S
C173 C174 1.392 . S
C174 H146 0.929 . S
C174 C171 1.391 . S
C174 C173 1.392 . S
N175 Co119 2.257 . S
N175 C172 1.391 . S
N175 C176 1.388 . S
C176 H147 0.930 . S
C176 C171 1.391 . S
C176 N175 1.388 . S
Co177 O179 2.143 1_565 S
Co177 O185 2.074 1_556 S
Co177 O188 2.093 . S
Co177 O201 2.097 1_556 S
Co177 N218 2.151 . S
Co177 N226 2.214 1_556 S
Co178 O179 2.160 1_554 S
Co178 O184 2.058 . S
Co178 O194 2.057 1_554 S
Co178 O209 2.037 . S
Co178 N213 2.145 . S
Co178 N234 2.257 1_554 S
O179 Co177 2.143 1_545 S
O179 Co178 2.160 1_556 S
C180 O181 1.278 1_565 S
C180 O188 1.224 . S
O181 C180 1.278 1_545 S
C182 O183 1.245 . S
C182 O194 1.232 . S
O183 C182 1.245 . S
O184 Co178 2.058 . S
O184 C210 1.269 1_545 S
O185 Co177 2.074 1_554 S
O185 C210 1.257 . S
H186 C211 0.930 . S
H187 C217 0.930 . S
O188 Co177 2.093 . S
O188 C180 1.224 . S
H189 C221 0.929 . S
H190 C223 0.930 1_556 S
H191 C224 0.930 . S
H192 C222 0.929 1_554 S
H193 C225 0.928 . S
O194 Co178 2.057 1_556 S
O194 C182 1.232 . S
H195 C214 0.929 . S
H196 C215 0.929 . S
H197 C227 0.931 . S
H198 C219 0.929 . S
H199 C228 0.930 . S
H200 C220 0.931 . S
O201 Co177 2.097 1_554 S
O201 C229 1.183 1_565 S
H202 C230 0.929 . S
H203 C231 0.929 . S
H204 C232 0.930 1_554 S
H205 C233 0.929 . S
H206 C235 0.930 . S
H207 C212 0.930 . S
H208 C216 0.930 . S
O209 Co178 2.037 . S
O209 C229 1.265 . S
C210 O184 1.269 1_565 S
C210 O185 1.257 . S
C211 H186 0.930 . S
C211 C214 1.388 . S
C211 C216 1.418 . S
C212 H207 0.930 . S
C212 C215 1.404 . S
C212 C216 1.353 . S
N213 Co178 2.145 . S
N213 C214 1.397 . S
N213 C215 1.334 . S
C214 H195 0.929 . S
C214 C211 1.388 . S
C214 N213 1.397 . S
C215 H196 0.929 . S
C215 C212 1.404 . S
C215 N213 1.334 . S
C216 H208 0.930 . S
C216 C211 1.418 . S
C216 C212 1.353 . S
C217 H187 0.930 . S
C217 N218 1.330 . S
C217 C219 1.446 . S
N218 Co177 2.151 . S
N218 C217 1.330 . S
N218 C222 1.418 . S
C219 H198 0.929 . S
C219 C217 1.446 . S
C219 C220 1.332 . S
C220 H200 0.931 . S
C220 C219 1.332 . S
C220 C221 1.267 . S
C221 H189 0.929 . S
C221 C220 1.267 . S
C221 C222 1.251 . S
C222 H192 0.929 1_556 S
C222 N218 1.418 . S
C222 C221 1.251 . S
C223 H190 0.930 1_554 S
C223 C225 1.406 1_554 S
C223 C228 1.261 . S
C224 H191 0.930 . S
C224 N226 1.325 . S
C224 C227 1.357 . S
C225 H193 0.928 . S
C225 C223 1.406 1_556 S
C225 N226 1.261 1_556 S
N226 Co177 2.214 1_554 S
N226 C224 1.325 . S
N226 C225 1.261 1_554 S
C227 H197 0.931 . S
C227 C224 1.357 . S
C227 C228 1.312 . S
C228 H199 0.930 . S
C228 C223 1.261 . S
C228 C227 1.312 . S
C229 O201 1.183 1_545 S
C229 O209 1.265 . S
C230 H202 0.929 . S
C230 C233 1.391 . S
C230 C235 1.391 . S
C231 H203 0.929 . S
C231 C232 1.390 1_554 S
C231 N234 1.391 1_554 S
C232 H204 0.930 1_556 S
C232 C231 1.390 1_556 S
C232 C233 1.392 . S
C233 H205 0.929 . S
C233 C230 1.391 . S
C233 C232 1.392 . S
N234 Co178 2.257 1_556 S
N234 C231 1.391 1_556 S
N234 C235 1.388 . S
C235 H206 0.930 . S
C235 C230 1.391 . S
C235 N234 1.388 . S
Co236 O238 2.143 . S
Co236 O244 2.074 . S
Co236 O247 2.093 . S
Co236 O260 2.097 . S
Co236 N277 2.151 . S
Co236 N285 2.214 . S
Co237 O238 2.160 . S
Co237 O243 2.058 . S
Co237 O253 2.057 . S
Co237 O268 2.037 . S
Co237 N272 2.145 . S
Co237 N293 2.257 . S
O238 Co236 2.143 . S
O238 Co237 2.160 . S
C239 O240 1.278 . S
C239 O247 1.224 . S
O240 C239 1.278 . S
C241 O242 1.245 . S
C241 O253 1.232 . S
O242 C241 1.245 . S
O243 Co237 2.058 . S
O243 C269 1.269 . S
O244 Co236 2.074 . S
O244 C269 1.257 . S
H245 C270 0.930 . S
H246 C276 0.930 . S
O247 Co236 2.093 . S
O247 C239 1.224 . S
H248 C280 0.929 . S
H249 C282 0.930 . S
H250 C283 0.930 . S
H251 C281 0.929 . S
H252 C284 0.928 . S
O253 Co237 2.057 . S
O253 C241 1.232 . S
H254 C273 0.929 . S
H255 C274 0.929 . S
H256 C286 0.931 . S
H257 C278 0.929 . S
H258 C287 0.930 . S
H259 C279 0.931 . S
O260 Co236 2.097 . S
O260 C288 1.214 . S
H261 C289 0.929 . S
H262 C290 0.929 . S
H263 C291 0.930 . S
H264 C292 0.929 . S
H265 C294 0.930 . S
H266 C271 0.930 . S
H267 C275 0.930 . S
O268 Co237 2.037 . S
O268 C288 1.234 . S
C269 O243 1.269 . S
C269 O244 1.257 . S
C270 H245 0.930 . S
C270 C273 1.388 . S
C270 C275 1.418 . S
C271 H266 0.930 . S
C271 C274 1.404 . S
C271 C275 1.353 . S
N272 Co237 2.145 . S
N272 C273 1.397 . S
N272 C274 1.334 . S
C273 H254 0.929 . S
C273 C270 1.388 . S
C273 N272 1.397 . S
C274 H255 0.929 . S
C274 C271 1.404 . S
C274 N272 1.334 . S
C275 H267 0.930 . S
C275 C270 1.418 . S
C275 C271 1.353 . S
C276 H246 0.930 . S
C276 N277 1.330 . S
C276 C278 1.446 . S
N277 Co236 2.151 . S
N277 C276 1.330 . S
N277 C281 1.418 . S
C278 H257 0.929 . S
C278 C276 1.446 . S
C278 C279 1.332 . S
C279 H259 0.931 . S
C279 C278 1.332 . S
C279 C280 1.267 . S
C280 H248 0.929 . S
C280 C279 1.267 . S
C280 C281 1.251 . S
C281 H251 0.929 . S
C281 N277 1.418 . S
C281 C280 1.251 . S
C282 H249 0.930 . S
C282 C284 1.406 . S
C282 C287 1.261 . S
C283 H250 0.930 . S
C283 N285 1.325 . S
C283 C286 1.357 . S
C284 H252 0.928 . S
C284 C282 1.406 . S
C284 N285 1.261 . S
N285 Co236 2.214 . S
N285 C283 1.325 . S
N285 C284 1.261 . S
C286 H256 0.931 . S
C286 C283 1.357 . S
C286 C287 1.312 . S
C287 H258 0.930 . S
C287 C282 1.261 . S
C287 C286 1.312 . S
C288 O260 1.214 . S
C288 O268 1.234 . S
C289 H261 0.929 . S
C289 C292 1.391 . S
C289 C294 1.391 . S
C290 H262 0.929 . S
C290 C291 1.390 . S
C290 N293 1.391 . S
C291 H263 0.930 . S
C291 C290 1.390 . S
C291 C292 1.392 . S
C292 H264 0.929 . S
C292 C289 1.391 . S
C292 C291 1.392 . S
N293 Co237 2.257 . S
N293 C290 1.391 . S
N293 C294 1.388 . S
C294 H265 0.930 . S
C294 C289 1.391 . S
C294 N293 1.388 . S
Co295 O297 2.143 1_545 S
Co295 O303 2.074 . S
Co295 O306 2.093 . S
Co295 O319 2.097 . S
Co295 N336 2.151 . S
Co295 N344 2.214 . S
Co296 O297 2.160 . S
Co296 O302 2.058 . S
Co296 O312 2.057 . S
Co296 O327 2.037 . S
Co296 N331 2.145 . S
Co296 N352 2.257 . S
O297 Co295 2.143 1_565 S
O297 Co296 2.160 . S
C298 O299 1.278 1_545 S
C298 O306 1.224 . S
O299 C298 1.278 1_565 S
C300 O301 1.245 . S
C300 O312 1.232 . S
O301 C300 1.245 . S
O302 Co296 2.058 . S
O302 C328 1.269 1_565 S
O303 Co295 2.074 . S
O303 C328 1.257 . S
H304 C329 0.930 . S
H305 C335 0.930 . S
O306 Co295 2.093 . S
O306 C298 1.224 . S
H307 C339 0.929 . S
H308 C341 0.930 . S
H309 C342 0.930 . S
H310 C340 0.929 . S
H311 C343 0.928 . S
O312 Co296 2.057 . S
O312 C300 1.232 . S
H313 C332 0.929 . S
H314 C333 0.929 . S
H315 C345 0.931 . S
H316 C337 0.929 . S
H317 C346 0.930 . S
H318 C338 0.931 . S
O319 Co295 2.097 . S
O319 C347 1.192 1_545 S
H320 C348 0.929 . S
H321 C349 0.929 . S
H322 C350 0.930 . S
H323 C351 0.929 . S
H324 C353 0.930 . S
H325 C330 0.930 . S
H326 C334 0.930 . S
O327 Co296 2.037 . S
O327 C347 1.256 . S
C328 O302 1.269 1_545 S
C328 O303 1.257 . S
C329 H304 0.930 . S
C329 C332 1.388 . S
C329 C334 1.418 . S
C330 H325 0.930 . S
C330 C333 1.404 . S
C330 C334 1.353 . S
N331 Co296 2.145 . S
N331 C332 1.397 . S
N331 C333 1.334 . S
C332 H313 0.929 . S
C332 C329 1.388 . S
C332 N331 1.397 . S
C333 H314 0.929 . S
C333 C330 1.404 . S
C333 N331 1.334 . S
C334 H326 0.930 . S
C334 C329 1.418 . S
C334 C330 1.353 . S
C335 H305 0.930 . S
C335 N336 1.330 . S
C335 C337 1.446 . S
N336 Co295 2.151 . S
N336 C335 1.330 . S
N336 C340 1.418 . S
C337 H316 0.929 . S
C337 C335 1.446 . S
C337 C338 1.332 . S
C338 H318 0.931 . S
C338 C337 1.332 . S
C338 C339 1.267 . S
C339 H307 0.929 . S
C339 C338 1.267 . S
C339 C340 1.251 . S
C340 H310 0.929 . S
C340 N336 1.418 . S
C340 C339 1.251 . S
C341 H308 0.930 . S
C341 C343 1.406 . S
C341 C346 1.261 . S
C342 H309 0.930 . S
C342 N344 1.325 . S
C342 C345 1.357 . S
C343 H311 0.928 . S
C343 C341 1.406 . S
C343 N344 1.261 . S
N344 Co295 2.214 . S
N344 C342 1.325 . S
N344 C343 1.261 . S
C345 H315 0.931 . S
C345 C342 1.357 . S
C345 C346 1.312 . S
C346 H317 0.930 . S
C346 C341 1.261 . S
C346 C345 1.312 . S
C347 O319 1.192 1_565 S
C347 O327 1.256 . S
C348 H320 0.929 . S
C348 C351 1.391 . S
C348 C353 1.391 . S
C349 H321 0.929 . S
C349 C350 1.390 . S
C349 N352 1.391 . S
C350 H322 0.930 . S
C350 C349 1.390 . S
C350 C351 1.392 . S
C351 H323 0.929 . S
C351 C348 1.391 . S
C351 C350 1.392 . S
N352 Co296 2.257 . S
N352 C349 1.391 . S
N352 C353 1.388 . S
C353 H324 0.930 . S
C353 C348 1.391 . S
C353 N352 1.388 . S
Co354 O356 2.143 . S
Co354 O362 2.074 . S
Co354 O365 2.093 . S
Co354 O378 2.097 . S
Co354 N395 2.151 . S
Co354 N403 2.214 . S
Co355 O356 2.160 . S
Co355 O361 2.058 . S
Co355 O371 2.057 . S
Co355 O386 2.037 . S
Co355 N390 2.145 . S
Co355 N411 2.257 . S
O356 Co354 2.143 . S
O356 Co355 2.160 . S
C357 O358 1.278 . S
C357 O365 1.224 . S
O358 C357 1.278 . S
C359 O360 1.245 . S
C359 O371 1.232 . S
O360 C359 1.245 . S
O361 Co355 2.058 . S
O361 C387 1.269 . S
O362 Co354 2.074 . S
O362 C387 1.257 . S
H363 C388 0.930 . S
H364 C394 0.930 . S
O365 Co354 2.093 . S
O365 C357 1.224 . S
H366 C398 0.929 . S
H367 C400 0.930 . S
H368 C401 0.930 . S
H369 C399 0.929 . S
H370 C402 0.928 . S
O371 Co355 2.057 . S
O371 C359 1.232 . S
H372 C391 0.929 . S
H373 C392 0.929 . S
H374 C404 0.931 . S
H375 C396 0.929 . S
H376 C405 0.930 . S
H377 C397 0.931 . S
O378 Co354 2.097 . S
O378 C406 1.214 . S
H379 C407 0.929 . S
H380 C408 0.929 . S
H381 C409 0.930 . S
H382 C410 0.929 . S
H383 C412 0.930 . S
H384 C389 0.930 . S
H385 C393 0.930 . S
O386 Co355 2.037 . S
O386 C406 1.234 . S
C387 O361 1.269 . S
C387 O362 1.257 . S
C388 H363 0.930 . S
C388 C391 1.388 . S
C388 C393 1.418 . S
C389 H384 0.930 . S
C389 C392 1.404 . S
C389 C393 1.353 . S
N390 Co355 2.145 . S
N390 C391 1.397 . S
N390 C392 1.334 . S
C391 H372 0.929 . S
C391 C388 1.388 . S
C391 N390 1.397 . S
C392 H373 0.929 . S
C392 C389 1.404 . S
C392 N390 1.334 . S
C393 H385 0.930 . S
C393 C388 1.418 . S
C393 C389 1.353 . S
C394 H364 0.930 . S
C394 N395 1.330 . S
C394 C396 1.446 . S
N395 Co354 2.151 . S
N395 C394 1.330 . S
N395 C399 1.418 . S
C396 H375 0.929 . S
C396 C394 1.446 . S
C396 C397 1.332 . S
C397 H377 0.931 . S
C397 C396 1.332 . S
C397 C398 1.267 . S
C398 H366 0.929 . S
C398 C397 1.267 . S
C398 C399 1.251 . S
C399 H369 0.929 . S
C399 N395 1.418 . S
C399 C398 1.251 . S
C400 H367 0.930 . S
C400 C402 1.406 . S
C400 C405 1.261 . S
C401 H368 0.930 . S
C401 N403 1.325 . S
C401 C404 1.357 . S
C402 H370 0.928 . S
C402 C400 1.406 . S
C402 N403 1.261 . S
N403 Co354 2.214 . S
N403 C401 1.325 . S
N403 C402 1.261 . S
C404 H374 0.931 . S
C404 C401 1.357 . S
C404 C405 1.312 . S
C405 H376 0.930 . S
C405 C400 1.261 . S
C405 C404 1.312 . S
C406 O378 1.214 . S
C406 O386 1.234 . S
C407 H379 0.929 . S
C407 C410 1.391 . S
C407 C412 1.391 . S
C408 H380 0.929 . S
C408 C409 1.390 . S
C408 N411 1.391 . S
C409 H381 0.930 . S
C409 C408 1.390 . S
C409 C410 1.392 . S
C410 H382 0.929 . S
C410 C407 1.391 . S
C410 C409 1.392 . S
N411 Co355 2.257 . S
N411 C408 1.391 . S
N411 C412 1.388 . S
C412 H383 0.930 . S
C412 C407 1.391 . S
C412 N411 1.388 . S
Co413 O415 2.143 1_565 S
Co413 O421 2.074 1_554 S
Co413 O424 2.093 . S
Co413 O437 2.097 1_554 S
Co413 N454 2.151 . S
Co413 N462 2.214 1_554 S
Co414 O415 2.160 1_556 S
Co414 O420 2.058 . S
Co414 O430 2.057 1_556 S
Co414 O445 2.037 . S
Co414 N449 2.145 . S
Co414 N470 2.257 1_556 S
O415 Co413 2.143 1_545 S
O415 Co414 2.160 1_554 S
C416 O417 1.278 1_565 S
C416 O424 1.224 . S
O417 C416 1.278 1_545 S
C418 O419 1.245 . S
C418 O430 1.232 . S
O419 C418 1.245 . S
O420 Co414 2.058 . S
O420 C446 1.269 1_545 S
O421 Co413 2.074 1_556 S
O421 C446 1.257 . S
H422 C447 0.930 . S
H423 C453 0.930 . S
O424 Co413 2.093 . S
O424 C416 1.224 . S
H425 C457 0.929 . S
H426 C459 0.930 1_554 S
H427 C460 0.930 . S
H428 C458 0.929 1_556 S
H429 C461 0.928 . S
O430 Co414 2.057 1_554 S
O430 C418 1.232 . S
H431 C450 0.929 . S
H432 C451 0.929 . S
H433 C463 0.931 . S
H434 C455 0.929 . S
H435 C464 0.930 . S
H436 C456 0.931 . S
O437 Co413 2.097 1_556 S
O437 C465 1.183 1_565 S
H438 C466 0.929 . S
H439 C467 0.929 . S
H440 C468 0.930 1_556 S
H441 C469 0.929 . S
H442 C471 0.930 . S
H443 C448 0.930 . S
H444 C452 0.930 . S
O445 Co414 2.037 . S
O445 C465 1.265 . S
C446 O420 1.269 1_565 S
C446 O421 1.257 . S
C447 H422 0.930 . S
C447 C450 1.388 . S
C447 C452 1.418 . S
C448 H443 0.930 . S
C448 C451 1.404 . S
C448 C452 1.353 . S
N449 Co414 2.145 . S
N449 C450 1.397 . S
N449 C451 1.334 . S
C450 H431 0.929 . S
C450 C447 1.388 . S
C450 N449 1.397 . S
C451 H432 0.929 . S
C451 C448 1.404 . S
C451 N449 1.334 . S
C452 H444 0.930 . S
C452 C447 1.418 . S
C452 C448 1.353 . S
C453 H423 0.930 . S
C453 N454 1.330 . S
C453 C455 1.446 . S
N454 Co413 2.151 . S
N454 C453 1.330 . S
N454 C458 1.418 . S
C455 H434 0.929 . S
C455 C453 1.446 . S
C455 C456 1.332 . S
C456 H436 0.931 . S
C456 C455 1.332 . S
C456 C457 1.267 . S
C457 H425 0.929 . S
C457 C456 1.267 . S
C457 C458 1.251 . S
C458 H428 0.929 1_554 S
C458 N454 1.418 . S
C458 C457 1.251 . S
C459 H426 0.930 1_556 S
C459 C461 1.406 1_556 S
C459 C464 1.261 . S
C460 H427 0.930 . S
C460 N462 1.325 . S
C460 C463 1.357 . S
C461 H429 0.928 . S
C461 C459 1.406 1_554 S
C461 N462 1.261 1_554 S
N462 Co413 2.214 1_556 S
N462 C460 1.325 . S
N462 C461 1.261 1_556 S
C463 H433 0.931 . S
C463 C460 1.357 . S
C463 C464 1.312 . S
C464 H435 0.930 . S
C464 C459 1.261 . S
C464 C463 1.312 . S
C465 O437 1.183 1_545 S
C465 O445 1.265 . S
C466 H438 0.929 . S
C466 C469 1.391 . S
C466 C471 1.391 . S
C467 H439 0.929 . S
C467 C468 1.390 1_556 S
C467 N470 1.391 1_556 S
C468 H440 0.930 1_554 S
C468 C467 1.390 1_554 S
C468 C469 1.392 . S
C469 H441 0.929 . S
C469 C466 1.391 . S
C469 C468 1.392 . S
N470 Co414 2.257 1_554 S
N470 C467 1.391 1_554 S
N470 C471 1.388 . S
C471 H442 0.930 . S
C471 C466 1.391 . S
C471 N470 1.388 . S
Co472 O474 2.143 . S
Co472 O480 2.074 . S
Co472 O483 2.093 . S
Co472 O496 2.097 . S
Co472 N513 2.151 . S
Co472 N521 2.214 . S
Co473 O474 2.160 . S
Co473 O479 2.058 . S
Co473 O489 2.057 . S
Co473 O504 2.037 . S
Co473 N508 2.145 . S
Co473 N529 2.257 . S
O474 Co472 2.143 . S
O474 Co473 2.160 . S
C475 O476 1.278 . S
C475 O483 1.224 . S
O476 C475 1.278 . S
C477 O478 1.245 . S
C477 O489 1.232 . S
O478 C477 1.245 . S
O479 Co473 2.058 . S
O479 C505 1.269 . S
O480 Co472 2.074 . S
O480 C505 1.257 . S
H481 C506 0.930 . S
H482 C512 0.930 . S
O483 Co472 2.093 . S
O483 C475 1.224 . S
H484 C516 0.929 . S
H485 C518 0.930 . S
H486 C519 0.930 . S
H487 C517 0.929 . S
H488 C520 0.928 . S
O489 Co473 2.057 . S
O489 C477 1.232 . S
H490 C509 0.929 . S
H491 C510 0.929 . S
H492 C522 0.931 . S
H493 C514 0.929 . S
H494 C523 0.930 . S
H495 C515 0.931 . S
O496 Co472 2.097 . S
O496 C524 1.214 . S
H497 C525 0.929 . S
H498 C526 0.929 . S
H499 C527 0.930 . S
H500 C528 0.929 . S
H501 C530 0.930 . S
H502 C507 0.930 . S
H503 C511 0.930 . S
O504 Co473 2.037 . S
O504 C524 1.234 . S
C505 O479 1.269 . S
C505 O480 1.257 . S
C506 H481 0.930 . S
C506 C509 1.388 . S
C506 C511 1.418 . S
C507 H502 0.930 . S
C507 C510 1.404 . S
C507 C511 1.353 . S
N508 Co473 2.145 . S
N508 C509 1.397 . S
N508 C510 1.334 . S
C509 H490 0.929 . S
C509 C506 1.388 . S
C509 N508 1.397 . S
C510 H491 0.929 . S
C510 C507 1.404 . S
C510 N508 1.334 . S
C511 H503 0.930 . S
C511 C506 1.418 . S
C511 C507 1.353 . S
C512 H482 0.930 . S
C512 N513 1.330 . S
C512 C514 1.446 . S
N513 Co472 2.151 . S
N513 C512 1.330 . S
N513 C517 1.418 . S
C514 H493 0.929 . S
C514 C512 1.446 . S
C514 C515 1.332 . S
C515 H495 0.931 . S
C515 C514 1.332 . S
C515 C516 1.267 . S
C516 H484 0.929 . S
C516 C515 1.267 . S
C516 C517 1.251 . S
C517 H487 0.929 . S
C517 N513 1.418 . S
C517 C516 1.251 . S
C518 H485 0.930 . S
C518 C520 1.406 . S
C518 C523 1.261 . S
C519 H486 0.930 . S
C519 N521 1.325 . S
C519 C522 1.357 . S
C520 H488 0.928 . S
C520 C518 1.406 . S
C520 N521 1.261 . S
N521 Co472 2.214 . S
N521 C519 1.325 . S
N521 C520 1.261 . S
C522 H492 0.931 . S
C522 C519 1.357 . S
C522 C523 1.312 . S
C523 H494 0.930 . S
C523 C518 1.261 . S
C523 C522 1.312 . S
C524 O496 1.214 . S
C524 O504 1.234 . S
C525 H497 0.929 . S
C525 C528 1.391 . S
C525 C530 1.391 . S
C526 H498 0.929 . S
C526 C527 1.390 . S
C526 N529 1.391 . S
C527 H499 0.930 . S
C527 C526 1.390 . S
C527 C528 1.392 . S
C528 H500 0.929 . S
C528 C525 1.391 . S
C528 C527 1.392 . S
N529 Co473 2.257 . S
N529 C526 1.391 . S
N529 C530 1.388 . S
C530 H501 0.930 . S
C530 C525 1.391 . S
C530 N529 1.388 . S
Co531 O533 2.143 1_565 S
Co531 O539 2.074 . S
Co531 O542 2.093 . S
Co531 O555 2.097 . S
Co531 N572 2.151 . S
Co531 N580 2.214 . S
Co532 O533 2.160 . S
Co532 O538 2.058 . S
Co532 O548 2.057 . S
Co532 O563 2.037 . S
Co532 N567 2.145 . S
Co532 N588 2.257 . S
O533 Co531 2.143 1_545 S
O533 Co532 2.160 . S
C534 O535 1.278 1_565 S
C534 O542 1.224 . S
O535 C534 1.278 1_545 S
C536 O537 1.245 . S
C536 O548 1.232 . S
O537 C536 1.245 . S
O538 Co532 2.058 . S
O538 C564 1.269 1_545 S
O539 Co531 2.074 . S
O539 C564 1.257 . S
H540 C565 0.930 . S
H541 C571 0.930 . S
O542 Co531 2.093 . S
O542 C534 1.224 . S
H543 C575 0.929 . S
H544 C577 0.930 . S
H545 C578 0.930 . S
H546 C576 0.929 . S
H547 C579 0.928 . S
O548 Co532 2.057 . S
O548 C536 1.232 . S
H549 C568 0.929 . S
H550 C569 0.929 . S
H551 C581 0.931 . S
H552 C573 0.929 . S
H553 C582 0.930 . S
H554 C574 0.931 . S
O555 Co531 2.097 . S
O555 C583 1.192 1_565 S
H556 C584 0.929 . S
H557 C585 0.929 . S
H558 C586 0.930 . S
H559 C587 0.929 . S
H560 C589 0.930 . S
H561 C566 0.930 . S
H562 C570 0.930 . S
O563 Co532 2.037 . S
O563 C583 1.256 . S
C564 O538 1.269 1_565 S
C564 O539 1.257 . S
C565 H540 0.930 . S
C565 C568 1.388 . S
C565 C570 1.418 . S
C566 H561 0.930 . S
C566 C569 1.404 . S
C566 C570 1.353 . S
N567 Co532 2.145 . S
N567 C568 1.397 . S
N567 C569 1.334 . S
C568 H549 0.929 . S
C568 C565 1.388 . S
C568 N567 1.397 . S
C569 H550 0.929 . S
C569 C566 1.404 . S
C569 N567 1.334 . S
C570 H562 0.930 . S
C570 C565 1.418 . S
C570 C566 1.353 . S
C571 H541 0.930 . S
C571 N572 1.330 . S
C571 C573 1.446 . S
N572 Co531 2.151 . S
N572 C571 1.330 . S
N572 C576 1.418 . S
C573 H552 0.929 . S
C573 C571 1.446 . S
C573 C574 1.332 . S
C574 H554 0.931 . S
C574 C573 1.332 . S
C574 C575 1.267 . S
C575 H543 0.929 . S
C575 C574 1.267 . S
C575 C576 1.251 . S
C576 H546 0.929 . S
C576 N572 1.418 . S
C576 C575 1.251 . S
C577 H544 0.930 . S
C577 C579 1.406 . S
C577 C582 1.261 . S
C578 H545 0.930 . S
C578 N580 1.325 . S
C578 C581 1.357 . S
C579 H547 0.928 . S
C579 C577 1.406 . S
C579 N580 1.261 . S
N580 Co531 2.214 . S
N580 C578 1.325 . S
N580 C579 1.261 . S
C581 H551 0.931 . S
C581 C578 1.357 . S
C581 C582 1.312 . S
C582 H553 0.930 . S
C582 C577 1.261 . S
C582 C581 1.312 . S
C583 O555 1.192 1_545 S
C583 O563 1.256 . S
C584 H556 0.929 . S
C584 C587 1.391 . S
C584 C589 1.391 . S
C585 H557 0.929 . S
C585 C586 1.390 . S
C585 N588 1.391 . S
C586 H558 0.930 . S
C586 C585 1.390 . S
C586 C587 1.392 . S
C587 H559 0.929 . S
C587 C584 1.391 . S
C587 C586 1.392 . S
N588 Co532 2.257 . S
N588 C585 1.391 . S
N588 C589 1.388 . S
C589 H560 0.930 . S
C589 C584 1.391 . S
C589 N588 1.388 . S
Co590 O592 2.143 . S
Co590 O598 2.074 . S
Co590 O601 2.093 . S
Co590 O614 2.097 . S
Co590 N631 2.151 . S
Co590 N639 2.214 . S
Co591 O592 2.160 . S
Co591 O597 2.058 . S
Co591 O607 2.057 . S
Co591 O622 2.037 . S
Co591 N626 2.145 . S
Co591 N647 2.257 . S
O592 Co590 2.143 . S
O592 Co591 2.160 . S
C593 O594 1.278 . S
C593 O601 1.224 . S
O594 C593 1.278 . S
C595 O596 1.245 . S
C595 O607 1.232 . S
O596 C595 1.245 . S
O597 Co591 2.058 . S
O597 C623 1.269 . S
O598 Co590 2.074 . S
O598 C623 1.257 . S
H599 C624 0.930 . S
H600 C630 0.930 . S
O601 Co590 2.093 . S
O601 C593 1.224 . S
H602 C634 0.929 . S
H603 C636 0.930 . S
H604 C637 0.930 . S
H605 C635 0.929 . S
H606 C638 0.928 . S
O607 Co591 2.057 . S
O607 C595 1.232 . S
H608 C627 0.929 . S
H609 C628 0.929 . S
H610 C640 0.931 . S
H611 C632 0.929 . S
H612 C641 0.930 . S
H613 C633 0.931 . S
O614 Co590 2.097 . S
O614 C642 1.214 . S
H615 C643 0.929 . S
H616 C644 0.929 . S
H617 C645 0.930 . S
H618 C646 0.929 . S
H619 C648 0.930 . S
H620 C625 0.930 . S
H621 C629 0.930 . S
O622 Co591 2.037 . S
O622 C642 1.234 . S
C623 O597 1.269 . S
C623 O598 1.257 . S
C624 H599 0.930 . S
C624 C627 1.388 . S
C624 C629 1.418 . S
C625 H620 0.930 . S
C625 C628 1.404 . S
C625 C629 1.353 . S
N626 Co591 2.145 . S
N626 C627 1.397 . S
N626 C628 1.334 . S
C627 H608 0.929 . S
C627 C624 1.388 . S
C627 N626 1.397 . S
C628 H609 0.929 . S
C628 C625 1.404 . S
C628 N626 1.334 . S
C629 H621 0.930 . S
C629 C624 1.418 . S
C629 C625 1.353 . S
C630 H600 0.930 . S
C630 N631 1.330 . S
C630 C632 1.446 . S
N631 Co590 2.151 . S
N631 C630 1.330 . S
N631 C635 1.418 . S
C632 H611 0.929 . S
C632 C630 1.446 . S
C632 C633 1.332 . S
C633 H613 0.931 . S
C633 C632 1.332 . S
C633 C634 1.267 . S
C634 H602 0.929 . S
C634 C633 1.267 . S
C634 C635 1.251 . S
C635 H605 0.929 . S
C635 N631 1.418 . S
C635 C634 1.251 . S
C636 H603 0.930 . S
C636 C638 1.406 . S
C636 C641 1.261 . S
C637 H604 0.930 . S
C637 N639 1.325 . S
C637 C640 1.357 . S
C638 H606 0.928 . S
C638 C636 1.406 . S
C638 N639 1.261 . S
N639 Co590 2.214 . S
N639 C637 1.325 . S
N639 C638 1.261 . S
C640 H610 0.931 . S
C640 C637 1.357 . S
C640 C641 1.312 . S
C641 H612 0.930 . S
C641 C636 1.261 . S
C641 C640 1.312 . S
C642 O614 1.214 . S
C642 O622 1.234 . S
C643 H615 0.929 . S
C643 C646 1.391 . S
C643 C648 1.391 . S
C644 H616 0.929 . S
C644 C645 1.390 . S
C644 N647 1.391 . S
C645 H617 0.930 . S
C645 C644 1.390 . S
C645 C646 1.392 . S
C646 H618 0.929 . S
C646 C643 1.391 . S
C646 C645 1.392 . S
N647 Co591 2.257 . S
N647 C644 1.391 . S
N647 C648 1.388 . S
C648 H619 0.930 . S
C648 C643 1.391 . S
C648 N647 1.388 . S
Co649 O651 2.143 1_545 S
Co649 O657 2.074 1_554 S
Co649 O660 2.093 . S
Co649 O673 2.097 1_554 S
Co649 N690 2.151 . S
Co649 N698 2.214 1_554 S
Co650 O651 2.160 1_556 S
Co650 O656 2.058 . S
Co650 O666 2.057 1_556 S
Co650 O681 2.037 . S
Co650 N685 2.145 . S
Co650 N706 2.257 1_556 S
O651 Co649 2.143 1_565 S
O651 Co650 2.160 1_554 S
C652 O653 1.278 1_545 S
C652 O660 1.224 . S
O653 C652 1.278 1_565 S
C654 O655 1.245 . S
C654 O666 1.232 . S
O655 C654 1.245 . S
O656 Co650 2.058 . S
O656 C682 1.269 1_565 S
O657 Co649 2.074 1_556 S
O657 C682 1.257 . S
H658 C683 0.930 . S
H659 C689 0.930 . S
O660 Co649 2.093 . S
O660 C652 1.224 . S
H661 C693 0.929 . S
H662 C695 0.930 1_554 S
H663 C696 0.930 . S
H664 C694 0.929 1_556 S
H665 C697 0.928 . S
O666 Co650 2.057 1_554 S
O666 C654 1.232 . S
H667 C686 0.929 . S
H668 C687 0.929 . S
H669 C699 0.931 . S
H670 C691 0.929 . S
H671 C700 0.930 . S
H672 C692 0.931 . S
O673 Co649 2.097 1_556 S
O673 C701 1.183 1_545 S
H674 C702 0.929 . S
H675 C703 0.929 . S
H676 C704 0.930 1_556 S
H677 C705 0.929 . S
H678 C707 0.930 . S
H679 C684 0.930 . S
H680 C688 0.930 . S
O681 Co650 2.037 . S
O681 C701 1.265 . S
C682 O656 1.269 1_545 S
C682 O657 1.257 . S
C683 H658 0.930 . S
C683 C686 1.388 . S
C683 C688 1.418 . S
C684 H679 0.930 . S
C684 C687 1.404 . S
C684 C688 1.353 . S
N685 Co650 2.145 . S
N685 C686 1.397 . S
N685 C687 1.334 . S
C686 H667 0.929 . S
C686 C683 1.388 . S
C686 N685 1.397 . S
C687 H668 0.929 . S
C687 C684 1.404 . S
C687 N685 1.334 . S
C688 H680 0.930 . S
C688 C683 1.418 . S
C688 C684 1.353 . S
C689 H659 0.930 . S
C689 N690 1.330 . S
C689 C691 1.446 . S
N690 Co649 2.151 . S
N690 C689 1.330 . S
N690 C694 1.418 . S
C691 H670 0.929 . S
C691 C689 1.446 . S
C691 C692 1.332 . S
C692 H672 0.931 . S
C692 C691 1.332 . S
C692 C693 1.267 . S
C693 H661 0.929 . S
C693 C692 1.267 . S
C693 C694 1.251 . S
C694 H664 0.929 1_554 S
C694 N690 1.418 . S
C694 C693 1.251 . S
C695 H662 0.930 1_556 S
C695 C697 1.406 1_556 S
C695 C700 1.261 . S
C696 H663 0.930 . S
C696 N698 1.325 . S
C696 C699 1.357 . S
C697 H665 0.928 . S
C697 C695 1.406 1_554 S
C697 N698 1.261 1_554 S
N698 Co649 2.214 1_556 S
N698 C696 1.325 . S
N698 C697 1.261 1_556 S
C699 H669 0.931 . S
C699 C696 1.357 . S
C699 C700 1.312 . S
C700 H671 0.930 . S
C700 C695 1.261 . S
C700 C699 1.312 . S
C701 O673 1.183 1_565 S
C701 O681 1.265 . S
C702 H674 0.929 . S
C702 C705 1.391 . S
C702 C707 1.391 . S
C703 H675 0.929 . S
C703 C704 1.390 1_556 S
C703 N706 1.391 1_556 S
C704 H676 0.930 1_554 S
C704 C703 1.390 1_554 S
C704 C705 1.392 . S
C705 H677 0.929 . S
C705 C702 1.391 . S
C705 C704 1.392 . S
N706 Co650 2.257 1_554 S
N706 C703 1.391 1_554 S
N706 C707 1.388 . S
C707 H678 0.930 . S
C707 C702 1.391 . S
C707 N706 1.388 . S
Co708 O710 2.143 . S
Co708 O716 2.074 . S
Co708 O719 2.093 . S
Co708 O732 2.097 . S
Co708 N749 2.151 . S
Co708 N757 2.214 . S
Co709 O710 2.160 . S
Co709 O715 2.058 . S
Co709 O725 2.057 . S
Co709 O740 2.037 . S
Co709 N744 2.145 . S
Co709 N765 2.257 . S
O710 Co708 2.143 . S
O710 Co709 2.160 . S
C711 O712 1.278 . S
C711 O719 1.224 . S
O712 C711 1.278 . S
C713 O714 1.245 . S
C713 O725 1.232 . S
O714 C713 1.245 . S
O715 Co709 2.058 . S
O715 C741 1.269 . S
O716 Co708 2.074 . S
O716 C741 1.257 . S
H717 C742 0.930 . S
H718 C748 0.930 . S
O719 Co708 2.093 . S
O719 C711 1.224 . S
H720 C752 0.929 . S
H721 C754 0.930 . S
H722 C755 0.930 . S
H723 C753 0.929 . S
H724 C756 0.928 . S
O725 Co709 2.057 . S
O725 C713 1.232 . S
H726 C745 0.929 . S
H727 C746 0.929 . S
H728 C758 0.931 . S
H729 C750 0.929 . S
H730 C759 0.930 . S
H731 C751 0.931 . S
O732 Co708 2.097 . S
O732 C760 1.214 . S
H733 C761 0.929 . S
H734 C762 0.929 . S
H735 C763 0.930 . S
H736 C764 0.929 . S
H737 C766 0.930 . S
H738 C743 0.930 . S
H739 C747 0.930 . S
O740 Co709 2.037 . S
O740 C760 1.234 . S
C741 O715 1.269 . S
C741 O716 1.257 . S
C742 H717 0.930 . S
C742 C745 1.388 . S
C742 C747 1.418 . S
C743 H738 0.930 . S
C743 C746 1.404 . S
C743 C747 1.353 . S
N744 Co709 2.145 . S
N744 C745 1.397 . S
N744 C746 1.334 . S
C745 H726 0.929 . S
C745 C742 1.388 . S
C745 N744 1.397 . S
C746 H727 0.929 . S
C746 C743 1.404 . S
C746 N744 1.334 . S
C747 H739 0.930 . S
C747 C742 1.418 . S
C747 C743 1.353 . S
C748 H718 0.930 . S
C748 N749 1.330 . S
C748 C750 1.446 . S
N749 Co708 2.151 . S
N749 C748 1.330 . S
N749 C753 1.418 . S
C750 H729 0.929 . S
C750 C748 1.446 . S
C750 C751 1.332 . S
C751 H731 0.931 . S
C751 C750 1.332 . S
C751 C752 1.267 . S
C752 H720 0.929 . S
C752 C751 1.267 . S
C752 C753 1.251 . S
C753 H723 0.929 . S
C753 N749 1.418 . S
C753 C752 1.251 . S
C754 H721 0.930 . S
C754 C756 1.406 . S
C754 C759 1.261 . S
C755 H722 0.930 . S
C755 N757 1.325 . S
C755 C758 1.357 . S
C756 H724 0.928 . S
C756 C754 1.406 . S
C756 N757 1.261 . S
N757 Co708 2.214 . S
N757 C755 1.325 . S
N757 C756 1.261 . S
C758 H728 0.931 . S
C758 C755 1.357 . S
C758 C759 1.312 . S
C759 H730 0.930 . S
C759 C754 1.261 . S
C759 C758 1.312 . S
C760 O732 1.214 . S
C760 O740 1.234 . S
C761 H733 0.929 . S
C761 C764 1.391 . S
C761 C766 1.391 . S
C762 H734 0.929 . S
C762 C763 1.390 . S
C762 N765 1.391 . S
C763 H735 0.930 . S
C763 C762 1.390 . S
C763 C764 1.392 . S
C764 H736 0.929 . S
C764 C761 1.391 . S
C764 C763 1.392 . S
N765 Co709 2.257 . S
N765 C762 1.391 . S
N765 C766 1.388 . S
C766 H737 0.930 . S
C766 C761 1.391 . S
C766 N765 1.388 . S
Co767 O769 2.143 1_565 S
Co767 O775 2.074 . S
Co767 O778 2.093 . S
Co767 O791 2.097 . S
Co767 N808 2.151 . S
Co767 N816 2.214 . S
Co768 O769 2.160 . S
Co768 O774 2.058 . S
Co768 O784 2.057 . S
Co768 O799 2.037 . S
Co768 N803 2.145 . S
Co768 N824 2.257 . S
O769 Co767 2.143 1_545 S
O769 Co768 2.160 . S
C770 O771 1.278 1_565 S
C770 O778 1.224 . S
O771 C770 1.278 1_545 S
C772 O773 1.245 . S
C772 O784 1.232 . S
O773 C772 1.245 . S
O774 Co768 2.058 . S
O774 C800 1.269 1_545 S
O775 Co767 2.074 . S
O775 C800 1.257 . S
H776 C801 0.930 . S
H777 C807 0.930 . S
O778 Co767 2.093 . S
O778 C770 1.224 . S
H779 C811 0.929 . S
H780 C813 0.930 . S
H781 C814 0.930 . S
H782 C812 0.929 . S
H783 C815 0.928 . S
O784 Co768 2.057 . S
O784 C772 1.232 . S
H785 C804 0.929 . S
H786 C805 0.929 . S
H787 C817 0.931 . S
H788 C809 0.929 . S
H789 C818 0.930 . S
H790 C810 0.931 . S
O791 Co767 2.097 . S
O791 C819 1.192 1_565 S
H792 C820 0.929 . S
H793 C821 0.929 . S
H794 C822 0.930 . S
H795 C823 0.929 . S
H796 C825 0.930 . S
H797 C802 0.930 . S
H798 C806 0.930 . S
O799 Co768 2.037 . S
O799 C819 1.256 . S
C800 O774 1.269 1_565 S
C800 O775 1.257 . S
C801 H776 0.930 . S
C801 C804 1.388 . S
C801 C806 1.418 . S
C802 H797 0.930 . S
C802 C805 1.404 . S
C802 C806 1.353 . S
N803 Co768 2.145 . S
N803 C804 1.397 . S
N803 C805 1.334 . S
C804 H785 0.929 . S
C804 C801 1.388 . S
C804 N803 1.397 . S
C805 H786 0.929 . S
C805 C802 1.404 . S
C805 N803 1.334 . S
C806 H798 0.930 . S
C806 C801 1.418 . S
C806 C802 1.353 . S
C807 H777 0.930 . S
C807 N808 1.330 . S
C807 C809 1.446 . S
N808 Co767 2.151 . S
N808 C807 1.330 . S
N808 C812 1.418 . S
C809 H788 0.929 . S
C809 C807 1.446 . S
C809 C810 1.332 . S
C810 H790 0.931 . S
C810 C809 1.332 . S
C810 C811 1.267 . S
C811 H779 0.929 . S
C811 C810 1.267 . S
C811 C812 1.251 . S
C812 H782 0.929 . S
C812 N808 1.418 . S
C812 C811 1.251 . S
C813 H780 0.930 . S
C813 C815 1.406 . S
C813 C818 1.261 . S
C814 H781 0.930 . S
C814 N816 1.325 . S
C814 C817 1.357 . S
C815 H783 0.928 . S
C815 C813 1.406 . S
C815 N816 1.261 . S
N816 Co767 2.214 . S
N816 C814 1.325 . S
N816 C815 1.261 . S
C817 H787 0.931 . S
C817 C814 1.357 . S
C817 C818 1.312 . S
C818 H789 0.930 . S
C818 C813 1.261 . S
C818 C817 1.312 . S
C819 O791 1.192 1_545 S
C819 O799 1.256 . S
C820 H792 0.929 . S
C820 C823 1.391 . S
C820 C825 1.391 . S
C821 H793 0.929 . S
C821 C822 1.390 . S
C821 N824 1.391 . S
C822 H794 0.930 . S
C822 C821 1.390 . S
C822 C823 1.392 . S
C823 H795 0.929 . S
C823 C820 1.391 . S
C823 C822 1.392 . S
N824 Co768 2.257 . S
N824 C821 1.391 . S
N824 C825 1.388 . S
C825 H796 0.930 . S
C825 C820 1.391 . S
C825 N824 1.388 . S
Co826 O828 2.143 . S
Co826 O834 2.074 . S
Co826 O837 2.093 . S
Co826 O850 2.097 . S
Co826 N867 2.151 . S
Co826 N875 2.214 . S
Co827 O828 2.160 . S
Co827 O833 2.058 . S
Co827 O843 2.057 . S
Co827 O858 2.037 . S
Co827 N862 2.145 . S
Co827 N883 2.257 . S
O828 Co826 2.143 . S
O828 Co827 2.160 . S
C829 O830 1.278 . S
C829 O837 1.224 . S
O830 C829 1.278 . S
C831 O832 1.245 . S
C831 O843 1.232 . S
O832 C831 1.245 . S
O833 Co827 2.058 . S
O833 C859 1.269 . S
O834 Co826 2.074 . S
O834 C859 1.257 . S
H835 C860 0.930 . S
H836 C866 0.930 . S
O837 Co826 2.093 . S
O837 C829 1.224 . S
H838 C870 0.929 . S
H839 C872 0.930 . S
H840 C873 0.930 . S
H841 C871 0.929 . S
H842 C874 0.928 . S
O843 Co827 2.057 . S
O843 C831 1.232 . S
H844 C863 0.929 . S
H845 C864 0.929 . S
H846 C876 0.931 . S
H847 C868 0.929 . S
H848 C877 0.930 . S
H849 C869 0.931 . S
O850 Co826 2.097 . S
O850 C878 1.214 . S
H851 C879 0.929 . S
H852 C880 0.929 . S
H853 C881 0.930 . S
H854 C882 0.929 . S
H855 C884 0.930 . S
H856 C861 0.930 . S
H857 C865 0.930 . S
O858 Co827 2.037 . S
O858 C878 1.234 . S
C859 O833 1.269 . S
C859 O834 1.257 . S
C860 H835 0.930 . S
C860 C863 1.388 . S
C860 C865 1.418 . S
C861 H856 0.930 . S
C861 C864 1.404 . S
C861 C865 1.353 . S
N862 Co827 2.145 . S
N862 C863 1.397 . S
N862 C864 1.334 . S
C863 H844 0.929 . S
C863 C860 1.388 . S
C863 N862 1.397 . S
C864 H845 0.929 . S
C864 C861 1.404 . S
C864 N862 1.334 . S
C865 H857 0.930 . S
C865 C860 1.418 . S
C865 C861 1.353 . S
C866 H836 0.930 . S
C866 N867 1.330 . S
C866 C868 1.446 . S
N867 Co826 2.151 . S
N867 C866 1.330 . S
N867 C871 1.418 . S
C868 H847 0.929 . S
C868 C866 1.446 . S
C868 C869 1.332 . S
C869 H849 0.931 . S
C869 C868 1.332 . S
C869 C870 1.267 . S
C870 H838 0.929 . S
C870 C869 1.267 . S
C870 C871 1.251 . S
C871 H841 0.929 . S
C871 N867 1.418 . S
C871 C870 1.251 . S
C872 H839 0.930 . S
C872 C874 1.406 . S
C872 C877 1.261 . S
C873 H840 0.930 . S
C873 N875 1.325 . S
C873 C876 1.357 . S
C874 H842 0.928 . S
C874 C872 1.406 . S
C874 N875 1.261 . S
N875 Co826 2.214 . S
N875 C873 1.325 . S
N875 C874 1.261 . S
C876 H846 0.931 . S
C876 C873 1.357 . S
C876 C877 1.312 . S
C877 H848 0.930 . S
C877 C872 1.261 . S
C877 C876 1.312 . S
C878 O850 1.214 . S
C878 O858 1.234 . S
C879 H851 0.929 . S
C879 C882 1.391 . S
C879 C884 1.391 . S
C880 H852 0.929 . S
C880 C881 1.390 . S
C880 N883 1.391 . S
C881 H853 0.930 . S
C881 C880 1.390 . S
C881 C882 1.392 . S
C882 H854 0.929 . S
C882 C879 1.391 . S
C882 C881 1.392 . S
N883 Co827 2.257 . S
N883 C880 1.391 . S
N883 C884 1.388 . S
C884 H855 0.930 . S
C884 C879 1.391 . S
C884 N883 1.388 . S
Co885 O887 2.143 1_545 S
Co885 O893 2.074 1_556 S
Co885 O896 2.093 . S
Co885 O909 2.097 1_556 S
Co885 N926 2.151 . S
Co885 N934 2.214 1_556 S
Co886 O887 2.160 1_554 S
Co886 O892 2.058 . S
Co886 O902 2.057 1_554 S
Co886 O917 2.037 . S
Co886 N921 2.145 . S
Co886 N942 2.257 1_554 S
O887 Co885 2.143 1_565 S
O887 Co886 2.160 1_556 S
C888 O889 1.278 1_545 S
C888 O896 1.224 . S
O889 C888 1.278 1_565 S
C890 O891 1.245 . S
C890 O902 1.232 . S
O891 C890 1.245 . S
O892 Co886 2.058 . S
O892 C918 1.269 1_565 S
O893 Co885 2.074 1_554 S
O893 C918 1.257 . S
H894 C919 0.930 . S
H895 C925 0.930 . S
O896 Co885 2.093 . S
O896 C888 1.224 . S
H897 C929 0.929 . S
H898 C931 0.930 1_556 S
H899 C932 0.930 . S
H900 C930 0.929 1_554 S
H901 C933 0.928 . S
O902 Co886 2.057 1_556 S
O902 C890 1.232 . S
H903 C922 0.929 . S
H904 C923 0.929 . S
H905 C935 0.931 . S
H906 C927 0.929 . S
H907 C936 0.930 . S
H908 C928 0.931 . S
O909 Co885 2.097 1_554 S
O909 C937 1.183 1_545 S
H910 C938 0.929 . S
H911 C939 0.929 . S
H912 C940 0.930 1_554 S
H913 C941 0.929 . S
H914 C943 0.930 . S
H915 C920 0.930 . S
H916 C924 0.930 . S
O917 Co886 2.037 . S
O917 C937 1.265 . S
C918 O892 1.269 1_545 S
C918 O893 1.257 . S
C919 H894 0.930 . S
C919 C922 1.388 . S
C919 C924 1.418 . S
C920 H915 0.930 . S
C920 C923 1.404 . S
C920 C924 1.353 . S
N921 Co886 2.145 . S
N921 C922 1.397 . S
N921 C923 1.334 . S
C922 H903 0.929 . S
C922 C919 1.388 . S
C922 N921 1.397 . S
C923 H904 0.929 . S
C923 C920 1.404 . S
C923 N921 1.334 . S
C924 H916 0.930 . S
C924 C919 1.418 . S
C924 C920 1.353 . S
C925 H895 0.930 . S
C925 N926 1.330 . S
C925 C927 1.446 . S
N926 Co885 2.151 . S
N926 C925 1.330 . S
N926 C930 1.418 . S
C927 H906 0.929 . S
C927 C925 1.446 . S
C927 C928 1.332 . S
C928 H908 0.931 . S
C928 C927 1.332 . S
C928 C929 1.267 . S
C929 H897 0.929 . S
C929 C928 1.267 . S
C929 C930 1.251 . S
C930 H900 0.929 1_556 S
C930 N926 1.418 . S
C930 C929 1.251 . S
C931 H898 0.930 1_554 S
C931 C933 1.406 1_554 S
C931 C936 1.261 . S
C932 H899 0.930 . S
C932 N934 1.325 . S
C932 C935 1.357 . S
C933 H901 0.928 . S
C933 C931 1.406 1_556 S
C933 N934 1.261 1_556 S
N934 Co885 2.214 1_554 S
N934 C932 1.325 . S
N934 C933 1.261 1_554 S
C935 H905 0.931 . S
C935 C932 1.357 . S
C935 C936 1.312 . S
C936 H907 0.930 . S
C936 C931 1.261 . S
C936 C935 1.312 . S
C937 O909 1.183 1_565 S
C937 O917 1.265 . S
C938 H910 0.929 . S
C938 C941 1.391 . S
C938 C943 1.391 . S
C939 H911 0.929 . S
C939 C940 1.390 1_554 S
C939 N942 1.391 1_554 S
C940 H912 0.930 1_556 S
C940 C939 1.390 1_556 S
C940 C941 1.392 . S
C941 H913 0.929 . S
C941 C938 1.391 . S
C941 C940 1.392 . S
N942 Co886 2.257 1_556 S
N942 C939 1.391 1_556 S
N942 C943 1.388 . S
C943 H914 0.930 . S
C943 C938 1.391 . S
C943 N942 1.388 . S
Co944 O946 2.143 . S
Co944 O952 2.074 . S
Co944 O955 2.093 . S
Co944 O968 2.097 . S
Co944 N985 2.151 . S
Co944 N993 2.214 . S
Co945 O946 2.160 . S
Co945 O951 2.058 . S
Co945 O961 2.057 . S
Co945 O976 2.037 . S
Co945 N980 2.145 . S
Co945 N1001 2.257 . S
O946 Co944 2.143 . S
O946 Co945 2.160 . S
C947 O948 1.278 . S
C947 O955 1.224 . S
O948 C947 1.278 . S
C949 O950 1.245 . S
C949 O961 1.232 . S
O950 C949 1.245 . S
O951 Co945 2.058 . S
O951 C977 1.269 . S
O952 Co944 2.074 . S
O952 C977 1.257 . S
H953 C978 0.930 . S
H954 C984 0.930 . S
O955 Co944 2.093 . S
O955 C947 1.224 . S
H956 C988 0.929 . S
H957 C990 0.930 . S
H958 C991 0.930 . S
H959 C989 0.929 . S
H960 C992 0.928 . S
O961 Co945 2.057 . S
O961 C949 1.232 . S
H962 C981 0.929 . S
H963 C982 0.929 . S
H964 C994 0.931 . S
H965 C986 0.929 . S
H966 C995 0.930 . S
H967 C987 0.931 . S
O968 Co944 2.097 . S
O968 C996 1.214 . S
H969 C997 0.929 . S
H970 C998 0.929 . S
H971 C999 0.930 . S
H972 C1000 0.929 . S
H973 C1002 0.930 . S
H974 C979 0.930 . S
H975 C983 0.930 . S
O976 Co945 2.037 . S
O976 C996 1.234 . S
C977 O951 1.269 . S
C977 O952 1.257 . S
C978 H953 0.930 . S
C978 C981 1.388 . S
C978 C983 1.418 . S
C979 H974 0.930 . S
C979 C982 1.404 . S
C979 C983 1.353 . S
N980 Co945 2.145 . S
N980 C981 1.397 . S
N980 C982 1.334 . S
C981 H962 0.929 . S
C981 C978 1.388 . S
C981 N980 1.397 . S
C982 H963 0.929 . S
C982 C979 1.404 . S
C982 N980 1.334 . S
C983 H975 0.930 . S
C983 C978 1.418 . S
C983 C979 1.353 . S
C984 H954 0.930 . S
C984 N985 1.330 . S
C984 C986 1.446 . S
N985 Co944 2.151 . S
N985 C984 1.330 . S
N985 C989 1.418 . S
C986 H965 0.929 . S
C986 C984 1.446 . S
C986 C987 1.332 . S
C987 H967 0.931 . S
C987 C986 1.332 . S
C987 C988 1.267 . S
C988 H956 0.929 . S
C988 C987 1.267 . S
C988 C989 1.251 . S
C989 H959 0.929 . S
C989 N985 1.418 . S
C989 C988 1.251 . S
C990 H957 0.930 . S
C990 C992 1.406 . S
C990 C995 1.261 . S
C991 H958 0.930 . S
C991 N993 1.325 . S
C991 C994 1.357 . S
C992 H960 0.928 . S
C992 C990 1.406 . S
C992 N993 1.261 . S
N993 Co944 2.214 . S
N993 C991 1.325 . S
N993 C992 1.261 . S
C994 H964 0.931 . S
C994 C991 1.357 . S
C994 C995 1.312 . S
C995 H966 0.930 . S
C995 C990 1.261 . S
C995 C994 1.312 . S
C996 O968 1.214 . S
C996 O976 1.234 . S
C997 H969 0.929 . S
C997 C1000 1.391 . S
C997 C1002 1.391 . S
C998 H970 0.929 . S
C998 C999 1.390 . S
C998 N1001 1.391 . S
C999 H971 0.930 . S
C999 C998 1.390 . S
C999 C1000 1.392 . S
C1000 H972 0.929 . S
C1000 C997 1.391 . S
C1000 C999 1.392 . S
N1001 Co945 2.257 . S
N1001 C998 1.391 . S
N1001 C1002 1.388 . S
C1002 H973 0.930 . S
C1002 C997 1.391 . S
C1002 N1001 1.388 . S
Co1003 O1005 2.143 1_554 S
Co1003 O1011 2.074 . S
Co1003 O1014 2.093 1_554 S
Co1003 O1027 2.097 . S
Co1003 N1044 2.151 1_554 S
Co1003 N1052 2.214 . S
Co1004 O1005 2.160 1_554 S
Co1004 O1010 2.058 . S
Co1004 O1020 2.057 1_554 S
Co1004 O1035 2.037 . S
Co1004 N1039 2.145 . S
Co1004 N1060 2.257 1_554 S
O1005 Co1003 2.143 1_556 S
O1005 Co1004 2.160 1_556 S
C1006 O1007 1.278 . S
C1006 O1014 1.224 . S
O1007 C1006 1.278 . S
C1008 O1009 1.245 . S
C1008 O1020 1.232 . S
O1009 C1008 1.245 . S
O1010 Co1004 2.058 . S
O1010 C1036 1.269 . S
O1011 Co1003 2.074 . S
O1011 C1036 1.257 . S
H1012 C1037 0.930 . S
H1013 C1043 0.930 . S
O1014 Co1003 2.093 1_556 S
O1014 C1006 1.224 . S
H1015 C1047 0.929 . S
H1016 C1049 0.930 . S
H1017 C1050 0.930 . S
H1018 C1048 0.929 . S
H1019 C1051 0.928 . S
O1020 Co1004 2.057 1_556 S
O1020 C1008 1.232 . S
H1021 C1040 0.929 . S
H1022 C1041 0.929 . S
H1023 C1053 0.931 . S
H1024 C1045 0.929 . S
H1025 C1054 0.930 . S
H1026 C1046 0.931 . S
O1027 Co1003 2.097 . S
O1027 C1055 1.214 . S
H1028 C1056 0.929 . S
H1029 C1057 0.929 1_554 S
H1030 C1058 0.930 . S
H1031 C1059 0.929 . S
H1032 C1061 0.930 . S
H1033 C1038 0.930 . S
H1034 C1042 0.930 . S
O1035 Co1004 2.037 . S
O1035 C1055 1.234 . S
C1036 O1010 1.269 . S
C1036 O1011 1.257 . S
C1037 H1012 0.930 . S
C1037 C1040 1.388 . S
C1037 C1042 1.418 . S
C1038 H1033 0.930 . S
C1038 C1041 1.404 . S
C1038 C1042 1.353 . S
N1039 Co1004 2.145 . S
N1039 C1040 1.397 . S
N1039 C1041 1.334 . S
C1040 H1021 0.929 . S
C1040 C1037 1.388 . S
C1040 N1039 1.397 . S
C1041 H1022 0.929 . S
C1041 C1038 1.404 . S
C1041 N1039 1.334 . S
C1042 H1034 0.930 . S
C1042 C1037 1.418 . S
C1042 C1038 1.353 . S
C1043 H1013 0.930 . S
C1043 N1044 1.330 . S
C1043 C1045 1.446 . S
N1044 Co1003 2.151 1_556 S
N1044 C1043 1.330 . S
N1044 C1048 1.418 1_556 S
C1045 H1024 0.929 . S
C1045 C1043 1.446 . S
C1045 C1046 1.332 . S
C1046 H1026 0.931 . S
C1046 C1045 1.332 . S
C1046 C1047 1.267 1_556 S
C1047 H1015 0.929 . S
C1047 C1046 1.267 1_554 S
C1047 C1048 1.251 . S
C1048 H1018 0.929 . S
C1048 N1044 1.418 1_554 S
C1048 C1047 1.251 . S
C1049 H1016 0.930 . S
C1049 C1051 1.406 . S
C1049 C1054 1.261 . S
C1050 H1017 0.930 . S
C1050 N1052 1.325 . S
C1050 C1053 1.357 . S
C1051 H1019 0.928 . S
C1051 C1049 1.406 . S
C1051 N1052 1.261 . S
N1052 Co1003 2.214 . S
N1052 C1050 1.325 . S
N1052 C1051 1.261 . S
C1053 H1023 0.931 . S
C1053 C1050 1.357 . S
C1053 C1054 1.312 . S
C1054 H1025 0.930 . S
C1054 C1049 1.261 . S
C1054 C1053 1.312 . S
C1055 O1027 1.214 . S
C1055 O1035 1.234 . S
C1056 H1028 0.929 . S
C1056 C1059 1.391 . S
C1056 C1061 1.391 . S
C1057 H1029 0.929 1_556 S
C1057 C1058 1.390 . S
C1057 N1060 1.391 . S
C1058 H1030 0.930 . S
C1058 C1057 1.390 . S
C1058 C1059 1.392 . S
C1059 H1031 0.929 . S
C1059 C1056 1.391 . S
C1059 C1058 1.392 . S
N1060 Co1004 2.257 1_556 S
N1060 C1057 1.391 . S
N1060 C1061 1.388 . S
C1061 H1032 0.930 . S
C1061 C1056 1.391 . S
C1061 N1060 1.388 . S
Co1062 O1064 2.143 . S
Co1062 O1070 2.074 . S
Co1062 O1073 2.093 . S
Co1062 O1086 2.097 . S
Co1062 N1103 2.151 . S
Co1062 N1111 2.214 . S
Co1063 O1064 2.160 . S
Co1063 O1069 2.058 . S
Co1063 O1079 2.057 . S
Co1063 O1094 2.037 . S
Co1063 N1098 2.145 . S
Co1063 N1119 2.257 . S
O1064 Co1062 2.143 . S
O1064 Co1063 2.160 . S
C1065 O1066 1.278 . S
C1065 O1073 1.224 . S
O1066 C1065 1.278 . S
C1067 O1068 1.245 . S
C1067 O1079 1.232 . S
O1068 C1067 1.245 . S
O1069 Co1063 2.058 . S
O1069 C1095 1.269 . S
O1070 Co1062 2.074 . S
O1070 C1095 1.257 . S
H1071 C1096 0.930 . S
H1072 C1102 0.930 . S
O1073 Co1062 2.093 . S
O1073 C1065 1.224 . S
H1074 C1106 0.929 . S
H1075 C1108 0.930 . S
H1076 C1109 0.930 . S
H1077 C1107 0.929 . S
H1078 C1110 0.928 . S
O1079 Co1063 2.057 . S
O1079 C1067 1.232 . S
H1080 C1099 0.929 . S
H1081 C1100 0.929 . S
H1082 C1112 0.931 . S
H1083 C1104 0.929 . S
H1084 C1113 0.930 . S
H1085 C1105 0.931 . S
O1086 Co1062 2.097 . S
O1086 C1114 1.214 . S
H1087 C1115 0.929 . S
H1088 C1116 0.929 . S
H1089 C1117 0.930 . S
H1090 C1118 0.929 . S
H1091 C1120 0.930 . S
H1092 C1097 0.930 . S
H1093 C1101 0.930 . S
O1094 Co1063 2.037 . S
O1094 C1114 1.234 . S
C1095 O1069 1.269 . S
C1095 O1070 1.257 . S
C1096 H1071 0.930 . S
C1096 C1099 1.388 . S
C1096 C1101 1.418 . S
C1097 H1092 0.930 . S
C1097 C1100 1.404 . S
C1097 C1101 1.353 . S
N1098 Co1063 2.145 . S
N1098 C1099 1.397 . S
N1098 C1100 1.334 . S
C1099 H1080 0.929 . S
C1099 C1096 1.388 . S
C1099 N1098 1.397 . S
C1100 H1081 0.929 . S
C1100 C1097 1.404 . S
C1100 N1098 1.334 . S
C1101 H1093 0.930 . S
C1101 C1096 1.418 . S
C1101 C1097 1.353 . S
C1102 H1072 0.930 . S
C1102 N1103 1.330 . S
C1102 C1104 1.446 . S
N1103 Co1062 2.151 . S
N1103 C1102 1.330 . S
N1103 C1107 1.418 . S
C1104 H1083 0.929 . S
C1104 C1102 1.446 . S
C1104 C1105 1.332 . S
C1105 H1085 0.931 . S
C1105 C1104 1.332 . S
C1105 C1106 1.267 . S
C1106 H1074 0.929 . S
C1106 C1105 1.267 . S
C1106 C1107 1.251 . S
C1107 H1077 0.929 . S
C1107 N1103 1.418 . S
C1107 C1106 1.251 . S
C1108 H1075 0.930 . S
C1108 C1110 1.406 . S
C1108 C1113 1.261 . S
C1109 H1076 0.930 . S
C1109 N1111 1.325 . S
C1109 C1112 1.357 . S
C1110 H1078 0.928 . S
C1110 C1108 1.406 . S
C1110 N1111 1.261 . S
N1111 Co1062 2.214 . S
N1111 C1109 1.325 . S
N1111 C1110 1.261 . S
C1112 H1082 0.931 . S
C1112 C1109 1.357 . S
C1112 C1113 1.312 . S
C1113 H1084 0.930 . S
C1113 C1108 1.261 . S
C1113 C1112 1.312 . S
C1114 O1086 1.214 . S
C1114 O1094 1.234 . S
C1115 H1087 0.929 . S
C1115 C1118 1.391 . S
C1115 C1120 1.391 . S
C1116 H1088 0.929 . S
C1116 C1117 1.390 . S
C1116 N1119 1.391 . S
C1117 H1089 0.930 . S
C1117 C1116 1.390 . S
C1117 C1118 1.392 . S
C1118 H1090 0.929 . S
C1118 C1115 1.391 . S
C1118 C1117 1.392 . S
N1119 Co1063 2.257 . S
N1119 C1116 1.391 . S
N1119 C1120 1.388 . S
C1120 H1091 0.930 . S
C1120 C1115 1.391 . S
C1120 N1119 1.388 . S
Co1121 O1123 2.143 . S
Co1121 O1129 2.074 . S
Co1121 O1132 2.093 . S
Co1121 O1145 2.097 . S
Co1121 N1162 2.151 . S
Co1121 N1170 2.214 . S
Co1122 O1123 2.160 . S
Co1122 O1128 2.058 . S
Co1122 O1138 2.057 . S
Co1122 O1153 2.037 . S
Co1122 N1157 2.145 . S
Co1122 N1178 2.257 . S
O1123 Co1121 2.143 . S
O1123 Co1122 2.160 . S
C1124 O1125 1.278 . S
C1124 O1132 1.224 . S
O1125 C1124 1.278 . S
C1126 O1127 1.245 . S
C1126 O1138 1.232 . S
O1127 C1126 1.245 . S
O1128 Co1122 2.058 . S
O1128 C1154 1.269 . S
O1129 Co1121 2.074 . S
O1129 C1154 1.257 . S
H1130 C1155 0.930 . S
H1131 C1161 0.930 . S
O1132 Co1121 2.093 . S
O1132 C1124 1.224 . S
H1133 C1165 0.929 . S
H1134 C1167 0.930 . S
H1135 C1168 0.930 . S
H1136 C1166 0.929 . S
H1137 C1169 0.928 . S
O1138 Co1122 2.057 . S
O1138 C1126 1.232 . S
H1139 C1158 0.929 . S
H1140 C1159 0.929 . S
H1141 C1171 0.931 . S
H1142 C1163 0.929 . S
H1143 C1172 0.930 . S
H1144 C1164 0.931 . S
O1145 Co1121 2.097 . S
O1145 C1173 1.214 . S
H1146 C1174 0.929 . S
H1147 C1175 0.929 . S
H1148 C1176 0.930 . S
H1149 C1177 0.929 . S
H1150 C1179 0.930 . S
H1151 C1156 0.930 . S
H1152 C1160 0.930 . S
O1153 Co1122 2.037 . S
O1153 C1173 1.234 . S
C1154 O1128 1.269 . S
C1154 O1129 1.257 . S
C1155 H1130 0.930 . S
C1155 C1158 1.388 . S
C1155 C1160 1.418 . S
C1156 H1151 0.930 . S
C1156 C1159 1.404 . S
C1156 C1160 1.353 . S
N1157 Co1122 2.145 . S
N1157 C1158 1.397 . S
N1157 C1159 1.334 . S
C1158 H1139 0.929 . S
C1158 C1155 1.388 . S
C1158 N1157 1.397 . S
C1159 H1140 0.929 . S
C1159 C1156 1.404 . S
C1159 N1157 1.334 . S
C1160 H1152 0.930 . S
C1160 C1155 1.418 . S
C1160 C1156 1.353 . S
C1161 H1131 0.930 . S
C1161 N1162 1.330 . S
C1161 C1163 1.446 . S
N1162 Co1121 2.151 . S
N1162 C1161 1.330 . S
N1162 C1166 1.418 . S
C1163 H1142 0.929 . S
C1163 C1161 1.446 . S
C1163 C1164 1.332 . S
C1164 H1144 0.931 . S
C1164 C1163 1.332 . S
C1164 C1165 1.267 . S
C1165 H1133 0.929 . S
C1165 C1164 1.267 . S
C1165 C1166 1.251 . S
C1166 H1136 0.929 . S
C1166 N1162 1.418 . S
C1166 C1165 1.251 . S
C1167 H1134 0.930 . S
C1167 C1169 1.406 . S
C1167 C1172 1.261 . S
C1168 H1135 0.930 . S
C1168 N1170 1.325 . S
C1168 C1171 1.357 . S
C1169 H1137 0.928 . S
C1169 C1167 1.406 . S
C1169 N1170 1.261 . S
N1170 Co1121 2.214 . S
N1170 C1168 1.325 . S
N1170 C1169 1.261 . S
C1171 H1141 0.931 . S
C1171 C1168 1.357 . S
C1171 C1172 1.312 . S
C1172 H1143 0.930 . S
C1172 C1167 1.261 . S
C1172 C1171 1.312 . S
C1173 O1145 1.214 . S
C1173 O1153 1.234 . S
C1174 H1146 0.929 . S
C1174 C1177 1.391 . S
C1174 C1179 1.391 . S
C1175 H1147 0.929 . S
C1175 C1176 1.390 . S
C1175 N1178 1.391 . S
C1176 H1148 0.930 . S
C1176 C1175 1.390 . S
C1176 C1177 1.392 . S
C1177 H1149 0.929 . S
C1177 C1174 1.391 . S
C1177 C1176 1.392 . S
N1178 Co1122 2.257 . S
N1178 C1175 1.391 . S
N1178 C1179 1.388 . S
C1179 H1150 0.930 . S
C1179 C1174 1.391 . S
C1179 N1178 1.388 . S
Co1180 O1182 2.143 . S
Co1180 O1188 2.074 . S
Co1180 O1191 2.093 . S
Co1180 O1204 2.097 . S
Co1180 N1221 2.151 . S
Co1180 N1229 2.214 . S
Co1181 O1182 2.160 . S
Co1181 O1187 2.058 . S
Co1181 O1197 2.057 . S
Co1181 O1212 2.037 . S
Co1181 N1216 2.145 . S
Co1181 N1237 2.257 . S
O1182 Co1180 2.143 . S
O1182 Co1181 2.160 . S
C1183 O1184 1.278 . S
C1183 O1191 1.224 . S
O1184 C1183 1.278 . S
C1185 O1186 1.245 . S
C1185 O1197 1.232 . S
O1186 C1185 1.245 . S
O1187 Co1181 2.058 . S
O1187 C1213 1.269 . S
O1188 Co1180 2.074 . S
O1188 C1213 1.257 . S
H1189 C1214 0.930 . S
H1190 C1220 0.930 . S
O1191 Co1180 2.093 . S
O1191 C1183 1.224 . S
H1192 C1224 0.929 . S
H1193 C1226 0.930 . S
H1194 C1227 0.930 . S
H1195 C1225 0.929 . S
H1196 C1228 0.928 . S
O1197 Co1181 2.057 . S
O1197 C1185 1.232 . S
H1198 C1217 0.929 . S
H1199 C1218 0.929 . S
H1200 C1230 0.931 . S
H1201 C1222 0.929 . S
H1202 C1231 0.930 . S
H1203 C1223 0.931 . S
O1204 Co1180 2.097 . S
O1204 C1232 1.214 . S
H1205 C1233 0.929 . S
H1206 C1234 0.929 . S
H1207 C1235 0.930 . S
H1208 C1236 0.929 . S
H1209 C1238 0.930 . S
H1210 C1215 0.930 . S
H1211 C1219 0.930 . S
O1212 Co1181 2.037 . S
O1212 C1232 1.234 . S
C1213 O1187 1.269 . S
C1213 O1188 1.257 . S
C1214 H1189 0.930 . S
C1214 C1217 1.388 . S
C1214 C1219 1.418 . S
C1215 H1210 0.930 . S
C1215 C1218 1.404 . S
C1215 C1219 1.353 . S
N1216 Co1181 2.145 . S
N1216 C1217 1.397 . S
N1216 C1218 1.334 . S
C1217 H1198 0.929 . S
C1217 C1214 1.388 . S
C1217 N1216 1.397 . S
C1218 H1199 0.929 . S
C1218 C1215 1.404 . S
C1218 N1216 1.334 . S
C1219 H1211 0.930 . S
C1219 C1214 1.418 . S
C1219 C1215 1.353 . S
C1220 H1190 0.930 . S
C1220 N1221 1.330 . S
C1220 C1222 1.446 . S
N1221 Co1180 2.151 . S
N1221 C1220 1.330 . S
N1221 C1225 1.418 . S
C1222 H1201 0.929 . S
C1222 C1220 1.446 . S
C1222 C1223 1.332 . S
C1223 H1203 0.931 . S
C1223 C1222 1.332 . S
C1223 C1224 1.267 . S
C1224 H1192 0.929 . S
C1224 C1223 1.267 . S
C1224 C1225 1.251 . S
C1225 H1195 0.929 . S
C1225 N1221 1.418 . S
C1225 C1224 1.251 . S
C1226 H1193 0.930 . S
C1226 C1228 1.406 . S
C1226 C1231 1.261 . S
C1227 H1194 0.930 . S
C1227 N1229 1.325 . S
C1227 C1230 1.357 . S
C1228 H1196 0.928 . S
C1228 C1226 1.406 . S
C1228 N1229 1.261 . S
N1229 Co1180 2.214 . S
N1229 C1227 1.325 . S
N1229 C1228 1.261 . S
C1230 H1200 0.931 . S
C1230 C1227 1.357 . S
C1230 C1231 1.312 . S
C1231 H1202 0.930 . S
C1231 C1226 1.261 . S
C1231 C1230 1.312 . S
C1232 O1204 1.214 . S
C1232 O1212 1.234 . S
C1233 H1205 0.929 . S
C1233 C1236 1.391 . S
C1233 C1238 1.391 . S
C1234 H1206 0.929 . S
C1234 C1235 1.390 . S
C1234 N1237 1.391 . S
C1235 H1207 0.930 . S
C1235 C1234 1.390 . S
C1235 C1236 1.392 . S
C1236 H1208 0.929 . S
C1236 C1233 1.391 . S
C1236 C1235 1.392 . S
N1237 Co1181 2.257 . S
N1237 C1234 1.391 . S
N1237 C1238 1.388 . S
C1238 H1209 0.930 . S
C1238 C1233 1.391 . S
C1238 N1237 1.388 . S
Co1239 O1241 2.143 1_556 S
Co1239 O1247 2.074 . S
Co1239 O1250 2.093 1_556 S
Co1239 O1263 2.097 . S
Co1239 N1280 2.151 1_556 S
Co1239 N1288 2.214 . S
Co1240 O1241 2.160 1_556 S
Co1240 O1246 2.058 . S
Co1240 O1256 2.057 1_556 S
Co1240 O1271 2.037 . S
Co1240 N1275 2.145 . S
Co1240 N1296 2.257 1_556 S
O1241 Co1239 2.143 1_554 S
O1241 Co1240 2.160 1_554 S
C1242 O1243 1.278 . S
C1242 O1250 1.224 . S
O1243 C1242 1.278 . S
C1244 O1245 1.245 . S
C1244 O1256 1.232 . S
O1245 C1244 1.245 . S
O1246 Co1240 2.058 . S
O1246 C1272 1.269 . S
O1247 Co1239 2.074 . S
O1247 C1272 1.257 . S
H1248 C1273 0.930 . S
H1249 C1279 0.930 . S
O1250 Co1239 2.093 1_554 S
O1250 C1242 1.224 . S
H1251 C1283 0.929 . S
H1252 C1285 0.930 . S
H1253 C1286 0.930 . S
H1254 C1284 0.929 . S
H1255 C1287 0.928 . S
O1256 Co1240 2.057 1_554 S
O1256 C1244 1.232 . S
H1257 C1276 0.929 . S
H1258 C1277 0.929 . S
H1259 C1289 0.931 . S
H1260 C1281 0.929 . S
H1261 C1290 0.930 . S
H1262 C1282 0.931 . S
O1263 Co1239 2.097 . S
O1263 C1291 1.214 . S
H1264 C1292 0.929 . S
H1265 C1293 0.929 1_556 S
H1266 C1294 0.930 . S
H1267 C1295 0.929 . S
H1268 C1297 0.930 . S
H1269 C1274 0.930 . S
H1270 C1278 0.930 . S
O1271 Co1240 2.037 . S
O1271 C1291 1.234 . S
C1272 O1246 1.269 . S
C1272 O1247 1.257 . S
C1273 H1248 0.930 . S
C1273 C1276 1.388 . S
C1273 C1278 1.418 . S
C1274 H1269 0.930 . S
C1274 C1277 1.404 . S
C1274 C1278 1.353 . S
N1275 Co1240 2.145 . S
N1275 C1276 1.397 . S
N1275 C1277 1.334 . S
C1276 H1257 0.929 . S
C1276 C1273 1.388 . S
C1276 N1275 1.397 . S
C1277 H1258 0.929 . S
C1277 C1274 1.404 . S
C1277 N1275 1.334 . S
C1278 H1270 0.930 . S
C1278 C1273 1.418 . S
C1278 C1274 1.353 . S
C1279 H1249 0.930 . S
C1279 N1280 1.330 . S
C1279 C1281 1.446 . S
N1280 Co1239 2.151 1_554 S
N1280 C1279 1.330 . S
N1280 C1284 1.418 1_554 S
C1281 H1260 0.929 . S
C1281 C1279 1.446 . S
C1281 C1282 1.332 . S
C1282 H1262 0.931 . S
C1282 C1281 1.332 . S
C1282 C1283 1.267 1_554 S
C1283 H1251 0.929 . S
C1283 C1282 1.267 1_556 S
C1283 C1284 1.251 . S
C1284 H1254 0.929 . S
C1284 N1280 1.418 1_556 S
C1284 C1283 1.251 . S
C1285 H1252 0.930 . S
C1285 C1287 1.406 . S
C1285 C1290 1.261 . S
C1286 H1253 0.930 . S
C1286 N1288 1.325 . S
C1286 C1289 1.357 . S
C1287 H1255 0.928 . S
C1287 C1285 1.406 . S
C1287 N1288 1.261 . S
N1288 Co1239 2.214 . S
N1288 C1286 1.325 . S
N1288 C1287 1.261 . S
C1289 H1259 0.931 . S
C1289 C1286 1.357 . S
C1289 C1290 1.312 . S
C1290 H1261 0.930 . S
C1290 C1285 1.261 . S
C1290 C1289 1.312 . S
C1291 O1263 1.214 . S
C1291 O1271 1.234 . S
C1292 H1264 0.929 . S
C1292 C1295 1.391 . S
C1292 C1297 1.391 . S
C1293 H1265 0.929 1_554 S
C1293 C1294 1.390 . S
C1293 N1296 1.391 . S
C1294 H1266 0.930 . S
C1294 C1293 1.390 . S
C1294 C1295 1.392 . S
C1295 H1267 0.929 . S
C1295 C1292 1.391 . S
C1295 C1294 1.392 . S
N1296 Co1240 2.257 1_554 S
N1296 C1293 1.391 . S
N1296 C1297 1.388 . S
C1297 H1268 0.930 . S
C1297 C1292 1.391 . S
C1297 N1296 1.388 . S
Co1298 O1300 2.143 . S
Co1298 O1306 2.074 . S
Co1298 O1309 2.093 . S
Co1298 O1322 2.097 . S
Co1298 N1339 2.151 . S
Co1298 N1347 2.214 . S
Co1299 O1300 2.160 . S
Co1299 O1305 2.058 . S
Co1299 O1315 2.057 . S
Co1299 O1330 2.037 . S
Co1299 N1334 2.145 . S
Co1299 N1355 2.257 . S
O1300 Co1298 2.143 . S
O1300 Co1299 2.160 . S
C1301 O1302 1.278 . S
C1301 O1309 1.224 . S
O1302 C1301 1.278 . S
C1303 O1304 1.245 . S
C1303 O1315 1.232 . S
O1304 C1303 1.245 . S
O1305 Co1299 2.058 . S
O1305 C1331 1.269 . S
O1306 Co1298 2.074 . S
O1306 C1331 1.257 . S
H1307 C1332 0.930 . S
H1308 C1338 0.930 . S
O1309 Co1298 2.093 . S
O1309 C1301 1.224 . S
H1310 C1342 0.929 . S
H1311 C1344 0.930 . S
H1312 C1345 0.930 . S
H1313 C1343 0.929 . S
H1314 C1346 0.928 . S
O1315 Co1299 2.057 . S
O1315 C1303 1.232 . S
H1316 C1335 0.929 . S
H1317 C1336 0.929 . S
H1318 C1348 0.931 . S
H1319 C1340 0.929 . S
H1320 C1349 0.930 . S
H1321 C1341 0.931 . S
O1322 Co1298 2.097 . S
O1322 C1350 1.214 . S
H1323 C1351 0.929 . S
H1324 C1352 0.929 . S
H1325 C1353 0.930 . S
H1326 C1354 0.929 . S
H1327 C1356 0.930 . S
H1328 C1333 0.930 . S
H1329 C1337 0.930 . S
O1330 Co1299 2.037 . S
O1330 C1350 1.234 . S
C1331 O1305 1.269 . S
C1331 O1306 1.257 . S
C1332 H1307 0.930 . S
C1332 C1335 1.388 . S
C1332 C1337 1.418 . S
C1333 H1328 0.930 . S
C1333 C1336 1.404 . S
C1333 C1337 1.353 . S
N1334 Co1299 2.145 . S
N1334 C1335 1.397 . S
N1334 C1336 1.334 . S
C1335 H1316 0.929 . S
C1335 C1332 1.388 . S
C1335 N1334 1.397 . S
C1336 H1317 0.929 . S
C1336 C1333 1.404 . S
C1336 N1334 1.334 . S
C1337 H1329 0.930 . S
C1337 C1332 1.418 . S
C1337 C1333 1.353 . S
C1338 H1308 0.930 . S
C1338 N1339 1.330 . S
C1338 C1340 1.446 . S
N1339 Co1298 2.151 . S
N1339 C1338 1.330 . S
N1339 C1343 1.418 . S
C1340 H1319 0.929 . S
C1340 C1338 1.446 . S
C1340 C1341 1.332 . S
C1341 H1321 0.931 . S
C1341 C1340 1.332 . S
C1341 C1342 1.267 . S
C1342 H1310 0.929 . S
C1342 C1341 1.267 . S
C1342 C1343 1.251 . S
C1343 H1313 0.929 . S
C1343 N1339 1.418 . S
C1343 C1342 1.251 . S
C1344 H1311 0.930 . S
C1344 C1346 1.406 . S
C1344 C1349 1.261 . S
C1345 H1312 0.930 . S
C1345 N1347 1.325 . S
C1345 C1348 1.357 . S
C1346 H1314 0.928 . S
C1346 C1344 1.406 . S
C1346 N1347 1.261 . S
N1347 Co1298 2.214 . S
N1347 C1345 1.325 . S
N1347 C1346 1.261 . S
C1348 H1318 0.931 . S
C1348 C1345 1.357 . S
C1348 C1349 1.312 . S
C1349 H1320 0.930 . S
C1349 C1344 1.261 . S
C1349 C1348 1.312 . S
C1350 O1322 1.214 . S
C1350 O1330 1.234 . S
C1351 H1323 0.929 . S
C1351 C1354 1.391 . S
C1351 C1356 1.391 . S
C1352 H1324 0.929 . S
C1352 C1353 1.390 . S
C1352 N1355 1.391 . S
C1353 H1325 0.930 . S
C1353 C1352 1.390 . S
C1353 C1354 1.392 . S
C1354 H1326 0.929 . S
C1354 C1351 1.391 . S
C1354 C1353 1.392 . S
N1355 Co1299 2.257 . S
N1355 C1352 1.391 . S
N1355 C1356 1.388 . S
C1356 H1327 0.930 . S
C1356 C1351 1.391 . S
C1356 N1355 1.388 . S
Co1357 O1359 2.143 . S
Co1357 O1365 2.074 . S
Co1357 O1368 2.093 . S
Co1357 O1381 2.097 . S
Co1357 N1398 2.151 . S
Co1357 N1406 2.214 . S
Co1358 O1359 2.160 . S
Co1358 O1364 2.058 . S
Co1358 O1374 2.057 . S
Co1358 O1389 2.037 . S
Co1358 N1393 2.145 . S
Co1358 N1414 2.257 . S
O1359 Co1357 2.143 . S
O1359 Co1358 2.160 . S
C1360 O1361 1.278 . S
C1360 O1368 1.224 . S
O1361 C1360 1.278 . S
C1362 O1363 1.245 . S
C1362 O1374 1.232 . S
O1363 C1362 1.245 . S
O1364 Co1358 2.058 . S
O1364 C1390 1.269 . S
O1365 Co1357 2.074 . S
O1365 C1390 1.257 . S
H1366 C1391 0.930 . S
H1367 C1397 0.930 . S
O1368 Co1357 2.093 . S
O1368 C1360 1.224 . S
H1369 C1401 0.929 . S
H1370 C1403 0.930 . S
H1371 C1404 0.930 . S
H1372 C1402 0.929 . S
H1373 C1405 0.928 . S
O1374 Co1358 2.057 . S
O1374 C1362 1.232 . S
H1375 C1394 0.929 . S
H1376 C1395 0.929 . S
H1377 C1407 0.931 . S
H1378 C1399 0.929 . S
H1379 C1408 0.930 . S
H1380 C1400 0.931 . S
O1381 Co1357 2.097 . S
O1381 C1409 1.214 . S
H1382 C1410 0.929 . S
H1383 C1411 0.929 . S
H1384 C1412 0.930 . S
H1385 C1413 0.929 . S
H1386 C1415 0.930 . S
H1387 C1392 0.930 . S
H1388 C1396 0.930 . S
O1389 Co1358 2.037 . S
O1389 C1409 1.234 . S
C1390 O1364 1.269 . S
C1390 O1365 1.257 . S
C1391 H1366 0.930 . S
C1391 C1394 1.388 . S
C1391 C1396 1.418 . S
C1392 H1387 0.930 . S
C1392 C1395 1.404 . S
C1392 C1396 1.353 . S
N1393 Co1358 2.145 . S
N1393 C1394 1.397 . S
N1393 C1395 1.334 . S
C1394 H1375 0.929 . S
C1394 C1391 1.388 . S
C1394 N1393 1.397 . S
C1395 H1376 0.929 . S
C1395 C1392 1.404 . S
C1395 N1393 1.334 . S
C1396 H1388 0.930 . S
C1396 C1391 1.418 . S
C1396 C1392 1.353 . S
C1397 H1367 0.930 . S
C1397 N1398 1.330 . S
C1397 C1399 1.446 . S
N1398 Co1357 2.151 . S
N1398 C1397 1.330 . S
N1398 C1402 1.418 . S
C1399 H1378 0.929 . S
C1399 C1397 1.446 . S
C1399 C1400 1.332 . S
C1400 H1380 0.931 . S
C1400 C1399 1.332 . S
C1400 C1401 1.267 . S
C1401 H1369 0.929 . S
C1401 C1400 1.267 . S
C1401 C1402 1.251 . S
C1402 H1372 0.929 . S
C1402 N1398 1.418 . S
C1402 C1401 1.251 . S
C1403 H1370 0.930 . S
C1403 C1405 1.406 . S
C1403 C1408 1.261 . S
C1404 H1371 0.930 . S
C1404 N1406 1.325 . S
C1404 C1407 1.357 . S
C1405 H1373 0.928 . S
C1405 C1403 1.406 . S
C1405 N1406 1.261 . S
N1406 Co1357 2.214 . S
N1406 C1404 1.325 . S
N1406 C1405 1.261 . S
C1407 H1377 0.931 . S
C1407 C1404 1.357 . S
C1407 C1408 1.312 . S
C1408 H1379 0.930 . S
C1408 C1403 1.261 . S
C1408 C1407 1.312 . S
C1409 O1381 1.214 . S
C1409 O1389 1.234 . S
C1410 H1382 0.929 . S
C1410 C1413 1.391 . S
C1410 C1415 1.391 . S
C1411 H1383 0.929 . S
C1411 C1412 1.390 . S
C1411 N1414 1.391 . S
C1412 H1384 0.930 . S
C1412 C1411 1.390 . S
C1412 C1413 1.392 . S
C1413 H1385 0.929 . S
C1413 C1410 1.391 . S
C1413 C1412 1.392 . S
N1414 Co1358 2.257 . S
N1414 C1411 1.391 . S
N1414 C1415 1.388 . S
C1415 H1386 0.930 . S
C1415 C1410 1.391 . S
C1415 N1414 1.388 . S
Co1416 O1418 2.143 . S
Co1416 O1424 2.074 . S
Co1416 O1427 2.093 . S
Co1416 O1440 2.097 . S
Co1416 N1457 2.151 . S
Co1416 N1465 2.214 . S
Co1417 O1418 2.160 . S
Co1417 O1423 2.058 . S
Co1417 O1433 2.057 . S
Co1417 O1448 2.037 . S
Co1417 N1452 2.145 . S
Co1417 N1473 2.257 . S
O1418 Co1416 2.143 . S
O1418 Co1417 2.160 . S
C1419 O1420 1.278 . S
C1419 O1427 1.224 . S
O1420 C1419 1.278 . S
C1421 O1422 1.245 . S
C1421 O1433 1.232 . S
O1422 C1421 1.245 . S
O1423 Co1417 2.058 . S
O1423 C1449 1.269 . S
O1424 Co1416 2.074 . S
O1424 C1449 1.257 . S
H1425 C1450 0.930 . S
H1426 C1456 0.930 . S
O1427 Co1416 2.093 . S
O1427 C1419 1.224 . S
H1428 C1460 0.929 . S
H1429 C1462 0.930 . S
H1430 C1463 0.930 . S
H1431 C1461 0.929 . S
H1432 C1464 0.928 . S
O1433 Co1417 2.057 . S
O1433 C1421 1.232 . S
H1434 C1453 0.929 . S
H1435 C1454 0.929 . S
H1436 C1466 0.931 . S
H1437 C1458 0.929 . S
H1438 C1467 0.930 . S
H1439 C1459 0.931 . S
O1440 Co1416 2.097 . S
O1440 C1468 1.214 . S
H1441 C1469 0.929 . S
H1442 C1470 0.929 . S
H1443 C1471 0.930 . S
H1444 C1472 0.929 . S
H1445 C1474 0.930 . S
H1446 C1451 0.930 . S
H1447 C1455 0.930 . S
O1448 Co1417 2.037 . S
O1448 C1468 1.234 . S
C1449 O1423 1.269 . S
C1449 O1424 1.257 . S
C1450 H1425 0.930 . S
C1450 C1453 1.388 . S
C1450 C1455 1.418 . S
C1451 H1446 0.930 . S
C1451 C1454 1.404 . S
C1451 C1455 1.353 . S
N1452 Co1417 2.145 . S
N1452 C1453 1.397 . S
N1452 C1454 1.334 . S
C1453 H1434 0.929 . S
C1453 C1450 1.388 . S
C1453 N1452 1.397 . S
C1454 H1435 0.929 . S
C1454 C1451 1.404 . S
C1454 N1452 1.334 . S
C1455 H1447 0.930 . S
C1455 C1450 1.418 . S
C1455 C1451 1.353 . S
C1456 H1426 0.930 . S
C1456 N1457 1.330 . S
C1456 C1458 1.446 . S
N1457 Co1416 2.151 . S
N1457 C1456 1.330 . S
N1457 C1461 1.418 . S
C1458 H1437 0.929 . S
C1458 C1456 1.446 . S
C1458 C1459 1.332 . S
C1459 H1439 0.931 . S
C1459 C1458 1.332 . S
C1459 C1460 1.267 . S
C1460 H1428 0.929 . S
C1460 C1459 1.267 . S
C1460 C1461 1.251 . S
C1461 H1431 0.929 . S
C1461 N1457 1.418 . S
C1461 C1460 1.251 . S
C1462 H1429 0.930 . S
C1462 C1464 1.406 . S
C1462 C1467 1.261 . S
C1463 H1430 0.930 . S
C1463 N1465 1.325 . S
C1463 C1466 1.357 . S
C1464 H1432 0.928 . S
C1464 C1462 1.406 . S
C1464 N1465 1.261 . S
N1465 Co1416 2.214 . S
N1465 C1463 1.325 . S
N1465 C1464 1.261 . S
C1466 H1436 0.931 . S
C1466 C1463 1.357 . S
C1466 C1467 1.312 . S
C1467 H1438 0.930 . S
C1467 C1462 1.261 . S
C1467 C1466 1.312 . S
C1468 O1440 1.214 . S
C1468 O1448 1.234 . S
C1469 H1441 0.929 . S
C1469 C1472 1.391 . S
C1469 C1474 1.391 . S
C1470 H1442 0.929 . S
C1470 C1471 1.390 . S
C1470 N1473 1.391 . S
C1471 H1443 0.930 . S
C1471 C1470 1.390 . S
C1471 C1472 1.392 . S
C1472 H1444 0.929 . S
C1472 C1469 1.391 . S
C1472 C1471 1.392 . S
N1473 Co1417 2.257 . S
N1473 C1470 1.391 . S
N1473 C1474 1.388 . S
C1474 H1445 0.930 . S
C1474 C1469 1.391 . S
C1474 N1473 1.388 . S
Co1475 O1477 2.143 1_556 S
Co1475 O1483 2.074 . S
Co1475 O1486 2.093 1_556 S
Co1475 O1499 2.097 . S
Co1475 N1516 2.151 1_556 S
Co1475 N1524 2.214 . S
Co1476 O1477 2.160 1_556 S
Co1476 O1482 2.058 . S
Co1476 O1492 2.057 1_556 S
Co1476 O1507 2.037 . S
Co1476 N1511 2.145 . S
Co1476 N1532 2.257 1_556 S
O1477 Co1475 2.143 1_554 S
O1477 Co1476 2.160 1_554 S
C1478 O1479 1.278 . S
C1478 O1486 1.224 . S
O1479 C1478 1.278 . S
C1480 O1481 1.245 . S
C1480 O1492 1.232 . S
O1481 C1480 1.245 . S
O1482 Co1476 2.058 . S
O1482 C1508 1.269 . S
O1483 Co1475 2.074 . S
O1483 C1508 1.257 . S
H1484 C1509 0.930 . S
H1485 C1515 0.930 . S
O1486 Co1475 2.093 1_554 S
O1486 C1478 1.224 . S
H1487 C1519 0.929 . S
H1488 C1521 0.930 . S
H1489 C1522 0.930 . S
H1490 C1520 0.929 . S
H1491 C1523 0.928 . S
O1492 Co1476 2.057 1_554 S
O1492 C1480 1.232 . S
H1493 C1512 0.929 . S
H1494 C1513 0.929 . S
H1495 C1525 0.931 . S
H1496 C1517 0.929 . S
H1497 C1526 0.930 . S
H1498 C1518 0.931 . S
O1499 Co1475 2.097 . S
O1499 C1527 1.214 . S
H1500 C1528 0.929 . S
H1501 C1529 0.929 1_556 S
H1502 C1530 0.930 . S
H1503 C1531 0.929 . S
H1504 C1533 0.930 . S
H1505 C1510 0.930 . S
H1506 C1514 0.930 . S
O1507 Co1476 2.037 . S
O1507 C1527 1.234 . S
C1508 O1482 1.269 . S
C1508 O1483 1.257 . S
C1509 H1484 0.930 . S
C1509 C1512 1.388 . S
C1509 C1514 1.418 . S
C1510 H1505 0.930 . S
C1510 C1513 1.404 . S
C1510 C1514 1.353 . S
N1511 Co1476 2.145 . S
N1511 C1512 1.397 . S
N1511 C1513 1.334 . S
C1512 H1493 0.929 . S
C1512 C1509 1.388 . S
C1512 N1511 1.397 . S
C1513 H1494 0.929 . S
C1513 C1510 1.404 . S
C1513 N1511 1.334 . S
C1514 H1506 0.930 . S
C1514 C1509 1.418 . S
C1514 C1510 1.353 . S
C1515 H1485 0.930 . S
C1515 N1516 1.330 . S
C1515 C1517 1.446 . S
N1516 Co1475 2.151 1_554 S
N1516 C1515 1.330 . S
N1516 C1520 1.418 1_554 S
C1517 H1496 0.929 . S
C1517 C1515 1.446 . S
C1517 C1518 1.332 . S
C1518 H1498 0.931 . S
C1518 C1517 1.332 . S
C1518 C1519 1.267 1_554 S
C1519 H1487 0.929 . S
C1519 C1518 1.267 1_556 S
C1519 C1520 1.251 . S
C1520 H1490 0.929 . S
C1520 N1516 1.418 1_556 S
C1520 C1519 1.251 . S
C1521 H1488 0.930 . S
C1521 C1523 1.406 . S
C1521 C1526 1.261 . S
C1522 H1489 0.930 . S
C1522 N1524 1.325 . S
C1522 C1525 1.357 . S
C1523 H1491 0.928 . S
C1523 C1521 1.406 . S
C1523 N1524 1.261 . S
N1524 Co1475 2.214 . S
N1524 C1522 1.325 . S
N1524 C1523 1.261 . S
C1525 H1495 0.931 . S
C1525 C1522 1.357 . S
C1525 C1526 1.312 . S
C1526 H1497 0.930 . S
C1526 C1521 1.261 . S
C1526 C1525 1.312 . S
C1527 O1499 1.214 . S
C1527 O1507 1.234 . S
C1528 H1500 0.929 . S
C1528 C1531 1.391 . S
C1528 C1533 1.391 . S
C1529 H1501 0.929 1_554 S
C1529 C1530 1.390 . S
C1529 N1532 1.391 . S
C1530 H1502 0.930 . S
C1530 C1529 1.390 . S
C1530 C1531 1.392 . S
C1531 H1503 0.929 . S
C1531 C1528 1.391 . S
C1531 C1530 1.392 . S
N1532 Co1476 2.257 1_554 S
N1532 C1529 1.391 . S
N1532 C1533 1.388 . S
C1533 H1504 0.930 . S
C1533 C1528 1.391 . S
C1533 N1532 1.388 . S
Co1534 O1536 2.143 . S
Co1534 O1542 2.074 . S
Co1534 O1545 2.093 . S
Co1534 O1558 2.097 . S
Co1534 N1575 2.151 . S
Co1534 N1583 2.214 . S
Co1535 O1536 2.160 . S
Co1535 O1541 2.058 . S
Co1535 O1551 2.057 . S
Co1535 O1566 2.037 . S
Co1535 N1570 2.145 . S
Co1535 N1591 2.257 . S
O1536 Co1534 2.143 . S
O1536 Co1535 2.160 . S
C1537 O1538 1.278 . S
C1537 O1545 1.224 . S
O1538 C1537 1.278 . S
C1539 O1540 1.245 . S
C1539 O1551 1.232 . S
O1540 C1539 1.245 . S
O1541 Co1535 2.058 . S
O1541 C1567 1.269 . S
O1542 Co1534 2.074 . S
O1542 C1567 1.257 . S
H1543 C1568 0.930 . S
H1544 C1574 0.930 . S
O1545 Co1534 2.093 . S
O1545 C1537 1.224 . S
H1546 C1578 0.929 . S
H1547 C1580 0.930 . S
H1548 C1581 0.930 . S
H1549 C1579 0.929 . S
H1550 C1582 0.928 . S
O1551 Co1535 2.057 . S
O1551 C1539 1.232 . S
H1552 C1571 0.929 . S
H1553 C1572 0.929 . S
H1554 C1584 0.931 . S
H1555 C1576 0.929 . S
H1556 C1585 0.930 . S
H1557 C1577 0.931 . S
O1558 Co1534 2.097 . S
O1558 C1586 1.214 . S
H1559 C1587 0.929 . S
H1560 C1588 0.929 . S
H1561 C1589 0.930 . S
H1562 C1590 0.929 . S
H1563 C1592 0.930 . S
H1564 C1569 0.930 . S
H1565 C1573 0.930 . S
O1566 Co1535 2.037 . S
O1566 C1586 1.234 . S
C1567 O1541 1.269 . S
C1567 O1542 1.257 . S
C1568 H1543 0.930 . S
C1568 C1571 1.388 . S
C1568 C1573 1.418 . S
C1569 H1564 0.930 . S
C1569 C1572 1.404 . S
C1569 C1573 1.353 . S
N1570 Co1535 2.145 . S
N1570 C1571 1.397 . S
N1570 C1572 1.334 . S
C1571 H1552 0.929 . S
C1571 C1568 1.388 . S
C1571 N1570 1.397 . S
C1572 H1553 0.929 . S
C1572 C1569 1.404 . S
C1572 N1570 1.334 . S
C1573 H1565 0.930 . S
C1573 C1568 1.418 . S
C1573 C1569 1.353 . S
C1574 H1544 0.930 . S
C1574 N1575 1.330 . S
C1574 C1576 1.446 . S
N1575 Co1534 2.151 . S
N1575 C1574 1.330 . S
N1575 C1579 1.418 . S
C1576 H1555 0.929 . S
C1576 C1574 1.446 . S
C1576 C1577 1.332 . S
C1577 H1557 0.931 . S
C1577 C1576 1.332 . S
C1577 C1578 1.267 . S
C1578 H1546 0.929 . S
C1578 C1577 1.267 . S
C1578 C1579 1.251 . S
C1579 H1549 0.929 . S
C1579 N1575 1.418 . S
C1579 C1578 1.251 . S
C1580 H1547 0.930 . S
C1580 C1582 1.406 . S
C1580 C1585 1.261 . S
C1581 H1548 0.930 . S
C1581 N1583 1.325 . S
C1581 C1584 1.357 . S
C1582 H1550 0.928 . S
C1582 C1580 1.406 . S
C1582 N1583 1.261 . S
N1583 Co1534 2.214 . S
N1583 C1581 1.325 . S
N1583 C1582 1.261 . S
C1584 H1554 0.931 . S
C1584 C1581 1.357 . S
C1584 C1585 1.312 . S
C1585 H1556 0.930 . S
C1585 C1580 1.261 . S
C1585 C1584 1.312 . S
C1586 O1558 1.214 . S
C1586 O1566 1.234 . S
C1587 H1559 0.929 . S
C1587 C1590 1.391 . S
C1587 C1592 1.391 . S
C1588 H1560 0.929 . S
C1588 C1589 1.390 . S
C1588 N1591 1.391 . S
C1589 H1561 0.930 . S
C1589 C1588 1.390 . S
C1589 C1590 1.392 . S
C1590 H1562 0.929 . S
C1590 C1587 1.391 . S
C1590 C1589 1.392 . S
N1591 Co1535 2.257 . S
N1591 C1588 1.391 . S
N1591 C1592 1.388 . S
C1592 H1563 0.930 . S
C1592 C1587 1.391 . S
C1592 N1591 1.388 . S
Co1593 O1595 2.143 . S
Co1593 O1601 2.074 . S
Co1593 O1604 2.093 . S
Co1593 O1617 2.097 . S
Co1593 N1634 2.151 . S
Co1593 N1642 2.214 . S
Co1594 O1595 2.160 . S
Co1594 O1600 2.058 . S
Co1594 O1610 2.057 . S
Co1594 O1625 2.037 . S
Co1594 N1629 2.145 . S
Co1594 N1650 2.257 . S
O1595 Co1593 2.143 . S
O1595 Co1594 2.160 . S
C1596 O1597 1.278 . S
C1596 O1604 1.224 . S
O1597 C1596 1.278 . S
C1598 O1599 1.245 . S
C1598 O1610 1.232 . S
O1599 C1598 1.245 . S
O1600 Co1594 2.058 . S
O1600 C1626 1.269 . S
O1601 Co1593 2.074 . S
O1601 C1626 1.257 . S
H1602 C1627 0.930 . S
H1603 C1633 0.930 . S
O1604 Co1593 2.093 . S
O1604 C1596 1.224 . S
H1605 C1637 0.929 . S
H1606 C1639 0.930 . S
H1607 C1640 0.930 . S
H1608 C1638 0.929 . S
H1609 C1641 0.928 . S
O1610 Co1594 2.057 . S
O1610 C1598 1.232 . S
H1611 C1630 0.929 . S
H1612 C1631 0.929 . S
H1613 C1643 0.931 . S
H1614 C1635 0.929 . S
H1615 C1644 0.930 . S
H1616 C1636 0.931 . S
O1617 Co1593 2.097 . S
O1617 C1645 1.214 . S
H1618 C1646 0.929 . S
H1619 C1647 0.929 . S
H1620 C1648 0.930 . S
H1621 C1649 0.929 . S
H1622 C1651 0.930 . S
H1623 C1628 0.930 . S
H1624 C1632 0.930 . S
O1625 Co1594 2.037 . S
O1625 C1645 1.234 . S
C1626 O1600 1.269 . S
C1626 O1601 1.257 . S
C1627 H1602 0.930 . S
C1627 C1630 1.388 . S
C1627 C1632 1.418 . S
C1628 H1623 0.930 . S
C1628 C1631 1.404 . S
C1628 C1632 1.353 . S
N1629 Co1594 2.145 . S
N1629 C1630 1.397 . S
N1629 C1631 1.334 . S
C1630 H1611 0.929 . S
C1630 C1627 1.388 . S
C1630 N1629 1.397 . S
C1631 H1612 0.929 . S
C1631 C1628 1.404 . S
C1631 N1629 1.334 . S
C1632 H1624 0.930 . S
C1632 C1627 1.418 . S
C1632 C1628 1.353 . S
C1633 H1603 0.930 . S
C1633 N1634 1.330 . S
C1633 C1635 1.446 . S
N1634 Co1593 2.151 . S
N1634 C1633 1.330 . S
N1634 C1638 1.418 . S
C1635 H1614 0.929 . S
C1635 C1633 1.446 . S
C1635 C1636 1.332 . S
C1636 H1616 0.931 . S
C1636 C1635 1.332 . S
C1636 C1637 1.267 . S
C1637 H1605 0.929 . S
C1637 C1636 1.267 . S
C1637 C1638 1.251 . S
C1638 H1608 0.929 . S
C1638 N1634 1.418 . S
C1638 C1637 1.251 . S
C1639 H1606 0.930 . S
C1639 C1641 1.406 . S
C1639 C1644 1.261 . S
C1640 H1607 0.930 . S
C1640 N1642 1.325 . S
C1640 C1643 1.357 . S
C1641 H1609 0.928 . S
C1641 C1639 1.406 . S
C1641 N1642 1.261 . S
N1642 Co1593 2.214 . S
N1642 C1640 1.325 . S
N1642 C1641 1.261 . S
C1643 H1613 0.931 . S
C1643 C1640 1.357 . S
C1643 C1644 1.312 . S
C1644 H1615 0.930 . S
C1644 C1639 1.261 . S
C1644 C1643 1.312 . S
C1645 O1617 1.214 . S
C1645 O1625 1.234 . S
C1646 H1618 0.929 . S
C1646 C1649 1.391 . S
C1646 C1651 1.391 . S
C1647 H1619 0.929 . S
C1647 C1648 1.390 . S
C1647 N1650 1.391 . S
C1648 H1620 0.930 . S
C1648 C1647 1.390 . S
C1648 C1649 1.392 . S
C1649 H1621 0.929 . S
C1649 C1646 1.391 . S
C1649 C1648 1.392 . S
N1650 Co1594 2.257 . S
N1650 C1647 1.391 . S
N1650 C1651 1.388 . S
C1651 H1622 0.930 . S
C1651 C1646 1.391 . S
C1651 N1650 1.388 . S
Co1652 O1654 2.143 . S
Co1652 O1660 2.074 . S
Co1652 O1663 2.093 . S
Co1652 O1676 2.097 . S
Co1652 N1693 2.151 . S
Co1652 N1701 2.214 . S
Co1653 O1654 2.160 . S
Co1653 O1659 2.058 . S
Co1653 O1669 2.057 . S
Co1653 O1684 2.037 . S
Co1653 N1688 2.145 . S
Co1653 N1709 2.257 . S
O1654 Co1652 2.143 . S
O1654 Co1653 2.160 . S
C1655 O1656 1.278 . S
C1655 O1663 1.224 . S
O1656 C1655 1.278 . S
C1657 O1658 1.245 . S
C1657 O1669 1.232 . S
O1658 C1657 1.245 . S
O1659 Co1653 2.058 . S
O1659 C1685 1.269 . S
O1660 Co1652 2.074 . S
O1660 C1685 1.257 . S
H1661 C1686 0.930 . S
H1662 C1692 0.930 . S
O1663 Co1652 2.093 . S
O1663 C1655 1.224 . S
H1664 C1696 0.929 . S
H1665 C1698 0.930 . S
H1666 C1699 0.930 . S
H1667 C1697 0.929 . S
H1668 C1700 0.928 . S
O1669 Co1653 2.057 . S
O1669 C1657 1.232 . S
H1670 C1689 0.929 . S
H1671 C1690 0.929 . S
H1672 C1702 0.931 . S
H1673 C1694 0.929 . S
H1674 C1703 0.930 . S
H1675 C1695 0.931 . S
O1676 Co1652 2.097 . S
O1676 C1704 1.214 . S
H1677 C1705 0.929 . S
H1678 C1706 0.929 . S
H1679 C1707 0.930 . S
H1680 C1708 0.929 . S
H1681 C1710 0.930 . S
H1682 C1687 0.930 . S
H1683 C1691 0.930 . S
O1684 Co1653 2.037 . S
O1684 C1704 1.234 . S
C1685 O1659 1.269 . S
C1685 O1660 1.257 . S
C1686 H1661 0.930 . S
C1686 C1689 1.388 . S
C1686 C1691 1.418 . S
C1687 H1682 0.930 . S
C1687 C1690 1.404 . S
C1687 C1691 1.353 . S
N1688 Co1653 2.145 . S
N1688 C1689 1.397 . S
N1688 C1690 1.334 . S
C1689 H1670 0.929 . S
C1689 C1686 1.388 . S
C1689 N1688 1.397 . S
C1690 H1671 0.929 . S
C1690 C1687 1.404 . S
C1690 N1688 1.334 . S
C1691 H1683 0.930 . S
C1691 C1686 1.418 . S
C1691 C1687 1.353 . S
C1692 H1662 0.930 . S
C1692 N1693 1.330 . S
C1692 C1694 1.446 . S
N1693 Co1652 2.151 . S
N1693 C1692 1.330 . S
N1693 C1697 1.418 . S
C1694 H1673 0.929 . S
C1694 C1692 1.446 . S
C1694 C1695 1.332 . S
C1695 H1675 0.931 . S
C1695 C1694 1.332 . S
C1695 C1696 1.267 . S
C1696 H1664 0.929 . S
C1696 C1695 1.267 . S
C1696 C1697 1.251 . S
C1697 H1667 0.929 . S
C1697 N1693 1.418 . S
C1697 C1696 1.251 . S
C1698 H1665 0.930 . S
C1698 C1700 1.406 . S
C1698 C1703 1.261 . S
C1699 H1666 0.930 . S
C1699 N1701 1.325 . S
C1699 C1702 1.357 . S
C1700 H1668 0.928 . S
C1700 C1698 1.406 . S
C1700 N1701 1.261 . S
N1701 Co1652 2.214 . S
N1701 C1699 1.325 . S
N1701 C1700 1.261 . S
C1702 H1672 0.931 . S
C1702 C1699 1.357 . S
C1702 C1703 1.312 . S
C1703 H1674 0.930 . S
C1703 C1698 1.261 . S
C1703 C1702 1.312 . S
C1704 O1676 1.214 . S
C1704 O1684 1.234 . S
C1705 H1677 0.929 . S
C1705 C1708 1.391 . S
C1705 C1710 1.391 . S
C1706 H1678 0.929 . S
C1706 C1707 1.390 . S
C1706 N1709 1.391 . S
C1707 H1679 0.930 . S
C1707 C1706 1.390 . S
C1707 C1708 1.392 . S
C1708 H1680 0.929 . S
C1708 C1705 1.391 . S
C1708 C1707 1.392 . S
N1709 Co1653 2.257 . S
N1709 C1706 1.391 . S
N1709 C1710 1.388 . S
C1710 H1681 0.930 . S
C1710 C1705 1.391 . S
C1710 N1709 1.388 . S
Co1711 O1713 2.143 1_554 S
Co1711 O1719 2.074 . S
Co1711 O1722 2.093 1_554 S
Co1711 O1735 2.097 . S
Co1711 N1752 2.151 1_554 S
Co1711 N1760 2.214 . S
Co1712 O1713 2.160 1_554 S
Co1712 O1718 2.058 . S
Co1712 O1728 2.057 1_554 S
Co1712 O1743 2.037 . S
Co1712 N1747 2.145 . S
Co1712 N1768 2.257 1_554 S
O1713 Co1711 2.143 1_556 S
O1713 Co1712 2.160 1_556 S
C1714 O1715 1.278 . S
C1714 O1722 1.224 . S
O1715 C1714 1.278 . S
C1716 O1717 1.245 . S
C1716 O1728 1.232 . S
O1717 C1716 1.245 . S
O1718 Co1712 2.058 . S
O1718 C1744 1.269 . S
O1719 Co1711 2.074 . S
O1719 C1744 1.257 . S
H1720 C1745 0.930 . S
H1721 C1751 0.930 . S
O1722 Co1711 2.093 1_556 S
O1722 C1714 1.224 . S
H1723 C1755 0.929 . S
H1724 C1757 0.930 . S
H1725 C1758 0.930 . S
H1726 C1756 0.929 . S
H1727 C1759 0.928 . S
O1728 Co1712 2.057 1_556 S
O1728 C1716 1.232 . S
H1729 C1748 0.929 . S
H1730 C1749 0.929 . S
H1731 C1761 0.931 . S
H1732 C1753 0.929 . S
H1733 C1762 0.930 . S
H1734 C1754 0.931 . S
O1735 Co1711 2.097 . S
O1735 C1763 1.214 . S
H1736 C1764 0.929 . S
H1737 C1765 0.929 1_554 S
H1738 C1766 0.930 . S
H1739 C1767 0.929 . S
H1740 C1769 0.930 . S
H1741 C1746 0.930 . S
H1742 C1750 0.930 . S
O1743 Co1712 2.037 . S
O1743 C1763 1.234 . S
C1744 O1718 1.269 . S
C1744 O1719 1.257 . S
C1745 H1720 0.930 . S
C1745 C1748 1.388 . S
C1745 C1750 1.418 . S
C1746 H1741 0.930 . S
C1746 C1749 1.404 . S
C1746 C1750 1.353 . S
N1747 Co1712 2.145 . S
N1747 C1748 1.397 . S
N1747 C1749 1.334 . S
C1748 H1729 0.929 . S
C1748 C1745 1.388 . S
C1748 N1747 1.397 . S
C1749 H1730 0.929 . S
C1749 C1746 1.404 . S
C1749 N1747 1.334 . S
C1750 H1742 0.930 . S
C1750 C1745 1.418 . S
C1750 C1746 1.353 . S
C1751 H1721 0.930 . S
C1751 N1752 1.330 . S
C1751 C1753 1.446 . S
N1752 Co1711 2.151 1_556 S
N1752 C1751 1.330 . S
N1752 C1756 1.418 1_556 S
C1753 H1732 0.929 . S
C1753 C1751 1.446 . S
C1753 C1754 1.332 . S
C1754 H1734 0.931 . S
C1754 C1753 1.332 . S
C1754 C1755 1.267 1_556 S
C1755 H1723 0.929 . S
C1755 C1754 1.267 1_554 S
C1755 C1756 1.251 . S
C1756 H1726 0.929 . S
C1756 N1752 1.418 1_554 S
C1756 C1755 1.251 . S
C1757 H1724 0.930 . S
C1757 C1759 1.406 . S
C1757 C1762 1.261 . S
C1758 H1725 0.930 . S
C1758 N1760 1.325 . S
C1758 C1761 1.357 . S
C1759 H1727 0.928 . S
C1759 C1757 1.406 . S
C1759 N1760 1.261 . S
N1760 Co1711 2.214 . S
N1760 C1758 1.325 . S
N1760 C1759 1.261 . S
C1761 H1731 0.931 . S
C1761 C1758 1.357 . S
C1761 C1762 1.312 . S
C1762 H1733 0.930 . S
C1762 C1757 1.261 . S
C1762 C1761 1.312 . S
C1763 O1735 1.214 . S
C1763 O1743 1.234 . S
C1764 H1736 0.929 . S
C1764 C1767 1.391 . S
C1764 C1769 1.391 . S
C1765 H1737 0.929 1_556 S
C1765 C1766 1.390 . S
C1765 N1768 1.391 . S
C1766 H1738 0.930 . S
C1766 C1765 1.390 . S
C1766 C1767 1.392 . S
C1767 H1739 0.929 . S
C1767 C1764 1.391 . S
C1767 C1766 1.392 . S
N1768 Co1712 2.257 1_556 S
N1768 C1765 1.391 . S
N1768 C1769 1.388 . S
C1769 H1740 0.930 . S
C1769 C1764 1.391 . S
C1769 N1768 1.388 . S
Co1770 O1772 2.143 . S
Co1770 O1778 2.074 . S
Co1770 O1781 2.093 . S
Co1770 O1794 2.097 . S
Co1770 N1811 2.151 . S
Co1770 N1819 2.214 . S
Co1771 O1772 2.160 . S
Co1771 O1777 2.058 . S
Co1771 O1787 2.057 . S
Co1771 O1802 2.037 . S
Co1771 N1806 2.145 . S
Co1771 N1827 2.257 . S
O1772 Co1770 2.143 . S
O1772 Co1771 2.160 . S
C1773 O1774 1.278 . S
C1773 O1781 1.224 . S
O1774 C1773 1.278 . S
C1775 O1776 1.245 . S
C1775 O1787 1.232 . S
O1776 C1775 1.245 . S
O1777 Co1771 2.058 . S
O1777 C1803 1.269 . S
O1778 Co1770 2.074 . S
O1778 C1803 1.257 . S
H1779 C1804 0.930 . S
H1780 C1810 0.930 . S
O1781 Co1770 2.093 . S
O1781 C1773 1.224 . S
H1782 C1814 0.929 . S
H1783 C1816 0.930 . S
H1784 C1817 0.930 . S
H1785 C1815 0.929 . S
H1786 C1818 0.928 . S
O1787 Co1771 2.057 . S
O1787 C1775 1.232 . S
H1788 C1807 0.929 . S
H1789 C1808 0.929 . S
H1790 C1820 0.931 . S
H1791 C1812 0.929 . S
H1792 C1821 0.930 . S
H1793 C1813 0.931 . S
O1794 Co1770 2.097 . S
O1794 C1822 1.214 . S
H1795 C1823 0.929 . S
H1796 C1824 0.929 . S
H1797 C1825 0.930 . S
H1798 C1826 0.929 . S
H1799 C1828 0.930 . S
H1800 C1805 0.930 . S
H1801 C1809 0.930 . S
O1802 Co1771 2.037 . S
O1802 C1822 1.234 . S
C1803 O1777 1.269 . S
C1803 O1778 1.257 . S
C1804 H1779 0.930 . S
C1804 C1807 1.388 . S
C1804 C1809 1.418 . S
C1805 H1800 0.930 . S
C1805 C1808 1.404 . S
C1805 C1809 1.353 . S
N1806 Co1771 2.145 . S
N1806 C1807 1.397 . S
N1806 C1808 1.334 . S
C1807 H1788 0.929 . S
C1807 C1804 1.388 . S
C1807 N1806 1.397 . S
C1808 H1789 0.929 . S
C1808 C1805 1.404 . S
C1808 N1806 1.334 . S
C1809 H1801 0.930 . S
C1809 C1804 1.418 . S
C1809 C1805 1.353 . S
C1810 H1780 0.930 . S
C1810 N1811 1.330 . S
C1810 C1812 1.446 . S
N1811 Co1770 2.151 . S
N1811 C1810 1.330 . S
N1811 C1815 1.418 . S
C1812 H1791 0.929 . S
C1812 C1810 1.446 . S
C1812 C1813 1.332 . S
C1813 H1793 0.931 . S
C1813 C1812 1.332 . S
C1813 C1814 1.267 . S
C1814 H1782 0.929 . S
C1814 C1813 1.267 . S
C1814 C1815 1.251 . S
C1815 H1785 0.929 . S
C1815 N1811 1.418 . S
C1815 C1814 1.251 . S
C1816 H1783 0.930 . S
C1816 C1818 1.406 . S
C1816 C1821 1.261 . S
C1817 H1784 0.930 . S
C1817 N1819 1.325 . S
C1817 C1820 1.357 . S
C1818 H1786 0.928 . S
C1818 C1816 1.406 . S
C1818 N1819 1.261 . S
N1819 Co1770 2.214 . S
N1819 C1817 1.325 . S
N1819 C1818 1.261 . S
C1820 H1790 0.931 . S
C1820 C1817 1.357 . S
C1820 C1821 1.312 . S
C1821 H1792 0.930 . S
C1821 C1816 1.261 . S
C1821 C1820 1.312 . S
C1822 O1794 1.214 . S
C1822 O1802 1.234 . S
C1823 H1795 0.929 . S
C1823 C1826 1.391 . S
C1823 C1828 1.391 . S
C1824 H1796 0.929 . S
C1824 C1825 1.390 . S
C1824 N1827 1.391 . S
C1825 H1797 0.930 . S
C1825 C1824 1.390 . S
C1825 C1826 1.392 . S
C1826 H1798 0.929 . S
C1826 C1823 1.391 . S
C1826 C1825 1.392 . S
N1827 Co1771 2.257 . S
N1827 C1824 1.391 . S
N1827 C1828 1.388 . S
C1828 H1799 0.930 . S
C1828 C1823 1.391 . S
C1828 N1827 1.388 . S
Co1829 O1831 2.143 . S
Co1829 O1837 2.074 . S
Co1829 O1840 2.093 . S
Co1829 O1853 2.097 . S
Co1829 N1870 2.151 . S
Co1829 N1878 2.214 . S
Co1830 O1831 2.160 . S
Co1830 O1836 2.058 . S
Co1830 O1846 2.057 . S
Co1830 O1861 2.037 . S
Co1830 N1865 2.145 . S
Co1830 N1886 2.257 . S
O1831 Co1829 2.143 . S
O1831 Co1830 2.160 . S
C1832 O1833 1.278 . S
C1832 O1840 1.224 . S
O1833 C1832 1.278 . S
C1834 O1835 1.245 . S
C1834 O1846 1.232 . S
O1835 C1834 1.245 . S
O1836 Co1830 2.058 . S
O1836 C1862 1.269 . S
O1837 Co1829 2.074 . S
O1837 C1862 1.257 . S
H1838 C1863 0.930 . S
H1839 C1869 0.930 . S
O1840 Co1829 2.093 . S
O1840 C1832 1.224 . S
H1841 C1873 0.929 . S
H1842 C1875 0.930 . S
H1843 C1876 0.930 . S
H1844 C1874 0.929 . S
H1845 C1877 0.928 . S
O1846 Co1830 2.057 . S
O1846 C1834 1.232 . S
H1847 C1866 0.929 . S
H1848 C1867 0.929 . S
H1849 C1879 0.931 . S
H1850 C1871 0.929 . S
H1851 C1880 0.930 . S
H1852 C1872 0.931 . S
O1853 Co1829 2.097 . S
O1853 C1881 1.214 . S
H1854 C1882 0.929 . S
H1855 C1883 0.929 . S
H1856 C1884 0.930 . S
H1857 C1885 0.929 . S
H1858 C1887 0.930 . S
H1859 C1864 0.930 . S
H1860 C1868 0.930 . S
O1861 Co1830 2.037 . S
O1861 C1881 1.234 . S
C1862 O1836 1.269 . S
C1862 O1837 1.257 . S
C1863 H1838 0.930 . S
C1863 C1866 1.388 . S
C1863 C1868 1.418 . S
C1864 H1859 0.930 . S
C1864 C1867 1.404 . S
C1864 C1868 1.353 . S
N1865 Co1830 2.145 . S
N1865 C1866 1.397 . S
N1865 C1867 1.334 . S
C1866 H1847 0.929 . S
C1866 C1863 1.388 . S
C1866 N1865 1.397 . S
C1867 H1848 0.929 . S
C1867 C1864 1.404 . S
C1867 N1865 1.334 . S
C1868 H1860 0.930 . S
C1868 C1863 1.418 . S
C1868 C1864 1.353 . S
C1869 H1839 0.930 . S
C1869 N1870 1.330 . S
C1869 C1871 1.446 . S
N1870 Co1829 2.151 . S
N1870 C1869 1.330 . S
N1870 C1874 1.418 . S
C1871 H1850 0.929 . S
C1871 C1869 1.446 . S
C1871 C1872 1.332 . S
C1872 H1852 0.931 . S
C1872 C1871 1.332 . S
C1872 C1873 1.267 . S
C1873 H1841 0.929 . S
C1873 C1872 1.267 . S
C1873 C1874 1.251 . S
C1874 H1844 0.929 . S
C1874 N1870 1.418 . S
C1874 C1873 1.251 . S
C1875 H1842 0.930 . S
C1875 C1877 1.406 . S
C1875 C1880 1.261 . S
C1876 H1843 0.930 . S
C1876 N1878 1.325 . S
C1876 C1879 1.357 . S
C1877 H1845 0.928 . S
C1877 C1875 1.406 . S
C1877 N1878 1.261 . S
N1878 Co1829 2.214 . S
N1878 C1876 1.325 . S
N1878 C1877 1.261 . S
C1879 H1849 0.931 . S
C1879 C1876 1.357 . S
C1879 C1880 1.312 . S
C1880 H1851 0.930 . S
C1880 C1875 1.261 . S
C1880 C1879 1.312 . S
C1881 O1853 1.214 . S
C1881 O1861 1.234 . S
C1882 H1854 0.929 . S
C1882 C1885 1.391 . S
C1882 C1887 1.391 . S
C1883 H1855 0.929 . S
C1883 C1884 1.390 . S
C1883 N1886 1.391 . S
C1884 H1856 0.930 . S
C1884 C1883 1.390 . S
C1884 C1885 1.392 . S
C1885 H1857 0.929 . S
C1885 C1882 1.391 . S
C1885 C1884 1.392 . S
N1886 Co1830 2.257 . S
N1886 C1883 1.391 . S
N1886 C1887 1.388 . S
C1887 H1858 0.930 . S
C1887 C1882 1.391 . S
C1887 N1886 1.388 . S
H1888 C1896 0.950 . S
H1889 C1901 0.950 . S
H1890 C1898 0.950 . S
H1891 C1900 0.950 . S
H1892 C1902 0.950 . S
H1893 C1904 0.950 . S
H1894 C1906 0.950 . S
H1895 C1907 0.950 . S
C1896 H1888 0.950 . S
C1896 C1897 1.386 . S
C1896 C1898 1.391 . S
C1897 C1896 1.386 . S
C1897 C1901 1.393 . S
C1898 H1890 0.950 . S
C1898 C1896 1.391 . S
C1898 C1899 1.400 . S
C1899 C1898 1.400 . S
C1899 C1900 1.398 . S
C1899 C1905 1.491 . S
C1900 H1891 0.950 . S
C1900 C1899 1.398 . S
C1900 C1901 1.391 . S
C1901 H1889 0.950 . S
C1901 C1897 1.393 . S
C1901 C1900 1.391 . S
C1902 H1892 0.950 . S
C1902 C1903 1.386 . S
C1902 C1904 1.391 . S
C1903 C1902 1.386 . S
C1903 C1907 1.393 . S
C1904 H1893 0.950 . S
C1904 C1902 1.391 . S
C1904 C1905 1.400 . S
C1905 C1899 1.491 . S
C1905 C1904 1.400 . S
C1905 C1906 1.398 . S
C1906 H1894 0.950 . S
C1906 C1905 1.398 . S
C1906 C1907 1.391 . S
C1907 H1895 0.950 . S
C1907 C1903 1.393 . S
C1907 C1906 1.391 . S
H1908 C1916 0.950 1_565 S
H1909 C1921 0.950 . S
H1910 C1918 0.950 . S
H1911 C1920 0.950 . S
H1912 C1922 0.950 1_545 S
H1913 C1924 0.950 . S
H1914 C1926 0.950 . S
H1915 C1927 0.950 . S
C1916 H1908 0.950 1_545 S
C1916 C1917 1.386 . S
C1916 C1918 1.391 1_545 S
C1917 C1916 1.386 . S
C1917 C1921 1.393 . S
C1918 H1910 0.950 . S
C1918 C1916 1.391 1_565 S
C1918 C1919 1.400 1_565 S
C1919 C1918 1.400 1_545 S
C1919 C1920 1.398 . S
C1919 C1925 1.491 1_545 S
C1920 H1911 0.950 . S
C1920 C1919 1.398 . S
C1920 C1921 1.391 . S
C1921 H1909 0.950 . S
C1921 C1917 1.393 . S
C1921 C1920 1.391 . S
C1922 H1912 0.950 1_565 S
C1922 C1923 1.386 . S
C1922 C1924 1.391 1_565 S
C1923 C1922 1.386 . S
C1923 C1927 1.393 . S
C1924 H1913 0.950 . S
C1924 C1922 1.391 1_545 S
C1924 C1925 1.400 1_545 S
C1925 C1919 1.491 1_565 S
C1925 C1924 1.400 1_565 S
C1925 C1926 1.398 . S
C1926 H1914 0.950 . S
C1926 C1925 1.398 . S
C1926 C1927 1.391 . S
C1927 H1915 0.950 . S
C1927 C1923 1.393 . S
C1927 C1926 1.391 . S
H1928 C1936 0.950 . S
H1929 C1941 0.950 1_556 S
H1930 C1938 0.950 . S
H1931 C1940 0.950 . S
H1932 C1942 0.950 . S
H1933 C1944 0.950 . S
H1934 C1946 0.950 . S
H1935 C1947 0.950 1_554 S
C1936 H1928 0.950 . S
C1936 C1937 1.386 . S
C1936 C1938 1.391 . S
C1937 C1936 1.386 . S
C1937 C1941 1.393 . S
C1938 H1930 0.950 . S
C1938 C1936 1.391 . S
C1938 C1939 1.400 . S
C1939 C1938 1.400 . S
C1939 C1940 1.398 1_554 S
C1939 C1945 1.491 1_554 S
C1940 H1931 0.950 . S
C1940 C1939 1.398 1_556 S
C1940 C1941 1.391 1_556 S
C1941 H1929 0.950 1_554 S
C1941 C1937 1.393 . S
C1941 C1940 1.391 1_554 S
C1942 H1932 0.950 . S
C1942 C1943 1.386 . S
C1942 C1944 1.391 . S
C1943 C1942 1.386 . S
C1943 C1947 1.393 . S
C1944 H1933 0.950 . S
C1944 C1942 1.391 . S
C1944 C1945 1.400 . S
C1945 C1939 1.491 1_556 S
C1945 C1944 1.400 . S
C1945 C1946 1.398 1_556 S
C1946 H1934 0.950 . S
C1946 C1945 1.398 1_554 S
C1946 C1947 1.391 1_554 S
C1947 H1935 0.950 1_556 S
C1947 C1943 1.393 . S
C1947 C1946 1.391 1_556 S
H1948 C1956 0.952 . S
H1949 C1961 0.950 . S
H1950 C1958 0.950 . S
H1951 C1960 0.950 . S
H1952 C1962 0.964 . S
H1953 C1964 0.950 . S
H1954 C1966 0.950 . S
H1955 C1967 0.950 . S
C1956 H1948 0.952 . S
C1956 C1957 1.386 . S
C1956 C1958 1.391 1_565 S
C1957 C1956 1.386 . S
C1957 C1961 1.393 . S
C1958 H1950 0.950 . S
C1958 C1956 1.391 1_545 S
C1958 C1959 1.400 1_545 S
C1959 C1958 1.400 1_565 S
C1959 C1960 1.398 . S
C1959 C1965 1.491 1_565 S
C1960 H1951 0.950 . S
C1960 C1959 1.398 . S
C1960 C1961 1.391 . S
C1961 H1949 0.950 . S
C1961 C1957 1.393 . S
C1961 C1960 1.391 . S
C1962 H1952 0.964 . S
C1962 C1963 1.386 . S
C1962 C1964 1.391 1_545 S
C1963 C1962 1.386 . S
C1963 C1967 1.393 . S
C1964 H1953 0.950 . S
C1964 C1962 1.391 1_565 S
C1964 C1965 1.400 1_565 S
C1965 C1959 1.491 1_545 S
C1965 C1964 1.400 1_545 S
C1965 C1966 1.398 . S
C1966 H1954 0.950 . S
C1966 C1965 1.398 . S
C1966 C1967 1.391 . S
C1967 H1955 0.950 . S
C1967 C1963 1.393 . S
C1967 C1966 1.391 . S
H1968 C1976 0.950 . S
H1969 C1981 0.950 . S
H1970 C1978 0.950 . S
H1971 C1980 0.950 . S
H1972 C1982 0.950 . S
H1973 C1984 0.950 . S
H1974 C1986 0.950 . S
H1975 C1987 0.950 . S
C1976 H1968 0.950 . S
C1976 C1977 1.386 . S
C1976 C1978 1.391 . S
C1977 C1976 1.386 . S
C1977 C1981 1.393 . S
C1978 H1970 0.950 . S
C1978 C1976 1.391 . S
C1978 C1979 1.400 . S
C1979 C1978 1.400 . S
C1979 C1980 1.398 . S
C1979 C1985 1.491 . S
C1980 H1971 0.950 . S
C1980 C1979 1.398 . S
C1980 C1981 1.391 . S
C1981 H1969 0.950 . S
C1981 C1977 1.393 . S
C1981 C1980 1.391 . S
C1982 H1972 0.950 . S
C1982 C1983 1.386 . S
C1982 C1984 1.391 . S
C1983 C1982 1.386 . S
C1983 C1987 1.393 . S
C1984 H1973 0.950 . S
C1984 C1982 1.391 . S
C1984 C1985 1.400 . S
C1985 C1979 1.491 . S
C1985 C1984 1.400 . S
C1985 C1986 1.398 . S
C1986 H1974 0.950 . S
C1986 C1985 1.398 . S
C1986 C1987 1.391 . S
C1987 H1975 0.950 . S
C1987 C1983 1.393 . S
C1987 C1986 1.391 . S
H1988 C1996 0.950 1_545 S
H1989 C2001 0.950 . S
H1990 C1998 0.950 . S
H1991 C2000 0.950 . S
H1992 C2002 0.950 1_565 S
H1993 C2004 0.950 . S
H1994 C2006 0.950 . S
H1995 C2007 0.950 . S
C1996 H1988 0.950 1_565 S
C1996 C1997 1.386 . S
C1996 C1998 1.391 1_565 S
C1997 C1996 1.386 . S
C1997 C2001 1.393 . S
C1998 H1990 0.950 . S
C1998 C1996 1.391 1_545 S
C1998 C1999 1.400 1_545 S
C1999 C1998 1.400 1_565 S
C1999 C2000 1.398 . S
C1999 C2005 1.491 1_565 S
C2000 H1991 0.950 . S
C2000 C1999 1.398 . S
C2000 C2001 1.391 . S
C2001 H1989 0.950 . S
C2001 C1997 1.393 . S
C2001 C2000 1.391 . S
C2002 H1992 0.950 1_545 S
C2002 C2003 1.386 . S
C2002 C2004 1.391 1_545 S
C2003 C2002 1.386 . S
C2003 C2007 1.393 . S
C2004 H1993 0.950 . S
C2004 C2002 1.391 1_565 S
C2004 C2005 1.400 1_565 S
C2005 C1999 1.491 1_545 S
C2005 C2004 1.400 1_545 S
C2005 C2006 1.398 . S
C2006 H1994 0.950 . S
C2006 C2005 1.398 . S
C2006 C2007 1.391 . S
C2007 H1995 0.950 . S
C2007 C2003 1.393 . S
C2007 C2006 1.391 . S
H2008 C2016 0.950 . S
H2009 C2021 0.950 . S
H2010 C2018 0.950 . S
H2011 C2020 0.950 . S
H2012 C2022 0.950 . S
H2013 C2024 0.950 . S
H2014 C2026 0.950 . S
H2015 C2027 0.950 . S
C2016 H2008 0.950 . S
C2016 C2017 1.386 . S
C2016 C2018 1.391 . S
C2017 C2016 1.386 . S
C2017 C2021 1.393 . S
C2018 H2010 0.950 . S
C2018 C2016 1.391 . S
C2018 C2019 1.400 . S
C2019 C2018 1.400 . S
C2019 C2020 1.398 . S
C2019 C2025 1.491 1_556 S
C2020 H2011 0.950 . S
C2020 C2019 1.398 . S
C2020 C2021 1.391 . S
C2021 H2009 0.950 . S
C2021 C2017 1.393 . S
C2021 C2020 1.391 . S
C2022 H2012 0.950 . S
C2022 C2023 1.386 . S
C2022 C2024 1.391 . S
C2023 C2022 1.386 . S
C2023 C2027 1.393 . S
C2024 H2013 0.950 . S
C2024 C2022 1.391 . S
C2024 C2025 1.400 . S
C2025 C2019 1.491 1_554 S
C2025 C2024 1.400 . S
C2025 C2026 1.398 . S
C2026 H2014 0.950 . S
C2026 C2025 1.398 . S
C2026 C2027 1.391 . S
C2027 H2015 0.950 . S
C2027 C2023 1.393 . S
C2027 C2026 1.391 . S
H2028 C2036 0.950 . S
H2029 C2041 0.950 . S
H2030 C2038 0.950 . S
H2031 C2040 0.950 . S
H2032 C2042 0.950 . S
H2033 C2044 0.950 . S
H2034 C2046 0.950 . S
H2035 C2047 0.950 . S
C2036 H2028 0.950 . S
C2036 C2037 1.386 . S
C2036 C2038 1.391 . S
C2037 C2036 1.386 . S
C2037 C2041 1.393 . S
C2038 H2030 0.950 . S
C2038 C2036 1.391 . S
C2038 C2039 1.400 . S
C2039 C2038 1.400 . S
C2039 C2040 1.398 . S
C2039 C2045 1.491 1_545 S
C2040 H2031 0.950 . S
C2040 C2039 1.398 . S
C2040 C2041 1.391 . S
C2041 H2029 0.950 . S
C2041 C2037 1.393 . S
C2041 C2040 1.391 . S
C2042 H2032 0.950 . S
C2042 C2043 1.386 . S
C2042 C2044 1.391 . S
C2043 C2042 1.386 . S
C2043 C2047 1.393 . S
C2044 H2033 0.950 . S
C2044 C2042 1.391 . S
C2044 C2045 1.400 . S
C2045 C2039 1.491 1_565 S
C2045 C2044 1.400 . S
C2045 C2046 1.398 . S
C2046 H2034 0.950 . S
C2046 C2045 1.398 . S
C2046 C2047 1.391 . S
C2047 H2035 0.950 . S
C2047 C2043 1.393 . S
C2047 C2046 1.391 . S
H2048 C2056 0.950 . S
H2049 C2061 0.950 . S
H2050 C2058 0.950 1_554 S
H2051 C2060 0.950 . S
H2052 C2062 0.950 . S
H2053 C2064 0.950 1_556 S
H2054 C2066 0.950 . S
H2055 C2067 0.950 . S
C2056 H2048 0.950 . S
C2056 C2057 1.386 . S
C2056 C2058 1.391 . S
C2057 C2056 1.386 . S
C2057 C2061 1.393 . S
C2058 H2050 0.950 1_556 S
C2058 C2056 1.391 . S
C2058 C2059 1.400 . S
C2059 C2058 1.400 . S
C2059 C2060 1.398 . S
C2059 C2065 1.491 1_556 S
C2060 H2051 0.950 . S
C2060 C2059 1.398 . S
C2060 C2061 1.391 . S
C2061 H2049 0.950 . S
C2061 C2057 1.393 . S
C2061 C2060 1.391 . S
C2062 H2052 0.950 . S
C2062 C2063 1.386 . S
C2062 C2064 1.391 . S
C2063 C2062 1.386 . S
C2063 C2067 1.393 . S
C2064 H2053 0.950 1_554 S
C2064 C2062 1.391 . S
C2064 C2065 1.400 . S
C2065 C2059 1.491 1_554 S
C2065 C2064 1.400 . S
C2065 C2066 1.398 . S
C2066 H2054 0.950 . S
C2066 C2065 1.398 . S
C2066 C2067 1.391 . S
C2067 H2055 0.950 . S
C2067 C2063 1.393 . S
C2067 C2066 1.391 . S
H2068 C2076 0.950 . S
H2069 C2081 0.950 . S
H2070 C2078 0.950 . S
H2071 C2080 0.950 . S
H2072 C2082 0.950 . S
H2073 C2084 0.950 . S
H2074 C2086 0.950 . S
H2075 C2087 0.950 . S
C2076 H2068 0.950 . S
C2076 C2077 1.386 . S
C2076 C2078 1.391 . S
C2077 C2076 1.386 . S
C2077 C2081 1.393 . S
C2078 H2070 0.950 . S
C2078 C2076 1.391 . S
C2078 C2079 1.400 . S
C2079 C2078 1.400 . S
C2079 C2080 1.398 . S
C2079 C2085 1.491 . S
C2080 H2071 0.950 . S
C2080 C2079 1.398 . S
C2080 C2081 1.391 . S
C2081 H2069 0.950 . S
C2081 C2077 1.393 . S
C2081 C2080 1.391 . S
C2082 H2072 0.950 . S
C2082 C2083 1.386 . S
C2082 C2084 1.391 . S
C2083 C2082 1.386 . S
C2083 C2087 1.393 . S
C2084 H2073 0.950 . S
C2084 C2082 1.391 . S
C2084 C2085 1.400 . S
C2085 C2079 1.491 . S
C2085 C2084 1.400 . S
C2085 C2086 1.398 . S
C2086 H2074 0.950 . S
C2086 C2085 1.398 . S
C2086 C2087 1.391 . S
C2087 H2075 0.950 . S
C2087 C2083 1.393 . S
C2087 C2086 1.391 . S
H2088 C2096 0.950 . S
H2089 C2101 0.950 . S
H2090 C2098 0.950 . S
H2091 C2100 0.950 . S
H2092 C2102 0.950 . S
H2093 C2104 0.950 . S
H2094 C2106 0.950 . S
H2095 C2107 0.950 . S
C2096 H2088 0.950 . S
C2096 C2097 1.386 . S
C2096 C2098 1.391 . S
C2097 C2096 1.386 . S
C2097 C2101 1.393 . S
C2098 H2090 0.950 . S
C2098 C2096 1.391 . S
C2098 C2099 1.400 . S
C2099 C2098 1.400 . S
C2099 C2100 1.398 . S
C2099 C2105 1.491 . S
C2100 H2091 0.950 . S
C2100 C2099 1.398 . S
C2100 C2101 1.391 . S
C2101 H2089 0.950 . S
C2101 C2097 1.393 . S
C2101 C2100 1.391 . S
C2102 H2092 0.950 . S
C2102 C2103 1.386 . S
C2102 C2104 1.391 . S
C2103 C2102 1.386 . S
C2103 C2107 1.393 . S
C2104 H2093 0.950 . S
C2104 C2102 1.391 . S
C2104 C2105 1.400 . S
C2105 C2099 1.491 . S
C2105 C2104 1.400 . S
C2105 C2106 1.398 . S
C2106 H2094 0.950 . S
C2106 C2105 1.398 . S
C2106 C2107 1.391 . S
C2107 H2095 0.950 . S
C2107 C2103 1.393 . S
C2107 C2106 1.391 . S
H2108 C2116 0.950 . S
H2109 C2121 0.950 . S
H2110 C2118 0.950 . S
H2111 C2120 0.950 . S
H2112 C2122 0.950 . S
H2113 C2124 0.950 . S
H2114 C2126 0.950 . S
H2115 C2127 0.950 . S
C2116 H2108 0.950 . S
C2116 C2117 1.386 . S
C2116 C2118 1.391 . S
C2117 C2116 1.386 . S
C2117 C2121 1.393 . S
C2118 H2110 0.950 . S
C2118 C2116 1.391 . S
C2118 C2119 1.400 . S
C2119 C2118 1.400 . S
C2119 C2120 1.398 . S
C2119 C2125 1.491 . S
C2120 H2111 0.950 . S
C2120 C2119 1.398 . S
C2120 C2121 1.391 . S
C2121 H2109 0.950 . S
C2121 C2117 1.393 . S
C2121 C2120 1.391 . S
C2122 H2112 0.950 . S
C2122 C2123 1.386 . S
C2122 C2124 1.391 . S
C2123 C2122 1.386 . S
C2123 C2127 1.393 . S
C2124 H2113 0.950 . S
C2124 C2122 1.391 . S
C2124 C2125 1.400 . S
C2125 C2119 1.491 . S
C2125 C2124 1.400 . S
C2125 C2126 1.398 . S
C2126 H2114 0.950 . S
C2126 C2125 1.398 . S
C2126 C2127 1.391 . S
C2127 H2115 0.950 . S
C2127 C2123 1.393 . S
C2127 C2126 1.391 . S
H2128 C2136 0.950 . S
H2129 C2141 0.950 . S
H2130 C2138 0.950 1_554 S
H2131 C2140 0.950 . S
H2132 C2142 0.950 . S
H2133 C2144 0.950 1_556 S
H2134 C2146 0.950 . S
H2135 C2147 0.950 . S
C2136 H2128 0.950 . S
C2136 C2137 1.386 . S
C2136 C2138 1.391 . S
C2137 C2136 1.386 . S
C2137 C2141 1.393 . S
C2138 H2130 0.950 1_556 S
C2138 C2136 1.391 . S
C2138 C2139 1.400 . S
C2139 C2138 1.400 . S
C2139 C2140 1.398 . S
C2139 C2145 1.491 1_556 S
C2140 H2131 0.950 . S
C2140 C2139 1.398 . S
C2140 C2141 1.391 . S
C2141 H2129 0.950 . S
C2141 C2137 1.393 . S
C2141 C2140 1.391 . S
C2142 H2132 0.950 . S
C2142 C2143 1.386 . S
C2142 C2144 1.391 . S
C2143 C2142 1.386 . S
C2143 C2147 1.393 . S
C2144 H2133 0.950 1_554 S
C2144 C2142 1.391 . S
C2144 C2145 1.400 . S
C2145 C2139 1.491 1_554 S
C2145 C2144 1.400 . S
C2145 C2146 1.398 . S
C2146 H2134 0.950 . S
C2146 C2145 1.398 . S
C2146 C2147 1.391 . S
C2147 H2135 0.950 . S
C2147 C2143 1.393 . S
C2147 C2146 1.391 . S
H2148 C2156 0.950 . S
H2149 C2161 0.950 . S
H2150 C2158 0.950 . S
H2151 C2160 0.950 . S
H2152 C2162 0.950 . S
H2153 C2164 0.950 . S
H2154 C2166 0.950 . S
H2155 C2167 0.950 . S
C2156 H2148 0.950 . S
C2156 C2157 1.386 . S
C2156 C2158 1.391 . S
C2157 C2156 1.386 . S
C2157 C2161 1.393 . S
C2158 H2150 0.950 . S
C2158 C2156 1.391 . S
C2158 C2159 1.400 . S
C2159 C2158 1.400 . S
C2159 C2160 1.398 . S
C2159 C2165 1.491 . S
C2160 H2151 0.950 . S
C2160 C2159 1.398 . S
C2160 C2161 1.391 . S
C2161 H2149 0.950 . S
C2161 C2157 1.393 . S
C2161 C2160 1.391 . S
C2162 H2152 0.950 . S
C2162 C2163 1.386 . S
C2162 C2164 1.391 . S
C2163 C2162 1.386 . S
C2163 C2167 1.393 . S
C2164 H2153 0.950 . S
C2164 C2162 1.391 . S
C2164 C2165 1.400 . S
C2165 C2159 1.491 . S
C2165 C2164 1.400 . S
C2165 C2166 1.398 . S
C2166 H2154 0.950 . S
C2166 C2165 1.398 . S
C2166 C2167 1.391 . S
C2167 H2155 0.950 . S
C2167 C2163 1.393 . S
C2167 C2166 1.391 . S
H2168 C2176 0.950 . S
H2169 C2181 0.950 . S
H2170 C2178 0.950 . S
H2171 C2180 0.950 . S
H2172 C2182 0.950 . S
H2173 C2184 0.950 . S
H2174 C2186 0.950 . S
H2175 C2187 0.950 . S
C2176 H2168 0.950 . S
C2176 C2177 1.386 . S
C2176 C2178 1.391 . S
C2177 C2176 1.386 . S
C2177 C2181 1.393 . S
C2178 H2170 0.950 . S
C2178 C2176 1.391 . S
C2178 C2179 1.400 . S
C2179 C2178 1.400 . S
C2179 C2180 1.398 . S
C2179 C2185 1.491 . S
C2180 H2171 0.950 . S
C2180 C2179 1.398 . S
C2180 C2181 1.391 . S
C2181 H2169 0.950 . S
C2181 C2177 1.393 . S
C2181 C2180 1.391 . S
C2182 H2172 0.950 . S
C2182 C2183 1.386 . S
C2182 C2184 1.391 . S
C2183 C2182 1.386 . S
C2183 C2187 1.393 . S
C2184 H2173 0.950 . S
C2184 C2182 1.391 . S
C2184 C2185 1.400 . S
C2185 C2179 1.491 . S
C2185 C2184 1.400 . S
C2185 C2186 1.398 . S
C2186 H2174 0.950 . S
C2186 C2185 1.398 . S
C2186 C2187 1.391 . S
C2187 H2175 0.950 . S
C2187 C2183 1.393 . S
C2187 C2186 1.391 . S
H2188 C2196 0.950 . S
H2189 C2201 0.950 . S
H2190 C2198 0.950 . S
H2191 C2200 0.950 . S
H2192 C2202 0.950 . S
H2193 C2204 0.950 . S
H2194 C2206 0.950 . S
H2195 C2207 0.950 . S
C2196 H2188 0.950 . S
C2196 C2197 1.386 . S
C2196 C2198 1.391 . S
C2197 C2196 1.386 . S
C2197 C2201 1.393 . S
C2198 H2190 0.950 . S
C2198 C2196 1.391 . S
C2198 C2199 1.400 . S
C2199 C2198 1.400 . S
C2199 C2200 1.398 . S
C2199 C2205 1.491 . S
C2200 H2191 0.950 . S
C2200 C2199 1.398 . S
C2200 C2201 1.391 . S
C2201 H2189 0.950 . S
C2201 C2197 1.393 . S
C2201 C2200 1.391 . S
C2202 H2192 0.950 . S
C2202 C2203 1.386 . S
C2202 C2204 1.391 . S
C2203 C2202 1.386 . S
C2203 C2207 1.393 . S
C2204 H2193 0.950 . S
C2204 C2202 1.391 . S
C2204 C2205 1.400 . S
C2205 C2199 1.491 . S
C2205 C2204 1.400 . S
C2205 C2206 1.398 . S
C2206 H2194 0.950 . S
C2206 C2205 1.398 . S
C2206 C2207 1.391 . S
C2207 H2195 0.950 . S
C2207 C2203 1.393 . S
C2207 C2206 1.391 . S
H2208 C2216 0.950 . S
H2209 C2221 0.950 . S
H2210 C2218 0.950 . S
H2211 C2220 0.950 . S
H2212 C2222 0.950 . S
H2213 C2224 0.950 . S
H2214 C2226 0.950 . S
H2215 C2227 0.950 . S
C2216 H2208 0.950 . S
C2216 C2217 1.386 . S
C2216 C2218 1.391 . S
C2217 C2216 1.386 . S
C2217 C2221 1.393 . S
C2218 H2210 0.950 . S
C2218 C2216 1.391 . S
C2218 C2219 1.400 . S
C2219 C2218 1.400 . S
C2219 C2220 1.398 . S
C2219 C2225 1.491 . S
C2220 H2211 0.950 . S
C2220 C2219 1.398 . S
C2220 C2221 1.391 . S
C2221 H2209 0.950 . S
C2221 C2217 1.393 . S
C2221 C2220 1.391 . S
C2222 H2212 0.950 . S
C2222 C2223 1.386 . S
C2222 C2224 1.391 . S
C2223 C2222 1.386 . S
C2223 C2227 1.393 . S
C2224 H2213 0.950 . S
C2224 C2222 1.391 . S
C2224 C2225 1.400 . S
C2225 C2219 1.491 . S
C2225 C2224 1.400 . S
C2225 C2226 1.398 . S
C2226 H2214 0.950 . S
C2226 C2225 1.398 . S
C2226 C2227 1.391 . S
C2227 H2215 0.950 . S
C2227 C2223 1.393 . S
C2227 C2226 1.391 . S
H2228 C2236 0.950 . S
H2229 C2241 0.950 . S
H2230 C2238 0.950 . S
H2231 C2240 0.950 . S
H2232 C2242 0.950 . S
H2233 C2244 0.950 . S
H2234 C2246 0.950 . S
H2235 C2247 0.950 . S
C2236 H2228 0.950 . S
C2236 C2237 1.386 . S
C2236 C2238 1.391 . S
C2237 C2236 1.386 . S
C2237 C2241 1.393 . S
C2238 H2230 0.950 . S
C2238 C2236 1.391 . S
C2238 C2239 1.400 . S
C2239 C2238 1.400 . S
C2239 C2240 1.398 . S
C2239 C2245 1.491 . S
C2240 H2231 0.950 . S
C2240 C2239 1.398 . S
C2240 C2241 1.391 . S
C2241 H2229 0.950 . S
C2241 C2237 1.393 . S
C2241 C2240 1.391 . S
C2242 H2232 0.950 . S
C2242 C2243 1.386 . S
C2242 C2244 1.391 . S
C2243 C2242 1.386 . S
C2243 C2247 1.393 . S
C2244 H2233 0.950 . S
C2244 C2242 1.391 . S
C2244 C2245 1.400 . S
C2245 C2239 1.491 . S
C2245 C2244 1.400 . S
C2245 C2246 1.398 . S
C2246 H2234 0.950 . S
C2246 C2245 1.398 . S
C2246 C2247 1.391 . S
C2247 H2235 0.950 . S
C2247 C2243 1.393 . S
C2247 C2246 1.391 . S
H2248 C2256 0.950 . S
H2249 C2261 0.950 . S
H2250 C2258 0.950 . S
H2251 C2260 0.950 . S
H2252 C2262 0.950 . S
H2253 C2264 0.950 . S
H2254 C2266 0.950 . S
H2255 C2267 0.950 . S
C2256 H2248 0.950 . S
C2256 C2257 1.386 . S
C2256 C2258 1.391 . S
C2257 C2256 1.386 . S
C2257 C2261 1.393 . S
C2258 H2250 0.950 . S
C2258 C2256 1.391 . S
C2258 C2259 1.400 . S
C2259 C2258 1.400 . S
C2259 C2260 1.398 . S
C2259 C2265 1.491 . S
C2260 H2251 0.950 . S
C2260 C2259 1.398 . S
C2260 C2261 1.391 . S
C2261 H2249 0.950 . S
C2261 C2257 1.393 . S
C2261 C2260 1.391 . S
C2262 H2252 0.950 . S
C2262 C2263 1.386 . S
C2262 C2264 1.391 . S
C2263 C2262 1.386 . S
C2263 C2267 1.393 . S
C2264 H2253 0.950 . S
C2264 C2262 1.391 . S
C2264 C2265 1.400 . S
C2265 C2259 1.491 . S
C2265 C2264 1.400 . S
C2265 C2266 1.398 . S
C2266 H2254 0.950 . S
C2266 C2265 1.398 . S
C2266 C2267 1.391 . S
C2267 H2255 0.950 . S
C2267 C2263 1.393 . S
C2267 C2266 1.391 . S
H2268 C2276 0.950 . S
H2269 C2281 0.950 . S
H2270 C2278 0.950 . S
H2271 C2280 0.950 . S
H2272 C2282 0.950 . S
H2273 C2284 0.950 . S
H2274 C2286 0.950 . S
H2275 C2287 0.950 . S
C2276 H2268 0.950 . S
C2276 C2277 1.386 . S
C2276 C2278 1.391 . S
C2277 C2276 1.386 . S
C2277 C2281 1.393 . S
C2278 H2270 0.950 . S
C2278 C2276 1.391 . S
C2278 C2279 1.400 . S
C2279 C2278 1.400 . S
C2279 C2280 1.398 . S
C2279 C2285 1.491 . S
C2280 H2271 0.950 . S
C2280 C2279 1.398 . S
C2280 C2281 1.391 . S
C2281 H2269 0.950 . S
C2281 C2277 1.393 . S
C2281 C2280 1.391 . S
C2282 H2272 0.950 . S
C2282 C2283 1.386 . S
C2282 C2284 1.391 . S
C2283 C2282 1.386 . S
C2283 C2287 1.393 . S
C2284 H2273 0.950 . S
C2284 C2282 1.391 . S
C2284 C2285 1.400 . S
C2285 C2279 1.491 . S
C2285 C2284 1.400 . S
C2285 C2286 1.398 . S
C2286 H2274 0.950 . S
C2286 C2285 1.398 . S
C2286 C2287 1.391 . S
C2287 H2275 0.950 . S
C2287 C2283 1.393 . S
C2287 C2286 1.391 . S
H2288 C2296 0.950 1_554 S
H2289 C2301 0.950 . S
H2290 C2298 0.950 . S
H2291 C2300 0.950 . S
H2292 C2302 0.950 . S
H2293 C2304 0.950 . S
H2294 C2306 0.950 . S
H2295 C2307 0.950 . S
C2296 H2288 0.950 1_556 S
C2296 C2297 1.386 . S
C2296 C2298 1.391 . S
C2297 C2296 1.386 . S
C2297 C2301 1.393 . S
C2298 H2290 0.950 . S
C2298 C2296 1.391 . S
C2298 C2299 1.400 . S
C2299 C2298 1.400 . S
C2299 C2300 1.398 . S
C2299 C2305 1.491 . S
C2300 H2291 0.950 . S
C2300 C2299 1.398 . S
C2300 C2301 1.391 . S
C2301 H2289 0.950 . S
C2301 C2297 1.393 . S
C2301 C2300 1.391 . S
C2302 H2292 0.950 . S
C2302 C2303 1.386 . S
C2302 C2304 1.391 . S
C2303 C2302 1.386 . S
C2303 C2307 1.393 . S
C2304 H2293 0.950 . S
C2304 C2302 1.391 . S
C2304 C2305 1.400 . S
C2305 C2299 1.491 . S
C2305 C2304 1.400 . S
C2305 C2306 1.398 . S
C2306 H2294 0.950 . S
C2306 C2305 1.398 . S
C2306 C2307 1.391 . S
C2307 H2295 0.950 . S
C2307 C2303 1.393 . S
C2307 C2306 1.391 . S
H2308 C2316 0.950 . S
H2309 C2321 0.950 . S
H2310 C2318 0.950 . S
H2311 C2320 0.950 . S
H2312 C2322 0.950 . S
H2313 C2324 0.950 . S
H2314 C2326 0.950 . S
H2315 C2327 0.950 . S
C2316 H2308 0.950 . S
C2316 C2317 1.386 . S
C2316 C2318 1.391 . S
C2317 C2316 1.386 . S
C2317 C2321 1.393 . S
C2318 H2310 0.950 . S
C2318 C2316 1.391 . S
C2318 C2319 1.400 . S
C2319 C2318 1.400 . S
C2319 C2320 1.398 . S
C2319 C2325 1.491 . S
C2320 H2311 0.950 . S
C2320 C2319 1.398 . S
C2320 C2321 1.391 . S
C2321 H2309 0.950 . S
C2321 C2317 1.393 . S
C2321 C2320 1.391 . S
C2322 H2312 0.950 . S
C2322 C2323 1.386 . S
C2322 C2324 1.391 . S
C2323 C2322 1.386 . S
C2323 C2327 1.393 . S
C2324 H2313 0.950 . S
C2324 C2322 1.391 . S
C2324 C2325 1.400 . S
C2325 C2319 1.491 . S
C2325 C2324 1.400 . S
C2325 C2326 1.398 . S
C2326 H2314 0.950 . S
C2326 C2325 1.398 . S
C2326 C2327 1.391 . S
C2327 H2315 0.950 . S
C2327 C2323 1.393 . S
C2327 C2326 1.391 . S
H2328 C2336 0.950 . S
H2329 C2341 0.950 . S
H2330 C2338 0.950 . S
H2331 C2340 0.950 . S
H2332 C2342 0.950 . S
H2333 C2344 0.950 . S
H2334 C2346 0.950 . S
H2335 C2347 0.950 . S
C2336 H2328 0.950 . S
C2336 C2337 1.386 . S
C2336 C2338 1.391 . S
C2337 C2336 1.386 . S
C2337 C2341 1.393 . S
C2338 H2330 0.950 . S
C2338 C2336 1.391 . S
C2338 C2339 1.400 . S
C2339 C2338 1.400 . S
C2339 C2340 1.398 . S
C2339 C2345 1.491 . S
C2340 H2331 0.950 . S
C2340 C2339 1.398 . S
C2340 C2341 1.391 . S
C2341 H2329 0.950 . S
C2341 C2337 1.393 . S
C2341 C2340 1.391 . S
C2342 H2332 0.950 . S
C2342 C2343 1.386 . S
C2342 C2344 1.391 . S
C2343 C2342 1.386 . S
C2343 C2347 1.393 . S
C2344 H2333 0.950 . S
C2344 C2342 1.391 . S
C2344 C2345 1.400 . S
C2345 C2339 1.491 . S
C2345 C2344 1.400 . S
C2345 C2346 1.398 . S
C2346 H2334 0.950 . S
C2346 C2345 1.398 . S
C2346 C2347 1.391 . S
C2347 H2335 0.950 . S
C2347 C2343 1.393 . S
C2347 C2346 1.391 . S
H2348 C2356 0.950 . S
H2349 C2361 0.950 . S
H2350 C2358 0.950 . S
H2351 C2360 0.950 . S
H2352 C2362 0.950 . S
H2353 C2364 0.950 . S
H2354 C2366 0.950 . S
H2355 C2367 0.950 . S
C2356 H2348 0.950 . S
C2356 C2357 1.386 . S
C2356 C2358 1.391 . S
C2357 C2356 1.386 . S
C2357 C2361 1.393 . S
C2358 H2350 0.950 . S
C2358 C2356 1.391 . S
C2358 C2359 1.400 . S
C2359 C2358 1.400 . S
C2359 C2360 1.398 . S
C2359 C2365 1.491 . S
C2360 H2351 0.950 . S
C2360 C2359 1.398 . S
C2360 C2361 1.391 . S
C2361 H2349 0.950 . S
C2361 C2357 1.393 . S
C2361 C2360 1.391 . S
C2362 H2352 0.950 . S
C2362 C2363 1.386 . S
C2362 C2364 1.391 . S
C2363 C2362 1.386 . S
C2363 C2367 1.393 . S
C2364 H2353 0.950 . S
C2364 C2362 1.391 . S
C2364 C2365 1.400 . S
C2365 C2359 1.491 . S
C2365 C2364 1.400 . S
C2365 C2366 1.398 . S
C2366 H2354 0.950 . S
C2366 C2365 1.398 . S
C2366 C2367 1.391 . S
C2367 H2355 0.950 . S
C2367 C2363 1.393 . S
C2367 C2366 1.391 . S
H2368 C2376 0.950 . S
H2369 C2381 0.950 . S
H2370 C2378 0.950 . S
H2371 C2380 0.950 . S
H2372 C2382 0.950 . S
H2373 C2384 0.950 . S
H2374 C2386 0.950 . S
H2375 C2387 0.950 . S
C2376 H2368 0.950 . S
C2376 C2377 1.386 . S
C2376 C2378 1.391 . S
C2377 C2376 1.386 . S
C2377 C2381 1.393 . S
C2378 H2370 0.950 . S
C2378 C2376 1.391 . S
C2378 C2379 1.400 . S
C2379 C2378 1.400 . S
C2379 C2380 1.398 . S
C2379 C2385 1.491 . S
C2380 H2371 0.950 . S
C2380 C2379 1.398 . S
C2380 C2381 1.391 . S
C2381 H2369 0.950 . S
C2381 C2377 1.393 . S
C2381 C2380 1.391 . S
C2382 H2372 0.950 . S
C2382 C2383 1.386 . S
C2382 C2384 1.391 . S
C2383 C2382 1.386 . S
C2383 C2387 1.393 . S
C2384 H2373 0.950 . S
C2384 C2382 1.391 . S
C2384 C2385 1.400 . S
C2385 C2379 1.491 . S
C2385 C2384 1.400 . S
C2385 C2386 1.398 . S
C2386 H2374 0.950 . S
C2386 C2385 1.398 . S
C2386 C2387 1.391 . S
C2387 H2375 0.950 . S
C2387 C2383 1.393 . S
C2387 C2386 1.391 . S
H2388 C2396 0.950 . S
H2389 C2401 0.950 . S
H2390 C2398 0.950 . S
H2391 C2400 0.950 . S
H2392 C2402 0.950 . S
H2393 C2404 0.950 . S
H2394 C2406 0.950 . S
H2395 C2407 0.950 . S
C2396 H2388 0.950 . S
C2396 C2397 1.386 . S
C2396 C2398 1.391 . S
C2397 C2396 1.386 . S
C2397 C2401 1.393 . S
C2398 H2390 0.950 . S
C2398 C2396 1.391 . S
C2398 C2399 1.400 . S
C2399 C2398 1.400 . S
C2399 C2400 1.398 . S
C2399 C2405 1.491 . S
C2400 H2391 0.950 . S
C2400 C2399 1.398 . S
C2400 C2401 1.391 . S
C2401 H2389 0.950 . S
C2401 C2397 1.393 . S
C2401 C2400 1.391 . S
C2402 H2392 0.950 . S
C2402 C2403 1.386 . S
C2402 C2404 1.391 . S
C2403 C2402 1.386 . S
C2403 C2407 1.393 . S
C2404 H2393 0.950 . S
C2404 C2402 1.391 . S
C2404 C2405 1.400 . S
C2405 C2399 1.491 . S
C2405 C2404 1.400 . S
C2405 C2406 1.398 . S
C2406 H2394 0.950 . S
C2406 C2405 1.398 . S
C2406 C2407 1.391 . S
C2407 H2395 0.950 . S
C2407 C2403 1.393 . S
C2407 C2406 1.391 . S
H2408 C2416 0.950 . S
H2409 C2421 0.950 . S
H2410 C2418 0.950 . S
H2411 C2420 0.950 . S
H2412 C2422 0.950 . S
H2413 C2424 0.950 . S
H2414 C2426 0.950 . S
H2415 C2427 0.950 . S
C2416 H2408 0.950 . S
C2416 C2417 1.386 . S
C2416 C2418 1.391 . S
C2417 C2416 1.386 . S
C2417 C2421 1.393 . S
C2418 H2410 0.950 . S
C2418 C2416 1.391 . S
C2418 C2419 1.400 . S
C2419 C2418 1.400 . S
C2419 C2420 1.398 . S
C2419 C2425 1.491 . S
C2420 H2411 0.950 . S
C2420 C2419 1.398 . S
C2420 C2421 1.391 . S
C2421 H2409 0.950 . S
C2421 C2417 1.393 . S
C2421 C2420 1.391 . S
C2422 H2412 0.950 . S
C2422 C2423 1.386 . S
C2422 C2424 1.391 . S
C2423 C2422 1.386 . S
C2423 C2427 1.393 . S
C2424 H2413 0.950 . S
C2424 C2422 1.391 . S
C2424 C2425 1.400 . S
C2425 C2419 1.491 . S
C2425 C2424 1.400 . S
C2425 C2426 1.398 . S
C2426 H2414 0.950 . S
C2426 C2425 1.398 . S
C2426 C2427 1.391 . S
C2427 H2415 0.950 . S
C2427 C2423 1.393 . S
C2427 C2426 1.391 . S
H2428 C2436 0.950 . S
H2429 C2441 0.950 . S
H2430 C2438 0.950 . S
H2431 C2440 0.950 . S
H2432 C2442 0.950 . S
H2433 C2444 0.950 . S
H2434 C2446 0.950 . S
H2435 C2447 0.950 . S
C2436 H2428 0.950 . S
C2436 C2437 1.386 . S
C2436 C2438 1.391 . S
C2437 C2436 1.386 . S
C2437 C2441 1.393 . S
C2438 H2430 0.950 . S
C2438 C2436 1.391 . S
C2438 C2439 1.400 . S
C2439 C2438 1.400 . S
C2439 C2440 1.398 . S
C2439 C2445 1.491 . S
C2440 H2431 0.950 . S
C2440 C2439 1.398 . S
C2440 C2441 1.391 . S
C2441 H2429 0.950 . S
C2441 C2437 1.393 . S
C2441 C2440 1.391 . S
C2442 H2432 0.950 . S
C2442 C2443 1.386 . S
C2442 C2444 1.391 . S
C2443 C2442 1.386 . S
C2443 C2447 1.393 . S
C2444 H2433 0.950 . S
C2444 C2442 1.391 . S
C2444 C2445 1.400 . S
C2445 C2439 1.491 . S
C2445 C2444 1.400 . S
C2445 C2446 1.398 . S
C2446 H2434 0.950 . S
C2446 C2445 1.398 . S
C2446 C2447 1.391 . S
C2447 H2435 0.950 . S
C2447 C2443 1.393 . S
C2447 C2446 1.391 . S
H2448 C2456 0.950 . S
H2449 C2461 0.950 . S
H2450 C2458 0.950 . S
H2451 C2460 0.950 . S
H2452 C2462 0.950 . S
H2453 C2464 0.950 . S
H2454 C2466 0.950 . S
H2455 C2467 0.950 . S
C2456 H2448 0.950 . S
C2456 C2457 1.386 . S
C2456 C2458 1.391 . S
C2457 C2456 1.386 . S
C2457 C2461 1.393 . S
C2458 H2450 0.950 . S
C2458 C2456 1.391 . S
C2458 C2459 1.400 . S
C2459 C2458 1.400 . S
C2459 C2460 1.398 . S
C2459 C2465 1.491 . S
C2460 H2451 0.950 . S
C2460 C2459 1.398 . S
C2460 C2461 1.391 . S
C2461 H2449 0.950 . S
C2461 C2457 1.393 . S
C2461 C2460 1.391 . S
C2462 H2452 0.950 . S
C2462 C2463 1.386 . S
C2462 C2464 1.391 . S
C2463 C2462 1.386 . S
C2463 C2467 1.393 . S
C2464 H2453 0.950 . S
C2464 C2462 1.391 . S
C2464 C2465 1.400 . S
C2465 C2459 1.491 . S
C2465 C2464 1.400 . S
C2465 C2466 1.398 . S
C2466 H2454 0.950 . S
C2466 C2465 1.398 . S
C2466 C2467 1.391 . S
C2467 H2455 0.950 . S
C2467 C2463 1.393 . S
C2467 C2466 1.391 . S
H2468 C2476 0.950 . S
H2469 C2481 0.950 . S
H2470 C2478 0.950 . S
H2471 C2480 0.950 . S
H2472 C2482 0.950 . S
H2473 C2484 0.950 . S
H2474 C2486 0.950 . S
H2475 C2487 0.950 . S
C2476 H2468 0.950 . S
C2476 C2477 1.386 . S
C2476 C2478 1.391 . S
C2477 C2476 1.386 . S
C2477 C2481 1.393 . S
C2478 H2470 0.950 . S
C2478 C2476 1.391 . S
C2478 C2479 1.400 . S
C2479 C2478 1.400 . S
C2479 C2480 1.398 . S
C2479 C2485 1.491 . S
C2480 H2471 0.950 . S
C2480 C2479 1.398 . S
C2480 C2481 1.391 . S
C2481 H2469 0.950 . S
C2481 C2477 1.393 . S
C2481 C2480 1.391 . S
C2482 H2472 0.950 . S
C2482 C2483 1.386 . S
C2482 C2484 1.391 . S
C2483 C2482 1.386 . S
C2483 C2487 1.393 . S
C2484 H2473 0.950 . S
C2484 C2482 1.391 . S
C2484 C2485 1.400 . S
C2485 C2479 1.491 . S
C2485 C2484 1.400 . S
C2485 C2486 1.398 . S
C2486 H2474 0.950 . S
C2486 C2485 1.398 . S
C2486 C2487 1.391 . S
C2487 H2475 0.950 . S
C2487 C2483 1.393 . S
C2487 C2486 1.391 . S
H2488 C2496 0.950 . S
H2489 C2501 0.950 . S
H2490 C2498 0.950 . S
H2491 C2500 0.950 . S
H2492 C2502 0.950 . S
H2493 C2504 0.950 . S
H2494 C2506 0.950 . S
H2495 C2507 0.950 . S
C2496 H2488 0.950 . S
C2496 C2497 1.386 . S
C2496 C2498 1.391 . S
C2497 C2496 1.386 . S
C2497 C2501 1.393 . S
C2498 H2490 0.950 . S
C2498 C2496 1.391 . S
C2498 C2499 1.400 . S
C2499 C2498 1.400 . S
C2499 C2500 1.398 . S
C2499 C2505 1.491 . S
C2500 H2491 0.950 . S
C2500 C2499 1.398 . S
C2500 C2501 1.391 . S
C2501 H2489 0.950 . S
C2501 C2497 1.393 . S
C2501 C2500 1.391 . S
C2502 H2492 0.950 . S
C2502 C2503 1.386 . S
C2502 C2504 1.391 . S
C2503 C2502 1.386 . S
C2503 C2507 1.393 . S
C2504 H2493 0.950 . S
C2504 C2502 1.391 . S
C2504 C2505 1.400 . S
C2505 C2499 1.491 . S
C2505 C2504 1.400 . S
C2505 C2506 1.398 . S
C2506 H2494 0.950 . S
C2506 C2505 1.398 . S
C2506 C2507 1.391 . S
C2507 H2495 0.950 . S
C2507 C2503 1.393 . S
C2507 C2506 1.391 . S
H2508 C2516 0.950 . S
H2509 C2521 0.950 . S
H2510 C2518 0.950 . S
H2511 C2520 0.950 . S
H2512 C2522 0.950 . S
H2513 C2524 0.950 . S
H2514 C2526 0.950 . S
H2515 C2527 0.950 . S
C2516 H2508 0.950 . S
C2516 C2517 1.386 . S
C2516 C2518 1.391 . S
C2517 C2516 1.386 . S
C2517 C2521 1.393 . S
C2518 H2510 0.950 . S
C2518 C2516 1.391 . S
C2518 C2519 1.400 . S
C2519 C2518 1.400 . S
C2519 C2520 1.398 . S
C2519 C2525 1.491 . S
C2520 H2511 0.950 . S
C2520 C2519 1.398 . S
C2520 C2521 1.391 . S
C2521 H2509 0.950 . S
C2521 C2517 1.393 . S
C2521 C2520 1.391 . S
C2522 H2512 0.950 . S
C2522 C2523 1.386 . S
C2522 C2524 1.391 . S
C2523 C2522 1.386 . S
C2523 C2527 1.393 . S
C2524 H2513 0.950 . S
C2524 C2522 1.391 . S
C2524 C2525 1.400 . S
C2525 C2519 1.491 . S
C2525 C2524 1.400 . S
C2525 C2526 1.398 . S
C2526 H2514 0.950 . S
C2526 C2525 1.398 . S
C2526 C2527 1.391 . S
C2527 H2515 0.950 . S
C2527 C2523 1.393 . S
C2527 C2526 1.391 . S
H2528 C2536 0.950 . S
H2529 C2541 0.950 . S
H2530 C2538 0.950 . S
H2531 C2540 0.950 . S
H2532 C2542 0.950 . S
H2533 C2544 0.950 1_554 S
H2534 C2546 0.950 . S
H2535 C2547 0.950 . S
C2536 H2528 0.950 . S
C2536 C2537 1.386 . S
C2536 C2538 1.391 1_554 S
C2537 C2536 1.386 . S
C2537 C2541 1.393 . S
C2538 H2530 0.950 . S
C2538 C2536 1.391 1_556 S
C2538 C2539 1.400 . S
C2539 C2538 1.400 . S
C2539 C2540 1.398 1_556 S
C2539 C2545 1.491 . S
C2540 H2531 0.950 . S
C2540 C2539 1.398 1_554 S
C2540 C2541 1.391 . S
C2541 H2529 0.950 . S
C2541 C2537 1.393 . S
C2541 C2540 1.391 . S
C2542 H2532 0.950 . S
C2542 C2543 1.386 . S
C2542 C2544 1.391 . S
C2543 C2542 1.386 . S
C2543 C2547 1.393 . S
C2544 H2533 0.950 1_556 S
C2544 C2542 1.391 . S
C2544 C2545 1.400 . S
C2545 C2539 1.491 . S
C2545 C2544 1.400 . S
C2545 C2546 1.398 . S
C2546 H2534 0.950 . S
C2546 C2545 1.398 . S
C2546 C2547 1.391 . S
C2547 H2535 0.950 . S
C2547 C2543 1.393 . S
C2547 C2546 1.391 . S
H2548 C2556 0.950 . S
H2549 C2561 0.950 . S
H2550 C2558 0.950 . S
H2551 C2560 0.950 1_455 S
H2552 C2562 0.950 . S
H2553 C2564 0.950 . S
H2554 C2566 0.961 . S
H2555 C2567 0.950 1_565 S
C2556 H2548 0.950 . S
C2556 C2557 1.370 1_565 S
C2556 C2558 1.391 . S
C2557 C2556 1.370 1_545 S
C2557 C2561 1.412 . S
C2558 H2550 0.950 . S
C2558 C2556 1.391 . S
C2558 C2559 1.400 1_565 S
C2559 C2558 1.400 1_545 S
C2559 C2560 1.398 . S
C2559 C2565 1.491 1_655 S
C2560 H2551 0.950 1_655 S
C2560 C2559 1.398 . S
C2560 C2561 1.391 . S
C2561 H2549 0.950 . S
C2561 C2557 1.412 . S
C2561 C2560 1.391 . S
C2562 H2552 0.950 . S
C2562 C2563 1.386 . S
C2562 C2564 1.391 . S
C2563 C2562 1.386 . S
C2563 C2567 1.393 . S
C2564 H2553 0.950 . S
C2564 C2562 1.391 . S
C2564 C2565 1.400 . S
C2565 C2559 1.491 1_455 S
C2565 C2564 1.400 . S
C2565 C2566 1.390 1_545 S
C2566 H2554 0.961 . S
C2566 C2565 1.390 1_565 S
C2566 C2567 1.389 1_565 S
C2567 H2555 0.950 1_545 S
C2567 C2563 1.393 . S
C2567 C2566 1.389 1_545 S
H2568 C2576 0.950 . S
H2569 C2581 0.950 . S
H2570 C2578 0.950 . S
H2571 C2580 0.950 . S
H2572 C2582 0.950 . S
H2573 C2584 0.950 . S
H2574 C2586 0.950 . S
H2575 C2587 0.950 . S
C2576 H2568 0.950 . S
C2576 C2577 1.386 . S
C2576 C2578 1.391 . S
C2577 C2576 1.386 . S
C2577 C2581 1.393 . S
C2578 H2570 0.950 . S
C2578 C2576 1.391 . S
C2578 C2579 1.400 . S
C2579 C2578 1.400 . S
C2579 C2580 1.398 . S
C2579 C2585 1.491 . S
C2580 H2571 0.950 . S
C2580 C2579 1.398 . S
C2580 C2581 1.391 . S
C2581 H2569 0.950 . S
C2581 C2577 1.393 . S
C2581 C2580 1.391 . S
C2582 H2572 0.950 . S
C2582 C2583 1.386 . S
C2582 C2584 1.391 . S
C2583 C2582 1.386 . S
C2583 C2587 1.393 . S
C2584 H2573 0.950 . S
C2584 C2582 1.391 . S
C2584 C2585 1.400 . S
C2585 C2579 1.491 . S
C2585 C2584 1.400 . S
C2585 C2586 1.398 . S
C2586 H2574 0.950 . S
C2586 C2585 1.398 . S
C2586 C2587 1.391 . S
C2587 H2575 0.950 . S
C2587 C2583 1.393 . S
C2587 C2586 1.391 . S
H2588 C2596 0.950 . S
H2589 C2601 0.950 . S
H2590 C2598 0.950 . S
H2591 C2600 0.950 . S
H2592 C2602 0.950 . S
H2593 C2604 0.950 . S
H2594 C2606 0.950 1_545 S
H2595 C2607 0.938 1_545 S
C2596 H2588 0.950 . S
C2596 C2597 1.386 1_545 S
C2596 C2598 1.391 . S
C2597 C2596 1.386 1_565 S
C2597 C2601 1.393 . S
C2598 H2590 0.950 . S
C2598 C2596 1.391 . S
C2598 C2599 1.400 1_545 S
C2599 C2598 1.400 1_565 S
C2599 C2600 1.398 . S
C2599 C2605 1.491 . S
C2600 H2591 0.950 . S
C2600 C2599 1.398 . S
C2600 C2601 1.391 . S
C2601 H2589 0.950 . S
C2601 C2597 1.393 . S
C2601 C2600 1.391 . S
C2602 H2592 0.950 . S
C2602 C2603 1.386 . S
C2602 C2604 1.391 . S
C2603 C2602 1.386 . S
C2603 C2607 1.393 . S
C2604 H2593 0.950 . S
C2604 C2602 1.391 . S
C2604 C2605 1.400 . S
C2605 C2599 1.491 . S
C2605 C2604 1.400 . S
C2605 C2606 1.398 . S
C2606 H2594 0.950 1_565 S
C2606 C2605 1.398 . S
C2606 C2607 1.391 . S
C2607 H2595 0.938 1_565 S
C2607 C2603 1.393 . S
C2607 C2606 1.391 . S
H2608 C2616 0.950 . S
H2609 C2621 0.950 . S
H2610 C2618 0.950 . S
H2611 C2620 0.950 . S
H2612 C2622 0.950 . S
H2613 C2624 0.950 . S
H2614 C2626 0.950 . S
H2615 C2627 0.950 . S
C2616 H2608 0.950 . S
C2616 C2617 1.386 . S
C2616 C2618 1.391 . S
C2617 C2616 1.386 . S
C2617 C2621 1.393 . S
C2618 H2610 0.950 . S
C2618 C2616 1.391 . S
C2618 C2619 1.400 . S
C2619 C2618 1.400 . S
C2619 C2620 1.398 . S
C2619 C2625 1.491 . S
C2620 H2611 0.950 . S
C2620 C2619 1.398 . S
C2620 C2621 1.391 . S
C2621 H2609 0.950 . S
C2621 C2617 1.393 . S
C2621 C2620 1.391 . S
C2622 H2612 0.950 . S
C2622 C2623 1.386 . S
C2622 C2624 1.391 . S
C2623 C2622 1.386 . S
C2623 C2627 1.393 . S
C2624 H2613 0.950 . S
C2624 C2622 1.391 . S
C2624 C2625 1.400 . S
C2625 C2619 1.491 . S
C2625 C2624 1.400 . S
C2625 C2626 1.398 . S
C2626 H2614 0.950 . S
C2626 C2625 1.398 . S
C2626 C2627 1.391 . S
C2627 H2615 0.950 . S
C2627 C2623 1.393 . S
C2627 C2626 1.391 . S
H2628 C2636 0.950 . S
H2629 C2641 0.950 1_565 S
H2630 C2638 0.950 . S
H2631 C2640 0.963 . S
H2632 C2642 0.950 . S
H2633 C2644 0.950 . S
H2634 C2646 0.950 . S
H2635 C2647 0.950 . S
C2636 H2628 0.950 . S
C2636 C2637 1.386 . S
C2636 C2638 1.391 . S
C2637 C2636 1.386 . S
C2637 C2641 1.393 . S
C2638 H2630 0.950 . S
C2638 C2636 1.391 . S
C2638 C2639 1.400 . S
C2639 C2638 1.400 . S
C2639 C2640 1.389 1_545 S
C2639 C2645 1.491 . S
C2640 H2631 0.963 . S
C2640 C2639 1.389 1_565 S
C2640 C2641 1.388 1_565 S
C2641 H2629 0.950 1_545 S
C2641 C2637 1.393 . S
C2641 C2640 1.388 1_545 S
C2642 H2632 0.950 . S
C2642 C2643 1.370 1_565 S
C2642 C2644 1.391 . S
C2643 C2642 1.370 1_545 S
C2643 C2647 1.412 . S
C2644 H2633 0.950 . S
C2644 C2642 1.391 . S
C2644 C2645 1.400 1_565 S
C2645 C2639 1.491 . S
C2645 C2644 1.400 1_545 S
C2645 C2646 1.398 . S
C2646 H2634 0.950 . S
C2646 C2645 1.398 . S
C2646 C2647 1.391 . S
C2647 H2635 0.950 . S
C2647 C2643 1.412 . S
C2647 C2646 1.391 . S
H2648 C2656 0.950 . S
H2649 C2661 0.950 . S
H2650 C2658 0.950 . S
H2651 C2660 0.950 . S
H2652 C2662 0.950 . S
H2653 C2664 0.950 . S
H2654 C2666 0.950 . S
H2655 C2667 0.950 . S
C2656 H2648 0.950 . S
C2656 C2657 1.386 . S
C2656 C2658 1.391 1_556 S
C2657 C2656 1.386 . S
C2657 C2661 1.393 . S
C2658 H2650 0.950 . S
C2658 C2656 1.391 1_554 S
C2658 C2659 1.400 . S
C2659 C2658 1.400 . S
C2659 C2660 1.398 1_554 S
C2659 C2665 1.491 . S
C2660 H2651 0.950 . S
C2660 C2659 1.398 1_556 S
C2660 C2661 1.391 . S
C2661 H2649 0.950 . S
C2661 C2657 1.393 . S
C2661 C2660 1.391 . S
C2662 H2652 0.950 . S
C2662 C2663 1.386 . S
C2662 C2664 1.391 . S
C2663 C2662 1.386 . S
C2663 C2667 1.393 . S
C2664 H2653 0.950 . S
C2664 C2662 1.391 . S
C2664 C2665 1.400 . S
C2665 C2659 1.491 . S
C2665 C2664 1.400 . S
C2665 C2666 1.398 . S
C2666 H2654 0.950 . S
C2666 C2665 1.398 . S
C2666 C2667 1.391 . S
C2667 H2655 0.950 . S
C2667 C2663 1.393 . S
C2667 C2666 1.391 . S
H2668 C2676 0.950 . S
H2669 C2681 0.950 . S
H2670 C2678 0.950 . S
H2671 C2680 0.950 . S
H2672 C2682 0.950 . S
H2673 C2684 0.950 . S
H2674 C2686 0.950 1_455 S
H2675 C2687 0.950 . S
C2676 H2668 0.950 . S
C2676 C2677 1.386 1_545 S
C2676 C2678 1.391 . S
C2677 C2676 1.386 1_565 S
C2677 C2681 1.393 . S
C2678 H2670 0.950 . S
C2678 C2676 1.391 . S
C2678 C2679 1.400 1_545 S
C2679 C2678 1.400 1_565 S
C2679 C2680 1.398 . S
C2679 C2685 1.491 1_455 S
C2680 H2671 0.950 . S
C2680 C2679 1.398 . S
C2680 C2681 1.391 . S
C2681 H2669 0.950 . S
C2681 C2677 1.393 . S
C2681 C2680 1.391 . S
C2682 H2672 0.950 . S
C2682 C2683 1.386 . S
C2682 C2684 1.391 . S
C2683 C2682 1.386 . S
C2683 C2687 1.393 1_565 S
C2684 H2673 0.950 . S
C2684 C2682 1.391 . S
C2684 C2685 1.400 . S
C2685 C2679 1.491 1_655 S
C2685 C2684 1.400 . S
C2685 C2686 1.398 1_565 S
C2686 H2674 0.950 1_655 S
C2686 C2685 1.398 1_545 S
C2686 C2687 1.391 . S
C2687 H2675 0.950 . S
C2687 C2683 1.393 1_545 S
C2687 C2686 1.391 . S
H2688 C2696 0.950 . S
H2689 C2701 0.950 . S
H2690 C2698 0.950 1_554 S
H2691 C2700 0.950 . S
H2692 C2702 0.950 . S
H2693 C2704 0.950 . S
H2694 C2706 0.950 . S
H2695 C2707 0.950 . S
C2696 H2688 0.950 . S
C2696 C2697 1.386 . S
C2696 C2698 1.391 . S
C2697 C2696 1.386 . S
C2697 C2701 1.393 . S
C2698 H2690 0.950 1_556 S
C2698 C2696 1.391 . S
C2698 C2699 1.400 1_556 S
C2699 C2698 1.400 1_554 S
C2699 C2700 1.398 1_554 S
C2699 C2705 1.491 . S
C2700 H2691 0.950 . S
C2700 C2699 1.398 1_556 S
C2700 C2701 1.391 . S
C2701 H2689 0.950 . S
C2701 C2697 1.393 . S
C2701 C2700 1.391 . S
C2702 H2692 0.950 . S
C2702 C2703 1.386 . S
C2702 C2704 1.391 . S
C2703 C2702 1.386 . S
C2703 C2707 1.393 . S
C2704 H2693 0.950 . S
C2704 C2702 1.391 . S
C2704 C2705 1.400 . S
C2705 C2699 1.491 . S
C2705 C2704 1.400 . S
C2705 C2706 1.398 . S
C2706 H2694 0.950 . S
C2706 C2705 1.398 . S
C2706 C2707 1.391 . S
C2707 H2695 0.950 . S
C2707 C2703 1.393 . S
C2707 C2706 1.391 . S
H2708 C2716 0.950 . S
H2709 C2721 0.950 . S
H2710 C2718 0.950 . S
H2711 C2720 0.950 . S
H2712 C2722 0.950 . S
H2713 C2724 0.950 . S
H2714 C2726 0.950 . S
H2715 C2727 0.950 . S
C2716 H2708 0.950 . S
C2716 C2717 1.386 1_545 S
C2716 C2718 1.391 . S
C2717 C2716 1.386 1_565 S
C2717 C2721 1.393 . S
C2718 H2710 0.950 . S
C2718 C2716 1.391 . S
C2718 C2719 1.400 1_545 S
C2719 C2718 1.400 1_565 S
C2719 C2720 1.398 . S
C2719 C2725 1.491 1_455 S
C2720 H2711 0.950 . S
C2720 C2719 1.398 . S
C2720 C2721 1.391 . S
C2721 H2709 0.950 . S
C2721 C2717 1.393 . S
C2721 C2720 1.391 . S
C2722 H2712 0.950 . S
C2722 C2723 1.386 . S
C2722 C2724 1.391 . S
C2723 C2722 1.386 . S
C2723 C2727 1.393 1_565 S
C2724 H2713 0.950 . S
C2724 C2722 1.391 . S
C2724 C2725 1.400 . S
C2725 C2719 1.491 1_655 S
C2725 C2724 1.400 . S
C2725 C2726 1.398 1_565 S
C2726 H2714 0.950 . S
C2726 C2725 1.398 1_545 S
C2726 C2727 1.391 . S
C2727 H2715 0.950 . S
C2727 C2723 1.393 1_545 S
C2727 C2726 1.391 . S
H2728 C2736 0.950 . S
H2729 C2741 0.950 . S
H2730 C2738 0.950 . S
H2731 C2740 0.950 . S
H2732 C2742 0.950 . S
H2733 C2744 0.950 . S
H2734 C2746 0.950 . S
H2735 C2747 0.950 . S
C2736 H2728 0.950 . S
C2736 C2737 1.386 . S
C2736 C2738 1.391 . S
C2737 C2736 1.386 . S
C2737 C2741 1.393 . S
C2738 H2730 0.950 . S
C2738 C2736 1.391 . S
C2738 C2739 1.400 . S
C2739 C2738 1.400 . S
C2739 C2740 1.398 . S
C2739 C2745 1.491 . S
C2740 H2731 0.950 . S
C2740 C2739 1.398 . S
C2740 C2741 1.391 . S
C2741 H2729 0.950 . S
C2741 C2737 1.393 . S
C2741 C2740 1.391 . S
C2742 H2732 0.950 . S
C2742 C2743 1.386 . S
C2742 C2744 1.391 . S
C2743 C2742 1.386 . S
C2743 C2747 1.393 . S
C2744 H2733 0.950 . S
C2744 C2742 1.391 . S
C2744 C2745 1.400 . S
C2745 C2739 1.491 . S
C2745 C2744 1.400 . S
C2745 C2746 1.398 . S
C2746 H2734 0.950 . S
C2746 C2745 1.398 . S
C2746 C2747 1.391 . S
C2747 H2735 0.950 . S
C2747 C2743 1.393 . S
C2747 C2746 1.391 . S
H2748 C2756 0.950 . S
H2749 C2761 0.950 . S
H2750 C2758 0.950 . S
H2751 C2760 0.950 . S
H2752 C2762 0.950 1_565 S
H2753 C2764 0.950 . S
H2754 C2766 0.950 . S
H2755 C2767 0.950 . S
C2756 H2748 0.950 . S
C2756 C2757 1.386 . S
C2756 C2758 1.391 . S
C2757 C2756 1.386 . S
C2757 C2761 1.393 1_545 S
C2758 H2750 0.950 . S
C2758 C2756 1.391 . S
C2758 C2759 1.400 . S
C2759 C2758 1.400 . S
C2759 C2760 1.398 1_545 S
C2759 C2765 1.491 . S
C2760 H2751 0.950 . S
C2760 C2759 1.398 1_565 S
C2760 C2761 1.391 . S
C2761 H2749 0.950 . S
C2761 C2757 1.393 1_565 S
C2761 C2760 1.391 . S
C2762 H2752 0.950 1_545 S
C2762 C2763 1.386 . S
C2762 C2764 1.391 1_545 S
C2763 C2762 1.386 . S
C2763 C2767 1.393 . S
C2764 H2753 0.950 . S
C2764 C2762 1.391 1_565 S
C2764 C2765 1.400 1_565 S
C2765 C2759 1.491 . S
C2765 C2764 1.400 1_545 S
C2765 C2766 1.398 . S
C2766 H2754 0.950 . S
C2766 C2765 1.398 . S
C2766 C2767 1.391 . S
C2767 H2755 0.950 . S
C2767 C2763 1.393 . S
C2767 C2766 1.391 . S
H2768 C2776 0.950 . S
H2769 C2781 0.950 . S
H2770 C2778 0.950 . S
H2771 C2780 0.950 . S
H2772 C2782 0.950 . S
H2773 C2784 0.950 . S
H2774 C2786 0.950 . S
H2775 C2787 0.950 . S
C2776 H2768 0.950 . S
C2776 C2777 1.386 . S
C2776 C2778 1.391 . S
C2777 C2776 1.386 . S
C2777 C2781 1.393 . S
C2778 H2770 0.950 . S
C2778 C2776 1.391 . S
C2778 C2779 1.400 . S
C2779 C2778 1.400 . S
C2779 C2780 1.398 . S
C2779 C2785 1.491 . S
C2780 H2771 0.950 . S
C2780 C2779 1.398 . S
C2780 C2781 1.391 . S
C2781 H2769 0.950 . S
C2781 C2777 1.393 . S
C2781 C2780 1.391 . S
C2782 H2772 0.950 . S
C2782 C2783 1.386 . S
C2782 C2784 1.391 . S
C2783 C2782 1.386 . S
C2783 C2787 1.393 . S
C2784 H2773 0.950 . S
C2784 C2782 1.391 . S
C2784 C2785 1.400 . S
C2785 C2779 1.491 . S
C2785 C2784 1.400 . S
C2785 C2786 1.398 . S
C2786 H2774 0.950 . S
C2786 C2785 1.398 . S
C2786 C2787 1.391 . S
C2787 H2775 0.950 . S
C2787 C2783 1.393 . S
C2787 C2786 1.391 . S
H2788 C2796 0.950 . S
H2789 C2801 0.950 . S
H2790 C2798 0.950 . S
H2791 C2800 0.950 . S
H2792 C2802 0.950 . S
H2793 C2804 0.950 . S
H2794 C2806 0.950 . S
H2795 C2807 0.950 . S
C2796 H2788 0.950 . S
C2796 C2797 1.430 . S
C2796 C2798 1.391 . S
C2797 C2796 1.430 . S
C2797 C2801 1.356 1_565 S
C2798 H2790 0.950 . S
C2798 C2796 1.391 . S
C2798 C2799 1.400 . S
C2799 C2798 1.400 . S
C2799 C2800 1.398 1_565 S
C2799 C2805 1.491 . S
C2800 H2791 0.950 . S
C2800 C2799 1.398 1_545 S
C2800 C2801 1.391 . S
C2801 H2789 0.950 . S
C2801 C2797 1.356 1_545 S
C2801 C2800 1.391 . S
C2802 H2792 0.950 . S
C2802 C2803 1.386 1_545 S
C2802 C2804 1.391 . S
C2803 C2802 1.386 1_565 S
C2803 C2807 1.393 . S
C2804 H2793 0.950 . S
C2804 C2802 1.391 . S
C2804 C2805 1.400 1_545 S
C2805 C2799 1.491 . S
C2805 C2804 1.400 1_565 S
C2805 C2806 1.398 . S
C2806 H2794 0.950 . S
C2806 C2805 1.398 . S
C2806 C2807 1.391 . S
C2807 H2795 0.950 . S
C2807 C2803 1.393 . S
C2807 C2806 1.391 . S
H2808 C2816 0.950 . S
H2809 C2821 0.950 . S
H2810 C2818 0.950 . S
H2811 C2820 0.950 . S
H2812 C2822 0.950 . S
H2813 C2824 0.950 . S
H2814 C2826 0.950 . S
H2815 C2827 0.950 . S
C2816 H2808 0.950 . S
C2816 C2817 1.386 . S
C2816 C2818 1.391 . S
C2817 C2816 1.386 . S
C2817 C2821 1.393 . S
C2818 H2810 0.950 . S
C2818 C2816 1.391 . S
C2818 C2819 1.400 1_554 S
C2819 C2818 1.400 1_556 S
C2819 C2820 1.398 . S
C2819 C2825 1.491 . S
C2820 H2811 0.950 . S
C2820 C2819 1.398 . S
C2820 C2821 1.391 1_556 S
C2821 H2809 0.950 . S
C2821 C2817 1.393 . S
C2821 C2820 1.391 1_554 S
C2822 H2812 0.950 . S
C2822 C2823 1.386 . S
C2822 C2824 1.391 . S
C2823 C2822 1.386 . S
C2823 C2827 1.393 . S
C2824 H2813 0.950 . S
C2824 C2822 1.391 . S
C2824 C2825 1.400 . S
C2825 C2819 1.491 . S
C2825 C2824 1.400 . S
C2825 C2826 1.398 . S
C2826 H2814 0.950 . S
C2826 C2825 1.398 . S
C2826 C2827 1.391 . S
C2827 H2815 0.950 . S
C2827 C2823 1.393 . S
C2827 C2826 1.391 . S
H2828 C2836 0.950 . S
H2829 C2841 0.950 . S
H2830 C2838 0.950 . S
H2831 C2840 0.950 . S
H2832 C2842 0.950 . S
H2833 C2844 0.950 . S
H2834 C2846 0.950 . S
H2835 C2847 0.950 . S
C2836 H2828 0.950 . S
C2836 C2837 1.386 1_565 S
C2836 C2838 1.391 . S
C2837 C2836 1.386 1_545 S
C2837 C2841 1.393 . S
C2838 H2830 0.950 . S
C2838 C2836 1.391 . S
C2838 C2839 1.400 1_565 S
C2839 C2838 1.400 1_545 S
C2839 C2840 1.398 . S
C2839 C2845 1.491 1_455 S
C2840 H2831 0.950 . S
C2840 C2839 1.398 . S
C2840 C2841 1.391 . S
C2841 H2829 0.950 . S
C2841 C2837 1.393 . S
C2841 C2840 1.391 . S
C2842 H2832 0.950 . S
C2842 C2843 1.386 . S
C2842 C2844 1.391 . S
C2843 C2842 1.386 . S
C2843 C2847 1.393 1_545 S
C2844 H2833 0.950 . S
C2844 C2842 1.391 . S
C2844 C2845 1.400 . S
C2845 C2839 1.491 1_655 S
C2845 C2844 1.400 . S
C2845 C2846 1.398 1_545 S
C2846 H2834 0.950 . S
C2846 C2845 1.398 1_565 S
C2846 C2847 1.391 . S
C2847 H2835 0.950 . S
C2847 C2843 1.393 1_565 S
C2847 C2846 1.391 . S
H2848 C2856 0.950 . S
H2849 C2861 0.950 . S
H2850 C2858 0.950 . S
H2851 C2860 0.950 . S
H2852 C2862 0.950 . S
H2853 C2864 0.950 . S
H2854 C2866 0.950 . S
H2855 C2867 0.950 . S
C2856 H2848 0.950 . S
C2856 C2857 1.386 . S
C2856 C2858 1.391 . S
C2857 C2856 1.386 . S
C2857 C2861 1.393 . S
C2858 H2850 0.950 . S
C2858 C2856 1.391 . S
C2858 C2859 1.400 . S
C2859 C2858 1.400 . S
C2859 C2860 1.398 . S
C2859 C2865 1.491 . S
C2860 H2851 0.950 . S
C2860 C2859 1.398 . S
C2860 C2861 1.391 . S
C2861 H2849 0.950 . S
C2861 C2857 1.393 . S
C2861 C2860 1.391 . S
C2862 H2852 0.950 . S
C2862 C2863 1.386 . S
C2862 C2864 1.391 . S
C2863 C2862 1.386 . S
C2863 C2867 1.393 . S
C2864 H2853 0.950 . S
C2864 C2862 1.391 . S
C2864 C2865 1.400 . S
C2865 C2859 1.491 . S
C2865 C2864 1.400 . S
C2865 C2866 1.398 . S
C2866 H2854 0.950 . S
C2866 C2865 1.398 . S
C2866 C2867 1.391 . S
C2867 H2855 0.950 . S
C2867 C2863 1.393 . S
C2867 C2866 1.391 . S
H2868 C2876 0.950 . S
H2869 C2881 0.950 . S
H2870 C2878 0.950 . S
H2871 C2880 0.950 . S
H2872 C2882 0.950 . S
H2873 C2884 0.950 . S
H2874 C2886 0.950 . S
H2875 C2887 0.950 . S
C2876 H2868 0.950 . S
C2876 C2877 1.386 . S
C2876 C2878 1.391 . S
C2877 C2876 1.386 . S
C2877 C2881 1.393 . S
C2878 H2870 0.950 . S
C2878 C2876 1.391 . S
C2878 C2879 1.400 . S
C2879 C2878 1.400 . S
C2879 C2880 1.398 . S
C2879 C2885 1.491 . S
C2880 H2871 0.950 . S
C2880 C2879 1.398 . S
C2880 C2881 1.391 . S
C2881 H2869 0.950 . S
C2881 C2877 1.393 . S
C2881 C2880 1.391 . S
C2882 H2872 0.950 . S
C2882 C2883 1.386 . S
C2882 C2884 1.391 . S
C2883 C2882 1.386 . S
C2883 C2887 1.393 . S
C2884 H2873 0.950 . S
C2884 C2882 1.391 . S
C2884 C2885 1.400 . S
C2885 C2879 1.491 . S
C2885 C2884 1.400 . S
C2885 C2886 1.398 . S
C2886 H2874 0.950 . S
C2886 C2885 1.398 . S
C2886 C2887 1.391 . S
C2887 H2875 0.950 . S
C2887 C2883 1.393 . S
C2887 C2886 1.391 . S
H2888 C2896 0.950 . S
H2889 C2901 0.950 . S
H2890 C2898 0.950 . S
H2891 C2900 0.950 1_556 S
H2892 C2902 0.950 . S
H2893 C2904 0.950 . S
H2894 C2906 0.950 1_554 S
H2895 C2907 0.950 . S
C2896 H2888 0.950 . S
C2896 C2897 1.386 . S
C2896 C2898 1.391 . S
C2897 C2896 1.386 . S
C2897 C2901 1.393 . S
C2898 H2890 0.950 . S
C2898 C2896 1.391 . S
C2898 C2899 1.400 . S
C2899 C2898 1.400 . S
C2899 C2900 1.398 . S
C2899 C2905 1.491 1_554 S
C2900 H2891 0.950 1_554 S
C2900 C2899 1.398 . S
C2900 C2901 1.391 . S
C2901 H2889 0.950 . S
C2901 C2897 1.393 . S
C2901 C2900 1.391 . S
C2902 H2892 0.950 . S
C2902 C2903 1.386 . S
C2902 C2904 1.391 . S
C2903 C2902 1.386 . S
C2903 C2907 1.393 . S
C2904 H2893 0.950 . S
C2904 C2902 1.391 . S
C2904 C2905 1.400 . S
C2905 C2899 1.491 1_556 S
C2905 C2904 1.400 . S
C2905 C2906 1.398 . S
C2906 H2894 0.950 1_556 S
C2906 C2905 1.398 . S
C2906 C2907 1.391 . S
C2907 H2895 0.950 . S
C2907 C2903 1.393 . S
C2907 C2906 1.391 . S
H2908 C2916 0.950 . S
H2909 C2921 0.950 . S
H2910 C2918 0.950 . S
H2911 C2920 0.950 1_455 S
H2912 C2922 0.950 . S
H2913 C2924 0.950 . S
H2914 C2926 0.950 . S
H2915 C2927 0.950 . S
C2916 H2908 0.950 . S
C2916 C2917 1.386 . S
C2916 C2918 1.391 . S
C2917 C2916 1.386 . S
C2917 C2921 1.393 . S
C2918 H2910 0.950 . S
C2918 C2916 1.391 . S
C2918 C2919 1.400 . S
C2919 C2918 1.400 . S
C2919 C2920 1.398 . S
C2919 C2925 1.491 . S
C2920 H2911 0.950 1_655 S
C2920 C2919 1.398 . S
C2920 C2921 1.391 . S
C2921 H2909 0.950 . S
C2921 C2917 1.393 . S
C2921 C2920 1.391 . S
C2922 H2912 0.950 . S
C2922 C2923 1.386 . S
C2922 C2924 1.391 . S
C2923 C2922 1.386 . S
C2923 C2927 1.393 . S
C2924 H2913 0.950 . S
C2924 C2922 1.391 . S
C2924 C2925 1.400 1_455 S
C2925 C2919 1.491 . S
C2925 C2924 1.400 1_655 S
C2925 C2926 1.398 . S
C2926 H2914 0.950 . S
C2926 C2925 1.398 . S
C2926 C2927 1.391 1_655 S
C2927 H2915 0.950 . S
C2927 C2923 1.393 . S
C2927 C2926 1.391 1_455 S
H2928 C2936 0.950 . S
H2929 C2941 0.950 . S
H2930 C2938 0.950 . S
H2931 C2940 0.950 1_554 S
H2932 C2942 0.950 . S
H2933 C2944 0.950 . S
H2934 C2946 0.950 1_556 S
H2935 C2947 0.950 . S
C2936 H2928 0.950 . S
C2936 C2937 1.386 . S
C2936 C2938 1.391 . S
C2937 C2936 1.386 . S
C2937 C2941 1.393 . S
C2938 H2930 0.950 . S
C2938 C2936 1.391 . S
C2938 C2939 1.400 . S
C2939 C2938 1.400 . S
C2939 C2940 1.398 . S
C2939 C2945 1.491 1_556 S
C2940 H2931 0.950 1_556 S
C2940 C2939 1.398 . S
C2940 C2941 1.391 . S
C2941 H2929 0.950 . S
C2941 C2937 1.393 . S
C2941 C2940 1.391 . S
C2942 H2932 0.950 . S
C2942 C2943 1.386 . S
C2942 C2944 1.391 . S
C2943 C2942 1.386 . S
C2943 C2947 1.393 . S
C2944 H2933 0.950 . S
C2944 C2942 1.391 . S
C2944 C2945 1.400 . S
C2945 C2939 1.491 1_554 S
C2945 C2944 1.400 . S
C2945 C2946 1.398 . S
C2946 H2934 0.950 1_554 S
C2946 C2945 1.398 . S
C2946 C2947 1.391 . S
C2947 H2935 0.950 . S
C2947 C2943 1.393 . S
C2947 C2946 1.391 . S
H2948 C2956 0.950 . S
H2949 C2961 0.950 . S
H2950 C2958 0.950 . S
H2951 C2960 0.950 . S
H2952 C2962 0.950 . S
H2953 C2964 0.950 . S
H2954 C2966 0.950 . S
H2955 C2967 0.950 . S
C2956 H2948 0.950 . S
C2956 C2957 1.386 . S
C2956 C2958 1.391 . S
C2957 C2956 1.386 . S
C2957 C2961 1.393 . S
C2958 H2950 0.950 . S
C2958 C2956 1.391 . S
C2958 C2959 1.400 . S
C2959 C2958 1.400 . S
C2959 C2960 1.398 . S
C2959 C2965 1.491 . S
C2960 H2951 0.950 . S
C2960 C2959 1.398 . S
C2960 C2961 1.391 . S
C2961 H2949 0.950 . S
C2961 C2957 1.393 . S
C2961 C2960 1.391 . S
C2962 H2952 0.950 . S
C2962 C2963 1.386 . S
C2962 C2964 1.391 . S
C2963 C2962 1.386 . S
C2963 C2967 1.393 . S
C2964 H2953 0.950 . S
C2964 C2962 1.391 . S
C2964 C2965 1.400 1_455 S
C2965 C2959 1.491 . S
C2965 C2964 1.400 1_655 S
C2965 C2966 1.398 . S
C2966 H2954 0.950 . S
C2966 C2965 1.398 . S
C2966 C2967 1.391 1_655 S
C2967 H2955 0.950 . S
C2967 C2963 1.393 . S
C2967 C2966 1.391 1_455 S
H2968 C2976 0.950 . S
H2969 C2981 0.950 . S
H2970 C2978 0.950 . S
H2971 C2980 0.950 . S
H2972 C2982 0.950 . S
H2973 C2984 0.950 . S
H2974 C2986 0.950 . S
H2975 C2987 0.950 . S
C2976 H2968 0.950 . S
C2976 C2977 1.386 . S
C2976 C2978 1.391 . S
C2977 C2976 1.386 . S
C2977 C2981 1.393 . S
C2978 H2970 0.950 . S
C2978 C2976 1.391 . S
C2978 C2979 1.400 . S
C2979 C2978 1.400 . S
C2979 C2980 1.398 . S
C2979 C2985 1.491 . S
C2980 H2971 0.950 . S
C2980 C2979 1.398 . S
C2980 C2981 1.391 . S
C2981 H2969 0.950 . S
C2981 C2977 1.393 . S
C2981 C2980 1.391 . S
C2982 H2972 0.950 . S
C2982 C2983 1.386 . S
C2982 C2984 1.391 . S
C2983 C2982 1.386 . S
C2983 C2987 1.393 . S
C2984 H2973 0.950 . S
C2984 C2982 1.391 . S
C2984 C2985 1.400 . S
C2985 C2979 1.491 . S
C2985 C2984 1.400 . S
C2985 C2986 1.398 . S
C2986 H2974 0.950 . S
C2986 C2985 1.398 . S
C2986 C2987 1.391 . S
C2987 H2975 0.950 . S
C2987 C2983 1.393 . S
C2987 C2986 1.391 . S
H2988 C2996 0.950 . S
H2989 C3001 0.950 . S
H2990 C2998 0.950 . S
H2991 C3000 0.950 . S
H2992 C3002 0.950 . S
H2993 C3004 0.950 . S
H2994 C3006 0.950 . S
H2995 C3007 0.950 . S
C2996 H2988 0.950 . S
C2996 C2997 1.386 . S
C2996 C2998 1.391 . S
C2997 C2996 1.386 . S
C2997 C3001 1.393 . S
C2998 H2990 0.950 . S
C2998 C2996 1.391 . S
C2998 C2999 1.400 . S
C2999 C2998 1.400 . S
C2999 C3000 1.398 . S
C2999 C3005 1.491 . S
C3000 H2991 0.950 . S
C3000 C2999 1.398 . S
C3000 C3001 1.391 . S
C3001 H2989 0.950 . S
C3001 C2997 1.393 . S
C3001 C3000 1.391 . S
C3002 H2992 0.950 . S
C3002 C3003 1.386 . S
C3002 C3004 1.391 . S
C3003 C3002 1.386 . S
C3003 C3007 1.393 . S
C3004 H2993 0.950 . S
C3004 C3002 1.391 . S
C3004 C3005 1.400 . S
C3005 C2999 1.491 . S
C3005 C3004 1.400 . S
C3005 C3006 1.398 . S
C3006 H2994 0.950 . S
C3006 C3005 1.398 . S
C3006 C3007 1.391 . S
C3007 H2995 0.950 . S
C3007 C3003 1.393 . S
C3007 C3006 1.391 . S
H3008 C3016 0.950 . S
H3009 C3021 0.950 . S
H3010 C3018 0.950 . S
H3011 C3020 0.950 . S
H3012 C3022 0.950 . S
H3013 C3024 0.950 . S
H3014 C3026 0.950 . S
H3015 C3027 0.950 . S
C3016 H3008 0.950 . S
C3016 C3017 1.386 . S
C3016 C3018 1.391 . S
C3017 C3016 1.386 . S
C3017 C3021 1.393 . S
C3018 H3010 0.950 . S
C3018 C3016 1.391 . S
C3018 C3019 1.400 . S
C3019 C3018 1.400 . S
C3019 C3020 1.398 . S
C3019 C3025 1.491 . S
C3020 H3011 0.950 . S
C3020 C3019 1.398 . S
C3020 C3021 1.391 . S
C3021 H3009 0.950 . S
C3021 C3017 1.393 . S
C3021 C3020 1.391 . S
C3022 H3012 0.950 . S
C3022 C3023 1.386 . S
C3022 C3024 1.391 . S
C3023 C3022 1.386 . S
C3023 C3027 1.393 . S
C3024 H3013 0.950 . S
C3024 C3022 1.391 . S
C3024 C3025 1.400 . S
C3025 C3019 1.491 . S
C3025 C3024 1.400 . S
C3025 C3026 1.398 . S
C3026 H3014 0.950 . S
C3026 C3025 1.398 . S
C3026 C3027 1.391 . S
C3027 H3015 0.950 . S
C3027 C3023 1.393 . S
C3027 C3026 1.391 . S
H3028 C3036 0.950 . S
H3029 C3041 0.950 . S
H3030 C3038 0.950 . S
H3031 C3040 0.950 . S
H3032 C3042 0.950 . S
H3033 C3044 0.950 . S
H3034 C3046 0.950 . S
H3035 C3047 0.950 . S
C3036 H3028 0.950 . S
C3036 C3037 1.386 . S
C3036 C3038 1.391 . S
C3037 C3036 1.386 . S
C3037 C3041 1.393 . S
C3038 H3030 0.950 . S
C3038 C3036 1.391 . S
C3038 C3039 1.400 . S
C3039 C3038 1.400 . S
C3039 C3040 1.398 . S
C3039 C3045 1.491 . S
C3040 H3031 0.950 . S
C3040 C3039 1.398 . S
C3040 C3041 1.391 . S
C3041 H3029 0.950 . S
C3041 C3037 1.393 . S
C3041 C3040 1.391 . S
C3042 H3032 0.950 . S
C3042 C3043 1.386 . S
C3042 C3044 1.391 . S
C3043 C3042 1.386 . S
C3043 C3047 1.393 . S
C3044 H3033 0.950 . S
C3044 C3042 1.391 . S
C3044 C3045 1.400 . S
C3045 C3039 1.491 . S
C3045 C3044 1.400 . S
C3045 C3046 1.398 . S
C3046 H3034 0.950 . S
C3046 C3045 1.398 . S
C3046 C3047 1.391 . S
C3047 H3035 0.950 . S
C3047 C3043 1.393 . S
C3047 C3046 1.391 . S
H3048 C3056 0.950 . S
H3049 C3061 0.950 . S
H3050 C3058 0.950 . S
H3051 C3060 0.950 1_556 S
H3052 C3062 0.950 . S
H3053 C3064 0.950 . S
H3054 C3066 0.950 1_554 S
H3055 C3067 0.950 . S
C3056 H3048 0.950 . S
C3056 C3057 1.386 . S
C3056 C3058 1.391 . S
C3057 C3056 1.386 . S
C3057 C3061 1.393 . S
C3058 H3050 0.950 . S
C3058 C3056 1.391 . S
C3058 C3059 1.400 . S
C3059 C3058 1.400 . S
C3059 C3060 1.398 . S
C3059 C3065 1.491 1_554 S
C3060 H3051 0.950 1_554 S
C3060 C3059 1.398 . S
C3060 C3061 1.391 . S
C3061 H3049 0.950 . S
C3061 C3057 1.393 . S
C3061 C3060 1.391 . S
C3062 H3052 0.950 . S
C3062 C3063 1.386 . S
C3062 C3064 1.391 . S
C3063 C3062 1.386 . S
C3063 C3067 1.393 . S
C3064 H3053 0.950 . S
C3064 C3062 1.391 . S
C3064 C3065 1.400 . S
C3065 C3059 1.491 1_556 S
C3065 C3064 1.400 . S
C3065 C3066 1.398 . S
C3066 H3054 0.950 1_556 S
C3066 C3065 1.398 . S
C3066 C3067 1.391 . S
C3067 H3055 0.950 . S
C3067 C3063 1.393 . S
C3067 C3066 1.391 . S
H3068 C3076 0.950 . S
H3069 C3081 0.950 . S
H3070 C3078 0.950 . S
H3071 C3080 0.950 . S
H3072 C3082 0.950 . S
H3073 C3084 0.950 . S
H3074 C3086 0.950 . S
H3075 C3087 0.950 . S
C3076 H3068 0.950 . S
C3076 C3077 1.386 . S
C3076 C3078 1.391 . S
C3077 C3076 1.386 . S
C3077 C3081 1.393 . S
C3078 H3070 0.950 . S
C3078 C3076 1.391 . S
C3078 C3079 1.400 . S
C3079 C3078 1.400 . S
C3079 C3080 1.398 . S
C3079 C3085 1.491 . S
C3080 H3071 0.950 . S
C3080 C3079 1.398 . S
C3080 C3081 1.391 . S
C3081 H3069 0.950 . S
C3081 C3077 1.393 . S
C3081 C3080 1.391 . S
C3082 H3072 0.950 . S
C3082 C3083 1.386 . S
C3082 C3084 1.391 1_655 S
C3083 C3082 1.386 . S
C3083 C3087 1.393 . S
C3084 H3073 0.950 . S
C3084 C3082 1.391 1_455 S
C3084 C3085 1.400 . S
C3085 C3079 1.491 . S
C3085 C3084 1.400 . S
C3085 C3086 1.398 1_455 S
C3086 H3074 0.950 . S
C3086 C3085 1.398 1_655 S
C3086 C3087 1.391 . S
C3087 H3075 0.950 . S
C3087 C3083 1.393 . S
C3087 C3086 1.391 . S
H3088 C3096 0.950 . S
H3089 C3101 0.950 . S
H3090 C3098 0.950 . S
H3091 C3100 0.950 1_556 S
H3092 C3102 0.950 . S
H3093 C3104 0.950 . S
H3094 C3106 0.950 1_554 S
H3095 C3107 0.950 . S
C3096 H3088 0.950 . S
C3096 C3097 1.386 . S
C3096 C3098 1.391 . S
C3097 C3096 1.386 . S
C3097 C3101 1.393 . S
C3098 H3090 0.950 . S
C3098 C3096 1.391 . S
C3098 C3099 1.400 . S
C3099 C3098 1.400 . S
C3099 C3100 1.398 . S
C3099 C3105 1.491 1_554 S
C3100 H3091 0.950 1_554 S
C3100 C3099 1.398 . S
C3100 C3101 1.391 . S
C3101 H3089 0.950 . S
C3101 C3097 1.393 . S
C3101 C3100 1.391 . S
C3102 H3092 0.950 . S
C3102 C3103 1.386 . S
C3102 C3104 1.391 . S
C3103 C3102 1.386 . S
C3103 C3107 1.393 . S
C3104 H3093 0.950 . S
C3104 C3102 1.391 . S
C3104 C3105 1.400 . S
C3105 C3099 1.491 1_556 S
C3105 C3104 1.400 . S
C3105 C3106 1.398 . S
C3106 H3094 0.950 1_556 S
C3106 C3105 1.398 . S
C3106 C3107 1.391 . S
C3107 H3095 0.950 . S
C3107 C3103 1.393 . S
C3107 C3106 1.391 . S
H3108 C3116 0.950 . S
H3109 C3121 0.950 . S
H3110 C3118 0.950 . S
H3111 C3120 0.950 . S
H3112 C3122 0.950 . S
H3113 C3124 0.950 . S
H3114 C3126 0.950 . S
H3115 C3127 0.950 . S
C3116 H3108 0.950 . S
C3116 C3117 1.386 . S
C3116 C3118 1.391 1_655 S
C3117 C3116 1.386 . S
C3117 C3121 1.393 . S
C3118 H3110 0.950 . S
C3118 C3116 1.391 1_455 S
C3118 C3119 1.400 . S
C3119 C3118 1.400 . S
C3119 C3120 1.398 1_455 S
C3119 C3125 1.491 . S
C3120 H3111 0.950 . S
C3120 C3119 1.398 1_655 S
C3120 C3121 1.391 . S
C3121 H3109 0.950 . S
C3121 C3117 1.393 . S
C3121 C3120 1.391 . S
C3122 H3112 0.950 . S
C3122 C3123 1.386 . S
C3122 C3124 1.391 . S
C3123 C3122 1.386 . S
C3123 C3127 1.393 . S
C3124 H3113 0.950 . S
C3124 C3122 1.391 . S
C3124 C3125 1.400 . S
C3125 C3119 1.491 . S
C3125 C3124 1.400 . S
C3125 C3126 1.398 . S
C3126 H3114 0.950 . S
C3126 C3125 1.398 . S
C3126 C3127 1.391 . S
C3127 H3115 0.950 . S
C3127 C3123 1.393 . S
C3127 C3126 1.391 . S
H3128 C3136 0.950 . S
H3129 C3141 0.950 . S
H3130 C3138 0.950 . S
H3131 C3140 0.950 . S
H3132 C3142 0.950 . S
H3133 C3144 0.950 . S
H3134 C3146 0.950 . S
H3135 C3147 0.950 . S
C3136 H3128 0.950 . S
C3136 C3137 1.386 . S
C3136 C3138 1.391 . S
C3137 C3136 1.386 . S
C3137 C3141 1.393 . S
C3138 H3130 0.950 . S
C3138 C3136 1.391 . S
C3138 C3139 1.400 . S
C3139 C3138 1.400 . S
C3139 C3140 1.398 . S
C3139 C3145 1.491 . S
C3140 H3131 0.950 . S
C3140 C3139 1.398 . S
C3140 C3141 1.391 . S
C3141 H3129 0.950 . S
C3141 C3137 1.393 . S
C3141 C3140 1.391 . S
C3142 H3132 0.950 . S
C3142 C3143 1.386 . S
C3142 C3144 1.391 . S
C3143 C3142 1.386 . S
C3143 C3147 1.393 . S
C3144 H3133 0.950 . S
C3144 C3142 1.391 . S
C3144 C3145 1.400 . S
C3145 C3139 1.491 . S
C3145 C3144 1.400 . S
C3145 C3146 1.398 . S
C3146 H3134 0.950 . S
C3146 C3145 1.398 . S
C3146 C3147 1.391 . S
C3147 H3135 0.950 . S
C3147 C3143 1.393 . S
C3147 C3146 1.391 . S
H3148 C3156 0.950 . S
H3149 C3161 0.950 . S
H3150 C3158 0.950 . S
H3151 C3160 0.950 . S
H3152 C3162 0.950 . S
H3153 C3164 0.950 . S
H3154 C3166 0.950 . S
H3155 C3167 0.950 . S
C3156 H3148 0.950 . S
C3156 C3157 1.386 . S
C3156 C3158 1.391 . S
C3157 C3156 1.386 . S
C3157 C3161 1.393 . S
C3158 H3150 0.950 . S
C3158 C3156 1.391 . S
C3158 C3159 1.400 . S
C3159 C3158 1.400 . S
C3159 C3160 1.398 . S
C3159 C3165 1.491 . S
C3160 H3151 0.950 . S
C3160 C3159 1.398 . S
C3160 C3161 1.391 . S
C3161 H3149 0.950 . S
C3161 C3157 1.393 . S
C3161 C3160 1.391 . S
C3162 H3152 0.950 . S
C3162 C3163 1.386 . S
C3162 C3164 1.391 . S
C3163 C3162 1.386 . S
C3163 C3167 1.393 . S
C3164 H3153 0.950 . S
C3164 C3162 1.391 . S
C3164 C3165 1.400 . S
C3165 C3159 1.491 . S
C3165 C3164 1.400 . S
C3165 C3166 1.398 . S
C3166 H3154 0.950 . S
C3166 C3165 1.398 . S
C3166 C3167 1.391 . S
C3167 H3155 0.950 . S
C3167 C3163 1.393 . S
C3167 C3166 1.391 . S
C1897 C387 2.188 . S
C1903 C33 2.204 . S
C1917 C92 0.992 . S
C1923 C446 0.962 . S
C1937 C269 2.102 . S
C1943 C151 2.083 . S
C1957 C210 0.990 . S
C1963 C328 0.973 . S
C1977 C859 2.208 . S
C1983 C505 2.191 . S
C1997 C564 0.968 . S
C2003 C918 0.992 . S
C2017 C741 2.077 . S
C2023 C623 2.082 . S
C2037 C682 0.986 . S
C2043 C800 0.984 . S
C2057 C977 2.153 . S
C2063 C1331 2.165 . S
C2077 C1390 2.080 . S
C2083 C1036 2.090 . S
C2097 C1095 2.122 . S
C2103 C1213 2.104 . S
C2117 C1272 2.074 . S
C2123 C1154 2.090 . S
C2137 C1803 2.185 . S
C2143 C1449 2.172 . S
C2157 C1862 2.102 . S
C2163 C1508 2.078 . S
C2177 C1685 2.117 . S
C2183 C1567 2.133 . S
C2197 C1626 2.112 . S
C2203 C1744 2.093 . S
C2217 C418 1.615 . S
C2223 C5 1.606 . S
C2237 C241 1.575 . S
C2243 C64 1.585 . S
C2257 C300 1.582 . S
C2263 C123 1.562 . S
C2277 C359 1.606 . S
C2283 C182 1.610 . S
C2297 C890 1.617 . S
C2303 C477 1.606 . S
C2317 C713 1.565 . S
C2323 C536 1.578 . S
C2337 C772 1.592 . S
C2343 C595 1.577 . S
C2357 C654 1.613 . S
C2363 C831 1.597 . S
C2377 C1362 1.491 . S
C2383 C949 1.489 . S
C2397 C1008 1.461 . S
C2403 C1185 1.457 . S
C2417 C1067 1.463 . S
C2423 C1244 1.461 . S
C2437 C1303 1.491 . S
C2443 C1126 1.489 . S
C2457 C1834 1.497 . S
C2463 C1421 1.499 . S
C2477 C1480 1.463 . S
C2483 C1657 1.459 . S
C2497 C1539 1.452 . S
C2503 C1716 1.453 . S
C2517 C1775 1.489 . S
C2523 C1598 1.490 . S
C2537 C3 1.891 . S
C2543 C1822 2.092 . S
C2557 C937 1.667 1_545 S
C2563 C62 1.584 . S
C2577 C1704 2.102 . S
C2583 C121 1.905 . S
C2597 C819 1.877 1_565 S
C2603 C180 1.801 . S
C2617 C1586 2.100 . S
C2623 C239 1.896 . S
C2637 C298 1.603 . S
C2643 C701 1.663 1_545 S
C2657 C357 1.901 . S
C2663 C1468 2.092 . S
C2677 C416 1.789 . S
C2683 C583 1.876 1_565 S
C2697 C475 1.919 . S
C2703 C1350 2.098 . S
C2717 C465 1.661 1_565 S
C2723 C534 1.596 . S
C2737 C1232 2.092 . S
C2743 C593 1.905 . S
C2757 C347 1.872 1_545 S
C2763 C652 1.789 . S
C2777 C1114 2.092 . S
C2783 C711 1.904 . S
C2797 C229 1.664 1_565 S
C2803 C770 1.578 . S
C2817 C829 1.913 . S
C2823 C996 2.094 . S
C2837 C111 1.870 1_545 S
C2843 C888 1.808 . S
C2857 C878 2.169 . S
C2863 C947 1.994 . S
C2877 C1881 2.186 . S
C2883 C1006 1.999 . S
C2897 C1065 1.984 . S
C2903 C760 2.162 . S
C2917 C1124 1.911 . S
C2923 C1763 2.118 . S
C2937 C1183 1.972 . S
C2943 C642 2.167 . S
C2957 C1242 1.970 . S
C2963 C1645 2.183 . S
C2977 C1301 1.973 . S
C2983 C524 2.172 . S
C2997 C1360 1.938 . S
C3003 C1527 2.122 . S
C3017 C406 2.162 . S
C3023 C1419 1.970 . S
C3037 C1409 2.179 . S
C3043 C1478 1.973 . S
C3057 C288 2.167 . S
C3063 C1537 1.973 . S
C3077 C1596 1.909 . S
C3083 C1291 2.121 . S
C3097 C1655 1.974 . S
C3103 C170 2.156 . S
C3117 C1173 2.185 . S
C3123 C1714 1.999 . S
C3137 C1773 1.995 . S
C3143 C52 2.169 . S
C3157 C1832 1.934 . S
C3163 C1055 2.127 . S
