# Generated by pormake.
# Topology whz, (6)-cn, num edge types: 1
# Building blocks:
#     Node 0, Type 0, BuildingBlock: CUKXOW_clean_sbu_0, # of connection points: 6
#     Node 1, Type 0, BuildingBlock: CUKXOW_clean_sbu_0, # of connection points: 6
#     Node 2, Type 0, BuildingBlock: CUKXOW_clean_sbu_0, # of connection points: 6
#     Node 3, Type 0, BuildingBlock: CUKXOW_clean_sbu_0, # of connection points: 6
#     Node 4, Type 0, BuildingBlock: CUKXOW_clean_sbu_0, # of connection points: 6
#     Node 5, Type 0, BuildingBlock: CUKXOW_clean_sbu_0, # of connection points: 6
#     Node 6, Type 0, BuildingBlock: CUKXOW_clean_sbu_0, # of connection points: 6
#     Node 7, Type 0, BuildingBlock: CUKXOW_clean_sbu_0, # of connection points: 6
#     Node 8, Type 0, BuildingBlock: CUKXOW_clean_sbu_0, # of connection points: 6
#     Node 9, Type 0, BuildingBlock: CUKXOW_clean_sbu_0, # of connection points: 6
#     Node 10, Type 0, BuildingBlock: CUKXOW_clean_sbu_0, # of connection points: 6
#     Node 11, Type 0, BuildingBlock: CUKXOW_clean_sbu_0, # of connection points: 6
#     Node 12, Type 0, BuildingBlock: CUKXOW_clean_sbu_0, # of connection points: 6
#     Node 13, Type 0, BuildingBlock: CUKXOW_clean_sbu_0, # of connection points: 6
#     Node 14, Type 0, BuildingBlock: CUKXOW_clean_sbu_0, # of connection points: 6
#     Node 15, Type 0, BuildingBlock: CUKXOW_clean_sbu_0, # of connection points: 6
#     Edge 16, Type (0, 0), BuildingBlock: UVAHIK_clean_linker_0, # of connection points: 2
#     Edge 17, Type (0, 0), BuildingBlock: UVAHIK_clean_linker_0, # of connection points: 2
#     Edge 18, Type (0, 0), BuildingBlock: UVAHIK_clean_linker_0, # of connection points: 2
#     Edge 19, Type (0, 0), BuildingBlock: UVAHIK_clean_linker_0, # of connection points: 2
#     Edge 20, Type (0, 0), BuildingBlock: UVAHIK_clean_linker_0, # of connection points: 2
#     Edge 21, Type (0, 0), BuildingBlock: UVAHIK_clean_linker_0, # of connection points: 2
#     Edge 22, Type (0, 0), BuildingBlock: UVAHIK_clean_linker_0, # of connection points: 2
#     Edge 23, Type (0, 0), BuildingBlock: UVAHIK_clean_linker_0, # of connection points: 2
#     Edge 24, Type (0, 0), BuildingBlock: UVAHIK_clean_linker_0, # of connection points: 2
#     Edge 25, Type (0, 0), BuildingBlock: UVAHIK_clean_linker_0, # of connection points: 2
#     Edge 26, Type (0, 0), BuildingBlock: UVAHIK_clean_linker_0, # of connection points: 2
#     Edge 27, Type (0, 0), BuildingBlock: UVAHIK_clean_linker_0, # of connection points: 2
#     Edge 28, Type (0, 0), BuildingBlock: UVAHIK_clean_linker_0, # of connection points: 2
#     Edge 29, Type (0, 0), BuildingBlock: UVAHIK_clean_linker_0, # of connection points: 2
#     Edge 30, Type (0, 0), BuildingBlock: UVAHIK_clean_linker_0, # of connection points: 2
#     Edge 31, Type (0, 0), BuildingBlock: UVAHIK_clean_linker_0, # of connection points: 2
#     Edge 32, Type (0, 0), BuildingBlock: UVAHIK_clean_linker_0, # of connection points: 2
#     Edge 33, Type (0, 0), BuildingBlock: UVAHIK_clean_linker_0, # of connection points: 2
#     Edge 34, Type (0, 0), BuildingBlock: UVAHIK_clean_linker_0, # of connection points: 2
#     Edge 35, Type (0, 0), BuildingBlock: UVAHIK_clean_linker_0, # of connection points: 2
#     Edge 36, Type (0, 0), BuildingBlock: UVAHIK_clean_linker_0, # of connection points: 2
#     Edge 37, Type (0, 0), BuildingBlock: UVAHIK_clean_linker_0, # of connection points: 2
#     Edge 38, Type (0, 0), BuildingBlock: UVAHIK_clean_linker_0, # of connection points: 2
#     Edge 39, Type (0, 0), BuildingBlock: UVAHIK_clean_linker_0, # of connection points: 2
#     Edge 40, Type (0, 0), BuildingBlock: UVAHIK_clean_linker_0, # of connection points: 2
#     Edge 41, Type (0, 0), BuildingBlock: UVAHIK_clean_linker_0, # of connection points: 2
#     Edge 42, Type (0, 0), BuildingBlock: UVAHIK_clean_linker_0, # of connection points: 2
#     Edge 43, Type (0, 0), BuildingBlock: UVAHIK_clean_linker_0, # of connection points: 2
#     Edge 44, Type (0, 0), BuildingBlock: UVAHIK_clean_linker_0, # of connection points: 2
#     Edge 45, Type (0, 0), BuildingBlock: UVAHIK_clean_linker_0, # of connection points: 2
#     Edge 46, Type (0, 0), BuildingBlock: UVAHIK_clean_linker_0, # of connection points: 2
#     Edge 47, Type (0, 0), BuildingBlock: UVAHIK_clean_linker_0, # of connection points: 2
#     Edge 48, Type (0, 0), BuildingBlock: UVAHIK_clean_linker_0, # of connection points: 2
#     Edge 49, Type (0, 0), BuildingBlock: UVAHIK_clean_linker_0, # of connection points: 2
#     Edge 50, Type (0, 0), BuildingBlock: UVAHIK_clean_linker_0, # of connection points: 2
#     Edge 51, Type (0, 0), BuildingBlock: UVAHIK_clean_linker_0, # of connection points: 2
#     Edge 52, Type (0, 0), BuildingBlock: UVAHIK_clean_linker_0, # of connection points: 2
#     Edge 53, Type (0, 0), BuildingBlock: UVAHIK_clean_linker_0, # of connection points: 2
#     Edge 54, Type (0, 0), BuildingBlock: UVAHIK_clean_linker_0, # of connection points: 2
#     Edge 55, Type (0, 0), BuildingBlock: UVAHIK_clean_linker_0, # of connection points: 2
#     Edge 56, Type (0, 0), BuildingBlock: UVAHIK_clean_linker_0, # of connection points: 2
#     Edge 57, Type (0, 0), BuildingBlock: UVAHIK_clean_linker_0, # of connection points: 2
#     Edge 58, Type (0, 0), BuildingBlock: UVAHIK_clean_linker_0, # of connection points: 2
#     Edge 59, Type (0, 0), BuildingBlock: UVAHIK_clean_linker_0, # of connection points: 2
#     Edge 60, Type (0, 0), BuildingBlock: UVAHIK_clean_linker_0, # of connection points: 2
#     Edge 61, Type (0, 0), BuildingBlock: UVAHIK_clean_linker_0, # of connection points: 2
#     Edge 62, Type (0, 0), BuildingBlock: UVAHIK_clean_linker_0, # of connection points: 2
#     Edge 63, Type (0, 0), BuildingBlock: UVAHIK_clean_linker_0, # of connection points: 2
# Relax obj value: 0.237
# Max RMSD: 0.250
# Mean RMSD: 0.250
data_MOF--net-whz--node1-CUKXOW_clean_sbu_0--edge1-UVAHIK_clean_linker_0
_symmetry_space_group_name_H-M    P1
_symmetry_Int_Tables_number       1
_symmetry_cell_setting            triclinic
loop_
_symmetry_equiv_pos_as_xyz
'x, y, z'
_cell_length_a     47.12639
_cell_length_b     47.140009
_cell_length_c     65.950623
_cell_angle_alpha  90.025103
_cell_angle_beta   90.072106
_cell_angle_gamma 89.977689
loop_
_atom_site_label
_atom_site_type_symbol
_atom_site_fract_x
_atom_site_fract_y
_atom_site_fract_z
_atom_type_partial_charge
Tb0 Tb 0.32687 0.14712 0.15926 0.0
C1 C 0.27708 0.18368 0.14176 0.0
Tb2 Tb 0.26716 0.1221 0.16029 0.0
O3 O 0.32781 0.1444 0.12623 0.0
O4 O 0.3041 0.1153 0.1428 0.0
O5 O 0.30273 0.18401 0.15003 0.0
C6 C 0.21525 0.10164 0.15313 0.0
O7 O 0.26104 0.16042 0.14158 0.0
C8 C 0.28254 0.14854 0.19356 0.0
C9 C 0.31457 0.0914 0.1854 0.0
O10 O 0.22107 0.12538 0.16207 0.0
O11 O 0.23881 0.08926 0.14789 0.0
O12 O 0.26435 0.12788 0.19304 0.0
O13 O 0.28902 0.15486 0.17563 0.0
O14 O 0.2898 0.08811 0.17598 0.0
O15 O 0.33141 0.11352 0.18196 0.0
C16 C 0.37702 0.17224 0.16602 0.0
O17 O 0.37357 0.14746 0.1577 0.0
O18 O 0.35236 0.18244 0.17076 0.0
C19 C 0.30949 0.12396 0.12512 0.0
Tb20 Tb 0.6125 0.57428 0.4066 0.0
C21 C 0.5764 0.52414 0.38908 0.0
Tb22 Tb 0.63769 0.51471 0.40816 0.0
O23 O 0.61595 0.57601 0.37367 0.0
O24 O 0.64442 0.55134 0.3902 0.0
O25 O 0.5759 0.54985 0.3972 0.0
C26 C 0.65816 0.46235 0.4027 0.0
O27 O 0.59976 0.50821 0.38909 0.0
C28 C 0.61141 0.53081 0.44124 0.0
C29 C 0.66815 0.56269 0.43295 0.0
O30 O 0.63357 0.46869 0.41018 0.0
O31 O 0.6713 0.48563 0.39787 0.0
O32 O 0.63217 0.51279 0.44096 0.0
O33 O 0.60477 0.53668 0.42327 0.0
O34 O 0.6716 0.53788 0.42363 0.0
O35 O 0.64592 0.57935 0.42938 0.0
C36 C 0.58625 0.62386 0.41341 0.0
O37 O 0.61153 0.62104 0.40576 0.0
O38 O 0.5762 0.59891 0.41744 0.0
C39 C 0.63589 0.55715 0.37249 0.0
Tb40 Tb 0.18214 0.86446 0.65923 0.0
C41 C 0.23021 0.8259 0.64089 0.0
Tb42 Tb 0.24376 0.88606 0.66033 0.0
O43 O 0.17912 0.87037 0.62632 0.0
O44 O 0.20693 0.8951 0.64331 0.0
O45 O 0.20449 0.82698 0.64897 0.0
C46 C 0.29605 0.90587 0.65362 0.0
O47 O 0.24764 0.84814 0.64095 0.0
C48 C 0.22709 0.85963 0.69325 0.0
C49 C 0.19782 0.91851 0.68605 0.0
O50 O 0.28987 0.88108 0.66084 0.0
O51 O 0.27268 0.91955 0.64981 0.0
O52 O 0.24681 0.87883 0.69289 0.0
O53 O 0.21992 0.85436 0.67525 0.0
O54 O 0.2229 0.92034 0.67689 0.0
O55 O 0.17939 0.8978 0.68227 0.0
C56 C 0.13209 0.83931 0.66638 0.0
O57 O 0.13531 0.86464 0.65889 0.0
O58 O 0.1569 0.82868 0.67013 0.0
C59 C 0.19989 0.88834 0.62549 0.0
Tb60 Tb 0.89759 0.43404 0.90802 0.0
C61 C 0.9349 0.48241 0.88928 0.0
Tb62 Tb 0.87414 0.49435 0.90794 0.0
O63 O 0.89437 0.43098 0.87508 0.0
O64 O 0.86643 0.45704 0.89093 0.0
O65 O 0.9348 0.45718 0.89813 0.0
C66 C 0.85516 0.54684 0.90084 0.0
O67 O 0.91192 0.49878 0.88866 0.0
C68 C 0.8999 0.47938 0.94165 0.0
C69 C 0.84172 0.44842 0.93323 0.0
O70 O 0.8796 0.54032 0.90852 0.0
O71 O 0.84132 0.52367 0.8968 0.0
O72 O 0.87966 0.49796 0.94066 0.0
O73 O 0.9063 0.47221 0.92385 0.0
O74 O 0.83945 0.47307 0.92358 0.0
O75 O 0.86331 0.43071 0.93031 0.0
C76 C 0.92305 0.38435 0.91592 0.0
O77 O 0.89815 0.38725 0.90765 0.0
O78 O 0.93309 0.40928 0.92004 0.0
C79 C 0.87485 0.45021 0.8734 0.0
Tb80 Tb 0.74396 0.88727 0.87583 0.0
C81 C 0.69597 0.91635 0.8505 0.0
Tb82 Tb 0.68509 0.86054 0.87671 0.0
O83 O 0.74725 0.88157 0.84311 0.0
O84 O 0.72323 0.85372 0.86038 0.0
O85 O 0.72021 0.92077 0.86037 0.0
C86 C 0.63557 0.83421 0.86997 0.0
O87 O 0.68009 0.89346 0.85361 0.0
C88 C 0.70157 0.88423 0.91096 0.0
C89 C 0.73563 0.82567 0.8946 0.0
O90 O 0.63836 0.85964 0.87736 0.0
O91 O 0.66053 0.824 0.86615 0.0
O92 O 0.68374 0.86338 0.90975 0.0
O93 O 0.7068 0.89299 0.89327 0.0
O94 O 0.71022 0.82441 0.88602 0.0
O95 O 0.75086 0.84945 0.89489 0.0
C96 C 0.79564 0.90842 0.88287 0.0
O97 O 0.79005 0.88441 0.87424 0.0
O98 O 0.77194 0.92074 0.88788 0.0
C99 C 0.72979 0.86031 0.84249 0.0
Tb100 Tb 0.37731 0.49683 0.62713 0.0
C101 C 0.3466 0.45183 0.59813 0.0
Tb102 Tb 0.39807 0.43535 0.62693 0.0
O103 O 0.41652 0.51096 0.61326 0.0
O104 O 0.40038 0.47048 0.60678 0.0
O105 O 0.34705 0.47807 0.60564 0.0
C106 C 0.42355 0.38581 0.61926 0.0
O107 O 0.36432 0.43158 0.60429 0.0
C108 C 0.3722 0.45172 0.66042 0.0
C109 C 0.43374 0.48223 0.64967 0.0
O110 O 0.39763 0.3887 0.62579 0.0
O111 O 0.43467 0.41076 0.61672 0.0
O112 O 0.39131 0.432 0.65964 0.0
O113 O 0.36632 0.45916 0.64254 0.0
O114 O 0.43435 0.45805 0.63937 0.0
O115 O 0.41079 0.49867 0.65013 0.0
C116 C 0.35005 0.54643 0.6287 0.0
O117 O 0.364 0.53661 0.61334 0.0
O118 O 0.35095 0.52804 0.64342 0.0
C119 C 0.42099 0.4871 0.60405 0.0
Tb120 Tb 0.7614 0.12894 0.37749 0.0
C121 C 0.8068 0.09895 0.34826 0.0
Tb122 Tb 0.8238 0.14796 0.37904 0.0
O123 O 0.74907 0.16916 0.36439 0.0
O124 O 0.78931 0.15216 0.35836 0.0
O125 O 0.78018 0.10016 0.355 0.0
C126 C 0.87316 0.17421 0.37211 0.0
O127 O 0.82745 0.11533 0.35556 0.0
C128 C 0.80635 0.12066 0.41164 0.0
C129 C 0.77669 0.1834 0.40202 0.0
O130 O 0.87048 0.14766 0.37729 0.0
O131 O 0.84814 0.18554 0.37058 0.0
O132 O 0.82811 0.13744 0.41134 0.0
O133 O 0.79822 0.11678 0.39358 0.0
O134 O 0.80139 0.18384 0.39238 0.0
O135 O 0.75953 0.16102 0.40139 0.0
C136 C 0.71127 0.10229 0.3768 0.0
O137 O 0.7202 0.12042 0.36356 0.0
O138 O 0.73075 0.09872 0.39051 0.0
C139 C 0.77338 0.17343 0.35572 0.0
Tb140 Tb 0.13651 0.51558 0.12508 0.0
C141 C 0.16656 0.5633 0.09974 0.0
Tb142 Tb 0.11242 0.57611 0.12727 0.0
O143 O 0.12905 0.5132 0.09255 0.0
O144 O 0.10342 0.53847 0.1107 0.0
O145 O 0.16996 0.53839 0.10893 0.0
C146 C 0.08592 0.62572 0.12098 0.0
O147 O 0.14475 0.58036 0.10368 0.0
C148 C 0.13775 0.55841 0.16059 0.0
C149 C 0.07629 0.52632 0.14546 0.0
O150 O 0.11192 0.62292 0.12735 0.0
O151 O 0.07531 0.60074 0.1179 0.0
O152 O 0.11908 0.5786 0.16018 0.0
O153 O 0.1443 0.55217 0.1426 0.0
O154 O 0.07607 0.55233 0.13785 0.0
O155 O 0.09907 0.50965 0.14458 0.0
C156 C 0.15752 0.46356 0.1311 0.0
O157 O 0.13267 0.46944 0.1238 0.0
O158 O 0.17067 0.4871 0.1353 0.0
C159 C 0.10885 0.53191 0.09259 0.0
Tb160 Tb 0.82455 0.64783 0.65782 0.0
C161 C 0.77469 0.68346 0.63935 0.0
Tb162 Tb 0.7649 0.62262 0.6588 0.0
O163 O 0.82711 0.64407 0.62495 0.0
O164 O 0.80191 0.61584 0.64121 0.0
O165 O 0.8002 0.68416 0.64781 0.0
C166 C 0.71269 0.60194 0.6528 0.0
O167 O 0.75875 0.66014 0.63936 0.0
C168 C 0.78008 0.64967 0.69195 0.0
C169 C 0.81255 0.59229 0.68402 0.0
O170 O 0.71878 0.62664 0.66021 0.0
O171 O 0.73614 0.5888 0.64836 0.0
O172 O 0.76206 0.6289 0.69152 0.0
O173 O 0.78655 0.65574 0.67398 0.0
O174 O 0.78786 0.58884 0.67453 0.0
O175 O 0.82922 0.61454 0.68066 0.0
C176 C 0.87388 0.67444 0.66496 0.0
O177 O 0.87133 0.64911 0.65734 0.0
O178 O 0.8488 0.68432 0.66882 0.0
C179 C 0.80816 0.62424 0.62355 0.0
Tb180 Tb 0.11285 0.07603 0.9098 0.0
C181 C 0.07562 0.02702 0.89174 0.0
Tb182 Tb 0.13698 0.0158 0.9102 0.0
O183 O 0.11571 0.0776 0.87676 0.0
O184 O 0.14432 0.05306 0.8932 0.0
O185 O 0.07568 0.0525 0.90025 0.0
C186 C 0.15723 0.96394 0.90259 0.0
O187 O 0.09865 0.01065 0.89138 0.0
C188 C 0.11093 0.03099 0.94365 0.0
C189 C 0.16862 0.06232 0.93557 0.0
O190 O 0.13353 0.9697 0.91163 0.0
O191 O 0.16961 0.98754 0.89749 0.0
O192 O 0.13124 0.01242 0.94291 0.0
O193 O 0.10464 0.03794 0.92578 0.0
O194 O 0.17122 0.03752 0.92613 0.0
O195 O 0.14696 0.07986 0.93228 0.0
C196 C 0.08753 0.12596 0.91703 0.0
O197 O 0.11225 0.12276 0.90858 0.0
O198 O 0.07757 0.10119 0.92169 0.0
C199 C 0.13586 0.05898 0.87555 0.0
Tb200 Tb 0.68628 0.35965 0.15596 0.0
C201 C 0.73502 0.3263 0.13405 0.0
Tb202 Tb 0.74575 0.38491 0.1551 0.0
O203 O 0.68228 0.3648 0.12316 0.0
O204 O 0.70737 0.39271 0.13956 0.0
O205 O 0.71113 0.3244 0.14454 0.0
C206 C 0.79338 0.41537 0.15305 0.0
O207 O 0.74995 0.35023 0.13311 0.0
C208 C 0.73997 0.34149 0.17932 0.0
C209 C 0.69899 0.41312 0.18373 0.0
O210 O 0.78189 0.4055 0.1694 0.0
O211 O 0.77768 0.40856 0.13752 0.0
O212 O 0.76331 0.34787 0.17004 0.0
O213 O 0.72168 0.36052 0.17605 0.0
O214 O 0.72446 0.41548 0.17516 0.0
O215 O 0.68079 0.39275 0.17873 0.0
C216 C 0.6375 0.33296 0.16388 0.0
O217 O 0.6397 0.35902 0.15754 0.0
O218 O 0.66273 0.32226 0.16603 0.0
C219 C 0.70031 0.38541 0.12186 0.0
Tb220 Tb 0.39643 0.93233 0.40969 0.0
C221 C 0.43271 0.98158 0.39145 0.0
Tb222 Tb 0.37148 0.99199 0.41011 0.0
O223 O 0.39314 0.92961 0.37676 0.0
O224 O 0.36465 0.95481 0.39276 0.0
O225 O 0.43315 0.9564 0.40034 0.0
C226 C 0.35167 0.04433 0.40328 0.0
O227 O 0.4093 0.99738 0.39078 0.0
C228 C 0.39803 0.97744 0.4436 0.0
C229 C 0.34113 0.94505 0.43583 0.0
O230 O 0.37629 0.03805 0.41076 0.0
O231 O 0.33805 0.02099 0.39932 0.0
O232 O 0.37733 0.99553 0.44283 0.0
O233 O 0.40436 0.97053 0.42574 0.0
O234 O 0.33743 0.96932 0.42585 0.0
O235 O 0.36348 0.92842 0.43276 0.0
C236 C 0.4223 0.8826 0.41671 0.0
O237 O 0.39679 0.88556 0.40946 0.0
O238 O 0.43278 0.90751 0.4203 0.0
C239 C 0.37323 0.94843 0.37518 0.0
Tb240 Tb 0.24363 0.38636 0.37519 0.0
C241 C 0.19572 0.41605 0.35004 0.0
Tb242 Tb 0.18418 0.36068 0.37666 0.0
O243 O 0.2463 0.38036 0.34249 0.0
O244 O 0.22195 0.35318 0.36007 0.0
O245 O 0.22025 0.42007 0.35964 0.0
C246 C 0.13407 0.33508 0.37047 0.0
O247 O 0.17936 0.39358 0.35349 0.0
C248 C 0.2018 0.38443 0.41062 0.0
C249 C 0.23444 0.32483 0.39407 0.0
O250 O 0.13746 0.36023 0.37822 0.0
O251 O 0.15878 0.32476 0.36598 0.0
O252 O 0.18363 0.36385 0.40973 0.0
O253 O 0.20681 0.39288 0.39283 0.0
O254 O 0.2088 0.3241 0.38581 0.0
O255 O 0.25015 0.34833 0.39417 0.0
C256 C 0.29578 0.40674 0.38182 0.0
O257 O 0.28969 0.3827 0.37339 0.0
O258 O 0.27233 0.41951 0.38684 0.0
C259 C 0.22834 0.35951 0.3421 0.0
Tb260 Tb 0.87374 0.99556 0.12545 0.0
C261 C 0.84146 0.94891 0.10059 0.0
Tb262 Tb 0.89676 0.93499 0.12683 0.0
O263 O 0.87974 0.99799 0.09276 0.0
O264 O 0.90586 0.97243 0.11028 0.0
O265 O 0.83926 0.97401 0.10966 0.0
C266 C 0.92181 0.88471 0.12029 0.0
O267 O 0.8627 0.93102 0.10429 0.0
C268 C 0.87387 0.95359 0.16079 0.0
C269 C 0.93466 0.9839 0.14435 0.0
O270 O 0.89726 0.88828 0.12893 0.0
O271 O 0.93171 0.90928 0.11507 0.0
O272 O 0.89368 0.93454 0.15992 0.0
O273 O 0.86563 0.959 0.143 0.0
O274 O 0.93423 0.95821 0.13618 0.0
O275 O 0.91189 1.00062 0.14444 0.0
C276 C 0.85455 0.0481 0.13193 0.0
O277 O 0.87858 0.0415 0.12369 0.0
O278 O 0.84122 0.02498 0.13691 0.0
C279 C 0.89975 0.97909 0.09232 0.0
Tb280 Tb 0.26581 0.62331 0.87601 0.0
C281 C 0.31176 0.59126 0.85036 0.0
Tb282 Tb 0.32611 0.64679 0.87598 0.0
O283 O 0.26187 0.62889 0.84335 0.0
O284 O 0.28791 0.65548 0.8601 0.0
O285 O 0.28707 0.58889 0.85995 0.0
C286 C 0.3761 0.67174 0.86841 0.0
O287 O 0.32948 0.61275 0.85351 0.0
C288 C 0.30972 0.62416 0.91056 0.0
C289 C 0.27761 0.68444 0.89434 0.0
O290 O 0.37287 0.64691 0.87669 0.0
O291 O 0.35131 0.68202 0.86411 0.0
O292 O 0.32882 0.64379 0.90896 0.0
O293 O 0.30316 0.61571 0.89299 0.0
O294 O 0.30295 0.68415 0.88563 0.0
O295 O 0.26115 0.66151 0.89493 0.0
C296 C 0.2138 0.60336 0.88348 0.0
O297 O 0.21968 0.6277 0.87541 0.0
O298 O 0.23733 0.59023 0.88769 0.0
C299 C 0.28049 0.64908 0.84233 0.0
Tb300 Tb 0.63596 0.01571 0.62636 0.0
C301 C 0.66587 0.06342 0.6012 0.0
Tb302 Tb 0.61108 0.07579 0.62811 0.0
O303 O 0.62897 0.01308 0.59378 0.0
O304 O 0.60264 0.03792 0.61167 0.0
O305 O 0.66969 0.03892 0.61083 0.0
C306 C 0.58478 0.12537 0.62134 0.0
O307 O 0.64351 0.07997 0.60457 0.0
C308 C 0.63637 0.05887 0.66164 0.0
C309 C 0.57559 0.02583 0.6466 0.0
O310 O 0.61059 0.12257 0.62807 0.0
O311 O 0.57419 0.10038 0.61821 0.0
O312 O 0.61726 0.07863 0.66104 0.0
O313 O 0.64322 0.05257 0.64371 0.0
O314 O 0.57491 0.05161 0.63858 0.0
O315 O 0.5988 0.00972 0.64613 0.0
C316 C 0.65682 0.96363 0.63227 0.0
O317 O 0.63179 0.96962 0.62538 0.0
O318 O 0.67027 0.9871 0.63616 0.0
C319 C 0.60839 0.03136 0.59362 0.0
C320 C 0.27116 0.16153 0.22907 0.0
C321 C 0.2834 0.16883 0.21042 0.0
C322 C 0.26651 0.18224 0.24379 0.0
C323 C 0.25296 0.2583 0.24688 0.0
H324 H 0.26019 0.24644 0.30482 0.0
C325 C 0.23947 0.3466 0.30654 0.0
C326 C 0.22737 0.33925 0.32523 0.0
C327 C 0.24404 0.32592 0.29179 0.0
C328 C 0.25764 0.24986 0.28868 0.0
H329 H 0.30249 0.20281 0.19299 0.0
H330 H 0.29467 0.23906 0.21887 0.0
H331 H 0.2769 0.21002 0.28144 0.0
H332 H 0.20839 0.30525 0.34269 0.0
H333 H 0.21605 0.26905 0.31675 0.0
H334 H 0.2337 0.29814 0.25412 0.0
C335 C 0.28815 0.21745 0.22195 0.0
C336 C 0.26739 0.22911 0.27532 0.0
C337 C 0.29287 0.19669 0.20724 0.0
C338 C 0.21792 0.31139 0.32841 0.0
C339 C 0.22254 0.29066 0.31367 0.0
C340 C 0.24321 0.27905 0.26024 0.0
C341 C 0.27405 0.21059 0.24006 0.0
C342 C 0.26516 0.23313 0.25429 0.0
C343 C 0.23655 0.29756 0.29552 0.0
C344 C 0.24543 0.27502 0.28128 0.0
H345 H 0.26381 0.14011 0.23188 0.0
H346 H 0.25554 0.17633 0.25758 0.0
H347 H 0.25043 0.26172 0.23074 0.0
H348 H 0.24677 0.36803 0.30372 0.0
H349 H 0.25492 0.33186 0.27797 0.0
C350 C 0.47011 0.49486 0.59284 0.0
C351 C 0.44313 0.48385 0.5888 0.0
C352 C 0.48973 0.49793 0.57724 0.0
C353 C 0.50277 0.4826 0.52246 0.0
H354 H 0.54626 0.55234 0.52627 0.0
C355 C 0.56242 0.53279 0.45506 0.0
C356 C 0.59183 0.53246 0.45838 0.0
C357 C 0.54386 0.52837 0.47123 0.0
C358 C 0.53415 0.53287 0.52507 0.0
H359 H 0.41547 0.46604 0.56592 0.0
H360 H 0.44918 0.47264 0.53825 0.0
H361 H 0.51556 0.53844 0.55421 0.0
H362 H 0.62511 0.52938 0.48094 0.0
H363 H 0.59244 0.52288 0.50945 0.0
H364 H 0.52079 0.47798 0.4928 0.0
C365 C 0.45577 0.47814 0.55348 0.0
C366 C 0.51686 0.52462 0.54114 0.0
C367 C 0.43641 0.47432 0.56928 0.0
C368 C 0.60244 0.52971 0.47815 0.0
C369 C 0.58387 0.52598 0.49436 0.0
C370 C 0.51963 0.49122 0.50621 0.0
C371 C 0.48229 0.49096 0.55718 0.0
C372 C 0.50112 0.49923 0.54013 0.0
C373 C 0.55456 0.52434 0.49087 0.0
C374 C 0.5355 0.51631 0.5075 0.0
H375 H 0.47562 0.50213 0.60794 0.0
H376 H 0.5103 0.50687 0.58081 0.0
H377 H 0.4913 0.46278 0.52121 0.0
H378 H 0.55384 0.53469 0.43987 0.0
H379 H 0.52124 0.52728 0.46834 0.0
C380 C 0.21553 0.81135 0.70632 0.0
C381 C 0.22507 0.8391 0.70991 0.0
C382 C 0.21946 0.79038 0.72102 0.0
C383 C 0.23859 0.77828 0.77486 0.0
H384 H 0.27273 0.70925 0.75405 0.0
C385 C 0.28981 0.69724 0.82826 0.0
C386 C 0.28077 0.66918 0.82533 0.0
C387 C 0.28446 0.71771 0.81344 0.0
C388 C 0.26306 0.72834 0.76006 0.0
H389 H 0.24393 0.86742 0.73201 0.0
H390 H 0.25081 0.83092 0.75764 0.0
H391 H 0.25607 0.74548 0.73046 0.0
H392 H 0.26129 0.63983 0.8042 0.0
H393 H 0.252 0.67553 0.7783 0.0
H394 H 0.24576 0.76121 0.80446 0.0
C395 C 0.24037 0.8252 0.74358 0.0
C396 C 0.25333 0.74898 0.74658 0.0
C397 C 0.23653 0.84609 0.72889 0.0
C398 C 0.26831 0.66142 0.80681 0.0
C399 C 0.26306 0.68183 0.79198 0.0
C400 C 0.24836 0.75767 0.78834 0.0
C401 C 0.23281 0.79694 0.73952 0.0
C402 C 0.24109 0.77421 0.75384 0.0
C403 C 0.27018 0.71035 0.79546 0.0
C404 C 0.26081 0.73255 0.78107 0.0
H405 H 0.20658 0.80547 0.69178 0.0
H406 H 0.21296 0.76886 0.71764 0.0
H407 H 0.22899 0.79738 0.78089 0.0
H408 H 0.29956 0.70372 0.8424 0.0
H409 H 0.29066 0.73947 0.81633 0.0
C410 C 0.94813 0.47032 0.95582 0.0
C411 C 0.91992 0.4789 0.95873 0.0
C412 C 0.96842 0.47546 0.97083 0.0
C413 C 0.97828 0.49518 0.02463 0.0
H414 H 0.04704 0.53085 1.00481 0.0
C415 C 0.06019 0.54235 0.0796 0.0
C416 C 0.08819 0.53363 0.07595 0.0
C417 C 0.03934 0.53833 0.06479 0.0
C418 C 0.02803 0.52079 1.01056 0.0
H419 H 0.89015 0.4974 0.97997 0.0
H420 H 0.92551 0.50629 1.00622 0.0
H421 H 0.01135 0.51439 0.98074 0.0
H422 H 0.11701 0.51607 0.05367 0.0
H423 H 0.08075 0.50902 0.02786 0.0
H424 H 0.99505 0.5014 0.05445 0.0
C425 C 0.93207 0.49574 0.9924 0.0
C426 C 0.00769 0.5112 0.99679 0.0
C427 C 0.91185 0.49073 0.97737 0.0
C428 C 0.09549 0.52283 0.05684 0.0
C429 C 0.07473 0.5189 0.04204 0.0
C430 C 0.99867 0.50472 0.03841 0.0
C431 C 0.96072 0.48907 0.989 0.0
C432 C 0.98267 0.4982 1.00368 0.0
C433 C 0.04627 0.52571 0.04611 0.0
C434 C 0.0238 0.51754 0.03151 0.0
H435 H 0.95485 0.46109 0.94157 0.0
H436 H 0.99028 0.46962 0.96798 0.0
H437 H 0.95927 0.48509 0.03035 0.0
H438 H 0.05407 0.5508 0.09424 0.0
H439 H 0.01765 0.54426 0.06819 0.0
C440 C 0.72031 0.81218 0.82837 0.0
C441 C 0.72932 0.84025 0.82546 0.0
C442 C 0.72488 0.79186 0.81332 0.0
C443 C 0.77362 0.77785 0.77119 0.0
H444 H 0.72139 0.7168 0.75867 0.0
C445 C 0.78968 0.69815 0.70546 0.0
C446 C 0.7808 0.67012 0.70875 0.0
C447 C 0.78513 0.71882 0.72028 0.0
C448 C 0.73636 0.73352 0.76222 0.0
H449 H 0.74799 0.86976 0.80412 0.0
H450 H 0.75552 0.83437 0.77765 0.0
H451 H 0.70705 0.75399 0.78221 0.0
H452 H 0.7624 0.64105 0.7305 0.0
H453 H 0.75488 0.67702 0.75655 0.0
H454 H 0.80292 0.75735 0.75118 0.0
C455 C 0.74565 0.82787 0.79173 0.0
C456 C 0.72808 0.75486 0.77563 0.0
C457 C 0.74114 0.84814 0.80678 0.0
C458 C 0.76916 0.66262 0.72756 0.0
C459 C 0.76465 0.68323 0.74237 0.0
C460 C 0.78189 0.75651 0.75777 0.0
C461 C 0.73842 0.79935 0.7951 0.0
C462 C 0.74663 0.77724 0.78027 0.0
C463 C 0.7717 0.7117 0.73862 0.0
C464 C 0.76337 0.73408 0.7532 0.0
H465 H 0.71114 0.80558 0.84267 0.0
H466 H 0.71915 0.77004 0.81639 0.0
H467 H 0.7886 0.79454 0.77477 0.0
H468 H 0.79868 0.70446 0.69104 0.0
H469 H 0.79074 0.7406 0.71695 0.0
C470 C 0.75952 0.2991 0.19615 0.0
C471 C 0.73927 0.32088 0.19589 0.0
C472 C 0.76311 0.2825 0.2134 0.0
C473 C 0.73136 0.26308 0.2626 0.0
H474 H 0.81 0.2516 0.27828 0.0
C475 C 0.75886 0.21869 0.34024 0.0
C476 C 0.77686 0.19502 0.33999 0.0
C477 C 0.75669 0.23608 0.32328 0.0
C478 C 0.78799 0.25454 0.27402 0.0
H479 H 0.70559 0.3415 0.21265 0.0
H480 H 0.71209 0.31265 0.24315 0.0
H481 H 0.79898 0.27586 0.24655 0.0
H482 H 0.8086 0.17211 0.3228 0.0
H483 H 0.80475 0.20263 0.29285 0.0
H484 H 0.72039 0.24191 0.29012 0.0
C485 C 0.72507 0.30822 0.22998 0.0
C486 C 0.78163 0.26826 0.25583 0.0
C487 C 0.7213 0.32471 0.21258 0.0
C488 C 0.79457 0.19031 0.32325 0.0
C489 C 0.79232 0.20772 0.30617 0.0
C490 C 0.73772 0.24949 0.2808 0.0
C491 C 0.74666 0.28759 0.23076 0.0
C492 C 0.75324 0.2726 0.24991 0.0
C493 C 0.77243 0.22999 0.30577 0.0
C494 C 0.76608 0.24514 0.2867 0.0
H495 H 0.77335 0.2956 0.18327 0.0
H496 H 0.77935 0.26623 0.21335 0.0
H497 H 0.70932 0.2658 0.25833 0.0
H498 H 0.74531 0.2229 0.35317 0.0
H499 H 0.74175 0.25355 0.32353 0.0
C500 C 0.94776 0.96776 0.07876 0.0
C501 C 0.92002 0.97759 0.07548 0.0
C502 C 0.96858 0.97199 0.06404 0.0
C503 C 0.98047 0.99226 1.01053 0.0
H504 H 0.04999 0.02507 0.03167 0.0
C505 C 0.0629 0.04152 0.95748 0.0
C506 C 0.09074 0.03184 0.96055 0.0
C507 C 0.04221 0.03681 0.97222 0.0
C508 C 0.03077 0.0158 0.02556 0.0
H509 H 0.89156 0.9973 0.05384 0.0
H510 H 0.92788 1.00473 0.02814 0.0
H511 H 0.01347 0.00877 0.05508 0.0
H512 H 0.1195 0.01187 0.98187 0.0
H513 H 0.0834 1.00363 1.00763 0.0
H514 H 0.99774 0.99935 0.98101 0.0
C515 C 0.93365 0.99384 0.04201 0.0
C516 C 0.00995 0.00628 0.03895 0.0
C517 C 0.91288 0.98968 0.05673 0.0
C518 C 0.0981 0.01938 0.97914 0.0
C519 C 0.07745 0.01474 0.99389 0.0
C520 C 1.00127 1.00179 0.99715 0.0
C521 C 0.96191 0.98596 0.04582 0.0
C522 C 0.98459 0.99443 0.03156 0.0
C523 C 0.04912 0.02251 0.99026 0.0
C524 C 0.0266 0.0137 1.00453 0.0
H525 H 0.95376 0.95828 0.0931 0.0
H526 H 0.99011 0.96521 0.0672 0.0
H527 H 0.96124 0.98301 1.00442 0.0
H528 H 0.05674 0.05129 0.94328 0.0
H529 H 0.02062 0.04351 0.96922 0.0
C530 C 0.44647 0.96879 0.45754 0.0
C531 C 0.41819 0.97703 0.46059 0.0
C532 C 0.46678 0.97382 0.47256 0.0
C533 C 0.47954 0.02269 0.51494 0.0
H534 H 0.5426 0.97255 0.52678 0.0
C535 C 0.55952 0.04033 0.58049 0.0
C536 C 0.58777 0.03234 0.57693 0.0
C537 C 0.53882 0.03552 0.5657 0.0
C538 C 0.5253 0.98694 0.52342 0.0
H539 H 0.38831 0.9947 0.48211 0.0
H540 H 0.42365 1.00294 0.50853 0.0
H541 H 0.50568 0.95716 0.50332 0.0
H542 H 0.61716 0.0155 0.55473 0.0
H543 H 0.58113 0.00757 0.52877 0.0
H544 H 0.49918 0.05245 0.53509 0.0
C545 C 0.43034 0.99338 0.49438 0.0
C546 C 0.50412 0.97807 0.51006 0.0
C547 C 0.4101 0.98845 0.47936 0.0
C548 C 0.59541 0.02153 0.55789 0.0
C549 C 0.57479 0.01678 0.54312 0.0
C550 C 0.50071 0.03155 0.52834 0.0
C551 C 0.45905 0.98703 0.49087 0.0
C552 C 0.48103 0.99585 0.50566 0.0
C553 C 0.54614 0.02275 0.54714 0.0
C554 C 0.52386 0.01381 0.53264 0.0
H555 H 0.45323 0.95997 0.44316 0.0
H556 H 0.48875 0.96876 0.46938 0.0
H557 H 0.46228 0.03711 0.51156 0.0
H558 H 0.55312 0.0487 0.59508 0.0
H559 H 0.5169 0.04033 0.56923 0.0
C560 C 0.19933 0.04621 0.96441 0.0
C561 C 0.1877 0.06854 0.95297 0.0
C562 C 0.21298 0.05153 0.98292 0.0
C563 C 0.21966 0.10825 0.0227 0.0
H564 H 0.27787 0.05829 0.04402 0.0
C565 C 0.29322 0.13595 0.09023 0.0
C566 C 0.29411 0.11637 0.10628 0.0
C567 C 0.27933 0.12933 0.0721 0.0
C568 C 0.26144 0.07224 0.0383 0.0
H569 H 0.18263 0.11412 0.95152 0.0
H570 H 0.20799 0.12369 0.98298 0.0
H571 H 0.25789 0.04923 1.01047 0.0
H572 H 0.28121 0.07446 0.11597 0.0
H573 H 0.25763 0.06235 0.0837 0.0
H574 H 0.2245 0.13198 0.05027 0.0
C575 C 0.20553 0.10184 0.97826 0.0
C576 C 0.24984 0.06706 0.01905 0.0
C577 C 0.1913 0.09644 0.95998 0.0
C578 C 0.28079 0.08992 0.10384 0.0
C579 C 0.26744 0.08299 0.0854 0.0
C580 C 0.23172 0.11374 0.04172 0.0
C581 C 0.21591 0.07942 0.99037 0.0
C582 C 0.22874 0.08502 1.01088 0.0
C583 C 0.26655 0.10272 0.06939 0.0
C584 C 0.25272 0.09581 0.04972 0.0
H585 H 0.19649 0.02439 0.95966 0.0
H586 H 0.22015 0.03353 0.99172 0.0
H587 H 0.20298 0.12221 1.01743 0.0
H588 H 0.30316 0.15656 0.09171 0.0
H589 H 0.27905 0.14487 0.06 0.0
C590 C 0.66596 0.52271 0.3523 0.0
C591 C 0.64484 0.5437 0.35315 0.0
C592 C 0.67273 0.5095 0.33379 0.0
C593 C 0.64254 0.49724 0.2821 0.0
H594 H 0.71926 0.47481 0.26842 0.0
C595 C 0.66655 0.42721 0.21225 0.0
C596 C 0.69189 0.43157 0.20141 0.0
C597 C 0.66124 0.44177 0.23035 0.0
C598 C 0.69773 0.48121 0.27187 0.0
H599 H 0.61505 0.56807 0.33512 0.0
H600 H 0.62722 0.54591 0.3031 0.0
H601 H 0.70998 0.4983 0.30075 0.0
H602 H 0.73118 0.45553 0.20107 0.0
H603 H 0.72155 0.4815 0.23237 0.0
H604 H 0.63031 0.48097 0.25313 0.0
C605 C 0.63808 0.53881 0.31666 0.0
C606 C 0.69234 0.49434 0.29059 0.0
C607 C 0.63125 0.55176 0.33507 0.0
C608 C 0.7114 0.45161 0.20893 0.0
C609 C 0.70602 0.4663 0.22705 0.0
C610 C 0.64793 0.48428 0.26341 0.0
C611 C 0.6586 0.51717 0.31572 0.0
C612 C 0.66465 0.50263 0.29597 0.0
C613 C 0.68101 0.46131 0.23818 0.0
C614 C 0.67558 0.47597 0.25799 0.0
H615 H 0.6771 0.51639 0.3659 0.0
H616 H 0.6886 0.49289 0.33374 0.0
H617 H 0.62084 0.50283 0.28572 0.0
H618 H 0.65106 0.41183 0.20712 0.0
H619 H 0.64193 0.43696 0.23853 0.0
C620 C 0.19593 0.9035 0.58935 0.0
C621 C 0.21299 0.89838 0.6064 0.0
C622 C 0.2081 0.91088 0.5707 0.0
C623 C 0.27759 0.93216 0.54669 0.0
H624 H 0.23967 0.90806 0.49736 0.0
C625 C 0.33304 0.92064 0.46901 0.0
C626 C 0.32269 0.93851 0.45356 0.0
C627 C 0.31804 0.91709 0.4871 0.0
C628 C 0.25032 0.91512 0.51102 0.0
H629 H 0.25619 0.89578 0.61715 0.0
H630 H 0.27772 0.90746 0.58471 0.0
H631 H 0.21741 0.89922 0.53013 0.0
H632 H 0.28777 0.96593 0.44492 0.0
H633 H 0.2608 0.9586 0.47645 0.0
H634 H 0.31128 0.9464 0.52732 0.0
C635 C 0.25481 0.9073 0.5857 0.0
C636 C 0.23753 0.91025 0.52991 0.0
C637 C 0.24251 0.90061 0.60446 0.0
C638 C 0.29629 0.95192 0.45643 0.0
C639 C 0.2809 0.94779 0.47445 0.0
C640 C 0.29061 0.93639 0.52785 0.0
C641 C 0.23782 0.91246 0.56843 0.0
C642 C 0.251 0.91857 0.54812 0.0
C643 C 0.29199 0.93081 0.4901 0.0
C644 C 0.27716 0.92783 0.50986 0.0
H645 H 0.17305 0.90182 0.59043 0.0
H646 H 0.19406 0.91526 0.5581 0.0
H647 H 0.28851 0.93962 0.56011 0.0
H648 H 0.3534 0.91017 0.46754 0.0
H649 H 0.32697 0.90379 0.49889 0.0
C650 C 0.80071 0.55273 0.70843 0.0
C651 C 0.82001 0.57316 0.70124 0.0
C652 C 0.80614 0.53781 0.72646 0.0
C653 C 0.86392 0.52017 0.76325 0.0
H654 H 0.8016 0.50672 0.80035 0.0
C655 C 0.88006 0.45452 0.83594 0.0
C656 C 0.86628 0.46312 0.85379 0.0
C657 C 0.87344 0.46693 0.81728 0.0
C658 C 0.81931 0.51051 0.79026 0.0
H659 H 0.86065 0.59315 0.70728 0.0
H660 H 0.86989 0.56757 0.73848 0.0
H661 H 0.79252 0.52958 0.76776 0.0
H662 H 0.83391 0.49084 0.8659 0.0
H663 H 0.82276 0.51336 0.83333 0.0
H664 H 0.89086 0.50209 0.7859 0.0
C665 C 0.85067 0.5627 0.73017 0.0
C666 C 0.81403 0.52327 0.77139 0.0
C667 C 0.84529 0.57752 0.71219 0.0
C668 C 0.8452 0.48411 0.85248 0.0
C669 C 0.83863 0.49675 0.83374 0.0
C670 C 0.86919 0.50755 0.78209 0.0
C671 C 0.83101 0.54292 0.73777 0.0
C672 C 0.83629 0.52835 0.75761 0.0
C673 C 0.85291 0.48851 0.81588 0.0
C674 C 0.84699 0.50244 0.79589 0.0
H675 H 0.78096 0.54883 0.70049 0.0
H676 H 0.7907 0.52243 0.73161 0.0
H677 H 0.88161 0.52339 0.75305 0.0
H678 H 0.89626 0.43821 0.83636 0.0
H679 H 0.88444 0.45944 0.80391 0.0
C680 C 0.811 0.96498 0.07157 0.0
C681 C 0.82239 0.94264 0.08317 0.0
C682 C 0.79704 0.95954 0.05319 0.0
C683 C 0.75744 0.90663 0.0246 0.0
H684 H 0.7868 0.94301 0.97625 0.0
C685 C 0.71805 0.87218 0.94574 0.0
C686 C 0.71668 0.89199 0.92989 0.0
C687 C 0.73111 0.87898 0.96413 0.0
C688 C 0.77787 0.933 0.98956 0.0
H689 H 0.82709 0.89697 0.08483 0.0
H690 H 0.8015 0.88742 0.05316 0.0
H691 H 0.80744 0.95406 1.00931 0.0
H692 H 0.72825 0.93446 0.92073 0.0
H693 H 0.74992 0.94714 0.9533 0.0
H694 H 0.72713 0.88644 1.00538 0.0
C695 C 0.80382 0.90917 0.05821 0.0
C696 C 0.78988 0.93926 1.00852 0.0
C697 C 0.81841 0.91464 0.07636 0.0
C698 C 0.72904 0.91878 0.93272 0.0
C699 C 0.74161 0.92591 0.95141 0.0
C700 C 0.745 0.90084 1.00575 0.0
C701 C 0.79356 0.9316 0.04621 0.0
C702 C 0.78001 0.92589 0.02621 0.0
C703 C 0.74261 0.90616 0.96752 0.0
C704 C 0.75525 0.91356 0.98781 0.0
H705 H 0.81403 0.98683 0.07617 0.0
H706 H 0.78919 0.97722 0.04431 0.0
H707 H 0.74918 0.89627 0.03801 0.0
H708 H 0.70913 0.85115 0.94389 0.0
H709 H 0.73221 0.86269 0.97566 0.0
C710 C 0.29508 0.56131 0.82131 0.0
C711 C 0.31761 0.57217 0.83293 0.0
C712 C 0.3002 0.54781 0.80273 0.0
C713 C 0.35716 0.54032 0.76323 0.0
H714 H 0.30588 0.48393 0.74105 0.0
C715 C 0.38343 0.46608 0.69585 0.0
C716 C 0.36464 0.46697 0.6793 0.0
C717 C 0.37686 0.47988 0.714 0.0
C718 C 0.3202 0.49986 0.74702 0.0
H719 H 0.36331 0.57601 0.83468 0.0
H720 H 0.37249 0.55085 0.80311 0.0
H721 H 0.29695 0.50357 0.77471 0.0
H722 H 0.32415 0.48288 0.66874 0.0
H723 H 0.31202 0.50631 0.70106 0.0
H724 H 0.38113 0.53523 0.73581 0.0
C725 C 0.35067 0.55383 0.80772 0.0
C726 C 0.3151 0.51127 0.76633 0.0
C727 C 0.34548 0.56792 0.82606 0.0
C728 C 0.339 0.48193 0.68127 0.0
C729 C 0.33205 0.49519 0.69972 0.0
C730 C 0.36256 0.52843 0.74417 0.0
C731 C 0.32808 0.54427 0.79541 0.0
C732 C 0.33354 0.53169 0.77482 0.0
C733 C 0.35102 0.49433 0.71621 0.0
C734 C 0.34415 0.50811 0.73587 0.0
H735 H 0.2733 0.56467 0.82597 0.0
H736 H 0.2821 0.54128 0.79377 0.0
H737 H 0.37152 0.5565 0.76874 0.0
H738 H 0.40343 0.45485 0.69473 0.0
H739 H 0.39179 0.47884 0.72648 0.0
C740 C 0.76385 0.10993 0.43334 0.0
C741 C 0.7933 0.10963 0.43053 0.0
C742 C 0.75192 0.1029 0.4521 0.0
C743 C 0.77076 0.09531 0.50717 0.0
H744 H 0.69427 0.06535 0.50997 0.0
C745 C 0.71076 0.05678 0.58076 0.0
C746 C 0.68444 0.07035 0.58364 0.0
C747 C 0.72624 0.06091 0.56279 0.0
C748 C 0.71568 0.0737 0.5094 0.0
H749 H 0.83352 0.10146 0.44526 0.0
H750 H 0.81289 0.0876 0.47773 0.0
H751 H 0.71692 0.07127 0.4771 0.0
H752 H 0.65409 0.09921 0.56987 0.0
H753 H 0.68069 0.1057 0.53857 0.0
H754 H 0.76939 0.0967 0.53977 0.0
C755 C 0.79875 0.09402 0.46562 0.0
C756 C 0.72867 0.07737 0.49051 0.0
C757 C 0.81065 0.10164 0.4469 0.0
C758 C 0.67435 0.08858 0.56834 0.0
C759 C 0.68946 0.09218 0.5503 0.0
C760 C 0.75791 0.09102 0.52611 0.0
C761 C 0.76915 0.09495 0.46865 0.0
C762 C 0.75623 0.08881 0.48901 0.0
C763 C 0.71535 0.07813 0.54721 0.0
C764 C 0.73005 0.08068 0.52737 0.0
H765 H 0.74996 0.11721 0.42151 0.0
H766 H 0.72916 0.10484 0.45374 0.0
H767 H 0.79177 0.10455 0.50684 0.0
H768 H 0.7191 0.04252 0.59218 0.0
H769 H 0.74617 0.04983 0.56075 0.0
C770 C 0.17128 0.42328 0.3167 0.0
C771 C 0.18866 0.43422 0.33225 0.0
C772 C 0.16748 0.4381 0.29854 0.0
C773 C 0.1645 0.50624 0.27465 0.0
H774 H 0.18911 0.46842 0.2255 0.0
C775 C 0.15324 0.56169 0.19669 0.0
C776 C 0.1483 0.54496 0.17945 0.0
C777 C 0.16061 0.54919 0.21525 0.0
C778 C 0.1816 0.47924 0.23893 0.0
H779 H 0.21491 0.46995 0.34097 0.0
H780 H 0.20706 0.49659 0.30935 0.0
H781 H 0.1957 0.44535 0.25823 0.0
H782 H 0.14622 0.50198 0.16825 0.0
H783 H 0.15782 0.47987 0.20054 0.0
H784 H 0.14877 0.53937 0.25563 0.0
C785 C 0.19686 0.47619 0.31131 0.0
C786 C 0.1857 0.46603 0.25774 0.0
C787 C 0.20128 0.46099 0.32939 0.0
C788 C 0.15085 0.51543 0.1811 0.0
C789 C 0.15749 0.50279 0.19978 0.0
C790 C 0.15974 0.51921 0.2558 0.0
C791 C 0.1804 0.46457 0.29556 0.0
C792 C 0.17715 0.47936 0.27578 0.0
C793 C 0.16231 0.51945 0.21727 0.0
C794 C 0.16815 0.50592 0.23755 0.0
H795 H 0.16147 0.4026 0.31817 0.0
H796 H 0.15457 0.42875 0.28669 0.0
H797 H 0.15746 0.51684 0.28833 0.0
H798 H 0.15133 0.58456 0.19584 0.0
H799 H 0.1648 0.56302 0.22799 0.0
C800 C 0.77391 0.59456 0.60279 0.0
C801 C 0.7951 0.61543 0.60402 0.0
C802 C 0.76117 0.58797 0.58405 0.0
C803 C 0.75059 0.61855 0.53232 0.0
H804 H 0.72854 0.54206 0.51769 0.0
C805 C 0.68231 0.59528 0.46136 0.0
C806 C 0.68692 0.57006 0.45042 0.0
C807 C 0.69658 0.60047 0.47962 0.0
C808 C 0.73485 0.56352 0.52142 0.0
H809 H 0.82026 0.645 0.58642 0.0
H810 H 0.79887 0.63319 0.55406 0.0
H811 H 0.75093 0.55093 0.55053 0.0
H812 H 0.71109 0.53089 0.45003 0.0
H813 H 0.73655 0.54032 0.48162 0.0
H814 H 0.73527 0.63114 0.50316 0.0
C815 C 0.79129 0.62235 0.56747 0.0
C816 C 0.74734 0.56867 0.54042 0.0
C817 C 0.80379 0.62897 0.58609 0.0
C818 C 0.70704 0.55062 0.45793 0.0
C819 C 0.7214 0.55586 0.47623 0.0
C820 C 0.73824 0.6134 0.51337 0.0
C821 C 0.76949 0.60208 0.56614 0.0
C822 C 0.75549 0.59628 0.54613 0.0
C823 C 0.71604 0.58068 0.48752 0.0
C824 C 0.73011 0.58584 0.5076 0.0
H825 H 0.76706 0.58348 0.61627 0.0
H826 H 0.74441 0.57228 0.58368 0.0
H827 H 0.7561 0.64018 0.53619 0.0
H828 H 0.66688 0.61073 0.45623 0.0
H829 H 0.69152 0.61966 0.48789 0.0
C830 C 0.12431 0.04392 0.84029 0.0
C831 C 0.14352 0.04394 0.8566 0.0
C832 C 0.13097 0.03017 0.82213 0.0
C833 C 0.18856 0.01053 0.7891 0.0
H834 H 0.13684 0.95453 0.76703 0.0
C835 C 0.21441 0.94786 0.71547 0.0
C836 C 0.19195 0.93751 0.70353 0.0
C837 C 0.20909 0.96154 0.73395 0.0
C838 C 0.15132 0.97053 0.77264 0.0
H839 H 0.18486 0.02973 0.8667 0.0
H840 H 0.19705 0.00634 0.83442 0.0
H841 H 0.12685 0.97617 0.79977 0.0
H842 H 0.14623 0.93473 0.70115 0.0
H843 H 0.13677 0.96013 0.73258 0.0
H844 H 0.21241 0.00614 0.76171 0.0
C845 C 0.17666 0.01673 0.83593 0.0
C846 C 0.14569 0.98267 0.79159 0.0
C847 C 0.16967 0.02996 0.85437 0.0
C848 C 0.16401 0.94239 0.71002 0.0
C849 C 0.15864 0.95664 0.72827 0.0
C850 C 0.19393 0.99885 0.76991 0.0
C851 C 0.15728 0.01664 0.81966 0.0
C852 C 0.16422 1.00278 0.80002 0.0
C853 C 0.1811 0.96576 0.74086 0.0
C854 C 0.17536 0.97865 0.76131 0.0
H855 H 0.10392 0.05439 0.84161 0.0
H856 H 0.1157 0.03052 0.80984 0.0
H857 H 0.20302 0.02626 0.79516 0.0
H858 H 0.23623 0.94402 0.7111 0.0
H859 H 0.22708 0.96773 0.74315 0.0
C860 C 0.72836 0.41951 0.10027 0.0
C861 C 0.71482 0.39324 0.10276 0.0
C862 C 0.74085 0.42665 0.0816 0.0
C863 C 0.74242 0.40311 0.02688 0.0
H864 H 0.80765 0.45296 0.02407 0.0
C865 C 0.81771 0.41465 0.95719 0.0
C866 C 0.82221 0.44255 0.95038 0.0
C867 C 0.80269 0.4095 0.97515 0.0
C868 C 0.78932 0.43912 0.02466 0.0
H869 H 0.70493 0.35331 0.08813 0.0
H870 H 0.72783 0.3648 0.05635 0.0
H871 H 0.78658 0.44211 0.05697 0.0
H872 H 0.81438 0.48691 0.95713 0.0
H873 H 0.78882 0.47784 0.98876 0.0
H874 H 0.74632 0.39916 0.99456 0.0
C875 C 0.72776 0.38074 0.06816 0.0
C876 C 0.77705 0.433 0.04353 0.0
C877 C 0.71477 0.37396 0.08654 0.0
C878 C 0.81091 0.46515 0.96176 0.0
C879 C 0.79654 0.46001 0.97998 0.0
C880 C 0.75512 0.40872 1.00812 0.0
C881 C 0.74059 0.4074 0.06516 0.0
C882 C 0.75343 0.41476 0.04499 0.0
C883 C 0.79254 0.43216 0.98696 0.0
C884 C 0.77868 0.42676 1.00682 0.0
H885 H 0.72867 0.43475 0.11256 0.0
H886 H 0.75018 0.4475 0.08002 0.0
H887 H 0.72381 0.38968 0.02705 0.0
H888 H 0.82633 0.39682 0.94885 0.0
H889 H 0.79993 0.38782 0.98023 0.0
C890 C 0.3468 0.07695 0.21398 0.0
C891 C 0.32179 0.07239 0.20275 0.0
C892 C 0.35181 0.06232 0.2321 0.0
C893 C 0.31438 0.0229 0.27303 0.0
H894 H 0.39094 1.00203 0.28845 0.0
C895 C 0.34384 0.98273 0.35431 0.0
C896 C 0.36489 0.96171 0.35563 0.0
C897 C 0.33764 0.99572 0.33561 0.0
C898 C 0.36933 0.00742 0.28439 0.0
H899 H 0.28286 0.04788 0.20167 0.0
H900 H 0.29199 0.02181 0.23301 0.0
H901 H 0.3824 0.02343 0.25555 0.0
H902 H 0.3952 0.93713 0.33824 0.0
H903 H 0.38406 0.95897 0.30591 0.0
H904 H 0.30132 0.00615 0.3018 0.0
C905 C 0.30748 0.03722 0.22798 0.0
C906 C 0.36447 0.0201 0.26552 0.0
C907 C 0.30241 0.05194 0.20982 0.0
C908 C 0.37902 0.95345 0.33783 0.0
C909 C 0.37278 0.96621 0.31924 0.0
C910 C 0.31925 0.01009 0.29194 0.0
C911 C 0.33206 0.04254 0.23956 0.0
C912 C 0.33694 0.02811 0.25953 0.0
C913 C 0.3523 0.98783 0.31783 0.0
C914 C 0.34682 1.00209 0.29788 0.0
H915 H 0.36219 0.09261 0.20918 0.0
H916 H 0.37081 0.06735 0.24061 0.0
H917 H 0.29293 0.0291 0.26913 0.0
H918 H 0.3323 0.98922 0.36768 0.0
H919 H 0.32178 0.01233 0.33519 0.0
C920 C 0.3193 0.46818 0.56755 0.0
C921 C 0.32807 0.44591 0.58033 0.0
C922 C 0.30499 0.46252 0.54935 0.0
C923 C 0.26024 0.41086 0.52325 0.0
H924 H 0.29126 0.4415 0.47343 0.0
C925 C 0.21745 0.37378 0.44586 0.0
C926 C 0.21715 0.39259 0.42937 0.0
C927 C 0.23107 0.38097 0.46397 0.0
C928 C 0.28189 0.43314 0.48715 0.0
H929 H 0.32778 0.40025 0.58422 0.0
H930 H 0.30177 0.3905 0.55279 0.0
H931 H 0.31339 0.45319 0.50587 0.0
H932 H 0.23107 0.43372 0.41883 0.0
H933 H 0.2539 0.44707 0.45084 0.0
H934 H 0.22814 0.39167 0.50498 0.0
C935 C 0.30637 0.41231 0.55679 0.0
C936 C 0.29474 0.43975 0.50577 0.0
C937 C 0.32126 0.4179 0.57479 0.0
C938 C 0.23104 0.41878 0.43131 0.0
C939 C 0.24426 0.4263 0.44967 0.0
C940 C 0.24703 0.40471 0.50473 0.0
C941 C 0.29854 0.43452 0.54369 0.0
C942 C 0.28424 0.42842 0.52399 0.0
C943 C 0.24431 0.40754 0.46639 0.0
C944 C 0.25785 0.41537 0.48629 0.0
H945 H 0.32443 0.48999 0.5712 0.0
H946 H 0.29904 0.48007 0.53963 0.0
H947 H 0.25145 0.40212 0.53707 0.0
H948 H 0.20729 0.35322 0.44472 0.0
H949 H 0.23131 0.36541 0.47603 0.0
C950 C 0.84045 0.98411 0.18125 0.0
C951 C 0.86605 0.96908 0.17955 0.0
C952 C 0.8332 0.99762 0.19954 0.0
C953 C 0.8539 0.99955 0.25482 0.0
H954 H 0.80793 0.06772 0.25532 0.0
C955 C 0.84088 0.07337 0.32514 0.0
C956 C 0.8129 0.08107 0.33016 0.0
C957 C 0.84669 0.05869 0.3071 0.0
C958 C 0.82067 0.04858 0.25541 0.0
H959 H 0.90466 0.95739 0.19529 0.0
H960 H 0.89298 0.98186 0.22652 0.0
H961 H 0.81958 0.04521 0.22305 0.0
H962 H 0.76912 0.07931 0.31998 0.0
H963 H 0.77944 0.0543 0.28836 0.0
H964 H 0.8558 1.00381 0.28721 0.0
C965 C 0.87765 0.98236 0.2143 0.0
C966 C 0.82726 0.0355 0.23688 0.0
C967 C 0.88455 0.96846 0.19624 0.0
C968 C 0.79089 0.0735 0.31674 0.0
C969 C 0.79679 0.05939 0.29852 0.0
C970 C 0.84778 0.01297 0.27327 0.0
C971 C 0.85166 0.99683 0.21645 0.0
C972 C 0.84406 0.01076 0.23625 0.0
C973 C 0.82476 0.05195 0.29343 0.0
C974 C 0.83109 0.03761 0.27379 0.0
H975 H 0.82575 0.98485 0.16862 0.0
H976 H 0.81285 0.00817 0.20049 0.0
H977 H 0.86619 0.98017 0.25526 0.0
H978 H 0.85834 0.07893 0.33507 0.0
H979 H 0.86848 0.05331 0.30355 0.0
C980 C 0.2062 0.5517 0.07534 0.0
C981 C 0.18528 0.57067 0.0823 0.0
C982 C 0.22099 0.55704 0.05726 0.0
C983 C 0.23719 0.61436 0.01987 0.0
H984 H 0.25341 0.55149 0.98378 0.0
C985 C 0.30403 0.63048 0.94783 0.0
C986 C 0.29643 0.61585 0.93008 0.0
C987 C 0.2913 0.62406 0.96639 0.0
C988 C 0.24883 0.56934 0.99358 0.0
H989 H 0.16417 0.61057 0.07572 0.0
H990 H 0.18949 0.61961 0.04441 0.0
H991 H 0.23021 0.54261 1.01624 0.0
H992 H 0.27029 0.5821 0.91808 0.0
H993 H 0.2471 0.57134 0.95045 0.0
H994 H 0.25481 0.64123 0.99705 0.0
C995 C 0.19488 0.60076 0.05297 0.0
C996 C 0.23587 0.5642 1.01238 0.0
C997 C 0.18021 0.5955 0.07101 0.0
C998 C 0.27614 0.59412 0.9314 0.0
C999 C 0.26315 0.58775 0.95004 0.0
C1000 C 0.24999 0.6195 1.0011 0.0
C1001 C 0.21524 0.58146 0.04565 0.0
C1002 C 0.22984 0.58666 0.02581 0.0
C1003 C 0.27037 0.60287 0.96779 0.0
C1004 C 0.25612 0.59709 0.98766 0.0
H1005 H 0.21068 0.53232 0.08354 0.0
H1006 H 0.23683 0.5419 0.05234 0.0
H1007 H 0.23324 0.63223 0.0298 0.0
H1008 H 0.3198 0.64719 0.94741 0.0
H1009 H 0.29803 0.63572 0.9797 0.0
C1010 C 0.6508 0.06251 0.69794 0.0
C1011 C 0.64697 0.04574 0.68058 0.0
C1012 C 0.65838 0.05018 0.7165 0.0
C1013 C 0.68233 0.98112 0.73997 0.0
H1014 H 0.65505 0.01664 0.78932 0.0
C1015 C 0.67181 0.9236 0.81709 0.0
C1016 C 0.68878 0.93464 0.83282 0.0
C1017 C 0.66788 0.93865 0.79905 0.0
C1018 C 0.66298 0.00665 0.77565 0.0
H1019 H 0.64709 1.00283 0.66916 0.0
H1020 H 0.65906 0.98095 0.70145 0.0
H1021 H 0.64605 0.03923 0.75668 0.0
H1022 H 0.71416 0.97077 0.84202 0.0
H1023 H 0.7061 0.99778 0.81059 0.0
H1024 H 0.69764 0.94767 0.75919 0.0
C1025 C 0.6577 1.00384 0.70079 0.0
C1026 C 0.65804 0.01966 0.75685 0.0
C1027 C 0.65083 0.01634 0.68211 0.0
C1028 C 0.70086 0.96172 0.83028 0.0
C1029 C 0.69632 0.97714 0.81232 0.0
C1030 C 0.68664 0.96785 0.75872 0.0
C1031 C 0.66144 0.02053 0.71838 0.0
C1032 C 0.66754 0.00708 0.73862 0.0
C1033 C 0.68028 0.96542 0.79639 0.0
C1034 C 0.67695 0.98044 0.77672 0.0
H1035 H 0.64788 0.08529 0.69717 0.0
H1036 H 0.66169 0.06405 0.72936 0.0
H1037 H 0.6907 0.97091 0.72655 0.0
H1038 H 0.66241 0.9027 0.81832 0.0
H1039 H 0.65532 0.92923 0.78703 0.0
C1040 C 0.43023 0.17446 0.16431 0.0
C1041 C 0.40411 0.18787 0.16794 0.0
C1042 C 0.45561 0.18995 0.16523 0.0
C1043 C 0.48348 0.26171 0.15861 0.0
H1044 H 0.54861 0.23545 0.18923 0.0
C1045 C 0.58439 0.33079 0.16595 0.0
C1046 C 0.61074 0.31694 0.16637 0.0
C1047 C 0.55913 0.31524 0.16733 0.0
C1048 C 0.53084 0.24297 0.18032 0.0
H1049 H 0.38399 0.22785 0.17549 0.0
H1050 H 0.42816 0.25494 0.17668 0.0
H1051 H 0.50515 0.20734 0.18889 0.0
H1052 H 0.63142 0.27603 0.16856 0.0
H1053 H 0.58764 0.24881 0.17015 0.0
H1054 H 0.50912 0.29675 0.14936 0.0
C1055 C 0.42908 0.23249 0.17323 0.0
C1056 C 0.50587 0.22685 0.18023 0.0
C1057 C 0.40383 0.21694 0.17265 0.0
C1058 C 0.61139 0.2873 0.16835 0.0
C1059 C 0.58618 0.2717 0.1694 0.0
C1060 C 0.50855 0.2776 0.15841 0.0
C1061 C 0.45524 0.21922 0.16943 0.0
C1062 C 0.4819 0.2361 0.16943 0.0
C1063 C 0.55961 0.28538 0.16882 0.0
C1064 C 0.53265 0.26855 0.1693 0.0
H1065 H 0.43103 0.15208 0.16062 0.0
H1066 H 0.47547 0.17921 0.16214 0.0
H1067 H 0.46543 0.2692 0.14994 0.0
H1068 H 0.5833 0.35366 0.16452 0.0
H1069 H 0.53923 0.32671 0.16726 0.0
C1070 C 0.54077 0.64972 0.41918 0.0
C1071 C 0.57011 0.65064 0.41548 0.0
C1072 C 0.52483 0.67471 0.42008 0.0
C1073 C 0.52891 0.7507 0.43041 0.0
H1074 H 0.46095 0.75596 0.39742 0.0
C1075 C 0.46779 0.85637 0.42159 0.0
C1076 C 0.43832 0.85571 0.41848 0.0
C1077 C 0.48361 0.83126 0.42194 0.0
C1078 C 0.47952 0.75479 0.40706 0.0
H1079 H 0.60594 0.67841 0.41026 0.0
H1080 H 0.57809 0.7224 0.41241 0.0
H1081 H 0.48912 0.71263 0.39694 0.0
H1082 H 0.40211 0.82826 0.41385 0.0
H1083 H 0.42939 0.78422 0.41539 0.0
H1084 H 0.51906 0.79235 0.4411 0.0
C1085 C 0.56745 0.70223 0.41442 0.0
C1086 C 0.49579 0.72995 0.40664 0.0
C1087 C 0.58336 0.67712 0.41314 0.0
C1088 C 0.42483 0.82937 0.4162 0.0
C1089 C 0.4406 0.80415 0.41689 0.0
C1090 C 0.51239 0.77539 0.43112 0.0
C1091 C 0.53796 0.70124 0.41766 0.0
C1092 C 0.52073 0.72768 0.41822 0.0
C1093 C 0.47032 0.80471 0.41954 0.0
C1094 C 0.4875 0.77793 0.41935 0.0
H1095 H 0.52997 0.62959 0.42101 0.0
H1096 H 0.5022 0.67331 0.42277 0.0
H1097 H 0.54786 0.74941 0.43968 0.0
H1098 H 0.47881 0.87641 0.42322 0.0
H1099 H 0.5064 0.83286 0.42361 0.0
C1100 C 0.92712 0.67785 0.66471 0.0
C1101 C 0.9005 0.69086 0.66701 0.0
C1102 C 0.95208 0.69401 0.66585 0.0
C1103 C 0.97911 0.76577 0.65756 0.0
H1104 H 0.04195 0.74339 0.69195 0.0
C1105 C 0.07877 0.83697 0.66588 0.0
C1106 C 0.1051 0.82347 0.66827 0.0
C1107 C 0.0535 0.82127 0.66681 0.0
C1108 C 0.02487 0.74982 0.68197 0.0
H1109 H 0.87905 0.73085 0.67235 0.0
H1110 H 0.9225 0.75907 0.67388 0.0
H1111 H 0.99915 0.71439 0.69091 0.0
H1112 H 0.12573 0.78304 0.6734 0.0
H1113 H 0.08217 0.7556 0.67418 0.0
H1114 H 1.00488 0.80054 0.64795 0.0
C1115 C 0.92413 0.73643 0.67132 0.0
C1116 C 1.00025 0.73318 0.68149 0.0
C1117 C 0.89929 0.72023 0.67055 0.0
C1118 C 0.1057 0.79408 0.67169 0.0
C1119 C 0.08058 0.77834 0.67228 0.0
C1120 C 1.00389 0.78215 0.65774 0.0
C1121 C 0.9508 0.72354 0.66892 0.0
C1122 C 0.97709 0.74101 0.66932 0.0
C1123 C 0.05402 0.79162 0.66982 0.0
C1124 C 0.02721 0.77447 0.66996 0.0
H1125 H 0.92865 0.65526 0.66193 0.0
H1126 H 0.97235 0.68355 0.66386 0.0
H1127 H 0.96166 0.77218 0.64787 0.0
H1128 H 0.0777 0.85963 0.66329 0.0
H1129 H 0.03357 0.83249 0.66523 0.0
C1130 C 0.92597 0.33109 0.91561 0.0
C1131 C 0.93916 0.35757 0.91811 0.0
C1132 C 0.94194 0.306 0.91674 0.0
C1133 C 0.01315 0.27843 0.90806 0.0
H1134 H 0.99176 0.2162 0.9432 0.0
C1135 C 0.08478 0.17917 0.916 0.0
C1136 C 0.07155 0.15285 0.91897 0.0
C1137 C 0.069 0.20437 0.91696 0.0
C1138 C 0.99789 0.23309 0.93301 0.0
H1139 H 0.97928 0.37864 0.92377 0.0
H1140 H 0.00717 0.33496 0.92521 0.0
H1141 H 0.96272 0.25901 0.94227 0.0
H1142 H 0.03148 0.13214 0.92518 0.0
H1143 H 1.00379 0.17559 0.92596 0.0
H1144 H 0.04757 0.25247 0.89808 0.0
C1145 C 0.98452 0.33355 0.92256 0.0
C1146 C 0.98124 0.25771 0.9326 0.0
C1147 C 0.96851 0.35852 0.92185 0.0
C1148 C 0.04232 0.15218 0.923 0.0
C1149 C 0.02645 0.17724 0.92359 0.0
C1150 C 0.0295 0.25363 0.90815 0.0
C1151 C 0.97145 0.30704 0.91994 0.0
C1152 C 0.98877 0.28067 0.92018 0.0
C1153 C 0.03947 0.20379 0.92054 0.0
C1154 C 0.0222 0.23054 0.92067 0.0
H1155 H 0.90339 0.32978 0.91268 0.0
H1156 H 0.93136 0.28582 0.9146 0.0
H1157 H 0.01929 0.29573 0.89819 0.0
H1158 H 0.10733 0.18029 0.91293 0.0
H1159 H 0.08005 0.22428 0.91494 0.0
C1160 C 0.60948 0.78873 0.86479 0.0
C1161 C 0.60874 0.81817 0.86794 0.0
C1162 C 0.58437 0.77297 0.86394 0.0
C1163 C 0.50728 0.77726 0.87713 0.0
H1164 H 0.50304 0.70917 0.84422 0.0
C1165 C 0.40251 0.71677 0.86231 0.0
C1166 C 0.40308 0.68752 0.86641 0.0
C1167 C 0.42765 0.7325 0.86183 0.0
C1168 C 0.50401 0.72806 0.85356 0.0
H1169 H 0.58119 0.85441 0.87216 0.0
H1170 H 0.53718 0.82725 0.86974 0.0
H1171 H 0.54618 0.73774 0.84391 0.0
H1172 H 0.43037 0.65162 0.87269 0.0
H1173 H 0.47463 0.6791 0.87124 0.0
H1174 H 0.46461 0.76785 0.88617 0.0
C1175 C 0.55714 0.81599 0.8686 0.0
C1176 C 0.5288 0.74444 0.8535 0.0
C1177 C 0.58235 0.83169 0.8698 0.0
C1178 C 0.42936 0.67413 0.86947 0.0
C1179 C 0.45463 0.68982 0.86861 0.0
C1180 C 0.48234 0.76115 0.87688 0.0
C1181 C 0.55775 0.7863 0.86586 0.0
C1182 C 0.53092 0.76923 0.8654 0.0
C1183 C 0.45396 0.71925 0.86507 0.0
C1184 C 0.48049 0.73631 0.86518 0.0
H1185 H 0.62956 0.77769 0.86347 0.0
H1186 H 0.58599 0.75019 0.86225 0.0
H1187 H 0.50809 0.79574 0.88686 0.0
H1188 H 0.38255 0.72767 0.85994 0.0
H1189 H 0.42652 0.75509 0.85891 0.0
C1190 C 0.42536 0.33255 0.61879 0.0
C1191 C 0.43925 0.35877 0.61714 0.0
C1192 C 0.44081 0.30714 0.61787 0.0
C1193 C 0.51228 0.27771 0.60389 0.0
H1194 H 0.48817 0.21484 0.63757 0.0
C1195 C 0.58236 0.17865 0.62111 0.0
C1196 C 0.56881 0.15225 0.61922 0.0
C1197 C 0.56665 0.20388 0.61984 0.0
C1198 C 0.49506 0.23216 0.62798 0.0
H1199 H 0.48011 0.37904 0.61321 0.0
H1200 H 0.50711 0.33511 0.61233 0.0
H1201 H 0.46045 0.25846 0.63721 0.0
H1202 H 0.52832 0.13148 0.61445 0.0
H1203 H 0.50091 0.1754 0.61261 0.0
H1204 H 0.54747 0.25144 0.59526 0.0
C1205 C 0.48426 0.33381 0.61373 0.0
C1206 C 0.47906 0.25719 0.62765 0.0
C1207 C 0.46878 0.35912 0.61437 0.0
C1208 C 0.53935 0.15153 0.61595 0.0
C1209 C 0.52362 0.17666 0.615 0.0
C1210 C 0.52851 0.25281 0.60448 0.0
C1211 C 0.47057 0.30738 0.61557 0.0
C1212 C 0.48738 0.28038 0.61558 0.0
C1213 C 0.53704 0.20312 0.61701 0.0
C1214 C 0.52004 0.22974 0.61649 0.0
H1215 H 0.40258 0.33167 0.62087 0.0
H1216 H 0.42933 0.28731 0.61895 0.0
H1217 H 0.5192 0.29476 0.59409 0.0
H1218 H 0.60504 0.17979 0.62366 0.0
H1219 H 0.57755 0.22397 0.62155 0.0
C1220 C 0.10721 0.29021 0.36435 0.0
C1221 C 0.10698 0.31936 0.36876 0.0
C1222 C 0.08193 0.27466 0.36383 0.0
C1223 C 0.00627 0.27797 0.38066 0.0
H1224 H 0.99824 0.21343 0.34461 0.0
C1225 C 0.89956 0.21984 0.36863 0.0
C1226 C 0.90012 0.1901 0.37009 0.0
C1227 C 0.92478 0.23541 0.36787 0.0
C1228 C 1.00026 0.23128 0.35485 0.0
H1229 H 0.08007 0.35529 0.37559 0.0
H1230 H 0.03572 0.32854 0.3739 0.0
H1231 H 0.04158 0.24167 0.34374 0.0
H1232 H 0.92752 0.15327 0.37146 0.0
H1233 H 0.97185 0.18056 0.36967 0.0
H1234 H 0.96452 0.26786 0.39131 0.0
C1235 C 0.05547 0.31734 0.37143 0.0
C1236 C 0.02519 0.24749 0.35445 0.0
C1237 C 0.08087 0.33281 0.37223 0.0
C1238 C 0.92647 0.17617 0.37032 0.0
C1239 C 0.9518 0.19177 0.36924 0.0
C1240 C 0.98121 0.26202 0.38084 0.0
C1241 C 0.05562 0.28792 0.36744 0.0
C1242 C 0.02866 0.27103 0.36742 0.0
C1243 C 0.95121 0.2216 0.36826 0.0
C1244 C 0.97795 0.23844 0.36799 0.0
H1245 H 0.12706 0.27921 0.36175 0.0
H1246 H 0.0832 0.25206 0.36108 0.0
H1247 H 0.00819 0.29545 0.39122 0.0
H1248 H 0.87956 0.23118 0.36843 0.0
H1249 H 0.92362 0.25832 0.3669 0.0
C1250 C 0.04011 0.65172 0.11717 0.0
C1251 C 0.06975 0.65255 0.11927 0.0
C1252 C 0.02423 0.67677 0.11655 0.0
C1253 C 0.02902 0.75433 0.12837 0.0
H1254 H 0.9587 0.75711 0.0978 0.0
C1255 C 0.96679 0.85829 0.11383 0.0
C1256 C 0.93775 0.85773 0.11862 0.0
C1257 C 0.9827 0.83324 0.11343 0.0
C1258 C 0.97821 0.75656 0.1065 0.0
H1259 H 0.10615 0.68025 0.12192 0.0
H1260 H 0.07869 0.72417 0.11989 0.0
H1261 H 0.9875 0.71414 0.09719 0.0
H1262 H 0.90239 0.83048 0.1263 0.0
H1263 H 0.93014 0.78635 0.12501 0.0
H1264 H 0.01995 0.79725 0.13704 0.0
C1265 C 0.06744 0.70418 0.11939 0.0
C1266 C 0.99475 0.73186 0.10627 0.0
C1267 C 0.0833 0.679 0.12036 0.0
C1268 C 0.92474 0.8315 0.12254 0.0
C1269 C 0.94059 0.8063 0.12177 0.0
C1270 C 0.01273 0.77918 0.12829 0.0
C1271 C 0.03758 0.70346 0.11765 0.0
C1272 C 0.02035 0.73024 0.11732 0.0
C1273 C 0.96983 0.80698 0.11746 0.0
C1274 C 0.98707 0.78052 0.11745 0.0
H1275 H 0.02904 0.6316 0.11647 0.0
H1276 H 1.00136 0.67506 0.11565 0.0
H1277 H 0.04818 0.75394 0.13744 0.0
H1278 H 0.97742 0.8782 0.11078 0.0
H1279 H 1.00511 0.83439 0.1099 0.0
C1280 C 0.23551 0.21447 0.1321 0.0
C1281 C 0.26482 0.2113 0.13551 0.0
C1282 C 0.2236 0.24157 0.12993 0.0
C1283 C 0.23722 0.31477 0.14595 0.0
H1284 H 0.1795 0.3355 0.10677 0.0
C1285 C 0.19812 0.43036 0.13719 0.0
C1286 C 0.16937 0.43467 0.13265 0.0
C1287 C 0.20953 0.40293 0.13722 0.0
C1288 C 0.19533 0.32997 0.11801 0.0
H1289 H 0.30478 0.23406 0.13778 0.0
H1290 H 0.28403 0.28092 0.13394 0.0
H1291 H 0.19958 0.28772 0.10625 0.0
H1292 H 0.12976 0.41385 0.12509 0.0
H1293 H 0.14934 0.36601 0.12572 0.0
H1294 H 0.23275 0.35661 0.15803 0.0
C1295 C 0.2702 0.26258 0.13335 0.0
C1296 C 0.20688 0.3026 0.11763 0.0
C1297 C 0.28208 0.23564 0.13542 0.0
C1298 C 0.15207 0.41111 0.12857 0.0
C1299 C 0.16337 0.38371 0.12874 0.0
C1300 C 0.22554 0.342 0.14645 0.0
C1301 C 0.24076 0.26592 0.1312 0.0
C1302 C 0.22809 0.29479 0.13151 0.0
C1303 C 0.19233 0.37924 0.13285 0.0
C1304 C 0.20453 0.35004 0.13243 0.0
H1305 H 0.2216 0.19619 0.13212 0.0
H1306 H 0.20081 0.24351 0.12826 0.0
H1307 H 0.25316 0.3092 0.15711 0.0
H1308 H 0.21194 0.44821 0.14027 0.0
H1309 H 0.23198 0.40039 0.1402 0.0
C1310 C 0.34807 0.40067 0.37906 0.0
C1311 C 0.3248 0.41829 0.38336 0.0
C1312 C 0.37559 0.41163 0.37877 0.0
C1313 C 0.41471 0.47772 0.3707 0.0
H1314 H 0.47721 0.4378 0.39622 0.0
C1315 C 0.52438 0.52885 0.3827 0.0
C1316 C 0.54883 0.51173 0.3828 0.0
C1317 C 0.49748 0.51687 0.38052 0.0
C1318 C 0.46014 0.44897 0.38865 0.0
H1319 H 0.31195 0.46105 0.39105 0.0
H1320 H 0.36029 0.48043 0.39042 0.0
H1321 H 0.42936 0.41839 0.3983 0.0
H1322 H 0.56419 0.46864 0.37937 0.0
H1323 H 0.51713 0.44771 0.37498 0.0
H1324 H 0.44538 0.50814 0.36082 0.0
C1325 C 0.35715 0.45811 0.38723 0.0
C1326 C 0.43266 0.43793 0.38999 0.0
C1327 C 0.32956 0.44703 0.38774 0.0
C1328 C 0.54582 0.48245 0.3794 0.0
C1329 C 0.51879 0.47042 0.37713 0.0
C1330 C 0.44222 0.48864 0.36918 0.0
C1331 C 0.38042 0.44054 0.38257 0.0
C1332 C 0.40961 0.45232 0.38119 0.0
C1333 C 0.49423 0.48741 0.37823 0.0
C1334 C 0.46529 0.47457 0.37832 0.0
H1335 H 0.34498 0.37842 0.37558 0.0
H1336 H 0.39302 0.39761 0.37499 0.0
H1337 H 0.39745 0.48901 0.36343 0.0
H1338 H 0.52581 0.55152 0.38521 0.0
H1339 H 0.47919 0.53068 0.38165 0.0
C1340 C 0.22578 0.77322 0.64068 0.0
C1341 C 0.24107 0.79755 0.63497 0.0
C1342 C 0.23728 0.74623 0.63815 0.0
C1343 C 0.30657 0.70978 0.63101 0.0
H1344 H 0.25798 0.64394 0.62457 0.0
C1345 C 0.34579 0.59528 0.61499 0.0
C1346 C 0.33722 0.57494 0.62929 0.0
C1347 C 0.33425 0.62254 0.61522 0.0
C1348 C 0.27171 0.66218 0.62649 0.0
H1349 H 0.27997 0.81239 0.6211 0.0
H1350 H 0.29961 0.76498 0.61567 0.0
H1351 H 0.23738 0.69135 0.62318 0.0
H1352 H 0.30976 0.56687 0.65493 0.0
H1353 H 0.28856 0.61466 0.65485 0.0
H1354 H 0.34103 0.68017 0.63339 0.0
C1355 C 0.27904 0.76688 0.62283 0.0
C1356 C 0.25998 0.6894 0.62578 0.0
C1357 C 0.26767 0.7941 0.62571 0.0
C1358 C 0.31668 0.58223 0.64377 0.0
C1359 C 0.30458 0.60941 0.6437 0.0
C1360 C 0.31836 0.68254 0.63124 0.0
C1361 C 0.26424 0.74257 0.62945 0.0
C1362 C 0.27716 0.71364 0.62836 0.0
C1363 C 0.31345 0.62978 0.62948 0.0
C1364 C 0.30096 0.65855 0.62926 0.0
H1365 H 0.20532 0.77491 0.64806 0.0
H1366 H 0.22534 0.72834 0.64388 0.0
H1367 H 0.32052 0.72771 0.63343 0.0
H1368 H 0.36168 0.59022 0.60369 0.0
H1369 H 0.34128 0.63787 0.60407 0.0
C1370 C 0.96605 0.52329 0.87912 0.0
C1371 C 0.96272 0.49417 0.88308 0.0
C1372 C 0.99321 0.53509 0.87733 0.0
C1373 C 0.06542 0.52222 0.89566 0.0
H1374 H 0.08779 0.57935 0.85661 0.0
C1375 C 0.18086 0.56276 0.88984 0.0
C1376 C 0.18498 0.59145 0.88506 0.0
C1377 C 0.1536 0.55102 0.88937 0.0
C1378 C 0.08176 0.5637 0.86782 0.0
H1379 H 0.9853 0.45429 0.88664 0.0
H1380 H 0.03236 0.47485 0.88343 0.0
H1381 H 0.04039 0.55858 0.85471 0.0
H1382 H 0.16399 0.63064 0.87672 0.0
H1383 H 0.11638 0.61047 0.8765 0.0
H1384 H 0.10639 0.52758 0.90907 0.0
C1385 C 0.01406 0.48864 0.88213 0.0
C1386 C 0.05464 0.55173 0.86664 0.0
C1387 C 0.98702 0.47686 0.88383 0.0
C1388 C 0.16138 0.6084 0.8804 0.0
C1389 C 0.13413 0.59676 0.88008 0.0
C1390 C 0.09241 0.53431 0.89694 0.0
C1391 C 0.01748 0.51799 0.87952 0.0
C1392 C 0.04625 0.53076 0.88049 0.0
C1393 C 0.1299 0.56781 0.88426 0.0
C1394 C 0.10099 0.55515 0.88301 0.0
H1395 H 0.9478 0.53724 0.87848 0.0
H1396 H 0.99522 0.5578 0.87531 0.0
H1397 H 0.05936 0.50649 0.90681 0.0
H1398 H 0.19877 0.5492 0.89335 0.0
H1399 H 0.15122 0.52859 0.89247 0.0
C1400 C 0.77793 0.7963 0.90469 0.0
C1401 C 0.74858 0.79857 0.90122 0.0
C1402 C 0.79056 0.76962 0.90722 0.0
C1403 C 0.77415 0.69299 0.91587 0.0
H1404 H 0.84344 0.68079 0.88543 0.0
C1405 C 0.81506 0.58096 0.89586 0.0
C1406 C 0.84396 0.57598 0.89955 0.0
C1407 C 0.80416 0.60855 0.8968 0.0
C1408 C 0.82421 0.68393 0.89413 0.0
H1409 H 0.70927 0.77472 0.89908 0.0
H1410 H 0.73116 0.72864 0.90316 0.0
H1411 H 0.82353 0.72843 0.88786 0.0
H1412 H 0.88432 0.59579 0.90647 0.0
H1413 H 0.86539 0.64397 0.90783 0.0
H1414 H 0.77451 0.64827 0.92165 0.0
C1415 C 0.74455 0.74726 0.90409 0.0
C1416 C 0.81289 0.71127 0.89566 0.0
C1417 C 0.73197 0.7738 0.90161 0.0
C1418 C 0.86194 0.59908 0.90353 0.0
C1419 C 0.85113 0.62665 0.90427 0.0
C1420 C 0.78535 0.66563 0.91419 0.0
C1421 C 0.77409 0.74471 0.90638 0.0
C1422 C 0.78755 0.71612 0.90639 0.0
C1423 C 0.82205 0.63164 0.90124 0.0
C1424 C 0.81036 0.66077 0.90316 0.0
H1425 H 0.79133 0.81496 0.90451 0.0
H1426 H 0.81332 0.76846 0.90933 0.0
H1427 H 0.75489 0.69597 0.92454 0.0
H1428 H 0.80076 0.56348 0.8928 0.0
H1429 H 0.78171 0.61183 0.89415 0.0
C1430 C 0.66043 0.60715 0.6569 0.0
C1431 C 0.68379 0.58993 0.65208 0.0
C1432 C 0.63317 0.59565 0.65802 0.0
C1433 C 0.59566 0.52837 0.66667 0.0
H1434 H 0.53112 0.56825 0.64387 0.0
C1435 C 0.48575 0.47662 0.65588 0.0
C1436 C 0.46127 0.49365 0.65691 0.0
C1437 C 0.51269 0.48855 0.65802 0.0
C1438 C 0.54879 0.55707 0.65069 0.0
H1439 H 0.69702 0.5473 0.6443 0.0
H1440 H 0.64918 0.52705 0.64622 0.0
H1441 H 0.57846 0.58846 0.64067 0.0
H1442 H 0.44596 0.53632 0.66256 0.0
H1443 H 0.49306 0.55704 0.66683 0.0
H1444 H 0.56602 0.49699 0.67673 0.0
C1445 C 0.65202 0.54945 0.64928 0.0
C1446 C 0.57598 0.56859 0.64872 0.0
C1447 C 0.67934 0.56104 0.64801 0.0
C1448 C 0.46433 0.52256 0.66164 0.0
C1449 C 0.49137 0.53452 0.66383 0.0
C1450 C 0.56843 0.51691 0.66874 0.0
C1451 C 0.62867 0.5666 0.65448 0.0
C1452 C 0.59976 0.55429 0.65656 0.0
C1453 C 0.51591 0.51782 0.66135 0.0
C1454 C 0.54465 0.53101 0.66064 0.0
H1455 H 0.66328 0.62949 0.66018 0.0
H1456 H 0.61571 0.60939 0.66222 0.0
H1457 H 0.61348 0.51707 0.67319 0.0
H1458 H 0.48424 0.45424 0.65231 0.0
H1459 H 0.53102 0.475 0.65589 0.0
C1460 C 0.73655 0.21412 0.41407 0.0
C1461 C 0.7655 0.21088 0.40951 0.0
C1462 C 0.72475 0.24122 0.41624 0.0
C1463 C 0.74259 0.31825 0.42085 0.0
H1464 H 0.67155 0.32806 0.39195 0.0
C1465 C 0.69901 0.42882 0.39843 0.0
C1466 C 0.67011 0.43343 0.40232 0.0
C1467 C 0.71055 0.40152 0.4001 0.0
C1468 C 0.69127 0.32565 0.40023 0.0
H1469 H 0.80516 0.23358 0.40537 0.0
H1470 H 0.78464 0.28046 0.40888 0.0
H1471 H 0.69155 0.28074 0.39578 0.0
H1472 H 0.63043 0.41323 0.4105 0.0
H1473 H 0.65043 0.36567 0.4132 0.0
H1474 H 0.74249 0.36338 0.42485 0.0
C1475 C 0.77095 0.26223 0.41087 0.0
C1476 C 0.70267 0.29847 0.40256 0.0
C1477 C 0.78274 0.23522 0.40878 0.0
C1478 C 0.6528 0.41025 0.40735 0.0
C1479 C 0.66423 0.383 0.40886 0.0
C1480 C 0.73126 0.34547 0.4184 0.0
C1481 C 0.74163 0.26563 0.41388 0.0
C1482 C 0.72855 0.2944 0.41283 0.0
C1483 C 0.6933 0.37835 0.40551 0.0
C1484 C 0.70552 0.34948 0.40799 0.0
H1485 H 0.72264 0.19587 0.41482 0.0
H1486 H 0.70218 0.24304 0.41904 0.0
H1487 H 0.76237 0.31591 0.42905 0.0
H1488 H 0.71282 0.44638 0.39458 0.0
H1489 H 0.73297 0.39854 0.3972 0.0
C1490 C 0.8365 0.43272 0.17079 0.0
C1491 C 0.82159 0.42888 0.15254 0.0
C1492 C 0.8642 0.44309 0.17072 0.0
C1493 C 0.91563 0.48345 0.14062 0.0
H1494 H 0.97092 0.44687 0.17562 0.0
C1495 C 0.04427 0.48488 0.15254 0.0
C1496 C 0.04864 0.51436 0.1518 0.0
C1497 C 0.01675 0.47385 0.15414 0.0
C1498 C 0.95576 0.45721 0.16572 0.0
H1499 H 0.82362 0.43345 0.11991 0.0
H1500 H 0.87232 0.45195 0.11974 0.0
H1501 H 0.92234 0.42884 0.17419 0.0
H1502 H 0.02775 0.55534 0.15382 0.0
H1503 H 0.98009 0.53613 0.15681 0.0
H1504 H 0.94905 0.5117 0.13206 0.0
C1505 C 0.86246 0.44689 0.13411 0.0
C1506 C 0.9279 0.44705 0.165 0.0
C1507 C 0.83465 0.43633 0.13419 0.0
C1508 C 0.02516 0.53251 0.1541 0.0
C1509 C 0.99777 0.52153 0.15565 0.0
C1510 C 0.94342 0.49372 0.14145 0.0
C1511 C 0.87766 0.44997 0.15239 0.0
C1512 C 0.90748 0.46017 0.15253 0.0
C1513 C 0.99316 0.49213 0.15499 0.0
C1514 C 0.96375 0.48084 0.15411 0.0
H1515 H 0.82693 0.42723 0.18519 0.0
H1516 H 0.87512 0.44572 0.18506 0.0
H1517 H 0.90038 0.49408 0.13095 0.0
H1518 H 0.06186 0.47031 0.15071 0.0
H1519 H 0.01385 0.45107 0.15362 0.0
C1520 C 0.77993 0.735 0.63174 0.0
C1521 C 0.76241 0.71089 0.63277 0.0
C1522 C 0.76821 0.76202 0.6298 0.0
C1523 C 0.70429 0.8027 0.61647 0.0
H1524 H 0.73328 0.85609 0.65621 0.0
C1525 C 0.65091 0.91125 0.62993 0.0
C1526 C 0.66859 0.9347 0.6335 0.0
C1527 C 0.66208 0.88381 0.6296 0.0
C1528 C 0.72519 0.84165 0.64481 0.0
H1529 H 0.71886 0.69619 0.63107 0.0
H1530 H 0.69835 0.74365 0.62743 0.0
H1531 H 0.7533 0.80857 0.65429 0.0
H1532 H 0.71168 0.948 0.63971 0.0
H1533 H 0.73146 0.90009 0.63875 0.0
H1534 H 0.67642 0.83588 0.60677 0.0
C1535 C 0.7212 0.74147 0.62826 0.0
C1536 C 0.73664 0.81437 0.64374 0.0
C1537 C 0.73296 0.71429 0.6303 0.0
C1538 C 0.69758 0.93023 0.63706 0.0
C1539 C 0.70884 0.90275 0.63657 0.0
C1540 C 0.69297 0.83012 0.6174 0.0
C1541 C 0.73869 0.76564 0.62873 0.0
C1542 C 0.72638 0.79461 0.62954 0.0
C1543 C 0.69126 0.87919 0.63266 0.0
C1544 C 0.70327 0.84997 0.63161 0.0
H1545 H 0.80274 0.73318 0.63334 0.0
H1546 H 0.78226 0.78021 0.62975 0.0
H1547 H 0.69609 0.78796 0.60529 0.0
H1548 H 0.62842 0.91413 0.62722 0.0
H1549 H 0.64778 0.86621 0.62698 0.0
C1550 C 0.82876 0.94901 0.88966 0.0
C1551 C 0.82445 0.92039 0.88466 0.0
C1552 C 0.85617 0.96052 0.88942 0.0
C1553 C 0.93197 0.94102 0.89163 0.0
H1554 H 0.94389 0.01295 0.86448 0.0
C1555 C 0.04465 0.98621 0.88098 0.0
C1556 C 0.04782 0.0152 0.88544 0.0
C1557 C 0.01756 0.9744 0.87866 0.0
C1558 C 0.94093 0.99296 0.87227 0.0
H1559 H 0.84524 0.88118 0.87605 0.0
H1560 H 0.89293 0.90111 0.87587 0.0
H1561 H 0.8961 0.99332 0.86676 0.0
H1562 H 0.02498 0.0548 0.88967 0.0
H1563 H 0.97818 0.03428 0.88595 0.0
H1564 H 0.97659 0.94081 0.89754 0.0
C1565 C 0.87531 0.9147 0.87996 0.0
C1566 C 0.91352 0.98176 0.87361 0.0
C1567 C 0.84798 0.90332 0.88 0.0
C1568 C 0.02341 0.03235 0.88632 0.0
C1569 C 0.99644 0.02058 0.88407 0.0
C1570 C 0.95935 0.9523 0.89043 0.0
C1571 C 0.87971 0.9435 0.88441 0.0
C1572 C 0.90873 0.9557 0.88335 0.0
C1573 C 0.99309 0.99133 0.88074 0.0
C1574 C 0.96419 0.97847 0.88079 0.0
H1575 H 0.81093 0.96261 0.89325 0.0
H1576 H 0.85897 0.98273 0.89313 0.0
H1577 H 0.92892 0.92101 0.89939 0.0
H1578 H 0.06297 0.97239 0.88015 0.0
H1579 H 0.01578 0.95188 0.87569 0.0
C1580 C 0.86092 0.10023 0.12821 0.0
C1581 C 0.84315 0.0772 0.13279 0.0
C1582 C 0.84992 0.12768 0.12692 0.0
C1583 C 0.78398 0.16587 0.1162 0.0
H1584 H 0.82214 0.22999 0.14099 0.0
C1585 C 0.73078 0.27473 0.12631 0.0
C1586 C 0.74752 0.29941 0.12665 0.0
C1587 C 0.74323 0.24808 0.12404 0.0
C1588 C 0.8115 0.21245 0.13359 0.0
H1589 H 0.80012 0.06473 0.14002 0.0
H1590 H 0.78072 0.11291 0.13766 0.0
H1591 H 0.84205 0.18254 0.14466 0.0
H1592 H 0.79032 0.31557 0.12326 0.0
H1593 H 0.81208 0.26893 0.11871 0.0
H1594 H 0.75354 0.19566 0.10498 0.0
C1595 C 0.80316 0.10964 0.135 0.0
C1596 C 0.82282 0.18521 0.13585 0.0
C1597 C 0.81426 0.08216 0.13653 0.0
C1598 C 0.77681 0.29698 0.12308 0.0
C1599 C 0.78932 0.27021 0.12075 0.0
C1600 C 0.77279 0.19314 0.11377 0.0
C1601 C 0.82085 0.13263 0.12996 0.0
C1602 C 0.809 0.1616 0.12739 0.0
C1603 C 0.77277 0.24537 0.12192 0.0
C1604 C 0.7862 0.21676 0.12265 0.0
H1605 H 0.88328 0.09696 0.12521 0.0
H1606 H 0.86403 0.14491 0.1229 0.0
H1607 H 0.77316 0.14813 0.10917 0.0
H1608 H 0.70811 0.27582 0.12892 0.0
H1609 H 0.72977 0.22955 0.12517 0.0
C1610 C 0.46254 0.0212 0.37702 0.0
C1611 C 0.46035 0.99366 0.3851 0.0
C1612 C 0.48928 0.03362 0.37403 0.0
C1613 C 0.55873 0.03391 0.39644 0.0
H1614 H 0.58923 0.06108 0.3455 0.0
C1615 C 0.67595 0.06711 0.3898 0.0
C1616 C 0.68272 0.08955 0.37676 0.0
C1617 C 0.64855 0.05567 0.38987 0.0
C1618 C 0.58092 0.05408 0.35995 0.0
H1619 H 0.48473 0.95716 0.39538 0.0
H1620 H 0.53077 0.97905 0.39057 0.0
H1621 H 0.54103 0.04196 0.34668 0.0
H1622 H 0.66636 0.11788 0.35367 0.0
H1623 H 0.6184 0.0989 0.35434 0.0
H1624 H 0.59785 0.04658 0.41002 0.0
C1625 C 0.5119 0.99096 0.38657 0.0
C1626 C 0.55335 0.04306 0.36054 0.0
C1627 C 0.48542 0.97844 0.38923 0.0
C1628 C 0.66171 0.1004 0.3638 0.0
C1629 C 0.63423 0.08934 0.36409 0.0
C1630 C 0.58602 0.04538 0.39596 0.0
C1631 C 0.51408 0.01881 0.37937 0.0
C1632 C 0.54224 0.03254 0.37874 0.0
C1633 C 0.6272 0.06682 0.37714 0.0
C1634 C 0.59771 0.05528 0.37766 0.0
H1635 H 0.44369 0.03349 0.37368 0.0
H1636 H 0.49057 0.05517 0.36842 0.0
H1637 H 0.55043 0.02612 0.4107 0.0
H1638 H 0.69186 0.0583 0.39987 0.0
H1639 H 0.64423 0.03795 0.39983 0.0
C1640 C 0.23002 0.2729 0.40079 0.0
C1641 C 0.247 0.29743 0.40053 0.0
C1642 C 0.24215 0.24614 0.4033 0.0
C1643 C 0.31016 0.20885 0.39574 0.0
H1644 H 0.2704 0.14686 0.42189 0.0
C1645 C 0.35829 0.09664 0.40559 0.0
C1646 C 0.34036 0.07345 0.40178 0.0
C1647 C 0.34752 0.12425 0.40586 0.0
C1648 C 0.28162 0.16392 0.41437 0.0
H1649 H 0.29 0.31309 0.40397 0.0
H1650 H 0.3112 0.26624 0.40887 0.0
H1651 H 0.25123 0.19482 0.42397 0.0
H1652 H 0.29722 0.06084 0.39494 0.0
H1653 H 0.27822 0.10927 0.39547 0.0
H1654 H 0.34066 0.17783 0.38629 0.0
C1655 C 0.28848 0.26775 0.40663 0.0
C1656 C 0.27068 0.19144 0.41558 0.0
C1657 C 0.27629 0.29465 0.40406 0.0
C1658 C 0.3115 0.07837 0.39787 0.0
C1659 C 0.30063 0.10603 0.39834 0.0
C1660 C 0.32122 0.18135 0.39468 0.0
C1661 C 0.27162 0.2431 0.40576 0.0
C1662 C 0.28461 0.21424 0.40607 0.0
C1663 C 0.3185 0.12925 0.40252 0.0
C1664 C 0.30691 0.15853 0.4038 0.0
H1665 H 0.20736 0.27417 0.39819 0.0
H1666 H 0.22847 0.22774 0.40232 0.0
H1667 H 0.32123 0.22573 0.38791 0.0
H1668 H 0.38064 0.09342 0.4087 0.0
H1669 H 0.36178 0.14163 0.40927 0.0
C1670 C 0.98676 0.97788 0.14982 0.0
C1671 C 0.96265 0.99549 0.15044 0.0
C1672 C 0.01393 0.98932 0.15165 0.0
C1673 C 0.05521 0.05143 0.16794 0.0
H1674 H 0.10735 0.02721 0.12585 0.0
C1675 C 0.1629 0.10679 0.15615 0.0
C1676 C 0.1864 0.08982 0.15127 0.0
C1677 C 0.13555 0.09541 0.15609 0.0
C1678 C 0.09327 0.03393 0.13789 0.0
H1679 H 0.94825 0.03877 0.15485 0.0
H1680 H 0.99595 0.05873 0.15832 0.0
H1681 H 0.0599 0.00691 0.12734 0.0
H1682 H 0.19988 0.0478 0.14221 0.0
H1683 H 0.1521 0.02756 0.14248 0.0
H1684 H 0.08864 0.07816 0.17871 0.0
C1685 C 0.99364 0.03605 0.15627 0.0
C1686 C 0.06603 0.02232 0.13872 0.0
C1687 C 0.96633 0.0246 0.15431 0.0
C1688 C 0.18206 0.06136 0.14592 0.0
C1689 C 0.15466 0.04984 0.14603 0.0
C1690 C 0.08258 0.06288 0.16724 0.0
C1691 C 0.01772 0.01861 0.15429 0.0
C1692 C 0.0467 0.03093 0.15374 0.0
C1693 C 0.13107 0.06667 0.15133 0.0
C1694 C 0.10196 0.05433 0.15216 0.0
H1695 H 0.98479 0.95532 0.14706 0.0
H1696 H 0.03206 0.97528 0.15048 0.0
H1697 H 0.04084 0.05828 0.17977 0.0
H1698 H 0.16566 0.12888 0.16025 0.0
H1699 H 0.11792 0.10919 0.15979 0.0
C1700 C 0.15249 0.91156 0.90582 0.0
C1701 C 0.16917 0.93515 0.90068 0.0
C1702 C 0.16411 0.88431 0.90578 0.0
C1703 C 0.22561 0.84237 0.88726 0.0
H1704 H 0.2029 0.79031 0.92983 0.0
C1705 C 0.28323 0.73666 0.89929 0.0
C1706 C 0.26593 0.71239 0.9004 0.0
C1707 C 0.27153 0.76373 0.90104 0.0
C1708 C 0.2093 0.80457 0.9178 0.0
H1709 H 0.21091 0.94886 0.89118 0.0
H1710 H 0.23155 0.90126 0.89147 0.0
H1711 H 0.1824 0.83785 0.92858 0.0
H1712 H 0.22296 0.69761 0.90562 0.0
H1713 H 0.20255 0.74512 0.90894 0.0
H1714 H 0.25279 0.80916 0.87667 0.0
C1715 C 0.20931 0.90368 0.89521 0.0
C1716 C 0.19749 0.83179 0.91699 0.0
C1717 C 0.19756 0.93097 0.89508 0.0
C1718 C 0.2369 0.71582 0.9047 0.0
C1719 C 0.2252 0.74304 0.90658 0.0
C1720 C 0.23758 0.81528 0.88817 0.0
C1721 C 0.1928 0.88001 0.90078 0.0
C1722 C 0.20545 0.85104 0.90168 0.0
C1723 C 0.24228 0.76726 0.9041 0.0
C1724 C 0.22958 0.79609 0.90345 0.0
H1725 H 0.13047 0.91419 0.91011 0.0
H1726 H 0.15056 0.8666 0.90971 0.0
H1727 H 0.23188 0.85635 0.87504 0.0
H1728 H 0.30573 0.73489 0.89619 0.0
H1729 H 0.28532 0.78199 0.8995 0.0
C1730 C 0.32952 0.94632 0.64815 0.0
C1731 C 0.32505 0.91746 0.65217 0.0
C1732 C 0.35698 0.95761 0.64851 0.0
C1733 C 0.41799 0.97403 0.6403 0.0
H1734 H 0.4716 0.94652 0.68045 0.0
C1735 C 0.52376 0.03054 0.65365 0.0
C1736 C 0.54816 0.01335 0.65304 0.0
C1737 C 0.49686 0.01847 0.65542 0.0
C1738 C 0.4569 0.95427 0.6691 0.0
H1739 H 0.34566 0.87754 0.65913 0.0
H1740 H 0.39361 0.89695 0.65913 0.0
H1741 H 0.42393 0.92626 0.67889 0.0
H1742 H 0.56344 0.97004 0.65533 0.0
H1743 H 0.51622 0.94896 0.65871 0.0
H1744 H 0.45083 1.00231 0.63072 0.0
C1745 C 0.37598 0.91113 0.65624 0.0
C1746 C 0.4296 0.9426 0.66811 0.0
C1747 C 0.34853 0.89992 0.65604 0.0
C1748 C 0.54512 0.98391 0.65576 0.0
C1749 C 0.51807 0.97182 0.65766 0.0
C1750 C 0.44513 0.98584 0.64141 0.0
C1751 C 0.38058 0.9402 0.65273 0.0
C1752 C 0.40977 0.95236 0.6537 0.0
C1753 C 0.49364 0.98894 0.65677 0.0
C1754 C 0.46485 0.97617 0.65586 0.0
H1755 H 0.31174 0.96033 0.64526 0.0
H1756 H 0.35959 0.98015 0.64599 0.0
H1757 H 0.40359 0.9817 0.62873 0.0
H1758 H 0.52526 0.05332 0.65181 0.0
H1759 H 0.47846 0.03225 0.65515 0.0
loop_
_geom_bond_atom_site_label_1
_geom_bond_atom_site_label_2
_geom_bond_distance
_geom_bond_site_symmetry_2
_ccdc_geom_bond_type
Tb0 O3 2.453 . S
Tb0 O4 2.596 . S
Tb0 O5 2.374 . S
Tb0 O13 2.343 . S
Tb0 O15 2.353 . S
Tb0 O17 2.427 . S
Tb0 O18 2.513 . S
C1 O5 1.251 . S
C1 O7 1.263 . S
Tb2 O4 2.343 . S
Tb2 O7 2.353 . S
Tb2 O10 2.427 . S
Tb2 O11 2.513 . S
Tb2 O12 2.453 . S
Tb2 O13 2.596 . S
Tb2 O14 2.374 . S
O3 Tb0 2.453 . S
O3 C19 1.245 . S
O4 Tb0 2.596 . S
O4 Tb2 2.343 . S
O4 C19 1.259 . S
O5 Tb0 2.374 . S
O5 C1 1.251 . S
C6 O10 1.275 . S
C6 O11 1.246 . S
O7 C1 1.263 . S
O7 Tb2 2.353 . S
C8 O12 1.245 . S
C8 O13 1.259 . S
C9 O14 1.250 . S
C9 O15 1.263 . S
O10 Tb2 2.427 . S
O10 C6 1.275 . S
O11 Tb2 2.513 . S
O11 C6 1.246 . S
O12 Tb2 2.453 . S
O12 C8 1.245 . S
O13 Tb0 2.343 . S
O13 Tb2 2.596 . S
O13 C8 1.259 . S
O14 Tb2 2.374 . S
O14 C9 1.250 . S
O15 Tb0 2.353 . S
O15 C9 1.263 . S
C16 O17 1.275 . S
C16 O18 1.246 . S
O17 Tb0 2.427 . S
O17 C16 1.275 . S
O18 Tb0 2.513 . S
O18 C16 1.246 . S
C19 O3 1.245 . S
C19 O4 1.259 . S
Tb20 O23 2.453 . S
Tb20 O24 2.596 . S
Tb20 O25 2.374 . S
Tb20 O33 2.343 . S
Tb20 O35 2.353 . S
Tb20 O37 2.427 . S
Tb20 O38 2.513 . S
C21 O25 1.251 . S
C21 O27 1.263 . S
Tb22 O24 2.343 . S
Tb22 O27 2.353 . S
Tb22 O30 2.427 . S
Tb22 O31 2.513 . S
Tb22 O32 2.453 . S
Tb22 O33 2.596 . S
Tb22 O34 2.374 . S
O23 Tb20 2.453 . S
O23 C39 1.245 . S
O24 Tb20 2.596 . S
O24 Tb22 2.343 . S
O24 C39 1.259 . S
O25 Tb20 2.374 . S
O25 C21 1.251 . S
C26 O30 1.275 . S
C26 O31 1.246 . S
O27 C21 1.263 . S
O27 Tb22 2.353 . S
C28 O32 1.245 . S
C28 O33 1.259 . S
C29 O34 1.250 . S
C29 O35 1.263 . S
O30 Tb22 2.427 . S
O30 C26 1.275 . S
O31 Tb22 2.513 . S
O31 C26 1.246 . S
O32 Tb22 2.453 . S
O32 C28 1.245 . S
O33 Tb20 2.343 . S
O33 Tb22 2.596 . S
O33 C28 1.259 . S
O34 Tb22 2.374 . S
O34 C29 1.250 . S
O35 Tb20 2.353 . S
O35 C29 1.263 . S
C36 O37 1.275 . S
C36 O38 1.246 . S
O37 Tb20 2.427 . S
O37 C36 1.275 . S
O38 Tb20 2.513 . S
O38 C36 1.246 . S
C39 O23 1.245 . S
C39 O24 1.259 . S
Tb40 O43 2.453 . S
Tb40 O44 2.596 . S
Tb40 O45 2.374 . S
Tb40 O53 2.343 . S
Tb40 O55 2.353 . S
Tb40 O57 2.427 . S
Tb40 O58 2.513 . S
C41 O45 1.251 . S
C41 O47 1.263 . S
Tb42 O44 2.343 . S
Tb42 O47 2.353 . S
Tb42 O50 2.427 . S
Tb42 O51 2.513 . S
Tb42 O52 2.453 . S
Tb42 O53 2.596 . S
Tb42 O54 2.374 . S
O43 Tb40 2.453 . S
O43 C59 1.245 . S
O44 Tb40 2.596 . S
O44 Tb42 2.343 . S
O44 C59 1.259 . S
O45 Tb40 2.374 . S
O45 C41 1.251 . S
C46 O50 1.275 . S
C46 O51 1.246 . S
O47 C41 1.263 . S
O47 Tb42 2.353 . S
C48 O52 1.245 . S
C48 O53 1.259 . S
C49 O54 1.250 . S
C49 O55 1.263 . S
O50 Tb42 2.427 . S
O50 C46 1.275 . S
O51 Tb42 2.513 . S
O51 C46 1.246 . S
O52 Tb42 2.453 . S
O52 C48 1.245 . S
O53 Tb40 2.343 . S
O53 Tb42 2.596 . S
O53 C48 1.259 . S
O54 Tb42 2.374 . S
O54 C49 1.250 . S
O55 Tb40 2.353 . S
O55 C49 1.263 . S
C56 O57 1.275 . S
C56 O58 1.246 . S
O57 Tb40 2.427 . S
O57 C56 1.275 . S
O58 Tb40 2.513 . S
O58 C56 1.246 . S
C59 O43 1.245 . S
C59 O44 1.259 . S
Tb60 O63 2.453 . S
Tb60 O64 2.596 . S
Tb60 O65 2.374 . S
Tb60 O73 2.343 . S
Tb60 O75 2.353 . S
Tb60 O77 2.427 . S
Tb60 O78 2.513 . S
C61 O65 1.251 . S
C61 O67 1.263 . S
Tb62 O64 2.343 . S
Tb62 O67 2.353 . S
Tb62 O70 2.427 . S
Tb62 O71 2.513 . S
Tb62 O72 2.453 . S
Tb62 O73 2.596 . S
Tb62 O74 2.374 . S
O63 Tb60 2.453 . S
O63 C79 1.245 . S
O64 Tb60 2.596 . S
O64 Tb62 2.343 . S
O64 C79 1.259 . S
O65 Tb60 2.374 . S
O65 C61 1.251 . S
C66 O70 1.275 . S
C66 O71 1.246 . S
O67 C61 1.263 . S
O67 Tb62 2.353 . S
C68 O72 1.245 . S
C68 O73 1.259 . S
C69 O74 1.250 . S
C69 O75 1.263 . S
O70 Tb62 2.427 . S
O70 C66 1.275 . S
O71 Tb62 2.513 . S
O71 C66 1.246 . S
O72 Tb62 2.453 . S
O72 C68 1.245 . S
O73 Tb60 2.343 . S
O73 Tb62 2.596 . S
O73 C68 1.259 . S
O74 Tb62 2.374 . S
O74 C69 1.250 . S
O75 Tb60 2.353 . S
O75 C69 1.263 . S
C76 O77 1.275 . S
C76 O78 1.246 . S
O77 Tb60 2.427 . S
O77 C76 1.275 . S
O78 Tb60 2.513 . S
O78 C76 1.246 . S
C79 O63 1.245 . S
C79 O64 1.259 . S
Tb80 O83 2.453 . S
Tb80 O84 2.596 . S
Tb80 O85 2.374 . S
Tb80 O93 2.343 . S
Tb80 O95 2.353 . S
Tb80 O97 2.427 . S
Tb80 O98 2.513 . S
C81 O85 1.251 . S
C81 O87 1.263 . S
Tb82 O84 2.343 . S
Tb82 O87 2.353 . S
Tb82 O90 2.427 . S
Tb82 O91 2.513 . S
Tb82 O92 2.453 . S
Tb82 O93 2.596 . S
Tb82 O94 2.374 . S
O83 Tb80 2.453 . S
O83 C99 1.245 . S
O84 Tb80 2.596 . S
O84 Tb82 2.343 . S
O84 C99 1.259 . S
O85 Tb80 2.374 . S
O85 C81 1.251 . S
C86 O90 1.275 . S
C86 O91 1.246 . S
O87 C81 1.263 . S
O87 Tb82 2.353 . S
C88 O92 1.245 . S
C88 O93 1.259 . S
C89 O94 1.250 . S
C89 O95 1.263 . S
O90 Tb82 2.427 . S
O90 C86 1.275 . S
O91 Tb82 2.513 . S
O91 C86 1.246 . S
O92 Tb82 2.453 . S
O92 C88 1.245 . S
O93 Tb80 2.343 . S
O93 Tb82 2.596 . S
O93 C88 1.259 . S
O94 Tb82 2.374 . S
O94 C89 1.250 . S
O95 Tb80 2.353 . S
O95 C89 1.263 . S
C96 O97 1.275 . S
C96 O98 1.246 . S
O97 Tb80 2.427 . S
O97 C96 1.275 . S
O98 Tb80 2.513 . S
O98 C96 1.246 . S
C99 O83 1.245 . S
C99 O84 1.259 . S
Tb100 O103 2.453 . S
Tb100 O104 2.596 . S
Tb100 O105 2.374 . S
Tb100 O113 2.343 . S
Tb100 O115 2.353 . S
Tb100 O117 2.427 . S
Tb100 O118 2.513 . S
C101 O105 1.251 . S
C101 O107 1.263 . S
Tb102 O104 2.343 . S
Tb102 O107 2.353 . S
Tb102 O110 2.427 . S
Tb102 O111 2.513 . S
Tb102 O112 2.453 . S
Tb102 O113 2.596 . S
Tb102 O114 2.374 . S
O103 Tb100 2.453 . S
O103 C119 1.245 . S
O104 Tb100 2.596 . S
O104 Tb102 2.343 . S
O104 C119 1.259 . S
O105 Tb100 2.374 . S
O105 C101 1.251 . S
C106 O110 1.275 . S
C106 O111 1.246 . S
O107 C101 1.263 . S
O107 Tb102 2.353 . S
C108 O112 1.245 . S
C108 O113 1.259 . S
C109 O114 1.250 . S
C109 O115 1.263 . S
O110 Tb102 2.427 . S
O110 C106 1.275 . S
O111 Tb102 2.513 . S
O111 C106 1.246 . S
O112 Tb102 2.453 . S
O112 C108 1.245 . S
O113 Tb100 2.343 . S
O113 Tb102 2.596 . S
O113 C108 1.259 . S
O114 Tb102 2.374 . S
O114 C109 1.250 . S
O115 Tb100 2.353 . S
O115 C109 1.263 . S
C116 O117 1.275 . S
C116 O118 1.246 . S
O117 Tb100 2.427 . S
O117 C116 1.275 . S
O118 Tb100 2.513 . S
O118 C116 1.246 . S
C119 O103 1.245 . S
C119 O104 1.259 . S
Tb120 O123 2.453 . S
Tb120 O124 2.596 . S
Tb120 O125 2.374 . S
Tb120 O133 2.343 . S
Tb120 O135 2.353 . S
Tb120 O137 2.427 . S
Tb120 O138 2.513 . S
C121 O125 1.251 . S
C121 O127 1.263 . S
Tb122 O124 2.343 . S
Tb122 O127 2.353 . S
Tb122 O130 2.427 . S
Tb122 O131 2.513 . S
Tb122 O132 2.453 . S
Tb122 O133 2.596 . S
Tb122 O134 2.374 . S
O123 Tb120 2.453 . S
O123 C139 1.245 . S
O124 Tb120 2.596 . S
O124 Tb122 2.343 . S
O124 C139 1.259 . S
O125 Tb120 2.374 . S
O125 C121 1.251 . S
C126 O130 1.275 . S
C126 O131 1.246 . S
O127 C121 1.263 . S
O127 Tb122 2.353 . S
C128 O132 1.245 . S
C128 O133 1.259 . S
C129 O134 1.250 . S
C129 O135 1.263 . S
O130 Tb122 2.427 . S
O130 C126 1.275 . S
O131 Tb122 2.513 . S
O131 C126 1.246 . S
O132 Tb122 2.453 . S
O132 C128 1.245 . S
O133 Tb120 2.343 . S
O133 Tb122 2.596 . S
O133 C128 1.259 . S
O134 Tb122 2.374 . S
O134 C129 1.250 . S
O135 Tb120 2.353 . S
O135 C129 1.263 . S
C136 O137 1.275 . S
C136 O138 1.246 . S
O137 Tb120 2.427 . S
O137 C136 1.275 . S
O138 Tb120 2.513 . S
O138 C136 1.246 . S
C139 O123 1.245 . S
C139 O124 1.259 . S
Tb140 O143 2.453 . S
Tb140 O144 2.596 . S
Tb140 O145 2.374 . S
Tb140 O153 2.343 . S
Tb140 O155 2.353 . S
Tb140 O157 2.427 . S
Tb140 O158 2.513 . S
C141 O145 1.251 . S
C141 O147 1.263 . S
Tb142 O144 2.343 . S
Tb142 O147 2.353 . S
Tb142 O150 2.427 . S
Tb142 O151 2.513 . S
Tb142 O152 2.453 . S
Tb142 O153 2.596 . S
Tb142 O154 2.374 . S
O143 Tb140 2.453 . S
O143 C159 1.245 . S
O144 Tb140 2.596 . S
O144 Tb142 2.343 . S
O144 C159 1.259 . S
O145 Tb140 2.374 . S
O145 C141 1.251 . S
C146 O150 1.275 . S
C146 O151 1.246 . S
O147 C141 1.263 . S
O147 Tb142 2.353 . S
C148 O152 1.245 . S
C148 O153 1.259 . S
C149 O154 1.250 . S
C149 O155 1.263 . S
O150 Tb142 2.427 . S
O150 C146 1.275 . S
O151 Tb142 2.513 . S
O151 C146 1.246 . S
O152 Tb142 2.453 . S
O152 C148 1.245 . S
O153 Tb140 2.343 . S
O153 Tb142 2.596 . S
O153 C148 1.259 . S
O154 Tb142 2.374 . S
O154 C149 1.250 . S
O155 Tb140 2.353 . S
O155 C149 1.263 . S
C156 O157 1.275 . S
C156 O158 1.246 . S
O157 Tb140 2.427 . S
O157 C156 1.275 . S
O158 Tb140 2.513 . S
O158 C156 1.246 . S
C159 O143 1.245 . S
C159 O144 1.259 . S
Tb160 O163 2.453 . S
Tb160 O164 2.596 . S
Tb160 O165 2.374 . S
Tb160 O173 2.343 . S
Tb160 O175 2.353 . S
Tb160 O177 2.427 . S
Tb160 O178 2.513 . S
C161 O165 1.251 . S
C161 O167 1.263 . S
Tb162 O164 2.343 . S
Tb162 O167 2.353 . S
Tb162 O170 2.427 . S
Tb162 O171 2.513 . S
Tb162 O172 2.453 . S
Tb162 O173 2.596 . S
Tb162 O174 2.374 . S
O163 Tb160 2.453 . S
O163 C179 1.245 . S
O164 Tb160 2.596 . S
O164 Tb162 2.343 . S
O164 C179 1.259 . S
O165 Tb160 2.374 . S
O165 C161 1.251 . S
C166 O170 1.275 . S
C166 O171 1.246 . S
O167 C161 1.263 . S
O167 Tb162 2.353 . S
C168 O172 1.245 . S
C168 O173 1.259 . S
C169 O174 1.250 . S
C169 O175 1.263 . S
O170 Tb162 2.427 . S
O170 C166 1.275 . S
O171 Tb162 2.513 . S
O171 C166 1.246 . S
O172 Tb162 2.453 . S
O172 C168 1.245 . S
O173 Tb160 2.343 . S
O173 Tb162 2.596 . S
O173 C168 1.259 . S
O174 Tb162 2.374 . S
O174 C169 1.250 . S
O175 Tb160 2.353 . S
O175 C169 1.263 . S
C176 O177 1.275 . S
C176 O178 1.246 . S
O177 Tb160 2.427 . S
O177 C176 1.275 . S
O178 Tb160 2.513 . S
O178 C176 1.246 . S
C179 O163 1.245 . S
C179 O164 1.259 . S
Tb180 O183 2.453 . S
Tb180 O184 2.596 . S
Tb180 O185 2.374 . S
Tb180 O193 2.343 . S
Tb180 O195 2.353 . S
Tb180 O197 2.427 . S
Tb180 O198 2.513 . S
C181 O185 1.251 1_565 S
C181 O187 1.263 . S
Tb182 O184 2.343 1_565 S
Tb182 O187 2.353 . S
Tb182 O190 2.427 . S
Tb182 O191 2.513 . S
Tb182 O192 2.453 . S
Tb182 O193 2.596 1_565 S
Tb182 O194 2.374 1_565 S
O183 Tb180 2.453 . S
O183 C199 1.245 . S
O184 Tb180 2.596 . S
O184 Tb182 2.343 1_545 S
O184 C199 1.259 . S
O185 Tb180 2.374 . S
O185 C181 1.251 1_545 S
C186 O190 1.275 . S
C186 O191 1.246 . S
O187 C181 1.263 . S
O187 Tb182 2.353 . S
C188 O192 1.245 1_545 S
C188 O193 1.259 . S
C189 O194 1.250 . S
C189 O195 1.263 . S
O190 Tb182 2.427 . S
O190 C186 1.275 . S
O191 Tb182 2.513 . S
O191 C186 1.246 . S
O192 Tb182 2.453 . S
O192 C188 1.245 1_565 S
O193 Tb180 2.343 . S
O193 Tb182 2.596 1_545 S
O193 C188 1.259 . S
O194 Tb182 2.374 1_545 S
O194 C189 1.250 . S
O195 Tb180 2.353 . S
O195 C189 1.263 . S
C196 O197 1.275 . S
C196 O198 1.246 . S
O197 Tb180 2.427 . S
O197 C196 1.275 . S
O198 Tb180 2.513 . S
O198 C196 1.246 . S
C199 O183 1.245 . S
C199 O184 1.259 . S
Tb200 O203 2.453 . S
Tb200 O204 2.596 . S
Tb200 O205 2.374 . S
Tb200 O213 2.343 . S
Tb200 O215 2.353 . S
Tb200 O217 2.427 . S
Tb200 O218 2.513 . S
C201 O205 1.251 . S
C201 O207 1.263 . S
Tb202 O204 2.343 . S
Tb202 O207 2.353 . S
Tb202 O210 2.427 . S
Tb202 O211 2.513 . S
Tb202 O212 2.453 . S
Tb202 O213 2.596 . S
Tb202 O214 2.374 . S
O203 Tb200 2.453 . S
O203 C219 1.245 . S
O204 Tb200 2.596 . S
O204 Tb202 2.343 . S
O204 C219 1.259 . S
O205 Tb200 2.374 . S
O205 C201 1.251 . S
C206 O210 1.275 . S
C206 O211 1.246 . S
O207 C201 1.263 . S
O207 Tb202 2.353 . S
C208 O212 1.245 . S
C208 O213 1.259 . S
C209 O214 1.250 . S
C209 O215 1.263 . S
O210 Tb202 2.427 . S
O210 C206 1.275 . S
O211 Tb202 2.513 . S
O211 C206 1.246 . S
O212 Tb202 2.453 . S
O212 C208 1.245 . S
O213 Tb200 2.343 . S
O213 Tb202 2.596 . S
O213 C208 1.259 . S
O214 Tb202 2.374 . S
O214 C209 1.250 . S
O215 Tb200 2.353 . S
O215 C209 1.263 . S
C216 O217 1.275 . S
C216 O218 1.246 . S
O217 Tb200 2.427 . S
O217 C216 1.275 . S
O218 Tb200 2.513 . S
O218 C216 1.246 . S
C219 O203 1.245 . S
C219 O204 1.259 . S
Tb220 O223 2.453 . S
Tb220 O224 2.596 . S
Tb220 O225 2.374 . S
Tb220 O233 2.343 . S
Tb220 O235 2.353 . S
Tb220 O237 2.427 . S
Tb220 O238 2.513 . S
C221 O225 1.251 1_545 S
C221 O227 1.263 . S
Tb222 O224 2.343 1_545 S
Tb222 O227 2.353 . S
Tb222 O230 2.427 . S
Tb222 O231 2.513 . S
Tb222 O232 2.453 . S
Tb222 O233 2.596 1_545 S
Tb222 O234 2.374 1_545 S
O223 Tb220 2.453 . S
O223 C239 1.245 . S
O224 Tb220 2.596 . S
O224 Tb222 2.343 1_565 S
O224 C239 1.259 . S
O225 Tb220 2.374 . S
O225 C221 1.251 1_565 S
C226 O230 1.275 . S
C226 O231 1.246 . S
O227 C221 1.263 . S
O227 Tb222 2.353 . S
C228 O232 1.245 1_565 S
C228 O233 1.259 . S
C229 O234 1.250 . S
C229 O235 1.263 . S
O230 Tb222 2.427 . S
O230 C226 1.275 . S
O231 Tb222 2.513 . S
O231 C226 1.246 . S
O232 Tb222 2.453 . S
O232 C228 1.245 1_545 S
O233 Tb220 2.343 . S
O233 Tb222 2.596 1_565 S
O233 C228 1.259 . S
O234 Tb222 2.374 1_565 S
O234 C229 1.250 . S
O235 Tb220 2.353 . S
O235 C229 1.263 . S
C236 O237 1.275 . S
C236 O238 1.246 . S
O237 Tb220 2.427 . S
O237 C236 1.275 . S
O238 Tb220 2.513 . S
O238 C236 1.246 . S
C239 O223 1.245 . S
C239 O224 1.259 . S
Tb240 O243 2.453 . S
Tb240 O244 2.596 . S
Tb240 O245 2.374 . S
Tb240 O253 2.343 . S
Tb240 O255 2.353 . S
Tb240 O257 2.427 . S
Tb240 O258 2.513 . S
C241 O245 1.251 . S
C241 O247 1.263 . S
Tb242 O244 2.343 . S
Tb242 O247 2.353 . S
Tb242 O250 2.427 . S
Tb242 O251 2.513 . S
Tb242 O252 2.453 . S
Tb242 O253 2.596 . S
Tb242 O254 2.374 . S
O243 Tb240 2.453 . S
O243 C259 1.245 . S
O244 Tb240 2.596 . S
O244 Tb242 2.343 . S
O244 C259 1.259 . S
O245 Tb240 2.374 . S
O245 C241 1.251 . S
C246 O250 1.275 . S
C246 O251 1.246 . S
O247 C241 1.263 . S
O247 Tb242 2.353 . S
C248 O252 1.245 . S
C248 O253 1.259 . S
C249 O254 1.250 . S
C249 O255 1.263 . S
O250 Tb242 2.427 . S
O250 C246 1.275 . S
O251 Tb242 2.513 . S
O251 C246 1.246 . S
O252 Tb242 2.453 . S
O252 C248 1.245 . S
O253 Tb240 2.343 . S
O253 Tb242 2.596 . S
O253 C248 1.259 . S
O254 Tb242 2.374 . S
O254 C249 1.250 . S
O255 Tb240 2.353 . S
O255 C249 1.263 . S
C256 O257 1.275 . S
C256 O258 1.246 . S
O257 Tb240 2.427 . S
O257 C256 1.275 . S
O258 Tb240 2.513 . S
O258 C256 1.246 . S
C259 O243 1.245 . S
C259 O244 1.259 . S
Tb260 O263 2.453 . S
Tb260 O264 2.596 1_545 S
Tb260 O265 2.374 1_545 S
Tb260 O273 2.343 1_545 S
Tb260 O275 2.353 . S
Tb260 O277 2.427 . S
Tb260 O278 2.513 . S
C261 O265 1.251 . S
C261 O267 1.263 . S
Tb262 O264 2.343 . S
Tb262 O267 2.353 . S
Tb262 O270 2.427 . S
Tb262 O271 2.513 . S
Tb262 O272 2.453 . S
Tb262 O273 2.596 . S
Tb262 O274 2.374 . S
O263 Tb260 2.453 . S
O263 C279 1.245 1_545 S
O264 Tb260 2.596 1_565 S
O264 Tb262 2.343 . S
O264 C279 1.259 . S
O265 Tb260 2.374 1_565 S
O265 C261 1.251 . S
C266 O270 1.275 . S
C266 O271 1.246 . S
O267 C261 1.263 . S
O267 Tb262 2.353 . S
C268 O272 1.245 . S
C268 O273 1.259 . S
C269 O274 1.250 1_545 S
C269 O275 1.263 . S
O270 Tb262 2.427 . S
O270 C266 1.275 . S
O271 Tb262 2.513 . S
O271 C266 1.246 . S
O272 Tb262 2.453 . S
O272 C268 1.245 . S
O273 Tb260 2.343 1_565 S
O273 Tb262 2.596 . S
O273 C268 1.259 . S
O274 Tb262 2.374 . S
O274 C269 1.250 1_565 S
O275 Tb260 2.353 . S
O275 C269 1.263 . S
C276 O277 1.275 . S
C276 O278 1.246 . S
O277 Tb260 2.427 . S
O277 C276 1.275 . S
O278 Tb260 2.513 . S
O278 C276 1.246 . S
C279 O263 1.245 1_565 S
C279 O264 1.259 . S
Tb280 O283 2.453 . S
Tb280 O284 2.596 . S
Tb280 O285 2.374 . S
Tb280 O293 2.343 . S
Tb280 O295 2.353 . S
Tb280 O297 2.427 . S
Tb280 O298 2.513 . S
C281 O285 1.251 . S
C281 O287 1.263 . S
Tb282 O284 2.343 . S
Tb282 O287 2.353 . S
Tb282 O290 2.427 . S
Tb282 O291 2.513 . S
Tb282 O292 2.453 . S
Tb282 O293 2.596 . S
Tb282 O294 2.374 . S
O283 Tb280 2.453 . S
O283 C299 1.245 . S
O284 Tb280 2.596 . S
O284 Tb282 2.343 . S
O284 C299 1.259 . S
O285 Tb280 2.374 . S
O285 C281 1.251 . S
C286 O290 1.275 . S
C286 O291 1.246 . S
O287 C281 1.263 . S
O287 Tb282 2.353 . S
C288 O292 1.245 . S
C288 O293 1.259 . S
C289 O294 1.250 . S
C289 O295 1.263 . S
O290 Tb282 2.427 . S
O290 C286 1.275 . S
O291 Tb282 2.513 . S
O291 C286 1.246 . S
O292 Tb282 2.453 . S
O292 C288 1.245 . S
O293 Tb280 2.343 . S
O293 Tb282 2.596 . S
O293 C288 1.259 . S
O294 Tb282 2.374 . S
O294 C289 1.250 . S
O295 Tb280 2.353 . S
O295 C289 1.263 . S
C296 O297 1.275 . S
C296 O298 1.246 . S
O297 Tb280 2.427 . S
O297 C296 1.275 . S
O298 Tb280 2.513 . S
O298 C296 1.246 . S
C299 O283 1.245 . S
C299 O284 1.259 . S
Tb300 O303 2.453 . S
Tb300 O304 2.596 1_565 S
Tb300 O305 2.374 1_565 S
Tb300 O313 2.343 1_565 S
Tb300 O315 2.353 . S
Tb300 O317 2.427 . S
Tb300 O318 2.513 . S
C301 O305 1.251 . S
C301 O307 1.263 . S
Tb302 O304 2.343 . S
Tb302 O307 2.353 . S
Tb302 O310 2.427 . S
Tb302 O311 2.513 . S
Tb302 O312 2.453 . S
Tb302 O313 2.596 . S
Tb302 O314 2.374 . S
O303 Tb300 2.453 . S
O303 C319 1.245 1_565 S
O304 Tb300 2.596 1_545 S
O304 Tb302 2.343 . S
O304 C319 1.259 . S
O305 Tb300 2.374 1_545 S
O305 C301 1.251 . S
C306 O310 1.275 . S
C306 O311 1.246 . S
O307 C301 1.263 . S
O307 Tb302 2.353 . S
C308 O312 1.245 . S
C308 O313 1.259 . S
C309 O314 1.250 1_565 S
C309 O315 1.263 . S
O310 Tb302 2.427 . S
O310 C306 1.275 . S
O311 Tb302 2.513 . S
O311 C306 1.246 . S
O312 Tb302 2.453 . S
O312 C308 1.245 . S
O313 Tb300 2.343 1_545 S
O313 Tb302 2.596 . S
O313 C308 1.259 . S
O314 Tb302 2.374 . S
O314 C309 1.250 1_545 S
O315 Tb300 2.353 . S
O315 C309 1.263 . S
C316 O317 1.275 . S
C316 O318 1.246 . S
O317 Tb300 2.427 . S
O317 C316 1.275 . S
O318 Tb300 2.513 . S
O318 C316 1.246 . S
C319 O303 1.245 1_545 S
C319 O304 1.259 . S
C320 C321 1.349 . S
C320 C322 1.327 . S
C320 H345 0.950 . S
C321 C320 1.349 . S
C321 C337 1.349 . S
C322 C320 1.327 . S
C322 C341 1.429 . S
C322 H346 0.950 . S
C323 C340 1.574 . S
C323 C342 1.368 . S
C323 H347 0.949 . S
H324 C328 0.949 . S
C325 C326 1.349 . S
C325 C327 1.327 . S
C325 H348 0.950 . S
C326 C325 1.349 . S
C326 C338 1.349 . S
C327 C325 1.327 . S
C327 C343 1.429 . S
C327 H349 0.950 . S
C328 H324 0.949 . S
C328 C336 1.574 . S
C328 C344 1.368 . S
H329 C337 0.950 . S
H330 C335 0.950 . S
H331 C336 0.949 . S
H332 C338 0.950 . S
H333 C339 0.950 . S
H334 C340 0.949 . S
C335 H330 0.950 . S
C335 C337 1.327 . S
C335 C341 1.429 . S
C336 C328 1.574 . S
C336 H331 0.949 . S
C336 C342 1.368 . S
C337 C321 1.349 . S
C337 H329 0.950 . S
C337 C335 1.327 . S
C338 C326 1.349 . S
C338 H332 0.950 . S
C338 C339 1.327 . S
C339 H333 0.950 . S
C339 C338 1.327 . S
C339 C343 1.429 . S
C340 C323 1.574 . S
C340 H334 0.949 . S
C340 C344 1.368 . S
C341 C322 1.429 . S
C341 C335 1.429 . S
C341 C342 1.523 . S
C342 C323 1.368 . S
C342 C336 1.368 . S
C342 C341 1.523 . S
C343 C327 1.429 . S
C343 C339 1.429 . S
C343 C344 1.523 . S
C344 C328 1.368 . S
C344 C340 1.368 . S
C344 C343 1.523 . S
H345 C320 0.950 . S
H346 C322 0.950 . S
H347 C323 0.949 . S
H348 C325 0.950 . S
H349 C327 0.950 . S
C350 C351 1.349 . S
C350 C352 1.327 . S
C350 H375 0.950 . S
C351 C350 1.349 . S
C351 C367 1.349 . S
C352 C350 1.327 . S
C352 C371 1.429 . S
C352 H376 0.950 . S
C353 C370 1.574 . S
C353 C372 1.368 . S
C353 H377 0.949 . S
H354 C358 0.949 . S
C355 C356 1.349 . S
C355 C357 1.327 . S
C355 H378 0.950 . S
C356 C355 1.349 . S
C356 C368 1.349 . S
C357 C355 1.327 . S
C357 C373 1.429 . S
C357 H379 0.950 . S
C358 H354 0.949 . S
C358 C366 1.574 . S
C358 C374 1.368 . S
H359 C367 0.950 . S
H360 C365 0.950 . S
H361 C366 0.949 . S
H362 C368 0.950 . S
H363 C369 0.950 . S
H364 C370 0.949 . S
C365 H360 0.950 . S
C365 C367 1.327 . S
C365 C371 1.429 . S
C366 C358 1.574 . S
C366 H361 0.949 . S
C366 C372 1.368 . S
C367 C351 1.349 . S
C367 H359 0.950 . S
C367 C365 1.327 . S
C368 C356 1.349 . S
C368 H362 0.950 . S
C368 C369 1.327 . S
C369 H363 0.950 . S
C369 C368 1.327 . S
C369 C373 1.429 . S
C370 C353 1.574 . S
C370 H364 0.949 . S
C370 C374 1.368 . S
C371 C352 1.429 . S
C371 C365 1.429 . S
C371 C372 1.523 . S
C372 C353 1.368 . S
C372 C366 1.368 . S
C372 C371 1.523 . S
C373 C357 1.429 . S
C373 C369 1.429 . S
C373 C374 1.523 . S
C374 C358 1.368 . S
C374 C370 1.368 . S
C374 C373 1.523 . S
H375 C350 0.950 . S
H376 C352 0.950 . S
H377 C353 0.949 . S
H378 C355 0.950 . S
H379 C357 0.950 . S
C380 C381 1.349 . S
C380 C382 1.327 . S
C380 H405 0.950 . S
C381 C380 1.349 . S
C381 C397 1.349 . S
C382 C380 1.327 . S
C382 C401 1.429 . S
C382 H406 0.950 . S
C383 C400 1.574 . S
C383 C402 1.368 . S
C383 H407 0.949 . S
H384 C388 0.949 . S
C385 C386 1.349 . S
C385 C387 1.327 . S
C385 H408 0.950 . S
C386 C385 1.349 . S
C386 C398 1.349 . S
C387 C385 1.327 . S
C387 C403 1.429 . S
C387 H409 0.950 . S
C388 H384 0.949 . S
C388 C396 1.574 . S
C388 C404 1.368 . S
H389 C397 0.950 . S
H390 C395 0.950 . S
H391 C396 0.949 . S
H392 C398 0.950 . S
H393 C399 0.950 . S
H394 C400 0.949 . S
C395 H390 0.950 . S
C395 C397 1.327 . S
C395 C401 1.429 . S
C396 C388 1.574 . S
C396 H391 0.949 . S
C396 C402 1.368 . S
C397 C381 1.349 . S
C397 H389 0.950 . S
C397 C395 1.327 . S
C398 C386 1.349 . S
C398 H392 0.950 . S
C398 C399 1.327 . S
C399 H393 0.950 . S
C399 C398 1.327 . S
C399 C403 1.429 . S
C400 C383 1.574 . S
C400 H394 0.949 . S
C400 C404 1.368 . S
C401 C382 1.429 . S
C401 C395 1.429 . S
C401 C402 1.523 . S
C402 C383 1.368 . S
C402 C396 1.368 . S
C402 C401 1.523 . S
C403 C387 1.429 . S
C403 C399 1.429 . S
C403 C404 1.523 . S
C404 C388 1.368 . S
C404 C400 1.368 . S
C404 C403 1.523 . S
H405 C380 0.950 . S
H406 C382 0.950 . S
H407 C383 0.949 . S
H408 C385 0.950 . S
H409 C387 0.950 . S
C410 C411 1.349 . S
C410 C412 1.327 . S
C410 H435 0.950 . S
C411 C410 1.349 . S
C411 C427 1.349 . S
C412 C410 1.327 . S
C412 C431 1.429 . S
C412 H436 0.950 . S
C413 C430 1.606 1_655 S
C413 C432 1.336 1_554 S
C413 H437 0.949 . S
H414 C418 0.949 . S
C415 C416 1.349 . S
C415 C417 1.327 . S
C415 H438 0.950 . S
C416 C415 1.349 . S
C416 C428 1.349 . S
C417 C415 1.327 . S
C417 C433 1.429 . S
C417 H439 0.950 . S
C418 H414 0.949 . S
C418 C426 1.606 1_455 S
C418 C434 1.336 1_556 S
H419 C427 0.950 . S
H420 C425 0.950 . S
H421 C426 0.949 . S
H422 C428 0.950 . S
H423 C429 0.950 . S
H424 C430 0.949 . S
C425 H420 0.950 . S
C425 C427 1.327 . S
C425 C431 1.429 . S
C426 C418 1.606 1_655 S
C426 H421 0.949 . S
C426 C432 1.368 . S
C427 C411 1.349 . S
C427 H419 0.950 . S
C427 C425 1.327 . S
C428 C416 1.349 . S
C428 H422 0.950 . S
C428 C429 1.327 . S
C429 H423 0.950 . S
C429 C428 1.327 . S
C429 C433 1.429 . S
C430 C413 1.606 1_455 S
C430 H424 0.949 . S
C430 C434 1.368 . S
C431 C412 1.429 . S
C431 C425 1.429 . S
C431 C432 1.523 . S
C432 C413 1.336 1_556 S
C432 C426 1.368 . S
C432 C431 1.523 . S
C433 C417 1.429 . S
C433 C429 1.429 . S
C433 C434 1.523 . S
C434 C418 1.336 1_554 S
C434 C430 1.368 . S
C434 C433 1.523 . S
H435 C410 0.950 . S
H436 C412 0.950 . S
H437 C413 0.949 . S
H438 C415 0.950 . S
H439 C417 0.950 . S
C440 C441 1.349 . S
C440 C442 1.327 . S
C440 H465 0.950 . S
C441 C440 1.349 . S
C441 C457 1.349 . S
C442 C440 1.327 . S
C442 C461 1.429 . S
C442 H466 0.950 . S
C443 C460 1.574 . S
C443 C462 1.368 . S
C443 H467 0.949 . S
H444 C448 0.949 . S
C445 C446 1.349 . S
C445 C447 1.327 . S
C445 H468 0.950 . S
C446 C445 1.349 . S
C446 C458 1.349 . S
C447 C445 1.327 . S
C447 C463 1.429 . S
C447 H469 0.950 . S
C448 H444 0.949 . S
C448 C456 1.574 . S
C448 C464 1.368 . S
H449 C457 0.950 . S
H450 C455 0.950 . S
H451 C456 0.949 . S
H452 C458 0.950 . S
H453 C459 0.950 . S
H454 C460 0.949 . S
C455 H450 0.950 . S
C455 C457 1.327 . S
C455 C461 1.429 . S
C456 C448 1.574 . S
C456 H451 0.949 . S
C456 C462 1.368 . S
C457 C441 1.349 . S
C457 H449 0.950 . S
C457 C455 1.327 . S
C458 C446 1.349 . S
C458 H452 0.950 . S
C458 C459 1.327 . S
C459 H453 0.950 . S
C459 C458 1.327 . S
C459 C463 1.429 . S
C460 C443 1.574 . S
C460 H454 0.949 . S
C460 C464 1.368 . S
C461 C442 1.429 . S
C461 C455 1.429 . S
C461 C462 1.523 . S
C462 C443 1.368 . S
C462 C456 1.368 . S
C462 C461 1.523 . S
C463 C447 1.429 . S
C463 C459 1.429 . S
C463 C464 1.523 . S
C464 C448 1.368 . S
C464 C460 1.368 . S
C464 C463 1.523 . S
H465 C440 0.950 . S
H466 C442 0.950 . S
H467 C443 0.949 . S
H468 C445 0.950 . S
H469 C447 0.950 . S
C470 C471 1.349 . S
C470 C472 1.327 . S
C470 H495 0.950 . S
C471 C470 1.349 . S
C471 C487 1.349 . S
C472 C470 1.327 . S
C472 C491 1.429 . S
C472 H496 0.950 . S
C473 C490 1.574 . S
C473 C492 1.368 . S
C473 H497 0.949 . S
H474 C478 0.949 . S
C475 C476 1.349 . S
C475 C477 1.327 . S
C475 H498 0.950 . S
C476 C475 1.349 . S
C476 C488 1.349 . S
C477 C475 1.327 . S
C477 C493 1.429 . S
C477 H499 0.950 . S
C478 H474 0.949 . S
C478 C486 1.574 . S
C478 C494 1.368 . S
H479 C487 0.950 . S
H480 C485 0.950 . S
H481 C486 0.949 . S
H482 C488 0.950 . S
H483 C489 0.950 . S
H484 C490 0.949 . S
C485 H480 0.950 . S
C485 C487 1.327 . S
C485 C491 1.429 . S
C486 C478 1.574 . S
C486 H481 0.949 . S
C486 C492 1.368 . S
C487 C471 1.349 . S
C487 H479 0.950 . S
C487 C485 1.327 . S
C488 C476 1.349 . S
C488 H482 0.950 . S
C488 C489 1.327 . S
C489 H483 0.950 . S
C489 C488 1.327 . S
C489 C493 1.429 . S
C490 C473 1.574 . S
C490 H484 0.949 . S
C490 C494 1.368 . S
C491 C472 1.429 . S
C491 C485 1.429 . S
C491 C492 1.523 . S
C492 C473 1.368 . S
C492 C486 1.368 . S
C492 C491 1.523 . S
C493 C477 1.429 . S
C493 C489 1.429 . S
C493 C494 1.523 . S
C494 C478 1.368 . S
C494 C490 1.368 . S
C494 C493 1.523 . S
H495 C470 0.950 . S
H496 C472 0.950 . S
H497 C473 0.949 . S
H498 C475 0.950 . S
H499 C477 0.950 . S
C500 C501 1.349 . S
C500 C502 1.327 . S
C500 H525 0.950 . S
C501 C500 1.349 . S
C501 C517 1.349 . S
C502 C500 1.327 . S
C502 C521 1.429 . S
C502 H526 0.950 . S
C503 C520 1.574 . S
C503 C522 1.368 1_556 S
C503 H527 0.949 . S
H504 C508 0.949 . S
C505 C506 1.349 . S
C505 C507 1.327 . S
C505 H528 0.950 . S
C506 C505 1.349 . S
C506 C518 1.349 . S
C507 C505 1.327 . S
C507 C523 1.429 . S
C507 H529 0.950 . S
C508 H504 0.949 . S
C508 C516 1.574 . S
C508 C524 1.368 1_554 S
H509 C517 0.950 . S
H510 C515 0.950 . S
H511 C516 0.949 . S
H512 C518 0.950 . S
H513 C519 0.950 . S
H514 C520 0.949 . S
C515 H510 0.950 . S
C515 C517 1.327 . S
C515 C521 1.429 . S
C516 C508 1.574 . S
C516 H511 0.949 . S
C516 C522 1.368 1_445 S
C517 C501 1.349 . S
C517 H509 0.950 . S
C517 C515 1.327 . S
C518 C506 1.349 . S
C518 H512 0.950 . S
C518 C519 1.327 . S
C519 H513 0.950 . S
C519 C518 1.327 . S
C519 C523 1.429 . S
C520 C503 1.574 . S
C520 H514 0.949 . S
C520 C524 1.368 1_665 S
C521 C502 1.429 . S
C521 C515 1.429 . S
C521 C522 1.523 . S
C522 C503 1.368 1_554 S
C522 C516 1.368 1_665 S
C522 C521 1.523 . S
C523 C507 1.429 . S
C523 C519 1.429 . S
C523 C524 1.523 . S
C524 C508 1.368 1_556 S
C524 C520 1.368 1_445 S
C524 C523 1.523 . S
H525 C500 0.950 . S
H526 C502 0.950 . S
H527 C503 0.949 . S
H528 C505 0.950 . S
H529 C507 0.950 . S
C530 C531 1.349 . S
C530 C532 1.327 . S
C530 H555 0.950 . S
C531 C530 1.349 . S
C531 C547 1.349 . S
C532 C530 1.327 . S
C532 C551 1.429 . S
C532 H556 0.950 . S
C533 C550 1.574 . S
C533 C552 1.368 1_545 S
C533 H557 0.949 . S
H534 C538 0.949 . S
C535 C536 1.349 . S
C535 C537 1.327 . S
C535 H558 0.950 . S
C536 C535 1.349 . S
C536 C548 1.349 . S
C537 C535 1.327 . S
C537 C553 1.429 . S
C537 H559 0.950 . S
C538 H534 0.949 . S
C538 C546 1.574 . S
C538 C554 1.368 1_565 S
H539 C547 0.945 1_545 S
H540 C545 0.950 1_545 S
H541 C546 0.949 . S
H542 C548 0.945 1_565 S
H543 C549 0.950 1_565 S
H544 C550 0.949 . S
C545 H540 0.950 1_565 S
C545 C547 1.327 . S
C545 C551 1.429 . S
C546 C538 1.574 . S
C546 H541 0.949 . S
C546 C552 1.368 . S
C547 C531 1.349 . S
C547 H539 0.945 1_565 S
C547 C545 1.327 . S
C548 C536 1.349 . S
C548 H542 0.945 1_545 S
C548 C549 1.327 . S
C549 H543 0.950 1_545 S
C549 C548 1.327 . S
C549 C553 1.429 . S
C550 C533 1.574 . S
C550 H544 0.949 . S
C550 C554 1.368 . S
C551 C532 1.429 . S
C551 C545 1.429 . S
C551 C552 1.523 . S
C552 C533 1.368 1_565 S
C552 C546 1.368 . S
C552 C551 1.523 . S
C553 C537 1.429 . S
C553 C549 1.429 . S
C553 C554 1.523 . S
C554 C538 1.368 1_545 S
C554 C550 1.368 . S
C554 C553 1.523 . S
H555 C530 0.950 . S
H556 C532 0.950 . S
H557 C533 0.949 . S
H558 C535 0.950 . S
H559 C537 0.950 . S
C560 C561 1.349 . S
C560 C562 1.327 . S
C560 H585 0.950 . S
C561 C560 1.349 . S
C561 C577 1.349 . S
C562 C560 1.327 . S
C562 C581 1.429 . S
C562 H586 0.950 . S
C563 C580 1.574 . S
C563 C582 1.368 . S
C563 H587 0.949 . S
H564 C568 0.949 . S
C565 C566 1.349 . S
C565 C567 1.327 . S
C565 H588 0.950 . S
C566 C565 1.349 . S
C566 C578 1.349 . S
C567 C565 1.327 . S
C567 C583 1.429 . S
C567 H589 0.950 . S
C568 H564 0.949 . S
C568 C576 1.574 . S
C568 C584 1.368 . S
H569 C577 0.950 . S
H570 C575 0.950 . S
H571 C576 0.949 . S
H572 C578 0.950 . S
H573 C579 0.950 . S
H574 C580 0.949 . S
C575 H570 0.950 . S
C575 C577 1.327 . S
C575 C581 1.429 . S
C576 C568 1.574 . S
C576 H571 0.949 . S
C576 C582 1.368 . S
C577 C561 1.349 . S
C577 H569 0.950 . S
C577 C575 1.327 . S
C578 C566 1.349 . S
C578 H572 0.950 . S
C578 C579 1.327 . S
C579 H573 0.950 . S
C579 C578 1.327 . S
C579 C583 1.429 . S
C580 C563 1.574 . S
C580 H574 0.949 . S
C580 C584 1.368 . S
C581 C562 1.429 . S
C581 C575 1.429 . S
C581 C582 1.523 1_556 S
C582 C563 1.368 . S
C582 C576 1.368 . S
C582 C581 1.523 1_554 S
C583 C567 1.429 . S
C583 C579 1.429 . S
C583 C584 1.523 . S
C584 C568 1.368 . S
C584 C580 1.368 . S
C584 C583 1.523 . S
H585 C560 0.950 . S
H586 C562 0.950 . S
H587 C563 0.949 . S
H588 C565 0.950 . S
H589 C567 0.950 . S
C590 C591 1.349 . S
C590 C592 1.327 . S
C590 H615 0.950 . S
C591 C590 1.349 . S
C591 C607 1.349 . S
C592 C590 1.327 . S
C592 C611 1.429 . S
C592 H616 0.950 . S
C593 C610 1.574 . S
C593 C612 1.368 . S
C593 H617 0.949 . S
H594 C598 0.949 . S
C595 C596 1.349 . S
C595 C597 1.327 . S
C595 H618 0.950 . S
C596 C595 1.349 . S
C596 C608 1.349 . S
C597 C595 1.327 . S
C597 C613 1.429 . S
C597 H619 0.950 . S
C598 H594 0.949 . S
C598 C606 1.574 . S
C598 C614 1.368 . S
H599 C607 0.950 . S
H600 C605 0.950 . S
H601 C606 0.949 . S
H602 C608 0.950 . S
H603 C609 0.950 . S
H604 C610 0.949 . S
C605 H600 0.950 . S
C605 C607 1.327 . S
C605 C611 1.429 . S
C606 C598 1.574 . S
C606 H601 0.949 . S
C606 C612 1.368 . S
C607 C591 1.349 . S
C607 H599 0.950 . S
C607 C605 1.327 . S
C608 C596 1.349 . S
C608 H602 0.950 . S
C608 C609 1.327 . S
C609 H603 0.950 . S
C609 C608 1.327 . S
C609 C613 1.429 . S
C610 C593 1.574 . S
C610 H604 0.949 . S
C610 C614 1.368 . S
C611 C592 1.429 . S
C611 C605 1.429 . S
C611 C612 1.523 . S
C612 C593 1.368 . S
C612 C606 1.368 . S
C612 C611 1.523 . S
C613 C597 1.429 . S
C613 C609 1.429 . S
C613 C614 1.523 . S
C614 C598 1.368 . S
C614 C610 1.368 . S
C614 C613 1.523 . S
H615 C590 0.950 . S
H616 C592 0.950 . S
H617 C593 0.949 . S
H618 C595 0.950 . S
H619 C597 0.950 . S
C620 C621 1.349 . S
C620 C622 1.327 . S
C620 H645 0.950 . S
C621 C620 1.349 . S
C621 C637 1.349 . S
C622 C620 1.327 . S
C622 C641 1.429 . S
C622 H646 0.950 . S
C623 C640 1.574 . S
C623 C642 1.368 . S
C623 H647 0.949 . S
H624 C628 0.949 . S
C625 C626 1.349 . S
C625 C627 1.327 . S
C625 H648 0.950 . S
C626 C625 1.349 . S
C626 C638 1.349 . S
C627 C625 1.327 . S
C627 C643 1.429 . S
C627 H649 0.950 . S
C628 H624 0.949 . S
C628 C636 1.574 . S
C628 C644 1.368 . S
H629 C637 0.950 . S
H630 C635 0.950 . S
H631 C636 0.949 . S
H632 C638 0.950 . S
H633 C639 0.950 . S
H634 C640 0.949 . S
C635 H630 0.950 . S
C635 C637 1.327 . S
C635 C641 1.429 . S
C636 C628 1.574 . S
C636 H631 0.949 . S
C636 C642 1.368 . S
C637 C621 1.349 . S
C637 H629 0.950 . S
C637 C635 1.327 . S
C638 C626 1.349 . S
C638 H632 0.950 . S
C638 C639 1.327 . S
C639 H633 0.950 . S
C639 C638 1.327 . S
C639 C643 1.429 . S
C640 C623 1.574 . S
C640 H634 0.949 . S
C640 C644 1.368 . S
C641 C622 1.429 . S
C641 C635 1.429 . S
C641 C642 1.523 . S
C642 C623 1.368 . S
C642 C636 1.368 . S
C642 C641 1.523 . S
C643 C627 1.429 . S
C643 C639 1.429 . S
C643 C644 1.523 . S
C644 C628 1.368 . S
C644 C640 1.368 . S
C644 C643 1.523 . S
H645 C620 0.950 . S
H646 C622 0.950 . S
H647 C623 0.949 . S
H648 C625 0.950 . S
H649 C627 0.950 . S
C650 C651 1.349 . S
C650 C652 1.327 . S
C650 H675 0.950 . S
C651 C650 1.349 . S
C651 C667 1.349 . S
C652 C650 1.327 . S
C652 C671 1.429 . S
C652 H676 0.950 . S
C653 C670 1.574 . S
C653 C672 1.368 . S
C653 H677 0.949 . S
H654 C658 0.949 . S
C655 C656 1.349 . S
C655 C657 1.327 . S
C655 H678 0.950 . S
C656 C655 1.349 . S
C656 C668 1.349 . S
C657 C655 1.327 . S
C657 C673 1.429 . S
C657 H679 0.950 . S
C658 H654 0.949 . S
C658 C666 1.574 . S
C658 C674 1.368 . S
H659 C667 0.950 . S
H660 C665 0.950 . S
H661 C666 0.949 . S
H662 C668 0.950 . S
H663 C669 0.950 . S
H664 C670 0.949 . S
C665 H660 0.950 . S
C665 C667 1.327 . S
C665 C671 1.429 . S
C666 C658 1.574 . S
C666 H661 0.949 . S
C666 C672 1.368 . S
C667 C651 1.349 . S
C667 H659 0.950 . S
C667 C665 1.327 . S
C668 C656 1.349 . S
C668 H662 0.950 . S
C668 C669 1.327 . S
C669 H663 0.950 . S
C669 C668 1.327 . S
C669 C673 1.429 . S
C670 C653 1.574 . S
C670 H664 0.949 . S
C670 C674 1.368 . S
C671 C652 1.429 . S
C671 C665 1.429 . S
C671 C672 1.523 . S
C672 C653 1.368 . S
C672 C666 1.368 . S
C672 C671 1.523 . S
C673 C657 1.429 . S
C673 C669 1.429 . S
C673 C674 1.523 . S
C674 C658 1.368 . S
C674 C670 1.368 . S
C674 C673 1.523 . S
H675 C650 0.950 . S
H676 C652 0.950 . S
H677 C653 0.949 . S
H678 C655 0.950 . S
H679 C657 0.950 . S
C680 C681 1.349 . S
C680 C682 1.327 . S
C680 H705 0.950 . S
C681 C680 1.349 . S
C681 C697 1.349 . S
C682 C680 1.327 . S
C682 C701 1.429 . S
C682 H706 0.950 1_554 S
C683 C700 1.574 . S
C683 C702 1.368 . S
C683 H707 0.949 . S
H684 C688 0.949 . S
C685 C686 1.349 . S
C685 C687 1.327 . S
C685 H708 0.950 . S
C686 C685 1.349 . S
C686 C698 1.349 . S
C687 C685 1.327 . S
C687 C703 1.429 . S
C687 H709 0.950 . S
C688 H684 0.949 . S
C688 C696 1.574 . S
C688 C704 1.368 . S
H689 C697 0.950 . S
H690 C695 0.950 . S
H691 C696 0.949 . S
H692 C698 0.950 . S
H693 C699 0.950 . S
H694 C700 0.949 . S
C695 H690 0.950 . S
C695 C697 1.327 . S
C695 C701 1.429 . S
C696 C688 1.574 . S
C696 H691 0.949 . S
C696 C702 1.368 . S
C697 C681 1.349 . S
C697 H689 0.950 . S
C697 C695 1.327 . S
C698 C686 1.349 . S
C698 H692 0.950 . S
C698 C699 1.327 . S
C699 H693 0.950 . S
C699 C698 1.327 . S
C699 C703 1.429 . S
C700 C683 1.574 . S
C700 H694 0.949 . S
C700 C704 1.368 . S
C701 C682 1.429 . S
C701 C695 1.429 . S
C701 C702 1.523 1_554 S
C702 C683 1.368 . S
C702 C696 1.368 . S
C702 C701 1.523 1_556 S
C703 C687 1.429 . S
C703 C699 1.429 . S
C703 C704 1.523 . S
C704 C688 1.368 . S
C704 C700 1.368 . S
C704 C703 1.523 . S
H705 C680 0.950 . S
H706 C682 0.950 1_556 S
H707 C683 0.949 . S
H708 C685 0.950 . S
H709 C687 0.950 . S
C710 C711 1.349 . S
C710 C712 1.327 . S
C710 H735 0.950 . S
C711 C710 1.349 . S
C711 C727 1.349 . S
C712 C710 1.327 . S
C712 C731 1.429 . S
C712 H736 0.950 . S
C713 C730 1.574 . S
C713 C732 1.368 . S
C713 H737 0.949 . S
H714 C718 0.949 . S
C715 C716 1.349 . S
C715 C717 1.327 . S
C715 H738 0.950 . S
C716 C715 1.349 . S
C716 C728 1.349 . S
C717 C715 1.327 . S
C717 C733 1.429 . S
C717 H739 0.950 . S
C718 H714 0.949 . S
C718 C726 1.574 . S
C718 C734 1.368 . S
H719 C727 0.950 . S
H720 C725 0.950 . S
H721 C726 0.949 . S
H722 C728 0.950 . S
H723 C729 0.950 . S
H724 C730 0.949 . S
C725 H720 0.950 . S
C725 C727 1.327 . S
C725 C731 1.429 . S
C726 C718 1.574 . S
C726 H721 0.949 . S
C726 C732 1.368 . S
C727 C711 1.349 . S
C727 H719 0.950 . S
C727 C725 1.327 . S
C728 C716 1.349 . S
C728 H722 0.950 . S
C728 C729 1.327 . S
C729 H723 0.950 . S
C729 C728 1.327 . S
C729 C733 1.429 . S
C730 C713 1.574 . S
C730 H724 0.949 . S
C730 C734 1.368 . S
C731 C712 1.429 . S
C731 C725 1.429 . S
C731 C732 1.523 . S
C732 C713 1.368 . S
C732 C726 1.368 . S
C732 C731 1.523 . S
C733 C717 1.429 . S
C733 C729 1.429 . S
C733 C734 1.523 . S
C734 C718 1.368 . S
C734 C730 1.368 . S
C734 C733 1.523 . S
H735 C710 0.950 . S
H736 C712 0.950 . S
H737 C713 0.949 . S
H738 C715 0.950 . S
H739 C717 0.950 . S
C740 C741 1.349 . S
C740 C742 1.327 . S
C740 H765 0.950 . S
C741 C740 1.349 . S
C741 C757 1.349 . S
C742 C740 1.327 . S
C742 C761 1.429 . S
C742 H766 0.950 . S
C743 C760 1.574 . S
C743 C762 1.368 . S
C743 H767 0.949 . S
H744 C748 0.949 . S
C745 C746 1.349 . S
C745 C747 1.327 . S
C745 H768 0.950 . S
C746 C745 1.349 . S
C746 C758 1.349 . S
C747 C745 1.327 . S
C747 C763 1.429 . S
C747 H769 0.950 . S
C748 H744 0.949 . S
C748 C756 1.574 . S
C748 C764 1.368 . S
H749 C757 0.950 . S
H750 C755 0.950 . S
H751 C756 0.949 . S
H752 C758 0.950 . S
H753 C759 0.950 . S
H754 C760 0.949 . S
C755 H750 0.950 . S
C755 C757 1.327 . S
C755 C761 1.429 . S
C756 C748 1.574 . S
C756 H751 0.949 . S
C756 C762 1.368 . S
C757 C741 1.349 . S
C757 H749 0.950 . S
C757 C755 1.327 . S
C758 C746 1.349 . S
C758 H752 0.950 . S
C758 C759 1.327 . S
C759 H753 0.950 . S
C759 C758 1.327 . S
C759 C763 1.429 . S
C760 C743 1.574 . S
C760 H754 0.949 . S
C760 C764 1.368 . S
C761 C742 1.429 . S
C761 C755 1.429 . S
C761 C762 1.523 . S
C762 C743 1.368 . S
C762 C756 1.368 . S
C762 C761 1.523 . S
C763 C747 1.429 . S
C763 C759 1.429 . S
C763 C764 1.523 . S
C764 C748 1.368 . S
C764 C760 1.368 . S
C764 C763 1.523 . S
H765 C740 0.950 . S
H766 C742 0.950 . S
H767 C743 0.949 . S
H768 C745 0.950 . S
H769 C747 0.950 . S
C770 C771 1.349 . S
C770 C772 1.327 . S
C770 H795 0.950 . S
C771 C770 1.349 . S
C771 C787 1.349 . S
C772 C770 1.327 . S
C772 C791 1.429 . S
C772 H796 0.950 . S
C773 C790 1.574 . S
C773 C792 1.368 . S
C773 H797 0.949 . S
H774 C778 0.949 . S
C775 C776 1.349 . S
C775 C777 1.327 . S
C775 H798 0.950 . S
C776 C775 1.349 . S
C776 C788 1.349 . S
C777 C775 1.327 . S
C777 C793 1.429 . S
C777 H799 0.950 . S
C778 H774 0.949 . S
C778 C786 1.574 . S
C778 C794 1.368 . S
H779 C787 0.950 . S
H780 C785 0.950 . S
H781 C786 0.949 . S
H782 C788 0.950 . S
H783 C789 0.950 . S
H784 C790 0.949 . S
C785 H780 0.950 . S
C785 C787 1.327 . S
C785 C791 1.429 . S
C786 C778 1.574 . S
C786 H781 0.949 . S
C786 C792 1.368 . S
C787 C771 1.349 . S
C787 H779 0.950 . S
C787 C785 1.327 . S
C788 C776 1.349 . S
C788 H782 0.950 . S
C788 C789 1.327 . S
C789 H783 0.950 . S
C789 C788 1.327 . S
C789 C793 1.429 . S
C790 C773 1.574 . S
C790 H784 0.949 . S
C790 C794 1.368 . S
C791 C772 1.429 . S
C791 C785 1.429 . S
C791 C792 1.523 . S
C792 C773 1.368 . S
C792 C786 1.368 . S
C792 C791 1.523 . S
C793 C777 1.429 . S
C793 C789 1.429 . S
C793 C794 1.523 . S
C794 C778 1.368 . S
C794 C790 1.368 . S
C794 C793 1.523 . S
H795 C770 0.950 . S
H796 C772 0.950 . S
H797 C773 0.949 . S
H798 C775 0.950 . S
H799 C777 0.950 . S
C800 C801 1.349 . S
C800 C802 1.327 . S
C800 H825 0.950 . S
C801 C800 1.349 . S
C801 C817 1.349 . S
C802 C800 1.327 . S
C802 C821 1.429 . S
C802 H826 0.950 . S
C803 C820 1.574 . S
C803 C822 1.368 . S
C803 H827 0.949 . S
H804 C808 0.949 . S
C805 C806 1.349 . S
C805 C807 1.327 . S
C805 H828 0.950 . S
C806 C805 1.349 . S
C806 C818 1.349 . S
C807 C805 1.327 . S
C807 C823 1.429 . S
C807 H829 0.950 . S
C808 H804 0.949 . S
C808 C816 1.574 . S
C808 C824 1.368 . S
H809 C817 0.950 . S
H810 C815 0.950 . S
H811 C816 0.949 . S
H812 C818 0.950 . S
H813 C819 0.950 . S
H814 C820 0.949 . S
C815 H810 0.950 . S
C815 C817 1.327 . S
C815 C821 1.429 . S
C816 C808 1.574 . S
C816 H811 0.949 . S
C816 C822 1.368 . S
C817 C801 1.349 . S
C817 H809 0.950 . S
C817 C815 1.327 . S
C818 C806 1.349 . S
C818 H812 0.950 . S
C818 C819 1.327 . S
C819 H813 0.950 . S
C819 C818 1.327 . S
C819 C823 1.429 . S
C820 C803 1.574 . S
C820 H814 0.949 . S
C820 C824 1.368 . S
C821 C802 1.429 . S
C821 C815 1.429 . S
C821 C822 1.523 . S
C822 C803 1.368 . S
C822 C816 1.368 . S
C822 C821 1.523 . S
C823 C807 1.429 . S
C823 C819 1.429 . S
C823 C824 1.523 . S
C824 C808 1.368 . S
C824 C820 1.368 . S
C824 C823 1.523 . S
H825 C800 0.950 . S
H826 C802 0.950 . S
H827 C803 0.949 . S
H828 C805 0.950 . S
H829 C807 0.950 . S
C830 C831 1.349 . S
C830 C832 1.327 . S
C830 H855 0.950 . S
C831 C830 1.349 . S
C831 C847 1.349 1_565 S
C832 C830 1.327 . S
C832 C851 1.429 . S
C832 H856 0.950 . S
C833 C850 1.574 . S
C833 C852 1.368 . S
C833 H857 0.949 . S
H834 C838 0.949 . S
C835 C836 1.349 . S
C835 C837 1.327 . S
C835 H858 0.950 . S
C836 C835 1.349 . S
C836 C848 1.349 . S
C837 C835 1.327 . S
C837 C853 1.429 . S
C837 H859 0.950 . S
C838 H834 0.949 . S
C838 C846 1.574 . S
C838 C854 1.368 . S
H839 C847 0.950 . S
H840 C845 0.950 1_545 S
H841 C846 0.949 . S
H842 C848 0.950 . S
H843 C849 0.950 . S
H844 C850 0.949 . S
C845 H840 0.950 1_565 S
C845 C847 1.327 1_565 S
C845 C851 1.429 . S
C846 C838 1.574 . S
C846 H841 0.949 . S
C846 C852 1.368 . S
C847 C831 1.349 1_545 S
C847 H839 0.950 . S
C847 C845 1.327 1_545 S
C848 C836 1.349 . S
C848 H842 0.950 . S
C848 C849 1.327 . S
C849 H843 0.950 . S
C849 C848 1.327 . S
C849 C853 1.429 . S
C850 C833 1.574 . S
C850 H844 0.949 . S
C850 C854 1.368 . S
C851 C832 1.429 . S
C851 C845 1.429 . S
C851 C852 1.523 . S
C852 C833 1.368 . S
C852 C846 1.368 . S
C852 C851 1.523 . S
C853 C837 1.429 . S
C853 C849 1.429 . S
C853 C854 1.523 . S
C854 C838 1.368 . S
C854 C850 1.368 . S
C854 C853 1.523 . S
H855 C830 0.950 . S
H856 C832 0.950 . S
H857 C833 0.949 . S
H858 C835 0.950 . S
H859 C837 0.950 . S
C860 C861 1.349 . S
C860 C862 1.327 . S
C860 H885 0.950 . S
C861 C860 1.349 . S
C861 C877 1.349 . S
C862 C860 1.327 . S
C862 C881 1.429 . S
C862 H886 0.950 . S
C863 C880 1.574 . S
C863 C882 1.368 . S
C863 H887 0.949 . S
H864 C868 0.949 . S
C865 C866 1.349 . S
C865 C867 1.327 . S
C865 H888 0.950 . S
C866 C865 1.349 . S
C866 C878 1.349 . S
C867 C865 1.327 . S
C867 C883 1.429 . S
C867 H889 0.950 . S
C868 H864 0.949 . S
C868 C876 1.574 . S
C868 C884 1.368 . S
H869 C877 0.950 . S
H870 C875 0.950 . S
H871 C876 0.949 . S
H872 C878 0.950 . S
H873 C879 0.950 1_554 S
H874 C880 0.949 . S
C875 H870 0.950 . S
C875 C877 1.327 . S
C875 C881 1.429 . S
C876 C868 1.574 . S
C876 H871 0.949 . S
C876 C882 1.368 . S
C877 C861 1.349 . S
C877 H869 0.950 . S
C877 C875 1.327 . S
C878 C866 1.349 . S
C878 H872 0.950 . S
C878 C879 1.327 . S
C879 H873 0.950 1_556 S
C879 C878 1.327 . S
C879 C883 1.429 . S
C880 C863 1.574 . S
C880 H874 0.949 . S
C880 C884 1.368 . S
C881 C862 1.429 . S
C881 C875 1.429 . S
C881 C882 1.523 . S
C882 C863 1.368 . S
C882 C876 1.368 . S
C882 C881 1.523 . S
C883 C867 1.429 . S
C883 C879 1.429 . S
C883 C884 1.523 1_556 S
C884 C868 1.368 . S
C884 C880 1.368 . S
C884 C883 1.523 1_554 S
H885 C860 0.950 . S
H886 C862 0.950 . S
H887 C863 0.949 . S
H888 C865 0.950 . S
H889 C867 0.950 . S
C890 C891 1.349 . S
C890 C892 1.327 . S
C890 H915 0.950 . S
C891 C890 1.349 . S
C891 C907 1.349 . S
C892 C890 1.327 . S
C892 C911 1.429 . S
C892 H916 0.950 . S
C893 C910 1.574 . S
C893 C912 1.368 . S
C893 H917 0.949 . S
H894 C898 0.949 . S
C895 C896 1.349 . S
C895 C897 1.327 . S
C895 H918 0.950 . S
C896 C895 1.349 . S
C896 C908 1.349 . S
C897 C895 1.327 . S
C897 C913 1.429 . S
C897 H919 0.950 . S
C898 H894 0.949 . S
C898 C906 1.574 . S
C898 C914 1.368 . S
H899 C907 0.950 . S
H900 C905 0.950 . S
H901 C906 0.949 . S
H902 C908 0.950 . S
H903 C909 0.950 . S
H904 C910 0.949 . S
C905 H900 0.950 . S
C905 C907 1.327 . S
C905 C911 1.429 . S
C906 C898 1.574 . S
C906 H901 0.949 . S
C906 C912 1.368 . S
C907 C891 1.349 . S
C907 H899 0.950 . S
C907 C905 1.327 . S
C908 C896 1.349 . S
C908 H902 0.950 . S
C908 C909 1.327 . S
C909 H903 0.950 . S
C909 C908 1.327 . S
C909 C913 1.429 . S
C910 C893 1.574 . S
C910 H904 0.949 . S
C910 C914 1.368 . S
C911 C892 1.429 . S
C911 C905 1.429 . S
C911 C912 1.523 . S
C912 C893 1.368 . S
C912 C906 1.368 . S
C912 C911 1.523 . S
C913 C897 1.429 . S
C913 C909 1.429 . S
C913 C914 1.523 . S
C914 C898 1.368 . S
C914 C910 1.368 . S
C914 C913 1.523 . S
H915 C890 0.950 . S
H916 C892 0.950 . S
H917 C893 0.949 . S
H918 C895 0.950 . S
H919 C897 0.950 . S
C920 C921 1.349 . S
C920 C922 1.327 . S
C920 H945 0.950 . S
C921 C920 1.349 . S
C921 C937 1.349 . S
C922 C920 1.327 . S
C922 C941 1.429 . S
C922 H946 0.950 . S
C923 C940 1.574 . S
C923 C942 1.368 . S
C923 H947 0.949 . S
H924 C928 0.949 . S
C925 C926 1.349 . S
C925 C927 1.327 . S
C925 H948 0.950 . S
C926 C925 1.349 . S
C926 C938 1.349 . S
C927 C925 1.327 . S
C927 C943 1.429 . S
C927 H949 0.950 . S
C928 H924 0.949 . S
C928 C936 1.574 . S
C928 C944 1.368 . S
H929 C937 0.950 . S
H930 C935 0.950 . S
H931 C936 0.949 . S
H932 C938 0.950 . S
H933 C939 0.950 . S
H934 C940 0.949 . S
C935 H930 0.950 . S
C935 C937 1.327 . S
C935 C941 1.429 . S
C936 C928 1.574 . S
C936 H931 0.949 . S
C936 C942 1.368 . S
C937 C921 1.349 . S
C937 H929 0.950 . S
C937 C935 1.327 . S
C938 C926 1.349 . S
C938 H932 0.950 . S
C938 C939 1.327 . S
C939 H933 0.950 . S
C939 C938 1.327 . S
C939 C943 1.429 . S
C940 C923 1.574 . S
C940 H934 0.949 . S
C940 C944 1.368 . S
C941 C922 1.429 . S
C941 C935 1.429 . S
C941 C942 1.523 . S
C942 C923 1.368 . S
C942 C936 1.368 . S
C942 C941 1.523 . S
C943 C927 1.429 . S
C943 C939 1.429 . S
C943 C944 1.523 . S
C944 C928 1.368 . S
C944 C940 1.368 . S
C944 C943 1.523 . S
H945 C920 0.950 . S
H946 C922 0.950 . S
H947 C923 0.949 . S
H948 C925 0.950 . S
H949 C927 0.950 . S
C950 C951 1.349 . S
C950 C952 1.327 . S
C950 H975 0.950 . S
C951 C950 1.349 . S
C951 C967 1.349 1_545 S
C952 C950 1.327 . S
C952 C971 1.429 . S
C952 H976 0.950 . S
C953 C970 1.574 . S
C953 C972 1.368 . S
C953 H977 0.949 . S
H954 C958 0.949 . S
C955 C956 1.349 . S
C955 C957 1.327 . S
C955 H978 0.950 . S
C956 C955 1.349 . S
C956 C968 1.349 . S
C957 C955 1.327 . S
C957 C973 1.429 . S
C957 H979 0.950 . S
C958 H954 0.949 . S
C958 C966 1.574 . S
C958 C974 1.368 . S
H959 C967 0.950 . S
H960 C965 0.950 1_565 S
H961 C966 0.949 . S
H962 C968 0.950 . S
H963 C969 0.950 . S
H964 C970 0.949 . S
C965 H960 0.950 1_545 S
C965 C967 1.327 1_545 S
C965 C971 1.429 . S
C966 C958 1.574 . S
C966 H961 0.949 . S
C966 C972 1.368 . S
C967 C951 1.349 1_565 S
C967 H959 0.950 . S
C967 C965 1.327 1_565 S
C968 C956 1.349 . S
C968 H962 0.950 . S
C968 C969 1.327 . S
C969 H963 0.950 . S
C969 C968 1.327 . S
C969 C973 1.429 . S
C970 C953 1.574 . S
C970 H964 0.949 . S
C970 C974 1.368 . S
C971 C952 1.429 . S
C971 C965 1.429 . S
C971 C972 1.523 . S
C972 C953 1.368 . S
C972 C966 1.368 . S
C972 C971 1.523 . S
C973 C957 1.429 . S
C973 C969 1.429 . S
C973 C974 1.523 . S
C974 C958 1.368 . S
C974 C970 1.368 . S
C974 C973 1.523 . S
H975 C950 0.950 . S
H976 C952 0.950 . S
H977 C953 0.949 . S
H978 C955 0.950 . S
H979 C957 0.950 . S
C980 C981 1.349 . S
C980 C982 1.327 . S
C980 H1005 0.950 . S
C981 C980 1.349 . S
C981 C997 1.349 . S
C982 C980 1.327 . S
C982 C1001 1.429 . S
C982 H1006 0.950 . S
C983 C1000 1.574 . S
C983 C1002 1.368 . S
C983 H1007 0.949 . S
H984 C988 0.949 . S
C985 C986 1.349 . S
C985 C987 1.327 . S
C985 H1008 0.950 . S
C986 C985 1.349 . S
C986 C998 1.349 . S
C987 C985 1.327 . S
C987 C1003 1.429 . S
C987 H1009 0.950 . S
C988 H984 0.949 . S
C988 C996 1.574 . S
C988 C1004 1.368 . S
H989 C997 0.950 . S
H990 C995 0.950 . S
H991 C996 0.949 . S
H992 C998 0.950 . S
H993 C999 0.950 . S
H994 C1000 0.949 . S
C995 H990 0.950 . S
C995 C997 1.327 . S
C995 C1001 1.429 . S
C996 C988 1.574 . S
C996 H991 0.949 . S
C996 C1002 1.368 . S
C997 C981 1.349 . S
C997 H989 0.950 . S
C997 C995 1.327 . S
C998 C986 1.349 . S
C998 H992 0.950 . S
C998 C999 1.327 . S
C999 H993 0.950 . S
C999 C998 1.327 . S
C999 C1003 1.429 . S
C1000 C983 1.574 . S
C1000 H994 0.949 . S
C1000 C1004 1.368 . S
C1001 C982 1.429 . S
C1001 C995 1.429 . S
C1001 C1002 1.523 1_554 S
C1002 C983 1.368 . S
C1002 C996 1.368 . S
C1002 C1001 1.523 1_556 S
C1003 C987 1.429 . S
C1003 C999 1.429 . S
C1003 C1004 1.523 . S
C1004 C988 1.368 . S
C1004 C1000 1.368 . S
C1004 C1003 1.523 . S
H1005 C980 0.950 . S
H1006 C982 0.950 . S
H1007 C983 0.949 . S
H1008 C985 0.950 . S
H1009 C987 0.950 . S
C1010 C1011 1.349 1_545 S
C1010 C1012 1.325 1_545 S
C1010 H1035 0.950 . S
C1011 C1010 1.349 1_565 S
C1011 C1027 1.349 . S
C1012 C1010 1.325 1_565 S
C1012 C1031 1.433 . S
C1012 H1036 0.946 1_565 S
C1013 C1030 1.574 . S
C1013 C1032 1.368 . S
C1013 H1037 0.949 . S
H1014 C1018 0.949 . S
C1015 C1016 1.349 . S
C1015 C1017 1.327 . S
C1015 H1038 0.950 . S
C1016 C1015 1.349 . S
C1016 C1028 1.349 . S
C1017 C1015 1.327 . S
C1017 C1033 1.429 . S
C1017 H1039 0.950 . S
C1018 H1014 0.949 . S
C1018 C1026 1.574 . S
C1018 C1034 1.368 . S
H1019 C1027 0.950 . S
H1020 C1025 0.950 . S
H1021 C1026 0.949 . S
H1022 C1028 0.950 . S
H1023 C1029 0.950 . S
H1024 C1030 0.949 . S
C1025 H1020 0.950 . S
C1025 C1027 1.327 . S
C1025 C1031 1.429 . S
C1026 C1018 1.574 . S
C1026 H1021 0.949 . S
C1026 C1032 1.368 . S
C1027 C1011 1.349 . S
C1027 H1019 0.950 . S
C1027 C1025 1.327 . S
C1028 C1016 1.349 . S
C1028 H1022 0.950 . S
C1028 C1029 1.327 . S
C1029 H1023 0.950 . S
C1029 C1028 1.327 . S
C1029 C1033 1.429 . S
C1030 C1013 1.574 . S
C1030 H1024 0.949 . S
C1030 C1034 1.368 . S
C1031 C1012 1.433 . S
C1031 C1025 1.429 . S
C1031 C1032 1.523 . S
C1032 C1013 1.368 . S
C1032 C1026 1.368 . S
C1032 C1031 1.523 . S
C1033 C1017 1.429 . S
C1033 C1029 1.429 . S
C1033 C1034 1.523 . S
C1034 C1018 1.368 . S
C1034 C1030 1.368 . S
C1034 C1033 1.523 . S
H1035 C1010 0.950 . S
H1036 C1012 0.946 1_545 S
H1037 C1013 0.949 . S
H1038 C1015 0.950 . S
H1039 C1017 0.950 . S
C1040 C1041 1.349 . S
C1040 C1042 1.327 . S
C1040 H1065 0.950 . S
C1041 C1040 1.349 . S
C1041 C1057 1.349 . S
C1042 C1040 1.327 . S
C1042 C1061 1.429 . S
C1042 H1066 0.950 . S
C1043 C1060 1.574 . S
C1043 C1062 1.368 . S
C1043 H1067 0.949 . S
H1044 C1048 0.949 . S
C1045 C1046 1.349 . S
C1045 C1047 1.327 . S
C1045 H1068 0.950 . S
C1046 C1045 1.349 . S
C1046 C1058 1.349 . S
C1047 C1045 1.327 . S
C1047 C1063 1.429 . S
C1047 H1069 0.950 . S
C1048 H1044 0.949 . S
C1048 C1056 1.574 . S
C1048 C1064 1.368 . S
H1049 C1057 0.950 . S
H1050 C1055 0.950 . S
H1051 C1056 0.949 . S
H1052 C1058 0.950 . S
H1053 C1059 0.950 . S
H1054 C1060 0.949 . S
C1055 H1050 0.950 . S
C1055 C1057 1.327 . S
C1055 C1061 1.429 . S
C1056 C1048 1.574 . S
C1056 H1051 0.949 . S
C1056 C1062 1.368 . S
C1057 C1041 1.349 . S
C1057 H1049 0.950 . S
C1057 C1055 1.327 . S
C1058 C1046 1.349 . S
C1058 H1052 0.950 . S
C1058 C1059 1.327 . S
C1059 H1053 0.950 . S
C1059 C1058 1.327 . S
C1059 C1063 1.429 . S
C1060 C1043 1.574 . S
C1060 H1054 0.949 . S
C1060 C1064 1.368 . S
C1061 C1042 1.429 . S
C1061 C1055 1.429 . S
C1061 C1062 1.523 . S
C1062 C1043 1.368 . S
C1062 C1056 1.368 . S
C1062 C1061 1.523 . S
C1063 C1047 1.429 . S
C1063 C1059 1.429 . S
C1063 C1064 1.523 . S
C1064 C1048 1.368 . S
C1064 C1060 1.368 . S
C1064 C1063 1.523 . S
H1065 C1040 0.950 . S
H1066 C1042 0.950 . S
H1067 C1043 0.949 . S
H1068 C1045 0.950 . S
H1069 C1047 0.950 . S
C1070 C1071 1.349 . S
C1070 C1072 1.327 . S
C1070 H1095 0.950 . S
C1071 C1070 1.349 . S
C1071 C1087 1.349 . S
C1072 C1070 1.327 . S
C1072 C1091 1.429 . S
C1072 H1096 0.950 . S
C1073 C1090 1.574 . S
C1073 C1092 1.368 . S
C1073 H1097 0.949 . S
H1074 C1078 0.949 . S
C1075 C1076 1.349 . S
C1075 C1077 1.327 . S
C1075 H1098 0.950 . S
C1076 C1075 1.349 . S
C1076 C1088 1.349 . S
C1077 C1075 1.327 . S
C1077 C1093 1.429 . S
C1077 H1099 0.950 . S
C1078 H1074 0.949 . S
C1078 C1086 1.574 . S
C1078 C1094 1.368 . S
H1079 C1087 0.950 . S
H1080 C1085 0.950 . S
H1081 C1086 0.949 . S
H1082 C1088 0.950 . S
H1083 C1089 0.950 . S
H1084 C1090 0.949 . S
C1085 H1080 0.950 . S
C1085 C1087 1.327 . S
C1085 C1091 1.429 . S
C1086 C1078 1.574 . S
C1086 H1081 0.949 . S
C1086 C1092 1.368 . S
C1087 C1071 1.349 . S
C1087 H1079 0.950 . S
C1087 C1085 1.327 . S
C1088 C1076 1.349 . S
C1088 H1082 0.950 . S
C1088 C1089 1.327 . S
C1089 H1083 0.950 . S
C1089 C1088 1.327 . S
C1089 C1093 1.429 . S
C1090 C1073 1.574 . S
C1090 H1084 0.949 . S
C1090 C1094 1.368 . S
C1091 C1072 1.429 . S
C1091 C1085 1.429 . S
C1091 C1092 1.523 . S
C1092 C1073 1.368 . S
C1092 C1086 1.368 . S
C1092 C1091 1.523 . S
C1093 C1077 1.429 . S
C1093 C1089 1.429 . S
C1093 C1094 1.523 . S
C1094 C1078 1.368 . S
C1094 C1090 1.368 . S
C1094 C1093 1.523 . S
H1095 C1070 0.950 . S
H1096 C1072 0.950 . S
H1097 C1073 0.949 . S
H1098 C1075 0.950 . S
H1099 C1077 0.950 . S
C1100 C1101 1.349 . S
C1100 C1102 1.327 . S
C1100 H1125 0.950 . S
C1101 C1100 1.349 . S
C1101 C1117 1.349 . S
C1102 C1100 1.327 . S
C1102 C1121 1.429 . S
C1102 H1126 0.950 . S
C1103 C1120 1.574 1_655 S
C1103 C1122 1.368 . S
C1103 H1127 0.949 . S
H1104 C1108 0.949 . S
C1105 C1106 1.349 . S
C1105 C1107 1.327 . S
C1105 H1128 0.950 . S
C1106 C1105 1.349 . S
C1106 C1118 1.349 . S
C1107 C1105 1.327 . S
C1107 C1123 1.429 . S
C1107 H1129 0.950 . S
C1108 H1104 0.949 . S
C1108 C1116 1.574 1_455 S
C1108 C1124 1.368 . S
H1109 C1117 0.950 . S
H1110 C1115 0.950 . S
H1111 C1116 0.949 . S
H1112 C1118 0.950 . S
H1113 C1119 0.950 . S
H1114 C1120 0.949 . S
C1115 H1110 0.950 . S
C1115 C1117 1.327 . S
C1115 C1121 1.429 . S
C1116 C1108 1.574 1_655 S
C1116 H1111 0.949 . S
C1116 C1122 1.368 . S
C1117 C1101 1.349 . S
C1117 H1109 0.950 . S
C1117 C1115 1.327 . S
C1118 C1106 1.349 . S
C1118 H1112 0.950 . S
C1118 C1119 1.327 . S
C1119 H1113 0.950 . S
C1119 C1118 1.327 . S
C1119 C1123 1.429 . S
C1120 C1103 1.574 1_455 S
C1120 H1114 0.949 . S
C1120 C1124 1.368 . S
C1121 C1102 1.429 . S
C1121 C1115 1.429 . S
C1121 C1122 1.523 . S
C1122 C1103 1.368 . S
C1122 C1116 1.368 . S
C1122 C1121 1.523 . S
C1123 C1107 1.429 . S
C1123 C1119 1.429 . S
C1123 C1124 1.523 . S
C1124 C1108 1.368 . S
C1124 C1120 1.368 . S
C1124 C1123 1.523 . S
H1125 C1100 0.950 . S
H1126 C1102 0.950 . S
H1127 C1103 0.949 . S
H1128 C1105 0.950 . S
H1129 C1107 0.950 . S
C1130 C1131 1.349 . S
C1130 C1132 1.327 . S
C1130 H1155 0.950 . S
C1131 C1130 1.349 . S
C1131 C1147 1.349 . S
C1132 C1130 1.327 . S
C1132 C1151 1.429 . S
C1132 H1156 0.950 . S
C1133 C1150 1.574 . S
C1133 C1152 1.368 1_455 S
C1133 H1157 0.949 . S
H1134 C1138 0.949 . S
C1135 C1136 1.349 . S
C1135 C1137 1.327 . S
C1135 H1158 0.950 . S
C1136 C1135 1.349 . S
C1136 C1148 1.349 . S
C1137 C1135 1.327 . S
C1137 C1153 1.429 . S
C1137 H1159 0.950 . S
C1138 H1134 0.949 . S
C1138 C1146 1.574 . S
C1138 C1154 1.368 1_655 S
H1139 C1147 0.950 . S
H1140 C1145 0.950 1_455 S
H1141 C1146 0.949 . S
H1142 C1148 0.950 . S
H1143 C1149 0.950 1_655 S
H1144 C1150 0.949 . S
C1145 H1140 0.950 1_655 S
C1145 C1147 1.327 . S
C1145 C1151 1.429 . S
C1146 C1138 1.574 . S
C1146 H1141 0.949 . S
C1146 C1152 1.368 . S
C1147 C1131 1.349 . S
C1147 H1139 0.950 . S
C1147 C1145 1.327 . S
C1148 C1136 1.349 . S
C1148 H1142 0.950 . S
C1148 C1149 1.327 . S
C1149 H1143 0.950 1_455 S
C1149 C1148 1.327 . S
C1149 C1153 1.429 . S
C1150 C1133 1.574 . S
C1150 H1144 0.949 . S
C1150 C1154 1.368 . S
C1151 C1132 1.429 . S
C1151 C1145 1.429 . S
C1151 C1152 1.523 . S
C1152 C1133 1.368 1_655 S
C1152 C1146 1.368 . S
C1152 C1151 1.523 . S
C1153 C1137 1.429 . S
C1153 C1149 1.429 . S
C1153 C1154 1.523 . S
C1154 C1138 1.368 1_455 S
C1154 C1150 1.368 . S
C1154 C1153 1.523 . S
H1155 C1130 0.950 . S
H1156 C1132 0.950 . S
H1157 C1133 0.949 . S
H1158 C1135 0.950 . S
H1159 C1137 0.950 . S
C1160 C1161 1.349 . S
C1160 C1162 1.327 . S
C1160 H1185 0.950 . S
C1161 C1160 1.349 . S
C1161 C1177 1.349 . S
C1162 C1160 1.327 . S
C1162 C1181 1.429 . S
C1162 H1186 0.950 . S
C1163 C1180 1.574 . S
C1163 C1182 1.368 . S
C1163 H1187 0.949 . S
H1164 C1168 0.949 . S
C1165 C1166 1.349 . S
C1165 C1167 1.327 . S
C1165 H1188 0.950 . S
C1166 C1165 1.349 . S
C1166 C1178 1.349 . S
C1167 C1165 1.327 . S
C1167 C1183 1.429 . S
C1167 H1189 0.950 . S
C1168 H1164 0.949 . S
C1168 C1176 1.574 . S
C1168 C1184 1.368 . S
H1169 C1177 0.950 . S
H1170 C1175 0.950 . S
H1171 C1176 0.949 . S
H1172 C1178 0.950 . S
H1173 C1179 0.950 . S
H1174 C1180 0.949 . S
C1175 H1170 0.950 . S
C1175 C1177 1.327 . S
C1175 C1181 1.429 . S
C1176 C1168 1.574 . S
C1176 H1171 0.949 . S
C1176 C1182 1.368 . S
C1177 C1161 1.349 . S
C1177 H1169 0.950 . S
C1177 C1175 1.327 . S
C1178 C1166 1.349 . S
C1178 H1172 0.950 . S
C1178 C1179 1.327 . S
C1179 H1173 0.950 . S
C1179 C1178 1.327 . S
C1179 C1183 1.429 . S
C1180 C1163 1.574 . S
C1180 H1174 0.949 . S
C1180 C1184 1.368 . S
C1181 C1162 1.429 . S
C1181 C1175 1.429 . S
C1181 C1182 1.523 . S
C1182 C1163 1.368 . S
C1182 C1176 1.368 . S
C1182 C1181 1.523 . S
C1183 C1167 1.429 . S
C1183 C1179 1.429 . S
C1183 C1184 1.523 . S
C1184 C1168 1.368 . S
C1184 C1180 1.368 . S
C1184 C1183 1.523 . S
H1185 C1160 0.950 . S
H1186 C1162 0.950 . S
H1187 C1163 0.949 . S
H1188 C1165 0.950 . S
H1189 C1167 0.950 . S
C1190 C1191 1.349 . S
C1190 C1192 1.327 . S
C1190 H1215 0.950 . S
C1191 C1190 1.349 . S
C1191 C1207 1.349 . S
C1192 C1190 1.327 . S
C1192 C1211 1.429 . S
C1192 H1216 0.950 . S
C1193 C1210 1.574 . S
C1193 C1212 1.368 . S
C1193 H1217 0.949 . S
H1194 C1198 0.949 . S
C1195 C1196 1.349 . S
C1195 C1197 1.327 . S
C1195 H1218 0.950 . S
C1196 C1195 1.349 . S
C1196 C1208 1.349 . S
C1197 C1195 1.327 . S
C1197 C1213 1.429 . S
C1197 H1219 0.950 . S
C1198 H1194 0.949 . S
C1198 C1206 1.574 . S
C1198 C1214 1.368 . S
H1199 C1207 0.950 . S
H1200 C1205 0.950 . S
H1201 C1206 0.949 . S
H1202 C1208 0.950 . S
H1203 C1209 0.950 . S
H1204 C1210 0.949 . S
C1205 H1200 0.950 . S
C1205 C1207 1.327 . S
C1205 C1211 1.429 . S
C1206 C1198 1.574 . S
C1206 H1201 0.949 . S
C1206 C1212 1.368 . S
C1207 C1191 1.349 . S
C1207 H1199 0.950 . S
C1207 C1205 1.327 . S
C1208 C1196 1.349 . S
C1208 H1202 0.950 . S
C1208 C1209 1.327 . S
C1209 H1203 0.950 . S
C1209 C1208 1.327 . S
C1209 C1213 1.429 . S
C1210 C1193 1.574 . S
C1210 H1204 0.949 . S
C1210 C1214 1.368 . S
C1211 C1192 1.429 . S
C1211 C1205 1.429 . S
C1211 C1212 1.523 . S
C1212 C1193 1.368 . S
C1212 C1206 1.368 . S
C1212 C1211 1.523 . S
C1213 C1197 1.429 . S
C1213 C1209 1.429 . S
C1213 C1214 1.523 . S
C1214 C1198 1.368 . S
C1214 C1210 1.368 . S
C1214 C1213 1.523 . S
H1215 C1190 0.950 . S
H1216 C1192 0.950 . S
H1217 C1193 0.949 . S
H1218 C1195 0.950 . S
H1219 C1197 0.950 . S
C1220 C1221 1.349 . S
C1220 C1222 1.327 . S
C1220 H1245 0.950 . S
C1221 C1220 1.349 . S
C1221 C1237 1.349 . S
C1222 C1220 1.327 . S
C1222 C1241 1.429 . S
C1222 H1246 0.950 . S
C1223 C1240 1.574 1_455 S
C1223 C1242 1.368 . S
C1223 H1247 0.949 . S
H1224 C1228 0.949 . S
C1225 C1226 1.349 . S
C1225 C1227 1.327 . S
C1225 H1248 0.950 . S
C1226 C1225 1.349 . S
C1226 C1238 1.349 . S
C1227 C1225 1.327 . S
C1227 C1243 1.429 . S
C1227 H1249 0.950 . S
C1228 H1224 0.949 . S
C1228 C1236 1.574 1_655 S
C1228 C1244 1.368 . S
H1229 C1237 0.950 . S
H1230 C1235 0.950 . S
H1231 C1236 0.949 . S
H1232 C1238 0.950 . S
H1233 C1239 0.950 . S
H1234 C1240 0.949 . S
C1235 H1230 0.950 . S
C1235 C1237 1.327 . S
C1235 C1241 1.429 . S
C1236 C1228 1.574 1_455 S
C1236 H1231 0.949 . S
C1236 C1242 1.368 . S
C1237 C1221 1.349 . S
C1237 H1229 0.950 . S
C1237 C1235 1.327 . S
C1238 C1226 1.349 . S
C1238 H1232 0.950 . S
C1238 C1239 1.327 . S
C1239 H1233 0.950 . S
C1239 C1238 1.327 . S
C1239 C1243 1.429 . S
C1240 C1223 1.574 1_655 S
C1240 H1234 0.949 . S
C1240 C1244 1.368 . S
C1241 C1222 1.429 . S
C1241 C1235 1.429 . S
C1241 C1242 1.523 . S
C1242 C1223 1.368 . S
C1242 C1236 1.368 . S
C1242 C1241 1.523 . S
C1243 C1227 1.429 . S
C1243 C1239 1.429 . S
C1243 C1244 1.523 . S
C1244 C1228 1.368 . S
C1244 C1240 1.368 . S
C1244 C1243 1.523 . S
H1245 C1220 0.950 . S
H1246 C1222 0.950 . S
H1247 C1223 0.949 . S
H1248 C1225 0.950 . S
H1249 C1227 0.950 . S
C1250 C1251 1.349 . S
C1250 C1252 1.327 . S
C1250 H1275 0.950 . S
C1251 C1250 1.349 . S
C1251 C1267 1.349 . S
C1252 C1250 1.327 . S
C1252 C1271 1.429 . S
C1252 H1276 0.950 1_455 S
C1253 C1270 1.574 . S
C1253 C1272 1.368 . S
C1253 H1277 0.949 . S
H1254 C1258 0.949 . S
C1255 C1256 1.349 . S
C1255 C1257 1.327 . S
C1255 H1278 0.950 . S
C1256 C1255 1.349 . S
C1256 C1268 1.349 . S
C1257 C1255 1.327 . S
C1257 C1273 1.429 . S
C1257 H1279 0.950 1_655 S
C1258 H1254 0.949 . S
C1258 C1266 1.574 . S
C1258 C1274 1.368 . S
H1259 C1267 0.950 . S
H1260 C1265 0.950 . S
H1261 C1266 0.949 . S
H1262 C1268 0.950 . S
H1263 C1269 0.950 . S
H1264 C1270 0.949 . S
C1265 H1260 0.950 . S
C1265 C1267 1.327 . S
C1265 C1271 1.429 . S
C1266 C1258 1.574 . S
C1266 H1261 0.949 . S
C1266 C1272 1.368 1_655 S
C1267 C1251 1.349 . S
C1267 H1259 0.950 . S
C1267 C1265 1.327 . S
C1268 C1256 1.349 . S
C1268 H1262 0.950 . S
C1268 C1269 1.327 . S
C1269 H1263 0.950 . S
C1269 C1268 1.327 . S
C1269 C1273 1.429 . S
C1270 C1253 1.574 . S
C1270 H1264 0.949 . S
C1270 C1274 1.368 1_455 S
C1271 C1252 1.429 . S
C1271 C1265 1.429 . S
C1271 C1272 1.523 . S
C1272 C1253 1.368 . S
C1272 C1266 1.368 1_455 S
C1272 C1271 1.523 . S
C1273 C1257 1.429 . S
C1273 C1269 1.429 . S
C1273 C1274 1.523 . S
C1274 C1258 1.368 . S
C1274 C1270 1.368 1_655 S
C1274 C1273 1.523 . S
H1275 C1250 0.950 . S
H1276 C1252 0.950 1_655 S
H1277 C1253 0.949 . S
H1278 C1255 0.950 . S
H1279 C1257 0.950 1_455 S
C1280 C1281 1.349 . S
C1280 C1282 1.327 . S
C1280 H1305 0.950 . S
C1281 C1280 1.349 . S
C1281 C1297 1.349 . S
C1282 C1280 1.327 . S
C1282 C1301 1.429 . S
C1282 H1306 0.950 . S
C1283 C1300 1.574 . S
C1283 C1302 1.368 . S
C1283 H1307 0.949 . S
H1284 C1288 0.949 . S
C1285 C1286 1.349 . S
C1285 C1287 1.327 . S
C1285 H1308 0.950 . S
C1286 C1285 1.349 . S
C1286 C1298 1.349 . S
C1287 C1285 1.327 . S
C1287 C1303 1.429 . S
C1287 H1309 0.950 . S
C1288 H1284 0.949 . S
C1288 C1296 1.574 . S
C1288 C1304 1.368 . S
H1289 C1297 0.950 . S
H1290 C1295 0.950 . S
H1291 C1296 0.949 . S
H1292 C1298 0.950 . S
H1293 C1299 0.950 . S
H1294 C1300 0.949 . S
C1295 H1290 0.950 . S
C1295 C1297 1.327 . S
C1295 C1301 1.429 . S
C1296 C1288 1.574 . S
C1296 H1291 0.949 . S
C1296 C1302 1.368 . S
C1297 C1281 1.349 . S
C1297 H1289 0.950 . S
C1297 C1295 1.327 . S
C1298 C1286 1.349 . S
C1298 H1292 0.950 . S
C1298 C1299 1.327 . S
C1299 H1293 0.950 . S
C1299 C1298 1.327 . S
C1299 C1303 1.429 . S
C1300 C1283 1.574 . S
C1300 H1294 0.949 . S
C1300 C1304 1.368 . S
C1301 C1282 1.429 . S
C1301 C1295 1.429 . S
C1301 C1302 1.523 . S
C1302 C1283 1.368 . S
C1302 C1296 1.368 . S
C1302 C1301 1.523 . S
C1303 C1287 1.429 . S
C1303 C1299 1.429 . S
C1303 C1304 1.523 . S
C1304 C1288 1.368 . S
C1304 C1300 1.368 . S
C1304 C1303 1.523 . S
H1305 C1280 0.950 . S
H1306 C1282 0.950 . S
H1307 C1283 0.949 . S
H1308 C1285 0.950 . S
H1309 C1287 0.950 . S
C1310 C1311 1.349 . S
C1310 C1312 1.327 . S
C1310 H1335 0.950 . S
C1311 C1310 1.349 . S
C1311 C1327 1.349 . S
C1312 C1310 1.327 . S
C1312 C1331 1.429 . S
C1312 H1336 0.950 . S
C1313 C1330 1.574 . S
C1313 C1332 1.368 . S
C1313 H1337 0.949 . S
H1314 C1318 0.949 . S
C1315 C1316 1.349 . S
C1315 C1317 1.327 . S
C1315 H1338 0.950 . S
C1316 C1315 1.349 . S
C1316 C1328 1.349 . S
C1317 C1315 1.327 . S
C1317 C1333 1.429 . S
C1317 H1339 0.950 . S
C1318 H1314 0.949 . S
C1318 C1326 1.574 . S
C1318 C1334 1.368 . S
H1319 C1327 0.950 . S
H1320 C1325 0.950 . S
H1321 C1326 0.949 . S
H1322 C1328 0.950 . S
H1323 C1329 0.950 . S
H1324 C1330 0.949 . S
C1325 H1320 0.950 . S
C1325 C1327 1.327 . S
C1325 C1331 1.429 . S
C1326 C1318 1.574 . S
C1326 H1321 0.949 . S
C1326 C1332 1.368 . S
C1327 C1311 1.349 . S
C1327 H1319 0.950 . S
C1327 C1325 1.327 . S
C1328 C1316 1.349 . S
C1328 H1322 0.950 . S
C1328 C1329 1.327 . S
C1329 H1323 0.950 . S
C1329 C1328 1.327 . S
C1329 C1333 1.429 . S
C1330 C1313 1.574 . S
C1330 H1324 0.949 . S
C1330 C1334 1.368 . S
C1331 C1312 1.429 . S
C1331 C1325 1.429 . S
C1331 C1332 1.523 . S
C1332 C1313 1.368 . S
C1332 C1326 1.368 . S
C1332 C1331 1.523 . S
C1333 C1317 1.429 . S
C1333 C1329 1.429 . S
C1333 C1334 1.523 . S
C1334 C1318 1.368 . S
C1334 C1330 1.368 . S
C1334 C1333 1.523 . S
H1335 C1310 0.950 . S
H1336 C1312 0.950 . S
H1337 C1313 0.949 . S
H1338 C1315 0.950 . S
H1339 C1317 0.950 . S
C1340 C1341 1.349 . S
C1340 C1342 1.327 . S
C1340 H1365 0.950 . S
C1341 C1340 1.349 . S
C1341 C1357 1.349 . S
C1342 C1340 1.327 . S
C1342 C1361 1.429 . S
C1342 H1366 0.950 . S
C1343 C1360 1.574 . S
C1343 C1362 1.368 . S
C1343 H1367 0.949 . S
H1344 C1348 0.949 . S
C1345 C1346 1.349 . S
C1345 C1347 1.327 . S
C1345 H1368 0.950 . S
C1346 C1345 1.349 . S
C1346 C1358 1.349 . S
C1347 C1345 1.327 . S
C1347 C1363 1.429 . S
C1347 H1369 0.950 . S
C1348 H1344 0.949 . S
C1348 C1356 1.574 . S
C1348 C1364 1.368 . S
H1349 C1357 0.950 . S
H1350 C1355 0.950 . S
H1351 C1356 0.949 . S
H1352 C1358 0.950 . S
H1353 C1359 0.950 . S
H1354 C1360 0.949 . S
C1355 H1350 0.950 . S
C1355 C1357 1.327 . S
C1355 C1361 1.429 . S
C1356 C1348 1.574 . S
C1356 H1351 0.949 . S
C1356 C1362 1.368 . S
C1357 C1341 1.349 . S
C1357 H1349 0.950 . S
C1357 C1355 1.327 . S
C1358 C1346 1.349 . S
C1358 H1352 0.950 . S
C1358 C1359 1.327 . S
C1359 H1353 0.950 . S
C1359 C1358 1.327 . S
C1359 C1363 1.429 . S
C1360 C1343 1.574 . S
C1360 H1354 0.949 . S
C1360 C1364 1.368 . S
C1361 C1342 1.429 . S
C1361 C1355 1.429 . S
C1361 C1362 1.523 . S
C1362 C1343 1.368 . S
C1362 C1356 1.368 . S
C1362 C1361 1.523 . S
C1363 C1347 1.429 . S
C1363 C1359 1.429 . S
C1363 C1364 1.523 . S
C1364 C1348 1.368 . S
C1364 C1360 1.368 . S
C1364 C1363 1.523 . S
H1365 C1340 0.950 . S
H1366 C1342 0.950 . S
H1367 C1343 0.949 . S
H1368 C1345 0.950 . S
H1369 C1347 0.950 . S
C1370 C1371 1.349 . S
C1370 C1372 1.327 . S
C1370 H1395 0.950 . S
C1371 C1370 1.349 . S
C1371 C1387 1.349 . S
C1372 C1370 1.327 . S
C1372 C1391 1.429 1_655 S
C1372 H1396 0.950 . S
C1373 C1390 1.574 . S
C1373 C1392 1.368 . S
C1373 H1397 0.949 . S
H1374 C1378 0.949 . S
C1375 C1376 1.349 . S
C1375 C1377 1.327 . S
C1375 H1398 0.950 . S
C1376 C1375 1.349 . S
C1376 C1388 1.349 . S
C1377 C1375 1.327 . S
C1377 C1393 1.429 . S
C1377 H1399 0.950 . S
C1378 H1374 0.949 . S
C1378 C1386 1.574 . S
C1378 C1394 1.368 . S
H1379 C1387 0.950 . S
H1380 C1385 0.950 . S
H1381 C1386 0.949 . S
H1382 C1388 0.950 . S
H1383 C1389 0.950 . S
H1384 C1390 0.949 . S
C1385 H1380 0.950 . S
C1385 C1387 1.327 1_455 S
C1385 C1391 1.429 . S
C1386 C1378 1.574 . S
C1386 H1381 0.949 . S
C1386 C1392 1.368 . S
C1387 C1371 1.349 . S
C1387 H1379 0.950 . S
C1387 C1385 1.327 1_655 S
C1388 C1376 1.349 . S
C1388 H1382 0.950 . S
C1388 C1389 1.327 . S
C1389 H1383 0.950 . S
C1389 C1388 1.327 . S
C1389 C1393 1.429 . S
C1390 C1373 1.574 . S
C1390 H1384 0.949 . S
C1390 C1394 1.368 . S
C1391 C1372 1.429 1_455 S
C1391 C1385 1.429 . S
C1391 C1392 1.523 . S
C1392 C1373 1.368 . S
C1392 C1386 1.368 . S
C1392 C1391 1.523 . S
C1393 C1377 1.429 . S
C1393 C1389 1.429 . S
C1393 C1394 1.523 . S
C1394 C1378 1.368 . S
C1394 C1390 1.368 . S
C1394 C1393 1.523 . S
H1395 C1370 0.950 . S
H1396 C1372 0.950 . S
H1397 C1373 0.949 . S
H1398 C1375 0.950 . S
H1399 C1377 0.950 . S
C1400 C1401 1.349 . S
C1400 C1402 1.327 . S
C1400 H1425 0.950 . S
C1401 C1400 1.349 . S
C1401 C1417 1.349 . S
C1402 C1400 1.327 . S
C1402 C1421 1.429 . S
C1402 H1426 0.950 . S
C1403 C1420 1.574 . S
C1403 C1422 1.368 . S
C1403 H1427 0.949 . S
H1404 C1408 0.949 . S
C1405 C1406 1.349 . S
C1405 C1407 1.327 . S
C1405 H1428 0.950 . S
C1406 C1405 1.349 . S
C1406 C1418 1.349 . S
C1407 C1405 1.327 . S
C1407 C1423 1.429 . S
C1407 H1429 0.950 . S
C1408 H1404 0.949 . S
C1408 C1416 1.574 . S
C1408 C1424 1.368 . S
H1409 C1417 0.950 . S
H1410 C1415 0.950 . S
H1411 C1416 0.949 . S
H1412 C1418 0.950 . S
H1413 C1419 0.950 . S
H1414 C1420 0.949 . S
C1415 H1410 0.950 . S
C1415 C1417 1.327 . S
C1415 C1421 1.429 . S
C1416 C1408 1.574 . S
C1416 H1411 0.949 . S
C1416 C1422 1.368 . S
C1417 C1401 1.349 . S
C1417 H1409 0.950 . S
C1417 C1415 1.327 . S
C1418 C1406 1.349 . S
C1418 H1412 0.950 . S
C1418 C1419 1.327 . S
C1419 H1413 0.950 . S
C1419 C1418 1.327 . S
C1419 C1423 1.429 . S
C1420 C1403 1.574 . S
C1420 H1414 0.949 . S
C1420 C1424 1.368 . S
C1421 C1402 1.429 . S
C1421 C1415 1.429 . S
C1421 C1422 1.523 . S
C1422 C1403 1.368 . S
C1422 C1416 1.368 . S
C1422 C1421 1.523 . S
C1423 C1407 1.429 . S
C1423 C1419 1.429 . S
C1423 C1424 1.523 . S
C1424 C1408 1.368 . S
C1424 C1420 1.368 . S
C1424 C1423 1.523 . S
H1425 C1400 0.950 . S
H1426 C1402 0.950 . S
H1427 C1403 0.949 . S
H1428 C1405 0.950 . S
H1429 C1407 0.950 . S
C1430 C1431 1.349 . S
C1430 C1432 1.327 . S
C1430 H1455 0.950 . S
C1431 C1430 1.349 . S
C1431 C1447 1.349 . S
C1432 C1430 1.327 . S
C1432 C1451 1.429 . S
C1432 H1456 0.950 . S
C1433 C1450 1.574 . S
C1433 C1452 1.368 . S
C1433 H1457 0.949 . S
H1434 C1438 0.949 . S
C1435 C1436 1.349 . S
C1435 C1437 1.327 . S
C1435 H1458 0.950 . S
C1436 C1435 1.349 . S
C1436 C1448 1.349 . S
C1437 C1435 1.327 . S
C1437 C1453 1.429 . S
C1437 H1459 0.950 . S
C1438 H1434 0.949 . S
C1438 C1446 1.574 . S
C1438 C1454 1.368 . S
H1439 C1447 0.950 . S
H1440 C1445 0.950 . S
H1441 C1446 0.949 . S
H1442 C1448 0.950 . S
H1443 C1449 0.950 . S
H1444 C1450 0.949 . S
C1445 H1440 0.950 . S
C1445 C1447 1.327 . S
C1445 C1451 1.429 . S
C1446 C1438 1.574 . S
C1446 H1441 0.949 . S
C1446 C1452 1.368 . S
C1447 C1431 1.349 . S
C1447 H1439 0.950 . S
C1447 C1445 1.327 . S
C1448 C1436 1.349 . S
C1448 H1442 0.950 . S
C1448 C1449 1.327 . S
C1449 H1443 0.950 . S
C1449 C1448 1.327 . S
C1449 C1453 1.429 . S
C1450 C1433 1.574 . S
C1450 H1444 0.949 . S
C1450 C1454 1.368 . S
C1451 C1432 1.429 . S
C1451 C1445 1.429 . S
C1451 C1452 1.523 . S
C1452 C1433 1.368 . S
C1452 C1446 1.368 . S
C1452 C1451 1.523 . S
C1453 C1437 1.429 . S
C1453 C1449 1.429 . S
C1453 C1454 1.523 . S
C1454 C1438 1.368 . S
C1454 C1450 1.368 . S
C1454 C1453 1.523 . S
H1455 C1430 0.950 . S
H1456 C1432 0.950 . S
H1457 C1433 0.949 . S
H1458 C1435 0.950 . S
H1459 C1437 0.950 . S
C1460 C1461 1.349 . S
C1460 C1462 1.327 . S
C1460 H1485 0.950 . S
C1461 C1460 1.349 . S
C1461 C1477 1.349 . S
C1462 C1460 1.327 . S
C1462 C1481 1.429 . S
C1462 H1486 0.950 . S
C1463 C1480 1.574 . S
C1463 C1482 1.368 . S
C1463 H1487 0.949 . S
H1464 C1468 0.949 . S
C1465 C1466 1.349 . S
C1465 C1467 1.327 . S
C1465 H1488 0.950 . S
C1466 C1465 1.349 . S
C1466 C1478 1.349 . S
C1467 C1465 1.327 . S
C1467 C1483 1.429 . S
C1467 H1489 0.950 . S
C1468 H1464 0.949 . S
C1468 C1476 1.574 . S
C1468 C1484 1.368 . S
H1469 C1477 0.950 . S
H1470 C1475 0.950 . S
H1471 C1476 0.949 . S
H1472 C1478 0.950 . S
H1473 C1479 0.950 . S
H1474 C1480 0.949 . S
C1475 H1470 0.950 . S
C1475 C1477 1.327 . S
C1475 C1481 1.429 . S
C1476 C1468 1.574 . S
C1476 H1471 0.949 . S
C1476 C1482 1.368 . S
C1477 C1461 1.349 . S
C1477 H1469 0.950 . S
C1477 C1475 1.327 . S
C1478 C1466 1.349 . S
C1478 H1472 0.950 . S
C1478 C1479 1.327 . S
C1479 H1473 0.950 . S
C1479 C1478 1.327 . S
C1479 C1483 1.429 . S
C1480 C1463 1.574 . S
C1480 H1474 0.949 . S
C1480 C1484 1.368 . S
C1481 C1462 1.429 . S
C1481 C1475 1.429 . S
C1481 C1482 1.523 . S
C1482 C1463 1.368 . S
C1482 C1476 1.368 . S
C1482 C1481 1.523 . S
C1483 C1467 1.429 . S
C1483 C1479 1.429 . S
C1483 C1484 1.523 . S
C1484 C1468 1.368 . S
C1484 C1480 1.368 . S
C1484 C1483 1.523 . S
H1485 C1460 0.950 . S
H1486 C1462 0.950 . S
H1487 C1463 0.949 . S
H1488 C1465 0.950 . S
H1489 C1467 0.950 . S
C1490 C1491 1.349 . S
C1490 C1492 1.327 . S
C1490 H1515 0.950 . S
C1491 C1490 1.349 . S
C1491 C1507 1.349 . S
C1492 C1490 1.327 . S
C1492 C1511 1.429 . S
C1492 H1516 0.950 . S
C1493 C1510 1.574 . S
C1493 C1512 1.368 . S
C1493 H1517 0.949 . S
H1494 C1498 0.949 . S
C1495 C1496 1.349 . S
C1495 C1497 1.327 1_455 S
C1495 H1518 0.950 . S
C1496 C1495 1.349 . S
C1496 C1508 1.349 . S
C1497 C1495 1.327 1_655 S
C1497 C1513 1.429 . S
C1497 H1519 0.950 . S
C1498 H1494 0.949 . S
C1498 C1506 1.574 . S
C1498 C1514 1.368 . S
H1499 C1507 0.950 . S
H1500 C1505 0.950 . S
H1501 C1506 0.949 . S
H1502 C1508 0.950 . S
H1503 C1509 0.950 . S
H1504 C1510 0.949 . S
C1505 H1500 0.950 . S
C1505 C1507 1.327 . S
C1505 C1511 1.429 . S
C1506 C1498 1.574 . S
C1506 H1501 0.949 . S
C1506 C1512 1.368 . S
C1507 C1491 1.349 . S
C1507 H1499 0.950 . S
C1507 C1505 1.327 . S
C1508 C1496 1.349 . S
C1508 H1502 0.950 . S
C1508 C1509 1.327 . S
C1509 H1503 0.950 . S
C1509 C1508 1.327 . S
C1509 C1513 1.429 1_455 S
C1510 C1493 1.574 . S
C1510 H1504 0.949 . S
C1510 C1514 1.368 . S
C1511 C1492 1.429 . S
C1511 C1505 1.429 . S
C1511 C1512 1.523 . S
C1512 C1493 1.368 . S
C1512 C1506 1.368 . S
C1512 C1511 1.523 . S
C1513 C1497 1.429 . S
C1513 C1509 1.429 1_655 S
C1513 C1514 1.523 . S
C1514 C1498 1.368 . S
C1514 C1510 1.368 . S
C1514 C1513 1.523 . S
H1515 C1490 0.950 . S
H1516 C1492 0.950 . S
H1517 C1493 0.949 . S
H1518 C1495 0.950 . S
H1519 C1497 0.950 . S
C1520 C1521 1.349 . S
C1520 C1522 1.327 . S
C1520 H1545 0.950 . S
C1521 C1520 1.349 . S
C1521 C1537 1.349 . S
C1522 C1520 1.327 . S
C1522 C1541 1.429 . S
C1522 H1546 0.950 . S
C1523 C1540 1.574 . S
C1523 C1542 1.368 . S
C1523 H1547 0.949 . S
H1524 C1528 0.949 . S
C1525 C1526 1.349 . S
C1525 C1527 1.327 . S
C1525 H1548 0.950 . S
C1526 C1525 1.349 . S
C1526 C1538 1.349 . S
C1527 C1525 1.327 . S
C1527 C1543 1.429 . S
C1527 H1549 0.950 . S
C1528 H1524 0.949 . S
C1528 C1536 1.574 . S
C1528 C1544 1.368 . S
H1529 C1537 0.950 . S
H1530 C1535 0.950 . S
H1531 C1536 0.949 . S
H1532 C1538 0.950 . S
H1533 C1539 0.950 . S
H1534 C1540 0.949 . S
C1535 H1530 0.950 . S
C1535 C1537 1.327 . S
C1535 C1541 1.429 . S
C1536 C1528 1.574 . S
C1536 H1531 0.949 . S
C1536 C1542 1.368 . S
C1537 C1521 1.349 . S
C1537 H1529 0.950 . S
C1537 C1535 1.327 . S
C1538 C1526 1.349 . S
C1538 H1532 0.950 . S
C1538 C1539 1.327 . S
C1539 H1533 0.950 . S
C1539 C1538 1.327 . S
C1539 C1543 1.429 . S
C1540 C1523 1.574 . S
C1540 H1534 0.949 . S
C1540 C1544 1.368 . S
C1541 C1522 1.429 . S
C1541 C1535 1.429 . S
C1541 C1542 1.523 . S
C1542 C1523 1.368 . S
C1542 C1536 1.368 . S
C1542 C1541 1.523 . S
C1543 C1527 1.429 . S
C1543 C1539 1.429 . S
C1543 C1544 1.523 . S
C1544 C1528 1.368 . S
C1544 C1540 1.368 . S
C1544 C1543 1.523 . S
H1545 C1520 0.950 . S
H1546 C1522 0.950 . S
H1547 C1523 0.949 . S
H1548 C1525 0.950 . S
H1549 C1527 0.950 . S
C1550 C1551 1.349 . S
C1550 C1552 1.327 . S
C1550 H1575 0.950 . S
C1551 C1550 1.349 . S
C1551 C1567 1.349 . S
C1552 C1550 1.327 . S
C1552 C1571 1.429 . S
C1552 H1576 0.950 . S
C1553 C1570 1.574 . S
C1553 C1572 1.368 . S
C1553 H1577 0.949 . S
H1554 C1558 0.949 . S
C1555 C1556 1.349 . S
C1555 C1557 1.327 . S
C1555 H1578 0.950 . S
C1556 C1555 1.349 . S
C1556 C1568 1.349 . S
C1557 C1555 1.327 . S
C1557 C1573 1.429 1_455 S
C1557 H1579 0.950 1_455 S
C1558 H1554 0.949 . S
C1558 C1566 1.574 . S
C1558 C1574 1.368 . S
H1559 C1567 0.950 . S
H1560 C1565 0.950 . S
H1561 C1566 0.949 . S
H1562 C1568 0.950 1_545 S
H1563 C1569 0.950 1_655 S
H1564 C1570 0.949 . S
C1565 H1560 0.950 . S
C1565 C1567 1.327 . S
C1565 C1571 1.429 . S
C1566 C1558 1.574 . S
C1566 H1561 0.949 . S
C1566 C1572 1.368 . S
C1567 C1551 1.349 . S
C1567 H1559 0.950 . S
C1567 C1565 1.327 . S
C1568 C1556 1.349 . S
C1568 H1562 0.950 1_565 S
C1568 C1569 1.327 . S
C1569 H1563 0.950 1_455 S
C1569 C1568 1.327 . S
C1569 C1573 1.429 1_455 S
C1570 C1553 1.574 . S
C1570 H1564 0.949 . S
C1570 C1574 1.368 . S
C1571 C1552 1.429 . S
C1571 C1565 1.429 . S
C1571 C1572 1.523 . S
C1572 C1553 1.368 . S
C1572 C1566 1.368 . S
C1572 C1571 1.523 . S
C1573 C1557 1.429 1_655 S
C1573 C1569 1.429 1_655 S
C1573 C1574 1.523 . S
C1574 C1558 1.368 . S
C1574 C1570 1.368 . S
C1574 C1573 1.523 . S
H1575 C1550 0.950 . S
H1576 C1552 0.950 . S
H1577 C1553 0.949 . S
H1578 C1555 0.950 . S
H1579 C1557 0.950 1_655 S
C1580 C1581 1.349 . S
C1580 C1582 1.327 . S
C1580 H1605 0.950 . S
C1581 C1580 1.349 . S
C1581 C1597 1.349 . S
C1582 C1580 1.327 . S
C1582 C1601 1.429 . S
C1582 H1606 0.950 . S
C1583 C1600 1.574 . S
C1583 C1602 1.368 . S
C1583 H1607 0.949 . S
H1584 C1588 0.949 . S
C1585 C1586 1.349 . S
C1585 C1587 1.327 . S
C1585 H1608 0.950 . S
C1586 C1585 1.349 . S
C1586 C1598 1.349 . S
C1587 C1585 1.327 . S
C1587 C1603 1.429 . S
C1587 H1609 0.950 . S
C1588 H1584 0.949 . S
C1588 C1596 1.574 . S
C1588 C1604 1.368 . S
H1589 C1597 0.950 . S
H1590 C1595 0.950 . S
H1591 C1596 0.949 . S
H1592 C1598 0.950 . S
H1593 C1599 0.950 . S
H1594 C1600 0.949 . S
C1595 H1590 0.950 . S
C1595 C1597 1.327 . S
C1595 C1601 1.429 . S
C1596 C1588 1.574 . S
C1596 H1591 0.949 . S
C1596 C1602 1.368 . S
C1597 C1581 1.349 . S
C1597 H1589 0.950 . S
C1597 C1595 1.327 . S
C1598 C1586 1.349 . S
C1598 H1592 0.950 . S
C1598 C1599 1.327 . S
C1599 H1593 0.950 . S
C1599 C1598 1.327 . S
C1599 C1603 1.429 . S
C1600 C1583 1.574 . S
C1600 H1594 0.949 . S
C1600 C1604 1.368 . S
C1601 C1582 1.429 . S
C1601 C1595 1.429 . S
C1601 C1602 1.523 . S
C1602 C1583 1.368 . S
C1602 C1596 1.368 . S
C1602 C1601 1.523 . S
C1603 C1587 1.429 . S
C1603 C1599 1.429 . S
C1603 C1604 1.523 . S
C1604 C1588 1.368 . S
C1604 C1600 1.368 . S
C1604 C1603 1.523 . S
H1605 C1580 0.950 . S
H1606 C1582 0.950 . S
H1607 C1583 0.949 . S
H1608 C1585 0.950 . S
H1609 C1587 0.950 . S
C1610 C1611 1.349 . S
C1610 C1612 1.327 . S
C1610 H1635 0.950 . S
C1611 C1610 1.349 . S
C1611 C1627 1.349 . S
C1612 C1610 1.327 . S
C1612 C1631 1.429 . S
C1612 H1636 0.950 . S
C1613 C1630 1.574 . S
C1613 C1632 1.368 . S
C1613 H1637 0.949 . S
H1614 C1618 0.949 . S
C1615 C1616 1.349 . S
C1615 C1617 1.327 . S
C1615 H1638 0.950 . S
C1616 C1615 1.349 . S
C1616 C1628 1.349 . S
C1617 C1615 1.327 . S
C1617 C1633 1.429 . S
C1617 H1639 0.950 . S
C1618 H1614 0.949 . S
C1618 C1626 1.574 . S
C1618 C1634 1.368 . S
H1619 C1627 0.950 1_565 S
H1620 C1625 0.950 . S
H1621 C1626 0.949 . S
H1622 C1628 0.950 . S
H1623 C1629 0.950 . S
H1624 C1630 0.949 . S
C1625 H1620 0.950 . S
C1625 C1627 1.327 . S
C1625 C1631 1.429 . S
C1626 C1618 1.574 . S
C1626 H1621 0.949 . S
C1626 C1632 1.368 . S
C1627 C1611 1.349 . S
C1627 H1619 0.950 1_545 S
C1627 C1625 1.327 . S
C1628 C1616 1.349 . S
C1628 H1622 0.950 . S
C1628 C1629 1.327 . S
C1629 H1623 0.950 . S
C1629 C1628 1.327 . S
C1629 C1633 1.429 . S
C1630 C1613 1.574 . S
C1630 H1624 0.949 . S
C1630 C1634 1.368 . S
C1631 C1612 1.429 . S
C1631 C1625 1.429 . S
C1631 C1632 1.523 . S
C1632 C1613 1.368 . S
C1632 C1626 1.368 . S
C1632 C1631 1.523 . S
C1633 C1617 1.429 . S
C1633 C1629 1.429 . S
C1633 C1634 1.523 . S
C1634 C1618 1.368 . S
C1634 C1630 1.368 . S
C1634 C1633 1.523 . S
H1635 C1610 0.950 . S
H1636 C1612 0.950 . S
H1637 C1613 0.949 . S
H1638 C1615 0.950 . S
H1639 C1617 0.950 . S
C1640 C1641 1.349 . S
C1640 C1642 1.327 . S
C1640 H1665 0.950 . S
C1641 C1640 1.349 . S
C1641 C1657 1.349 . S
C1642 C1640 1.327 . S
C1642 C1661 1.429 . S
C1642 H1666 0.950 . S
C1643 C1660 1.574 . S
C1643 C1662 1.368 . S
C1643 H1667 0.949 . S
H1644 C1648 0.949 . S
C1645 C1646 1.349 . S
C1645 C1647 1.327 . S
C1645 H1668 0.950 . S
C1646 C1645 1.349 . S
C1646 C1658 1.349 . S
C1647 C1645 1.327 . S
C1647 C1663 1.429 . S
C1647 H1669 0.950 . S
C1648 H1644 0.949 . S
C1648 C1656 1.574 . S
C1648 C1664 1.368 . S
H1649 C1657 0.950 . S
H1650 C1655 0.950 . S
H1651 C1656 0.949 . S
H1652 C1658 0.950 . S
H1653 C1659 0.950 . S
H1654 C1660 0.949 . S
C1655 H1650 0.950 . S
C1655 C1657 1.327 . S
C1655 C1661 1.429 . S
C1656 C1648 1.574 . S
C1656 H1651 0.949 . S
C1656 C1662 1.368 . S
C1657 C1641 1.349 . S
C1657 H1649 0.950 . S
C1657 C1655 1.327 . S
C1658 C1646 1.349 . S
C1658 H1652 0.950 . S
C1658 C1659 1.327 . S
C1659 H1653 0.950 . S
C1659 C1658 1.327 . S
C1659 C1663 1.429 . S
C1660 C1643 1.574 . S
C1660 H1654 0.949 . S
C1660 C1664 1.368 . S
C1661 C1642 1.429 . S
C1661 C1655 1.429 . S
C1661 C1662 1.523 . S
C1662 C1643 1.368 . S
C1662 C1656 1.368 . S
C1662 C1661 1.523 . S
C1663 C1647 1.429 . S
C1663 C1659 1.429 . S
C1663 C1664 1.523 . S
C1664 C1648 1.368 . S
C1664 C1660 1.368 . S
C1664 C1663 1.523 . S
H1665 C1640 0.950 . S
H1666 C1642 0.950 . S
H1667 C1643 0.949 . S
H1668 C1645 0.950 . S
H1669 C1647 0.950 . S
C1670 C1671 1.349 1_565 S
C1670 C1672 1.327 1_665 S
C1670 H1695 0.950 . S
C1671 C1670 1.349 1_545 S
C1671 C1687 1.349 . S
C1672 C1670 1.327 1_445 S
C1672 C1691 1.429 . S
C1672 H1696 0.950 1_545 S
C1673 C1690 1.574 . S
C1673 C1692 1.368 . S
C1673 H1697 0.949 . S
H1674 C1678 0.949 . S
C1675 C1676 1.349 . S
C1675 C1677 1.327 . S
C1675 H1698 0.950 . S
C1676 C1675 1.349 . S
C1676 C1688 1.349 . S
C1677 C1675 1.327 . S
C1677 C1693 1.429 . S
C1677 H1699 0.950 . S
C1678 H1674 0.949 . S
C1678 C1686 1.574 . S
C1678 C1694 1.368 . S
H1679 C1687 0.950 . S
H1680 C1685 0.950 . S
H1681 C1686 0.949 . S
H1682 C1688 0.950 . S
H1683 C1689 0.950 . S
H1684 C1690 0.949 . S
C1685 H1680 0.950 . S
C1685 C1687 1.327 . S
C1685 C1691 1.429 1_655 S
C1686 C1678 1.574 . S
C1686 H1681 0.949 . S
C1686 C1692 1.368 . S
C1687 C1671 1.349 . S
C1687 H1679 0.950 . S
C1687 C1685 1.327 . S
C1688 C1676 1.349 . S
C1688 H1682 0.950 . S
C1688 C1689 1.327 . S
C1689 H1683 0.950 . S
C1689 C1688 1.327 . S
C1689 C1693 1.429 . S
C1690 C1673 1.574 . S
C1690 H1684 0.949 . S
C1690 C1694 1.368 . S
C1691 C1672 1.429 . S
C1691 C1685 1.429 1_455 S
C1691 C1692 1.523 . S
C1692 C1673 1.368 . S
C1692 C1686 1.368 . S
C1692 C1691 1.523 . S
C1693 C1677 1.429 . S
C1693 C1689 1.429 . S
C1693 C1694 1.523 . S
C1694 C1678 1.368 . S
C1694 C1690 1.368 . S
C1694 C1693 1.523 . S
H1695 C1670 0.950 . S
H1696 C1672 0.950 1_565 S
H1697 C1673 0.949 . S
H1698 C1675 0.950 . S
H1699 C1677 0.950 . S
C1700 C1701 1.349 . S
C1700 C1702 1.327 . S
C1700 H1725 0.950 . S
C1701 C1700 1.349 . S
C1701 C1717 1.349 . S
C1702 C1700 1.327 . S
C1702 C1721 1.429 . S
C1702 H1726 0.950 . S
C1703 C1720 1.574 . S
C1703 C1722 1.368 . S
C1703 H1727 0.949 . S
H1704 C1708 0.949 . S
C1705 C1706 1.349 . S
C1705 C1707 1.327 . S
C1705 H1728 0.950 . S
C1706 C1705 1.349 . S
C1706 C1718 1.349 . S
C1707 C1705 1.327 . S
C1707 C1723 1.429 . S
C1707 H1729 0.950 . S
C1708 H1704 0.949 . S
C1708 C1716 1.574 . S
C1708 C1724 1.368 . S
H1709 C1717 0.950 . S
H1710 C1715 0.950 . S
H1711 C1716 0.949 . S
H1712 C1718 0.950 . S
H1713 C1719 0.950 . S
H1714 C1720 0.949 . S
C1715 H1710 0.950 . S
C1715 C1717 1.327 . S
C1715 C1721 1.429 . S
C1716 C1708 1.574 . S
C1716 H1711 0.949 . S
C1716 C1722 1.368 . S
C1717 C1701 1.349 . S
C1717 H1709 0.950 . S
C1717 C1715 1.327 . S
C1718 C1706 1.349 . S
C1718 H1712 0.950 . S
C1718 C1719 1.327 . S
C1719 H1713 0.950 . S
C1719 C1718 1.327 . S
C1719 C1723 1.429 . S
C1720 C1703 1.574 . S
C1720 H1714 0.949 . S
C1720 C1724 1.368 . S
C1721 C1702 1.429 . S
C1721 C1715 1.429 . S
C1721 C1722 1.523 . S
C1722 C1703 1.368 . S
C1722 C1716 1.368 . S
C1722 C1721 1.523 . S
C1723 C1707 1.429 . S
C1723 C1719 1.429 . S
C1723 C1724 1.523 . S
C1724 C1708 1.368 . S
C1724 C1720 1.368 . S
C1724 C1723 1.523 . S
H1725 C1700 0.950 . S
H1726 C1702 0.950 . S
H1727 C1703 0.949 . S
H1728 C1705 0.950 . S
H1729 C1707 0.950 . S
C1730 C1731 1.349 . S
C1730 C1732 1.327 . S
C1730 H1755 0.950 . S
C1731 C1730 1.349 . S
C1731 C1747 1.349 . S
C1732 C1730 1.327 . S
C1732 C1751 1.429 . S
C1732 H1756 0.950 . S
C1733 C1750 1.574 . S
C1733 C1752 1.368 . S
C1733 H1757 0.949 . S
H1734 C1738 0.949 . S
C1735 C1736 1.349 . S
C1735 C1737 1.327 . S
C1735 H1758 0.950 . S
C1736 C1735 1.349 . S
C1736 C1748 1.349 . S
C1737 C1735 1.327 . S
C1737 C1753 1.429 . S
C1737 H1759 0.950 . S
C1738 H1734 0.949 . S
C1738 C1746 1.574 . S
C1738 C1754 1.368 . S
H1739 C1747 0.950 . S
H1740 C1745 0.950 . S
H1741 C1746 0.949 . S
H1742 C1748 0.950 . S
H1743 C1749 0.950 . S
H1744 C1750 0.949 . S
C1745 H1740 0.950 . S
C1745 C1747 1.327 . S
C1745 C1751 1.429 . S
C1746 C1738 1.574 . S
C1746 H1741 0.949 . S
C1746 C1752 1.368 . S
C1747 C1731 1.349 . S
C1747 H1739 0.950 . S
C1747 C1745 1.327 . S
C1748 C1736 1.349 . S
C1748 H1742 0.950 . S
C1748 C1749 1.327 . S
C1749 H1743 0.950 . S
C1749 C1748 1.327 . S
C1749 C1753 1.429 . S
C1750 C1733 1.574 . S
C1750 H1744 0.949 . S
C1750 C1754 1.368 . S
C1751 C1732 1.429 . S
C1751 C1745 1.429 . S
C1751 C1752 1.523 . S
C1752 C1733 1.368 . S
C1752 C1746 1.368 . S
C1752 C1751 1.523 . S
C1753 C1737 1.429 . S
C1753 C1749 1.429 . S
C1753 C1754 1.523 . S
C1754 C1738 1.368 . S
C1754 C1750 1.368 . S
C1754 C1753 1.523 . S
H1755 C1730 0.950 . S
H1756 C1732 0.950 . S
H1757 C1733 0.949 . S
H1758 C1735 0.950 . S
H1759 C1737 0.950 . S
C321 C8 0.813 . S
C326 C259 0.813 . S
C351 C119 0.813 . S
C356 C28 0.813 . S
C381 C48 0.813 . S
C386 C299 0.813 . S
C411 C68 0.813 . S
C416 C159 0.813 . S
C441 C99 0.813 . S
C446 C168 0.813 . S
C471 C208 0.813 . S
C476 C139 0.813 . S
C501 C279 0.813 . S
C506 C188 0.813 . S
C531 C228 0.813 . S
C536 C319 0.813 . S
C561 C189 1.963 . S
C566 C19 1.934 . S
C591 C39 1.934 . S
C596 C209 1.963 . S
C621 C59 1.934 . S
C626 C229 1.963 . S
C651 C169 1.963 . S
C656 C79 1.934 . S
C681 C261 1.963 . S
C686 C88 1.934 . S
C711 C281 1.963 . S
C716 C108 1.934 . S
C741 C128 1.934 . S
C746 C301 1.963 . S
C771 C241 1.963 . S
C776 C148 1.934 . S
C801 C179 1.934 . S
C806 C29 1.963 . S
C831 C199 1.934 1_565 S
C836 C49 1.963 . S
C861 C219 1.934 . S
C866 C69 1.963 . S
C891 C9 1.963 . S
C896 C239 1.934 1_545 S
C921 C101 1.963 . S
C926 C248 1.934 . S
C951 C268 1.934 1_545 S
C956 C121 1.963 . S
C981 C141 1.963 . S
C986 C288 1.934 . S
C1011 C308 1.934 1_565 S
C1016 C81 1.963 . S
C1041 C16 2.344 . S
C1046 C216 2.344 . S
C1071 C36 2.343 . S
C1076 C236 2.343 . S
C1101 C176 2.344 . S
C1106 C56 2.344 . S
C1131 C76 2.343 . S
C1136 C196 2.343 . S
C1161 C86 2.344 . S
C1166 C286 2.344 . S
C1191 C106 2.343 . S
C1196 C306 2.343 . S
C1221 C246 2.344 . S
C1226 C126 2.344 . S
C1251 C146 2.343 . S
C1256 C266 2.343 . S
C1281 C1 0.988 . S
C1286 C156 1.024 . S
C1311 C256 1.024 . S
C1316 C21 0.988 . S
C1341 C41 0.988 . S
C1346 C116 1.024 . S
C1371 C61 0.988 . S
C1376 C296 1.024 . S
C1401 C89 0.988 . S
C1406 C66 1.024 . S
C1431 C166 1.024 . S
C1436 C109 0.988 . S
C1461 C129 0.988 . S
C1466 C26 1.024 . S
C1491 C206 1.024 . S
C1496 C149 0.988 . S
C1521 C161 0.988 . S
C1526 C316 1.024 . S
C1551 C96 1.024 . S
C1556 C181 0.988 . S
C1581 C276 1.024 . S
C1586 C201 0.988 . S
C1611 C221 0.988 . S
C1616 C136 1.024 . S
C1641 C249 0.988 . S
C1646 C226 1.024 . S
C1671 C269 0.988 . S
C1676 C6 1.024 . S
C1701 C186 1.024 . S
C1706 C289 0.988 . S
C1731 C46 1.024 . S
C1736 C309 0.988 . S
