# Generated by pormake.
# Topology uni, (4)-cn, num edge types: 1
# Building blocks:
#     Node 0, Type 0, BuildingBlock: NAHDIM_clean_sbu_0, # of connection points: 4
#     Node 1, Type 0, BuildingBlock: NAHDIM_clean_sbu_0, # of connection points: 4
#     Node 2, Type 0, BuildingBlock: NAHDIM_clean_sbu_0, # of connection points: 4
#     Node 3, Type 0, BuildingBlock: NAHDIM_clean_sbu_0, # of connection points: 4
#     Node 4, Type 0, BuildingBlock: NAHDIM_clean_sbu_0, # of connection points: 4
#     Node 5, Type 0, BuildingBlock: NAHDIM_clean_sbu_0, # of connection points: 4
#     Edge 6, Type (0, 0), BuildingBlock: ZUJKAS_clean_linker_0, # of connection points: 2
#     Edge 7, Type (0, 0), BuildingBlock: ZUJKAS_clean_linker_0, # of connection points: 2
#     Edge 8, Type (0, 0), BuildingBlock: ZUJKAS_clean_linker_0, # of connection points: 2
#     Edge 9, Type (0, 0), BuildingBlock: ZUJKAS_clean_linker_0, # of connection points: 2
#     Edge 10, Type (0, 0), BuildingBlock: ZUJKAS_clean_linker_0, # of connection points: 2
#     Edge 11, Type (0, 0), BuildingBlock: ZUJKAS_clean_linker_0, # of connection points: 2
#     Edge 12, Type (0, 0), BuildingBlock: ZUJKAS_clean_linker_0, # of connection points: 2
#     Edge 13, Type (0, 0), BuildingBlock: ZUJKAS_clean_linker_0, # of connection points: 2
#     Edge 14, Type (0, 0), BuildingBlock: ZUJKAS_clean_linker_0, # of connection points: 2
#     Edge 15, Type (0, 0), BuildingBlock: ZUJKAS_clean_linker_0, # of connection points: 2
#     Edge 16, Type (0, 0), BuildingBlock: ZUJKAS_clean_linker_0, # of connection points: 2
#     Edge 17, Type (0, 0), BuildingBlock: ZUJKAS_clean_linker_0, # of connection points: 2
# Relax obj value: 0.045
# Max RMSD: 0.078
# Mean RMSD: 0.078
data_MOF--net-uni--node1-NAHDIM_clean_sbu_0--edge1-ZUJKAS_clean_linker_0
_symmetry_space_group_name_H-M    P1
_symmetry_Int_Tables_number       1
_symmetry_cell_setting            triclinic
loop_
_symmetry_equiv_pos_as_xyz
'x, y, z'
_cell_length_a     50.307199
_cell_length_b     50.295712
_cell_length_c     30.225449
_cell_angle_alpha  90.013664
_cell_angle_beta   90.023012
_cell_angle_gamma 119.94738
loop_
_atom_site_label
_atom_site_type_symbol
_atom_site_fract_x
_atom_site_fract_y
_atom_site_fract_z
_atom_type_partial_charge
C0 C 0.65474 0.97006 0.11318 0.0
O1 O 0.66301 0.99303 0.14085 0.0
O2 O 0.68037 0.04425 0.05003 0.0
Zn3 Zn 0.63881 0.00725 0.06087 0.0
O4 O 0.6181 0.01573 0.11157 0.0
C5 C 0.62342 0.00134 0.96762 0.0
O6 O 0.65223 0.00872 0.96249 0.0
O7 O 0.64359 0.97095 0.07584 0.0
C8 C 0.60138 0.0277 0.1048 0.0
O9 O 0.59791 0.03481 0.06422 0.0
C10 C 0.68242 0.06775 0.03103 0.0
O11 O 0.6572 0.06757 0.01926 0.0
O12 O 0.61268 -0.00152 0.00646 0.0
C13 C 0.72754 0.66694 0.2181 0.0
O14 O 0.72911 0.68909 0.19321 0.0
O15 O 0.66546 0.68196 0.19927 0.0
Zn16 Zn 0.66104 0.64064 0.2113 0.0
O17 O 0.63188 0.61994 0.26173 0.0
C18 C 0.62303 0.61589 0.13581 0.0
O19 O 0.6137 0.63453 0.15014 0.0
O20 O 0.70144 0.64459 0.22857 0.0
C21 C 0.60909 0.62331 0.27104 0.0
O22 O 0.6035 0.64161 0.24672 0.0
C23 C 0.67323 0.70266 0.22855 0.0
O24 O 0.67946 0.69752 0.2688 0.0
O25 O 0.6441 0.61437 0.15687 0.0
C26 C 0.08767 0.72502 0.40169 0.0
O27 O 0.06361 0.72754 0.39169 0.0
O28 O 0.01195 0.66861 0.37545 0.0
Zn29 Zn 0.04634 0.65967 0.38673 0.0
O30 O 0.03689 0.63084 0.43829 0.0
C31 C 0.03117 0.62578 0.30485 0.0
O32 O 0.00419 0.62292 0.31276 0.0
O33 O 0.08544 0.69871 0.4011 0.0
C34 C 0.02129 0.60181 0.43442 0.0
O35 O 0.00989 0.58973 0.39561 0.0
C36 C 0.98523 0.65298 0.39182 0.0
O37 O 0.97935 0.63024 0.41882 0.0
O38 O 0.05299 0.64074 0.33196 0.0
C39 C 0.39156 0.08099 0.60395 0.0
O40 O 0.37236 0.05347 0.61915 0.0
O41 O 0.37389 0.01144 0.54855 0.0
Zn42 Zn 0.41583 0.04749 0.55991 0.0
O43 O 0.43606 0.03711 0.60939 0.0
C44 C 0.42863 0.04932 0.46614 0.0
O45 O 0.39889 0.0381 0.46232 0.0
O46 O 0.41251 0.0843 0.57726 0.0
C47 C 0.46362 0.04284 0.60605 0.0
O48 O 0.47917 0.05599 0.56994 0.0
C49 C 0.371 0.98502 0.54387 0.0
O50 O 0.39534 0.98196 0.54796 0.0
O51 O 0.44081 0.05593 0.50433 0.0
C52 C 0.3292 0.38857 0.71665 0.0
O53 O 0.32775 0.36784 0.68877 0.0
O54 O 0.39001 0.37189 0.69894 0.0
Zn55 Zn 0.39532 0.41353 0.71137 0.0
O56 O 0.42517 0.43437 0.7612 0.0
C57 C 0.43546 0.44073 0.63921 0.0
O58 O 0.44643 0.42417 0.65635 0.0
O59 O 0.35524 0.40989 0.7295 0.0
C60 C 0.44673 0.42948 0.77233 0.0
O61 O 0.45051 0.40894 0.75074 0.0
C62 C 0.383 0.35172 0.72883 0.0
O63 O 0.37879 0.35799 0.76956 0.0
O64 O 0.41216 0.43983 0.65704 0.0
C65 C 0.97118 0.33387 0.92506 0.0
O66 O -0.0027 0.33886 0.94213 0.0
O67 O 0.04398 0.38375 0.87504 0.0
Zn68 Zn 0.01004 0.39317 0.88687 0.0
O69 O 0.01939 0.42148 0.9391 0.0
C70 C 0.0263 0.42832 0.80637 0.0
O71 O 0.05324 0.43137 0.81531 0.0
O72 O 0.97101 0.35397 0.89978 0.0
C73 C 0.0374 0.4503 0.9366 0.0
O74 O 0.05134 0.46231 0.89902 0.0
C75 C 0.06947 0.39619 0.89545 0.0
O76 O 0.07428 0.41566 0.92759 0.0
O77 O 0.00399 0.41278 0.83244 0.0
H78 H 0.56532 0.05411 0.10174 0.0
H79 H 0.53737 0.06092 0.16275 0.0
H80 H 0.5729 0.01967 0.2527 0.0
H81 H 0.60082 0.01255 0.19187 0.0
H82 H 0.50842 0.99522 0.25705 0.0
H83 H 0.57249 0.12257 0.26681 0.0
H84 H 0.55882 0.10699 0.21261 0.0
H85 H 0.58748 0.10107 0.23891 0.0
C86 C 0.56737 0.04665 0.13454 0.0
C87 C 0.58532 0.0328 0.14196 0.0
C88 C 0.55151 0.05073 0.16938 0.0
C89 C 0.5534 0.04113 0.21224 0.0
C90 C 0.57132 0.02737 0.21983 0.0
H91 H 0.49067 0.07265 0.4625 0.0
H92 H 0.52075 0.07168 0.39959 0.0
C93 C 0.58726 0.02335 0.18505 0.0
C94 C 0.53559 0.04418 0.24882 0.0
H95 H 0.52738 0.09656 0.31041 0.0
C96 C 0.51256 0.01736 0.26878 0.0
C97 C 0.54127 0.07313 0.26414 0.0
C98 C 0.56652 0.10265 0.24484 0.0
C99 C 0.49476 0.01868 0.30348 0.0
C100 C 0.5 0.04759 0.31819 0.0
C101 C 0.52328 0.07445 0.29862 0.0
C102 C 0.48207 0.05027 0.35489 0.0
C103 C 0.47083 0.98918 0.32465 0.0
C104 C 0.45054 0.03923 0.35009 0.0
C105 C 0.43327 0.0398 0.3859 0.0
C106 C 0.4473 0.0514 0.42711 0.0
C107 C 0.47914 0.06343 0.43127 0.0
C108 C 0.49638 0.06295 0.39539 0.0
H109 H 0.47392 0.96948 0.31563 0.0
H110 H 0.47158 0.99141 0.36125 0.0
H111 H 0.44772 0.98399 0.31339 0.0
H112 H 0.43921 0.02972 0.31883 0.0
H113 H 0.40883 0.03046 0.38154 0.0
H114 H 0.61504 0.58433 0.32758 0.0
H115 H 0.58223 0.55643 0.39002 0.0
H116 H 0.52545 0.59647 0.36368 0.0
H117 H 0.55809 0.62442 0.30056 0.0
H118 H 0.56913 0.58166 0.46525 0.0
H119 H 0.46381 0.50319 0.37013 0.0
H120 H 0.50106 0.52429 0.34437 0.0
H121 H 0.48047 0.54357 0.35932 0.0
C122 C 0.59554 0.5872 0.33487 0.0
C123 C 0.58913 0.60655 0.30896 0.0
C124 C 0.57684 0.57124 0.37062 0.0
C125 C 0.55127 0.57415 0.38112 0.0
C126 C 0.54482 0.59356 0.35563 0.0
H127 H 0.41892 0.47785 0.59473 0.0
H128 H 0.446 0.51242 0.5328 0.0
C129 C 0.56357 0.60961 0.31974 0.0
C130 C 0.53193 0.55714 0.41941 0.0
H131 H 0.46141 0.49774 0.44768 0.0
C132 C 0.5455 0.56346 0.46149 0.0
C133 C 0.50107 0.53357 0.41433 0.0
C134 C 0.48566 0.52547 0.36963 0.0
C135 C 0.52926 0.54636 0.49857 0.0
C136 C 0.49882 0.522 0.49324 0.0
C137 C 0.4848 0.5164 0.4515 0.0
C138 C 0.48201 0.50086 0.53004 0.0
C139 C 0.54489 0.55432 0.54313 0.0
C140 C 0.49301 0.48256 0.54823 0.0
C141 C 0.47766 0.46283 0.58336 0.0
C142 C 0.45089 0.46093 0.60092 0.0
C143 C 0.43954 0.47888 0.58205 0.0
C144 C 0.45494 0.49861 0.54671 0.0
H145 H 0.56439 0.57827 0.54396 0.0
H146 H 0.5285 0.55143 0.56984 0.0
H147 H 0.55406 0.53875 0.55014 0.0
H148 H 0.51356 0.48356 0.53521 0.0
H149 H 0.48694 0.44922 0.59691 0.0
H150 H 0.97319 0.42412 0.77512 0.0
H151 H 0.96709 0.44957 0.71001 0.0
H152 H 0.06423 0.49271 0.68447 0.0
H153 H 0.07046 0.46699 0.74875 0.0
H154 H 0.99274 0.51083 0.69279 0.0
H155 H 0.02801 0.45584 0.56489 0.0
H156 H 0.01888 0.44156 0.62085 0.0
H157 H 0.05615 0.47345 0.60782 0.0
C158 C 0.99322 0.43887 0.75546 0.0
C159 C 0.02229 0.44339 0.76695 0.0
C160 C 0.98968 0.45339 0.71831 0.0
C161 C 0.01511 0.47258 0.69198 0.0
C162 C 0.04417 0.47737 0.70367 0.0
H163 H 0.04549 0.61935 0.51737 0.0
H164 H 0.04052 0.58633 0.57969 0.0
C165 C 0.04771 0.46279 0.74062 0.0
C166 C 0.0116 0.4886 0.65322 0.0
H167 H 0.02727 0.50123 0.54292 0.0
C168 C -3e-05 0.5085 0.6599 0.0
C169 C 0.02053 0.48511 0.61021 0.0
C170 C 0.03129 0.46259 0.60035 0.0
C171 C -0.0018 0.52597 0.62503 0.0
C172 C 0.00894 0.52391 0.58263 0.0
C173 C 0.01939 0.50307 0.57558 0.0
C174 C 0.01058 0.54387 0.54546 0.0
C175 C 0.98482 0.54644 0.63397 0.0
C176 C 0.9959 0.53096 0.50518 0.0
C177 C -0.00103 0.54979 0.46925 0.0
C178 C 0.01689 0.58188 0.47295 0.0
C179 C 0.03136 0.59474 0.51348 0.0
C180 C 0.02837 0.57589 0.54928 0.0
H181 H 0.96919 0.53831 0.66299 0.0
H182 H 0.0037 0.56998 0.64138 0.0
H183 H 0.97195 0.54756 0.60486 0.0
H184 H 0.98222 0.50628 0.50146 0.0
H185 H 0.98755 0.53916 0.4385 0.0
H186 H 0.64163 0.0152 0.88136 0.0
H187 H 0.6118 0.01808 0.81945 0.0
H188 H 0.53295 0.98684 0.90449 0.0
H189 H 0.56267 0.98441 0.96673 0.0
H190 H 0.55661 0.9744 0.77967 0.0
H191 H 0.54568 0.06861 0.85741 0.0
H192 H 0.57204 0.0569 0.87757 0.0
H193 H 0.53193 0.03481 0.89095 0.0
C194 C 0.61787 0.00869 0.88683 0.0
C195 C 0.60462 -0.0001 0.92908 0.0
C196 C 0.60087 0.01035 0.85142 0.0
C197 C 0.57039 0.00326 0.85767 0.0
C198 C 0.55666 0.99307 0.89926 0.0
H199 H 0.43899 0.01766 0.68657 0.0
H200 H 0.46375 0.00574 0.74703 0.0
C201 C 0.57365 0.99155 0.93471 0.0
C202 C 0.55329 0.00747 0.82106 0.0
H203 H 0.51853 0.04814 0.79066 0.0
C204 C 0.54828 0.99051 0.782 0.0
C205 C 0.54253 0.02858 0.82425 0.0
C206 C 0.54851 0.0485 0.86461 0.0
C207 C 0.53246 0.99388 0.74612 0.0
C208 C 0.52181 0.01505 0.74933 0.0
C209 C 0.52662 0.03183 0.78848 0.0
C210 C 0.50643 0.02092 0.71198 0.0
C211 C 0.52698 0.97455 0.7053 0.0
C212 C 0.52236 0.03363 0.67248 0.0
C213 C 0.50835 0.04055 0.63797 0.0
C214 C 0.47817 0.03499 0.64242 0.0
C215 C 0.46224 0.02218 0.68206 0.0
C216 C 0.47632 0.01534 0.71661 0.0
H217 H 0.52942 0.95418 0.71227 0.0
H218 H 0.50374 0.96665 0.69153 0.0
H219 H 0.54408 0.98852 0.67967 0.0
H220 H 0.54584 0.03869 0.66863 0.0
H221 H 0.52131 0.05048 0.60795 0.0
H222 H 0.63498 0.57315 0.09866 0.0
H223 H 0.61027 0.54102 0.0336 0.0
H224 H 0.55382 0.58272 0.01918 0.0
H225 H 0.57843 0.61499 0.08356 0.0
H226 H 0.54738 0.49874 0.02146 0.0
H227 H 0.58995 0.59071 0.89518 0.0
H228 H 0.60701 0.59641 0.94945 0.0
H229 H 0.57248 0.59822 0.94167 0.0
C230 C 0.61745 0.57562 0.08143 0.0
C231 C 0.60875 0.59672 0.09617 0.0
C232 C 0.60337 0.55724 0.04433 0.0
C233 C 0.58061 0.55989 0.02122 0.0
C234 C 0.57182 0.58081 0.03599 0.0
H235 H 0.44613 0.4749 0.82088 0.0
H236 H 0.48092 0.50508 0.88042 0.0
C237 C 0.58581 0.59912 0.07299 0.0
C238 C 0.56495 0.54001 0.98268 0.0
H239 H 0.54663 0.54244 0.87462 0.0
C240 C 0.54756 0.50816 0.98912 0.0
C241 C 0.56539 0.55245 0.94056 0.0
C242 C 0.58496 0.5863 0.93109 0.0
C243 C 0.52924 0.48855 0.95508 0.0
C244 C 0.52869 0.50119 0.91355 0.0
C245 C 0.54701 0.53288 0.90664 0.0
C246 C 0.50771 0.4823 0.87773 0.0
C247 C 0.50953 0.45468 0.96431 0.0
C248 C 0.51139 0.45956 0.85641 0.0
C249 C 0.49149 0.44219 0.82223 0.0
C250 C 0.46767 0.44738 0.80884 0.0
C251 C 0.46417 0.47024 0.83037 0.0
C252 C 0.48406 0.48757 0.86437 0.0
H253 H 0.50874 0.44937 0.00013 0.0
H254 H 0.48574 0.44615 0.95235 0.0
H255 H 0.51895 0.44198 0.94633 0.0
H256 H 0.5298 0.45546 0.86593 0.0
H257 H 0.49485 0.42483 0.80621 0.0
H258 H 0.07533 0.5124 0.94328 0.0
H259 H 0.08064 0.54543 0.00605 0.0
H260 H 0.014 0.46651 0.07916 0.0
H261 H 0.00895 0.43327 0.01704 0.0
H262 H 0.03627 0.5544 0.04233 0.0
H263 H 0.08243 0.50884 0.16914 0.0
H264 H 0.08172 0.50027 0.11099 0.0
H265 H 0.0478 0.47934 0.14428 0.0
C266 C 0.06205 0.50202 0.9729 0.0
C267 C 0.04175 0.47019 0.97519 0.0
C268 C 0.06512 0.52094 0.00872 0.0
C269 C 0.04807 0.50838 0.0475 0.0
C270 C 0.02793 0.47661 0.04996 0.0
H271 H 0.98845 0.59014 0.24327 0.0
H272 H 0.99529 0.56414 0.17985 0.0
C273 C 0.02492 0.45766 0.01426 0.0
C274 C 0.04981 0.52862 0.08436 0.0
H275 H 0.06142 0.53945 0.19573 0.0
C276 C 0.04212 0.55138 0.07579 0.0
C277 C 0.0579 0.52496 0.12785 0.0
C278 C 0.06824 0.50224 0.13859 0.0
C279 C 0.04108 0.56976 0.10988 0.0
C280 C 0.04732 0.56481 0.15379 0.0
C281 C 0.05627 0.54294 0.1621 0.0
C282 C 0.04358 0.58126 0.19178 0.0
C283 C 0.03326 0.59428 0.09853 0.0
C284 C 0.06831 0.59894 0.22017 0.0
C285 C 0.06443 0.61368 0.25676 0.0
C286 C 0.03567 0.61082 0.26569 0.0
C287 C 0.01095 0.59301 0.2372 0.0
C288 C 0.01485 0.57826 0.20074 0.0
H289 H 0.03837 0.60134 0.06331 0.0
H290 H 0.00836 0.58513 0.10387 0.0
H291 H 0.04613 0.61487 0.11976 0.0
H292 H 0.09062 0.60135 0.21396 0.0
H293 H 0.0839 0.62716 0.27813 0.0
H294 H 0.65944 0.71896 0.14935 0.0
H295 H 0.65843 0.76582 0.13174 0.0
H296 H 0.68668 0.79857 0.26493 0.0
H297 H 0.68801 0.75176 0.28291 0.0
H298 H 0.62202 0.78656 0.17478 0.0
H299 H 0.7466 0.87151 0.18664 0.0
H300 H 0.73217 0.83079 0.18126 0.0
H301 H 0.73023 0.84663 0.2336 0.0
C302 C 0.66569 0.7362 0.17488 0.0
C303 C 0.67386 0.73164 0.21756 0.0
C304 C 0.66506 0.76295 0.16473 0.0
C305 C 0.67277 0.78574 0.19689 0.0
C306 C 0.68114 0.78144 0.23944 0.0
H307 H 0.67479 0.95969 0.19194 0.0
H308 H 0.67876 0.91483 0.21302 0.0
C309 C 0.68174 0.75462 0.2497 0.0
C310 C 0.67069 0.81334 0.18619 0.0
H311 H 0.71314 0.89117 0.17502 0.0
C312 C 0.64192 0.80945 0.17475 0.0
C313 C 0.6967 0.84312 0.18644 0.0
C314 C 0.72826 0.84842 0.19729 0.0
C315 C 0.6384 0.83461 0.16377 0.0
C316 C 0.66449 0.86436 0.16335 0.0
C317 C 0.69321 0.86831 0.17528 0.0
C318 C 0.66243 0.89164 0.15022 0.0
C319 C 0.6067 0.82914 0.15343 0.0
C320 C 0.6524 0.89365 0.10768 0.0
C321 C 0.64999 0.91917 0.09556 0.0
C322 C 0.65784 0.94329 0.12568 0.0
C323 C 0.66847 0.94147 0.168 0.0
C324 C 0.67079 0.91589 0.18011 0.0
H325 H 0.58855 0.80685 0.1669 0.0
H326 H 0.60338 0.84777 0.16712 0.0
H327 H 0.60369 0.82864 0.11701 0.0
H328 H 0.64647 0.87548 0.08378 0.0
H329 H 0.64196 0.91995 0.06259 0.0
H330 H 0.98994 0.69912 0.33854 0.0
H331 H 0.9483 0.70655 0.31135 0.0
H332 H 0.88283 0.62688 0.38431 0.0
H333 H 0.92428 0.61959 0.41231 0.0
H334 H 0.89966 0.66658 0.26057 0.0
H335 H 0.85781 0.68939 0.41755 0.0
H336 H 0.89435 0.69093 0.41328 0.0
H337 H 0.85954 0.65463 0.41916 0.0
C338 C 0.96672 0.6834 0.34927 0.0
C339 C 0.96042 0.65878 0.37768 0.0
C340 C 0.94297 0.68768 0.33366 0.0
C341 C 0.91253 0.66753 0.34628 0.0
C342 C 0.90622 0.64313 0.37497 0.0
H343 H 0.73159 0.62573 0.27237 0.0
H344 H 0.77792 0.62824 0.30206 0.0
C345 C 0.92995 0.6389 0.39075 0.0
C346 C 0.88715 0.67078 0.32728 0.0
H347 H 0.82441 0.67651 0.35494 0.0
C348 C 0.88342 0.66915 0.28113 0.0
C349 C 0.86604 0.67417 0.3542 0.0
C350 C 0.86976 0.67769 0.40376 0.0
C351 C 0.85843 0.66962 0.26127 0.0
C352 C 0.83688 0.67213 0.28831 0.0
C353 C 0.84097 0.67446 0.33436 0.0
C354 C 0.80913 0.67096 0.26966 0.0
C355 C 0.85465 0.66631 0.2117 0.0
C356 C 0.8114 0.69428 0.24171 0.0
C357 C 0.78491 0.69294 0.22458 0.0
C358 C 0.75575 0.66828 0.23526 0.0
C359 C 0.75367 0.64501 0.26335 0.0
C360 C 0.7801 0.64642 0.28047 0.0
H361 H 0.86988 0.6587 0.1966 0.0
H362 H 0.83051 0.64958 0.20283 0.0
H363 H 0.86044 0.68879 0.19704 0.0
H364 H 0.83362 0.71364 0.2335 0.0
H365 H 0.7873 0.71129 0.20322 0.0
H366 H 0.10032 0.78455 0.40728 0.0
H367 H 0.14844 0.82944 0.43057 0.0
H368 H 0.18883 0.77223 0.45 0.0
H369 H 0.14107 0.72733 0.42636 0.0
H370 H 0.17899 0.83843 0.51242 0.0
H371 H 0.25175 0.84214 0.37184 0.0
H372 H 0.21037 0.82034 0.36999 0.0
H373 H 0.23146 0.80555 0.39893 0.0
C374 C 0.1195 0.78153 0.41623 0.0
C375 C 0.11689 0.75237 0.41479 0.0
C376 C 0.14693 0.8072 0.42958 0.0
C377 C 0.17226 0.80418 0.44141 0.0
C378 C 0.16973 0.77513 0.44015 0.0
H379 H 0.35649 0.92518 0.5355 0.0
H380 H 0.30749 0.88155 0.51238 0.0
C381 C 0.14234 0.74947 0.42683 0.0
C382 C 0.20109 0.83124 0.45643 0.0
H383 H 0.27743 0.87451 0.43304 0.0
C384 C 0.20051 0.8465 0.49497 0.0
C385 C 0.22907 0.84156 0.43358 0.0
C386 C 0.23079 0.82676 0.39106 0.0
C387 C 0.22738 0.87144 0.51193 0.0
C388 C 0.25541 0.88167 0.4892 0.0
C389 C 0.25591 0.86653 0.45047 0.0
C390 C 0.28457 0.908 0.50499 0.0
C391 C 0.22566 0.88607 0.55463 0.0
C392 C 0.28792 0.93734 0.50838 0.0
C393 C 0.31584 0.96231 0.52182 0.0
C394 C 0.34102 0.9584 0.53162 0.0
C395 C 0.33755 0.92896 0.52823 0.0
C396 C 0.30959 0.90401 0.51498 0.0
H397 H 0.20464 0.87065 0.57371 0.0
H398 H 0.24601 0.89229 0.57575 0.0
H399 H 0.22508 0.90736 0.54701 0.0
H400 H 0.2691 0.94106 0.49989 0.0
H401 H 0.31782 0.98473 0.52376 0.0
H402 H 0.3862 0.33033 0.64712 0.0
H403 H 0.38447 0.28213 0.62922 0.0
H404 H 0.37339 0.25773 0.76743 0.0
H405 H 0.37516 0.30605 0.78583 0.0
H406 H 0.4205 0.25197 0.72221 0.0
H407 H 0.3092 0.19397 0.63279 0.0
H408 H 0.33529 0.23237 0.61443 0.0
H409 H 0.31988 0.22611 0.6695 0.0
C410 C 0.38318 0.31466 0.67375 0.0
C411 C 0.38078 0.322 0.71793 0.0
C412 C 0.38204 0.28705 0.66339 0.0
C413 C 0.37844 0.26628 0.69695 0.0
C414 C 0.37599 0.27345 0.74107 0.0
H415 H 0.34735 0.08127 0.65621 0.0
H416 H 0.34386 0.12581 0.68081 0.0
C417 C 0.37697 0.30102 0.75148 0.0
C418 C 0.37864 0.23773 0.686 0.0
H419 H 0.34084 0.17135 0.6265 0.0
C420 C 0.40299 0.23421 0.70156 0.0
C421 C 0.3556 0.21456 0.65939 0.0
C422 C 0.32833 0.21669 0.64331 0.0
C423 C 0.40537 0.20845 0.69012 0.0
C424 C 0.38296 0.18585 0.66212 0.0
C425 C 0.35813 0.18891 0.64764 0.0
C426 C 0.38512 0.15901 0.6471 0.0
C427 C 0.43181 0.20556 0.70808 0.0
C428 C 0.40926 0.163 0.61952 0.0
C429 C 0.41128 0.13765 0.60527 0.0
C430 C 0.38916 0.10783 0.61836 0.0
C431 C 0.36482 0.10392 0.64566 0.0
C432 C 0.36275 0.12931 0.65972 0.0
H433 H 0.44273 0.22084 0.73701 0.0
H434 H 0.42408 0.18154 0.71805 0.0
H435 H 0.44945 0.21208 0.68191 0.0
H436 H 0.42647 0.18575 0.60887 0.0
H437 H 0.43025 0.14145 0.58415 0.0
H438 H 0.06611 0.3551 0.83332 0.0
H439 H 0.10807 0.3487 0.80489 0.0
H440 H 0.17108 0.41919 0.89378 0.0
H441 H 0.12919 0.42529 0.92307 0.0
H442 H 0.15913 0.39187 0.76278 0.0
H443 H 0.19264 0.3526 0.91299 0.0
H444 H 0.15694 0.35283 0.90907 0.0
H445 H 0.19206 0.38758 0.92176 0.0
C446 C 0.08882 0.36896 0.84727 0.0
C447 C 0.09432 0.39069 0.88052 0.0
C448 C 0.11276 0.36527 0.83095 0.0
C449 C 0.14261 0.38316 0.84762 0.0
C450 C 0.14809 0.40461 0.88118 0.0
H451 H 0.32475 0.42594 0.77812 0.0
H452 H 0.27816 0.42253 0.80839 0.0
C453 C 0.12414 0.4082 0.8977 0.0
C454 C 0.16837 0.38093 0.82784 0.0
H455 H 0.22856 0.37028 0.85307 0.0
C456 C 0.1741 0.38677 0.78239 0.0
C457 C 0.18783 0.37425 0.85351 0.0
C458 C 0.18191 0.36615 0.90194 0.0
C459 C 0.19941 0.38718 0.76221 0.0
C460 C 0.21929 0.38131 0.78815 0.0
C461 C 0.21327 0.37487 0.83338 0.0
C462 C 0.24722 0.38301 0.76933 0.0
C463 C 0.20533 0.39491 0.71368 0.0
C464 C 0.24517 0.36177 0.73747 0.0
C465 C 0.2718 0.36362 0.72004 0.0
C466 C 0.30089 0.38674 0.73428 0.0
C467 C 0.30275 0.40791 0.7663 0.0
C468 C 0.27616 0.40597 0.78375 0.0
H469 H 0.19116 0.40437 0.70038 0.0
H470 H 0.22991 0.41183 0.7079 0.0
H471 H 0.19971 0.37381 0.69481 0.0
H472 H 0.22298 0.34364 0.72637 0.0
H473 H 0.26958 0.34688 0.69558 0.0
H474 H 0.91297 0.3189 0.90092 0.0
H475 H 0.86503 0.27267 0.92033 0.0
H476 H 0.91569 0.23825 0.99211 0.0
H477 H 0.96378 0.28471 0.97359 0.0
H478 H 0.84608 0.21207 0.90138 0.0
H479 H 0.85273 0.23126 0.08304 0.0
H480 H 0.87705 0.26092 0.04452 0.0
H481 H 0.88559 0.23142 0.05959 0.0
C482 C 0.91395 0.30155 0.92093 0.0
C483 C 0.94219 0.30557 0.93594 0.0
C484 C 0.88653 0.27514 0.93196 0.0
C485 C 0.88679 0.25229 0.95823 0.0
C486 C 0.91494 0.25594 0.97264 0.0
H487 H 0.7391 0.07642 0.05263 0.0
H488 H 0.78918 0.12057 0.03431 0.0
C489 C 0.94241 0.28243 0.96178 0.0
C490 C 0.85753 0.22443 0.96981 0.0
H491 H 0.81212 0.1839 0.05692 0.0
C492 C 0.83862 0.20592 0.93537 0.0
C493 C 0.84793 0.21646 0.01422 0.0
C494 C 0.86671 0.23617 0.05251 0.0
C495 C 0.81038 0.17955 0.94414 0.0
C496 C 0.80068 0.17175 0.98848 0.0
C497 C 0.81972 0.18999 0.02297 0.0
C498 C 0.77044 0.14516 -0.00033 0.0
C499 C 0.79127 0.16005 0.90592 0.0
C500 C 0.74343 0.14469 0.9868 0.0
C501 C 0.71484 0.1196 0.99725 0.0
C502 C 0.71276 0.09456 0.0209 0.0
C503 C 0.73992 0.0953 0.03426 0.0
C504 C 0.76853 0.12048 0.02387 0.0
H505 H 0.80512 0.16474 0.87529 0.0
H506 H 0.78055 0.13526 0.91393 0.0
H507 H 0.77264 0.16522 0.8991 0.0
H508 H 0.74447 0.1638 0.96877 0.0
H509 H 0.69439 0.11982 0.98662 0.0
loop_
_geom_bond_atom_site_label_1
_geom_bond_atom_site_label_2
_geom_bond_distance
_geom_bond_site_symmetry_2
_ccdc_geom_bond_type
C0 O1 1.160 . S
C0 O7 1.185 . S
O1 C0 1.160 . S
O2 Zn3 1.899 . S
O2 C10 1.284 . S
Zn3 O2 1.899 . S
Zn3 O4 2.032 . S
Zn3 O7 2.086 1_545 S
Zn3 O12 1.977 . S
O4 Zn3 2.032 . S
O4 C8 1.278 . S
C5 O6 1.203 . S
C5 O12 1.267 1_556 S
O6 C5 1.203 . S
O7 C0 1.185 . S
O7 Zn3 2.086 1_565 S
C8 O4 1.278 . S
C8 O9 1.211 . S
O9 C8 1.211 . S
C10 O2 1.284 . S
C10 O11 1.273 . S
O11 C10 1.273 . S
O12 Zn3 1.977 . S
O12 C5 1.267 1_554 S
C13 O14 1.160 . S
C13 O20 1.185 . S
O14 C13 1.160 . S
O15 Zn16 1.899 . S
O15 C23 1.284 . S
Zn16 O15 1.899 . S
Zn16 O17 2.032 . S
Zn16 O20 2.086 . S
Zn16 O25 1.977 . S
O17 Zn16 2.032 . S
O17 C21 1.278 . S
C18 O19 1.203 . S
C18 O25 1.267 . S
O19 C18 1.203 . S
O20 C13 1.185 . S
O20 Zn16 2.086 . S
C21 O17 1.278 . S
C21 O22 1.211 . S
O22 C21 1.211 . S
C23 O15 1.284 . S
C23 O24 1.273 . S
O24 C23 1.273 . S
O25 Zn16 1.977 . S
O25 C18 1.267 . S
C26 O27 1.160 . S
C26 O33 1.185 . S
O27 C26 1.160 . S
O28 Zn29 1.899 . S
O28 C36 1.284 1_455 S
Zn29 O28 1.899 . S
Zn29 O30 2.032 . S
Zn29 O33 2.086 . S
Zn29 O38 1.977 . S
O30 Zn29 2.032 . S
O30 C34 1.278 . S
C31 O32 1.203 . S
C31 O38 1.267 . S
O32 C31 1.203 . S
O33 C26 1.185 . S
O33 Zn29 2.086 . S
C34 O30 1.278 . S
C34 O35 1.211 . S
O35 C34 1.211 . S
C36 O28 1.284 1_655 S
C36 O37 1.273 . S
O37 C36 1.273 . S
O38 Zn29 1.977 . S
O38 C31 1.267 . S
C39 O40 1.160 . S
C39 O46 1.185 . S
O40 C39 1.160 . S
O41 Zn42 1.899 . S
O41 C49 1.284 1_545 S
Zn42 O41 1.899 . S
Zn42 O43 2.032 . S
Zn42 O46 2.086 . S
Zn42 O51 1.977 . S
O43 Zn42 2.032 . S
O43 C47 1.278 . S
C44 O45 1.203 . S
C44 O51 1.267 . S
O45 C44 1.203 . S
O46 C39 1.185 . S
O46 Zn42 2.086 . S
C47 O43 1.278 . S
C47 O48 1.211 . S
O48 C47 1.211 . S
C49 O41 1.284 1_565 S
C49 O50 1.273 . S
O50 C49 1.273 . S
O51 Zn42 1.977 . S
O51 C44 1.267 . S
C52 O53 1.160 . S
C52 O59 1.185 . S
O53 C52 1.160 . S
O54 Zn55 1.899 . S
O54 C62 1.284 . S
Zn55 O54 1.899 . S
Zn55 O56 2.032 . S
Zn55 O59 2.086 . S
Zn55 O64 1.977 . S
O56 Zn55 2.032 . S
O56 C60 1.278 . S
C57 O58 1.203 . S
C57 O64 1.267 . S
O58 C57 1.203 . S
O59 C52 1.185 . S
O59 Zn55 2.086 . S
C60 O56 1.278 . S
C60 O61 1.211 . S
O61 C60 1.211 . S
C62 O54 1.284 . S
C62 O63 1.273 . S
O63 C62 1.273 . S
O64 Zn55 1.977 . S
O64 C57 1.267 . S
C65 O66 1.160 . S
C65 O72 1.185 . S
O66 C65 1.160 . S
O67 Zn68 1.899 . S
O67 C75 1.284 . S
Zn68 O67 1.899 . S
Zn68 O69 2.032 . S
Zn68 O72 2.086 1_455 S
Zn68 O77 1.977 . S
O69 Zn68 2.032 . S
O69 C73 1.278 . S
C70 O71 1.203 . S
C70 O77 1.267 . S
O71 C70 1.203 . S
O72 C65 1.185 . S
O72 Zn68 2.086 1_655 S
C73 O69 1.278 . S
C73 O74 1.211 . S
O74 C73 1.211 . S
C75 O67 1.284 . S
C75 O76 1.273 . S
O76 C75 1.273 . S
O77 Zn68 1.977 . S
O77 C70 1.267 . S
H78 C86 0.929 . S
H79 C88 0.930 . S
H80 C90 0.930 . S
H81 C93 0.929 . S
H82 C96 0.930 1_565 S
H83 C98 0.960 . S
H84 C98 0.960 . S
H85 C98 0.960 . S
C86 H78 0.929 . S
C86 C87 1.377 . S
C86 C88 1.384 . S
C87 C86 1.377 . S
C87 C93 1.390 . S
C88 H79 0.930 . S
C88 C86 1.384 . S
C88 C89 1.372 . S
C89 C88 1.372 . S
C89 C90 1.400 . S
C89 C94 1.490 . S
C90 H80 0.930 . S
C90 C89 1.400 . S
C90 C93 1.386 . S
H91 C107 0.930 . S
H92 C108 0.931 . S
C93 H81 0.929 . S
C93 C87 1.390 . S
C93 C90 1.386 . S
C94 C89 1.490 . S
C94 C96 1.395 . S
C94 C97 1.403 . S
H95 C101 0.930 . S
C96 H82 0.930 1_545 S
C96 C94 1.395 . S
C96 C99 1.403 . S
C97 C94 1.403 . S
C97 C98 1.524 . S
C97 C101 1.400 . S
C98 H83 0.960 . S
C98 H84 0.960 . S
C98 H85 0.960 . S
C98 C97 1.524 . S
C99 C96 1.403 . S
C99 C100 1.392 . S
C99 C103 1.495 1_545 S
C100 C99 1.392 . S
C100 C101 1.385 . S
C100 C102 1.478 . S
C101 H95 0.930 . S
C101 C97 1.400 . S
C101 C100 1.385 . S
C102 C100 1.478 . S
C102 C104 1.381 . S
C102 C108 1.383 . S
C103 C99 1.495 1_565 S
C103 H109 0.959 . S
C103 H110 0.961 . S
C103 H111 0.960 . S
C104 C102 1.381 . S
C104 C105 1.394 . S
C104 H112 0.930 . S
C105 C104 1.394 . S
C105 C106 1.383 . S
C105 H113 0.929 . S
C106 C105 1.383 . S
C106 C107 1.377 . S
C107 H91 0.930 . S
C107 C106 1.377 . S
C107 C108 1.379 . S
C108 H92 0.931 . S
C108 C102 1.383 . S
C108 C107 1.379 . S
H109 C103 0.959 . S
H110 C103 0.961 . S
H111 C103 0.960 . S
H112 C104 0.930 . S
H113 C105 0.929 . S
H114 C122 0.929 . S
H115 C124 0.930 . S
H116 C126 0.930 . S
H117 C129 0.929 . S
H118 C132 0.930 . S
H119 C134 0.960 . S
H120 C134 0.960 . S
H121 C134 0.960 . S
C122 H114 0.929 . S
C122 C123 1.377 . S
C122 C124 1.384 . S
C123 C122 1.377 . S
C123 C129 1.390 . S
C124 H115 0.930 . S
C124 C122 1.384 . S
C124 C125 1.372 . S
C125 C124 1.372 . S
C125 C126 1.400 . S
C125 C130 1.490 . S
C126 H116 0.930 . S
C126 C125 1.400 . S
C126 C129 1.386 . S
H127 C143 0.930 . S
H128 C144 0.931 . S
C129 H117 0.929 . S
C129 C123 1.390 . S
C129 C126 1.386 . S
C130 C125 1.490 . S
C130 C132 1.395 . S
C130 C133 1.403 . S
H131 C137 0.930 . S
C132 H118 0.930 . S
C132 C130 1.395 . S
C132 C135 1.403 . S
C133 C130 1.403 . S
C133 C134 1.524 . S
C133 C137 1.400 . S
C134 H119 0.960 . S
C134 H120 0.960 . S
C134 H121 0.960 . S
C134 C133 1.524 . S
C135 C132 1.403 . S
C135 C136 1.392 . S
C135 C139 1.495 . S
C136 C135 1.392 . S
C136 C137 1.385 . S
C136 C138 1.478 . S
C137 H131 0.930 . S
C137 C133 1.400 . S
C137 C136 1.385 . S
C138 C136 1.478 . S
C138 C140 1.381 . S
C138 C144 1.383 . S
C139 C135 1.495 . S
C139 H145 0.959 . S
C139 H146 0.961 . S
C139 H147 0.960 . S
C140 C138 1.381 . S
C140 C141 1.394 . S
C140 H148 0.930 . S
C141 C140 1.394 . S
C141 C142 1.383 . S
C141 H149 0.929 . S
C142 C141 1.383 . S
C142 C143 1.377 . S
C143 H127 0.930 . S
C143 C142 1.377 . S
C143 C144 1.379 . S
C144 H128 0.931 . S
C144 C138 1.383 . S
C144 C143 1.379 . S
H145 C139 0.959 . S
H146 C139 0.961 . S
H147 C139 0.960 . S
H148 C140 0.930 . S
H149 C141 0.929 . S
H150 C158 0.929 . S
H151 C160 0.930 . S
H152 C162 0.930 . S
H153 C165 0.929 . S
H154 C168 0.930 . S
H155 C170 0.960 . S
H156 C170 0.960 . S
H157 C170 0.960 . S
C158 H150 0.929 . S
C158 C159 1.377 . S
C158 C160 1.384 . S
C159 C158 1.377 . S
C159 C165 1.390 . S
C160 H151 0.930 . S
C160 C158 1.384 . S
C160 C161 1.372 . S
C161 C160 1.372 . S
C161 C162 1.400 . S
C161 C166 1.490 . S
C162 H152 0.930 . S
C162 C161 1.400 . S
C162 C165 1.386 . S
H163 C179 0.930 . S
H164 C180 0.931 . S
C165 H153 0.929 . S
C165 C159 1.390 . S
C165 C162 1.386 . S
C166 C161 1.490 . S
C166 C168 1.395 1_455 S
C166 C169 1.403 . S
H167 C173 0.930 . S
C168 H154 0.930 . S
C168 C166 1.395 1_655 S
C168 C171 1.403 . S
C169 C166 1.403 . S
C169 C170 1.524 . S
C169 C173 1.400 . S
C170 H155 0.960 . S
C170 H156 0.960 . S
C170 H157 0.960 . S
C170 C169 1.524 . S
C171 C168 1.403 . S
C171 C172 1.392 1_655 S
C171 C175 1.495 . S
C172 C171 1.392 1_455 S
C172 C173 1.385 . S
C172 C174 1.478 . S
C173 H167 0.930 . S
C173 C169 1.400 . S
C173 C172 1.385 . S
C174 C172 1.478 . S
C174 C176 1.381 . S
C174 C180 1.383 . S
C175 C171 1.495 . S
C175 H181 0.959 . S
C175 H182 0.961 . S
C175 H183 0.960 . S
C176 C174 1.381 . S
C176 C177 1.394 . S
C176 H184 0.930 . S
C177 C176 1.394 . S
C177 C178 1.383 . S
C177 H185 0.929 . S
C178 C177 1.383 . S
C178 C179 1.377 . S
C179 H163 0.930 . S
C179 C178 1.377 . S
C179 C180 1.379 . S
C180 H164 0.931 . S
C180 C174 1.383 . S
C180 C179 1.379 . S
H181 C175 0.959 . S
H182 C175 0.961 . S
H183 C175 0.960 . S
H184 C176 0.930 . S
H185 C177 0.929 . S
H186 C194 0.929 . S
H187 C196 0.930 . S
H188 C198 0.930 . S
H189 C201 0.929 . S
H190 C204 0.930 1_565 S
H191 C206 0.960 . S
H192 C206 0.960 . S
H193 C206 0.960 . S
C194 H186 0.929 . S
C194 C195 1.377 . S
C194 C196 1.384 . S
C195 C194 1.377 . S
C195 C201 1.390 . S
C196 H187 0.930 . S
C196 C194 1.384 . S
C196 C197 1.372 . S
C197 C196 1.372 . S
C197 C198 1.400 . S
C197 C202 1.490 . S
C198 H188 0.930 . S
C198 C197 1.400 . S
C198 C201 1.386 . S
H199 C215 0.930 . S
H200 C216 0.931 . S
C201 H189 0.929 . S
C201 C195 1.390 . S
C201 C198 1.386 . S
C202 C197 1.490 . S
C202 C204 1.395 . S
C202 C205 1.403 . S
H203 C209 0.930 . S
C204 H190 0.930 1_545 S
C204 C202 1.395 . S
C204 C207 1.403 . S
C205 C202 1.403 . S
C205 C206 1.524 . S
C205 C209 1.400 . S
C206 H191 0.960 . S
C206 H192 0.960 . S
C206 H193 0.960 . S
C206 C205 1.524 . S
C207 C204 1.403 . S
C207 C208 1.392 . S
C207 C211 1.495 1_545 S
C208 C207 1.392 . S
C208 C209 1.385 . S
C208 C210 1.478 . S
C209 H203 0.930 . S
C209 C205 1.400 . S
C209 C208 1.385 . S
C210 C208 1.478 . S
C210 C212 1.381 . S
C210 C216 1.383 . S
C211 C207 1.495 1_565 S
C211 H217 0.959 . S
C211 H218 0.961 . S
C211 H219 0.960 . S
C212 C210 1.381 . S
C212 C213 1.394 . S
C212 H220 0.930 . S
C213 C212 1.394 . S
C213 C214 1.383 . S
C213 H221 0.929 . S
C214 C213 1.383 . S
C214 C215 1.377 . S
C215 H199 0.930 . S
C215 C214 1.377 . S
C215 C216 1.379 . S
C216 H200 0.931 . S
C216 C210 1.383 . S
C216 C215 1.379 . S
H217 C211 0.959 . S
H218 C211 0.961 . S
H219 C211 0.960 . S
H220 C212 0.930 . S
H221 C213 0.929 . S
H222 C230 0.929 . S
H223 C232 0.930 . S
H224 C234 0.930 . S
H225 C237 0.929 . S
H226 C240 0.930 . S
H227 C242 0.960 . S
H228 C242 0.960 . S
H229 C242 0.960 . S
C230 H222 0.929 . S
C230 C231 1.377 . S
C230 C232 1.384 . S
C231 C230 1.377 . S
C231 C237 1.390 . S
C232 H223 0.930 . S
C232 C230 1.384 . S
C232 C233 1.372 . S
C233 C232 1.372 . S
C233 C234 1.400 . S
C233 C238 1.490 . S
C234 H224 0.930 . S
C234 C233 1.400 . S
C234 C237 1.386 . S
H235 C251 0.930 . S
H236 C252 0.931 . S
C237 H225 0.929 . S
C237 C231 1.390 . S
C237 C234 1.386 . S
C238 C233 1.490 . S
C238 C240 1.395 . S
C238 C241 1.403 1_554 S
H239 C245 0.930 . S
C240 H226 0.930 . S
C240 C238 1.395 . S
C240 C243 1.403 1_554 S
C241 C238 1.403 1_556 S
C241 C242 1.524 . S
C241 C245 1.400 . S
C242 H227 0.960 . S
C242 H228 0.960 . S
C242 H229 0.960 . S
C242 C241 1.524 . S
C243 C240 1.403 1_556 S
C243 C244 1.392 . S
C243 C247 1.495 . S
C244 C243 1.392 . S
C244 C245 1.385 . S
C244 C246 1.478 . S
C245 H239 0.930 . S
C245 C241 1.400 . S
C245 C244 1.385 . S
C246 C244 1.478 . S
C246 C248 1.381 . S
C246 C252 1.383 . S
C247 C243 1.495 . S
C247 H253 0.959 1_556 S
C247 H254 0.961 . S
C247 H255 0.960 . S
C248 C246 1.381 . S
C248 C249 1.394 . S
C248 H256 0.930 . S
C249 C248 1.394 . S
C249 C250 1.383 . S
C249 H257 0.929 . S
C250 C249 1.383 . S
C250 C251 1.377 . S
C251 H235 0.930 . S
C251 C250 1.377 . S
C251 C252 1.379 . S
C252 H236 0.931 . S
C252 C246 1.383 . S
C252 C251 1.379 . S
H253 C247 0.959 1_554 S
H254 C247 0.961 . S
H255 C247 0.960 . S
H256 C248 0.930 . S
H257 C249 0.929 . S
H258 C266 0.929 1_556 S
H259 C268 0.930 . S
H260 C270 0.930 1_655 S
H261 C273 0.929 1_656 S
H262 C276 0.930 . S
H263 C278 0.960 1_655 S
H264 C278 0.960 . S
H265 C278 0.960 1_655 S
C266 H258 0.929 1_554 S
C266 C267 1.377 1_554 S
C266 C268 1.384 . S
C267 C266 1.377 1_556 S
C267 C273 1.390 1_556 S
C268 H259 0.930 . S
C268 C266 1.384 . S
C268 C269 1.372 . S
C269 C268 1.372 . S
C269 C270 1.400 . S
C269 C274 1.490 . S
C270 H260 0.930 1_455 S
C270 C269 1.400 . S
C270 C273 1.386 . S
H271 C287 0.930 1_655 S
H272 C288 0.931 1_655 S
C273 H261 0.929 1_454 S
C273 C267 1.390 1_554 S
C273 C270 1.386 . S
C274 C269 1.490 . S
C274 C276 1.395 . S
C274 C277 1.403 . S
H275 C281 0.930 . S
C276 H262 0.930 . S
C276 C274 1.395 . S
C276 C279 1.403 . S
C277 C274 1.403 . S
C277 C278 1.524 . S
C277 C281 1.400 . S
C278 H263 0.960 1_455 S
C278 H264 0.960 . S
C278 H265 0.960 1_455 S
C278 C277 1.524 . S
C279 C276 1.403 . S
C279 C280 1.392 . S
C279 C283 1.495 . S
C280 C279 1.392 . S
C280 C281 1.385 . S
C280 C282 1.478 . S
C281 H275 0.930 . S
C281 C277 1.400 . S
C281 C280 1.385 . S
C282 C280 1.478 . S
C282 C284 1.381 . S
C282 C288 1.383 . S
C283 C279 1.495 . S
C283 H289 0.959 . S
C283 H290 0.961 . S
C283 H291 0.960 . S
C284 C282 1.381 . S
C284 C285 1.394 . S
C284 H292 0.930 . S
C285 C284 1.394 . S
C285 C286 1.383 . S
C285 H293 0.929 . S
C286 C285 1.383 . S
C286 C287 1.377 . S
C287 H271 0.930 1_455 S
C287 C286 1.377 . S
C287 C288 1.379 . S
C288 H272 0.931 1_455 S
C288 C282 1.383 . S
C288 C287 1.379 . S
H289 C283 0.959 . S
H290 C283 0.961 . S
H291 C283 0.960 . S
H292 C284 0.930 . S
H293 C285 0.929 . S
H294 C302 0.929 . S
H295 C304 0.930 . S
H296 C306 0.930 . S
H297 C309 0.929 . S
H298 C312 0.930 . S
H299 C314 0.960 . S
H300 C314 0.960 . S
H301 C314 0.960 . S
C302 H294 0.929 . S
C302 C303 1.377 . S
C302 C304 1.384 . S
C303 C302 1.377 . S
C303 C309 1.390 . S
C304 H295 0.930 . S
C304 C302 1.384 . S
C304 C305 1.372 . S
C305 C304 1.372 . S
C305 C306 1.400 . S
C305 C310 1.490 . S
C306 H296 0.930 . S
C306 C305 1.400 . S
C306 C309 1.386 . S
H307 C323 0.930 . S
H308 C324 0.931 . S
C309 H297 0.929 . S
C309 C303 1.390 . S
C309 C306 1.386 . S
C310 C305 1.490 . S
C310 C312 1.395 . S
C310 C313 1.403 . S
H311 C317 0.930 . S
C312 H298 0.930 . S
C312 C310 1.395 . S
C312 C315 1.403 . S
C313 C310 1.403 . S
C313 C314 1.524 . S
C313 C317 1.400 . S
C314 H299 0.960 . S
C314 H300 0.960 . S
C314 H301 0.960 . S
C314 C313 1.524 . S
C315 C312 1.403 . S
C315 C316 1.392 . S
C315 C319 1.495 . S
C316 C315 1.392 . S
C316 C317 1.385 . S
C316 C318 1.478 . S
C317 H311 0.930 . S
C317 C313 1.400 . S
C317 C316 1.385 . S
C318 C316 1.478 . S
C318 C320 1.381 . S
C318 C324 1.383 . S
C319 C315 1.495 . S
C319 H325 0.959 . S
C319 H326 0.961 . S
C319 H327 0.960 . S
C320 C318 1.381 . S
C320 C321 1.394 . S
C320 H328 0.930 . S
C321 C320 1.394 . S
C321 C322 1.383 . S
C321 H329 0.929 . S
C322 C321 1.383 . S
C322 C323 1.377 . S
C323 H307 0.930 . S
C323 C322 1.377 . S
C323 C324 1.379 . S
C324 H308 0.931 . S
C324 C318 1.383 . S
C324 C323 1.379 . S
H325 C319 0.959 . S
H326 C319 0.961 . S
H327 C319 0.960 . S
H328 C320 0.930 . S
H329 C321 0.929 . S
H330 C338 0.929 . S
H331 C340 0.930 . S
H332 C342 0.930 . S
H333 C345 0.929 . S
H334 C348 0.930 . S
H335 C350 0.960 . S
H336 C350 0.960 . S
H337 C350 0.960 . S
C338 H330 0.929 . S
C338 C339 1.377 . S
C338 C340 1.384 . S
C339 C338 1.377 . S
C339 C345 1.390 . S
C340 H331 0.930 . S
C340 C338 1.384 . S
C340 C341 1.372 . S
C341 C340 1.372 . S
C341 C342 1.400 . S
C341 C346 1.490 . S
C342 H332 0.930 . S
C342 C341 1.400 . S
C342 C345 1.386 . S
H343 C359 0.930 . S
H344 C360 0.931 . S
C345 H333 0.929 . S
C345 C339 1.390 . S
C345 C342 1.386 . S
C346 C341 1.490 . S
C346 C348 1.395 . S
C346 C349 1.403 . S
H347 C353 0.930 . S
C348 H334 0.930 . S
C348 C346 1.395 . S
C348 C351 1.403 . S
C349 C346 1.403 . S
C349 C350 1.524 . S
C349 C353 1.400 . S
C350 H335 0.960 . S
C350 H336 0.960 . S
C350 H337 0.960 . S
C350 C349 1.524 . S
C351 C348 1.403 . S
C351 C352 1.392 . S
C351 C355 1.495 . S
C352 C351 1.392 . S
C352 C353 1.385 . S
C352 C354 1.478 . S
C353 H347 0.930 . S
C353 C349 1.400 . S
C353 C352 1.385 . S
C354 C352 1.478 . S
C354 C356 1.381 . S
C354 C360 1.383 . S
C355 C351 1.495 . S
C355 H361 0.959 . S
C355 H362 0.961 . S
C355 H363 0.960 . S
C356 C354 1.381 . S
C356 C357 1.394 . S
C356 H364 0.930 . S
C357 C356 1.394 . S
C357 C358 1.383 . S
C357 H365 0.929 . S
C358 C357 1.383 . S
C358 C359 1.377 . S
C359 H343 0.930 . S
C359 C358 1.377 . S
C359 C360 1.379 . S
C360 H344 0.931 . S
C360 C354 1.383 . S
C360 C359 1.379 . S
H361 C355 0.959 . S
H362 C355 0.961 . S
H363 C355 0.960 . S
H364 C356 0.930 . S
H365 C357 0.929 . S
H366 C374 0.929 . S
H367 C376 0.930 . S
H368 C378 0.930 . S
H369 C381 0.929 . S
H370 C384 0.930 . S
H371 C386 0.960 . S
H372 C386 0.960 . S
H373 C386 0.960 . S
C374 H366 0.929 . S
C374 C375 1.377 . S
C374 C376 1.384 . S
C375 C374 1.377 . S
C375 C381 1.390 . S
C376 H367 0.930 . S
C376 C374 1.384 . S
C376 C377 1.372 . S
C377 C376 1.372 . S
C377 C378 1.400 . S
C377 C382 1.490 . S
C378 H368 0.930 . S
C378 C377 1.400 . S
C378 C381 1.386 . S
H379 C395 0.930 . S
H380 C396 0.931 . S
C381 H369 0.929 . S
C381 C375 1.390 . S
C381 C378 1.386 . S
C382 C377 1.490 . S
C382 C384 1.395 . S
C382 C385 1.403 . S
H383 C389 0.930 . S
C384 H370 0.930 . S
C384 C382 1.395 . S
C384 C387 1.403 . S
C385 C382 1.403 . S
C385 C386 1.524 . S
C385 C389 1.400 . S
C386 H371 0.960 . S
C386 H372 0.960 . S
C386 H373 0.960 . S
C386 C385 1.524 . S
C387 C384 1.403 . S
C387 C388 1.392 . S
C387 C391 1.495 . S
C388 C387 1.392 . S
C388 C389 1.385 . S
C388 C390 1.478 . S
C389 H383 0.930 . S
C389 C385 1.400 . S
C389 C388 1.385 . S
C390 C388 1.478 . S
C390 C392 1.381 . S
C390 C396 1.383 . S
C391 C387 1.495 . S
C391 H397 0.959 . S
C391 H398 0.961 . S
C391 H399 0.960 . S
C392 C390 1.381 . S
C392 C393 1.394 . S
C392 H400 0.930 . S
C393 C392 1.394 . S
C393 C394 1.383 . S
C393 H401 0.929 . S
C394 C393 1.383 . S
C394 C395 1.377 . S
C395 H379 0.930 . S
C395 C394 1.377 . S
C395 C396 1.379 . S
C396 H380 0.931 . S
C396 C390 1.383 . S
C396 C395 1.379 . S
H397 C391 0.959 . S
H398 C391 0.961 . S
H399 C391 0.960 . S
H400 C392 0.930 . S
H401 C393 0.929 . S
H402 C410 0.929 . S
H403 C412 0.930 . S
H404 C414 0.930 . S
H405 C417 0.929 . S
H406 C420 0.930 . S
H407 C422 0.960 . S
H408 C422 0.960 . S
H409 C422 0.960 . S
C410 H402 0.929 . S
C410 C411 1.377 . S
C410 C412 1.384 . S
C411 C410 1.377 . S
C411 C417 1.390 . S
C412 H403 0.930 . S
C412 C410 1.384 . S
C412 C413 1.372 . S
C413 C412 1.372 . S
C413 C414 1.400 . S
C413 C418 1.490 . S
C414 H404 0.930 . S
C414 C413 1.400 . S
C414 C417 1.386 . S
H415 C431 0.930 . S
H416 C432 0.931 . S
C417 H405 0.929 . S
C417 C411 1.390 . S
C417 C414 1.386 . S
C418 C413 1.490 . S
C418 C420 1.395 . S
C418 C421 1.403 . S
H419 C425 0.930 . S
C420 H406 0.930 . S
C420 C418 1.395 . S
C420 C423 1.403 . S
C421 C418 1.403 . S
C421 C422 1.524 . S
C421 C425 1.400 . S
C422 H407 0.960 . S
C422 H408 0.960 . S
C422 H409 0.960 . S
C422 C421 1.524 . S
C423 C420 1.403 . S
C423 C424 1.392 . S
C423 C427 1.495 . S
C424 C423 1.392 . S
C424 C425 1.385 . S
C424 C426 1.478 . S
C425 H419 0.930 . S
C425 C421 1.400 . S
C425 C424 1.385 . S
C426 C424 1.478 . S
C426 C428 1.381 . S
C426 C432 1.383 . S
C427 C423 1.495 . S
C427 H433 0.959 . S
C427 H434 0.961 . S
C427 H435 0.960 . S
C428 C426 1.381 . S
C428 C429 1.394 . S
C428 H436 0.930 . S
C429 C428 1.394 . S
C429 C430 1.383 . S
C429 H437 0.929 . S
C430 C429 1.383 . S
C430 C431 1.377 . S
C431 H415 0.930 . S
C431 C430 1.377 . S
C431 C432 1.379 . S
C432 H416 0.931 . S
C432 C426 1.383 . S
C432 C431 1.379 . S
H433 C427 0.959 . S
H434 C427 0.961 . S
H435 C427 0.960 . S
H436 C428 0.930 . S
H437 C429 0.929 . S
H438 C446 0.929 . S
H439 C448 0.930 . S
H440 C450 0.930 . S
H441 C453 0.929 . S
H442 C456 0.930 . S
H443 C458 0.960 . S
H444 C458 0.960 . S
H445 C458 0.960 . S
C446 H438 0.929 . S
C446 C447 1.377 . S
C446 C448 1.384 . S
C447 C446 1.377 . S
C447 C453 1.390 . S
C448 H439 0.930 . S
C448 C446 1.384 . S
C448 C449 1.372 . S
C449 C448 1.372 . S
C449 C450 1.400 . S
C449 C454 1.490 . S
C450 H440 0.930 . S
C450 C449 1.400 . S
C450 C453 1.386 . S
H451 C467 0.930 . S
H452 C468 0.931 . S
C453 H441 0.929 . S
C453 C447 1.390 . S
C453 C450 1.386 . S
C454 C449 1.490 . S
C454 C456 1.395 . S
C454 C457 1.403 . S
H455 C461 0.930 . S
C456 H442 0.930 . S
C456 C454 1.395 . S
C456 C459 1.403 . S
C457 C454 1.403 . S
C457 C458 1.524 . S
C457 C461 1.400 . S
C458 H443 0.960 . S
C458 H444 0.960 . S
C458 H445 0.960 . S
C458 C457 1.524 . S
C459 C456 1.403 . S
C459 C460 1.392 . S
C459 C463 1.495 . S
C460 C459 1.392 . S
C460 C461 1.385 . S
C460 C462 1.478 . S
C461 H455 0.930 . S
C461 C457 1.400 . S
C461 C460 1.385 . S
C462 C460 1.478 . S
C462 C464 1.381 . S
C462 C468 1.383 . S
C463 C459 1.495 . S
C463 H469 0.959 . S
C463 H470 0.961 . S
C463 H471 0.960 . S
C464 C462 1.381 . S
C464 C465 1.394 . S
C464 H472 0.930 . S
C465 C464 1.394 . S
C465 C466 1.383 . S
C465 H473 0.929 . S
C466 C465 1.383 . S
C466 C467 1.377 . S
C467 H451 0.930 . S
C467 C466 1.377 . S
C467 C468 1.379 . S
C468 H452 0.931 . S
C468 C462 1.383 . S
C468 C467 1.379 . S
H469 C463 0.959 . S
H470 C463 0.961 . S
H471 C463 0.960 . S
H472 C464 0.930 . S
H473 C465 0.929 . S
H474 C482 0.929 . S
H475 C484 0.930 . S
H476 C486 0.930 . S
H477 C489 0.929 . S
H478 C492 0.930 . S
H479 C494 0.960 . S
H480 C494 0.960 . S
H481 C494 0.960 . S
C482 H474 0.929 . S
C482 C483 1.377 . S
C482 C484 1.384 . S
C483 C482 1.377 . S
C483 C489 1.390 . S
C484 H475 0.930 . S
C484 C482 1.384 . S
C484 C485 1.372 . S
C485 C484 1.372 . S
C485 C486 1.400 . S
C485 C490 1.490 . S
C486 H476 0.930 . S
C486 C485 1.400 . S
C486 C489 1.386 . S
H487 C503 0.930 . S
H488 C504 0.931 1_556 S
C489 H477 0.929 . S
C489 C483 1.390 . S
C489 C486 1.386 . S
C490 C485 1.490 . S
C490 C492 1.395 . S
C490 C493 1.403 1_556 S
H491 C497 0.930 . S
C492 H478 0.930 . S
C492 C490 1.395 . S
C492 C495 1.403 . S
C493 C490 1.403 1_554 S
C493 C494 1.524 . S
C493 C497 1.400 . S
C494 H479 0.960 . S
C494 H480 0.960 . S
C494 H481 0.960 . S
C494 C493 1.524 . S
C495 C492 1.403 . S
C495 C496 1.392 . S
C495 C499 1.495 . S
C496 C495 1.392 . S
C496 C497 1.385 1_556 S
C496 C498 1.478 . S
C497 H491 0.930 . S
C497 C493 1.400 . S
C497 C496 1.385 1_554 S
C498 C496 1.478 . S
C498 C500 1.381 1_556 S
C498 C504 1.383 1_556 S
C499 C495 1.495 . S
C499 H505 0.959 . S
C499 H506 0.961 . S
C499 H507 0.960 . S
C500 C498 1.381 1_554 S
C500 C501 1.394 . S
C500 H508 0.930 1_554 S
C501 C500 1.394 . S
C501 C502 1.383 . S
C501 H509 0.929 . S
C502 C501 1.383 . S
C502 C503 1.377 . S
C503 H487 0.930 . S
C503 C502 1.377 . S
C503 C504 1.379 . S
C504 H488 0.931 1_554 S
C504 C498 1.383 1_554 S
C504 C503 1.379 . S
H505 C499 0.959 . S
H506 C499 0.961 . S
H507 C499 0.960 . S
H508 C500 0.930 1_556 S
H509 C501 0.929 . S
C87 C8 1.353 . S
C106 C44 1.336 . S
C123 C21 1.354 . S
C142 C57 1.348 . S
C159 C70 1.361 . S
C178 C34 1.355 . S
C195 C5 1.358 . S
C214 C47 1.339 . S
C231 C18 1.366 . S
C250 C60 1.378 . S
C267 C73 1.362 . S
C286 C31 1.372 . S
C303 C23 1.382 . S
C322 C0 1.386 . S
C339 C36 1.380 . S
C358 C13 1.369 . S
C375 C26 1.375 . S
C394 C49 1.385 . S
C411 C62 1.379 . S
C430 C39 1.382 . S
C447 C75 1.380 . S
C466 C52 1.369 . S
C483 C65 1.376 . S
C502 C10 1.375 . S
