# Generated by pormake.
# Topology ukt, (4)-cn, num edge types: 1
# Building blocks:
#     Node 0, Type 0, BuildingBlock: CEKHIL_clean_sbu_0, # of connection points: 4
#     Node 1, Type 0, BuildingBlock: CEKHIL_clean_sbu_0, # of connection points: 4
#     Node 2, Type 0, BuildingBlock: CEKHIL_clean_sbu_0, # of connection points: 4
#     Node 3, Type 0, BuildingBlock: CEKHIL_clean_sbu_0, # of connection points: 4
#     Node 4, Type 0, BuildingBlock: CEKHIL_clean_sbu_0, # of connection points: 4
#     Node 5, Type 0, BuildingBlock: CEKHIL_clean_sbu_0, # of connection points: 4
#     Node 6, Type 0, BuildingBlock: CEKHIL_clean_sbu_0, # of connection points: 4
#     Node 7, Type 0, BuildingBlock: CEKHIL_clean_sbu_0, # of connection points: 4
#     Node 8, Type 0, BuildingBlock: CEKHIL_clean_sbu_0, # of connection points: 4
#     Node 9, Type 0, BuildingBlock: CEKHIL_clean_sbu_0, # of connection points: 4
#     Node 10, Type 0, BuildingBlock: CEKHIL_clean_sbu_0, # of connection points: 4
#     Node 11, Type 0, BuildingBlock: CEKHIL_clean_sbu_0, # of connection points: 4
#     Node 12, Type 0, BuildingBlock: CEKHIL_clean_sbu_0, # of connection points: 4
#     Node 13, Type 0, BuildingBlock: CEKHIL_clean_sbu_0, # of connection points: 4
#     Node 14, Type 0, BuildingBlock: CEKHIL_clean_sbu_0, # of connection points: 4
#     Node 15, Type 0, BuildingBlock: CEKHIL_clean_sbu_0, # of connection points: 4
#     Edge 16, Type (0, 0), None
#     Edge 17, Type (0, 0), None
#     Edge 18, Type (0, 0), None
#     Edge 19, Type (0, 0), None
#     Edge 20, Type (0, 0), None
#     Edge 21, Type (0, 0), None
#     Edge 22, Type (0, 0), None
#     Edge 23, Type (0, 0), None
#     Edge 24, Type (0, 0), None
#     Edge 25, Type (0, 0), None
#     Edge 26, Type (0, 0), None
#     Edge 27, Type (0, 0), None
#     Edge 28, Type (0, 0), None
#     Edge 29, Type (0, 0), None
#     Edge 30, Type (0, 0), None
#     Edge 31, Type (0, 0), None
#     Edge 32, Type (0, 0), None
#     Edge 33, Type (0, 0), None
#     Edge 34, Type (0, 0), None
#     Edge 35, Type (0, 0), None
#     Edge 36, Type (0, 0), None
#     Edge 37, Type (0, 0), None
#     Edge 38, Type (0, 0), None
#     Edge 39, Type (0, 0), None
#     Edge 40, Type (0, 0), None
#     Edge 41, Type (0, 0), None
#     Edge 42, Type (0, 0), None
#     Edge 43, Type (0, 0), None
#     Edge 44, Type (0, 0), None
#     Edge 45, Type (0, 0), None
#     Edge 46, Type (0, 0), None
#     Edge 47, Type (0, 0), None
# Relax obj value: 0.276
# Max RMSD: 0.165
# Mean RMSD: 0.165
data_MOF--net-ukt--node1-CEKHIL_clean_sbu_0--edge1-none
_symmetry_space_group_name_H-M    P1
_symmetry_Int_Tables_number       1
_symmetry_cell_setting            triclinic
loop_
_symmetry_equiv_pos_as_xyz
'x, y, z'
_cell_length_a     19.17875
_cell_length_b     19.180107
_cell_length_c     13.297287
_cell_angle_alpha  90.004088
_cell_angle_beta   90.001618
_cell_angle_gamma 90.00107
loop_
_atom_site_label
_atom_site_type_symbol
_atom_site_fract_x
_atom_site_fract_y
_atom_site_fract_z
_atom_type_partial_charge
Co0 Co 0.51711 0.13624 0.15156 0.0
O1 O 0.49956 0.03899 0.18805 0.0
O2 O 0.47898 0.08453 1.03821 0.0
C3 C 0.48661 0.20809 0.2894 0.0
O4 O 0.53427 0.22535 0.08027 0.0
Co5 Co 0.64043 0.20116 0.27317 0.0
O6 O 0.62999 0.26774 0.15876 0.0
C7 C 0.67015 0.09777 0.12546 0.0
C8 C 0.48891 0.02862 0.0917 0.0
C9 C 0.58504 0.2679 0.08773 0.0
O10 O 0.60772 0.10499 0.0961 0.0
O11 O 0.69333 0.12414 0.20688 0.0
O12 O 0.43832 0.18461 0.22851 0.0
O13 O 0.54381 0.17437 0.27742 0.0
Co14 Co 0.3505 0.51708 0.15156 0.0
O15 O 0.44776 0.49953 0.18805 0.0
O16 O 0.4022 0.47896 1.03821 0.0
C17 C 0.27864 0.48659 0.28939 0.0
O18 O 0.26138 0.53425 0.08027 0.0
Co19 Co 0.28559 0.6404 0.27319 0.0
O20 O 0.21901 0.62997 0.15877 0.0
C21 C 0.38899 0.67011 0.12548 0.0
C22 C 0.45811 0.48888 0.0917 0.0
C23 C 0.21884 0.58502 0.08774 0.0
O24 O 0.38177 0.60769 0.09612 0.0
O25 O 0.36261 0.69329 0.2069 0.0
O26 O 0.30212 0.4383 0.22849 0.0
O27 O 0.31237 0.54378 0.27742 0.0
Co28 Co 0.96967 0.35047 0.15157 0.0
O29 O 0.98722 0.44773 0.18805 0.0
O30 O 0.00779 0.40217 1.03822 0.0
C31 C 0.00017 0.27862 0.28942 0.0
O32 O 0.95251 0.26135 0.08029 0.0
Co33 Co 0.84635 0.28556 0.27319 0.0
O34 O 0.8568 0.21897 0.15878 0.0
C35 C 0.81663 0.38894 0.12548 0.0
C36 C -0.00214 0.45808 0.0917 0.0
C37 C 0.90174 0.2188 0.08775 0.0
O38 O 0.87906 0.38172 0.09612 0.0
O39 O 0.79345 0.36257 0.2069 0.0
O40 O 0.04846 0.3021 0.22853 0.0
O41 O 0.94298 0.31235 0.27744 0.0
Co42 Co 0.13627 0.96963 0.15157 0.0
O43 O 0.03901 0.98718 0.18806 0.0
O44 O 0.08457 0.00775 1.03823 0.0
C45 C 0.20812 0.00011 0.28942 0.0
O46 O 0.22539 0.95246 0.0803 0.0
Co47 Co 0.20117 0.84631 0.27319 0.0
O48 O 0.26775 0.85674 0.15878 0.0
C49 C 0.09777 0.8166 0.12547 0.0
C50 C 0.02866 -0.00218 0.09171 0.0
C51 C 0.26793 0.90168 0.08776 0.0
O52 O 0.105 0.87902 0.09612 0.0
O53 O 0.12414 0.79342 0.20689 0.0
O54 O 0.18464 0.04841 0.22853 0.0
O55 O 0.17439 0.94292 0.27744 0.0
Co56 Co 0.5171 0.35047 0.48243 0.0
O57 O 0.49956 0.44772 0.44594 0.0
O58 O 0.47899 0.40217 0.59578 0.0
C59 C 0.48663 0.27856 0.3447 0.0
O60 O 0.53427 0.26136 0.55374 0.0
Co61 Co 0.64043 0.28554 0.36084 0.0
O62 O 0.62998 0.21896 0.47525 0.0
C63 C 0.67015 0.38895 0.50852 0.0
C64 C 0.48891 0.45808 0.54229 0.0
C65 C 0.58504 0.2188 0.54628 0.0
O66 O 0.60772 0.38173 0.53787 0.0
O67 O 0.69332 0.36257 0.4271 0.0
O68 O 0.4383 0.30208 0.40551 0.0
O69 O 0.54381 0.31232 0.35658 0.0
Co70 Co 0.13627 0.51708 0.48241 0.0
O71 O 0.039 0.49952 0.44593 0.0
O72 O 0.08457 0.47896 0.59576 0.0
C73 C 0.20816 0.4866 0.34468 0.0
O74 O 0.22538 0.53425 0.5537 0.0
Co75 Co 0.20118 0.6404 0.3608 0.0
O76 O 0.26776 0.62996 0.47522 0.0
C77 C 0.09777 0.67011 0.50848 0.0
C78 C 0.02866 0.48888 0.54228 0.0
C79 C 0.26793 0.58502 0.54625 0.0
O80 O 0.105 0.60769 0.53784 0.0
O81 O 0.12414 0.69328 0.42707 0.0
O82 O 0.18465 0.43828 0.40549 0.0
O83 O 0.1744 0.54378 0.35655 0.0
Co84 Co 0.96967 0.13624 0.48243 0.0
O85 O 0.98722 0.03898 0.44594 0.0
O86 O 0.00778 0.08454 0.59578 0.0
C87 C 0.00016 0.20815 0.34471 0.0
O88 O 0.9525 0.22535 0.55374 0.0
Co89 Co 0.84635 0.20117 0.36082 0.0
O90 O 0.8568 0.26774 0.47524 0.0
C91 C 0.81662 0.09776 0.50849 0.0
C92 C -0.00214 0.02862 0.54229 0.0
C93 C 0.90174 0.26791 0.54628 0.0
O94 O 0.87905 0.10498 0.53785 0.0
O95 O 0.79345 0.12414 0.42708 0.0
O96 O 0.04848 0.18463 0.40553 0.0
O97 O 0.94297 0.17439 0.35657 0.0
Co98 Co 0.3505 0.96962 0.48243 0.0
O99 O 0.44775 0.98718 0.44594 0.0
O100 O 0.4022 0.00774 0.59578 0.0
C101 C 0.27859 0.0001 0.34471 0.0
O102 O 0.26139 0.95245 0.55374 0.0
Co103 Co 0.28558 0.8463 0.36082 0.0
O104 O 0.219 0.85673 0.47524 0.0
C105 C 0.389 0.81659 0.50849 0.0
C106 C 0.45811 -0.00218 0.54229 0.0
C107 C 0.21884 0.90168 0.54628 0.0
O108 O 0.38177 0.87901 0.53785 0.0
O109 O 0.36262 0.79341 0.42707 0.0
O110 O 0.30211 0.04842 0.40554 0.0
O111 O 0.31235 0.94292 0.35657 0.0
Co112 Co 0.4698 0.85054 0.98231 0.0
O113 O 0.48752 0.94777 0.94589 0.0
O114 O 0.50787 0.90217 0.09577 0.0
C115 C 0.50037 0.77863 0.84454 0.0
O116 O 0.45243 0.76144 1.05353 0.0
Co117 Co 0.34652 0.78581 0.86036 0.0
O118 O 0.35678 0.71917 0.97473 0.0
C119 C 0.31678 0.88921 1.00809 0.0
C120 C 0.49806 0.9581 1.04227 0.0
C121 C 0.40165 0.71893 1.04586 0.0
O122 O 0.37917 0.88191 1.03756 0.0
O123 O 0.29359 0.86279 0.9267 0.0
O124 O 0.54862 0.80207 0.90556 0.0
O125 O 0.4432 0.81243 0.85637 0.0
Co126 Co 0.6362 0.46976 0.98231 0.0
O127 O 0.53897 0.48749 0.94589 0.0
O128 O 0.58457 0.50783 0.09577 0.0
C129 C 0.70811 0.50033 0.84456 0.0
O130 O 0.7253 0.45238 1.05353 0.0
Co131 Co 0.70091 0.34649 0.86035 0.0
O132 O 0.76756 0.35673 0.97473 0.0
C133 C 0.59751 0.31674 1.00807 0.0
C134 C 0.52864 0.49802 1.04227 0.0
C135 C 0.76781 0.4016 1.04586 0.0
O136 O 0.60482 0.37913 1.03755 0.0
O137 O 0.62393 0.29356 0.92668 0.0
O138 O 0.68468 0.54857 0.90558 0.0
O139 O 0.6743 0.44316 0.85637 0.0
Co140 Co 0.01696 0.63617 0.9823 0.0
O141 O -0.00076 0.53893 0.94588 0.0
O142 O 0.9789 0.58454 0.09576 0.0
C143 C 0.98639 0.70807 0.84453 0.0
O144 O 0.03433 0.72526 1.05351 0.0
Co145 Co 0.14024 0.70088 0.86034 0.0
O146 O 0.12998 0.76753 0.97472 0.0
C147 C 0.16999 0.5975 1.00807 0.0
C148 C 0.98871 0.52861 1.04227 0.0
C149 C 0.08511 0.76778 1.04584 0.0
O150 O 0.1076 0.6048 1.03754 0.0
O151 O 0.19317 0.62391 0.92668 0.0
O152 O 0.93815 0.68464 0.90554 0.0
O153 O 0.04356 0.67426 0.85635 0.0
Co154 Co 0.85057 0.01694 0.9823 0.0
O155 O 0.94781 -0.00078 0.94588 0.0
O156 O 0.9022 0.97888 0.09575 0.0
C157 C 0.77867 0.98638 0.84452 0.0
O158 O 0.76147 0.03432 1.0535 0.0
Co159 Co 0.78587 0.14022 0.86035 0.0
O160 O 0.71922 0.12997 0.97472 0.0
C161 C 0.88926 0.16996 1.00808 0.0
C162 C 0.95813 0.98868 1.04227 0.0
C163 C 0.71896 0.0851 1.04584 0.0
O164 O 0.88196 0.10757 1.03755 0.0
O165 O 0.86286 0.19314 0.92669 0.0
O166 O 0.8021 0.93814 0.90554 0.0
O167 O 0.81248 0.04354 0.85635 0.0
Co168 Co 0.46981 0.63617 0.65168 0.0
O169 O 0.48752 0.53894 0.6881 0.0
O170 O 0.50787 0.58453 0.53823 0.0
C171 C 0.50036 0.70812 0.78934 0.0
O172 O 0.45243 0.72526 0.58044 0.0
Co173 Co 0.34652 0.70091 0.77361 0.0
O174 O 0.35679 0.76754 0.65924 0.0
C175 C 0.31678 0.59749 0.62592 0.0
C176 C 0.49806 0.52861 0.59172 0.0
C177 C 0.40165 0.76778 0.58811 0.0
O178 O 0.37917 0.60479 0.59644 0.0
O179 O 0.29359 0.62391 0.7073 0.0
O180 O 0.54863 0.68465 0.7284 0.0
O181 O 0.4432 0.67429 0.77761 0.0
Co182 Co 0.85057 0.46977 0.6517 0.0
O183 O 0.94781 0.4875 0.68811 0.0
O184 O 0.9022 0.50783 0.53824 0.0
C185 C 0.77863 0.50032 0.78936 0.0
O186 O 0.76148 0.45238 0.58048 0.0
Co187 Co 0.78586 0.34649 0.77364 0.0
O188 O 0.71921 0.35674 0.65926 0.0
C189 C 0.88927 0.31675 0.62595 0.0
C190 C 0.95813 0.49802 0.59173 0.0
C191 C 0.71896 0.4016 0.58814 0.0
O192 O 0.88196 0.37914 0.59647 0.0
O193 O 0.86286 0.29357 0.70733 0.0
O194 O 0.80209 0.54859 0.72842 0.0
O195 O 0.81247 0.44316 0.77764 0.0
Co196 Co 0.01696 0.85053 0.65168 0.0
O197 O -0.00076 0.94777 0.6881 0.0
O198 O 0.97891 0.90217 0.53822 0.0
C199 C 0.9864 0.77858 0.78933 0.0
O200 O 0.03434 0.76145 0.58044 0.0
Co201 Co 0.14024 0.7858 0.77362 0.0
O202 O 0.12998 0.71917 0.65924 0.0
C203 C 0.16999 0.88921 0.62594 0.0
C204 C 0.98871 0.9581 0.59172 0.0
C205 C 0.08511 0.71892 0.58811 0.0
O206 O 0.1076 0.88191 0.59646 0.0
O207 O 0.19318 0.86279 0.70732 0.0
O208 O 0.93813 0.80205 0.72838 0.0
O209 O 0.04356 0.81241 0.77762 0.0
Co210 Co 0.6362 0.01695 0.65168 0.0
O211 O 0.53897 -0.00079 0.6881 0.0
O212 O 0.58457 0.97888 0.53822 0.0
C213 C 0.70816 0.98639 0.78932 0.0
O214 O 0.72529 0.03433 0.58044 0.0
Co215 Co 0.70093 0.14023 0.77363 0.0
O216 O 0.76757 0.12997 0.65924 0.0
C217 C 0.59751 0.16996 0.62594 0.0
C218 C 0.52864 0.98868 0.59172 0.0
C219 C 0.76781 0.08511 0.58811 0.0
O220 O 0.60481 0.10758 0.59646 0.0
O221 O 0.62393 0.19315 0.70733 0.0
O222 O 0.68469 0.93812 0.72837 0.0
O223 O 0.67432 0.04355 0.77762 0.0
loop_
_geom_bond_atom_site_label_1
_geom_bond_atom_site_label_2
_geom_bond_distance
_geom_bond_site_symmetry_2
_ccdc_geom_bond_type
Co0 O1 2.216 . S
Co0 O2 2.091 1_554 S
Co0 O4 2.004 1_554 S
Co0 O10 2.021 1_554 S
Co0 O12 2.137 . S
Co0 O13 2.244 . S
O1 Co0 2.216 . S
O1 C8 1.247 . S
O2 Co0 2.091 1_556 S
O2 C8 1.261 1_556 S
C3 O12 1.247 . S
C3 O13 1.272 . S
O4 Co0 2.004 1_556 S
O4 C9 1.259 . S
Co5 O6 2.061 . S
Co5 O11 2.052 . S
Co5 O13 2.135 . S
O6 Co5 2.061 . S
O6 C9 1.235 1_554 S
C7 O10 1.238 1_554 S
C7 O11 1.241 . S
C8 O1 1.247 . S
C8 O2 1.261 1_554 S
C9 O4 1.259 . S
C9 O6 1.235 1_556 S
O10 Co0 2.021 1_556 S
O10 C7 1.238 1_556 S
O11 Co5 2.052 . S
O11 C7 1.241 . S
O12 Co0 2.137 . S
O12 C3 1.247 . S
O13 Co0 2.244 . S
O13 C3 1.272 . S
O13 Co5 2.135 . S
Co14 O15 2.216 . S
Co14 O16 2.091 1_554 S
Co14 O18 2.004 1_554 S
Co14 O24 2.021 1_554 S
Co14 O26 2.137 . S
Co14 O27 2.244 . S
O15 Co14 2.216 . S
O15 C22 1.247 . S
O16 Co14 2.091 1_556 S
O16 C22 1.261 1_556 S
C17 O26 1.247 . S
C17 O27 1.272 . S
O18 Co14 2.004 1_556 S
O18 C23 1.259 . S
Co19 O20 2.061 . S
Co19 O25 2.052 . S
Co19 O27 2.135 . S
O20 Co19 2.061 . S
O20 C23 1.235 1_554 S
C21 O24 1.238 1_554 S
C21 O25 1.241 . S
C22 O15 1.247 . S
C22 O16 1.261 1_554 S
C23 O18 1.259 . S
C23 O20 1.235 1_556 S
O24 Co14 2.021 1_556 S
O24 C21 1.238 1_556 S
O25 Co19 2.052 . S
O25 C21 1.241 . S
O26 Co14 2.137 . S
O26 C17 1.247 . S
O27 Co14 2.244 . S
O27 C17 1.272 . S
O27 Co19 2.135 . S
Co28 O29 2.216 1_655 S
Co28 O30 2.091 1_654 S
Co28 O32 2.004 1_554 S
Co28 O38 2.021 1_554 S
Co28 O40 2.137 1_655 S
Co28 O41 2.244 . S
O29 Co28 2.216 1_455 S
O29 C36 1.247 . S
O30 Co28 2.091 1_456 S
O30 C36 1.261 1_556 S
C31 O40 1.247 1_655 S
C31 O41 1.272 . S
O32 Co28 2.004 1_556 S
O32 C37 1.259 . S
Co33 O34 2.061 . S
Co33 O39 2.052 . S
Co33 O41 2.135 . S
O34 Co33 2.061 . S
O34 C37 1.235 1_554 S
C35 O38 1.238 1_554 S
C35 O39 1.241 . S
C36 O29 1.247 . S
C36 O30 1.261 1_554 S
C37 O32 1.259 . S
C37 O34 1.235 1_556 S
O38 Co28 2.021 1_556 S
O38 C35 1.238 1_556 S
O39 Co33 2.052 . S
O39 C35 1.241 . S
O40 Co28 2.137 1_455 S
O40 C31 1.247 1_455 S
O41 Co28 2.244 . S
O41 C31 1.272 . S
O41 Co33 2.135 . S
Co42 O43 2.216 1_565 S
Co42 O44 2.091 1_564 S
Co42 O46 2.004 1_554 S
Co42 O52 2.021 1_554 S
Co42 O54 2.137 1_565 S
Co42 O55 2.244 . S
O43 Co42 2.216 1_545 S
O43 C50 1.247 . S
O44 Co42 2.091 1_546 S
O44 C50 1.261 1_556 S
C45 O54 1.247 1_565 S
C45 O55 1.272 . S
O46 Co42 2.004 1_556 S
O46 C51 1.259 . S
Co47 O48 2.061 . S
Co47 O53 2.052 . S
Co47 O55 2.135 . S
O48 Co47 2.061 . S
O48 C51 1.235 1_554 S
C49 O52 1.238 1_554 S
C49 O53 1.241 . S
C50 O43 1.247 . S
C50 O44 1.261 1_554 S
C51 O46 1.259 . S
C51 O48 1.235 1_556 S
O52 Co42 2.021 1_556 S
O52 C49 1.238 1_556 S
O53 Co47 2.052 . S
O53 C49 1.241 . S
O54 Co42 2.137 1_545 S
O54 C45 1.247 1_545 S
O55 Co42 2.244 . S
O55 C45 1.272 . S
O55 Co47 2.135 . S
Co56 O57 2.216 . S
Co56 O58 2.091 . S
Co56 O60 2.004 . S
Co56 O66 2.021 . S
Co56 O68 2.137 . S
Co56 O69 2.244 . S
O57 Co56 2.216 . S
O57 C64 1.247 . S
O58 Co56 2.091 . S
O58 C64 1.261 . S
C59 O68 1.247 . S
C59 O69 1.272 . S
O60 Co56 2.004 . S
O60 C65 1.259 . S
Co61 O62 2.061 . S
Co61 O67 2.052 . S
Co61 O69 2.135 . S
O62 Co61 2.061 . S
O62 C65 1.235 . S
C63 O66 1.238 . S
C63 O67 1.241 . S
C64 O57 1.247 . S
C64 O58 1.261 . S
C65 O60 1.259 . S
C65 O62 1.235 . S
O66 Co56 2.021 . S
O66 C63 1.238 . S
O67 Co61 2.052 . S
O67 C63 1.241 . S
O68 Co56 2.137 . S
O68 C59 1.247 . S
O69 Co56 2.244 . S
O69 C59 1.272 . S
O69 Co61 2.135 . S
Co70 O71 2.216 . S
Co70 O72 2.091 . S
Co70 O74 2.004 . S
Co70 O80 2.021 . S
Co70 O82 2.137 . S
Co70 O83 2.244 . S
O71 Co70 2.216 . S
O71 C78 1.247 . S
O72 Co70 2.091 . S
O72 C78 1.261 . S
C73 O82 1.247 . S
C73 O83 1.272 . S
O74 Co70 2.004 . S
O74 C79 1.259 . S
Co75 O76 2.061 . S
Co75 O81 2.052 . S
Co75 O83 2.135 . S
O76 Co75 2.061 . S
O76 C79 1.235 . S
C77 O80 1.238 . S
C77 O81 1.241 . S
C78 O71 1.247 . S
C78 O72 1.261 . S
C79 O74 1.259 . S
C79 O76 1.235 . S
O80 Co70 2.021 . S
O80 C77 1.238 . S
O81 Co75 2.052 . S
O81 C77 1.241 . S
O82 Co70 2.137 . S
O82 C73 1.247 . S
O83 Co70 2.244 . S
O83 C73 1.272 . S
O83 Co75 2.135 . S
Co84 O85 2.216 1_655 S
Co84 O86 2.091 1_655 S
Co84 O88 2.004 . S
Co84 O94 2.021 . S
Co84 O96 2.137 1_655 S
Co84 O97 2.244 . S
O85 Co84 2.216 1_455 S
O85 C92 1.247 . S
O86 Co84 2.091 1_455 S
O86 C92 1.261 . S
C87 O96 1.247 1_655 S
C87 O97 1.272 . S
O88 Co84 2.004 . S
O88 C93 1.259 . S
Co89 O90 2.061 . S
Co89 O95 2.052 . S
Co89 O97 2.135 . S
O90 Co89 2.061 . S
O90 C93 1.235 . S
C91 O94 1.238 . S
C91 O95 1.241 . S
C92 O85 1.247 . S
C92 O86 1.261 . S
C93 O88 1.259 . S
C93 O90 1.235 . S
O94 Co84 2.021 . S
O94 C91 1.238 . S
O95 Co89 2.052 . S
O95 C91 1.241 . S
O96 Co84 2.137 1_455 S
O96 C87 1.247 1_455 S
O97 Co84 2.244 . S
O97 C87 1.272 . S
O97 Co89 2.135 . S
Co98 O99 2.216 1_565 S
Co98 O100 2.091 1_565 S
Co98 O102 2.004 . S
Co98 O108 2.021 . S
Co98 O110 2.137 1_565 S
Co98 O111 2.244 . S
O99 Co98 2.216 1_545 S
O99 C106 1.247 . S
O100 Co98 2.091 1_545 S
O100 C106 1.261 . S
C101 O110 1.247 1_565 S
C101 O111 1.272 . S
O102 Co98 2.004 . S
O102 C107 1.259 . S
Co103 O104 2.061 . S
Co103 O109 2.052 . S
Co103 O111 2.135 . S
O104 Co103 2.061 . S
O104 C107 1.235 . S
C105 O108 1.238 . S
C105 O109 1.241 . S
C106 O99 1.247 . S
C106 O100 1.261 . S
C107 O102 1.259 . S
C107 O104 1.235 . S
O108 Co98 2.021 . S
O108 C105 1.238 . S
O109 Co103 2.052 . S
O109 C105 1.241 . S
O110 Co98 2.137 1_545 S
O110 C101 1.247 1_545 S
O111 Co98 2.244 . S
O111 C101 1.272 . S
O111 Co103 2.135 . S
Co112 O113 2.216 . S
Co112 O114 2.091 1_556 S
Co112 O116 2.004 1_556 S
Co112 O122 2.021 1_556 S
Co112 O124 2.137 . S
Co112 O125 2.244 . S
O113 Co112 2.216 . S
O113 C120 1.247 . S
O114 Co112 2.091 1_554 S
O114 C120 1.261 1_554 S
C115 O124 1.247 . S
C115 O125 1.272 . S
O116 Co112 2.004 1_554 S
O116 C121 1.259 . S
Co117 O118 2.061 . S
Co117 O123 2.052 . S
Co117 O125 2.135 . S
O118 Co117 2.061 . S
O118 C121 1.235 1_556 S
C119 O122 1.238 1_556 S
C119 O123 1.241 . S
C120 O113 1.247 . S
C120 O114 1.261 1_556 S
C121 O116 1.259 . S
C121 O118 1.235 1_554 S
O122 Co112 2.021 1_554 S
O122 C119 1.238 1_554 S
O123 Co117 2.052 . S
O123 C119 1.241 . S
O124 Co112 2.137 . S
O124 C115 1.247 . S
O125 Co112 2.244 . S
O125 C115 1.272 . S
O125 Co117 2.135 . S
Co126 O127 2.216 . S
Co126 O128 2.091 1_556 S
Co126 O130 2.004 1_556 S
Co126 O136 2.021 1_556 S
Co126 O138 2.137 . S
Co126 O139 2.244 . S
O127 Co126 2.216 . S
O127 C134 1.247 . S
O128 Co126 2.091 1_554 S
O128 C134 1.261 1_554 S
C129 O138 1.247 . S
C129 O139 1.272 . S
O130 Co126 2.004 1_554 S
O130 C135 1.259 . S
Co131 O132 2.061 . S
Co131 O137 2.052 . S
Co131 O139 2.135 . S
O132 Co131 2.061 . S
O132 C135 1.235 1_556 S
C133 O136 1.238 1_556 S
C133 O137 1.241 . S
C134 O127 1.247 . S
C134 O128 1.261 1_556 S
C135 O130 1.259 . S
C135 O132 1.235 1_554 S
O136 Co126 2.021 1_554 S
O136 C133 1.238 1_554 S
O137 Co131 2.052 . S
O137 C133 1.241 . S
O138 Co126 2.137 . S
O138 C129 1.247 . S
O139 Co126 2.244 . S
O139 C129 1.272 . S
O139 Co131 2.135 . S
Co140 O141 2.216 1_455 S
Co140 O142 2.091 1_456 S
Co140 O144 2.004 1_556 S
Co140 O150 2.021 1_556 S
Co140 O152 2.137 1_455 S
Co140 O153 2.244 . S
O141 Co140 2.216 1_655 S
O141 C148 1.247 . S
O142 Co140 2.091 1_654 S
O142 C148 1.261 1_554 S
C143 O152 1.247 1_455 S
C143 O153 1.272 . S
O144 Co140 2.004 1_554 S
O144 C149 1.259 . S
Co145 O146 2.061 . S
Co145 O151 2.052 . S
Co145 O153 2.135 . S
O146 Co145 2.061 . S
O146 C149 1.235 1_556 S
C147 O150 1.238 1_556 S
C147 O151 1.241 . S
C148 O141 1.247 . S
C148 O142 1.261 1_556 S
C149 O144 1.259 . S
C149 O146 1.235 1_554 S
O150 Co140 2.021 1_554 S
O150 C147 1.238 1_554 S
O151 Co145 2.052 . S
O151 C147 1.241 . S
O152 Co140 2.137 1_655 S
O152 C143 1.247 1_655 S
O153 Co140 2.244 . S
O153 C143 1.272 . S
O153 Co145 2.135 . S
Co154 O155 2.216 1_545 S
Co154 O156 2.091 1_546 S
Co154 O158 2.004 1_556 S
Co154 O164 2.021 1_556 S
Co154 O166 2.137 1_545 S
Co154 O167 2.244 . S
O155 Co154 2.216 1_565 S
O155 C162 1.247 . S
O156 Co154 2.091 1_564 S
O156 C162 1.261 1_554 S
C157 O166 1.247 1_545 S
C157 O167 1.272 . S
O158 Co154 2.004 1_554 S
O158 C163 1.259 . S
Co159 O160 2.061 . S
Co159 O165 2.052 . S
Co159 O167 2.135 . S
O160 Co159 2.061 . S
O160 C163 1.235 1_556 S
C161 O164 1.238 1_556 S
C161 O165 1.241 . S
C162 O155 1.247 . S
C162 O156 1.261 1_556 S
C163 O158 1.259 . S
C163 O160 1.235 1_554 S
O164 Co154 2.021 1_554 S
O164 C161 1.238 1_554 S
O165 Co159 2.052 . S
O165 C161 1.241 . S
O166 Co154 2.137 1_565 S
O166 C157 1.247 1_565 S
O167 Co154 2.244 . S
O167 C157 1.272 . S
O167 Co159 2.135 . S
Co168 O169 2.216 . S
Co168 O170 2.091 . S
Co168 O172 2.004 . S
Co168 O178 2.021 . S
Co168 O180 2.137 . S
Co168 O181 2.244 . S
O169 Co168 2.216 . S
O169 C176 1.247 . S
O170 Co168 2.091 . S
O170 C176 1.261 . S
C171 O180 1.247 . S
C171 O181 1.272 . S
O172 Co168 2.004 . S
O172 C177 1.259 . S
Co173 O174 2.061 . S
Co173 O179 2.052 . S
Co173 O181 2.135 . S
O174 Co173 2.061 . S
O174 C177 1.235 . S
C175 O178 1.238 . S
C175 O179 1.241 . S
C176 O169 1.247 . S
C176 O170 1.261 . S
C177 O172 1.259 . S
C177 O174 1.235 . S
O178 Co168 2.021 . S
O178 C175 1.238 . S
O179 Co173 2.052 . S
O179 C175 1.241 . S
O180 Co168 2.137 . S
O180 C171 1.247 . S
O181 Co168 2.244 . S
O181 C171 1.272 . S
O181 Co173 2.135 . S
Co182 O183 2.216 . S
Co182 O184 2.091 . S
Co182 O186 2.004 . S
Co182 O192 2.021 . S
Co182 O194 2.137 . S
Co182 O195 2.244 . S
O183 Co182 2.216 . S
O183 C190 1.247 . S
O184 Co182 2.091 . S
O184 C190 1.261 . S
C185 O194 1.247 . S
C185 O195 1.272 . S
O186 Co182 2.004 . S
O186 C191 1.259 . S
Co187 O188 2.061 . S
Co187 O193 2.052 . S
Co187 O195 2.135 . S
O188 Co187 2.061 . S
O188 C191 1.235 . S
C189 O192 1.238 . S
C189 O193 1.241 . S
C190 O183 1.247 . S
C190 O184 1.261 . S
C191 O186 1.259 . S
C191 O188 1.235 . S
O192 Co182 2.021 . S
O192 C189 1.238 . S
O193 Co187 2.052 . S
O193 C189 1.241 . S
O194 Co182 2.137 . S
O194 C185 1.247 . S
O195 Co182 2.244 . S
O195 C185 1.272 . S
O195 Co187 2.135 . S
Co196 O197 2.216 1_455 S
Co196 O198 2.091 1_455 S
Co196 O200 2.004 . S
Co196 O206 2.021 . S
Co196 O208 2.137 1_455 S
Co196 O209 2.244 . S
O197 Co196 2.216 1_655 S
O197 C204 1.247 . S
O198 Co196 2.091 1_655 S
O198 C204 1.261 . S
C199 O208 1.247 1_455 S
C199 O209 1.272 . S
O200 Co196 2.004 . S
O200 C205 1.259 . S
Co201 O202 2.061 . S
Co201 O207 2.052 . S
Co201 O209 2.135 . S
O202 Co201 2.061 . S
O202 C205 1.235 . S
C203 O206 1.238 . S
C203 O207 1.241 . S
C204 O197 1.247 . S
C204 O198 1.261 . S
C205 O200 1.259 . S
C205 O202 1.235 . S
O206 Co196 2.021 . S
O206 C203 1.238 . S
O207 Co201 2.052 . S
O207 C203 1.241 . S
O208 Co196 2.137 1_655 S
O208 C199 1.247 1_655 S
O209 Co196 2.244 . S
O209 C199 1.272 . S
O209 Co201 2.135 . S
Co210 O211 2.216 1_545 S
Co210 O212 2.091 1_545 S
Co210 O214 2.004 . S
Co210 O220 2.021 . S
Co210 O222 2.137 1_545 S
Co210 O223 2.244 . S
O211 Co210 2.216 1_565 S
O211 C218 1.247 . S
O212 Co210 2.091 1_565 S
O212 C218 1.261 . S
C213 O222 1.247 1_545 S
C213 O223 1.272 . S
O214 Co210 2.004 . S
O214 C219 1.259 . S
Co215 O216 2.061 . S
Co215 O221 2.052 . S
Co215 O223 2.135 . S
O216 Co215 2.061 . S
O216 C219 1.235 . S
C217 O220 1.238 . S
C217 O221 1.241 . S
C218 O211 1.247 . S
C218 O212 1.261 . S
C219 O214 1.259 . S
C219 O216 1.235 . S
O220 Co210 2.021 . S
O220 C217 1.238 . S
O221 Co215 2.052 . S
O221 C217 1.241 . S
O222 Co210 2.137 1_565 S
O222 C213 1.247 1_565 S
O223 Co210 2.244 . S
O223 C213 1.272 . S
O223 Co215 2.135 . S
C9 C133 1.192 . S
C147 C23 1.193 . S
C161 C37 1.192 . S
C119 C51 1.192 . S
C65 C217 1.192 . S
C175 C79 1.192 . S
C189 C93 1.192 . S
C203 C107 1.192 . S
C121 C21 1.192 . S
C135 C35 1.193 . S
C149 C49 1.192 . S
C7 C163 1.192 . S
C177 C105 1.192 . S
C191 C63 1.192 . S
C77 C205 1.192 . S
C219 C91 1.192 . S
C120 C8 2.914 1_566 S
C22 C134 2.914 1_554 S
C148 C36 2.914 1_656 S
C50 C162 2.914 1_444 S
C176 C64 2.914 . S
C78 C190 2.914 1_455 S
C204 C92 2.914 1_665 S
C218 C106 2.914 1_565 S
C59 C3 1.935 . S
C73 C17 1.935 . S
C31 C87 1.935 . S
C101 C45 1.935 . S
C115 C171 1.935 . S
C185 C129 1.935 . S
C199 C143 1.935 . S
C213 C157 1.935 . S
