# Generated by pormake.
# Topology snk, (6)-cn, num edge types: 1
# Building blocks:
#     Node 0, Type 0, BuildingBlock: CUWYAW_clean_sbu_0, # of connection points: 6
#     Node 1, Type 0, BuildingBlock: CUWYAW_clean_sbu_0, # of connection points: 6
#     Node 2, Type 0, BuildingBlock: CUWYAW_clean_sbu_0, # of connection points: 6
#     Node 3, Type 0, BuildingBlock: CUWYAW_clean_sbu_0, # of connection points: 6
#     Node 4, Type 0, BuildingBlock: CUWYAW_clean_sbu_0, # of connection points: 6
#     Node 5, Type 0, BuildingBlock: CUWYAW_clean_sbu_0, # of connection points: 6
#     Node 6, Type 0, BuildingBlock: CUWYAW_clean_sbu_0, # of connection points: 6
#     Node 7, Type 0, BuildingBlock: CUWYAW_clean_sbu_0, # of connection points: 6
#     Edge 8, Type (0, 0), BuildingBlock: EZIPEK_clean_linker_0, # of connection points: 2
#     Edge 9, Type (0, 0), BuildingBlock: EZIPEK_clean_linker_0, # of connection points: 2
#     Edge 10, Type (0, 0), BuildingBlock: EZIPEK_clean_linker_0, # of connection points: 2
#     Edge 11, Type (0, 0), BuildingBlock: EZIPEK_clean_linker_0, # of connection points: 2
#     Edge 12, Type (0, 0), BuildingBlock: EZIPEK_clean_linker_0, # of connection points: 2
#     Edge 13, Type (0, 0), BuildingBlock: EZIPEK_clean_linker_0, # of connection points: 2
#     Edge 14, Type (0, 0), BuildingBlock: EZIPEK_clean_linker_0, # of connection points: 2
#     Edge 15, Type (0, 0), BuildingBlock: EZIPEK_clean_linker_0, # of connection points: 2
#     Edge 16, Type (0, 0), BuildingBlock: EZIPEK_clean_linker_0, # of connection points: 2
#     Edge 17, Type (0, 0), BuildingBlock: EZIPEK_clean_linker_0, # of connection points: 2
#     Edge 18, Type (0, 0), BuildingBlock: EZIPEK_clean_linker_0, # of connection points: 2
#     Edge 19, Type (0, 0), BuildingBlock: EZIPEK_clean_linker_0, # of connection points: 2
#     Edge 20, Type (0, 0), BuildingBlock: EZIPEK_clean_linker_0, # of connection points: 2
#     Edge 21, Type (0, 0), BuildingBlock: EZIPEK_clean_linker_0, # of connection points: 2
#     Edge 22, Type (0, 0), BuildingBlock: EZIPEK_clean_linker_0, # of connection points: 2
#     Edge 23, Type (0, 0), BuildingBlock: EZIPEK_clean_linker_0, # of connection points: 2
#     Edge 24, Type (0, 0), BuildingBlock: EZIPEK_clean_linker_0, # of connection points: 2
#     Edge 25, Type (0, 0), BuildingBlock: EZIPEK_clean_linker_0, # of connection points: 2
#     Edge 26, Type (0, 0), BuildingBlock: EZIPEK_clean_linker_0, # of connection points: 2
#     Edge 27, Type (0, 0), BuildingBlock: EZIPEK_clean_linker_0, # of connection points: 2
#     Edge 28, Type (0, 0), BuildingBlock: EZIPEK_clean_linker_0, # of connection points: 2
#     Edge 29, Type (0, 0), BuildingBlock: EZIPEK_clean_linker_0, # of connection points: 2
#     Edge 30, Type (0, 0), BuildingBlock: EZIPEK_clean_linker_0, # of connection points: 2
#     Edge 31, Type (0, 0), BuildingBlock: EZIPEK_clean_linker_0, # of connection points: 2
# Relax obj value: 0.112
# Max RMSD: 0.195
# Mean RMSD: 0.156
data_MOF--net-snk--node1-CUWYAW_clean_sbu_0--edge1-EZIPEK_clean_linker_0
_symmetry_space_group_name_H-M    P1
_symmetry_Int_Tables_number       1
_symmetry_cell_setting            triclinic
loop_
_symmetry_equiv_pos_as_xyz
'x, y, z'
_cell_length_a     26.744623
_cell_length_b     26.560904
_cell_length_c     21.015158
_cell_angle_alpha  96.331606
_cell_angle_beta   96.355465
_cell_angle_gamma 90.676717
loop_
_atom_site_label
_atom_site_type_symbol
_atom_site_fract_x
_atom_site_fract_y
_atom_site_fract_z
_atom_type_partial_charge
C0 C 0.04395 0.0794 0.72403 0.0
Eu1 Eu 0.01574 0.05007 0.6023 0.0
C2 C 0.02826 0.07322 0.78794 0.0
C3 C 0.97798 0.0622 0.79616 0.0
C4 C 0.96505 0.05301 0.85685 0.0
C5 C 0.0023 0.05425 0.90979 0.0
C6 C 0.05236 0.06567 0.90151 0.0
C7 C 0.06519 0.07515 0.84112 0.0
C8 C 0.94588 0.08972 0.52002 0.0
C9 C 0.93422 0.95484 0.59353 0.0
C10 C 0.95222 0.95988 0.35152 0.0
Eu11 Eu 0.98542 0.98595 0.47232 0.0
C12 C 0.95679 0.97804 0.28836 0.0
C13 C 0.99942 0.00603 0.27761 0.0
C14 C 0.0043 0.0203 0.21628 0.0
C15 C 0.96659 0.00696 0.16489 0.0
C16 C 0.92334 0.98031 0.17616 0.0
C17 C 0.91853 0.96593 0.2374 0.0
C18 C 0.05575 0.94302 0.54987 0.0
C19 C 0.07534 0.07313 0.48638 0.0
O20 O 0.05952 0.0384 0.6928 0.0
O21 O 0.0159 0.10659 0.68643 0.0
O22 O 0.97979 0.11735 0.55799 0.0
O23 O 0.94861 0.04414 0.5307 0.0
O24 O 0.95917 0.99377 0.62763 0.0
O25 O 0.93646 0.94463 0.53088 0.0
O26 O 0.92702 0.98824 0.39126 0.0
O27 O 0.99282 0.94161 0.38051 0.0
O28 O 0.01997 0.91811 0.51176 0.0
O29 O 0.0536 0.98989 0.5437 0.0
O30 O 0.03987 0.04565 0.44856 0.0
O31 O 0.07823 0.07621 0.54978 0.0
H32 H 0.94899 0.05986 0.75557 0.0
H33 H 0.92627 0.04397 0.86232 0.0
H34 H 0.08159 0.06663 0.94171 0.0
H35 H 0.10423 0.08312 0.83564 0.0
H36 H 0.02931 0.01606 0.31624 0.0
H37 H 0.03789 0.04092 0.20858 0.0
H38 H 0.89382 0.96979 0.13718 0.0
H39 H 0.88528 0.94456 0.24473 0.0
C40 C 0.17455 0.79387 0.94855 0.0
Eu41 Eu 0.21014 0.76345 0.84056 0.0
C42 C 0.18874 0.78711 1.01725 0.0
C43 C 0.15107 0.78192 0.05778 0.0
C44 C 0.16376 0.7742 0.12248 0.0
C45 C 0.21442 0.77161 0.14785 0.0
C46 C 0.25219 0.77688 0.10738 0.0
C47 C 0.23947 0.78445 0.04262 0.0
C48 C 0.17703 0.68927 0.74563 0.0
C49 C 0.30204 0.68615 0.84771 0.0
C50 C 0.30949 0.7216 0.61722 0.0
Eu51 Eu 0.27305 0.75094 0.72492 0.0
C52 C 0.29469 0.7266 0.54795 0.0
C53 C 0.32897 0.74826 0.51208 0.0
C54 C 0.31543 0.75488 0.44723 0.0
C55 C 0.26742 0.73965 0.41683 0.0
C56 C 0.23312 0.71758 0.45224 0.0
C57 C 0.24652 0.71125 0.5173 0.0
C58 C 0.30678 0.82417 0.82125 0.0
C59 C 0.18231 0.82883 0.71818 0.0
O60 O 0.20535 0.82143 0.92144 0.0
O61 O 0.15755 0.75329 0.91092 0.0
O62 O 0.17255 0.68684 0.80616 0.0
O63 O 0.1947 0.73206 0.73832 0.0
O64 O 0.26829 0.71125 0.87901 0.0
O65 O 0.30843 0.69248 0.78724 0.0
O66 O 0.28106 0.69245 0.64555 0.0
O67 O 0.32428 0.76341 0.65381 0.0
O68 O 0.3109 0.8273 0.76078 0.0
O69 O 0.28855 0.78142 0.82721 0.0
O70 O 0.21376 0.80118 0.68597 0.0
O71 O 0.17625 0.82361 0.77906 0.0
H72 H 0.11174 0.7836 0.03927 0.0
H73 H 0.13408 0.77016 0.15281 0.0
H74 H 0.29148 0.77493 0.1259 0.0
H75 H 0.26926 0.78807 1.01235 0.0
H76 H 0.36623 0.76047 0.53445 0.0
H77 H 0.34239 0.77199 0.42072 0.0
H78 H 0.19586 0.70569 0.42964 0.0
H79 H 0.21906 0.6947 0.54358 0.0
C80 C 0.43543 0.03886 0.85187 0.0
Eu81 Eu 0.47808 0.02937 0.96703 0.0
C82 C 0.45029 0.03513 0.78612 0.0
C83 C 0.49647 0.05561 0.77363 0.0
C84 C 0.51006 0.05076 0.7109 0.0
C85 C 0.47791 0.02501 0.66013 0.0
C86 C 0.43197 0.00433 0.67256 0.0
C87 C 0.41821 0.00947 0.73516 0.0
C88 C 0.55425 0.08396 0.0394 0.0
C89 C 0.56933 0.94754 0.95692 0.0
C90 C 0.57014 0.97643 0.20605 0.0
Eu91 Eu 0.52508 0.98385 0.09129 0.0
C92 C 0.55665 0.9851 0.27217 0.0
C93 C 0.50599 0.98577 0.28406 0.0
C94 C 0.49361 0.9931 0.34727 0.0
C95 C 0.53173 1.00023 0.39923 0.0
C96 C 0.58233 1.0004 0.38724 0.0
C97 C 0.5947 0.99279 0.32402 0.0
C98 C 0.44954 0.92784 1.02108 0.0
C99 C 0.43015 0.06238 0.09704 0.0
O100 O 0.43486 0.99628 0.87798 0.0
O101 O 0.45408 0.07735 0.89242 0.0
O102 O 0.51757 0.10459 1.00624 0.0
O103 O 0.55116 0.03646 1.02783 0.0
O104 O 0.53523 0.97555 0.92777 0.0
O105 O 0.57563 0.94711 1.02043 0.0
O106 O 0.57368 0.01687 0.17622 0.0
O107 O 0.54679 0.93838 0.1693 0.0
O108 O 0.48337 0.9089 0.06024 0.0
O109 O 0.45309 0.9755 0.02962 0.0
O110 O 0.46956 0.04216 0.12823 0.0
O111 O 0.42063 0.05528 0.03359 0.0
H112 H 0.5221 0.0751 0.81228 0.0
H113 H 0.54574 0.06672 0.70195 0.0
H114 H 0.40687 0.98423 0.6338 0.0
H115 H 0.38263 0.99313 0.74391 0.0
H116 H 0.47611 0.98029 0.24451 0.0
H117 H 0.45438 0.99304 0.35575 0.0
H118 H 0.61214 0.00602 0.42685 0.0
H119 H 0.63395 0.99266 0.31559 0.0
C120 C 0.20471 0.19486 0.09354 0.0
Eu121 Eu 0.2223 0.23385 0.21362 0.0
C122 C 0.21523 0.20856 0.02923 0.0
C123 C 0.1848 0.24266 0.99652 0.0
C124 C 0.19445 0.25444 0.9355 0.0
C125 C 0.23452 0.23223 0.90564 0.0
C126 C 0.26498 0.19822 0.93803 0.0
C127 C 0.25539 0.18643 0.99904 0.0
C128 C 0.17658 0.30328 0.28857 0.0
C129 C 0.30635 0.32596 0.21596 0.0
C130 C 0.30799 0.31384 0.46378 0.0
Eu131 Eu 0.28745 0.2753 0.34385 0.0
C132 C 0.29595 0.30115 0.52749 0.0
C133 C 0.29513 0.25074 0.5422 0.0
C134 C 0.28462 0.23968 0.60317 0.0
C135 C 0.27417 0.27869 0.65037 0.0
C136 C 0.27407 0.32895 0.63523 0.0
C137 C 0.28501 0.34005 0.57445 0.0
C138 C 0.33098 0.20351 0.26972 0.0
C139 C 0.20179 0.18462 0.34137 0.0
O140 O 0.2434 0.18301 0.13261 0.0
O141 O 0.17201 0.22185 0.12382 0.0
O142 O 0.15227 0.2703 0.24512 0.0
O143 O 0.22338 0.30264 0.28259 0.0
O144 O 0.26825 0.29786 0.18533 0.0
O145 O 0.32025 0.3262 0.27867 0.0
O146 O 0.2705 0.3286 0.42518 0.0
O147 O 0.33794 0.2834 0.43338 0.0
O148 O 0.35659 0.23783 0.30988 0.0
O149 O 0.28459 0.20538 0.27679 0.0
O150 O 0.23857 0.21407 0.37304 0.0
O151 O 0.18977 0.18236 0.27807 0.0
H152 H 0.15336 0.26021 1.01789 0.0
H153 H 0.17048 0.28076 0.91137 0.0
H154 H 0.2961 0.18065 0.91591 0.0
H155 H 0.27942 0.15982 1.02256 0.0
H156 H 0.30285 0.2199 0.50671 0.0
H157 H 0.28471 0.20065 0.61365 0.0
H158 H 0.26595 0.35962 0.67073 0.0
H159 H 0.28511 0.37914 0.56417 0.0
C160 C 0.70487 0.30036 0.43038 0.0
Eu161 Eu 0.73743 0.26267 0.32343 0.0
C162 C 0.71376 0.28962 0.49825 0.0
C163 C 0.67288 0.28522 0.53399 0.0
C164 C 0.68083 0.27504 0.59829 0.0
C165 C 0.72987 0.26953 0.62793 0.0
C166 C 0.77076 0.27365 0.59217 0.0
C167 C 0.76282 0.28337 0.52782 0.0
C168 C 0.70258 0.18296 0.23617 0.0
C169 C 0.8181 0.17516 0.3265 0.0
C170 C 0.82921 0.21775 0.09257 0.0
Eu171 Eu 0.79891 0.23918 0.20561 0.0
C172 C 0.81106 0.22269 1.02463 0.0
C173 C 0.84405 0.2425 0.98565 0.0
C174 C 0.82784 0.24881 0.92155 0.0
C175 C 0.77844 0.23511 0.89524 0.0
C176 C 0.74531 0.21501 0.93388 0.0
C177 C 0.76142 0.20906 0.99833 0.0
C178 C 0.84676 0.29784 0.30871 0.0
C179 C 0.70773 0.32057 0.19762 0.0
O180 O 0.7431 0.31968 0.40656 0.0
O181 O 0.67969 0.26569 0.38976 0.0
O182 O 0.69971 0.18485 0.29779 0.0
O183 O 0.72124 0.22403 0.22438 0.0
O184 O 0.79852 0.21296 0.36101 0.0
O185 O 0.81524 0.17235 0.26286 0.0
O186 O 0.80561 0.18483 0.12163 0.0
O187 O 0.84111 0.26025 0.12932 0.0
O188 O 0.87012 0.2675 0.26996 0.0
O189 O 0.80109 0.29856 0.28726 0.0
O190 O 0.74402 0.29663 0.16945 0.0
O191 O 0.69762 0.31417 0.25654 0.0
H192 H 0.63479 0.28967 0.51214 0.0
H193 H 0.64883 0.27179 0.62512 0.0
H194 H 0.80883 0.26933 0.61416 0.0
H195 H 0.79511 0.28608 0.50134 0.0
H196 H 0.88238 0.25338 1.00499 0.0
H197 H 0.85383 0.26438 0.89237 0.0
H198 H 0.70701 0.20436 0.91427 0.0
H199 H 0.73508 0.19406 1.02752 0.0
C200 C 0.68206 0.71077 0.59179 0.0
Eu201 Eu 0.71698 0.74471 0.7099 0.0
C202 C 0.68276 0.72711 0.52676 0.0
C203 C 0.68381 0.77861 0.51685 0.0
C204 C 0.69049 0.79293 0.45588 0.0
C205 C 0.69717 0.75602 0.40424 0.0
C206 C 0.69504 0.70462 0.41408 0.0
C207 C 0.6878 0.69035 0.47465 0.0
C208 C 0.6915 0.82582 0.78954 0.0
C209 C 0.81337 0.8235 0.72644 0.0
C210 C 0.80868 0.80091 0.96907 0.0
Eu211 Eu 0.78356 0.76719 0.84833 0.0
C212 C 0.78852 0.79891 0.03202 0.0
C213 C 0.81302 0.76938 0.07703 0.0
C214 C 0.79509 0.7661 0.13649 0.0
C215 C 0.75248 0.79269 0.15288 0.0
C216 C 0.7281 0.8229 0.10851 0.0
C217 C 0.74582 0.82585 0.04845 0.0
C218 C 0.82287 0.68904 0.77495 0.0
C219 C 0.68933 0.68542 0.82971 0.0
O220 O 0.72607 0.69958 0.61949 0.0
O221 O 0.65472 0.73607 0.63205 0.0
O222 O 0.68483 0.82325 0.72695 0.0
O223 O 0.70733 0.78412 0.80558 0.0
O224 O 0.77611 0.79874 0.68898 0.0
O225 O 0.82205 0.8194 0.78912 0.0
O226 O 0.78564 0.82858 0.92723 0.0
O227 O 0.82372 0.75784 0.94183 0.0
O228 O 0.84339 0.70921 0.83095 0.0
O229 O 0.78452 0.71456 0.76021 0.0
O230 O 0.72502 0.71166 0.8686 0.0
O231 O 0.67974 0.68994 0.76716 0.0
H232 H 0.68081 0.80772 0.55651 0.0
H233 H 0.69205 0.8328 0.44944 0.0
H234 H 0.70014 0.67551 0.37513 0.0
H235 H 0.68771 0.65047 0.48133 0.0
H236 H 0.8462 0.74857 0.06614 0.0
H237 H 0.81465 0.74282 0.17 0.0
H238 H 0.69532 0.84399 0.12033 0.0
H239 H 0.72613 0.84912 1.01507 0.0
C240 C 0.5284 0.57039 0.20687 0.0
Eu241 Eu 0.5137 0.53412 0.08509 0.0
C242 C 0.52056 0.55359 0.27045 0.0
C243 C 0.47768 0.56848 0.30042 0.0
C244 C 0.47082 0.55446 0.36127 0.0
C245 C 0.50682 0.52551 0.39367 0.0
C246 C 0.54956 0.51035 0.36397 0.0
C247 C 0.55646 0.52431 0.30304 0.0
C248 C 0.44831 0.57432 0.99718 0.0
C249 C 0.43333 0.44091 0.0741 0.0
C250 C 0.47775 0.42625 0.84082 0.0
Eu251 Eu 0.4925 0.46725 0.96077 0.0
C252 C 0.48044 0.44315 0.77612 0.0
C253 C 0.52566 0.46265 0.75891 0.0
C254 C 0.52831 0.47633 0.69689 0.0
C255 C 0.48577 0.47131 0.65086 0.0
C256 C 0.44032 0.45273 0.66819 0.0
C257 C 0.43779 0.43848 0.73011 0.0
C258 C 0.56185 0.43029 0.04774 0.0
C259 C 0.56978 0.56509 0.97149 0.0
O260 O 0.48816 0.57865 0.16854 0.0
O261 O 0.56321 0.5483 0.17552 0.0
O262 O 0.48131 0.60017 0.03793 0.0
O263 O 0.44849 0.5282 1.00704 0.0
O264 O 0.46956 0.46755 0.11082 0.0
O265 O 0.42924 0.43941 1.01085 0.0
O266 O 0.44121 0.44331 0.87304 0.0
O267 O 0.52014 0.42471 0.87782 0.0
O268 O 0.52524 0.40372 1.01395 0.0
O269 O 0.55902 0.47559 0.03557 0.0
O270 O 0.53698 0.53398 0.93466 0.0
O271 O 0.57374 0.56799 0.03495 0.0
H272 H 0.44952 0.59139 0.27704 0.0
H273 H 0.43762 0.56658 0.3834 0.0
H274 H 0.57782 0.48807 0.38826 0.0
H275 H 0.5901 0.51245 0.28177 0.0
H276 H 0.55925 0.46698 0.7931 0.0
H277 H 0.56367 0.49073 0.68466 0.0
H278 H 0.40701 0.44869 0.6335 0.0
H279 H 0.40253 0.42351 0.74196 0.0
C280 C 0.93331 0.51846 0.35402 0.0
Eu281 Eu 0.97555 0.51468 0.47129 0.0
C282 C 0.95067 0.5088 0.28941 0.0
C283 C 0.99498 0.53153 0.27508 0.0
C284 C 0.01261 0.51936 0.2152 0.0
C285 C 0.98853 0.48141 0.16875 0.0
C286 C 0.94078 0.46364 0.18146 0.0
C287 C 0.92293 0.476 0.2413 0.0
C288 C 0.04864 0.57533 0.5385 0.0
C289 C 0.07028 0.43615 0.46496 0.0
C290 C 0.07041 0.46808 0.71154 0.0
Eu291 Eu 0.02547 0.47409 0.59615 0.0
C292 C 0.05849 0.46854 0.77846 0.0
C293 C 0.0883 0.44066 0.82046 0.0
C294 C 0.07803 0.43997 0.88412 0.0
C295 C 0.03789 0.4674 0.90698 0.0
C296 C 0.00784 0.49533 0.86505 0.0
C297 C 0.01792 0.49569 0.801 0.0
C298 C 0.94873 0.41503 0.53158 0.0
C299 C 0.93101 0.5531 0.60441 0.0
O300 O 0.93005 0.47881 0.38523 0.0
O301 O 0.95267 0.55823 0.39135 0.0
O302 O 0.01326 0.59162 0.49921 0.0
O303 O 0.04855 0.52745 0.53147 0.0
O304 O 0.03159 0.45765 0.43454 0.0
O305 O 0.08005 0.44196 0.52844 0.0
O306 O 0.06579 0.51065 0.68542 0.0
O307 O 0.05419 0.42845 0.67165 0.0
O308 O 0.98832 0.39776 0.56291 0.0
O309 O 0.951 0.46291 0.53825 0.0
O310 O 0.96458 0.52423 0.63312 0.0
O311 O 0.92524 0.55364 0.54092 0.0
H312 H 0.01621 0.55896 0.31008 0.0
H313 H 0.04482 0.54112 0.20618 0.0
H314 H 0.91589 0.44078 0.14546 0.0
H315 H 0.88723 0.45984 0.24995 0.0
H316 H 0.11961 0.41932 0.80395 0.0
H317 H 0.10154 0.41815 0.91576 0.0
H318 H 0.97662 0.5166 0.88184 0.0
H319 H 0.99409 0.51698 0.76918 0.0
C320 C 0.1195 0.15428 0.4702 0.0
C321 C 0.11253 0.10106 0.45526 0.0
C322 C 0.1642 0.1021 0.36558 0.0
C323 C 0.17163 0.15532 0.38071 0.0
N324 N 0.16317 0.23107 0.45494 0.0
N325 N 0.13827 0.02272 0.40067 0.0
C326 C 0.15184 0.18091 0.43563 0.0
C327 C 0.13759 0.07453 0.4061 0.0
N328 N 0.09257 0.18036 0.5143 0.0
N329 N 0.18314 0.0776 0.3131 0.0
H330 H 0.12128 1.00139 0.43155 0.0
H331 H 0.15975 1.0009 0.37021 0.0
H332 H 0.20758 0.09481 0.28631 0.0
H333 H 0.17297 0.04054 0.29424 0.0
H334 H 0.08998 0.21965 0.51973 0.0
H335 H 0.06927 0.16326 0.5425 0.0
H336 H 0.15826 0.24852 0.50063 0.0
H337 H 0.17882 0.25557 0.42685 0.0
C338 C 0.12747 0.94214 0.64138 0.0
C339 C 0.09627 0.91694 0.58797 0.0
C340 C 0.12052 0.83503 0.62235 0.0
C341 C 0.14781 0.85978 0.67918 0.0
N342 N 0.17372 0.93703 0.74649 0.0
N343 N 0.08854 0.84164 0.51204 0.0
C344 C 0.15016 0.91345 0.68994 0.0
C345 C 0.09983 0.86388 0.57389 0.0
N346 N 0.14077 0.99186 0.64159 0.0
N347 N 0.11316 0.78367 0.61525 0.0
H348 H 0.08071 0.86279 0.47328 0.0
H349 H 0.09471 0.8036 0.4978 0.0
H350 H 0.12737 0.76114 0.65007 0.0
H351 H 0.08881 0.76431 0.57818 0.0
H352 H 0.16669 0.01147 0.67647 0.0
H353 H 0.13161 0.0115 0.60198 0.0
H354 H 0.17191 0.9758 0.76022 0.0
H355 H 0.19135 0.9171 0.78228 0.0
C356 C 0.39155 0.82997 0.8849 0.0
C357 C 0.34304 0.85026 0.87271 0.0
C358 C 0.362 0.91604 0.96366 0.0
C359 C 0.41194 0.89821 0.9734 0.0
N360 N 0.4708 0.83097 0.9522 0.0
N361 N 0.28291 0.9146 0.89462 0.0
C362 C 0.42564 0.8529 0.937 0.0
C363 C 0.32849 0.89382 0.91051 0.0
N364 N 0.40625 0.79056 0.84393 0.0
N365 N 0.34523 0.95123 1.00849 0.0
H366 H 0.25681 0.89802 0.85752 0.0
H367 H 0.27235 0.94989 0.9148 0.0
H368 H 0.36695 0.96484 0.05127 0.0
H369 H 0.30807 0.96254 1.00759 0.0
H370 H 0.44312 0.77844 0.84418 0.0
H371 H 0.38244 0.77187 0.80581 0.0
H372 H 0.47847 0.79364 0.93629 0.0
H373 H 0.50098 0.84893 0.98161 0.0
C374 C 0.39752 0.14885 0.12784 0.0
C375 C 0.39769 0.09639 0.13507 0.0
C376 C 0.34732 0.11309 0.22614 0.0
C377 C 0.35405 0.16612 0.22414 0.0
N378 N 0.39973 0.23287 0.18361 0.0
N379 N 0.37507 0.02816 0.19387 0.0
C380 C 0.38327 0.18356 0.17825 0.0
C381 C 0.37308 0.07833 0.18501 0.0
N382 N 0.41091 0.16626 0.07314 0.0
N383 N 0.31752 0.09586 0.26831 0.0
H384 H 0.39072 1.00125 0.16241 0.0
H385 H 0.36359 0.01356 0.23404 0.0
H386 H 0.30206 0.11966 0.30341 0.0
H387 H 0.3062 0.05805 0.26667 0.0
H388 H 0.40639 0.2038 0.06393 0.0
H389 H 0.42235 0.14306 0.03455 0.0
H390 H 0.42661 0.24516 0.15601 0.0
H391 H 0.38993 0.26083 0.2183 0.0
C392 C 0.91428 0.9194 0.69608 0.0
C393 C 0.90393 0.92102 0.62816 0.0
C394 C 0.84672 0.84885 0.62597 0.0
C395 C 0.8468 0.85634 0.69432 0.0
N396 N 0.87369 0.91353 0.79149 0.0
N397 N 0.84416 0.895 0.53387 0.0
C398 C 0.87832 0.89609 0.72893 0.0
C399 C 0.86515 0.8883 0.59443 0.0
N400 N 0.95911 0.93654 0.72926 0.0
N401 N 0.8325 0.80362 0.59089 0.0
H402 H 0.85095 0.9272 0.51168 0.0
H403 H 0.81421 0.87211 0.51039 0.0
H404 H 0.82725 0.77052 0.61202 0.0
H405 H 0.83437 0.79756 0.54129 0.0
H406 H 0.96767 0.93322 0.77824 0.0
H407 H 0.9902 0.94601 0.70683 0.0
H408 H 0.89531 0.94423 0.81567 0.0
H409 H 0.84417 0.903 0.8159 0.0
C410 C 0.85853 0.1014 0.46633 0.0
C411 C 0.91146 0.1074 0.46688 0.0
C412 C 0.89849 0.13218 0.35744 0.0
C413 C 0.84667 0.13771 0.36302 0.0
N414 N 0.77531 0.12207 0.41893 0.0
N415 N 0.98102 0.13795 0.41613 0.0
C416 C 0.82603 0.11996 0.41613 0.0
C417 C 0.9313 0.12505 0.41315 0.0
N418 N 0.83933 0.07898 0.51421 0.0
N419 N 0.91685 0.13478 0.2998 0.0
H420 H 0.00528 0.138 0.45802 0.0
H421 H 0.99645 0.15509 0.38025 0.0
H422 H 0.89388 0.13814 0.2573 0.0
H423 H 0.95406 0.1269 0.29276 0.0
H424 H 0.80157 0.06849 0.51284 0.0
H425 H 0.86156 0.06849 0.55433 0.0
H426 H 0.75805 0.11655 0.45973 0.0
H427 H 0.75049 0.13066 0.37995 0.0
C428 C 0.67885 0.11797 0.14171 0.0
C429 C 0.66416 0.15573 0.18848 0.0
C430 C 0.57705 0.1467 0.13834 0.0
C431 C 0.59224 0.11151 0.08852 0.0
N432 N 0.65997 0.07454 0.03408 0.0
N433 N 0.60149 0.21468 0.2225 0.0
C434 C 0.64387 0.10005 0.08782 0.0
C435 C 0.61391 0.1726 0.18433 0.0
N436 N 0.72594 0.09864 0.14926 0.0
N437 N 0.52732 0.15406 0.14378 0.0
H438 H 0.62676 0.23477 0.25779 0.0
H439 H 0.56708 0.2324 0.21532 0.0
H440 H 0.4992 0.13673 0.1107 0.0
H441 H 0.51402 0.17392 0.18383 0.0
H442 H 0.7372 0.06761 0.1199 0.0
H443 H 0.75217 0.11066 0.18863 0.0
H444 H 0.69785 0.06965 1.02824 0.0
H445 H 0.63572 0.06289 0.99255 0.0
C446 C 0.6832 0.89742 0.87599 0.0
C447 C 0.66033 0.85814 0.83082 0.0
C448 C 0.57775 0.87994 0.86465 0.0
C449 C 0.60121 0.91557 0.91525 0.0
N450 N 0.67806 0.95294 0.97427 0.0
N451 N 0.58717 0.80527 0.79032 0.0
C452 C 0.65453 0.9225 0.92277 0.0
C453 C 0.60799 0.84754 0.82737 0.0
N454 N 0.73184 0.91218 0.87252 0.0
N455 N 0.52654 0.87709 0.85116 0.0
H456 H 0.6076 0.78052 0.76169 0.0
H457 H 0.55062 0.79211 0.79255 0.0
H458 H 0.50199 0.89744 0.87861 0.0
H459 H 0.50823 0.8568 0.80968 0.0
H460 H 0.74923 0.94411 0.89958 0.0
H461 H 0.75346 0.89493 0.83824 0.0
H462 H 0.71697 0.95467 0.98593 0.0
H463 H 0.65887 0.97357 1.00841 0.0
C464 C 0.5997 0.65029 0.94656 0.0
C465 C 0.6027 0.59663 0.93871 0.0
C466 C 0.65536 0.60103 0.85071 0.0
C467 C 0.65514 0.65463 0.86146 0.0
N468 N 0.62944 0.73129 0.92083 0.0
N469 N 0.64018 0.52118 0.89209 0.0
C470 C 0.62791 0.67948 0.90975 0.0
C471 C 0.63222 0.57205 0.89289 0.0
N472 N 0.56828 0.6734 0.98717 0.0
N473 N 0.67768 0.5778 0.80024 0.0
H474 H 0.62534 0.49904 0.92386 0.0
H475 H 0.6652 0.50163 0.86443 0.0
H476 H 0.69656 0.59776 0.7699 0.0
H477 H 0.67418 0.53912 0.78519 0.0
H478 H 0.55829 0.71119 0.98777 0.0
H479 H 0.55011 0.65438 1.01887 0.0
H480 H 0.61725 0.75164 0.96123 0.0
H481 H 0.64489 0.7544 0.89072 0.0
C482 C 0.66914 0.4035 0.17473 0.0
C483 C 0.67332 0.35067 0.15766 0.0
C484 C 0.61743 0.35563 0.05831 0.0
C485 C 0.60736 0.40667 0.07945 0.0
N486 N 0.6424 0.48387 0.14043 0.0
N487 N 0.6459 0.27464 0.08762 0.0
C488 C 0.63833 0.43227 0.13301 0.0
C489 C 0.6463 0.32629 0.1004 0.0
N490 N 0.69422 0.42611 0.23108 0.0
N491 N 0.60338 0.33656 0.99568 0.0
H492 H 0.66565 0.25113 0.11753 0.0
H493 H 0.62198 0.2547 0.05059 0.0
H494 H 0.58804 0.35905 0.96113 0.0
H495 H 0.6138 0.30106 0.97583 0.0
H496 H 0.68742 0.46272 0.25089 0.0
H497 H 0.71981 0.40716 0.26052 0.0
H498 H 0.66704 0.50473 0.17566 0.0
H499 H 0.6268 0.50592 0.1059 0.0
C500 C 0.91843 0.32977 0.47634 0.0
C501 C 0.91158 0.3825 0.48612 0.0
C502 C 0.85575 0.37814 0.38533 0.0
C503 C 0.86946 0.32688 0.36999 0.0
N504 N 0.91903 0.25543 0.40041 0.0
N505 N 0.85232 0.44795 0.46937 0.0
C506 C 0.90193 0.30294 0.41546 0.0
C507 C 0.87357 0.40417 0.44654 0.0
N508 N 0.93716 0.30467 0.5268 0.0
N509 N 0.8293 0.40346 0.33983 0.0
H510 H 0.86107 0.46381 0.51697 0.0
H511 H 0.82151 0.46396 0.445 0.0
H512 H 0.81869 0.38751 0.29266 0.0
H513 H 0.82277 0.44216 0.34657 0.0
H514 H 0.93886 0.26533 0.5242 0.0
H515 H 0.94358 0.3226 0.57379 0.0
H516 H 0.94805 0.23982 0.4286 0.0
H517 H 0.90807 0.23322 0.35742 0.0
C518 C 0.81993 0.62165 0.67728 0.0
C519 C 0.84551 0.64655 0.73496 0.0
C520 C 0.92411 0.60822 0.70855 0.0
C521 C 0.9004 0.58614 0.64744 0.0
N522 N 0.82354 0.57258 0.57383 0.0
N523 N 0.91156 0.63248 0.81887 0.0
C524 C 0.84762 0.59295 0.63179 0.0
C525 C 0.89455 0.63087 0.75489 0.0
N526 N 0.76867 0.61918 0.67061 0.0
N527 N 0.9753 0.61005 0.72251 0.0
H528 H 0.88806 0.63954 0.85503 0.0
H529 H 0.94589 0.61759 0.83538 0.0
H530 H 1.00015 0.59629 0.69058 0.0
H531 H 0.99343 0.63059 0.76399 0.0
H532 H 0.74689 0.5965 0.63403 0.0
H533 H 0.74795 0.63556 0.70623 0.0
H534 H 0.78774 0.58305 0.55597 0.0
H535 H 0.83958 0.54671 0.54191 0.0
C536 C 0.34679 0.40893 0.1967 0.0
C537 C 0.33549 0.3567 0.17656 0.0
C538 C 0.38773 0.36005 0.08753 0.0
C539 C 0.397 0.41245 0.10597 0.0
N540 N 0.37483 0.48951 0.16725 0.0
N541 N 0.33597 0.28626 0.09125 0.0
C542 C 0.37366 0.43768 0.15765 0.0
C543 C 0.35247 0.33364 0.11812 0.0
N544 N 0.3312 0.43163 0.25244 0.0
N545 N 0.41532 0.33414 0.04411 0.0
H546 H 0.31668 0.26064 0.11402 0.0
H547 H 0.34052 0.27252 0.04389 0.0
H548 H 0.44274 0.35111 1.02155 0.0
H549 H 0.41465 0.29476 0.03514 0.0
H550 H 0.34465 0.46705 0.27426 0.0
H551 H 0.30639 0.41444 0.27867 0.0
H552 H 0.35448 0.51046 0.19995 0.0
H553 H 0.39187 0.51199 0.13769 0.0
C554 C 0.39422 0.58407 0.89244 0.0
C555 C 0.4072 0.59899 0.95928 0.0
C556 C 0.35737 0.67461 0.94966 0.0
C557 C 0.33831 0.65577 0.88539 0.0
N558 N 0.33063 0.58496 0.80178 0.0
N559 N 0.3877 0.65137 0.0545 0.0
C560 C 0.3542 0.60813 0.85854 0.0
C561 C 0.38446 0.64197 0.98893 0.0
N562 N 0.422 0.54957 0.85995 0.0
N563 N 0.35289 0.7244 0.97234 0.0
H564 H 0.40456 0.62657 0.08515 0.0
H565 H 0.36819 0.68041 0.07773 0.0
H566 H 0.3383 0.75143 0.94354 0.0
H567 H 0.3699 0.74003 1.01736 0.0
H568 H 0.41706 0.54133 0.80995 0.0
H569 H 0.45354 0.53392 0.88241 0.0
H570 H 0.33849 0.54816 0.78345 0.0
H571 H 0.29958 0.60012 0.77705 0.0
C572 C 0.16421 0.62134 0.65257 0.0
C573 C 0.14382 0.6598 0.69343 0.0
C574 C 0.06184 0.64841 0.62779 0.0
C575 C 0.08178 0.60801 0.58842 0.0
N576 N 0.15514 0.56932 0.54978 0.0
N577 N 0.0726 0.70704 0.72558 0.0
C578 C 0.13386 0.59785 0.59734 0.0
C579 C 0.09254 0.67271 0.68237 0.0
N580 N 0.21223 0.60616 0.66781 0.0
N581 N 0.01408 0.66471 0.6128 0.0
H582 H 0.09408 0.72788 0.76423 0.0
H583 H 0.03423 0.71297 0.72586 0.0
H584 H 0.9872 0.64544 0.57927 0.0
H585 H 0.00102 0.6991 0.63248 0.0
H586 H 0.22757 0.57435 0.64448 0.0
H587 H 0.23552 0.62332 0.70744 0.0
H588 H 0.19371 0.56432 0.55008 0.0
H589 H 0.13469 0.55582 0.50594 0.0
C590 C 0.10583 0.31937 0.35865 0.0
C591 C 0.1514 0.33648 0.33747 0.0
C592 C 0.14929 0.41369 0.41337 0.0
C593 C 0.10016 0.40026 0.42569 0.0
N594 N 0.02855 0.34244 0.40267 0.0
N595 N 0.20865 0.4074 0.33452 0.0
C596 C 0.07743 0.35391 0.39574 0.0
C597 C 0.17133 0.38559 0.36235 0.0
N598 N 0.09065 0.26953 0.34699 0.0
N599 N 0.17493 0.45335 0.44994 0.0
H600 H 0.22216 0.39104 0.2927 0.0
H601 H 0.22139 0.44471 0.34784 0.0
H602 H 0.16018 0.47362 0.48851 0.0
H603 H 0.21259 0.46203 0.44654 0.0
H604 H 0.06052 0.25472 0.36708 0.0
H605 H 0.11168 0.24128 0.32531 0.0
H606 H 0.00814 0.31259 0.37482 0.0
H607 H 0.00732 0.36485 0.43281 0.0
C608 C 0.99074 0.99089 0.98783 0.0
C609 C 0.98966 0.04197 0.9738 0.0
C610 C 0.96745 0.0693 0.08254 0.0
C611 C 0.97341 0.01897 0.09854 0.0
N612 N 0.99693 0.93278 0.06954 0.0
N613 N 0.98158 0.13074 1.0085 0.0
C614 C 0.98646 0.97991 0.05187 0.0
C615 C 0.9792 0.08147 1.02139 0.0
N616 N 0.9954 0.95278 0.93966 0.0
N617 N 0.94906 0.10507 0.12518 0.0
H618 H 0.98807 0.14092 0.96352 0.0
H619 H 0.98025 0.16167 0.04324 0.0
H620 H 0.94023 0.09737 0.17026 0.0
H621 H 0.93871 0.14105 0.11421 0.0
H622 H 0.99039 0.91455 0.94467 0.0
H623 H 1.00053 0.95941 0.8928 0.0
H624 H 0.01213 0.90426 0.04001 0.0
H625 H 0.99423 0.92314 0.11584 0.0
C626 C 0.26229 0.70907 0.29817 0.0
C627 C 0.25302 0.74739 0.34788 0.0
C628 C 0.22216 0.80295 0.26656 0.0
C629 C 0.22786 0.76326 0.21689 0.0
N630 N 0.2459 0.67591 0.18526 0.0
N631 N 0.21762 0.82791 0.38045 0.0
C632 C 0.24599 0.71558 0.23268 0.0
C633 C 0.23097 0.79349 0.33232 0.0
N634 N 0.28756 0.66683 0.31355 0.0
N635 N 0.21022 0.8503 0.25086 0.0
H636 H 0.2247 0.82296 0.42917 0.0
H637 H 0.19618 0.85949 0.37215 0.0
H638 H 0.20369 0.85876 0.2034 0.0
H639 H 0.21083 0.88218 0.28457 0.0
H640 H 0.3008 0.64031 0.27951 0.0
H641 H 0.29856 0.65997 0.36095 0.0
H642 H 0.25342 0.63883 0.19424 0.0
H643 H 0.23425 0.67914 0.13688 0.0
C644 C 0.48116 0.05766 0.55301 0.0
C645 C 0.49254 0.01915 0.5937 0.0
C646 C 0.52647 0.96685 0.50567 0.0
C647 C 0.51858 0.00694 0.46647 0.0
N648 N 0.4961 0.09344 0.45528 0.0
N649 N 0.53254 0.94057 0.61316 0.0
C650 C 0.49798 0.05321 0.4908 0.0
C651 C 0.51718 0.97474 0.5713 0.0
N652 N 0.45328 0.09792 0.57335 0.0
N653 N 0.54097 0.92063 0.47945 0.0
H654 H 0.52536 0.94449 0.66123 0.0
H655 H 0.55571 0.91044 0.6018 0.0
H656 H 0.54799 0.91328 0.4315 0.0
H657 H 0.54211 0.88835 0.50348 0.0
H658 H 0.43873 0.12418 0.54338 0.0
H659 H 0.44143 0.10312 0.61922 0.0
H660 H 0.48652 0.12979 0.47299 0.0
H661 H 0.50814 0.09163 0.40955 0.0
C662 C 0.28674 0.27545 0.83342 0.0
C663 C 0.24447 0.2444 0.8402 0.0
C664 C 0.21895 0.24008 0.72348 0.0
C665 C 0.26381 0.26696 0.71591 0.0
N666 N 0.34481 0.30266 0.76243 0.0
N667 N 0.17476 0.1901 0.79056 0.0
C668 C 0.29893 0.28261 0.77061 0.0
C669 C 0.21177 0.22474 0.78485 0.0
N670 N 0.31441 0.29941 0.88707 0.0
N671 N 0.18233 0.23075 0.67254 0.0
H672 H 0.1683 0.17791 0.83453 0.0
H673 H 0.15329 0.17018 0.7512 0.0
H674 H 0.18589 0.24182 0.62712 0.0
H675 H 0.14668 0.2161 0.67662 0.0
H676 H 0.34228 0.32679 0.88537 0.0
H677 H 0.30653 0.29531 0.93376 0.0
H678 H 0.37399 0.30984 0.79961 0.0
H679 H 0.35549 0.30796 0.71734 0.0
C680 C 0.77056 0.20377 0.77708 0.0
C681 C 0.76179 0.24213 0.82692 0.0
C682 C 0.73229 0.29869 0.74655 0.0
C683 C 0.73874 0.25948 0.69662 0.0
N684 N 0.75482 0.17185 0.66375 0.0
N685 N 0.72618 0.32238 0.8603 0.0
C686 C 0.75524 0.21112 0.71175 0.0
C687 C 0.73995 0.28841 0.81195 0.0
N688 N 0.79463 0.16079 0.79218 0.0
N689 N 0.72122 0.34645 0.73163 0.0
H690 H 0.73246 0.31675 0.90886 0.0
H691 H 0.70496 0.35413 0.85216 0.0
H692 H 0.7156 0.35565 0.68443 0.0
H693 H 0.72154 0.37793 0.7659 0.0
H694 H 0.80771 0.13423 0.75807 0.0
H695 H 0.80451 0.15311 0.83951 0.0
H696 H 0.76149 0.13448 0.67211 0.0
H697 H 0.74353 0.17576 0.61544 0.0
C698 C 0.75528 0.79505 0.33482 0.0
C699 C 0.70862 0.77063 0.34038 0.0
C700 C 0.68932 0.76186 0.22234 0.0
C701 C 0.7346 0.78896 0.21729 0.0
N702 N 0.80417 0.84212 0.26969 0.0
N703 N 0.62636 0.7412 0.29076 0.0
C704 C 0.76546 0.80903 0.27396 0.0
C705 C 0.67409 0.7573 0.28444 0.0
N706 N 0.79118 0.80241 0.38677 0.0
N707 N 0.66203 0.73839 0.16811 0.0
H708 H 0.61379 0.73804 0.33545 0.0
H709 H 0.59795 0.73567 0.25238 0.0
H710 H 0.67185 0.7406 0.12183 0.0
H711 H 0.63194 0.71337 0.16926 0.0
H712 H 0.82778 0.81504 0.38382 0.0
H713 H 0.786 0.79145 0.43174 0.0
H714 H 0.82485 0.86193 0.3098 0.0
H715 H 0.81233 0.85363 0.226 0.0
C716 C 0.49764 0.53681 0.57507 0.0
C717 C 0.48923 0.48535 0.58442 0.0
C718 C 0.48626 0.46135 0.46757 0.0
C719 C 0.50016 0.51178 0.45934 0.0
N720 N 0.527 0.59599 0.50655 0.0
N721 N 0.48377 0.39722 0.54086 0.0
C722 C 0.50801 0.54914 0.51349 0.0
C723 C 0.48563 0.44719 0.53095 0.0
N724 N 0.49406 0.57414 0.62452 0.0
N725 N 0.47235 0.42728 0.41473 0.0
H726 H 0.48391 0.38517 0.58645 0.0
H727 H 0.4866 0.36765 0.50463 0.0
H728 H 0.47247 0.43622 0.36763 0.0
H729 H 0.45652 0.39168 0.41746 0.0
H730 H 0.49461 0.6126 0.61887 0.0
H731 H 0.48577 0.56671 0.66998 0.0
H732 H 0.53886 0.62289 0.54534 0.0
H733 H 0.53504 0.60652 0.46233 0.0
C734 C 0.98994 0.43373 0.99074 0.0
C735 C 0.02805 0.46649 0.97521 0.0
C736 C 0.05559 0.4866 0.09029 0.0
C737 C 0.00994 0.46533 0.10513 0.0
N738 N 0.9635 0.38675 0.07371 0.0
N739 N 0.09802 0.52491 1.01155 0.0
C740 C 0.98466 0.42953 0.05662 0.0
C741 C 0.06133 0.493 1.02538 0.0
N742 N 0.95888 0.40645 0.94295 0.0
N743 N 0.0964 0.4921 0.13573 0.0
H744 H 0.10352 0.53095 0.96457 0.0
H745 H 0.12006 0.54834 0.04725 0.0
H746 H 0.09588 0.47817 0.18024 0.0
H747 H 0.13201 0.50317 0.12581 0.0
H748 H 0.92725 0.38623 0.95199 0.0
H749 H 0.96288 0.40665 0.89416 0.0
H750 H 0.94848 0.3569 0.04046 0.0
H751 H 0.96804 0.37818 0.1213 0.0
loop_
_geom_bond_atom_site_label_1
_geom_bond_atom_site_label_2
_geom_bond_distance
_geom_bond_site_symmetry_2
_ccdc_geom_bond_type
C0 Eu1 2.835 1_655 S
C0 C2 1.500 . S
C0 O20 1.257 1_655 S
C0 O21 1.260 . S
Eu1 C0 2.835 1_455 S
Eu1 O20 2.473 . S
Eu1 O21 2.480 1_455 S
Eu1 O22 2.430 1_455 S
Eu1 O23 2.670 1_455 S
Eu1 O24 2.394 1_445 S
Eu1 O29 2.355 1_545 S
Eu1 O31 2.374 . S
C2 C0 1.500 . S
C2 C3 1.377 . S
C2 C7 1.377 1_655 S
C3 C2 1.377 . S
C3 C4 1.395 . S
C3 H32 0.931 . S
C4 C3 1.395 . S
C4 C5 1.383 . S
C4 H33 0.931 . S
C5 C4 1.383 . S
C5 C6 1.394 . S
C6 C5 1.394 . S
C6 C7 1.378 1_655 S
C6 H34 0.931 1_645 S
C7 C2 1.377 1_455 S
C7 C6 1.378 1_455 S
C7 H35 0.931 1_545 S
C8 O22 1.259 . S
C8 O23 1.270 . S
C9 O24 1.251 . S
C9 O25 1.251 . S
C10 Eu11 2.835 1_455 S
C10 C12 1.500 . S
C10 O26 1.257 1_455 S
C10 O27 1.260 . S
Eu11 C10 2.835 1_655 S
Eu11 O23 2.355 1_565 S
Eu11 O25 2.374 . S
Eu11 O26 2.473 . S
Eu11 O27 2.480 1_655 S
Eu11 O28 2.430 1_655 S
Eu11 O29 2.670 1_655 S
Eu11 O30 2.394 1_665 S
C12 C10 1.500 . S
C12 C13 1.377 . S
C12 C17 1.371 1_455 S
C13 C12 1.377 . S
C13 C14 1.395 . S
C13 H36 0.931 . S
C14 C13 1.395 . S
C14 C15 1.383 . S
C14 H37 0.931 . S
C15 C14 1.383 . S
C15 C16 1.394 . S
C16 C15 1.394 . S
C16 C17 1.373 1_455 S
C16 H38 0.931 1_465 S
C17 C12 1.371 1_655 S
C17 C16 1.373 1_655 S
C17 H39 0.942 1_565 S
C18 O28 1.259 . S
C18 O29 1.270 . S
C19 O30 1.251 . S
C19 O31 1.251 . S
O20 C0 1.257 1_455 S
O20 Eu1 2.473 . S
O21 C0 1.260 . S
O21 Eu1 2.480 1_655 S
O22 Eu1 2.430 1_655 S
O22 C8 1.259 . S
O23 Eu1 2.670 1_655 S
O23 C8 1.270 . S
O23 Eu11 2.355 1_545 S
O24 Eu1 2.394 1_665 S
O24 C9 1.251 . S
O25 C9 1.251 . S
O25 Eu11 2.374 . S
O26 C10 1.257 1_655 S
O26 Eu11 2.473 . S
O27 C10 1.260 . S
O27 Eu11 2.480 1_455 S
O28 Eu11 2.430 1_455 S
O28 C18 1.259 . S
O29 Eu1 2.355 1_565 S
O29 Eu11 2.670 1_455 S
O29 C18 1.270 . S
O30 Eu11 2.394 1_445 S
O30 C19 1.251 . S
O31 Eu1 2.374 . S
O31 C19 1.251 . S
H32 C3 0.931 . S
H33 C4 0.931 . S
H34 C6 0.931 1_465 S
H35 C7 0.931 1_565 S
H36 C13 0.931 . S
H37 C14 0.931 . S
H38 C16 0.931 1_645 S
H39 C17 0.942 1_545 S
C40 Eu41 2.835 . S
C40 C42 1.500 1_556 S
C40 O60 1.257 . S
C40 O61 1.260 . S
Eu41 C40 2.835 . S
Eu41 O60 2.473 . S
Eu41 O61 2.480 . S
Eu41 O62 2.430 . S
Eu41 O63 2.670 . S
Eu41 O64 2.394 . S
Eu41 O69 2.355 . S
Eu41 O71 2.374 . S
C42 C40 1.500 1_554 S
C42 C43 1.377 . S
C42 C47 1.377 . S
C43 C42 1.377 . S
C43 C44 1.395 . S
C43 H72 0.931 1_554 S
C44 C43 1.395 . S
C44 C45 1.383 . S
C44 H73 0.931 . S
C45 C44 1.383 . S
C45 C46 1.394 . S
C46 C45 1.394 . S
C46 C47 1.378 . S
C46 H74 0.931 . S
C47 C42 1.377 . S
C47 C46 1.378 . S
C47 H75 0.931 . S
C48 O62 1.259 . S
C48 O63 1.270 . S
C49 O64 1.251 . S
C49 O65 1.251 . S
C50 Eu51 2.835 . S
C50 C52 1.500 . S
C50 O66 1.257 . S
C50 O67 1.260 . S
Eu51 C50 2.835 . S
Eu51 O63 2.355 . S
Eu51 O65 2.374 . S
Eu51 O66 2.473 . S
Eu51 O67 2.480 . S
Eu51 O68 2.430 . S
Eu51 O69 2.670 . S
Eu51 O70 2.394 . S
C52 C50 1.500 . S
C52 C53 1.377 . S
C52 C57 1.377 . S
C53 C52 1.377 . S
C53 C54 1.395 . S
C53 H76 0.931 . S
C54 C53 1.395 . S
C54 C55 1.383 . S
C54 H77 0.931 . S
C55 C54 1.383 . S
C55 C56 1.394 . S
C56 C55 1.394 . S
C56 C57 1.378 . S
C56 H78 0.931 . S
C57 C52 1.377 . S
C57 C56 1.378 . S
C57 H79 0.931 . S
C58 O68 1.259 . S
C58 O69 1.270 . S
C59 O70 1.251 . S
C59 O71 1.251 . S
O60 C40 1.257 . S
O60 Eu41 2.473 . S
O61 C40 1.260 . S
O61 Eu41 2.480 . S
O62 Eu41 2.430 . S
O62 C48 1.259 . S
O63 Eu41 2.670 . S
O63 C48 1.270 . S
O63 Eu51 2.355 . S
O64 Eu41 2.394 . S
O64 C49 1.251 . S
O65 C49 1.251 . S
O65 Eu51 2.374 . S
O66 C50 1.257 . S
O66 Eu51 2.473 . S
O67 C50 1.260 . S
O67 Eu51 2.480 . S
O68 Eu51 2.430 . S
O68 C58 1.259 . S
O69 Eu41 2.355 . S
O69 Eu51 2.670 . S
O69 C58 1.270 . S
O70 Eu51 2.394 . S
O70 C59 1.251 . S
O71 Eu41 2.374 . S
O71 C59 1.251 . S
H72 C43 0.931 1_556 S
H73 C44 0.931 . S
H74 C46 0.931 . S
H75 C47 0.931 . S
H76 C53 0.931 . S
H77 C54 0.931 . S
H78 C56 0.931 . S
H79 C57 0.931 . S
C80 Eu81 2.835 . S
C80 C82 1.500 . S
C80 O100 1.257 1_545 S
C80 O101 1.260 . S
Eu81 C80 2.835 . S
Eu81 O100 2.473 1_545 S
Eu81 O101 2.480 . S
Eu81 O102 2.430 . S
Eu81 O103 2.670 1_556 S
Eu81 O104 2.394 1_545 S
Eu81 O109 2.355 1_545 S
Eu81 O111 2.374 1_556 S
C82 C80 1.500 . S
C82 C83 1.377 . S
C82 C87 1.377 1_545 S
C83 C82 1.377 . S
C83 C84 1.395 . S
C83 H112 0.931 . S
C84 C83 1.395 . S
C84 C85 1.383 . S
C84 H113 0.931 . S
C85 C84 1.383 . S
C85 C86 1.394 1_545 S
C86 C85 1.394 1_565 S
C86 C87 1.378 . S
C86 H114 0.931 . S
C87 C82 1.377 1_565 S
C87 C86 1.378 . S
C87 H115 0.931 . S
C88 O102 1.259 1_554 S
C88 O103 1.270 . S
C89 O104 1.251 . S
C89 O105 1.251 . S
C90 Eu91 2.835 . S
C90 C92 1.500 . S
C90 O106 1.257 1_565 S
C90 O107 1.260 . S
Eu91 C90 2.835 . S
Eu91 O103 2.355 1_565 S
Eu91 O105 2.374 1_554 S
Eu91 O106 2.473 1_565 S
Eu91 O107 2.480 . S
Eu91 O108 2.430 . S
Eu91 O109 2.670 1_554 S
Eu91 O110 2.394 1_565 S
C92 C90 1.500 . S
C92 C93 1.377 . S
C92 C97 1.377 1_565 S
C93 C92 1.377 . S
C93 C94 1.395 . S
C93 H116 0.931 . S
C94 C93 1.395 . S
C94 C95 1.383 . S
C94 H117 0.931 . S
C95 C94 1.383 . S
C95 C96 1.394 1_565 S
C96 C95 1.394 1_545 S
C96 C97 1.378 . S
C96 H118 0.931 . S
C97 C92 1.377 1_545 S
C97 C96 1.378 . S
C97 H119 0.931 . S
C98 O108 1.259 1_556 S
C98 O109 1.270 . S
C99 O110 1.251 . S
C99 O111 1.251 . S
O100 C80 1.257 1_565 S
O100 Eu81 2.473 1_565 S
O101 C80 1.260 . S
O101 Eu81 2.480 . S
O102 Eu81 2.430 . S
O102 C88 1.259 1_556 S
O103 Eu81 2.670 1_554 S
O103 C88 1.270 . S
O103 Eu91 2.355 1_545 S
O104 Eu81 2.394 1_565 S
O104 C89 1.251 . S
O105 C89 1.251 . S
O105 Eu91 2.374 1_556 S
O106 C90 1.257 1_545 S
O106 Eu91 2.473 1_545 S
O107 C90 1.260 . S
O107 Eu91 2.480 . S
O108 Eu91 2.430 . S
O108 C98 1.259 1_554 S
O109 Eu81 2.355 1_565 S
O109 Eu91 2.670 1_556 S
O109 C98 1.270 . S
O110 Eu91 2.394 1_545 S
O110 C99 1.251 . S
O111 Eu81 2.374 1_554 S
O111 C99 1.251 . S
H112 C83 0.931 . S
H113 C84 0.931 . S
H114 C86 0.931 . S
H115 C87 0.931 . S
H116 C93 0.931 . S
H117 C94 0.931 . S
H118 C96 0.931 . S
H119 C97 0.931 . S
C120 Eu121 2.835 . S
C120 C122 1.500 1_554 S
C120 O140 1.257 . S
C120 O141 1.260 . S
Eu121 C120 2.835 . S
Eu121 O140 2.473 . S
Eu121 O141 2.480 . S
Eu121 O142 2.430 . S
Eu121 O143 2.670 . S
Eu121 O144 2.394 . S
Eu121 O149 2.355 . S
Eu121 O151 2.374 . S
C122 C120 1.500 1_556 S
C122 C123 1.377 . S
C122 C127 1.377 . S
C123 C122 1.377 . S
C123 C124 1.395 . S
C123 H152 0.931 . S
C124 C123 1.395 . S
C124 C125 1.383 . S
C124 H153 0.931 . S
C125 C124 1.383 . S
C125 C126 1.394 . S
C126 C125 1.394 . S
C126 C127 1.378 . S
C126 H154 0.931 . S
C127 C122 1.377 . S
C127 C126 1.378 . S
C127 H155 0.931 . S
C128 O142 1.259 . S
C128 O143 1.270 . S
C129 O144 1.251 . S
C129 O145 1.251 . S
C130 Eu131 2.835 . S
C130 C132 1.500 . S
C130 O146 1.257 . S
C130 O147 1.260 . S
Eu131 C130 2.835 . S
Eu131 O143 2.355 . S
Eu131 O145 2.374 . S
Eu131 O146 2.473 . S
Eu131 O147 2.480 . S
Eu131 O148 2.430 . S
Eu131 O149 2.670 . S
Eu131 O150 2.394 . S
C132 C130 1.500 . S
C132 C133 1.377 . S
C132 C137 1.377 . S
C133 C132 1.377 . S
C133 C134 1.395 . S
C133 H156 0.931 . S
C134 C133 1.395 . S
C134 C135 1.383 . S
C134 H157 0.931 . S
C135 C134 1.383 . S
C135 C136 1.394 . S
C136 C135 1.394 . S
C136 C137 1.378 . S
C136 H158 0.931 . S
C137 C132 1.377 . S
C137 C136 1.378 . S
C137 H159 0.931 . S
C138 O148 1.259 . S
C138 O149 1.270 . S
C139 O150 1.251 . S
C139 O151 1.251 . S
O140 C120 1.257 . S
O140 Eu121 2.473 . S
O141 C120 1.260 . S
O141 Eu121 2.480 . S
O142 Eu121 2.430 . S
O142 C128 1.259 . S
O143 Eu121 2.670 . S
O143 C128 1.270 . S
O143 Eu131 2.355 . S
O144 Eu121 2.394 . S
O144 C129 1.251 . S
O145 C129 1.251 . S
O145 Eu131 2.374 . S
O146 C130 1.257 . S
O146 Eu131 2.473 . S
O147 C130 1.260 . S
O147 Eu131 2.480 . S
O148 Eu131 2.430 . S
O148 C138 1.259 . S
O149 Eu121 2.355 . S
O149 Eu131 2.670 . S
O149 C138 1.270 . S
O150 Eu131 2.394 . S
O150 C139 1.251 . S
O151 Eu121 2.374 . S
O151 C139 1.251 . S
H152 C123 0.931 . S
H153 C124 0.931 . S
H154 C126 0.931 . S
H155 C127 0.931 . S
H156 C133 0.931 . S
H157 C134 0.931 . S
H158 C136 0.931 . S
H159 C137 0.931 . S
C160 Eu161 2.835 . S
C160 C162 1.500 . S
C160 O180 1.257 . S
C160 O181 1.260 . S
Eu161 C160 2.835 . S
Eu161 O180 2.473 . S
Eu161 O181 2.480 . S
Eu161 O182 2.430 . S
Eu161 O183 2.670 . S
Eu161 O184 2.394 . S
Eu161 O189 2.355 . S
Eu161 O191 2.374 . S
C162 C160 1.500 . S
C162 C163 1.377 . S
C162 C167 1.377 . S
C163 C162 1.377 . S
C163 C164 1.395 . S
C163 H192 0.931 . S
C164 C163 1.395 . S
C164 C165 1.383 . S
C164 H193 0.931 . S
C165 C164 1.383 . S
C165 C166 1.394 . S
C166 C165 1.394 . S
C166 C167 1.378 . S
C166 H194 0.931 . S
C167 C162 1.377 . S
C167 C166 1.378 . S
C167 H195 0.931 . S
C168 O182 1.259 . S
C168 O183 1.270 . S
C169 O184 1.251 . S
C169 O185 1.251 . S
C170 Eu171 2.835 . S
C170 C172 1.500 1_554 S
C170 O186 1.257 . S
C170 O187 1.260 . S
Eu171 C170 2.835 . S
Eu171 O183 2.355 . S
Eu171 O185 2.374 . S
Eu171 O186 2.473 . S
Eu171 O187 2.480 . S
Eu171 O188 2.430 . S
Eu171 O189 2.670 . S
Eu171 O190 2.394 . S
C172 C170 1.500 1_556 S
C172 C173 1.377 . S
C172 C177 1.377 . S
C173 C172 1.377 . S
C173 C174 1.395 . S
C173 H196 0.931 1_556 S
C174 C173 1.395 . S
C174 C175 1.383 . S
C174 H197 0.931 . S
C175 C174 1.383 . S
C175 C176 1.394 . S
C176 C175 1.394 . S
C176 C177 1.378 . S
C176 H198 0.931 . S
C177 C172 1.377 . S
C177 C176 1.378 . S
C177 H199 0.931 . S
C178 O188 1.259 . S
C178 O189 1.270 . S
C179 O190 1.251 . S
C179 O191 1.251 . S
O180 C160 1.257 . S
O180 Eu161 2.473 . S
O181 C160 1.260 . S
O181 Eu161 2.480 . S
O182 Eu161 2.430 . S
O182 C168 1.259 . S
O183 Eu161 2.670 . S
O183 C168 1.270 . S
O183 Eu171 2.355 . S
O184 Eu161 2.394 . S
O184 C169 1.251 . S
O185 C169 1.251 . S
O185 Eu171 2.374 . S
O186 C170 1.257 . S
O186 Eu171 2.473 . S
O187 C170 1.260 . S
O187 Eu171 2.480 . S
O188 Eu171 2.430 . S
O188 C178 1.259 . S
O189 Eu161 2.355 . S
O189 Eu171 2.670 . S
O189 C178 1.270 . S
O190 Eu171 2.394 . S
O190 C179 1.251 . S
O191 Eu161 2.374 . S
O191 C179 1.251 . S
H192 C163 0.931 . S
H193 C164 0.931 . S
H194 C166 0.931 . S
H195 C167 0.931 . S
H196 C173 0.931 1_554 S
H197 C174 0.931 . S
H198 C176 0.931 . S
H199 C177 0.931 . S
C200 Eu201 2.835 . S
C200 C202 1.500 . S
C200 O220 1.257 . S
C200 O221 1.260 . S
Eu201 C200 2.835 . S
Eu201 O220 2.473 . S
Eu201 O221 2.480 . S
Eu201 O222 2.430 . S
Eu201 O223 2.670 . S
Eu201 O224 2.394 . S
Eu201 O229 2.355 . S
Eu201 O231 2.374 . S
C202 C200 1.500 . S
C202 C203 1.377 . S
C202 C207 1.377 . S
C203 C202 1.377 . S
C203 C204 1.395 . S
C203 H232 0.931 . S
C204 C203 1.395 . S
C204 C205 1.383 . S
C204 H233 0.931 . S
C205 C204 1.383 . S
C205 C206 1.394 . S
C206 C205 1.394 . S
C206 C207 1.378 . S
C206 H234 0.931 . S
C207 C202 1.377 . S
C207 C206 1.378 . S
C207 H235 0.931 . S
C208 O222 1.259 . S
C208 O223 1.270 . S
C209 O224 1.251 . S
C209 O225 1.251 . S
C210 Eu211 2.835 . S
C210 C212 1.500 1_556 S
C210 O226 1.257 . S
C210 O227 1.260 . S
Eu211 C210 2.835 . S
Eu211 O223 2.355 . S
Eu211 O225 2.374 . S
Eu211 O226 2.473 . S
Eu211 O227 2.480 . S
Eu211 O228 2.430 . S
Eu211 O229 2.670 . S
Eu211 O230 2.394 . S
C212 C210 1.500 1_554 S
C212 C213 1.377 . S
C212 C217 1.377 . S
C213 C212 1.377 . S
C213 C214 1.395 . S
C213 H236 0.931 . S
C214 C213 1.395 . S
C214 C215 1.383 . S
C214 H237 0.931 . S
C215 C214 1.383 . S
C215 C216 1.394 . S
C216 C215 1.394 . S
C216 C217 1.378 . S
C216 H238 0.931 . S
C217 C212 1.377 . S
C217 C216 1.378 . S
C217 H239 0.931 . S
C218 O228 1.259 . S
C218 O229 1.270 . S
C219 O230 1.251 . S
C219 O231 1.251 . S
O220 C200 1.257 . S
O220 Eu201 2.473 . S
O221 C200 1.260 . S
O221 Eu201 2.480 . S
O222 Eu201 2.430 . S
O222 C208 1.259 . S
O223 Eu201 2.670 . S
O223 C208 1.270 . S
O223 Eu211 2.355 . S
O224 Eu201 2.394 . S
O224 C209 1.251 . S
O225 C209 1.251 . S
O225 Eu211 2.374 . S
O226 C210 1.257 . S
O226 Eu211 2.473 . S
O227 C210 1.260 . S
O227 Eu211 2.480 . S
O228 Eu211 2.430 . S
O228 C218 1.259 . S
O229 Eu201 2.355 . S
O229 Eu211 2.670 . S
O229 C218 1.270 . S
O230 Eu211 2.394 . S
O230 C219 1.251 . S
O231 Eu201 2.374 . S
O231 C219 1.251 . S
H232 C203 0.931 . S
H233 C204 0.931 . S
H234 C206 0.931 . S
H235 C207 0.931 . S
H236 C213 0.931 . S
H237 C214 0.931 . S
H238 C216 0.931 . S
H239 C217 0.931 . S
C240 Eu241 2.835 . S
C240 C242 1.500 . S
C240 O260 1.257 . S
C240 O261 1.260 . S
Eu241 C240 2.835 . S
Eu241 O260 2.473 . S
Eu241 O261 2.480 . S
Eu241 O262 2.430 . S
Eu241 O263 2.670 1_554 S
Eu241 O264 2.394 . S
Eu241 O269 2.355 . S
Eu241 O271 2.374 . S
C242 C240 1.500 . S
C242 C243 1.377 . S
C242 C247 1.377 . S
C243 C242 1.377 . S
C243 C244 1.395 . S
C243 H272 0.931 . S
C244 C243 1.395 . S
C244 C245 1.383 . S
C244 H273 0.931 . S
C245 C244 1.383 . S
C245 C246 1.394 . S
C246 C245 1.394 . S
C246 C247 1.378 . S
C246 H274 0.931 . S
C247 C242 1.377 . S
C247 C246 1.378 . S
C247 H275 0.931 . S
C248 O262 1.259 1_556 S
C248 O263 1.270 . S
C249 O264 1.251 . S
C249 O265 1.251 1_554 S
C250 Eu251 2.835 . S
C250 C252 1.500 . S
C250 O266 1.257 . S
C250 O267 1.260 . S
Eu251 C250 2.835 . S
Eu251 O263 2.355 . S
Eu251 O265 2.374 . S
Eu251 O266 2.473 . S
Eu251 O267 2.480 . S
Eu251 O268 2.430 . S
Eu251 O269 2.670 1_556 S
Eu251 O270 2.394 . S
C252 C250 1.500 . S
C252 C253 1.377 . S
C252 C257 1.377 . S
C253 C252 1.377 . S
C253 C254 1.395 . S
C253 H276 0.931 . S
C254 C253 1.395 . S
C254 C255 1.383 . S
C254 H277 0.931 . S
C255 C254 1.383 . S
C255 C256 1.394 . S
C256 C255 1.394 . S
C256 C257 1.378 . S
C256 H278 0.931 . S
C257 C252 1.377 . S
C257 C256 1.378 . S
C257 H279 0.931 . S
C258 O268 1.259 1_554 S
C258 O269 1.270 . S
C259 O270 1.251 . S
C259 O271 1.251 1_556 S
O260 C240 1.257 . S
O260 Eu241 2.473 . S
O261 C240 1.260 . S
O261 Eu241 2.480 . S
O262 Eu241 2.430 . S
O262 C248 1.259 1_554 S
O263 Eu241 2.670 1_556 S
O263 C248 1.270 . S
O263 Eu251 2.355 . S
O264 Eu241 2.394 . S
O264 C249 1.251 . S
O265 C249 1.251 1_556 S
O265 Eu251 2.374 . S
O266 C250 1.257 . S
O266 Eu251 2.473 . S
O267 C250 1.260 . S
O267 Eu251 2.480 . S
O268 Eu251 2.430 . S
O268 C258 1.259 1_556 S
O269 Eu241 2.355 . S
O269 Eu251 2.670 1_554 S
O269 C258 1.270 . S
O270 Eu251 2.394 . S
O270 C259 1.251 . S
O271 Eu241 2.374 . S
O271 C259 1.251 1_554 S
H272 C243 0.931 . S
H273 C244 0.931 . S
H274 C246 0.931 . S
H275 C247 0.931 . S
H276 C253 0.931 . S
H277 C254 0.931 . S
H278 C256 0.931 . S
H279 C257 0.931 . S
C280 Eu281 2.835 1_455 S
C280 C282 1.500 . S
C280 O300 1.257 1_455 S
C280 O301 1.260 . S
Eu281 C280 2.835 1_655 S
Eu281 O300 2.473 . S
Eu281 O301 2.480 1_655 S
Eu281 O302 2.430 1_655 S
Eu281 O303 2.670 1_655 S
Eu281 O304 2.394 1_655 S
Eu281 O309 2.355 . S
Eu281 O311 2.374 . S
C282 C280 1.500 . S
C282 C283 1.377 . S
C282 C287 1.370 1_455 S
C283 C282 1.377 . S
C283 C284 1.395 . S
C283 H312 0.931 . S
C284 C283 1.395 . S
C284 C285 1.383 . S
C284 H313 0.931 . S
C285 C284 1.383 . S
C285 C286 1.394 . S
C286 C285 1.394 . S
C286 C287 1.372 1_455 S
C286 H314 0.931 1_455 S
C287 C282 1.370 1_655 S
C287 C286 1.372 1_655 S
C287 H315 0.944 . S
C288 O302 1.259 . S
C288 O303 1.270 . S
C289 O304 1.251 . S
C289 O305 1.251 . S
C290 Eu291 2.835 1_655 S
C290 C292 1.500 . S
C290 O306 1.257 1_655 S
C290 O307 1.260 . S
Eu291 C290 2.835 1_455 S
Eu291 O303 2.355 . S
Eu291 O305 2.374 . S
Eu291 O306 2.473 . S
Eu291 O307 2.480 1_455 S
Eu291 O308 2.430 1_455 S
Eu291 O309 2.670 1_455 S
Eu291 O310 2.394 1_455 S
C292 C290 1.500 . S
C292 C293 1.377 . S
C292 C297 1.377 1_655 S
C293 C292 1.377 . S
C293 C294 1.395 . S
C293 H316 0.931 . S
C294 C293 1.395 . S
C294 C295 1.383 . S
C294 H317 0.931 . S
C295 C294 1.383 . S
C295 C296 1.394 . S
C296 C295 1.394 . S
C296 C297 1.378 1_655 S
C296 H318 0.931 1_655 S
C297 C292 1.377 1_455 S
C297 C296 1.378 1_455 S
C297 H319 0.931 . S
C298 O308 1.259 . S
C298 O309 1.270 . S
C299 O310 1.251 . S
C299 O311 1.251 . S
O300 C280 1.257 1_655 S
O300 Eu281 2.473 . S
O301 C280 1.260 . S
O301 Eu281 2.480 1_455 S
O302 Eu281 2.430 1_455 S
O302 C288 1.259 . S
O303 Eu281 2.670 1_455 S
O303 C288 1.270 . S
O303 Eu291 2.355 . S
O304 Eu281 2.394 1_455 S
O304 C289 1.251 . S
O305 C289 1.251 . S
O305 Eu291 2.374 . S
O306 C290 1.257 1_455 S
O306 Eu291 2.473 . S
O307 C290 1.260 . S
O307 Eu291 2.480 1_655 S
O308 Eu291 2.430 1_655 S
O308 C298 1.259 . S
O309 Eu281 2.355 . S
O309 Eu291 2.670 1_655 S
O309 C298 1.270 . S
O310 Eu291 2.394 1_655 S
O310 C299 1.251 . S
O311 Eu281 2.374 . S
O311 C299 1.251 . S
H312 C283 0.931 . S
H313 C284 0.931 . S
H314 C286 0.931 1_655 S
H315 C287 0.944 . S
H316 C293 0.931 . S
H317 C294 0.931 . S
H318 C296 0.931 1_455 S
H319 C297 0.931 . S
C320 C321 1.363 . S
C320 C326 1.379 . S
C320 N328 1.356 . S
C321 C320 1.363 . S
C321 C327 1.363 . S
C322 C323 1.363 . S
C322 C327 1.379 . S
C322 N329 1.356 . S
C323 C322 1.363 . S
C323 C326 1.363 . S
N324 C326 1.356 . S
N324 H336 0.984 . S
N324 H337 0.985 . S
N325 C327 1.356 . S
N325 H330 0.984 . S
N325 H331 0.985 . S
C326 C320 1.379 . S
C326 C323 1.363 . S
C326 N324 1.356 . S
C327 C321 1.363 . S
C327 C322 1.379 . S
C327 N325 1.356 . S
N328 C320 1.356 . S
N328 H334 0.984 . S
N328 H335 0.984 . S
N329 C322 1.356 . S
N329 H332 0.984 . S
N329 H333 0.985 . S
H330 N325 0.984 . S
H331 N325 0.985 . S
H332 N329 0.984 . S
H333 N329 0.985 . S
H334 N328 0.984 . S
H335 N328 0.984 . S
H336 N324 0.984 . S
H337 N324 0.985 . S
C338 C339 1.363 . S
C338 C344 1.379 . S
C338 N346 1.356 . S
C339 C338 1.363 . S
C339 C345 1.363 . S
C340 C341 1.363 . S
C340 C345 1.379 . S
C340 N347 1.356 . S
C341 C340 1.363 . S
C341 C344 1.363 . S
N342 C344 1.356 . S
N342 H354 0.984 . S
N342 H355 0.985 . S
N343 C345 1.356 . S
N343 H348 0.984 . S
N343 H349 0.985 . S
C344 C338 1.379 . S
C344 C341 1.363 . S
C344 N342 1.356 . S
C345 C339 1.363 . S
C345 C340 1.379 . S
C345 N343 1.356 . S
N346 C338 1.356 . S
N346 H352 0.984 . S
N346 H353 0.984 . S
N347 C340 1.356 . S
N347 H350 0.984 . S
N347 H351 0.985 . S
H348 N343 0.984 . S
H349 N343 0.985 . S
H350 N347 0.984 . S
H351 N347 0.985 . S
H352 N346 0.984 . S
H353 N346 0.984 . S
H354 N342 0.984 . S
H355 N342 0.985 . S
C356 C357 1.363 . S
C356 C362 1.379 . S
C356 N364 1.356 . S
C357 C356 1.363 . S
C357 C363 1.363 . S
C358 C359 1.363 . S
C358 C363 1.379 . S
C358 N365 1.356 . S
C359 C358 1.363 . S
C359 C362 1.363 . S
N360 C362 1.356 . S
N360 H372 0.984 . S
N360 H373 0.985 . S
N361 C363 1.356 . S
N361 H366 0.984 . S
N361 H367 0.985 . S
C362 C356 1.379 . S
C362 C359 1.363 . S
C362 N360 1.356 . S
C363 C357 1.363 . S
C363 C358 1.379 . S
C363 N361 1.356 . S
N364 C356 1.356 . S
N364 H370 0.984 . S
N364 H371 0.984 . S
N365 C358 1.356 . S
N365 H368 0.984 . S
N365 H369 0.985 . S
H366 N361 0.984 . S
H367 N361 0.985 . S
H368 N365 0.984 . S
H369 N365 0.985 . S
H370 N364 0.984 . S
H371 N364 0.984 . S
H372 N360 0.984 . S
H373 N360 0.985 . S
C374 C375 1.363 . S
C374 C380 1.379 . S
C374 N382 1.356 . S
C375 C374 1.363 . S
C375 C381 1.363 . S
C376 C377 1.363 . S
C376 C381 1.379 . S
C376 N383 1.356 . S
C377 C376 1.363 . S
C377 C380 1.363 . S
N378 C380 1.356 . S
N378 H390 0.984 . S
N378 H391 0.985 . S
N379 C381 1.356 . S
N379 H384 0.984 . S
N379 H385 0.985 1_545 S
C380 C374 1.379 . S
C380 C377 1.363 . S
C380 N378 1.356 . S
C381 C375 1.363 . S
C381 C376 1.379 . S
C381 N379 1.356 . S
N382 C374 1.356 . S
N382 H388 0.984 . S
N382 H389 0.984 . S
N383 C376 1.356 . S
N383 H386 0.984 . S
N383 H387 0.985 . S
H384 N379 0.984 . S
H385 N379 0.985 1_565 S
H386 N383 0.984 . S
H387 N383 0.985 . S
H388 N382 0.984 . S
H389 N382 0.984 . S
H390 N378 0.984 . S
H391 N378 0.985 . S
C392 C393 1.363 . S
C392 C398 1.379 . S
C392 N400 1.356 . S
C393 C392 1.363 . S
C393 C399 1.363 . S
C394 C395 1.363 . S
C394 C399 1.379 . S
C394 N401 1.356 . S
C395 C394 1.363 . S
C395 C398 1.363 . S
N396 C398 1.356 . S
N396 H408 0.984 . S
N396 H409 0.985 . S
N397 C399 1.356 . S
N397 H402 0.984 . S
N397 H403 0.985 . S
C398 C392 1.379 . S
C398 C395 1.363 . S
C398 N396 1.356 . S
C399 C393 1.363 . S
C399 C394 1.379 . S
C399 N397 1.356 . S
N400 C392 1.356 . S
N400 H406 0.984 . S
N400 H407 0.984 . S
N401 C394 1.356 . S
N401 H404 0.984 . S
N401 H405 0.985 . S
H402 N397 0.984 . S
H403 N397 0.985 . S
H404 N401 0.984 . S
H405 N401 0.985 . S
H406 N400 0.984 . S
H407 N400 0.984 . S
H408 N396 0.984 . S
H409 N396 0.985 . S
C410 C411 1.363 . S
C410 C416 1.379 . S
C410 N418 1.356 . S
C411 C410 1.363 . S
C411 C417 1.363 . S
C412 C413 1.363 . S
C412 C417 1.379 . S
C412 N419 1.356 . S
C413 C412 1.363 . S
C413 C416 1.363 . S
N414 C416 1.356 . S
N414 H426 0.984 . S
N414 H427 0.985 . S
N415 C417 1.356 . S
N415 H420 0.984 . S
N415 H421 0.985 . S
C416 C410 1.379 . S
C416 C413 1.363 . S
C416 N414 1.356 . S
C417 C411 1.363 . S
C417 C412 1.379 . S
C417 N415 1.356 . S
N418 C410 1.356 . S
N418 H424 0.984 . S
N418 H425 0.984 . S
N419 C412 1.356 . S
N419 H422 0.984 . S
N419 H423 0.985 . S
H420 N415 0.984 . S
H421 N415 0.985 . S
H422 N419 0.984 . S
H423 N419 0.985 . S
H424 N418 0.984 . S
H425 N418 0.984 . S
H426 N414 0.984 . S
H427 N414 0.985 . S
C428 C429 1.363 . S
C428 C434 1.379 . S
C428 N436 1.356 . S
C429 C428 1.363 . S
C429 C435 1.363 . S
C430 C431 1.363 . S
C430 C435 1.379 . S
C430 N437 1.356 . S
C431 C430 1.363 . S
C431 C434 1.363 . S
N432 C434 1.356 . S
N432 H444 0.984 . S
N432 H445 0.985 . S
N433 C435 1.356 . S
N433 H438 0.984 . S
N433 H439 0.985 . S
C434 C428 1.379 . S
C434 C431 1.363 . S
C434 N432 1.356 . S
C435 C429 1.363 . S
C435 C430 1.379 . S
C435 N433 1.356 . S
N436 C428 1.356 . S
N436 H442 0.984 . S
N436 H443 0.984 . S
N437 C430 1.356 . S
N437 H440 0.984 . S
N437 H441 0.985 . S
H438 N433 0.984 . S
H439 N433 0.985 . S
H440 N437 0.984 . S
H441 N437 0.985 . S
H442 N436 0.984 . S
H443 N436 0.984 . S
H444 N432 0.984 . S
H445 N432 0.985 . S
C446 C447 1.363 . S
C446 C452 1.379 . S
C446 N454 1.356 . S
C447 C446 1.363 . S
C447 C453 1.363 . S
C448 C449 1.363 . S
C448 C453 1.379 . S
C448 N455 1.356 . S
C449 C448 1.363 . S
C449 C452 1.363 . S
N450 C452 1.356 . S
N450 H462 0.984 . S
N450 H463 0.985 . S
N451 C453 1.356 . S
N451 H456 0.984 . S
N451 H457 0.985 . S
C452 C446 1.379 . S
C452 C449 1.363 . S
C452 N450 1.356 . S
C453 C447 1.363 . S
C453 C448 1.379 . S
C453 N451 1.356 . S
N454 C446 1.356 . S
N454 H460 0.984 . S
N454 H461 0.984 . S
N455 C448 1.356 . S
N455 H458 0.984 . S
N455 H459 0.985 . S
H456 N451 0.984 . S
H457 N451 0.985 . S
H458 N455 0.984 . S
H459 N455 0.985 . S
H460 N454 0.984 . S
H461 N454 0.984 . S
H462 N450 0.984 . S
H463 N450 0.985 . S
C464 C465 1.363 . S
C464 C470 1.379 . S
C464 N472 1.356 . S
C465 C464 1.363 . S
C465 C471 1.363 . S
C466 C467 1.363 . S
C466 C471 1.379 . S
C466 N473 1.356 . S
C467 C466 1.363 . S
C467 C470 1.363 . S
N468 C470 1.356 . S
N468 H480 0.984 . S
N468 H481 0.985 . S
N469 C471 1.356 . S
N469 H474 0.984 . S
N469 H475 0.985 . S
C470 C464 1.379 . S
C470 C467 1.363 . S
C470 N468 1.356 . S
C471 C465 1.363 . S
C471 C466 1.379 . S
C471 N469 1.356 . S
N472 C464 1.356 . S
N472 H478 0.984 . S
N472 H479 0.984 . S
N473 C466 1.356 . S
N473 H476 0.984 . S
N473 H477 0.985 . S
H474 N469 0.984 . S
H475 N469 0.985 . S
H476 N473 0.984 . S
H477 N473 0.985 . S
H478 N472 0.984 . S
H479 N472 0.984 . S
H480 N468 0.984 . S
H481 N468 0.985 . S
C482 C483 1.363 . S
C482 C488 1.379 . S
C482 N490 1.356 . S
C483 C482 1.363 . S
C483 C489 1.363 . S
C484 C485 1.363 . S
C484 C489 1.379 . S
C484 N491 1.356 1_554 S
C485 C484 1.363 . S
C485 C488 1.363 . S
N486 C488 1.356 . S
N486 H498 0.984 . S
N486 H499 0.985 . S
N487 C489 1.356 . S
N487 H492 0.984 . S
N487 H493 0.985 . S
C488 C482 1.379 . S
C488 C485 1.363 . S
C488 N486 1.356 . S
C489 C483 1.363 . S
C489 C484 1.379 . S
C489 N487 1.356 . S
N490 C482 1.356 . S
N490 H496 0.984 . S
N490 H497 0.984 . S
N491 C484 1.356 1_556 S
N491 H494 0.984 . S
N491 H495 0.985 . S
H492 N487 0.984 . S
H493 N487 0.985 . S
H494 N491 0.984 . S
H495 N491 0.985 . S
H496 N490 0.984 . S
H497 N490 0.984 . S
H498 N486 0.984 . S
H499 N486 0.985 . S
C500 C501 1.363 . S
C500 C506 1.379 . S
C500 N508 1.356 . S
C501 C500 1.363 . S
C501 C507 1.363 . S
C502 C503 1.363 . S
C502 C507 1.379 . S
C502 N509 1.356 . S
C503 C502 1.363 . S
C503 C506 1.363 . S
N504 C506 1.356 . S
N504 H516 0.984 . S
N504 H517 0.985 . S
N505 C507 1.356 . S
N505 H510 0.984 . S
N505 H511 0.985 . S
C506 C500 1.379 . S
C506 C503 1.363 . S
C506 N504 1.356 . S
C507 C501 1.363 . S
C507 C502 1.379 . S
C507 N505 1.356 . S
N508 C500 1.356 . S
N508 H514 0.984 . S
N508 H515 0.984 . S
N509 C502 1.356 . S
N509 H512 0.984 . S
N509 H513 0.985 . S
H510 N505 0.984 . S
H511 N505 0.985 . S
H512 N509 0.984 . S
H513 N509 0.985 . S
H514 N508 0.984 . S
H515 N508 0.984 . S
H516 N504 0.984 . S
H517 N504 0.985 . S
C518 C519 1.363 . S
C518 C524 1.379 . S
C518 N526 1.356 . S
C519 C518 1.363 . S
C519 C525 1.363 . S
C520 C521 1.363 . S
C520 C525 1.379 . S
C520 N527 1.356 . S
C521 C520 1.363 . S
C521 C524 1.363 . S
N522 C524 1.356 . S
N522 H534 0.984 . S
N522 H535 0.985 . S
N523 C525 1.356 . S
N523 H528 0.984 . S
N523 H529 0.985 . S
C524 C518 1.379 . S
C524 C521 1.363 . S
C524 N522 1.356 . S
C525 C519 1.363 . S
C525 C520 1.379 . S
C525 N523 1.356 . S
N526 C518 1.356 . S
N526 H532 0.984 . S
N526 H533 0.984 . S
N527 C520 1.356 . S
N527 H530 0.984 . S
N527 H531 0.985 . S
H528 N523 0.984 . S
H529 N523 0.985 . S
H530 N527 0.984 . S
H531 N527 0.985 . S
H532 N526 0.984 . S
H533 N526 0.984 . S
H534 N522 0.984 . S
H535 N522 0.985 . S
C536 C537 1.363 . S
C536 C542 1.379 . S
C536 N544 1.356 . S
C537 C536 1.363 . S
C537 C543 1.363 . S
C538 C539 1.363 . S
C538 C543 1.379 . S
C538 N545 1.356 . S
C539 C538 1.363 . S
C539 C542 1.363 . S
N540 C542 1.356 . S
N540 H552 0.984 . S
N540 H553 0.985 . S
N541 C543 1.356 . S
N541 H546 0.984 . S
N541 H547 0.985 . S
C542 C536 1.379 . S
C542 C539 1.363 . S
C542 N540 1.356 . S
C543 C537 1.363 . S
C543 C538 1.379 . S
C543 N541 1.356 . S
N544 C536 1.356 . S
N544 H550 0.984 . S
N544 H551 0.984 . S
N545 C538 1.356 . S
N545 H548 0.984 . S
N545 H549 0.985 . S
H546 N541 0.984 . S
H547 N541 0.985 . S
H548 N545 0.984 . S
H549 N545 0.985 . S
H550 N544 0.984 . S
H551 N544 0.984 . S
H552 N540 0.984 . S
H553 N540 0.985 . S
C554 C555 1.363 . S
C554 C560 1.379 . S
C554 N562 1.356 . S
C555 C554 1.363 . S
C555 C561 1.363 . S
C556 C557 1.363 . S
C556 C561 1.379 . S
C556 N563 1.356 . S
C557 C556 1.363 . S
C557 C560 1.363 . S
N558 C560 1.356 . S
N558 H570 0.984 . S
N558 H571 0.985 . S
N559 C561 1.356 1_554 S
N559 H564 0.984 . S
N559 H565 0.985 . S
C560 C554 1.379 . S
C560 C557 1.363 . S
C560 N558 1.356 . S
C561 C555 1.363 . S
C561 C556 1.379 . S
C561 N559 1.356 1_556 S
N562 C554 1.356 . S
N562 H568 0.984 . S
N562 H569 0.984 . S
N563 C556 1.356 . S
N563 H566 0.984 . S
N563 H567 0.985 . S
H564 N559 0.984 . S
H565 N559 0.985 . S
H566 N563 0.984 . S
H567 N563 0.985 . S
H568 N562 0.984 . S
H569 N562 0.984 . S
H570 N558 0.984 . S
H571 N558 0.985 . S
C572 C573 1.363 . S
C572 C578 1.379 . S
C572 N580 1.356 . S
C573 C572 1.363 . S
C573 C579 1.363 . S
C574 C575 1.363 . S
C574 C579 1.379 . S
C574 N581 1.356 . S
C575 C574 1.363 . S
C575 C578 1.363 . S
N576 C578 1.356 . S
N576 H588 0.984 . S
N576 H589 0.985 . S
N577 C579 1.356 . S
N577 H582 0.984 . S
N577 H583 0.985 . S
C578 C572 1.379 . S
C578 C575 1.363 . S
C578 N576 1.356 . S
C579 C573 1.363 . S
C579 C574 1.379 . S
C579 N577 1.356 . S
N580 C572 1.356 . S
N580 H586 0.984 . S
N580 H587 0.984 . S
N581 C574 1.356 . S
N581 H584 0.984 . S
N581 H585 0.985 . S
H582 N577 0.984 . S
H583 N577 0.985 . S
H584 N581 0.984 . S
H585 N581 0.985 . S
H586 N580 0.984 . S
H587 N580 0.984 . S
H588 N576 0.984 . S
H589 N576 0.985 . S
C590 C591 1.363 . S
C590 C596 1.379 . S
C590 N598 1.356 . S
C591 C590 1.363 . S
C591 C597 1.363 . S
C592 C593 1.363 . S
C592 C597 1.379 . S
C592 N599 1.356 . S
C593 C592 1.363 . S
C593 C596 1.363 . S
N594 C596 1.356 . S
N594 H606 0.984 . S
N594 H607 0.985 . S
N595 C597 1.356 . S
N595 H600 0.984 . S
N595 H601 0.985 . S
C596 C590 1.379 . S
C596 C593 1.363 . S
C596 N594 1.356 . S
C597 C591 1.363 . S
C597 C592 1.379 . S
C597 N595 1.356 . S
N598 C590 1.356 . S
N598 H604 0.984 . S
N598 H605 0.984 . S
N599 C592 1.356 . S
N599 H602 0.984 . S
N599 H603 0.985 . S
H600 N595 0.984 . S
H601 N595 0.985 . S
H602 N599 0.984 . S
H603 N599 0.985 . S
H604 N598 0.984 . S
H605 N598 0.984 . S
H606 N594 0.984 . S
H607 N594 0.985 . S
C608 C609 1.363 1_565 S
C608 C614 1.379 . S
C608 N616 1.356 . S
C609 C608 1.363 1_545 S
C609 C615 1.363 1_656 S
C610 C611 1.363 1_545 S
C610 C615 1.379 . S
C610 N617 1.356 . S
C611 C610 1.363 1_565 S
C611 C614 1.363 1_454 S
N612 C614 1.356 1_554 S
N612 H624 0.984 1_554 S
N612 H625 0.985 1_655 S
N613 C615 1.356 1_556 S
N613 H618 0.984 1_455 S
N613 H619 0.985 1_556 S
C614 C608 1.379 . S
C614 C611 1.363 1_656 S
C614 N612 1.356 1_556 S
C615 C609 1.363 1_454 S
C615 C610 1.379 . S
C615 N613 1.356 1_554 S
N616 C608 1.356 . S
N616 H622 0.984 . S
N616 H623 0.984 . S
N617 C610 1.356 . S
N617 H620 0.984 . S
N617 H621 0.985 . S
H618 N613 0.984 1_655 S
H619 N613 0.985 1_554 S
H620 N617 0.984 . S
H621 N617 0.985 . S
H622 N616 0.984 . S
H623 N616 0.984 . S
H624 N612 0.984 1_556 S
H625 N612 0.985 1_455 S
C626 C627 1.363 . S
C626 C632 1.379 . S
C626 N634 1.356 . S
C627 C626 1.363 . S
C627 C633 1.363 . S
C628 C629 1.363 . S
C628 C633 1.379 . S
C628 N635 1.356 . S
C629 C628 1.363 . S
C629 C632 1.363 . S
N630 C632 1.356 . S
N630 H642 0.984 . S
N630 H643 0.985 . S
N631 C633 1.356 . S
N631 H636 0.984 . S
N631 H637 0.985 . S
C632 C626 1.379 . S
C632 C629 1.363 . S
C632 N630 1.356 . S
C633 C627 1.363 . S
C633 C628 1.379 . S
C633 N631 1.356 . S
N634 C626 1.356 . S
N634 H640 0.984 . S
N634 H641 0.984 . S
N635 C628 1.356 . S
N635 H638 0.984 . S
N635 H639 0.985 . S
H636 N631 0.984 . S
H637 N631 0.985 . S
H638 N635 0.984 . S
H639 N635 0.985 . S
H640 N634 0.984 . S
H641 N634 0.984 . S
H642 N630 0.984 . S
H643 N630 0.985 . S
C644 C645 1.363 . S
C644 C650 1.379 . S
C644 N652 1.356 . S
C645 C644 1.363 . S
C645 C651 1.363 1_545 S
C646 C647 1.363 . S
C646 C651 1.379 . S
C646 N653 1.356 . S
C647 C646 1.363 . S
C647 C650 1.363 1_565 S
N648 C650 1.356 . S
N648 H660 0.984 . S
N648 H661 0.985 . S
N649 C651 1.356 . S
N649 H654 0.984 . S
N649 H655 0.985 . S
C650 C644 1.379 . S
C650 C647 1.363 1_545 S
C650 N648 1.356 . S
C651 C645 1.363 1_565 S
C651 C646 1.379 . S
C651 N649 1.356 . S
N652 C644 1.356 . S
N652 H658 0.984 . S
N652 H659 0.984 . S
N653 C646 1.356 . S
N653 H656 0.984 . S
N653 H657 0.985 . S
H654 N649 0.984 . S
H655 N649 0.985 . S
H656 N653 0.984 . S
H657 N653 0.985 . S
H658 N652 0.984 . S
H659 N652 0.984 . S
H660 N648 0.984 . S
H661 N648 0.985 . S
C662 C663 1.363 . S
C662 C668 1.379 . S
C662 N670 1.356 . S
C663 C662 1.363 . S
C663 C669 1.363 . S
C664 C665 1.363 . S
C664 C669 1.379 . S
C664 N671 1.356 . S
C665 C664 1.363 . S
C665 C668 1.363 . S
N666 C668 1.356 . S
N666 H678 0.984 . S
N666 H679 0.985 . S
N667 C669 1.356 . S
N667 H672 0.984 . S
N667 H673 0.985 . S
C668 C662 1.379 . S
C668 C665 1.363 . S
C668 N666 1.356 . S
C669 C663 1.363 . S
C669 C664 1.379 . S
C669 N667 1.356 . S
N670 C662 1.356 . S
N670 H676 0.984 . S
N670 H677 0.984 . S
N671 C664 1.356 . S
N671 H674 0.984 . S
N671 H675 0.985 . S
H672 N667 0.984 . S
H673 N667 0.985 . S
H674 N671 0.984 . S
H675 N671 0.985 . S
H676 N670 0.984 . S
H677 N670 0.984 . S
H678 N666 0.984 . S
H679 N666 0.985 . S
C680 C681 1.363 . S
C680 C686 1.379 . S
C680 N688 1.356 . S
C681 C680 1.363 . S
C681 C687 1.363 . S
C682 C683 1.363 . S
C682 C687 1.379 . S
C682 N689 1.356 . S
C683 C682 1.363 . S
C683 C686 1.363 . S
N684 C686 1.356 . S
N684 H696 0.984 . S
N684 H697 0.985 . S
N685 C687 1.356 . S
N685 H690 0.984 . S
N685 H691 0.985 . S
C686 C680 1.379 . S
C686 C683 1.363 . S
C686 N684 1.356 . S
C687 C681 1.363 . S
C687 C682 1.379 . S
C687 N685 1.356 . S
N688 C680 1.356 . S
N688 H694 0.984 . S
N688 H695 0.984 . S
N689 C682 1.356 . S
N689 H692 0.984 . S
N689 H693 0.985 . S
H690 N685 0.984 . S
H691 N685 0.985 . S
H692 N689 0.984 . S
H693 N689 0.985 . S
H694 N688 0.984 . S
H695 N688 0.984 . S
H696 N684 0.984 . S
H697 N684 0.985 . S
C698 C699 1.363 . S
C698 C704 1.379 . S
C698 N706 1.356 . S
C699 C698 1.363 . S
C699 C705 1.363 . S
C700 C701 1.363 . S
C700 C705 1.379 . S
C700 N707 1.356 . S
C701 C700 1.363 . S
C701 C704 1.363 . S
N702 C704 1.356 . S
N702 H714 0.984 . S
N702 H715 0.985 . S
N703 C705 1.356 . S
N703 H708 0.984 . S
N703 H709 0.985 . S
C704 C698 1.379 . S
C704 C701 1.363 . S
C704 N702 1.356 . S
C705 C699 1.363 . S
C705 C700 1.379 . S
C705 N703 1.356 . S
N706 C698 1.356 . S
N706 H712 0.984 . S
N706 H713 0.984 . S
N707 C700 1.356 . S
N707 H710 0.984 . S
N707 H711 0.985 . S
H708 N703 0.984 . S
H709 N703 0.985 . S
H710 N707 0.984 . S
H711 N707 0.985 . S
H712 N706 0.984 . S
H713 N706 0.984 . S
H714 N702 0.984 . S
H715 N702 0.985 . S
C716 C717 1.363 . S
C716 C722 1.379 . S
C716 N724 1.356 . S
C717 C716 1.363 . S
C717 C723 1.363 . S
C718 C719 1.363 . S
C718 C723 1.379 . S
C718 N725 1.356 . S
C719 C718 1.363 . S
C719 C722 1.363 . S
N720 C722 1.356 . S
N720 H732 0.984 . S
N720 H733 0.985 . S
N721 C723 1.356 . S
N721 H726 0.984 . S
N721 H727 0.985 . S
C722 C716 1.379 . S
C722 C719 1.363 . S
C722 N720 1.356 . S
C723 C717 1.363 . S
C723 C718 1.379 . S
C723 N721 1.356 . S
N724 C716 1.356 . S
N724 H730 0.984 . S
N724 H731 0.984 . S
N725 C718 1.356 . S
N725 H728 0.984 . S
N725 H729 0.985 . S
H726 N721 0.984 . S
H727 N721 0.985 . S
H728 N725 0.984 . S
H729 N725 0.985 . S
H730 N724 0.984 . S
H731 N724 0.984 . S
H732 N720 0.984 . S
H733 N720 0.985 . S
C734 C735 1.363 . S
C734 C740 1.379 1_556 S
C734 N742 1.356 . S
C735 C734 1.363 . S
C735 C741 1.363 1_655 S
C736 C737 1.363 . S
C736 C741 1.379 1_554 S
C736 N743 1.356 . S
C737 C736 1.363 . S
C737 C740 1.363 1_455 S
N738 C740 1.356 . S
N738 H750 0.984 . S
N738 H751 0.985 1_655 S
N739 C741 1.356 . S
N739 H744 0.984 1_455 S
N739 H745 0.985 . S
C740 C734 1.379 1_554 S
C740 C737 1.363 1_655 S
C740 N738 1.356 . S
C741 C735 1.363 1_455 S
C741 C736 1.379 1_556 S
C741 N739 1.356 . S
N742 C734 1.356 . S
N742 H748 0.984 . S
N742 H749 0.984 . S
N743 C736 1.356 . S
N743 H746 0.984 . S
N743 H747 0.985 . S
H744 N739 0.984 1_655 S
H745 N739 0.985 . S
H746 N743 0.984 . S
H747 N743 0.985 . S
H748 N742 0.984 . S
H749 N742 0.984 . S
H750 N738 0.984 . S
H751 N738 0.985 1_455 S
C321 C19 1.917 . S
C323 C139 1.915 . S
C339 C18 1.549 . S
C341 C59 1.585 . S
C357 C58 1.151 . S
C359 C98 1.153 . S
C375 C99 1.585 . S
C377 C138 1.546 . S
C393 C9 1.917 . S
C395 C209 1.920 . S
C411 C8 1.549 . S
C413 C169 1.585 . S
C429 C168 1.151 . S
C431 C88 1.150 . S
C447 C208 1.549 . S
C449 C89 1.587 . S
C465 C259 1.917 . S
C467 C219 1.919 . S
C483 C179 1.585 . S
C485 C258 1.548 . S
C501 C298 1.151 . S
C503 C178 1.152 . S
C519 C218 1.549 . S
C521 C299 1.586 . S
C537 C129 1.917 . S
C539 C249 1.916 . S
C555 C248 1.549 . S
C557 C49 1.586 . S
C573 C48 1.151 . S
C575 C288 1.150 . S
C591 C128 1.549 . S
C593 C289 1.584 . S
C609 C5 1.734 . S
C611 C15 1.734 . S
C627 C55 1.416 . S
C629 C45 1.416 . S
C645 C85 1.416 . S
C647 C95 1.416 . S
C663 C125 1.734 . S
C665 C135 1.734 . S
C681 C175 1.416 . S
C683 C165 1.416 . S
C699 C205 1.734 . S
C701 C215 1.734 . S
C717 C255 1.734 . S
C719 C245 1.734 . S
C735 C295 1.416 . S
C737 C285 1.416 . S
