# Generated by pormake.
# Topology tfs, (6)-cn, num edge types: 1
# Building blocks:
#     Node 0, Type 0, BuildingBlock: PAMTOO_clean_sbu_0, # of connection points: 6
#     Node 1, Type 0, BuildingBlock: PAMTOO_clean_sbu_0, # of connection points: 6
#     Node 2, Type 0, BuildingBlock: PAMTOO_clean_sbu_0, # of connection points: 6
#     Node 3, Type 0, BuildingBlock: PAMTOO_clean_sbu_0, # of connection points: 6
#     Node 4, Type 0, BuildingBlock: PAMTOO_clean_sbu_0, # of connection points: 6
#     Node 5, Type 0, BuildingBlock: PAMTOO_clean_sbu_0, # of connection points: 6
#     Edge 6, Type (0, 0), BuildingBlock: FUNLAD_clean_linker_0, # of connection points: 2
#     Edge 7, Type (0, 0), BuildingBlock: FUNLAD_clean_linker_0, # of connection points: 2
#     Edge 8, Type (0, 0), BuildingBlock: FUNLAD_clean_linker_0, # of connection points: 2
#     Edge 9, Type (0, 0), BuildingBlock: FUNLAD_clean_linker_0, # of connection points: 2
#     Edge 10, Type (0, 0), BuildingBlock: FUNLAD_clean_linker_0, # of connection points: 2
#     Edge 11, Type (0, 0), BuildingBlock: FUNLAD_clean_linker_0, # of connection points: 2
#     Edge 12, Type (0, 0), BuildingBlock: FUNLAD_clean_linker_0, # of connection points: 2
#     Edge 13, Type (0, 0), BuildingBlock: FUNLAD_clean_linker_0, # of connection points: 2
#     Edge 14, Type (0, 0), BuildingBlock: FUNLAD_clean_linker_0, # of connection points: 2
#     Edge 15, Type (0, 0), BuildingBlock: FUNLAD_clean_linker_0, # of connection points: 2
#     Edge 16, Type (0, 0), BuildingBlock: FUNLAD_clean_linker_0, # of connection points: 2
#     Edge 17, Type (0, 0), BuildingBlock: FUNLAD_clean_linker_0, # of connection points: 2
#     Edge 18, Type (0, 0), BuildingBlock: FUNLAD_clean_linker_0, # of connection points: 2
#     Edge 19, Type (0, 0), BuildingBlock: FUNLAD_clean_linker_0, # of connection points: 2
#     Edge 20, Type (0, 0), BuildingBlock: FUNLAD_clean_linker_0, # of connection points: 2
#     Edge 21, Type (0, 0), BuildingBlock: FUNLAD_clean_linker_0, # of connection points: 2
#     Edge 22, Type (0, 0), BuildingBlock: FUNLAD_clean_linker_0, # of connection points: 2
#     Edge 23, Type (0, 0), BuildingBlock: FUNLAD_clean_linker_0, # of connection points: 2
# Relax obj value: 0.541
# Max RMSD: 0.440
# Mean RMSD: 0.335
data_MOF--net-tfs--node1-PAMTOO_clean_sbu_0--edge1-FUNLAD_clean_linker_0
_symmetry_space_group_name_H-M    P1
_symmetry_Int_Tables_number       1
_symmetry_cell_setting            triclinic
loop_
_symmetry_equiv_pos_as_xyz
'x, y, z'
_cell_length_a     59.053757
_cell_length_b     52.194625
_cell_length_c     15.39545
_cell_angle_alpha  101.71711
_cell_angle_beta   98.434489
_cell_angle_gamma 122.09112
loop_
_atom_site_label
_atom_site_type_symbol
_atom_site_fract_x
_atom_site_fract_y
_atom_site_fract_z
_atom_type_partial_charge
Dy0 Dy 0.309 0.51864 0.57861 0.0
Dy1 Dy 0.31912 0.46317 0.47613 0.0
C2 C 0.29218 0.48995 0.36001 0.0
O3 O 0.26752 0.47141 0.54326 0.0
O4 O 0.27266 0.43382 0.45704 0.0
O5 O 0.30997 0.56136 0.59921 0.0
O6 O 0.29788 0.53455 0.69523 0.0
O7 O 0.31019 0.45514 0.60634 0.0
O8 O 0.3328 0.50788 0.67112 0.0
O9 O 0.36114 0.51112 0.5368 0.0
O10 O 0.34921 0.54677 0.54536 0.0
O11 O 0.345 0.44591 0.4841 0.0
O12 O 0.31047 0.42509 0.35789 0.0
C13 C 0.25728 0.4418 0.49253 0.0
O14 O 0.28537 0.50025 0.42941 0.0
O15 O 0.31076 0.48324 0.37115 0.0
C16 C 0.31762 0.59003 0.75455 0.0
C17 C 0.34112 0.64921 0.89409 0.0
C18 C 0.35607 0.64623 0.83404 0.0
C19 C 0.3444 0.61685 0.76474 0.0
C20 C 0.30333 0.59255 0.81711 0.0
C21 C 0.31491 0.62179 0.88614 0.0
C22 C 0.30295 0.55993 0.67568 0.0
C23 C 0.31881 0.47945 0.67922 0.0
C24 C 0.36764 0.53992 0.54273 0.0
C25 C 0.32469 0.39227 0.39166 0.0
C26 C 0.3227 0.33628 0.37658 0.0
C27 C 0.32233 0.35308 0.45977 0.0
C28 C 0.32328 0.38085 0.46725 0.0
C29 C 0.32358 0.37466 0.30733 0.0
C30 C 0.32257 0.34694 0.29971 0.0
C31 C 0.33051 0.42403 0.40151 0.0
H32 H 0.37646 0.66678 0.83913 0.0
H33 H 0.35593 0.61538 0.71761 0.0
H34 H 0.28262 0.57212 0.81026 0.0
H35 H 0.3026 0.62322 0.93007 0.0
H36 H 0.32209 0.34527 0.51985 0.0
H37 H 0.32399 0.394 0.53303 0.0
H38 H 0.32481 0.38319 0.24842 0.0
H39 H 0.32325 0.3349 0.23504 0.0
Dy40 Dy 0.78501 0.13452 0.24891 0.0
Dy41 Dy 0.85546 0.17465 0.28403 0.0
C42 C 0.81279 0.13996 0.08936 0.0
O43 O 0.79548 0.09919 0.24159 0.0
O44 O 0.84136 0.13226 0.33519 0.0
O45 O 0.74219 0.09573 0.16543 0.0
O46 O 0.75084 0.12604 0.3028 0.0
O47 O 0.85034 0.20093 0.40195 0.0
O48 O 0.80824 0.15785 0.40129 0.0
O49 O 0.84415 0.20657 0.24213 0.0
O50 O 0.7982 0.18299 0.24611 0.0
O51 O 0.8978 0.19456 0.36833 0.0
O52 O 0.8899 0.19628 0.22646 0.0
C53 C 0.81723 0.10356 0.29706 0.0
O54 O 0.79337 0.14122 0.11696 0.0
O55 O 0.82959 0.13701 0.14518 0.0
C56 C 0.70695 0.10256 0.19337 0.0
C57 C 0.65947 0.10341 0.14336 0.0
C58 C 0.68594 0.12865 0.14376 0.0
C59 C 0.70955 0.12829 0.16898 0.0
C60 C 0.6805 0.07698 0.19035 0.0
C61 C 0.65699 0.07739 0.16574 0.0
C62 C 0.73156 0.10255 0.22729 0.0
C63 C 0.83099 0.18736 0.4419 0.0
C64 C 0.82146 0.20639 0.23691 0.0
C65 C 0.93886 0.2209 0.31221 0.0
C66 C 0.99762 0.25907 0.33841 0.0
C67 C 0.98694 0.24456 0.40406 0.0
C68 C 0.95793 0.22583 0.39132 0.0
C69 C 0.94945 0.23444 0.24503 0.0
C70 C 0.97841 0.25332 0.25805 0.0
C71 C 0.90842 0.20393 0.30283 0.0
H72 H 0.68855 0.14911 0.12746 0.0
H73 H 0.72988 0.14832 0.17127 0.0
H74 H 0.6781 0.05689 0.20879 0.0
H75 H 0.63687 0.0574 0.16483 0.0
H76 H 1.00108 0.24864 0.46707 0.0
H77 H 0.95049 0.21584 0.44458 0.0
H78 H 0.93539 0.23118 0.18331 0.0
H79 H 0.9858 0.26371 0.20539 0.0
Dy80 Dy 0.64592 0.83779 0.54835 0.0
Dy81 Dy 0.65712 0.78165 0.46735 0.0
C82 C 0.6815 0.82353 0.67991 0.0
O83 O 0.68993 0.86419 0.54325 0.0
O84 O 0.68836 0.82539 0.43436 0.0
O85 O 0.66239 0.88482 0.64043 0.0
O86 O 0.62021 0.85564 0.54352 0.0
O87 O 0.62194 0.77624 0.37097 0.0
O88 O 0.64015 0.82819 0.39664 0.0
O89 O 0.61994 0.75715 0.52057 0.0
O90 O 0.60648 0.7917 0.53625 0.0
O91 O 0.66325 0.75571 0.35457 0.0
O92 O 0.65842 0.74197 0.47827 0.0
C93 C 0.69983 0.85583 0.48081 0.0
O94 O 0.66127 0.82762 0.66819 0.0
O95 O 0.68713 0.81141 0.61003 0.0
C96 C 0.62934 0.89129 0.68743 0.0
C97 C 0.61334 0.9115 0.83546 0.0
C98 C 0.61235 0.88336 0.82061 0.0
C99 C 0.62037 0.87336 0.74713 0.0
C100 C 0.63032 0.91925 0.70179 0.0
C101 C 0.62238 0.92929 0.77513 0.0
C102 C 0.63906 0.88212 0.61278 0.0
C103 C 0.62808 0.79939 0.33749 0.0
C104 C 0.60188 0.76396 0.53426 0.0
C105 C 0.68236 0.72691 0.39109 0.0
C106 C 0.70962 0.69598 0.36375 0.0
C107 C 0.70002 0.70388 0.29133 0.0
C108 C 0.68646 0.71902 0.30476 0.0
C109 C 0.69327 0.7206 0.46502 0.0
C110 C 0.70676 0.70538 0.45154 0.0
C111 C 0.663 0.73661 0.39835 0.0
H112 H 0.60564 0.86927 0.86623 0.0
H113 H 0.61977 0.85182 0.73722 0.0
H114 H 0.63732 0.93338 0.65637 0.0
H115 H 0.62287 0.95071 0.78363 0.0
H116 H 0.70228 0.69755 0.22324 0.0
H117 H 0.67809 0.72329 0.24621 0.0
H118 H 0.69026 0.72601 0.53229 0.0
H119 H 0.71361 0.69948 0.50877 0.0
Dy120 Dy 0.7843 0.46147 0.11652 0.0
Dy121 Dy 0.84796 0.51349 0.2684 0.0
C122 C 0.7979 0.45191 0.31048 0.0
O123 O 0.77969 0.49568 0.21186 0.0
O124 O 0.82635 0.53841 0.26811 0.0
O125 O 0.73916 0.42941 0.05447 0.0
O126 O 0.76652 0.44567 0.96809 0.0
O127 O 0.85089 0.5088 0.12398 0.0
O128 O 0.81269 0.50722 0.09393 0.0
O129 O 0.84466 0.46798 0.23693 0.0
O130 O 0.80658 0.4372 0.10275 0.0
O131 O 0.89292 0.54155 0.29891 0.0
O132 O 0.87451 0.54784 0.40632 0.0
C133 C 0.79955 0.52644 0.25521 0.0
O134 O 0.77949 0.43981 0.2282 0.0
O135 O 0.82299 0.47949 0.33923 0.0
C136 C 0.72374 0.39461 0.89816 0.0
C137 C 0.68752 0.33437 0.75546 0.0
C138 C 0.68922 0.33699 0.84946 0.0
C139 C 0.70716 0.36679 0.92013 0.0
C140 C 0.72295 0.39192 0.8049 0.0
C141 C 0.70508 0.3621 0.73423 0.0
C142 C 0.74089 0.42678 0.96968 0.0
C143 C 0.83316 0.50963 0.06611 0.0
C144 C 0.82785 0.44182 0.1635 0.0
C145 C 0.91593 0.59378 0.40534 0.0
C146 C 0.95358 0.66065 0.45135 0.0
C147 C 0.93587 0.6414 0.35954 0.0
C148 C 0.91702 0.6082 0.33679 0.0
C149 C 0.93293 0.61302 0.49737 0.0
C150 C 0.95156 0.64619 0.52032 0.0
C151 C 0.89735 0.55881 0.38209 0.0
H152 H 0.67565 0.31624 0.86828 0.0
H153 H 0.70737 0.36811 -0.00861 0.0
H154 H 0.73564 0.41307 0.78632 0.0
H155 H 0.70448 0.36089 0.66277 0.0
H156 H 0.93694 0.65196 0.30521 0.0
H157 H 0.90371 0.59377 0.26543 0.0
H158 H 0.93221 0.6023 0.55118 0.0
H159 H 0.96524 0.66035 0.59137 0.0
Dy160 Dy 0.37118 0.96053 0.15379 0.0
Dy161 Dy 0.30621 0.89375 0.05903 0.0
C162 C 0.34984 0.91421 0.94472 0.0
O163 O 0.346 0.97596 0.09002 0.0
O164 O 0.30692 0.92704 -0.01203 0.0
O165 O 0.40614 1.00724 0.1622 0.0
O166 O 0.40954 0.98673 0.26821 0.0
O167 O 0.30366 0.92792 0.16241 0.0
O168 O 0.34857 0.95592 0.25865 0.0
O169 O 0.33093 0.88463 0.15618 0.0
O170 O 0.37332 0.91853 0.13771 0.0
O171 O 0.26711 0.85846 0.07676 0.0
O172 O 0.27322 0.8527 0.94058 0.0
C173 C 0.32341 0.95851 0.01646 0.0
O174 O 0.36636 0.94353 0.00442 0.0
O175 O 0.33053 0.89013 0.96529 0.0
C176 C 0.4483 1.0122 0.21477 0.0
C177 C 0.49199 1.00704 0.18755 0.0
C178 C 0.46903 0.99596 0.11132 0.0
C179 C 0.44732 0.99832 0.12481 0.0
C180 C 0.47196 1.02506 0.29042 0.0
C181 C 0.49375 1.02259 0.27691 0.0
C182 C 0.42303 1.00864 0.23103 0.0
C183 C 0.32258 0.9469 0.24377 0.0
C184 C 0.35611 0.89271 0.1563 0.0
C185 C 0.2289 0.83854 0.94573 0.0
C186 C 0.18011 0.83145 0.85337 0.0
C187 C 0.20174 0.86031 0.92438 0.0
C188 C 0.22607 0.86393 0.96976 0.0
C189 C 0.20728 0.80965 0.87566 0.0
C190 C 0.18307 0.80612 0.82974 0.0
C191 C 0.25528 0.84304 -0.01277 0.0
H192 H 0.46741 0.98448 0.0414 0.0
H193 H 0.42922 0.98799 0.06525 0.0
H194 H 0.47292 0.03555 0.36042 0.0
H195 H 0.51119 0.03129 0.33686 0.0
H196 H 0.20004 0.88024 0.94351 0.0
H197 H 0.24285 0.88668 0.02257 0.0
H198 H 0.2093 0.79 0.85557 0.0
H199 H 0.16654 0.78345 0.77613 0.0
Dy200 Dy 0.43846 0.15945 0.07188 0.0
Dy201 Dy 0.3928 0.09302 0.10567 0.0
C202 C 0.38704 0.09996 0.91299 0.0
O203 O 0.41853 0.17432 0.1617 0.0
O204 O 0.37718 0.1243 0.11981 0.0
O205 O 0.44379 0.19337 0.00221 0.0
O206 O 0.47995 0.19633 0.07387 0.0
O207 O 0.41917 0.12869 0.24622 0.0
O208 O 0.45856 0.16808 0.21887 0.0
O209 O 0.43122 0.09375 0.11268 0.0
O210 O 0.44755 0.12378 0.01841 0.0
O211 O 0.38132 0.054 0.15847 0.0
O212 O 0.34888 0.05573 0.07921 0.0
C213 C 0.39203 0.15579 0.15721 0.0
O214 O 0.3968 0.12913 0.96256 0.0
O215 O 0.38895 0.08171 0.9554 0.0
C216 C 0.479 0.20536 0.93121 0.0
C217 C 0.49731 0.20424 0.77259 0.0
C218 C 0.47984 0.17558 0.78996 0.0
C219 C 0.47058 0.17611 0.86819 0.0
C220 C 0.49608 0.23394 0.91403 0.0
C221 C 0.50515 0.23342 0.83524 0.0
C222 C 0.47041 0.20588 0.01567 0.0
C223 C 0.44545 0.15382 0.27428 0.0
C224 C 0.44802 0.10484 0.06209 0.0
C225 C 0.34083 0.03707 0.20621 0.0
C226 C 0.31401 1.02691 0.3456 0.0
C227 C 0.34321 0.04983 0.36918 0.0
C228 C 0.35641 0.05503 0.30036 0.0
C229 C 0.31174 1.01429 0.18183 0.0
C230 C 0.29839 1.00929 0.25086 0.0
C231 C 0.35469 0.04239 0.13331 0.0
H232 H 0.47325 0.1527 0.74303 0.0
H233 H 0.45714 0.15374 0.88021 0.0
H234 H 0.50277 0.25669 0.96223 0.0
H235 H 0.51906 0.25602 0.82517 0.0
H236 H 0.35615 0.0632 0.44118 0.0
H237 H 0.37891 0.07292 0.32113 0.0
H238 H 0.29934 1.00037 0.1094 0.0
H239 H 0.2759 0.99161 0.22989 0.0
C240 C 0.3947 0.20403 0.24201 0.0
C241 C 0.37842 0.17099 0.19185 0.0
C242 C 0.38199 0.219 0.27051 0.0
C243 C 0.3526 0.20123 0.24991 0.0
C244 C 0.33634 0.16812 0.20092 0.0
C245 C 0.3491 0.15307 0.1728 0.0
C246 C 0.33835 0.21713 0.27103 0.0
C247 C 0.35092 0.24522 0.34042 0.0
C248 C 0.33962 0.26486 0.35287 0.0
C249 C 0.35211 0.29067 0.43632 0.0
C250 C 0.34541 0.31284 0.44599 0.0
C251 C 0.32609 0.30981 0.37205 0.0
H252 H 0.3093 0.24175 0.2144 0.0
C253 C 0.31246 0.28307 0.29029 0.0
C254 C 0.31918 0.26088 0.28053 0.0
H255 H 0.29728 0.27988 0.23238 0.0
H256 H 0.41734 0.21858 0.258 0.0
H257 H 0.39528 0.24472 0.30547 0.0
H258 H 0.31365 0.15392 0.18329 0.0
H259 H 0.33593 0.12757 0.13419 0.0
H260 H 0.3171 0.20538 0.22684 0.0
H261 H 0.37108 0.25507 0.38946 0.0
H262 H 0.36801 0.29448 0.49305 0.0
H263 H 0.35657 0.33334 0.50954 0.0
C264 C 0.20991 0.42474 0.50929 0.0
C265 C 0.2269 0.41651 0.47525 0.0
C266 C 0.18125 0.40147 0.49189 0.0
C267 C 0.16862 0.36917 0.43973 0.0
C268 C 0.18569 0.36075 0.40782 0.0
C269 C 0.21441 0.38411 0.42476 0.0
C270 C 0.13798 0.34375 0.41957 0.0
C271 C 0.11836 0.34991 0.41288 0.0
C272 C 0.08751 0.32523 0.39134 0.0
C273 C 0.0688 0.33205 0.35524 0.0
C274 C 1.03982 0.31045 0.33705 0.0
C275 C 1.02861 0.28143 0.35555 0.0
H276 H 0.09006 0.29021 0.43947 0.0
C277 C 0.04729 0.27457 0.39233 0.0
C278 C 0.07639 0.29613 0.40973 0.0
H279 H 1.03941 0.25245 0.40741 0.0
H280 H 0.21869 0.4493 0.54951 0.0
H281 H 0.16919 0.40891 0.52069 0.0
H282 H 0.1767 0.33603 0.36845 0.0
H283 H 0.22677 0.37673 0.39802 0.0
H284 H 0.13138 0.31914 0.40506 0.0
H285 H 0.12491 0.37415 0.41913 0.0
H286 H 0.07664 0.35435 0.3412 0.0
H287 H 1.02622 0.31688 0.31032 0.0
C288 C 0.78985 0.04407 0.26273 0.0
C289 C 0.81293 0.07516 0.32004 0.0
C290 C 0.78262 1.01726 0.28937 0.0
C291 C 0.7983 1.02066 0.37448 0.0
C292 C 0.82205 0.0516 0.43016 0.0
C293 C 0.82943 0.07852 0.40302 0.0
C294 C 0.78872 0.99333 0.41171 0.0
C295 C 0.77025 0.96191 0.35875 0.0
C296 C 0.75642 0.93493 0.39703 0.0
C297 C 0.74221 0.903 0.33754 0.0
C298 C 0.7255 0.87695 0.36678 0.0
C299 C 0.72221 0.88225 0.45582 0.0
H300 H 0.76438 0.96398 0.53612 0.0
C301 C 0.73758 0.91412 0.51688 0.0
C302 C 0.7544 0.94005 0.4881 0.0
H303 H 0.7356 0.91918 0.58609 0.0
H304 H 0.77662 0.04047 0.19818 0.0
H305 H 0.76385 0.99424 0.24494 0.0
H306 H 0.83448 0.05514 0.49643 0.0
H307 H 0.84719 0.10207 0.4492 0.0
H308 H 0.7968 0.99972 0.48645 0.0
H309 H 0.76414 0.95539 0.28342 0.0
H310 H 0.74318 0.89815 0.26684 0.0
H311 H 0.71392 0.8528 0.31779 0.0
C312 C 0.76309 0.53769 0.25896 0.0
C313 C 0.79148 0.54884 0.28208 0.0
C314 C 0.75562 0.5591 0.27922 0.0
C315 C 0.7764 0.5923 0.32293 0.0
C316 C 0.80469 0.60326 0.34859 0.0
C317 C 0.81217 0.58189 0.32806 0.0
C318 C 0.76943 0.61609 0.34442 0.0
C319 C 0.74558 0.61111 0.29639 0.0
C320 C 0.73819 0.6346 0.31498 0.0
C321 C 0.71638 0.62978 0.24692 0.0
C322 C 0.70767 0.65009 0.26195 0.0
C323 C 0.72047 0.67587 0.34591 0.0
H324 H 0.76775 0.66497 0.45429 0.0
C325 C 0.74251 0.68096 0.41399 0.0
C326 C 0.75125 0.66058 0.39893 0.0
H327 H 0.75295 0.70062 0.47937 0.0
H328 H 0.74655 0.51239 0.22422 0.0
H329 H 0.73353 0.54942 0.26115 0.0
H330 H 0.82116 0.6286 0.38332 0.0
H331 H 0.83425 0.5914 0.3475 0.0
H332 H 0.7853 0.63903 0.39829 0.0
H333 H 0.73096 0.58911 0.2376 0.0
H334 H 0.70571 0.60992 0.18186 0.0
H335 H 0.69026 0.64491 0.20854 0.0
C336 C 0.13975 0.83535 0.85632 0.0
C337 C 0.15416 0.82722 0.80509 0.0
C338 C 0.11319 0.82695 0.81186 0.0
C339 C 0.10072 0.81068 0.71538 0.0
C340 C 0.11604 0.80445 0.66338 0.0
C341 C 0.14247 0.81266 0.70792 0.0
C342 C 0.07024 0.79523 0.67484 0.0
C343 C 0.05726 0.78419 0.58257 0.0
C344 C 1.02726 0.75659 0.53989 0.0
C345 C 1.01935 0.73519 0.45113 0.0
C346 C 0.99408 0.70463 0.41858 0.0
C347 C 0.97624 0.69507 0.47419 0.0
H348 H 1.01248 0.76479 0.65691 0.0
C349 C 0.98258 0.71774 0.55798 0.0
C350 C 1.00778 0.74838 0.5903 0.0
H351 H 0.96874 0.71121 0.60087 0.0
H352 H 0.14825 0.84649 0.93142 0.0
H353 H 0.10175 0.83171 0.85371 0.0
H354 H 0.10708 0.79128 0.58937 0.0
H355 H 0.15333 0.80647 0.6667 0.0
H356 H 0.05792 0.78883 0.7225 0.0
H357 H 0.06982 0.79126 0.53579 0.0
H358 H 1.03377 0.74102 0.41021 0.0
H359 H 0.98969 0.6877 0.35347 0.0
C360 C 0.29184 0.96414 0.90733 0.0
C361 C 0.31899 0.97417 0.95353 0.0
C362 C 0.28774 0.97641 0.83837 0.0
C363 C 0.31075 0.99824 0.81334 0.0
C364 C 0.33773 1.008 0.85981 0.0
C365 C 0.34188 0.9963 0.92952 0.0
C366 C 0.30792 1.01089 0.7377 0.0
C367 C 0.28493 0.99498 0.66291 0.0
C368 C 0.28646 1.0046 0.57849 0.0
C369 C 0.27254 0.98067 0.49057 0.0
C370 C 0.27974 0.98821 0.41228 0.0
C371 C 0.30081 1.01994 0.42083 0.0
H372 H 0.31445 0.05608 0.65066 0.0
C373 C 0.31162 0.04441 0.50646 0.0
C374 C 0.30453 0.03683 0.58459 0.0
H375 H 0.32676 0.06933 0.51455 0.0
H376 H 0.27384 0.94661 0.92398 0.0
H377 H 0.26666 0.96858 0.80454 0.0
H378 H 0.3556 1.02386 0.83964 0.0
H379 H 0.36289 1.00354 0.96195 0.0
H380 H 0.32703 0.0323 0.73799 0.0
H381 H 0.26655 0.97187 0.65725 0.0
H382 H 0.25799 0.95572 0.48374 0.0
H383 H 0.2705 0.96874 0.34726 0.0
C384 C 0.34339 0.83927 0.16379 0.0
C385 C 0.36337 0.86977 0.16104 0.0
C386 C 0.34842 0.81565 0.15148 0.0
C387 C 0.3737 0.82213 0.13681 0.0
C388 C 0.39426 0.8532 0.1396 0.0
C389 C 0.38924 0.8768 0.15193 0.0
C390 C 0.3778 0.79635 0.10609 0.0
C391 C 0.36253 0.76742 0.1166 0.0
C392 C 0.36187 0.73937 0.06638 0.0
C393 C 0.35178 0.71321 0.09891 0.0
C394 C 0.34665 0.68448 0.04575 0.0
C395 C 0.35117 0.68115 0.95818 0.0
H396 H 0.37475 0.7557 0.95168 0.0
C397 C 0.36253 0.70783 0.92768 0.0
C398 C 0.36775 0.73656 -0.0191 0.0
H399 H 0.36578 0.70598 0.8599 0.0
H400 H 0.32322 0.83302 0.17051 0.0
H401 H 0.3317 0.79193 0.14798 0.0
H402 H 0.41388 0.85889 0.12828 0.0
H403 H 0.40518 0.90009 0.14988 0.0
H404 H 0.39326 0.80109 0.06951 0.0
H405 H 0.34904 0.76349 0.16065 0.0
H406 H 0.34697 0.71463 0.16425 0.0
H407 H 0.33825 0.66453 0.0719 0.0
C408 C 0.48733 0.10912 0.00539 0.0
C409 C 0.46947 0.09812 0.06052 0.0
C410 C 0.50948 0.10577 0.01142 0.0
C411 C 0.51443 0.09158 0.07358 0.0
C412 C 0.49596 0.07965 0.12608 0.0
C413 C 0.47373 0.08278 0.11962 0.0
C414 C 0.53857 0.08892 0.08715 0.0
C415 C 0.56194 0.10679 0.06345 0.0
C416 C 0.58667 0.10539 0.08438 0.0
C417 C 0.60494 0.11449 0.02988 0.0
C418 C 0.62863 0.114 0.04881 0.0
C419 C 0.63462 0.10451 0.12307 0.0
H420 H 0.58053 0.09117 0.20686 0.0
C421 C 0.61672 0.09615 0.1789 0.0
C422 C 0.59314 0.09671 0.16016 0.0
H423 H 0.62131 0.08979 0.23853 0.0
H424 H 0.48452 0.12083 0.95852 0.0
H425 H 0.52256 0.11445 0.96739 0.0
H426 H 0.49923 0.06868 0.17455 0.0
H427 H 0.46047 0.07405 0.1633 0.0
H428 H 0.53725 0.07212 0.12138 0.0
H429 H 0.56342 0.12327 0.02778 0.0
H430 H 0.60075 0.12178 0.97195 0.0
H431 H 0.64204 0.12065 0.0046 0.0
C432 C 0.56672 0.70771 0.53325 0.0
C433 C 0.57477 0.73922 0.54549 0.0
C434 C 0.54068 0.6844 0.54069 0.0
C435 C 0.52194 0.69203 0.56061 0.0
C436 C 0.53036 0.7237 0.57455 0.0
C437 C 0.55625 0.74687 0.56687 0.0
C438 C 0.49365 0.66835 0.56844 0.0
C439 C 0.48042 0.63615 0.54078 0.0
C440 C 0.45169 0.61269 0.54596 0.0
C441 C 0.44337 0.58143 0.53898 0.0
C442 C 0.41641 0.55815 0.53952 0.0
C443 C 0.39674 0.56531 0.54635 0.0
H444 H 0.43705 0.64336 0.55647 0.0
C445 C 0.40499 0.59661 0.5537 0.0
C446 C 0.43205 0.61998 0.55335 0.0
H447 H 0.39043 0.60304 0.55849 0.0
H448 H 0.58045 0.70091 0.51715 0.0
H449 H 0.53562 0.66066 0.53131 0.0
H450 H 0.51668 0.73059 0.59064 0.0
H451 H 0.56162 0.77084 0.57745 0.0
H452 H 0.4832 0.67827 0.59754 0.0
H453 H 0.49086 0.62605 0.51288 0.0
H454 H 0.4578 0.57486 0.53263 0.0
H455 H 0.41093 0.53435 0.53341 0.0
C456 C 0.8103 0.38388 0.09689 0.0
C457 C 0.83174 0.41558 0.15482 0.0
C458 C 0.81276 0.35866 0.09886 0.0
C459 C 0.83677 0.36462 0.15881 0.0
C460 C 0.85873 0.3965 0.21271 0.0
C461 C 0.8562 0.42159 0.21133 0.0
C462 C 0.83961 0.33847 0.16885 0.0
C463 C 0.81744 0.30832 0.15425 0.0
C464 C 0.81966 0.28281 0.17507 0.0
C465 C 0.79616 0.25689 0.18696 0.0
C466 C 0.79696 0.23248 0.20764 0.0
C467 C 0.8213 0.23303 0.21641 0.0
H468 H 0.8624 0.30238 0.17177 0.0
C469 C 0.8448 0.25872 0.2032 0.0
C470 C 0.84403 0.28334 0.18273 0.0
H471 H 0.86378 0.25977 0.2082 0.0
H472 H 0.79122 0.37835 0.05222 0.0
H473 H 0.79572 0.33458 0.05385 0.0
H474 H 0.87762 0.40197 0.25869 0.0
H475 H 0.87327 0.44569 0.25645 0.0
H476 H 0.8607 0.34527 0.19766 0.0
H477 H 0.79644 0.30252 0.13283 0.0
H478 H 0.77704 0.25559 0.18101 0.0
H479 H 0.7783 0.21308 0.21651 0.0
C480 C 0.50326 0.96944 0.117 0.0
C481 C 0.51269 1.00005 0.17379 0.0
C482 C 0.52233 0.96267 0.09971 0.0
C483 C 0.55138 0.98633 0.1394 0.0
C484 C 0.56087 1.01678 0.19761 0.0
C485 C 0.54168 1.02352 0.21559 0.0
C486 C 0.5718 0.98056 0.11254 0.0
C487 C 0.5665 0.95115 0.08959 0.0
C488 C 0.5816 0.94183 0.03665 0.0
C489 C 0.56821 0.90906 -0.01111 0.0
C490 C 0.57912 0.89907 0.92642 0.0
C491 C 0.60383 0.9217 0.91073 0.0
H492 H 0.61904 0.98975 0.06357 0.0
C493 C 0.61831 0.95435 0.96319 0.0
C494 C 0.6074 0.96436 0.0258 0.0
H495 H 0.63783 0.97227 0.95439 0.0
H496 H 0.48102 0.95069 0.08502 0.0
H497 H 0.51417 0.93921 0.05227 0.0
H498 H 0.58315 0.0354 0.2285 0.0
H499 H 0.54946 0.04725 0.26005 0.0
H500 H 0.5903 1.00061 0.10503 0.0
H501 H 0.5482 0.93194 0.10109 0.0
H502 H 0.54842 0.89112 -0.00372 0.0
H503 H 0.56743 0.87375 0.88702 0.0
C504 C 0.64864 0.30343 0.60387 0.0
C505 C 0.66505 0.30361 0.68044 0.0
C506 C 0.62299 0.27502 0.54738 0.0
C507 C 0.61312 0.24645 0.56774 0.0
C508 C 0.63141 0.24587 0.63554 0.0
C509 C 0.65711 0.2742 0.69161 0.0
C510 C 0.5828 0.21944 0.53647 0.0
C511 C 0.56278 0.22477 0.52183 0.0
C512 C 0.53957 0.21218 0.56446 0.0
C513 C 0.5278 0.22939 0.58064 0.0
C514 C 0.51275 0.2256 0.64455 0.0
C515 C 0.50884 0.20422 0.69306 0.0
H516 H 0.5403 0.1732 0.59192 0.0
C517 C 0.51786 0.18441 0.66923 0.0
C518 C 0.53283 0.18809 0.60494 0.0
H519 H 0.51487 0.16732 0.70418 0.0
H520 H 0.65432 0.32559 0.59219 0.0
H521 H 0.61018 0.27619 0.49262 0.0
H522 H 0.62471 0.22409 0.65157 0.0
H523 H 0.66978 0.2734 0.74804 0.0
H524 H 0.57806 0.19829 0.55327 0.0
H525 H 0.56746 0.24543 0.50185 0.0
H526 H 0.53203 0.24764 0.54921 0.0
H527 H 0.5051 0.24034 0.65855 0.0
C528 C 0.27361 0.46058 0.19121 0.0
C529 C 0.27824 0.48503 0.26541 0.0
C530 C 0.26253 0.45698 0.10016 0.0
C531 C 0.25615 0.47815 0.08127 0.0
C532 C 0.25931 0.50151 0.15608 0.0
C533 C 0.26999 0.50469 0.24786 0.0
C534 C 0.25245 0.48078 -0.01291 0.0
C535 C 0.24724 0.45765 0.91282 0.0
C536 C 0.26458 0.46467 0.84897 0.0
C537 C 0.25817 0.43888 0.77487 0.0
C538 C 0.27647 0.44327 0.72242 0.0
C539 C 0.30154 0.47372 0.74255 0.0
H540 H 0.29636 0.51551 0.92815 0.0
C541 C 0.30813 0.49949 0.81702 0.0
C542 C 0.28989 0.4951 0.86969 0.0
H543 H 0.3273 0.5232 0.83411 0.0
H544 H 0.27933 0.44472 0.20339 0.0
H545 H 0.26111 0.43907 0.04533 0.0
H546 H 0.25491 0.51833 0.14347 0.0
H547 H 0.2732 0.52357 0.30464 0.0
H548 H 0.26107 0.50476 -0.01577 0.0
H549 H 0.23503 0.43294 0.91167 0.0
H550 H 0.2392 0.41507 0.75864 0.0
H551 H 0.27061 0.42285 0.66496 0.0
C552 C 0.80833 0.16615 0.97669 0.0
C553 C 0.82293 0.15582 0.02099 0.0
C554 C 0.82019 0.18648 0.92614 0.0
C555 C 0.84703 0.19704 0.91871 0.0
C556 C 0.86111 0.1856 0.95947 0.0
C557 C 0.84918 0.16514 0.01019 0.0
C558 C 0.8588 0.21581 0.85732 0.0
C559 C 0.84919 0.23163 0.82647 0.0
C560 C 0.84601 0.22988 0.72882 0.0
C561 C 0.8186 0.21101 0.66735 0.0
C562 C 0.81369 0.1981 0.57255 0.0
C563 C 0.83626 0.20478 0.53831 0.0
H564 H 0.89006 0.25359 0.74042 0.0
C565 C 0.86391 0.22681 0.5984 0.0
C566 C 0.86878 0.23909 0.69361 0.0
H567 H 0.88168 0.23262 0.57312 0.0
H568 H 0.78793 0.15918 -0.01717 0.0
H569 H 0.8078 0.19312 0.89154 0.0
H570 H 0.88139 0.19253 0.9521 0.0
H571 H 0.86088 0.1574 0.04296 0.0
H572 H 0.87182 0.21127 0.82317 0.0
H573 H 0.83625 0.2365 0.85969 0.0
H574 H 0.80079 0.20356 0.69367 0.0
H575 H 0.79223 0.18172 0.52688 0.0
C576 C 0.6502 0.82512 0.22618 0.0
C577 C 0.6348 0.79718 0.24905 0.0
C578 C 0.66335 0.82548 0.15814 0.0
C579 C 0.66126 0.79785 0.11141 0.0
C580 C 0.64375 0.76916 0.1278 0.0
C581 C 0.63065 0.7688 0.19643 0.0
C582 C 0.67538 0.79809 0.03994 0.0
C583 C 0.69981 0.82462 0.04474 0.0
C584 C 0.7057 0.82945 0.95787 0.0
C585 C 0.70812 0.85582 0.93919 0.0
C586 C 0.70252 0.85522 0.84756 0.0
C587 C 0.6955 0.82879 0.77463 0.0
H588 H 0.70032 0.78441 0.89973 0.0
C589 C 0.69717 0.80468 0.79451 0.0
C590 C 0.70201 0.80483 0.88613 0.0
H591 H 0.69186 0.78414 0.73877 0.0
H592 H 0.65344 0.84728 0.26425 0.0
H593 H 0.67539 0.84755 0.14311 0.0
H594 H 0.64103 0.74731 0.08991 0.0
H595 H 0.61858 0.74675 0.21159 0.0
H596 H 0.66362 0.77713 -0.02299 0.0
H597 H 0.71134 0.8456 0.10753 0.0
H598 H 0.71101 0.87502 -0.00615 0.0
H599 H 0.70156 0.87416 0.83313 0.0
C600 C 0.8287 0.47023 0.93053 0.0
C601 C 0.82661 0.49565 0.96566 0.0
C602 C 0.81471 0.45051 0.83728 0.0
C603 C 0.79876 0.4563 0.77758 0.0
C604 C 0.79788 0.48268 0.81252 0.0
C605 C 0.81166 0.50215 0.90548 0.0
C606 C 0.78388 0.43702 0.67747 0.0
C607 C 0.78869 0.41699 0.62793 0.0
C608 C 0.78558 0.41317 0.52849 0.0
C609 C 0.80947 0.42185 0.50049 0.0
C610 C 0.81251 0.43232 0.42412 0.0
C611 C 0.79136 0.43331 0.37369 0.0
H612 H 0.74385 0.40244 0.48966 0.0
C613 C 0.76565 0.41983 0.39249 0.0
C614 C 0.76274 0.40977 0.4701 0.0
H615 H 0.74892 0.41988 0.35294 0.0
H616 H 0.83949 0.4642 0.97635 0.0
H617 H 0.81587 0.43039 0.81396 0.0
H618 H 0.78607 0.48801 0.7681 0.0
H619 H 0.80937 0.52129 0.93166 0.0
H620 H 0.77203 0.44389 0.64001 0.0
H621 H 0.80174 0.41102 0.66232 0.0
H622 H 0.82717 0.42429 0.5439 0.0
H623 H 0.83222 0.4418 0.40853 0.0
C624 C 0.33327 0.97749 0.40668 0.0
C625 C 0.31353 0.95144 0.32555 0.0
C626 C 0.33028 0.97528 0.4933 0.0
C627 C 0.30774 0.94678 0.4987 0.0
C628 C 0.2856 0.92335 0.41783 0.0
C629 C 0.28844 0.9257 0.33089 0.0
C630 C 0.31094 0.93755 0.58109 0.0
C631 C 0.3338 0.93801 0.61078 0.0
C632 C 0.33802 0.92622 0.68625 0.0
C633 C 0.36544 0.94124 0.74327 0.0
C634 C 0.36995 0.93405 0.82354 0.0
C635 C 0.34703 0.91138 0.84664 0.0
H636 H 0.29412 0.88792 0.65798 0.0
C637 C 0.31993 0.89334 0.78298 0.0
C638 C 0.31539 0.90092 0.70346 0.0
H639 H 0.30186 0.87575 0.79919 0.0
H640 H 0.35249 0.99788 0.40368 0.0
H641 H 0.34721 0.99399 0.55564 0.0
H642 H 0.26789 0.90142 0.42121 0.0
H643 H 0.27279 0.90548 0.26895 0.0
H644 H 0.29352 0.92708 0.60947 0.0
H645 H 0.35067 0.94824 0.57967 0.0
H646 H 0.38323 0.96025 0.72957 0.0
H647 H 0.39103 0.94825 0.8717 0.0
C648 C 0.37717 0.11039 0.768 0.0
C649 C 0.3834 0.09309 0.81309 0.0
C650 C 0.38411 0.11421 0.68694 0.0
C651 C 0.39734 0.10076 0.65069 0.0
C652 C 0.39944 0.07938 0.68727 0.0
C653 C 0.39263 0.07566 0.76891 0.0
C654 C 0.41272 0.1125 0.58501 0.0
C655 C 0.42887 0.1441 0.59757 0.0
C656 C 0.4448 0.15654 0.53377 0.0
C657 C 0.44523 0.18074 0.50624 0.0
C658 C 0.45235 0.18594 0.42607 0.0
C659 C 0.45888 0.16682 0.37401 0.0
H660 H 0.45793 0.12458 0.51528 0.0
C661 C 0.46403 0.1476 0.41237 0.0
C662 C 0.45666 0.14211 0.4918 0.0
H663 H 0.46928 0.13283 0.37306 0.0
H664 H 0.36947 0.12346 0.80005 0.0
H665 H 0.38124 0.12976 0.65706 0.0
H666 H 0.40911 0.06831 0.65868 0.0
H667 H 0.39755 0.0621 0.80237 0.0
H668 H 0.41241 0.09535 0.53041 0.0
H669 H 0.42908 0.16108 0.65254 0.0
H670 H 0.43695 0.19282 0.53986 0.0
H671 H 0.44825 0.20087 0.39707 0.0
loop_
_geom_bond_atom_site_label_1
_geom_bond_atom_site_label_2
_geom_bond_distance
_geom_bond_site_symmetry_2
_ccdc_geom_bond_type
Dy0 O3 2.307 . S
Dy0 O5 2.395 . S
Dy0 O6 2.379 . S
Dy0 O8 2.339 1_556 S
Dy0 O10 2.298 . S
Dy0 O14 2.275 . S
Dy0 C22 2.738 . S
Dy1 O4 2.298 . S
Dy1 O7 2.275 . S
Dy1 O9 2.307 . S
Dy1 O11 2.395 . S
Dy1 O12 2.379 . S
Dy1 O15 2.339 . S
Dy1 C31 2.738 . S
C2 O14 1.254 . S
C2 O15 1.257 . S
O3 Dy0 2.307 . S
O3 C13 1.266 . S
O4 Dy1 2.298 . S
O4 C13 1.236 . S
O5 Dy0 2.395 . S
O5 C22 1.255 . S
O6 Dy0 2.379 . S
O6 C22 1.249 . S
O7 Dy1 2.275 . S
O7 C23 1.254 1_556 S
O8 Dy0 2.339 1_554 S
O8 C23 1.257 . S
O9 Dy1 2.307 . S
O9 C24 1.266 . S
O10 Dy0 2.298 . S
O10 C24 1.236 . S
O11 Dy1 2.395 . S
O11 C31 1.255 . S
O12 Dy1 2.379 . S
O12 C31 1.249 . S
C13 O3 1.266 . S
C13 O4 1.236 . S
O14 Dy0 2.275 . S
O14 C2 1.254 . S
O15 Dy1 2.339 . S
O15 C2 1.257 . S
C16 C19 1.344 . S
C16 C20 1.328 1_556 S
C16 C22 1.516 . S
C17 C18 1.304 . S
C17 C21 1.323 1_556 S
C18 C17 1.304 . S
C18 C19 1.371 . S
C18 H32 0.930 . S
C19 C16 1.344 . S
C19 C18 1.371 . S
C19 H33 0.931 . S
C20 C16 1.328 1_554 S
C20 C21 1.433 . S
C20 H34 0.931 . S
C21 C17 1.323 1_554 S
C21 C20 1.433 . S
C21 H35 0.933 . S
C22 Dy0 2.738 . S
C22 O5 1.255 . S
C22 O6 1.249 . S
C22 C16 1.516 . S
C23 O7 1.254 1_554 S
C23 O8 1.257 . S
C24 O9 1.266 . S
C24 O10 1.236 . S
C25 C28 1.344 . S
C25 C29 1.328 . S
C25 C31 1.516 . S
C26 C27 1.304 . S
C26 C30 1.323 . S
C27 C26 1.304 . S
C27 C28 1.371 . S
C27 H36 0.930 . S
C28 C25 1.344 . S
C28 C27 1.371 . S
C28 H37 0.931 . S
C29 C25 1.328 . S
C29 C30 1.433 . S
C29 H38 0.931 . S
C30 C26 1.323 . S
C30 C29 1.433 . S
C30 H39 0.933 . S
C31 Dy1 2.738 . S
C31 O11 1.255 . S
C31 O12 1.249 . S
C31 C25 1.516 . S
H32 C18 0.930 . S
H33 C19 0.931 . S
H34 C20 0.931 . S
H35 C21 0.933 . S
H36 C27 0.930 . S
H37 C28 0.931 . S
H38 C29 0.931 . S
H39 C30 0.933 . S
Dy40 O43 2.307 . S
Dy40 O45 2.395 1_554 S
Dy40 O46 2.379 . S
Dy40 O48 2.339 . S
Dy40 O50 2.298 . S
Dy40 O54 2.275 1_554 S
Dy40 C62 2.738 1_554 S
Dy41 O44 2.298 . S
Dy41 O47 2.275 . S
Dy41 O49 2.307 . S
Dy41 O51 2.395 . S
Dy41 O52 2.379 . S
Dy41 O55 2.339 1_554 S
Dy41 C71 2.738 . S
C42 O54 1.254 . S
C42 O55 1.257 . S
O43 Dy40 2.307 . S
O43 C53 1.266 . S
O44 Dy41 2.298 . S
O44 C53 1.236 . S
O45 Dy40 2.395 1_556 S
O45 C62 1.255 . S
O46 Dy40 2.379 . S
O46 C62 1.249 1_554 S
O47 Dy41 2.275 . S
O47 C63 1.254 . S
O48 Dy40 2.339 . S
O48 C63 1.257 . S
O49 Dy41 2.307 . S
O49 C64 1.266 . S
O50 Dy40 2.298 . S
O50 C64 1.236 . S
O51 Dy41 2.395 . S
O51 C71 1.255 . S
O52 Dy41 2.379 . S
O52 C71 1.249 . S
C53 O43 1.266 . S
C53 O44 1.236 . S
O54 Dy40 2.275 1_556 S
O54 C42 1.254 . S
O55 Dy41 2.339 1_556 S
O55 C42 1.257 . S
C56 C59 1.344 . S
C56 C60 1.321 1_556 S
C56 C62 1.516 . S
C57 C58 1.304 . S
C57 C61 1.323 . S
C58 C57 1.304 . S
C58 C59 1.371 . S
C58 H72 0.930 . S
C59 C56 1.344 . S
C59 C58 1.371 . S
C59 H73 0.931 . S
C60 C56 1.321 1_554 S
C60 C61 1.430 1_554 S
C60 H74 0.940 . S
C61 C57 1.323 . S
C61 C60 1.430 1_556 S
C61 H75 0.933 . S
C62 Dy40 2.738 1_556 S
C62 O45 1.255 . S
C62 O46 1.249 1_556 S
C62 C56 1.516 . S
C63 O47 1.254 . S
C63 O48 1.257 . S
C64 O49 1.266 . S
C64 O50 1.236 . S
C65 C68 1.344 . S
C65 C69 1.328 . S
C65 C71 1.516 . S
C66 C67 1.304 . S
C66 C70 1.323 . S
C67 C66 1.304 . S
C67 C68 1.371 . S
C67 H76 0.930 . S
C68 C65 1.344 . S
C68 C67 1.371 . S
C68 H77 0.931 . S
C69 C65 1.328 . S
C69 C70 1.433 . S
C69 H78 0.931 . S
C70 C66 1.323 . S
C70 C69 1.433 . S
C70 H79 0.933 . S
C71 Dy41 2.738 . S
C71 O51 1.255 . S
C71 O52 1.249 . S
C71 C65 1.516 . S
H72 C58 0.930 . S
H73 C59 0.931 . S
H74 C60 0.940 . S
H75 C61 0.933 . S
H76 C67 0.930 . S
H77 C68 0.931 . S
H78 C69 0.931 . S
H79 C70 0.933 . S
Dy80 O83 2.307 . S
Dy80 O85 2.395 . S
Dy80 O86 2.379 . S
Dy80 O88 2.339 . S
Dy80 O90 2.298 . S
Dy80 O94 2.275 . S
Dy80 C102 2.738 . S
Dy81 O84 2.298 . S
Dy81 O87 2.275 . S
Dy81 O89 2.307 . S
Dy81 O91 2.395 . S
Dy81 O92 2.379 . S
Dy81 O95 2.339 1_556 S
Dy81 C111 2.738 . S
C82 O94 1.254 1_554 S
C82 O95 1.257 . S
O83 Dy80 2.307 . S
O83 C93 1.266 . S
O84 Dy81 2.298 . S
O84 C93 1.236 . S
O85 Dy80 2.395 . S
O85 C102 1.255 . S
O86 Dy80 2.379 . S
O86 C102 1.249 . S
O87 Dy81 2.275 . S
O87 C103 1.254 . S
O88 Dy80 2.339 . S
O88 C103 1.257 . S
O89 Dy81 2.307 . S
O89 C104 1.266 . S
O90 Dy80 2.298 . S
O90 C104 1.236 . S
O91 Dy81 2.395 . S
O91 C111 1.255 . S
O92 Dy81 2.379 . S
O92 C111 1.249 . S
C93 O83 1.266 . S
C93 O84 1.236 . S
O94 Dy80 2.275 . S
O94 C82 1.254 1_556 S
O95 Dy81 2.339 1_554 S
O95 C82 1.257 . S
C96 C99 1.344 1_556 S
C96 C100 1.328 . S
C96 C102 1.516 . S
C97 C98 1.304 . S
C97 C101 1.323 1_554 S
C98 C97 1.304 . S
C98 C99 1.371 . S
C98 H112 0.930 . S
C99 C96 1.344 1_554 S
C99 C98 1.371 . S
C99 H113 0.931 . S
C100 C96 1.328 . S
C100 C101 1.433 . S
C100 H114 0.931 . S
C101 C97 1.323 1_556 S
C101 C100 1.433 . S
C101 H115 0.933 . S
C102 Dy80 2.738 . S
C102 O85 1.255 . S
C102 O86 1.249 . S
C102 C96 1.516 . S
C103 O87 1.254 . S
C103 O88 1.257 . S
C104 O89 1.266 . S
C104 O90 1.236 . S
C105 C108 1.344 . S
C105 C109 1.328 . S
C105 C111 1.516 . S
C106 C107 1.304 . S
C106 C110 1.323 . S
C107 C106 1.304 . S
C107 C108 1.371 . S
C107 H116 0.930 . S
C108 C105 1.344 . S
C108 C107 1.371 . S
C108 H117 0.931 . S
C109 C105 1.328 . S
C109 C110 1.433 . S
C109 H118 0.931 . S
C110 C106 1.323 . S
C110 C109 1.433 . S
C110 H119 0.933 . S
C111 Dy81 2.738 . S
C111 O91 1.255 . S
C111 O92 1.249 . S
C111 C105 1.516 . S
H112 C98 0.930 . S
H113 C99 0.931 . S
H114 C100 0.931 . S
H115 C101 0.933 . S
H116 C107 0.930 . S
H117 C108 0.931 . S
H118 C109 0.931 . S
H119 C110 0.933 . S
Dy120 O123 2.307 . S
Dy120 O125 2.395 . S
Dy120 O126 2.379 . S
Dy120 O128 2.339 . S
Dy120 O130 2.298 . S
Dy120 O134 2.275 1_556 S
Dy120 C142 2.738 . S
Dy121 O124 2.298 . S
Dy121 O127 2.275 1_554 S
Dy121 O129 2.307 . S
Dy121 O131 2.395 . S
Dy121 O132 2.379 . S
Dy121 O135 2.339 . S
Dy121 C151 2.738 . S
C122 O134 1.254 . S
C122 O135 1.257 . S
O123 Dy120 2.307 . S
O123 C133 1.266 1_556 S
O124 Dy121 2.298 . S
O124 C133 1.236 . S
O125 Dy120 2.395 . S
O125 C142 1.255 . S
O126 Dy120 2.379 . S
O126 C142 1.249 . S
O127 Dy121 2.275 1_556 S
O127 C143 1.254 . S
O128 Dy120 2.339 . S
O128 C143 1.257 . S
O129 Dy121 2.307 . S
O129 C144 1.266 1_554 S
O130 Dy120 2.298 . S
O130 C144 1.236 . S
O131 Dy121 2.395 . S
O131 C151 1.255 . S
O132 Dy121 2.379 . S
O132 C151 1.249 . S
C133 O123 1.266 1_554 S
C133 O124 1.236 . S
O134 Dy120 2.275 1_554 S
O134 C122 1.254 . S
O135 Dy121 2.339 . S
O135 C122 1.257 . S
C136 C139 1.344 . S
C136 C140 1.328 . S
C136 C142 1.516 . S
C137 C138 1.304 . S
C137 C141 1.323 . S
C138 C137 1.304 . S
C138 C139 1.371 . S
C138 H152 0.930 . S
C139 C136 1.344 . S
C139 C138 1.371 . S
C139 H153 0.931 . S
C140 C136 1.328 . S
C140 C141 1.433 . S
C140 H154 0.931 . S
C141 C137 1.323 . S
C141 C140 1.433 . S
C141 H155 0.933 . S
C142 Dy120 2.738 . S
C142 O125 1.255 . S
C142 O126 1.249 . S
C142 C136 1.516 . S
C143 O127 1.254 . S
C143 O128 1.257 . S
C144 O129 1.266 1_556 S
C144 O130 1.236 . S
C145 C148 1.344 . S
C145 C149 1.328 . S
C145 C151 1.516 . S
C146 C147 1.304 . S
C146 C150 1.323 . S
C147 C146 1.304 . S
C147 C148 1.371 . S
C147 H156 0.930 . S
C148 C145 1.344 . S
C148 C147 1.371 . S
C148 H157 0.931 . S
C149 C145 1.328 . S
C149 C150 1.433 . S
C149 H158 0.931 . S
C150 C146 1.323 . S
C150 C149 1.433 . S
C150 H159 0.933 . S
C151 Dy121 2.738 . S
C151 O131 1.255 . S
C151 O132 1.249 . S
C151 C145 1.516 . S
H152 C138 0.930 . S
H153 C139 0.931 . S
H154 C140 0.931 . S
H155 C141 0.933 . S
H156 C147 0.930 . S
H157 C148 0.931 . S
H158 C149 0.931 . S
H159 C150 0.933 . S
Dy160 O163 2.307 . S
Dy160 O165 2.395 . S
Dy160 O166 2.379 . S
Dy160 O168 2.339 . S
Dy160 O170 2.298 . S
Dy160 O174 2.275 1_554 S
Dy160 C182 2.738 . S
Dy161 O164 2.298 . S
Dy161 O167 2.275 1_556 S
Dy161 O169 2.307 . S
Dy161 O171 2.395 . S
Dy161 O172 2.379 . S
Dy161 O175 2.339 . S
Dy161 C191 2.738 . S
C162 O174 1.254 . S
C162 O175 1.257 . S
O163 Dy160 2.307 . S
O163 C173 1.266 1_554 S
O164 Dy161 2.298 . S
O164 C173 1.236 . S
O165 Dy160 2.395 . S
O165 C182 1.255 . S
O166 Dy160 2.379 . S
O166 C182 1.249 . S
O167 Dy161 2.275 1_554 S
O167 C183 1.254 . S
O168 Dy160 2.339 . S
O168 C183 1.257 . S
O169 Dy161 2.307 . S
O169 C184 1.266 1_556 S
O170 Dy160 2.298 . S
O170 C184 1.236 . S
O171 Dy161 2.395 . S
O171 C191 1.255 . S
O172 Dy161 2.379 . S
O172 C191 1.249 . S
C173 O163 1.266 1_556 S
C173 O164 1.236 . S
O174 Dy160 2.275 1_556 S
O174 C162 1.254 . S
O175 Dy161 2.339 . S
O175 C162 1.257 . S
C176 C179 1.344 . S
C176 C180 1.328 . S
C176 C182 1.516 . S
C177 C178 1.304 . S
C177 C181 1.323 . S
C178 C177 1.304 . S
C178 C179 1.371 . S
C178 H192 0.930 1_554 S
C179 C176 1.344 . S
C179 C178 1.371 . S
C179 H193 0.931 1_554 S
C180 C176 1.328 . S
C180 C181 1.433 . S
C180 H194 0.931 . S
C181 C177 1.323 . S
C181 C180 1.433 . S
C181 H195 0.933 . S
C182 Dy160 2.738 . S
C182 O165 1.255 . S
C182 O166 1.249 . S
C182 C176 1.516 . S
C183 O167 1.254 . S
C183 O168 1.257 . S
C184 O169 1.266 1_554 S
C184 O170 1.236 . S
C185 C188 1.344 . S
C185 C189 1.328 . S
C185 C191 1.516 . S
C186 C187 1.304 . S
C186 C190 1.323 . S
C187 C186 1.304 . S
C187 C188 1.371 . S
C187 H196 0.930 1_556 S
C188 C185 1.344 . S
C188 C187 1.371 . S
C188 H197 0.931 1_556 S
C189 C185 1.328 . S
C189 C190 1.433 . S
C189 H198 0.931 . S
C190 C186 1.323 . S
C190 C189 1.433 . S
C190 H199 0.933 . S
C191 Dy161 2.738 . S
C191 O171 1.255 . S
C191 O172 1.249 . S
C191 C185 1.516 . S
H192 C178 0.930 1_556 S
H193 C179 0.931 1_556 S
H194 C180 0.931 . S
H195 C181 0.933 . S
H196 C187 0.930 1_554 S
H197 C188 0.931 1_554 S
H198 C189 0.931 . S
H199 C190 0.933 . S
Dy200 O203 2.307 . S
Dy200 O205 2.395 1_554 S
Dy200 O206 2.379 . S
Dy200 O208 2.339 . S
Dy200 O210 2.298 . S
Dy200 O214 2.275 1_554 S
Dy200 C222 2.738 1_554 S
Dy201 O204 2.298 . S
Dy201 O207 2.275 1_556 S
Dy201 O209 2.307 . S
Dy201 O211 2.395 1_546 S
Dy201 O212 2.379 1_545 S
Dy201 O215 2.339 . S
Dy201 C231 2.738 1_546 S
C202 O214 1.254 . S
C202 O215 1.257 . S
O203 Dy200 2.307 . S
O203 C213 1.266 . S
O204 Dy201 2.298 . S
O204 C213 1.236 1_556 S
O205 Dy200 2.395 1_556 S
O205 C222 1.255 . S
O206 Dy200 2.379 . S
O206 C222 1.249 1_554 S
O207 Dy201 2.275 1_554 S
O207 C223 1.254 . S
O208 Dy200 2.339 . S
O208 C223 1.257 . S
O209 Dy201 2.307 . S
O209 C224 1.266 . S
O210 Dy200 2.298 . S
O210 C224 1.236 1_554 S
O211 Dy201 2.395 1_564 S
O211 C231 1.255 . S
O212 Dy201 2.379 1_565 S
O212 C231 1.249 1_556 S
C213 O203 1.266 . S
C213 O204 1.236 1_554 S
O214 Dy200 2.275 1_556 S
O214 C202 1.254 . S
O215 Dy201 2.339 . S
O215 C202 1.257 . S
C216 C219 1.344 . S
C216 C220 1.328 1_556 S
C216 C222 1.516 . S
C217 C218 1.304 . S
C217 C221 1.323 1_556 S
C218 C217 1.304 . S
C218 C219 1.371 . S
C218 H232 0.930 . S
C219 C216 1.344 . S
C219 C218 1.371 . S
C219 H233 0.931 . S
C220 C216 1.328 1_554 S
C220 C221 1.433 . S
C220 H234 0.931 . S
C221 C217 1.323 1_554 S
C221 C220 1.433 . S
C221 H235 0.933 . S
C222 Dy200 2.738 1_556 S
C222 O205 1.255 . S
C222 O206 1.249 1_556 S
C222 C216 1.516 . S
C223 O207 1.254 . S
C223 O208 1.257 . S
C224 O209 1.266 . S
C224 O210 1.236 1_556 S
C225 C228 1.344 . S
C225 C229 1.328 1_554 S
C225 C231 1.516 . S
C226 C227 1.304 . S
C226 C230 1.323 1_554 S
C227 C226 1.304 . S
C227 C228 1.371 . S
C227 H236 0.930 . S
C228 C225 1.344 . S
C228 C227 1.371 . S
C228 H237 0.931 . S
C229 C225 1.328 1_556 S
C229 C230 1.433 . S
C229 H238 0.931 . S
C230 C226 1.323 1_556 S
C230 C229 1.433 . S
C230 H239 0.933 . S
C231 Dy201 2.738 1_564 S
C231 O211 1.255 . S
C231 O212 1.249 1_554 S
C231 C225 1.516 . S
H232 C218 0.930 . S
H233 C219 0.931 . S
H234 C220 0.931 . S
H235 C221 0.933 . S
H236 C227 0.930 . S
H237 C228 0.931 . S
H238 C229 0.931 . S
H239 C230 0.933 . S
C240 C241 1.386 . S
C240 C242 1.383 . S
C240 H256 0.951 . S
C241 C240 1.386 . S
C241 C245 1.383 . S
C242 C240 1.383 . S
C242 C243 1.402 . S
C242 H257 0.951 . S
C243 C242 1.402 . S
C243 C244 1.375 . S
C243 C246 1.481 . S
C244 C243 1.375 . S
C244 C245 1.367 . S
C244 H258 0.951 . S
C245 C241 1.383 . S
C245 C244 1.367 . S
C245 H259 0.950 . S
C246 C243 1.481 . S
C246 C247 1.297 . S
C246 H260 0.950 . S
C247 C246 1.297 . S
C247 C248 1.479 . S
C247 H261 0.950 . S
C248 C247 1.479 . S
C248 C249 1.375 . S
C248 C254 1.404 . S
C249 C248 1.375 . S
C249 C250 1.369 . S
C249 H262 0.950 . S
C250 C249 1.369 . S
C250 C251 1.392 . S
C250 H263 0.951 . S
C251 C250 1.392 . S
C251 C253 1.384 . S
H252 C254 0.949 . S
C253 C251 1.384 . S
C253 C254 1.385 . S
C253 H255 0.950 . S
C254 C248 1.404 . S
C254 H252 0.949 . S
C254 C253 1.385 . S
H255 C253 0.950 . S
H256 C240 0.951 . S
H257 C242 0.951 . S
H258 C244 0.951 . S
H259 C245 0.950 . S
H260 C246 0.950 . S
H261 C247 0.950 . S
H262 C249 0.950 . S
H263 C250 0.951 . S
C264 C265 1.386 . S
C264 C266 1.383 . S
C264 H280 0.951 . S
C265 C264 1.386 . S
C265 C269 1.383 . S
C266 C264 1.383 . S
C266 C267 1.402 . S
C266 H281 0.951 . S
C267 C266 1.402 . S
C267 C268 1.375 . S
C267 C270 1.481 . S
C268 C267 1.375 . S
C268 C269 1.367 . S
C268 H282 0.951 . S
C269 C265 1.383 . S
C269 C268 1.367 . S
C269 H283 0.950 . S
C270 C267 1.481 . S
C270 C271 1.297 . S
C270 H284 0.950 . S
C271 C270 1.297 . S
C271 C272 1.479 . S
C271 H285 0.950 . S
C272 C271 1.479 . S
C272 C273 1.375 . S
C272 C278 1.404 . S
C273 C272 1.375 . S
C273 C274 1.369 . S
C273 H286 0.950 . S
C274 C273 1.369 . S
C274 C275 1.392 1_455 S
C274 H287 0.951 1_455 S
C275 C274 1.392 1_655 S
C275 C277 1.384 1_655 S
H276 C278 0.949 . S
C277 C275 1.384 1_455 S
C277 C278 1.385 . S
C277 H279 0.950 1_455 S
C278 C272 1.404 . S
C278 H276 0.949 . S
C278 C277 1.385 . S
H279 C277 0.950 1_655 S
H280 C264 0.951 . S
H281 C266 0.951 . S
H282 C268 0.951 . S
H283 C269 0.950 . S
H284 C270 0.950 . S
H285 C271 0.950 . S
H286 C273 0.950 . S
H287 C274 0.951 1_655 S
C288 C289 1.386 1_565 S
C288 C290 1.383 . S
C288 H304 0.951 . S
C289 C288 1.386 1_545 S
C289 C293 1.383 . S
C290 C288 1.383 . S
C290 C291 1.406 . S
C290 H305 0.951 . S
C291 C290 1.406 . S
C291 C292 1.343 1_565 S
C291 C294 1.508 . S
C292 C291 1.343 1_545 S
C292 C293 1.367 . S
C292 H306 0.951 . S
C293 C289 1.383 . S
C293 C292 1.367 . S
C293 H307 0.950 . S
C294 C291 1.508 . S
C294 C295 1.297 . S
C294 H308 0.950 1_565 S
C295 C294 1.297 . S
C295 C296 1.479 . S
C295 H309 0.950 . S
C296 C295 1.479 . S
C296 C297 1.375 . S
C296 C302 1.404 . S
C297 C296 1.375 . S
C297 C298 1.369 . S
C297 H310 0.950 . S
C298 C297 1.369 . S
C298 C299 1.392 . S
C298 H311 0.951 . S
C299 C298 1.392 . S
C299 C301 1.384 . S
H300 C302 0.949 . S
C301 C299 1.384 . S
C301 C302 1.385 . S
C301 H303 0.950 . S
C302 C296 1.404 . S
C302 H300 0.949 . S
C302 C301 1.385 . S
H303 C301 0.950 . S
H304 C288 0.951 . S
H305 C290 0.951 . S
H306 C292 0.951 . S
H307 C293 0.950 . S
H308 C294 0.950 1_545 S
H309 C295 0.950 . S
H310 C297 0.950 . S
H311 C298 0.951 . S
C312 C313 1.386 . S
C312 C314 1.383 . S
C312 H328 0.951 . S
C313 C312 1.386 . S
C313 C317 1.383 . S
C314 C312 1.383 . S
C314 C315 1.402 . S
C314 H329 0.951 . S
C315 C314 1.402 . S
C315 C316 1.375 . S
C315 C318 1.481 . S
C316 C315 1.375 . S
C316 C317 1.367 . S
C316 H330 0.951 . S
C317 C313 1.383 . S
C317 C316 1.367 . S
C317 H331 0.950 . S
C318 C315 1.481 . S
C318 C319 1.297 . S
C318 H332 0.950 . S
C319 C318 1.297 . S
C319 C320 1.479 . S
C319 H333 0.950 . S
C320 C319 1.479 . S
C320 C321 1.375 . S
C320 C326 1.404 . S
C321 C320 1.375 . S
C321 C322 1.369 . S
C321 H334 0.950 . S
C322 C321 1.369 . S
C322 C323 1.392 . S
C322 H335 0.951 . S
C323 C322 1.392 . S
C323 C325 1.384 . S
H324 C326 0.949 . S
C325 C323 1.384 . S
C325 C326 1.385 . S
C325 H327 0.950 . S
C326 C320 1.404 . S
C326 H324 0.949 . S
C326 C325 1.385 . S
H327 C325 0.950 . S
H328 C312 0.951 . S
H329 C314 0.951 . S
H330 C316 0.951 . S
H331 C317 0.950 . S
H332 C318 0.950 . S
H333 C319 0.950 . S
H334 C321 0.950 . S
H335 C322 0.951 . S
C336 C337 1.386 . S
C336 C338 1.383 . S
C336 H352 0.951 . S
C337 C336 1.386 . S
C337 C341 1.383 . S
C338 C336 1.383 . S
C338 C339 1.402 . S
C338 H353 0.951 . S
C339 C338 1.402 . S
C339 C340 1.375 . S
C339 C342 1.481 . S
C340 C339 1.375 . S
C340 C341 1.367 . S
C340 H354 0.951 . S
C341 C337 1.383 . S
C341 C340 1.367 . S
C341 H355 0.950 . S
C342 C339 1.481 . S
C342 C343 1.297 . S
C342 H356 0.950 . S
C343 C342 1.297 . S
C343 C344 1.479 1_455 S
C343 H357 0.950 . S
C344 C343 1.479 1_655 S
C344 C345 1.375 . S
C344 C350 1.404 . S
C345 C344 1.375 . S
C345 C346 1.369 . S
C345 H358 0.950 . S
C346 C345 1.369 . S
C346 C347 1.392 . S
C346 H359 0.951 . S
C347 C346 1.392 . S
C347 C349 1.384 . S
H348 C350 0.949 . S
C349 C347 1.384 . S
C349 C350 1.385 . S
C349 H351 0.950 . S
C350 C344 1.404 . S
C350 H348 0.949 . S
C350 C349 1.385 . S
H351 C349 0.950 . S
H352 C336 0.951 . S
H353 C338 0.951 . S
H354 C340 0.951 . S
H355 C341 0.950 . S
H356 C342 0.950 . S
H357 C343 0.950 . S
H358 C345 0.950 . S
H359 C346 0.951 . S
C360 C361 1.386 . S
C360 C362 1.383 . S
C360 H376 0.951 . S
C361 C360 1.386 . S
C361 C365 1.383 . S
C362 C360 1.383 . S
C362 C363 1.402 . S
C362 H377 0.951 . S
C363 C362 1.402 . S
C363 C364 1.375 . S
C363 C366 1.481 . S
C364 C363 1.375 . S
C364 C365 1.367 . S
C364 H378 0.951 . S
C365 C361 1.383 . S
C365 C364 1.367 . S
C365 H379 0.950 . S
C366 C363 1.481 . S
C366 C367 1.297 . S
C366 H380 0.950 . S
C367 C366 1.297 . S
C367 C368 1.479 . S
C367 H381 0.950 . S
C368 C367 1.479 . S
C368 C369 1.375 . S
C368 C374 1.404 . S
C369 C368 1.375 . S
C369 C370 1.369 . S
C369 H382 0.950 . S
C370 C369 1.369 . S
C370 C371 1.392 . S
C370 H383 0.951 . S
C371 C370 1.392 . S
C371 C373 1.384 . S
H372 C374 0.949 . S
C373 C371 1.384 . S
C373 C374 1.385 . S
C373 H375 0.950 . S
C374 C368 1.404 . S
C374 H372 0.949 . S
C374 C373 1.385 . S
H375 C373 0.950 . S
H376 C360 0.951 . S
H377 C362 0.951 . S
H378 C364 0.951 . S
H379 C365 0.950 . S
H380 C366 0.950 . S
H381 C367 0.950 . S
H382 C369 0.950 . S
H383 C370 0.951 . S
C384 C385 1.386 1_554 S
C384 C386 1.383 . S
C384 H400 0.951 . S
C385 C384 1.386 1_556 S
C385 C389 1.383 . S
C386 C384 1.383 . S
C386 C387 1.402 1_554 S
C386 H401 0.951 . S
C387 C386 1.402 1_556 S
C387 C388 1.375 . S
C387 C390 1.481 . S
C388 C387 1.375 . S
C388 C389 1.367 . S
C388 H402 0.951 . S
C389 C385 1.383 . S
C389 C388 1.367 . S
C389 H403 0.950 . S
C390 C387 1.481 . S
C390 C391 1.297 1_556 S
C390 H404 0.950 . S
C391 C390 1.297 1_554 S
C391 C392 1.479 1_554 S
C391 H405 0.950 . S
C392 C391 1.479 1_556 S
C392 C393 1.375 1_556 S
C392 C398 1.404 . S
C393 C392 1.375 1_554 S
C393 C394 1.369 . S
C393 H406 0.950 . S
C394 C393 1.369 . S
C394 C395 1.392 1_554 S
C394 H407 0.951 . S
C395 C394 1.392 1_556 S
C395 C397 1.384 . S
H396 C398 0.949 . S
C397 C395 1.384 . S
C397 C398 1.385 . S
C397 H399 0.950 . S
C398 C392 1.404 . S
C398 H396 0.949 . S
C398 C397 1.385 . S
H399 C397 0.950 . S
H400 C384 0.951 . S
H401 C386 0.951 . S
H402 C388 0.951 . S
H403 C389 0.950 . S
H404 C390 0.950 . S
H405 C391 0.950 . S
H406 C393 0.950 . S
H407 C394 0.951 . S
C408 C409 1.386 . S
C408 C410 1.383 . S
C408 H424 0.951 . S
C409 C408 1.386 . S
C409 C413 1.383 1_556 S
C410 C408 1.383 . S
C410 C411 1.402 . S
C410 H425 0.951 . S
C411 C410 1.402 . S
C411 C412 1.375 1_556 S
C411 C414 1.481 . S
C412 C411 1.375 1_554 S
C412 C413 1.367 . S
C412 H426 0.951 . S
C413 C409 1.383 1_554 S
C413 C412 1.367 . S
C413 H427 0.950 . S
C414 C411 1.481 . S
C414 C415 1.297 . S
C414 H428 0.950 1_556 S
C415 C414 1.297 . S
C415 C416 1.479 . S
C415 H429 0.950 . S
C416 C415 1.479 . S
C416 C417 1.375 . S
C416 C422 1.404 . S
C417 C416 1.375 . S
C417 C418 1.369 . S
C417 H430 0.950 . S
C418 C417 1.369 . S
C418 C419 1.392 . S
C418 H431 0.951 . S
C419 C418 1.392 . S
C419 C421 1.384 . S
H420 C422 0.949 1_554 S
C421 C419 1.384 . S
C421 C422 1.385 . S
C421 H423 0.950 1_556 S
C422 C416 1.404 . S
C422 H420 0.949 1_556 S
C422 C421 1.385 . S
H423 C421 0.950 1_554 S
H424 C408 0.951 . S
H425 C410 0.951 . S
H426 C412 0.951 . S
H427 C413 0.950 . S
H428 C414 0.950 1_554 S
H429 C415 0.950 . S
H430 C417 0.950 . S
H431 C418 0.951 . S
C432 C433 1.386 . S
C432 C434 1.383 . S
C432 H448 0.951 . S
C433 C432 1.386 . S
C433 C437 1.383 . S
C434 C432 1.383 . S
C434 C435 1.402 . S
C434 H449 0.951 . S
C435 C434 1.402 . S
C435 C436 1.375 . S
C435 C438 1.481 . S
C436 C435 1.375 . S
C436 C437 1.367 . S
C436 H450 0.951 1_556 S
C437 C433 1.383 . S
C437 C436 1.367 . S
C437 H451 0.950 1_556 S
C438 C435 1.481 . S
C438 C439 1.297 . S
C438 H452 0.950 1_556 S
C439 C438 1.297 . S
C439 C440 1.479 . S
C439 H453 0.950 . S
C440 C439 1.479 . S
C440 C441 1.375 . S
C440 C446 1.404 . S
C441 C440 1.375 . S
C441 C442 1.369 . S
C441 H454 0.950 . S
C442 C441 1.369 . S
C442 C443 1.392 . S
C442 H455 0.951 . S
C443 C442 1.392 . S
C443 C445 1.384 . S
H444 C446 0.949 1_554 S
C445 C443 1.384 . S
C445 C446 1.385 . S
C445 H447 0.950 1_556 S
C446 C440 1.404 . S
C446 H444 0.949 1_556 S
C446 C445 1.385 . S
H447 C445 0.950 1_554 S
H448 C432 0.951 . S
H449 C434 0.951 . S
H450 C436 0.951 1_554 S
H451 C437 0.950 1_554 S
H452 C438 0.950 1_554 S
H453 C439 0.950 . S
H454 C441 0.950 . S
H455 C442 0.951 . S
C456 C457 1.386 . S
C456 C458 1.383 . S
C456 H472 0.951 . S
C457 C456 1.386 . S
C457 C461 1.383 . S
C458 C456 1.383 . S
C458 C459 1.402 . S
C458 H473 0.951 . S
C459 C458 1.402 . S
C459 C460 1.375 1_556 S
C459 C462 1.481 . S
C460 C459 1.375 1_554 S
C460 C461 1.367 1_554 S
C460 H474 0.951 . S
C461 C457 1.383 . S
C461 C460 1.367 1_556 S
C461 H475 0.950 1_556 S
C462 C459 1.481 . S
C462 C463 1.297 . S
C462 H476 0.950 1_556 S
C463 C462 1.297 . S
C463 C464 1.479 . S
C463 H477 0.950 . S
C464 C463 1.479 . S
C464 C465 1.375 . S
C464 C470 1.404 1_556 S
C465 C464 1.375 . S
C465 C466 1.369 . S
C465 H478 0.950 . S
C466 C465 1.369 . S
C466 C467 1.392 1_556 S
C466 H479 0.951 . S
C467 C466 1.392 1_554 S
C467 C469 1.384 . S
H468 C470 0.949 . S
C469 C467 1.384 . S
C469 C470 1.385 . S
C469 H471 0.950 . S
C470 C464 1.404 1_554 S
C470 H468 0.949 . S
C470 C469 1.385 . S
H471 C469 0.950 . S
H472 C456 0.951 . S
H473 C458 0.951 . S
H474 C460 0.951 . S
H475 C461 0.950 1_554 S
H476 C462 0.950 1_554 S
H477 C463 0.950 . S
H478 C465 0.950 . S
H479 C466 0.951 . S
C480 C481 1.386 . S
C480 C482 1.383 . S
C480 H496 0.951 . S
C481 C480 1.386 . S
C481 C485 1.383 . S
C482 C480 1.383 . S
C482 C483 1.402 . S
C482 H497 0.951 . S
C483 C482 1.402 . S
C483 C484 1.375 . S
C483 C486 1.481 . S
C484 C483 1.375 . S
C484 C485 1.367 . S
C484 H498 0.951 . S
C485 C481 1.383 . S
C485 C484 1.367 . S
C485 H499 0.950 . S
C486 C483 1.481 . S
C486 C487 1.297 . S
C486 H500 0.950 . S
C487 C486 1.297 . S
C487 C488 1.479 . S
C487 H501 0.950 . S
C488 C487 1.479 . S
C488 C489 1.375 . S
C488 C494 1.404 . S
C489 C488 1.375 . S
C489 C490 1.369 . S
C489 H502 0.950 . S
C490 C489 1.369 . S
C490 C491 1.392 . S
C490 H503 0.951 . S
C491 C490 1.392 . S
C491 C493 1.384 . S
H492 C494 0.949 . S
C493 C491 1.384 . S
C493 C494 1.385 . S
C493 H495 0.950 . S
C494 C488 1.404 . S
C494 H492 0.949 . S
C494 C493 1.385 . S
H495 C493 0.950 . S
H496 C480 0.951 . S
H497 C482 0.951 . S
H498 C484 0.951 . S
H499 C485 0.950 . S
H500 C486 0.950 . S
H501 C487 0.950 . S
H502 C489 0.950 . S
H503 C490 0.951 . S
C504 C505 1.386 . S
C504 C506 1.383 . S
C504 H520 0.951 . S
C505 C504 1.386 . S
C505 C509 1.383 . S
C506 C504 1.383 . S
C506 C507 1.402 . S
C506 H521 0.951 . S
C507 C506 1.402 . S
C507 C508 1.375 . S
C507 C510 1.481 . S
C508 C507 1.375 . S
C508 C509 1.367 . S
C508 H522 0.951 . S
C509 C505 1.383 . S
C509 C508 1.367 . S
C509 H523 0.950 . S
C510 C507 1.481 . S
C510 C511 1.297 . S
C510 H524 0.950 . S
C511 C510 1.297 . S
C511 C512 1.479 . S
C511 H525 0.950 . S
C512 C511 1.479 . S
C512 C513 1.375 . S
C512 C518 1.404 . S
C513 C512 1.375 . S
C513 C514 1.369 1_556 S
C513 H526 0.950 1_556 S
C514 C513 1.369 1_554 S
C514 C515 1.392 1_554 S
C514 H527 0.951 . S
C515 C514 1.392 1_556 S
C515 C517 1.384 . S
H516 C518 0.949 . S
C517 C515 1.384 . S
C517 C518 1.385 . S
C517 H519 0.950 . S
C518 C512 1.404 . S
C518 H516 0.949 . S
C518 C517 1.385 . S
H519 C517 0.950 . S
H520 C504 0.951 . S
H521 C506 0.951 . S
H522 C508 0.951 . S
H523 C509 0.950 . S
H524 C510 0.950 . S
H525 C511 0.950 . S
H526 C513 0.950 1_554 S
H527 C514 0.951 . S
C528 C529 1.386 . S
C528 C530 1.383 . S
C528 H544 0.951 . S
C529 C528 1.386 . S
C529 C533 1.383 . S
C530 C528 1.383 . S
C530 C531 1.402 . S
C530 H545 0.951 . S
C531 C530 1.402 . S
C531 C532 1.375 . S
C531 C534 1.481 . S
C532 C531 1.375 . S
C532 C533 1.367 . S
C532 H546 0.951 . S
C533 C529 1.383 . S
C533 C532 1.367 . S
C533 H547 0.950 . S
C534 C531 1.481 . S
C534 C535 1.297 . S
C534 H548 0.950 . S
C535 C534 1.297 . S
C535 C536 1.479 . S
C535 H549 0.950 . S
C536 C535 1.479 . S
C536 C537 1.375 . S
C536 C542 1.404 . S
C537 C536 1.375 . S
C537 C538 1.369 . S
C537 H550 0.950 . S
C538 C537 1.369 . S
C538 C539 1.392 . S
C538 H551 0.951 . S
C539 C538 1.392 . S
C539 C541 1.384 . S
H540 C542 0.949 . S
C541 C539 1.384 . S
C541 C542 1.385 . S
C541 H543 0.950 . S
C542 C536 1.404 . S
C542 H540 0.949 . S
C542 C541 1.385 . S
H543 C541 0.950 . S
H544 C528 0.951 . S
H545 C530 0.951 . S
H546 C532 0.951 . S
H547 C533 0.950 . S
H548 C534 0.950 . S
H549 C535 0.950 . S
H550 C537 0.950 . S
H551 C538 0.951 . S
C552 C553 1.386 . S
C552 C554 1.383 . S
C552 H568 0.951 . S
C553 C552 1.386 . S
C553 C557 1.383 . S
C554 C552 1.383 . S
C554 C555 1.402 . S
C554 H569 0.951 . S
C555 C554 1.402 . S
C555 C556 1.375 . S
C555 C558 1.481 . S
C556 C555 1.375 . S
C556 C557 1.367 . S
C556 H570 0.951 . S
C557 C553 1.383 . S
C557 C556 1.367 . S
C557 H571 0.950 . S
C558 C555 1.481 . S
C558 C559 1.297 . S
C558 H572 0.950 . S
C559 C558 1.297 . S
C559 C560 1.479 . S
C559 H573 0.950 . S
C560 C559 1.479 . S
C560 C561 1.375 . S
C560 C566 1.404 . S
C561 C560 1.375 . S
C561 C562 1.369 . S
C561 H574 0.950 . S
C562 C561 1.369 . S
C562 C563 1.392 . S
C562 H575 0.951 . S
C563 C562 1.392 . S
C563 C565 1.384 . S
H564 C566 0.949 . S
C565 C563 1.384 . S
C565 C566 1.385 . S
C565 H567 0.950 . S
C566 C560 1.404 . S
C566 H564 0.949 . S
C566 C565 1.385 . S
H567 C565 0.950 . S
H568 C552 0.951 . S
H569 C554 0.951 . S
H570 C556 0.951 . S
H571 C557 0.950 . S
H572 C558 0.950 . S
H573 C559 0.950 . S
H574 C561 0.950 . S
H575 C562 0.951 . S
C576 C577 1.386 . S
C576 C578 1.383 . S
C576 H592 0.951 . S
C577 C576 1.386 . S
C577 C581 1.383 . S
C578 C576 1.383 . S
C578 C579 1.402 . S
C578 H593 0.951 . S
C579 C578 1.402 . S
C579 C580 1.375 . S
C579 C582 1.481 . S
C580 C579 1.375 . S
C580 C581 1.367 . S
C580 H594 0.951 . S
C581 C577 1.383 . S
C581 C580 1.367 . S
C581 H595 0.950 . S
C582 C579 1.481 . S
C582 C583 1.297 . S
C582 H596 0.950 . S
C583 C582 1.297 . S
C583 C584 1.479 . S
C583 H597 0.950 . S
C584 C583 1.479 . S
C584 C585 1.375 . S
C584 C590 1.404 . S
C585 C584 1.375 . S
C585 C586 1.369 . S
C585 H598 0.950 . S
C586 C585 1.369 . S
C586 C587 1.392 . S
C586 H599 0.951 . S
C587 C586 1.392 . S
C587 C589 1.384 . S
H588 C590 0.949 . S
C589 C587 1.384 . S
C589 C590 1.385 . S
C589 H591 0.950 . S
C590 C584 1.404 . S
C590 H588 0.949 . S
C590 C589 1.385 . S
H591 C589 0.950 . S
H592 C576 0.951 . S
H593 C578 0.951 . S
H594 C580 0.951 . S
H595 C581 0.950 . S
H596 C582 0.950 . S
H597 C583 0.950 . S
H598 C585 0.950 . S
H599 C586 0.951 . S
C600 C601 1.386 . S
C600 C602 1.383 . S
C600 H616 0.951 . S
C601 C600 1.386 . S
C601 C605 1.383 . S
C602 C600 1.383 . S
C602 C603 1.402 . S
C602 H617 0.951 . S
C603 C602 1.402 . S
C603 C604 1.375 . S
C603 C606 1.481 . S
C604 C603 1.375 . S
C604 C605 1.367 . S
C604 H618 0.951 . S
C605 C601 1.383 . S
C605 C604 1.367 . S
C605 H619 0.950 . S
C606 C603 1.481 . S
C606 C607 1.297 . S
C606 H620 0.950 . S
C607 C606 1.297 . S
C607 C608 1.479 . S
C607 H621 0.950 . S
C608 C607 1.479 . S
C608 C609 1.375 . S
C608 C614 1.404 . S
C609 C608 1.375 . S
C609 C610 1.369 . S
C609 H622 0.950 . S
C610 C609 1.369 . S
C610 C611 1.392 . S
C610 H623 0.951 . S
C611 C610 1.392 . S
C611 C613 1.384 . S
H612 C614 0.949 . S
C613 C611 1.384 . S
C613 C614 1.385 . S
C613 H615 0.950 . S
C614 C608 1.404 . S
C614 H612 0.949 . S
C614 C613 1.385 . S
H615 C613 0.950 . S
H616 C600 0.951 . S
H617 C602 0.951 . S
H618 C604 0.951 . S
H619 C605 0.950 . S
H620 C606 0.950 . S
H621 C607 0.950 . S
H622 C609 0.950 . S
H623 C610 0.951 . S
C624 C625 1.386 . S
C624 C626 1.383 . S
C624 H640 0.951 . S
C625 C624 1.386 . S
C625 C629 1.383 . S
C626 C624 1.383 . S
C626 C627 1.402 . S
C626 H641 0.951 . S
C627 C626 1.402 . S
C627 C628 1.375 . S
C627 C630 1.481 . S
C628 C627 1.375 . S
C628 C629 1.367 . S
C628 H642 0.951 . S
C629 C625 1.383 . S
C629 C628 1.367 . S
C629 H643 0.950 . S
C630 C627 1.481 . S
C630 C631 1.297 . S
C630 H644 0.950 . S
C631 C630 1.297 . S
C631 C632 1.479 . S
C631 H645 0.950 . S
C632 C631 1.479 . S
C632 C633 1.375 . S
C632 C638 1.404 . S
C633 C632 1.375 . S
C633 C634 1.369 . S
C633 H646 0.950 . S
C634 C633 1.369 . S
C634 C635 1.392 . S
C634 H647 0.951 . S
C635 C634 1.392 . S
C635 C637 1.384 . S
H636 C638 0.949 . S
C637 C635 1.384 . S
C637 C638 1.385 . S
C637 H639 0.950 . S
C638 C632 1.404 . S
C638 H636 0.949 . S
C638 C637 1.385 . S
H639 C637 0.950 . S
H640 C624 0.951 . S
H641 C626 0.951 . S
H642 C628 0.951 . S
H643 C629 0.950 . S
H644 C630 0.950 . S
H645 C631 0.950 . S
H646 C633 0.950 . S
H647 C634 0.951 . S
C648 C649 1.386 . S
C648 C650 1.383 . S
C648 H664 0.951 . S
C649 C648 1.386 . S
C649 C653 1.383 . S
C650 C648 1.383 . S
C650 C651 1.402 . S
C650 H665 0.951 . S
C651 C650 1.402 . S
C651 C652 1.375 . S
C651 C654 1.481 . S
C652 C651 1.375 . S
C652 C653 1.367 . S
C652 H666 0.951 . S
C653 C649 1.383 . S
C653 C652 1.367 . S
C653 H667 0.950 . S
C654 C651 1.481 . S
C654 C655 1.297 . S
C654 H668 0.950 . S
C655 C654 1.297 . S
C655 C656 1.479 . S
C655 H669 0.950 . S
C656 C655 1.479 . S
C656 C657 1.375 . S
C656 C662 1.404 . S
C657 C656 1.375 . S
C657 C658 1.369 . S
C657 H670 0.950 . S
C658 C657 1.369 . S
C658 C659 1.392 . S
C658 H671 0.951 . S
C659 C658 1.392 . S
C659 C661 1.384 . S
H660 C662 0.949 . S
C661 C659 1.384 . S
C661 C662 1.385 . S
C661 H663 0.950 . S
C662 C656 1.404 . S
C662 H660 0.949 . S
C662 C661 1.385 . S
H663 C661 0.950 . S
H664 C648 0.951 . S
H665 C650 0.951 . S
H666 C652 0.951 . S
H667 C653 0.950 . S
H668 C654 0.950 . S
H669 C655 0.950 . S
H670 C657 0.950 . S
H671 C658 0.951 . S
C241 C213 2.695 . S
C251 C26 2.719 . S
C265 C13 3.881 . S
C275 C66 3.808 . S
C289 C53 3.112 . S
C299 C93 3.002 . S
C313 C133 2.839 . S
C323 C106 2.663 . S
C337 C186 1.991 . S
C347 C146 1.990 . S
C361 C173 2.465 . S
C371 C226 2.291 . S
C385 C184 1.405 1_556 S
C395 C17 1.359 . S
C409 C224 3.352 . S
C419 C57 3.337 . S
C433 C104 4.493 . S
C443 C24 4.473 . S
C457 C144 3.430 . S
C467 C64 3.431 . S
C481 C177 0.855 . S
C491 C97 0.869 . S
C505 C137 0.623 . S
C515 C217 0.394 . S
C529 C2 0.513 . S
C539 C23 0.532 . S
C553 C42 0.383 . S
C563 C63 0.532 . S
C577 C103 0.425 . S
C587 C82 0.613 . S
C601 C143 0.295 . S
C611 C122 0.532 . S
C625 C183 0.601 . S
C635 C162 0.469 . S
C649 C202 0.438 . S
C659 C223 0.494 . S
