# Generated by pormake.
# Topology smu, (6)-cn, num edge types: 1
# Building blocks:
#     Node 0, Type 0, BuildingBlock: VOLQOD_clean_sbu_1, # of connection points: 6
#     Node 1, Type 0, BuildingBlock: VOLQOD_clean_sbu_1, # of connection points: 6
#     Node 2, Type 0, BuildingBlock: VOLQOD_clean_sbu_1, # of connection points: 6
#     Node 3, Type 0, BuildingBlock: VOLQOD_clean_sbu_1, # of connection points: 6
#     Node 4, Type 0, BuildingBlock: VOLQOD_clean_sbu_1, # of connection points: 6
#     Node 5, Type 0, BuildingBlock: VOLQOD_clean_sbu_1, # of connection points: 6
#     Edge 6, Type (0, 0), BuildingBlock: OJICUG_clean_linker_0, # of connection points: 2
#     Edge 7, Type (0, 0), BuildingBlock: OJICUG_clean_linker_0, # of connection points: 2
#     Edge 8, Type (0, 0), BuildingBlock: OJICUG_clean_linker_0, # of connection points: 2
#     Edge 9, Type (0, 0), BuildingBlock: OJICUG_clean_linker_0, # of connection points: 2
#     Edge 10, Type (0, 0), BuildingBlock: OJICUG_clean_linker_0, # of connection points: 2
#     Edge 11, Type (0, 0), BuildingBlock: OJICUG_clean_linker_0, # of connection points: 2
#     Edge 12, Type (0, 0), BuildingBlock: OJICUG_clean_linker_0, # of connection points: 2
#     Edge 13, Type (0, 0), BuildingBlock: OJICUG_clean_linker_0, # of connection points: 2
#     Edge 14, Type (0, 0), BuildingBlock: OJICUG_clean_linker_0, # of connection points: 2
#     Edge 15, Type (0, 0), BuildingBlock: OJICUG_clean_linker_0, # of connection points: 2
#     Edge 16, Type (0, 0), BuildingBlock: OJICUG_clean_linker_0, # of connection points: 2
#     Edge 17, Type (0, 0), BuildingBlock: OJICUG_clean_linker_0, # of connection points: 2
#     Edge 18, Type (0, 0), BuildingBlock: OJICUG_clean_linker_0, # of connection points: 2
#     Edge 19, Type (0, 0), BuildingBlock: OJICUG_clean_linker_0, # of connection points: 2
#     Edge 20, Type (0, 0), BuildingBlock: OJICUG_clean_linker_0, # of connection points: 2
#     Edge 21, Type (0, 0), BuildingBlock: OJICUG_clean_linker_0, # of connection points: 2
#     Edge 22, Type (0, 0), BuildingBlock: OJICUG_clean_linker_0, # of connection points: 2
#     Edge 23, Type (0, 0), BuildingBlock: OJICUG_clean_linker_0, # of connection points: 2
# Relax obj value: 0.301
# Max RMSD: 0.244
# Mean RMSD: 0.244
data_MOF--net-smu--node1-VOLQOD_clean_sbu_1--edge1-OJICUG_clean_linker_0
_symmetry_space_group_name_H-M    P1
_symmetry_Int_Tables_number       1
_symmetry_cell_setting            triclinic
loop_
_symmetry_equiv_pos_as_xyz
'x, y, z'
_cell_length_a     23.991705
_cell_length_b     24.025823
_cell_length_c     24.882743
_cell_angle_alpha  89.999499
_cell_angle_beta   90.237428
_cell_angle_gamma 120.05514
loop_
_atom_site_label
_atom_site_type_symbol
_atom_site_fract_x
_atom_site_fract_y
_atom_site_fract_z
_atom_type_partial_charge
O0 O 0.38958 0.218 0.20086 0.0
Zn1 Zn 0.31159 0.13132 0.18352 0.0
O2 O 0.30069 0.07244 0.24085 0.0
Zn3 Zn 0.30358 -0.00119 0.21579 0.0
Zn4 Zn 0.36098 0.11362 0.29653 0.0
Zn5 Zn 0.22131 0.04559 0.27412 0.0
O6 O 0.22166 0.91805 0.23957 0.0
O7 O 0.16014 0.96373 0.23978 0.0
O8 O 0.30848 0.09018 0.10973 0.0
O9 O 0.29553 -0.00411 0.13613 0.0
O10 O 0.3922 0.00968 0.23374 0.0
O11 O 0.43332 0.0994 0.28297 0.0
O12 O 0.32598 0.07427 0.36962 0.0
O13 O 0.24258 0.15592 0.18702 0.0
O14 O 0.22153 0.02417 0.35203 0.0
O15 O 0.19733 0.11346 0.26552 0.0
C16 C 0.40566 0.24271 0.24796 0.0
C17 C 0.16658 0.91432 0.23717 0.0
C18 C 0.43905 0.05568 0.2593 0.0
C19 C 0.29856 0.03371 0.09904 0.0
C20 C 0.26789 0.03822 0.38435 0.0
C21 C 0.20732 0.15181 0.22668 0.0
O22 O 0.39181 0.2077 0.29 0.0
O23 O 0.78289 0.55915 0.21545 0.0
Zn24 Zn 0.77546 0.63789 0.20057 0.0
O25 O 0.72919 0.64927 0.25916 0.0
Zn26 Zn 0.65343 0.64881 0.23331 0.0
Zn27 Zn 0.70805 0.58626 0.31296 0.0
Zn28 Zn 0.78422 0.72655 0.29551 0.0
O29 O 0.65576 0.73108 0.25725 0.0
O30 O 0.76276 0.78986 0.26821 0.0
O31 O 0.73768 0.6422 0.12709 0.0
O32 O 0.6586 0.65834 0.15377 0.0
O33 O 0.57429 0.56051 0.24841 0.0
O34 O 0.62051 0.51657 0.29723 0.0
O35 O 0.70549 0.61896 0.38788 0.0
O36 O 0.86906 0.70617 0.2033 0.0
O37 O 0.76731 0.72339 0.37441 0.0
O38 O 0.87581 0.75223 0.28239 0.0
C39 C 0.78946 0.5394 0.26154 0.0
C40 C 0.70797 0.78521 0.26147 0.0
C41 C 0.57196 0.51252 0.27286 0.0
C42 C 0.69245 0.65418 0.11656 0.0
C43 C 0.73263 0.67661 0.4052 0.0
C44 C 0.90222 0.74251 0.242 0.0
O45 O 0.76853 0.55187 0.30442 0.0
O46 O 0.73718 0.1606 0.20383 0.0
Zn47 Zn 0.82452 0.16958 0.19141 0.0
O48 O 0.88196 0.22041 0.24871 0.0
Zn49 Zn 0.95374 0.29873 0.22386 0.0
Zn50 Zn 0.83641 0.23183 0.30541 0.0
Zn51 Zn 0.9161 0.17416 0.28052 0.0
O52 O 0.038 0.30145 0.24463 0.0
O53 O -0.00567 0.19485 0.2412 0.0
O54 O 0.86622 0.20587 0.11802 0.0
O55 O 0.95563 0.29447 0.1439 0.0
O56 O 0.93844 0.37261 0.24476 0.0
O57 O 0.85164 0.31993 0.29681 0.0
O58 O 0.86947 0.22694 0.38004 0.0
O59 O 0.80141 0.07701 0.19964 0.0
O60 O 0.94308 0.20176 0.35657 0.0
O61 O 0.85034 0.08149 0.27695 0.0
C62 C 0.70969 0.15133 0.24954 0.0
C63 C 0.04292 0.25116 0.23845 0.0
C64 C 0.89302 0.37082 0.273 0.0
C65 C 0.92013 0.25608 0.10717 0.0
C66 C 0.91678 0.21903 0.39196 0.0
C67 C 0.80939 0.04955 0.24035 0.0
O68 O 0.74219 0.17021 0.29325 0.0
O69 O 0.20498 0.3944 0.79413 0.0
Zn70 Zn 0.11763 0.31605 0.80657 0.0
O71 O 0.0602 0.30945 0.74926 0.0
Zn72 Zn -0.01156 0.31601 0.7741 0.0
Zn73 Zn 0.10576 0.36642 0.69257 0.0
Zn74 Zn 0.02604 0.22904 0.71746 0.0
O75 O 0.90417 0.23447 0.75331 0.0
O76 O 0.9478 0.17152 0.75678 0.0
O77 O 0.07593 0.31067 0.87996 0.0
O78 O -0.01347 0.30987 0.85406 0.0
O79 O 0.00377 0.4052 0.75318 0.0
O80 O 0.09058 0.43931 0.70116 0.0
O81 O 0.07268 0.32847 0.61794 0.0
O82 O 0.1407 0.24657 0.79836 0.0
O83 O -0.00095 0.22967 0.64141 0.0
O84 O 0.0918 0.20214 0.72103 0.0
C85 C 0.23247 0.41259 0.74842 0.0
C86 C 0.89922 0.17925 0.75952 0.0
C87 C 0.0492 0.44883 0.72495 0.0
C88 C 0.02203 0.30698 0.8908 0.0
C89 C 0.02536 0.27325 0.60603 0.0
C90 C 0.13273 0.21115 0.75764 0.0
O91 O 0.19996 0.39897 0.70472 0.0
O92 O 0.15922 0.74732 0.7824 0.0
Zn93 Zn 0.16665 0.83349 0.79727 0.0
O94 O 0.21295 0.89115 0.73868 0.0
Zn95 Zn 0.28874 0.96644 0.76453 0.0
Zn96 Zn 0.23405 0.84925 0.68487 0.0
Zn97 Zn 0.15796 0.91344 0.70234 0.0
O98 O 0.28644 0.04641 0.74062 0.0
O99 O 0.17944 -0.0018 0.72968 0.0
O100 O 0.20442 0.87558 0.87075 0.0
O101 O 0.28357 0.97079 0.84408 0.0
O102 O 0.36784 0.95722 0.74944 0.0
O103 O 0.32157 0.86708 0.70058 0.0
O104 O 0.23659 0.88451 0.60994 0.0
O105 O 0.07306 0.80817 0.79452 0.0
O106 O 0.17485 0.9272 0.62345 0.0
O107 O 0.06636 0.84754 0.71545 0.0
C108 C 0.15264 0.72099 0.73632 0.0
C109 C 0.23425 0.04834 0.73642 0.0
C110 C 0.37014 0.91155 0.72497 0.0
C111 C 0.24969 0.9328 0.88128 0.0
C112 C 0.20949 0.91505 0.59264 0.0
C113 C 0.03991 0.81137 0.75583 0.0
O114 O 0.17356 0.75438 0.69342 0.0
O115 O 0.55247 0.79937 0.79697 0.0
Zn116 Zn 0.63046 0.79069 0.81431 0.0
O117 O 0.64138 0.74273 0.75698 0.0
Zn118 Zn 0.63856 0.66625 0.78204 0.0
Zn119 Zn 0.58107 0.72357 0.70131 0.0
Zn120 Zn 0.72075 0.79531 0.7237 0.0
O121 O 0.72048 0.66745 0.75825 0.0
O122 O 0.78197 0.77468 0.75801 0.0
O123 O 0.63357 0.75267 0.8881 0.0
O124 O 0.64662 0.6714 0.8617 0.0
O125 O 0.54996 0.58845 0.76413 0.0
O126 O 0.50878 0.63698 0.7149 0.0
O127 O 0.61607 0.71924 0.62821 0.0
O128 O 0.69946 0.88431 0.81083 0.0
O129 O 0.72052 0.77368 0.64579 0.0
O130 O 0.7447 0.88715 0.73231 0.0
C131 C 0.53635 0.80795 0.74987 0.0
C132 C 0.77556 0.71884 0.76062 0.0
C133 C 0.50309 0.58754 0.73857 0.0
C134 C 0.64354 0.70615 0.89879 0.0
C135 C 0.67417 0.74134 0.61347 0.0
C136 C 0.73471 0.91549 0.77117 0.0
O137 O 0.55019 0.78678 0.70783 0.0
C138 C 0.24144 0.9167 0.98148 0.0
C139 C 0.26215 0.95814 0.93715 0.0
H140 H 0.23739 0.90816 0.06707 0.0
C141 C 0.29486 0.02514 0.94641 0.0
H142 H 0.21609 0.86504 0.97581 0.0
C143 C 0.30639 0.05009 0.99874 0.0
C144 C 0.28655 0.00864 0.04308 0.0
H145 H 0.31099 0.05856 0.91309 0.0
H146 H 0.33137 0.10173 0.00445 0.0
C147 C 0.254 0.94165 0.03379 0.0
C148 C 0.74859 0.76467 0.53572 0.0
C149 C 0.68844 0.72516 0.55971 0.0
H150 H 0.8096 0.78028 0.46802 0.0
C151 C 0.64394 0.66795 0.53353 0.0
H152 H 0.78404 0.80882 0.55508 0.0
C153 C 0.6594 0.65057 0.48442 0.0
C154 C 0.71907 0.69081 0.45995 0.0
H155 H 0.59756 0.63606 0.55141 0.0
H156 H 0.62394 0.60656 0.46489 0.0
C157 C 0.76339 0.74812 0.48606 0.0
C158 C 0.90423 0.24749 0.00695 0.0
C159 C 0.94557 0.26878 0.05161 0.0
H160 H 0.89625 0.24396 0.92118 0.0
C161 C 0.01269 0.30241 0.04308 0.0
H162 H 0.85247 0.22138 0.01223 0.0
C163 C 0.03793 0.31433 0.99102 0.0
C164 C -0.00342 0.29426 0.94635 0.0
H165 H 0.04591 0.31882 0.07679 0.0
H166 H 0.08968 0.33997 0.98573 0.0
C167 C 0.92946 0.26078 0.95489 0.0
C168 C 0.29813 -0.00493 0.46429 0.0
C169 C 0.25362 0.00776 0.43811 0.0
H170 H 0.31816 0.95371 0.53292 0.0
C171 C 0.19348 -0.01289 0.46212 0.0
H172 H 0.34451 0.00958 0.44639 0.0
C173 C 0.1787 0.95578 0.51179 0.0
C174 C 0.22303 0.94281 0.53788 0.0
H175 H 0.15802 -0.0042 0.44276 0.0
H176 H 0.13249 0.94172 0.52983 0.0
C177 C 0.28269 0.96225 0.5134 0.0
C178 C 0.68812 0.65868 0.96406 0.0
C179 C 0.65556 0.69311 0.95476 0.0
H180 H 0.72603 0.62001 0.02204 0.0
C181 C 0.63572 0.71471 -0.00091 0.0
H182 H 0.70472 0.6418 0.93078 0.0
C183 C 0.64726 0.70132 0.05142 0.0
C184 C 0.67998 0.66704 0.06069 0.0
H185 H 0.61073 0.74137 0.99338 0.0
H186 H 0.63113 0.71861 0.08474 0.0
C187 C 0.70068 0.64631 0.01636 0.0
C188 C 0.01139 0.26644 0.45424 0.0
C189 C 0.94418 0.23319 0.44681 0.0
H190 H 0.08996 0.30696 0.51074 0.0
C191 C 0.90406 0.21378 0.49198 0.0
H192 H 0.04332 0.28219 0.41992 0.0
C193 C 0.93074 0.22605 0.54374 0.0
C194 C -0.00205 0.26004 0.55117 0.0
H195 H 0.85217 0.18802 0.48725 0.0
H196 H 0.89882 0.20982 0.57806 0.0
C197 C 0.03807 0.28081 0.506 0.0
C198 C 0.5328 0.06366 0.20958 0.0
C199 C 0.50408 0.06429 0.25839 0.0
H200 H 0.6212 0.09204 0.16806 0.0
C201 C 0.54236 0.08792 0.30478 0.0
H202 H 0.50423 0.04666 0.17313 0.0
C203 C 0.60878 0.11418 0.302 0.0
C204 C 0.63858 0.11812 0.25254 0.0
H205 H 0.52118 0.08925 0.34281 0.0
H206 H 0.6369 0.13388 0.33837 0.0
C207 C 0.59976 0.09068 0.2066 0.0
C208 C 0.49101 0.42158 0.2172 0.0
C209 C 0.51586 0.44765 0.26806 0.0
H210 H 0.43736 0.33559 0.17049 0.0
C211 C 0.49888 0.40667 0.31261 0.0
H212 H 0.50458 0.45228 0.18212 0.0
C213 C 0.46142 0.34037 0.30608 0.0
C214 C 0.44058 0.31345 0.25467 0.0
H215 H 0.51807 0.42578 0.35215 0.0
H216 H 0.45131 0.31022 0.3412 0.0
C217 C 0.45371 0.3548 0.21049 0.0
C218 C 0.8504 0.43363 0.31791 0.0
C219 C 0.88056 0.42486 0.27308 0.0
H220 H 0.79777 0.47615 0.34935 0.0
C221 C 0.88548 0.45829 0.22548 0.0
H222 H 0.84577 0.40812 0.35504 0.0
C223 C 0.85666 0.49644 0.22175 0.0
C224 C 0.82313 0.50214 0.26577 0.0
H225 H 0.90767 0.45154 0.19013 0.0
H226 H 0.85917 0.51998 0.18398 0.0
C227 C 0.82229 0.47209 0.31441 0.0
C228 C 0.05669 0.54385 0.77242 0.0
C229 C 0.06166 0.51533 0.72484 0.0
H230 H 0.08294 0.63185 0.81389 0.0
C231 C 0.09182 0.55426 0.68001 0.0
H232 H 0.0345 0.51491 0.80778 0.0
C233 C 0.11989 0.62082 0.68348 0.0
C234 C 0.11901 0.65005 0.7321 0.0
H235 H 0.09647 0.53336 0.64289 0.0
H236 H 0.14441 0.64941 0.64854 0.0
C237 C 0.08548 0.61082 0.77613 0.0
C238 C 0.45109 0.90155 0.7806 0.0
C239 C 0.4262 0.90273 0.72975 0.0
H240 H 0.50474 0.86923 0.82732 0.0
C241 C 0.44311 0.87866 0.68522 0.0
H242 H 0.43757 0.91873 0.81568 0.0
C243 C 0.48054 0.8498 0.69175 0.0
C244 C 0.50143 0.84377 0.74316 0.0
H245 H 0.4239 0.87855 0.64568 0.0
H246 H 0.49061 0.82971 0.65664 0.0
C247 C 0.48836 0.87204 0.78732 0.0
C248 C 0.34239 0.4619 0.79135 0.0
C249 C 0.30358 0.45046 0.74541 0.0
H250 H 0.43792 0.51345 0.82482 0.0
C251 C 0.33338 0.47623 0.69593 0.0
H252 H 0.32095 0.44189 0.82991 0.0
C253 C 0.3998 0.51636 0.69313 0.0
C254 C 0.43808 0.53109 0.73952 0.0
H255 H 0.30525 0.46774 0.65955 0.0
H256 H 0.42098 0.53881 0.65507 0.0
C257 C 0.40936 0.50182 0.78836 0.0
C258 C 0.16112 0.213 0.18159 0.0
C259 C 0.17842 0.19324 0.22881 0.0
H260 H 0.10429 0.25059 0.14789 0.0
C261 C 0.16479 0.2106 0.27888 0.0
H262 H 0.17176 0.2008 0.14251 0.0
C263 C 0.12864 0.24125 0.2818 0.0
C264 C 0.10489 0.25411 0.23477 0.0
H265 H 0.17896 0.19726 0.31592 0.0
H266 H 0.11317 0.24822 0.32087 0.0
C267 C 0.1238 0.24267 0.1846 0.0
C268 C 0.00565 0.78869 0.19119 0.0
C269 C -0.02712 0.77432 0.24041 0.0
H270 H 0.09637 0.84501 0.15169 0.0
C271 C 0.00834 0.79405 0.28858 0.0
H272 H -0.02065 0.77352 0.15354 0.0
C273 C 0.07505 0.83286 0.28742 0.0
C274 C 0.107 0.85279 0.23816 0.0
H275 H -0.01571 0.78247 0.32712 0.0
H276 H 0.10085 0.85255 0.32484 0.0
C277 C 0.07251 0.82849 0.19008 0.0
C278 C 0.73963 0.93902 0.20221 0.0
C279 C 0.76913 0.97949 0.24669 0.0
H280 H 0.69351 0.84198 0.17271 0.0
C281 C 0.76186 0.95231 0.29796 0.0
H282 H 0.74378 0.95887 0.16237 0.0
C283 C 0.7316 0.88598 0.30391 0.0
C284 C 0.7084 0.84588 0.25875 0.0
H285 H 0.78257 -0.01767 0.33322 0.0
H286 H 0.73205 0.86635 0.34304 0.0
C287 C 0.7097 0.87229 0.2082 0.0
C288 C 0.20248 0.17037 0.79577 0.0
C289 C 0.17301 0.18138 0.75129 0.0
H290 H 0.2486 0.11945 0.82525 0.0
C291 C 0.18037 0.16157 0.7 0.0
H292 H 0.19828 0.186 0.83562 0.0
C293 C 0.21067 0.12554 0.69404 0.0
C294 C 0.23382 0.10858 0.73919 0.0
H295 H 0.15969 0.17091 0.66475 0.0
H296 H 0.21027 0.10553 0.65488 0.0
C297 C 0.23244 0.1336 0.78976 0.0
C298 C 0.93381 0.75685 0.70922 0.0
C299 C 0.96926 0.77254 0.75739 0.0
H300 H 0.84133 0.72288 0.67295 0.0
C301 C 0.93647 0.75414 0.80661 0.0
H302 H 0.95788 0.76933 0.67069 0.0
C303 C 0.86961 0.72709 0.8077 0.0
C304 C 0.83515 0.71694 0.75961 0.0
H305 H 0.96275 0.76523 0.84427 0.0
H306 H 0.84573 0.71972 0.84609 0.0
C307 C 0.86711 0.72896 0.71037 0.0
C308 C 0.81836 0.08987 0.81333 0.0
C309 C 0.83723 0.12024 0.76316 0.0
H310 H 0.77038 1e-05 0.85539 0.0
C311 C 0.81342 0.08367 0.71612 0.0
H312 H 0.83791 0.11727 0.85004 0.0
C313 C 0.77722 0.01685 0.71901 0.0
C314 C 0.76363 -0.01417 0.76908 0.0
H315 H 0.82887 0.10614 0.67707 0.0
H316 H 0.763 -0.01064 0.68197 0.0
C317 C 0.78099 0.02286 0.81632 0.0
loop_
_geom_bond_atom_site_label_1
_geom_bond_atom_site_label_2
_geom_bond_distance
_geom_bond_site_symmetry_2
_ccdc_geom_bond_type
O0 Zn1 1.953 . S
O0 C16 1.225 . S
Zn1 O0 1.953 . S
Zn1 O2 1.949 . S
Zn1 O8 1.919 . S
Zn1 O13 1.924 . S
O2 Zn1 1.949 . S
O2 Zn3 1.923 . S
O2 Zn4 1.950 . S
O2 Zn5 1.945 . S
Zn3 O2 1.923 . S
Zn3 O6 1.933 1_545 S
Zn3 O9 1.941 . S
Zn3 O10 1.965 . S
Zn4 O2 1.950 . S
Zn4 O11 1.938 . S
Zn4 O12 1.906 . S
Zn4 O22 1.953 . S
Zn5 O2 1.945 . S
Zn5 O7 1.932 1_545 S
Zn5 O14 1.977 . S
Zn5 O15 1.910 . S
O6 Zn3 1.933 1_565 S
O6 C17 1.226 . S
O7 Zn5 1.932 1_565 S
O7 C17 1.307 . S
O8 Zn1 1.919 . S
O8 C19 1.253 . S
O9 Zn3 1.941 . S
O9 C19 1.283 . S
O10 Zn3 1.965 . S
O10 C18 1.303 . S
O11 Zn4 1.938 . S
O11 C18 1.247 . S
O12 Zn4 1.906 . S
O12 C20 1.304 . S
O13 Zn1 1.924 . S
O13 C21 1.311 . S
O14 Zn5 1.977 . S
O14 C20 1.272 . S
O15 Zn5 1.910 . S
O15 C21 1.231 . S
C16 O0 1.225 . S
C16 O22 1.298 . S
C17 O6 1.226 . S
C17 O7 1.307 . S
C18 O10 1.303 . S
C18 O11 1.247 . S
C19 O8 1.253 . S
C19 O9 1.283 . S
C20 O12 1.304 . S
C20 O14 1.272 . S
C21 O13 1.311 . S
C21 O15 1.231 . S
O22 Zn4 1.953 . S
O22 C16 1.298 . S
O23 Zn24 1.953 . S
O23 C39 1.225 . S
Zn24 O23 1.953 . S
Zn24 O25 1.949 . S
Zn24 O31 1.919 . S
Zn24 O36 1.924 . S
O25 Zn24 1.949 . S
O25 Zn26 1.923 . S
O25 Zn27 1.950 . S
O25 Zn28 1.945 . S
Zn26 O25 1.923 . S
Zn26 O29 1.933 . S
Zn26 O32 1.941 . S
Zn26 O33 1.965 . S
Zn27 O25 1.950 . S
Zn27 O34 1.938 . S
Zn27 O35 1.906 . S
Zn27 O45 1.953 . S
Zn28 O25 1.945 . S
Zn28 O30 1.932 . S
Zn28 O37 1.977 . S
Zn28 O38 1.910 . S
O29 Zn26 1.933 . S
O29 C40 1.226 . S
O30 Zn28 1.932 . S
O30 C40 1.307 . S
O31 Zn24 1.919 . S
O31 C42 1.253 . S
O32 Zn26 1.941 . S
O32 C42 1.283 . S
O33 Zn26 1.965 . S
O33 C41 1.303 . S
O34 Zn27 1.938 . S
O34 C41 1.247 . S
O35 Zn27 1.906 . S
O35 C43 1.304 . S
O36 Zn24 1.924 . S
O36 C44 1.311 . S
O37 Zn28 1.977 . S
O37 C43 1.272 . S
O38 Zn28 1.910 . S
O38 C44 1.231 . S
C39 O23 1.225 . S
C39 O45 1.298 . S
C40 O29 1.226 . S
C40 O30 1.307 . S
C41 O33 1.303 . S
C41 O34 1.247 . S
C42 O31 1.253 . S
C42 O32 1.283 . S
C43 O35 1.304 . S
C43 O37 1.272 . S
C44 O36 1.311 . S
C44 O38 1.231 . S
O45 Zn27 1.953 . S
O45 C39 1.298 . S
O46 Zn47 1.953 . S
O46 C62 1.225 . S
Zn47 O46 1.953 . S
Zn47 O48 1.949 . S
Zn47 O54 1.919 . S
Zn47 O59 1.924 . S
O48 Zn47 1.949 . S
O48 Zn49 1.923 . S
O48 Zn50 1.950 . S
O48 Zn51 1.945 . S
Zn49 O48 1.923 . S
Zn49 O52 1.933 1_655 S
Zn49 O55 1.941 . S
Zn49 O56 1.965 . S
Zn50 O48 1.950 . S
Zn50 O57 1.938 . S
Zn50 O58 1.906 . S
Zn50 O68 1.953 . S
Zn51 O48 1.945 . S
Zn51 O53 1.932 1_655 S
Zn51 O60 1.977 . S
Zn51 O61 1.910 . S
O52 Zn49 1.933 1_455 S
O52 C63 1.226 . S
O53 Zn51 1.932 1_455 S
O53 C63 1.307 . S
O54 Zn47 1.919 . S
O54 C65 1.253 . S
O55 Zn49 1.941 . S
O55 C65 1.283 . S
O56 Zn49 1.965 . S
O56 C64 1.303 . S
O57 Zn50 1.938 . S
O57 C64 1.247 . S
O58 Zn50 1.906 . S
O58 C66 1.304 . S
O59 Zn47 1.924 . S
O59 C67 1.311 . S
O60 Zn51 1.977 . S
O60 C66 1.272 . S
O61 Zn51 1.910 . S
O61 C67 1.231 . S
C62 O46 1.225 . S
C62 O68 1.298 . S
C63 O52 1.226 . S
C63 O53 1.307 . S
C64 O56 1.303 . S
C64 O57 1.247 . S
C65 O54 1.253 . S
C65 O55 1.283 . S
C66 O58 1.304 . S
C66 O60 1.272 . S
C67 O59 1.311 . S
C67 O61 1.231 . S
O68 Zn50 1.953 . S
O68 C62 1.298 . S
O69 Zn70 1.953 . S
O69 C85 1.225 . S
Zn70 O69 1.953 . S
Zn70 O71 1.949 . S
Zn70 O77 1.919 . S
Zn70 O82 1.924 . S
O71 Zn70 1.949 . S
O71 Zn72 1.923 . S
O71 Zn73 1.950 . S
O71 Zn74 1.945 . S
Zn72 O71 1.923 . S
Zn72 O75 1.933 1_455 S
Zn72 O78 1.941 . S
Zn72 O79 1.965 . S
Zn73 O71 1.950 . S
Zn73 O80 1.938 . S
Zn73 O81 1.906 . S
Zn73 O91 1.953 . S
Zn74 O71 1.945 . S
Zn74 O76 1.932 1_455 S
Zn74 O83 1.977 . S
Zn74 O84 1.910 . S
O75 Zn72 1.933 1_655 S
O75 C86 1.226 . S
O76 Zn74 1.932 1_655 S
O76 C86 1.307 . S
O77 Zn70 1.919 . S
O77 C88 1.253 . S
O78 Zn72 1.941 . S
O78 C88 1.283 . S
O79 Zn72 1.965 . S
O79 C87 1.303 . S
O80 Zn73 1.938 . S
O80 C87 1.247 . S
O81 Zn73 1.906 . S
O81 C89 1.304 . S
O82 Zn70 1.924 . S
O82 C90 1.311 . S
O83 Zn74 1.977 . S
O83 C89 1.272 . S
O84 Zn74 1.910 . S
O84 C90 1.231 . S
C85 O69 1.225 . S
C85 O91 1.298 . S
C86 O75 1.226 . S
C86 O76 1.307 . S
C87 O79 1.303 . S
C87 O80 1.247 . S
C88 O77 1.253 . S
C88 O78 1.283 . S
C89 O81 1.304 . S
C89 O83 1.272 . S
C90 O82 1.311 . S
C90 O84 1.231 . S
O91 Zn73 1.953 . S
O91 C85 1.298 . S
O92 Zn93 1.953 . S
O92 C108 1.225 . S
Zn93 O92 1.953 . S
Zn93 O94 1.949 . S
Zn93 O100 1.919 . S
Zn93 O105 1.924 . S
O94 Zn93 1.949 . S
O94 Zn95 1.923 . S
O94 Zn96 1.950 . S
O94 Zn97 1.945 . S
Zn95 O94 1.923 . S
Zn95 O98 1.933 1_565 S
Zn95 O101 1.941 . S
Zn95 O102 1.965 . S
Zn96 O94 1.950 . S
Zn96 O103 1.938 . S
Zn96 O104 1.906 . S
Zn96 O114 1.953 . S
Zn97 O94 1.945 . S
Zn97 O99 1.932 1_565 S
Zn97 O106 1.977 . S
Zn97 O107 1.910 . S
O98 Zn95 1.933 1_545 S
O98 C109 1.226 . S
O99 Zn97 1.932 1_545 S
O99 C109 1.307 . S
O100 Zn93 1.919 . S
O100 C111 1.253 . S
O101 Zn95 1.941 . S
O101 C111 1.283 . S
O102 Zn95 1.965 . S
O102 C110 1.303 . S
O103 Zn96 1.938 . S
O103 C110 1.247 . S
O104 Zn96 1.906 . S
O104 C112 1.304 . S
O105 Zn93 1.924 . S
O105 C113 1.311 . S
O106 Zn97 1.977 . S
O106 C112 1.272 . S
O107 Zn97 1.910 . S
O107 C113 1.231 . S
C108 O92 1.225 . S
C108 O114 1.298 . S
C109 O98 1.226 . S
C109 O99 1.307 . S
C110 O102 1.303 . S
C110 O103 1.247 . S
C111 O100 1.253 . S
C111 O101 1.283 . S
C112 O104 1.304 . S
C112 O106 1.272 . S
C113 O105 1.311 . S
C113 O107 1.231 . S
O114 Zn96 1.953 . S
O114 C108 1.298 . S
O115 Zn116 1.953 . S
O115 C131 1.225 . S
Zn116 O115 1.953 . S
Zn116 O117 1.949 . S
Zn116 O123 1.919 . S
Zn116 O128 1.924 . S
O117 Zn116 1.949 . S
O117 Zn118 1.923 . S
O117 Zn119 1.950 . S
O117 Zn120 1.945 . S
Zn118 O117 1.923 . S
Zn118 O121 1.933 . S
Zn118 O124 1.941 . S
Zn118 O125 1.965 . S
Zn119 O117 1.950 . S
Zn119 O126 1.938 . S
Zn119 O127 1.906 . S
Zn119 O137 1.953 . S
Zn120 O117 1.945 . S
Zn120 O122 1.932 . S
Zn120 O129 1.977 . S
Zn120 O130 1.910 . S
O121 Zn118 1.933 . S
O121 C132 1.226 . S
O122 Zn120 1.932 . S
O122 C132 1.307 . S
O123 Zn116 1.919 . S
O123 C134 1.253 . S
O124 Zn118 1.941 . S
O124 C134 1.283 . S
O125 Zn118 1.965 . S
O125 C133 1.303 . S
O126 Zn119 1.938 . S
O126 C133 1.247 . S
O127 Zn119 1.906 . S
O127 C135 1.304 . S
O128 Zn116 1.924 . S
O128 C136 1.311 . S
O129 Zn120 1.977 . S
O129 C135 1.272 . S
O130 Zn120 1.910 . S
O130 C136 1.231 . S
C131 O115 1.225 . S
C131 O137 1.298 . S
C132 O121 1.226 . S
C132 O122 1.307 . S
C133 O125 1.303 . S
C133 O126 1.247 . S
C134 O123 1.253 . S
C134 O124 1.283 . S
C135 O127 1.304 . S
C135 O129 1.272 . S
C136 O128 1.311 . S
C136 O130 1.231 . S
O137 Zn119 1.953 . S
O137 C131 1.298 . S
C138 C139 1.387 . S
C138 H142 0.950 . S
C138 C147 1.390 1_566 S
C139 C138 1.387 . S
C139 C141 1.387 . S
H140 C147 0.950 . S
C141 C139 1.387 . S
C141 C143 1.390 1_566 S
C141 H145 0.950 . S
H142 C138 0.950 . S
C143 C141 1.390 1_544 S
C143 C144 1.387 . S
C143 H146 0.950 . S
C144 C143 1.387 . S
C144 C147 1.387 . S
H145 C141 0.950 . S
H146 C143 0.950 . S
C147 C138 1.390 1_544 S
C147 H140 0.950 . S
C147 C144 1.387 . S
C148 C149 1.387 . S
C148 H152 0.950 . S
C148 C157 1.390 . S
C149 C148 1.387 . S
C149 C151 1.387 . S
H150 C157 0.950 . S
C151 C149 1.387 . S
C151 C153 1.390 . S
C151 H155 0.950 . S
H152 C148 0.950 . S
C153 C151 1.390 . S
C153 C154 1.387 . S
C153 H156 0.950 . S
C154 C153 1.387 . S
C154 C157 1.387 . S
H155 C151 0.950 . S
H156 C153 0.950 . S
C157 C148 1.390 . S
C157 H150 0.950 . S
C157 C154 1.387 . S
C158 C159 1.387 . S
C158 H162 0.950 . S
C158 C167 1.390 1_654 S
C159 C158 1.387 . S
C159 C161 1.387 . S
H160 C167 0.950 . S
C161 C159 1.387 . S
C161 C163 1.390 1_654 S
C161 H165 0.950 . S
H162 C158 0.950 . S
C163 C161 1.390 1_456 S
C163 C164 1.387 . S
C163 H166 0.950 . S
C164 C163 1.387 . S
C164 C167 1.387 . S
H165 C161 0.950 . S
H166 C163 0.950 . S
C167 C158 1.390 1_456 S
C167 H160 0.950 . S
C167 C164 1.387 . S
C168 C169 1.387 . S
C168 H172 0.950 . S
C168 C177 1.390 1_545 S
C169 C168 1.387 . S
C169 C171 1.387 . S
H170 C177 0.950 . S
C171 C169 1.387 . S
C171 C173 1.390 1_545 S
C171 H175 0.950 . S
H172 C168 0.950 . S
C173 C171 1.390 1_565 S
C173 C174 1.387 . S
C173 H176 0.950 . S
C174 C173 1.387 . S
C174 C177 1.387 . S
H175 C171 0.950 . S
H176 C173 0.950 . S
C177 C168 1.390 1_565 S
C177 H170 0.950 . S
C177 C174 1.387 . S
C178 C179 1.387 . S
C178 H182 0.950 . S
C178 C187 1.390 1_556 S
C179 C178 1.387 . S
C179 C181 1.387 . S
H180 C187 0.950 . S
C181 C179 1.387 . S
C181 C183 1.390 1_556 S
C181 H185 0.950 . S
H182 C178 0.950 . S
C183 C181 1.390 1_554 S
C183 C184 1.387 . S
C183 H186 0.950 . S
C184 C183 1.387 . S
C184 C187 1.387 . S
H185 C181 0.950 . S
H186 C183 0.950 . S
C187 C178 1.390 1_554 S
C187 H180 0.950 . S
C187 C184 1.387 . S
C188 C189 1.387 1_455 S
C188 H192 0.950 . S
C188 C197 1.390 . S
C189 C188 1.387 1_655 S
C189 C191 1.387 . S
H190 C197 0.950 . S
C191 C189 1.387 . S
C191 C193 1.390 . S
C191 H195 0.950 . S
H192 C188 0.950 . S
C193 C191 1.390 . S
C193 C194 1.387 1_655 S
C193 H196 0.950 . S
C194 C193 1.387 1_455 S
C194 C197 1.387 . S
H195 C191 0.950 . S
H196 C193 0.950 . S
C197 C188 1.390 . S
C197 H190 0.950 . S
C197 C194 1.387 . S
C198 C199 1.387 . S
C198 H202 0.950 . S
C198 C207 1.390 . S
C199 C198 1.387 . S
C199 C201 1.387 . S
H200 C207 0.950 . S
C201 C199 1.387 . S
C201 C203 1.390 . S
C201 H205 0.950 . S
H202 C198 0.950 . S
C203 C201 1.390 . S
C203 C204 1.387 . S
C203 H206 0.950 . S
C204 C203 1.387 . S
C204 C207 1.387 . S
H205 C201 0.950 . S
H206 C203 0.950 . S
C207 C198 1.390 . S
C207 H200 0.950 . S
C207 C204 1.387 . S
C208 C209 1.387 . S
C208 H212 0.950 . S
C208 C217 1.390 . S
C209 C208 1.387 . S
C209 C211 1.387 . S
H210 C217 0.950 . S
C211 C209 1.387 . S
C211 C213 1.390 . S
C211 H215 0.950 . S
H212 C208 0.950 . S
C213 C211 1.390 . S
C213 C214 1.387 . S
C213 H216 0.950 . S
C214 C213 1.387 . S
C214 C217 1.387 . S
H215 C211 0.950 . S
H216 C213 0.950 . S
C217 C208 1.390 . S
C217 H210 0.950 . S
C217 C214 1.387 . S
C218 C219 1.387 . S
C218 H222 0.950 . S
C218 C227 1.390 . S
C219 C218 1.387 . S
C219 C221 1.387 . S
H220 C227 0.950 . S
C221 C219 1.387 . S
C221 C223 1.390 . S
C221 H225 0.950 . S
H222 C218 0.950 . S
C223 C221 1.390 . S
C223 C224 1.387 . S
C223 H226 0.950 . S
C224 C223 1.387 . S
C224 C227 1.387 . S
H225 C221 0.950 . S
H226 C223 0.950 . S
C227 C218 1.390 . S
C227 H220 0.950 . S
C227 C224 1.387 . S
C228 C229 1.387 . S
C228 H232 0.950 . S
C228 C237 1.390 . S
C229 C228 1.387 . S
C229 C231 1.387 . S
H230 C237 0.950 . S
C231 C229 1.387 . S
C231 C233 1.390 . S
C231 H235 0.950 . S
H232 C228 0.950 . S
C233 C231 1.390 . S
C233 C234 1.387 . S
C233 H236 0.950 . S
C234 C233 1.387 . S
C234 C237 1.387 . S
H235 C231 0.950 . S
H236 C233 0.950 . S
C237 C228 1.390 . S
C237 H230 0.950 . S
C237 C234 1.387 . S
C238 C239 1.387 . S
C238 H242 0.950 . S
C238 C247 1.390 . S
C239 C238 1.387 . S
C239 C241 1.387 . S
H240 C247 0.950 . S
C241 C239 1.387 . S
C241 C243 1.390 . S
C241 H245 0.950 . S
H242 C238 0.950 . S
C243 C241 1.390 . S
C243 C244 1.387 . S
C243 H246 0.950 . S
C244 C243 1.387 . S
C244 C247 1.387 . S
H245 C241 0.950 . S
H246 C243 0.950 . S
C247 C238 1.390 . S
C247 H240 0.950 . S
C247 C244 1.387 . S
C248 C249 1.387 . S
C248 H252 0.950 . S
C248 C257 1.390 . S
C249 C248 1.387 . S
C249 C251 1.387 . S
H250 C257 0.950 . S
C251 C249 1.387 . S
C251 C253 1.390 . S
C251 H255 0.950 . S
H252 C248 0.950 . S
C253 C251 1.390 . S
C253 C254 1.387 . S
C253 H256 0.950 . S
C254 C253 1.387 . S
C254 C257 1.387 . S
H255 C251 0.950 . S
H256 C253 0.950 . S
C257 C248 1.390 . S
C257 H250 0.950 . S
C257 C254 1.387 . S
C258 C259 1.387 . S
C258 H262 0.950 . S
C258 C267 1.390 . S
C259 C258 1.387 . S
C259 C261 1.387 . S
H260 C267 0.950 . S
C261 C259 1.387 . S
C261 C263 1.390 . S
C261 H265 0.950 . S
H262 C258 0.950 . S
C263 C261 1.390 . S
C263 C264 1.387 . S
C263 H266 0.950 . S
C264 C263 1.387 . S
C264 C267 1.387 . S
H265 C261 0.950 . S
H266 C263 0.950 . S
C267 C258 1.390 . S
C267 H260 0.950 . S
C267 C264 1.387 . S
C268 C269 1.387 . S
C268 H272 0.950 . S
C268 C277 1.390 . S
C269 C268 1.387 . S
C269 C271 1.387 . S
H270 C277 0.950 . S
C271 C269 1.387 . S
C271 C273 1.390 . S
C271 H275 0.950 . S
H272 C268 0.950 . S
C273 C271 1.390 . S
C273 C274 1.387 . S
C273 H276 0.950 . S
C274 C273 1.387 . S
C274 C277 1.387 . S
H275 C271 0.950 . S
H276 C273 0.950 . S
C277 C268 1.390 . S
C277 H270 0.950 . S
C277 C274 1.387 . S
C278 C279 1.387 . S
C278 H282 0.950 . S
C278 C287 1.390 . S
C279 C278 1.387 . S
C279 C281 1.387 . S
H280 C287 0.950 . S
C281 C279 1.387 . S
C281 C283 1.390 . S
C281 H285 0.950 . S
H282 C278 0.950 . S
C283 C281 1.390 . S
C283 C284 1.387 . S
C283 H286 0.950 . S
C284 C283 1.387 . S
C284 C287 1.387 . S
H285 C281 0.950 . S
H286 C283 0.950 . S
C287 C278 1.390 . S
C287 H280 0.950 . S
C287 C284 1.387 . S
C288 C289 1.387 . S
C288 H292 0.950 . S
C288 C297 1.390 . S
C289 C288 1.387 . S
C289 C291 1.387 . S
H290 C297 0.950 . S
C291 C289 1.387 . S
C291 C293 1.390 . S
C291 H295 0.950 . S
H292 C288 0.950 . S
C293 C291 1.390 . S
C293 C294 1.387 . S
C293 H296 0.950 . S
C294 C293 1.387 . S
C294 C297 1.387 . S
H295 C291 0.950 . S
H296 C293 0.950 . S
C297 C288 1.390 . S
C297 H290 0.950 . S
C297 C294 1.387 . S
C298 C299 1.387 . S
C298 H302 0.950 . S
C298 C307 1.390 . S
C299 C298 1.387 . S
C299 C301 1.387 . S
H300 C307 0.950 . S
C301 C299 1.387 . S
C301 C303 1.390 . S
C301 H305 0.950 . S
H302 C298 0.950 . S
C303 C301 1.390 . S
C303 C304 1.387 . S
C303 H306 0.950 . S
C304 C303 1.387 . S
C304 C307 1.387 . S
H305 C301 0.950 . S
H306 C303 0.950 . S
C307 C298 1.390 . S
C307 H300 0.950 . S
C307 C304 1.387 . S
C308 C309 1.387 . S
C308 H312 0.950 . S
C308 C317 1.390 . S
C309 C308 1.387 . S
C309 C311 1.387 . S
H310 C317 0.950 . S
C311 C309 1.387 . S
C311 C313 1.390 . S
C311 H315 0.950 . S
H312 C308 0.950 . S
C313 C311 1.390 . S
C313 C314 1.387 . S
C313 H316 0.950 . S
C314 C313 1.387 . S
C314 C317 1.387 . S
H315 C311 0.950 . S
H316 C313 0.950 . S
C317 C308 1.390 . S
C317 H310 0.950 . S
C317 C314 1.387 . S
C139 C111 1.736 . S
C144 C19 1.736 . S
C149 C135 1.748 . S
C154 C43 1.747 . S
C159 C65 1.736 . S
C164 C88 1.735 . S
C169 C20 1.747 . S
C174 C112 1.747 . S
C179 C134 1.736 . S
C184 C42 1.736 . S
C189 C66 1.747 . S
C194 C89 1.747 . S
C199 C18 1.321 . S
C204 C62 1.347 . S
C209 C41 1.321 . S
C214 C16 1.347 . S
C219 C64 1.319 . S
C224 C39 1.346 . S
C229 C87 1.321 . S
C234 C108 1.347 . S
C239 C110 1.321 . S
C244 C131 1.347 . S
C249 C85 1.347 . S
C254 C133 1.321 . S
C259 C21 1.139 . S
C264 C63 1.078 . S
C269 C44 1.140 1_455 S
C274 C17 1.078 . S
C279 C67 1.140 1_565 S
C284 C40 1.079 . S
C289 C90 1.140 . S
C294 C109 1.078 . S
C299 C113 1.138 1_655 S
C304 C132 1.083 . S
C309 C86 1.079 . S
C314 C136 1.140 1_545 S
