# Generated by pormake.
# Topology unf, (4)-cn, num edge types: 1
# Building blocks:
#     Node 0, Type 0, BuildingBlock: QUQFOY_clean_sbu_1, # of connection points: 4
#     Node 1, Type 0, BuildingBlock: QUQFOY_clean_sbu_1, # of connection points: 4
#     Node 2, Type 0, BuildingBlock: QUQFOY_clean_sbu_1, # of connection points: 4
#     Node 3, Type 0, BuildingBlock: QUQFOY_clean_sbu_1, # of connection points: 4
#     Node 4, Type 0, BuildingBlock: QUQFOY_clean_sbu_1, # of connection points: 4
#     Node 5, Type 0, BuildingBlock: QUQFOY_clean_sbu_1, # of connection points: 4
#     Node 6, Type 0, BuildingBlock: QUQFOY_clean_sbu_1, # of connection points: 4
#     Node 7, Type 0, BuildingBlock: QUQFOY_clean_sbu_1, # of connection points: 4
#     Node 8, Type 0, BuildingBlock: QUQFOY_clean_sbu_1, # of connection points: 4
#     Node 9, Type 0, BuildingBlock: QUQFOY_clean_sbu_1, # of connection points: 4
#     Node 10, Type 0, BuildingBlock: QUQFOY_clean_sbu_1, # of connection points: 4
#     Node 11, Type 0, BuildingBlock: QUQFOY_clean_sbu_1, # of connection points: 4
#     Edge 12, Type (0, 0), BuildingBlock: OJICUG_clean_linker_0, # of connection points: 2
#     Edge 13, Type (0, 0), BuildingBlock: OJICUG_clean_linker_0, # of connection points: 2
#     Edge 14, Type (0, 0), BuildingBlock: OJICUG_clean_linker_0, # of connection points: 2
#     Edge 15, Type (0, 0), BuildingBlock: OJICUG_clean_linker_0, # of connection points: 2
#     Edge 16, Type (0, 0), BuildingBlock: OJICUG_clean_linker_0, # of connection points: 2
#     Edge 17, Type (0, 0), BuildingBlock: OJICUG_clean_linker_0, # of connection points: 2
#     Edge 18, Type (0, 0), BuildingBlock: OJICUG_clean_linker_0, # of connection points: 2
#     Edge 19, Type (0, 0), BuildingBlock: OJICUG_clean_linker_0, # of connection points: 2
#     Edge 20, Type (0, 0), BuildingBlock: OJICUG_clean_linker_0, # of connection points: 2
#     Edge 21, Type (0, 0), BuildingBlock: OJICUG_clean_linker_0, # of connection points: 2
#     Edge 22, Type (0, 0), BuildingBlock: OJICUG_clean_linker_0, # of connection points: 2
#     Edge 23, Type (0, 0), BuildingBlock: OJICUG_clean_linker_0, # of connection points: 2
#     Edge 24, Type (0, 0), BuildingBlock: OJICUG_clean_linker_0, # of connection points: 2
#     Edge 25, Type (0, 0), BuildingBlock: OJICUG_clean_linker_0, # of connection points: 2
#     Edge 26, Type (0, 0), BuildingBlock: OJICUG_clean_linker_0, # of connection points: 2
#     Edge 27, Type (0, 0), BuildingBlock: OJICUG_clean_linker_0, # of connection points: 2
#     Edge 28, Type (0, 0), BuildingBlock: OJICUG_clean_linker_0, # of connection points: 2
#     Edge 29, Type (0, 0), BuildingBlock: OJICUG_clean_linker_0, # of connection points: 2
#     Edge 30, Type (0, 0), BuildingBlock: OJICUG_clean_linker_0, # of connection points: 2
#     Edge 31, Type (0, 0), BuildingBlock: OJICUG_clean_linker_0, # of connection points: 2
#     Edge 32, Type (0, 0), BuildingBlock: OJICUG_clean_linker_0, # of connection points: 2
#     Edge 33, Type (0, 0), BuildingBlock: OJICUG_clean_linker_0, # of connection points: 2
#     Edge 34, Type (0, 0), BuildingBlock: OJICUG_clean_linker_0, # of connection points: 2
#     Edge 35, Type (0, 0), BuildingBlock: OJICUG_clean_linker_0, # of connection points: 2
# Relax obj value: 0.112
# Max RMSD: 0.152
# Mean RMSD: 0.152
data_MOF--net-unf--node1-QUQFOY_clean_sbu_1--edge1-OJICUG_clean_linker_0
_symmetry_space_group_name_H-M    P1
_symmetry_Int_Tables_number       1
_symmetry_cell_setting            triclinic
loop_
_symmetry_equiv_pos_as_xyz
'x, y, z'
_cell_length_a     30.252386
_cell_length_b     30.294261
_cell_length_c     29.793376
_cell_angle_alpha  89.766233
_cell_angle_beta   90.156279
_cell_angle_gamma 119.94854
loop_
_atom_site_label
_atom_site_type_symbol
_atom_site_fract_x
_atom_site_fract_y
_atom_site_fract_z
_atom_type_partial_charge
O0 O 0.09441 0.29845 0.05796 0.0
Cd1 Cd 0.06003 0.32091 0.10513 0.0
Cd2 Cd 0.07142 0.37862 0.0348 0.0
O3 O 0.13033 0.36753 0.016 0.0
O4 O 0.06548 0.28594 0.15996 0.0
O5 O 0.10634 0.36966 0.1529 0.0
C6 C 0.09801 0.32992 0.1758 0.0
C7 C 0.06591 0.45167 0.03001 0.0
C8 C 0.12545 0.32479 0.02709 0.0
C9 C 0.96788 0.29354 0.05537 0.0
O10 O 0.00013 0.31826 0.02489 0.0
O11 O -0.01707 0.29501 0.09552 0.0
O12 O 0.06954 0.42962 0.9944 0.0
O13 O 0.07251 0.43602 0.06859 0.0
O14 O 0.66432 0.7746 0.06488 0.0
Cd15 Cd 0.64258 0.71907 0.11374 0.0
Cd16 Cd 0.58451 0.66961 0.04227 0.0
O17 O 0.59713 0.73924 0.02052 0.0
O18 O 0.68041 0.76103 0.16672 0.0
O19 O 0.59636 0.71905 0.16301 0.0
C20 C 0.63738 0.75047 0.18428 0.0
C21 C 0.51106 0.59162 0.03483 0.0
C22 C 0.63896 0.77784 0.03219 0.0
C23 C 0.66878 0.65101 0.06751 0.0
O24 O 0.64433 0.65714 0.03581 0.0
O25 O 0.66786 0.66721 0.10659 0.0
O26 O 0.53586 0.61765 1.00011 0.0
O27 O 0.52422 0.61324 0.07372 0.0
O28 O 0.188 0.86907 0.0644 0.0
Cd29 Cd 0.24245 0.90096 0.11411 0.0
Cd30 Cd 0.29294 0.89363 0.04141 0.0
O31 O 0.22288 0.83652 0.02056 0.0
O32 O 0.19877 0.89575 0.16619 0.0
O33 O 0.24021 0.85316 0.16322 0.0
C34 C 0.20813 0.86237 0.18374 0.0
C35 C 0.37134 0.8997 0.0297 0.0
C36 C 0.1845 0.84033 0.032 0.0
C37 C 0.31121 -0.00427 0.06885 0.0
O38 O 0.3046 0.96571 0.03674 0.0
O39 O 0.29514 0.97801 0.10791 0.0
O40 O 0.34354 0.89882 0.99648 0.0
O41 O 0.3514 0.89008 0.06939 0.0
O42 O 0.65383 0.86714 0.46339 0.0
Cd43 Cd 0.64278 0.90374 0.41016 0.0
Cd44 Cd 0.58615 0.91246 0.48547 0.0
O45 O 0.5949 0.85497 0.51333 0.0
O46 O 0.68083 0.88994 0.36281 0.0
O47 O 0.59816 0.86079 0.35837 0.0
C48 C 0.63855 0.86288 0.3418 0.0
C49 C 0.52093 0.92867 0.5022 0.0
C50 C 0.63081 0.84796 0.50011 0.0
C51 C 0.68049 0.00555 0.44835 0.0
O52 O 0.64972 0.98235 0.48011 0.0
O53 O 0.6816 0.98219 0.41345 0.0
O54 O 0.55152 0.92987 0.53287 0.0
O55 O 0.52308 0.91144 0.46313 0.0
O56 O 0.1142 0.78261 0.45922 0.0
Cd57 Cd 0.06572 0.72567 0.41607 0.0
Cd58 Cd 0.06597 0.68337 0.49678 0.0
O59 O 0.13563 0.74428 0.51075 0.0
O60 O 0.071 0.76985 0.36411 0.0
O61 O 0.10024 0.71638 0.36119 0.0
C62 C 0.09597 0.75264 0.34258 0.0
C63 C 0.03616 0.5979 0.50845 0.0
C64 C 0.14201 0.78481 0.4922 0.0
C65 C 0.97611 0.6897 0.47153 0.0
O66 O 0.00811 0.69844 0.50255 0.0
O67 O -0.01201 0.68809 0.43091 0.0
O68 O 0.04743 0.62867 0.54189 0.0
O69 O 0.04749 0.61698 0.46837 0.0
O70 O 0.18614 0.33735 0.45363 0.0
Cd71 Cd 0.24138 0.34235 0.40995 0.0
Cd72 Cd 0.28918 0.39321 0.48789 0.0
O73 O 0.22683 0.39918 0.50272 0.0
O74 O 0.19533 0.29948 0.36061 0.0
O75 O 0.24828 0.38176 0.35243 0.0
C76 C 0.21152 0.33989 0.33642 0.0
C77 C 0.37396 0.45329 0.49888 0.0
C78 C 0.18556 0.36453 0.48578 0.0
C79 C 0.28494 0.29651 0.46837 0.0
O80 O 0.27878 0.32257 0.49819 0.0
O81 O 0.28121 0.30484 0.42703 0.0
O82 O 0.34331 0.43307 0.53235 0.0
O83 O 0.35497 0.44337 0.45879 0.0
O84 O 0.83236 0.61987 0.97256 0.0
Cd85 Cd 0.88755 0.63164 0.92515 0.0
Cd86 Cd 0.91153 0.6044 1.01219 0.0
O87 O 0.83985 0.58202 0.03335 0.0
O88 O 0.87327 0.67293 0.88125 0.0
O89 O 0.85794 0.59546 0.86596 0.0
C90 C 0.8551 0.635 0.85408 0.0
C91 C 0.95382 0.5588 0.01791 0.0
C92 C 0.81588 0.59875 1.01059 0.0
C93 C -0.01656 0.70024 0.97328 0.0
O94 O 0.95826 0.68078 1.0088 0.0
O95 O 0.96614 0.67903 0.93556 0.0
O96 O 0.94605 0.57902 0.05291 0.0
O97 O 0.93427 0.56166 0.98006 0.0
O98 O 0.34717 0.19268 0.97376 0.0
Cd99 Cd 0.33701 0.23749 0.92625 0.0
Cd100 Cd 0.36015 0.28551 1.01413 0.0
O101 O 0.38236 0.23621 0.03572 0.0
O102 O 0.2971 0.18366 0.88085 0.0
O103 O 0.37507 0.24638 0.86771 0.0
C104 C 0.3358 0.20469 0.85442 0.0
C105 C 0.40479 0.37313 0.02069 0.0
C106 C 0.36674 0.19627 1.01243 0.0
C107 C 0.26641 0.26311 0.97264 0.0
O108 O 0.28376 0.25517 1.00852 0.0
O109 O 0.28979 0.26902 0.93576 0.0
O110 O 0.38351 0.34442 0.05525 0.0
O111 O 0.40355 0.35159 0.98289 0.0
O112 O 0.77469 0.12585 0.95744 0.0
Cd113 Cd 0.72768 0.06959 0.91224 0.0
Cd114 Cd 0.6771 0.0523 0.99729 0.0
O115 O 0.72826 0.12477 1.01507 0.0
O116 O 0.779 0.08178 0.86457 0.0
O117 O 0.71579 0.09705 0.8538 0.0
C118 C 0.75686 0.09915 0.83896 0.0
C119 C 0.58946 0.01155 1.00646 0.0
C120 C 0.76999 0.14533 0.99365 0.0
C121 C 0.69993 0.97661 0.96508 0.0
O122 O 0.70501 0.00393 0.99882 0.0
O123 O 0.69708 -0.00827 0.92586 0.0
O124 O 0.61949 0.02212 0.04054 0.0
O125 O 0.60968 0.02771 0.96731 0.0
O126 O 0.31191 0.12366 0.56934 0.0
Cd127 Cd 0.32296 0.07645 0.61292 0.0
Cd128 Cd 0.3694 0.08004 0.537 0.0
O129 O 0.37692 0.14917 0.52306 0.0
O130 O 0.28593 0.07912 0.66718 0.0
O131 O 0.36953 0.11215 0.66568 0.0
C132 C 0.32934 0.10516 0.68691 0.0
C133 C 0.42604 0.05107 0.5278 0.0
C134 C 0.33998 0.15324 0.53822 0.0
C135 C 0.27715 -0.01268 0.55693 0.0
O136 O 0.29801 0.0213 0.52703 0.0
O137 O 0.28915 -0.00097 0.59782 0.0
O138 O 0.40823 0.0635 0.49362 0.0
O139 O 0.41665 0.06145 0.56754 0.0
O140 O 0.85472 0.18947 0.55045 0.0
Cd141 Cd 0.89422 0.23623 0.60406 0.0
Cd142 Cd 0.88845 0.29624 0.54345 0.0
O143 O 0.82031 0.23435 0.52636 0.0
O144 O 0.88627 0.18788 0.65327 0.0
O145 O 0.85243 0.23776 0.65624 0.0
C146 C 0.85815 0.202 0.67417 0.0
C147 C 0.91111 0.381 0.53585 0.0
C148 C 0.82221 0.19344 0.5262 0.0
C149 C -0.0156 0.29669 0.55403 0.0
O150 O 0.95083 0.29149 0.52578 0.0
O151 O 0.97186 0.28503 0.59484 0.0
O152 O 0.89826 0.35133 0.50158 0.0
O153 O 0.9046 0.36083 0.57533 0.0
O154 O 0.77934 0.66558 0.57475 0.0
Cd155 Cd 0.72376 0.6526 0.62162 0.0
Cd156 Cd 0.67646 0.6126 0.54195 0.0
O157 O 0.73801 0.60632 0.52393 0.0
O158 O 0.76867 0.68816 0.67401 0.0
O159 O 0.7167 0.60512 0.67303 0.0
C160 C 0.75224 0.64464 0.69317 0.0
C161 C 0.59151 0.55481 0.52853 0.0
C162 C 0.77966 0.64084 0.54045 0.0
C163 C 0.68219 0.7065 0.57422 0.0
O164 O 0.68893 0.68503 0.54067 0.0
O165 O 0.68386 0.6916 0.61374 0.0
O166 O 0.62238 0.57874 0.49594 0.0
O167 O 0.61026 0.56005 0.56852 0.0
C168 C 0.19421 0.33411 0.9739 0.0
C169 C 0.15669 0.30551 1.00615 0.0
H170 H 0.25849 0.34194 0.93661 0.0
C171 C 0.15079 0.25864 0.02067 0.0
H172 H 0.19931 0.37011 0.96177 0.0
C173 C 0.18429 0.24281 1.00636 0.0
C174 C 0.22391 0.273 0.97671 0.0
H175 H 0.12182 0.23517 0.04494 0.0
H176 H 0.18095 0.2082 0.02041 0.0
C177 C 0.2276 0.31776 0.95908 0.0
C178 C 0.70277 0.8701 0.02557 0.0
C179 C 0.65835 0.82749 1.00931 0.0
H180 H 0.75114 0.95089 0.02328 0.0
C181 C 0.63233 0.83375 0.97281 0.0
H182 H 0.72422 0.86671 0.05323 0.0
C183 C 0.64869 0.88238 0.95497 0.0
C184 C 0.69086 0.92509 0.97378 0.0
H185 H 0.59829 0.80153 0.95927 0.0
H186 H 0.62636 0.88696 0.92879 0.0
C187 C 0.71858 0.91835 1.0082 0.0
C188 C 0.12655 0.77414 0.97628 0.0
C189 C 0.13446 0.80993 1.00983 0.0
H190 H 0.07124 0.71127 0.93701 0.0
C191 C 0.09284 0.81451 0.02463 0.0
H192 H 0.15797 0.77008 0.96392 0.0
C193 C 0.04384 0.78119 1.00933 0.0
C194 C 0.03542 0.74312 0.9784 0.0
H195 H 0.09752 0.84214 0.0499 0.0
H196 H 0.01205 0.78333 0.02363 0.0
C197 C 0.07716 0.74096 0.96049 0.0
C198 C 0.62936 0.74864 0.57917 0.0
C199 C 0.67412 0.74947 0.56542 0.0
H200 H 0.57978 0.77961 0.56876 0.0
C201 C 0.70693 0.78662 0.53499 0.0
H202 H 0.60328 0.71963 0.60225 0.0
C203 C 0.6937 0.82025 0.51591 0.0
C204 C 0.64698 0.81713 0.52648 0.0
H205 H 0.74163 0.78777 0.52399 0.0
H206 H 0.71924 0.84724 0.49121 0.0
C207 C 0.61579 0.7825 0.55973 0.0
C208 C 0.1971 0.84294 0.554 0.0
C209 C 0.17904 0.8355 0.50955 0.0
H210 H 0.24199 0.89759 0.60469 0.0
C211 C 0.19314 0.87796 0.48179 0.0
H212 H 0.18631 0.81074 0.5762 0.0
C213 C 0.22401 0.9268 0.49795 0.0
C214 C 0.24185 0.93476 0.54238 0.0
H215 H 0.17996 0.87358 0.44737 0.0
H216 H 0.23383 0.95846 0.47532 0.0
C217 C 0.22825 0.89245 0.57043 0.0
C218 C 0.07899 0.3369 0.56718 0.0
C219 C 0.03687 0.31584 0.53797 0.0
H220 H 0.1604 0.37065 0.57317 0.0
C221 C 0.04493 0.31446 0.49171 0.0
H222 H 0.07377 0.33888 0.60292 0.0
C223 C 0.0937 0.33234 0.47499 0.0
C224 C 0.13578 0.35263 0.50397 0.0
H225 H 0.01335 0.29865 0.46822 0.0
H226 H 0.0984 0.32955 0.43925 0.0
C227 C 0.12839 0.35565 0.55017 0.0
C228 C 0.6978 0.60842 1.01367 0.0
C229 C 0.7005 0.62795 0.05697 0.0
H230 H 0.73225 0.58311 0.9654 0.0
C231 C 0.73627 0.62878 0.08768 0.0
H232 H 0.67004 0.6062 0.98939 0.0
C233 C 0.77153 0.61439 0.07391 0.0
C234 C 0.77147 0.59954 0.02928 0.0
H235 H 0.73889 0.64317 0.12138 0.0
H236 H 0.80113 0.61867 0.09701 0.0
C237 C 0.73315 0.59476 0.9999 0.0
C238 C 0.34878 0.1351 0.07561 0.0
C239 C 0.365 0.15058 0.03125 0.0
H240 H 0.31817 0.07292 0.12267 0.0
C241 C 0.37033 0.11741 1.00214 0.0
H242 H 0.34406 0.16012 0.09852 0.0
C243 C 0.35589 0.06815 1.0158 0.0
C244 C 0.335 0.05068 0.05871 0.0
H245 H 0.38307 0.12868 0.96787 0.0
H246 H 0.35864 0.04296 0.99168 0.0
C247 C 0.33362 0.08519 0.08927 0.0
C248 C 0.90006 0.26044 0.99709 0.0
C249 C 0.91391 0.26094 0.04229 0.0
H250 H 0.84315 0.22351 0.94658 0.0
C251 C 0.87674 0.22784 0.07295 0.0
H252 H 0.92736 0.28597 0.9726 0.0
C253 C 0.82768 0.19242 0.05786 0.0
C254 C 0.8157 0.18952 1.01196 0.0
H255 H 0.88616 0.22768 0.10803 0.0
H256 H 0.80044 0.16515 0.08144 0.0
C257 C 0.85169 0.22487 0.98208 0.0
C258 C 0.2956 0.20297 0.54389 0.0
C259 C 0.32705 0.19031 0.51915 0.0
H260 H 0.25725 0.24567 0.54672 0.0
C261 C 0.34312 0.2112 0.47598 0.0
H262 H 0.28244 0.18743 0.57717 0.0
C263 C 0.32786 0.2444 0.45804 0.0
C264 C 0.29713 0.25753 0.48347 0.0
H265 H 0.36696 0.20154 0.45603 0.0
H266 H 0.34113 0.26076 0.42504 0.0
C267 C 0.28103 0.23627 0.52637 0.0
C268 C 0.80445 0.11884 0.47912 0.0
C269 C 0.7876 0.15038 0.49784 0.0
H270 H 0.78305 0.04815 0.4462 0.0
C271 C 0.73671 0.13803 0.49216 0.0
H272 H 0.84381 0.12809 0.48272 0.0
C273 C 0.70203 0.09211 0.47189 0.0
C274 C 0.71829 0.05903 0.45581 0.0
H275 H 0.72302 0.16191 0.50625 0.0
H276 H 0.66196 0.08093 0.47122 0.0
C277 C 0.77005 0.07364 0.45769 0.0
C278 C 0.88091 0.64595 0.46172 0.0
C279 C 0.92546 0.68063 0.48461 0.0
H280 H 0.7989 0.60505 0.46194 0.0
C281 C 0.92149 0.70329 0.52417 0.0
H282 H 0.88317 0.62772 0.4313 0.0
C283 C 0.87412 0.69042 0.54161 0.0
C284 C 0.82924 0.6543 0.52006 0.0
H285 H 0.95526 0.73041 0.54237 0.0
H286 H 0.87293 0.70834 0.57263 0.0
C287 C 0.83291 0.63263 0.47951 0.0
C288 C 0.14546 0.29132 0.27812 0.0
C289 C 0.18508 0.33821 0.29383 0.0
H290 H 0.08682 0.25213 0.22944 0.0
C291 C 0.19569 0.38297 0.27058 0.0
H292 H 0.13596 0.25607 0.29526 0.0
C293 C 0.16695 0.38073 0.23264 0.0
C294 C 0.12707 0.33368 0.21727 0.0
H295 H 0.22564 0.41976 0.28204 0.0
H296 H 0.17608 0.41576 0.2153 0.0
C297 C 0.11692 0.28909 0.24044 0.0
C298 C 0.68202 0.80971 0.2479 0.0
C299 C 0.63613 0.77671 0.22582 0.0
H300 H 0.71869 0.86275 0.30104 0.0
C301 C 0.59041 0.77215 0.24217 0.0
H302 H 0.71799 0.81437 0.23623 0.0
C303 C 0.59085 0.80044 0.27959 0.0
C304 C 0.637 0.83374 0.30132 0.0
H305 H 0.55445 0.74731 0.22571 0.0
H306 H 0.55513 0.7962 0.29148 0.0
C307 C 0.68245 0.83776 0.28507 0.0
C308 C 0.18629 0.7941 0.24249 0.0
C309 C 0.18014 0.83374 0.22449 0.0
H310 H 0.16398 0.73663 0.29367 0.0
C311 C 0.14453 0.84446 0.24448 0.0
H312 H 0.21307 0.78456 0.22762 0.0
C313 C 0.11621 0.81683 0.28172 0.0
C314 C 0.12261 0.77762 0.30019 0.0
H315 H 0.13838 0.87438 0.23139 0.0
H316 H 0.08968 0.82684 0.29641 0.0
C317 C 0.15779 0.7663 0.28002 0.0
C318 C 0.79721 0.59201 0.78803 0.0
C319 C 0.82943 0.63659 0.81213 0.0
H320 H 0.74641 0.55924 0.73189 0.0
C321 C 0.83465 0.68308 0.79741 0.0
H322 H 0.792 0.55553 0.79881 0.0
C323 C 0.8087 0.68519 0.7594 0.0
C324 C 0.77635 0.64078 0.73528 0.0
H325 H 0.85896 0.71813 0.81526 0.0
H326 H 0.81417 0.72185 0.74887 0.0
C327 C 0.77065 0.59404 0.75006 0.0
C328 C 0.38004 0.19495 0.78673 0.0
C329 C 0.3351 0.17998 0.81134 0.0
H330 H 0.41381 0.18227 0.72841 0.0
C331 C 0.28907 0.13908 0.79552 0.0
H332 H 0.41619 0.22602 0.79827 0.0
C333 C 0.28771 0.11418 0.75578 0.0
C334 C 0.33244 0.12911 0.73098 0.0
H335 H 0.25376 0.12636 0.81371 0.0
H336 H 0.25135 0.08333 0.74434 0.0
C337 C 0.37876 0.16955 0.74701 0.0
C338 C 0.76647 0.15595 0.77327 0.0
C339 C 0.78033 0.12359 0.79549 0.0
H340 H 0.78084 0.20701 0.7179 0.0
C341 C 0.81988 0.11753 0.7775 0.0
H342 H 0.73648 0.16178 0.78652 0.0
C343 C 0.84509 0.14322 0.73837 0.0
C344 C 0.8319 0.17618 0.71642 0.0
H345 H 0.83164 0.09303 0.7938 0.0
H346 H 0.87528 0.13746 0.7255 0.0
C347 C 0.79223 0.18224 0.73424 0.0
C348 C 0.03269 0.50409 0.06564 0.0
C349 C 0.04518 0.48665 0.02672 0.0
H350 H -0.00647 0.5401 0.09344 0.0
C351 C 0.02983 0.49579 0.98474 0.0
H352 H 0.04364 0.49739 0.0985 0.0
C353 C 0.00036 0.5194 0.98189 0.0
C354 C -0.01409 0.53476 0.02092 0.0
H355 H 0.03863 0.48271 0.95405 0.0
H356 H -0.01177 0.52485 0.9491 0.0
C357 C 0.00345 0.52804 0.06275 0.0
C358 C 0.45665 0.50544 0.06918 0.0
C359 C 0.47597 0.53614 0.03069 0.0
H360 H 0.4195 0.42981 0.09628 0.0
C361 C 0.46877 0.51255 0.98863 0.0
H362 H 0.46182 0.52239 0.1021 0.0
C363 C 0.44537 0.45963 0.98537 0.0
C364 C 0.4283 0.42907 0.02407 0.0
H365 H 0.48328 0.53504 0.95827 0.0
H366 H 0.44152 0.44278 0.95257 0.0
C367 C 0.43294 0.4524 0.06588 0.0
C368 C 0.44818 0.93622 0.98018 0.0
C369 C 0.42674 0.92061 0.02319 0.0
H370 H 0.5162 0.97776 0.94121 0.0
C371 C 0.45942 0.93298 0.06038 0.0
H372 H 0.4241 0.92752 0.95079 0.0
C373 C 0.51229 0.96229 0.05488 0.0
C374 C 0.53356 0.97986 1.01209 0.0
H375 H 0.44418 0.92191 0.09399 0.0
H376 H 0.53639 0.97203 0.08434 0.0
C377 C 0.501 0.96556 0.9747 0.0
C378 C 0.47141 0.96836 0.47295 0.0
C379 C 0.49145 0.95485 0.50962 0.0
H380 H 0.4365 0.01056 0.44974 0.0
C381 C 0.49001 0.97344 0.55247 0.0
H382 H 0.47257 0.95527 0.43942 0.0
C383 C 0.46976 0.00561 0.55837 0.0
C384 C 0.45091 0.02016 0.52148 0.0
H385 H 0.50557 0.96406 0.58138 0.0
H386 H 0.46905 0.01918 0.5918 0.0
C387 C 0.45156 0.00082 0.47878 0.0
C388 C 0.96007 0.46983 0.56611 0.0
C389 C 0.93962 0.43684 0.5293 0.0
H390 H 0.00753 0.54656 0.58841 0.0
C391 C 0.95216 0.45722 0.48565 0.0
H392 H 0.95167 0.45525 0.60014 0.0
C393 C -0.01511 0.50929 0.47891 0.0
C394 C 0.00563 0.54226 0.51566 0.0
H395 H 0.93751 0.43282 0.45649 0.0
H396 H -0.00653 0.52371 0.44483 0.0
C397 C -0.00735 0.52204 0.55935 0.0
C398 C 0.4494 0.48635 0.55003 0.0
C399 C 0.4297 0.4818 0.5064 0.0
H400 H 0.51579 0.51188 0.59117 0.0
C401 C 0.46365 0.50012 0.47 0.0
H402 H 0.42425 0.47214 0.57882 0.0
C403 C 0.51619 0.52251 0.4771 0.0
C404 C 0.53583 0.52686 0.52073 0.0
H405 H 0.44967 0.49666 0.43595 0.0
H406 H 0.54141 0.5367 0.44836 0.0
C407 C 0.50187 0.50854 0.55711 0.0
loop_
_geom_bond_atom_site_label_1
_geom_bond_atom_site_label_2
_geom_bond_distance
_geom_bond_site_symmetry_2
_ccdc_geom_bond_type
O0 Cd1 2.223 . S
O0 C8 1.315 . S
Cd1 O0 2.223 . S
Cd1 O4 2.297 . S
Cd1 O5 2.439 . S
Cd1 O11 2.240 . S
Cd2 O3 2.240 . S
Cd2 O10 2.223 1_554 S
Cd2 O12 2.294 1_554 S
Cd2 O13 2.439 . S
O3 Cd2 2.240 . S
O3 C8 1.279 . S
O4 Cd1 2.297 . S
O4 C6 1.247 . S
O5 Cd1 2.439 . S
O5 C6 1.208 . S
C6 O4 1.247 . S
C6 O5 1.208 . S
C7 O12 1.228 1_554 S
C7 O13 1.208 . S
C8 O0 1.315 . S
C8 O3 1.279 . S
C9 O10 1.315 1_654 S
C9 O11 1.279 1_655 S
O10 Cd2 2.223 1_556 S
O10 C9 1.315 1_456 S
O11 Cd1 2.240 . S
O11 C9 1.279 1_455 S
O12 Cd2 2.294 1_556 S
O12 C7 1.228 1_556 S
O13 Cd2 2.439 . S
O13 C7 1.208 . S
O14 Cd15 2.223 . S
O14 C22 1.315 . S
Cd15 O14 2.223 . S
Cd15 O18 2.297 . S
Cd15 O19 2.439 . S
Cd15 O25 2.240 . S
Cd16 O17 2.240 . S
Cd16 O24 2.223 1_554 S
Cd16 O26 2.294 1_554 S
Cd16 O27 2.439 . S
O17 Cd16 2.240 . S
O17 C22 1.279 . S
O18 Cd15 2.297 . S
O18 C20 1.247 . S
O19 Cd15 2.439 . S
O19 C20 1.208 . S
C20 O18 1.247 . S
C20 O19 1.208 . S
C21 O26 1.228 1_554 S
C21 O27 1.208 . S
C22 O14 1.315 . S
C22 O17 1.279 . S
C23 O24 1.315 1_554 S
C23 O25 1.279 . S
O24 Cd16 2.223 1_556 S
O24 C23 1.315 1_556 S
O25 Cd15 2.240 . S
O25 C23 1.279 . S
O26 Cd16 2.294 1_556 S
O26 C21 1.228 1_556 S
O27 Cd16 2.439 . S
O27 C21 1.208 . S
O28 Cd29 2.223 . S
O28 C36 1.315 . S
Cd29 O28 2.223 . S
Cd29 O32 2.297 . S
Cd29 O33 2.439 . S
Cd29 O39 2.240 . S
Cd30 O31 2.240 . S
Cd30 O38 2.223 1_554 S
Cd30 O40 2.294 1_554 S
Cd30 O41 2.439 . S
O31 Cd30 2.240 . S
O31 C36 1.279 . S
O32 Cd29 2.297 . S
O32 C34 1.247 . S
O33 Cd29 2.439 . S
O33 C34 1.208 . S
C34 O32 1.247 . S
C34 O33 1.208 . S
C35 O40 1.227 1_554 S
C35 O41 1.208 . S
C36 O28 1.315 . S
C36 O31 1.279 . S
C37 O38 1.315 1_544 S
C37 O39 1.279 1_545 S
O38 Cd30 2.223 1_556 S
O38 C37 1.315 1_566 S
O39 Cd29 2.240 . S
O39 C37 1.279 1_565 S
O40 Cd30 2.294 1_556 S
O40 C35 1.227 1_556 S
O41 Cd30 2.439 . S
O41 C35 1.208 . S
O42 Cd43 2.223 . S
O42 C50 1.315 . S
Cd43 O42 2.223 . S
Cd43 O46 2.297 . S
Cd43 O47 2.439 . S
Cd43 O53 2.240 . S
Cd44 O45 2.240 . S
Cd44 O52 2.223 . S
Cd44 O54 2.297 . S
Cd44 O55 2.439 . S
O45 Cd44 2.240 . S
O45 C50 1.279 . S
O46 Cd43 2.297 . S
O46 C48 1.247 . S
O47 Cd43 2.439 . S
O47 C48 1.208 . S
C48 O46 1.247 . S
C48 O47 1.208 . S
C49 O54 1.247 . S
C49 O55 1.208 . S
C50 O42 1.315 . S
C50 O45 1.279 . S
C51 O52 1.315 1_545 S
C51 O53 1.279 1_545 S
O52 Cd44 2.223 . S
O52 C51 1.315 1_565 S
O53 Cd43 2.240 . S
O53 C51 1.279 1_565 S
O54 Cd44 2.297 . S
O54 C49 1.247 . S
O55 Cd44 2.439 . S
O55 C49 1.208 . S
O56 Cd57 2.223 . S
O56 C64 1.315 . S
Cd57 O56 2.223 . S
Cd57 O60 2.297 . S
Cd57 O61 2.439 . S
Cd57 O67 2.240 . S
Cd58 O59 2.240 . S
Cd58 O66 2.223 . S
Cd58 O68 2.297 . S
Cd58 O69 2.439 . S
O59 Cd58 2.240 . S
O59 C64 1.279 . S
O60 Cd57 2.297 . S
O60 C62 1.247 . S
O61 Cd57 2.439 . S
O61 C62 1.208 . S
C62 O60 1.247 . S
C62 O61 1.208 . S
C63 O68 1.247 . S
C63 O69 1.208 . S
C64 O56 1.315 . S
C64 O59 1.279 . S
C65 O66 1.315 1_655 S
C65 O67 1.279 1_655 S
O66 Cd58 2.223 . S
O66 C65 1.315 1_455 S
O67 Cd57 2.240 . S
O67 C65 1.279 1_455 S
O68 Cd58 2.297 . S
O68 C63 1.247 . S
O69 Cd58 2.439 . S
O69 C63 1.208 . S
O70 Cd71 2.223 . S
O70 C78 1.315 . S
Cd71 O70 2.223 . S
Cd71 O74 2.297 . S
Cd71 O75 2.439 . S
Cd71 O81 2.240 . S
Cd72 O73 2.240 . S
Cd72 O80 2.223 . S
Cd72 O82 2.297 . S
Cd72 O83 2.439 . S
O73 Cd72 2.240 . S
O73 C78 1.279 . S
O74 Cd71 2.297 . S
O74 C76 1.247 . S
O75 Cd71 2.439 . S
O75 C76 1.208 . S
C76 O74 1.247 . S
C76 O75 1.208 . S
C77 O82 1.247 . S
C77 O83 1.208 . S
C78 O70 1.315 . S
C78 O73 1.279 . S
C79 O80 1.315 . S
C79 O81 1.279 . S
O80 Cd72 2.223 . S
O80 C79 1.315 . S
O81 Cd71 2.240 . S
O81 C79 1.279 . S
O82 Cd72 2.297 . S
O82 C77 1.247 . S
O83 Cd72 2.439 . S
O83 C77 1.208 . S
O84 Cd85 2.223 . S
O84 C92 1.315 . S
Cd85 O84 2.223 . S
Cd85 O88 2.297 . S
Cd85 O89 2.439 . S
Cd85 O95 2.240 . S
Cd86 O87 2.240 . S
Cd86 O94 2.223 1_556 S
Cd86 O96 2.294 1_556 S
Cd86 O97 2.439 . S
O87 Cd86 2.240 . S
O87 C92 1.279 . S
O88 Cd85 2.297 . S
O88 C90 1.247 . S
O89 Cd85 2.439 . S
O89 C90 1.208 . S
C90 O88 1.247 . S
C90 O89 1.208 . S
C91 O96 1.228 1_556 S
C91 O97 1.208 . S
C92 O84 1.315 . S
C92 O87 1.279 . S
C93 O94 1.315 1_456 S
C93 O95 1.279 1_455 S
O94 Cd86 2.223 1_554 S
O94 C93 1.315 1_654 S
O95 Cd85 2.240 . S
O95 C93 1.279 1_655 S
O96 Cd86 2.294 1_554 S
O96 C91 1.228 1_554 S
O97 Cd86 2.439 . S
O97 C91 1.208 . S
O98 Cd99 2.223 . S
O98 C106 1.315 . S
Cd99 O98 2.223 . S
Cd99 O102 2.297 . S
Cd99 O103 2.439 . S
Cd99 O109 2.240 . S
Cd100 O101 2.240 . S
Cd100 O108 2.223 1_556 S
Cd100 O110 2.294 1_556 S
Cd100 O111 2.439 . S
O101 Cd100 2.240 . S
O101 C106 1.279 . S
O102 Cd99 2.297 . S
O102 C104 1.247 . S
O103 Cd99 2.439 . S
O103 C104 1.208 . S
C104 O102 1.247 . S
C104 O103 1.208 . S
C105 O110 1.228 1_556 S
C105 O111 1.208 . S
C106 O98 1.315 . S
C106 O101 1.279 . S
C107 O108 1.315 1_556 S
C107 O109 1.279 . S
O108 Cd100 2.223 1_554 S
O108 C107 1.315 1_554 S
O109 Cd99 2.240 . S
O109 C107 1.279 . S
O110 Cd100 2.294 1_554 S
O110 C105 1.228 1_554 S
O111 Cd100 2.439 . S
O111 C105 1.208 . S
O112 Cd113 2.223 . S
O112 C120 1.315 . S
Cd113 O112 2.223 . S
Cd113 O116 2.297 . S
Cd113 O117 2.439 . S
Cd113 O123 2.240 . S
Cd114 O115 2.240 . S
Cd114 O122 2.223 1_556 S
Cd114 O124 2.294 1_556 S
Cd114 O125 2.439 . S
O115 Cd114 2.240 . S
O115 C120 1.279 . S
O116 Cd113 2.297 . S
O116 C118 1.247 . S
O117 Cd113 2.439 . S
O117 C118 1.208 . S
C118 O116 1.247 . S
C118 O117 1.208 . S
C119 O124 1.227 1_556 S
C119 O125 1.208 . S
C120 O112 1.315 . S
C120 O115 1.279 . S
C121 O122 1.315 1_566 S
C121 O123 1.279 1_565 S
O122 Cd114 2.223 1_554 S
O122 C121 1.315 1_544 S
O123 Cd113 2.240 . S
O123 C121 1.279 1_545 S
O124 Cd114 2.294 1_554 S
O124 C119 1.227 1_554 S
O125 Cd114 2.439 . S
O125 C119 1.208 . S
O126 Cd127 2.223 . S
O126 C134 1.315 . S
Cd127 O126 2.223 . S
Cd127 O130 2.297 . S
Cd127 O131 2.439 . S
Cd127 O137 2.240 . S
Cd128 O129 2.240 . S
Cd128 O136 2.223 . S
Cd128 O138 2.297 . S
Cd128 O139 2.439 . S
O129 Cd128 2.240 . S
O129 C134 1.279 . S
O130 Cd127 2.297 . S
O130 C132 1.247 . S
O131 Cd127 2.439 . S
O131 C132 1.208 . S
C132 O130 1.247 . S
C132 O131 1.208 . S
C133 O138 1.247 . S
C133 O139 1.208 . S
C134 O126 1.315 . S
C134 O129 1.279 . S
C135 O136 1.315 1_565 S
C135 O137 1.279 1_565 S
O136 Cd128 2.223 . S
O136 C135 1.315 1_545 S
O137 Cd127 2.240 . S
O137 C135 1.279 1_545 S
O138 Cd128 2.297 . S
O138 C133 1.247 . S
O139 Cd128 2.439 . S
O139 C133 1.208 . S
O140 Cd141 2.223 . S
O140 C148 1.315 . S
Cd141 O140 2.223 . S
Cd141 O144 2.297 . S
Cd141 O145 2.439 . S
Cd141 O151 2.240 . S
Cd142 O143 2.240 . S
Cd142 O150 2.223 . S
Cd142 O152 2.297 . S
Cd142 O153 2.439 . S
O143 Cd142 2.240 . S
O143 C148 1.279 . S
O144 Cd141 2.297 . S
O144 C146 1.247 . S
O145 Cd141 2.439 . S
O145 C146 1.208 . S
C146 O144 1.247 . S
C146 O145 1.208 . S
C147 O152 1.247 . S
C147 O153 1.208 . S
C148 O140 1.315 . S
C148 O143 1.279 . S
C149 O150 1.315 1_455 S
C149 O151 1.279 1_455 S
O150 Cd142 2.223 . S
O150 C149 1.315 1_655 S
O151 Cd141 2.240 . S
O151 C149 1.279 1_655 S
O152 Cd142 2.297 . S
O152 C147 1.247 . S
O153 Cd142 2.439 . S
O153 C147 1.208 . S
O154 Cd155 2.223 . S
O154 C162 1.315 . S
Cd155 O154 2.223 . S
Cd155 O158 2.297 . S
Cd155 O159 2.439 . S
Cd155 O165 2.240 . S
Cd156 O157 2.240 . S
Cd156 O164 2.223 . S
Cd156 O166 2.297 . S
Cd156 O167 2.439 . S
O157 Cd156 2.240 . S
O157 C162 1.279 . S
O158 Cd155 2.297 . S
O158 C160 1.247 . S
O159 Cd155 2.439 . S
O159 C160 1.208 . S
C160 O158 1.247 . S
C160 O159 1.208 . S
C161 O166 1.247 . S
C161 O167 1.208 . S
C162 O154 1.315 . S
C162 O157 1.279 . S
C163 O164 1.315 . S
C163 O165 1.279 . S
O164 Cd156 2.223 . S
O164 C163 1.315 . S
O165 Cd155 2.240 . S
O165 C163 1.279 . S
O166 Cd156 2.297 . S
O166 C161 1.247 . S
O167 Cd156 2.439 . S
O167 C161 1.208 . S
C168 C169 1.387 1_556 S
C168 H172 0.950 . S
C168 C177 1.390 . S
C169 C168 1.387 1_554 S
C169 C171 1.387 . S
H170 C177 0.950 . S
C171 C169 1.387 . S
C171 C173 1.390 . S
C171 H175 0.950 . S
H172 C168 0.950 . S
C173 C171 1.390 . S
C173 C174 1.387 1_554 S
C173 H176 0.950 . S
C174 C173 1.387 1_556 S
C174 C177 1.387 . S
H175 C171 0.950 . S
H176 C173 0.950 . S
C177 C168 1.390 . S
C177 H170 0.950 . S
C177 C174 1.387 . S
C178 C179 1.387 . S
C178 H182 0.950 . S
C178 C187 1.390 1_554 S
C179 C178 1.387 . S
C179 C181 1.387 . S
H180 C187 0.950 . S
C181 C179 1.387 . S
C181 C183 1.390 1_554 S
C181 H185 0.950 . S
H182 C178 0.950 . S
C183 C181 1.390 1_556 S
C183 C184 1.387 . S
C183 H186 0.950 . S
C184 C183 1.387 . S
C184 C187 1.387 . S
H185 C181 0.950 . S
H186 C183 0.950 . S
C187 C178 1.390 1_556 S
C187 H180 0.950 . S
C187 C184 1.387 . S
C188 C189 1.387 1_556 S
C188 H192 0.950 . S
C188 C197 1.390 . S
C189 C188 1.387 1_554 S
C189 C191 1.387 . S
H190 C197 0.950 . S
C191 C189 1.387 . S
C191 C193 1.390 . S
C191 H195 0.950 . S
H192 C188 0.950 . S
C193 C191 1.390 . S
C193 C194 1.387 1_554 S
C193 H196 0.950 . S
C194 C193 1.387 1_556 S
C194 C197 1.387 . S
H195 C191 0.950 . S
H196 C193 0.950 . S
C197 C188 1.390 . S
C197 H190 0.950 . S
C197 C194 1.387 . S
C198 C199 1.387 . S
C198 H202 0.950 . S
C198 C207 1.390 . S
C199 C198 1.387 . S
C199 C201 1.387 . S
H200 C207 0.950 . S
C201 C199 1.387 . S
C201 C203 1.390 . S
C201 H205 0.950 . S
H202 C198 0.950 . S
C203 C201 1.390 . S
C203 C204 1.387 . S
C203 H206 0.950 . S
C204 C203 1.387 . S
C204 C207 1.387 . S
H205 C201 0.950 . S
H206 C203 0.950 . S
C207 C198 1.390 . S
C207 H200 0.950 . S
C207 C204 1.387 . S
C208 C209 1.387 . S
C208 H212 0.950 . S
C208 C217 1.390 . S
C209 C208 1.387 . S
C209 C211 1.387 . S
H210 C217 0.950 . S
C211 C209 1.387 . S
C211 C213 1.390 . S
C211 H215 0.950 . S
H212 C208 0.950 . S
C213 C211 1.390 . S
C213 C214 1.387 . S
C213 H216 0.950 . S
C214 C213 1.387 . S
C214 C217 1.387 . S
H215 C211 0.950 . S
H216 C213 0.950 . S
C217 C208 1.390 . S
C217 H210 0.950 . S
C217 C214 1.387 . S
C218 C219 1.387 . S
C218 H222 0.950 . S
C218 C227 1.390 . S
C219 C218 1.387 . S
C219 C221 1.387 . S
H220 C227 0.950 . S
C221 C219 1.387 . S
C221 C223 1.390 . S
C221 H225 0.950 . S
H222 C218 0.950 . S
C223 C221 1.390 . S
C223 C224 1.387 . S
C223 H226 0.950 . S
C224 C223 1.387 . S
C224 C227 1.387 . S
H225 C221 0.950 . S
H226 C223 0.950 . S
C227 C218 1.390 . S
C227 H220 0.950 . S
C227 C224 1.387 . S
C228 C229 1.387 1_556 S
C228 H232 0.950 . S
C228 C237 1.390 . S
C229 C228 1.387 1_554 S
C229 C231 1.387 . S
H230 C237 0.950 . S
C231 C229 1.387 . S
C231 C233 1.390 . S
C231 H235 0.950 . S
H232 C228 0.950 . S
C233 C231 1.390 . S
C233 C234 1.387 1_554 S
C233 H236 0.950 . S
C234 C233 1.387 1_556 S
C234 C237 1.387 . S
H235 C231 0.950 . S
H236 C233 0.950 . S
C237 C228 1.390 . S
C237 H230 0.950 . S
C237 C234 1.387 . S
C238 C239 1.387 1_554 S
C238 H242 0.950 . S
C238 C247 1.390 . S
C239 C238 1.387 1_556 S
C239 C241 1.387 . S
H240 C247 0.950 . S
C241 C239 1.387 . S
C241 C243 1.390 . S
C241 H245 0.950 . S
H242 C238 0.950 . S
C243 C241 1.390 . S
C243 C244 1.387 1_556 S
C243 H246 0.950 . S
C244 C243 1.387 1_554 S
C244 C247 1.387 . S
H245 C241 0.950 . S
H246 C243 0.950 . S
C247 C238 1.390 . S
C247 H240 0.950 . S
C247 C244 1.387 . S
C248 C249 1.387 1_556 S
C248 H252 0.950 . S
C248 C257 1.390 . S
C249 C248 1.387 1_554 S
C249 C251 1.387 . S
H250 C257 0.950 . S
C251 C249 1.387 . S
C251 C253 1.390 . S
C251 H255 0.950 . S
H252 C248 0.950 . S
C253 C251 1.390 . S
C253 C254 1.387 1_554 S
C253 H256 0.950 . S
C254 C253 1.387 1_556 S
C254 C257 1.387 . S
H255 C251 0.950 . S
H256 C253 0.950 . S
C257 C248 1.390 . S
C257 H250 0.950 . S
C257 C254 1.387 . S
C258 C259 1.387 . S
C258 H262 0.950 . S
C258 C267 1.390 . S
C259 C258 1.387 . S
C259 C261 1.387 . S
H260 C267 0.950 . S
C261 C259 1.387 . S
C261 C263 1.390 . S
C261 H265 0.950 . S
H262 C258 0.950 . S
C263 C261 1.390 . S
C263 C264 1.387 . S
C263 H266 0.950 . S
C264 C263 1.387 . S
C264 C267 1.387 . S
H265 C261 0.950 . S
H266 C263 0.950 . S
C267 C258 1.390 . S
C267 H260 0.950 . S
C267 C264 1.387 . S
C268 C269 1.387 . S
C268 H272 0.950 . S
C268 C277 1.390 . S
C269 C268 1.387 . S
C269 C271 1.387 . S
H270 C277 0.950 . S
C271 C269 1.387 . S
C271 C273 1.390 . S
C271 H275 0.950 . S
H272 C268 0.950 . S
C273 C271 1.390 . S
C273 C274 1.387 . S
C273 H276 0.950 . S
C274 C273 1.387 . S
C274 C277 1.387 . S
H275 C271 0.950 . S
H276 C273 0.950 . S
C277 C268 1.390 . S
C277 H270 0.950 . S
C277 C274 1.387 . S
C278 C279 1.387 . S
C278 H282 0.950 . S
C278 C287 1.390 . S
C279 C278 1.387 . S
C279 C281 1.387 . S
H280 C287 0.950 . S
C281 C279 1.387 . S
C281 C283 1.390 . S
C281 H285 0.950 . S
H282 C278 0.950 . S
C283 C281 1.390 . S
C283 C284 1.387 . S
C283 H286 0.950 . S
C284 C283 1.387 . S
C284 C287 1.387 . S
H285 C281 0.950 . S
H286 C283 0.950 . S
C287 C278 1.390 . S
C287 H280 0.950 . S
C287 C284 1.387 . S
C288 C289 1.387 . S
C288 H292 0.950 . S
C288 C297 1.390 . S
C289 C288 1.387 . S
C289 C291 1.387 . S
H290 C297 0.950 . S
C291 C289 1.387 . S
C291 C293 1.390 . S
C291 H295 0.950 . S
H292 C288 0.950 . S
C293 C291 1.390 . S
C293 C294 1.387 . S
C293 H296 0.950 . S
C294 C293 1.387 . S
C294 C297 1.387 . S
H295 C291 0.950 . S
H296 C293 0.950 . S
C297 C288 1.390 . S
C297 H290 0.950 . S
C297 C294 1.387 . S
C298 C299 1.387 . S
C298 H302 0.950 . S
C298 C307 1.390 . S
C299 C298 1.387 . S
C299 C301 1.387 . S
H300 C307 0.950 . S
C301 C299 1.387 . S
C301 C303 1.390 . S
C301 H305 0.950 . S
H302 C298 0.950 . S
C303 C301 1.390 . S
C303 C304 1.387 . S
C303 H306 0.950 . S
C304 C303 1.387 . S
C304 C307 1.387 . S
H305 C301 0.950 . S
H306 C303 0.950 . S
C307 C298 1.390 . S
C307 H300 0.950 . S
C307 C304 1.387 . S
C308 C309 1.387 . S
C308 H312 0.950 . S
C308 C317 1.390 . S
C309 C308 1.387 . S
C309 C311 1.387 . S
H310 C317 0.950 . S
C311 C309 1.387 . S
C311 C313 1.390 . S
C311 H315 0.950 . S
H312 C308 0.950 . S
C313 C311 1.390 . S
C313 C314 1.387 . S
C313 H316 0.950 . S
C314 C313 1.387 . S
C314 C317 1.387 . S
H315 C311 0.950 . S
H316 C313 0.950 . S
C317 C308 1.390 . S
C317 H310 0.950 . S
C317 C314 1.387 . S
C318 C319 1.387 . S
C318 H322 0.950 . S
C318 C327 1.390 . S
C319 C318 1.387 . S
C319 C321 1.387 . S
H320 C327 0.950 . S
C321 C319 1.387 . S
C321 C323 1.390 . S
C321 H325 0.950 . S
H322 C318 0.950 . S
C323 C321 1.390 . S
C323 C324 1.387 . S
C323 H326 0.950 . S
C324 C323 1.387 . S
C324 C327 1.387 . S
H325 C321 0.950 . S
H326 C323 0.950 . S
C327 C318 1.390 . S
C327 H320 0.950 . S
C327 C324 1.387 . S
C328 C329 1.387 . S
C328 H332 0.950 . S
C328 C337 1.390 . S
C329 C328 1.387 . S
C329 C331 1.387 . S
H330 C337 0.950 . S
C331 C329 1.387 . S
C331 C333 1.390 . S
C331 H335 0.950 . S
H332 C328 0.950 . S
C333 C331 1.390 . S
C333 C334 1.387 . S
C333 H336 0.950 . S
C334 C333 1.387 . S
C334 C337 1.387 . S
H335 C331 0.950 . S
H336 C333 0.950 . S
C337 C328 1.390 . S
C337 H330 0.950 . S
C337 C334 1.387 . S
C338 C339 1.387 . S
C338 H342 0.950 . S
C338 C347 1.390 . S
C339 C338 1.387 . S
C339 C341 1.387 . S
H340 C347 0.950 . S
C341 C339 1.387 . S
C341 C343 1.390 . S
C341 H345 0.950 . S
H342 C338 0.950 . S
C343 C341 1.390 . S
C343 C344 1.387 . S
C343 H346 0.950 . S
C344 C343 1.387 . S
C344 C347 1.387 . S
H345 C341 0.950 . S
H346 C343 0.950 . S
C347 C338 1.390 . S
C347 H340 0.950 . S
C347 C344 1.387 . S
C348 C349 1.387 . S
C348 H352 0.950 . S
C348 C357 1.390 1_455 S
C349 C348 1.387 . S
C349 C351 1.387 1_554 S
H350 C357 0.950 . S
C351 C349 1.387 1_556 S
C351 C353 1.390 1_455 S
C351 H355 0.950 . S
H352 C348 0.950 . S
C353 C351 1.390 1_655 S
C353 C354 1.387 . S
C353 H356 0.950 . S
C354 C353 1.387 . S
C354 C357 1.387 1_556 S
H355 C351 0.950 . S
H356 C353 0.950 . S
C357 C348 1.390 1_655 S
C357 H350 0.950 . S
C357 C354 1.387 1_554 S
C358 C359 1.387 . S
C358 H362 0.950 . S
C358 C367 1.390 . S
C359 C358 1.387 . S
C359 C361 1.387 1_554 S
H360 C367 0.950 . S
C361 C359 1.387 1_556 S
C361 C363 1.390 . S
C361 H365 0.950 . S
H362 C358 0.950 . S
C363 C361 1.390 . S
C363 C364 1.387 . S
C363 H366 0.950 . S
C364 C363 1.387 . S
C364 C367 1.387 1_556 S
H365 C361 0.950 . S
H366 C363 0.950 . S
C367 C358 1.390 . S
C367 H360 0.950 . S
C367 C364 1.387 1_554 S
C368 C369 1.387 . S
C368 H372 0.950 . S
C368 C377 1.390 1_554 S
C369 C368 1.387 . S
C369 C371 1.387 1_565 S
H370 C377 0.950 . S
C371 C369 1.387 1_545 S
C371 C373 1.390 1_554 S
C371 H375 0.950 . S
H372 C368 0.950 . S
C373 C371 1.390 1_556 S
C373 C374 1.387 . S
C373 H376 0.950 . S
C374 C373 1.387 . S
C374 C377 1.387 1_545 S
H375 C371 0.950 . S
H376 C373 0.950 . S
C377 C368 1.390 1_556 S
C377 H370 0.950 . S
C377 C374 1.387 1_565 S
C378 C379 1.387 1_545 S
C378 H382 0.950 . S
C378 C387 1.390 . S
C379 C378 1.387 1_565 S
C379 C381 1.387 . S
H380 C387 0.950 . S
C381 C379 1.387 . S
C381 C383 1.390 . S
C381 H385 0.950 . S
H382 C378 0.950 . S
C383 C381 1.390 . S
C383 C384 1.387 1_565 S
C383 H386 0.950 . S
C384 C383 1.387 1_545 S
C384 C387 1.387 . S
H385 C381 0.950 . S
H386 C383 0.950 . S
C387 C378 1.390 . S
C387 H380 0.950 . S
C387 C384 1.387 . S
C388 C389 1.387 . S
C388 H392 0.950 . S
C388 C397 1.390 . S
C389 C388 1.387 . S
C389 C391 1.387 1_655 S
H390 C397 0.950 . S
C391 C389 1.387 1_455 S
C391 C393 1.390 . S
C391 H395 0.950 . S
H392 C388 0.950 . S
C393 C391 1.390 . S
C393 C394 1.387 . S
C393 H396 0.950 . S
C394 C393 1.387 . S
C394 C397 1.387 1_455 S
H395 C391 0.950 . S
H396 C393 0.950 . S
C397 C388 1.390 . S
C397 H390 0.950 . S
C397 C394 1.387 1_655 S
C398 C399 1.387 . S
C398 H402 0.950 . S
C398 C407 1.390 . S
C399 C398 1.387 . S
C399 C401 1.387 . S
H400 C407 0.950 . S
C401 C399 1.387 . S
C401 C403 1.390 . S
C401 H405 0.950 . S
H402 C398 0.950 . S
C403 C401 1.390 . S
C403 C404 1.387 . S
C403 H406 0.950 . S
C404 C403 1.387 . S
C404 C407 1.387 . S
H405 C401 0.950 . S
H406 C403 0.950 . S
C407 C398 1.390 . S
C407 H400 0.950 . S
C407 C404 1.387 . S
C169 C8 1.223 . S
C174 C107 1.235 . S
C179 C22 1.220 . S
C184 C121 1.236 . S
C189 C36 1.221 . S
C194 C93 1.235 . S
C199 C163 1.235 . S
C204 C50 1.221 . S
C209 C64 1.222 . S
C214 C135 1.235 . S
C219 C149 1.235 . S
C224 C78 1.221 . S
C229 C23 1.235 . S
C234 C92 1.223 . S
C239 C106 1.223 . S
C244 C37 1.237 . S
C249 C9 1.235 . S
C254 C120 1.222 . S
C259 C134 1.221 . S
C264 C79 1.235 . S
C269 C148 1.223 . S
C274 C51 1.237 . S
C279 C65 1.237 . S
C284 C162 1.221 . S
C289 C76 1.473 . S
C294 C6 1.473 . S
C299 C20 1.475 . S
C304 C48 1.472 . S
C309 C34 1.471 . S
C314 C62 1.474 . S
C319 C90 1.473 . S
C324 C160 1.473 . S
C329 C104 1.472 . S
C334 C132 1.475 . S
C339 C118 1.474 . S
C344 C146 1.472 . S
C349 C7 1.583 . S
C354 C91 1.583 . S
C359 C21 1.584 . S
C364 C105 1.584 . S
C369 C35 1.585 . S
C374 C119 1.585 . S
C379 C49 1.581 . S
C384 C133 1.581 . S
C389 C147 1.581 . S
C394 C63 1.581 . S
C399 C77 1.583 . S
C404 C161 1.583 . S
