# Generated by pormake.
# Topology wni, (7)-cn, num edge types: 1
# Building blocks:
#     Node 0, Type 0, BuildingBlock: HICVOG_clean_sbu_0, # of connection points: 7
#     Node 1, Type 0, BuildingBlock: HICVOG_clean_sbu_0, # of connection points: 7
#     Node 2, Type 0, BuildingBlock: HICVOG_clean_sbu_0, # of connection points: 7
#     Node 3, Type 0, BuildingBlock: HICVOG_clean_sbu_0, # of connection points: 7
#     Node 4, Type 0, BuildingBlock: HICVOG_clean_sbu_0, # of connection points: 7
#     Node 5, Type 0, BuildingBlock: HICVOG_clean_sbu_0, # of connection points: 7
#     Edge 6, Type (0, 0), BuildingBlock: UVAHIK_clean_linker_0, # of connection points: 2
#     Edge 7, Type (0, 0), BuildingBlock: UVAHIK_clean_linker_0, # of connection points: 2
#     Edge 8, Type (0, 0), BuildingBlock: UVAHIK_clean_linker_0, # of connection points: 2
#     Edge 9, Type (0, 0), BuildingBlock: UVAHIK_clean_linker_0, # of connection points: 2
#     Edge 10, Type (0, 0), BuildingBlock: UVAHIK_clean_linker_0, # of connection points: 2
#     Edge 11, Type (0, 0), BuildingBlock: UVAHIK_clean_linker_0, # of connection points: 2
#     Edge 12, Type (0, 0), BuildingBlock: UVAHIK_clean_linker_0, # of connection points: 2
#     Edge 13, Type (0, 0), BuildingBlock: UVAHIK_clean_linker_0, # of connection points: 2
#     Edge 14, Type (0, 0), BuildingBlock: UVAHIK_clean_linker_0, # of connection points: 2
#     Edge 15, Type (0, 0), BuildingBlock: UVAHIK_clean_linker_0, # of connection points: 2
#     Edge 16, Type (0, 0), BuildingBlock: UVAHIK_clean_linker_0, # of connection points: 2
#     Edge 17, Type (0, 0), BuildingBlock: UVAHIK_clean_linker_0, # of connection points: 2
#     Edge 18, Type (0, 0), BuildingBlock: UVAHIK_clean_linker_0, # of connection points: 2
#     Edge 19, Type (0, 0), BuildingBlock: UVAHIK_clean_linker_0, # of connection points: 2
#     Edge 20, Type (0, 0), BuildingBlock: UVAHIK_clean_linker_0, # of connection points: 2
#     Edge 21, Type (0, 0), BuildingBlock: UVAHIK_clean_linker_0, # of connection points: 2
#     Edge 22, Type (0, 0), BuildingBlock: UVAHIK_clean_linker_0, # of connection points: 2
#     Edge 23, Type (0, 0), BuildingBlock: UVAHIK_clean_linker_0, # of connection points: 2
#     Edge 24, Type (0, 0), BuildingBlock: UVAHIK_clean_linker_0, # of connection points: 2
#     Edge 25, Type (0, 0), BuildingBlock: UVAHIK_clean_linker_0, # of connection points: 2
#     Edge 26, Type (0, 0), BuildingBlock: UVAHIK_clean_linker_0, # of connection points: 2
# Relax obj value: 0.229
# Max RMSD: 0.178
# Mean RMSD: 0.178
data_MOF--net-wni--node1-HICVOG_clean_sbu_0--edge1-UVAHIK_clean_linker_0
_symmetry_space_group_name_H-M    P1
_symmetry_Int_Tables_number       1
_symmetry_cell_setting            triclinic
loop_
_symmetry_equiv_pos_as_xyz
'x, y, z'
_cell_length_a     34.991502
_cell_length_b     35.033131
_cell_length_c     40.650426
_cell_angle_alpha  89.885397
_cell_angle_beta   90.097838
_cell_angle_gamma 119.59221
loop_
_atom_site_label
_atom_site_type_symbol
_atom_site_fract_x
_atom_site_fract_y
_atom_site_fract_z
_atom_type_partial_charge
Zn0 Zn 0.10787 0.44526 0.13059 0.0
C1 C 0.06927 0.44288 0.03573 0.0
N2 N 1.03835 0.4501 0.04953 0.0
C3 C 1.04652 0.45239 0.08193 0.0
N4 N 0.08227 0.44737 0.08802 0.0
N5 N 0.0968 0.44147 0.05918 0.0
C6 C 0.12791 0.34064 0.04539 0.0
O7 O 0.09468 0.33234 0.02598 0.0
O8 O 0.09117 0.47778 0.16243 0.0
Zn9 Zn 0.15284 0.43852 0.05527 0.0
N10 N 0.08183 0.38456 0.14295 0.0
C11 C 0.05726 0.31022 0.12842 0.0
C12 C 0.07233 0.35377 0.11931 0.0
C13 C 0.07581 0.37354 0.17527 0.0
N14 N 1.05207 0.29925 0.16082 0.0
C15 C 0.06056 0.3298 0.18453 0.0
O16 O 0.20461 0.47396 0.08784 0.0
C17 C 0.20927 0.48217 0.11864 0.0
O18 O 0.17554 0.47259 0.13627 0.0
H19 H 0.07707 0.36312 0.09368 0.0
H20 H 0.08423 0.39892 0.19354 0.0
C21 C 0.19595 0.4387 0.9975 0.0
C22 C 0.2161 0.45293 0.96681 0.0
C23 C 0.19784 0.5099 0.96763 0.0
C24 C 0.17923 0.49636 0.99878 0.0
N25 N 0.17806 0.46054 1.01274 0.0
N26 N 0.21605 0.48813 0.9525 0.0
H27 H 0.19453 0.41057 1.00942 0.0
C28 C 0.10004 0.51565 0.15246 0.0
O29 O 0.12004 0.53008 0.12408 0.0
O30 O 0.14884 0.37796 0.05937 0.0
H31 H 0.1652 0.51366 1.01148 0.0
H32 H 1.05016 0.28543 0.10992 0.0
H33 H 0.19839 0.53784 0.95578 0.0
Zn34 Zn 0.64587 0.72137 0.72306 0.0
C35 C 0.62859 0.60083 0.75097 0.0
N36 N 0.63197 0.59482 0.7188 0.0
C37 C 0.6409 0.63329 0.7046 0.0
N38 N 0.64219 0.66245 0.72772 0.0
N39 N 0.63478 0.64184 0.75664 0.0
C40 C 0.55847 0.59486 0.81572 0.0
O41 O 0.54968 0.61239 0.79023 0.0
O42 O 0.70647 0.77359 0.71079 0.0
Zn43 Zn 0.63678 0.66635 0.80027 0.0
N44 N 0.60757 0.71765 0.6882 0.0
C45 C 0.5453 0.68242 0.65313 0.0
C46 C 0.5742 0.67993 0.67564 0.0
C47 C 0.61311 0.7574 0.67961 0.0
N48 N 0.5501 0.72232 0.64527 0.0
C49 C 0.58352 0.76004 0.65798 0.0
O50 O 0.61547 0.71137 0.80811 0.0
C51 C 0.61256 0.74058 0.79129 0.0
O52 O 0.62308 0.74544 0.76091 0.0
H53 H 0.56939 0.6484 0.68358 0.0
H54 H 0.63872 0.78648 0.69146 0.0
C55 C 0.70432 0.70113 0.84821 0.0
C56 C 0.74754 0.71919 0.86025 0.0
C57 C 0.77224 0.71826 0.80599 0.0
C58 C 0.72928 0.69988 0.79437 0.0
N59 N 0.69626 0.69157 0.81577 0.0
N60 N 0.78034 0.72739 0.83853 0.0
H61 H 0.6771 0.69517 0.86398 0.0
C62 C 0.7275 0.80394 0.73181 0.0
O63 O 0.7148 0.79666 0.76268 0.0
O64 O 0.59705 0.61434 0.82763 0.0
H65 H 0.72235 0.69245 0.76852 0.0
H66 H 0.51843 0.65286 0.64285 0.0
H67 H 0.79897 0.72517 0.78932 0.0
Zn68 Zn 0.41013 0.98159 0.46727 0.0
C69 C 0.45231 1.02063 0.37349 0.0
N70 N 0.48956 0.05015 0.38886 0.0
C71 C 0.48205 0.03917 0.42082 0.0
N72 N 0.44108 1.00403 0.42525 0.0
N73 N 0.4222 0.99178 0.39567 0.0
C74 C 0.28636 0.93821 0.35296 0.0
O75 O 0.30334 0.93453 0.3252 0.0
O76 O 0.45444 1.00325 0.50378 0.0
Zn77 Zn 0.36306 0.93638 0.38939 0.0
N78 N 0.37101 1.00506 0.47455 0.0
C79 C 0.30163 1.00021 0.46508 0.0
C80 C 0.33349 0.98902 0.45663 0.0
C81 C 0.37832 1.03241 0.50036 0.0
N82 N 0.30768 1.02517 0.49222 0.0
C83 C 0.34531 0.04159 0.5103 0.0
O84 O 0.3402 0.8891 0.4267 0.0
C85 C 0.34508 0.88242 0.45692 0.0
O86 O 0.37281 0.91422 0.47451 0.0
H87 H 0.32774 0.96629 0.43697 0.0
H88 H 0.40799 0.04388 0.51467 0.0
C89 C 0.32839 0.8703 0.34451 0.0
C90 C 0.32506 0.84448 0.31738 0.0
C91 C 0.40305 0.88221 0.31362 0.0
C92 C 0.4058 0.90872 0.34014 0.0
N93 N 0.36811 0.9029 0.35421 0.0
N94 N 0.36284 0.85128 0.30251 0.0
H95 H 0.29975 0.86662 0.35722 0.0
C96 C 0.44035 0.99082 0.53282 0.0
O97 O 0.39795 0.96522 0.53748 0.0
O98 O 0.30745 0.94334 0.37989 0.0
H99 H 0.43739 0.93393 0.34904 0.0
H100 H 0.27137 0.98733 0.45119 0.0
H101 H 0.43253 0.88666 0.30159 0.0
Zn102 Zn 0.46935 0.1345 0.99343 0.0
C103 C 0.49303 1.03382 0.97013 0.0
N104 N 0.48762 1.02471 1.00247 0.0
C105 C 0.47753 0.05428 1.01514 0.0
N106 N 0.47731 0.08163 0.99102 0.0
N107 N 0.48725 0.06875 0.96299 0.0
C108 C 0.56561 0.09004 0.90388 0.0
O109 O 0.57795 0.11402 0.93073 0.0
O110 O 0.40568 0.12157 1.00032 0.0
Zn111 Zn 0.49138 0.09527 0.91939 0.0
N112 N 0.5001 0.16824 0.03106 0.0
C113 C 0.55505 0.19615 0.07255 0.0
C114 C 0.5339 0.16711 0.04664 0.0
C115 C 0.48714 0.1974 0.03963 0.0
N116 N 0.54234 0.22581 0.08089 0.0
C117 C 0.50866 0.22713 0.06503 0.0
O118 O 0.51907 0.16281 0.91324 0.0
C119 C 0.51428 0.1918 0.92874 0.0
O120 O 0.49549 0.18247 0.95679 0.0
H121 H 0.54456 0.14437 0.03884 0.0
H122 H 0.46166 0.19872 0.02542 0.0
C123 C 0.4305 0.07883 0.86861 0.0
C124 C 0.38901 0.06454 0.85429 0.0
C125 C 0.35565 1.03283 0.90555 0.0
C126 C 0.39697 0.04778 0.91965 0.0
N127 N 0.43344 0.07033 0.90082 0.0
N128 N 0.35264 0.04155 0.87337 0.0
H129 H 0.46052 0.09645 0.85463 0.0
C130 C 0.3875 0.13394 0.97877 0.0
O131 O 0.40583 0.14582 0.94962 0.0
O132 O 0.52777 0.07816 0.89207 0.0
H133 H 0.39998 0.04189 0.9454 0.0
H134 H 0.58196 0.19581 0.08542 0.0
H135 H 0.32619 1.01476 0.92012 0.0
Zn136 Zn 0.95368 0.34578 0.65668 0.0
C137 C 0.0545 0.46696 0.62904 0.0
N138 N 0.06359 0.47261 0.66133 0.0
C139 C 1.03478 0.43381 0.67512 0.0
N140 N 1.00765 0.4049 0.65181 0.0
N141 N 1.02041 0.42574 0.62301 0.0
C142 C 0.9984 0.47174 0.55732 0.0
O143 O 0.97153 0.45955 0.58261 0.0
O144 O 0.96394 0.29273 0.66261 0.0
Zn145 Zn 0.99666 0.39802 0.58033 0.0
N146 N 0.92538 0.34718 0.69649 0.0
C147 C 0.90367 0.38086 0.73749 0.0
C148 C 0.92582 0.38367 0.70827 0.0
C149 C 0.90327 0.30809 0.71216 0.0
N150 N 0.88121 0.34149 0.7531 0.0
C151 C 0.88066 0.3049 0.74118 0.0
O152 O 0.92921 0.35754 0.57398 0.0
C153 C 0.897 0.33052 0.59168 0.0
O154 O 0.90341 0.32539 0.62191 0.0
H155 H 0.94321 0.41449 0.69516 0.0
H156 H 0.90191 0.27935 0.70123 0.0
C157 C 1.03089 0.35823 0.53734 0.0
C158 C 1.04739 0.33022 0.52921 0.0
C159 C 1.0507 0.31591 0.58582 0.0
C160 C 1.03441 0.3439 0.5938 0.0
N161 N 1.02429 0.36398 0.56938 0.0
N162 N 0.05648 0.30938 0.55371 0.0
H163 H 1.02196 0.3742 0.51842 0.0
C164 C 0.94899 0.26187 0.64136 0.0
O165 O 0.93593 0.2687 0.61275 0.0
O166 O 1.01424 0.4476 0.54868 0.0
H167 H 1.02897 0.34882 0.61921 0.0
H168 H 0.90374 0.40951 0.74742 0.0
H169 H 0.05823 0.29914 0.60495 0.0
Zn170 Zn 0.68937 0.60698 0.25004 0.0
C171 C 0.65179 0.60605 0.34452 0.0
N172 N 0.61249 0.59552 0.33098 0.0
C173 C 0.61829 0.59304 0.29856 0.0
N174 N 0.65995 0.60097 0.2923 0.0
N175 N 0.68109 0.60903 0.32097 0.0
C176 C 0.82225 0.70003 0.30461 0.0
O177 O 0.81702 0.67844 0.27708 0.0
O178 O 0.64203 0.58204 0.21607 0.0
Zn179 Zn 0.74286 0.61921 0.32389 0.0
N180 N 0.72659 0.66877 0.24179 0.0
C181 C 0.76182 0.7435 0.25867 0.0
C182 C 0.73499 0.69902 0.26568 0.0
C183 C 0.74383 0.68109 0.21121 0.0
N184 N 0.77858 0.75593 0.22792 0.0
C185 C 0.77051 0.72585 0.20388 0.0
O186 O 0.76401 0.58937 0.28935 0.0
C187 C 0.75647 0.57432 0.26003 0.0
O188 O 0.72688 0.57631 0.24288 0.0
H189 H 0.72105 0.68881 0.28994 0.0
H190 H 0.73542 0.65609 0.19265 0.0
C191 C 0.79169 0.61679 0.3761 0.0
C192 C 0.80205 0.60361 0.40565 0.0
C193 C 0.727 0.54906 0.41151 0.0
C194 C 0.71725 0.56172 0.38147 0.0
N195 N 0.74978 0.596 0.36483 0.0
N196 N 0.76908 0.57015 0.42287 0.0
H197 H 0.81671 0.64343 0.36193 0.0
C198 C 0.61411 0.54201 0.22109 0.0
O199 O 0.62044 0.52144 0.24576 0.0
O200 O 0.79154 0.68415 0.32596 0.0
H201 H 0.68414 0.54493 0.37178 0.0
H202 H 0.76886 0.768 0.2774 0.0
H203 H 0.70147 0.52241 0.42553 0.0
C204 C 0.54018 0.54286 0.28055 0.0
C205 C 0.58078 0.581 0.27469 0.0
C206 C 0.50231 0.53302 0.26198 0.0
C207 C 0.46063 0.56367 0.18549 0.0
H208 H 0.34949 0.50319 0.23161 0.0
C209 C 0.29046 0.50226 0.11728 0.0
C210 C 0.25403 0.4987 0.13489 0.0
C211 C 0.33086 0.51365 0.1331 0.0
C212 C 0.37998 0.52055 0.21809 0.0
H213 H 0.6123 0.63949 0.2446 0.0
H214 H 0.54634 0.62264 0.21208 0.0
H215 H 0.41702 0.52042 0.26012 0.0
H216 H 0.23338 0.50574 0.18363 0.0
H217 H 0.30311 0.52647 0.21075 0.0
H218 H 0.42339 0.56469 0.14362 0.0
C219 C 0.5439 0.59945 0.23072 0.0
C220 C 0.41928 0.52993 0.23455 0.0
C221 C 0.58207 0.60923 0.24938 0.0
C222 C 0.26015 0.50794 0.1689 0.0
C223 C 0.30053 0.51948 0.18468 0.0
C224 C 0.42116 0.55427 0.16895 0.0
C225 C 0.50287 0.56138 0.23699 0.0
C226 C 0.46064 0.55164 0.21872 0.0
C227 C 0.3368 0.52208 0.16731 0.0
C228 C 0.37977 0.53252 0.18488 0.0
H229 H 0.53752 0.52053 0.30003 0.0
H230 H 0.47234 0.50291 0.26752 0.0
H231 H 0.4912 0.58 0.17192 0.0
H232 H 0.28752 0.49514 0.09119 0.0
H233 H 0.35707 0.51458 0.11843 0.0
C234 C 0.59989 0.80682 0.79107 0.0
C235 C 0.59836 0.77063 0.80773 0.0
C236 C 0.58821 0.83564 0.80689 0.0
C237 C 0.56863 0.86835 0.89202 0.0
H238 H 0.52198 0.93127 0.84308 0.0
C239 C 0.5419 1.002 0.95667 0.0
C240 C 0.50684 1.00868 0.94731 0.0
C241 C 0.55323 0.9749 0.93836 0.0
C242 C 0.53459 0.91382 0.8574 0.0
H243 H 0.58206 0.73693 0.85468 0.0
H244 H 0.56091 0.78568 0.8817 0.0
H245 H 0.53958 0.88054 0.81457 0.0
H246 H 0.45543 0.99034 0.91106 0.0
H247 H 0.47455 0.9424 0.87918 0.0
H248 H 0.56252 0.90038 0.93492 0.0
C249 C 0.57221 0.79287 0.85651 0.0
C250 C 0.54539 0.88479 0.8408 0.0
C251 C 0.5841 0.76426 0.84076 0.0
C252 C 0.48321 0.98689 0.91877 0.0
C253 C 0.49431 0.95919 0.90045 0.0
C254 C 0.55777 0.89716 0.90855 0.0
C255 C 0.5743 0.82957 0.84012 0.0
C256 C 0.56263 0.86121 0.85772 0.0
C257 C 0.52934 0.95213 0.9101 0.0
C258 C 0.54057 0.92075 0.89173 0.0
H259 H 0.6108 0.81338 0.76573 0.0
H260 H 0.59108 0.86334 0.79304 0.0
H261 H 0.58236 0.85203 0.90643 0.0
H262 H 0.56077 1.01784 0.97856 0.0
H263 H 0.58101 0.97187 0.94663 0.0
C264 C 0.32047 0.82916 0.50572 0.0
C265 C 0.31605 0.83747 0.47233 0.0
C266 C 0.292 0.78819 0.52058 0.0
C267 C 0.20561 0.66941 0.5021 0.0
H268 H 0.17957 0.66847 0.59469 0.0
C269 C 0.10372 0.50462 0.57882 0.0
C270 C 0.07807 0.505 0.60541 0.0
C271 C 0.13103 0.54354 0.56074 0.0
C272 C 0.18581 0.66765 0.5687 0.0
H273 H 0.27706 0.80733 0.4287 0.0
H274 H 0.22754 0.73675 0.45441 0.0
H275 H 0.22859 0.73736 0.56771 0.0
H276 H 0.06147 0.54722 0.63335 0.0
H277 H 0.10704 0.61359 0.60185 0.0
H278 H 0.16166 0.59943 0.50321 0.0
C279 C 0.25354 0.76169 0.46926 0.0
C280 C 0.21495 0.70771 0.55311 0.0
C281 C 0.28213 0.8027 0.45436 0.0
C282 C 0.08031 0.54531 0.61293 0.0
C283 C 0.10718 0.58385 0.59494 0.0
C284 C 0.17634 0.62915 0.51778 0.0
C285 C 0.25751 0.7535 0.50285 0.0
C286 C 0.22575 0.70974 0.51943 0.0
C287 C 0.13402 0.5843 0.56887 0.0
C288 C 0.16566 0.62733 0.55149 0.0
H289 H 0.34595 0.85458 0.52066 0.0
H290 H 0.29746 0.78382 0.54618 0.0
H291 H 0.21281 0.66862 0.47632 0.0
H292 H 0.1038 0.47459 0.57267 0.0
H293 H 0.15102 0.54188 0.54112 0.0
C294 C 0.64375 0.5649 0.80063 0.0
C295 C 0.61568 0.56364 0.77522 0.0
C296 C 0.63362 0.5268 0.81939 0.0
C297 C 0.54118 0.41504 0.84336 0.0
H298 H 0.63233 0.38469 0.85845 0.0
C299 C 0.51223 0.26365 0.92493 0.0
C300 C 0.52847 0.23641 0.91321 0.0
C301 C 0.52329 0.3041 0.90955 0.0
C302 C 0.60631 0.39246 0.85452 0.0
H303 H 0.55484 0.52077 0.75004 0.0
H304 H 0.53639 0.45563 0.78325 0.0
H305 H 0.65021 0.45385 0.83075 0.0
H306 H 0.57011 0.23213 0.87573 0.0
H307 H 0.59034 0.30287 0.84968 0.0
H308 H 0.49734 0.35393 0.86732 0.0
C309 C 0.56636 0.48577 0.78883 0.0
C310 C 0.61673 0.43259 0.83879 0.0
C311 C 0.57696 0.52337 0.76969 0.0
C312 C 0.55687 0.2518 0.88576 0.0
C313 C 0.56865 0.29272 0.87078 0.0
C314 C 0.53097 0.37541 0.85971 0.0
C315 C 0.59479 0.48633 0.8137 0.0
C316 C 0.58429 0.44455 0.83255 0.0
C317 C 0.55177 0.31958 0.88214 0.0
C318 C 0.5632 0.36298 0.86535 0.0
H319 H 0.67428 0.5949 0.80525 0.0
H320 H 0.65643 0.529 0.83832 0.0
H321 H 0.51508 0.42264 0.83927 0.0
H322 H 0.49014 0.25334 0.9458 0.0
H323 H 0.50969 0.32352 0.91942 0.0
C324 C 0.53099 0.10997 0.45065 0.0
C325 C 0.51645 0.06494 0.44648 0.0
C326 C 0.56978 0.13767 0.46828 0.0
C327 C 0.65707 0.1389 0.52498 0.0
H328 H 0.72495 0.25911 0.49466 0.0
C329 C 0.81691 0.26862 0.59452 0.0
C330 C 0.85202 0.3017 0.57625 0.0
C331 C 0.77588 0.23998 0.57973 0.0
C332 C 0.70692 0.22565 0.50353 0.0
H333 H 0.533 1.01441 0.45724 0.0
H334 H 0.60057 0.06229 0.48779 0.0
H335 H 0.65566 0.20938 0.46807 0.0
H336 H 0.86996 0.32961 0.52733 0.0
H337 H 0.79931 0.28023 0.50176 0.0
H338 H 0.70904 0.15505 0.55997 0.0
C339 C 0.58134 0.07633 0.47824 0.0
C340 C 0.66628 0.19688 0.48839 0.0
C341 C 0.5421 0.04848 0.46085 0.0
C342 C 0.8441 0.30509 0.54258 0.0
C343 C 0.80305 0.27653 0.52781 0.0
C344 C 0.69774 0.16777 0.54022 0.0
C345 C 0.59649 0.12181 0.48193 0.0
C346 C 0.64028 0.15278 0.49871 0.0
C347 C 0.76795 0.2431 0.54596 0.0
C348 C 0.72374 0.21187 0.52981 0.0
H349 H 0.51293 0.12423 0.43924 0.0
H350 H 0.57912 0.17195 0.47069 0.0
H351 H 0.63859 0.10563 0.53415 0.0
H352 H 0.82119 0.26442 0.62041 0.0
H353 H 0.75016 0.21551 0.59506 0.0
C354 C 1.01284 0.49902 0.09706 0.0
C355 C 1.02055 0.46431 0.10556 0.0
C356 C 0.98552 0.50931 0.11612 0.0
C357 C 0.88958 0.4636 0.17158 0.0
H358 H 0.92994 0.58453 0.1961 0.0
C359 C 0.77189 0.5301 0.21693 0.0
C360 C 0.78534 0.55784 0.24476 0.0
C361 C 0.79992 0.51659 0.20205 0.0
C362 C 0.91793 0.55051 0.18959 0.0
H363 H 1.00268 0.41163 0.1406 0.0
H364 H 0.95403 0.42908 0.1738 0.0
H365 H 0.97951 0.56521 0.16729 0.0
H366 H 0.84016 0.59324 0.27805 0.0
H367 H 0.88908 0.57112 0.25159 0.0
H368 H 0.82725 0.4493 0.19262 0.0
C369 C 0.97041 0.44915 0.15253 0.0
C370 C 0.94655 0.53938 0.17292 0.0
C371 C 0.99871 0.43932 0.13365 0.0
C372 C 0.82806 0.57164 0.25694 0.0
C373 C 0.85644 0.55911 0.24155 0.0
C374 C 0.86049 0.47496 0.18745 0.0
C375 C 0.96345 0.48453 0.14412 0.0
C376 C 0.93306 0.4957 0.16361 0.0
C377 C 0.84301 0.53128 0.21378 0.0
C378 C 0.8741 0.51868 0.19685 0.0
H379 H 1.02822 0.51859 0.07535 0.0
H380 H 0.98099 0.53643 0.10844 0.0
H381 H 0.87757 0.42972 0.1647 0.0
H382 H 0.73953 0.51874 0.20655 0.0
H383 H 0.78815 0.49544 0.18069 0.0
C384 C 0.33907 0.14244 1.02091 0.0
C385 C 0.35183 0.14356 0.98794 0.0
C386 C 0.31001 0.1576 0.02967 0.0
C387 C 0.27202 0.21789 0.04425 0.0
H388 H 0.18217 0.20846 0.98363 0.0
C389 C 0.19092 0.32695 0.05645 0.0
C390 C 0.14768 0.31136 0.04511 0.0
C391 C 0.21214 0.30226 0.0522 0.0
C392 C 0.20657 0.211 1.00122 0.0
H393 H 0.34278 0.16051 0.9383 0.0
H394 H 0.29315 0.18723 0.95342 0.0
H395 H 0.22338 0.17122 0.97137 0.0
H396 H 0.09234 0.25638 1.02159 0.0
H397 H 0.12858 0.21252 1.0153 0.0
H398 H 0.25443 0.25676 0.07451 0.0
C399 C 0.30479 0.17408 0.97264 0.0
C400 C 0.23087 0.19006 0.99388 0.0
C401 C 0.33362 0.15886 0.96392 0.0
C402 C 0.12565 0.26953 0.03057 0.0
C403 C 0.14673 0.24453 0.02665 0.0
C404 C 0.24744 0.23853 0.05174 0.0
C405 C 0.29294 0.17434 1.0057 0.0
C406 C 0.26451 0.19372 1.01498 0.0
C407 C 0.19067 0.26086 0.03681 0.0
C408 C 0.21473 0.23602 0.03011 0.0
H409 H 0.3526 0.13116 0.04013 0.0
H410 H 0.30131 0.15656 0.05532 0.0
H411 H 0.29781 0.22202 0.06107 0.0
H412 H 0.20927 0.3592 0.06745 0.0
H413 H 0.24608 0.31659 0.05992 0.0
C414 C 0.92413 0.18375 0.62589 0.0
C415 C 0.938 0.21624 0.6504 0.0
C416 C 0.90682 0.13941 0.63416 0.0
C417 C 0.84295 0.04743 0.65837 0.0
H418 H 0.88718 1.00694 0.72994 0.0
C419 C 0.78168 0.88269 0.74488 0.0
C420 C 0.75988 0.84955 0.7212 0.0
C421 C 0.80728 0.9268 0.73557 0.0
C422 C 0.87406 1.01762 0.71003 0.0
H423 H 0.94586 0.22728 0.70302 0.0
H424 H 0.91554 0.14979 0.71754 0.0
H425 H 0.92453 0.08485 0.71572 0.0
H426 H 0.74943 0.83719 0.66884 0.0
H427 H 0.79483 0.91396 0.6525 0.0
H428 H 0.79207 0.9806 0.65298 0.0
C429 C 0.91839 0.15872 0.69178 0.0
C430 C 0.89559 0.06246 0.70187 0.0
C431 C 0.93587 0.20328 0.68346 0.0
C432 C 0.76581 0.86167 0.68779 0.0
C433 C 0.7915 0.90592 0.67845 0.0
C434 C 0.82137 1.0027 0.66658 0.0
C435 C 0.90266 0.12601 0.66725 0.0
C436 C 0.88034 0.07808 0.67591 0.0
C437 C 0.812 0.93931 0.70224 0.0
C438 C 0.83645 0.987 0.69261 0.0
H439 H 0.92544 0.19241 0.60016 0.0
H440 H 0.89605 0.11547 0.61452 0.0
H441 H 0.82958 0.05812 0.63865 0.0
H442 H 0.77784 0.87478 0.77087 0.0
H443 H 0.82196 0.95128 0.75473 0.0
C444 C 0.88068 0.74549 0.34628 0.0
C445 C 0.86693 0.73628 0.31327 0.0
C446 C 0.92506 0.77387 0.35411 0.0
C447 C 1.03147 0.86021 0.31903 0.0
H448 H 0.08445 0.81927 0.38384 0.0
C449 C 0.21809 0.92414 0.32288 0.0
C450 C 0.23929 0.927 0.35296 0.0
C451 C 0.17254 0.90677 0.32135 0.0
C452 C 0.07021 0.83176 0.36611 0.0
H453 H 0.88887 0.75135 0.26271 0.0
H454 H 0.96567 0.80127 0.27624 0.0
H455 H 1.00505 0.77861 0.37514 0.0
H456 H 0.22882 0.9151 0.40539 0.0
H457 H 0.14905 0.88526 0.40282 0.0
H458 H 0.09646 0.91296 0.30962 0.0
C459 C 0.94237 0.78658 0.29618 0.0
C460 C 1.02453 0.80833 0.36108 0.0
C461 C 0.89823 0.75782 0.28838 0.0
C462 C 0.21371 0.91365 0.3818 0.0
C463 C 0.16784 0.89603 0.38025 0.0
C464 C 0.07702 0.8837 0.32415 0.0
C465 C 0.95666 0.7943 0.32912 0.0
C466 C 1.00462 0.82173 0.33698 0.0
C467 C 0.14648 0.89162 0.34987 0.0
C468 C 0.09729 0.86936 0.34725 0.0
H469 H 0.8576 0.72917 0.36611 0.0
H470 H 0.93475 0.77931 0.37974 0.0
H471 H 1.01728 0.87201 0.3007 0.0
H472 H 0.23655 0.93392 0.30011 0.0
H473 H 0.15758 0.90352 0.29742 0.0
C474 C 0.07468 0.35703 0.47257 0.0
C475 C 1.05316 0.3219 0.49463 0.0
C476 C 0.07758 0.34904 0.43934 0.0
C477 C 1.0162 0.27562 0.37577 0.0
H478 H 0.1244 0.33104 0.32529 0.0
C479 C 1.03294 0.33088 0.24075 0.0
C480 C 0.05539 0.31726 0.21947 0.0
C481 C 1.03066 0.32166 0.2743 0.0
C482 C 0.09405 0.31483 0.33918 0.0
H483 H 1.01871 0.25114 0.49984 0.0
H484 H 1.0223 0.23707 0.44102 0.0
H485 H 0.12748 0.3344 0.38558 0.0
H486 H 0.09222 0.28269 0.21595 0.0
H487 H 0.08969 0.26798 0.27531 0.0
H488 H 0.98269 0.25886 0.32932 0.0
C489 C 1.03748 0.27064 0.44972 0.0
C490 C 0.09582 0.31689 0.37348 0.0
C491 C 1.03551 0.27866 0.48316 0.0
C492 C 0.07466 0.29336 0.23203 0.0
C493 C 0.0733 0.28506 0.26578 0.0
C494 C 1.01441 0.2744 0.34146 0.0
C495 C 0.05826 0.30582 0.4276 0.0
C496 C 0.05688 0.298 0.39194 0.0
C497 C 1.05154 0.29945 0.28711 0.0
C498 C 1.05331 0.2947 0.32298 0.0
H499 H 0.08883 0.39064 0.481 0.0
H500 H 0.09344 0.37661 0.42258 0.0
H501 H 0.9858 0.26121 0.38962 0.0
H502 H 1.01759 0.34909 0.23148 0.0
H503 H 1.01403 0.33333 0.29044 0.0
C504 C 0.72622 0.70844 0.92017 0.0
C505 C 0.75822 0.72971 0.89563 0.0
C506 C 0.73662 0.71887 0.95322 0.0
C507 C 0.82547 0.75798 1.01204 0.0
H508 H 0.74425 0.77416 0.06722 0.0
C509 C 0.78677 0.77801 0.15724 0.0
C510 C 0.78637 0.74055 0.17003 0.0
C511 C 0.79458 0.78807 0.12381 0.0
C512 C 0.7678 0.7706 0.05214 0.0
H513 H 0.82677 0.77775 0.88706 0.0
H514 H 0.84499 0.79506 0.9452 0.0
H515 H 0.73431 0.76948 1.00777 0.0
H516 H 0.79882 0.68714 0.15876 0.0
H517 H 0.81179 0.70429 0.10038 0.0
H518 H 0.85785 0.75723 0.05668 0.0
C519 C 0.81173 0.77086 0.93845 0.0
C520 C 0.7618 0.76748 1.01816 0.0
C521 C 0.80122 0.76084 0.90523 0.0
C522 C 0.7977 0.71554 0.1494 0.0
C523 C 0.80577 0.72574 0.11604 0.0
C524 C 0.83126 0.7607 0.04616 0.0
C525 C 0.77936 0.75022 0.96266 0.0
C526 C 0.78983 0.75994 0.99792 0.0
C527 C 0.80263 0.76111 0.1027 0.0
C528 C 0.80178 0.76593 0.06657 0.0
H529 H 0.69323 0.68301 0.91423 0.0
H530 H 0.71134 0.70165 0.97154 0.0
H531 H 0.84746 0.75206 0.99689 0.0
H532 H 0.77851 0.7981 0.17264 0.0
H533 H 0.7925 0.81585 0.11419 0.0
C534 C 0.41789 0.10859 0.80188 0.0
C535 C 0.38393 0.07319 0.81914 0.0
C536 C 0.41342 0.11475 0.76844 0.0
C537 C 0.33328 0.08691 0.70123 0.0
H538 H 0.42783 0.0967 0.64589 0.0
C539 C 0.31114 0.04231 0.56377 0.0
C540 C 0.34786 0.06139 0.54291 0.0
C541 C 0.31541 0.05353 0.59706 0.0
C542 C 0.40152 0.09515 0.66084 0.0
H543 H 0.31765 1.01813 0.81482 0.0
H544 H 0.30986 1.02928 0.75651 0.0
H545 H 0.43541 0.09753 0.70529 0.0
H546 H 0.41669 0.11075 0.53954 0.0
H547 H 0.42393 0.13153 0.5974 0.0
H548 H 0.29916 0.08417 0.65676 0.0
C549 C 0.34001 0.05201 0.76897 0.0
C550 C 0.40584 0.09538 0.69498 0.0
C551 C 0.3446 0.04556 0.80237 0.0
C552 C 0.38802 0.09485 0.55525 0.0
C553 C 0.39218 0.10652 0.58845 0.0
C554 C 0.32912 0.08719 0.66701 0.0
C555 C 0.37468 0.0862 0.75156 0.0
C556 C 0.37144 0.09036 0.7155 0.0
C557 C 0.35642 0.08459 0.61009 0.0
C558 C 0.36282 0.09036 0.64635 0.0
H559 H 0.44804 0.13182 0.81399 0.0
H560 H 0.44037 0.14185 0.75571 0.0
H561 H 0.30647 0.08352 0.71654 0.0
H562 H 0.27981 1.01628 0.55498 0.0
H563 H 0.28717 0.03564 0.61288 0.0
C564 C 0.25929 0.41291 0.96997 0.0
C565 C 0.2398 0.43251 0.95099 0.0
C566 C 0.28765 0.40056 0.9555 0.0
C567 C 0.33851 0.3963 0.87605 0.0
H568 H 0.44666 0.47111 0.92288 0.0
C569 C 0.48259 0.53138 0.81439 0.0
C570 C 0.52454 0.55214 0.82868 0.0
C571 C 0.44895 0.49306 0.82799 0.0
C572 C 0.41712 0.4487 0.90965 0.0
H573 H 0.23194 0.45073 0.9015 0.0
H574 H 0.28255 0.4306 0.87648 0.0
H575 H 0.37749 0.44233 0.95122 0.0
H576 H 0.56565 0.5465 0.86618 0.0
H577 H 0.50645 0.4792 0.89026 0.0
H578 H 0.37845 0.40543 0.83377 0.0
C579 C 0.27526 0.424 0.90244 0.0
C580 C 0.37712 0.43215 0.92603 0.0
C581 C 0.24677 0.43626 0.91687 0.0
C582 C 0.53321 0.53183 0.85525 0.0
C583 C 0.49941 0.49318 0.86888 0.0
C584 C 0.37866 0.41243 0.85973 0.0
C585 C 0.29755 0.40795 0.92189 0.0
C586 C 0.33741 0.40893 0.90864 0.0
C587 C 0.45642 0.4744 0.85622 0.0
C588 C 0.41804 0.44212 0.87563 0.0
H589 H 0.25547 0.40981 0.99639 0.0
H590 H 0.30426 0.38815 0.97105 0.0
H591 H 0.30832 0.37746 0.86233 0.0
H592 H 0.47504 0.5457 0.79346 0.0
H593 H 0.41632 0.48015 0.81769 0.0
C594 C 0.51671 1.02781 0.55563 0.0
C595 C 0.47147 0.99947 0.56001 0.0
C596 C 0.54687 1.02735 0.57796 0.0
C597 C 0.55303 0.96837 0.65345 0.0
H598 H 0.62128 0.93792 0.59498 0.0
C599 C 0.54681 0.80502 0.65464 0.0
C600 C 0.58543 0.80248 0.65242 0.0
C601 C 0.54856 0.84554 0.65262 0.0
C602 C 0.60354 0.94729 0.61197 0.0
H603 H 0.42192 0.95367 0.59364 0.0
H604 H 0.47376 0.9517 0.63181 0.0
H605 H 0.59715 0.98827 0.57627 0.0
H606 H 0.65613 0.83987 0.64568 0.0
H607 H 0.65879 0.91099 0.64057 0.0
H608 H 0.55532 0.92286 0.68759 0.0
C609 C 0.48666 0.97452 0.61141 0.0
C610 C 0.58979 0.97645 0.60136 0.0
C611 C 0.45666 0.97518 0.58921 0.0
C612 C 0.62587 0.8411 0.64755 0.0
C613 C 0.62751 0.88165 0.64486 0.0
C614 C 0.56618 0.93863 0.66383 0.0
C615 C 0.53209 0.99833 0.60489 0.0
C616 C 0.56139 0.98448 0.62101 0.0
C617 C 0.58888 0.88414 0.64777 0.0
C618 C 0.5889 0.9257 0.64221 0.0
H619 H 0.52886 0.04824 0.53396 0.0
H620 H 0.58164 0.04705 0.57274 0.0
H621 H 0.53241 0.97505 0.66957 0.0
H622 H 0.51536 0.77578 0.65871 0.0
H623 H 0.51819 0.84661 0.65412 0.0
C624 C 0.08637 0.54049 0.20617 0.0
C625 C 0.08752 0.54299 0.17184 0.0
C626 C 0.0835 0.57251 0.22458 0.0
C627 C 0.11847 0.68929 0.20962 0.0
H628 H 0.1304 0.68548 0.30401 0.0
C629 C 0.27822 0.80222 0.26987 0.0
C630 C 0.28153 0.81322 0.30327 0.0
C631 C 0.23738 0.77483 0.25572 0.0
C632 C 0.12663 0.68778 0.27777 0.0
H633 H 0.07928 0.57595 0.12956 0.0
H634 H 0.06937 0.62872 0.1614 0.0
H635 H 0.07531 0.62112 0.27565 0.0
H636 H 0.24362 0.80201 0.34837 0.0
H637 H 0.17278 0.75665 0.32324 0.0
H638 H 0.16885 0.75635 0.21195 0.0
C639 C 0.07453 0.60475 0.17452 0.0
C640 C 0.09538 0.65036 0.2613 0.0
C641 C 0.07969 0.57411 0.15614 0.0
C642 C 0.24278 0.79577 0.32228 0.0
C643 C 0.20182 0.76907 0.30796 0.0
C644 C 0.14843 0.72705 0.22619 0.0
C645 C 0.08047 0.60697 0.20887 0.0
C646 C 0.09474 0.64917 0.22667 0.0
C647 C 0.19859 0.75806 0.27453 0.0
C648 C 0.1561 0.72521 0.25986 0.0
H649 H 0.09163 0.5162 0.21881 0.0
H650 H 0.08794 0.57208 0.25086 0.0
H651 H 0.11842 0.69118 0.18309 0.0
H652 H 0.3072 0.8149 0.25447 0.0
H653 H 0.23654 0.76593 0.23014 0.0
C654 C 0.532 0.30435 0.07957 0.0
C655 C 0.49797 0.26207 0.07227 0.0
C656 C 0.52304 0.33848 0.08423 0.0
C657 C 0.44144 0.36096 0.11607 0.0
H658 H 0.53376 0.47748 0.09243 0.0
C659 C 0.56841 0.53909 0.1725 0.0
C660 C 0.5743 0.51915 0.20061 0.0
C661 C 0.53416 0.51441 0.15054 0.0
C662 C 0.50637 0.44565 0.09873 0.0
H663 H 0.42745 0.22185 0.06502 0.0
H664 H 0.41174 0.28187 0.07403 0.0
H665 H 0.52257 0.41538 0.05973 0.0
H666 H 0.54518 0.46023 0.23057 0.0
H667 H 0.48744 0.41701 0.19223 0.0
H668 H 0.42708 0.39096 0.15636 0.0
C669 C 0.44543 0.28858 0.07527 0.0
C670 C 0.50035 0.40985 0.08001 0.0
C671 C 0.4545 0.25436 0.07021 0.0
C672 C 0.54245 0.47604 0.20846 0.0
C673 C 0.50851 0.45143 0.18659 0.0
C674 C 0.44699 0.39695 0.13454 0.0
C675 C 0.47975 0.33105 0.08202 0.0
C676 C 0.47117 0.36706 0.09076 0.0
C677 C 0.50578 0.46935 0.15621 0.0
C678 C 0.48315 0.43887 0.12839 0.0
H679 H 0.56574 0.31126 0.08117 0.0
H680 H 0.55005 0.37062 0.09044 0.0
H681 H 0.41779 0.32827 0.12437 0.0
H682 H 0.59165 0.5729 0.16647 0.0
H683 H 0.53222 0.52964 0.12786 0.0
C684 C 0.86548 0.22929 0.75714 0.0
C685 C 0.85264 0.26164 0.75642 0.0
C686 C 0.83622 0.18673 0.76798 0.0
C687 C 0.71905 0.11162 0.776 0.0
H688 H 0.74035 0.07653 0.86137 0.0
C689 C 0.63823 0.09372 0.89968 0.0
C690 C 0.59505 0.07658 0.88825 0.0
C691 C 0.66848 0.08723 0.88189 0.0
C692 C 0.73387 0.08508 0.83718 0.0
H693 H 0.80013 0.27541 0.76743 0.0
H694 H 0.74922 0.20138 0.78638 0.0
H695 H 0.80222 0.12991 0.82861 0.0
H696 H 0.54754 1.03311 0.85241 0.0
H697 H 0.60021 1.0208 0.82163 0.0
H698 H 0.65102 0.07212 0.78576 0.0
C699 C 0.78158 0.20875 0.77809 0.0
C700 C 0.7694 0.11537 0.81836 0.0
C701 C 0.81085 0.25121 0.76775 0.0
C702 C 0.58114 0.04809 0.8611 0.0
C703 C 0.61129 0.04085 0.84359 0.0
C704 C 0.68364 0.0819 0.79489 0.0
C705 C 0.79371 0.17603 0.7777 0.0
C706 C 0.7616 0.13174 0.78915 0.0
C707 C 0.65609 0.06317 0.85231 0.0
C708 C 0.69055 0.07225 0.82727 0.0
H709 H 0.89791 0.23678 0.74901 0.0
H710 H 0.84639 0.16211 0.76815 0.0
H711 H 0.71259 0.12319 0.75304 0.0
H712 H 0.64963 0.1148 0.9211 0.0
H713 H 0.70243 0.10501 0.88978 0.0
C714 C 0.99732 0.54194 0.55385 0.0
C715 C 1.01209 0.51431 0.54123 0.0
C716 C 1.0058 0.57999 0.53718 0.0
C717 C 1.01952 0.65683 0.49772 0.0
H718 H 0.97356 0.60966 0.41148 0.0
C719 C 0.88337 0.63937 0.39494 0.0
C720 C 0.84811 0.62397 0.41737 0.0
C721 C 0.92598 0.65305 0.40597 0.0
C722 C 0.98756 0.62457 0.43498 0.0
H723 H 1.05215 0.50755 0.50356 0.0
H724 H 0.0668 0.57433 0.47398 0.0
H725 H 1.0158 0.58343 0.44097 0.0
H726 H 0.83064 0.61411 0.469 0.0
H727 H 0.90477 0.63692 0.4882 0.0
H728 H 0.986 0.69382 0.493 0.0
C729 C 1.04786 0.56602 0.4965 0.0
C730 C 1.01213 0.60953 0.45202 0.0
C731 C 1.03919 0.52763 0.51326 0.0
C732 C 0.85697 0.62536 0.45114 0.0
C733 C 0.89963 0.63918 0.46215 0.0
C734 C 0.99427 0.67136 0.48085 0.0
C735 C 1.02927 0.59141 0.50737 0.0
C736 C 1.02456 0.62229 0.48484 0.0
C737 C 0.93421 0.65146 0.43956 0.0
C738 C 0.97498 0.65239 0.45057 0.0
H739 H 0.97736 0.53324 0.57587 0.0
H740 H 0.99053 0.59821 0.54639 0.0
H741 H 1.03032 0.66868 0.52248 0.0
H742 H 0.87796 0.6383 0.36867 0.0
H743 H 0.95198 0.66218 0.38806 0.0
C744 C 1.01856 0.38769 0.72852 0.0
C745 C 1.03458 0.42821 0.71203 0.0
C746 C 1.02196 0.38599 0.76332 0.0
C747 C 1.05059 0.46062 0.83851 0.0
H748 H 0.05513 0.36624 0.88465 0.0
C749 C 1.05303 0.46157 0.98004 0.0
C750 C 0.07117 0.44047 0.99869 0.0
C751 C 1.04869 0.45725 0.94584 0.0
C752 C 0.05463 0.39335 0.87227 0.0
H753 H 0.06894 0.49866 0.72 0.0
H754 H 0.07778 0.49603 0.77803 0.0
H755 H 1.04669 0.36313 0.82473 0.0
H756 H 0.09786 0.39675 0.99473 0.0
H757 H 0.09385 0.3918 0.9343 0.0
H758 H 0.06182 0.49274 0.88464 0.0
C759 C 0.05978 0.46498 0.76539 0.0
C760 C 1.04897 0.39118 0.8376 0.0
C761 C 0.05526 0.46654 0.73132 0.0
C762 C 0.08506 0.41465 0.9814 0.0
C763 C 0.08186 0.41121 0.94655 0.0
C764 C 0.05744 0.46336 0.87259 0.0
C765 C 1.04263 0.42485 0.78253 0.0
C766 C 1.04694 0.42498 0.81991 0.0
C767 C 0.06342 0.43251 0.92798 0.0
C768 C 0.05893 0.42961 0.89058 0.0
H769 H 1.00397 0.35744 0.71462 0.0
H770 H 1.00827 0.35417 0.77504 0.0
H771 H 1.04797 0.48704 0.82693 0.0
H772 H 1.04104 0.4812 0.99203 0.0
H773 H 1.03254 0.47291 0.93369 0.0
C774 C 0.63538 0.59989 0.64922 0.0
C775 C 0.64615 0.6381 0.66752 0.0
C776 C 0.64034 0.60073 0.6151 0.0
C777 C 0.68941 0.67284 0.54022 0.0
H778 H 0.60731 0.56417 0.49741 0.0
C779 C 0.69798 0.64043 0.39711 0.0
C780 C 0.65792 0.61189 0.38133 0.0
C781 C 0.69987 0.64653 0.4318 0.0
C782 C 0.63033 0.59532 0.50834 0.0
H783 H 0.6731 0.70832 0.66274 0.0
H784 H 0.6791 0.70956 0.60214 0.0
H785 H 0.60168 0.57196 0.5554 0.0
H786 H 0.58837 0.56905 0.39031 0.0
H787 H 0.59101 0.58118 0.44847 0.0
H788 H 0.71612 0.69674 0.49189 0.0
C789 C 0.66709 0.67859 0.6149 0.0
C790 C 0.62771 0.5995 0.54243 0.0
C791 C 0.66294 0.67787 0.6498 0.0
C792 C 0.62013 0.59074 0.40119 0.0
C793 C 0.62178 0.59739 0.43521 0.0
C794 C 0.6915 0.66893 0.50557 0.0
C795 C 0.65531 0.63967 0.59683 0.0
C796 C 0.65748 0.63796 0.55942 0.0
C797 C 0.66159 0.62492 0.45159 0.0
C798 C 0.66179 0.62996 0.48888 0.0
H799 H 0.62305 0.56838 0.66126 0.0
H800 H 0.6326 0.57016 0.60317 0.0
H801 H 0.71325 0.70304 0.55194 0.0
H802 H 0.72762 0.6585 0.38271 0.0
H803 H 0.73137 0.66808 0.44302 0.0
C804 C 0.44828 0.07492 0.06689 0.0
C805 C 0.47023 0.05486 0.05189 0.0
C806 C 0.4417 0.07261 0.10151 0.0
C807 C 0.42783 1.00268 0.17397 0.0
H808 H 0.47679 0.10657 0.22873 0.0
C809 C 0.40868 0.99892 0.31927 0.0
C810 C 0.44836 1.02266 0.33645 0.0
C811 C 0.40653 1.00221 0.28461 0.0
C812 C 0.46253 0.07713 0.21383 0.0
H813 H 0.50111 1.01548 0.06263 0.0
H814 H 0.48786 1.00996 0.12136 0.0
H815 H 0.48063 0.11405 0.16848 0.0
H816 H 0.51739 0.07064 0.32967 0.0
H817 H 0.51346 0.07778 0.27043 0.0
H818 H 0.40978 0.96572 0.21922 0.0
C819 C 0.47655 1.02831 0.10671 0.0
C820 C 0.46453 0.08148 0.1792 0.0
C821 C 0.48417 1.03166 0.07267 0.0
C822 C 0.48585 0.0512 0.31779 0.0
C823 C 0.48369 0.05555 0.28351 0.0
C824 C 0.42481 0.99829 0.20855 0.0
C825 C 0.45531 0.04868 0.12186 0.0
C826 C 0.44801 0.04433 0.15868 0.0
C827 C 0.44411 1.03101 0.26617 0.0
C828 C 0.44296 0.03546 0.22914 0.0
H829 H 0.43558 0.09173 0.05198 0.0
H830 H 0.42495 0.08857 0.11225 0.0
H831 H 0.41484 0.97328 0.15907 0.0
H832 H 0.37954 0.97825 0.33296 0.0
H833 H 0.37525 0.98291 0.27233 0.0
loop_
_geom_bond_atom_site_label_1
_geom_bond_atom_site_label_2
_geom_bond_distance
_geom_bond_site_symmetry_2
_ccdc_geom_bond_type
Zn0 N4 2.020 . S
Zn0 O8 2.019 . S
Zn0 N10 2.119 . S
Zn0 O18 1.975 . S
C1 N2 1.334 . S
C1 N5 1.336 . S
N2 C1 1.334 . S
N2 C3 1.334 . S
C3 N2 1.334 . S
C3 N4 1.336 . S
N4 Zn0 2.020 . S
N4 C3 1.336 . S
N4 N5 1.354 . S
N5 C1 1.336 . S
N5 N4 1.354 . S
N5 Zn9 2.020 . S
C6 O7 1.244 . S
C6 O30 1.257 . S
O7 C6 1.244 . S
O8 Zn0 2.019 . S
O8 C28 1.257 . S
Zn9 N5 2.020 . S
Zn9 O16 1.975 . S
Zn9 N25 2.119 . S
Zn9 O30 2.019 . S
N10 Zn0 2.119 . S
N10 C12 1.334 . S
N10 C13 1.328 . S
C11 C12 1.391 . S
C11 N14 1.329 . S
C11 H32 0.930 . S
C12 N10 1.334 . S
C12 C11 1.391 . S
C12 H19 0.930 . S
C13 N10 1.328 . S
C13 C15 1.392 . S
C13 H20 0.930 . S
N14 C11 1.329 . S
N14 C15 1.331 . S
C15 C13 1.392 . S
C15 N14 1.331 . S
O16 Zn9 1.975 . S
O16 C17 1.252 . S
C17 O16 1.252 . S
C17 O18 1.252 . S
O18 Zn0 1.975 . S
O18 C17 1.252 . S
H19 C12 0.930 . S
H20 C13 0.930 . S
C21 C22 1.392 1_554 S
C21 N25 1.328 . S
C21 H27 0.930 1_554 S
C22 C21 1.392 1_556 S
C22 N26 1.318 1_556 S
C23 C24 1.391 . S
C23 N26 1.360 . S
C23 H33 0.930 . S
C24 C23 1.391 . S
C24 N25 1.334 . S
C24 H31 0.930 . S
N25 Zn9 2.119 . S
N25 C21 1.328 . S
N25 C24 1.334 . S
N26 C22 1.318 1_554 S
N26 C23 1.360 . S
H27 C21 0.930 1_556 S
C28 O8 1.257 . S
C28 O29 1.244 . S
O29 C28 1.244 . S
O30 C6 1.257 . S
O30 Zn9 2.019 . S
H31 C24 0.930 . S
H32 C11 0.930 . S
H33 C23 0.930 . S
Zn34 N38 2.020 . S
Zn34 O42 2.019 . S
Zn34 N44 2.119 . S
Zn34 O52 1.975 . S
C35 N36 1.334 . S
C35 N39 1.336 . S
N36 C35 1.334 . S
N36 C37 1.334 . S
C37 N36 1.334 . S
C37 N38 1.336 . S
N38 Zn34 2.020 . S
N38 C37 1.336 . S
N38 N39 1.354 . S
N39 C35 1.336 . S
N39 N38 1.354 . S
N39 Zn43 2.020 . S
C40 O41 1.244 . S
C40 O64 1.257 . S
O41 C40 1.244 . S
O42 Zn34 2.019 . S
O42 C62 1.257 . S
Zn43 N39 2.020 . S
Zn43 O50 1.975 . S
Zn43 N59 2.119 . S
Zn43 O64 2.019 . S
N44 Zn34 2.119 . S
N44 C46 1.334 . S
N44 C47 1.328 . S
C45 C46 1.391 . S
C45 N48 1.329 . S
C45 H66 0.930 . S
C46 N44 1.334 . S
C46 C45 1.391 . S
C46 H53 0.930 . S
C47 N44 1.328 . S
C47 C49 1.392 . S
C47 H54 0.930 . S
N48 C45 1.329 . S
N48 C49 1.331 . S
C49 C47 1.392 . S
C49 N48 1.331 . S
O50 Zn43 1.975 . S
O50 C51 1.252 . S
C51 O50 1.252 . S
C51 O52 1.252 . S
O52 Zn34 1.975 . S
O52 C51 1.252 . S
H53 C46 0.930 . S
H54 C47 0.930 . S
C55 C56 1.392 . S
C55 N59 1.328 . S
C55 H61 0.930 . S
C56 C55 1.392 . S
C56 N60 1.331 . S
C57 C58 1.391 . S
C57 N60 1.329 . S
C57 H67 0.930 . S
C58 C57 1.391 . S
C58 N59 1.334 . S
C58 H65 0.930 . S
N59 Zn43 2.119 . S
N59 C55 1.328 . S
N59 C58 1.334 . S
N60 C56 1.331 . S
N60 C57 1.329 . S
H61 C55 0.930 . S
C62 O42 1.257 . S
C62 O63 1.244 . S
O63 C62 1.244 . S
O64 C40 1.257 . S
O64 Zn43 2.019 . S
H65 C58 0.930 . S
H66 C45 0.930 . S
H67 C57 0.930 . S
Zn68 N72 2.020 . S
Zn68 O76 2.019 . S
Zn68 N78 2.119 . S
Zn68 O86 1.975 . S
C69 N70 1.334 . S
C69 N73 1.336 . S
N70 C69 1.334 . S
N70 C71 1.334 . S
C71 N70 1.334 . S
C71 N72 1.336 . S
N72 Zn68 2.020 . S
N72 C71 1.336 . S
N72 N73 1.354 . S
N73 C69 1.336 . S
N73 N72 1.354 . S
N73 Zn77 2.020 . S
C74 O75 1.244 . S
C74 O98 1.257 . S
O75 C74 1.244 . S
O76 Zn68 2.019 . S
O76 C96 1.257 . S
Zn77 N73 2.020 . S
Zn77 O84 1.975 . S
Zn77 N93 2.119 . S
Zn77 O98 2.019 . S
N78 Zn68 2.119 . S
N78 C80 1.334 . S
N78 C81 1.328 . S
C79 C80 1.391 . S
C79 N82 1.329 . S
C79 H100 0.930 . S
C80 N78 1.334 . S
C80 C79 1.391 . S
C80 H87 0.930 . S
C81 N78 1.328 . S
C81 C83 1.392 . S
C81 H88 0.930 . S
N82 C79 1.329 . S
N82 C83 1.331 . S
C83 C81 1.392 . S
C83 N82 1.331 . S
O84 Zn77 1.975 . S
O84 C85 1.252 . S
C85 O84 1.252 . S
C85 O86 1.252 . S
O86 Zn68 1.975 . S
O86 C85 1.252 . S
H87 C80 0.930 . S
H88 C81 0.930 . S
C89 C90 1.392 . S
C89 N93 1.328 . S
C89 H95 0.930 . S
C90 C89 1.392 . S
C90 N94 1.331 . S
C91 C92 1.391 . S
C91 N94 1.329 . S
C91 H101 0.930 . S
C92 C91 1.391 . S
C92 N93 1.334 . S
C92 H99 0.930 . S
N93 Zn77 2.119 . S
N93 C89 1.328 . S
N93 C92 1.334 . S
N94 C90 1.331 . S
N94 C91 1.329 . S
H95 C89 0.930 . S
C96 O76 1.257 . S
C96 O97 1.244 . S
O97 C96 1.244 . S
O98 C74 1.257 . S
O98 Zn77 2.019 . S
H99 C92 0.930 . S
H100 C79 0.930 . S
H101 C91 0.930 . S
Zn102 N106 2.020 . S
Zn102 O110 2.019 . S
Zn102 N112 2.119 . S
Zn102 O120 1.975 . S
C103 N104 1.334 . S
C103 N107 1.336 . S
N104 C103 1.334 . S
N104 C105 1.334 . S
C105 N104 1.334 . S
C105 N106 1.336 . S
N106 Zn102 2.020 . S
N106 C105 1.336 . S
N106 N107 1.354 . S
N107 C103 1.336 . S
N107 N106 1.354 . S
N107 Zn111 2.020 . S
C108 O109 1.244 . S
C108 O132 1.257 . S
O109 C108 1.244 . S
O110 Zn102 2.019 . S
O110 C130 1.257 . S
Zn111 N107 2.020 . S
Zn111 O118 1.975 . S
Zn111 N127 2.119 . S
Zn111 O132 2.019 . S
N112 Zn102 2.119 . S
N112 C114 1.334 . S
N112 C115 1.328 . S
C113 C114 1.391 . S
C113 N116 1.360 . S
C113 H134 0.930 . S
C114 N112 1.334 . S
C114 C113 1.391 . S
C114 H121 0.930 . S
C115 N112 1.328 . S
C115 C117 1.392 1_556 S
C115 H122 0.930 1_556 S
N116 C113 1.360 . S
N116 C117 1.318 1_556 S
C117 C115 1.392 1_554 S
C117 N116 1.318 1_554 S
O118 Zn111 1.975 . S
O118 C119 1.252 . S
C119 O118 1.252 . S
C119 O120 1.252 . S
O120 Zn102 1.975 . S
O120 C119 1.252 . S
H121 C114 0.930 . S
H122 C115 0.930 1_554 S
C123 C124 1.392 . S
C123 N127 1.328 . S
C123 H129 0.930 . S
C124 C123 1.392 . S
C124 N128 1.331 . S
C125 C126 1.391 . S
C125 N128 1.329 . S
C125 H135 0.930 . S
C126 C125 1.391 . S
C126 N127 1.334 . S
C126 H133 0.930 . S
N127 Zn111 2.119 . S
N127 C123 1.328 . S
N127 C126 1.334 . S
N128 C124 1.331 . S
N128 C125 1.329 . S
H129 C123 0.930 . S
C130 O110 1.257 . S
C130 O131 1.244 . S
O131 C130 1.244 . S
O132 C108 1.257 . S
O132 Zn111 2.019 . S
H133 C126 0.930 . S
H134 C113 0.930 . S
H135 C125 0.930 . S
Zn136 N140 2.020 . S
Zn136 O144 2.019 . S
Zn136 N146 2.119 . S
Zn136 O154 1.975 . S
C137 N138 1.334 . S
C137 N141 1.336 . S
N138 C137 1.334 . S
N138 C139 1.334 . S
C139 N138 1.334 . S
C139 N140 1.336 . S
N140 Zn136 2.020 . S
N140 C139 1.336 . S
N140 N141 1.354 . S
N141 C137 1.336 . S
N141 N140 1.354 . S
N141 Zn145 2.020 . S
C142 O143 1.244 . S
C142 O166 1.257 . S
O143 C142 1.244 . S
O144 Zn136 2.019 . S
O144 C164 1.257 . S
Zn145 N141 2.020 . S
Zn145 O152 1.975 . S
Zn145 N161 2.119 . S
Zn145 O166 2.019 . S
N146 Zn136 2.119 . S
N146 C148 1.334 . S
N146 C149 1.328 . S
C147 C148 1.391 . S
C147 N150 1.329 . S
C147 H168 0.930 . S
C148 N146 1.334 . S
C148 C147 1.391 . S
C148 H155 0.930 . S
C149 N146 1.328 . S
C149 C151 1.392 . S
C149 H156 0.930 . S
N150 C147 1.329 . S
N150 C151 1.331 . S
C151 C149 1.392 . S
C151 N150 1.331 . S
O152 Zn145 1.975 . S
O152 C153 1.252 . S
C153 O152 1.252 . S
C153 O154 1.252 . S
O154 Zn136 1.975 . S
O154 C153 1.252 . S
H155 C148 0.930 . S
H156 C149 0.930 . S
C157 C158 1.392 . S
C157 N161 1.328 . S
C157 H163 0.930 . S
C158 C157 1.392 . S
C158 N162 1.331 . S
C159 C160 1.391 . S
C159 N162 1.329 . S
C159 H169 0.930 . S
C160 C159 1.391 . S
C160 N161 1.334 . S
C160 H167 0.930 . S
N161 Zn145 2.119 . S
N161 C157 1.328 . S
N161 C160 1.334 . S
N162 C158 1.331 . S
N162 C159 1.329 . S
H163 C157 0.930 . S
C164 O144 1.257 . S
C164 O165 1.244 . S
O165 C164 1.244 . S
O166 C142 1.257 . S
O166 Zn145 2.019 . S
H167 C160 0.930 . S
H168 C147 0.930 . S
H169 C159 0.930 . S
Zn170 N174 2.020 . S
Zn170 O178 2.019 . S
Zn170 N180 2.119 . S
Zn170 O188 1.975 . S
C171 N172 1.334 . S
C171 N175 1.336 . S
N172 C171 1.334 . S
N172 C173 1.334 . S
C173 N172 1.334 . S
C173 N174 1.336 . S
N174 Zn170 2.020 . S
N174 C173 1.336 . S
N174 N175 1.354 . S
N175 C171 1.336 . S
N175 N174 1.354 . S
N175 Zn179 2.020 . S
C176 O177 1.244 . S
C176 O200 1.257 . S
O177 C176 1.244 . S
O178 Zn170 2.019 . S
O178 C198 1.257 . S
Zn179 N175 2.020 . S
Zn179 O186 1.975 . S
Zn179 N195 2.119 . S
Zn179 O200 2.019 . S
N180 Zn170 2.119 . S
N180 C182 1.334 . S
N180 C183 1.328 . S
C181 C182 1.391 . S
C181 N184 1.329 . S
C181 H202 0.930 . S
C182 N180 1.334 . S
C182 C181 1.391 . S
C182 H189 0.930 . S
C183 N180 1.328 . S
C183 C185 1.392 . S
C183 H190 0.930 . S
N184 C181 1.329 . S
N184 C185 1.331 . S
C185 C183 1.392 . S
C185 N184 1.331 . S
O186 Zn179 1.975 . S
O186 C187 1.252 . S
C187 O186 1.252 . S
C187 O188 1.252 . S
O188 Zn170 1.975 . S
O188 C187 1.252 . S
H189 C182 0.930 . S
H190 C183 0.930 . S
C191 C192 1.392 . S
C191 N195 1.328 . S
C191 H197 0.930 . S
C192 C191 1.392 . S
C192 N196 1.331 . S
C193 C194 1.391 . S
C193 N196 1.329 . S
C193 H203 0.930 . S
C194 C193 1.391 . S
C194 N195 1.334 . S
C194 H201 0.930 . S
N195 Zn179 2.119 . S
N195 C191 1.328 . S
N195 C194 1.334 . S
N196 C192 1.331 . S
N196 C193 1.329 . S
H197 C191 0.930 . S
C198 O178 1.257 . S
C198 O199 1.244 . S
O199 C198 1.244 . S
O200 C176 1.257 . S
O200 Zn179 2.019 . S
H201 C194 0.930 . S
H202 C181 0.930 . S
H203 C193 0.930 . S
C204 C205 1.349 . S
C204 C206 1.327 . S
C204 H229 0.950 . S
C205 C204 1.349 . S
C205 C221 1.349 . S
C206 C204 1.327 . S
C206 C225 1.429 . S
C206 H230 0.950 . S
C207 C224 1.574 . S
C207 C226 1.368 . S
C207 H231 0.949 . S
H208 C212 0.949 . S
C209 C210 1.349 . S
C209 C211 1.327 . S
C209 H232 0.950 . S
C210 C209 1.349 . S
C210 C222 1.349 . S
C211 C209 1.327 . S
C211 C227 1.429 . S
C211 H233 0.950 . S
C212 H208 0.949 . S
C212 C220 1.574 . S
C212 C228 1.368 . S
H213 C221 0.950 . S
H214 C219 0.950 . S
H215 C220 0.949 . S
H216 C222 0.950 . S
H217 C223 0.950 . S
H218 C224 0.949 . S
C219 H214 0.950 . S
C219 C221 1.327 . S
C219 C225 1.429 . S
C220 C212 1.574 . S
C220 H215 0.949 . S
C220 C226 1.368 . S
C221 C205 1.349 . S
C221 H213 0.950 . S
C221 C219 1.327 . S
C222 C210 1.349 . S
C222 H216 0.950 . S
C222 C223 1.327 . S
C223 H217 0.950 . S
C223 C222 1.327 . S
C223 C227 1.429 . S
C224 C207 1.574 . S
C224 H218 0.949 . S
C224 C228 1.368 . S
C225 C206 1.429 . S
C225 C219 1.429 . S
C225 C226 1.523 . S
C226 C207 1.368 . S
C226 C220 1.368 . S
C226 C225 1.523 . S
C227 C211 1.429 . S
C227 C223 1.429 . S
C227 C228 1.523 . S
C228 C212 1.368 . S
C228 C224 1.368 . S
C228 C227 1.523 . S
H229 C204 0.950 . S
H230 C206 0.950 . S
H231 C207 0.949 . S
H232 C209 0.950 . S
H233 C211 0.950 . S
C234 C235 1.349 . S
C234 C236 1.327 . S
C234 H259 0.950 . S
C235 C234 1.349 . S
C235 C251 1.349 . S
C236 C234 1.327 . S
C236 C255 1.429 . S
C236 H260 0.950 . S
C237 C254 1.574 . S
C237 C256 1.368 . S
C237 H261 0.949 . S
H238 C242 0.949 . S
C239 C240 1.349 . S
C239 C241 1.327 . S
C239 H262 0.950 . S
C240 C239 1.349 . S
C240 C252 1.349 1_545 S
C241 C239 1.327 . S
C241 C257 1.429 1_545 S
C241 H263 0.950 . S
C242 H238 0.949 . S
C242 C250 1.574 . S
C242 C258 1.368 . S
H243 C251 0.950 . S
H244 C249 0.950 . S
H245 C250 0.949 . S
H246 C252 0.950 . S
H247 C253 0.950 . S
H248 C254 0.949 . S
C249 H244 0.950 . S
C249 C251 1.327 . S
C249 C255 1.429 . S
C250 C242 1.574 . S
C250 H245 0.949 . S
C250 C256 1.368 . S
C251 C235 1.349 . S
C251 H243 0.950 . S
C251 C249 1.327 . S
C252 C240 1.349 1_565 S
C252 H246 0.950 . S
C252 C253 1.327 . S
C253 H247 0.950 . S
C253 C252 1.327 . S
C253 C257 1.429 . S
C254 C237 1.574 . S
C254 H248 0.949 . S
C254 C258 1.368 . S
C255 C236 1.429 . S
C255 C249 1.429 . S
C255 C256 1.523 . S
C256 C237 1.368 . S
C256 C250 1.368 . S
C256 C255 1.523 . S
C257 C241 1.429 1_565 S
C257 C253 1.429 . S
C257 C258 1.523 . S
C258 C242 1.368 . S
C258 C254 1.368 . S
C258 C257 1.523 . S
H259 C234 0.950 . S
H260 C236 0.950 . S
H261 C237 0.949 . S
H262 C239 0.950 . S
H263 C241 0.950 . S
C264 C265 1.349 . S
C264 C266 1.327 . S
C264 H289 0.950 . S
C265 C264 1.349 . S
C265 C281 1.349 . S
C266 C264 1.327 . S
C266 C285 1.429 . S
C266 H290 0.950 . S
C267 C284 1.574 . S
C267 C286 1.368 . S
C267 H291 0.949 . S
H268 C272 0.949 . S
C269 C270 1.349 . S
C269 C271 1.327 1_655 S
C269 H292 0.950 . S
C270 C269 1.349 . S
C270 C282 1.349 . S
C271 C269 1.327 1_455 S
C271 C287 1.429 . S
C271 H293 0.950 . S
C272 H268 0.949 . S
C272 C280 1.574 . S
C272 C288 1.368 . S
H273 C281 0.950 . S
H274 C279 0.950 . S
H275 C280 0.949 . S
H276 C282 0.950 . S
H277 C283 0.950 . S
H278 C284 0.949 . S
C279 H274 0.950 . S
C279 C281 1.327 . S
C279 C285 1.429 . S
C280 C272 1.574 . S
C280 H275 0.949 . S
C280 C286 1.368 . S
C281 C265 1.349 . S
C281 H273 0.950 . S
C281 C279 1.327 . S
C282 C270 1.349 . S
C282 H276 0.950 . S
C282 C283 1.327 1_655 S
C283 H277 0.950 . S
C283 C282 1.327 1_455 S
C283 C287 1.429 . S
C284 C267 1.574 . S
C284 H278 0.949 . S
C284 C288 1.368 . S
C285 C266 1.429 . S
C285 C279 1.429 . S
C285 C286 1.523 . S
C286 C267 1.368 . S
C286 C280 1.368 . S
C286 C285 1.523 . S
C287 C271 1.429 . S
C287 C283 1.429 . S
C287 C288 1.523 . S
C288 C272 1.368 . S
C288 C284 1.368 . S
C288 C287 1.523 . S
H289 C264 0.950 . S
H290 C266 0.950 . S
H291 C267 0.949 . S
H292 C269 0.950 . S
H293 C271 0.950 . S
C294 C295 1.349 . S
C294 C296 1.327 . S
C294 H319 0.950 . S
C295 C294 1.349 . S
C295 C311 1.349 . S
C296 C294 1.327 . S
C296 C315 1.429 . S
C296 H320 0.950 . S
C297 C314 1.574 . S
C297 C316 1.368 . S
C297 H321 0.949 . S
H298 C302 0.949 . S
C299 C300 1.349 . S
C299 C301 1.327 . S
C299 H322 0.950 . S
C300 C299 1.349 . S
C300 C312 1.349 . S
C301 C299 1.327 . S
C301 C317 1.429 . S
C301 H323 0.950 . S
C302 H298 0.949 . S
C302 C310 1.574 . S
C302 C318 1.368 . S
H303 C311 0.950 . S
H304 C309 0.950 . S
H305 C310 0.949 . S
H306 C312 0.950 . S
H307 C313 0.950 . S
H308 C314 0.949 . S
C309 H304 0.950 . S
C309 C311 1.327 . S
C309 C315 1.429 . S
C310 C302 1.574 . S
C310 H305 0.949 . S
C310 C316 1.368 . S
C311 C295 1.349 . S
C311 H303 0.950 . S
C311 C309 1.327 . S
C312 C300 1.349 . S
C312 H306 0.950 . S
C312 C313 1.327 . S
C313 H307 0.950 . S
C313 C312 1.327 . S
C313 C317 1.429 . S
C314 C297 1.574 . S
C314 H308 0.949 . S
C314 C318 1.368 . S
C315 C296 1.429 . S
C315 C309 1.429 . S
C315 C316 1.523 . S
C316 C297 1.368 . S
C316 C310 1.368 . S
C316 C315 1.523 . S
C317 C301 1.429 . S
C317 C313 1.429 . S
C317 C318 1.523 . S
C318 C302 1.368 . S
C318 C314 1.368 . S
C318 C317 1.523 . S
H319 C294 0.950 . S
H320 C296 0.950 . S
H321 C297 0.949 . S
H322 C299 0.950 . S
H323 C301 0.950 . S
C324 C325 1.349 1_545 S
C324 C326 1.327 . S
C324 H349 0.950 . S
C325 C324 1.349 1_565 S
C325 C341 1.349 . S
C326 C324 1.327 . S
C326 C345 1.429 . S
C326 H350 0.950 . S
C327 C344 1.574 . S
C327 C346 1.368 . S
C327 H351 0.949 . S
H328 C332 0.949 . S
C329 C330 1.349 . S
C329 C331 1.327 . S
C329 H352 0.950 . S
C330 C329 1.349 . S
C330 C342 1.349 . S
C331 C329 1.327 . S
C331 C347 1.429 . S
C331 H353 0.950 . S
C332 H328 0.949 . S
C332 C340 1.574 . S
C332 C348 1.368 . S
H333 C341 0.950 . S
H334 C339 0.950 . S
H335 C340 0.949 . S
H336 C342 0.950 . S
H337 C343 0.950 . S
H338 C344 0.949 . S
C339 H334 0.950 . S
C339 C341 1.327 . S
C339 C345 1.429 1_565 S
C340 C332 1.574 . S
C340 H335 0.949 . S
C340 C346 1.368 . S
C341 C325 1.349 . S
C341 H333 0.950 . S
C341 C339 1.327 . S
C342 C330 1.349 . S
C342 H336 0.950 . S
C342 C343 1.327 . S
C343 H337 0.950 . S
C343 C342 1.327 . S
C343 C347 1.429 . S
C344 C327 1.574 . S
C344 H338 0.949 . S
C344 C348 1.368 . S
C345 C326 1.429 . S
C345 C339 1.429 1_545 S
C345 C346 1.523 . S
C346 C327 1.368 . S
C346 C340 1.368 . S
C346 C345 1.523 . S
C347 C331 1.429 . S
C347 C343 1.429 . S
C347 C348 1.523 . S
C348 C332 1.368 . S
C348 C344 1.368 . S
C348 C347 1.523 . S
H349 C324 0.950 . S
H350 C326 0.950 . S
H351 C327 0.949 . S
H352 C329 0.950 . S
H353 C331 0.950 . S
C354 C355 1.349 . S
C354 C356 1.327 . S
C354 H379 0.950 . S
C355 C354 1.349 . S
C355 C371 1.349 1_455 S
C356 C354 1.327 . S
C356 C375 1.429 1_455 S
C356 H380 0.950 . S
C357 C374 1.574 . S
C357 C376 1.368 . S
C357 H381 0.949 . S
H358 C362 0.949 . S
C359 C360 1.349 . S
C359 C361 1.327 . S
C359 H382 0.950 . S
C360 C359 1.349 . S
C360 C372 1.349 . S
C361 C359 1.327 . S
C361 C377 1.429 . S
C361 H383 0.950 . S
C362 H358 0.949 . S
C362 C370 1.574 . S
C362 C378 1.368 . S
H363 C371 0.950 . S
H364 C369 0.950 . S
H365 C370 0.949 . S
H366 C372 0.950 . S
H367 C373 0.950 . S
H368 C374 0.949 . S
C369 H364 0.950 . S
C369 C371 1.327 . S
C369 C375 1.429 . S
C370 C362 1.574 . S
C370 H365 0.949 . S
C370 C376 1.368 . S
C371 C355 1.349 1_655 S
C371 H363 0.950 . S
C371 C369 1.327 . S
C372 C360 1.349 . S
C372 H366 0.950 . S
C372 C373 1.327 . S
C373 H367 0.950 . S
C373 C372 1.327 . S
C373 C377 1.429 . S
C374 C357 1.574 . S
C374 H368 0.949 . S
C374 C378 1.368 . S
C375 C356 1.429 1_655 S
C375 C369 1.429 . S
C375 C376 1.523 . S
C376 C357 1.368 . S
C376 C370 1.368 . S
C376 C375 1.523 . S
C377 C361 1.429 . S
C377 C373 1.429 . S
C377 C378 1.523 . S
C378 C362 1.368 . S
C378 C374 1.368 . S
C378 C377 1.523 . S
H379 C354 0.950 . S
H380 C356 0.950 . S
H381 C357 0.949 . S
H382 C359 0.950 . S
H383 C361 0.950 . S
C384 C385 1.349 . S
C384 C386 1.327 . S
C384 H409 0.950 . S
C385 C384 1.349 . S
C385 C401 1.349 . S
C386 C384 1.327 . S
C386 C405 1.429 . S
C386 H410 0.950 . S
C387 C404 1.574 . S
C387 C406 1.368 . S
C387 H411 0.949 . S
H388 C392 0.949 . S
C389 C390 1.349 . S
C389 C391 1.327 . S
C389 H412 0.950 . S
C390 C389 1.349 . S
C390 C402 1.349 . S
C391 C389 1.327 . S
C391 C407 1.429 . S
C391 H413 0.950 . S
C392 H388 0.949 . S
C392 C400 1.574 . S
C392 C408 1.368 . S
H393 C401 0.950 . S
H394 C399 0.950 . S
H395 C400 0.949 . S
H396 C402 0.950 . S
H397 C403 0.950 . S
H398 C404 0.949 . S
C399 H394 0.950 . S
C399 C401 1.327 . S
C399 C405 1.429 . S
C400 C392 1.574 . S
C400 H395 0.949 . S
C400 C406 1.368 1_554 S
C401 C385 1.349 . S
C401 H393 0.950 . S
C401 C399 1.327 . S
C402 C390 1.349 . S
C402 H396 0.950 . S
C402 C403 1.327 . S
C403 H397 0.950 . S
C403 C402 1.327 . S
C403 C407 1.429 . S
C404 C387 1.574 . S
C404 H398 0.949 . S
C404 C408 1.368 1_556 S
C405 C386 1.429 . S
C405 C399 1.429 . S
C405 C406 1.523 . S
C406 C387 1.368 . S
C406 C400 1.368 1_556 S
C406 C405 1.523 . S
C407 C391 1.429 . S
C407 C403 1.429 . S
C407 C408 1.523 . S
C408 C392 1.368 . S
C408 C404 1.368 1_554 S
C408 C407 1.523 . S
H409 C384 0.950 . S
H410 C386 0.950 . S
H411 C387 0.949 . S
H412 C389 0.950 . S
H413 C391 0.950 . S
C414 C415 1.349 . S
C414 C416 1.327 . S
C414 H439 0.950 . S
C415 C414 1.349 . S
C415 C431 1.349 . S
C416 C414 1.327 . S
C416 C435 1.429 . S
C416 H440 0.950 . S
C417 C434 1.574 1_545 S
C417 C436 1.368 . S
C417 H441 0.949 . S
H418 C422 0.949 . S
C419 C420 1.349 . S
C419 C421 1.327 . S
C419 H442 0.950 . S
C420 C419 1.349 . S
C420 C432 1.349 . S
C421 C419 1.327 . S
C421 C437 1.429 . S
C421 H443 0.950 . S
C422 H418 0.949 . S
C422 C430 1.574 1_565 S
C422 C438 1.368 . S
H423 C431 0.950 . S
H424 C429 0.950 . S
H425 C430 0.949 . S
H426 C432 0.950 . S
H427 C433 0.950 . S
H428 C434 0.949 . S
C429 H424 0.950 . S
C429 C431 1.327 . S
C429 C435 1.429 . S
C430 C422 1.574 1_545 S
C430 H425 0.949 . S
C430 C436 1.368 . S
C431 C415 1.349 . S
C431 H423 0.950 . S
C431 C429 1.327 . S
C432 C420 1.349 . S
C432 H426 0.950 . S
C432 C433 1.327 . S
C433 H427 0.950 . S
C433 C432 1.327 . S
C433 C437 1.429 . S
C434 C417 1.574 1_565 S
C434 H428 0.949 . S
C434 C438 1.368 . S
C435 C416 1.429 . S
C435 C429 1.429 . S
C435 C436 1.523 . S
C436 C417 1.368 . S
C436 C430 1.368 . S
C436 C435 1.523 . S
C437 C421 1.429 . S
C437 C433 1.429 . S
C437 C438 1.523 . S
C438 C422 1.368 . S
C438 C434 1.368 . S
C438 C437 1.523 . S
H439 C414 0.950 . S
H440 C416 0.950 . S
H441 C417 0.949 . S
H442 C419 0.950 . S
H443 C421 0.950 . S
C444 C445 1.349 . S
C444 C446 1.327 . S
C444 H469 0.950 . S
C445 C444 1.349 . S
C445 C461 1.349 . S
C446 C444 1.327 . S
C446 C465 1.429 . S
C446 H470 0.950 . S
C447 C464 1.574 1_655 S
C447 C466 1.368 . S
C447 H471 0.949 . S
H448 C452 0.949 . S
C449 C450 1.349 . S
C449 C451 1.327 . S
C449 H472 0.950 . S
C450 C449 1.349 . S
C450 C462 1.349 . S
C451 C449 1.327 . S
C451 C467 1.429 . S
C451 H473 0.950 . S
C452 H448 0.949 . S
C452 C460 1.574 1_455 S
C452 C468 1.368 . S
H453 C461 0.950 . S
H454 C459 0.950 . S
H455 C460 0.949 . S
H456 C462 0.950 . S
H457 C463 0.950 . S
H458 C464 0.949 . S
C459 H454 0.950 . S
C459 C461 1.327 . S
C459 C465 1.429 . S
C460 C452 1.574 1_655 S
C460 H455 0.949 . S
C460 C466 1.368 . S
C461 C445 1.349 . S
C461 H453 0.950 . S
C461 C459 1.327 . S
C462 C450 1.349 . S
C462 H456 0.950 . S
C462 C463 1.327 . S
C463 H457 0.950 . S
C463 C462 1.327 . S
C463 C467 1.429 . S
C464 C447 1.574 1_455 S
C464 H458 0.949 . S
C464 C468 1.368 . S
C465 C446 1.429 . S
C465 C459 1.429 . S
C465 C466 1.523 . S
C466 C447 1.368 . S
C466 C460 1.368 . S
C466 C465 1.523 . S
C467 C451 1.429 . S
C467 C463 1.429 . S
C467 C468 1.523 . S
C468 C452 1.368 . S
C468 C464 1.368 . S
C468 C467 1.523 . S
H469 C444 0.950 . S
H470 C446 0.950 . S
H471 C447 0.949 . S
H472 C449 0.950 . S
H473 C451 0.950 . S
C474 C475 1.349 . S
C474 C476 1.327 . S
C474 H499 0.950 . S
C475 C474 1.349 . S
C475 C491 1.349 . S
C476 C474 1.327 . S
C476 C495 1.429 . S
C476 H500 0.950 1_655 S
C477 C494 1.574 . S
C477 C496 1.368 . S
C477 H501 0.949 . S
H478 C482 0.949 . S
C479 C480 1.349 . S
C479 C481 1.327 . S
C479 H502 0.950 . S
C480 C479 1.349 . S
C480 C492 1.349 . S
C481 C479 1.327 . S
C481 C497 1.429 . S
C481 H503 0.950 1_455 S
C482 H478 0.949 . S
C482 C490 1.574 . S
C482 C498 1.368 . S
H483 C491 0.950 . S
H484 C489 0.950 . S
H485 C490 0.949 . S
H486 C492 0.950 . S
H487 C493 0.950 . S
H488 C494 0.949 . S
C489 H484 0.950 . S
C489 C491 1.327 . S
C489 C495 1.429 . S
C490 C482 1.574 . S
C490 H485 0.949 . S
C490 C496 1.368 1_455 S
C491 C475 1.349 . S
C491 H483 0.950 . S
C491 C489 1.327 . S
C492 C480 1.349 . S
C492 H486 0.950 . S
C492 C493 1.327 . S
C493 H487 0.950 . S
C493 C492 1.327 . S
C493 C497 1.429 . S
C494 C477 1.574 . S
C494 H488 0.949 . S
C494 C498 1.368 1_655 S
C495 C476 1.429 . S
C495 C489 1.429 . S
C495 C496 1.523 . S
C496 C477 1.368 . S
C496 C490 1.368 1_655 S
C496 C495 1.523 . S
C497 C481 1.429 . S
C497 C493 1.429 . S
C497 C498 1.523 . S
C498 C482 1.368 . S
C498 C494 1.368 1_455 S
C498 C497 1.523 . S
H499 C474 0.950 . S
H500 C476 0.950 1_455 S
H501 C477 0.949 . S
H502 C479 0.950 . S
H503 C481 0.950 1_655 S
C504 C505 1.349 . S
C504 C506 1.327 . S
C504 H529 0.950 . S
C505 C504 1.349 . S
C505 C521 1.349 . S
C506 C504 1.327 . S
C506 C525 1.429 . S
C506 H530 0.950 . S
C507 C524 1.574 1_556 S
C507 C526 1.368 . S
C507 H531 0.949 . S
H508 C512 0.949 . S
C509 C510 1.349 . S
C509 C511 1.327 . S
C509 H532 0.950 . S
C510 C509 1.349 . S
C510 C522 1.349 . S
C511 C509 1.327 . S
C511 C527 1.429 . S
C511 H533 0.950 . S
C512 H508 0.949 . S
C512 C520 1.574 1_554 S
C512 C528 1.368 . S
H513 C521 0.950 . S
H514 C519 0.950 . S
H515 C520 0.949 . S
H516 C522 0.950 . S
H517 C523 0.950 . S
H518 C524 0.949 . S
C519 H514 0.950 . S
C519 C521 1.327 . S
C519 C525 1.429 . S
C520 C512 1.574 1_556 S
C520 H515 0.949 . S
C520 C526 1.368 . S
C521 C505 1.349 . S
C521 H513 0.950 . S
C521 C519 1.327 . S
C522 C510 1.349 . S
C522 H516 0.950 . S
C522 C523 1.327 . S
C523 H517 0.950 . S
C523 C522 1.327 . S
C523 C527 1.429 . S
C524 C507 1.574 1_554 S
C524 H518 0.949 . S
C524 C528 1.368 . S
C525 C506 1.429 . S
C525 C519 1.429 . S
C525 C526 1.523 . S
C526 C507 1.368 . S
C526 C520 1.368 . S
C526 C525 1.523 . S
C527 C511 1.429 . S
C527 C523 1.429 . S
C527 C528 1.523 . S
C528 C512 1.368 . S
C528 C524 1.368 . S
C528 C527 1.523 . S
H529 C504 0.950 . S
H530 C506 0.950 . S
H531 C507 0.949 . S
H532 C509 0.950 . S
H533 C511 0.950 . S
C534 C535 1.349 . S
C534 C536 1.327 . S
C534 H559 0.950 . S
C535 C534 1.349 . S
C535 C551 1.349 . S
C536 C534 1.327 . S
C536 C555 1.429 . S
C536 H560 0.950 . S
C537 C554 1.574 . S
C537 C556 1.368 1_565 S
C537 H561 0.949 . S
H538 C542 0.949 . S
C539 C540 1.349 . S
C539 C541 1.327 . S
C539 H562 0.950 . S
C540 C539 1.349 . S
C540 C552 1.349 . S
C541 C539 1.327 . S
C541 C557 1.429 . S
C541 H563 0.950 . S
C542 H538 0.949 . S
C542 C550 1.574 . S
C542 C558 1.368 1_545 S
H543 C551 0.950 . S
H544 C549 0.950 1_565 S
H545 C550 0.949 . S
H546 C552 0.950 . S
H547 C553 0.950 1_545 S
H548 C554 0.949 . S
C549 H544 0.950 1_545 S
C549 C551 1.327 . S
C549 C555 1.429 . S
C550 C542 1.574 . S
C550 H545 0.949 . S
C550 C556 1.368 . S
C551 C535 1.349 . S
C551 H543 0.950 . S
C551 C549 1.327 . S
C552 C540 1.349 . S
C552 H546 0.950 . S
C552 C553 1.327 . S
C553 H547 0.950 1_565 S
C553 C552 1.327 . S
C553 C557 1.429 . S
C554 C537 1.574 . S
C554 H548 0.949 . S
C554 C558 1.368 . S
C555 C536 1.429 . S
C555 C549 1.429 . S
C555 C556 1.523 . S
C556 C537 1.368 1_545 S
C556 C550 1.368 . S
C556 C555 1.523 . S
C557 C541 1.429 . S
C557 C553 1.429 . S
C557 C558 1.523 . S
C558 C542 1.368 1_565 S
C558 C554 1.368 . S
C558 C557 1.523 . S
H559 C534 0.950 . S
H560 C536 0.950 . S
H561 C537 0.949 . S
H562 C539 0.950 . S
H563 C541 0.950 . S
C564 C565 1.349 . S
C564 C566 1.327 . S
C564 H589 0.950 1_556 S
C565 C564 1.349 . S
C565 C581 1.349 . S
C566 C564 1.327 . S
C566 C585 1.429 . S
C566 H590 0.950 . S
C567 C584 1.574 . S
C567 C586 1.368 . S
C567 H591 0.949 . S
H568 C572 0.949 . S
C569 C570 1.349 . S
C569 C571 1.327 . S
C569 H592 0.950 . S
C570 C569 1.349 . S
C570 C582 1.349 . S
C571 C569 1.327 . S
C571 C587 1.429 . S
C571 H593 0.950 . S
C572 H568 0.949 . S
C572 C580 1.574 . S
C572 C588 1.368 . S
H573 C581 0.950 . S
H574 C579 0.950 . S
H575 C580 0.949 . S
H576 C582 0.950 . S
H577 C583 0.950 . S
H578 C584 0.949 . S
C579 H574 0.950 . S
C579 C581 1.327 . S
C579 C585 1.429 . S
C580 C572 1.574 . S
C580 H575 0.949 . S
C580 C586 1.368 . S
C581 C565 1.349 . S
C581 H573 0.950 . S
C581 C579 1.327 . S
C582 C570 1.349 . S
C582 H576 0.950 . S
C582 C583 1.327 . S
C583 H577 0.950 . S
C583 C582 1.327 . S
C583 C587 1.429 . S
C584 C567 1.574 . S
C584 H578 0.949 . S
C584 C588 1.368 . S
C585 C566 1.429 . S
C585 C579 1.429 . S
C585 C586 1.523 . S
C586 C567 1.368 . S
C586 C580 1.368 . S
C586 C585 1.523 . S
C587 C571 1.429 . S
C587 C583 1.429 . S
C587 C588 1.523 . S
C588 C572 1.368 . S
C588 C584 1.368 . S
C588 C587 1.523 . S
H589 C564 0.950 1_554 S
H590 C566 0.950 . S
H591 C567 0.949 . S
H592 C569 0.950 . S
H593 C571 0.950 . S
C594 C595 1.349 . S
C594 C596 1.327 . S
C594 H619 0.950 . S
C595 C594 1.349 . S
C595 C611 1.349 . S
C596 C594 1.327 . S
C596 C615 1.429 . S
C596 H620 0.950 . S
C597 C614 1.574 . S
C597 C616 1.368 . S
C597 H621 0.949 . S
H598 C602 0.949 . S
C599 C600 1.349 . S
C599 C601 1.327 . S
C599 H622 0.950 . S
C600 C599 1.349 . S
C600 C612 1.349 . S
C601 C599 1.327 . S
C601 C617 1.429 . S
C601 H623 0.950 . S
C602 H598 0.949 . S
C602 C610 1.574 . S
C602 C618 1.368 . S
H603 C611 0.950 . S
H604 C609 0.950 . S
H605 C610 0.949 . S
H606 C612 0.950 . S
H607 C613 0.950 . S
H608 C614 0.949 . S
C609 H604 0.950 . S
C609 C611 1.327 . S
C609 C615 1.429 . S
C610 C602 1.574 . S
C610 H605 0.949 . S
C610 C616 1.368 . S
C611 C595 1.349 . S
C611 H603 0.950 . S
C611 C609 1.327 . S
C612 C600 1.349 . S
C612 H606 0.950 . S
C612 C613 1.327 . S
C613 H607 0.950 . S
C613 C612 1.327 . S
C613 C617 1.429 . S
C614 C597 1.574 . S
C614 H608 0.949 . S
C614 C618 1.368 . S
C615 C596 1.429 . S
C615 C609 1.429 . S
C615 C616 1.523 . S
C616 C597 1.368 . S
C616 C610 1.368 . S
C616 C615 1.523 . S
C617 C601 1.429 . S
C617 C613 1.429 . S
C617 C618 1.523 . S
C618 C602 1.368 . S
C618 C614 1.368 . S
C618 C617 1.523 . S
H619 C594 0.950 . S
H620 C596 0.950 . S
H621 C597 0.949 . S
H622 C599 0.950 . S
H623 C601 0.950 . S
C624 C625 1.349 . S
C624 C626 1.327 . S
C624 H649 0.950 . S
C625 C624 1.349 . S
C625 C641 1.349 . S
C626 C624 1.327 . S
C626 C645 1.429 . S
C626 H650 0.950 . S
C627 C644 1.574 . S
C627 C646 1.368 . S
C627 H651 0.949 . S
H628 C632 0.949 . S
C629 C630 1.349 . S
C629 C631 1.327 . S
C629 H652 0.950 . S
C630 C629 1.349 . S
C630 C642 1.349 . S
C631 C629 1.327 . S
C631 C647 1.429 . S
C631 H653 0.950 . S
C632 H628 0.949 . S
C632 C640 1.574 . S
C632 C648 1.368 . S
H633 C641 0.950 . S
H634 C639 0.950 . S
H635 C640 0.949 . S
H636 C642 0.950 . S
H637 C643 0.950 . S
H638 C644 0.949 . S
C639 H634 0.950 . S
C639 C641 1.327 . S
C639 C645 1.429 . S
C640 C632 1.574 . S
C640 H635 0.949 . S
C640 C646 1.368 . S
C641 C625 1.349 . S
C641 H633 0.950 . S
C641 C639 1.327 . S
C642 C630 1.349 . S
C642 H636 0.950 . S
C642 C643 1.327 . S
C643 H637 0.950 . S
C643 C642 1.327 . S
C643 C647 1.429 . S
C644 C627 1.574 . S
C644 H638 0.949 . S
C644 C648 1.368 . S
C645 C626 1.429 . S
C645 C639 1.429 . S
C645 C646 1.523 . S
C646 C627 1.368 . S
C646 C640 1.368 . S
C646 C645 1.523 . S
C647 C631 1.429 . S
C647 C643 1.429 . S
C647 C648 1.523 . S
C648 C632 1.368 . S
C648 C644 1.368 . S
C648 C647 1.523 . S
H649 C624 0.950 . S
H650 C626 0.950 . S
H651 C627 0.949 . S
H652 C629 0.950 . S
H653 C631 0.950 . S
C654 C655 1.349 . S
C654 C656 1.327 . S
C654 H679 0.950 . S
C655 C654 1.349 . S
C655 C671 1.349 . S
C656 C654 1.327 . S
C656 C675 1.429 . S
C656 H680 0.950 . S
C657 C674 1.574 . S
C657 C676 1.368 . S
C657 H681 0.949 . S
H658 C662 0.949 . S
C659 C660 1.349 . S
C659 C661 1.327 . S
C659 H682 0.950 . S
C660 C659 1.349 . S
C660 C672 1.349 . S
C661 C659 1.327 . S
C661 C677 1.429 . S
C661 H683 0.950 . S
C662 H658 0.949 . S
C662 C670 1.574 . S
C662 C678 1.368 . S
H663 C671 0.950 . S
H664 C669 0.950 . S
H665 C670 0.949 . S
H666 C672 0.950 . S
H667 C673 0.950 . S
H668 C674 0.949 . S
C669 H664 0.950 . S
C669 C671 1.327 . S
C669 C675 1.429 . S
C670 C662 1.574 . S
C670 H665 0.949 . S
C670 C676 1.368 . S
C671 C655 1.349 . S
C671 H663 0.950 . S
C671 C669 1.327 . S
C672 C660 1.349 . S
C672 H666 0.950 . S
C672 C673 1.327 . S
C673 H667 0.950 . S
C673 C672 1.327 . S
C673 C677 1.429 . S
C674 C657 1.574 . S
C674 H668 0.949 . S
C674 C678 1.368 . S
C675 C656 1.429 . S
C675 C669 1.429 . S
C675 C676 1.523 . S
C676 C657 1.368 . S
C676 C670 1.368 . S
C676 C675 1.523 . S
C677 C661 1.429 . S
C677 C673 1.429 . S
C677 C678 1.523 . S
C678 C662 1.368 . S
C678 C674 1.368 . S
C678 C677 1.523 . S
H679 C654 0.950 . S
H680 C656 0.950 . S
H681 C657 0.949 . S
H682 C659 0.950 . S
H683 C661 0.950 . S
C684 C685 1.349 . S
C684 C686 1.327 . S
C684 H709 0.950 . S
C685 C684 1.349 . S
C685 C701 1.349 . S
C686 C684 1.327 . S
C686 C705 1.429 . S
C686 H710 0.950 . S
C687 C704 1.574 . S
C687 C706 1.368 . S
C687 H711 0.949 . S
H688 C692 0.949 . S
C689 C690 1.349 . S
C689 C691 1.327 . S
C689 H712 0.950 . S
C690 C689 1.349 . S
C690 C702 1.349 . S
C691 C689 1.327 . S
C691 C707 1.429 . S
C691 H713 0.950 . S
C692 H688 0.949 . S
C692 C700 1.574 . S
C692 C708 1.368 . S
H693 C701 0.950 . S
H694 C699 0.950 . S
H695 C700 0.949 . S
H696 C702 0.950 . S
H697 C703 0.950 . S
H698 C704 0.949 . S
C699 H694 0.950 . S
C699 C701 1.327 . S
C699 C705 1.429 . S
C700 C692 1.574 . S
C700 H695 0.949 . S
C700 C706 1.368 . S
C701 C685 1.349 . S
C701 H693 0.950 . S
C701 C699 1.327 . S
C702 C690 1.349 . S
C702 H696 0.950 . S
C702 C703 1.327 . S
C703 H697 0.950 . S
C703 C702 1.327 . S
C703 C707 1.429 . S
C704 C687 1.574 . S
C704 H698 0.949 . S
C704 C708 1.368 . S
C705 C686 1.429 . S
C705 C699 1.429 . S
C705 C706 1.523 . S
C706 C687 1.368 . S
C706 C700 1.368 . S
C706 C705 1.523 . S
C707 C691 1.429 . S
C707 C703 1.429 . S
C707 C708 1.523 . S
C708 C692 1.368 . S
C708 C704 1.368 . S
C708 C707 1.523 . S
H709 C684 0.950 . S
H710 C686 0.950 . S
H711 C687 0.949 . S
H712 C689 0.950 . S
H713 C691 0.950 . S
C714 C715 1.349 . S
C714 C716 1.327 . S
C714 H739 0.950 . S
C715 C714 1.349 . S
C715 C731 1.349 . S
C716 C714 1.327 . S
C716 C735 1.429 . S
C716 H740 0.950 . S
C717 C734 1.574 . S
C717 C736 1.368 . S
C717 H741 0.949 . S
H718 C722 0.949 . S
C719 C720 1.349 . S
C719 C721 1.327 . S
C719 H742 0.950 . S
C720 C719 1.349 . S
C720 C732 1.349 . S
C721 C719 1.327 . S
C721 C737 1.429 . S
C721 H743 0.950 . S
C722 H718 0.949 . S
C722 C730 1.574 . S
C722 C738 1.368 . S
H723 C731 0.950 . S
H724 C729 0.950 . S
H725 C730 0.949 . S
H726 C732 0.950 . S
H727 C733 0.950 . S
H728 C734 0.949 . S
C729 H724 0.950 . S
C729 C731 1.327 . S
C729 C735 1.429 . S
C730 C722 1.574 . S
C730 H725 0.949 . S
C730 C736 1.368 . S
C731 C715 1.349 . S
C731 H723 0.950 . S
C731 C729 1.327 . S
C732 C720 1.349 . S
C732 H726 0.950 . S
C732 C733 1.327 . S
C733 H727 0.950 . S
C733 C732 1.327 . S
C733 C737 1.429 . S
C734 C717 1.574 . S
C734 H728 0.949 . S
C734 C738 1.368 . S
C735 C716 1.429 . S
C735 C729 1.429 . S
C735 C736 1.523 . S
C736 C717 1.368 . S
C736 C730 1.368 . S
C736 C735 1.523 . S
C737 C721 1.429 . S
C737 C733 1.429 . S
C737 C738 1.523 . S
C738 C722 1.368 . S
C738 C734 1.368 . S
C738 C737 1.523 . S
H739 C714 0.950 . S
H740 C716 0.950 . S
H741 C717 0.949 . S
H742 C719 0.950 . S
H743 C721 0.950 . S
C744 C745 1.349 . S
C744 C746 1.327 . S
C744 H769 0.950 . S
C745 C744 1.349 . S
C745 C761 1.349 . S
C746 C744 1.327 . S
C746 C765 1.429 . S
C746 H770 0.950 . S
C747 C764 1.574 1_655 S
C747 C766 1.368 . S
C747 H771 0.949 . S
H748 C752 0.949 . S
C749 C750 1.349 . S
C749 C751 1.327 . S
C749 H772 0.950 . S
C750 C749 1.349 . S
C750 C762 1.349 . S
C751 C749 1.327 . S
C751 C767 1.429 . S
C751 H773 0.950 . S
C752 H748 0.949 . S
C752 C760 1.574 1_455 S
C752 C768 1.368 . S
H753 C761 0.950 . S
H754 C759 0.950 . S
H755 C760 0.949 . S
H756 C762 0.950 . S
H757 C763 0.950 . S
H758 C764 0.949 . S
C759 H754 0.950 . S
C759 C761 1.327 . S
C759 C765 1.429 . S
C760 C752 1.574 1_655 S
C760 H755 0.949 . S
C760 C766 1.368 . S
C761 C745 1.349 . S
C761 H753 0.950 . S
C761 C759 1.327 . S
C762 C750 1.349 . S
C762 H756 0.950 . S
C762 C763 1.327 . S
C763 H757 0.950 . S
C763 C762 1.327 . S
C763 C767 1.429 . S
C764 C747 1.574 1_455 S
C764 H758 0.949 . S
C764 C768 1.368 . S
C765 C746 1.429 . S
C765 C759 1.429 . S
C765 C766 1.523 . S
C766 C747 1.368 . S
C766 C760 1.368 . S
C766 C765 1.523 . S
C767 C751 1.429 . S
C767 C763 1.429 . S
C767 C768 1.523 . S
C768 C752 1.368 . S
C768 C764 1.368 . S
C768 C767 1.523 . S
H769 C744 0.950 . S
H770 C746 0.950 . S
H771 C747 0.949 . S
H772 C749 0.950 . S
H773 C751 0.950 . S
C774 C775 1.349 . S
C774 C776 1.327 . S
C774 H799 0.950 . S
C775 C774 1.349 . S
C775 C791 1.349 . S
C776 C774 1.327 . S
C776 C795 1.429 . S
C776 H800 0.950 . S
C777 C794 1.574 . S
C777 C796 1.368 . S
C777 H801 0.949 . S
H778 C782 0.949 . S
C779 C780 1.349 . S
C779 C781 1.327 . S
C779 H802 0.950 . S
C780 C779 1.349 . S
C780 C792 1.349 . S
C781 C779 1.327 . S
C781 C797 1.429 . S
C781 H803 0.950 . S
C782 H778 0.949 . S
C782 C790 1.574 . S
C782 C798 1.368 . S
H783 C791 0.950 . S
H784 C789 0.950 . S
H785 C790 0.949 . S
H786 C792 0.950 . S
H787 C793 0.950 . S
H788 C794 0.949 . S
C789 H784 0.950 . S
C789 C791 1.327 . S
C789 C795 1.429 . S
C790 C782 1.574 . S
C790 H785 0.949 . S
C790 C796 1.368 . S
C791 C775 1.349 . S
C791 H783 0.950 . S
C791 C789 1.327 . S
C792 C780 1.349 . S
C792 H786 0.950 . S
C792 C793 1.327 . S
C793 H787 0.950 . S
C793 C792 1.327 . S
C793 C797 1.429 . S
C794 C777 1.574 . S
C794 H788 0.949 . S
C794 C798 1.368 . S
C795 C776 1.429 . S
C795 C789 1.429 . S
C795 C796 1.523 . S
C796 C777 1.368 . S
C796 C790 1.368 . S
C796 C795 1.523 . S
C797 C781 1.429 . S
C797 C793 1.429 . S
C797 C798 1.523 . S
C798 C782 1.368 . S
C798 C794 1.368 . S
C798 C797 1.523 . S
H799 C774 0.950 . S
H800 C776 0.950 . S
H801 C777 0.949 . S
H802 C779 0.950 . S
H803 C781 0.950 . S
C804 C805 1.349 . S
C804 C806 1.327 . S
C804 H829 0.950 . S
C805 C804 1.349 . S
C805 C821 1.349 . S
C806 C804 1.327 . S
C806 C825 1.429 . S
C806 H830 0.950 . S
C807 C824 1.574 . S
C807 C826 1.368 1_565 S
C807 H831 0.949 . S
H808 C812 0.949 . S
C809 C810 1.349 . S
C809 C811 1.327 . S
C809 H832 0.950 . S
C810 C809 1.349 . S
C810 C822 1.349 . S
C811 C809 1.327 . S
C811 C827 1.429 . S
C811 H833 0.950 . S
C812 H808 0.949 . S
C812 C820 1.574 . S
C812 C828 1.368 1_545 S
H813 C821 0.950 . S
H814 C819 0.950 1_565 S
H815 C820 0.949 . S
H816 C822 0.950 . S
H817 C823 0.950 1_545 S
H818 C824 0.949 . S
C819 H814 0.950 1_545 S
C819 C821 1.327 . S
C819 C825 1.429 . S
C820 C812 1.574 . S
C820 H815 0.949 . S
C820 C826 1.368 . S
C821 C805 1.349 . S
C821 H813 0.950 . S
C821 C819 1.327 . S
C822 C810 1.349 . S
C822 H816 0.950 . S
C822 C823 1.327 . S
C823 H817 0.950 1_565 S
C823 C822 1.327 . S
C823 C827 1.429 . S
C824 C807 1.574 . S
C824 H818 0.949 . S
C824 C828 1.368 . S
C825 C806 1.429 . S
C825 C819 1.429 . S
C825 C826 1.523 . S
C826 C807 1.368 1_545 S
C826 C820 1.368 . S
C826 C825 1.523 . S
C827 C811 1.429 . S
C827 C823 1.429 . S
C827 C828 1.523 . S
C828 C812 1.368 1_565 S
C828 C824 1.368 . S
C828 C827 1.523 . S
H829 C804 0.950 . S
H830 C806 0.950 . S
H831 C807 0.949 . S
H832 C809 0.950 . S
H833 C811 0.950 . S
C205 C173 2.425 . S
C210 C17 2.441 . S
C235 C51 2.441 . S
C240 C103 2.425 . S
C265 C85 2.441 . S
C270 C137 2.425 . S
C295 C35 2.425 . S
C300 C119 2.441 . S
C325 C71 2.425 . S
C330 C153 2.441 . S
C355 C3 2.425 . S
C360 C187 2.441 . S
C385 C130 0.379 . S
C390 C6 0.379 . S
C415 C164 0.379 . S
C420 C62 0.379 . S
C445 C176 0.379 . S
C450 C74 0.379 . S
C475 C158 0.524 . S
C480 C15 0.524 . S
C505 C56 0.524 . S
C510 C185 0.524 . S
C535 C124 0.524 . S
C540 C83 0.524 . S
C565 C22 0.446 . S
C570 C40 0.153 . S
C595 C96 0.153 . S
C600 C49 0.446 . S
C625 C28 0.153 . S
C630 C90 0.446 . S
C655 C117 0.446 . S
C660 C198 0.153 . S
C685 C151 0.446 . S
C690 C108 0.153 . S
C715 C142 0.153 . S
C720 C192 0.446 . S
C745 C139 3.563 . S
C750 C1 3.563 1_556 S
C775 C37 3.563 . S
C780 C171 3.563 . S
C805 C105 3.563 1_554 S
C810 C69 3.563 . S
