# Generated by pormake.
# Topology rkf, (6)-cn, num edge types: 1
# Building blocks:
#     Node 0, Type 0, BuildingBlock: BETFAJ_clean_sbu_0, # of connection points: 6
#     Node 1, Type 0, BuildingBlock: BETFAJ_clean_sbu_0, # of connection points: 6
#     Node 2, Type 0, BuildingBlock: BETFAJ_clean_sbu_0, # of connection points: 6
#     Node 3, Type 0, BuildingBlock: BETFAJ_clean_sbu_0, # of connection points: 6
#     Node 4, Type 0, BuildingBlock: BETFAJ_clean_sbu_0, # of connection points: 6
#     Node 5, Type 0, BuildingBlock: BETFAJ_clean_sbu_0, # of connection points: 6
#     Edge 6, Type (0, 0), BuildingBlock: MIFKUJ_clean_linker_0, # of connection points: 2
#     Edge 7, Type (0, 0), BuildingBlock: MIFKUJ_clean_linker_0, # of connection points: 2
#     Edge 8, Type (0, 0), BuildingBlock: MIFKUJ_clean_linker_0, # of connection points: 2
#     Edge 9, Type (0, 0), BuildingBlock: MIFKUJ_clean_linker_0, # of connection points: 2
#     Edge 10, Type (0, 0), BuildingBlock: MIFKUJ_clean_linker_0, # of connection points: 2
#     Edge 11, Type (0, 0), BuildingBlock: MIFKUJ_clean_linker_0, # of connection points: 2
#     Edge 12, Type (0, 0), BuildingBlock: MIFKUJ_clean_linker_0, # of connection points: 2
#     Edge 13, Type (0, 0), BuildingBlock: MIFKUJ_clean_linker_0, # of connection points: 2
#     Edge 14, Type (0, 0), BuildingBlock: MIFKUJ_clean_linker_0, # of connection points: 2
#     Edge 15, Type (0, 0), BuildingBlock: MIFKUJ_clean_linker_0, # of connection points: 2
#     Edge 16, Type (0, 0), BuildingBlock: MIFKUJ_clean_linker_0, # of connection points: 2
#     Edge 17, Type (0, 0), BuildingBlock: MIFKUJ_clean_linker_0, # of connection points: 2
#     Edge 18, Type (0, 0), BuildingBlock: MIFKUJ_clean_linker_0, # of connection points: 2
#     Edge 19, Type (0, 0), BuildingBlock: MIFKUJ_clean_linker_0, # of connection points: 2
#     Edge 20, Type (0, 0), BuildingBlock: MIFKUJ_clean_linker_0, # of connection points: 2
#     Edge 21, Type (0, 0), BuildingBlock: MIFKUJ_clean_linker_0, # of connection points: 2
#     Edge 22, Type (0, 0), BuildingBlock: MIFKUJ_clean_linker_0, # of connection points: 2
#     Edge 23, Type (0, 0), BuildingBlock: MIFKUJ_clean_linker_0, # of connection points: 2
# Relax obj value: 0.539
# Max RMSD: 0.247
# Mean RMSD: 0.247
data_MOF--net-rkf--node1-BETFAJ_clean_sbu_0--edge1-MIFKUJ_clean_linker_0
_symmetry_space_group_name_H-M    P1
_symmetry_Int_Tables_number       1
_symmetry_cell_setting            triclinic
loop_
_symmetry_equiv_pos_as_xyz
'x, y, z'
_cell_length_a     31.774491
_cell_length_b     31.746706
_cell_length_c     61.133307
_cell_angle_alpha  89.450643
_cell_angle_beta   90.418847
_cell_angle_gamma 119.91071
loop_
_atom_site_label
_atom_site_type_symbol
_atom_site_fract_x
_atom_site_fract_y
_atom_site_fract_z
_atom_type_partial_charge
Sm0 Sm 0.25307 0.07501 0.0877 0.0
Sm1 Sm 0.32517 0.17386 0.07838 0.0
C2 C 0.20541 0.9819 0.09877 0.0
C3 C 0.20091 0.94522 0.11476 0.0
C4 C 0.19387 0.90073 0.10701 0.0
C5 C 0.18603 0.86348 0.12158 0.0
C6 C 0.18503 0.87014 0.1442 0.0
C7 C 0.19408 0.91559 0.15195 0.0
C8 C 0.20204 0.95292 0.13734 0.0
C9 C 0.21271 0.12883 1.07217 0.0
C10 C 0.28643 0.15232 0.13042 0.0
C11 C 0.38366 0.26453 1.06507 0.0
C12 C 0.39362 0.29423 1.04531 0.0
C13 C 0.37117 0.27302 1.02545 0.0
C14 C 0.37886 0.30208 1.007 0.0
C15 C 0.40947 0.3528 1.0081 0.0
C16 C 0.43277 0.37369 1.02796 0.0
C17 C 0.4248 0.34453 1.04646 0.0
C18 C 0.36667 0.12135 0.09479 0.0
C19 C 0.2713 0.09655 1.03472 0.0
O20 O 0.24469 0.00157 0.08689 0.0
O21 O 0.19109 0.0125 0.10431 0.0
O22 O 0.24715 0.14359 0.08563 0.0
O23 O 0.19637 0.08357 1.06752 0.0
O24 O 0.26498 0.1059 0.12417 0.0
O25 O 0.31035 0.18655 0.11527 0.0
O26 O 0.34162 0.25012 0.07425 0.0
O27 O 0.39522 0.23047 1.06442 0.0
O28 O 0.33371 0.10673 0.08026 0.0
O29 O 0.37594 0.16335 0.10194 0.0
O30 O 0.29957 0.14235 1.04156 0.0
O31 O 0.25133 0.06212 1.04986 0.0
H32 H 0.19329 0.89439 0.08959 0.0
H33 H 0.17962 0.82909 0.11515 0.0
H34 H 0.19282 0.92165 0.16928 0.0
H35 H 0.20777 0.98718 0.14363 0.0
H36 H 0.34713 0.23417 1.02429 0.0
H37 H 0.3596 0.28493 0.99206 0.0
H38 H 0.45677 0.41256 1.02925 0.0
H39 H 0.44248 0.36131 1.06173 0.0
Sm40 Sm 0.25974 0.26998 0.42031 0.0
Sm41 Sm 0.22956 0.339 0.40881 0.0
C42 C 0.31255 0.22695 0.42413 0.0
C43 C 0.34593 0.224 0.43981 0.0
C44 C 0.37386 0.20327 0.4335 0.0
C45 C 0.40388 0.19783 0.44871 0.0
C46 C 0.40627 0.2131 0.47041 0.0
C47 C 0.37947 0.23562 0.47635 0.0
C48 C 0.34964 0.24114 0.46114 0.0
C49 C 0.16194 0.22843 0.41064 0.0
C50 C 0.22039 0.30255 0.46286 0.0
C51 C 0.18357 0.38867 0.40333 0.0
C52 C 0.1562 0.3965 0.38593 0.0
C53 C 0.1695 0.39878 0.36395 0.0
C54 C 0.14079 0.40218 0.34746 0.0
C55 C 0.09806 0.40275 0.35267 0.0
C56 C 0.08538 0.40147 0.37472 0.0
C57 C 0.11443 0.39857 0.39125 0.0
C58 C 0.32855 0.38385 0.41342 0.0
C59 C 0.25138 0.28753 0.36563 0.0
O60 O 0.3282 0.26925 0.41467 0.0
O61 O 0.26701 0.20646 0.43007 0.0
O62 O 0.19667 0.26215 0.4007 0.0
O63 O 0.17829 0.21154 0.42592 0.0
O64 O 0.24565 0.28148 0.457 0.0
O65 O 0.20843 0.3245 0.44717 0.0
O66 O 0.163 0.34477 0.4116 0.0
O67 O 0.23021 0.40733 0.40024 0.0
O68 O 0.29856 0.35186 0.42667 0.0
O69 O 0.30614 0.39166 0.39752 0.0
O70 O 0.22953 0.31219 0.37202 0.0
O71 O 0.26909 0.2712 0.38135 0.0
H72 H 0.3716 0.19031 0.41696 0.0
H73 H 0.42416 0.1805 0.44365 0.0
H74 H 0.37955 0.24678 0.49305 0.0
H75 H 0.32841 0.25749 0.46619 0.0
H76 H 0.20126 0.39655 0.35948 0.0
H77 H 0.15086 0.40209 0.33057 0.0
H78 H 0.05255 0.40174 0.37913 0.0
H79 H 0.10359 0.3966 0.40817 0.0
Sm80 Sm 0.08686 0.28753 0.75538 0.0
Sm81 Sm -0.01315 0.22795 0.74331 0.0
C82 C 0.17459 0.36359 0.76125 0.0
C83 C 0.2015 0.39596 0.7793 0.0
C84 C 0.24974 0.43267 0.77629 0.0
C85 C 0.27758 0.45944 0.79417 0.0
C86 C 0.25752 0.44951 0.81531 0.0
C87 C 0.20818 0.41432 0.81793 0.0
C88 C 0.18041 0.38785 0.80005 0.0
C89 C 0.06813 0.19626 0.74373 0.0
C90 C 0.01564 0.2272 0.79738 0.0
C91 C 0.895 0.16008 0.73743 0.0
C92 C 0.86248 0.13037 0.71993 0.0
C93 C 0.88106 0.12662 0.6998 0.0
C94 C 0.84947 0.09915 0.68306 0.0
C95 C 0.79885 0.07533 0.68617 0.0
C96 C 0.78052 0.07915 0.70644 0.0
C97 C 0.8122 0.10659 0.7232 0.0
C98 C 0.0126 0.32368 0.74894 0.0
C99 C 0.06129 0.27275 0.70027 0.0
O100 O 0.13796 0.3671 0.75354 0.0
O101 O 0.16463 0.3186 0.76371 0.0
O102 O 0.05093 0.22028 0.73482 0.0
O103 O 0.09312 0.21911 0.76096 0.0
O104 O 0.05978 0.26285 0.79191 0.0
O105 O 0.983 0.2069 0.78136 0.0
O106 O 0.92897 0.15046 0.7434 0.0
O107 O 0.91038 0.20658 0.73602 0.0
O108 O 0.02399 0.29944 0.76181 0.0
O109 O -0.01315 0.29735 0.73268 0.0
O110 O 0.01672 0.23921 0.70669 0.0
O111 O 0.09321 0.29852 0.71603 0.0
H112 H 0.26636 0.43941 0.76027 0.0
H113 H 0.31526 0.48663 0.79157 0.0
H114 H 0.19165 0.40503 0.83397 0.0
H115 H 0.14311 0.35952 0.80259 0.0
H116 H 0.9199 0.14494 0.69706 0.0
H117 H 0.86469 0.09612 0.66775 0.0
H118 H 0.74175 0.06148 0.70923 0.0
H119 H 0.79745 0.10952 0.73867 0.0
Sm120 Sm 0.88629 0.07524 0.08724 0.0
Sm121 Sm 0.81521 0.97925 0.07662 0.0
C122 C 0.93176 0.17028 0.093 0.0
C123 C 0.93052 0.20202 0.11001 0.0
C124 C 0.88618 0.19505 0.11814 0.0
C125 C 0.88552 0.2214 0.13614 0.0
C126 C 0.9291 0.25469 0.1465 0.0
C127 C 0.97345 0.26306 0.13768 0.0
C128 C 0.9741 0.23705 0.11956 0.0
C129 C 0.92634 0.01818 0.07516 0.0
C130 C 0.85496 0.00303 0.13003 0.0
C131 C 0.75778 0.88401 1.07264 0.0
C132 C 0.73717 0.84591 1.05615 0.0
C133 C 0.73415 0.85728 1.03423 0.0
C134 C 0.7164 0.8208 1.01855 0.0
C135 C 0.70182 0.77251 1.02454 0.0
C136 C 0.70381 0.76114 1.04663 0.0
C137 C 0.72125 0.79768 1.06236 0.0
C138 C 0.77335 0.03635 0.08072 0.0
C139 C 0.86717 0.05284 1.0329 0.0
O140 O 0.89267 0.147 0.08097 0.0
O141 O 0.95028 0.14323 0.09894 0.0
O142 O 0.89132 0.01962 1.06672 0.0
O143 O 0.94425 0.05042 0.09058 0.0
O144 O 0.87652 0.04931 0.12397 0.0
O145 O 0.8318 0.96987 0.1145 0.0
O146 O 0.80458 0.90455 0.0759 0.0
O147 O 0.74208 0.91496 1.07249 0.0
O148 O 0.80433 0.0365 0.09423 0.0
O149 O 0.76683 0.00804 1.06439 0.0
O150 O 0.84149 0.00621 1.03948 0.0
O151 O 0.88446 0.08642 1.04853 0.0
H152 H 0.85192 0.16812 0.11108 0.0
H153 H 0.85083 0.21461 0.14235 0.0
H154 H 0.00766 0.28785 0.14545 0.0
H155 H 0.0086 0.2428 0.11357 0.0
H156 H 0.7466 0.89447 1.02919 0.0
H157 H 0.7165 0.83091 1.00157 0.0
H158 H 0.69309 0.72432 1.05162 0.0
H159 H 0.72336 0.78849 0.0793 0.0
Sm160 Sm 0.88176 0.89319 0.42264 0.0
Sm161 Sm 0.91506 0.82512 0.41266 0.0
C162 C 0.82913 0.93111 0.43639 0.0
C163 C 0.79594 0.92174 0.45461 0.0
C164 C 0.76063 0.93575 0.45295 0.0
C165 C 0.7278 0.92556 0.47001 0.0
C166 C 0.72992 0.9012 0.48897 0.0
C167 C 0.76479 0.88624 0.49023 0.0
C168 C 0.79733 0.89622 0.47316 0.0
C169 C 0.97627 0.93931 0.40825 0.0
C170 C 0.92838 0.85935 0.465 0.0
C171 C 0.95372 0.7733 0.39841 0.0
C172 C 0.96455 0.76031 0.37717 0.0
C173 C -0.00791 0.73708 0.37599 0.0
C174 C 0.00372 0.72596 0.35565 0.0
C175 C -0.01194 0.73827 0.33631 0.0
C176 C 0.95957 0.76067 0.33766 0.0
C177 C 0.94794 0.77161 0.35794 0.0
C178 C 0.82099 0.77964 0.42799 0.0
C179 C 0.88499 0.87653 0.36942 0.0
O180 O 0.81366 0.89614 0.42211 0.0
O181 O 0.87515 0.94936 0.44128 0.0
O182 O 0.95763 0.9032 0.42099 0.0
O183 O 0.94606 0.95474 0.40432 0.0
O184 O 0.9003 0.87772 0.45887 0.0
O185 O 0.94271 0.83978 0.44959 0.0
O186 O 0.97948 0.81912 0.40367 0.0
O187 O 0.90772 0.75472 0.40289 0.0
O188 O 0.83851 0.81334 0.41378 0.0
O189 O 0.85419 0.7707 0.43519 0.0
O190 O 0.90217 0.84762 0.37615 0.0
O191 O 0.87164 0.89708 0.3846 0.0
H192 H 0.75855 0.95465 0.4385 0.0
H193 H 0.70114 0.93718 0.46846 0.0
H194 H 0.76817 0.86827 0.50473 0.0
H195 H 0.82388 0.88442 0.47454 0.0
H196 H 0.00509 0.72812 0.39077 0.0
H197 H 0.02605 0.70906 0.35503 0.0
H198 H 0.94646 0.76995 0.32302 0.0
H199 H 0.92626 0.78914 0.35858 0.0
Sm200 Sm 0.05701 0.88041 0.7559 0.0
Sm201 Sm 0.15954 0.91089 0.74741 0.0
C202 C 0.96519 0.83433 0.76829 0.0
C203 C 0.93592 0.81546 0.78811 0.0
C204 C 0.89134 0.77202 0.78704 0.0
C205 C 0.86252 0.75351 0.80567 0.0
C206 C 0.87788 0.77855 0.82553 0.0
C207 C 0.92301 0.82167 0.82663 0.0
C208 C 0.95197 0.83991 0.80806 0.0
C209 C 0.10924 0.97104 0.73694 0.0
C210 C 0.13623 0.92885 0.79878 0.0
C211 C 0.25003 0.94734 0.73353 0.0
C212 C 0.27585 0.97082 0.71338 0.0
C213 C 0.32611 -0.01013 0.71195 0.0
C214 C 0.35072 0.01318 0.69276 0.0
C215 C 0.32518 0.01765 0.67485 0.0
C216 C 0.27464 -0.00207 0.6764 0.0
C217 C 0.2503 0.97494 0.69552 0.0
C218 C 0.10737 0.81697 0.76331 0.0
C219 C 0.08097 0.87921 0.70348 0.0
O220 O -0.01179 0.81189 0.76218 0.0
O221 O -0.00904 0.88164 0.76614 0.0
O222 O 0.12346 0.95425 0.7522 0.0
O223 O 0.06353 0.94143 0.73304 0.0
O224 O 0.08983 0.90403 0.79219 0.0
O225 O 0.1708 0.93865 0.78408 0.0
O226 O 0.2352 0.97208 0.74489 0.0
O227 O 0.21716 0.90146 0.73187 0.0
O228 O 0.09286 0.83551 0.7488 0.0
O229 O 0.14996 0.84899 0.77035 0.0
O230 O 0.12714 0.90204 0.71061 0.0
O231 O 0.04586 0.86212 0.71834 0.0
H232 H 0.8787 0.75261 0.77174 0.0
H233 H 0.82781 0.72032 0.80445 0.0
H234 H 0.93591 0.84121 0.84188 0.0
H235 H -0.01333 0.87314 0.80926 0.0
H236 H 0.34628 0.98705 0.72571 0.0
H237 H 0.38971 0.02841 0.69208 0.0
H238 H 0.25373 3e-05 0.66279 0.0
H239 H 0.21156 0.96068 0.69639 0.0
H240 H 0.89601 0.96381 1.03834 0.0
H241 H 0.94817 0.97705 1.007 0.0
H242 H 0.07399 0.05086 1.04871 0.0
H243 H 0.02226 0.04301 0.07951 0.0
H244 H 0.00384 0.07914 0.99927 0.0
H245 H 0.15474 0.03895 1.03117 0.0
H246 H 0.16047 0.96554 1.03868 0.0
H247 H 0.04426 0.88473 0.99334 0.0
H248 H 0.03741 0.95759 0.98587 0.0
H249 H 0.12942 0.13201 0.07392 0.0
H250 H 0.09114 0.14146 1.04138 0.0
H251 H 0.22594 0.19686 1.0062 0.0
H252 H 0.26605 0.19525 1.04017 0.0
H253 H 0.16726 0.09683 1.00166 0.0
H254 H 0.14186 0.21035 0.97394 0.0
H255 H 0.13414 0.28234 0.96618 0.0
H256 H 0.00232 0.22069 1.00336 0.0
H257 H 0.00976 0.14901 1.01195 0.0
C258 C 0.93487 0.98175 1.04101 0.0
C259 C 0.95541 0.00497 1.06104 0.0
C260 C 0.96449 0.98861 1.02304 0.0
C261 C 0.01488 0.01613 1.02535 0.0
C262 C 0.03501 0.03023 1.04648 0.0
C263 C 0.00548 0.02566 1.0642 0.0
C264 C 0.04538 0.04408 1.00658 0.0
C265 C 0.03983 0.08335 0.99959 0.0
C266 C 0.09071 0.04714 1.00379 0.0
C267 C 0.096 0.0039 1.0078 0.0
C268 C 0.13075 0.00568 1.02267 0.0
C269 C 0.13395 0.96405 1.02704 0.0
C270 C 0.10299 0.92057 1.01638 0.0
C271 C 0.06837 0.91849 1.00153 0.0
C272 C 0.06463 0.95986 0.99733 0.0
C273 C 0.15184 0.15004 1.05978 0.0
C274 C 0.1998 0.15975 1.059 0.0
C275 C 0.13001 0.15564 1.04095 0.0
C276 C 0.15483 0.1664 1.02082 0.0
C277 C 0.20545 0.18668 1.02131 0.0
C278 C 0.22808 0.18427 1.04064 0.0
C279 C 0.1268 0.13483 1.00226 0.0
C280 C 0.13158 0.0932 1.00057 0.0
C281 C 0.08101 0.12987 0.99748 0.0
C282 C 0.0763 0.17365 0.99339 0.0
C283 C 0.11144 0.21221 0.98067 0.0
C284 C 0.10704 0.25305 0.97609 0.0
C285 C 0.06757 0.25595 0.98414 0.0
C286 C 0.03269 0.21821 0.99698 0.0
C287 C 0.03695 0.17729 1.00166 0.0
H288 H 0.06408 0.2875 0.98048 0.0
H289 H 0.10568 0.88845 1.0197 0.0
H290 H -0.01276 0.8876 0.37473 0.0
H291 H 0.01442 0.93026 0.33971 0.0
H292 H 0.09782 0.06483 0.37454 0.0
H293 H 0.06168 0.02378 0.40857 0.0
H294 H 0.96845 -0.01129 0.34045 0.0
H295 H 0.17744 0.13713 0.34642 0.0
H296 H 0.25354 0.14313 0.33377 0.0
H297 H 0.1745 0.02925 0.2875 0.0
H298 H 0.09754 0.02189 0.30003 0.0
H299 H 0.08883 0.13493 0.4185 0.0
H300 H 0.03171 0.08331 0.39056 0.0
H301 H 0.07532 0.20807 0.34849 0.0
H302 H 0.12903 0.26037 0.37715 0.0
H303 H 0.114 0.15146 0.33586 0.0
H304 H 0.96519 0.13079 0.3464 0.0
H305 H 0.89032 0.12169 0.36231 0.0
H306 H 0.85139 0.97893 0.38559 0.0
H307 H 0.92601 0.98719 0.36992 0.0
C308 C 0.01134 0.92627 0.3748 0.0
C309 C 0.01825 0.95329 0.39391 0.0
C310 C 0.02826 0.95041 0.35475 0.0
C311 C 0.05569 0.00128 0.35429 0.0
C312 C 0.0749 0.02569 0.37422 0.0
C313 C 0.05453 0.00215 0.39395 0.0
C314 C 0.04599 0.02878 0.33714 0.0
C315 C 2e-05 0.02466 0.33947 0.0
C316 C 0.08497 0.07467 0.33133 0.0
C317 C 0.13153 0.07933 0.32399 0.0
C318 C 0.1761 0.11366 0.33337 0.0
C319 C 0.21947 0.11715 0.32629 0.0
C320 C 0.21893 0.08699 0.30968 0.0
C321 C 0.1749 0.05272 0.30032 0.0
C322 C 0.13134 0.04862 0.30752 0.0
C323 C 0.08397 0.15167 0.4039 0.0
C324 C 0.11486 0.20103 0.39946 0.0
C325 C 0.05127 0.12223 0.38786 0.0
C326 C 0.0509 0.14182 0.36711 0.0
C327 C 0.07552 0.19224 0.36425 0.0
C328 C 0.1067 0.22187 0.38059 0.0
C329 C 0.04065 0.11011 0.34798 0.0
C330 C 0.08183 0.11582 0.33688 0.0
C331 C -0.00281 0.06498 0.34702 0.0
C332 C 0.95134 0.05921 0.35648 0.0
C333 C 0.94076 0.09728 0.35484 0.0
C334 C 0.89821 0.09233 0.36385 0.0
C335 C 0.86591 0.04963 0.37484 0.0
C336 C 0.87621 0.01188 0.37689 0.0
C337 C 0.91859 0.01659 0.36778 0.0
H338 H 0.83304 0.04589 0.38186 0.0
H339 H 0.2526 0.08999 0.30415 0.0
H340 H 0.20573 0.03925 0.7402 0.0
H341 H 0.25854 0.09165 0.71126 0.0
H342 H 0.14054 0.01816 0.66485 0.0
H343 H 0.08784 0.97102 0.69402 0.0
H344 H 0.18047 0.08397 0.64199 0.0
H345 H 0.30661 0.19018 0.7191 0.0
H346 H 0.39446 0.22386 0.72449 0.0
H347 H 0.40922 0.19282 0.65768 0.0
H348 H 0.32166 0.16041 0.65167 0.0
H349 H 0.05321 0.18194 0.69981 0.0
H350 H 0.10734 0.17517 0.67444 0.0
H351 H 0.17622 0.14346 0.72836 0.0
H352 H 0.12756 0.15938 0.75417 0.0
H353 H 0.24475 0.20067 0.70222 0.0
H354 H 0.13515 0.14039 0.62478 0.0
H355 H 0.05175 0.10362 0.60999 0.0
H356 H -0.00454 0.0226 0.66964 0.0
H357 H 0.07845 0.05854 0.68464 0.0
C358 C 0.19129 0.03531 0.72378 0.0
C359 C 0.14215 0.00268 0.71957 0.0
C360 C 0.22173 0.06498 0.70698 0.0
C361 C 0.20349 0.0629 0.68557 0.0
C362 C 0.1561 0.02432 0.6811 0.0
C363 C 0.12524 -0.00312 0.69799 0.0
C364 C 0.22679 0.10682 0.67036 0.0
C365 C 0.19331 0.10861 0.65576 0.0
C366 C 0.25445 0.15141 0.68123 0.0
C367 C 0.30724 0.17205 0.68499 0.0
C368 C 0.32853 0.19092 0.70546 0.0
C369 C 0.37836 0.20978 0.70865 0.0
C370 C 0.40739 0.21028 0.69148 0.0
C371 C 0.38669 0.19215 0.67103 0.0
C372 C 0.33691 0.17333 0.66776 0.0
C373 C 0.08015 0.17397 0.70637 0.0
C374 C 0.08728 0.17303 0.72912 0.0
C375 C 0.11082 0.16937 0.69168 0.0
C376 C 0.14628 0.15892 0.69931 0.0
C377 C 0.15003 0.15286 0.72199 0.0
C378 C 0.12137 0.16066 0.73679 0.0
C379 C 0.17906 0.15291 0.68413 0.0
C380 C 0.22822 0.17196 0.69023 0.0
C381 C 0.16277 0.12434 0.66473 0.0
C382 C 0.1128 0.103 0.65598 0.0
C383 C 0.10489 0.11492 0.63475 0.0
C384 C 0.05772 0.09408 0.6263 0.0
C385 C 0.01828 0.06086 0.63888 0.0
C386 C 0.02596 0.04831 0.65991 0.0
C387 C 0.07304 0.06895 0.66839 0.0
H388 H 0.98179 0.04473 0.63233 0.0
H389 H 0.44593 0.22485 0.69399 0.0
H390 H 0.40915 0.43879 1.00773 0.0
H391 H 0.4009 0.48102 0.97575 0.0
H392 H 0.40958 0.37791 0.93337 0.0
H393 H 0.4192 0.33616 0.96516 0.0
H394 H 0.45393 0.5153 0.92947 0.0
H395 H 0.3016 0.33012 0.90779 0.0
H396 H 0.25092 0.25027 0.92548 0.0
H397 H 0.25028 0.32059 0.98502 0.0
H398 H 0.30074 0.4009 0.9676 0.0
H399 H 0.34939 0.46503 0.82178 0.0
H400 H 0.39129 0.47788 0.85668 0.0
H401 H 0.27764 0.49069 0.88856 0.0
H402 H 0.23603 0.47949 0.85349 0.0
H403 H 0.28653 0.41015 0.9014 0.0
H404 H 0.38789 0.58211 0.89182 0.0
H405 H 0.44595 0.65783 0.87291 0.0
H406 H 0.55245 0.61225 0.87325 0.0
H407 H 0.49477 0.53577 0.89172 0.0
C408 C 0.41118 0.42617 0.99159 0.0
C409 C 0.41399 0.38366 0.98894 0.0
C410 C 0.40656 0.45044 0.97337 0.0
C411 C 0.40443 0.43227 0.95237 0.0
C412 C 0.4112 0.3923 0.94955 0.0
C413 C 0.41608 0.36821 0.96771 0.0
C414 C 0.38623 0.44885 0.93394 0.0
C415 C 0.41732 0.49278 0.92329 0.0
C416 C 0.33836 0.41923 0.92622 0.0
C417 C 0.30511 0.37141 0.93643 0.0
C418 C 0.29019 0.3285 0.92458 0.0
C419 C 0.26165 0.28319 0.93458 0.0
C420 C 0.24755 0.28037 0.95638 0.0
C421 C 0.26141 0.32286 0.96816 0.0
C422 C 0.29002 0.36828 0.95824 0.0
C423 C 0.33431 0.47287 0.83597 0.0
C424 C 0.28881 0.47028 0.83492 0.0
C425 C 0.35841 0.48019 0.85595 0.0
C426 C 0.33734 0.4849 0.87515 0.0
C427 C 0.29436 0.48703 0.87386 0.0
C428 C 0.27046 0.48019 0.85385 0.0
C429 C 0.35422 0.47695 0.89653 0.0
C430 C 0.32283 0.4338 0.90772 0.0
C431 C 0.40204 0.50709 0.90439 0.0
C432 C 0.43673 0.55292 0.89304 0.0
C433 C 0.42348 0.58792 0.88765 0.0
C434 C 0.45639 0.63106 0.87702 0.0
C435 C 0.50282 0.63978 0.87182 0.0
C436 C 0.51645 0.6054 0.87724 0.0
C437 C 0.48365 0.56216 0.8878 0.0
H438 H 0.52828 0.67323 0.86363 0.0
H439 H 0.2261 0.24526 0.96417 0.0
H440 H 0.1205 0.45634 0.31503 0.0
H441 H 0.0694 0.43743 0.28243 0.0
H442 H 0.94962 0.32175 0.31757 0.0
H443 H 0.00077 0.3402 0.35017 0.0
H444 H 0.97801 0.29101 0.28202 0.0
H445 H 0.93678 0.41295 0.29695 0.0
H446 H 0.95259 0.49459 0.30703 0.0
H447 H 0.04095 0.55525 0.24985 0.0
H448 H 0.02629 0.47408 0.23957 0.0
H449 H 0.86627 0.21138 0.18053 0.0
H450 H 0.87411 0.24224 0.21756 0.0
H451 H 8e-05 0.37687 0.19809 0.0
H452 H -0.009 0.34725 0.16067 0.0
H453 H 0.95077 0.39357 0.22853 0.0
H454 H 0.01261 0.28355 0.21918 0.0
H455 H 0.01028 0.20702 0.20977 0.0
H456 H 0.89607 0.12953 0.25628 0.0
H457 H 0.89771 0.20566 0.266 0.0
C458 C 0.08286 0.4278 0.31594 0.0
C459 C 0.06466 0.39936 0.33497 0.0
C460 C 0.05357 0.41732 0.2974 0.0
C461 C 0.00574 0.37824 0.29765 0.0
C462 C -0.01362 0.35223 0.31715 0.0
C463 C 0.01558 0.3629 0.33575 0.0
C464 C 0.97989 0.35912 0.27673 0.0
C465 C 0.9705 0.3128 0.27057 0.0
C466 C 0.97208 0.38847 0.26159 0.0
C467 C 0.98058 0.43735 0.26755 0.0
C468 C 0.95983 0.44371 0.28659 0.0
C469 C 0.96855 0.48991 0.29232 0.0
C470 C -0.00219 0.53004 0.2791 0.0
C471 C 0.01827 0.52408 0.26007 0.0
C472 C 0.00969 0.47796 0.25425 0.0
C473 C 0.89463 0.24822 0.18388 0.0
C474 C 0.92851 0.27664 0.16771 0.0
C475 C 0.89931 0.2656 0.20514 0.0
C476 C 0.93831 0.31134 0.21066 0.0
C477 C 0.96988 0.34129 0.1942 0.0
C478 C 0.96497 0.32412 0.17288 0.0
C479 C 0.94966 0.32582 0.23382 0.0
C480 C 0.95667 0.37121 0.24029 0.0
C481 C 0.95664 0.2962 0.2492 0.0
C482 C 0.95474 0.25014 0.24305 0.0
C483 C -0.01333 0.2501 0.22725 0.0
C484 C -0.01437 0.20684 0.22194 0.0
C485 C 0.95298 0.16341 0.23241 0.0
C486 C 0.92136 0.16319 0.24823 0.0
C487 C 0.92234 0.20638 0.25365 0.0
H488 H 0.95223 0.12995 0.2283 0.0
H489 H 0.00462 0.56574 0.28362 0.0
H490 H 0.71699 0.98567 0.68918 0.0
H491 H 0.66921 0.93318 0.65883 0.0
H492 H 0.75882 0.0458 0.6128 0.0
H493 H 0.80584 0.09884 0.64288 0.0
H494 H 0.62907 0.96127 0.61113 0.0
H495 H 0.81 0.98292 0.59072 0.0
H496 H 0.88632 0.00165 0.60956 0.0
H497 H 0.80559 0.91916 0.6656 0.0
H498 H 0.72879 0.89919 0.64691 0.0
H499 H 0.70716 0.96746 0.50478 0.0
H500 H 0.67847 0.96888 0.54129 0.0
H501 H 0.65831 0.82624 0.55443 0.0
H502 H 0.68609 0.824 0.51748 0.0
H503 H 0.72856 0.89665 0.57927 0.0
H504 H 0.56408 0.845 0.56313 0.0
H505 H 0.49493 0.84093 0.54276 0.0
H506 H 0.5461 -0.00882 0.55657 0.0
H507 H 0.616 -0.00352 0.57671 0.0
C508 C 0.72552 -0.00024 0.67262 0.0
C509 C 0.76566 0.04603 0.66834 0.0
C510 C 0.69811 0.96982 0.65537 0.0
C511 C 0.71073 0.98586 0.63374 0.0
C512 C 0.74861 0.03309 0.62949 0.0
C513 C 0.77581 0.06301 0.64664 0.0
C514 C 0.69094 0.9516 0.61543 0.0
C515 C 0.64985 0.946 0.60423 0.0
C516 C 0.71821 0.93165 0.60681 0.0
C517 C 0.76375 0.93985 0.61749 0.0
C518 C 0.80855 0.96829 0.60695 0.0
C519 C 0.85187 0.97924 0.61762 0.0
C520 C 0.85079 0.96189 0.63881 0.0
C521 C 0.80637 0.93279 0.64923 0.0
C522 C 0.76294 0.92159 0.6386 0.0
C523 C 0.69444 0.93532 0.51497 0.0
C524 C 0.69999 0.89606 0.50841 0.0
C525 C 0.67779 0.93612 0.53591 0.0
C526 C 0.66649 0.89775 0.55062 0.0
C527 C 0.66691 0.85622 0.5433 0.0
C528 C 0.68328 0.85525 0.52229 0.0
C529 C 0.66688 0.90687 0.5743 0.0
C530 C 0.70545 0.90891 0.58649 0.0
C531 C 0.63749 0.92394 0.58355 0.0
C532 C 0.59541 0.92109 0.57147 0.0
C533 C 0.5608 0.87728 0.56172 0.0
C534 C 0.52141 0.87475 0.55022 0.0
C535 C 0.51612 0.91576 0.54838 0.0
C536 C 0.55019 0.95941 0.55804 0.0
C537 C 0.58966 0.96216 0.56956 0.0
H538 H 0.48561 0.91372 0.53946 0.0
H539 H 0.88439 0.9711 0.64717 0.0
H540 H 0.73842 0.71149 1.02148 0.0
H541 H 0.74857 0.67821 0.98749 0.0
H542 H 0.65595 0.72141 0.95411 0.0
H543 H 0.64476 0.75395 0.98821 0.0
H544 H 0.66324 0.64424 0.93246 0.0
H545 H 0.76298 0.80957 0.96102 0.0
H546 H 0.81185 0.86862 0.98958 0.0
H547 H 0.90526 0.80712 0.9936 0.0
H548 H 0.85657 0.74741 0.96516 0.0
H549 H 0.85392 0.83083 0.8522 0.0
H550 H 0.8073 0.80392 0.886 0.0
H551 H 0.78466 0.65941 0.87679 0.0
H552 H 0.83124 0.6863 0.84258 0.0
H553 H 0.83456 0.77302 0.9209 0.0
H554 H 0.67294 0.58045 0.90574 0.0
H555 H 0.62035 0.53067 0.87548 0.0
H556 H 0.64602 0.65985 0.84106 0.0
H557 H 0.69802 0.71031 0.87126 0.0
C558 C 0.71787 0.71135 1.00724 0.0
C559 C 0.69201 0.73661 1.00723 0.0
C560 C 0.72367 0.6922 0.98781 0.0
C561 C 0.704 0.69859 0.96829 0.0
C562 C 0.67162 0.71644 0.96904 0.0
C563 C 0.66572 0.73553 0.98846 0.0
C564 C 0.72796 0.70136 0.94738 0.0
C565 C 0.70093 0.67165 0.92991 0.0
C566 C 0.77671 0.73817 0.94405 0.0
C567 C 0.80581 0.77367 0.96124 0.0
C568 C 0.79369 0.8084 0.96815 0.0
C569 C 0.82137 0.84202 0.98427 0.0
C570 C 0.86148 0.84146 0.99348 0.0
C571 C 0.87407 0.80738 0.98651 0.0
C572 C 0.84646 0.77366 0.9704 0.0
C573 C 0.83884 0.79328 0.85734 0.0
C574 C 0.84661 0.76075 0.84504 0.0
C575 C 0.8121 0.7779 0.87655 0.0
C576 C 0.79282 0.72978 0.8839 0.0
C577 C 0.799 0.69659 0.87128 0.0
C578 C 0.8256 0.71197 0.85184 0.0
C579 C 0.76984 0.71634 0.90565 0.0
C580 C 0.7973 0.74434 0.92341 0.0
C581 C 0.72123 0.679 0.9089 0.0
C582 C 0.69005 0.64915 0.89061 0.0
C583 C 0.66735 0.59821 0.89171 0.0
C584 C 0.6376 0.56987 0.87458 0.0
C585 C 0.63013 0.5921 0.85629 0.0
C586 C 0.65216 0.6427 0.85515 0.0
C587 C 0.68181 0.67118 0.87227 0.0
H588 H 0.60705 0.5701 0.84305 0.0
H589 H 0.88291 0.86756 1.00594 0.0
H590 H 0.02279 0.80198 0.30239 0.0
H591 H 0.04674 0.78953 0.26641 0.0
H592 H 0.01286 0.64475 0.28526 0.0
H593 H -0.01144 0.65699 0.32171 0.0
H594 H 0.10092 0.69623 0.2632 0.0
H595 H 0.93654 0.652 0.24999 0.0
H596 H 0.86326 0.65954 0.25339 0.0
H597 H 0.93672 0.79912 0.22166 0.0
H598 H 0.01039 0.79253 0.21811 0.0
H599 H 0.11123 0.77699 0.13859 0.0
H600 H 0.07257 0.71502 0.16696 0.0
H601 H 0.18249 0.80834 0.21309 0.0
H602 H 0.22224 0.86963 0.18462 0.0
H603 H 0.03385 0.73773 0.19829 0.0
H604 H 0.18825 0.7516 0.25684 0.0
H605 H 0.26259 0.74602 0.25385 0.0
H606 H 0.20945 0.66546 0.19429 0.0
H607 H 0.13439 0.66983 0.19705 0.0
C608 C 0.01985 0.76724 0.29884 0.0
C609 C 0.00318 0.73019 0.3147 0.0
C610 C 0.03355 0.76016 0.2783 0.0
C611 C 0.03044 0.71577 0.27309 0.0
C612 C 0.01497 0.67898 0.289 0.0
C613 C 0.0013 0.68611 0.30973 0.0
C614 C 0.04485 0.70952 0.25101 0.0
C615 C 0.08599 0.70442 0.24884 0.0
C616 C 0.02383 0.71809 0.23228 0.0
C617 C 0.97897 0.72159 0.2337 0.0
C618 C 0.93702 0.68425 0.24369 0.0
C619 C 0.89539 0.68837 0.24564 0.0
C620 C 0.89525 0.72969 0.23766 0.0
C621 C 0.93671 0.76695 0.22767 0.0
C622 C 0.97837 0.76295 0.22561 0.0
C623 C 0.12846 0.78343 0.15451 0.0
C624 C 0.16923 0.82861 0.15954 0.0
C625 C 0.10623 0.7479 0.17072 0.0
C626 C 0.12441 0.75702 0.19217 0.0
C627 C 0.16802 0.80007 0.19661 0.0
C628 C 0.19032 0.83552 0.18041 0.0
C629 C 0.09276 0.72888 0.21068 0.0
C630 C 0.04798 0.72737 0.21227 0.0
C631 C 0.11049 0.71415 0.22876 0.0
C632 C 0.15553 0.71105 0.22717 0.0
C633 C 0.19212 0.73227 0.2432 0.0
C634 C 0.2345 0.72944 0.24151 0.0
C635 C 0.24075 0.70541 0.22389 0.0
C636 C 0.20461 0.68414 0.20792 0.0
C637 C 0.16216 0.68686 0.20952 0.0
H638 H 0.27359 0.70329 0.22262 0.0
H639 H 0.86306 0.73291 0.23926 0.0
H640 H 0.39802 0.01231 0.65334 0.0
H641 H 0.43368 0.04913 0.61785 0.0
H642 H 0.3455 0.11748 0.61558 0.0
H643 H 0.3091 0.07991 0.65044 0.0
H644 H 0.33452 0.06754 0.57985 0.0
H645 H 0.46825 0.18263 0.62415 0.0
H646 H 0.5336 0.20739 0.65154 0.0
H647 H 0.6018 0.14718 0.61215 0.0
H648 H 0.53644 0.12146 0.58465 0.0
H649 H 0.46119 0.26807 0.5049 0.0
H650 H 0.47357 0.23556 0.53918 0.0
H651 H 0.41902 0.09536 0.50922 0.0
H652 H 0.40493 0.12692 0.47522 0.0
H653 H 0.50748 0.17566 0.56006 0.0
H654 H 0.31811 0.02113 0.53789 0.0
H655 H 0.25149 0.00336 0.51191 0.0
H656 H 0.29269 0.15437 0.51027 0.0
H657 H 0.35884 0.17278 0.53655 0.0
C658 C 0.38696 0.0359 0.6454 0.0
C659 C 0.35065 0.0432 0.65459 0.0
C660 C 0.40738 0.05691 0.62518 0.0
C661 C 0.39212 0.08591 0.61411 0.0
C662 C 0.35752 0.0949 0.62378 0.0
C663 C 0.33679 0.07351 0.64371 0.0
C664 C 0.4084 0.10364 0.59161 0.0
C665 C 0.37242 0.09081 0.57555 0.0
C666 C 0.45781 0.13397 0.586 0.0
C667 C 0.49719 0.14965 0.60246 0.0
C668 C 0.49697 0.17431 0.62142 0.0
C669 C 0.53405 0.18859 0.63694 0.0
C670 C 0.57176 0.17875 0.63362 0.0
C671 C 0.57253 0.15472 0.61472 0.0
C672 C 0.5355 0.14031 0.59915 0.0
C673 C 0.45345 0.23076 0.5054 0.0
C674 C 0.43049 0.1996 0.48765 0.0
C675 C 0.46121 0.21243 0.52491 0.0
C676 C 0.44608 0.16285 0.52678 0.0
C677 C 0.43054 0.13369 0.50806 0.0
C678 C 0.42247 0.15187 0.4886 0.0
C679 C 0.43347 0.13975 0.54861 0.0
C680 C 0.46983 0.15146 0.56441 0.0
C681 C 0.38417 0.10923 0.55432 0.0
C682 C 0.34381 0.09837 0.53889 0.0
C683 C 0.31279 0.05045 0.53202 0.0
C684 C 0.27509 0.04027 0.51727 0.0
C685 C 0.26795 0.07772 0.50939 0.0
C686 C 0.29832 0.12541 0.51634 0.0
C687 C 0.33591 0.13573 0.53115 0.0
H688 H 0.23881 0.06976 0.49794 0.0
H689 H 0.60044 0.18983 0.64566 0.0
H690 H 0.387 0.06806 1.06571 0.0
H691 H 0.45609 0.054 1.06659 0.0
H692 H 0.50036 0.12591 0.12898 0.0
H693 H 0.43273 0.14212 0.12749 0.0
H694 H 0.57706 0.15516 0.10765 0.0
H695 H 0.44672 -0.00458 0.12096 0.0
H696 H 0.3675 0.92154 0.11511 0.0
H697 H 0.41518 0.90111 1.05259 0.0
H698 H 0.49449 0.97528 1.05793 0.0
H699 H 0.75424 0.07125 0.11911 0.0
H700 H 0.6854 0.08525 0.12548 0.0
H701 H 0.63955 0.04755 1.05853 0.0
H702 H 0.70738 0.03432 1.05208 0.0
H703 H 0.56357 -0.00177 0.08711 0.0
H704 H 0.69462 0.16435 0.07531 0.0
H705 H 0.77433 0.23489 0.0844 0.0
H706 H 0.72402 0.23824 0.14901 0.0
H707 H 0.64418 0.16724 0.14039 0.0
C708 C 0.411 0.08014 0.07978 0.0
C709 C 0.40402 0.10593 0.0966 0.0
C710 C 0.4507 0.07201 0.08034 0.0
C711 C 0.48384 0.08826 0.09802 0.0
C712 C 0.47595 0.113 0.11507 0.0
C713 C 0.43685 0.1219 0.11431 0.0
C714 C 0.52737 0.08097 0.09841 0.0
C715 C 0.57365 0.12046 0.1035 0.0
C716 C 0.52399 0.03595 0.09303 0.0
C717 C 0.47643 -0.00883 0.08977 0.0
C718 C 0.44021 0.97536 0.1059 0.0
C719 C 0.3953 0.9334 0.10268 0.0
C720 C 0.38628 0.90671 0.08347 0.0
C721 C 0.42221 0.92185 1.06745 0.0
C722 C 0.46717 0.96382 1.07058 0.0
C723 C 0.72983 0.06667 0.10573 0.0
C724 C 0.73637 0.05134 0.08512 0.0
C725 C 0.69032 0.07449 0.10938 0.0
C726 C 0.65666 0.06698 0.09252 0.0
C727 C 0.66432 0.05307 1.0719 0.0
C728 C 0.70354 0.04571 1.06824 0.0
C729 C 0.61282 0.0725 0.09588 0.0
C730 C 0.56656 0.03266 0.09148 0.0
C731 C 0.61614 0.11678 0.10234 0.0
C732 C 0.66363 0.16021 0.10728 0.0
C733 C 0.70065 0.17997 0.09149 0.0
C734 C 0.74584 0.22004 0.09656 0.0
C735 C 0.75429 0.24093 0.11729 0.0
C736 C 0.71745 0.22196 0.13297 0.0
C737 C 0.67222 0.18184 0.128 0.0
H738 H 0.78933 0.27187 0.1212 0.0
H739 H 0.35148 0.87425 0.081 0.0
H740 H 0.39193 0.44975 0.38491 0.0
H741 H 0.47487 0.51369 0.39105 0.0
H742 H 0.46856 0.46329 0.45736 0.0
H743 H 0.3835 0.39877 0.45134 0.0
H744 H 0.51252 0.56167 0.45615 0.0
H745 H 0.53554 0.44538 0.4184 0.0
H746 H 0.52277 0.38542 0.39004 0.0
H747 H 0.57037 0.4967 0.34061 0.0
H748 H 0.58275 0.55725 0.36862 0.0
H749 H 0.77669 0.71299 0.46059 0.0
H750 H 0.69284 0.64497 0.46152 0.0
H751 H 0.66367 0.69284 0.39997 0.0
H752 H 0.74718 0.76172 0.39924 0.0
H753 H 0.64046 0.59121 0.4022 0.0
H754 H 0.61445 0.70675 0.4421 0.0
H755 H 0.62963 0.76448 0.4719 0.0
H756 H 0.59126 0.65062 0.51938 0.0
H757 H 0.5768 0.59238 0.48988 0.0
C758 C 0.40801 0.45175 0.40083 0.0
C759 C 0.38087 0.41893 0.41763 0.0
C760 C 0.45584 0.48846 0.40429 0.0
C761 C 0.47866 0.49333 0.42459 0.0
C762 C 0.45195 0.46034 0.4415 0.0
C763 C 0.40348 0.42324 0.43802 0.0
C764 C 0.52992 0.53373 0.42773 0.0
C765 C 0.54071 0.56752 0.4446 0.0
C766 C 0.56698 0.54206 0.41259 0.0
C767 C 0.55976 0.50582 0.39563 0.0
C768 C 0.54296 0.45703 0.40146 0.0
C769 C 0.53584 0.42293 0.38545 0.0
C770 C 0.54567 0.43722 0.36353 0.0
C771 C 0.56275 0.48568 0.35759 0.0
C772 C 0.56989 0.51992 0.37354 0.0
C773 C 0.7521 0.70953 0.44746 0.0
C774 C 0.76856 0.74277 0.42985 0.0
C775 C 0.7042 0.67061 0.44801 0.0
C776 C 0.67191 0.66361 0.43079 0.0
C777 C 0.68792 0.69745 0.41343 0.0
C778 C 0.73557 0.73698 0.41309 0.0
C779 C 0.62252 0.61953 0.43021 0.0
C780 C 0.61229 0.58503 0.41383 0.0
C781 C 0.58648 0.61026 0.44603 0.0
C782 C 0.59509 0.64529 0.46377 0.0
C783 C 0.60977 0.69411 0.4589 0.0
C784 C 0.61815 0.72692 0.47574 0.0
C785 C 0.6115 0.71124 0.49752 0.0
C786 C 0.59645 0.66272 0.5025 0.0
C787 C 0.58817 0.6298 0.48573 0.0
H788 H 0.61783 0.73662 0.51053 0.0
H789 H 0.54013 0.41077 0.35116 0.0
H790 H 0.98312 0.37469 0.72355 0.0
H791 H -0.00142 0.45726 0.72848 0.0
H792 H 0.08034 0.47053 0.78717 0.0
H793 H 0.06426 0.38676 0.7824 0.0
H794 H 0.02184 0.50989 0.79272 0.0
H795 H 0.13865 0.52557 0.74032 0.0
H796 H 0.16913 0.50664 0.70702 0.0
H797 H 0.08055 0.54414 0.66725 0.0
H798 H 0.04893 0.56259 0.70035 0.0
H799 H 0.13489 0.77118 0.79329 0.0
H800 H 0.11643 0.6865 0.79321 0.0
H801 H 0.02488 0.65878 0.73655 0.0
H802 H 0.04296 0.74352 0.73668 0.0
H803 H 0.09208 0.62798 0.73134 0.0
H804 H 0.97504 0.61143 0.78509 0.0
H805 H 0.9476 0.63177 0.81896 0.0
H806 H 0.04164 0.59844 0.85691 0.0
H807 H 0.0702 0.57856 0.82322 0.0
C808 C 0.0044 0.39503 0.73755 0.0
C809 C 0.02254 0.37411 0.75256 0.0
C810 C 0.01338 0.44247 0.7403 0.0
C811 C 0.04119 0.47063 0.75804 0.0
C812 C 0.05885 0.44965 0.77332 0.0
C813 C 0.04977 0.40185 0.77056 0.0
C814 C 0.05172 0.5219 0.76025 0.0
C815 C 0.03793 0.53593 0.77943 0.0
C816 C 0.07206 0.55593 0.74283 0.0
C817 C 0.09108 0.54505 0.72284 0.0
C818 C 0.12537 0.52941 0.72448 0.0
C819 C 0.1429 0.51883 0.70564 0.0
C820 C 0.1267 0.52408 0.68503 0.0
C821 C 0.09302 0.54004 0.68322 0.0
C822 C 0.07531 0.55061 0.70202 0.0
C823 C 0.11013 0.74683 0.78104 0.0
C824 C 0.09041 0.76411 0.76499 0.0
C825 C 0.09959 0.69837 0.78102 0.0
C826 C 0.06927 0.66609 0.76486 0.0
C827 C 0.04845 0.68295 0.74916 0.0
C828 C 0.05855 0.73133 0.74933 0.0
C829 C 0.06149 0.6157 0.76364 0.0
C830 C 0.07603 0.60194 0.74464 0.0
C831 C 0.04238 0.58223 0.78132 0.0
C832 C 0.02513 0.59398 0.8016 0.0
C833 C -0.00981 0.60884 0.80064 0.0
C834 C 0.97437 0.62021 0.81981 0.0
C835 C -0.00704 0.61653 0.84007 0.0
C836 C 0.02732 0.60134 0.8412 0.0
C837 C 0.04331 0.58998 0.82207 0.0
H838 H 0.98066 0.62534 0.85489 0.0
H839 H 0.14033 0.51587 0.67046 0.0
H840 H 0.3419 0.24052 0.15299 0.0
H841 H 0.33564 0.26236 0.19089 0.0
H842 H 0.21479 0.11892 0.20188 0.0
H843 H 0.22189 0.09656 0.16415 0.0
H844 H 0.19481 0.18458 0.2223 0.0
H845 H 0.33076 0.15828 0.22474 0.0
H846 H 0.41072 0.17066 0.2138 0.0
H847 H 0.47718 0.32182 0.23012 0.0
H848 H 0.39745 0.31047 0.24089 0.0
H849 H 0.20787 0.30091 0.32734 0.0
H850 H 0.21164 0.27943 0.28916 0.0
H851 H 0.30287 0.22118 0.30874 0.0
H852 H 0.29953 0.24317 0.34671 0.0
H853 H 0.33602 0.25408 0.27257 0.0
H854 H 0.17086 0.25548 0.2393 0.0
H855 H 0.08677 0.23426 0.24814 0.0
H856 H 0.07458 0.12269 0.29212 0.0
H857 H 0.15949 0.14473 0.28428 0.0
C858 C 0.31395 0.21315 0.16334 0.0
C859 C 0.28272 0.16618 0.15463 0.0
C860 C 0.31035 0.22589 0.18547 0.0
C861 C 0.27463 0.19285 0.20034 0.0
C862 C 0.24293 0.14612 0.19154 0.0
C863 C 0.24722 0.13304 0.16956 0.0
C864 C 0.27053 0.20665 0.22463 0.0
C865 C 0.22613 0.2 0.23308 0.0
C866 C 0.31017 0.2267 0.23982 0.0
C867 C 0.35808 0.23362 0.23341 0.0
C868 C 0.36238 0.19424 0.22583 0.0
C869 C 0.40766 0.20106 0.21969 0.0
C870 C 0.44899 0.24703 0.22121 0.0
C871 C 0.44513 0.28625 0.22892 0.0
C872 C 0.3999 0.27964 0.23506 0.0
C873 C 0.22883 0.28346 0.32371 0.0
C874 C 0.25343 0.27446 0.34107 0.0
C875 C 0.23055 0.27024 0.30139 0.0
C876 C 0.25697 0.24702 0.29481 0.0
C877 C 0.28189 0.23866 0.31223 0.0
C878 C 0.27987 0.25148 0.33449 0.0
C879 C 0.26026 0.23284 0.27037 0.0
C880 C 0.30464 0.23913 0.26185 0.0
C881 C 0.2206 0.21267 0.25507 0.0
C882 C 0.17152 0.20214 0.26144 0.0
C883 C 0.15045 0.22697 0.25115 0.0
C884 C 0.10281 0.21497 0.25607 0.0
C885 C 0.07564 0.17759 0.27096 0.0
C886 C 0.09618 0.15238 0.28106 0.0
C887 C 0.14414 0.16484 0.27652 0.0
H888 H 0.03854 0.16787 0.2745 0.0
H889 H 0.48402 0.25223 0.21645 0.0
H890 H 0.16611 0.34047 0.48258 0.0
H891 H 0.14066 0.3366 0.52072 0.0
H892 H 0.21106 0.25517 0.5382 0.0
H893 H 0.2374 0.26002 0.50012 0.0
H894 H 0.22277 0.3038 0.57207 0.0
H895 H 0.05485 0.32587 0.5578 0.0
H896 H -0.00885 0.30643 0.52999 0.0
H897 H 0.01018 0.19027 0.50609 0.0
H898 H 0.07358 0.20867 0.53391 0.0
H899 H 0.14982 0.33848 0.67987 0.0
H900 H 0.17553 0.34433 0.64169 0.0
H901 H 0.03665 0.22155 0.62542 0.0
H902 H 0.01044 0.21679 0.66354 0.0
H903 H 0.05773 0.27077 0.59089 0.0
H904 H 0.16098 0.2287 0.63073 0.0
H905 H 0.22119 0.236 0.65826 0.0
H906 H 0.32591 0.37396 0.63123 0.0
H907 H 0.26612 0.36797 0.60365 0.0
C908 C 0.17642 0.32158 0.49438 0.0
C909 C 0.20438 0.3006 0.48729 0.0
C910 C 0.16114 0.31888 0.51669 0.0
C911 C 0.17231 0.29461 0.53354 0.0
C912 C 0.20088 0.27426 0.52645 0.0
C913 C 0.21617 0.27697 0.50415 0.0
C914 C 0.15506 0.29076 0.55807 0.0
C915 C 0.18662 0.29694 0.57587 0.0
C916 C 0.10748 0.2805 0.56444 0.0
C917 C 0.06931 0.26903 0.54776 0.0
C918 C 0.04534 0.29611 0.54664 0.0
C919 C 0.00931 0.28529 0.53087 0.0
C920 C -0.00324 0.24726 0.51623 0.0
C921 C 0.02007 0.21984 0.51738 0.0
C922 C 0.05608 0.23048 0.53313 0.0
C923 C 0.12429 0.31257 0.6683 0.0
C924 C 0.07734 0.27721 0.67572 0.0
C925 C 0.1395 0.3156 0.64598 0.0
C926 C 0.10919 0.28296 0.62946 0.0
C927 C 0.06203 0.24788 0.63689 0.0
C928 C 0.04671 0.24505 0.6592 0.0
C929 C 0.12597 0.28537 0.60493 0.0
C930 C 0.09415 0.27842 0.58712 0.0
C931 C 0.17308 0.29409 0.59856 0.0
C932 C 0.20891 0.29804 0.61523 0.0
C933 C 0.19675 0.2607 0.63071 0.0
C934 C 0.23081 0.26458 0.64633 0.0
C935 C 0.2773 0.30533 0.64653 0.0
C936 C 0.28986 0.3424 0.63108 0.0
C937 C 0.2559 0.33881 0.61544 0.0
H938 H 0.30359 0.30815 0.65864 0.0
H939 H 0.96888 0.23896 0.50403 0.0
H940 H 0.9245 0.16459 0.81632 0.0
H941 H 0.90221 0.13699 0.85426 0.0
H942 H 0.05291 0.21781 0.87286 0.0
H943 H 0.07464 0.24747 0.83516 0.0
H944 H 0.90334 0.08506 0.88338 0.0
H945 H 0.07332 0.22815 0.92824 0.0
H946 H 0.13712 0.31431 0.92515 0.0
H947 H 0.04052 0.34507 0.88774 0.0
H948 H 0.97602 0.25919 0.89081 0.0
H949 H 0.87109 -0.00013 0.99665 0.0
H950 H 0.89826 0.02686 0.95903 0.0
H951 H 0.92306 0.16944 0.97462 0.0
H952 H 0.89909 0.14315 1.01252 0.0
H953 H 0.98449 0.19033 0.94706 0.0
H954 H 0.81756 0.06152 0.93747 0.0
H955 H 0.74911 0.9777 0.9415 0.0
H956 H 0.83093 0.92292 0.90875 0.0
H957 H 0.89996 0.00641 0.90468 0.0
C958 C 0.95325 0.17717 0.8284 0.0
C959 C 0.00188 0.20936 0.82174 0.0
C960 C 0.94025 0.16081 0.85063 0.0
C961 C 0.97487 0.17511 0.86794 0.0
C962 C 0.02376 0.20649 0.86109 0.0
C963 C 0.03668 0.22346 0.8389 0.0
C964 C 0.95974 0.15677 0.8924 0.0
C965 C 0.92161 0.10879 0.89707 0.0
C966 C 0.98175 0.18566 0.91152 0.0
C967 C 0.02011 0.23722 0.90956 0.0
C968 C 0.0657 0.25337 0.91941 0.0
C969 C 0.10197 0.30212 0.91765 0.0
C970 C 0.09292 0.33511 0.9062 0.0
C971 C 0.04753 0.31945 0.89654 0.0
C972 C 0.01112 0.27074 0.89827 0.0
C973 C 0.88178 0.03695 0.99217 0.0
C974 C 0.88141 0.06844 1.00843 0.0
C975 C 0.89731 0.05277 0.97006 0.0
C976 C 0.91217 0.10083 0.96241 0.0
C977 C 0.91214 0.13222 0.97887 0.0
C978 C 0.89772 0.11674 1.00104 0.0
C979 C 0.92798 0.11877 0.93799 0.0
C980 C 0.96622 0.16666 0.93335 0.0
C981 C 0.90569 0.09001 0.9189 0.0
C982 C 0.86397 0.04008 0.92093 0.0
C983 C 0.82091 0.03156 0.93116 0.0
C984 C 0.78205 0.98413 0.93346 0.0
C985 C 0.78572 0.94501 0.92544 0.0
C986 C 0.82816 0.95325 0.91498 0.0
C987 C 0.86713 0.0006 0.91264 0.0
H988 H 0.75566 0.90831 0.92729 0.0
H989 H 0.12105 0.37283 0.90483 0.0
H990 H 0.90777 0.06124 0.16568 0.0
H991 H 0.91396 0.03942 0.20362 0.0
H992 H 0.81306 0.88932 0.18952 0.0
H993 H 0.80866 0.91112 0.15127 0.0
H994 H 0.8737 0.01378 0.23818 0.0
H995 H 0.8076 0.80821 0.22985 0.0
H996 H 0.81057 0.75144 0.20346 0.0
H997 H 0.93712 0.86902 0.17363 0.0
H998 H 0.93526 0.92637 0.20001 0.0
H999 H 0.83861 0.9224 0.34927 0.0
H1000 H 0.83486 0.94294 0.31099 0.0
H1001 H 0.92125 0.87897 0.29297 0.0
H1002 H 0.92404 0.85745 0.33154 0.0
H1003 H 0.87218 0.8626 0.26007 0.0
H1004 H 0.96272 0.02982 0.28597 0.0
H1005 H 0.98436 0.10537 0.3058 0.0
H1006 H 0.83886 0.07902 0.29785 0.0
H1007 H 0.81697 0.00441 0.27713 0.0
C1008 C 0.88689 0.02333 0.1704 0.0
C1009 C 0.85778 0.98847 0.15441 0.0
C1010 C 0.89034 0.01052 0.19267 0.0
C1011 C 0.86484 0.96185 0.20073 0.0
C1012 C 0.83503 0.92704 0.18475 0.0
C1013 C 0.83197 0.93983 0.16238 0.0
C1014 C 0.86883 0.9486 0.22543 0.0
C1015 C 0.87299 0.98027 0.24258 0.0
C1016 C 0.86961 0.9058 0.23269 0.0
C1017 C 0.8708 0.87167 0.2167 0.0
C1018 C 0.83603 0.82194 0.21765 0.0
C1019 C 0.83751 0.78967 0.20269 0.0
C1020 C 0.8738 0.80667 0.18678 0.0
C1021 C 0.90884 0.85595 0.18587 0.0
C1022 C 0.90756 0.88836 0.20081 0.0
C1023 C 0.85734 0.91275 0.33736 0.0
C1024 C 0.88194 0.88798 0.34454 0.0
C1025 C 0.85562 0.92531 0.31488 0.0
C1026 C 0.8786 0.91431 0.29772 0.0
C1027 C 0.90273 0.88886 0.30489 0.0
C1028 C 0.90439 0.87621 0.32747 0.0
C1029 C 0.87606 0.92745 0.27283 0.0
C1030 C 0.87232 0.89579 0.25564 0.0
C1031 C 0.87734 0.97107 0.26538 0.0
C1032 C 0.88801 0.01123 0.28043 0.0
C1033 C 0.93516 0.03973 0.28881 0.0
C1034 C 0.94763 0.08268 0.29993 0.0
C1035 C 0.91295 0.09686 0.30312 0.0
C1036 C 0.86562 0.06792 0.29539 0.0
C1037 C 0.85326 0.02554 0.28382 0.0
H1038 H 0.92279 0.13043 0.31149 0.0
H1039 H 0.87494 0.78161 0.17525 0.0
H1040 H 0.98156 0.82034 0.48529 0.0
H1041 H 0.0068 0.82339 0.52348 0.0
H1042 H 0.93953 0.90772 0.53983 0.0
H1043 H 0.91265 0.90295 0.5017 0.0
H1044 H 0.92863 0.86309 0.57398 0.0
H1045 H 0.0885 0.82689 0.56066 0.0
H1046 H 0.15251 0.84461 0.53354 0.0
H1047 H 0.14254 0.96701 0.50968 0.0
H1048 H 0.07867 0.95016 0.53674 0.0
H1049 H -0.00888 0.82347 0.68276 0.0
H1050 H 0.96769 0.81925 0.64438 0.0
H1051 H 0.11472 0.92586 0.62787 0.0
H1052 H 0.13888 0.92703 0.66628 0.0
H1053 H 0.08845 0.88179 0.59365 0.0
H1054 H -0.00372 0.93814 0.63166 0.0
H1055 H 0.94018 0.93686 0.65967 0.0
H1056 H 0.82574 0.80266 0.63406 0.0
H1057 H 0.8815 0.80224 0.6063 0.0
C1058 C 0.97194 0.83974 0.49686 0.0
C1059 C 0.94458 0.86144 0.48946 0.0
C1060 C -0.01281 0.84203 0.5192 0.0
C1061 C 0.97692 0.8669 0.53575 0.0
C1062 C 0.94903 0.88811 0.52833 0.0
C1063 C 0.93345 0.8855 0.50601 0.0
C1064 C -0.00594 0.8701 0.56034 0.0
C1065 C 0.96366 0.86692 0.57795 0.0
C1066 C 0.04044 0.87682 0.56696 0.0
C1067 C 0.0784 0.88686 0.55054 0.0
C1068 C 0.09998 0.85756 0.54962 0.0
C1069 C 0.1362 0.86745 0.53426 0.0
C1070 C 0.15138 0.90676 0.51983 0.0
C1071 C 0.13051 0.93639 0.52078 0.0
C1072 C 0.09424 0.92663 0.53609 0.0
C1073 C 0.01897 0.84609 0.67111 0.0
C1074 C 0.06739 0.87586 0.6786 0.0
C1075 C 0.00509 0.84426 0.64863 0.0
C1076 C 0.03821 0.87347 0.63197 0.0
C1077 C 0.087 0.90262 0.63943 0.0
C1078 C 0.10116 0.9035 0.66191 0.0
C1079 C 0.02237 0.8732 0.60734 0.0
C1080 C 0.05317 0.87736 0.58971 0.0
C1081 C 0.97706 0.86923 0.60069 0.0
C1082 C 0.94325 0.86985 0.61707 0.0
C1083 C 0.95924 0.90819 0.63208 0.0
C1084 C 0.92754 0.90772 0.64794 0.0
C1085 C 0.87951 0.86966 0.64868 0.0
C1086 C 0.86301 0.83203 0.63351 0.0
C1087 C 0.89467 0.83204 0.61775 0.0
H1088 H 0.85505 0.86939 0.66097 0.0
H1089 H 0.1794 0.9143 0.50794 0.0
H1090 H 0.22727 0.97366 0.8199 0.0
H1091 H 0.24966 0.00214 0.85764 0.0
H1092 H 0.10015 0.95431 0.87205 0.0
H1093 H 0.07767 0.92576 0.83415 0.0
H1094 H 0.14878 0.03386 0.89455 0.0
H1095 H 0.17092 0.89574 0.89156 0.0
H1096 H 0.20329 0.84487 0.87766 0.0
H1097 H 0.34878 0.95958 0.8903 0.0
H1098 H 0.31726 0.01137 0.90402 0.0
H1099 H 0.23846 0.00671 1.0146 0.0
H1100 H 0.21566 0.98144 0.97655 0.0
H1101 H 0.25364 0.12757 0.95891 0.0
H1102 H 0.27646 0.15293 0.9972 0.0
H1103 H 0.25857 -0.00257 0.93834 0.0
H1104 H 0.21377 0.13956 0.92281 0.0
H1105 H 0.16558 0.17801 0.93304 0.0
H1106 H 0.0512 0.04062 0.95642 0.0
H1107 H 0.09953 0.00193 0.94715 0.0
C1108 C 0.19867 0.96875 0.83094 0.0
C1109 C 0.15007 0.94648 0.82305 0.0
C1110 C 0.21174 0.98516 0.85307 0.0
C1111 C 0.17719 0.98067 0.86897 0.0
C1112 C 0.12865 0.95901 0.86099 0.0
C1113 C 0.11549 0.94216 0.83887 0.0
C1114 C 0.19137 -0.00162 0.89336 0.0
C1115 C 0.17324 0.02585 0.90379 0.0
C1116 C 0.22272 0.98857 0.9068 0.0
C1117 C 0.24176 0.95758 0.8986 0.0
C1118 C 0.20983 0.91022 0.89123 0.0
C1119 C 0.22802 0.88121 0.88341 0.0
C1120 C 0.27807 0.89903 0.88304 0.0
C1121 C 0.31002 0.94586 0.89056 0.0
C1122 C 0.29202 0.97504 0.89837 0.0
C1123 C 0.242 0.03393 1.00281 0.0
C1124 C 0.25959 0.0824 1.00996 0.0
C1125 C 0.22872 0.01913 0.98055 0.0
C1126 C 0.23133 0.05151 0.96372 0.0
C1127 C 0.24931 0.10026 0.97078 0.0
C1128 C 0.26333 0.11529 0.99311 0.0
C1129 C 0.21736 0.03439 0.93926 0.0
C1130 C 0.23499 0.00631 0.92892 0.0
C1131 C 0.18551 0.04351 0.92589 0.0
C1132 C 0.16056 0.06821 0.93473 0.0
C1133 C 0.17888 0.11795 0.93068 0.0
C1134 C 0.15156 0.13974 0.93626 0.0
C1135 C 0.10544 0.1118 0.9454 0.0
C1136 C 0.08705 0.06229 0.94947 0.0
C1137 C 0.11464 0.04056 0.94434 0.0
H1138 H 0.08381 0.12842 0.94916 0.0
H1139 H 0.29208 0.87651 0.87698 0.0
loop_
_geom_bond_atom_site_label_1
_geom_bond_atom_site_label_2
_geom_bond_distance
_geom_bond_site_symmetry_2
_ccdc_geom_bond_type
Sm0 C2 2.846 . S
Sm0 O20 2.543 . S
Sm0 O21 2.450 . S
Sm0 O22 2.681 1_554 S
Sm0 O23 2.464 . S
Sm0 O24 2.396 . S
Sm0 O28 2.386 . S
Sm0 O31 2.408 1_554 S
Sm1 C11 2.846 . S
Sm1 O22 2.386 . S
Sm1 O25 2.408 1_556 S
Sm1 O26 2.543 . S
Sm1 O27 2.450 . S
Sm1 O28 2.681 1_556 S
Sm1 O29 2.464 . S
Sm1 O30 2.396 . S
C2 Sm0 2.846 . S
C2 C3 1.506 . S
C2 O20 1.261 . S
C2 O21 1.242 . S
C3 C2 1.506 . S
C3 C4 1.358 . S
C3 C8 1.382 . S
C4 C3 1.358 . S
C4 C5 1.385 . S
C4 H32 0.930 . S
C5 C4 1.385 . S
C5 C6 1.395 . S
C5 H33 0.929 . S
C6 C5 1.395 . S
C6 C7 1.335 . S
C7 C6 1.335 . S
C7 C8 1.398 . S
C7 H34 0.930 1_545 S
C8 C3 1.382 . S
C8 C7 1.398 . S
C8 H35 0.929 . S
C9 O22 1.271 1_554 S
C9 O23 1.251 . S
C10 O24 1.252 . S
C10 O25 1.272 . S
C11 Sm1 2.846 . S
C11 C12 1.506 . S
C11 O26 1.261 . S
C11 O27 1.242 . S
C12 C11 1.506 . S
C12 C13 1.358 . S
C12 C17 1.382 . S
C13 C12 1.358 . S
C13 C14 1.385 . S
C13 H36 0.930 . S
C14 C13 1.385 . S
C14 C15 1.395 . S
C14 H37 0.929 . S
C15 C14 1.395 . S
C15 C16 1.335 . S
C16 C15 1.335 . S
C16 C17 1.398 . S
C16 H38 0.930 . S
C17 C12 1.382 . S
C17 C16 1.398 . S
C17 H39 0.929 . S
C18 O28 1.271 . S
C18 O29 1.251 1_554 S
C19 O30 1.252 . S
C19 O31 1.272 . S
O20 Sm0 2.543 . S
O20 C2 1.261 . S
O21 Sm0 2.450 . S
O21 C2 1.242 . S
O22 Sm0 2.681 1_556 S
O22 Sm1 2.386 . S
O22 C9 1.271 1_556 S
O23 Sm0 2.464 . S
O23 C9 1.251 . S
O24 Sm0 2.396 . S
O24 C10 1.252 . S
O25 Sm1 2.408 1_554 S
O25 C10 1.272 . S
O26 Sm1 2.543 . S
O26 C11 1.261 . S
O27 Sm1 2.450 . S
O27 C11 1.242 . S
O28 Sm0 2.386 . S
O28 Sm1 2.681 1_554 S
O28 C18 1.271 . S
O29 Sm1 2.464 . S
O29 C18 1.251 1_556 S
O30 Sm1 2.396 . S
O30 C19 1.252 . S
O31 Sm0 2.408 1_556 S
O31 C19 1.272 . S
H32 C4 0.930 . S
H33 C5 0.929 . S
H34 C7 0.930 1_565 S
H35 C8 0.929 . S
H36 C13 0.930 . S
H37 C14 0.929 . S
H38 C16 0.930 . S
H39 C17 0.929 . S
Sm40 C42 2.846 . S
Sm40 O60 2.543 . S
Sm40 O61 2.450 . S
Sm40 O62 2.681 . S
Sm40 O63 2.464 . S
Sm40 O64 2.396 . S
Sm40 O68 2.386 . S
Sm40 O71 2.408 . S
Sm41 C51 2.846 . S
Sm41 O62 2.386 . S
Sm41 O65 2.408 . S
Sm41 O66 2.543 . S
Sm41 O67 2.450 . S
Sm41 O68 2.681 . S
Sm41 O69 2.464 . S
Sm41 O70 2.396 . S
C42 Sm40 2.846 . S
C42 C43 1.506 . S
C42 O60 1.261 . S
C42 O61 1.242 . S
C43 C42 1.506 . S
C43 C44 1.358 . S
C43 C48 1.382 . S
C44 C43 1.358 . S
C44 C45 1.385 . S
C44 H72 0.930 . S
C45 C44 1.385 . S
C45 C46 1.395 . S
C45 H73 0.929 . S
C46 C45 1.395 . S
C46 C47 1.335 . S
C47 C46 1.335 . S
C47 C48 1.398 . S
C47 H74 0.930 . S
C48 C43 1.382 . S
C48 C47 1.398 . S
C48 H75 0.929 . S
C49 O62 1.271 . S
C49 O63 1.251 . S
C50 O64 1.252 . S
C50 O65 1.272 . S
C51 Sm41 2.846 . S
C51 C52 1.506 . S
C51 O66 1.261 . S
C51 O67 1.242 . S
C52 C51 1.506 . S
C52 C53 1.358 . S
C52 C57 1.382 . S
C53 C52 1.358 . S
C53 C54 1.385 . S
C53 H76 0.930 . S
C54 C53 1.385 . S
C54 C55 1.395 . S
C54 H77 0.929 . S
C55 C54 1.395 . S
C55 C56 1.335 . S
C56 C55 1.335 . S
C56 C57 1.398 . S
C56 H78 0.930 . S
C57 C52 1.382 . S
C57 C56 1.398 . S
C57 H79 0.929 . S
C58 O68 1.271 . S
C58 O69 1.251 . S
C59 O70 1.252 . S
C59 O71 1.272 . S
O60 Sm40 2.543 . S
O60 C42 1.261 . S
O61 Sm40 2.450 . S
O61 C42 1.242 . S
O62 Sm40 2.681 . S
O62 Sm41 2.386 . S
O62 C49 1.271 . S
O63 Sm40 2.464 . S
O63 C49 1.251 . S
O64 Sm40 2.396 . S
O64 C50 1.252 . S
O65 Sm41 2.408 . S
O65 C50 1.272 . S
O66 Sm41 2.543 . S
O66 C51 1.261 . S
O67 Sm41 2.450 . S
O67 C51 1.242 . S
O68 Sm40 2.386 . S
O68 Sm41 2.681 . S
O68 C58 1.271 . S
O69 Sm41 2.464 . S
O69 C58 1.251 . S
O70 Sm41 2.396 . S
O70 C59 1.252 . S
O71 Sm40 2.408 . S
O71 C59 1.272 . S
H72 C44 0.930 . S
H73 C45 0.929 . S
H74 C47 0.930 . S
H75 C48 0.929 . S
H76 C53 0.930 . S
H77 C54 0.929 . S
H78 C56 0.930 . S
H79 C57 0.929 . S
Sm80 C82 2.846 . S
Sm80 O100 2.543 . S
Sm80 O101 2.450 . S
Sm80 O102 2.681 1_455 S
Sm80 O103 2.464 . S
Sm80 O104 2.396 1_455 S
Sm80 O108 2.386 . S
Sm80 O111 2.408 . S
Sm81 C91 2.846 . S
Sm81 O102 2.386 . S
Sm81 O105 2.408 . S
Sm81 O106 2.543 . S
Sm81 O107 2.450 . S
Sm81 O108 2.681 1_655 S
Sm81 O109 2.464 . S
Sm81 O110 2.396 1_655 S
C82 Sm80 2.846 . S
C82 C83 1.506 . S
C82 O100 1.261 . S
C82 O101 1.242 . S
C83 C82 1.506 . S
C83 C84 1.358 . S
C83 C88 1.382 . S
C84 C83 1.358 . S
C84 C85 1.385 . S
C84 H112 0.930 . S
C85 C84 1.385 . S
C85 C86 1.395 . S
C85 H113 0.929 . S
C86 C85 1.395 . S
C86 C87 1.335 . S
C87 C86 1.335 . S
C87 C88 1.398 . S
C87 H114 0.930 . S
C88 C83 1.382 . S
C88 C87 1.398 . S
C88 H115 0.929 . S
C89 O102 1.271 1_455 S
C89 O103 1.251 . S
C90 O104 1.252 . S
C90 O105 1.272 . S
C91 Sm81 2.846 . S
C91 C92 1.506 . S
C91 O106 1.261 . S
C91 O107 1.242 . S
C92 C91 1.506 . S
C92 C93 1.358 . S
C92 C97 1.382 . S
C93 C92 1.358 . S
C93 C94 1.385 . S
C93 H116 0.930 . S
C94 C93 1.385 . S
C94 C95 1.395 . S
C94 H117 0.929 . S
C95 C94 1.395 . S
C95 C96 1.335 . S
C96 C95 1.335 . S
C96 C97 1.398 . S
C96 H118 0.930 . S
C97 C92 1.382 . S
C97 C96 1.398 . S
C97 H119 0.929 . S
C98 O108 1.271 1_655 S
C98 O109 1.251 . S
C99 O110 1.252 . S
C99 O111 1.272 . S
O100 Sm80 2.543 . S
O100 C82 1.261 . S
O101 Sm80 2.450 . S
O101 C82 1.242 . S
O102 Sm80 2.681 1_655 S
O102 Sm81 2.386 . S
O102 C89 1.271 1_655 S
O103 Sm80 2.464 . S
O103 C89 1.251 . S
O104 Sm80 2.396 1_655 S
O104 C90 1.252 . S
O105 Sm81 2.408 . S
O105 C90 1.272 . S
O106 Sm81 2.543 . S
O106 C91 1.261 . S
O107 Sm81 2.450 . S
O107 C91 1.242 . S
O108 Sm80 2.386 . S
O108 Sm81 2.681 1_455 S
O108 C98 1.271 1_455 S
O109 Sm81 2.464 . S
O109 C98 1.251 . S
O110 Sm81 2.396 1_455 S
O110 C99 1.252 . S
O111 Sm80 2.408 . S
O111 C99 1.272 . S
H112 C84 0.930 . S
H113 C85 0.929 . S
H114 C87 0.930 . S
H115 C88 0.929 . S
H116 C93 0.930 . S
H117 C94 0.929 . S
H118 C96 0.930 . S
H119 C97 0.929 . S
Sm120 C122 2.846 . S
Sm120 O140 2.543 . S
Sm120 O141 2.450 . S
Sm120 O142 2.676 1_544 S
Sm120 O143 2.464 . S
Sm120 O144 2.396 1_545 S
Sm120 O148 2.386 . S
Sm120 O151 2.408 1_554 S
Sm121 C131 2.846 . S
Sm121 O142 2.388 . S
Sm121 O145 2.408 1_556 S
Sm121 O146 2.543 . S
Sm121 O147 2.450 . S
Sm121 O148 2.681 1_566 S
Sm121 O149 2.464 . S
Sm121 O150 2.396 1_565 S
C122 Sm120 2.846 . S
C122 C123 1.506 . S
C122 O140 1.261 . S
C122 O141 1.242 . S
C123 C122 1.506 . S
C123 C124 1.358 . S
C123 C128 1.382 . S
C124 C123 1.358 . S
C124 C125 1.385 . S
C124 H152 0.930 . S
C125 C124 1.385 . S
C125 C126 1.395 . S
C125 H153 0.929 . S
C126 C125 1.395 . S
C126 C127 1.335 . S
C127 C126 1.335 . S
C127 C128 1.398 . S
C127 H154 0.930 . S
C128 C123 1.382 . S
C128 C127 1.398 . S
C128 H155 0.929 . S
C129 O142 1.272 1_544 S
C129 O143 1.251 . S
C130 O144 1.252 . S
C130 O145 1.272 . S
C131 Sm121 2.846 . S
C131 C132 1.506 . S
C131 O146 1.261 . S
C131 O147 1.242 . S
C132 C131 1.506 . S
C132 C133 1.358 . S
C132 C137 1.382 . S
C133 C132 1.358 . S
C133 C134 1.385 . S
C133 H156 0.930 . S
C134 C133 1.385 . S
C134 C135 1.395 . S
C134 H157 0.929 . S
C135 C134 1.395 . S
C135 C136 1.335 . S
C136 C135 1.335 . S
C136 C137 1.398 . S
C136 H158 0.930 . S
C137 C132 1.382 . S
C137 C136 1.398 . S
C137 H159 0.929 . S
C138 O148 1.271 1_565 S
C138 O149 1.251 1_554 S
C139 O150 1.252 . S
C139 O151 1.272 . S
O140 Sm120 2.543 . S
O140 C122 1.261 . S
O141 Sm120 2.450 . S
O141 C122 1.242 . S
O142 Sm120 2.676 1_566 S
O142 Sm121 2.388 . S
O142 C129 1.272 1_566 S
O143 Sm120 2.464 . S
O143 C129 1.251 . S
O144 Sm120 2.396 1_565 S
O144 C130 1.252 . S
O145 Sm121 2.408 1_554 S
O145 C130 1.272 . S
O146 Sm121 2.543 . S
O146 C131 1.261 . S
O147 Sm121 2.450 . S
O147 C131 1.242 . S
O148 Sm120 2.386 . S
O148 Sm121 2.681 1_544 S
O148 C138 1.271 1_545 S
O149 Sm121 2.464 . S
O149 C138 1.251 1_556 S
O150 Sm121 2.396 1_545 S
O150 C139 1.252 . S
O151 Sm120 2.408 1_556 S
O151 C139 1.272 . S
H152 C124 0.930 . S
H153 C125 0.929 . S
H154 C127 0.930 . S
H155 C128 0.929 . S
H156 C133 0.930 . S
H157 C134 0.929 . S
H158 C136 0.930 . S
H159 C137 0.929 . S
Sm160 C162 2.846 . S
Sm160 O180 2.543 . S
Sm160 O181 2.450 . S
Sm160 O182 2.681 . S
Sm160 O183 2.464 . S
Sm160 O184 2.396 . S
Sm160 O188 2.386 . S
Sm160 O191 2.408 . S
Sm161 C171 2.846 . S
Sm161 O182 2.386 . S
Sm161 O185 2.408 . S
Sm161 O186 2.543 . S
Sm161 O187 2.450 . S
Sm161 O188 2.681 . S
Sm161 O189 2.464 . S
Sm161 O190 2.396 . S
C162 Sm160 2.846 . S
C162 C163 1.506 . S
C162 O180 1.261 . S
C162 O181 1.242 . S
C163 C162 1.506 . S
C163 C164 1.358 . S
C163 C168 1.382 . S
C164 C163 1.358 . S
C164 C165 1.385 . S
C164 H192 0.930 . S
C165 C164 1.385 . S
C165 C166 1.395 . S
C165 H193 0.929 . S
C166 C165 1.395 . S
C166 C167 1.335 . S
C167 C166 1.335 . S
C167 C168 1.398 . S
C167 H194 0.930 . S
C168 C163 1.382 . S
C168 C167 1.398 . S
C168 H195 0.929 . S
C169 O182 1.271 . S
C169 O183 1.251 . S
C170 O184 1.252 . S
C170 O185 1.272 . S
C171 Sm161 2.846 . S
C171 C172 1.506 . S
C171 O186 1.261 . S
C171 O187 1.242 . S
C172 C171 1.506 . S
C172 C173 1.358 1_655 S
C172 C177 1.382 . S
C173 C172 1.358 1_455 S
C173 C174 1.385 . S
C173 H196 0.930 . S
C174 C173 1.385 . S
C174 C175 1.395 1_455 S
C174 H197 0.929 . S
C175 C174 1.395 1_655 S
C175 C176 1.335 . S
C176 C175 1.335 . S
C176 C177 1.398 . S
C176 H198 0.930 . S
C177 C172 1.382 . S
C177 C176 1.398 . S
C177 H199 0.929 . S
C178 O188 1.271 . S
C178 O189 1.251 . S
C179 O190 1.252 . S
C179 O191 1.272 . S
O180 Sm160 2.543 . S
O180 C162 1.261 . S
O181 Sm160 2.450 . S
O181 C162 1.242 . S
O182 Sm160 2.681 . S
O182 Sm161 2.386 . S
O182 C169 1.271 . S
O183 Sm160 2.464 . S
O183 C169 1.251 . S
O184 Sm160 2.396 . S
O184 C170 1.252 . S
O185 Sm161 2.408 . S
O185 C170 1.272 . S
O186 Sm161 2.543 . S
O186 C171 1.261 . S
O187 Sm161 2.450 . S
O187 C171 1.242 . S
O188 Sm160 2.386 . S
O188 Sm161 2.681 . S
O188 C178 1.271 . S
O189 Sm161 2.464 . S
O189 C178 1.251 . S
O190 Sm161 2.396 . S
O190 C179 1.252 . S
O191 Sm160 2.408 . S
O191 C179 1.272 . S
H192 C164 0.930 . S
H193 C165 0.929 . S
H194 C167 0.930 . S
H195 C168 0.929 . S
H196 C173 0.930 . S
H197 C174 0.929 . S
H198 C176 0.930 . S
H199 C177 0.929 . S
Sm200 C202 2.846 . S
Sm200 O220 2.543 . S
Sm200 O221 2.450 . S
Sm200 O222 2.681 . S
Sm200 O223 2.464 . S
Sm200 O224 2.396 . S
Sm200 O228 2.386 . S
Sm200 O231 2.408 . S
Sm201 C211 2.846 . S
Sm201 O222 2.386 . S
Sm201 O225 2.408 . S
Sm201 O226 2.543 . S
Sm201 O227 2.450 . S
Sm201 O228 2.681 . S
Sm201 O229 2.464 . S
Sm201 O230 2.396 . S
C202 Sm200 2.846 . S
C202 C203 1.506 . S
C202 O220 1.261 . S
C202 O221 1.242 . S
C203 C202 1.506 . S
C203 C204 1.358 . S
C203 C208 1.382 . S
C204 C203 1.358 . S
C204 C205 1.385 . S
C204 H232 0.930 . S
C205 C204 1.385 . S
C205 C206 1.395 . S
C205 H233 0.929 . S
C206 C205 1.395 . S
C206 C207 1.335 . S
C207 C206 1.335 . S
C207 C208 1.398 . S
C207 H234 0.930 1_455 S
C208 C203 1.382 . S
C208 C207 1.398 . S
C208 H235 0.929 . S
C209 O222 1.271 . S
C209 O223 1.251 . S
C210 O224 1.252 . S
C210 O225 1.272 . S
C211 Sm201 2.846 . S
C211 C212 1.506 . S
C211 O226 1.261 . S
C211 O227 1.242 . S
C212 C211 1.506 . S
C212 C213 1.358 1_565 S
C212 C217 1.382 . S
C213 C212 1.358 1_545 S
C213 C214 1.385 . S
C213 H236 0.930 . S
C214 C213 1.385 . S
C214 C215 1.395 1_545 S
C214 H237 0.929 . S
C215 C214 1.395 1_565 S
C215 C216 1.335 . S
C216 C215 1.335 . S
C216 C217 1.398 . S
C216 H238 0.930 . S
C217 C212 1.382 . S
C217 C216 1.398 . S
C217 H239 0.929 . S
C218 O228 1.271 . S
C218 O229 1.251 . S
C219 O230 1.252 . S
C219 O231 1.272 . S
O220 Sm200 2.543 . S
O220 C202 1.261 . S
O221 Sm200 2.450 . S
O221 C202 1.242 . S
O222 Sm200 2.681 . S
O222 Sm201 2.386 . S
O222 C209 1.271 . S
O223 Sm200 2.464 . S
O223 C209 1.251 . S
O224 Sm200 2.396 . S
O224 C210 1.252 . S
O225 Sm201 2.408 . S
O225 C210 1.272 . S
O226 Sm201 2.543 . S
O226 C211 1.261 . S
O227 Sm201 2.450 . S
O227 C211 1.242 . S
O228 Sm200 2.386 . S
O228 Sm201 2.681 . S
O228 C218 1.271 . S
O229 Sm201 2.464 . S
O229 C218 1.251 . S
O230 Sm201 2.396 . S
O230 C219 1.252 . S
O231 Sm200 2.408 . S
O231 C219 1.272 . S
H232 C204 0.930 . S
H233 C205 0.929 . S
H234 C207 0.930 1_655 S
H235 C208 0.929 . S
H236 C213 0.930 . S
H237 C214 0.929 . S
H238 C216 0.930 . S
H239 C217 0.929 . S
H240 C258 0.951 . S
H241 C260 0.951 . S
H242 C262 0.950 . S
H243 C263 0.950 . S
H244 C265 0.950 1_554 S
H245 C268 0.950 1_655 S
H246 C269 0.950 . S
H247 C271 0.950 . S
H248 C272 0.950 . S
H249 C273 0.951 . S
H250 C275 0.951 . S
H251 C277 0.950 . S
H252 C278 0.950 . S
H253 C280 0.950 . S
H254 C283 0.950 . S
H255 C284 0.950 . S
H256 C286 0.950 . S
H257 C287 0.950 . S
C258 H240 0.951 . S
C258 C259 1.367 . S
C258 C260 1.388 . S
C259 C258 1.367 . S
C259 C263 1.383 1_566 S
C260 H241 0.951 . S
C260 C258 1.388 . S
C260 C261 1.342 1_566 S
C261 C260 1.342 1_544 S
C261 C262 1.437 . S
C261 C264 1.500 1_655 S
C262 H242 0.950 . S
C262 C261 1.437 . S
C262 C263 1.374 . S
C263 H243 0.950 . S
C263 C259 1.383 1_544 S
C263 C262 1.374 . S
C264 C261 1.500 1_455 S
C264 C265 1.373 1_554 S
C264 C266 1.389 . S
C265 H244 0.950 1_556 S
C265 C264 1.373 1_556 S
C265 C281 1.376 . S
C266 C264 1.389 . S
C266 C267 1.524 1_545 S
C266 C280 1.376 1_554 S
C267 C266 1.524 1_565 S
C267 C268 1.397 . S
C267 C272 1.363 1_554 S
C268 H245 0.950 1_455 S
C268 C267 1.397 . S
C268 C269 1.334 1_455 S
C269 H246 0.950 . S
C269 C268 1.334 1_655 S
C269 C270 1.287 . S
C270 C269 1.287 . S
C270 C271 1.524 1_654 S
C270 H289 0.913 . S
C271 H247 0.950 . S
C271 C270 1.524 1_456 S
C271 C272 1.415 . S
C272 H248 0.950 . S
C272 C267 1.363 1_556 S
C272 C271 1.415 . S
C273 H249 0.951 . S
C273 C274 1.366 1_554 S
C273 C275 1.388 . S
C274 C273 1.366 1_556 S
C274 C278 1.384 . S
C275 H250 0.951 . S
C275 C273 1.388 . S
C275 C276 1.333 1_554 S
C276 C275 1.333 1_556 S
C276 C277 1.446 . S
C276 C279 1.501 . S
C277 H251 0.950 . S
C277 C276 1.446 . S
C277 C278 1.374 . S
C278 H252 0.950 . S
C278 C274 1.384 . S
C278 C277 1.374 . S
C279 C276 1.501 . S
C279 C280 1.373 . S
C279 C281 1.389 . S
C280 H253 0.950 . S
C280 C266 1.376 1_556 S
C280 C279 1.373 . S
C281 C265 1.376 . S
C281 C279 1.389 . S
C281 C282 1.524 . S
C282 C281 1.524 . S
C282 C283 1.397 . S
C282 C287 1.363 1_556 S
C283 H254 0.950 . S
C283 C282 1.397 . S
C283 C284 1.334 . S
C284 H255 0.950 . S
C284 C283 1.334 . S
C284 C285 1.287 . S
C285 C284 1.287 . S
C285 C286 1.524 1_556 S
C285 H288 0.999 . S
C286 H256 0.950 . S
C286 C285 1.524 1_554 S
C286 C287 1.415 . S
C287 H257 0.950 . S
C287 C282 1.363 1_554 S
C287 C286 1.415 . S
H288 C285 0.999 . S
H289 C270 0.913 . S
H290 C308 0.951 . S
H291 C310 0.944 . S
H292 C312 0.950 . S
H293 C313 0.950 . S
H294 C315 0.950 . S
H295 C318 0.950 1_565 S
H296 C319 0.950 . S
H297 C321 0.950 . S
H298 C322 0.950 . S
H299 C323 0.951 . S
H300 C325 0.951 . S
H301 C327 0.950 . S
H302 C328 0.950 . S
H303 C330 0.950 . S
H304 C333 0.950 . S
H305 C334 0.950 . S
H306 C336 0.950 . S
H307 C337 0.950 . S
C308 H290 0.951 . S
C308 C309 1.366 . S
C308 C310 1.386 1_655 S
C309 C308 1.366 . S
C309 C313 1.385 . S
C310 H291 0.944 . S
C310 C308 1.386 1_455 S
C310 C311 1.374 . S
C311 C310 1.374 . S
C311 C312 1.414 . S
C311 C314 1.499 1_565 S
C312 H292 0.950 . S
C312 C311 1.414 . S
C312 C313 1.374 1_455 S
C313 H293 0.950 . S
C313 C309 1.385 . S
C313 C312 1.374 1_655 S
C314 C311 1.499 1_545 S
C314 C315 1.373 . S
C314 C316 1.389 . S
C315 H294 0.950 . S
C315 C314 1.373 . S
C315 C331 1.377 . S
C316 C314 1.389 . S
C316 C317 1.524 . S
C316 C330 1.377 . S
C317 C316 1.524 . S
C317 C318 1.397 . S
C317 C322 1.363 . S
C318 H295 0.950 1_545 S
C318 C317 1.397 . S
C318 C319 1.334 1_545 S
C319 H296 0.950 . S
C319 C318 1.334 1_565 S
C319 C320 1.287 . S
C320 C319 1.287 . S
C320 C321 1.524 1_565 S
C320 H339 0.913 . S
C321 H297 0.950 . S
C321 C320 1.524 1_545 S
C321 C322 1.415 . S
C322 H298 0.950 . S
C322 C317 1.363 . S
C322 C321 1.415 . S
C323 H299 0.951 . S
C323 C324 1.366 . S
C323 C325 1.388 . S
C324 C323 1.366 . S
C324 C328 1.385 . S
C325 H300 0.951 . S
C325 C323 1.388 . S
C325 C326 1.366 . S
C326 C325 1.366 . S
C326 C327 1.414 . S
C326 C329 1.499 . S
C327 H301 0.950 . S
C327 C326 1.414 . S
C327 C328 1.374 . S
C328 H302 0.950 . S
C328 C324 1.385 . S
C328 C327 1.374 . S
C329 C326 1.499 . S
C329 C330 1.373 . S
C329 C331 1.389 . S
C330 H303 0.950 . S
C330 C316 1.377 . S
C330 C329 1.373 . S
C331 C315 1.377 . S
C331 C329 1.389 . S
C331 C332 1.524 . S
C332 C331 1.524 . S
C332 C333 1.397 . S
C332 C337 1.363 . S
C333 H304 0.950 . S
C333 C332 1.397 . S
C333 C334 1.334 . S
C334 H305 0.950 . S
C334 C333 1.334 . S
C334 C335 1.287 . S
C335 C334 1.287 . S
C335 C336 1.524 . S
C335 H338 0.999 . S
C336 H306 0.950 . S
C336 C335 1.524 . S
C336 C337 1.415 . S
C337 H307 0.950 . S
C337 C332 1.363 . S
C337 C336 1.415 . S
H338 C335 0.999 . S
H339 C320 0.913 . S
H340 C358 0.951 . S
H341 C360 0.951 . S
H342 C362 0.950 . S
H343 C363 0.950 . S
H344 C365 0.950 . S
H345 C368 0.950 . S
H346 C369 0.950 . S
H347 C371 0.950 . S
H348 C372 0.950 . S
H349 C373 0.951 . S
H350 C375 0.951 . S
H351 C377 0.950 . S
H352 C378 0.950 . S
H353 C380 0.950 . S
H354 C383 0.950 . S
H355 C384 0.950 . S
H356 C386 0.950 . S
H357 C387 0.950 . S
C358 H340 0.951 . S
C358 C359 1.366 1_545 S
C358 C360 1.388 . S
C359 C358 1.366 1_565 S
C359 C363 1.385 . S
C360 H341 0.951 . S
C360 C358 1.388 . S
C360 C361 1.366 . S
C361 C360 1.366 . S
C361 C362 1.414 1_545 S
C361 C364 1.499 . S
C362 H342 0.950 . S
C362 C361 1.414 1_565 S
C362 C363 1.374 . S
C363 H343 0.950 . S
C363 C359 1.385 . S
C363 C362 1.374 . S
C364 C361 1.499 . S
C364 C365 1.373 . S
C364 C366 1.389 . S
C365 H344 0.950 . S
C365 C364 1.373 . S
C365 C381 1.377 . S
C366 C364 1.389 . S
C366 C367 1.524 . S
C366 C380 1.377 . S
C367 C366 1.524 . S
C367 C368 1.397 1_545 S
C367 C372 1.363 . S
C368 H345 0.950 . S
C368 C367 1.397 1_565 S
C368 C369 1.334 . S
C369 H346 0.950 . S
C369 C368 1.334 . S
C369 C370 1.287 . S
C370 C369 1.287 . S
C370 C371 1.524 1_565 S
C370 H389 0.913 . S
C371 H347 0.950 . S
C371 C370 1.524 1_545 S
C371 C372 1.415 . S
C372 H348 0.950 . S
C372 C367 1.363 . S
C372 C371 1.415 . S
C373 H349 0.951 . S
C373 C374 1.366 . S
C373 C375 1.388 1_655 S
C374 C373 1.366 . S
C374 C378 1.385 1_655 S
C375 H350 0.951 . S
C375 C373 1.388 1_455 S
C375 C376 1.366 . S
C376 C375 1.366 . S
C376 C377 1.414 . S
C376 C379 1.499 . S
C377 H351 0.950 . S
C377 C376 1.414 . S
C377 C378 1.374 . S
C378 H352 0.950 . S
C378 C374 1.385 1_455 S
C378 C377 1.374 . S
C379 C376 1.499 . S
C379 C380 1.373 . S
C379 C381 1.389 . S
C380 H353 0.950 . S
C380 C366 1.377 . S
C380 C379 1.373 . S
C381 C365 1.377 . S
C381 C379 1.389 . S
C381 C382 1.524 . S
C382 C381 1.524 . S
C382 C383 1.397 . S
C382 C387 1.363 . S
C383 H354 0.950 . S
C383 C382 1.397 . S
C383 C384 1.334 . S
C384 H355 0.950 . S
C384 C383 1.334 . S
C384 C385 1.287 . S
C385 C384 1.287 . S
C385 C386 1.524 . S
C385 H388 0.999 . S
C386 H356 0.950 . S
C386 C385 1.524 . S
C386 C387 1.415 . S
C387 H357 0.950 . S
C387 C382 1.363 . S
C387 C386 1.415 . S
H388 C385 0.999 . S
H389 C370 0.913 . S
H390 C408 0.951 . S
H391 C410 0.951 . S
H392 C412 0.950 . S
H393 C413 0.950 . S
H394 C415 0.950 . S
H395 C418 0.950 . S
H396 C419 0.950 . S
H397 C421 0.950 . S
H398 C422 0.950 . S
H399 C423 0.951 . S
H400 C425 0.951 . S
H401 C427 0.950 . S
H402 C428 0.950 . S
H403 C430 0.950 . S
H404 C433 0.950 . S
H405 C434 0.950 . S
H406 C436 0.950 . S
H407 C437 0.950 . S
C408 H390 0.951 . S
C408 C409 1.366 . S
C408 C410 1.388 . S
C409 C408 1.366 . S
C409 C413 1.385 . S
C410 H391 0.951 . S
C410 C408 1.388 . S
C410 C411 1.366 . S
C411 C410 1.366 . S
C411 C412 1.414 . S
C411 C414 1.499 . S
C412 H392 0.950 . S
C412 C411 1.414 . S
C412 C413 1.374 . S
C413 H393 0.950 . S
C413 C409 1.385 . S
C413 C412 1.374 . S
C414 C411 1.499 . S
C414 C415 1.373 . S
C414 C416 1.389 . S
C415 H394 0.950 . S
C415 C414 1.373 . S
C415 C431 1.377 . S
C416 C414 1.389 . S
C416 C417 1.524 . S
C416 C430 1.377 . S
C417 C416 1.524 . S
C417 C418 1.397 . S
C417 C422 1.363 . S
C418 H395 0.950 . S
C418 C417 1.397 . S
C418 C419 1.334 . S
C419 H396 0.950 . S
C419 C418 1.334 . S
C419 C420 1.287 . S
C420 C419 1.287 . S
C420 C421 1.524 . S
C420 H439 0.913 . S
C421 H397 0.950 . S
C421 C420 1.524 . S
C421 C422 1.415 . S
C422 H398 0.950 . S
C422 C417 1.363 . S
C422 C421 1.415 . S
C423 H399 0.951 . S
C423 C424 1.366 . S
C423 C425 1.388 . S
C424 C423 1.366 . S
C424 C428 1.385 . S
C425 H400 0.951 . S
C425 C423 1.388 . S
C425 C426 1.366 . S
C426 C425 1.366 . S
C426 C427 1.414 . S
C426 C429 1.499 . S
C427 H401 0.950 . S
C427 C426 1.414 . S
C427 C428 1.374 . S
C428 H402 0.950 . S
C428 C424 1.385 . S
C428 C427 1.374 . S
C429 C426 1.499 . S
C429 C430 1.373 . S
C429 C431 1.389 . S
C430 H403 0.950 . S
C430 C416 1.377 . S
C430 C429 1.373 . S
C431 C415 1.377 . S
C431 C429 1.389 . S
C431 C432 1.524 . S
C432 C431 1.524 . S
C432 C433 1.397 . S
C432 C437 1.363 . S
C433 H404 0.950 . S
C433 C432 1.397 . S
C433 C434 1.334 . S
C434 H405 0.950 . S
C434 C433 1.334 . S
C434 C435 1.287 . S
C435 C434 1.287 . S
C435 C436 1.524 . S
C435 H438 0.999 . S
C436 H406 0.950 . S
C436 C435 1.524 . S
C436 C437 1.415 . S
C437 H407 0.950 . S
C437 C432 1.363 . S
C437 C436 1.415 . S
H438 C435 0.999 . S
H439 C420 0.913 . S
H440 C458 0.951 . S
H441 C460 0.951 . S
H442 C462 0.950 . S
H443 C463 0.950 . S
H444 C465 0.950 . S
H445 C468 0.950 . S
H446 C469 0.950 . S
H447 C471 0.950 . S
H448 C472 0.950 . S
H449 C473 0.951 . S
H450 C475 0.951 . S
H451 C477 0.950 . S
H452 C478 0.950 . S
H453 C480 0.950 . S
H454 C483 0.950 . S
H455 C484 0.950 . S
H456 C486 0.950 . S
H457 C487 0.950 . S
C458 H440 0.951 . S
C458 C459 1.366 . S
C458 C460 1.388 . S
C459 C458 1.366 . S
C459 C463 1.385 . S
C460 H441 0.951 . S
C460 C458 1.388 . S
C460 C461 1.366 . S
C461 C460 1.366 . S
C461 C462 1.414 . S
C461 C464 1.499 . S
C462 H442 0.950 . S
C462 C461 1.414 . S
C462 C463 1.374 . S
C463 H443 0.950 . S
C463 C459 1.385 . S
C463 C462 1.374 . S
C464 C461 1.499 . S
C464 C465 1.373 . S
C464 C466 1.389 . S
C465 H444 0.950 . S
C465 C464 1.373 . S
C465 C481 1.377 1_455 S
C466 C464 1.389 . S
C466 C467 1.524 . S
C466 C480 1.377 . S
C467 C466 1.524 . S
C467 C468 1.397 . S
C467 C472 1.363 . S
C468 H445 0.950 . S
C468 C467 1.397 . S
C468 C469 1.334 . S
C469 H446 0.950 . S
C469 C468 1.334 . S
C469 C470 1.287 . S
C470 C469 1.287 . S
C470 C471 1.524 . S
C470 H489 0.913 . S
C471 H447 0.950 . S
C471 C470 1.524 . S
C471 C472 1.415 . S
C472 H448 0.950 . S
C472 C467 1.363 . S
C472 C471 1.415 . S
C473 H449 0.951 . S
C473 C474 1.366 . S
C473 C475 1.388 . S
C474 C473 1.366 . S
C474 C478 1.385 . S
C475 H450 0.951 . S
C475 C473 1.388 . S
C475 C476 1.366 . S
C476 C475 1.366 . S
C476 C477 1.414 . S
C476 C479 1.499 . S
C477 H451 0.950 . S
C477 C476 1.414 . S
C477 C478 1.374 . S
C478 H452 0.950 . S
C478 C474 1.385 . S
C478 C477 1.374 . S
C479 C476 1.499 . S
C479 C480 1.373 1_655 S
C479 C481 1.389 . S
C480 H453 0.950 . S
C480 C466 1.377 . S
C480 C479 1.373 1_455 S
C481 C465 1.377 1_655 S
C481 C479 1.389 . S
C481 C482 1.524 . S
C482 C481 1.524 . S
C482 C483 1.397 . S
C482 C487 1.363 . S
C483 H454 0.950 . S
C483 C482 1.397 . S
C483 C484 1.334 . S
C484 H455 0.950 . S
C484 C483 1.334 . S
C484 C485 1.287 . S
C485 C484 1.287 . S
C485 C486 1.524 . S
C485 H488 0.999 . S
C486 H456 0.950 . S
C486 C485 1.524 . S
C486 C487 1.415 . S
C487 H457 0.950 . S
C487 C482 1.363 . S
C487 C486 1.415 . S
H488 C485 0.999 . S
H489 C470 0.913 . S
H490 C508 0.951 . S
H491 C510 0.951 . S
H492 C512 0.950 . S
H493 C513 0.950 . S
H494 C515 0.950 . S
H495 C518 0.950 . S
H496 C519 0.950 . S
H497 C521 0.950 1_565 S
H498 C522 0.950 1_565 S
H499 C523 0.951 . S
H500 C525 0.951 . S
H501 C527 0.950 . S
H502 C528 0.950 . S
H503 C530 0.950 . S
H504 C533 0.950 . S
H505 C534 0.950 . S
H506 C536 0.950 . S
H507 C537 0.950 . S
C508 H490 0.951 . S
C508 C509 1.366 . S
C508 C510 1.388 . S
C509 C508 1.366 . S
C509 C513 1.385 . S
C510 H491 0.951 . S
C510 C508 1.388 . S
C510 C511 1.366 . S
C511 C510 1.366 . S
C511 C512 1.414 . S
C511 C514 1.499 . S
C512 H492 0.950 . S
C512 C511 1.414 . S
C512 C513 1.374 . S
C513 H493 0.950 . S
C513 C509 1.385 . S
C513 C512 1.374 . S
C514 C511 1.499 . S
C514 C515 1.373 . S
C514 C516 1.389 . S
C515 H494 0.950 . S
C515 C514 1.373 . S
C515 C531 1.377 . S
C516 C514 1.389 . S
C516 C517 1.524 . S
C516 C530 1.377 1_545 S
C517 C516 1.524 . S
C517 C518 1.397 . S
C517 C522 1.363 . S
C518 H495 0.950 . S
C518 C517 1.397 . S
C518 C519 1.334 . S
C519 H496 0.950 . S
C519 C518 1.334 . S
C519 C520 1.287 . S
C520 C519 1.287 . S
C520 C521 1.524 . S
C520 H539 0.913 . S
C521 H497 0.950 1_545 S
C521 C520 1.524 . S
C521 C522 1.415 . S
C522 H498 0.950 1_545 S
C522 C517 1.363 . S
C522 C521 1.415 . S
C523 H499 0.951 . S
C523 C524 1.366 . S
C523 C525 1.388 . S
C524 C523 1.366 . S
C524 C528 1.385 . S
C525 H500 0.951 . S
C525 C523 1.388 . S
C525 C526 1.366 . S
C526 C525 1.366 . S
C526 C527 1.414 . S
C526 C529 1.499 . S
C527 H501 0.950 . S
C527 C526 1.414 . S
C527 C528 1.374 . S
C528 H502 0.950 . S
C528 C524 1.385 . S
C528 C527 1.374 . S
C529 C526 1.499 . S
C529 C530 1.373 . S
C529 C531 1.389 1_565 S
C530 H503 0.950 . S
C530 C516 1.377 1_565 S
C530 C529 1.373 . S
C531 C515 1.377 . S
C531 C529 1.389 1_545 S
C531 C532 1.524 1_545 S
C532 C531 1.524 1_565 S
C532 C533 1.397 . S
C532 C537 1.363 1_565 S
C533 H504 0.950 . S
C533 C532 1.397 . S
C533 C534 1.334 . S
C534 H505 0.950 . S
C534 C533 1.334 . S
C534 C535 1.287 . S
C535 C534 1.287 . S
C535 C536 1.524 1_565 S
C535 H538 0.999 . S
C536 H506 0.950 . S
C536 C535 1.524 1_545 S
C536 C537 1.415 . S
C537 H507 0.950 . S
C537 C532 1.363 1_545 S
C537 C536 1.415 . S
H538 C535 0.999 . S
H539 C520 0.913 . S
H540 C558 0.951 . S
H541 C560 0.951 . S
H542 C562 0.950 . S
H543 C563 0.950 . S
H544 C565 0.950 . S
H545 C568 0.950 . S
H546 C569 0.950 . S
H547 C571 0.950 . S
H548 C572 0.950 . S
H549 C573 0.951 . S
H550 C575 0.951 . S
H551 C577 0.950 . S
H552 C578 0.950 . S
H553 C580 0.950 . S
H554 C583 0.950 . S
H555 C584 0.950 . S
H556 C586 0.950 . S
H557 C587 0.950 . S
C558 H540 0.951 . S
C558 C559 1.366 . S
C558 C560 1.388 . S
C559 C558 1.366 . S
C559 C563 1.385 . S
C560 H541 0.951 . S
C560 C558 1.388 . S
C560 C561 1.366 . S
C561 C560 1.366 . S
C561 C562 1.414 . S
C561 C564 1.499 . S
C562 H542 0.950 . S
C562 C561 1.414 . S
C562 C563 1.374 . S
C563 H543 0.950 . S
C563 C559 1.385 . S
C563 C562 1.374 . S
C564 C561 1.499 . S
C564 C565 1.373 . S
C564 C566 1.389 . S
C565 H544 0.950 . S
C565 C564 1.373 . S
C565 C581 1.377 . S
C566 C564 1.389 . S
C566 C567 1.524 . S
C566 C580 1.377 . S
C567 C566 1.524 . S
C567 C568 1.397 . S
C567 C572 1.363 . S
C568 H545 0.950 . S
C568 C567 1.397 . S
C568 C569 1.334 . S
C569 H546 0.950 . S
C569 C568 1.334 . S
C569 C570 1.287 . S
C570 C569 1.287 . S
C570 C571 1.524 . S
C570 H589 0.913 . S
C571 H547 0.950 . S
C571 C570 1.524 . S
C571 C572 1.415 . S
C572 H548 0.950 . S
C572 C567 1.363 . S
C572 C571 1.415 . S
C573 H549 0.951 . S
C573 C574 1.366 1_655 S
C573 C575 1.388 . S
C574 C573 1.366 1_455 S
C574 C578 1.385 . S
C575 H550 0.951 . S
C575 C573 1.388 . S
C575 C576 1.366 . S
C576 C575 1.366 . S
C576 C577 1.414 . S
C576 C579 1.499 . S
C577 H551 0.950 . S
C577 C576 1.414 . S
C577 C578 1.374 1_655 S
C578 H552 0.950 . S
C578 C574 1.385 . S
C578 C577 1.374 1_455 S
C579 C576 1.499 . S
C579 C580 1.373 . S
C579 C581 1.389 . S
C580 H553 0.950 . S
C580 C566 1.377 . S
C580 C579 1.373 . S
C581 C565 1.377 . S
C581 C579 1.389 . S
C581 C582 1.524 . S
C582 C581 1.524 . S
C582 C583 1.397 . S
C582 C587 1.363 . S
C583 H554 0.950 . S
C583 C582 1.397 . S
C583 C584 1.334 . S
C584 H555 0.950 . S
C584 C583 1.334 . S
C584 C585 1.287 . S
C585 C584 1.287 . S
C585 C586 1.524 . S
C585 H588 0.999 . S
C586 H556 0.950 . S
C586 C585 1.524 . S
C586 C587 1.415 . S
C587 H557 0.950 . S
C587 C582 1.363 . S
C587 C586 1.415 . S
H588 C585 0.999 . S
H589 C570 0.913 . S
H590 C608 0.951 1_655 S
H591 C610 0.951 . S
H592 C612 0.950 . S
H593 C613 0.950 . S
H594 C615 0.950 . S
H595 C618 0.950 . S
H596 C619 0.950 . S
H597 C621 0.964 . S
H598 C622 0.950 . S
H599 C623 0.951 . S
H600 C625 0.951 . S
H601 C627 0.950 . S
H602 C628 0.950 . S
H603 C630 0.950 . S
H604 C633 0.950 . S
H605 C634 0.950 . S
H606 C636 0.950 . S
H607 C637 0.950 . S
C608 H590 0.951 1_455 S
C608 C609 1.366 1_455 S
C608 C610 1.388 . S
C609 C608 1.366 1_655 S
C609 C613 1.385 1_655 S
C610 H591 0.951 . S
C610 C608 1.388 . S
C610 C611 1.366 . S
C611 C610 1.366 . S
C611 C612 1.414 . S
C611 C614 1.499 . S
C612 H592 0.950 . S
C612 C611 1.414 . S
C612 C613 1.374 . S
C613 H593 0.950 . S
C613 C609 1.385 1_455 S
C613 C612 1.374 . S
C614 C611 1.499 . S
C614 C615 1.373 . S
C614 C616 1.389 . S
C615 H594 0.950 . S
C615 C614 1.373 . S
C615 C631 1.377 . S
C616 C614 1.389 . S
C616 C617 1.524 . S
C616 C630 1.377 . S
C617 C616 1.524 . S
C617 C618 1.397 . S
C617 C622 1.363 . S
C618 H595 0.950 . S
C618 C617 1.397 . S
C618 C619 1.334 1_455 S
C619 H596 0.950 . S
C619 C618 1.334 1_655 S
C619 C620 1.287 . S
C620 C619 1.287 . S
C620 C621 1.528 . S
C620 H639 0.913 . S
C621 H597 0.964 . S
C621 C620 1.528 . S
C621 C622 1.394 1_655 S
C622 H598 0.950 . S
C622 C617 1.363 . S
C622 C621 1.394 1_455 S
C623 H599 0.951 . S
C623 C624 1.366 1_565 S
C623 C625 1.388 . S
C624 C623 1.366 1_545 S
C624 C628 1.385 . S
C625 H600 0.951 . S
C625 C623 1.388 . S
C625 C626 1.366 . S
C626 C625 1.366 . S
C626 C627 1.414 1_565 S
C626 C629 1.499 . S
C627 H601 0.950 . S
C627 C626 1.414 1_545 S
C627 C628 1.374 . S
C628 H602 0.950 . S
C628 C624 1.385 . S
C628 C627 1.374 . S
C629 C626 1.499 . S
C629 C630 1.373 . S
C629 C631 1.389 . S
C630 H603 0.950 . S
C630 C616 1.377 . S
C630 C629 1.373 . S
C631 C615 1.377 . S
C631 C629 1.389 . S
C631 C632 1.524 . S
C632 C631 1.524 . S
C632 C633 1.397 . S
C632 C637 1.363 . S
C633 H604 0.950 . S
C633 C632 1.397 . S
C633 C634 1.334 . S
C634 H605 0.950 . S
C634 C633 1.334 . S
C634 C635 1.287 . S
C635 C634 1.287 . S
C635 C636 1.524 . S
C635 H638 0.999 . S
C636 H606 0.950 . S
C636 C635 1.524 . S
C636 C637 1.415 . S
C637 H607 0.950 . S
C637 C632 1.363 . S
C637 C636 1.415 . S
H638 C635 0.999 . S
H639 C620 0.913 . S
H640 C658 0.951 . S
H641 C660 0.951 . S
H642 C662 0.950 . S
H643 C663 0.950 1_565 S
H644 C665 0.950 . S
H645 C668 0.950 . S
H646 C669 0.950 . S
H647 C671 0.950 . S
H648 C672 0.950 . S
H649 C673 0.951 . S
H650 C675 0.951 . S
H651 C677 0.950 . S
H652 C678 0.950 . S
H653 C680 0.950 . S
H654 C683 0.950 . S
H655 C684 0.950 . S
H656 C686 0.950 . S
H657 C687 0.950 . S
C658 H640 0.951 . S
C658 C659 1.366 1_545 S
C658 C660 1.388 . S
C659 C658 1.366 1_565 S
C659 C663 1.385 1_565 S
C660 H641 0.951 . S
C660 C658 1.388 . S
C660 C661 1.366 . S
C661 C660 1.366 . S
C661 C662 1.414 . S
C661 C664 1.499 . S
C662 H642 0.950 . S
C662 C661 1.414 . S
C662 C663 1.374 . S
C663 H643 0.950 1_545 S
C663 C659 1.385 1_545 S
C663 C662 1.374 . S
C664 C661 1.499 . S
C664 C665 1.373 . S
C664 C666 1.389 . S
C665 H644 0.950 . S
C665 C664 1.373 . S
C665 C681 1.377 . S
C666 C664 1.389 . S
C666 C667 1.524 . S
C666 C680 1.377 . S
C667 C666 1.524 . S
C667 C668 1.397 . S
C667 C672 1.363 . S
C668 H645 0.950 . S
C668 C667 1.397 . S
C668 C669 1.334 . S
C669 H646 0.950 . S
C669 C668 1.334 . S
C669 C670 1.287 . S
C670 C669 1.287 . S
C670 C671 1.524 . S
C670 H689 0.913 . S
C671 H647 0.950 . S
C671 C670 1.524 . S
C671 C672 1.415 . S
C672 H648 0.950 . S
C672 C667 1.363 . S
C672 C671 1.415 . S
C673 H649 0.951 . S
C673 C674 1.366 . S
C673 C675 1.388 . S
C674 C673 1.366 . S
C674 C678 1.385 . S
C675 H650 0.951 . S
C675 C673 1.388 . S
C675 C676 1.366 . S
C676 C675 1.366 . S
C676 C677 1.414 . S
C676 C679 1.499 . S
C677 H651 0.950 . S
C677 C676 1.414 . S
C677 C678 1.374 . S
C678 H652 0.950 . S
C678 C674 1.385 . S
C678 C677 1.374 . S
C679 C676 1.499 . S
C679 C680 1.373 . S
C679 C681 1.389 . S
C680 H653 0.950 . S
C680 C666 1.377 . S
C680 C679 1.373 . S
C681 C665 1.377 . S
C681 C679 1.389 . S
C681 C682 1.524 . S
C682 C681 1.524 . S
C682 C683 1.397 . S
C682 C687 1.363 . S
C683 H654 0.950 . S
C683 C682 1.397 . S
C683 C684 1.334 . S
C684 H655 0.950 . S
C684 C683 1.334 . S
C684 C685 1.287 . S
C685 C684 1.287 . S
C685 C686 1.524 . S
C685 H688 0.999 . S
C686 H656 0.950 . S
C686 C685 1.524 . S
C686 C687 1.415 . S
C687 H657 0.950 . S
C687 C682 1.363 . S
C687 C686 1.415 . S
H688 C685 0.999 . S
H689 C670 0.913 . S
H690 C708 0.951 . S
H691 C710 0.951 . S
H692 C712 0.950 . S
H693 C713 0.950 . S
H694 C715 0.950 . S
H695 C718 0.950 1_554 S
H696 C719 0.950 . S
H697 C721 0.950 1_565 S
H698 C722 0.950 . S
H699 C723 0.951 1_565 S
H700 C725 0.951 . S
H701 C727 0.950 . S
H702 C728 0.950 . S
H703 C730 0.950 . S
H704 C733 0.950 . S
H705 C734 0.950 . S
H706 C736 0.950 . S
H707 C737 0.950 . S
C708 H690 0.951 . S
C708 C709 1.366 1_556 S
C708 C710 1.388 . S
C709 C708 1.366 1_554 S
C709 C713 1.385 . S
C710 H691 0.951 . S
C710 C708 1.388 . S
C710 C711 1.366 1_556 S
C711 C710 1.366 1_554 S
C711 C712 1.414 . S
C711 C714 1.499 . S
C712 H692 0.950 . S
C712 C711 1.414 . S
C712 C713 1.374 . S
C713 H693 0.950 . S
C713 C709 1.385 . S
C713 C712 1.374 . S
C714 C711 1.499 . S
C714 C715 1.373 . S
C714 C716 1.389 1_554 S
C715 H694 0.950 . S
C715 C714 1.373 . S
C715 C731 1.377 . S
C716 C714 1.389 1_556 S
C716 C717 1.524 . S
C716 C730 1.377 . S
C717 C716 1.524 . S
C717 C718 1.397 . S
C717 C722 1.363 . S
C718 H695 0.950 1_556 S
C718 C717 1.397 . S
C718 C719 1.334 1_545 S
C719 H696 0.950 . S
C719 C718 1.334 1_565 S
C719 C720 1.287 . S
C720 C719 1.287 . S
C720 C721 1.524 1_565 S
C720 H739 0.913 . S
C721 H697 0.950 1_545 S
C721 C720 1.524 1_545 S
C721 C722 1.415 . S
C722 H698 0.950 . S
C722 C717 1.363 . S
C722 C721 1.415 . S
C723 H699 0.951 1_545 S
C723 C724 1.366 1_545 S
C723 C725 1.388 . S
C724 C723 1.366 1_565 S
C724 C728 1.385 1_564 S
C725 H700 0.951 . S
C725 C723 1.388 . S
C725 C726 1.366 . S
C726 C725 1.366 . S
C726 C727 1.414 1_554 S
C726 C729 1.499 . S
C727 H701 0.950 . S
C727 C726 1.414 1_556 S
C727 C728 1.374 . S
C728 H702 0.950 . S
C728 C724 1.385 1_546 S
C728 C727 1.374 . S
C729 C726 1.499 . S
C729 C730 1.373 1_554 S
C729 C731 1.389 . S
C730 H703 0.950 . S
C730 C716 1.377 . S
C730 C729 1.373 1_556 S
C731 C715 1.377 . S
C731 C729 1.389 . S
C731 C732 1.524 . S
C732 C731 1.524 . S
C732 C733 1.397 . S
C732 C737 1.363 . S
C733 H704 0.950 . S
C733 C732 1.397 . S
C733 C734 1.334 . S
C734 H705 0.950 . S
C734 C733 1.334 . S
C734 C735 1.287 . S
C735 C734 1.287 . S
C735 C736 1.524 . S
C735 H738 0.999 . S
C736 H706 0.950 . S
C736 C735 1.524 . S
C736 C737 1.415 . S
C737 H707 0.950 . S
C737 C732 1.363 . S
C737 C736 1.415 . S
H738 C735 0.999 . S
H739 C720 0.913 . S
H740 C758 0.951 . S
H741 C760 0.951 . S
H742 C762 0.950 . S
H743 C763 0.950 . S
H744 C765 0.950 . S
H745 C768 0.950 . S
H746 C769 0.950 . S
H747 C771 0.950 . S
H748 C772 0.950 . S
H749 C773 0.951 . S
H750 C775 0.951 . S
H751 C777 0.950 . S
H752 C778 0.950 . S
H753 C780 0.950 . S
H754 C783 0.950 . S
H755 C784 0.950 . S
H756 C786 0.950 . S
H757 C787 0.950 . S
C758 H740 0.951 . S
C758 C759 1.366 . S
C758 C760 1.388 . S
C759 C758 1.366 . S
C759 C763 1.385 . S
C760 H741 0.951 . S
C760 C758 1.388 . S
C760 C761 1.366 . S
C761 C760 1.366 . S
C761 C762 1.414 . S
C761 C764 1.499 . S
C762 H742 0.950 . S
C762 C761 1.414 . S
C762 C763 1.374 . S
C763 H743 0.950 . S
C763 C759 1.385 . S
C763 C762 1.374 . S
C764 C761 1.499 . S
C764 C765 1.373 . S
C764 C766 1.389 . S
C765 H744 0.950 . S
C765 C764 1.373 . S
C765 C781 1.377 . S
C766 C764 1.389 . S
C766 C767 1.524 . S
C766 C780 1.377 . S
C767 C766 1.524 . S
C767 C768 1.397 . S
C767 C772 1.363 . S
C768 H745 0.950 . S
C768 C767 1.397 . S
C768 C769 1.334 . S
C769 H746 0.950 . S
C769 C768 1.334 . S
C769 C770 1.287 . S
C770 C769 1.287 . S
C770 C771 1.524 . S
C770 H789 0.913 . S
C771 H747 0.950 . S
C771 C770 1.524 . S
C771 C772 1.415 . S
C772 H748 0.950 . S
C772 C767 1.363 . S
C772 C771 1.415 . S
C773 H749 0.951 . S
C773 C774 1.366 . S
C773 C775 1.388 . S
C774 C773 1.366 . S
C774 C778 1.385 . S
C775 H750 0.951 . S
C775 C773 1.388 . S
C775 C776 1.366 . S
C776 C775 1.366 . S
C776 C777 1.414 . S
C776 C779 1.499 . S
C777 H751 0.950 . S
C777 C776 1.414 . S
C777 C778 1.374 . S
C778 H752 0.950 . S
C778 C774 1.385 . S
C778 C777 1.374 . S
C779 C776 1.499 . S
C779 C780 1.373 . S
C779 C781 1.389 . S
C780 H753 0.950 . S
C780 C766 1.377 . S
C780 C779 1.373 . S
C781 C765 1.377 . S
C781 C779 1.389 . S
C781 C782 1.524 . S
C782 C781 1.524 . S
C782 C783 1.397 . S
C782 C787 1.363 . S
C783 H754 0.950 . S
C783 C782 1.397 . S
C783 C784 1.334 . S
C784 H755 0.950 . S
C784 C783 1.334 . S
C784 C785 1.287 . S
C785 C784 1.287 . S
C785 C786 1.524 . S
C785 H788 0.999 . S
C786 H756 0.950 . S
C786 C785 1.524 . S
C786 C787 1.415 . S
C787 H757 0.950 . S
C787 C782 1.363 . S
C787 C786 1.415 . S
H788 C785 0.999 . S
H789 C770 0.913 . S
H790 C808 0.951 . S
H791 C810 0.951 . S
H792 C812 0.950 . S
H793 C813 0.950 . S
H794 C815 0.950 . S
H795 C818 0.950 . S
H796 C819 0.950 . S
H797 C821 0.950 . S
H798 C822 0.950 . S
H799 C823 0.951 . S
H800 C825 0.951 . S
H801 C827 0.950 . S
H802 C828 0.950 . S
H803 C830 0.950 . S
H804 C833 0.950 . S
H805 C834 0.950 . S
H806 C836 0.950 . S
H807 C837 0.943 1_455 S
C808 H790 0.951 . S
C808 C809 1.366 1_455 S
C808 C810 1.388 . S
C809 C808 1.366 1_655 S
C809 C813 1.385 . S
C810 H791 0.951 . S
C810 C808 1.388 . S
C810 C811 1.366 . S
C811 C810 1.366 . S
C811 C812 1.414 . S
C811 C814 1.499 . S
C812 H792 0.950 . S
C812 C811 1.414 . S
C812 C813 1.374 1_455 S
C813 H793 0.950 . S
C813 C809 1.385 . S
C813 C812 1.374 1_655 S
C814 C811 1.499 . S
C814 C815 1.373 . S
C814 C816 1.389 . S
C815 H794 0.950 . S
C815 C814 1.373 . S
C815 C831 1.377 . S
C816 C814 1.389 . S
C816 C817 1.524 . S
C816 C830 1.377 . S
C817 C816 1.524 . S
C817 C818 1.397 . S
C817 C822 1.363 . S
C818 H795 0.950 . S
C818 C817 1.397 . S
C818 C819 1.334 . S
C819 H796 0.950 . S
C819 C818 1.334 . S
C819 C820 1.287 . S
C820 C819 1.287 . S
C820 C821 1.524 . S
C820 H839 0.913 . S
C821 H797 0.950 . S
C821 C820 1.524 . S
C821 C822 1.415 . S
C822 H798 0.950 . S
C822 C817 1.363 . S
C822 C821 1.415 . S
C823 H799 0.951 . S
C823 C824 1.366 . S
C823 C825 1.388 . S
C824 C823 1.366 . S
C824 C828 1.385 . S
C825 H800 0.951 . S
C825 C823 1.388 . S
C825 C826 1.366 . S
C826 C825 1.366 . S
C826 C827 1.414 . S
C826 C829 1.499 . S
C827 H801 0.950 . S
C827 C826 1.414 . S
C827 C828 1.374 . S
C828 H802 0.950 . S
C828 C824 1.385 . S
C828 C827 1.374 . S
C829 C826 1.499 . S
C829 C830 1.373 . S
C829 C831 1.389 . S
C830 H803 0.950 . S
C830 C816 1.377 . S
C830 C829 1.373 . S
C831 C815 1.377 . S
C831 C829 1.389 . S
C831 C832 1.524 . S
C832 C831 1.524 . S
C832 C833 1.397 . S
C832 C837 1.358 1_455 S
C833 H804 0.950 . S
C833 C832 1.397 . S
C833 C834 1.334 1_455 S
C834 H805 0.950 . S
C834 C833 1.334 1_655 S
C834 C835 1.287 . S
C835 C834 1.287 . S
C835 C836 1.524 . S
C835 H838 0.999 . S
C836 H806 0.950 . S
C836 C835 1.524 . S
C836 C837 1.428 . S
C837 H807 0.943 1_655 S
C837 C832 1.358 1_655 S
C837 C836 1.428 . S
H838 C835 0.999 . S
H839 C820 0.913 . S
H840 C858 0.951 . S
H841 C860 0.951 . S
H842 C862 0.950 . S
H843 C863 0.950 . S
H844 C865 0.950 . S
H845 C868 0.950 . S
H846 C869 0.950 . S
H847 C871 0.950 . S
H848 C872 0.950 . S
H849 C873 0.951 . S
H850 C875 0.951 . S
H851 C877 0.950 . S
H852 C878 0.950 . S
H853 C880 0.950 . S
H854 C883 0.950 . S
H855 C884 0.950 . S
H856 C886 0.950 . S
H857 C887 0.950 . S
C858 H840 0.951 . S
C858 C859 1.366 . S
C858 C860 1.388 . S
C859 C858 1.366 . S
C859 C863 1.385 . S
C860 H841 0.951 . S
C860 C858 1.388 . S
C860 C861 1.366 . S
C861 C860 1.366 . S
C861 C862 1.414 . S
C861 C864 1.499 . S
C862 H842 0.950 . S
C862 C861 1.414 . S
C862 C863 1.374 . S
C863 H843 0.950 . S
C863 C859 1.385 . S
C863 C862 1.374 . S
C864 C861 1.499 . S
C864 C865 1.373 . S
C864 C866 1.389 . S
C865 H844 0.950 . S
C865 C864 1.373 . S
C865 C881 1.377 . S
C866 C864 1.389 . S
C866 C867 1.524 . S
C866 C880 1.377 . S
C867 C866 1.524 . S
C867 C868 1.397 . S
C867 C872 1.363 . S
C868 H845 0.950 . S
C868 C867 1.397 . S
C868 C869 1.334 . S
C869 H846 0.950 . S
C869 C868 1.334 . S
C869 C870 1.287 . S
C870 C869 1.287 . S
C870 C871 1.524 . S
C870 H889 0.913 . S
C871 H847 0.950 . S
C871 C870 1.524 . S
C871 C872 1.415 . S
C872 H848 0.950 . S
C872 C867 1.363 . S
C872 C871 1.415 . S
C873 H849 0.951 . S
C873 C874 1.366 . S
C873 C875 1.388 . S
C874 C873 1.366 . S
C874 C878 1.385 . S
C875 H850 0.951 . S
C875 C873 1.388 . S
C875 C876 1.366 . S
C876 C875 1.366 . S
C876 C877 1.414 . S
C876 C879 1.499 . S
C877 H851 0.950 . S
C877 C876 1.414 . S
C877 C878 1.374 . S
C878 H852 0.950 . S
C878 C874 1.385 . S
C878 C877 1.374 . S
C879 C876 1.499 . S
C879 C880 1.373 . S
C879 C881 1.389 . S
C880 H853 0.950 . S
C880 C866 1.377 . S
C880 C879 1.373 . S
C881 C865 1.377 . S
C881 C879 1.389 . S
C881 C882 1.524 . S
C882 C881 1.524 . S
C882 C883 1.397 . S
C882 C887 1.363 . S
C883 H854 0.950 . S
C883 C882 1.397 . S
C883 C884 1.334 . S
C884 H855 0.950 . S
C884 C883 1.334 . S
C884 C885 1.287 . S
C885 C884 1.287 . S
C885 C886 1.524 . S
C885 H888 0.999 . S
C886 H856 0.950 . S
C886 C885 1.524 . S
C886 C887 1.415 . S
C887 H857 0.950 . S
C887 C882 1.363 . S
C887 C886 1.415 . S
H888 C885 0.999 . S
H889 C870 0.913 . S
H890 C908 0.951 . S
H891 C910 0.951 . S
H892 C912 0.950 . S
H893 C913 0.950 . S
H894 C915 0.950 . S
H895 C918 0.950 . S
H896 C919 0.950 . S
H897 C921 0.950 . S
H898 C922 0.950 . S
H899 C923 0.951 . S
H900 C925 0.951 . S
H901 C927 0.950 . S
H902 C928 0.950 . S
H903 C930 0.950 . S
H904 C933 0.950 . S
H905 C934 0.950 . S
H906 C936 0.950 . S
H907 C937 0.950 . S
C908 H890 0.951 . S
C908 C909 1.366 . S
C908 C910 1.388 . S
C909 C908 1.366 . S
C909 C913 1.385 . S
C910 H891 0.951 . S
C910 C908 1.388 . S
C910 C911 1.366 . S
C911 C910 1.366 . S
C911 C912 1.414 . S
C911 C914 1.499 . S
C912 H892 0.950 . S
C912 C911 1.414 . S
C912 C913 1.374 . S
C913 H893 0.950 . S
C913 C909 1.385 . S
C913 C912 1.374 . S
C914 C911 1.499 . S
C914 C915 1.373 . S
C914 C916 1.389 . S
C915 H894 0.950 . S
C915 C914 1.373 . S
C915 C931 1.377 . S
C916 C914 1.389 . S
C916 C917 1.524 . S
C916 C930 1.377 . S
C917 C916 1.524 . S
C917 C918 1.397 . S
C917 C922 1.363 . S
C918 H895 0.950 . S
C918 C917 1.397 . S
C918 C919 1.334 . S
C919 H896 0.950 . S
C919 C918 1.334 . S
C919 C920 1.287 . S
C920 C919 1.287 . S
C920 C921 1.524 1_455 S
C920 H939 0.913 1_455 S
C921 H897 0.950 . S
C921 C920 1.524 1_655 S
C921 C922 1.415 1_655 S
C922 H898 0.950 . S
C922 C917 1.363 . S
C922 C921 1.415 1_455 S
C923 H899 0.951 . S
C923 C924 1.366 . S
C923 C925 1.388 . S
C924 C923 1.366 . S
C924 C928 1.385 . S
C925 H900 0.951 . S
C925 C923 1.388 . S
C925 C926 1.366 . S
C926 C925 1.366 . S
C926 C927 1.414 . S
C926 C929 1.499 . S
C927 H901 0.950 . S
C927 C926 1.414 . S
C927 C928 1.374 . S
C928 H902 0.950 . S
C928 C924 1.385 . S
C928 C927 1.374 . S
C929 C926 1.499 . S
C929 C930 1.373 . S
C929 C931 1.389 . S
C930 H903 0.950 . S
C930 C916 1.377 . S
C930 C929 1.373 . S
C931 C915 1.377 . S
C931 C929 1.389 . S
C931 C932 1.524 . S
C932 C931 1.524 . S
C932 C933 1.397 . S
C932 C937 1.363 . S
C933 H904 0.950 . S
C933 C932 1.397 . S
C933 C934 1.334 . S
C934 H905 0.950 . S
C934 C933 1.334 . S
C934 C935 1.287 . S
C935 C934 1.287 . S
C935 C936 1.524 . S
C935 H938 0.999 . S
C936 H906 0.950 . S
C936 C935 1.524 . S
C936 C937 1.415 . S
C937 H907 0.950 . S
C937 C932 1.363 . S
C937 C936 1.415 . S
H938 C935 0.999 . S
H939 C920 0.913 1_655 S
H940 C958 0.951 . S
H941 C960 0.951 . S
H942 C962 0.950 . S
H943 C963 0.950 . S
H944 C965 0.950 . S
H945 C968 0.950 . S
H946 C969 0.950 1_455 S
H947 C971 0.950 . S
H948 C972 0.950 . S
H949 C973 0.951 . S
H950 C975 0.951 . S
H951 C977 0.950 . S
H952 C978 0.950 . S
H953 C980 0.950 . S
H954 C983 0.950 . S
H955 C984 0.950 . S
H956 C986 0.950 . S
H957 C987 0.950 . S
C958 H940 0.951 . S
C958 C959 1.366 . S
C958 C960 1.388 . S
C959 C958 1.366 . S
C959 C963 1.385 . S
C960 H941 0.951 . S
C960 C958 1.388 . S
C960 C961 1.366 . S
C961 C960 1.366 . S
C961 C962 1.414 . S
C961 C964 1.499 . S
C962 H942 0.950 . S
C962 C961 1.414 . S
C962 C963 1.374 . S
C963 H943 0.950 . S
C963 C959 1.385 . S
C963 C962 1.374 . S
C964 C961 1.499 . S
C964 C965 1.373 . S
C964 C966 1.389 . S
C965 H944 0.950 . S
C965 C964 1.373 . S
C965 C981 1.377 . S
C966 C964 1.389 . S
C966 C967 1.524 . S
C966 C980 1.377 . S
C967 C966 1.524 . S
C967 C968 1.397 . S
C967 C972 1.363 . S
C968 H945 0.950 . S
C968 C967 1.397 . S
C968 C969 1.334 . S
C969 H946 0.950 1_655 S
C969 C968 1.334 . S
C969 C970 1.287 . S
C970 C969 1.287 . S
C970 C971 1.524 . S
C970 H989 0.913 . S
C971 H947 0.950 . S
C971 C970 1.524 . S
C971 C972 1.415 . S
C972 H948 0.950 . S
C972 C967 1.363 . S
C972 C971 1.415 . S
C973 H949 0.951 . S
C973 C974 1.366 . S
C973 C975 1.388 . S
C974 C973 1.366 . S
C974 C978 1.385 . S
C975 H950 0.951 . S
C975 C973 1.388 . S
C975 C976 1.366 . S
C976 C975 1.366 . S
C976 C977 1.414 . S
C976 C979 1.499 . S
C977 H951 0.950 . S
C977 C976 1.414 . S
C977 C978 1.374 . S
C978 H952 0.950 . S
C978 C974 1.385 . S
C978 C977 1.374 . S
C979 C976 1.499 . S
C979 C980 1.373 . S
C979 C981 1.389 . S
C980 H953 0.950 . S
C980 C966 1.377 . S
C980 C979 1.373 . S
C981 C965 1.377 . S
C981 C979 1.389 . S
C981 C982 1.524 . S
C982 C981 1.524 . S
C982 C983 1.397 . S
C982 C987 1.363 . S
C983 H954 0.950 . S
C983 C982 1.397 . S
C983 C984 1.334 1_545 S
C984 H955 0.950 . S
C984 C983 1.334 1_565 S
C984 C985 1.287 . S
C985 C984 1.287 . S
C985 C986 1.524 . S
C985 H988 0.999 . S
C986 H956 0.950 . S
C986 C985 1.524 . S
C986 C987 1.415 1_565 S
C987 H957 0.950 . S
C987 C982 1.363 . S
C987 C986 1.415 1_545 S
H988 C985 0.999 . S
H989 C970 0.913 . S
H990 C1008 0.951 . S
H991 C1010 0.951 . S
H992 C1012 0.950 . S
H993 C1013 0.950 . S
H994 C1015 0.950 . S
H995 C1018 0.950 . S
H996 C1019 0.950 . S
H997 C1021 0.950 1_455 S
H998 C1022 0.950 . S
H999 C1023 0.951 . S
H1000 C1025 0.951 . S
H1001 C1027 0.950 . S
H1002 C1028 0.950 . S
H1003 C1030 0.950 . S
H1004 C1033 0.950 . S
H1005 C1034 0.950 . S
H1006 C1036 0.950 . S
H1007 C1037 0.950 . S
C1008 H990 0.951 . S
C1008 C1009 1.366 . S
C1008 C1010 1.388 . S
C1009 C1008 1.366 . S
C1009 C1013 1.385 . S
C1010 H991 0.951 . S
C1010 C1008 1.388 . S
C1010 C1011 1.366 . S
C1011 C1010 1.366 . S
C1011 C1012 1.414 . S
C1011 C1014 1.499 . S
C1012 H992 0.950 . S
C1012 C1011 1.414 . S
C1012 C1013 1.374 . S
C1013 H993 0.950 . S
C1013 C1009 1.385 . S
C1013 C1012 1.374 . S
C1014 C1011 1.499 . S
C1014 C1015 1.373 . S
C1014 C1016 1.389 . S
C1015 H994 0.950 . S
C1015 C1014 1.373 . S
C1015 C1031 1.377 . S
C1016 C1014 1.389 . S
C1016 C1017 1.524 . S
C1016 C1030 1.377 . S
C1017 C1016 1.524 . S
C1017 C1018 1.397 . S
C1017 C1022 1.363 . S
C1018 H995 0.950 . S
C1018 C1017 1.397 . S
C1018 C1019 1.334 . S
C1019 H996 0.950 . S
C1019 C1018 1.334 . S
C1019 C1020 1.287 . S
C1020 C1019 1.287 . S
C1020 C1021 1.524 . S
C1020 H1039 0.913 . S
C1021 H997 0.950 1_655 S
C1021 C1020 1.524 . S
C1021 C1022 1.415 . S
C1022 H998 0.950 . S
C1022 C1017 1.363 . S
C1022 C1021 1.415 . S
C1023 H999 0.951 . S
C1023 C1024 1.366 . S
C1023 C1025 1.388 . S
C1024 C1023 1.366 . S
C1024 C1028 1.385 . S
C1025 H1000 0.951 . S
C1025 C1023 1.388 . S
C1025 C1026 1.366 . S
C1026 C1025 1.366 . S
C1026 C1027 1.414 . S
C1026 C1029 1.499 . S
C1027 H1001 0.950 . S
C1027 C1026 1.414 . S
C1027 C1028 1.374 . S
C1028 H1002 0.950 . S
C1028 C1024 1.385 . S
C1028 C1027 1.374 . S
C1029 C1026 1.499 . S
C1029 C1030 1.373 . S
C1029 C1031 1.389 . S
C1030 H1003 0.950 . S
C1030 C1016 1.377 . S
C1030 C1029 1.373 . S
C1031 C1015 1.377 . S
C1031 C1029 1.389 . S
C1031 C1032 1.524 . S
C1032 C1031 1.524 . S
C1032 C1033 1.397 . S
C1032 C1037 1.363 . S
C1033 H1004 0.950 . S
C1033 C1032 1.397 . S
C1033 C1034 1.334 . S
C1034 H1005 0.950 . S
C1034 C1033 1.334 . S
C1034 C1035 1.287 . S
C1035 C1034 1.287 . S
C1035 C1036 1.524 . S
C1035 H1038 0.999 . S
C1036 H1006 0.950 . S
C1036 C1035 1.524 . S
C1036 C1037 1.415 . S
C1037 H1007 0.950 . S
C1037 C1032 1.363 . S
C1037 C1036 1.415 . S
H1038 C1035 0.999 . S
H1039 C1020 0.913 . S
H1040 C1058 0.951 . S
H1041 C1060 0.951 . S
H1042 C1062 0.950 . S
H1043 C1063 0.950 . S
H1044 C1065 0.950 . S
H1045 C1068 0.950 . S
H1046 C1069 0.950 . S
H1047 C1071 0.950 . S
H1048 C1072 0.950 . S
H1049 C1073 0.951 . S
H1050 C1075 0.951 1_655 S
H1051 C1077 0.950 . S
H1052 C1078 0.950 . S
H1053 C1080 0.950 . S
H1054 C1083 0.950 . S
H1055 C1084 0.950 1_455 S
H1056 C1086 0.950 . S
H1057 C1087 0.950 . S
C1058 H1040 0.951 . S
C1058 C1059 1.366 1_455 S
C1058 C1060 1.388 . S
C1059 C1058 1.366 1_655 S
C1059 C1063 1.385 . S
C1060 H1041 0.951 . S
C1060 C1058 1.388 . S
C1060 C1061 1.366 1_455 S
C1061 C1060 1.366 1_655 S
C1061 C1062 1.414 . S
C1061 C1064 1.499 1_655 S
C1062 H1042 0.950 . S
C1062 C1061 1.414 . S
C1062 C1063 1.374 . S
C1063 H1043 0.950 . S
C1063 C1059 1.385 . S
C1063 C1062 1.374 . S
C1064 C1061 1.499 1_455 S
C1064 C1065 1.373 1_455 S
C1064 C1066 1.389 . S
C1065 H1044 0.950 . S
C1065 C1064 1.373 1_655 S
C1065 C1081 1.377 . S
C1066 C1064 1.389 . S
C1066 C1067 1.524 . S
C1066 C1080 1.377 . S
C1067 C1066 1.524 . S
C1067 C1068 1.397 . S
C1067 C1072 1.363 . S
C1068 H1045 0.950 . S
C1068 C1067 1.397 . S
C1068 C1069 1.334 . S
C1069 H1046 0.950 . S
C1069 C1068 1.334 . S
C1069 C1070 1.287 . S
C1070 C1069 1.287 . S
C1070 C1071 1.524 . S
C1070 H1089 0.913 . S
C1071 H1047 0.950 . S
C1071 C1070 1.524 . S
C1071 C1072 1.415 . S
C1072 H1048 0.950 . S
C1072 C1067 1.363 . S
C1072 C1071 1.415 . S
C1073 H1049 0.951 . S
C1073 C1074 1.366 . S
C1073 C1075 1.388 . S
C1074 C1073 1.366 . S
C1074 C1078 1.385 . S
C1075 H1050 0.951 1_455 S
C1075 C1073 1.388 . S
C1075 C1076 1.366 . S
C1076 C1075 1.366 . S
C1076 C1077 1.414 . S
C1076 C1079 1.499 . S
C1077 H1051 0.950 . S
C1077 C1076 1.414 . S
C1077 C1078 1.374 . S
C1078 H1052 0.950 . S
C1078 C1074 1.385 . S
C1078 C1077 1.374 . S
C1079 C1076 1.499 . S
C1079 C1080 1.373 . S
C1079 C1081 1.389 1_455 S
C1080 H1053 0.950 . S
C1080 C1066 1.377 . S
C1080 C1079 1.373 . S
C1081 C1065 1.377 . S
C1081 C1079 1.389 1_655 S
C1081 C1082 1.524 . S
C1082 C1081 1.524 . S
C1082 C1083 1.397 1_655 S
C1082 C1087 1.363 . S
C1083 H1054 0.950 . S
C1083 C1082 1.397 1_455 S
C1083 C1084 1.334 1_455 S
C1084 H1055 0.950 1_655 S
C1084 C1083 1.334 1_655 S
C1084 C1085 1.287 . S
C1085 C1084 1.287 . S
C1085 C1086 1.524 . S
C1085 H1088 0.999 . S
C1086 H1056 0.950 . S
C1086 C1085 1.524 . S
C1086 C1087 1.415 . S
C1087 H1057 0.950 . S
C1087 C1082 1.363 . S
C1087 C1086 1.415 . S
H1088 C1085 0.999 . S
H1089 C1070 0.913 . S
H1090 C1108 0.951 . S
H1091 C1110 0.951 . S
H1092 C1112 0.950 . S
H1093 C1113 0.950 . S
H1094 C1115 0.950 . S
H1095 C1118 0.950 1_565 S
H1096 C1119 0.950 1_565 S
H1097 C1121 0.950 . S
H1098 C1122 0.950 . S
H1099 C1123 0.951 . S
H1100 C1125 0.951 1_565 S
H1101 C1127 0.950 . S
H1102 C1128 0.950 . S
H1103 C1130 0.950 . S
H1104 C1133 0.950 . S
H1105 C1134 0.950 . S
H1106 C1136 0.950 . S
H1107 C1137 0.950 . S
C1108 H1090 0.951 . S
C1108 C1109 1.366 1_545 S
C1108 C1110 1.388 . S
C1109 C1108 1.366 1_565 S
C1109 C1113 1.385 . S
C1110 H1091 0.951 . S
C1110 C1108 1.388 . S
C1110 C1111 1.366 1_545 S
C1111 C1110 1.366 1_565 S
C1111 C1112 1.414 . S
C1111 C1114 1.499 1_565 S
C1112 H1092 0.950 . S
C1112 C1111 1.414 . S
C1112 C1113 1.374 . S
C1113 H1093 0.950 . S
C1113 C1109 1.385 . S
C1113 C1112 1.374 . S
C1114 C1111 1.499 1_545 S
C1114 C1115 1.373 1_545 S
C1114 C1116 1.389 . S
C1115 H1094 0.950 . S
C1115 C1114 1.373 1_565 S
C1115 C1131 1.377 1_565 S
C1116 C1114 1.389 . S
C1116 C1117 1.524 . S
C1116 C1130 1.377 . S
C1117 C1116 1.524 . S
C1117 C1118 1.397 . S
C1117 C1122 1.363 . S
C1118 H1095 0.950 1_545 S
C1118 C1117 1.397 . S
C1118 C1119 1.334 . S
C1119 H1096 0.950 1_545 S
C1119 C1118 1.334 . S
C1119 C1120 1.287 . S
C1120 C1119 1.287 . S
C1120 C1121 1.524 . S
C1120 H1139 0.913 . S
C1121 H1097 0.950 . S
C1121 C1120 1.524 . S
C1121 C1122 1.415 . S
C1122 H1098 0.950 . S
C1122 C1117 1.363 . S
C1122 C1121 1.415 . S
C1123 H1099 0.951 . S
C1123 C1124 1.366 . S
C1123 C1125 1.388 . S
C1124 C1123 1.366 . S
C1124 C1128 1.385 . S
C1125 H1100 0.951 1_545 S
C1125 C1123 1.388 . S
C1125 C1126 1.366 . S
C1126 C1125 1.366 . S
C1126 C1127 1.414 . S
C1126 C1129 1.499 . S
C1127 H1101 0.950 . S
C1127 C1126 1.414 . S
C1127 C1128 1.374 . S
C1128 H1102 0.950 . S
C1128 C1124 1.385 . S
C1128 C1127 1.374 . S
C1129 C1126 1.499 . S
C1129 C1130 1.373 . S
C1129 C1131 1.389 . S
C1130 H1103 0.950 . S
C1130 C1116 1.377 . S
C1130 C1129 1.373 . S
C1131 C1115 1.377 1_545 S
C1131 C1129 1.389 . S
C1131 C1132 1.524 1_545 S
C1132 C1131 1.524 1_565 S
C1132 C1133 1.397 1_565 S
C1132 C1137 1.363 . S
C1133 H1104 0.950 . S
C1133 C1132 1.397 1_545 S
C1133 C1134 1.334 . S
C1134 H1105 0.950 . S
C1134 C1133 1.334 . S
C1134 C1135 1.287 1_545 S
C1135 C1134 1.287 1_565 S
C1135 C1136 1.524 . S
C1135 H1138 0.999 . S
C1136 H1106 0.950 . S
C1136 C1135 1.524 . S
C1136 C1137 1.415 . S
C1137 H1107 0.950 . S
C1137 C1132 1.363 . S
C1137 C1136 1.415 . S
H1138 C1135 0.999 . S
H1139 C1120 0.913 . S
C259 C129 1.156 1_566 S
C274 C9 1.156 1_556 S
C309 C169 1.156 . S
C324 C49 1.156 . S
C359 C209 1.158 . S
C374 C89 1.158 1_655 S
C409 C15 0.573 . S
C424 C86 0.544 . S
C459 C55 0.570 . S
C474 C126 0.545 . S
C509 C95 0.574 . S
C524 C166 0.544 . S
C559 C135 0.574 . S
C574 C206 0.545 . S
C609 C175 0.571 . S
C624 C6 0.543 . S
C659 C215 0.573 . S
C674 C46 0.547 . S
C709 C18 0.998 . S
C724 C138 0.998 . S
C759 C58 0.998 . S
C774 C178 0.998 . S
C809 C98 0.998 . S
C824 C218 0.998 . S
C859 C10 3.888 . S
C874 C59 3.944 . S
C909 C50 3.888 . S
C924 C99 3.944 . S
C959 C90 3.888 . S
C974 C139 3.944 . S
C1009 C130 3.889 . S
C1024 C179 3.944 . S
C1059 C170 3.889 . S
C1074 C219 3.945 . S
C1109 C210 3.889 . S
C1124 C19 3.944 . S
