# Generated by pormake.
# Topology uol, (4)-cn, num edge types: 1
# Building blocks:
#     Node 0, Type 0, BuildingBlock: ICAMEG_clean_sbu_1, # of connection points: 4
#     Node 1, Type 0, BuildingBlock: ICAMEG_clean_sbu_1, # of connection points: 4
#     Node 2, Type 0, BuildingBlock: ICAMEG_clean_sbu_1, # of connection points: 4
#     Node 3, Type 0, BuildingBlock: ICAMEG_clean_sbu_1, # of connection points: 4
#     Node 4, Type 0, BuildingBlock: ICAMEG_clean_sbu_1, # of connection points: 4
#     Node 5, Type 0, BuildingBlock: ICAMEG_clean_sbu_1, # of connection points: 4
#     Node 6, Type 0, BuildingBlock: ICAMEG_clean_sbu_1, # of connection points: 4
#     Node 7, Type 0, BuildingBlock: ICAMEG_clean_sbu_1, # of connection points: 4
#     Node 8, Type 0, BuildingBlock: ICAMEG_clean_sbu_1, # of connection points: 4
#     Node 9, Type 0, BuildingBlock: ICAMEG_clean_sbu_1, # of connection points: 4
#     Node 10, Type 0, BuildingBlock: ICAMEG_clean_sbu_1, # of connection points: 4
#     Node 11, Type 0, BuildingBlock: ICAMEG_clean_sbu_1, # of connection points: 4
#     Edge 12, Type (0, 0), BuildingBlock: OJICUG_clean_linker_0, # of connection points: 2
#     Edge 13, Type (0, 0), BuildingBlock: OJICUG_clean_linker_0, # of connection points: 2
#     Edge 14, Type (0, 0), BuildingBlock: OJICUG_clean_linker_0, # of connection points: 2
#     Edge 15, Type (0, 0), BuildingBlock: OJICUG_clean_linker_0, # of connection points: 2
#     Edge 16, Type (0, 0), BuildingBlock: OJICUG_clean_linker_0, # of connection points: 2
#     Edge 17, Type (0, 0), BuildingBlock: OJICUG_clean_linker_0, # of connection points: 2
#     Edge 18, Type (0, 0), BuildingBlock: OJICUG_clean_linker_0, # of connection points: 2
#     Edge 19, Type (0, 0), BuildingBlock: OJICUG_clean_linker_0, # of connection points: 2
#     Edge 20, Type (0, 0), BuildingBlock: OJICUG_clean_linker_0, # of connection points: 2
#     Edge 21, Type (0, 0), BuildingBlock: OJICUG_clean_linker_0, # of connection points: 2
#     Edge 22, Type (0, 0), BuildingBlock: OJICUG_clean_linker_0, # of connection points: 2
#     Edge 23, Type (0, 0), BuildingBlock: OJICUG_clean_linker_0, # of connection points: 2
#     Edge 24, Type (0, 0), BuildingBlock: OJICUG_clean_linker_0, # of connection points: 2
#     Edge 25, Type (0, 0), BuildingBlock: OJICUG_clean_linker_0, # of connection points: 2
#     Edge 26, Type (0, 0), BuildingBlock: OJICUG_clean_linker_0, # of connection points: 2
#     Edge 27, Type (0, 0), BuildingBlock: OJICUG_clean_linker_0, # of connection points: 2
#     Edge 28, Type (0, 0), BuildingBlock: OJICUG_clean_linker_0, # of connection points: 2
#     Edge 29, Type (0, 0), BuildingBlock: OJICUG_clean_linker_0, # of connection points: 2
#     Edge 30, Type (0, 0), BuildingBlock: OJICUG_clean_linker_0, # of connection points: 2
#     Edge 31, Type (0, 0), BuildingBlock: OJICUG_clean_linker_0, # of connection points: 2
#     Edge 32, Type (0, 0), BuildingBlock: OJICUG_clean_linker_0, # of connection points: 2
#     Edge 33, Type (0, 0), BuildingBlock: OJICUG_clean_linker_0, # of connection points: 2
#     Edge 34, Type (0, 0), BuildingBlock: OJICUG_clean_linker_0, # of connection points: 2
#     Edge 35, Type (0, 0), BuildingBlock: OJICUG_clean_linker_0, # of connection points: 2
# Relax obj value: 0.048
# Max RMSD: 0.110
# Mean RMSD: 0.110
data_MOF--net-uol--node1-ICAMEG_clean_sbu_1--edge1-OJICUG_clean_linker_0
_symmetry_space_group_name_H-M    P1
_symmetry_Int_Tables_number       1
_symmetry_cell_setting            triclinic
loop_
_symmetry_equiv_pos_as_xyz
'x, y, z'
_cell_length_a     26.06038
_cell_length_b     26.065134
_cell_length_c     53.42218
_cell_angle_alpha  90.086349
_cell_angle_beta   89.987264
_cell_angle_gamma 119.99392
loop_
_atom_site_label
_atom_site_type_symbol
_atom_site_fract_x
_atom_site_fract_y
_atom_site_fract_z
_atom_type_partial_charge
Co0 Co 0.05484 0.25987 0.11434 0.0
Co1 Co 0.18018 0.3941 0.12806 0.0
O2 O 0.09438 0.34233 0.12556 0.0
C3 C 0.00692 0.25596 0.16477 0.0
O4 O 0.06091 0.29591 0.1713 0.0
C5 C 0.14647 0.4627 0.09407 0.0
O6 O 0.12284 0.41696 0.07887 0.0
O7 O 0.19257 0.37114 0.09378 0.0
O8 O 0.11272 0.28142 0.08636 0.0
H9 H 0.39351 0.44694 0.12135 0.0
H10 H 0.98557 0.32048 0.12225 0.0
O11 O 0.99599 0.23613 0.14244 0.0
H12 H 0.95652 0.26089 0.03339 0.0
H13 H 0.87744 0.06066 0.09529 0.0
H14 H 0.09568 0.17881 0.09598 0.0
H15 H 0.0175 0.23662 0.06085 0.0
H16 H 0.92847 0.165 0.10911 0.0
O17 O 0.17167 0.46103 0.11422 0.0
H18 H 0.28536 0.38105 0.11851 0.0
H19 H 0.25759 0.52033 0.14307 0.0
H20 H 0.04645 0.07474 0.08186 0.0
H21 H 0.92382 0.3453 0.09553 0.0
H22 H 0.93654 0.01503 0.0814 0.0
H23 H 0.9091 0.31555 0.05074 0.0
O24 O 0.10624 0.24181 0.13593 0.0
H25 H 0.08419 0.45816 0.19316 0.0
H26 H 0.23557 0.40111 0.17772 0.0
H27 H 0.22027 0.42584 0.22063 0.0
H28 H 0.14415 0.45466 0.22856 0.0
H29 H 0.10048 0.43246 0.15058 0.0
H30 H 0.3655 0.58788 0.14603 0.0
H31 H 0.43427 0.55122 0.13518 0.0
O32 O 0.18986 0.32865 0.14209 0.0
C33 C 0.16343 0.3246 0.0804 0.0
C34 C 0.36402 0.46345 0.12612 0.0
C35 C 0.34828 0.54255 0.13994 0.0
N36 N 0.26515 0.44677 0.13057 0.0
C37 C 0.3027 0.42632 0.12455 0.0
C38 C 0.28721 0.50414 0.13814 0.0
C39 C 0.38685 0.52195 0.13387 0.0
C40 C 0.97897 0.30702 0.10282 0.0
N41 N 0.00489 0.27696 0.09313 0.0
C42 C 0.94414 0.32135 0.08777 0.0
C43 C 0.93596 0.30471 0.06263 0.0
C44 C 0.96257 0.27407 0.05288 0.0
C45 C 0.99718 0.26058 0.06849 0.0
C46 C 0.92535 0.0863 0.09535 0.0
C47 C 0.04783 0.15317 0.09572 0.0
C48 C 0.95448 0.14534 0.1032 0.0
N49 N 0.01497 0.17807 0.10316 0.0
C50 C 0.02022 0.09422 0.08777 0.0
C51 C 0.95855 0.0607 0.08756 0.0
C52 C 0.15894 0.27254 0.14434 0.0
C53 C 0.11762 0.44585 0.18993 0.0
C54 C 0.20225 0.41346 0.18102 0.0
C55 C 0.19389 0.42755 0.20535 0.0
C56 C 0.15121 0.44378 0.20979 0.0
N57 N 0.16913 0.41558 0.16162 0.0
C58 C 0.12727 0.43155 0.16583 0.0
Co59 Co 0.79597 0.05126 0.2814 0.0
Co60 Co 0.78637 0.17772 0.29187 0.0
O61 O 0.75251 0.09151 0.2912 0.0
C62 C 0.75044 0.00633 0.33212 0.0
O63 O 0.76273 0.06019 0.33797 0.0
C64 C 0.67636 0.13071 0.26131 0.0
O65 O 0.68758 0.09062 0.25217 0.0
O66 O 0.82117 0.18627 0.25779 0.0
O67 O 0.83268 0.10678 0.25263 0.0
H68 H 0.94783 0.38973 0.28211 0.0
H69 H 0.66611 0.98029 0.28916 0.0
O70 O 0.7607 0.99471 0.31014 0.0
H71 H 0.69833 0.94576 0.20124 0.0
H72 H 0.81966 0.87322 0.26722 0.0
H73 H 0.91841 0.09123 0.2642 0.0
H74 H 0.78292 0.01024 0.22844 0.0
H75 H 0.76513 0.92473 0.27841 0.0
O76 O 0.71184 0.16932 0.27682 0.0
H77 H 0.9049 0.28132 0.28137 0.0
H78 H 0.73823 0.25723 0.30432 0.0
H79 H 0.97447 0.04149 0.25269 0.0
H80 H 0.58025 0.91489 0.26274 0.0
H81 H 0.92503 0.93168 0.25428 0.0
H82 H 0.5961 0.89749 0.2184 0.0
O83 O 0.86475 0.10449 0.303 0.0
H84 H 0.62571 0.0886 0.35687 0.0
H85 H 0.83443 0.23803 0.3408 0.0
H86 H 0.79398 0.22704 0.38345 0.0
H87 H 0.68889 0.15193 0.39169 0.0
H88 H 0.66812 0.10063 0.31457 0.0
H89 H 0.77924 0.3654 0.30514 0.0
H90 H 0.88481 0.43247 0.29405 0.0
O91 O 0.86121 0.18847 0.30684 0.0
C92 C 0.83928 0.15639 0.24542 0.0
C93 C 0.90175 0.36099 0.28697 0.0
C94 C 0.80712 0.34732 0.29987 0.0
N95 N 0.81911 0.26293 0.29272 0.0
C96 C 0.8772 0.29954 0.28658 0.0
C97 C 0.78409 0.28608 0.29927 0.0
C98 C 0.86637 0.38493 0.29366 0.0
C99 C 0.67338 0.97242 0.26997 0.0
N100 N 0.72944 0.99904 0.26035 0.0
C101 C 0.62459 0.93557 0.25506 0.0
C102 C 0.6335 0.92591 0.23017 0.0
C103 C 0.69084 0.95305 0.22052 0.0
C104 C 0.73855 0.98972 0.23597 0.0
C105 C 0.84162 0.92107 0.26643 0.0
C106 C 0.89647 0.04341 0.26469 0.0
C107 C 0.81101 0.95048 0.27278 0.0
N108 N 0.83846 0.0109 0.27178 0.0
C109 C 0.9285 0.01551 0.25824 0.0
C110 C 0.90076 0.95391 0.25914 0.0
C111 C 0.88631 0.15785 0.31049 0.0
C112 C 0.67151 0.12164 0.35349 0.0
C113 C 0.78868 0.20515 0.34424 0.0
C114 C 0.76599 0.19923 0.36842 0.0
C115 C 0.70701 0.15711 0.37303 0.0
N116 N 0.75358 0.17021 0.32517 0.0
C117 C 0.69568 0.12887 0.32954 0.0
Co118 Co 0.74666 0.79535 0.44801 0.0
Co119 Co 0.6115 0.78707 0.45987 0.0
O120 O 0.66334 0.75252 0.45847 0.0
C121 C 0.74805 0.74979 0.49864 0.0
O122 O 0.70562 0.7606 0.50477 0.0
C123 C 0.54724 0.6789 0.42823 0.0
O124 O 0.59845 0.68959 0.41918 0.0
O125 O 0.63738 0.82319 0.42603 0.0
O126 O 0.72653 0.83129 0.4194 0.0
H127 H 0.56281 0.95029 0.45225 0.0
H128 H 0.68755 0.66576 0.45637 0.0
O129 O 0.76958 0.76088 0.47661 0.0
H130 H 0.7497 0.69492 0.36789 0.0
H131 H 0.94729 0.81796 0.43153 0.0
H132 H 0.82835 0.91719 0.42998 0.0
H133 H 0.77172 0.78048 0.39483 0.0
H134 H 0.84215 0.76421 0.44413 0.0
O135 O 0.54463 0.71361 0.44434 0.0
H136 H 0.62746 0.90645 0.45053 0.0
H137 H 0.48425 0.73964 0.4728 0.0
H138 H 0.93324 0.97246 0.41707 0.0
H139 H 0.66516 0.57895 0.43019 0.0
H140 H 0.9934 0.92277 0.41779 0.0
H141 H 0.69612 0.59326 0.38558 0.0
O142 O 0.76351 0.86489 0.46933 0.0
H143 H 0.53918 0.6235 0.52345 0.0
H144 H 0.60062 0.83344 0.50947 0.0
H145 H 0.57137 0.79123 0.55184 0.0
H146 H 0.54031 0.68551 0.55903 0.0
H147 H 0.56938 0.66767 0.48143 0.0
H148 H 0.41791 0.78157 0.47459 0.0
H149 H 0.45716 0.88767 0.46434 0.0
O150 O 0.6763 0.86107 0.47518 0.0
C151 C 0.68412 0.83966 0.413 0.0
C152 C 0.54517 0.90399 0.45676 0.0
C153 C 0.46384 0.80929 0.46927 0.0
N154 N 0.55971 0.82055 0.46151 0.0
C155 C 0.5816 0.87892 0.45583 0.0
C156 C 0.50159 0.78575 0.46813 0.0
C157 C 0.4859 0.86883 0.46354 0.0
C158 C 0.70171 0.67236 0.43705 0.0
N159 N 0.73099 0.7281 0.42714 0.0
C160 C 0.68867 0.62303 0.42229 0.0
C161 C 0.70595 0.63109 0.39725 0.0
C162 C 0.73596 0.6881 0.3873 0.0
C163 C 0.74812 0.73637 0.40261 0.0
C164 C 0.92147 0.84004 0.43108 0.0
C165 C 0.85415 0.89514 0.43019 0.0
C166 C 0.86195 0.80986 0.43823 0.0
N167 N 0.82902 0.83739 0.4376 0.0
C168 C 0.91357 0.92673 0.42293 0.0
C169 C 0.94733 0.89886 0.42337 0.0
C170 C 0.73239 0.88639 0.47774 0.0
C171 C 0.55243 0.66957 0.52053 0.0
C172 C 0.5873 0.78743 0.51245 0.0
C173 C 0.57065 0.76375 0.53648 0.0
C174 C 0.55318 0.70441 0.5405 0.0
N175 N 0.58643 0.75296 0.49296 0.0
C176 C 0.56927 0.69473 0.49675 0.0
Co177 Co 0.95301 0.7427 0.61542 0.0
Co178 Co 0.82476 0.60889 0.6262 0.0
O179 O 0.91089 0.65996 0.6261 0.0
C180 C 0.99203 0.74979 0.66764 0.0
O181 O 0.93572 0.71714 0.67334 0.0
C182 C 0.87111 0.54458 0.5963 0.0
O183 O 0.9104 0.59569 0.58677 0.0
O184 O 0.8176 0.63442 0.59178 0.0
O185 O 0.89898 0.72373 0.58601 0.0
H186 H 0.61391 0.56114 0.61477 0.0
H187 H 0.02132 0.68199 0.62576 0.0
O188 O 0.00776 0.76353 0.64493 0.0
H189 H 0.06013 0.74187 0.53713 0.0
H190 H 0.13559 0.94046 0.60062 0.0
H191 H 0.91745 0.82679 0.59572 0.0
H192 H 0.99604 0.76586 0.56267 0.0
H193 H 0.08057 0.83547 0.61327 0.0
O194 O 0.83275 0.54169 0.6119 0.0
H195 H 0.72252 0.6254 0.61458 0.0
H196 H 0.74352 0.48189 0.63885 0.0
H197 H 0.97074 0.93157 0.58269 0.0
H198 H 0.08623 0.65765 0.60098 0.0
H199 H 0.08066 0.98908 0.58513 0.0
H200 H 0.10579 0.68743 0.5563 0.0
O201 O 0.89948 0.7612 0.6355 0.0
H202 H 0.91122 0.53952 0.69325 0.0
H203 H 0.76279 0.59865 0.67442 0.0
H204 H 0.7722 0.57083 0.71758 0.0
H205 H 0.84679 0.54093 0.72721 0.0
H206 H 0.90067 0.56816 0.65039 0.0
H207 H 0.63512 0.41592 0.63913 0.0
H208 H 0.5695 0.45552 0.62709 0.0
O209 O 0.81501 0.67435 0.64033 0.0
C210 C 0.84858 0.68148 0.57902 0.0
C211 C 0.64202 0.54334 0.62003 0.0
C212 C 0.65393 0.46183 0.63368 0.0
N213 N 0.73938 0.55744 0.62661 0.0
C214 C 0.70357 0.57953 0.61996 0.0
C215 C 0.71531 0.49935 0.63338 0.0
C216 C 0.61714 0.48409 0.62694 0.0
C217 C 0.03014 0.69566 0.6064 0.0
N218 N 0.005 0.72538 0.59567 0.0
C219 C 0.06671 0.68151 0.59243 0.0
C220 C 0.07758 0.69814 0.56735 0.0
C221 C 0.05191 0.72862 0.55657 0.0
C222 C 0.01548 0.7419 0.5711 0.0
C223 C 0.08772 0.91581 0.59943 0.0
C224 C 0.96528 0.85145 0.59667 0.0
C225 C 0.05633 0.8564 0.60661 0.0
N226 N 0.9959 0.82494 0.60505 0.0
C227 C 0.9952 0.91081 0.58933 0.0
C228 C 0.05685 0.94308 0.59073 0.0
C229 C 0.84605 0.7304 0.64311 0.0
C230 C 0.8784 0.55227 0.68926 0.0
C231 C 0.79538 0.58571 0.67846 0.0
C232 C 0.80044 0.56993 0.70293 0.0
C233 C 0.8423 0.55314 0.70832 0.0
N234 N 0.83086 0.5846 0.65986 0.0
C235 C 0.87205 0.56828 0.66501 0.0
Co236 Co 0.21215 0.95905 0.78483 0.0
Co237 Co 0.21885 0.83092 0.78914 0.0
O238 O 0.25591 0.91737 0.79164 0.0
C239 C 0.2696 0.00671 0.83367 0.0
O240 O 0.25603 0.95253 0.83959 0.0
C241 C 0.33301 0.87818 0.76168 0.0
O242 O 0.32516 0.9209 0.75313 0.0
O243 O 0.19271 0.83251 0.75428 0.0
O244 O 0.165 0.90112 0.75777 0.0
H245 H 0.05483 0.62608 0.76771 0.0
H246 H 0.34327 0.02972 0.78614 0.0
O247 O 0.25654 0.01766 0.81212 0.0
H248 H 0.28719 0.05465 0.70078 0.0
H249 H 0.19132 0.13968 0.77407 0.0
H250 H 0.08603 0.92132 0.77491 0.0
H251 H 0.21058 0.99348 0.73171 0.0
H252 H 0.24577 0.08629 0.78149 0.0
O253 O 0.29465 0.83856 0.77601 0.0
H254 H 0.10215 0.73466 0.77148 0.0
H255 H 0.2581 0.74381 0.80073 0.0
H256 H 0.02996 0.97291 0.76725 0.0
H257 H 0.42133 0.09201 0.75591 0.0
H258 H 0.08269 0.08292 0.76683 0.0
H259 H 0.39344 0.10457 0.71284 0.0
O260 O 0.15015 0.90872 0.80932 0.0
H261 H 0.3658 0.89757 0.8598 0.0
H262 H 0.15883 0.76105 0.83495 0.0
H263 H 0.18984 0.76028 0.87849 0.0
H264 H 0.29402 0.82881 0.89115 0.0
H265 H 0.33267 0.89748 0.81653 0.0
H266 H 0.21261 0.63535 0.79708 0.0
H267 H 0.11016 0.57571 0.78056 0.0
O268 O 0.14171 0.81998 0.80228 0.0
C269 C 0.16452 0.85766 0.74653 0.0
C270 C 0.09944 0.65156 0.775 0.0
C271 C 0.18802 0.65678 0.79146 0.0
N272 N 0.18267 0.74552 0.78648 0.0
C273 C 0.12643 0.71306 0.77724 0.0
C274 C 0.21359 0.7182 0.79343 0.0
C275 C 0.13053 0.62334 0.7822 0.0
C276 C 0.3308 0.03557 0.76753 0.0
N277 N 0.27248 0.0081 0.76072 0.0
C278 C 0.37519 0.07063 0.75045 0.0
C279 C 0.35951 0.07755 0.72627 0.0
C280 C 0.29991 0.04949 0.71948 0.0
C281 C 0.25673 0.0147 0.73705 0.0
C282 C 0.1679 0.09174 0.77414 0.0
C283 C 0.10938 0.96917 0.77454 0.0
C284 C 0.19847 0.06126 0.77836 0.0
N285 N 0.16921 1.00071 0.7784 0.0
C286 C 0.07734 0.99815 0.77028 0.0
C287 C 0.10692 0.05986 0.77007 0.0
C288 C 0.12228 0.8525 0.81127 0.0
C289 C 0.32031 0.86738 0.85449 0.0
C290 C 0.20417 0.79126 0.84033 0.0
C291 C 0.22152 0.79046 0.865 0.0
C292 C 0.28 0.82887 0.87208 0.0
N293 N 0.24395 0.82923 0.82319 0.0
C294 C 0.30139 0.86691 0.82998 0.0
Co295 Co 0.26879 0.21337 0.94977 0.0
Co296 Co 0.40293 0.22221 0.96333 0.0
O297 O 0.35106 0.25609 0.96113 0.0
C298 C 0.26468 0.25742 1.00019 0.0
O299 O 0.30386 0.24243 0.00682 0.0
C300 C 0.47126 0.32637 0.93043 0.0
O301 O 0.42519 0.30486 0.91543 0.0
O302 O 0.38121 0.18874 0.92873 0.0
O303 O 0.29059 0.17707 0.92176 0.0
H304 H 0.45708 0.06294 0.95494 0.0
H305 H 0.32991 0.34329 0.95771 0.0
O306 O 0.24508 0.24868 0.97782 0.0
H307 H 0.27044 0.31292 0.86886 0.0
H308 H 0.06991 0.19207 0.93051 0.0
H309 H 0.18776 0.09166 0.93122 0.0
H310 H 0.24566 0.22761 0.89631 0.0
H311 H 0.17409 0.2451 0.94451 0.0
O312 O 0.47007 0.29848 0.95018 0.0
H313 H 0.39096 0.10498 0.95239 0.0
H314 H 0.52861 0.27059 0.97904 0.0
H315 H 0.08384 0.03711 0.91689 0.0
H316 H 0.35522 0.42991 0.931 0.0
H317 H 0.0243 0.08748 0.91641 0.0
H318 H 0.32555 0.41498 0.88621 0.0
O319 O 0.25035 0.14376 0.97134 0.0
H320 H 0.46494 0.37884 0.02991 0.0
H321 H 0.40801 0.17116 0.01254 0.0
H322 H 0.43128 0.20894 0.05584 0.0
H323 H 0.46003 0.31349 0.06474 0.0
H324 H 0.44067 0.33909 0.98694 0.0
H325 H 0.59641 0.23049 0.98173 0.0
H326 H 0.56068 0.12589 0.9697 0.0
O327 O 0.33707 0.14613 0.97654 0.0
C328 C 0.3344 0.17075 0.9155 0.0
C329 C 0.47318 0.10858 0.96024 0.0
C330 C 0.55139 0.20263 0.97525 0.0
N331 N 0.45582 0.19014 0.96556 0.0
C332 C 0.43591 0.13262 0.95885 0.0
C333 C 0.51284 0.22515 0.97361 0.0
C334 C 0.5313 0.14393 0.96852 0.0
C335 C 0.31648 0.33646 0.93828 0.0
N336 N 0.28622 0.28049 0.92858 0.0
C337 C 0.33109 0.38566 0.92323 0.0
C338 C 0.3145 0.37725 0.8981 0.0
C339 C 0.28361 0.32001 0.88835 0.0
C340 C 0.26985 0.27188 0.90395 0.0
C341 C 0.09547 0.16972 0.93057 0.0
C342 C 0.16218 0.11394 0.93095 0.0
C343 C 0.15443 0.19948 0.93853 0.0
N344 N 0.18708 0.17163 0.93849 0.0
C345 C 0.10332 0.08277 0.92289 0.0
C346 C 0.06989 0.11101 0.92267 0.0
C347 C 0.28098 0.12111 0.97908 0.0
C348 C 0.45266 0.33326 0.02625 0.0
C349 C 0.42034 0.21668 0.01626 0.0
C350 C 0.4336 0.23785 0.04081 0.0
C351 C 0.44979 0.29654 0.04579 0.0
N352 N 0.42323 0.25296 0.9972 0.0
C353 C 0.43919 0.31059 0.00193 0.0
Co354 Co 0.74397 0.9527 0.71963 0.0
Co355 Co 0.61007 0.82429 0.709 0.0
O356 O 0.66111 0.91043 0.70899 0.0
C357 C 0.74963 0.99066 0.66742 0.0
O358 O 0.71651 0.93424 0.66195 0.0
C359 C 0.54596 0.87095 0.73876 0.0
O360 O 0.59711 0.91034 0.74828 0.0
O361 O 0.63579 0.81774 0.74346 0.0
O362 O 0.72509 0.89926 0.74916 0.0
H363 H 0.56253 0.61369 0.72085 0.0
H364 H 0.68303 0.0207 0.70911 0.0
O365 O 0.76452 0.00687 0.69002 0.0
H366 H 0.7441 0.06139 0.79763 0.0
H367 H 0.94232 0.13511 0.73414 0.0
H368 H 0.82788 0.91714 0.73951 0.0
H369 H 0.76786 0.99686 0.77225 0.0
H370 H 0.83718 0.08026 0.72152 0.0
O371 O 0.54298 0.83244 0.7232 0.0
H372 H 0.62673 0.72229 0.72087 0.0
H373 H 0.48298 0.7428 0.6964 0.0
H374 H 0.93277 0.97025 0.75249 0.0
H375 H 0.6589 0.08602 0.73372 0.0
H376 H 0.99071 0.08005 0.74982 0.0
H377 H 0.68929 0.10652 0.77834 0.0
O378 O 0.76229 0.89886 0.69968 0.0
H379 H 0.54005 0.90956 0.64172 0.0
H380 H 0.59953 0.76159 0.6609 0.0
H381 H 0.57128 0.77025 0.61772 0.0
H382 H 0.5412 0.84461 0.60791 0.0
H383 H 0.5691 0.89974 0.68461 0.0
H384 H 0.41707 0.6344 0.69629 0.0
H385 H 0.45682 0.56904 0.70851 0.0
O386 O 0.67545 0.81434 0.69495 0.0
C387 C 0.6828 0.84906 0.75624 0.0
C388 C 0.54466 0.64169 0.71551 0.0
C389 C 0.46302 0.65333 0.70175 0.0
N390 N 0.55865 0.73891 0.70873 0.0
C391 C 0.58082 0.70324 0.71548 0.0
C392 C 0.50051 0.7147 0.70195 0.0
C393 C 0.48536 0.61667 0.70859 0.0
C394 C 0.69695 0.02994 0.72845 0.0
N395 N 0.72688 0.00507 0.73923 0.0
C396 C 0.68293 0.06674 0.74232 0.0
C397 C 0.6999 0.07813 0.76737 0.0
C398 C 0.73059 0.05276 0.77821 0.0
C399 C 0.74374 0.01609 0.76378 0.0
C400 C 0.9175 0.08728 0.73543 0.0
C401 C 0.8527 0.96494 0.73846 0.0
C402 C 0.858 0.05598 0.72827 0.0
N403 N 0.82633 0.9956 0.72997 0.0
C404 C 0.91213 0.99476 0.74576 0.0
C405 C 0.94463 0.05635 0.74424 0.0
C406 C 0.73147 0.84535 0.69214 0.0
C407 C 0.55287 0.87684 0.64578 0.0
C408 C 0.58652 0.79409 0.65679 0.0
C409 C 0.5705 0.79873 0.6323 0.0
C410 C 0.5536 0.84044 0.62681 0.0
N411 N 0.58554 0.82985 0.67531 0.0
C412 C 0.56912 0.87091 0.67006 0.0
Co413 Co 0.79805 0.7476 0.88699 0.0
Co414 Co 0.78859 0.61319 0.87304 0.0
O415 O 0.75478 0.66514 0.87574 0.0
C416 C 0.75328 0.75162 0.83678 0.0
O417 O 0.76724 0.71169 0.83012 0.0
C418 C 0.68651 0.54413 0.90716 0.0
O419 O 0.70885 0.58949 0.92257 0.0
O420 O 0.82408 0.63584 0.9073 0.0
O421 O 0.8346 0.72583 0.91478 0.0
H422 H 0.94878 0.55985 0.87931 0.0
H423 H 0.66805 0.68717 0.87945 0.0
O424 O 0.76263 0.77153 0.8591 0.0
H425 H 0.7 0.74682 0.96829 0.0
H426 H 0.82064 0.94697 0.90642 0.0
H427 H 0.92025 0.82837 0.90508 0.0
H428 H 0.78481 0.77093 0.94057 0.0
H429 H 0.76694 0.84269 0.89254 0.0
O430 O 0.71313 0.54623 0.88686 0.0
H431 H 0.90672 0.62587 0.88241 0.0
H432 H 0.73948 0.48704 0.85781 0.0
H433 H 0.97548 0.93239 0.91926 0.0
H434 H 0.58193 0.66252 0.90644 0.0
H435 H 0.92551 0.99231 0.92005 0.0
H436 H 0.59766 0.6923 0.95122 0.0
O437 O 0.8672 0.76555 0.86517 0.0
H438 H 0.62823 0.54985 0.80817 0.0
H439 H 0.83665 0.6064 0.82326 0.0
H440 H 0.79635 0.58196 0.78039 0.0
H441 H 0.69141 0.55339 0.77263 0.0
H442 H 0.67048 0.57525 0.85071 0.0
H443 H 0.77963 0.41936 0.85459 0.0
H444 H 0.88505 0.45572 0.86532 0.0
O445 O 0.86372 0.67859 0.85902 0.0
C446 C 0.84181 0.68242 0.92069 0.0
C447 C 0.90277 0.54346 0.87459 0.0
C448 C 0.80783 0.46461 0.86074 0.0
N449 N 0.8207 0.56038 0.87034 0.0
C450 C 0.8787 0.58067 0.87631 0.0
C451 C 0.78528 0.5031 0.86269 0.0
C452 C 0.86699 0.48505 0.86675 0.0
C453 C 0.67523 0.70065 0.89887 0.0
N454 N 0.73135 0.73063 0.90842 0.0
C455 C 0.62631 0.68641 0.91408 0.0
C456 C 0.63516 0.70306 0.93922 0.0
C457 C 0.69256 0.73362 0.94881 0.0
C458 C 0.7404 0.74702 0.93305 0.0
C459 C 0.84281 0.92124 0.90622 0.0
C460 C 0.89815 0.85412 0.90549 0.0
C461 C 0.81268 0.86222 0.89834 0.0
N462 N 0.84031 0.82937 0.89819 0.0
C463 C 0.9297 0.91303 0.91346 0.0
C464 C 0.90169 0.94667 0.91386 0.0
C465 C 0.88901 0.73469 0.85672 0.0
C466 C 0.67397 0.56205 0.81133 0.0
C467 C 0.79098 0.59416 0.82004 0.0
C468 C 0.76837 0.58023 0.79572 0.0
C469 C 0.70947 0.56415 0.79139 0.0
N470 N 0.75589 0.59201 0.8395 0.0
C471 C 0.69806 0.57617 0.8354 0.0
Co472 Co 0.05837 0.79291 0.05121 0.0
Co473 Co 0.18331 0.78357 0.03743 0.0
O474 O 0.09761 0.74993 0.03979 0.0
C475 C 0.01013 0.74908 0.00083 0.0
O476 O 0.06431 0.76413 0.99418 0.0
C477 C 0.14777 0.6797 0.07049 0.0
O478 O 0.12356 0.70145 0.08555 0.0
O479 O 0.19545 0.81727 0.07199 0.0
O480 O 0.11661 0.82903 0.07916 0.0
H481 H 0.39698 0.94239 0.0455 0.0
H482 H 0.98909 0.66299 0.0433 0.0
O483 O 0.99926 0.75774 0.02321 0.0
H484 H 0.96039 0.69366 0.13216 0.0
H485 H 0.88131 0.81508 0.0706 0.0
H486 H 0.09953 0.91468 0.06981 0.0
H487 H 0.02123 0.77885 0.1047 0.0
H488 H 0.93208 0.76168 0.05655 0.0
O489 O 0.1741 0.7073 0.05063 0.0
H490 H 0.28888 0.90069 0.04821 0.0
H491 H 0.26017 0.73478 0.02158 0.0
H492 H 0.05056 0.9696 0.08417 0.0
H493 H 0.92748 0.57649 0.07002 0.0
H494 H 0.94067 0.91965 0.08468 0.0
H495 H 0.91293 0.59157 0.11481 0.0
O496 O 0.10959 0.86244 0.02962 0.0
H497 H 0.08755 0.62663 0.97105 0.0
H498 H 0.23906 0.8342 0.98811 0.0
H499 H 0.22392 0.79616 0.94484 0.0
H500 H 0.14774 0.69168 0.93609 0.0
H501 H 0.10366 0.66663 0.014 0.0
H502 H 0.36801 0.77454 0.01874 0.0
H503 H 0.43722 0.87913 0.03068 0.0
O504 O 0.19366 0.85967 0.02418 0.0
C505 C 0.16679 0.83531 0.0853 0.0
C506 C 0.36729 0.89676 0.04024 0.0
C507 C 0.35102 0.80254 0.02524 0.0
N508 N 0.26822 0.81541 0.03505 0.0
C509 C 0.30601 0.87291 0.04172 0.0
C510 C 0.28999 0.78022 0.02697 0.0
C511 C 0.38983 0.86124 0.03193 0.0
C512 C 0.9826 0.66989 0.06273 0.0
N513 N 0.00857 0.72587 0.07243 0.0
C514 C 0.94783 0.62075 0.07778 0.0
C515 C 0.93974 0.62924 0.10292 0.0
C516 C 0.96639 0.6865 0.11267 0.0
C517 C 1.00093 0.73456 0.09706 0.0
C518 C 0.92922 0.83725 0.07052 0.0
C519 C 0.05168 0.89258 0.0701 0.0
C520 C 0.95821 0.80729 0.06254 0.0
N521 N 0.01869 0.83491 0.06255 0.0
C522 C 0.02422 0.92396 0.07818 0.0
C523 C 0.96256 0.89595 0.07842 0.0
C524 C 0.16275 0.88489 0.02175 0.0
C525 C 0.12103 0.67218 0.97464 0.0
C526 C 0.20572 0.7887 0.98445 0.0
C527 C 0.19745 0.76739 0.95992 0.0
C528 C 0.15474 0.70873 0.95503 0.0
N529 N 0.17246 0.75259 0.00359 0.0
C530 C 0.13058 0.69499 0.99894 0.0
Co531 Co 0.25575 0.04665 0.21585 0.0
Co532 Co 0.39078 0.17448 0.21219 0.0
O533 O 0.3413 0.08811 0.20941 0.0
C534 C 0.26643 0.9992 0.1671 0.0
O535 O 0.30716 0.05336 0.16122 0.0
C536 C 0.45705 0.12599 0.23929 0.0
O537 O 0.40635 0.08306 0.24764 0.0
O538 O 0.36238 0.17223 0.247 0.0
O539 O 0.26596 0.10442 0.2429 0.0
H540 H 0.43184 0.37913 0.23418 0.0
H541 H 0.31566 0.9754 0.21495 0.0
O542 O 0.24212 0.98822 0.18858 0.0
H543 H 0.23238 0.95025 0.2999 0.0
H544 H 0.05374 0.86617 0.22509 0.0
H545 H 0.16719 0.08454 0.2251 0.0
H546 H 0.21823 0.01194 0.2688 0.0
H547 H 0.16197 0.91951 0.21884 0.0
O548 O 0.45858 0.1663 0.22535 0.0
H549 H 0.3704 0.27065 0.23005 0.0
H550 H 0.51742 0.26152 0.20103 0.0
H551 H 0.05908 0.03297 0.23154 0.0
H552 H 0.3301 0.91256 0.24535 0.0
H553 H 1.00159 0.92292 0.23141 0.0
H554 H 0.28852 0.8999 0.28821 0.0
O555 O 0.24505 0.09735 0.19124 0.0
H556 H 0.47182 0.10877 0.14144 0.0
H557 H 0.40173 0.24541 0.1666 0.0
H558 H 0.43421 0.24694 0.12311 0.0
H559 H 0.46968 0.17836 0.1103 0.0
H560 H 0.43809 0.10808 0.18465 0.0
H561 H 0.58058 0.36988 0.20505 0.0
H562 H 0.53776 0.42947 0.22163 0.0
O563 O 0.32496 0.18591 0.19898 0.0
C564 C 0.30877 0.14744 0.25442 0.0
C565 C 0.45098 0.35367 0.22687 0.0
C566 C 0.53447 0.34847 0.21055 0.0
N567 N 0.44016 0.2598 0.21516 0.0
C568 C 0.41637 0.29223 0.22443 0.0
C569 C 0.49851 0.2871 0.20837 0.0
C570 C 0.51041 0.38188 0.21984 0.0
C571 C 0.29684 0.96951 0.23347 0.0
N572 N 0.26611 0.99724 0.24009 0.0
C573 C 0.30542 0.93414 0.25065 0.0
C574 C 0.28218 0.92716 0.27471 0.0
C575 C 0.25075 0.95547 0.28129 0.0
C576 C 0.24312 0.99057 0.26364 0.0
C577 C 0.07833 0.91411 0.22522 0.0
C578 C 0.1426 0.03669 0.22531 0.0
C579 C 0.13962 0.94457 0.22168 0.0
N580 N 0.17098 0.00511 0.22183 0.0
C581 C 0.08133 0.00772 0.22888 0.0
C582 C 0.0491 0.94601 0.22881 0.0
C583 C 0.27339 0.15364 0.18961 0.0
C584 C 0.45661 0.13899 0.14682 0.0
C585 C 0.41678 0.21517 0.16115 0.0
C586 C 0.43533 0.21641 0.13651 0.0
C587 C 0.4553 0.17797 0.12934 0.0
N588 N 0.41811 0.17675 0.17818 0.0
C589 C 0.43777 0.13903 0.1713 0.0
Co590 Co 0.21397 0.26683 0.38506 0.0
Co591 Co 0.21922 0.39995 0.37266 0.0
O592 O 0.25417 0.34873 0.37324 0.0
C593 C 0.24317 0.25585 0.33283 0.0
O594 O 0.2192 0.28808 0.32687 0.0
C595 C 0.33041 0.4657 0.40195 0.0
O596 O 0.31856 0.415 0.41192 0.0
O597 O 0.18813 0.37699 0.4074 0.0
O598 O 0.1809 0.28838 0.41439 0.0
H599 H 0.05708 0.44908 0.38412 0.0
H600 H 0.34235 0.32654 0.37348 0.0
O601 O 0.2461 0.24354 0.35566 0.0
H602 H 0.32611 0.27296 0.46278 0.0
H603 H 0.19803 0.06949 0.4023 0.0
H604 H 0.09532 0.18495 0.40624 0.0
H605 H 0.23667 0.2473 0.43792 0.0
H606 H 0.24802 0.17349 0.38819 0.0
O607 O 0.29499 0.46796 0.38613 0.0
H608 H 0.10123 0.38465 0.3849 0.0
H609 H 0.26459 0.52598 0.3584 0.0
H610 H 0.04381 0.08118 0.42068 0.0
H611 H 0.43293 0.35253 0.39756 0.0
H612 H 0.09528 0.02278 0.41877 0.0
H613 H 0.42513 0.32591 0.44258 0.0
O614 O 0.14092 0.2471 0.36557 0.0
H615 H 0.37216 0.46464 0.30452 0.0
H616 H 0.16539 0.40674 0.32444 0.0
H617 H 0.20076 0.43155 0.2809 0.0
H618 H 0.30485 0.46082 0.27073 0.0
H619 H 0.3348 0.43901 0.34778 0.0
H620 H 0.22236 0.59212 0.3575 0.0
H621 H 0.11782 0.55368 0.37035 0.0
O622 O 0.14322 0.33358 0.35947 0.0
C623 C 0.17308 0.33117 0.42085 0.0
C624 C 0.10269 0.46636 0.37848 0.0
C625 C 0.19547 0.54665 0.36356 0.0
N626 N 0.18543 0.4515 0.37176 0.0
C627 C 0.12792 0.43006 0.37888 0.0
C628 C 0.21921 0.50904 0.36421 0.0
C629 C 0.1368 0.52505 0.37076 0.0
C630 C 0.33857 0.31426 0.39299 0.0
N631 N 0.2843 0.28535 0.40428 0.0
C632 C 0.39003 0.32932 0.40656 0.0
C633 C 0.38562 0.31447 0.43183 0.0
C634 C 0.33009 0.28482 0.44319 0.0
C635 C 0.27961 0.27059 0.42904 0.0
C636 C 0.1752 0.09454 0.40328 0.0
C637 C 0.11814 0.15992 0.4055 0.0
C638 C 0.20325 0.15341 0.39528 0.0
N639 N 0.17479 0.18539 0.39658 0.0
C640 C 0.08868 0.10113 0.41363 0.0
C641 C 0.11754 0.06835 0.41252 0.0
C642 C 0.11793 0.2773 0.35763 0.0
C643 C 0.32676 0.45215 0.30874 0.0
C644 C 0.21075 0.41942 0.32016 0.0
C645 C 0.23054 0.43349 0.29548 0.0
C646 C 0.28896 0.44992 0.28978 0.0
N647 N 0.24814 0.42185 0.33867 0.0
C648 C 0.30544 0.43784 0.33322 0.0
Co649 Co 0.95741 0.20826 0.55051 0.0
Co650 Co 0.83053 0.21725 0.54544 0.0
O651 O 0.91704 0.25324 0.54344 0.0
C652 C 0.00746 0.26609 0.50204 0.0
O653 O 0.95394 0.25422 0.49579 0.0
C654 C 0.87846 0.33171 0.573 0.0
O655 O 0.92116 0.32382 0.58157 0.0
O656 O 0.83074 0.19056 0.58032 0.0
O657 O 0.89847 0.16159 0.5772 0.0
H658 H 0.6241 0.05503 0.56566 0.0
H659 H 0.02991 0.33925 0.5496 0.0
O660 O 0.01719 0.25211 0.52361 0.0
H661 H 0.05114 0.28131 0.63512 0.0
H662 H 0.13559 0.18362 0.56218 0.0
H663 H 0.91732 0.08162 0.56024 0.0
H664 H 0.98998 0.20548 0.60383 0.0
H665 H 0.08396 0.23975 0.55464 0.0
O666 O 0.83882 0.29338 0.55862 0.0
H667 H 0.73268 0.10104 0.56257 0.0
H668 H 0.74506 0.25828 0.53327 0.0
H669 H 0.96713 0.02389 0.56798 0.0
H670 H 0.09225 0.41654 0.58019 0.0
H671 H 0.07711 0.07498 0.56891 0.0
H672 H 0.10294 0.38771 0.62334 0.0
O673 O 0.90709 0.14691 0.52572 0.0
H674 H 0.90088 0.36508 0.47521 0.0
H675 H 0.76157 0.15836 0.49921 0.0
H676 H 0.76241 0.19017 0.4557 0.0
H677 H 0.83234 0.29423 0.44346 0.0
H678 H 0.89915 0.33117 0.51845 0.0
H679 H 0.63663 0.21411 0.53625 0.0
H680 H 0.57536 0.11168 0.55244 0.0
O681 O 0.81873 0.13973 0.53226 0.0
C682 C 0.85517 0.16181 0.58822 0.0
C683 C 0.6503 0.09964 0.55851 0.0
C684 C 0.65734 0.18895 0.54203 0.0
N685 N 0.74516 0.18213 0.54759 0.0
C686 C 0.7118 0.12589 0.55666 0.0
C687 C 0.71874 0.21377 0.54044 0.0
C688 C 0.62299 0.13147 0.55111 0.0
C689 C 0.03494 0.32636 0.56825 0.0
N690 N 0.00644 0.26797 0.57491 0.0
C691 C 0.07003 0.37032 0.58553 0.0
C692 C 0.07591 0.35412 0.60975 0.0
C693 C 0.04679 0.29443 0.61638 0.0
C694 C 0.01202 0.25171 0.59862 0.0
C695 C 0.08766 0.16092 0.56187 0.0
C696 C 0.96515 0.10424 0.56084 0.0
C697 C 0.05818 0.19245 0.55758 0.0
N698 N 0.99766 0.16408 0.55721 0.0
C699 C 0.99312 0.07127 0.56516 0.0
C700 C 0.0548 0.09993 0.56566 0.0
C701 C 0.85091 0.11968 0.52348 0.0
C702 C 0.87008 0.31966 0.48033 0.0
C703 C 0.79239 0.20364 0.49402 0.0
C704 C 0.7925 0.22144 0.46936 0.0
C705 C 0.83169 0.27986 0.46252 0.0
N706 N 0.83022 0.24292 0.51139 0.0
C707 C 0.86868 0.30029 0.50483 0.0
C708 C 0.14347 0.60576 0.10151 0.0
C709 C 0.14519 0.62312 0.07652 0.0
H710 H 0.14377 0.54184 0.12663 0.0
C711 C 0.14566 0.58647 0.05728 0.0
H712 H 0.14324 0.63323 0.1167 0.0
C713 C 0.14441 0.53343 0.06293 0.0
C714 C 0.14446 0.51696 0.08793 0.0
H715 H 0.1467 0.59869 0.03783 0.0
H716 H 0.14494 0.50609 0.04775 0.0
C717 C 0.144 0.55362 0.10717 0.0
C718 C 0.61887 0.18222 0.2534 0.0
C719 C 0.62048 0.12926 0.25499 0.0
H720 H 0.56587 0.22258 0.24663 0.0
C721 C 0.56783 0.07503 0.25158 0.0
H722 H 0.65886 0.2246 0.25602 0.0
C723 C 0.51425 0.0738 0.24709 0.0
C724 C 0.51287 0.12685 0.24514 0.0
H725 H 0.56785 0.03357 0.25295 0.0
H726 H 0.47412 0.03145 0.2447 0.0
C727 C 0.56576 0.18106 0.24808 0.0
C728 C 0.49164 0.5709 0.41767 0.0
C729 C 0.49224 0.62472 0.4208 0.0
H730 H 0.43912 0.47773 0.40999 0.0
C731 C 0.43935 0.62594 0.41762 0.0
H732 H 0.53179 0.56879 0.42021 0.0
C733 C 0.38691 0.57439 0.41103 0.0
C734 C 0.38597 0.52029 0.40848 0.0
H735 H 0.43874 0.66693 0.41996 0.0
H736 H 0.3468 0.57656 0.40842 0.0
C737 C 0.43869 0.51889 0.412 0.0
C738 C 0.82048 0.43549 0.58828 0.0
C739 C 0.87309 0.49035 0.59003 0.0
H740 H 0.78105 0.34239 0.58089 0.0
C741 C 0.92763 0.49267 0.58641 0.0
H742 H 0.77789 0.43254 0.59102 0.0
C743 C 0.92953 0.44081 0.5815 0.0
C744 C 0.87685 0.38613 0.57929 0.0
H745 H 0.96884 0.53439 0.58786 0.0
H746 H 0.97212 0.44364 0.57894 0.0
C747 C 0.8223 0.38403 0.5825 0.0
C748 C 0.49402 0.92745 0.74856 0.0
C749 C 0.49174 0.87292 0.74497 0.0
H750 H 0.44489 0.97188 0.75589 0.0
C751 C 0.4369 0.8203 0.74665 0.0
H752 H 0.53574 0.96866 0.74715 0.0
C753 C 0.38539 0.82209 0.75231 0.0
C754 C 0.38745 0.87661 0.75547 0.0
H755 H 0.434 0.77772 0.74393 0.0
H756 H 0.34375 0.78083 0.75386 0.0
C757 C 0.44212 0.92932 0.75335 0.0
C758 C 0.56248 0.41935 0.94378 0.0
C759 C 0.52518 0.38312 0.92449 0.0
H760 H 0.64216 0.49959 0.95342 0.0
C761 C 0.5405 0.40111 0.89954 0.0
H762 H 0.55155 0.40665 0.9632 0.0
C763 C 0.59302 0.45346 0.89395 0.0
C764 C 0.63032 0.4897 0.91323 0.0
H765 H 0.51265 0.37399 0.88431 0.0
H766 H 0.60433 0.46573 0.87451 0.0
C767 C 0.61414 0.4726 0.93821 0.0
C768 C 0.27355 0.24565 0.176 0.0
C769 C 0.24404 0.18352 0.1776 0.0
H770 H 0.26999 0.32221 0.16463 0.0
C771 C 0.18562 0.15074 0.16853 0.0
H772 H 0.31843 0.27247 0.18287 0.0
C773 C 0.15752 0.17947 0.15806 0.0
C774 C 0.18718 0.24165 0.15645 0.0
H775 H 0.16137 0.10282 0.16958 0.0
H776 H 0.11269 0.15285 0.1511 0.0
C777 C 0.24553 0.27429 0.16559 0.0
C778 C 0.97437 0.15593 0.32902 0.0
C779 C 0.94476 0.18717 0.32328 0.0
H780 H 0.05213 0.1596 0.34442 0.0
C781 C 0.9726 0.2479 0.32908 0.0
H782 H 0.95434 0.10916 0.32478 0.0
C783 C 0.02869 0.27682 0.34002 0.0
C784 C 0.0585 0.24583 0.34573 0.0
H785 H 0.95144 0.27362 0.32495 0.0
H786 H 0.04852 0.32368 0.34403 0.0
C787 C 0.03052 0.1849 0.34024 0.0
C788 C 0.75889 0.02807 0.50936 0.0
C789 C 0.821 0.06039 0.51142 0.0
H790 H 0.68242 0.94817 0.49752 0.0
C791 C 0.85377 0.03439 0.50274 0.0
H792 H 0.73207 0.0464 0.51592 0.0
C793 C 0.82512 0.9776 0.49219 0.0
C794 C 0.76298 0.94539 0.49009 0.0
H795 H 0.90164 0.05777 0.50416 0.0
H796 H 0.8518 0.95919 0.48553 0.0
C797 C 0.7303 0.97138 0.49887 0.0
C798 C 0.8501 0.82143 0.66171 0.0
C799 C 0.81778 0.76067 0.65582 0.0
H800 H 0.84849 0.896 0.67789 0.0
C801 C 0.75722 0.72859 0.66192 0.0
H802 H 0.89681 0.84753 0.65728 0.0
C803 C 0.72958 0.75632 0.67348 0.0
C804 C 0.76168 0.81695 0.67949 0.0
H805 H 0.73069 0.6818 0.65768 0.0
H806 H 0.68284 0.7298 0.67777 0.0
C807 C 0.82238 0.84924 0.67352 0.0
C808 C 0.9807 0.8275 0.84274 0.0
C809 C 0.94808 0.76535 0.84453 0.0
H810 H 0.06127 0.90386 0.83103 0.0
C811 C 0.97364 0.73247 0.83549 0.0
H812 H 0.9626 0.85429 0.84961 0.0
C813 C 0.03027 0.76084 0.82504 0.0
C814 C 0.06302 0.82294 0.82328 0.0
H815 H 0.95011 0.68457 0.83657 0.0
H816 H 0.0482 0.73382 0.81828 0.0
C817 C 0.0375 0.85596 0.83221 0.0
C818 C 0.16004 0.97435 0.00544 0.0
C819 C 0.19176 0.9448 0.01031 0.0
H820 H 0.16305 0.05316 0.99176 0.0
C821 C 0.25283 0.97421 0.00513 0.0
H822 H 0.113 0.95316 0.0093 0.0
C823 C 0.28155 0.03158 0.99555 0.0
C824 C 0.25002 0.06118 0.99051 0.0
H825 H 0.27897 0.95322 0.00867 0.0
H826 H 0.32863 0.05243 0.99191 0.0
C827 C 0.1888 0.03182 0.9955 0.0
C828 C 0.15736 0.28552 0.03709 0.0
C829 C 0.19182 0.31663 0.05795 0.0
H830 H 0.15396 0.24356 0.00209 0.0
C831 C 0.25185 0.33246 0.05859 0.0
H832 H 0.11095 0.27267 0.03615 0.0
C833 C 0.27595 0.31418 0.03952 0.0
C834 C 0.24089 0.28133 0.0191 0.0
H835 H 0.27931 0.35593 0.07451 0.0
H836 H 0.3217 0.32479 0.04097 0.0
C837 C 0.18193 0.26882 0.01764 0.0
C838 C 0.91761 0.24412 0.22245 0.0
C839 C 0.87584 0.18326 0.22286 0.0
H840 H 0.99295 0.31457 0.20396 0.0
C841 C 0.87472 0.14743 0.20293 0.0
H842 H 0.91986 0.27278 0.23759 0.0
C843 C 0.91559 0.17171 0.18333 0.0
C844 C 0.95954 0.23181 0.18378 0.0
H845 H 0.84308 0.1004 0.20278 0.0
H846 H 0.91461 0.14289 0.16847 0.0
C847 C 0.9597 0.26798 0.2033 0.0
C848 C 0.69351 0.96109 0.37139 0.0
C849 C 0.72788 0.95973 0.35145 0.0
H850 H 0.65057 0.92232 0.40608 0.0
C851 C 0.74269 0.9148 0.35066 0.0
H852 H 0.68116 0.99504 0.37232 0.0
C853 C 0.72633 0.87402 0.37023 0.0
C854 C 0.69329 0.8763 0.39055 0.0
H855 H 0.76919 0.91276 0.33547 0.0
H856 H 0.74063 0.84152 0.36974 0.0
C857 C 0.6756 0.91917 0.39059 0.0
C858 C 0.85789 0.7284 0.53706 0.0
C859 C 0.82184 0.69147 0.55642 0.0
H860 H 0.86238 0.77467 0.50322 0.0
C861 C 0.76056 0.67051 0.55555 0.0
H862 H 0.90525 0.74538 0.53726 0.0
C863 C 0.73642 0.68895 0.53658 0.0
C864 C 0.77276 0.72709 0.51766 0.0
H865 H 0.73159 0.6423 0.5702 0.0
H866 H 0.68942 0.67393 0.53689 0.0
C867 C 0.83341 0.74524 0.51763 0.0
C868 C 0.13737 0.81446 0.70325 0.0
C869 C 0.1216 0.82967 0.72603 0.0
H870 H 0.10848 0.77816 0.66637 0.0
C871 C 0.06303 0.81692 0.72966 0.0
H872 H 0.18228 0.82369 0.70016 0.0
C873 C 0.02075 0.78941 0.71088 0.0
C874 C 0.03656 0.77558 0.6878 0.0
H875 H 0.04971 0.82754 0.74725 0.0
H876 H 0.97594 0.78024 0.71423 0.0
C877 C 0.0953 0.78853 0.68404 0.0
C878 C 0.29626 0.13972 0.87201 0.0
C879 C 0.32728 0.13568 0.8927 0.0
H880 H 0.25498 0.10286 0.83679 0.0
C881 C 0.34409 0.09217 0.89271 0.0
H882 H 0.28278 0.17283 0.87152 0.0
C883 C 0.32671 0.05097 0.87316 0.0
C884 C 0.29377 0.05373 0.85293 0.0
H885 H 0.3676 0.08772 0.90848 0.0
H886 H 0.33786 0.01616 0.87414 0.0
C887 C 0.28041 0.09968 0.85214 0.0
C888 C 0.72869 0.85941 0.79854 0.0
C889 C 0.69275 0.82292 0.779 0.0
H890 H 0.77482 0.86491 0.83261 0.0
C891 C 0.673 0.76193 0.77985 0.0
H892 H 0.74469 0.90657 0.79835 0.0
C893 C 0.69192 0.73857 0.79892 0.0
C894 C 0.72927 0.77538 0.81797 0.0
H895 H 0.64559 0.73269 0.76505 0.0
H896 H 0.6781 0.69184 0.79855 0.0
C897 C 0.74598 0.83563 0.81809 0.0
C898 C 0.87454 0.72082 0.96407 0.0
C899 C 0.87812 0.69014 0.9431 0.0
H900 H 0.91291 0.76235 0.99916 0.0
C901 C 0.92252 0.67461 0.94232 0.0
H902 H 0.84079 0.73341 0.96512 0.0
C903 C 0.96487 0.69277 0.96139 0.0
C904 C 0.96245 0.72522 0.98192 0.0
H905 H 0.92669 0.6515 0.9263 0.0
H906 H 1.00018 0.68242 0.95985 0.0
C907 C 0.91579 0.73741 0.98351 0.0
C908 C 0.16 0.86615 0.12884 0.0
C909 C 0.19491 0.87031 0.10808 0.0
H910 H 0.15577 0.90292 0.16411 0.0
C911 C 0.25521 0.91389 0.10797 0.0
H912 H 0.11343 0.83298 0.1294 0.0
C913 C 0.27914 0.95507 0.12752 0.0
C914 C 0.24357 0.95222 0.14783 0.0
H915 H 0.28303 0.91841 0.09213 0.0
H916 H 0.32506 0.98995 0.12648 0.0
C917 C 0.18429 0.90618 0.1487 0.0
C918 C 0.32458 0.19136 0.29759 0.0
C919 C 0.29342 0.17534 0.27485 0.0
H920 H 0.33194 0.22844 0.3343 0.0
C921 C 0.24705 0.18726 0.27117 0.0
H922 H 0.36068 0.1828 0.30072 0.0
C923 C 0.23196 0.21479 0.28984 0.0
C924 C 0.26186 0.22951 0.31286 0.0
H925 H 0.22295 0.17607 0.25362 0.0
H926 H 0.19597 0.22341 0.28642 0.0
C927 C 0.30815 0.21733 0.31668 0.0
C928 C 0.13853 0.28798 0.46353 0.0
C929 C 0.13797 0.3232 0.44376 0.0
H930 H 0.09841 0.24352 0.49785 0.0
C931 C 0.09752 0.34402 0.44459 0.0
H932 H 0.1691 0.27124 0.46339 0.0
C933 C 0.05582 0.3266 0.46388 0.0
C934 C 0.0551 0.28968 0.48313 0.0
H935 H 0.09576 0.37099 0.42963 0.0
H936 H 0.02338 0.34102 0.46348 0.0
C937 C 0.09806 0.27212 0.48323 0.0
C938 C 0.78438 0.01789 0.62351 0.0
C939 C 0.77415 0.03476 0.6471 0.0
H940 H 0.81927 0.04577 0.58664 0.0
C941 C 0.78958 0.09415 0.65119 0.0
H942 H 0.77321 0.97256 0.61987 0.0
C943 C 0.81477 0.1359 0.63189 0.0
C944 C 0.82659 0.11903 0.60862 0.0
H945 H 0.78196 0.10815 0.66924 0.0
H946 H 0.82634 0.18142 0.63529 0.0
C947 C 0.81107 0.05978 0.60458 0.0
loop_
_geom_bond_atom_site_label_1
_geom_bond_atom_site_label_2
_geom_bond_distance
_geom_bond_site_symmetry_2
_ccdc_geom_bond_type
Co0 O2 2.143 . S
Co0 O8 2.074 . S
Co0 O11 2.093 . S
Co0 O24 2.097 . S
Co0 N41 2.151 . S
Co0 N49 2.214 . S
Co1 O2 2.160 . S
Co1 O7 2.058 . S
Co1 O17 2.057 . S
Co1 O32 2.037 . S
Co1 N36 2.145 . S
Co1 N57 2.257 . S
O2 Co0 2.143 . S
O2 Co1 2.160 . S
C3 O4 1.278 . S
C3 O11 1.224 . S
O4 C3 1.278 . S
C5 O6 1.245 . S
C5 O17 1.232 . S
O6 C5 1.245 . S
O7 Co1 2.058 . S
O7 C33 1.269 . S
O8 Co0 2.074 . S
O8 C33 1.257 . S
H9 C34 0.930 . S
H10 C40 0.930 . S
O11 Co0 2.093 . S
O11 C3 1.224 . S
H12 C44 0.929 . S
H13 C46 0.930 . S
H14 C47 0.930 . S
H15 C45 0.930 . S
H16 C48 0.928 1_655 S
O17 Co1 2.057 . S
O17 C5 1.232 . S
H18 C37 0.929 . S
H19 C38 0.929 . S
H20 C50 0.931 . S
H21 C42 0.929 . S
H22 C51 0.930 . S
H23 C43 0.931 . S
O24 Co0 2.097 . S
O24 C52 1.214 . S
H25 C53 0.929 . S
H26 C54 0.929 . S
H27 C55 0.930 . S
H28 C56 0.929 . S
H29 C58 0.930 . S
H30 C35 0.930 . S
H31 C39 0.930 . S
O32 Co1 2.037 . S
O32 C52 1.234 . S
C33 O7 1.269 . S
C33 O8 1.257 . S
C34 H9 0.930 . S
C34 C37 1.388 . S
C34 C39 1.418 . S
C35 H30 0.930 . S
C35 C38 1.404 . S
C35 C39 1.353 . S
N36 Co1 2.145 . S
N36 C37 1.397 . S
N36 C38 1.334 . S
C37 H18 0.929 . S
C37 C34 1.388 . S
C37 N36 1.397 . S
C38 H19 0.929 . S
C38 C35 1.404 . S
C38 N36 1.334 . S
C39 H31 0.930 . S
C39 C34 1.418 . S
C39 C35 1.353 . S
C40 H10 0.930 . S
C40 N41 1.330 1_655 S
C40 C42 1.446 . S
N41 Co0 2.151 . S
N41 C40 1.330 1_455 S
N41 C45 1.417 . S
C42 H21 0.929 . S
C42 C40 1.446 . S
C42 C43 1.332 . S
C43 H23 0.931 . S
C43 C42 1.332 . S
C43 C44 1.267 . S
C44 H12 0.929 . S
C44 C43 1.267 . S
C44 C45 1.250 1_655 S
C45 H15 0.930 . S
C45 N41 1.417 . S
C45 C44 1.250 1_455 S
C46 H13 0.930 . S
C46 C48 1.406 1_655 S
C46 C51 1.261 1_655 S
C47 H14 0.930 . S
C47 N49 1.325 . S
C47 C50 1.357 . S
C48 H16 0.928 1_455 S
C48 C46 1.406 1_455 S
C48 N49 1.261 . S
N49 Co0 2.214 . S
N49 C47 1.325 . S
N49 C48 1.261 . S
C50 H20 0.931 . S
C50 C47 1.357 . S
C50 C51 1.312 . S
C51 H22 0.930 . S
C51 C46 1.261 1_455 S
C51 C50 1.312 . S
C52 O24 1.214 . S
C52 O32 1.234 . S
C53 H25 0.929 . S
C53 C56 1.391 . S
C53 C58 1.391 . S
C54 H26 0.929 . S
C54 C55 1.390 . S
C54 N57 1.391 . S
C55 H27 0.930 . S
C55 C54 1.390 . S
C55 C56 1.392 . S
C56 H28 0.929 . S
C56 C53 1.391 . S
C56 C55 1.392 . S
N57 Co1 2.257 . S
N57 C54 1.391 . S
N57 C58 1.388 . S
C58 H29 0.930 . S
C58 C53 1.391 . S
C58 N57 1.388 . S
Co59 O61 2.143 . S
Co59 O67 2.074 . S
Co59 O70 2.093 . S
Co59 O83 2.097 . S
Co59 N100 2.151 . S
Co59 N108 2.214 . S
Co60 O61 2.160 . S
Co60 O66 2.058 . S
Co60 O76 2.057 . S
Co60 O91 2.037 . S
Co60 N95 2.145 . S
Co60 N116 2.257 . S
O61 Co59 2.143 . S
O61 Co60 2.160 . S
C62 O63 1.278 . S
C62 O70 1.224 . S
O63 C62 1.278 . S
C64 O65 1.245 . S
C64 O76 1.232 . S
O65 C64 1.245 . S
O66 Co60 2.058 . S
O66 C92 1.269 . S
O67 Co59 2.074 . S
O67 C92 1.257 . S
H68 C93 0.930 . S
H69 C99 0.930 . S
O70 Co59 2.093 . S
O70 C62 1.224 . S
H71 C103 0.929 . S
H72 C105 0.930 . S
H73 C106 0.930 . S
H74 C104 0.929 . S
H75 C107 0.928 1_565 S
O76 Co60 2.057 . S
O76 C64 1.232 . S
H77 C96 0.929 . S
H78 C97 0.929 . S
H79 C109 0.931 1_455 S
H80 C101 0.929 . S
H81 C110 0.930 1_455 S
H82 C102 0.931 . S
O83 Co59 2.097 . S
O83 C111 1.214 . S
H84 C112 0.929 . S
H85 C113 0.929 . S
H86 C114 0.930 . S
H87 C115 0.929 . S
H88 C117 0.930 . S
H89 C94 0.930 . S
H90 C98 0.930 . S
O91 Co60 2.037 . S
O91 C111 1.234 . S
C92 O66 1.269 . S
C92 O67 1.257 . S
C93 H68 0.930 . S
C93 C96 1.388 . S
C93 C98 1.418 . S
C94 H89 0.930 . S
C94 C97 1.404 . S
C94 C98 1.353 . S
N95 Co60 2.145 . S
N95 C96 1.397 . S
N95 C97 1.334 . S
C96 H77 0.929 . S
C96 C93 1.388 . S
C96 N95 1.397 . S
C97 H78 0.929 . S
C97 C94 1.404 . S
C97 N95 1.334 . S
C98 H90 0.930 . S
C98 C93 1.418 . S
C98 C94 1.353 . S
C99 H69 0.930 . S
C99 N100 1.330 1_565 S
C99 C101 1.446 . S
N100 Co59 2.151 . S
N100 C99 1.330 1_545 S
N100 C104 1.419 . S
C101 H80 0.929 . S
C101 C99 1.446 . S
C101 C102 1.332 . S
C102 H82 0.931 . S
C102 C101 1.332 . S
C102 C103 1.267 . S
C103 H71 0.929 . S
C103 C102 1.267 . S
C103 C104 1.250 1_565 S
C104 H74 0.929 . S
C104 N100 1.419 . S
C104 C103 1.250 1_545 S
C105 H72 0.930 . S
C105 C107 1.406 1_565 S
C105 C110 1.261 1_565 S
C106 H73 0.930 . S
C106 N108 1.325 . S
C106 C109 1.357 . S
C107 H75 0.928 1_545 S
C107 C105 1.406 1_545 S
C107 N108 1.261 . S
N108 Co59 2.214 . S
N108 C106 1.325 . S
N108 C107 1.261 . S
C109 H79 0.931 1_655 S
C109 C106 1.357 . S
C109 C110 1.312 . S
C110 H81 0.930 1_655 S
C110 C105 1.261 1_545 S
C110 C109 1.312 . S
C111 O83 1.214 . S
C111 O91 1.234 . S
C112 H84 0.929 . S
C112 C115 1.391 . S
C112 C117 1.391 . S
C113 H85 0.929 . S
C113 C114 1.390 . S
C113 N116 1.391 . S
C114 H86 0.930 . S
C114 C113 1.390 . S
C114 C115 1.392 . S
C115 H87 0.929 . S
C115 C112 1.391 . S
C115 C114 1.392 . S
N116 Co60 2.257 . S
N116 C113 1.391 . S
N116 C117 1.388 . S
C117 H88 0.930 . S
C117 C112 1.391 . S
C117 N116 1.388 . S
Co118 O120 2.143 . S
Co118 O126 2.074 . S
Co118 O129 2.093 . S
Co118 O142 2.097 . S
Co118 N159 2.151 . S
Co118 N167 2.214 . S
Co119 O120 2.160 . S
Co119 O125 2.058 . S
Co119 O135 2.057 . S
Co119 O150 2.037 . S
Co119 N154 2.145 . S
Co119 N175 2.257 . S
O120 Co118 2.143 . S
O120 Co119 2.160 . S
C121 O122 1.278 . S
C121 O129 1.224 . S
O122 C121 1.278 . S
C123 O124 1.245 . S
C123 O135 1.232 . S
O124 C123 1.245 . S
O125 Co119 2.058 . S
O125 C151 1.269 . S
O126 Co118 2.074 . S
O126 C151 1.257 . S
H127 C152 0.930 . S
H128 C158 0.930 . S
O129 Co118 2.093 . S
O129 C121 1.224 . S
H130 C162 0.929 . S
H131 C164 0.930 . S
H132 C165 0.930 . S
H133 C163 0.929 . S
H134 C166 0.928 . S
O135 Co119 2.057 . S
O135 C123 1.232 . S
H136 C155 0.929 . S
H137 C156 0.929 . S
H138 C168 0.931 1_545 S
H139 C160 0.929 . S
H140 C169 0.930 1_545 S
H141 C161 0.931 . S
O142 Co118 2.097 . S
O142 C170 1.214 . S
H143 C171 0.929 . S
H144 C172 0.929 . S
H145 C173 0.930 . S
H146 C174 0.929 . S
H147 C176 0.930 . S
H148 C153 0.930 . S
H149 C157 0.930 . S
O150 Co119 2.037 . S
O150 C170 1.234 . S
C151 O125 1.269 . S
C151 O126 1.257 . S
C152 H127 0.930 . S
C152 C155 1.388 . S
C152 C157 1.418 . S
C153 H148 0.930 . S
C153 C156 1.404 . S
C153 C157 1.353 . S
N154 Co119 2.145 . S
N154 C155 1.397 . S
N154 C156 1.334 . S
C155 H136 0.929 . S
C155 C152 1.388 . S
C155 N154 1.397 . S
C156 H137 0.929 . S
C156 C153 1.404 . S
C156 N154 1.334 . S
C157 H149 0.930 . S
C157 C152 1.418 . S
C157 C153 1.353 . S
C158 H128 0.930 . S
C158 N159 1.330 . S
C158 C160 1.446 . S
N159 Co118 2.151 . S
N159 C158 1.330 . S
N159 C163 1.418 . S
C160 H139 0.929 . S
C160 C158 1.446 . S
C160 C161 1.332 . S
C161 H141 0.931 . S
C161 C160 1.332 . S
C161 C162 1.267 . S
C162 H130 0.929 . S
C162 C161 1.267 . S
C162 C163 1.251 . S
C163 H133 0.929 . S
C163 N159 1.418 . S
C163 C162 1.251 . S
C164 H131 0.930 . S
C164 C166 1.406 . S
C164 C169 1.261 . S
C165 H132 0.930 . S
C165 N167 1.325 . S
C165 C168 1.357 . S
C166 H134 0.928 . S
C166 C164 1.406 . S
C166 N167 1.261 . S
N167 Co118 2.214 . S
N167 C165 1.325 . S
N167 C166 1.261 . S
C168 H138 0.931 1_565 S
C168 C165 1.357 . S
C168 C169 1.312 . S
C169 H140 0.930 1_565 S
C169 C164 1.261 . S
C169 C168 1.312 . S
C170 O142 1.214 . S
C170 O150 1.234 . S
C171 H143 0.929 . S
C171 C174 1.391 . S
C171 C176 1.391 . S
C172 H144 0.929 . S
C172 C173 1.390 . S
C172 N175 1.391 . S
C173 H145 0.930 . S
C173 C172 1.390 . S
C173 C174 1.392 . S
C174 H146 0.929 . S
C174 C171 1.391 . S
C174 C173 1.392 . S
N175 Co119 2.257 . S
N175 C172 1.391 . S
N175 C176 1.388 . S
C176 H147 0.930 . S
C176 C171 1.391 . S
C176 N175 1.388 . S
Co177 O179 2.143 . S
Co177 O185 2.074 . S
Co177 O188 2.093 . S
Co177 O201 2.097 . S
Co177 N218 2.151 . S
Co177 N226 2.214 . S
Co178 O179 2.160 . S
Co178 O184 2.058 . S
Co178 O194 2.057 . S
Co178 O209 2.037 . S
Co178 N213 2.145 . S
Co178 N234 2.257 . S
O179 Co177 2.143 . S
O179 Co178 2.160 . S
C180 O181 1.278 . S
C180 O188 1.224 . S
O181 C180 1.278 . S
C182 O183 1.245 . S
C182 O194 1.232 . S
O183 C182 1.245 . S
O184 Co178 2.058 . S
O184 C210 1.269 . S
O185 Co177 2.074 . S
O185 C210 1.257 . S
H186 C211 0.930 . S
H187 C217 0.930 . S
O188 Co177 2.093 . S
O188 C180 1.224 . S
H189 C221 0.929 . S
H190 C223 0.930 . S
H191 C224 0.930 . S
H192 C222 0.930 . S
H193 C225 0.928 1_455 S
O194 Co178 2.057 . S
O194 C182 1.232 . S
H195 C214 0.929 . S
H196 C215 0.929 . S
H197 C227 0.931 . S
H198 C219 0.929 . S
H199 C228 0.930 . S
H200 C220 0.931 . S
O201 Co177 2.097 . S
O201 C229 1.214 . S
H202 C230 0.929 . S
H203 C231 0.929 . S
H204 C232 0.930 . S
H205 C233 0.929 . S
H206 C235 0.930 . S
H207 C212 0.930 . S
H208 C216 0.930 . S
O209 Co178 2.037 . S
O209 C229 1.234 . S
C210 O184 1.269 . S
C210 O185 1.257 . S
C211 H186 0.930 . S
C211 C214 1.388 . S
C211 C216 1.418 . S
C212 H207 0.930 . S
C212 C215 1.404 . S
C212 C216 1.353 . S
N213 Co178 2.145 . S
N213 C214 1.397 . S
N213 C215 1.334 . S
C214 H195 0.929 . S
C214 C211 1.388 . S
C214 N213 1.397 . S
C215 H196 0.929 . S
C215 C212 1.404 . S
C215 N213 1.334 . S
C216 H208 0.930 . S
C216 C211 1.418 . S
C216 C212 1.353 . S
C217 H187 0.930 . S
C217 N218 1.330 1_455 S
C217 C219 1.446 . S
N218 Co177 2.151 . S
N218 C217 1.330 1_655 S
N218 C222 1.417 . S
C219 H198 0.929 . S
C219 C217 1.446 . S
C219 C220 1.332 . S
C220 H200 0.931 . S
C220 C219 1.332 . S
C220 C221 1.267 . S
C221 H189 0.929 . S
C221 C220 1.267 . S
C221 C222 1.250 1_455 S
C222 H192 0.930 . S
C222 N218 1.417 . S
C222 C221 1.250 1_655 S
C223 H190 0.930 . S
C223 C225 1.406 1_455 S
C223 C228 1.261 1_455 S
C224 H191 0.930 . S
C224 N226 1.325 . S
C224 C227 1.357 . S
C225 H193 0.928 1_655 S
C225 C223 1.406 1_655 S
C225 N226 1.261 . S
N226 Co177 2.214 . S
N226 C224 1.325 . S
N226 C225 1.261 . S
C227 H197 0.931 . S
C227 C224 1.357 . S
C227 C228 1.312 . S
C228 H199 0.930 . S
C228 C223 1.261 1_655 S
C228 C227 1.312 . S
C229 O201 1.214 . S
C229 O209 1.234 . S
C230 H202 0.929 . S
C230 C233 1.391 . S
C230 C235 1.391 . S
C231 H203 0.929 . S
C231 C232 1.390 . S
C231 N234 1.391 . S
C232 H204 0.930 . S
C232 C231 1.390 . S
C232 C233 1.392 . S
C233 H205 0.929 . S
C233 C230 1.391 . S
C233 C232 1.392 . S
N234 Co178 2.257 . S
N234 C231 1.391 . S
N234 C235 1.388 . S
C235 H206 0.930 . S
C235 C230 1.391 . S
C235 N234 1.388 . S
Co236 O238 2.143 . S
Co236 O244 2.074 . S
Co236 O247 2.093 . S
Co236 O260 2.097 . S
Co236 N277 2.151 . S
Co236 N285 2.214 . S
Co237 O238 2.160 . S
Co237 O243 2.058 . S
Co237 O253 2.057 . S
Co237 O268 2.037 . S
Co237 N272 2.145 . S
Co237 N293 2.257 . S
O238 Co236 2.143 . S
O238 Co237 2.160 . S
C239 O240 1.278 . S
C239 O247 1.224 . S
O240 C239 1.278 . S
C241 O242 1.245 . S
C241 O253 1.232 . S
O242 C241 1.245 . S
O243 Co237 2.058 . S
O243 C269 1.269 . S
O244 Co236 2.074 . S
O244 C269 1.257 . S
H245 C270 0.930 . S
H246 C276 0.930 . S
O247 Co236 2.093 . S
O247 C239 1.224 . S
H248 C280 0.929 . S
H249 C282 0.930 . S
H250 C283 0.930 . S
H251 C281 0.929 . S
H252 C284 0.928 1_545 S
O253 Co237 2.057 . S
O253 C241 1.232 . S
H254 C273 0.929 . S
H255 C274 0.929 . S
H256 C286 0.931 1_655 S
H257 C278 0.929 . S
H258 C287 0.930 1_655 S
H259 C279 0.931 . S
O260 Co236 2.097 . S
O260 C288 1.214 . S
H261 C289 0.929 . S
H262 C290 0.929 . S
H263 C291 0.930 . S
H264 C292 0.929 . S
H265 C294 0.930 . S
H266 C271 0.930 . S
H267 C275 0.930 . S
O268 Co237 2.037 . S
O268 C288 1.234 . S
C269 O243 1.269 . S
C269 O244 1.257 . S
C270 H245 0.930 . S
C270 C273 1.388 . S
C270 C275 1.418 . S
C271 H266 0.930 . S
C271 C274 1.404 . S
C271 C275 1.353 . S
N272 Co237 2.145 . S
N272 C273 1.397 . S
N272 C274 1.334 . S
C273 H254 0.929 . S
C273 C270 1.388 . S
C273 N272 1.397 . S
C274 H255 0.929 . S
C274 C271 1.404 . S
C274 N272 1.334 . S
C275 H267 0.930 . S
C275 C270 1.418 . S
C275 C271 1.353 . S
C276 H246 0.930 . S
C276 N277 1.330 1_545 S
C276 C278 1.446 . S
N277 Co236 2.151 . S
N277 C276 1.330 1_565 S
N277 C281 1.419 . S
C278 H257 0.929 . S
C278 C276 1.446 . S
C278 C279 1.332 . S
C279 H259 0.931 . S
C279 C278 1.332 . S
C279 C280 1.267 . S
C280 H248 0.929 . S
C280 C279 1.267 . S
C280 C281 1.250 1_545 S
C281 H251 0.929 . S
C281 N277 1.419 . S
C281 C280 1.250 1_565 S
C282 H249 0.930 . S
C282 C284 1.406 1_545 S
C282 C287 1.261 1_545 S
C283 H250 0.930 . S
C283 N285 1.325 . S
C283 C286 1.357 . S
C284 H252 0.928 1_565 S
C284 C282 1.406 1_565 S
C284 N285 1.261 . S
N285 Co236 2.214 . S
N285 C283 1.325 . S
N285 C284 1.261 . S
C286 H256 0.931 1_455 S
C286 C283 1.357 . S
C286 C287 1.312 . S
C287 H258 0.930 1_455 S
C287 C282 1.261 1_565 S
C287 C286 1.312 . S
C288 O260 1.214 . S
C288 O268 1.234 . S
C289 H261 0.929 . S
C289 C292 1.391 . S
C289 C294 1.391 . S
C290 H262 0.929 . S
C290 C291 1.390 . S
C290 N293 1.391 . S
C291 H263 0.930 . S
C291 C290 1.390 . S
C291 C292 1.392 . S
C292 H264 0.929 . S
C292 C289 1.391 . S
C292 C291 1.392 . S
N293 Co237 2.257 . S
N293 C290 1.391 . S
N293 C294 1.388 . S
C294 H265 0.930 . S
C294 C289 1.391 . S
C294 N293 1.388 . S
Co295 O297 2.143 . S
Co295 O303 2.074 . S
Co295 O306 2.093 . S
Co295 O319 2.097 . S
Co295 N336 2.151 . S
Co295 N344 2.214 . S
Co296 O297 2.160 . S
Co296 O302 2.058 . S
Co296 O312 2.057 . S
Co296 O327 2.037 . S
Co296 N331 2.145 . S
Co296 N352 2.257 . S
O297 Co295 2.143 . S
O297 Co296 2.160 . S
C298 O299 1.276 1_556 S
C298 O306 1.243 . S
O299 C298 1.276 1_554 S
C300 O301 1.245 . S
C300 O312 1.232 . S
O301 C300 1.245 . S
O302 Co296 2.058 . S
O302 C328 1.269 . S
O303 Co295 2.074 . S
O303 C328 1.257 . S
H304 C329 0.930 . S
H305 C335 0.930 . S
O306 Co295 2.093 . S
O306 C298 1.243 . S
H307 C339 0.929 . S
H308 C341 0.930 . S
H309 C342 0.930 . S
H310 C340 0.929 . S
H311 C343 0.928 . S
O312 Co296 2.057 . S
O312 C300 1.232 . S
H313 C332 0.929 . S
H314 C333 0.929 . S
H315 C345 0.931 1_565 S
H316 C337 0.929 . S
H317 C346 0.930 1_565 S
H318 C338 0.931 . S
O319 Co295 2.097 . S
O319 C347 1.214 . S
H320 C348 0.929 . S
H321 C349 0.929 . S
H322 C350 0.930 . S
H323 C351 0.929 . S
H324 C353 0.930 . S
H325 C330 0.930 . S
H326 C334 0.930 . S
O327 Co296 2.037 . S
O327 C347 1.234 . S
C328 O302 1.269 . S
C328 O303 1.257 . S
C329 H304 0.930 . S
C329 C332 1.388 . S
C329 C334 1.418 . S
C330 H325 0.930 . S
C330 C333 1.404 . S
C330 C334 1.353 . S
N331 Co296 2.145 . S
N331 C332 1.397 . S
N331 C333 1.334 . S
C332 H313 0.929 . S
C332 C329 1.388 . S
C332 N331 1.397 . S
C333 H314 0.929 . S
C333 C330 1.404 . S
C333 N331 1.334 . S
C334 H326 0.930 . S
C334 C329 1.418 . S
C334 C330 1.353 . S
C335 H305 0.930 . S
C335 N336 1.330 . S
C335 C337 1.446 . S
N336 Co295 2.151 . S
N336 C335 1.330 . S
N336 C340 1.418 . S
C337 H316 0.929 . S
C337 C335 1.446 . S
C337 C338 1.332 . S
C338 H318 0.931 . S
C338 C337 1.332 . S
C338 C339 1.267 . S
C339 H307 0.929 . S
C339 C338 1.267 . S
C339 C340 1.251 . S
C340 H310 0.929 . S
C340 N336 1.418 . S
C340 C339 1.251 . S
C341 H308 0.930 . S
C341 C343 1.406 . S
C341 C346 1.261 . S
C342 H309 0.930 . S
C342 N344 1.325 . S
C342 C345 1.357 . S
C343 H311 0.928 . S
C343 C341 1.406 . S
C343 N344 1.261 . S
N344 Co295 2.214 . S
N344 C342 1.325 . S
N344 C343 1.261 . S
C345 H315 0.931 1_545 S
C345 C342 1.357 . S
C345 C346 1.312 . S
C346 H317 0.930 1_545 S
C346 C341 1.261 . S
C346 C345 1.312 . S
C347 O319 1.214 . S
C347 O327 1.234 . S
C348 H320 0.929 . S
C348 C351 1.391 . S
C348 C353 1.391 1_554 S
C349 H321 0.929 . S
C349 C350 1.390 . S
C349 N352 1.391 1_554 S
C350 H322 0.930 . S
C350 C349 1.390 . S
C350 C351 1.392 . S
C351 H323 0.929 . S
C351 C348 1.391 . S
C351 C350 1.392 . S
N352 Co296 2.257 . S
N352 C349 1.391 1_556 S
N352 C353 1.388 . S
C353 H324 0.930 . S
C353 C348 1.391 1_556 S
C353 N352 1.388 . S
Co354 O356 2.143 . S
Co354 O362 2.074 . S
Co354 O365 2.093 . S
Co354 O378 2.097 . S
Co354 N395 2.151 . S
Co354 N403 2.214 . S
Co355 O356 2.160 . S
Co355 O361 2.058 . S
Co355 O371 2.057 . S
Co355 O386 2.037 . S
Co355 N390 2.145 . S
Co355 N411 2.257 . S
O356 Co354 2.143 . S
O356 Co355 2.160 . S
C357 O358 1.278 . S
C357 O365 1.224 . S
O358 C357 1.278 . S
C359 O360 1.245 . S
C359 O371 1.232 . S
O360 C359 1.245 . S
O361 Co355 2.058 . S
O361 C387 1.269 . S
O362 Co354 2.074 . S
O362 C387 1.257 . S
H363 C388 0.930 . S
H364 C394 0.930 . S
O365 Co354 2.093 . S
O365 C357 1.224 . S
H366 C398 0.929 . S
H367 C400 0.930 . S
H368 C401 0.930 . S
H369 C399 0.930 . S
H370 C402 0.928 1_545 S
O371 Co355 2.057 . S
O371 C359 1.232 . S
H372 C391 0.929 . S
H373 C392 0.929 . S
H374 C404 0.931 . S
H375 C396 0.929 . S
H376 C405 0.930 . S
H377 C397 0.931 . S
O378 Co354 2.097 . S
O378 C406 1.214 . S
H379 C407 0.929 . S
H380 C408 0.929 . S
H381 C409 0.930 . S
H382 C410 0.929 . S
H383 C412 0.930 . S
H384 C389 0.930 . S
H385 C393 0.930 . S
O386 Co355 2.037 . S
O386 C406 1.234 . S
C387 O361 1.269 . S
C387 O362 1.257 . S
C388 H363 0.930 . S
C388 C391 1.388 . S
C388 C393 1.418 . S
C389 H384 0.930 . S
C389 C392 1.404 . S
C389 C393 1.353 . S
N390 Co355 2.145 . S
N390 C391 1.397 . S
N390 C392 1.334 . S
C391 H372 0.929 . S
C391 C388 1.388 . S
C391 N390 1.397 . S
C392 H373 0.929 . S
C392 C389 1.404 . S
C392 N390 1.334 . S
C393 H385 0.930 . S
C393 C388 1.418 . S
C393 C389 1.353 . S
C394 H364 0.930 . S
C394 N395 1.330 1_545 S
C394 C396 1.446 . S
N395 Co354 2.151 . S
N395 C394 1.330 1_565 S
N395 C399 1.417 . S
C396 H375 0.929 . S
C396 C394 1.446 . S
C396 C397 1.332 . S
C397 H377 0.931 . S
C397 C396 1.332 . S
C397 C398 1.267 . S
C398 H366 0.929 . S
C398 C397 1.267 . S
C398 C399 1.250 1_545 S
C399 H369 0.930 . S
C399 N395 1.417 . S
C399 C398 1.250 1_565 S
C400 H367 0.930 . S
C400 C402 1.406 1_545 S
C400 C405 1.261 1_545 S
C401 H368 0.930 . S
C401 N403 1.325 . S
C401 C404 1.357 . S
C402 H370 0.928 1_565 S
C402 C400 1.406 1_565 S
C402 N403 1.261 . S
N403 Co354 2.214 . S
N403 C401 1.325 . S
N403 C402 1.261 . S
C404 H374 0.931 . S
C404 C401 1.357 . S
C404 C405 1.312 . S
C405 H376 0.930 . S
C405 C400 1.261 1_565 S
C405 C404 1.312 . S
C406 O378 1.214 . S
C406 O386 1.234 . S
C407 H379 0.929 . S
C407 C410 1.391 . S
C407 C412 1.391 . S
C408 H380 0.929 . S
C408 C409 1.390 . S
C408 N411 1.391 . S
C409 H381 0.930 . S
C409 C408 1.390 . S
C409 C410 1.392 . S
C410 H382 0.929 . S
C410 C407 1.391 . S
C410 C409 1.392 . S
N411 Co355 2.257 . S
N411 C408 1.391 . S
N411 C412 1.388 . S
C412 H383 0.930 . S
C412 C407 1.391 . S
C412 N411 1.388 . S
Co413 O415 2.143 . S
Co413 O421 2.074 . S
Co413 O424 2.093 . S
Co413 O437 2.097 . S
Co413 N454 2.151 . S
Co413 N462 2.214 . S
Co414 O415 2.160 . S
Co414 O420 2.058 . S
Co414 O430 2.057 . S
Co414 O445 2.037 . S
Co414 N449 2.145 . S
Co414 N470 2.257 . S
O415 Co413 2.143 . S
O415 Co414 2.160 . S
C416 O417 1.278 . S
C416 O424 1.224 . S
O417 C416 1.278 . S
C418 O419 1.245 . S
C418 O430 1.232 . S
O419 C418 1.245 . S
O420 Co414 2.058 . S
O420 C446 1.269 . S
O421 Co413 2.074 . S
O421 C446 1.257 . S
H422 C447 0.930 . S
H423 C453 0.930 . S
O424 Co413 2.093 . S
O424 C416 1.224 . S
H425 C457 0.929 . S
H426 C459 0.930 . S
H427 C460 0.930 . S
H428 C458 0.929 . S
H429 C461 0.928 . S
O430 Co414 2.057 . S
O430 C418 1.232 . S
H431 C450 0.929 . S
H432 C451 0.929 . S
H433 C463 0.931 1_455 S
H434 C455 0.929 . S
H435 C464 0.930 1_455 S
H436 C456 0.931 . S
O437 Co413 2.097 . S
O437 C465 1.214 . S
H438 C466 0.929 . S
H439 C467 0.929 . S
H440 C468 0.930 . S
H441 C469 0.929 . S
H442 C471 0.930 . S
H443 C448 0.930 . S
H444 C452 0.930 . S
O445 Co414 2.037 . S
O445 C465 1.234 . S
C446 O420 1.269 . S
C446 O421 1.257 . S
C447 H422 0.930 . S
C447 C450 1.388 . S
C447 C452 1.418 . S
C448 H443 0.930 . S
C448 C451 1.404 . S
C448 C452 1.353 . S
N449 Co414 2.145 . S
N449 C450 1.397 . S
N449 C451 1.334 . S
C450 H431 0.929 . S
C450 C447 1.388 . S
C450 N449 1.397 . S
C451 H432 0.929 . S
C451 C448 1.404 . S
C451 N449 1.334 . S
C452 H444 0.930 . S
C452 C447 1.418 . S
C452 C448 1.353 . S
C453 H423 0.930 . S
C453 N454 1.330 . S
C453 C455 1.446 . S
N454 Co413 2.151 . S
N454 C453 1.330 . S
N454 C458 1.418 . S
C455 H434 0.929 . S
C455 C453 1.446 . S
C455 C456 1.332 . S
C456 H436 0.931 . S
C456 C455 1.332 . S
C456 C457 1.267 . S
C457 H425 0.929 . S
C457 C456 1.267 . S
C457 C458 1.251 . S
C458 H428 0.929 . S
C458 N454 1.418 . S
C458 C457 1.251 . S
C459 H426 0.930 . S
C459 C461 1.406 . S
C459 C464 1.261 . S
C460 H427 0.930 . S
C460 N462 1.325 . S
C460 C463 1.357 . S
C461 H429 0.928 . S
C461 C459 1.406 . S
C461 N462 1.261 . S
N462 Co413 2.214 . S
N462 C460 1.325 . S
N462 C461 1.261 . S
C463 H433 0.931 1_655 S
C463 C460 1.357 . S
C463 C464 1.312 . S
C464 H435 0.930 1_655 S
C464 C459 1.261 . S
C464 C463 1.312 . S
C465 O437 1.214 . S
C465 O445 1.234 . S
C466 H438 0.929 . S
C466 C469 1.391 . S
C466 C471 1.391 . S
C467 H439 0.929 . S
C467 C468 1.390 . S
C467 N470 1.391 . S
C468 H440 0.930 . S
C468 C467 1.390 . S
C468 C469 1.392 . S
C469 H441 0.929 . S
C469 C466 1.391 . S
C469 C468 1.392 . S
N470 Co414 2.257 . S
N470 C467 1.391 . S
N470 C471 1.388 . S
C471 H442 0.930 . S
C471 C466 1.391 . S
C471 N470 1.388 . S
Co472 O474 2.143 . S
Co472 O480 2.074 . S
Co472 O483 2.093 . S
Co472 O496 2.097 . S
Co472 N513 2.151 . S
Co472 N521 2.214 . S
Co473 O474 2.160 . S
Co473 O479 2.058 . S
Co473 O489 2.057 . S
Co473 O504 2.037 . S
Co473 N508 2.145 . S
Co473 N529 2.257 . S
O474 Co472 2.143 . S
O474 Co473 2.160 . S
C475 O476 1.276 1_554 S
C475 O483 1.243 . S
O476 C475 1.276 1_556 S
C477 O478 1.245 . S
C477 O489 1.232 . S
O478 C477 1.245 . S
O479 Co473 2.058 . S
O479 C505 1.269 . S
O480 Co472 2.074 . S
O480 C505 1.257 . S
H481 C506 0.930 . S
H482 C512 0.930 . S
O483 Co472 2.093 . S
O483 C475 1.243 . S
H484 C516 0.929 . S
H485 C518 0.930 . S
H486 C519 0.930 . S
H487 C517 0.929 . S
H488 C520 0.928 1_655 S
O489 Co473 2.057 . S
O489 C477 1.232 . S
H490 C509 0.929 . S
H491 C510 0.929 . S
H492 C522 0.931 1_545 S
H493 C514 0.929 . S
H494 C523 0.930 1_545 S
H495 C515 0.931 . S
O496 Co472 2.097 . S
O496 C524 1.214 . S
H497 C525 0.929 . S
H498 C526 0.929 . S
H499 C527 0.930 . S
H500 C528 0.929 . S
H501 C530 0.930 . S
H502 C507 0.930 . S
H503 C511 0.930 . S
O504 Co473 2.037 . S
O504 C524 1.234 . S
C505 O479 1.269 . S
C505 O480 1.257 . S
C506 H481 0.930 . S
C506 C509 1.388 . S
C506 C511 1.418 . S
C507 H502 0.930 . S
C507 C510 1.404 . S
C507 C511 1.353 . S
N508 Co473 2.145 . S
N508 C509 1.397 . S
N508 C510 1.334 . S
C509 H490 0.929 . S
C509 C506 1.388 . S
C509 N508 1.397 . S
C510 H491 0.929 . S
C510 C507 1.404 . S
C510 N508 1.334 . S
C511 H503 0.930 . S
C511 C506 1.418 . S
C511 C507 1.353 . S
C512 H482 0.930 . S
C512 N513 1.330 1_655 S
C512 C514 1.446 . S
N513 Co472 2.151 . S
N513 C512 1.330 1_455 S
N513 C517 1.419 . S
C514 H493 0.929 . S
C514 C512 1.446 . S
C514 C515 1.332 . S
C515 H495 0.931 . S
C515 C514 1.332 . S
C515 C516 1.267 . S
C516 H484 0.929 . S
C516 C515 1.267 . S
C516 C517 1.250 1_655 S
C517 H487 0.929 . S
C517 N513 1.419 . S
C517 C516 1.250 1_455 S
C518 H485 0.930 . S
C518 C520 1.406 1_655 S
C518 C523 1.261 1_655 S
C519 H486 0.930 . S
C519 N521 1.325 . S
C519 C522 1.357 . S
C520 H488 0.928 1_455 S
C520 C518 1.406 1_455 S
C520 N521 1.261 . S
N521 Co472 2.214 . S
N521 C519 1.325 . S
N521 C520 1.261 . S
C522 H492 0.931 1_565 S
C522 C519 1.357 . S
C522 C523 1.312 . S
C523 H494 0.930 1_565 S
C523 C518 1.261 1_455 S
C523 C522 1.312 . S
C524 O496 1.214 . S
C524 O504 1.234 . S
C525 H497 0.929 . S
C525 C528 1.391 . S
C525 C530 1.391 1_556 S
C526 H498 0.929 . S
C526 C527 1.390 . S
C526 N529 1.391 1_556 S
C527 H499 0.930 . S
C527 C526 1.390 . S
C527 C528 1.392 . S
C528 H500 0.929 . S
C528 C525 1.391 . S
C528 C527 1.392 . S
N529 Co473 2.257 . S
N529 C526 1.391 1_554 S
N529 C530 1.388 . S
C530 H501 0.930 . S
C530 C525 1.391 1_554 S
C530 N529 1.388 . S
Co531 O533 2.143 . S
Co531 O539 2.074 . S
Co531 O542 2.093 . S
Co531 O555 2.097 . S
Co531 N572 2.151 . S
Co531 N580 2.214 . S
Co532 O533 2.160 . S
Co532 O538 2.058 . S
Co532 O548 2.057 . S
Co532 O563 2.037 . S
Co532 N567 2.145 . S
Co532 N588 2.257 . S
O533 Co531 2.143 . S
O533 Co532 2.160 . S
C534 O535 1.278 . S
C534 O542 1.224 . S
O535 C534 1.278 . S
C536 O537 1.245 . S
C536 O548 1.232 . S
O537 C536 1.245 . S
O538 Co532 2.058 . S
O538 C564 1.269 . S
O539 Co531 2.074 . S
O539 C564 1.257 . S
H540 C565 0.930 . S
H541 C571 0.930 . S
O542 Co531 2.093 . S
O542 C534 1.224 . S
H543 C575 0.929 . S
H544 C577 0.930 . S
H545 C578 0.930 . S
H546 C576 0.930 . S
H547 C579 0.928 1_565 S
O548 Co532 2.057 . S
O548 C536 1.232 . S
H549 C568 0.929 . S
H550 C569 0.929 . S
H551 C581 0.931 . S
H552 C573 0.929 . S
H553 C582 0.930 . S
H554 C574 0.931 . S
O555 Co531 2.097 . S
O555 C583 1.214 . S
H556 C584 0.929 . S
H557 C585 0.929 . S
H558 C586 0.930 . S
H559 C587 0.929 . S
H560 C589 0.930 . S
H561 C566 0.930 . S
H562 C570 0.930 . S
O563 Co532 2.037 . S
O563 C583 1.234 . S
C564 O538 1.269 . S
C564 O539 1.257 . S
C565 H540 0.930 . S
C565 C568 1.388 . S
C565 C570 1.418 . S
C566 H561 0.930 . S
C566 C569 1.404 . S
C566 C570 1.353 . S
N567 Co532 2.145 . S
N567 C568 1.397 . S
N567 C569 1.334 . S
C568 H549 0.929 . S
C568 C565 1.388 . S
C568 N567 1.397 . S
C569 H550 0.929 . S
C569 C566 1.404 . S
C569 N567 1.334 . S
C570 H562 0.930 . S
C570 C565 1.418 . S
C570 C566 1.353 . S
C571 H541 0.930 . S
C571 N572 1.330 1_565 S
C571 C573 1.446 . S
N572 Co531 2.151 . S
N572 C571 1.330 1_545 S
N572 C576 1.417 . S
C573 H552 0.929 . S
C573 C571 1.446 . S
C573 C574 1.332 . S
C574 H554 0.931 . S
C574 C573 1.332 . S
C574 C575 1.267 . S
C575 H543 0.929 . S
C575 C574 1.267 . S
C575 C576 1.250 1_565 S
C576 H546 0.930 . S
C576 N572 1.417 . S
C576 C575 1.250 1_545 S
C577 H544 0.930 . S
C577 C579 1.406 1_565 S
C577 C582 1.261 1_565 S
C578 H545 0.930 . S
C578 N580 1.325 . S
C578 C581 1.357 . S
C579 H547 0.928 1_545 S
C579 C577 1.406 1_545 S
C579 N580 1.261 . S
N580 Co531 2.214 . S
N580 C578 1.325 . S
N580 C579 1.261 . S
C581 H551 0.931 . S
C581 C578 1.357 . S
C581 C582 1.312 . S
C582 H553 0.930 . S
C582 C577 1.261 1_545 S
C582 C581 1.312 . S
C583 O555 1.214 . S
C583 O563 1.234 . S
C584 H556 0.929 . S
C584 C587 1.391 . S
C584 C589 1.391 . S
C585 H557 0.929 . S
C585 C586 1.390 . S
C585 N588 1.391 . S
C586 H558 0.930 . S
C586 C585 1.390 . S
C586 C587 1.392 . S
C587 H559 0.929 . S
C587 C584 1.391 . S
C587 C586 1.392 . S
N588 Co532 2.257 . S
N588 C585 1.391 . S
N588 C589 1.388 . S
C589 H560 0.930 . S
C589 C584 1.391 . S
C589 N588 1.388 . S
Co590 O592 2.143 . S
Co590 O598 2.074 . S
Co590 O601 2.093 . S
Co590 O614 2.097 . S
Co590 N631 2.151 . S
Co590 N639 2.214 . S
Co591 O592 2.160 . S
Co591 O597 2.058 . S
Co591 O607 2.057 . S
Co591 O622 2.037 . S
Co591 N626 2.145 . S
Co591 N647 2.257 . S
O592 Co590 2.143 . S
O592 Co591 2.160 . S
C593 O594 1.278 . S
C593 O601 1.224 . S
O594 C593 1.278 . S
C595 O596 1.245 . S
C595 O607 1.232 . S
O596 C595 1.245 . S
O597 Co591 2.058 . S
O597 C623 1.269 . S
O598 Co590 2.074 . S
O598 C623 1.257 . S
H599 C624 0.930 . S
H600 C630 0.930 . S
O601 Co590 2.093 . S
O601 C593 1.224 . S
H602 C634 0.929 . S
H603 C636 0.930 . S
H604 C637 0.930 . S
H605 C635 0.929 . S
H606 C638 0.928 . S
O607 Co591 2.057 . S
O607 C595 1.232 . S
H608 C627 0.929 . S
H609 C628 0.929 . S
H610 C640 0.931 1_655 S
H611 C632 0.929 . S
H612 C641 0.930 1_655 S
H613 C633 0.931 . S
O614 Co590 2.097 . S
O614 C642 1.214 . S
H615 C643 0.929 . S
H616 C644 0.929 . S
H617 C645 0.930 . S
H618 C646 0.929 . S
H619 C648 0.930 . S
H620 C625 0.930 . S
H621 C629 0.930 . S
O622 Co591 2.037 . S
O622 C642 1.234 . S
C623 O597 1.269 . S
C623 O598 1.257 . S
C624 H599 0.930 . S
C624 C627 1.388 . S
C624 C629 1.418 . S
C625 H620 0.930 . S
C625 C628 1.404 . S
C625 C629 1.353 . S
N626 Co591 2.145 . S
N626 C627 1.397 . S
N626 C628 1.334 . S
C627 H608 0.929 . S
C627 C624 1.388 . S
C627 N626 1.397 . S
C628 H609 0.929 . S
C628 C625 1.404 . S
C628 N626 1.334 . S
C629 H621 0.930 . S
C629 C624 1.418 . S
C629 C625 1.353 . S
C630 H600 0.930 . S
C630 N631 1.330 . S
C630 C632 1.446 . S
N631 Co590 2.151 . S
N631 C630 1.330 . S
N631 C635 1.418 . S
C632 H611 0.929 . S
C632 C630 1.446 . S
C632 C633 1.332 . S
C633 H613 0.931 . S
C633 C632 1.332 . S
C633 C634 1.267 . S
C634 H602 0.929 . S
C634 C633 1.267 . S
C634 C635 1.251 . S
C635 H605 0.929 . S
C635 N631 1.418 . S
C635 C634 1.251 . S
C636 H603 0.930 . S
C636 C638 1.406 . S
C636 C641 1.261 . S
C637 H604 0.930 . S
C637 N639 1.325 . S
C637 C640 1.357 . S
C638 H606 0.928 . S
C638 C636 1.406 . S
C638 N639 1.261 . S
N639 Co590 2.214 . S
N639 C637 1.325 . S
N639 C638 1.261 . S
C640 H610 0.931 1_455 S
C640 C637 1.357 . S
C640 C641 1.312 . S
C641 H612 0.930 1_455 S
C641 C636 1.261 . S
C641 C640 1.312 . S
C642 O614 1.214 . S
C642 O622 1.234 . S
C643 H615 0.929 . S
C643 C646 1.391 . S
C643 C648 1.391 . S
C644 H616 0.929 . S
C644 C645 1.390 . S
C644 N647 1.391 . S
C645 H617 0.930 . S
C645 C644 1.390 . S
C645 C646 1.392 . S
C646 H618 0.929 . S
C646 C643 1.391 . S
C646 C645 1.392 . S
N647 Co591 2.257 . S
N647 C644 1.391 . S
N647 C648 1.388 . S
C648 H619 0.930 . S
C648 C643 1.391 . S
C648 N647 1.388 . S
Co649 O651 2.143 . S
Co649 O657 2.074 . S
Co649 O660 2.093 . S
Co649 O673 2.097 . S
Co649 N690 2.151 . S
Co649 N698 2.214 . S
Co650 O651 2.160 . S
Co650 O656 2.058 . S
Co650 O666 2.057 . S
Co650 O681 2.037 . S
Co650 N685 2.145 . S
Co650 N706 2.257 . S
O651 Co649 2.143 . S
O651 Co650 2.160 . S
C652 O653 1.278 . S
C652 O660 1.224 . S
O653 C652 1.278 . S
C654 O655 1.245 . S
C654 O666 1.232 . S
O655 C654 1.245 . S
O656 Co650 2.058 . S
O656 C682 1.269 . S
O657 Co649 2.074 . S
O657 C682 1.257 . S
H658 C683 0.930 . S
H659 C689 0.930 . S
O660 Co649 2.093 . S
O660 C652 1.224 . S
H661 C693 0.929 . S
H662 C695 0.930 . S
H663 C696 0.930 . S
H664 C694 0.929 . S
H665 C697 0.928 1_455 S
O666 Co650 2.057 . S
O666 C654 1.232 . S
H667 C686 0.929 . S
H668 C687 0.929 . S
H669 C699 0.931 1_565 S
H670 C691 0.929 . S
H671 C700 0.930 1_565 S
H672 C692 0.931 . S
O673 Co649 2.097 . S
O673 C701 1.214 . S
H674 C702 0.929 . S
H675 C703 0.929 . S
H676 C704 0.930 . S
H677 C705 0.929 . S
H678 C707 0.930 . S
H679 C684 0.930 . S
H680 C688 0.930 . S
O681 Co650 2.037 . S
O681 C701 1.234 . S
C682 O656 1.269 . S
C682 O657 1.257 . S
C683 H658 0.930 . S
C683 C686 1.388 . S
C683 C688 1.418 . S
C684 H679 0.930 . S
C684 C687 1.404 . S
C684 C688 1.353 . S
N685 Co650 2.145 . S
N685 C686 1.397 . S
N685 C687 1.334 . S
C686 H667 0.929 . S
C686 C683 1.388 . S
C686 N685 1.397 . S
C687 H668 0.929 . S
C687 C684 1.404 . S
C687 N685 1.334 . S
C688 H680 0.930 . S
C688 C683 1.418 . S
C688 C684 1.353 . S
C689 H659 0.930 . S
C689 N690 1.330 1_455 S
C689 C691 1.446 . S
N690 Co649 2.151 . S
N690 C689 1.330 1_655 S
N690 C694 1.419 . S
C691 H670 0.929 . S
C691 C689 1.446 . S
C691 C692 1.332 . S
C692 H672 0.931 . S
C692 C691 1.332 . S
C692 C693 1.267 . S
C693 H661 0.929 . S
C693 C692 1.267 . S
C693 C694 1.249 1_455 S
C694 H664 0.929 . S
C694 N690 1.419 . S
C694 C693 1.249 1_655 S
C695 H662 0.930 . S
C695 C697 1.406 1_455 S
C695 C700 1.261 1_455 S
C696 H663 0.930 . S
C696 N698 1.325 . S
C696 C699 1.357 . S
C697 H665 0.928 1_655 S
C697 C695 1.406 1_655 S
C697 N698 1.261 . S
N698 Co649 2.214 . S
N698 C696 1.325 . S
N698 C697 1.261 . S
C699 H669 0.931 1_545 S
C699 C696 1.357 . S
C699 C700 1.312 . S
C700 H671 0.930 1_545 S
C700 C695 1.261 1_655 S
C700 C699 1.312 . S
C701 O673 1.214 . S
C701 O681 1.234 . S
C702 H674 0.929 . S
C702 C705 1.391 . S
C702 C707 1.391 . S
C703 H675 0.929 . S
C703 C704 1.390 . S
C703 N706 1.391 . S
C704 H676 0.930 . S
C704 C703 1.390 . S
C704 C705 1.392 . S
C705 H677 0.929 . S
C705 C702 1.391 . S
C705 C704 1.392 . S
N706 Co650 2.257 . S
N706 C703 1.391 . S
N706 C707 1.388 . S
C707 H678 0.930 . S
C707 C702 1.391 . S
C707 N706 1.388 . S
C708 C709 1.387 . S
C708 H712 0.950 . S
C708 C717 1.390 . S
C709 C708 1.387 . S
C709 C711 1.387 . S
H710 C717 0.950 . S
C711 C709 1.387 . S
C711 C713 1.390 . S
C711 H715 0.950 . S
H712 C708 0.950 . S
C713 C711 1.390 . S
C713 C714 1.387 . S
C713 H716 0.950 . S
C714 C713 1.387 . S
C714 C717 1.387 . S
H715 C711 0.950 . S
H716 C713 0.950 . S
C717 C708 1.390 . S
C717 H710 0.950 . S
C717 C714 1.387 . S
C718 C719 1.387 . S
C718 H722 0.950 . S
C718 C727 1.390 . S
C719 C718 1.387 . S
C719 C721 1.387 . S
H720 C727 0.950 . S
C721 C719 1.387 . S
C721 C723 1.390 . S
C721 H725 0.950 . S
H722 C718 0.950 . S
C723 C721 1.390 . S
C723 C724 1.387 . S
C723 H726 0.950 . S
C724 C723 1.387 . S
C724 C727 1.387 . S
H725 C721 0.950 . S
H726 C723 0.950 . S
C727 C718 1.390 . S
C727 H720 0.950 . S
C727 C724 1.387 . S
C728 C729 1.387 . S
C728 H732 0.950 . S
C728 C737 1.390 . S
C729 C728 1.387 . S
C729 C731 1.387 . S
H730 C737 0.950 . S
C731 C729 1.387 . S
C731 C733 1.390 . S
C731 H735 0.950 . S
H732 C728 0.950 . S
C733 C731 1.390 . S
C733 C734 1.387 . S
C733 H736 0.950 . S
C734 C733 1.387 . S
C734 C737 1.387 . S
H735 C731 0.950 . S
H736 C733 0.950 . S
C737 C728 1.390 . S
C737 H730 0.950 . S
C737 C734 1.387 . S
C738 C739 1.387 . S
C738 H742 0.950 . S
C738 C747 1.390 . S
C739 C738 1.387 . S
C739 C741 1.387 . S
H740 C747 0.950 . S
C741 C739 1.387 . S
C741 C743 1.390 . S
C741 H745 0.950 . S
H742 C738 0.950 . S
C743 C741 1.390 . S
C743 C744 1.387 . S
C743 H746 0.950 . S
C744 C743 1.387 . S
C744 C747 1.387 . S
H745 C741 0.950 . S
H746 C743 0.950 . S
C747 C738 1.390 . S
C747 H740 0.950 . S
C747 C744 1.387 . S
C748 C749 1.387 . S
C748 H752 0.950 . S
C748 C757 1.390 . S
C749 C748 1.387 . S
C749 C751 1.387 . S
H750 C757 0.950 . S
C751 C749 1.387 . S
C751 C753 1.390 . S
C751 H755 0.950 . S
H752 C748 0.950 . S
C753 C751 1.390 . S
C753 C754 1.387 . S
C753 H756 0.950 . S
C754 C753 1.387 . S
C754 C757 1.387 . S
H755 C751 0.950 . S
H756 C753 0.950 . S
C757 C748 1.390 . S
C757 H750 0.950 . S
C757 C754 1.387 . S
C758 C759 1.387 . S
C758 H762 0.950 . S
C758 C767 1.390 . S
C759 C758 1.387 . S
C759 C761 1.387 . S
H760 C767 0.950 . S
C761 C759 1.387 . S
C761 C763 1.390 . S
C761 H765 0.950 . S
H762 C758 0.950 . S
C763 C761 1.390 . S
C763 C764 1.387 . S
C763 H766 0.950 . S
C764 C763 1.387 . S
C764 C767 1.387 . S
H765 C761 0.950 . S
H766 C763 0.950 . S
C767 C758 1.390 . S
C767 H760 0.950 . S
C767 C764 1.387 . S
C768 C769 1.387 . S
C768 H772 0.950 . S
C768 C777 1.390 . S
C769 C768 1.387 . S
C769 C771 1.387 . S
H770 C777 0.950 . S
C771 C769 1.387 . S
C771 C773 1.390 . S
C771 H775 0.950 . S
H772 C768 0.950 . S
C773 C771 1.390 . S
C773 C774 1.387 . S
C773 H776 0.950 . S
C774 C773 1.387 . S
C774 C777 1.387 . S
H775 C771 0.950 . S
H776 C773 0.950 . S
C777 C768 1.390 . S
C777 H770 0.950 . S
C777 C774 1.387 . S
C778 C779 1.387 . S
C778 H782 0.950 . S
C778 C787 1.390 1_655 S
C779 C778 1.387 . S
C779 C781 1.387 . S
H780 C787 0.950 . S
C781 C779 1.387 . S
C781 C783 1.390 1_655 S
C781 H785 0.950 . S
H782 C778 0.950 . S
C783 C781 1.390 1_455 S
C783 C784 1.387 . S
C783 H786 0.950 . S
C784 C783 1.387 . S
C784 C787 1.387 . S
H785 C781 0.950 . S
H786 C783 0.950 . S
C787 C778 1.390 1_455 S
C787 H780 0.950 . S
C787 C784 1.387 . S
C788 C789 1.387 . S
C788 H792 0.950 . S
C788 C797 1.390 1_545 S
C789 C788 1.387 . S
C789 C791 1.387 . S
H790 C797 0.950 . S
C791 C789 1.387 . S
C791 C793 1.390 1_545 S
C791 H795 0.950 . S
H792 C788 0.950 . S
C793 C791 1.390 1_565 S
C793 C794 1.387 . S
C793 H796 0.950 . S
C794 C793 1.387 . S
C794 C797 1.387 . S
H795 C791 0.950 . S
H796 C793 0.950 . S
C797 C788 1.390 1_565 S
C797 H790 0.950 . S
C797 C794 1.387 . S
C798 C799 1.387 . S
C798 H802 0.950 . S
C798 C807 1.390 . S
C799 C798 1.387 . S
C799 C801 1.387 . S
H800 C807 0.950 . S
C801 C799 1.387 . S
C801 C803 1.390 . S
C801 H805 0.950 . S
H802 C798 0.950 . S
C803 C801 1.390 . S
C803 C804 1.387 . S
C803 H806 0.950 . S
C804 C803 1.387 . S
C804 C807 1.387 . S
H805 C801 0.950 . S
H806 C803 0.950 . S
C807 C798 1.390 . S
C807 H800 0.950 . S
C807 C804 1.387 . S
C808 C809 1.387 . S
C808 H812 0.950 . S
C808 C817 1.390 1_655 S
C809 C808 1.387 . S
C809 C811 1.387 . S
H810 C817 0.950 . S
C811 C809 1.387 . S
C811 C813 1.390 1_655 S
C811 H815 0.950 . S
H812 C808 0.950 . S
C813 C811 1.390 1_455 S
C813 C814 1.387 . S
C813 H816 0.950 . S
C814 C813 1.387 . S
C814 C817 1.387 . S
H815 C811 0.950 . S
H816 C813 0.950 . S
C817 C808 1.390 1_455 S
C817 H810 0.950 . S
C817 C814 1.387 . S
C818 C819 1.387 . S
C818 H822 0.950 . S
C818 C827 1.390 1_564 S
C819 C818 1.387 . S
C819 C821 1.387 . S
H820 C827 0.950 . S
C821 C819 1.387 . S
C821 C823 1.390 1_564 S
C821 H825 0.950 . S
H822 C818 0.950 . S
C823 C821 1.390 1_546 S
C823 C824 1.387 . S
C823 H826 0.950 . S
C824 C823 1.387 . S
C824 C827 1.387 . S
H825 C821 0.950 . S
H826 C823 0.950 . S
C827 C818 1.390 1_546 S
C827 H820 0.950 . S
C827 C824 1.387 . S
C828 C829 1.387 . S
C828 H832 0.950 . S
C828 C837 1.390 . S
C829 C828 1.387 . S
C829 C831 1.387 . S
H830 C837 0.950 . S
C831 C829 1.387 . S
C831 C833 1.390 . S
C831 H835 0.950 . S
H832 C828 0.950 . S
C833 C831 1.390 . S
C833 C834 1.387 . S
C833 H836 0.950 . S
C834 C833 1.387 . S
C834 C837 1.387 . S
H835 C831 0.950 . S
H836 C833 0.950 . S
C837 C828 1.390 . S
C837 H830 0.950 . S
C837 C834 1.387 . S
C838 C839 1.387 . S
C838 H842 0.950 . S
C838 C847 1.390 . S
C839 C838 1.387 . S
C839 C841 1.387 . S
H840 C847 0.950 . S
C841 C839 1.387 . S
C841 C843 1.390 . S
C841 H845 0.950 . S
H842 C838 0.950 . S
C843 C841 1.390 . S
C843 C844 1.387 . S
C843 H846 0.950 . S
C844 C843 1.387 . S
C844 C847 1.387 . S
H845 C841 0.950 . S
H846 C843 0.950 . S
C847 C838 1.390 . S
C847 H840 0.950 . S
C847 C844 1.387 . S
C848 C849 1.387 . S
C848 H852 0.950 . S
C848 C857 1.390 . S
C849 C848 1.387 . S
C849 C851 1.387 . S
H850 C857 0.950 . S
C851 C849 1.387 . S
C851 C853 1.390 . S
C851 H855 0.950 . S
H852 C848 0.950 . S
C853 C851 1.390 . S
C853 C854 1.387 . S
C853 H856 0.950 . S
C854 C853 1.387 . S
C854 C857 1.387 . S
H855 C851 0.950 . S
H856 C853 0.950 . S
C857 C848 1.390 . S
C857 H850 0.950 . S
C857 C854 1.387 . S
C858 C859 1.387 . S
C858 H862 0.950 . S
C858 C867 1.390 . S
C859 C858 1.387 . S
C859 C861 1.387 . S
H860 C867 0.950 . S
C861 C859 1.387 . S
C861 C863 1.390 . S
C861 H865 0.950 . S
H862 C858 0.950 . S
C863 C861 1.390 . S
C863 C864 1.387 . S
C863 H866 0.950 . S
C864 C863 1.387 . S
C864 C867 1.387 . S
H865 C861 0.950 . S
H866 C863 0.950 . S
C867 C858 1.390 . S
C867 H860 0.950 . S
C867 C864 1.387 . S
C868 C869 1.387 . S
C868 H872 0.950 . S
C868 C877 1.390 . S
C869 C868 1.387 . S
C869 C871 1.387 . S
H870 C877 0.950 . S
C871 C869 1.387 . S
C871 C873 1.390 . S
C871 H875 0.950 . S
H872 C868 0.950 . S
C873 C871 1.390 . S
C873 C874 1.387 . S
C873 H876 0.950 1_455 S
C874 C873 1.387 . S
C874 C877 1.387 . S
H875 C871 0.950 . S
H876 C873 0.950 1_655 S
C877 C868 1.390 . S
C877 H870 0.950 . S
C877 C874 1.387 . S
C878 C879 1.387 . S
C878 H882 0.950 . S
C878 C887 1.390 . S
C879 C878 1.387 . S
C879 C881 1.387 . S
H880 C887 0.950 . S
C881 C879 1.387 . S
C881 C883 1.390 . S
C881 H885 0.950 . S
H882 C878 0.950 . S
C883 C881 1.390 . S
C883 C884 1.387 . S
C883 H886 0.950 1_545 S
C884 C883 1.387 . S
C884 C887 1.387 . S
H885 C881 0.950 . S
H886 C883 0.950 1_565 S
C887 C878 1.390 . S
C887 H880 0.950 . S
C887 C884 1.387 . S
C888 C889 1.387 . S
C888 H892 0.950 . S
C888 C897 1.390 . S
C889 C888 1.387 . S
C889 C891 1.387 . S
H890 C897 0.950 . S
C891 C889 1.387 . S
C891 C893 1.390 . S
C891 H895 0.950 . S
H892 C888 0.950 . S
C893 C891 1.390 . S
C893 C894 1.387 . S
C893 H896 0.950 . S
C894 C893 1.387 . S
C894 C897 1.387 . S
H895 C891 0.950 . S
H896 C893 0.950 . S
C897 C888 1.390 . S
C897 H890 0.950 . S
C897 C894 1.387 . S
C898 C899 1.387 . S
C898 H902 0.950 . S
C898 C907 1.390 . S
C899 C898 1.387 . S
C899 C901 1.387 . S
H900 C907 0.948 1_554 S
C901 C899 1.387 . S
C901 C903 1.390 . S
C901 H905 0.950 . S
H902 C898 0.950 . S
C903 C901 1.390 . S
C903 C904 1.387 . S
C903 H906 0.950 1_655 S
C904 C903 1.387 . S
C904 C907 1.387 . S
H905 C901 0.950 . S
H906 C903 0.950 1_455 S
C907 C898 1.390 . S
C907 H900 0.948 1_556 S
C907 C904 1.387 . S
C908 C909 1.387 . S
C908 H912 0.950 . S
C908 C917 1.390 . S
C909 C908 1.387 . S
C909 C911 1.387 . S
H910 C917 0.950 . S
C911 C909 1.387 . S
C911 C913 1.390 . S
C911 H915 0.950 . S
H912 C908 0.950 . S
C913 C911 1.390 . S
C913 C914 1.387 . S
C913 H916 0.950 1_565 S
C914 C913 1.387 . S
C914 C917 1.387 . S
H915 C911 0.950 . S
H916 C913 0.950 1_545 S
C917 C908 1.390 . S
C917 H910 0.950 . S
C917 C914 1.387 . S
C918 C919 1.387 . S
C918 H922 0.950 . S
C918 C927 1.390 . S
C919 C918 1.387 . S
C919 C921 1.387 . S
H920 C927 0.950 . S
C921 C919 1.387 . S
C921 C923 1.390 . S
C921 H925 0.950 . S
H922 C918 0.950 . S
C923 C921 1.390 . S
C923 C924 1.387 . S
C923 H926 0.950 . S
C924 C923 1.387 . S
C924 C927 1.387 . S
H925 C921 0.950 . S
H926 C923 0.950 . S
C927 C918 1.390 . S
C927 H920 0.950 . S
C927 C924 1.387 . S
C928 C929 1.387 . S
C928 H932 0.950 . S
C928 C937 1.390 . S
C929 C928 1.387 . S
C929 C931 1.387 . S
H930 C937 0.950 1_655 S
C931 C929 1.387 . S
C931 C933 1.390 . S
C931 H935 0.950 . S
H932 C928 0.950 . S
C933 C931 1.390 . S
C933 C934 1.387 . S
C933 H936 0.950 . S
C934 C933 1.387 . S
C934 C937 1.387 . S
H935 C931 0.950 . S
H936 C933 0.950 . S
C937 C928 1.390 . S
C937 H930 0.950 1_455 S
C937 C934 1.387 . S
C938 C939 1.387 . S
C938 H942 0.950 1_545 S
C938 C947 1.390 . S
C939 C938 1.387 . S
C939 C941 1.387 . S
H940 C947 0.950 . S
C941 C939 1.387 . S
C941 C943 1.390 . S
C941 H945 0.950 . S
H942 C938 0.950 1_565 S
C943 C941 1.390 . S
C943 C944 1.387 . S
C943 H946 0.950 . S
C944 C943 1.387 . S
C944 C947 1.387 . S
H945 C941 0.950 . S
H946 C943 0.950 . S
C947 C938 1.390 . S
C947 H940 0.950 . S
C947 C944 1.387 . S
C709 C477 1.378 . S
C714 C5 1.378 . S
C719 C64 1.378 . S
C724 C536 1.378 . S
C729 C123 1.377 . S
C734 C595 1.377 . S
C739 C182 1.378 . S
C744 C654 1.378 . S
C749 C359 1.377 . S
C754 C241 1.377 . S
C759 C300 1.377 . S
C764 C418 1.378 . S
C769 C583 1.166 . S
C774 C52 1.167 . S
C779 C111 1.167 . S
C784 C642 1.167 . S
C789 C701 1.166 . S
C794 C170 1.166 . S
C799 C229 1.166 . S
C804 C406 1.167 . S
C809 C465 1.166 . S
C814 C288 1.167 . S
C819 C524 1.167 . S
C824 C347 1.167 . S
C829 C33 1.542 . S
C834 C298 1.485 1_554 S
C839 C92 1.543 . S
C844 C3 1.505 1_655 S
C849 C62 1.506 1_565 S
C854 C151 1.543 . S
C859 C210 1.542 . S
C864 C121 1.507 . S
C869 C269 1.543 . S
C874 C180 1.508 1_455 S
C879 C328 1.543 . S
C884 C239 1.507 1_545 S
C889 C387 1.542 . S
C894 C416 1.508 . S
C899 C446 1.543 . S
C904 C475 1.484 1_656 S
C909 C505 1.543 . S
C914 C534 1.507 1_565 S
C919 C564 1.543 . S
C924 C593 1.508 . S
C929 C623 1.541 . S
C934 C652 1.507 1_455 S
C939 C357 1.506 1_545 S
C944 C682 1.541 . S
