# Generated by pormake.
# Topology uki, (4)-cn, num edge types: 1
# Building blocks:
#     Node 0, Type 0, BuildingBlock: GALJAG_clean_sbu_0, # of connection points: 4
#     Node 1, Type 0, BuildingBlock: GALJAG_clean_sbu_0, # of connection points: 4
#     Node 2, Type 0, BuildingBlock: GALJAG_clean_sbu_0, # of connection points: 4
#     Node 3, Type 0, BuildingBlock: GALJAG_clean_sbu_0, # of connection points: 4
#     Node 4, Type 0, BuildingBlock: GALJAG_clean_sbu_0, # of connection points: 4
#     Node 5, Type 0, BuildingBlock: GALJAG_clean_sbu_0, # of connection points: 4
#     Node 6, Type 0, BuildingBlock: GALJAG_clean_sbu_0, # of connection points: 4
#     Node 7, Type 0, BuildingBlock: GALJAG_clean_sbu_0, # of connection points: 4
#     Node 8, Type 0, BuildingBlock: GALJAG_clean_sbu_0, # of connection points: 4
#     Node 9, Type 0, BuildingBlock: GALJAG_clean_sbu_0, # of connection points: 4
#     Node 10, Type 0, BuildingBlock: GALJAG_clean_sbu_0, # of connection points: 4
#     Node 11, Type 0, BuildingBlock: GALJAG_clean_sbu_0, # of connection points: 4
#     Node 12, Type 0, BuildingBlock: GALJAG_clean_sbu_0, # of connection points: 4
#     Node 13, Type 0, BuildingBlock: GALJAG_clean_sbu_0, # of connection points: 4
#     Node 14, Type 0, BuildingBlock: GALJAG_clean_sbu_0, # of connection points: 4
#     Node 15, Type 0, BuildingBlock: GALJAG_clean_sbu_0, # of connection points: 4
#     Edge 16, Type (0, 0), BuildingBlock: KIFKEQ_clean_linker_1, # of connection points: 2
#     Edge 17, Type (0, 0), BuildingBlock: KIFKEQ_clean_linker_1, # of connection points: 2
#     Edge 18, Type (0, 0), BuildingBlock: KIFKEQ_clean_linker_1, # of connection points: 2
#     Edge 19, Type (0, 0), BuildingBlock: KIFKEQ_clean_linker_1, # of connection points: 2
#     Edge 20, Type (0, 0), BuildingBlock: KIFKEQ_clean_linker_1, # of connection points: 2
#     Edge 21, Type (0, 0), BuildingBlock: KIFKEQ_clean_linker_1, # of connection points: 2
#     Edge 22, Type (0, 0), BuildingBlock: KIFKEQ_clean_linker_1, # of connection points: 2
#     Edge 23, Type (0, 0), BuildingBlock: KIFKEQ_clean_linker_1, # of connection points: 2
#     Edge 24, Type (0, 0), BuildingBlock: KIFKEQ_clean_linker_1, # of connection points: 2
#     Edge 25, Type (0, 0), BuildingBlock: KIFKEQ_clean_linker_1, # of connection points: 2
#     Edge 26, Type (0, 0), BuildingBlock: KIFKEQ_clean_linker_1, # of connection points: 2
#     Edge 27, Type (0, 0), BuildingBlock: KIFKEQ_clean_linker_1, # of connection points: 2
#     Edge 28, Type (0, 0), BuildingBlock: KIFKEQ_clean_linker_1, # of connection points: 2
#     Edge 29, Type (0, 0), BuildingBlock: KIFKEQ_clean_linker_1, # of connection points: 2
#     Edge 30, Type (0, 0), BuildingBlock: KIFKEQ_clean_linker_1, # of connection points: 2
#     Edge 31, Type (0, 0), BuildingBlock: KIFKEQ_clean_linker_1, # of connection points: 2
#     Edge 32, Type (0, 0), BuildingBlock: KIFKEQ_clean_linker_1, # of connection points: 2
#     Edge 33, Type (0, 0), BuildingBlock: KIFKEQ_clean_linker_1, # of connection points: 2
#     Edge 34, Type (0, 0), BuildingBlock: KIFKEQ_clean_linker_1, # of connection points: 2
#     Edge 35, Type (0, 0), BuildingBlock: KIFKEQ_clean_linker_1, # of connection points: 2
#     Edge 36, Type (0, 0), BuildingBlock: KIFKEQ_clean_linker_1, # of connection points: 2
#     Edge 37, Type (0, 0), BuildingBlock: KIFKEQ_clean_linker_1, # of connection points: 2
#     Edge 38, Type (0, 0), BuildingBlock: KIFKEQ_clean_linker_1, # of connection points: 2
#     Edge 39, Type (0, 0), BuildingBlock: KIFKEQ_clean_linker_1, # of connection points: 2
#     Edge 40, Type (0, 0), BuildingBlock: KIFKEQ_clean_linker_1, # of connection points: 2
#     Edge 41, Type (0, 0), BuildingBlock: KIFKEQ_clean_linker_1, # of connection points: 2
#     Edge 42, Type (0, 0), BuildingBlock: KIFKEQ_clean_linker_1, # of connection points: 2
#     Edge 43, Type (0, 0), BuildingBlock: KIFKEQ_clean_linker_1, # of connection points: 2
#     Edge 44, Type (0, 0), BuildingBlock: KIFKEQ_clean_linker_1, # of connection points: 2
#     Edge 45, Type (0, 0), BuildingBlock: KIFKEQ_clean_linker_1, # of connection points: 2
#     Edge 46, Type (0, 0), BuildingBlock: KIFKEQ_clean_linker_1, # of connection points: 2
#     Edge 47, Type (0, 0), BuildingBlock: KIFKEQ_clean_linker_1, # of connection points: 2
# Relax obj value: 0.105
# Max RMSD: 0.179
# Mean RMSD: 0.179
data_MOF--net-uki--node1-GALJAG_clean_sbu_0--edge1-KIFKEQ_clean_linker_1
_symmetry_space_group_name_H-M    P1
_symmetry_Int_Tables_number       1
_symmetry_cell_setting            triclinic
loop_
_symmetry_equiv_pos_as_xyz
'x, y, z'
_cell_length_a     30.842563
_cell_length_b     30.836871
_cell_length_c     77.829614
_cell_angle_alpha  89.978064
_cell_angle_beta   89.989846
_cell_angle_gamma 89.993246
loop_
_atom_site_label
_atom_site_type_symbol
_atom_site_fract_x
_atom_site_fract_y
_atom_site_fract_z
_atom_type_partial_charge
In0 In 0.07557 0.23159 0.30287 0.0
O1 O 0.09612 0.25637 0.32951 0.0
O2 O 0.14424 0.2288 0.31335 0.0
C3 C 0.99457 0.26189 0.29865 0.0
C4 C 0.05634 0.14748 0.3074 0.0
C5 C 0.10576 0.27142 0.27449 0.0
O6 O 0.02122 0.28014 0.3087 0.0
O7 O 0.00862 0.22825 0.29131 0.0
O8 O 0.10885 0.23081 0.27641 0.0
O9 O 0.089 0.29129 0.28698 0.0
C10 C 0.13547 0.24599 0.32762 0.0
O11 O 0.08065 0.16028 0.29532 0.0
O12 O 0.0431 0.1769 0.31738 0.0
In13 In 0.23502 0.92211 0.69826 0.0
O14 O 0.26278 0.89864 0.67235 0.0
O15 O 0.23231 0.85294 0.68885 0.0
C16 C 0.25906 0.00515 0.70252 0.0
C17 C 0.1505 0.93706 0.69278 0.0
C18 C 0.27577 0.89432 0.72679 0.0
O19 O 0.27945 0.98027 0.69237 0.0
O20 O 0.2268 0.98819 0.70986 0.0
O21 O 0.23523 0.89033 0.72494 0.0
O22 O 0.29524 0.91109 0.71419 0.0
C23 C 0.25125 0.85972 0.67476 0.0
O24 O 0.1638 0.91496 0.70542 0.0
O25 O 0.17976 0.95036 0.68271 0.0
In26 In 0.91517 0.76106 0.30395 0.0
O27 O 0.91053 0.83261 0.29677 0.0
O28 O 0.95343 0.81413 0.31703 0.0
C29 C 0.87478 0.72271 0.27731 0.0
C30 C 0.85749 0.75568 0.32992 0.0
C31 C 0.99291 0.72334 0.29894 0.0
O32 O 0.89104 0.76018 0.27599 0.0
O33 O 0.87857 0.70545 0.29191 0.0
O34 O 0.96544 0.70729 0.30922 0.0
O35 O 0.98112 0.75785 0.29167 0.0
C36 C 0.93848 0.84423 0.30775 0.0
O37 O 0.89543 0.74029 0.33121 0.0
O38 O 0.84934 0.77381 0.31575 0.0
In39 In 0.76127 0.06989 0.69605 0.0
O40 O 0.83274 0.07439 0.70302 0.0
O41 O 0.81379 0.03 0.6833 0.0
C42 C 0.72482 0.1127 0.72267 0.0
C43 C 0.75822 0.12571 0.66941 0.0
C44 C 0.72273 0.99226 0.70053 0.0
O45 O 0.75955 0.09152 0.72439 0.0
O46 O 0.70956 0.11286 0.70768 0.0
O47 O 0.70714 0.02024 0.69036 0.0
O48 O 0.75719 0.00348 0.70795 0.0
C49 C 0.8441 0.04567 0.6923 0.0
O50 O 0.73401 0.09257 0.67005 0.0
O51 O 0.78373 0.12995 0.68197 0.0
In52 In 0.07212 0.26142 0.9464 0.0
O53 O 0.09415 0.2384 0.91969 0.0
O54 O 0.14207 0.25981 0.93734 0.0
C55 C 0.98843 0.23662 0.9482 0.0
C56 C 0.05985 0.34731 0.94322 0.0
C57 C 0.09904 0.21962 0.97488 0.0
O58 O 0.01616 0.21462 0.93997 0.0
O59 O 0.00289 0.27094 0.95484 0.0
O60 O 0.10631 0.25954 0.97259 0.0
O61 O 0.0791 0.2012 0.96278 0.0
C62 C 0.13389 0.2454 0.92255 0.0
O63 O 0.07443 0.33033 0.95684 0.0
O64 O 0.05286 0.32102 0.93108 0.0
In65 In 0.2608 0.92302 0.05489 0.0
O66 O 0.23732 0.90164 0.08166 0.0
O67 O 0.26284 0.85381 0.06489 0.0
C68 C 0.22896 0.00376 0.05141 0.0
C69 C 0.34521 0.94173 0.05902 0.0
C70 C 0.22231 0.89393 0.02601 0.0
O71 O 0.21072 0.97587 0.06093 0.0
O72 O 0.26342 0.99108 0.04428 0.0
O73 O 0.2629 0.89176 0.02808 0.0
O74 O 0.20171 0.9093 0.0386 0.0
C75 C 0.24677 0.86219 0.07939 0.0
O76 O 0.33186 0.91718 0.04714 0.0
O77 O 0.31617 0.95567 0.06902 0.0
In78 In 0.93466 0.74049 0.94349 0.0
O79 O 0.93452 0.67225 0.95461 0.0
O80 O 0.95783 0.6809 0.92904 0.0
C81 C 0.90727 0.78388 0.97154 0.0
C82 C 0.8717 0.75239 0.91972 0.0
C83 C 0.01668 0.77032 0.94494 0.0
O84 O 0.90211 0.74338 0.97004 0.0
O85 O 0.92503 0.80197 0.95884 0.0
O86 O 0.98779 0.78932 0.93618 0.0
O87 O 0.00438 0.73589 0.95217 0.0
C88 C 0.95092 0.65509 0.94136 0.0
O89 O 0.911 0.76113 0.91668 0.0
O90 O 0.86453 0.738 0.93461 0.0
In91 In 0.7339 0.0762 0.05215 0.0
O92 O 0.66202 0.08149 0.04562 0.0
O93 O 0.68117 0.03799 0.06556 0.0
C94 C 0.7692 0.117 0.02487 0.0
C95 C 0.74079 0.13353 0.07815 0.0
C96 C 0.77363 0.99922 0.04755 0.0
O97 O 0.73366 0.09687 0.02371 0.0
O98 O 0.78603 0.11678 0.0396 0.0
O99 O 0.78971 0.02811 0.05717 0.0
O100 O 0.73796 0.00916 0.04076 0.0
C101 C 0.6507 0.0535 0.05664 0.0
O102 O 0.75739 0.09603 0.07903 0.0
O103 O 0.72052 0.14132 0.06442 0.0
In104 In 0.56973 0.73854 0.80763 0.0
O105 O 0.59372 0.76156 0.8341 0.0
O106 O 0.63962 0.73508 0.81668 0.0
C107 C 0.48833 0.76895 0.80508 0.0
C108 C 0.55157 0.65404 0.81168 0.0
C109 C 0.59632 0.78002 0.77903 0.0
O110 O 0.51623 0.78714 0.8146 0.0
O111 O 0.50136 0.73522 0.79751 0.0
O112 O 0.5989 0.73924 0.78042 0.0
O113 O 0.58181 0.79923 0.79211 0.0
C114 C 0.63277 0.75131 0.83129 0.0
O115 O 0.57477 0.66773 0.79942 0.0
O116 O 0.53879 0.68278 0.82207 0.0
In117 In 0.7305 0.42092 0.19572 0.0
O118 O 0.75364 0.40065 0.16881 0.0
O119 O 0.72972 0.35197 0.18568 0.0
C120 C 0.7542 0.50438 0.19952 0.0
C121 C 0.645 0.4349 0.19251 0.0
C122 C 0.77452 0.39091 0.22311 0.0
O123 O 0.77518 0.47902 0.18978 0.0
O124 O 0.72159 0.48771 0.20669 0.0
O125 O 0.73427 0.38443 0.22138 0.0
O126 O 0.7921 0.41149 0.21096 0.0
C127 C 0.74501 0.36094 0.17109 0.0
O128 O 0.66129 0.41785 0.20582 0.0
O129 O 0.67174 0.44326 0.18066 0.0
In130 In 0.42359 0.26372 0.8059 0.0
O131 O 0.41594 0.33539 0.79944 0.0
O132 O 0.45829 0.31758 0.81999 0.0
C133 C 0.38445 0.22299 0.77956 0.0
C134 C 0.36562 0.25357 0.83148 0.0
C135 C 0.50416 0.23419 0.79972 0.0
O136 O 0.39602 0.26222 0.77846 0.0
O137 O 0.39244 0.20507 0.79377 0.0
O138 O 0.48002 0.21594 0.81075 0.0
O139 O 0.48752 0.26635 0.79225 0.0
C140 C 0.44257 0.34756 0.81084 0.0
O141 O 0.40358 0.23802 0.83248 0.0
O142 O 0.35779 0.27428 0.81785 0.0
In143 In 0.25513 0.56808 0.19469 0.0
O144 O 0.32366 0.56831 0.20558 0.0
O145 O 0.31449 0.54591 0.17992 0.0
C146 C 0.21117 0.59535 0.22263 0.0
C147 C 0.24235 0.63024 0.17067 0.0
C148 C 0.22749 0.48532 0.19627 0.0
O149 O 0.2515 0.6015 0.22106 0.0
O150 O 0.19349 0.57673 0.21004 0.0
O151 O 0.20813 0.51344 0.18724 0.0
O152 O 0.26101 0.49883 0.20382 0.0
C153 C 0.34055 0.55242 0.19217 0.0
O154 O 0.23304 0.5909 0.168 0.0
O155 O 0.25763 0.63793 0.18538 0.0
In156 In 0.57727 0.76925 0.45063 0.0
O157 O 0.5827 0.8408 0.45789 0.0
O158 O 0.53871 0.82255 0.43797 0.0
C159 C 0.61988 0.72347 0.47461 0.0
C160 C 0.63354 0.76216 0.42434 0.0
C161 C 0.49816 0.73935 0.45875 0.0
O162 O 0.61134 0.76327 0.47672 0.0
O163 O 0.60729 0.70756 0.46053 0.0
O164 O 0.5167 0.7279 0.44492 0.0
O165 O 0.51982 0.7648 0.46809 0.0
C166 C 0.55414 0.85253 0.44716 0.0
O167 O 0.59621 0.745 0.42377 0.0
O168 O 0.64161 0.78304 0.43792 0.0
In169 In 0.77478 0.41183 0.55117 0.0
O170 O 0.74578 0.38873 0.57691 0.0
O171 O 0.78623 0.34568 0.56279 0.0
C172 C 0.75168 0.49477 0.54602 0.0
C173 C 0.85921 0.42942 0.55481 0.0
C174 C 0.72979 0.3811 0.5242 0.0
O175 O 0.73417 0.47233 0.5578 0.0
O176 O 0.78047 0.47541 0.53745 0.0
O177 O 0.77055 0.37744 0.52507 0.0
O178 O 0.71223 0.39846 0.5371 0.0
C179 C 0.76362 0.35182 0.57605 0.0
O180 O 0.84514 0.40542 0.54286 0.0
O181 O 0.8308 0.44321 0.56517 0.0
In182 In 0.424 0.24236 0.44506 0.0
O183 O 0.4159 0.17253 0.45427 0.0
O184 O 0.454 0.18454 0.43185 0.0
C185 C 0.39805 0.28896 0.47249 0.0
C186 C 0.36308 0.25303 0.42047 0.0
C187 C 0.5067 0.26913 0.4474 0.0
O188 O 0.3981 0.24795 0.4727 0.0
O189 O 0.40929 0.30565 0.45839 0.0
O190 O 0.47984 0.28799 0.43762 0.0
O191 O 0.49188 0.23688 0.45543 0.0
C192 C 0.43982 0.15715 0.44254 0.0
O193 O 0.40235 0.26317 0.4181 0.0
O194 O 0.35484 0.23787 0.43517 0.0
In195 In 0.24551 0.57384 0.55643 0.0
O196 O 0.17588 0.576 0.5464 0.0
O197 O 0.19268 0.52778 0.56489 0.0
C198 C 0.263 0.61105 0.52567 0.0
C199 C 0.25464 0.62682 0.58414 0.0
C200 C 0.29797 0.5036 0.55687 0.0
O201 O 0.26211 0.57065 0.5279 0.0
O202 O 0.2528 0.6329 0.53876 0.0
O203 O 0.25803 0.5017 0.56015 0.0
O204 O 0.31226 0.54159 0.55479 0.0
C205 C 0.16379 0.54403 0.55539 0.0
O206 O 0.28676 0.61249 0.57591 0.0
O207 O 0.21864 0.61346 0.57874 0.0
H208 H 0.16265 0.24428 0.24955 0.0
H209 H 0.0799 0.35101 0.26421 0.0
H210 H 0.18955 0.28697 0.22508 0.0
H211 H 0.10616 0.39306 0.23997 0.0
H212 H 0.26933 0.41611 0.21005 0.0
H213 H 0.23588 0.35512 0.22487 0.0
H214 H 0.10975 0.39779 0.20771 0.0
H215 H 0.14335 0.45909 0.19284 0.0
C216 C 0.14978 0.2765 0.24738 0.0
C217 C 0.11967 0.29462 0.25886 0.0
C218 C 0.16506 0.30083 0.23341 0.0
C219 C 0.14973 0.34321 0.23056 0.0
C220 C 0.11808 0.36028 0.24163 0.0
C221 C 0.10344 0.33638 0.25566 0.0
C222 C 0.2346 0.41161 0.20894 0.0
C223 C 0.20882 0.44265 0.20055 0.0
C224 C 0.21546 0.37653 0.21737 0.0
C225 C 0.17017 0.37213 0.21767 0.0
C226 C 0.14475 0.40077 0.20783 0.0
C227 C 0.16397 0.43568 0.19924 0.0
H228 H 0.46477 0.85401 0.80799 0.0
H229 H 0.41832 0.72895 0.79117 0.0
H230 H 0.40449 0.88908 0.79297 0.0
H231 H 0.35832 0.76382 0.77624 0.0
H232 H 0.24848 0.83879 0.75211 0.0
H233 H 0.29141 0.81161 0.77641 0.0
H234 H 0.39858 0.89258 0.76069 0.0
H235 H 0.35619 0.91924 0.73657 0.0
C236 C 0.44082 0.83395 0.80163 0.0
C237 C 0.44645 0.78888 0.80052 0.0
C238 C 0.40651 0.854 0.79295 0.0
C239 C 0.37711 0.82918 0.78325 0.0
C240 C 0.38032 0.78378 0.78366 0.0
C241 C 0.41482 0.76383 0.79215 0.0
C242 C 0.28099 0.85113 0.75406 0.0
C243 C 0.29928 0.88064 0.74237 0.0
C244 C 0.30547 0.83566 0.76793 0.0
C245 C 0.34823 0.85015 0.77049 0.0
C246 C 0.36552 0.88131 0.75924 0.0
C247 C 0.34141 0.89618 0.7453 0.0
H248 H 0.83625 0.53834 0.19705 0.0
H249 H 0.70631 0.56791 0.2141 0.0
H250 H 0.86361 0.60114 0.21311 0.0
H251 H 0.73356 0.63018 0.23 0.0
H252 H 0.81403 0.66018 0.27982 0.0
H253 H 0.78283 0.61685 0.25683 0.0
H254 H 0.85785 0.68801 0.21943 0.0
H255 H 0.88876 0.73258 0.24268 0.0
C256 C 0.8134 0.55917 0.20366 0.0
C257 C 0.76932 0.54791 0.2046 0.0
C258 C 0.82903 0.59506 0.21282 0.0
C259 C 0.80068 0.61992 0.22298 0.0
C260 C 0.75608 0.61116 0.22242 0.0
C261 C 0.74055 0.57553 0.21332 0.0
C262 C 0.82345 0.66706 0.26668 0.0
C263 C 0.85368 0.6997 0.26299 0.0
C264 C 0.80543 0.64242 0.25352 0.0
C265 C 0.81777 0.64934 0.23637 0.0
C266 C 0.84777 0.68226 0.23256 0.0
C267 C 0.86521 0.70774 0.2458 0.0
H268 H 0.53551 0.15088 0.80125 0.0
H269 H 0.56897 0.2811 0.78576 0.0
H270 H 0.59856 0.12303 0.78542 0.0
H271 H 0.63177 0.25357 0.77029 0.0
H272 H 0.66819 0.17908 0.72036 0.0
H273 H 0.6235 0.2097 0.74301 0.0
H274 H 0.68309 0.12397 0.78001 0.0
H275 H 0.72879 0.09334 0.75707 0.0
C276 C 0.55719 0.17359 0.79501 0.0
C277 C 0.54707 0.21797 0.79443 0.0
C278 C 0.59324 0.15772 0.78598 0.0
C279 C 0.61948 0.18616 0.77639 0.0
C280 C 0.61163 0.23091 0.77733 0.0
C281 C 0.57572 0.24662 0.7862 0.0
C282 C 0.67232 0.16721 0.73336 0.0
C283 C 0.70192 0.13396 0.73699 0.0
C284 C 0.64689 0.18489 0.74636 0.0
C285 C 0.65002 0.16936 0.76329 0.0
C286 C 0.68017 0.13652 0.76706 0.0
C287 C 0.70638 0.11926 0.754 0.0
H288 H 0.14408 0.02769 0.05492 0.0
H289 H 0.26809 0.0729 0.03642 0.0
H290 H 0.10835 0.08826 0.04033 0.0
H291 H 0.23258 0.13307 0.02185 0.0
H292 H 0.15827 0.24455 0.9992 0.0
H293 H 0.18694 0.20031 0.02281 0.0
H294 H 0.10045 0.09622 0.00854 0.0
H295 H 0.07209 0.14006 0.98513 0.0
C296 C 0.1638 0.05132 0.04821 0.0
C297 C 0.20873 0.04535 0.04659 0.0
C298 C 0.14336 0.0858 0.03978 0.0
C299 C 0.16764 0.11504 0.02977 0.0
C300 C 0.213 0.11125 0.02952 0.0
C301 C 0.23333 0.07662 0.03779 0.0
C302 C 0.14502 0.21247 0.00133 0.0
C303 C 0.1134 0.19548 0.99023 0.0
C304 C 0.16138 0.18721 0.01481 0.0
C305 C 0.14588 0.14485 0.01754 0.0
C306 C 0.11264 0.12892 0.00694 0.0
C307 C 0.09673 0.15387 0.9934 0.0
H308 H 0.25271 0.84113 0.0003 0.0
H309 H 0.14151 0.91656 0.01592 0.0
H310 H 0.21209 0.8148 0.97523 0.0
H311 H 0.10144 0.89083 0.99106 0.0
H312 H 0.03892 0.85586 0.94292 0.0
H313 H 0.09793 0.89077 0.95871 0.0
H314 H 0.14647 0.76508 0.97384 0.0
H315 H 0.08771 0.73033 0.95811 0.0
C316 C 0.2199 0.85252 0.99824 0.0
C317 C 0.20001 0.88039 0.01013 0.0
C318 C 0.19675 0.83756 0.98392 0.0
C319 C 0.15372 0.851 0.98113 0.0
C320 C 0.13476 0.88044 0.99267 0.0
C321 C 0.15753 0.89475 0.00704 0.0
C322 C 0.06319 0.83572 0.94905 0.0
C323 C 0.05845 0.79046 0.94954 0.0
C324 C 0.09676 0.85568 0.95818 0.0
C325 C 0.12631 0.83063 0.96773 0.0
C326 C 0.12429 0.78524 0.96658 0.0
C327 C 0.09051 0.76534 0.95763 0.0
H328 H 0.93049 0.86601 0.97978 0.0
H329 H 0.85294 0.75834 0.99754 0.0
H330 H 0.90277 0.91075 0.00303 0.0
H331 H 0.82497 0.80345 0.02101 0.0
H332 H 0.73774 0.92639 0.03434 0.0
H333 H 0.77522 0.8673 0.01992 0.0
H334 H 0.89844 0.9224 0.03472 0.0
H335 H 0.8606 0.98197 0.0492 0.0
C336 C 0.90789 0.85174 0.98882 0.0
C337 C 0.89336 0.80891 0.98673 0.0
C338 C 0.89241 0.87724 0.00227 0.0
C339 C 0.86173 0.86061 0.01387 0.0
C340 C 0.84851 0.81713 0.01222 0.0
C341 C 0.86445 0.79136 0.99881 0.0
C342 C 0.77282 0.92525 0.03492 0.0
C343 C 0.79634 0.959 0.04266 0.0
C344 C 0.7943 0.89122 0.02676 0.0
C345 C 0.83978 0.89048 0.02602 0.0
C346 C 0.86332 0.92245 0.03495 0.0
C347 C 0.84173 0.95635 0.04331 0.0
H348 H 0.82411 0.18486 0.02631 0.0
H349 H 0.76415 0.09598 0.99066 0.0
H350 H 0.86709 0.21554 0.00312 0.0
H351 H 0.80833 0.12647 0.96721 0.0
H352 H 0.95776 0.15322 0.94707 0.0
H353 H 0.89384 0.12606 0.96239 0.0
H354 H 0.85722 0.2574 0.97488 0.0
H355 H 0.92085 0.28445 0.95975 0.0
C356 C 0.81974 0.17232 0.01342 0.0
C357 C 0.79089 0.13814 0.01024 0.0
C358 C 0.84414 0.19004 1.00011 0.0
C359 C 0.8408 0.17354 0.98335 0.0
C360 C 0.8113 0.13982 0.98002 0.0
C361 C 0.78601 0.1226 0.99337 0.0
C362 C 0.93512 0.17628 0.95252 0.0
C363 C 0.9446 0.22085 0.95253 0.0
C364 C 0.89854 0.16075 0.96126 0.0
C365 C 0.87114 0.18967 0.97006 0.0
C366 C 0.87821 0.23444 0.96841 0.0
C367 C 0.9146 0.24987 0.95974 0.0
H368 H 0.57338 0.86205 0.77064 0.0
H369 H 0.64721 0.75249 0.75223 0.0
H370 H 0.59869 0.90531 0.74653 0.0
H371 H 0.67297 0.79625 0.72792 0.0
H372 H 0.75989 0.91953 0.71319 0.0
H373 H 0.7236 0.8604 0.72809 0.0
H374 H 0.59925 0.91482 0.71443 0.0
H375 H 0.6359 0.97431 0.69938 0.0
C376 C 0.59467 0.84706 0.76129 0.0
C377 C 0.60887 0.80413 0.76342 0.0
C378 C 0.60872 0.8717 0.74735 0.0
C379 C 0.63771 0.85414 0.7353 0.0
C380 C 0.65063 0.81058 0.73704 0.0
C381 C 0.63599 0.78562 0.75093 0.0
C382 C 0.72479 0.91812 0.71291 0.0
C383 C 0.70062 0.95169 0.70535 0.0
C384 C 0.704 0.88409 0.72136 0.0
C385 C 0.65861 0.88328 0.7226 0.0
C386 C 0.63433 0.91493 0.71378 0.0
C387 C 0.65523 0.94878 0.7051 0.0
H388 H 0.92704 0.22156 0.28305 0.0
H389 H 0.96861 0.3461 0.30232 0.0
H390 H 0.86621 0.25602 0.26848 0.0
H391 H 0.9075 0.38075 0.28766 0.0
H392 H 0.75162 0.32987 0.24708 0.0
H393 H 0.79735 0.30061 0.27015 0.0
H394 H 0.89987 0.38866 0.25558 0.0
H395 H 0.85466 0.41749 0.23267 0.0
C396 C 0.9224 0.25618 0.28457 0.0
C397 C 0.95276 0.28128 0.29362 0.0
C398 C 0.88742 0.27588 0.2763 0.0
C399 C 0.88243 0.32111 0.27678 0.0
C400 C 0.91088 0.34582 0.28696 0.0
C401 C 0.94566 0.326 0.29542 0.0
C402 C 0.78371 0.34326 0.24901 0.0
C403 C 0.79982 0.37556 0.238 0.0
C404 C 0.80981 0.32658 0.26218 0.0
C405 C 0.85207 0.34251 0.26469 0.0
C406 C 0.86724 0.37618 0.25414 0.0
C407 C 0.8415 0.39236 0.24089 0.0
H408 H 0.21256 0.06726 0.71868 0.0
H409 H 0.34038 0.04017 0.69869 0.0
H410 H 0.24126 0.12894 0.73455 0.0
H411 H 0.36911 0.10258 0.71465 0.0
H412 H 0.39088 0.23697 0.74479 0.0
H413 H 0.35877 0.19228 0.72178 0.0
H414 H 0.2981 0.11129 0.7601 0.0
H415 H 0.33067 0.15463 0.78281 0.0
C416 C 0.24656 0.07533 0.71724 0.0
C417 C 0.27444 0.04851 0.70771 0.0
C418 C 0.26289 0.11066 0.72631 0.0
C419 C 0.30736 0.12 0.72595 0.0
C420 C 0.33462 0.09601 0.71503 0.0
C421 C 0.31821 0.06035 0.70594 0.0
C422 C 0.37032 0.20981 0.74818 0.0
C423 C 0.36315 0.19911 0.76552 0.0
C424 C 0.35222 0.18431 0.73509 0.0
C425 C 0.32581 0.14872 0.73925 0.0
C426 C 0.31796 0.13889 0.75658 0.0
C427 C 0.33673 0.16355 0.76956 0.0
H428 H 0.06405 0.76138 0.2853 0.0
H429 H 0.01316 0.63701 0.30086 0.0
H430 H 0.12406 0.72565 0.27078 0.0
H431 H 0.07364 0.60091 0.28624 0.0
H432 H 0.12988 0.56984 0.23113 0.0
H433 H 0.08467 0.5965 0.25444 0.0
H434 H 0.18967 0.67804 0.27188 0.0
H435 H 0.23529 0.6511 0.24836 0.0
C436 C 0.06644 0.72637 0.28601 0.0
C437 C 0.03375 0.70187 0.294 0.0
C438 C 0.10099 0.7059 0.27778 0.0
C439 C 0.1033 0.66046 0.27721 0.0
C440 C 0.07238 0.63601 0.28635 0.0
C441 C 0.03797 0.65661 0.2948 0.0
C442 C 0.14356 0.59305 0.24006 0.0
C443 C 0.18588 0.60889 0.23781 0.0
C444 C 0.11781 0.60793 0.25355 0.0
C445 C 0.13363 0.63931 0.26501 0.0
C446 C 0.17662 0.65392 0.26319 0.0
C447 C 0.20267 0.63858 0.24975 0.0
H448 H 0.67444 0.53524 0.55347 0.0
H449 H 0.79562 0.5522 0.52644 0.0
H450 H 0.64482 0.59901 0.53855 0.0
H451 H 0.76605 0.61514 0.51165 0.0
H452 H 0.66476 0.64992 0.46865 0.0
H453 H 0.69973 0.60266 0.48952 0.0
H454 H 0.66006 0.68772 0.53064 0.0
H455 H 0.62546 0.73623 0.50949 0.0
C456 C 0.69515 0.55339 0.54483 0.0
C457 C 0.73701 0.53842 0.54087 0.0
C458 C 0.67825 0.58981 0.53633 0.0
C459 C 0.70312 0.61141 0.52385 0.0
C460 C 0.74621 0.59872 0.52113 0.0
C461 C 0.76302 0.56266 0.52958 0.0
C462 C 0.66375 0.65884 0.48211 0.0
C463 C 0.64257 0.69673 0.48747 0.0
C464 C 0.68387 0.63188 0.49403 0.0
C465 C 0.68267 0.6418 0.51162 0.0
C466 C 0.6614 0.6796 0.51711 0.0
C467 C 0.6419 0.70728 0.50505 0.0
H468 H 0.64876 0.40749 0.51607 0.0
H469 H 0.75308 0.32557 0.49825 0.0
H470 H 0.60382 0.3838 0.4922 0.0
H471 H 0.70744 0.30123 0.47423 0.0
H472 H 0.57532 0.2248 0.46016 0.0
H473 H 0.63792 0.25569 0.4748 0.0
H474 H 0.59718 0.38406 0.45959 0.0
H475 H 0.53437 0.35296 0.44481 0.0
C476 C 0.66218 0.3846 0.50694 0.0
C477 C 0.70417 0.36791 0.5091 0.0
C478 C 0.63664 0.37149 0.49314 0.0
C479 C 0.65228 0.34096 0.48129 0.0
C480 C 0.69473 0.32496 0.48317 0.0
C481 C 0.72069 0.33872 0.4969 0.0
C482 C 0.5806 0.25949 0.45943 0.0
C483 C 0.54983 0.28662 0.45158 0.0
C484 C 0.61655 0.27715 0.46774 0.0
C485 C 0.62201 0.32228 0.46852 0.0
C486 C 0.59341 0.34914 0.45929 0.0
C487 C 0.55767 0.33138 0.45076 0.0
H488 H 0.38146 0.49994 0.54527 0.0
H489 H 0.26901 0.42016 0.55506 0.0
H490 H 0.4125 0.44226 0.52773 0.0
H491 H 0.29947 0.36305 0.53718 0.0
H492 H 0.37092 0.2628 0.50454 0.0
H493 H 0.35527 0.30919 0.5294 0.0
H494 H 0.38736 0.42228 0.49916 0.0
H495 H 0.40323 0.37643 0.47469 0.0
C496 C 0.36399 0.4696 0.54413 0.0
C497 C 0.32245 0.4649 0.55126 0.0
C498 C 0.38156 0.4367 0.53394 0.0
C499 C 0.35784 0.39861 0.53066 0.0
C500 C 0.31853 0.392 0.53939 0.0
C501 C 0.30103 0.42485 0.54965 0.0
C502 C 0.37471 0.29758 0.5033 0.0
C503 C 0.38801 0.31601 0.48765 0.0
C504 C 0.36587 0.32409 0.51752 0.0
C505 C 0.37061 0.36939 0.51634 0.0
C506 C 0.38437 0.38749 0.50069 0.0
C507 C 0.39292 0.36119 0.48655 0.0
H508 H 0.44671 0.67608 0.44421 0.0
H509 H 0.45198 0.76847 0.48585 0.0
H510 H 0.3782 0.64766 0.45568 0.0
H511 H 0.38534 0.73988 0.49744 0.0
H512 H 0.2622 0.69633 0.51624 0.0
H513 H 0.30963 0.73069 0.49517 0.0
H514 H 0.35818 0.60472 0.4802 0.0
H515 H 0.30927 0.57052 0.5006 0.0
C516 C 0.43302 0.69058 0.45566 0.0
C517 C 0.45491 0.72412 0.46424 0.0
C518 C 0.39391 0.6743 0.46227 0.0
C519 C 0.37608 0.69147 0.47749 0.0
C520 C 0.39734 0.72629 0.48553 0.0
C521 C 0.43609 0.7424 0.47898 0.0
C522 C 0.28201 0.676 0.50804 0.0
C523 C 0.28269 0.63088 0.51027 0.0
C524 C 0.30943 0.69563 0.49605 0.0
C525 C 0.33871 0.67056 0.48633 0.0
C526 C 0.33615 0.62512 0.48741 0.0
C527 C 0.30819 0.60546 0.4992 0.0
H528 H 0.3728 0.28165 0.3874 0.0
H529 H 0.27721 0.23353 0.4232 0.0
H530 H 0.31747 0.28496 0.36495 0.0
H531 H 0.22221 0.23606 0.40076 0.0
H532 H 0.12468 0.27801 0.36018 0.0
H533 H 0.17969 0.28466 0.38267 0.0
H534 H 0.27616 0.23335 0.34793 0.0
H535 H 0.22156 0.22745 0.32548 0.0
C536 C 0.33996 0.27194 0.39048 0.0
C537 C 0.32941 0.25716 0.40703 0.0
C538 C 0.3083 0.27362 0.37762 0.0
C539 C 0.2654 0.26064 0.38104 0.0
C540 C 0.25475 0.24681 0.39773 0.0
C541 C 0.28638 0.24507 0.41056 0.0
C542 C 0.15772 0.26849 0.35735 0.0
C543 C 0.16876 0.25208 0.34109 0.0
C544 C 0.18919 0.27208 0.37024 0.0
C545 C 0.23235 0.25947 0.36711 0.0
C546 C 0.24342 0.24391 0.35072 0.0
C547 C 0.21201 0.24023 0.33788 0.0
H548 H 0.19078 0.65214 0.60592 0.0
H549 H 0.32574 0.67422 0.59396 0.0
H550 H 0.19395 0.70786 0.62802 0.0
H551 H 0.3289 0.73045 0.61626 0.0
H552 H 0.29085 0.86377 0.64311 0.0
H553 H 0.29551 0.8057 0.6216 0.0
H554 H 0.22983 0.71863 0.6564 0.0
H555 H 0.22506 0.77609 0.67769 0.0
C556 C 0.22126 0.66869 0.60812 0.0
C557 C 0.25806 0.65869 0.59826 0.0
C558 C 0.22311 0.70054 0.62082 0.0
C559 C 0.26171 0.72346 0.62389 0.0
C560 C 0.29867 0.71345 0.61408 0.0
C561 C 0.29694 0.6811 0.60145 0.0
C562 C 0.27778 0.8321 0.64616 0.0
C563 C 0.25729 0.82461 0.66202 0.0
C564 C 0.28063 0.79885 0.63391 0.0
C565 C 0.2627 0.75775 0.63728 0.0
C566 C 0.24339 0.75011 0.65334 0.0
C567 C 0.24081 0.78306 0.66555 0.0
H568 H 0.71812 0.78677 0.42533 0.0
H569 H 0.62268 0.72795 0.39208 0.0
H570 H 0.77214 0.78153 0.4026 0.0
H571 H 0.67709 0.72263 0.36922 0.0
H572 H 0.77202 0.77676 0.32785 0.0
H573 H 0.71778 0.77478 0.3506 0.0
H574 H 0.81407 0.72632 0.38602 0.0
H575 H 0.86864 0.72838 0.36315 0.0
C576 C 0.7087 0.77258 0.41316 0.0
C577 C 0.66607 0.75795 0.41046 0.0
C578 C 0.73979 0.76927 0.40018 0.0
C579 C 0.72893 0.75159 0.38413 0.0
C580 C 0.68632 0.73668 0.38143 0.0
C581 C 0.65524 0.73961 0.39451 0.0
C582 C 0.78164 0.7655 0.34047 0.0
C583 C 0.82467 0.75293 0.34374 0.0
C584 C 0.75044 0.76407 0.35347 0.0
C585 C 0.76161 0.75039 0.3701 0.0
C586 C 0.80458 0.73734 0.37335 0.0
C587 C 0.83577 0.73838 0.36027 0.0
H588 H 0.82136 0.18268 0.66067 0.0
H589 H 0.69229 0.14165 0.64658 0.0
H590 H 0.81999 0.2372 0.63793 0.0
H591 H 0.69064 0.19742 0.62395 0.0
H592 H 0.70279 0.3451 0.60176 0.0
H593 H 0.69865 0.28875 0.62413 0.0
H594 H 0.81293 0.22771 0.60326 0.0
H595 H 0.81658 0.28282 0.58082 0.0
C596 C 0.79265 0.1854 0.65273 0.0
C597 C 0.75701 0.15781 0.65532 0.0
C598 C 0.79191 0.21658 0.63974 0.0
C599 C 0.75519 0.22146 0.62929 0.0
C600 C 0.71921 0.19432 0.63195 0.0
C601 C 0.7203 0.16233 0.64476 0.0
C602 C 0.72682 0.31949 0.60195 0.0
C603 C 0.76003 0.31835 0.58959 0.0
C604 C 0.7243 0.28724 0.61464 0.0
C605 C 0.75551 0.25407 0.61534 0.0
C606 C 0.78857 0.25302 0.60298 0.0
C607 C 0.79057 0.28454 0.59015 0.0
H608 H 0.22089 0.25601 0.92676 0.0
H609 H 0.12453 0.22239 0.88877 0.0
H610 H 0.27717 0.2534 0.90482 0.0
H611 H 0.18109 0.21912 0.86679 0.0
H612 H 0.28179 0.28029 0.83031 0.0
H613 H 0.2263 0.2729 0.85229 0.0
H614 H 0.31758 0.20612 0.88505 0.0
H615 H 0.37367 0.21406 0.86296 0.0
C616 C 0.21181 0.24751 0.91374 0.0
C617 C 0.16822 0.23973 0.90946 0.0
C618 C 0.24415 0.24574 0.90119 0.0
C619 C 0.23364 0.23628 0.88403 0.0
C620 C 0.19017 0.22708 0.87986 0.0
C621 C 0.1578 0.22872 0.89245 0.0
C622 C 0.29009 0.2639 0.84218 0.0
C623 C 0.3322 0.24792 0.84494 0.0
C624 C 0.2581 0.25932 0.85473 0.0
C625 C 0.26739 0.23874 0.87041 0.0
C626 C 0.30948 0.22242 0.87315 0.0
C627 C 0.34156 0.22684 0.86051 0.0
H628 H 0.26116 0.71614 0.17399 0.0
H629 H 0.21279 0.62203 0.13766 0.0
H630 H 0.2579 0.77221 0.15198 0.0
H631 H 0.20864 0.67845 0.11565 0.0
H632 H 0.26467 0.7761 0.07658 0.0
H633 H 0.25923 0.72053 0.09867 0.0
H634 H 0.20964 0.81572 0.13436 0.0
H635 H 0.21595 0.87172 0.11222 0.0
C636 C 0.24937 0.70753 0.16133 0.0
C637 C 0.23748 0.66459 0.15752 0.0
C638 C 0.24721 0.73978 0.14874 0.0
C639 C 0.23311 0.72987 0.13202 0.0
C640 C 0.22021 0.68707 0.12833 0.0
C641 C 0.22237 0.65478 0.14096 0.0
C642 C 0.25237 0.78517 0.08911 0.0
C643 C 0.24093 0.82835 0.09268 0.0
C644 C 0.24894 0.7532 0.10175 0.0
C645 C 0.23398 0.76359 0.11831 0.0
C646 C 0.22176 0.8067 0.1218 0.0
C647 C 0.22516 0.83875 0.10911 0.0
H648 H 0.87836 0.78036 0.8864 0.0
H649 H 0.78581 0.73517 0.92401 0.0
H650 H 0.82048 0.78514 0.86501 0.0
H651 H 0.72832 0.73905 0.90264 0.0
H652 H 0.62681 0.78286 0.86413 0.0
H653 H 0.68478 0.78811 0.88548 0.0
H654 H 0.77562 0.73557 0.84869 0.0
H655 H 0.71811 0.73121 0.82737 0.0
C656 C 0.84566 0.77158 0.8901 0.0
C657 C 0.83668 0.75724 0.90686 0.0
C658 C 0.81253 0.7741 0.87784 0.0
C659 C 0.76971 0.76237 0.88209 0.0
C660 C 0.76073 0.7489 0.89897 0.0
C661 C 0.7938 0.74636 0.9112 0.0
C662 C 0.65925 0.77276 0.8606 0.0
C663 C 0.66785 0.75649 0.8441 0.0
C664 C 0.69242 0.77556 0.87284 0.0
C665 C 0.73489 0.76218 0.86882 0.0
C666 C 0.74351 0.74673 0.85218 0.0
C667 C 0.71041 0.74392 0.83998 0.0
H668 H 0.713 0.21716 0.07727 0.0
H669 H 0.77836 0.12461 0.10991 0.0
H670 H 0.71872 0.27189 0.09967 0.0
H671 H 0.78452 0.17982 0.13239 0.0
H672 H 0.73268 0.27396 0.17437 0.0
H673 H 0.73547 0.21894 0.15195 0.0
H674 H 0.77203 0.31679 0.11496 0.0
H675 H 0.76869 0.37216 0.13744 0.0
C676 C 0.72878 0.20855 0.08923 0.0
C677 C 0.74507 0.16649 0.09186 0.0
C678 C 0.73239 0.24008 0.10201 0.0
C679 C 0.75222 0.23031 0.1178 0.0
C680 C 0.76877 0.18826 0.12041 0.0
C681 C 0.76536 0.15669 0.10754 0.0
C682 C 0.74167 0.28373 0.16148 0.0
C683 C 0.75023 0.32745 0.15764 0.0
C684 C 0.74354 0.2521 0.14865 0.0
C685 C 0.75383 0.26347 0.13166 0.0
C686 C 0.76348 0.30709 0.1279 0.0
C687 C 0.76181 0.33875 0.14077 0.0
H688 H 0.8995 0.91849 0.2965 0.0
H689 H 0.01522 0.87042 0.32132 0.0
H690 H 0.92911 0.99233 0.29747 0.0
H691 H 0.04513 0.94393 0.32179 0.0
H692 H 0.09289 0.07473 0.29357 0.0
H693 H 0.06418 0.00053 0.29463 0.0
H694 H 0.95557 0.0451 0.32477 0.0
H695 H 0.98469 0.11889 0.32419 0.0
C696 C 0.93113 0.92376 0.30217 0.0
C697 C 0.95503 0.88893 0.30889 0.0
C698 C 0.94797 0.96583 0.30274 0.0
C699 C 0.98932 0.97341 0.30966 0.0
C700 C 0.01323 0.93864 0.31635 0.0
C701 C 0.996 0.89679 0.31615 0.0
C702 C 0.06317 0.06851 0.30057 0.0
C703 C 0.04106 0.10238 0.30884 0.0
C704 C 0.04685 0.02624 0.30118 0.0
C705 C 0.00769 0.01753 0.30971 0.0
C706 C 0.98573 0.05128 0.31806 0.0
C707 C 0.00254 0.09329 0.3178 0.0
H708 H 0.91799 0.08709 0.70229 0.0
H709 H 0.87121 0.96828 0.67949 0.0
H710 H 0.9924 0.05924 0.70091 0.0
H711 H 0.94546 0.94011 0.6786 0.0
H712 H 0.07906 0.89893 0.70693 0.0
H713 H 0.00391 0.92484 0.70549 0.0
H714 H 0.04452 0.03191 0.67363 0.0
H715 H 0.11932 0.0055 0.6746 0.0
C716 C 0.92367 0.05512 0.69698 0.0
C717 C 0.88902 0.02984 0.69096 0.0
C718 C 0.96608 0.03932 0.69615 0.0
C719 C 0.97428 0.99763 0.68967 0.0
C720 C 0.9397 0.97232 0.68367 0.0
C721 C 0.89743 0.98851 0.68412 0.0
C722 C 0.07176 0.92763 0.69944 0.0
C723 C 0.10484 0.95019 0.69085 0.0
C724 C 0.02894 0.94235 0.69861 0.0
C725 C 0.01884 0.98035 0.68951 0.0
C726 C 0.05176 0.0026 0.68076 0.0
C727 C 0.09436 0.98735 0.68125 0.0
H728 H 0.06734 0.40913 0.96812 0.0
H729 H 0.02368 0.38942 0.91596 0.0
H730 H 0.0407 0.48361 0.96718 0.0
H731 H 0.99627 0.46356 0.91513 0.0
H732 H 0.94274 0.59434 0.96664 0.0
H733 H 0.97058 0.52028 0.96659 0.0
H734 H 0.01961 0.53895 0.9151 0.0
H735 H 0.99101 0.6127 0.91503 0.0
C736 C 0.05232 0.42082 0.95642 0.0
C737 C 0.04756 0.39348 0.94212 0.0
C738 C 0.03669 0.46333 0.95593 0.0
C739 C 0.01597 0.47935 0.94114 0.0
C740 C 0.01233 0.45231 0.92667 0.0
C741 C 0.02796 0.40982 0.92717 0.0
C742 C 0.95912 0.58246 0.95526 0.0
C743 C 0.96469 0.60927 0.94084 0.0
C744 C 0.97543 0.5402 0.95529 0.0
C745 C 0.99766 0.52388 0.9409 0.0
C746 C 0.00237 0.55044 0.92634 0.0
C747 C 0.98606 0.59271 0.92631 0.0
H748 H 0.4169 0.90313 0.04529 0.0
H749 H 0.37552 0.01372 0.07515 0.0
H750 H 0.49161 0.9304 0.04582 0.0
H751 H 0.4499 0.04142 0.07522 0.0
H752 H 0.57658 0.09393 0.0461 0.0
H753 H 0.50224 0.06597 0.04792 0.0
H754 H 0.54967 0.94917 0.07198 0.0
H755 H 0.62376 0.97743 0.07065 0.0
C756 C 0.42385 0.93307 0.05202 0.0
C757 C 0.3906 0.95627 0.06022 0.0
C758 C 0.46643 0.94858 0.05234 0.0
C759 C 0.47612 0.98798 0.06051 0.0
C760 C 0.44298 0.01104 0.0688 0.0
C761 C 0.40063 0.99505 0.06882 0.0
C762 C 0.57101 0.06247 0.0519 0.0
C763 C 0.60576 0.03786 0.05828 0.0
C764 C 0.52864 0.0466 0.05297 0.0
C765 C 0.52059 0.0055 0.06006 0.0
C766 C 0.55528 0.9809 0.06642 0.0
C767 C 0.59748 0.99717 0.06572 0.0
H768 H 0.40128 0.42078 0.79978 0.0
H769 H 0.51747 0.37611 0.82524 0.0
H770 H 0.42838 0.49556 0.80116 0.0
H771 H 0.5449 0.45056 0.8261 0.0
H772 H 0.58912 0.58249 0.79736 0.0
H773 H 0.5622 0.50762 0.79834 0.0
H774 H 0.45353 0.54901 0.82914 0.0
H775 H 0.48094 0.62352 0.82866 0.0
C776 C 0.43244 0.427 0.80571 0.0
C777 C 0.45724 0.39283 0.81246 0.0
C778 C 0.44783 0.4696 0.80651 0.0
C779 C 0.48866 0.4784 0.81368 0.0
C780 C 0.51338 0.44433 0.82047 0.0
C781 C 0.49756 0.40193 0.82005 0.0
C782 C 0.55976 0.57544 0.80448 0.0
C783 C 0.53717 0.60862 0.81299 0.0
C784 C 0.54447 0.53279 0.80504 0.0
C785 C 0.50584 0.52298 0.81376 0.0
C786 C 0.48332 0.55605 0.8223 0.0
C787 C 0.49914 0.59846 0.82209 0.0
H788 H 0.60447 0.47546 0.16588 0.0
H789 H 0.58261 0.4265 0.21717 0.0
H790 H 0.5314 0.50555 0.16546 0.0
H791 H 0.50913 0.45591 0.21664 0.0
H792 H 0.40137 0.55717 0.21758 0.0
H793 H 0.47474 0.5275 0.21716 0.0
H794 H 0.45539 0.48428 0.16492 0.0
H795 H 0.38242 0.51463 0.16523 0.0
C796 C 0.58381 0.47058 0.17697 0.0
C797 C 0.59924 0.44867 0.19157 0.0
C798 C 0.54193 0.48777 0.17672 0.0
C799 C 0.51461 0.48343 0.19107 0.0
C800 C 0.52969 0.46046 0.2055 0.0
C801 C 0.57159 0.44324 0.20574 0.0
C802 C 0.413 0.54175 0.20595 0.0
C803 C 0.3862 0.53821 0.19144 0.0
C804 C 0.45484 0.52437 0.20577 0.0
C805 C 0.47071 0.50315 0.19106 0.0
C806 C 0.44424 0.50066 0.1764 0.0
C807 C 0.40241 0.518 0.17659 0.0
H808 H 0.51086 0.1247 0.42654 0.0
H809 H 0.40225 0.0874 0.45836 0.0
H810 H 0.53889 0.05064 0.42789 0.0
H811 H 0.42993 0.01272 0.45923 0.0
H812 H 0.47666 0.87855 0.43432 0.0
H813 H 0.44745 0.95225 0.43323 0.0
H814 H 0.56501 0.00112 0.45618 0.0
H815 H 0.59398 0.92703 0.45777 0.0
C816 C 0.49269 0.10052 0.43362 0.0
C817 C 0.45431 0.11164 0.44232 0.0
C818 C 0.50892 0.05836 0.43448 0.0
C819 C 0.48657 0.02639 0.44371 0.0
C820 C 0.4476 0.03706 0.45204 0.0
C821 C 0.43183 0.07958 0.45152 0.0
C822 C 0.49631 0.90503 0.43911 0.0
C823 C 0.53763 0.89725 0.44608 0.0
C824 C 0.47947 0.947 0.43857 0.0
C825 C 0.50407 0.98198 0.44464 0.0
C826 C 0.54561 0.97443 0.45141 0.0
C827 C 0.56208 0.93224 0.45232 0.0
H828 H 0.89071 0.49998 0.57152 0.0
H829 H 0.9298 0.39203 0.53971 0.0
H830 H 0.965 0.52765 0.57112 0.0
H831 H 0.00452 0.41933 0.53972 0.0
H832 H 0.13766 0.46372 0.56523 0.0
H833 H 0.06393 0.43445 0.56502 0.0
H834 H 0.01612 0.55562 0.54474 0.0
H835 H 0.09015 0.58474 0.54452 0.0
C836 C 0.91531 0.4819 0.56463 0.0
C837 C 0.90466 0.44384 0.55567 0.0
C838 C 0.95761 0.49791 0.56431 0.0
C839 C 0.99011 0.47564 0.55532 0.0
C840 C 0.97982 0.43695 0.54674 0.0
C841 C 0.93725 0.42141 0.54674 0.0
C842 C 0.11141 0.48404 0.56066 0.0
C843 C 0.11943 0.52649 0.55491 0.0
C844 C 0.06941 0.46722 0.56049 0.0
C845 C 0.03466 0.49291 0.5549 0.0
C846 C 0.04257 0.53537 0.54917 0.0
C847 C 0.08476 0.5519 0.54899 0.0
loop_
_geom_bond_atom_site_label_1
_geom_bond_atom_site_label_2
_geom_bond_distance
_geom_bond_site_symmetry_2
_ccdc_geom_bond_type
In0 O1 2.294 . S
In0 O2 2.326 . S
In0 O6 2.266 . S
In0 O7 2.326 . S
In0 O8 2.266 . S
In0 O9 2.326 . S
In0 O11 2.294 . S
In0 O12 2.326 . S
O1 In0 2.294 . S
O1 C10 1.240 . S
O2 In0 2.326 . S
O2 C10 1.252 . S
C3 O6 1.252 . S
C3 O7 1.260 . S
C4 O11 1.240 . S
C4 O12 1.252 . S
C5 O8 1.252 . S
C5 O9 1.260 . S
O6 In0 2.266 . S
O6 C3 1.252 . S
O7 In0 2.326 . S
O7 C3 1.260 . S
O8 In0 2.266 . S
O8 C5 1.252 . S
O9 In0 2.326 . S
O9 C5 1.260 . S
C10 O1 1.240 . S
C10 O2 1.252 . S
O11 In0 2.294 . S
O11 C4 1.240 . S
O12 In0 2.326 . S
O12 C4 1.252 . S
In13 O14 2.294 . S
In13 O15 2.326 . S
In13 O19 2.266 . S
In13 O20 2.326 . S
In13 O21 2.266 . S
In13 O22 2.326 . S
In13 O24 2.294 . S
In13 O25 2.326 . S
O14 In13 2.294 . S
O14 C23 1.240 . S
O15 In13 2.326 . S
O15 C23 1.252 . S
C16 O19 1.252 . S
C16 O20 1.260 . S
C17 O24 1.240 . S
C17 O25 1.252 . S
C18 O21 1.252 . S
C18 O22 1.260 . S
O19 In13 2.266 . S
O19 C16 1.252 . S
O20 In13 2.326 . S
O20 C16 1.260 . S
O21 In13 2.266 . S
O21 C18 1.252 . S
O22 In13 2.326 . S
O22 C18 1.260 . S
C23 O14 1.240 . S
C23 O15 1.252 . S
O24 In13 2.294 . S
O24 C17 1.240 . S
O25 In13 2.326 . S
O25 C17 1.252 . S
In26 O27 2.294 . S
In26 O28 2.326 . S
In26 O32 2.266 . S
In26 O33 2.326 . S
In26 O34 2.266 . S
In26 O35 2.326 . S
In26 O37 2.294 . S
In26 O38 2.326 . S
O27 In26 2.294 . S
O27 C36 1.240 . S
O28 In26 2.326 . S
O28 C36 1.252 . S
C29 O32 1.252 . S
C29 O33 1.260 . S
C30 O37 1.240 . S
C30 O38 1.252 . S
C31 O34 1.252 . S
C31 O35 1.260 . S
O32 In26 2.266 . S
O32 C29 1.252 . S
O33 In26 2.326 . S
O33 C29 1.260 . S
O34 In26 2.266 . S
O34 C31 1.252 . S
O35 In26 2.326 . S
O35 C31 1.260 . S
C36 O27 1.240 . S
C36 O28 1.252 . S
O37 In26 2.294 . S
O37 C30 1.240 . S
O38 In26 2.326 . S
O38 C30 1.252 . S
In39 O40 2.294 . S
In39 O41 2.326 . S
In39 O45 2.266 . S
In39 O46 2.326 . S
In39 O47 2.266 . S
In39 O48 2.326 . S
In39 O50 2.294 . S
In39 O51 2.326 . S
O40 In39 2.294 . S
O40 C49 1.240 . S
O41 In39 2.326 . S
O41 C49 1.252 . S
C42 O45 1.252 . S
C42 O46 1.260 . S
C43 O50 1.240 . S
C43 O51 1.252 . S
C44 O47 1.252 . S
C44 O48 1.260 . S
O45 In39 2.266 . S
O45 C42 1.252 . S
O46 In39 2.326 . S
O46 C42 1.260 . S
O47 In39 2.266 . S
O47 C44 1.252 . S
O48 In39 2.326 . S
O48 C44 1.260 . S
C49 O40 1.240 . S
C49 O41 1.252 . S
O50 In39 2.294 . S
O50 C43 1.240 . S
O51 In39 2.326 . S
O51 C43 1.252 . S
In52 O53 2.294 . S
In52 O54 2.326 . S
In52 O58 2.266 . S
In52 O59 2.326 . S
In52 O60 2.266 . S
In52 O61 2.326 . S
In52 O63 2.294 . S
In52 O64 2.326 . S
O53 In52 2.294 . S
O53 C62 1.240 . S
O54 In52 2.326 . S
O54 C62 1.252 . S
C55 O58 1.252 . S
C55 O59 1.260 . S
C56 O63 1.240 . S
C56 O64 1.252 . S
C57 O60 1.252 . S
C57 O61 1.260 . S
O58 In52 2.266 . S
O58 C55 1.252 . S
O59 In52 2.326 . S
O59 C55 1.260 . S
O60 In52 2.266 . S
O60 C57 1.252 . S
O61 In52 2.326 . S
O61 C57 1.260 . S
C62 O53 1.240 . S
C62 O54 1.252 . S
O63 In52 2.294 . S
O63 C56 1.240 . S
O64 In52 2.326 . S
O64 C56 1.252 . S
In65 O66 2.294 . S
In65 O67 2.326 . S
In65 O71 2.266 . S
In65 O72 2.326 . S
In65 O73 2.266 . S
In65 O74 2.326 . S
In65 O76 2.294 . S
In65 O77 2.326 . S
O66 In65 2.294 . S
O66 C75 1.240 . S
O67 In65 2.326 . S
O67 C75 1.252 . S
C68 O71 1.252 . S
C68 O72 1.260 . S
C69 O76 1.240 . S
C69 O77 1.252 . S
C70 O73 1.252 . S
C70 O74 1.260 . S
O71 In65 2.266 . S
O71 C68 1.252 . S
O72 In65 2.326 . S
O72 C68 1.260 . S
O73 In65 2.266 . S
O73 C70 1.252 . S
O74 In65 2.326 . S
O74 C70 1.260 . S
C75 O66 1.240 . S
C75 O67 1.252 . S
O76 In65 2.294 . S
O76 C69 1.240 . S
O77 In65 2.326 . S
O77 C69 1.252 . S
In78 O79 2.294 . S
In78 O80 2.326 . S
In78 O84 2.266 . S
In78 O85 2.326 . S
In78 O86 2.266 . S
In78 O87 2.326 . S
In78 O89 2.294 . S
In78 O90 2.326 . S
O79 In78 2.294 . S
O79 C88 1.240 . S
O80 In78 2.326 . S
O80 C88 1.252 . S
C81 O84 1.252 . S
C81 O85 1.260 . S
C82 O89 1.240 . S
C82 O90 1.252 . S
C83 O86 1.252 . S
C83 O87 1.260 . S
O84 In78 2.266 . S
O84 C81 1.252 . S
O85 In78 2.326 . S
O85 C81 1.260 . S
O86 In78 2.266 . S
O86 C83 1.252 . S
O87 In78 2.326 . S
O87 C83 1.260 . S
C88 O79 1.240 . S
C88 O80 1.252 . S
O89 In78 2.294 . S
O89 C82 1.240 . S
O90 In78 2.326 . S
O90 C82 1.252 . S
In91 O92 2.294 . S
In91 O93 2.326 . S
In91 O97 2.266 . S
In91 O98 2.326 . S
In91 O99 2.266 . S
In91 O100 2.326 . S
In91 O102 2.294 . S
In91 O103 2.326 . S
O92 In91 2.294 . S
O92 C101 1.240 . S
O93 In91 2.326 . S
O93 C101 1.252 . S
C94 O97 1.252 . S
C94 O98 1.260 . S
C95 O102 1.240 . S
C95 O103 1.252 . S
C96 O99 1.252 . S
C96 O100 1.260 . S
O97 In91 2.266 . S
O97 C94 1.252 . S
O98 In91 2.326 . S
O98 C94 1.260 . S
O99 In91 2.266 . S
O99 C96 1.252 . S
O100 In91 2.326 . S
O100 C96 1.260 . S
C101 O92 1.240 . S
C101 O93 1.252 . S
O102 In91 2.294 . S
O102 C95 1.240 . S
O103 In91 2.326 . S
O103 C95 1.252 . S
In104 O105 2.294 . S
In104 O106 2.326 . S
In104 O110 2.266 . S
In104 O111 2.326 . S
In104 O112 2.266 . S
In104 O113 2.326 . S
In104 O115 2.294 . S
In104 O116 2.326 . S
O105 In104 2.294 . S
O105 C114 1.240 . S
O106 In104 2.326 . S
O106 C114 1.252 . S
C107 O110 1.252 . S
C107 O111 1.260 . S
C108 O115 1.240 . S
C108 O116 1.252 . S
C109 O112 1.252 . S
C109 O113 1.260 . S
O110 In104 2.266 . S
O110 C107 1.252 . S
O111 In104 2.326 . S
O111 C107 1.260 . S
O112 In104 2.266 . S
O112 C109 1.252 . S
O113 In104 2.326 . S
O113 C109 1.260 . S
C114 O105 1.240 . S
C114 O106 1.252 . S
O115 In104 2.294 . S
O115 C108 1.240 . S
O116 In104 2.326 . S
O116 C108 1.252 . S
In117 O118 2.294 . S
In117 O119 2.326 . S
In117 O123 2.266 . S
In117 O124 2.326 . S
In117 O125 2.266 . S
In117 O126 2.326 . S
In117 O128 2.294 . S
In117 O129 2.326 . S
O118 In117 2.294 . S
O118 C127 1.240 . S
O119 In117 2.326 . S
O119 C127 1.252 . S
C120 O123 1.252 . S
C120 O124 1.260 . S
C121 O128 1.240 . S
C121 O129 1.252 . S
C122 O125 1.252 . S
C122 O126 1.260 . S
O123 In117 2.266 . S
O123 C120 1.252 . S
O124 In117 2.326 . S
O124 C120 1.260 . S
O125 In117 2.266 . S
O125 C122 1.252 . S
O126 In117 2.326 . S
O126 C122 1.260 . S
C127 O118 1.240 . S
C127 O119 1.252 . S
O128 In117 2.294 . S
O128 C121 1.240 . S
O129 In117 2.326 . S
O129 C121 1.252 . S
In130 O131 2.294 . S
In130 O132 2.326 . S
In130 O136 2.266 . S
In130 O137 2.326 . S
In130 O138 2.266 . S
In130 O139 2.326 . S
In130 O141 2.294 . S
In130 O142 2.326 . S
O131 In130 2.294 . S
O131 C140 1.240 . S
O132 In130 2.326 . S
O132 C140 1.252 . S
C133 O136 1.252 . S
C133 O137 1.260 . S
C134 O141 1.240 . S
C134 O142 1.252 . S
C135 O138 1.252 . S
C135 O139 1.260 . S
O136 In130 2.266 . S
O136 C133 1.252 . S
O137 In130 2.326 . S
O137 C133 1.260 . S
O138 In130 2.266 . S
O138 C135 1.252 . S
O139 In130 2.326 . S
O139 C135 1.260 . S
C140 O131 1.240 . S
C140 O132 1.252 . S
O141 In130 2.294 . S
O141 C134 1.240 . S
O142 In130 2.326 . S
O142 C134 1.252 . S
In143 O144 2.294 . S
In143 O145 2.326 . S
In143 O149 2.266 . S
In143 O150 2.326 . S
In143 O151 2.266 . S
In143 O152 2.326 . S
In143 O154 2.294 . S
In143 O155 2.326 . S
O144 In143 2.294 . S
O144 C153 1.240 . S
O145 In143 2.326 . S
O145 C153 1.252 . S
C146 O149 1.252 . S
C146 O150 1.260 . S
C147 O154 1.240 . S
C147 O155 1.252 . S
C148 O151 1.252 . S
C148 O152 1.260 . S
O149 In143 2.266 . S
O149 C146 1.252 . S
O150 In143 2.326 . S
O150 C146 1.260 . S
O151 In143 2.266 . S
O151 C148 1.252 . S
O152 In143 2.326 . S
O152 C148 1.260 . S
C153 O144 1.240 . S
C153 O145 1.252 . S
O154 In143 2.294 . S
O154 C147 1.240 . S
O155 In143 2.326 . S
O155 C147 1.252 . S
In156 O157 2.294 . S
In156 O158 2.326 . S
In156 O162 2.266 . S
In156 O163 2.326 . S
In156 O164 2.266 . S
In156 O165 2.326 . S
In156 O167 2.294 . S
In156 O168 2.326 . S
O157 In156 2.294 . S
O157 C166 1.240 . S
O158 In156 2.326 . S
O158 C166 1.252 . S
C159 O162 1.252 . S
C159 O163 1.260 . S
C160 O167 1.240 . S
C160 O168 1.252 . S
C161 O164 1.252 . S
C161 O165 1.260 . S
O162 In156 2.266 . S
O162 C159 1.252 . S
O163 In156 2.326 . S
O163 C159 1.260 . S
O164 In156 2.266 . S
O164 C161 1.252 . S
O165 In156 2.326 . S
O165 C161 1.260 . S
C166 O157 1.240 . S
C166 O158 1.252 . S
O167 In156 2.294 . S
O167 C160 1.240 . S
O168 In156 2.326 . S
O168 C160 1.252 . S
In169 O170 2.294 . S
In169 O171 2.326 . S
In169 O175 2.266 . S
In169 O176 2.326 . S
In169 O177 2.266 . S
In169 O178 2.326 . S
In169 O180 2.294 . S
In169 O181 2.326 . S
O170 In169 2.294 . S
O170 C179 1.240 . S
O171 In169 2.326 . S
O171 C179 1.252 . S
C172 O175 1.252 . S
C172 O176 1.260 . S
C173 O180 1.240 . S
C173 O181 1.252 . S
C174 O177 1.252 . S
C174 O178 1.260 . S
O175 In169 2.266 . S
O175 C172 1.252 . S
O176 In169 2.326 . S
O176 C172 1.260 . S
O177 In169 2.266 . S
O177 C174 1.252 . S
O178 In169 2.326 . S
O178 C174 1.260 . S
C179 O170 1.240 . S
C179 O171 1.252 . S
O180 In169 2.294 . S
O180 C173 1.240 . S
O181 In169 2.326 . S
O181 C173 1.252 . S
In182 O183 2.294 . S
In182 O184 2.326 . S
In182 O188 2.266 . S
In182 O189 2.326 . S
In182 O190 2.266 . S
In182 O191 2.326 . S
In182 O193 2.294 . S
In182 O194 2.326 . S
O183 In182 2.294 . S
O183 C192 1.240 . S
O184 In182 2.326 . S
O184 C192 1.252 . S
C185 O188 1.252 . S
C185 O189 1.260 . S
C186 O193 1.240 . S
C186 O194 1.252 . S
C187 O190 1.252 . S
C187 O191 1.260 . S
O188 In182 2.266 . S
O188 C185 1.252 . S
O189 In182 2.326 . S
O189 C185 1.260 . S
O190 In182 2.266 . S
O190 C187 1.252 . S
O191 In182 2.326 . S
O191 C187 1.260 . S
C192 O183 1.240 . S
C192 O184 1.252 . S
O193 In182 2.294 . S
O193 C186 1.240 . S
O194 In182 2.326 . S
O194 C186 1.252 . S
In195 O196 2.294 . S
In195 O197 2.326 . S
In195 O201 2.266 . S
In195 O202 2.326 . S
In195 O203 2.266 . S
In195 O204 2.326 . S
In195 O206 2.294 . S
In195 O207 2.326 . S
O196 In195 2.294 . S
O196 C205 1.240 . S
O197 In195 2.326 . S
O197 C205 1.252 . S
C198 O201 1.252 . S
C198 O202 1.260 . S
C199 O206 1.240 . S
C199 O207 1.252 . S
C200 O203 1.252 . S
C200 O204 1.260 . S
O201 In195 2.266 . S
O201 C198 1.252 . S
O202 In195 2.326 . S
O202 C198 1.260 . S
O203 In195 2.266 . S
O203 C200 1.252 . S
O204 In195 2.326 . S
O204 C200 1.260 . S
C205 O196 1.240 . S
C205 O197 1.252 . S
O206 In195 2.294 . S
O206 C199 1.240 . S
O207 In195 2.326 . S
O207 C199 1.252 . S
H208 C216 0.950 . S
H209 C221 0.950 . S
H210 C218 0.950 . S
H211 C220 0.950 . S
H212 C222 0.950 . S
H213 C224 0.950 . S
H214 C226 0.950 . S
H215 C227 0.950 . S
C216 H208 0.950 . S
C216 C217 1.386 . S
C216 C218 1.391 . S
C217 C216 1.386 . S
C217 C221 1.393 . S
C218 H210 0.950 . S
C218 C216 1.391 . S
C218 C219 1.400 . S
C219 C218 1.400 . S
C219 C220 1.398 . S
C219 C225 1.491 . S
C220 H211 0.950 . S
C220 C219 1.398 . S
C220 C221 1.391 . S
C221 H209 0.950 . S
C221 C217 1.393 . S
C221 C220 1.391 . S
C222 H212 0.950 . S
C222 C223 1.386 . S
C222 C224 1.391 . S
C223 C222 1.386 . S
C223 C227 1.393 . S
C224 H213 0.950 . S
C224 C222 1.391 . S
C224 C225 1.400 . S
C225 C219 1.491 . S
C225 C224 1.400 . S
C225 C226 1.398 . S
C226 H214 0.950 . S
C226 C225 1.398 . S
C226 C227 1.391 . S
C227 H215 0.950 . S
C227 C223 1.393 . S
C227 C226 1.391 . S
H228 C236 0.950 . S
H229 C241 0.950 . S
H230 C238 0.950 . S
H231 C240 0.950 . S
H232 C242 0.950 . S
H233 C244 0.950 . S
H234 C246 0.950 . S
H235 C247 0.950 . S
C236 H228 0.950 . S
C236 C237 1.386 . S
C236 C238 1.391 . S
C237 C236 1.386 . S
C237 C241 1.393 . S
C238 H230 0.950 . S
C238 C236 1.391 . S
C238 C239 1.400 . S
C239 C238 1.400 . S
C239 C240 1.398 . S
C239 C245 1.491 . S
C240 H231 0.950 . S
C240 C239 1.398 . S
C240 C241 1.391 . S
C241 H229 0.950 . S
C241 C237 1.393 . S
C241 C240 1.391 . S
C242 H232 0.950 . S
C242 C243 1.386 . S
C242 C244 1.391 . S
C243 C242 1.386 . S
C243 C247 1.393 . S
C244 H233 0.950 . S
C244 C242 1.391 . S
C244 C245 1.400 . S
C245 C239 1.491 . S
C245 C244 1.400 . S
C245 C246 1.398 . S
C246 H234 0.950 . S
C246 C245 1.398 . S
C246 C247 1.391 . S
C247 H235 0.950 . S
C247 C243 1.393 . S
C247 C246 1.391 . S
H248 C256 0.950 . S
H249 C261 0.950 . S
H250 C258 0.950 . S
H251 C260 0.950 . S
H252 C262 0.950 . S
H253 C264 0.950 . S
H254 C266 0.950 . S
H255 C267 0.950 . S
C256 H248 0.950 . S
C256 C257 1.386 . S
C256 C258 1.391 . S
C257 C256 1.386 . S
C257 C261 1.393 . S
C258 H250 0.950 . S
C258 C256 1.391 . S
C258 C259 1.400 . S
C259 C258 1.400 . S
C259 C260 1.398 . S
C259 C265 1.491 . S
C260 H251 0.950 . S
C260 C259 1.398 . S
C260 C261 1.391 . S
C261 H249 0.950 . S
C261 C257 1.393 . S
C261 C260 1.391 . S
C262 H252 0.950 . S
C262 C263 1.386 . S
C262 C264 1.391 . S
C263 C262 1.386 . S
C263 C267 1.393 . S
C264 H253 0.950 . S
C264 C262 1.391 . S
C264 C265 1.400 . S
C265 C259 1.491 . S
C265 C264 1.400 . S
C265 C266 1.398 . S
C266 H254 0.950 . S
C266 C265 1.398 . S
C266 C267 1.391 . S
C267 H255 0.950 . S
C267 C263 1.393 . S
C267 C266 1.391 . S
H268 C276 0.950 . S
H269 C281 0.950 . S
H270 C278 0.950 . S
H271 C280 0.950 . S
H272 C282 0.950 . S
H273 C284 0.950 . S
H274 C286 0.950 . S
H275 C287 0.950 . S
C276 H268 0.950 . S
C276 C277 1.386 . S
C276 C278 1.391 . S
C277 C276 1.386 . S
C277 C281 1.393 . S
C278 H270 0.950 . S
C278 C276 1.391 . S
C278 C279 1.400 . S
C279 C278 1.400 . S
C279 C280 1.398 . S
C279 C285 1.491 . S
C280 H271 0.950 . S
C280 C279 1.398 . S
C280 C281 1.391 . S
C281 H269 0.950 . S
C281 C277 1.393 . S
C281 C280 1.391 . S
C282 H272 0.950 . S
C282 C283 1.386 . S
C282 C284 1.391 . S
C283 C282 1.386 . S
C283 C287 1.393 . S
C284 H273 0.950 . S
C284 C282 1.391 . S
C284 C285 1.400 . S
C285 C279 1.491 . S
C285 C284 1.400 . S
C285 C286 1.398 . S
C286 H274 0.950 . S
C286 C285 1.398 . S
C286 C287 1.391 . S
C287 H275 0.950 . S
C287 C283 1.393 . S
C287 C286 1.391 . S
H288 C296 0.950 . S
H289 C301 0.950 . S
H290 C298 0.950 . S
H291 C300 0.950 . S
H292 C302 0.950 . S
H293 C304 0.934 1_554 S
H294 C306 0.950 . S
H295 C307 0.950 . S
C296 H288 0.950 . S
C296 C297 1.386 . S
C296 C298 1.391 . S
C297 C296 1.386 . S
C297 C301 1.393 . S
C298 H290 0.950 . S
C298 C296 1.391 . S
C298 C299 1.400 . S
C299 C298 1.400 . S
C299 C300 1.398 . S
C299 C305 1.491 . S
C300 H291 0.950 . S
C300 C299 1.398 . S
C300 C301 1.391 . S
C301 H289 0.950 . S
C301 C297 1.393 . S
C301 C300 1.391 . S
C302 H292 0.950 . S
C302 C303 1.386 . S
C302 C304 1.391 . S
C303 C302 1.386 . S
C303 C307 1.393 . S
C304 H293 0.934 1_556 S
C304 C302 1.391 . S
C304 C305 1.400 1_556 S
C305 C299 1.491 . S
C305 C304 1.400 1_554 S
C305 C306 1.398 1_554 S
C306 H294 0.950 . S
C306 C305 1.398 1_556 S
C306 C307 1.391 . S
C307 H295 0.950 . S
C307 C303 1.393 . S
C307 C306 1.391 . S
H308 C316 0.950 . S
H309 C321 0.950 . S
H310 C318 0.950 . S
H311 C320 0.950 . S
H312 C322 0.950 1_655 S
H313 C324 0.950 1_554 S
H314 C326 0.950 . S
H315 C327 0.950 . S
C316 H308 0.950 . S
C316 C317 1.386 . S
C316 C318 1.391 1_554 S
C317 C316 1.386 . S
C317 C321 1.393 . S
C318 H310 0.950 . S
C318 C316 1.391 1_556 S
C318 C319 1.404 . S
C319 C318 1.404 . S
C319 C320 1.386 1_556 S
C319 C325 1.499 . S
C320 H311 0.950 . S
C320 C319 1.386 1_554 S
C320 C321 1.391 . S
C321 H309 0.950 . S
C321 C317 1.393 . S
C321 C320 1.391 . S
C322 H312 0.950 1_455 S
C322 C323 1.386 . S
C322 C324 1.391 . S
C323 C322 1.386 . S
C323 C327 1.393 . S
C324 H313 0.950 1_556 S
C324 C322 1.391 . S
C324 C325 1.400 . S
C325 C319 1.499 . S
C325 C324 1.400 . S
C325 C326 1.398 . S
C326 H314 0.950 . S
C326 C325 1.398 . S
C326 C327 1.391 . S
C327 H315 0.950 . S
C327 C323 1.393 . S
C327 C326 1.391 . S
H328 C336 0.950 . S
H329 C341 0.950 . S
H330 C338 0.950 . S
H331 C340 0.950 1_554 S
H332 C342 0.950 . S
H333 C344 0.950 . S
H334 C346 0.950 . S
H335 C347 0.950 1_545 S
C336 H328 0.950 . S
C336 C337 1.386 . S
C336 C338 1.391 . S
C337 C336 1.386 . S
C337 C341 1.393 . S
C338 H330 0.950 . S
C338 C336 1.391 . S
C338 C339 1.399 1_556 S
C339 C338 1.399 1_554 S
C339 C340 1.398 1_554 S
C339 C345 1.492 . S
C340 H331 0.950 1_556 S
C340 C339 1.398 1_556 S
C340 C341 1.391 . S
C341 H329 0.950 . S
C341 C337 1.393 . S
C341 C340 1.391 . S
C342 H332 0.950 . S
C342 C343 1.386 . S
C342 C344 1.391 . S
C343 C342 1.386 . S
C343 C347 1.393 . S
C344 H333 0.950 . S
C344 C342 1.391 . S
C344 C345 1.400 . S
C345 C339 1.492 . S
C345 C344 1.400 . S
C345 C346 1.398 . S
C346 H334 0.950 . S
C346 C345 1.398 . S
C346 C347 1.391 . S
C347 H335 0.950 1_565 S
C347 C343 1.393 . S
C347 C346 1.391 . S
H348 C356 0.950 . S
H349 C361 0.950 . S
H350 C358 0.950 . S
H351 C360 0.950 1_556 S
H352 C362 0.950 . S
H353 C364 0.950 . S
H354 C366 0.950 . S
H355 C367 0.950 . S
C356 H348 0.950 . S
C356 C357 1.386 . S
C356 C358 1.391 . S
C357 C356 1.386 . S
C357 C361 1.393 . S
C358 H350 0.950 . S
C358 C356 1.391 . S
C358 C359 1.398 1_554 S
C359 C358 1.398 1_556 S
C359 C360 1.398 1_556 S
C359 C365 1.493 . S
C360 H351 0.950 1_554 S
C360 C359 1.398 1_554 S
C360 C361 1.391 . S
C361 H349 0.950 . S
C361 C357 1.393 . S
C361 C360 1.391 . S
C362 H352 0.950 . S
C362 C363 1.386 . S
C362 C364 1.391 . S
C363 C362 1.386 . S
C363 C367 1.393 . S
C364 H353 0.950 . S
C364 C362 1.391 . S
C364 C365 1.400 . S
C365 C359 1.493 . S
C365 C364 1.400 . S
C365 C366 1.398 . S
C366 H354 0.950 . S
C366 C365 1.398 . S
C366 C367 1.391 . S
C367 H355 0.950 . S
C367 C363 1.393 . S
C367 C366 1.391 . S
H368 C376 0.950 . S
H369 C381 0.950 . S
H370 C378 0.950 . S
H371 C380 0.950 . S
H372 C382 0.950 . S
H373 C384 0.950 . S
H374 C386 0.950 . S
H375 C387 0.963 . S
C376 H368 0.950 . S
C376 C377 1.386 . S
C376 C378 1.391 . S
C377 C376 1.386 . S
C377 C381 1.393 . S
C378 H370 0.950 . S
C378 C376 1.391 . S
C378 C379 1.400 . S
C379 C378 1.400 . S
C379 C380 1.398 . S
C379 C385 1.491 . S
C380 H371 0.950 . S
C380 C379 1.398 . S
C380 C381 1.391 . S
C381 H369 0.950 . S
C381 C377 1.393 . S
C381 C380 1.391 . S
C382 H372 0.950 . S
C382 C383 1.386 . S
C382 C384 1.391 . S
C383 C382 1.386 . S
C383 C387 1.393 . S
C384 H373 0.950 . S
C384 C382 1.391 . S
C384 C385 1.400 . S
C385 C379 1.491 . S
C385 C384 1.400 . S
C385 C386 1.398 . S
C386 H374 0.950 . S
C386 C385 1.398 . S
C386 C387 1.391 . S
C387 H375 0.963 . S
C387 C383 1.393 . S
C387 C386 1.391 . S
H388 C396 0.950 . S
H389 C401 0.950 . S
H390 C398 0.950 . S
H391 C400 0.950 . S
H392 C402 0.950 . S
H393 C404 0.950 . S
H394 C406 0.950 . S
H395 C407 0.950 . S
C396 H388 0.950 . S
C396 C397 1.386 . S
C396 C398 1.391 . S
C397 C396 1.386 . S
C397 C401 1.393 . S
C398 H390 0.950 . S
C398 C396 1.391 . S
C398 C399 1.400 . S
C399 C398 1.400 . S
C399 C400 1.398 . S
C399 C405 1.491 . S
C400 H391 0.950 . S
C400 C399 1.398 . S
C400 C401 1.391 . S
C401 H389 0.950 . S
C401 C397 1.393 . S
C401 C400 1.391 . S
C402 H392 0.950 . S
C402 C403 1.386 . S
C402 C404 1.391 . S
C403 C402 1.386 . S
C403 C407 1.393 . S
C404 H393 0.950 . S
C404 C402 1.391 . S
C404 C405 1.400 . S
C405 C399 1.491 . S
C405 C404 1.400 . S
C405 C406 1.398 . S
C406 H394 0.950 . S
C406 C405 1.398 . S
C406 C407 1.391 . S
C407 H395 0.950 . S
C407 C403 1.393 . S
C407 C406 1.391 . S
H408 C416 0.950 . S
H409 C421 0.950 . S
H410 C418 0.950 . S
H411 C420 0.950 . S
H412 C422 0.950 . S
H413 C424 0.950 . S
H414 C426 0.950 . S
H415 C427 0.950 . S
C416 H408 0.950 . S
C416 C417 1.386 . S
C416 C418 1.391 . S
C417 C416 1.386 . S
C417 C421 1.393 . S
C418 H410 0.950 . S
C418 C416 1.391 . S
C418 C419 1.400 . S
C419 C418 1.400 . S
C419 C420 1.398 . S
C419 C425 1.491 . S
C420 H411 0.950 . S
C420 C419 1.398 . S
C420 C421 1.391 . S
C421 H409 0.950 . S
C421 C417 1.393 . S
C421 C420 1.391 . S
C422 H412 0.950 . S
C422 C423 1.386 . S
C422 C424 1.391 . S
C423 C422 1.386 . S
C423 C427 1.393 . S
C424 H413 0.950 . S
C424 C422 1.391 . S
C424 C425 1.400 . S
C425 C419 1.491 . S
C425 C424 1.400 . S
C425 C426 1.398 . S
C426 H414 0.950 . S
C426 C425 1.398 . S
C426 C427 1.391 . S
C427 H415 0.950 . S
C427 C423 1.393 . S
C427 C426 1.391 . S
H428 C436 0.950 . S
H429 C441 0.950 1_655 S
H430 C438 0.950 . S
H431 C440 0.950 . S
H432 C442 0.950 . S
H433 C444 0.950 . S
H434 C446 0.950 . S
H435 C447 0.950 . S
C436 H428 0.950 . S
C436 C437 1.386 . S
C436 C438 1.391 . S
C437 C436 1.386 . S
C437 C441 1.393 . S
C438 H430 0.950 . S
C438 C436 1.391 . S
C438 C439 1.400 . S
C439 C438 1.400 . S
C439 C440 1.398 . S
C439 C445 1.491 . S
C440 H431 0.950 . S
C440 C439 1.398 . S
C440 C441 1.391 . S
C441 H429 0.950 1_455 S
C441 C437 1.393 . S
C441 C440 1.391 . S
C442 H432 0.950 . S
C442 C443 1.386 . S
C442 C444 1.391 . S
C443 C442 1.386 . S
C443 C447 1.393 . S
C444 H433 0.950 . S
C444 C442 1.391 . S
C444 C445 1.400 . S
C445 C439 1.491 . S
C445 C444 1.400 . S
C445 C446 1.398 . S
C446 H434 0.950 . S
C446 C445 1.398 . S
C446 C447 1.391 . S
C447 H435 0.950 . S
C447 C443 1.393 . S
C447 C446 1.391 . S
H448 C456 0.950 . S
H449 C461 0.950 . S
H450 C458 0.950 . S
H451 C460 0.950 . S
H452 C462 0.950 . S
H453 C464 0.950 . S
H454 C466 0.950 . S
H455 C467 0.950 . S
C456 H448 0.950 . S
C456 C457 1.386 . S
C456 C458 1.391 . S
C457 C456 1.386 . S
C457 C461 1.393 . S
C458 H450 0.950 . S
C458 C456 1.391 . S
C458 C459 1.400 . S
C459 C458 1.400 . S
C459 C460 1.398 . S
C459 C465 1.491 . S
C460 H451 0.950 . S
C460 C459 1.398 . S
C460 C461 1.391 . S
C461 H449 0.950 . S
C461 C457 1.393 . S
C461 C460 1.391 . S
C462 H452 0.950 . S
C462 C463 1.386 . S
C462 C464 1.391 . S
C463 C462 1.386 . S
C463 C467 1.393 . S
C464 H453 0.950 . S
C464 C462 1.391 . S
C464 C465 1.400 . S
C465 C459 1.491 . S
C465 C464 1.400 . S
C465 C466 1.398 . S
C466 H454 0.950 . S
C466 C465 1.398 . S
C466 C467 1.391 . S
C467 H455 0.950 . S
C467 C463 1.393 . S
C467 C466 1.391 . S
H468 C476 0.950 . S
H469 C481 0.950 . S
H470 C478 0.950 . S
H471 C480 0.950 . S
H472 C482 0.950 . S
H473 C484 0.950 . S
H474 C486 0.950 . S
H475 C487 0.950 . S
C476 H468 0.950 . S
C476 C477 1.386 . S
C476 C478 1.391 . S
C477 C476 1.386 . S
C477 C481 1.393 . S
C478 H470 0.950 . S
C478 C476 1.391 . S
C478 C479 1.400 . S
C479 C478 1.400 . S
C479 C480 1.398 . S
C479 C485 1.491 . S
C480 H471 0.950 . S
C480 C479 1.398 . S
C480 C481 1.391 . S
C481 H469 0.950 . S
C481 C477 1.393 . S
C481 C480 1.391 . S
C482 H472 0.950 . S
C482 C483 1.386 . S
C482 C484 1.391 . S
C483 C482 1.386 . S
C483 C487 1.393 . S
C484 H473 0.950 . S
C484 C482 1.391 . S
C484 C485 1.400 . S
C485 C479 1.491 . S
C485 C484 1.400 . S
C485 C486 1.398 . S
C486 H474 0.950 . S
C486 C485 1.398 . S
C486 C487 1.391 . S
C487 H475 0.950 . S
C487 C483 1.393 . S
C487 C486 1.391 . S
H488 C496 0.950 . S
H489 C501 0.950 . S
H490 C498 0.950 . S
H491 C500 0.950 . S
H492 C502 0.950 . S
H493 C504 0.950 . S
H494 C506 0.950 . S
H495 C507 0.950 . S
C496 H488 0.950 . S
C496 C497 1.386 . S
C496 C498 1.391 . S
C497 C496 1.386 . S
C497 C501 1.393 . S
C498 H490 0.950 . S
C498 C496 1.391 . S
C498 C499 1.400 . S
C499 C498 1.400 . S
C499 C500 1.398 . S
C499 C505 1.491 . S
C500 H491 0.950 . S
C500 C499 1.398 . S
C500 C501 1.391 . S
C501 H489 0.950 . S
C501 C497 1.393 . S
C501 C500 1.391 . S
C502 H492 0.950 . S
C502 C503 1.386 . S
C502 C504 1.391 . S
C503 C502 1.386 . S
C503 C507 1.393 . S
C504 H493 0.950 . S
C504 C502 1.391 . S
C504 C505 1.400 . S
C505 C499 1.491 . S
C505 C504 1.400 . S
C505 C506 1.398 . S
C506 H494 0.950 . S
C506 C505 1.398 . S
C506 C507 1.391 . S
C507 H495 0.950 . S
C507 C503 1.393 . S
C507 C506 1.391 . S
H508 C516 0.950 . S
H509 C521 0.950 . S
H510 C518 0.950 . S
H511 C520 0.950 . S
H512 C522 0.950 . S
H513 C524 0.950 . S
H514 C526 0.950 . S
H515 C527 0.950 . S
C516 H508 0.950 . S
C516 C517 1.386 . S
C516 C518 1.391 . S
C517 C516 1.386 . S
C517 C521 1.393 . S
C518 H510 0.950 . S
C518 C516 1.391 . S
C518 C519 1.400 . S
C519 C518 1.400 . S
C519 C520 1.398 . S
C519 C525 1.491 . S
C520 H511 0.950 . S
C520 C519 1.398 . S
C520 C521 1.391 . S
C521 H509 0.950 . S
C521 C517 1.393 . S
C521 C520 1.391 . S
C522 H512 0.950 . S
C522 C523 1.386 . S
C522 C524 1.391 . S
C523 C522 1.386 . S
C523 C527 1.393 . S
C524 H513 0.950 . S
C524 C522 1.391 . S
C524 C525 1.400 . S
C525 C519 1.491 . S
C525 C524 1.400 . S
C525 C526 1.398 . S
C526 H514 0.950 . S
C526 C525 1.398 . S
C526 C527 1.391 . S
C527 H515 0.950 . S
C527 C523 1.393 . S
C527 C526 1.391 . S
H528 C536 0.950 . S
H529 C541 0.950 . S
H530 C538 0.950 . S
H531 C540 0.950 . S
H532 C542 0.950 . S
H533 C544 0.950 . S
H534 C546 0.950 . S
H535 C547 0.950 . S
C536 H528 0.950 . S
C536 C537 1.386 . S
C536 C538 1.391 . S
C537 C536 1.386 . S
C537 C541 1.393 . S
C538 H530 0.950 . S
C538 C536 1.391 . S
C538 C539 1.400 . S
C539 C538 1.400 . S
C539 C540 1.398 . S
C539 C545 1.491 . S
C540 H531 0.950 . S
C540 C539 1.398 . S
C540 C541 1.391 . S
C541 H529 0.950 . S
C541 C537 1.393 . S
C541 C540 1.391 . S
C542 H532 0.950 . S
C542 C543 1.386 . S
C542 C544 1.391 . S
C543 C542 1.386 . S
C543 C547 1.393 . S
C544 H533 0.950 . S
C544 C542 1.391 . S
C544 C545 1.400 . S
C545 C539 1.491 . S
C545 C544 1.400 . S
C545 C546 1.398 . S
C546 H534 0.950 . S
C546 C545 1.398 . S
C546 C547 1.391 . S
C547 H535 0.950 . S
C547 C543 1.393 . S
C547 C546 1.391 . S
H548 C556 0.950 . S
H549 C561 0.950 . S
H550 C558 0.950 . S
H551 C560 0.950 . S
H552 C562 0.950 . S
H553 C564 0.950 . S
H554 C566 0.950 . S
H555 C567 0.950 . S
C556 H548 0.950 . S
C556 C557 1.386 . S
C556 C558 1.391 . S
C557 C556 1.386 . S
C557 C561 1.393 . S
C558 H550 0.950 . S
C558 C556 1.391 . S
C558 C559 1.400 . S
C559 C558 1.400 . S
C559 C560 1.398 . S
C559 C565 1.491 . S
C560 H551 0.950 . S
C560 C559 1.398 . S
C560 C561 1.391 . S
C561 H549 0.950 . S
C561 C557 1.393 . S
C561 C560 1.391 . S
C562 H552 0.950 . S
C562 C563 1.386 . S
C562 C564 1.391 . S
C563 C562 1.386 . S
C563 C567 1.393 . S
C564 H553 0.950 . S
C564 C562 1.391 . S
C564 C565 1.400 . S
C565 C559 1.491 . S
C565 C564 1.400 . S
C565 C566 1.398 . S
C566 H554 0.950 . S
C566 C565 1.398 . S
C566 C567 1.391 . S
C567 H555 0.950 . S
C567 C563 1.393 . S
C567 C566 1.391 . S
H568 C576 0.950 . S
H569 C581 0.950 . S
H570 C578 0.950 . S
H571 C580 0.950 . S
H572 C582 0.950 . S
H573 C584 0.950 . S
H574 C586 0.950 . S
H575 C587 0.950 . S
C576 H568 0.950 . S
C576 C577 1.386 . S
C576 C578 1.391 . S
C577 C576 1.386 . S
C577 C581 1.393 . S
C578 H570 0.950 . S
C578 C576 1.391 . S
C578 C579 1.400 . S
C579 C578 1.400 . S
C579 C580 1.398 . S
C579 C585 1.491 . S
C580 H571 0.950 . S
C580 C579 1.398 . S
C580 C581 1.391 . S
C581 H569 0.950 . S
C581 C577 1.393 . S
C581 C580 1.391 . S
C582 H572 0.950 . S
C582 C583 1.386 . S
C582 C584 1.391 . S
C583 C582 1.386 . S
C583 C587 1.393 . S
C584 H573 0.950 . S
C584 C582 1.391 . S
C584 C585 1.400 . S
C585 C579 1.491 . S
C585 C584 1.400 . S
C585 C586 1.398 . S
C586 H574 0.950 . S
C586 C585 1.398 . S
C586 C587 1.391 . S
C587 H575 0.950 . S
C587 C583 1.393 . S
C587 C586 1.391 . S
H588 C596 0.950 . S
H589 C601 0.950 . S
H590 C598 0.950 . S
H591 C600 0.950 . S
H592 C602 0.950 . S
H593 C604 0.950 . S
H594 C606 0.950 . S
H595 C607 0.950 . S
C596 H588 0.950 . S
C596 C597 1.386 . S
C596 C598 1.391 . S
C597 C596 1.386 . S
C597 C601 1.393 . S
C598 H590 0.950 . S
C598 C596 1.391 . S
C598 C599 1.400 . S
C599 C598 1.400 . S
C599 C600 1.398 . S
C599 C605 1.491 . S
C600 H591 0.950 . S
C600 C599 1.398 . S
C600 C601 1.391 . S
C601 H589 0.950 . S
C601 C597 1.393 . S
C601 C600 1.391 . S
C602 H592 0.950 . S
C602 C603 1.386 . S
C602 C604 1.391 . S
C603 C602 1.386 . S
C603 C607 1.393 . S
C604 H593 0.950 . S
C604 C602 1.391 . S
C604 C605 1.400 . S
C605 C599 1.491 . S
C605 C604 1.400 . S
C605 C606 1.398 . S
C606 H594 0.950 . S
C606 C605 1.398 . S
C606 C607 1.391 . S
C607 H595 0.950 . S
C607 C603 1.393 . S
C607 C606 1.391 . S
H608 C616 0.950 . S
H609 C621 0.950 . S
H610 C618 0.950 . S
H611 C620 0.950 . S
H612 C622 0.950 . S
H613 C624 0.950 . S
H614 C626 0.950 . S
H615 C627 0.950 . S
C616 H608 0.950 . S
C616 C617 1.386 . S
C616 C618 1.391 . S
C617 C616 1.386 . S
C617 C621 1.393 . S
C618 H610 0.950 . S
C618 C616 1.391 . S
C618 C619 1.400 . S
C619 C618 1.400 . S
C619 C620 1.398 . S
C619 C625 1.491 . S
C620 H611 0.950 . S
C620 C619 1.398 . S
C620 C621 1.391 . S
C621 H609 0.950 . S
C621 C617 1.393 . S
C621 C620 1.391 . S
C622 H612 0.950 . S
C622 C623 1.386 . S
C622 C624 1.391 . S
C623 C622 1.386 . S
C623 C627 1.393 . S
C624 H613 0.950 . S
C624 C622 1.391 . S
C624 C625 1.400 . S
C625 C619 1.491 . S
C625 C624 1.400 . S
C625 C626 1.398 . S
C626 H614 0.950 . S
C626 C625 1.398 . S
C626 C627 1.391 . S
C627 H615 0.950 . S
C627 C623 1.393 . S
C627 C626 1.391 . S
H628 C636 0.950 . S
H629 C641 0.950 . S
H630 C638 0.950 . S
H631 C640 0.950 . S
H632 C642 0.950 . S
H633 C644 0.950 . S
H634 C646 0.950 . S
H635 C647 0.950 . S
C636 H628 0.950 . S
C636 C637 1.386 . S
C636 C638 1.391 . S
C637 C636 1.386 . S
C637 C641 1.393 . S
C638 H630 0.950 . S
C638 C636 1.391 . S
C638 C639 1.400 . S
C639 C638 1.400 . S
C639 C640 1.398 . S
C639 C645 1.491 . S
C640 H631 0.950 . S
C640 C639 1.398 . S
C640 C641 1.391 . S
C641 H629 0.950 . S
C641 C637 1.393 . S
C641 C640 1.391 . S
C642 H632 0.950 . S
C642 C643 1.386 . S
C642 C644 1.391 . S
C643 C642 1.386 . S
C643 C647 1.393 . S
C644 H633 0.950 . S
C644 C642 1.391 . S
C644 C645 1.400 . S
C645 C639 1.491 . S
C645 C644 1.400 . S
C645 C646 1.398 . S
C646 H634 0.950 . S
C646 C645 1.398 . S
C646 C647 1.391 . S
C647 H635 0.950 . S
C647 C643 1.393 . S
C647 C646 1.391 . S
H648 C656 0.950 . S
H649 C661 0.950 . S
H650 C658 0.950 . S
H651 C660 0.950 . S
H652 C662 0.950 . S
H653 C664 0.950 . S
H654 C666 0.950 . S
H655 C667 0.950 . S
C656 H648 0.950 . S
C656 C657 1.386 . S
C656 C658 1.391 . S
C657 C656 1.386 . S
C657 C661 1.393 . S
C658 H650 0.950 . S
C658 C656 1.391 . S
C658 C659 1.400 . S
C659 C658 1.400 . S
C659 C660 1.398 . S
C659 C665 1.491 . S
C660 H651 0.950 . S
C660 C659 1.398 . S
C660 C661 1.391 . S
C661 H649 0.950 . S
C661 C657 1.393 . S
C661 C660 1.391 . S
C662 H652 0.950 . S
C662 C663 1.386 . S
C662 C664 1.391 . S
C663 C662 1.386 . S
C663 C667 1.393 . S
C664 H653 0.950 . S
C664 C662 1.391 . S
C664 C665 1.400 . S
C665 C659 1.491 . S
C665 C664 1.400 . S
C665 C666 1.398 . S
C666 H654 0.950 . S
C666 C665 1.398 . S
C666 C667 1.391 . S
C667 H655 0.950 . S
C667 C663 1.393 . S
C667 C666 1.391 . S
H668 C676 0.950 . S
H669 C681 0.950 . S
H670 C678 0.950 . S
H671 C680 0.950 . S
H672 C682 0.950 . S
H673 C684 0.950 . S
H674 C686 0.950 . S
H675 C687 0.950 . S
C676 H668 0.950 . S
C676 C677 1.386 . S
C676 C678 1.391 . S
C677 C676 1.386 . S
C677 C681 1.393 . S
C678 H670 0.950 . S
C678 C676 1.391 . S
C678 C679 1.400 . S
C679 C678 1.400 . S
C679 C680 1.398 . S
C679 C685 1.491 . S
C680 H671 0.950 . S
C680 C679 1.398 . S
C680 C681 1.391 . S
C681 H669 0.950 . S
C681 C677 1.393 . S
C681 C680 1.391 . S
C682 H672 0.950 . S
C682 C683 1.386 . S
C682 C684 1.391 . S
C683 C682 1.386 . S
C683 C687 1.393 . S
C684 H673 0.950 . S
C684 C682 1.391 . S
C684 C685 1.400 . S
C685 C679 1.491 . S
C685 C684 1.400 . S
C685 C686 1.398 . S
C686 H674 0.950 . S
C686 C685 1.398 . S
C686 C687 1.391 . S
C687 H675 0.950 . S
C687 C683 1.393 . S
C687 C686 1.391 . S
H688 C696 0.950 . S
H689 C701 0.950 1_455 S
H690 C698 0.950 . S
H691 C700 0.950 . S
H692 C702 0.950 . S
H693 C704 0.950 . S
H694 C706 0.950 . S
H695 C707 0.950 1_655 S
C696 H688 0.950 . S
C696 C697 1.386 . S
C696 C698 1.391 . S
C697 C696 1.386 . S
C697 C701 1.393 . S
C698 H690 0.950 . S
C698 C696 1.391 . S
C698 C699 1.400 . S
C699 C698 1.400 . S
C699 C700 1.398 1_655 S
C699 C705 1.491 1_665 S
C700 H691 0.950 . S
C700 C699 1.398 1_455 S
C700 C701 1.391 1_455 S
C701 H689 0.950 1_655 S
C701 C697 1.393 . S
C701 C700 1.391 1_655 S
C702 H692 0.950 . S
C702 C703 1.386 . S
C702 C704 1.391 . S
C703 C702 1.386 . S
C703 C707 1.393 . S
C704 H693 0.950 . S
C704 C702 1.391 . S
C704 C705 1.400 . S
C705 C699 1.491 1_445 S
C705 C704 1.400 . S
C705 C706 1.398 1_455 S
C706 H694 0.950 . S
C706 C705 1.398 1_655 S
C706 C707 1.391 1_655 S
C707 H695 0.950 1_455 S
C707 C703 1.393 . S
C707 C706 1.391 1_455 S
H708 C716 0.950 . S
H709 C721 0.951 1_565 S
H710 C718 0.950 . S
H711 C720 0.950 . S
H712 C722 0.950 . S
H713 C724 0.950 . S
H714 C726 0.950 . S
H715 C727 0.951 1_545 S
C716 H708 0.950 . S
C716 C717 1.386 . S
C716 C718 1.391 . S
C717 C716 1.386 . S
C717 C721 1.393 . S
C718 H710 0.950 . S
C718 C716 1.391 . S
C718 C719 1.400 . S
C719 C718 1.400 . S
C719 C720 1.398 1_545 S
C719 C725 1.491 1_645 S
C720 H711 0.950 . S
C720 C719 1.398 1_565 S
C720 C721 1.391 1_565 S
C721 H709 0.951 1_545 S
C721 C717 1.393 . S
C721 C720 1.391 1_545 S
C722 H712 0.950 . S
C722 C723 1.386 . S
C722 C724 1.391 . S
C723 C722 1.386 . S
C723 C727 1.393 . S
C724 H713 0.950 . S
C724 C722 1.391 . S
C724 C725 1.400 . S
C725 C719 1.491 1_465 S
C725 C724 1.400 . S
C725 C726 1.398 1_565 S
C726 H714 0.950 . S
C726 C725 1.398 1_545 S
C726 C727 1.391 1_545 S
C727 H715 0.951 1_565 S
C727 C723 1.393 . S
C727 C726 1.391 1_565 S
H728 C736 0.950 . S
H729 C741 0.950 1_655 S
H730 C738 0.950 . S
H731 C740 0.950 . S
H732 C742 0.950 . S
H733 C744 0.950 . S
H734 C746 0.950 . S
H735 C747 0.950 1_455 S
C736 H728 0.950 . S
C736 C737 1.386 . S
C736 C738 1.391 . S
C737 C736 1.386 . S
C737 C741 1.393 . S
C738 H730 0.950 . S
C738 C736 1.391 . S
C738 C739 1.400 . S
C739 C738 1.400 . S
C739 C740 1.398 1_455 S
C739 C745 1.491 1_455 S
C740 H731 0.950 . S
C740 C739 1.398 1_655 S
C740 C741 1.391 1_655 S
C741 H729 0.950 1_455 S
C741 C737 1.393 . S
C741 C740 1.391 1_455 S
C742 H732 0.950 . S
C742 C743 1.386 . S
C742 C744 1.391 . S
C743 C742 1.386 . S
C743 C747 1.393 . S
C744 H733 0.950 . S
C744 C742 1.391 . S
C744 C745 1.400 . S
C745 C739 1.491 1_655 S
C745 C744 1.400 . S
C745 C746 1.398 1_655 S
C746 H734 0.950 . S
C746 C745 1.398 1_455 S
C746 C747 1.391 1_455 S
C747 H735 0.950 1_655 S
C747 C743 1.393 . S
C747 C746 1.391 1_655 S
H748 C756 0.950 . S
H749 C761 0.950 1_545 S
H750 C758 0.950 . S
H751 C760 0.950 . S
H752 C762 0.950 . S
H753 C764 0.950 . S
H754 C766 0.950 . S
H755 C767 0.950 1_565 S
C756 H748 0.950 . S
C756 C757 1.386 . S
C756 C758 1.391 . S
C757 C756 1.386 . S
C757 C761 1.393 . S
C758 H750 0.950 . S
C758 C756 1.391 . S
C758 C759 1.400 . S
C759 C758 1.400 . S
C759 C760 1.398 1_565 S
C759 C765 1.491 1_565 S
C760 H751 0.950 . S
C760 C759 1.398 1_545 S
C760 C761 1.391 1_545 S
C761 H749 0.950 1_565 S
C761 C757 1.393 . S
C761 C760 1.391 1_565 S
C762 H752 0.950 . S
C762 C763 1.386 . S
C762 C764 1.391 . S
C763 C762 1.386 . S
C763 C767 1.393 . S
C764 H753 0.950 . S
C764 C762 1.391 . S
C764 C765 1.400 . S
C765 C759 1.491 1_545 S
C765 C764 1.400 . S
C765 C766 1.398 1_545 S
C766 H754 0.950 . S
C766 C765 1.398 1_565 S
C766 C767 1.391 1_565 S
C767 H755 0.950 1_545 S
C767 C763 1.393 . S
C767 C766 1.391 1_545 S
H768 C776 0.950 . S
H769 C781 0.950 . S
H770 C778 0.950 . S
H771 C780 0.950 . S
H772 C782 0.950 . S
H773 C784 0.950 . S
H774 C786 0.950 . S
H775 C787 0.950 . S
C776 H768 0.950 . S
C776 C777 1.386 . S
C776 C778 1.391 . S
C777 C776 1.386 . S
C777 C781 1.393 . S
C778 H770 0.950 . S
C778 C776 1.391 . S
C778 C779 1.400 . S
C779 C778 1.400 . S
C779 C780 1.398 . S
C779 C785 1.491 . S
C780 H771 0.950 . S
C780 C779 1.398 . S
C780 C781 1.391 . S
C781 H769 0.950 . S
C781 C777 1.393 . S
C781 C780 1.391 . S
C782 H772 0.950 . S
C782 C783 1.386 . S
C782 C784 1.391 . S
C783 C782 1.386 . S
C783 C787 1.393 . S
C784 H773 0.950 . S
C784 C782 1.391 . S
C784 C785 1.400 . S
C785 C779 1.491 . S
C785 C784 1.400 . S
C785 C786 1.398 . S
C786 H774 0.950 . S
C786 C785 1.398 . S
C786 C787 1.391 . S
C787 H775 0.950 . S
C787 C783 1.393 . S
C787 C786 1.391 . S
H788 C796 0.950 . S
H789 C801 0.950 . S
H790 C798 0.950 . S
H791 C800 0.950 . S
H792 C802 0.950 . S
H793 C804 0.950 . S
H794 C806 0.950 . S
H795 C807 0.950 . S
C796 H788 0.950 . S
C796 C797 1.386 . S
C796 C798 1.391 . S
C797 C796 1.386 . S
C797 C801 1.393 . S
C798 H790 0.950 . S
C798 C796 1.391 . S
C798 C799 1.400 . S
C799 C798 1.400 . S
C799 C800 1.398 . S
C799 C805 1.491 . S
C800 H791 0.950 . S
C800 C799 1.398 . S
C800 C801 1.391 . S
C801 H789 0.950 . S
C801 C797 1.393 . S
C801 C800 1.391 . S
C802 H792 0.950 . S
C802 C803 1.386 . S
C802 C804 1.391 . S
C803 C802 1.386 . S
C803 C807 1.393 . S
C804 H793 0.950 . S
C804 C802 1.391 . S
C804 C805 1.400 . S
C805 C799 1.491 . S
C805 C804 1.400 . S
C805 C806 1.398 . S
C806 H794 0.950 . S
C806 C805 1.398 . S
C806 C807 1.391 . S
C807 H795 0.950 . S
C807 C803 1.393 . S
C807 C806 1.391 . S
H808 C816 0.950 . S
H809 C821 0.950 . S
H810 C818 0.950 . S
H811 C820 0.950 . S
H812 C822 0.950 . S
H813 C824 0.950 . S
H814 C826 0.950 . S
H815 C827 0.950 . S
C816 H808 0.950 . S
C816 C817 1.386 . S
C816 C818 1.391 . S
C817 C816 1.386 . S
C817 C821 1.393 . S
C818 H810 0.950 . S
C818 C816 1.391 . S
C818 C819 1.400 . S
C819 C818 1.400 . S
C819 C820 1.398 . S
C819 C825 1.491 1_545 S
C820 H811 0.950 . S
C820 C819 1.398 . S
C820 C821 1.391 . S
C821 H809 0.950 . S
C821 C817 1.393 . S
C821 C820 1.391 . S
C822 H812 0.950 . S
C822 C823 1.386 . S
C822 C824 1.391 . S
C823 C822 1.386 . S
C823 C827 1.393 . S
C824 H813 0.950 . S
C824 C822 1.391 . S
C824 C825 1.400 . S
C825 C819 1.491 1_565 S
C825 C824 1.400 . S
C825 C826 1.398 . S
C826 H814 0.950 . S
C826 C825 1.398 . S
C826 C827 1.391 . S
C827 H815 0.950 . S
C827 C823 1.393 . S
C827 C826 1.391 . S
H828 C836 0.950 . S
H829 C841 0.950 . S
H830 C838 0.950 . S
H831 C840 0.950 . S
H832 C842 0.950 . S
H833 C844 0.950 . S
H834 C846 0.950 . S
H835 C847 0.950 . S
C836 H828 0.950 . S
C836 C837 1.386 . S
C836 C838 1.391 . S
C837 C836 1.386 . S
C837 C841 1.393 . S
C838 H830 0.950 . S
C838 C836 1.391 . S
C838 C839 1.400 . S
C839 C838 1.400 . S
C839 C840 1.398 . S
C839 C845 1.491 1_655 S
C840 H831 0.950 . S
C840 C839 1.398 . S
C840 C841 1.391 . S
C841 H829 0.950 . S
C841 C837 1.393 . S
C841 C840 1.391 . S
C842 H832 0.950 . S
C842 C843 1.386 . S
C842 C844 1.391 . S
C843 C842 1.386 . S
C843 C847 1.393 . S
C844 H833 0.950 . S
C844 C842 1.391 . S
C844 C845 1.400 . S
C845 C839 1.491 1_455 S
C845 C844 1.400 . S
C845 C846 1.398 . S
C846 H834 0.950 . S
C846 C845 1.398 . S
C846 C847 1.391 . S
C847 H835 0.950 . S
C847 C843 1.393 . S
C847 C846 1.391 . S
C217 C5 1.178 . S
C223 C148 1.170 . S
C237 C107 1.155 . S
C243 C18 1.183 . S
C257 C120 1.165 . S
C263 C29 1.178 . S
C277 C135 1.156 . S
C283 C42 1.187 . S
C297 C68 1.180 1_545 S
C303 C57 1.185 . S
C317 C70 1.191 . S
C323 C83 1.172 1_455 S
C337 C81 1.187 . S
C343 C96 1.179 1_565 S
C357 C94 1.181 . S
C363 C55 1.178 1_655 S
C377 C109 1.187 . S
C383 C44 1.180 1_565 S
C397 C3 1.175 1_655 S
C403 C122 1.180 . S
C417 C16 1.161 1_545 S
C423 C133 1.190 . S
C437 C31 1.167 1_455 S
C443 C146 1.191 . S
C457 C172 1.168 . S
C463 C159 1.178 . S
C477 C174 1.186 . S
C483 C187 1.155 . S
C497 C200 1.168 . S
C503 C185 1.191 . S
C517 C161 1.161 . S
C523 C198 1.190 . S
C537 C186 1.726 . S
C543 C10 1.726 . S
C557 C199 1.732 . S
C563 C23 1.732 . S
C577 C160 1.730 . S
C583 C30 1.730 . S
C597 C43 1.732 . S
C603 C179 1.732 . S
C617 C62 1.731 . S
C623 C134 1.731 . S
C637 C147 1.725 . S
C643 C75 1.725 . S
C657 C82 1.718 . S
C663 C114 1.718 . S
C677 C95 1.720 . S
C683 C127 1.720 . S
C697 C36 1.369 . S
C703 C4 1.368 . S
C717 C49 1.362 . S
C723 C17 1.363 . S
C737 C56 1.363 . S
C743 C88 1.363 . S
C757 C69 1.366 . S
C763 C101 1.367 . S
C777 C140 1.365 . S
C783 C108 1.365 . S
C797 C121 1.373 . S
C803 C153 1.373 . S
C817 C192 1.364 . S
C823 C166 1.365 . S
C837 C173 1.367 . S
C843 C205 1.366 . S
