# Generated by pormake.
# Topology tfs, (6)-cn, num edge types: 1
# Building blocks:
#     Node 0, Type 0, BuildingBlock: UKALOJ_clean_sbu_0, # of connection points: 6
#     Node 1, Type 0, BuildingBlock: UKALOJ_clean_sbu_0, # of connection points: 6
#     Node 2, Type 0, BuildingBlock: UKALOJ_clean_sbu_0, # of connection points: 6
#     Node 3, Type 0, BuildingBlock: UKALOJ_clean_sbu_0, # of connection points: 6
#     Node 4, Type 0, BuildingBlock: UKALOJ_clean_sbu_0, # of connection points: 6
#     Node 5, Type 0, BuildingBlock: UKALOJ_clean_sbu_0, # of connection points: 6
#     Edge 6, Type (0, 0), BuildingBlock: XIVTED_clean_linker_0, # of connection points: 2
#     Edge 7, Type (0, 0), BuildingBlock: XIVTED_clean_linker_0, # of connection points: 2
#     Edge 8, Type (0, 0), BuildingBlock: XIVTED_clean_linker_0, # of connection points: 2
#     Edge 9, Type (0, 0), BuildingBlock: XIVTED_clean_linker_0, # of connection points: 2
#     Edge 10, Type (0, 0), BuildingBlock: XIVTED_clean_linker_0, # of connection points: 2
#     Edge 11, Type (0, 0), BuildingBlock: XIVTED_clean_linker_0, # of connection points: 2
#     Edge 12, Type (0, 0), BuildingBlock: XIVTED_clean_linker_0, # of connection points: 2
#     Edge 13, Type (0, 0), BuildingBlock: XIVTED_clean_linker_0, # of connection points: 2
#     Edge 14, Type (0, 0), BuildingBlock: XIVTED_clean_linker_0, # of connection points: 2
#     Edge 15, Type (0, 0), BuildingBlock: XIVTED_clean_linker_0, # of connection points: 2
#     Edge 16, Type (0, 0), BuildingBlock: XIVTED_clean_linker_0, # of connection points: 2
#     Edge 17, Type (0, 0), BuildingBlock: XIVTED_clean_linker_0, # of connection points: 2
#     Edge 18, Type (0, 0), BuildingBlock: XIVTED_clean_linker_0, # of connection points: 2
#     Edge 19, Type (0, 0), BuildingBlock: XIVTED_clean_linker_0, # of connection points: 2
#     Edge 20, Type (0, 0), BuildingBlock: XIVTED_clean_linker_0, # of connection points: 2
#     Edge 21, Type (0, 0), BuildingBlock: XIVTED_clean_linker_0, # of connection points: 2
#     Edge 22, Type (0, 0), BuildingBlock: XIVTED_clean_linker_0, # of connection points: 2
#     Edge 23, Type (0, 0), BuildingBlock: XIVTED_clean_linker_0, # of connection points: 2
# Relax obj value: 0.225
# Max RMSD: 0.157
# Mean RMSD: 0.157
data_MOF--net-tfs--node1-UKALOJ_clean_sbu_0--edge1-XIVTED_clean_linker_0
_symmetry_space_group_name_H-M    P1
_symmetry_Int_Tables_number       1
_symmetry_cell_setting            triclinic
loop_
_symmetry_equiv_pos_as_xyz
'x, y, z'
_cell_length_a     48.263997
_cell_length_b     48.184257
_cell_length_c     15.551988
_cell_angle_alpha  89.999542
_cell_angle_beta   90.008261
_cell_angle_gamma 120.08209
loop_
_atom_site_label
_atom_site_type_symbol
_atom_site_fract_x
_atom_site_fract_y
_atom_site_fract_z
_atom_type_partial_charge
Zn0 Zn 0.17493 0.44419 -0.01729 0.0
O1 O 0.17446 0.44399 0.11902 0.0
C2 C 0.24487 0.46925 -0.01583 0.0
Zn3 Zn 0.18582 0.40435 -0.01777 0.0
C4 C 0.17971 0.4242 0.15976 0.0
O5 O 0.18505 0.40469 0.11799 0.0
C6 C 0.18082 0.42419 0.80516 0.0
O7 O 0.13579 0.37004 0.98048 0.0
O8 O 0.12592 0.40983 -0.01804 0.0
N9 N 0.19636 0.36812 -0.01377 0.0
C10 C 0.22171 0.36644 0.95637 0.0
C11 C 0.19277 0.32369 0.02766 0.0
N12 N 0.17832 0.34144 0.0301 0.0
N13 N 0.22019 0.33894 -0.01775 0.0
C14 C 0.17883 0.51007 0.00972 0.0
C15 C 0.13862 0.50416 0.93784 0.0
N16 N 0.1637 0.47988 0.97869 0.0
N17 N 0.13863 0.47622 0.93447 0.0
N18 N 0.16372 0.52588 -0.01568 0.0
H19 H 0.22948 0.53532 0.0295 0.0
H20 H 0.20751 0.50422 0.10675 0.0
H21 H 0.20725 0.54155 0.11248 0.0
C22 C 0.20729 0.52346 0.06842 0.0
C23 C 0.24698 0.39089 0.89834 0.0
H24 H 0.23737 0.40335 0.85929 0.0
H25 H 0.25651 0.37939 0.85487 0.0
H26 H 0.26701 0.40903 0.93778 0.0
O27 O 0.18616 0.40446 0.84591 0.0
O28 O 0.17535 0.44362 0.84692 0.0
C29 C 0.11575 0.37988 0.98063 0.0
O30 O 0.22415 0.47811 -0.01786 0.0
O31 O 0.23557 0.43947 -0.01465 0.0
Zn32 Zn 0.73062 0.17452 -0.00062 0.0
O33 O 0.7299 0.17377 0.13563 0.0
C34 C 0.775 0.24488 0.00325 0.0
Zn35 Zn 0.78163 0.18648 -0.0014 0.0
C36 C 0.75495 0.17901 0.17627 0.0
O37 O 0.77985 0.1846 0.13441 0.0
C38 C 0.75725 0.18182 0.82171 0.0
O39 O 0.76657 0.13681 -0.00652 0.0
O40 O 0.7165 0.12541 -0.00198 0.0
N41 N 0.82845 0.19735 0.00338 0.0
C42 C 0.85557 0.22318 0.97557 0.0
C43 C 0.8692 0.1933 0.0426 0.0
N44 N 0.83697 0.17872 0.04458 0.0
N45 N 0.88145 0.22134 2e-05 0.0
C46 C 0.66795 0.17739 0.02222 0.0
C47 C 0.63464 0.13699 0.94876 0.0
N48 N 0.68354 0.16253 -0.00654 0.0
N49 N 0.66272 0.13734 0.94828 0.0
N50 N 0.63731 0.162 -0.0057 0.0
H51 H 0.70126 0.20604 0.12164 0.0
H52 H 0.66353 0.20553 0.12333 0.0
H53 H 0.693 0.22809 0.04257 0.0
C54 C 0.68224 0.2058 0.08128 0.0
C55 C 0.85667 0.24936 0.92095 0.0
H56 H 0.83475 0.24028 0.88139 0.0
H57 H 0.87792 0.25968 0.87814 0.0
H58 H 0.85843 0.26874 0.96302 0.0
O59 O 0.78256 0.18795 0.86238 0.0
O60 O 0.73209 0.1753 0.86355 0.0
C61 C 0.73687 0.11608 -0.00555 0.0
O62 O 0.74549 0.22383 -0.00035 0.0
O63 O 0.79573 0.23598 0.00472 0.0
Zn64 Zn 0.55756 0.73121 0.98001 0.0
O65 O 0.55748 0.73047 0.11624 0.0
C66 C 0.53215 0.77612 -0.0169 0.0
Zn67 Zn 0.59678 0.78224 0.97919 0.0
C68 C 0.57726 0.75559 0.15687 0.0
O69 O 0.5966 0.78053 0.11499 0.0
C70 C 0.57721 0.75782 0.80229 0.0
O71 O 0.631 0.76684 0.9753 0.0
O72 O 0.59218 0.71671 0.9792 0.0
N73 N 0.63314 0.82888 -0.01521 0.0
C74 C 0.63529 0.85641 0.95714 0.0
C75 C 0.6781 0.86894 0.02639 0.0
N76 N 0.65984 0.83672 0.02738 0.0
N77 N 0.66317 0.88192 -0.01686 0.0
C78 C 0.49182 0.66874 0.00454 0.0
C79 C 0.4982 0.63491 0.93161 0.0
N80 N 0.52209 0.68413 0.97449 0.0
N81 N 0.52604 0.663 0.92962 0.0
N82 N 0.47625 0.63791 0.97785 0.0
H83 H 0.49714 0.70275 0.10276 0.0
H84 H 0.4599 0.66496 0.10669 0.0
H85 H 0.4664 0.69392 0.02475 0.0
C86 C 0.47813 0.68342 0.06352 0.0
C87 C 0.61093 0.85812 0.901 0.0
H88 H 0.59814 0.83633 0.86076 0.0
H89 H 0.62251 0.87956 0.85881 0.0
H90 H 0.5931 0.85989 0.94198 0.0
O91 O 0.59653 0.78315 0.84295 0.0
O92 O 0.55835 0.73267 0.84416 0.0
C93 C 0.62192 0.7371 0.97646 0.0
O94 O 0.52346 0.74651 0.98 0.0
O95 O 0.56184 0.79679 -0.01577 0.0
Zn96 Zn 0.82684 0.55822 -0.00165 0.0
O97 O 0.82817 0.55875 0.13398 0.0
C98 C 0.75664 0.53316 -0.00058 0.0
Zn99 Zn 0.81547 0.59772 -0.00447 0.0
C100 C 0.82202 0.578 0.17422 0.0
O101 O 0.8158 0.59683 0.13196 0.0
C102 C 0.8204 0.57799 0.81964 0.0
O103 O 0.86512 0.63189 -0.00522 0.0
O104 O 0.87625 0.59298 -0.00466 0.0
N105 N 0.80529 0.63414 0.00012 0.0
C106 C 0.78025 0.63632 0.97004 0.0
C107 C 0.80987 0.6791 0.04055 0.0
N108 N 0.82375 0.66083 0.04353 0.0
N109 N 0.78241 0.66417 -0.00476 0.0
C110 C 0.82278 0.49215 0.02323 0.0
C111 C 0.86334 0.49846 0.95238 0.0
N112 N 0.83808 0.52253 -0.00647 0.0
N113 N 0.86337 0.52643 0.94994 0.0
N114 N 0.838 0.47647 -0.0024 0.0
H115 H 0.79407 0.49742 0.12108 0.0
H116 H 0.79337 0.45958 0.12305 0.0
H117 H 0.77203 0.46751 0.0407 0.0
C118 C 0.794 0.47844 0.08076 0.0
C119 C 0.75463 0.61195 0.91266 0.0
H120 H 0.7639 0.59921 0.87342 0.0
H121 H 0.74515 0.62354 0.86932 0.0
H122 H 0.73467 0.59406 0.95283 0.0
O123 O 0.81553 0.59812 0.85987 0.0
O124 O 0.82548 0.55838 0.86193 0.0
C125 C 0.88571 0.6228 -0.00577 0.0
O126 O 0.77723 0.52413 0.00146 0.0
O127 O 0.76595 0.5629 -0.00402 0.0
Zn128 Zn 0.27128 0.8278 -0.0071 0.0
O129 O 0.27201 0.82859 0.12913 0.0
C130 C 0.22666 0.7574 -0.00386 0.0
Zn131 Zn 0.22027 0.81587 -0.00799 0.0
C132 C 0.24693 0.82323 0.16974 0.0
O133 O 0.22202 0.81756 0.12784 0.0
C134 C 0.24468 0.82063 0.81516 0.0
O135 O 0.23557 0.86568 -0.01262 0.0
O136 O 0.28561 0.87694 -0.00857 0.0
N137 N 0.17348 0.80503 -0.0026 0.0
C138 C 0.14621 0.77938 0.96942 0.0
C139 C 0.13301 0.80901 0.03942 0.0
N140 N 0.16521 0.82348 0.04049 0.0
N141 N 0.12044 0.78115 -0.00428 0.0
C142 C 0.33361 0.82447 0.0172 0.0
C143 C 0.36734 0.8646 0.94369 0.0
N144 N 0.31831 0.83948 -0.01255 0.0
N145 N 0.33938 0.86451 0.94223 0.0
N146 N 0.36432 0.83959 -0.01008 0.0
H147 H 0.29989 0.79601 0.11616 0.0
H148 H 0.33751 0.79634 0.11927 0.0
H149 H 0.30828 0.77379 0.03802 0.0
C150 C 0.319 0.79613 0.0765 0.0
C151 C 0.14496 0.75362 0.9127 0.0
H152 H 0.16684 0.76297 0.87287 0.0
H153 H 0.12367 0.7437 0.87005 0.0
H154 H 0.14326 0.73391 0.95321 0.0
O155 O 0.2194 0.81459 0.8558 0.0
O156 O 0.26981 0.827 0.85705 0.0
C157 C 0.2653 0.88635 -0.01192 0.0
O158 O 0.25618 0.77843 -0.00688 0.0
O159 O 0.20595 0.76632 -0.0026 0.0
Zn160 Zn 0.44497 0.27186 0.97016 0.0
O161 O 0.44597 0.27251 0.10636 0.0
C162 C 0.47097 0.22732 0.97134 0.0
Zn163 Zn 0.40621 0.22058 0.96918 0.0
C164 C 0.4262 0.24737 0.14693 0.0
O165 O 0.40669 0.22251 0.105 0.0
C166 C 0.42493 0.24513 0.79235 0.0
O167 O 0.37175 0.23568 0.96566 0.0
O168 O 0.40999 0.28602 0.97204 0.0
N169 N 0.36998 0.17384 0.97546 0.0
C170 C 0.36773 0.14628 0.94769 0.0
C171 C 0.32514 0.13381 0.0179 0.0
N172 N 0.34341 0.16603 0.01866 0.0
N173 N 0.33993 0.12079 0.9742 0.0
C174 C 0.50949 0.33628 0.00061 0.0
C175 C 0.50404 0.36701 0.9124 0.0
N176 N 0.48022 0.31914 0.96435 0.0
N177 N 0.47686 0.33843 0.91027 0.0
N178 N 0.52514 0.36654 0.96843 0.0
H179 H 0.50745 0.29675 0.07302 0.0
H180 H 0.52365 0.33362 0.12917 0.0
H181 H 0.5473 0.32882 0.04699 0.0
C182 C 0.52273 0.32291 0.0654 0.0
C183 C 0.39192 0.14454 0.89095 0.0
H184 H 0.40474 0.1664 0.85097 0.0
H185 H 0.38018 0.12317 0.84852 0.0
H186 H 0.40973 0.14258 0.93149 0.0
O187 O 0.40623 0.21954 0.83295 0.0
O188 O 0.44332 0.27045 0.83428 0.0
C189 C 0.38034 0.26529 0.96842 0.0
O190 O 0.47919 0.25678 0.96682 0.0
O191 O 0.44138 0.20633 0.97392 0.0
H192 H 0.31505 0.22774 0.95478 0.0
H193 H 0.28454 0.37566 0.0012 0.0
H194 H 0.39051 0.32637 0.97952 0.0
H195 H 0.20898 0.27901 0.95163 0.0
H196 H 0.3236 0.3578 -0.00698 0.0
H197 H 0.27569 0.24558 0.95419 0.0
C198 C 0.32336 0.25314 0.96007 0.0
C199 C 0.35616 0.27559 0.96741 0.0
C200 C 0.29854 0.34048 -0.01713 0.0
C201 C 0.31121 0.29614 0.9668 0.0
C202 C 0.27626 0.3508 -0.01362 0.0
C203 C 0.2436 0.32894 0.97422 0.0
C204 C 0.28808 0.30792 0.96839 0.0
C205 C 0.23403 0.29661 0.96021 0.0
C206 C 0.30086 0.26331 0.95958 0.0
C207 C 0.3655 0.30819 0.97386 0.0
N208 N 0.25617 0.28704 0.95755 0.0
N209 N 0.34316 0.31745 0.97359 0.0
H210 H 0.06792 0.39382 0.96179 0.0
H211 H 0.90838 0.2845 0.03518 0.0
H212 H 0.084 0.31405 -0.00464 0.0
H213 H 0.93053 0.21199 0.95823 0.0
H214 H 0.96495 0.3245 0.02939 0.0
H215 H 0.01067 0.35685 0.9618 0.0
C216 C 0.05937 0.36847 0.97021 0.0
C217 C 0.08086 0.35709 0.97964 0.0
C218 C 0.95764 0.30014 0.01098 0.0
C219 C 0.01477 0.31433 -0.01723 0.0
C220 C 0.92521 0.27727 0.01432 0.0
C221 C 0.91478 0.24521 -0.00604 0.0
C222 C 0.97996 0.29091 -0.01306 0.0
C223 C 0.93775 0.23667 0.97272 0.0
C224 C 0.02649 0.34729 0.97114 0.0
C225 C 0.06829 0.3239 -0.01145 0.0
N226 N 0.96934 0.25943 0.96952 0.0
N227 N 0.03603 0.30366 -0.00994 0.0
H228 H 0.67538 0.06601 0.00164 0.0
H229 H 0.72343 0.92992 0.95361 0.0
H230 H 0.7732 0.08709 0.97787 0.0
H231 H 0.6278 0.91079 0.0061 0.0
H232 H 0.74217 0.98763 0.95366 0.0
H233 H 0.65739 0.00894 -0.00562 0.0
C234 C 0.69312 0.05865 -0.00507 0.0
C235 C 0.72588 0.08141 -0.00942 0.0
C236 C 0.71701 0.97077 0.96418 0.0
C237 C 0.70535 0.0159 -0.01802 0.0
C238 C 0.70637 0.93794 0.96397 0.0
C239 C 0.67391 0.9156 0.97737 0.0
C240 C 0.69501 0.98128 0.97876 0.0
C241 C 0.65275 0.92707 -0.00805 0.0
C242 C 0.6828 0.02601 -0.00923 0.0
C243 C 0.74771 0.07039 0.98172 0.0
N244 N 0.66366 0.95909 -0.0078 0.0
N245 N 0.73705 0.03839 0.97768 0.0
H246 H 0.79519 0.72442 0.96186 0.0
H247 H 0.61035 0.67554 -0.01536 0.0
H248 H 0.71797 0.62882 0.01389 0.0
H249 H 0.68741 0.77367 0.96529 0.0
H250 H 0.64955 0.65778 -0.0152 0.0
H251 H 0.75622 0.74295 0.95347 0.0
C252 C 0.76998 0.70733 0.97047 0.0
C253 C 0.75964 0.67492 -0.01395 0.0
C254 C 0.65793 0.6832 0.98049 0.0
C255 C 0.71507 0.69576 0.97763 0.0
C256 C 0.63553 0.69339 0.98032 0.0
C257 C 0.6456 0.72618 0.97526 0.0
C258 C 0.69072 0.70592 0.97535 0.0
C259 C 0.67858 0.74816 0.96958 0.0
C260 C 0.74779 0.71784 0.9658 0.0
C261 C 0.72682 0.65371 -0.0018 0.0
N262 N 0.69998 0.73763 0.96984 0.0
N263 N 0.70573 0.66449 -0.0064 0.0
H264 H 0.09218 0.71663 0.01574 0.0
H265 H 0.91443 0.68828 -0.01768 0.0
H266 H 0.07204 0.79279 0.96719 0.0
H267 H 0.936 0.61166 0.00042 0.0
H268 H 0.97182 0.72708 0.9786 0.0
H269 H 0.03498 0.67791 0.01082 0.0
C270 C 0.07574 0.7251 0.00179 0.0
C271 C 0.08689 0.75784 -0.01097 0.0
C272 C 0.96398 0.70177 -0.01677 0.0
C273 C 0.02112 0.71378 -0.01296 0.0
C274 C 0.93121 0.6796 -0.01446 0.0
C275 C 0.92035 0.64664 -0.00814 0.0
C276 C 0.9861 0.69095 -0.01236 0.0
C277 C 0.94323 0.63681 -0.0044 0.0
C278 C 0.043 0.70303 0.00016 0.0
C279 C 0.06433 0.76767 0.9762 0.0
N280 N 0.97498 0.65886 -0.00637 0.0
N281 N 0.03249 0.74574 0.97545 0.0
H282 H 0.32689 0.93628 -0.00608 0.0
H283 H 0.27948 0.07287 0.94639 0.0
H284 H 0.22916 0.91559 0.97203 0.0
H285 H 0.37524 0.09172 -0.0047 0.0
H286 H 0.26051 0.01511 0.94701 0.0
H287 H 0.34512 0.99338 -0.01427 0.0
C288 C 0.30922 0.94373 -0.01255 0.0
C289 C 0.27641 0.92106 -0.01611 0.0
C290 C 0.28575 0.03192 0.9566 0.0
C291 C 0.29722 0.98664 0.9742 0.0
C292 C 0.29652 0.06478 0.95604 0.0
C293 C 0.32907 0.08706 0.96834 0.0
C294 C 0.3077 0.0213 0.97042 0.0
C295 C 0.3502 0.07549 -0.01797 0.0
C296 C 0.31967 0.9764 -0.01726 0.0
C297 C 0.25467 0.93222 0.97528 0.0
N298 N 0.33916 0.04344 -0.01734 0.0
N299 N 0.26547 0.96424 0.97071 0.0
H300 H 0.16702 0.70607 0.02996 0.0
H301 H 0.22339 0.57692 0.96481 0.0
H302 H 0.26355 0.73013 0.96604 0.0
H303 H 0.12569 0.55075 0.01822 0.0
H304 H 0.23883 0.63339 0.97286 0.0
H305 H 0.15141 0.64927 0.03155 0.0
C306 C 0.18492 0.69944 0.01611 0.0
C307 C 0.21667 0.72294 -0.00212 0.0
C308 C 0.21404 0.61539 -0.01623 0.0
C309 C 0.19904 0.65804 0.00025 0.0
C310 C 0.20532 0.58312 0.98037 0.0
C311 C 0.17339 0.55922 -0.00661 0.0
C312 C 0.19057 0.62389 -0.00061 0.0
C313 C 0.15062 0.56859 0.00882 0.0
C314 C 0.17602 0.66702 0.01736 0.0
C315 C 0.2389 0.71294 0.98126 0.0
N316 N 0.15964 0.60023 0.01156 0.0
N317 N 0.22966 0.6813 -0.01722 0.0
H318 H 0.5359 0.26607 0.95941 0.0
H319 H 0.57393 0.12326 0.01941 0.0
H320 H 0.46266 0.16716 -0.00434 0.0
H321 H 0.6459 0.22175 0.97434 0.0
H322 H 0.5327 0.13885 0.01627 0.0
H323 H 0.57659 0.25037 0.96997 0.0
C324 C 0.52833 0.241 0.96928 0.0
C325 C 0.49574 0.21785 0.97597 0.0
C326 C 0.55756 0.15712 0.00814 0.0
C327 C 0.54235 0.1997 -0.01141 0.0
C328 C 0.58101 0.14823 0.01013 0.0
C329 C 0.61337 0.17138 -0.0005 0.0
C330 C 0.56658 0.1894 -0.00566 0.0
C331 C 0.62141 0.20335 -0.01379 0.0
C332 C 0.55162 0.23205 0.97545 0.0
C333 C 0.48744 0.18576 -0.01078 0.0
N334 N 0.59818 0.2114 -0.01607 0.0
N335 N 0.51059 0.17764 -0.00494 0.0
H336 H 0.42537 0.64656 0.95741 0.0
H337 H 0.29594 0.46037 0.01577 0.0
H338 H 0.4513 0.57466 0.00869 0.0
H339 H 0.27246 0.53357 0.9548 0.0
H340 H 0.35275 0.50147 0.01768 0.0
H341 H 0.36898 0.60536 0.96285 0.0
C342 C 0.41912 0.62216 0.97196 0.0
C343 C 0.44293 0.61408 -0.01475 0.0
C344 C 0.33512 0.5085 0.00401 0.0
C345 C 0.37835 0.5664 -0.0118 0.0
C346 C 0.30269 0.48503 0.00256 0.0
C347 C 0.27936 0.49353 -0.01477 0.0
C348 C 0.34423 0.54067 -0.01198 0.0
C349 C 0.28951 0.52591 0.96936 0.0
C350 C 0.3869 0.59851 0.97384 0.0
C351 C 0.43352 0.58178 -0.00078 0.0
N352 N 0.32113 0.54824 0.97113 0.0
N353 N 0.40192 0.55906 0.00054 0.0
H354 H 0.77839 0.42554 0.9757 0.0
H355 H 0.83448 0.29609 0.03919 0.0
H356 H 0.87587 0.45141 0.03118 0.0
H357 H 0.73821 0.27224 0.97264 0.0
H358 H 0.85007 0.35286 0.04195 0.0
H359 H 0.7629 0.36901 0.98191 0.0
C360 C 0.79639 0.41925 -0.00875 0.0
C361 C 0.82828 0.44308 0.00543 0.0
C362 C 0.82553 0.33517 0.02689 0.0
C363 C 0.81105 0.37837 0.0094 0.0
C364 C 0.81663 0.30276 0.02493 0.0
C365 C 0.78497 0.27933 0.0056 0.0
C366 C 0.80258 0.34421 0.0094 0.0
C367 C 0.76279 0.28938 -0.01136 0.0
C368 C 0.78766 0.38696 -0.00636 0.0
C369 C 0.85098 0.43362 0.02091 0.0
N370 N 0.77202 0.32102 -0.00914 0.0
N371 N 0.84194 0.40197 0.02266 0.0
H372 H 0.35509 0.77971 0.96922 0.0
H373 H 0.54114 0.83599 0.01729 0.0
H374 H 0.42766 0.87763 0.01864 0.0
H375 H 0.46768 0.7393 0.95597 0.0
H376 H 0.50021 0.85172 0.02311 0.0
H377 H 0.39601 0.76418 0.97179 0.0
C378 C 0.37958 0.7978 -0.01719 0.0
C379 C 0.38794 0.82984 -0.00369 0.0
C380 C 0.49307 0.82706 0.00849 0.0
C381 C 0.43526 0.81253 -0.00409 0.0
C382 C 0.51645 0.81808 0.00479 0.0
C383 C 0.50785 0.78624 -0.01381 0.0
C384 C 0.46086 0.80402 -0.0065 0.0
C385 C 0.47542 0.76401 0.97138 0.0
C386 C 0.40306 0.78904 -0.01697 0.0
C387 C 0.42032 0.85263 0.00902 0.0
N388 N 0.45316 0.77332 0.97535 0.0
N389 N 0.44285 0.84355 0.00868 0.0
H390 H 0.72641 0.47625 0.08593 0.0
H391 H 0.56134 0.40926 0.84667 0.0
H392 H 0.70879 0.53583 0.91368 0.0
H393 H 0.56454 0.38345 0.11078 0.0
H394 H 0.61745 0.45124 0.8577 0.0
H395 H 0.66898 0.43632 0.08323 0.0
C396 C 0.71043 0.48084 0.04749 0.0
C397 C 0.72219 0.50928 -5e-05 0.0
C398 C 0.60579 0.43616 0.91296 0.0
C399 C 0.657 0.46383 -0.00422 0.0
C400 C 0.57377 0.41219 0.9069 0.0
C401 C 0.55816 0.39178 0.97692 0.0
C402 C 0.62263 0.43962 -0.01076 0.0
C403 C 0.57563 0.39707 0.05349 0.0
C404 C 0.67776 0.45824 0.0465 0.0
C405 C 0.70055 0.51432 0.95177 0.0
N406 N 0.60707 0.4202 0.05725 0.0
N407 N 0.66899 0.4916 0.95002 0.0
H408 H 0.16994 0.46301 0.69896 0.0
H409 H 0.1899 0.3849 0.26595 0.0
H410 H 0.19168 0.38632 0.69456 0.0
H411 H 0.17 0.46285 0.27037 0.0
H412 H 0.19038 0.3849 0.42284 0.0
H413 H 0.16969 0.46316 0.54208 0.0
C414 C 0.17468 0.44619 0.66504 0.0
C415 C 0.18081 0.42458 0.71008 0.0
C416 C 0.1859 0.402 0.38955 0.0
C417 C 0.18053 0.42464 0.53015 0.0
C418 C 0.1856 0.40202 0.29988 0.0
C419 C 0.17986 0.4239 0.25485 0.0
C420 C 0.18041 0.42401 0.43477 0.0
C421 C 0.17448 0.44552 0.30236 0.0
C422 C 0.17452 0.4463 0.57536 0.0
C423 C 0.1868 0.40337 0.66257 0.0
N424 N 0.17488 0.44502 0.38972 0.0
N425 N 0.18648 0.40392 0.5752 0.0
H426 H 0.7072 0.16994 0.71593 0.0
H427 H 0.80462 0.18961 0.2821 0.0
H428 H 0.80612 0.19359 0.71066 0.0
H429 H 0.70663 0.16897 0.28732 0.0
H430 H 0.80543 0.19062 0.43895 0.0
H431 H 0.70647 0.16917 0.55908 0.0
C432 C 0.7288 0.17501 0.68182 0.0
C433 C 0.75677 0.18181 0.72662 0.0
C434 C 0.78374 0.18585 0.40586 0.0
C435 C 0.75604 0.18089 0.54669 0.0
C436 C 0.78323 0.18524 0.31619 0.0
C437 C 0.75548 0.17917 0.27138 0.0
C438 C 0.7563 0.18034 0.4513 0.0
C439 C 0.72852 0.1737 0.31913 0.0
C440 C 0.72835 0.17455 0.59216 0.0
C441 C 0.78402 0.1882 0.67886 0.0
N442 N 0.72962 0.17442 0.40648 0.0
N443 N 0.78296 0.18754 0.59149 0.0
H444 H 0.53875 0.70772 0.69656 0.0
H445 H 0.61647 0.80535 0.2626 0.0
H446 H 0.61455 0.80671 0.69118 0.0
H447 H 0.53886 0.70719 0.26796 0.0
H448 H 0.61642 0.80613 0.41945 0.0
H449 H 0.53865 0.70702 0.53971 0.0
C450 C 0.55538 0.72935 0.66243 0.0
C451 C 0.57674 0.75733 0.7072 0.0
C452 C 0.5994 0.78441 0.38639 0.0
C453 C 0.57676 0.75663 0.52727 0.0
C454 C 0.59942 0.78392 0.29673 0.0
C455 C 0.57764 0.75613 0.25196 0.0
C456 C 0.57745 0.75692 0.43188 0.0
C457 C 0.55611 0.72912 0.29974 0.0
C458 C 0.5553 0.72891 0.57277 0.0
C459 C 0.5977 0.7846 0.6594 0.0
N460 N 0.55656 0.7302 0.3871 0.0
N461 N 0.5972 0.78355 0.57204 0.0
H462 H 0.83111 0.53895 0.71369 0.0
H463 H 0.81082 0.61671 0.28016 0.0
H464 H 0.80966 0.61584 0.70881 0.0
H465 H 0.83258 0.54004 0.28507 0.0
H466 H 0.81016 0.61664 0.43712 0.0
H467 H 0.83148 0.53882 0.55673 0.0
C468 C 0.82645 0.55581 0.67965 0.0
C469 C 0.82039 0.57748 0.72456 0.0
C470 C 0.8151 0.59984 0.4039 0.0
C471 C 0.82081 0.57746 0.54462 0.0
C472 C 0.81549 0.59987 0.3142 0.0
C473 C 0.82181 0.57836 0.2693 0.0
C474 C 0.82104 0.57815 0.44923 0.0
C475 C 0.82766 0.55708 0.31695 0.0
C476 C 0.82669 0.55572 0.58995 0.0
C477 C 0.8145 0.59874 0.67692 0.0
N478 N 0.82713 0.55751 0.40429 0.0
N479 N 0.81488 0.59821 0.58957 0.0
H480 H 0.19726 0.81263 0.2755 0.0
H481 H 0.2947 0.83235 0.70943 0.0
H482 H 0.29526 0.83329 0.28082 0.0
H483 H 0.19586 0.80901 0.70407 0.0
H484 H 0.29541 0.83307 0.55258 0.0
H485 H 0.19647 0.81169 0.43236 0.0
C486 C 0.21866 0.81702 0.30962 0.0
C487 C 0.2464 0.82308 0.26484 0.0
C488 C 0.27356 0.82777 0.58564 0.0
C489 C 0.2456 0.82199 0.44476 0.0
C490 C 0.27311 0.82734 0.6753 0.0
C491 C 0.24517 0.82064 0.72007 0.0
C492 C 0.24588 0.82149 0.54015 0.0
C493 C 0.21794 0.81432 0.67229 0.0
C494 C 0.21816 0.81645 0.39929 0.0
C495 C 0.27337 0.82857 0.31261 0.0
N496 N 0.219 0.81494 0.58493 0.0
N497 N 0.27228 0.82789 0.39997 0.0
H498 H 0.46255 0.29566 0.68694 0.0
H499 H 0.38727 0.1974 0.25235 0.0
H500 H 0.38854 0.19594 0.68093 0.0
H501 H 0.46425 0.29585 0.25831 0.0
H502 H 0.38695 0.19664 0.40919 0.0
H503 H 0.46306 0.29634 0.5301 0.0
C504 C 0.44638 0.27388 0.65267 0.0
C505 C 0.42543 0.24568 0.69726 0.0
C506 C 0.40392 0.21842 0.37627 0.0
C507 C 0.42591 0.24635 0.51733 0.0
C508 C 0.40412 0.21889 0.28661 0.0
C509 C 0.42581 0.24677 0.24201 0.0
C510 C 0.42554 0.24602 0.42193 0.0
C511 C 0.44708 0.27386 0.28996 0.0
C512 C 0.44671 0.2743 0.56301 0.0
C513 C 0.40507 0.21822 0.6493 0.0
N514 N 0.44639 0.2728 0.37732 0.0
N515 N 0.4058 0.21925 0.56193 0.0
loop_
_geom_bond_atom_site_label_1
_geom_bond_atom_site_label_2
_geom_bond_distance
_geom_bond_site_symmetry_2
_ccdc_geom_bond_type
Zn0 O1 2.055 . S
Zn0 O8 2.046 . S
Zn0 N16 2.036 1_554 S
Zn0 O28 2.053 1_554 S
Zn0 O30 2.066 . S
O1 Zn0 2.055 . S
O1 C4 1.259 . S
C2 O30 1.256 . S
C2 O31 1.244 . S
Zn3 O5 2.046 . S
Zn3 O7 2.055 . S
Zn3 N9 2.036 . S
Zn3 O27 2.066 1_554 S
Zn3 O31 2.053 . S
C4 O1 1.259 . S
C4 O5 1.254 . S
O5 Zn3 2.046 . S
O5 C4 1.254 . S
C6 O27 1.256 . S
C6 O28 1.244 . S
O7 Zn3 2.055 . S
O7 C29 1.259 . S
O8 Zn0 2.046 . S
O8 C29 1.255 . S
N9 Zn3 2.036 . S
N9 C10 1.298 1_554 S
N9 N12 1.398 . S
C10 N9 1.298 1_556 S
C10 N13 1.367 . S
C10 C23 1.481 . S
C11 N12 1.299 . S
C11 N13 1.379 1_554 S
N12 N9 1.398 . S
N12 C11 1.299 . S
N13 C10 1.367 . S
N13 C11 1.379 1_556 S
C14 N16 1.298 1_554 S
C14 N18 1.367 1_554 S
C14 C22 1.481 . S
C15 N17 1.299 . S
C15 N18 1.379 . S
N16 Zn0 2.036 1_556 S
N16 C14 1.298 1_556 S
N16 N17 1.398 . S
N17 C15 1.299 . S
N17 N16 1.398 . S
N18 C14 1.367 1_556 S
N18 C15 1.379 . S
H19 C22 0.980 . S
H20 C22 0.981 . S
H21 C22 0.981 . S
C22 C14 1.481 . S
C22 H19 0.980 . S
C22 H20 0.981 . S
C22 H21 0.981 . S
C23 C10 1.481 . S
C23 H24 0.980 . S
C23 H25 0.981 . S
C23 H26 0.981 . S
H24 C23 0.980 . S
H25 C23 0.981 . S
H26 C23 0.981 . S
O27 Zn3 2.066 1_556 S
O27 C6 1.256 . S
O28 Zn0 2.053 1_556 S
O28 C6 1.244 . S
C29 O7 1.259 . S
C29 O8 1.255 . S
O30 Zn0 2.066 . S
O30 C2 1.256 . S
O31 C2 1.244 . S
O31 Zn3 2.053 . S
Zn32 O33 2.055 . S
Zn32 O40 2.046 . S
Zn32 N48 2.036 1_554 S
Zn32 O60 2.053 1_554 S
Zn32 O62 2.066 . S
O33 Zn32 2.055 . S
O33 C36 1.259 . S
C34 O62 1.256 . S
C34 O63 1.244 . S
Zn35 O37 2.046 . S
Zn35 O39 2.055 . S
Zn35 N41 2.036 . S
Zn35 O59 2.066 1_554 S
Zn35 O63 2.053 . S
C36 O33 1.259 . S
C36 O37 1.254 . S
O37 Zn35 2.046 . S
O37 C36 1.254 . S
C38 O59 1.256 . S
C38 O60 1.244 . S
O39 Zn35 2.055 . S
O39 C61 1.259 . S
O40 Zn32 2.046 . S
O40 C61 1.255 . S
N41 Zn35 2.036 . S
N41 C42 1.298 1_554 S
N41 N44 1.398 . S
C42 N41 1.298 1_556 S
C42 N45 1.367 . S
C42 C55 1.481 . S
C43 N44 1.299 . S
C43 N45 1.379 1_554 S
N44 N41 1.398 . S
N44 C43 1.299 . S
N45 C42 1.367 . S
N45 C43 1.379 1_556 S
C46 N48 1.298 1_554 S
C46 N50 1.367 1_554 S
C46 C54 1.481 . S
C47 N49 1.299 . S
C47 N50 1.379 . S
N48 Zn32 2.036 1_556 S
N48 C46 1.298 1_556 S
N48 N49 1.398 . S
N49 C47 1.299 . S
N49 N48 1.398 . S
N50 C46 1.367 1_556 S
N50 C47 1.379 . S
H51 C54 0.980 . S
H52 C54 0.981 . S
H53 C54 0.981 . S
C54 C46 1.481 . S
C54 H51 0.980 . S
C54 H52 0.981 . S
C54 H53 0.981 . S
C55 C42 1.481 . S
C55 H56 0.980 . S
C55 H57 0.981 . S
C55 H58 0.981 . S
H56 C55 0.980 . S
H57 C55 0.981 . S
H58 C55 0.981 . S
O59 Zn35 2.066 1_556 S
O59 C38 1.256 . S
O60 Zn32 2.053 1_556 S
O60 C38 1.244 . S
C61 O39 1.259 . S
C61 O40 1.255 . S
O62 Zn32 2.066 . S
O62 C34 1.256 . S
O63 C34 1.244 . S
O63 Zn35 2.053 . S
Zn64 O65 2.055 . S
Zn64 O72 2.046 . S
Zn64 N80 2.036 1_554 S
Zn64 O92 2.053 1_554 S
Zn64 O94 2.066 . S
O65 Zn64 2.055 . S
O65 C68 1.259 . S
C66 O94 1.256 . S
C66 O95 1.244 . S
Zn67 O69 2.046 . S
Zn67 O71 2.055 . S
Zn67 N73 2.036 . S
Zn67 O91 2.066 1_554 S
Zn67 O95 2.053 . S
C68 O65 1.259 . S
C68 O69 1.254 . S
O69 Zn67 2.046 . S
O69 C68 1.254 . S
C70 O91 1.256 . S
C70 O92 1.244 . S
O71 Zn67 2.055 . S
O71 C93 1.259 . S
O72 Zn64 2.046 . S
O72 C93 1.255 . S
N73 Zn67 2.036 . S
N73 C74 1.298 1_554 S
N73 N76 1.398 . S
C74 N73 1.298 1_556 S
C74 N77 1.367 . S
C74 C87 1.481 . S
C75 N76 1.299 . S
C75 N77 1.379 1_554 S
N76 N73 1.398 . S
N76 C75 1.299 . S
N77 C74 1.367 . S
N77 C75 1.379 1_556 S
C78 N80 1.298 1_554 S
C78 N82 1.367 1_554 S
C78 C86 1.481 . S
C79 N81 1.299 . S
C79 N82 1.379 . S
N80 Zn64 2.036 1_556 S
N80 C78 1.298 1_556 S
N80 N81 1.398 . S
N81 C79 1.299 . S
N81 N80 1.398 . S
N82 C78 1.367 1_556 S
N82 C79 1.379 . S
H83 C86 0.980 . S
H84 C86 0.981 . S
H85 C86 0.981 . S
C86 C78 1.481 . S
C86 H83 0.980 . S
C86 H84 0.981 . S
C86 H85 0.981 . S
C87 C74 1.481 . S
C87 H88 0.980 . S
C87 H89 0.981 . S
C87 H90 0.981 . S
H88 C87 0.980 . S
H89 C87 0.981 . S
H90 C87 0.981 . S
O91 Zn67 2.066 1_556 S
O91 C70 1.256 . S
O92 Zn64 2.053 1_556 S
O92 C70 1.244 . S
C93 O71 1.259 . S
C93 O72 1.255 . S
O94 Zn64 2.066 . S
O94 C66 1.256 . S
O95 C66 1.244 . S
O95 Zn67 2.053 . S
Zn96 O97 2.055 . S
Zn96 O104 2.046 . S
Zn96 N112 2.036 1_554 S
Zn96 O124 2.053 1_554 S
Zn96 O126 2.066 . S
O97 Zn96 2.055 . S
O97 C100 1.259 . S
C98 O126 1.256 . S
C98 O127 1.244 . S
Zn99 O101 2.046 . S
Zn99 O103 2.055 . S
Zn99 N105 2.036 . S
Zn99 O123 2.066 1_554 S
Zn99 O127 2.053 . S
C100 O97 1.259 . S
C100 O101 1.254 . S
O101 Zn99 2.046 . S
O101 C100 1.254 . S
C102 O123 1.256 . S
C102 O124 1.244 . S
O103 Zn99 2.055 . S
O103 C125 1.259 . S
O104 Zn96 2.046 . S
O104 C125 1.255 . S
N105 Zn99 2.036 . S
N105 C106 1.298 1_554 S
N105 N108 1.398 . S
C106 N105 1.298 1_556 S
C106 N109 1.367 . S
C106 C119 1.481 . S
C107 N108 1.299 . S
C107 N109 1.379 1_554 S
N108 N105 1.398 . S
N108 C107 1.299 . S
N109 C106 1.367 . S
N109 C107 1.379 1_556 S
C110 N112 1.298 1_554 S
C110 N114 1.367 1_554 S
C110 C118 1.481 . S
C111 N113 1.299 . S
C111 N114 1.379 . S
N112 Zn96 2.036 1_556 S
N112 C110 1.298 1_556 S
N112 N113 1.398 . S
N113 C111 1.299 . S
N113 N112 1.398 . S
N114 C110 1.367 1_556 S
N114 C111 1.379 . S
H115 C118 0.980 . S
H116 C118 0.981 . S
H117 C118 0.981 . S
C118 C110 1.481 . S
C118 H115 0.980 . S
C118 H116 0.981 . S
C118 H117 0.981 . S
C119 C106 1.481 . S
C119 H120 0.980 . S
C119 H121 0.981 . S
C119 H122 0.981 . S
H120 C119 0.980 . S
H121 C119 0.981 . S
H122 C119 0.981 . S
O123 Zn99 2.066 1_556 S
O123 C102 1.256 . S
O124 Zn96 2.053 1_556 S
O124 C102 1.244 . S
C125 O103 1.259 . S
C125 O104 1.255 . S
O126 Zn96 2.066 . S
O126 C98 1.256 . S
O127 C98 1.244 . S
O127 Zn99 2.053 . S
Zn128 O129 2.055 . S
Zn128 O136 2.046 . S
Zn128 N144 2.036 1_554 S
Zn128 O156 2.053 1_554 S
Zn128 O158 2.066 . S
O129 Zn128 2.055 . S
O129 C132 1.259 . S
C130 O158 1.256 . S
C130 O159 1.244 . S
Zn131 O133 2.046 . S
Zn131 O135 2.055 . S
Zn131 N137 2.036 . S
Zn131 O155 2.066 1_554 S
Zn131 O159 2.053 . S
C132 O129 1.259 . S
C132 O133 1.254 . S
O133 Zn131 2.046 . S
O133 C132 1.254 . S
C134 O155 1.256 . S
C134 O156 1.244 . S
O135 Zn131 2.055 . S
O135 C157 1.259 . S
O136 Zn128 2.046 . S
O136 C157 1.255 . S
N137 Zn131 2.036 . S
N137 C138 1.298 1_554 S
N137 N140 1.398 . S
C138 N137 1.298 1_556 S
C138 N141 1.367 . S
C138 C151 1.481 . S
C139 N140 1.299 . S
C139 N141 1.379 1_554 S
N140 N137 1.398 . S
N140 C139 1.299 . S
N141 C138 1.367 . S
N141 C139 1.379 1_556 S
C142 N144 1.298 1_554 S
C142 N146 1.367 1_554 S
C142 C150 1.481 . S
C143 N145 1.299 . S
C143 N146 1.379 . S
N144 Zn128 2.036 1_556 S
N144 C142 1.298 1_556 S
N144 N145 1.398 . S
N145 C143 1.299 . S
N145 N144 1.398 . S
N146 C142 1.367 1_556 S
N146 C143 1.379 . S
H147 C150 0.980 . S
H148 C150 0.981 . S
H149 C150 0.981 . S
C150 C142 1.481 . S
C150 H147 0.980 . S
C150 H148 0.981 . S
C150 H149 0.981 . S
C151 C138 1.481 . S
C151 H152 0.980 . S
C151 H153 0.981 . S
C151 H154 0.981 . S
H152 C151 0.980 . S
H153 C151 0.981 . S
H154 C151 0.981 . S
O155 Zn131 2.066 1_556 S
O155 C134 1.256 . S
O156 Zn128 2.053 1_556 S
O156 C134 1.244 . S
C157 O135 1.259 . S
C157 O136 1.255 . S
O158 Zn128 2.066 . S
O158 C130 1.256 . S
O159 C130 1.244 . S
O159 Zn131 2.053 . S
Zn160 O161 2.055 . S
Zn160 O168 2.046 . S
Zn160 N176 2.036 1_554 S
Zn160 O188 2.053 1_554 S
Zn160 O190 2.066 . S
O161 Zn160 2.055 . S
O161 C164 1.259 . S
C162 O190 1.256 . S
C162 O191 1.244 . S
Zn163 O165 2.046 . S
Zn163 O167 2.055 . S
Zn163 N169 2.036 . S
Zn163 O187 2.066 1_554 S
Zn163 O191 2.053 . S
C164 O161 1.259 . S
C164 O165 1.254 . S
O165 Zn163 2.046 . S
O165 C164 1.254 . S
C166 O187 1.256 . S
C166 O188 1.244 . S
O167 Zn163 2.055 . S
O167 C189 1.259 . S
O168 Zn160 2.046 . S
O168 C189 1.255 . S
N169 Zn163 2.036 . S
N169 C170 1.298 1_554 S
N169 N172 1.398 . S
C170 N169 1.298 1_556 S
C170 N173 1.367 . S
C170 C183 1.481 . S
C171 N172 1.299 . S
C171 N173 1.379 1_554 S
N172 N169 1.398 . S
N172 C171 1.299 . S
N173 C170 1.367 . S
N173 C171 1.379 1_556 S
C174 N176 1.298 1_554 S
C174 N178 1.367 1_554 S
C174 C182 1.481 . S
C175 N177 1.299 . S
C175 N178 1.379 . S
N176 Zn160 2.036 1_556 S
N176 C174 1.298 1_556 S
N176 N177 1.398 . S
N177 C175 1.299 . S
N177 N176 1.398 . S
N178 C174 1.367 1_556 S
N178 C175 1.379 . S
H179 C182 0.980 . S
H180 C182 0.981 . S
H181 C182 0.981 . S
C182 C174 1.481 . S
C182 H179 0.980 . S
C182 H180 0.981 . S
C182 H181 0.981 . S
C183 C170 1.481 . S
C183 H184 0.980 . S
C183 H185 0.981 . S
C183 H186 0.981 . S
H184 C183 0.980 . S
H185 C183 0.981 . S
H186 C183 0.981 . S
O187 Zn163 2.066 1_556 S
O187 C166 1.256 . S
O188 Zn160 2.053 1_556 S
O188 C166 1.244 . S
C189 O167 1.259 . S
C189 O168 1.255 . S
O190 Zn160 2.066 . S
O190 C162 1.256 . S
O191 C162 1.244 . S
O191 Zn163 2.053 . S
H192 C198 0.930 . S
H193 C202 0.930 . S
H194 C207 0.929 . S
H195 C205 0.929 . S
H196 C200 0.929 . S
H197 C206 0.929 . S
C198 H192 0.930 . S
C198 C199 1.367 1_554 S
C198 C206 1.378 . S
C199 C198 1.367 1_556 S
C199 C207 1.433 . S
C200 H196 0.929 . S
C200 C202 1.378 . S
C200 C204 1.350 . S
C201 C204 1.463 . S
C201 C206 1.350 1_556 S
C201 N209 1.427 . S
C202 H193 0.930 . S
C202 C200 1.378 . S
C202 C203 1.367 . S
C203 C202 1.367 . S
C203 C205 1.433 1_556 S
C204 C200 1.350 . S
C204 C201 1.463 . S
C204 N208 1.427 1_556 S
C205 H195 0.929 . S
C205 C203 1.433 1_554 S
C205 N208 1.384 . S
C206 H197 0.929 . S
C206 C198 1.378 . S
C206 C201 1.350 1_554 S
C207 H194 0.929 . S
C207 C199 1.433 . S
C207 N209 1.384 . S
N208 C204 1.427 1_554 S
N208 C205 1.384 . S
N209 C201 1.427 . S
N209 C207 1.384 . S
H210 C216 0.930 . S
H211 C220 0.930 . S
H212 C225 0.929 . S
H213 C223 0.929 . S
H214 C218 0.929 . S
H215 C224 0.929 . S
C216 H210 0.930 . S
C216 C217 1.367 1_554 S
C216 C224 1.378 . S
C217 C216 1.367 1_556 S
C217 C225 1.433 . S
C218 H214 0.929 . S
C218 C220 1.378 1_455 S
C218 C222 1.350 . S
C219 C222 1.463 . S
C219 C224 1.350 1_556 S
C219 N227 1.427 . S
C220 H211 0.930 . S
C220 C218 1.378 1_655 S
C220 C221 1.367 . S
C221 C220 1.367 . S
C221 C223 1.433 1_556 S
C222 C218 1.350 . S
C222 C219 1.463 . S
C222 N226 1.427 1_456 S
C223 H213 0.929 . S
C223 C221 1.433 1_554 S
C223 N226 1.384 . S
C224 H215 0.929 . S
C224 C216 1.378 . S
C224 C219 1.350 1_554 S
C225 H212 0.929 . S
C225 C217 1.433 . S
C225 N227 1.384 . S
N226 C222 1.427 1_654 S
N226 C223 1.384 . S
N227 C219 1.427 . S
N227 C225 1.384 . S
H228 C234 0.930 . S
H229 C238 0.930 . S
H230 C243 0.929 . S
H231 C241 0.929 . S
H232 C236 0.929 1_545 S
H233 C242 0.929 . S
C234 H228 0.930 . S
C234 C235 1.367 . S
C234 C242 1.378 . S
C235 C234 1.367 . S
C235 C243 1.433 1_556 S
C236 H232 0.929 1_565 S
C236 C238 1.378 . S
C236 C240 1.350 1_564 S
C237 C240 1.463 . S
C237 C242 1.350 . S
C237 N245 1.427 1_556 S
C238 H229 0.930 . S
C238 C236 1.378 . S
C238 C239 1.367 1_554 S
C239 C238 1.367 1_556 S
C239 C241 1.433 . S
C240 C236 1.350 1_546 S
C240 C237 1.463 . S
C240 N244 1.435 . S
C241 H231 0.929 . S
C241 C239 1.433 . S
C241 N244 1.367 1_565 S
C242 H233 0.929 . S
C242 C234 1.378 . S
C242 C237 1.350 . S
C243 H230 0.929 . S
C243 C235 1.433 1_554 S
C243 N245 1.384 . S
N244 C240 1.435 . S
N244 C241 1.367 1_545 S
N245 C237 1.427 1_554 S
N245 C243 1.384 . S
H246 C252 0.930 . S
H247 C256 0.930 . S
H248 C261 0.929 . S
H249 C259 0.929 . S
H250 C254 0.929 . S
H251 C260 0.929 . S
C252 H246 0.930 . S
C252 C253 1.367 1_554 S
C252 C260 1.378 . S
C253 C252 1.367 1_556 S
C253 C261 1.433 . S
C254 H250 0.929 . S
C254 C256 1.378 . S
C254 C258 1.350 . S
C255 C258 1.463 . S
C255 C260 1.350 1_556 S
C255 N263 1.427 . S
C256 H247 0.930 . S
C256 C254 1.378 . S
C256 C257 1.367 . S
C257 C256 1.367 . S
C257 C259 1.433 1_556 S
C258 C254 1.350 . S
C258 C255 1.463 . S
C258 N262 1.427 1_556 S
C259 H249 0.929 . S
C259 C257 1.433 1_554 S
C259 N262 1.384 . S
C260 H251 0.929 . S
C260 C252 1.378 . S
C260 C255 1.350 1_554 S
C261 H248 0.929 . S
C261 C253 1.433 . S
C261 N263 1.384 . S
N262 C258 1.427 1_554 S
N262 C259 1.384 . S
N263 C255 1.427 . S
N263 C261 1.384 . S
H264 C270 0.930 . S
H265 C274 0.930 . S
H266 C279 0.929 . S
H267 C277 0.929 . S
H268 C272 0.929 . S
H269 C278 0.929 . S
C270 H264 0.930 . S
C270 C271 1.367 . S
C270 C278 1.378 1_455 S
C271 C270 1.367 . S
C271 C279 1.433 1_556 S
C272 H268 0.929 . S
C272 C274 1.378 . S
C272 C276 1.350 1_554 S
C273 C276 1.463 . S
C273 C278 1.350 . S
C273 N281 1.427 1_656 S
C274 H265 0.930 . S
C274 C272 1.378 . S
C274 C275 1.367 1_554 S
C275 C274 1.367 1_556 S
C275 C277 1.433 . S
C276 C272 1.350 1_556 S
C276 C273 1.463 . S
C276 N280 1.427 . S
C277 H267 0.929 . S
C277 C275 1.433 . S
C277 N280 1.384 . S
C278 H269 0.929 . S
C278 C270 1.378 1_655 S
C278 C273 1.350 . S
C279 H266 0.929 . S
C279 C271 1.433 1_554 S
C279 N281 1.384 . S
N280 C276 1.427 . S
N280 C277 1.384 . S
N281 C273 1.427 1_454 S
N281 C279 1.384 . S
H282 C288 0.930 . S
H283 C292 0.930 . S
H284 C297 0.929 . S
H285 C295 0.929 . S
H286 C290 0.929 1_565 S
H287 C296 0.929 . S
C288 H282 0.930 . S
C288 C289 1.367 . S
C288 C296 1.378 . S
C289 C288 1.367 . S
C289 C297 1.433 1_556 S
C290 H286 0.929 1_545 S
C290 C292 1.378 . S
C290 C294 1.350 1_544 S
C291 C294 1.463 . S
C291 C296 1.350 . S
C291 N299 1.427 1_556 S
C292 H283 0.930 . S
C292 C290 1.378 . S
C292 C293 1.367 1_554 S
C293 C292 1.367 1_556 S
C293 C295 1.433 . S
C294 C290 1.350 1_566 S
C294 C291 1.463 . S
C294 N298 1.420 1_565 S
C295 H285 0.929 . S
C295 C293 1.433 . S
C295 N298 1.410 . S
C296 H287 0.929 . S
C296 C288 1.378 . S
C296 C291 1.350 . S
C297 H284 0.929 . S
C297 C289 1.433 1_554 S
C297 N299 1.384 . S
N298 C294 1.420 1_545 S
N298 C295 1.410 . S
N299 C291 1.427 1_554 S
N299 C297 1.384 . S
H300 C306 0.930 . S
H301 C310 0.930 . S
H302 C315 0.929 . S
H303 C313 0.929 . S
H304 C308 0.929 . S
H305 C314 0.929 . S
C306 H300 0.930 . S
C306 C307 1.367 . S
C306 C314 1.378 . S
C307 C306 1.367 . S
C307 C315 1.433 1_554 S
C308 H304 0.929 . S
C308 C310 1.378 . S
C308 C312 1.350 1_556 S
C309 C312 1.463 . S
C309 C314 1.350 . S
C309 N317 1.427 1_554 S
C310 H301 0.930 . S
C310 C308 1.378 . S
C310 C311 1.367 1_556 S
C311 C310 1.367 1_554 S
C311 C313 1.433 . S
C312 C308 1.350 1_554 S
C312 C309 1.463 . S
C312 N316 1.427 . S
C313 H303 0.929 . S
C313 C311 1.433 . S
C313 N316 1.384 . S
C314 H305 0.929 . S
C314 C306 1.378 . S
C314 C309 1.350 . S
C315 H302 0.929 . S
C315 C307 1.433 1_556 S
C315 N317 1.384 . S
N316 C312 1.427 . S
N316 C313 1.384 . S
N317 C309 1.427 1_556 S
N317 C315 1.384 . S
H318 C324 0.930 . S
H319 C328 0.930 . S
H320 C333 0.929 . S
H321 C331 0.929 . S
H322 C326 0.929 . S
H323 C332 0.929 . S
C324 H318 0.930 . S
C324 C325 1.367 1_556 S
C324 C332 1.378 . S
C325 C324 1.367 1_554 S
C325 C333 1.433 . S
C326 H322 0.929 . S
C326 C328 1.378 . S
C326 C330 1.350 . S
C327 C330 1.463 . S
C327 C332 1.350 1_554 S
C327 N335 1.427 . S
C328 H319 0.930 . S
C328 C326 1.378 . S
C328 C329 1.367 . S
C329 C328 1.367 . S
C329 C331 1.433 1_554 S
C330 C326 1.350 . S
C330 C327 1.463 . S
C330 N334 1.427 1_554 S
C331 H321 0.929 . S
C331 C329 1.433 1_556 S
C331 N334 1.384 . S
C332 H323 0.929 . S
C332 C324 1.378 . S
C332 C327 1.350 1_556 S
C333 H320 0.929 . S
C333 C325 1.433 . S
C333 N335 1.384 . S
N334 C330 1.427 1_556 S
N334 C331 1.384 . S
N335 C327 1.427 . S
N335 C333 1.384 . S
H336 C342 0.930 . S
H337 C346 0.930 . S
H338 C351 0.929 . S
H339 C349 0.929 . S
H340 C344 0.929 . S
H341 C350 0.929 . S
C342 H336 0.930 . S
C342 C343 1.367 1_556 S
C342 C350 1.378 . S
C343 C342 1.367 1_554 S
C343 C351 1.433 . S
C344 H340 0.929 . S
C344 C346 1.378 . S
C344 C348 1.350 . S
C345 C348 1.463 . S
C345 C350 1.350 1_554 S
C345 N353 1.427 . S
C346 H337 0.930 . S
C346 C344 1.378 . S
C346 C347 1.367 . S
C347 C346 1.367 . S
C347 C349 1.433 1_554 S
C348 C344 1.350 . S
C348 C345 1.463 . S
C348 N352 1.427 1_554 S
C349 H339 0.929 . S
C349 C347 1.433 1_556 S
C349 N352 1.384 . S
C350 H341 0.929 . S
C350 C342 1.378 . S
C350 C345 1.350 1_556 S
C351 H338 0.929 . S
C351 C343 1.433 . S
C351 N353 1.384 . S
N352 C348 1.427 1_556 S
N352 C349 1.384 . S
N353 C345 1.427 . S
N353 C351 1.384 . S
H354 C360 0.930 . S
H355 C364 0.930 . S
H356 C369 0.929 . S
H357 C367 0.929 . S
H358 C362 0.929 . S
H359 C368 0.929 . S
C360 H354 0.930 . S
C360 C361 1.367 1_556 S
C360 C368 1.378 . S
C361 C360 1.367 1_554 S
C361 C369 1.433 . S
C362 H358 0.929 . S
C362 C364 1.378 . S
C362 C366 1.350 . S
C363 C366 1.463 . S
C363 C368 1.350 1_554 S
C363 N371 1.427 . S
C364 H355 0.930 . S
C364 C362 1.378 . S
C364 C365 1.367 . S
C365 C364 1.367 . S
C365 C367 1.433 1_554 S
C366 C362 1.350 . S
C366 C363 1.463 . S
C366 N370 1.427 1_554 S
C367 H357 0.929 . S
C367 C365 1.433 1_556 S
C367 N370 1.384 . S
C368 H359 0.929 . S
C368 C360 1.378 . S
C368 C363 1.350 1_556 S
C369 H356 0.929 . S
C369 C361 1.433 . S
C369 N371 1.384 . S
N370 C366 1.427 1_556 S
N370 C367 1.384 . S
N371 C363 1.427 . S
N371 C369 1.384 . S
H372 C378 0.930 . S
H373 C382 0.930 . S
H374 C387 0.929 . S
H375 C385 0.929 . S
H376 C380 0.929 . S
H377 C386 0.929 . S
C378 H372 0.930 . S
C378 C379 1.367 1_556 S
C378 C386 1.378 . S
C379 C378 1.367 1_554 S
C379 C387 1.433 . S
C380 H376 0.929 . S
C380 C382 1.378 . S
C380 C384 1.350 . S
C381 C384 1.463 . S
C381 C386 1.350 1_554 S
C381 N389 1.427 . S
C382 H373 0.930 . S
C382 C380 1.378 . S
C382 C383 1.367 . S
C383 C382 1.367 . S
C383 C385 1.433 1_554 S
C384 C380 1.350 . S
C384 C381 1.463 . S
C384 N388 1.427 1_554 S
C385 H375 0.929 . S
C385 C383 1.433 1_556 S
C385 N388 1.384 . S
C386 H377 0.929 . S
C386 C378 1.378 . S
C386 C381 1.350 1_556 S
C387 H374 0.929 . S
C387 C379 1.433 . S
C387 N389 1.384 . S
N388 C384 1.427 1_556 S
N388 C385 1.384 . S
N389 C381 1.427 . S
N389 C387 1.384 . S
H390 C396 0.930 . S
H391 C400 0.930 . S
H392 C405 0.929 . S
H393 C403 0.929 . S
H394 C398 0.929 . S
H395 C404 0.929 . S
C396 H390 0.930 . S
C396 C397 1.367 . S
C396 C404 1.378 . S
C397 C396 1.367 . S
C397 C405 1.433 1_554 S
C398 H394 0.929 . S
C398 C400 1.378 . S
C398 C402 1.350 1_556 S
C399 C402 1.463 . S
C399 C404 1.350 . S
C399 N407 1.427 1_554 S
C400 H391 0.930 . S
C400 C398 1.378 . S
C400 C401 1.367 1_556 S
C401 C400 1.367 1_554 S
C401 C403 1.433 . S
C402 C398 1.350 1_554 S
C402 C399 1.463 . S
C402 N406 1.427 . S
C403 H393 0.929 . S
C403 C401 1.433 . S
C403 N406 1.384 . S
C404 H395 0.929 . S
C404 C396 1.378 . S
C404 C399 1.350 . S
C405 H392 0.929 . S
C405 C397 1.433 1_556 S
C405 N407 1.384 . S
N406 C402 1.427 . S
N406 C403 1.384 . S
N407 C399 1.427 1_556 S
N407 C405 1.384 . S
H408 C414 0.930 . S
H409 C418 0.930 . S
H410 C423 0.929 . S
H411 C421 0.929 . S
H412 C416 0.929 . S
H413 C422 0.929 . S
C414 H408 0.930 . S
C414 C415 1.367 . S
C414 C422 1.378 . S
C415 C414 1.367 . S
C415 C423 1.433 . S
C416 H412 0.929 . S
C416 C418 1.378 . S
C416 C420 1.350 . S
C417 C420 1.463 . S
C417 C422 1.350 . S
C417 N425 1.427 . S
C418 H409 0.930 . S
C418 C416 1.378 . S
C418 C419 1.367 . S
C419 C418 1.367 . S
C419 C421 1.433 . S
C420 C416 1.350 . S
C420 C417 1.463 . S
C420 N424 1.427 . S
C421 H411 0.929 . S
C421 C419 1.433 . S
C421 N424 1.384 . S
C422 H413 0.929 . S
C422 C414 1.378 . S
C422 C417 1.350 . S
C423 H410 0.929 . S
C423 C415 1.433 . S
C423 N425 1.384 . S
N424 C420 1.427 . S
N424 C421 1.384 . S
N425 C417 1.427 . S
N425 C423 1.384 . S
H426 C432 0.930 . S
H427 C436 0.930 . S
H428 C441 0.929 . S
H429 C439 0.929 . S
H430 C434 0.929 . S
H431 C440 0.929 . S
C432 H426 0.930 . S
C432 C433 1.367 . S
C432 C440 1.378 . S
C433 C432 1.367 . S
C433 C441 1.433 . S
C434 H430 0.929 . S
C434 C436 1.378 . S
C434 C438 1.350 . S
C435 C438 1.463 . S
C435 C440 1.350 . S
C435 N443 1.427 . S
C436 H427 0.930 . S
C436 C434 1.378 . S
C436 C437 1.367 . S
C437 C436 1.367 . S
C437 C439 1.433 . S
C438 C434 1.350 . S
C438 C435 1.463 . S
C438 N442 1.427 . S
C439 H429 0.929 . S
C439 C437 1.433 . S
C439 N442 1.384 . S
C440 H431 0.929 . S
C440 C432 1.378 . S
C440 C435 1.350 . S
C441 H428 0.929 . S
C441 C433 1.433 . S
C441 N443 1.384 . S
N442 C438 1.427 . S
N442 C439 1.384 . S
N443 C435 1.427 . S
N443 C441 1.384 . S
H444 C450 0.930 . S
H445 C454 0.930 . S
H446 C459 0.929 . S
H447 C457 0.929 . S
H448 C452 0.929 . S
H449 C458 0.929 . S
C450 H444 0.930 . S
C450 C451 1.367 . S
C450 C458 1.378 . S
C451 C450 1.367 . S
C451 C459 1.433 . S
C452 H448 0.929 . S
C452 C454 1.378 . S
C452 C456 1.350 . S
C453 C456 1.463 . S
C453 C458 1.350 . S
C453 N461 1.427 . S
C454 H445 0.930 . S
C454 C452 1.378 . S
C454 C455 1.367 . S
C455 C454 1.367 . S
C455 C457 1.433 . S
C456 C452 1.350 . S
C456 C453 1.463 . S
C456 N460 1.427 . S
C457 H447 0.929 . S
C457 C455 1.433 . S
C457 N460 1.384 . S
C458 H449 0.929 . S
C458 C450 1.378 . S
C458 C453 1.350 . S
C459 H446 0.929 . S
C459 C451 1.433 . S
C459 N461 1.384 . S
N460 C456 1.427 . S
N460 C457 1.384 . S
N461 C453 1.427 . S
N461 C459 1.384 . S
H462 C468 0.930 . S
H463 C472 0.930 . S
H464 C477 0.929 . S
H465 C475 0.929 . S
H466 C470 0.929 . S
H467 C476 0.929 . S
C468 H462 0.930 . S
C468 C469 1.367 . S
C468 C476 1.378 . S
C469 C468 1.367 . S
C469 C477 1.433 . S
C470 H466 0.929 . S
C470 C472 1.378 . S
C470 C474 1.350 . S
C471 C474 1.463 . S
C471 C476 1.350 . S
C471 N479 1.427 . S
C472 H463 0.930 . S
C472 C470 1.378 . S
C472 C473 1.367 . S
C473 C472 1.367 . S
C473 C475 1.433 . S
C474 C470 1.350 . S
C474 C471 1.463 . S
C474 N478 1.427 . S
C475 H465 0.929 . S
C475 C473 1.433 . S
C475 N478 1.384 . S
C476 H467 0.929 . S
C476 C468 1.378 . S
C476 C471 1.350 . S
C477 H464 0.929 . S
C477 C469 1.433 . S
C477 N479 1.384 . S
N478 C474 1.427 . S
N478 C475 1.384 . S
N479 C471 1.427 . S
N479 C477 1.384 . S
H480 C486 0.930 . S
H481 C490 0.930 . S
H482 C495 0.929 . S
H483 C493 0.929 . S
H484 C488 0.929 . S
H485 C494 0.929 . S
C486 H480 0.930 . S
C486 C487 1.367 . S
C486 C494 1.378 . S
C487 C486 1.367 . S
C487 C495 1.433 . S
C488 H484 0.929 . S
C488 C490 1.378 . S
C488 C492 1.350 . S
C489 C492 1.463 . S
C489 C494 1.350 . S
C489 N497 1.427 . S
C490 H481 0.930 . S
C490 C488 1.378 . S
C490 C491 1.367 . S
C491 C490 1.367 . S
C491 C493 1.433 . S
C492 C488 1.350 . S
C492 C489 1.463 . S
C492 N496 1.427 . S
C493 H483 0.929 . S
C493 C491 1.433 . S
C493 N496 1.384 . S
C494 H485 0.929 . S
C494 C486 1.378 . S
C494 C489 1.350 . S
C495 H482 0.929 . S
C495 C487 1.433 . S
C495 N497 1.384 . S
N496 C492 1.427 . S
N496 C493 1.384 . S
N497 C489 1.427 . S
N497 C495 1.384 . S
H498 C504 0.930 . S
H499 C508 0.930 . S
H500 C513 0.929 . S
H501 C511 0.929 . S
H502 C506 0.929 . S
H503 C512 0.929 . S
C504 H498 0.930 . S
C504 C505 1.367 . S
C504 C512 1.378 . S
C505 C504 1.367 . S
C505 C513 1.433 . S
C506 H502 0.929 . S
C506 C508 1.378 . S
C506 C510 1.350 . S
C507 C510 1.463 . S
C507 C512 1.350 . S
C507 N515 1.427 . S
C508 H499 0.930 . S
C508 C506 1.378 . S
C508 C509 1.367 . S
C509 C508 1.367 . S
C509 C511 1.433 . S
C510 C506 1.350 . S
C510 C507 1.463 . S
C510 N514 1.427 . S
C511 H501 0.929 . S
C511 C509 1.433 . S
C511 N514 1.384 . S
C512 H503 0.929 . S
C512 C504 1.378 . S
C512 C507 1.350 . S
C513 H500 0.929 . S
C513 C505 1.433 . S
C513 N515 1.384 . S
N514 C510 1.427 . S
N514 C511 1.384 . S
N515 C507 1.427 . S
N515 C513 1.384 . S
C199 C189 1.432 1_556 S
C203 N13 1.340 . S
C217 C29 1.432 1_556 S
C221 N45 1.340 . S
C235 C61 1.439 1_556 S
C239 N77 1.320 . S
C253 N109 1.323 . S
C257 C93 1.438 1_556 S
C271 N141 1.340 . S
C275 C125 1.432 1_556 S
C289 C157 1.437 1_556 S
C293 N173 1.324 . S
C307 C130 1.545 . S
C311 N18 1.534 1_554 S
C325 C162 1.540 . S
C329 N50 1.537 1_554 S
C343 N82 1.534 1_554 S
C347 C2 1.545 . S
C361 N114 1.535 1_554 S
C365 C34 1.546 . S
C379 N146 1.537 1_554 S
C383 C66 1.546 . S
C397 C98 1.545 . S
C401 N178 1.534 1_554 S
C415 C6 1.520 . S
C419 C4 1.511 . S
C433 C38 1.518 . S
C437 C36 1.509 . S
C451 C70 1.517 . S
C455 C68 1.507 . S
C469 C102 1.519 . S
C473 C100 1.511 . S
C487 C132 1.503 . S
C491 C134 1.515 . S
C505 C166 1.515 . S
C509 C164 1.503 . S
