# Generated by pormake.
# Topology ecd, (8)-cn, num edge types: 1
# Building blocks:
#     Node 0, Type 0, BuildingBlock: TAGTUT_clean_sbu_1, # of connection points: 8
#     Node 1, Type 0, BuildingBlock: TAGTUT_clean_sbu_1, # of connection points: 8
#     Node 2, Type 0, BuildingBlock: TAGTUT_clean_sbu_1, # of connection points: 8
#     Node 3, Type 0, BuildingBlock: TAGTUT_clean_sbu_1, # of connection points: 8
#     Node 4, Type 0, BuildingBlock: TAGTUT_clean_sbu_1, # of connection points: 8
#     Node 5, Type 0, BuildingBlock: TAGTUT_clean_sbu_1, # of connection points: 8
#     Node 6, Type 0, BuildingBlock: TAGTUT_clean_sbu_1, # of connection points: 8
#     Node 7, Type 0, BuildingBlock: TAGTUT_clean_sbu_1, # of connection points: 8
#     Node 8, Type 0, BuildingBlock: TAGTUT_clean_sbu_1, # of connection points: 8
#     Node 9, Type 0, BuildingBlock: TAGTUT_clean_sbu_1, # of connection points: 8
#     Node 10, Type 0, BuildingBlock: TAGTUT_clean_sbu_1, # of connection points: 8
#     Node 11, Type 0, BuildingBlock: TAGTUT_clean_sbu_1, # of connection points: 8
#     Node 12, Type 0, BuildingBlock: TAGTUT_clean_sbu_1, # of connection points: 8
#     Node 13, Type 0, BuildingBlock: TAGTUT_clean_sbu_1, # of connection points: 8
#     Node 14, Type 0, BuildingBlock: TAGTUT_clean_sbu_1, # of connection points: 8
#     Node 15, Type 0, BuildingBlock: TAGTUT_clean_sbu_1, # of connection points: 8
#     Node 16, Type 0, BuildingBlock: TAGTUT_clean_sbu_1, # of connection points: 8
#     Node 17, Type 0, BuildingBlock: TAGTUT_clean_sbu_1, # of connection points: 8
#     Edge 18, Type (0, 0), None
#     Edge 19, Type (0, 0), None
#     Edge 20, Type (0, 0), None
#     Edge 21, Type (0, 0), None
#     Edge 22, Type (0, 0), None
#     Edge 23, Type (0, 0), None
#     Edge 24, Type (0, 0), None
#     Edge 25, Type (0, 0), None
#     Edge 26, Type (0, 0), None
#     Edge 27, Type (0, 0), None
#     Edge 28, Type (0, 0), None
#     Edge 29, Type (0, 0), None
#     Edge 30, Type (0, 0), None
#     Edge 31, Type (0, 0), None
#     Edge 32, Type (0, 0), None
#     Edge 33, Type (0, 0), None
#     Edge 34, Type (0, 0), None
#     Edge 35, Type (0, 0), None
#     Edge 36, Type (0, 0), None
#     Edge 37, Type (0, 0), None
#     Edge 38, Type (0, 0), None
#     Edge 39, Type (0, 0), None
#     Edge 40, Type (0, 0), None
#     Edge 41, Type (0, 0), None
#     Edge 42, Type (0, 0), None
#     Edge 43, Type (0, 0), None
#     Edge 44, Type (0, 0), None
#     Edge 45, Type (0, 0), None
#     Edge 46, Type (0, 0), None
#     Edge 47, Type (0, 0), None
#     Edge 48, Type (0, 0), None
#     Edge 49, Type (0, 0), None
#     Edge 50, Type (0, 0), None
#     Edge 51, Type (0, 0), None
#     Edge 52, Type (0, 0), None
#     Edge 53, Type (0, 0), None
#     Edge 54, Type (0, 0), None
#     Edge 55, Type (0, 0), None
#     Edge 56, Type (0, 0), None
#     Edge 57, Type (0, 0), None
#     Edge 58, Type (0, 0), None
#     Edge 59, Type (0, 0), None
#     Edge 60, Type (0, 0), None
#     Edge 61, Type (0, 0), None
#     Edge 62, Type (0, 0), None
#     Edge 63, Type (0, 0), None
#     Edge 64, Type (0, 0), None
#     Edge 65, Type (0, 0), None
#     Edge 66, Type (0, 0), None
#     Edge 67, Type (0, 0), None
#     Edge 68, Type (0, 0), None
#     Edge 69, Type (0, 0), None
#     Edge 70, Type (0, 0), None
#     Edge 71, Type (0, 0), None
#     Edge 72, Type (0, 0), None
#     Edge 73, Type (0, 0), None
#     Edge 74, Type (0, 0), None
#     Edge 75, Type (0, 0), None
#     Edge 76, Type (0, 0), None
#     Edge 77, Type (0, 0), None
#     Edge 78, Type (0, 0), None
#     Edge 79, Type (0, 0), None
#     Edge 80, Type (0, 0), None
#     Edge 81, Type (0, 0), None
#     Edge 82, Type (0, 0), None
#     Edge 83, Type (0, 0), None
#     Edge 84, Type (0, 0), None
#     Edge 85, Type (0, 0), None
#     Edge 86, Type (0, 0), None
#     Edge 87, Type (0, 0), None
#     Edge 88, Type (0, 0), None
#     Edge 89, Type (0, 0), None
# Relax obj value: 0.351
# Max RMSD: 0.295
# Mean RMSD: 0.292
data_MOF--net-ecd--node1-TAGTUT_clean_sbu_1--edge1-none
_symmetry_space_group_name_H-M    P1
_symmetry_Int_Tables_number       1
_symmetry_cell_setting            triclinic
loop_
_symmetry_equiv_pos_as_xyz
'x, y, z'
_cell_length_a     24.738663
_cell_length_b     25.055646
_cell_length_c     19.587978
_cell_angle_alpha  88.208708
_cell_angle_beta   94.810258
_cell_angle_gamma 121.83521
loop_
_atom_site_label
_atom_site_type_symbol
_atom_site_fract_x
_atom_site_fract_y
_atom_site_fract_z
_atom_type_partial_charge
C0 C 0.0128 0.47777 0.01535 0.0
C1 C 0.90114 0.53596 0.04587 0.0
C2 C 0.11112 0.69446 0.17925 0.0
Mg3 Mg 0.9203 0.44607 0.1264 0.0
O4 O 0.99776 0.51108 0.1823 0.0
Mg5 Mg 0.05224 0.58031 0.11047 0.0
Mg6 Mg 0.96357 0.55363 0.22354 0.0
O7 O 0.02013 0.59179 0.30398 0.0
Mg8 Mg 0.1065 0.60822 0.31413 0.0
Mg9 Mg 0.96099 0.53188 0.37243 0.0
C10 C 0.87516 0.3951 0.27185 0.0
C11 C 0.88393 0.59684 0.33522 0.0
O12 O 0.05262 0.50205 0.06419 0.0
O13 O 0.95495 0.43788 0.02811 0.0
O14 O 0.96211 0.56662 0.04797 0.0
O15 O 0.87065 0.48897 0.08397 0.0
O16 O 0.86825 0.38006 0.20809 0.0
O17 O 0.89745 0.4546 0.28694 0.0
C18 C 0.10519 0.53438 0.18992 0.0
O19 O 0.04351 0.51102 0.19956 0.0
O20 O 0.13786 0.59096 0.1714 0.0
O21 O 0.04654 0.6302 0.43199 0.0
O22 O 0.14226 0.67451 0.38721 0.0
O23 O 0.00935 0.48168 0.36825 0.0
C24 C 0.10685 0.67327 0.43097 0.0
O25 O 0.09251 0.55848 0.41784 0.0
O26 O 0.14276 0.68519 0.22967 0.0
C27 C 0.03596 0.51181 0.42277 0.0
O28 O 0.04984 0.65396 0.16869 0.0
O29 O 0.90074 0.59674 0.27332 0.0
O30 O 0.90182 0.57365 0.38287 0.0
C31 C 0.56427 0.54206 0.04196 0.0
C32 C 0.48215 0.39501 0.15214 0.0
C33 C 0.34888 0.47179 0.17012 0.0
Mg34 Mg 0.59557 0.51688 0.18578 0.0
O35 O 0.5319 0.53605 0.21273 0.0
Mg36 Mg 0.46764 0.51399 0.12327 0.0
Mg37 Mg 0.48167 0.46016 0.25404 0.0
O38 O 0.44793 0.48093 0.3236 0.0
Mg39 Mg 0.41115 0.5327 0.32042 0.0
Mg40 Mg 0.50689 0.48699 0.40534 0.0
C41 C 0.63875 0.53903 0.33537 0.0
C42 C 0.45315 0.34841 0.37267 0.0
O43 O 0.55536 0.57827 0.0739 0.0
O44 O 0.60054 0.52534 0.07259 0.0
O45 O 0.46782 0.42715 0.11203 0.0
O46 O 0.53479 0.41878 0.18892 0.0
O47 O 0.66288 0.55334 0.27727 0.0
O48 O 0.57789 0.50075 0.33518 0.0
C49 C 0.52184 0.62034 0.18131 0.0
O50 O 0.53301 0.57895 0.21325 0.0
O51 O 0.46968 0.60106 0.145 0.0
O52 O 0.4048 0.4451 0.44946 0.0
O53 O 0.34308 0.46979 0.38063 0.0
O54 O 0.53288 0.5833 0.39472 0.0
C55 C 0.35211 0.44269 0.43233 0.0
O56 O 0.45347 0.59024 0.4163 0.0
O57 O 0.35472 0.51007 0.21711 0.0
C58 C 0.50019 0.58485 0.4389 0.0
O59 O 0.384 0.44713 0.17747 0.0
O60 O 0.43232 0.35534 0.31166 0.0
O61 O 0.48897 0.39536 0.41044 0.0
C62 C 0.52232 1.00222 0.47258 0.0
C63 C 0.56669 0.91347 0.347 0.0
C64 C 0.68443 0.13704 0.24524 0.0
Mg65 Mg 0.45107 0.92566 0.33529 0.0
O66 O 0.50043 0.00759 0.28948 0.0
Mg67 Mg 0.59638 0.05747 0.3457 0.0
Mg68 Mg 0.5374 0.97675 0.23704 0.0
O69 O 0.53381 0.02024 0.14896 0.0
Mg70 Mg 0.60993 0.09016 0.10154 0.0
Mg71 Mg 0.50056 0.92228 0.1173 0.0
C72 C 0.36933 0.87364 0.20364 0.0
C73 C 0.55188 0.86194 0.14141 0.0
O74 O 0.57056 0.03987 0.44367 0.0
O75 O 0.46982 0.95901 0.44095 0.0
O76 O 0.60016 0.97301 0.34804 0.0
O77 O 0.50596 0.88216 0.3395 0.0
O78 O 0.36043 0.87505 0.26691 0.0
O79 O 0.42779 0.89363 0.1928 0.0
C80 C 0.51653 0.09784 0.34618 0.0
O81 O 0.49244 0.0427 0.31174 0.0
O82 O 0.57716 0.1343 0.34959 0.0
O83 O 0.59089 0.95139 0.05224 0.0
O84 O 0.63349 0.04521 0.02552 0.0
O85 O 0.50146 0.00685 0.08871 0.0
C86 C 0.64259 1.00312 0.04749 0.0
O87 O 0.54542 0.0836 0.01943 0.0
O88 O 0.68461 0.15782 0.18434 0.0
C89 C 0.50954 0.02378 0.02649 0.0
O90 O 0.63964 0.07976 0.25577 0.0
O91 O 0.58112 0.9159 0.17589 0.0
O92 O 0.49179 0.8327 0.12965 0.0
C93 C 0.9959 0.37733 0.52267 0.0
C94 C 0.99412 0.50539 0.48059 0.0
C95 C 0.12124 0.63701 0.70141 0.0
Mg96 Mg 0.92562 0.40779 0.59543 0.0
O97 O 0.99541 0.4809 0.63942 0.0
Mg98 Mg 0.08139 0.52422 0.58397 0.0
Mg99 Mg 0.03737 0.47907 0.72788 0.0
O100 O 0.01259 0.52263 0.77956 0.0
Mg101 Mg 0.09608 0.57367 0.83156 0.0
Mg102 Mg 0.96909 0.44321 0.84426 0.0
C103 C 0.8924 0.34242 0.74358 0.0
C104 C 0.91128 0.50064 0.80375 0.0
O105 O 0.03962 0.43371 0.5113 0.0
O106 O 0.97412 0.36314 0.58078 0.0
O107 O 0.01771 0.54569 0.52898 0.0
O108 O 0.94178 0.45239 0.48943 0.0
O109 O 0.86925 0.3483 0.6839 0.0
O110 O 0.95213 0.37858 0.76119 0.0
C111 C 0.12932 0.45188 0.635 0.0
O112 O 0.07932 0.42515 0.66837 0.0
O113 O 0.15648 0.5098 0.62893 0.0
O114 O 0.97992 0.50974 0.91967 0.0
O115 O 0.08213 0.55768 0.94207 0.0
O116 O 0.06956 0.45425 0.87215 0.0
C117 C 0.02564 0.52215 0.96067 0.0
O118 O 0.14786 0.53198 0.81695 0.0
O119 O 0.13331 0.64983 0.76579 0.0
C120 C 0.12738 0.48453 0.85454 0.0
O121 O 0.10819 0.58313 0.68012 0.0
O122 O 0.96866 0.52387 0.77977 0.0
O123 O 0.87898 0.4423 0.81686 0.0
C124 C 0.64388 0.64479 0.56346 0.0
C125 C 0.49917 0.552 0.5044 0.0
C126 C 0.36064 0.46255 0.72146 0.0
Mg127 Mg 0.5953 0.51909 0.6122 0.0
O128 O 0.52154 0.49502 0.6623 0.0
Mg129 Mg 0.50207 0.56666 0.64853 0.0
Mg130 Mg 0.51818 0.5478 0.7461 0.0
O131 O 0.48435 0.48109 0.8099 0.0
Mg132 Mg 0.43696 0.50495 0.86198 0.0
Mg133 Mg 0.56929 0.51646 0.87585 0.0
C134 C 0.66432 0.56164 0.77632 0.0
C135 C 0.49572 0.39637 0.84284 0.0
O136 O 0.60379 0.6391 0.60336 0.0
O137 O 0.6332 0.59437 0.53783 0.0
O138 O 0.45815 0.54082 0.54554 0.0
O139 O 0.54353 0.54009 0.52085 0.0
O140 O 0.66826 0.54646 0.7145 0.0
O141 O 0.61874 0.56899 0.78741 0.0
C142 C 0.53432 0.68261 0.64736 0.0
O143 O 0.5637 0.66431 0.69179 0.0
O144 O 0.47755 0.6409 0.6292 0.0
O145 O 0.51754 0.46205 0.96159 0.0
O146 O 0.46712 0.50965 0.97364 0.0
O147 O 0.57046 0.60778 0.90313 0.0
C148 C 0.50881 0.49663 -0.00329 0.0
O149 O 0.48375 0.60181 0.85031 0.0
O150 O 0.35701 0.46006 0.78692 0.0
C151 C 0.53752 0.63243 0.88427 0.0
O152 O 0.41255 0.50075 0.69495 0.0
O153 O 0.47564 0.43318 0.81423 0.0
O154 O 0.55621 0.42178 0.85115 0.0
C155 C 0.3486 0.96268 0.95302 0.0
C156 C 0.502 0.97721 0.97307 0.0
C157 C 0.6251 0.13436 0.82519 0.0
Mg158 Mg 0.40198 0.91508 0.86087 0.0
O159 O 0.44419 1.0022 0.83716 0.0
Mg160 Mg 0.50008 0.06569 0.90996 0.0
Mg161 Mg 0.4687 0.05174 0.75726 0.0
O162 O 0.50926 0.02086 0.71724 0.0
Mg163 Mg 0.56959 0.10078 0.67441 0.0
Mg164 Mg 0.42505 0.97224 0.64596 0.0
C165 C 0.33414 0.89972 0.71561 0.0
C166 C 0.49824 0.92762 0.68109 0.0
O167 O 0.40449 0.01025 0.96915 0.0
O168 O 0.33607 0.92312 0.90609 0.0
O169 O 0.5303 0.99984 0.91987 0.0
O170 O 0.4512 0.92276 0.96576 0.0
O171 O 0.34288 0.86748 0.76298 0.0
O172 O 0.36564 0.95999 0.72041 0.0
C173 C 0.44212 0.13847 0.8599 0.0
O174 O 0.42699 0.10846 0.80243 0.0
O175 O 0.47672 0.13399 0.90623 0.0
O176 O 0.47176 0.9846 0.56479 0.0
O177 O 0.57305 0.06333 0.57527 0.0
O178 O 0.42386 0.05627 0.62352 0.0
C179 C 0.52456 0.01662 0.54234 0.0
O180 O 0.51538 0.14703 0.64663 0.0
O181 O 0.64378 0.13861 0.76475 0.0
C182 C 0.45616 0.11553 0.62529 0.0
O183 O 0.56623 0.11483 0.8289 0.0
O184 O 0.51621 0.983 0.70984 0.0
O185 O 0.43901 0.89036 0.66421 0.0
C186 C 0.74132 0.87944 0.33417 0.0
C187 C 0.60101 0.88542 0.37497 0.0
C188 C 0.7801 0.03673 0.5406 0.0
Mg189 Mg 0.62755 0.79679 0.44519 0.0
O190 O 0.68327 0.86225 0.51103 0.0
Mg191 Mg 0.74714 0.94419 0.45424 0.0
Mg192 Mg 0.63983 0.89333 0.55791 0.0
O193 O 0.69002 0.92406 0.6457 0.0
Mg194 Mg 0.77694 0.9418 0.65645 0.0
Mg195 Mg 0.63267 0.85741 0.70797 0.0
C196 C 0.56829 0.73852 0.59795 0.0
C197 C 0.5466 0.91252 0.66482 0.0
O198 O 0.78051 0.90122 0.3849 0.0
O199 O 0.68319 0.83623 0.34562 0.0
O200 O 0.66137 0.92423 0.38409 0.0
O201 O 0.57181 0.83304 0.40578 0.0
O202 O 0.57831 0.72821 0.5364 0.0
O203 O 0.57833 0.79326 0.61239 0.0
C204 C 0.78683 0.88447 0.52304 0.0
O205 O 0.72468 0.8612 0.52801 0.0
O206 O 0.82474 0.94397 0.52305 0.0
O207 O 0.70734 0.94921 0.77995 0.0
O208 O 0.8041 0.99814 0.73865 0.0
O209 O 0.69449 0.82422 0.6945 0.0
C210 C 0.76712 0.99328 0.78248 0.0
O211 O 0.78327 0.88926 0.74715 0.0
O212 O 0.80947 0.02182 0.58742 0.0
C213 C 0.7277 0.84152 0.7496 0.0
O214 O 0.72115 0.99714 0.52053 0.0
O215 O 0.56963 0.92267 0.60523 0.0
O216 O 0.56401 0.88827 0.71234 0.0
C217 C 0.20394 0.88579 0.35519 0.0
C218 C 0.13157 0.73315 0.46167 0.0
C219 C 0.00833 0.80865 0.53028 0.0
Mg220 Mg 0.24192 0.86069 0.50306 0.0
O221 O 0.18497 0.88629 0.53865 0.0
Mg222 Mg 0.10946 0.8502 0.45395 0.0
Mg223 Mg 0.1454 0.80551 0.57148 0.0
O224 O 0.11449 0.81896 0.65942 0.0
Mg225 Mg 0.07743 0.8647 0.68462 0.0
Mg226 Mg 0.16594 0.80158 0.7325 0.0
C227 C 0.29401 0.8697 0.64838 0.0
C228 C 0.10168 0.67689 0.66296 0.0
O229 O 0.17928 0.90879 0.38479 0.0
O230 O 0.23905 0.86926 0.38969 0.0
O231 O 0.10806 0.76362 0.43455 0.0
O232 O 0.18562 0.75998 0.49628 0.0
O233 O 0.31589 0.89252 0.5904 0.0
O234 O 0.23428 0.82868 0.64779 0.0
C235 C 0.16994 0.96436 0.4879 0.0
O236 O 0.18891 0.92895 0.52356 0.0
O237 O 0.11055 0.93842 0.47072 0.0
O238 O 0.08599 0.76504 0.8083 0.0
O239 O 0.04296 0.82036 0.7805 0.0
O240 O 0.22855 0.90455 0.75102 0.0
C241 C 0.03605 0.76784 0.79851 0.0
O242 O 0.16585 0.94075 0.73696 0.0
O243 O 0.01269 0.84074 0.58365 0.0
C244 C 0.19661 0.92241 0.77758 0.0
O245 O 0.0455 0.78859 0.52577 0.0
O246 O 0.11672 0.69848 0.60337 0.0
O247 O 0.09057 0.70734 0.70199 0.0
C248 C 0.16574 0.32274 0.31273 0.0
C249 C 0.29471 0.39699 0.46095 0.0
C250 C 0.18598 0.18092 0.53441 0.0
Mg251 Mg 0.16719 0.37683 0.45433 0.0
O252 O 0.12297 0.2882 0.48952 0.0
Mg253 Mg 0.17036 0.25306 0.43182 0.0
Mg254 Mg 0.19448 0.32144 0.55183 0.0
O255 O 0.15512 0.27316 0.63373 0.0
Mg256 Mg 0.09696 0.18647 0.6532 0.0
Mg257 Mg 0.16009 0.3357 0.70275 0.0
C258 C 0.14189 0.41794 0.58304 0.0
C259 C 0.30198 0.41804 0.67935 0.0
O260 O 0.12801 0.2724 0.34005 0.0
O261 O 0.18611 0.37452 0.34494 0.0
O262 O 0.26528 0.34416 0.42999 0.0
O263 O 0.26463 0.41758 0.48851 0.0
O264 O 0.14429 0.432 0.51937 0.0
O265 O 0.15597 0.37794 0.60189 0.0
C266 C 0.04752 0.191 0.43423 0.0
O267 O 0.07954 0.24591 0.4699 0.0
O268 O 0.07652 0.16206 0.42999 0.0
O269 O 0.19369 0.27341 0.77004 0.0
O270 O 0.1485 0.17423 0.72986 0.0
O271 O 0.05813 0.27877 0.70518 0.0
C272 C 0.18372 0.21753 0.77351 0.0
O273 O 0.07414 0.21133 0.7568 0.0
O274 O 0.13962 0.15255 0.57482 0.0
C275 C 0.07757 0.26389 0.7598 0.0
O276 O 0.21416 0.2402 0.5262 0.0
O277 O 0.2965 0.38842 0.62365 0.0
O278 O 0.25454 0.40273 0.71045 0.0
C279 C 0.81272 0.82598 0.24131 0.0
C280 C 0.75792 0.92398 0.27341 0.0
C281 C 0.5852 0.8444 0.09298 0.0
Mg282 Mg 0.81087 0.89617 0.163 0.0
O283 O 0.72312 0.81835 0.17263 0.0
Mg284 Mg 0.65543 0.81982 0.22696 0.0
Mg285 Mg 0.6831 0.79854 0.07902 0.0
O286 O 0.64392 0.77475 0.98341 0.0
Mg287 Mg 0.60255 0.81356 0.93108 0.0
Mg288 Mg 0.71763 0.77424 0.93578 0.0
C289 C 0.81728 0.80622 0.04342 0.0
C290 C 0.75388 0.92336 0.98288 0.0
O291 O 0.75148 0.80361 0.22272 0.0
O292 O 0.85042 0.88343 0.25489 0.0
O293 O 0.7144 0.91742 0.23035 0.0
O294 O 0.81336 0.95158 0.25114 0.0
O295 O 0.84887 0.85581 0.0836 0.0
O296 O 0.75636 0.77599 0.04052 0.0
C297 C 0.57608 0.68292 0.17255 0.0
O298 O 0.60755 0.69827 0.11843 0.0
O299 O 0.5902 0.72051 0.22143 0.0
O300 O 0.67973 0.76745 0.83196 0.0
O301 O 0.66954 0.84929 0.84153 0.0
O302 O 0.60718 0.72376 0.95389 0.0
C303 C 0.69343 0.82094 0.81269 0.0
O304 O 0.52868 0.72239 0.89062 0.0
O305 O 0.57401 0.84443 0.0266 0.0
C306 C 0.55876 0.69504 0.90845 0.0
O307 O 0.62033 0.82486 0.11781 0.0
O308 O 0.74008 0.90263 0.04332 0.0
O309 O 0.75439 0.88692 0.93841 0.0
C310 C 0.33244 0.01461 0.30273 0.0
C311 C 0.1642 0.8513 0.29584 0.0
C312 C 0.1476 0.74584 0.12455 0.0
Mg313 Mg 0.20486 0.97738 0.23461 0.0
O314 O 0.24359 0.94369 0.18077 0.0
Mg315 Mg 0.26822 0.8831 0.22303 0.0
Mg316 Mg 0.18846 0.89022 0.10085 0.0
O317 O 0.13853 0.84429 0.01583 0.0
Mg318 Mg 0.18229 0.81284 0.97898 0.0
Mg319 Mg 0.15519 0.93249 0.97324 0.0
C320 C 0.19507 0.02836 0.08125 0.0
C321 C 0.04121 0.83706 0.97948 0.0
O322 O 0.33574 0.96532 0.30253 0.0
O323 O 0.28047 0.00572 0.32141 0.0
O324 O 0.18036 0.81679 0.27286 0.0
O325 O 0.14159 0.87685 0.25397 0.0
O326 O 0.208 0.04661 0.14463 0.0
O327 O 0.17384 0.97058 0.07077 0.0
C328 C 0.32651 0.88394 0.14963 0.0
O329 O 0.26637 0.84327 0.12614 0.0
O330 O 0.34425 0.94109 0.14796 0.0
O331 O 0.13496 0.90257 0.86849 0.0
O332 O 0.18987 0.85507 0.87203 0.0
O333 O 0.26061 0.96699 0.96783 0.0
C334 C 0.17018 0.88903 0.84104 0.0
O335 O 0.27159 0.89089 0.01485 0.0
O336 O 0.13356 0.73326 0.0594 0.0
C337 C 0.29544 0.94594 0.99115 0.0
O338 O 0.19405 0.80328 0.14022 0.0
O339 O 0.08534 0.82593 0.00931 0.0
O340 O 0.05312 0.89286 0.97968 0.0
C341 C 0.04273 0.33082 0.23009 0.0
C342 C 0.20277 0.31596 0.26295 0.0
C343 C 0.2979 0.456 0.10861 0.0
Mg344 Mg 0.08616 0.26429 0.18948 0.0
O345 O 0.1375 0.35843 0.17709 0.0
Mg346 Mg 0.21582 0.43558 0.23294 0.0
Mg347 Mg 0.14698 0.38561 0.086 0.0
O348 O 0.15684 0.40912 0.98824 0.0
Mg349 Mg 0.22952 0.41498 0.9392 0.0
Mg350 Mg 0.0726 0.33154 0.93981 0.0
C351 C 0.01648 0.24471 0.03773 0.0
C352 C 0.18 0.2951 0.01177 0.0
O353 O 0.09915 0.37167 0.21206 0.0
O354 O 0.03937 0.28544 0.26396 0.0
O355 O 0.24676 0.36544 0.23833 0.0
O356 O 0.17309 0.26675 0.22474 0.0
O357 O 0.02613 0.21543 0.08795 0.0
O358 O 0.04576 0.30511 0.04191 0.0
C359 C 0.13186 0.49364 0.17847 0.0
O360 O 0.11432 0.45722 0.1243 0.0
O361 O 0.17634 0.49969 0.22186 0.0
O362 O 0.08986 0.34564 0.83083 0.0
O363 O 0.169 0.33042 0.85178 0.0
O364 O 0.15381 0.43886 0.94732 0.0
C365 C 0.11396 0.31403 0.81837 0.0
O366 O 0.22888 0.49103 0.87696 0.0
O367 O 0.30088 0.44052 0.04569 0.0
C368 C 0.17302 0.47366 0.8933 0.0
O369 O 0.24858 0.45689 0.12286 0.0
O370 O 0.18536 0.32474 0.06549 0.0
O371 O 0.1397 0.28805 0.96188 0.0
C372 C 0.28733 0.12415 0.73137 0.0
C373 C 0.22373 0.20548 0.81697 0.0
C374 C 0.45304 0.34095 0.88839 0.0
Mg375 Mg 0.24117 0.1047 0.87146 0.0
O376 O 0.33109 0.16782 0.90762 0.0
Mg377 Mg 0.36689 0.2306 0.81898 0.0
Mg378 Mg 0.30086 0.21702 0.9309 0.0
O379 O 0.35638 0.25443 0.01256 0.0
Mg380 Mg 0.43416 0.25149 0.02262 0.0
Mg381 Mg 0.2957 0.20726 0.08483 0.0
C382 C 0.20689 0.0697 0.01525 0.0
C383 C 0.2228 0.27026 0.00954 0.0
O384 O 0.33855 0.14344 0.76599 0.0
O385 O 0.23568 0.08899 0.76004 0.0
O386 O 0.27764 0.22669 0.79482 0.0
O387 O 0.19872 0.15895 0.8569 0.0
O388 O 0.19947 0.04297 0.95779 0.0
O389 O 0.23064 0.13001 0.01237 0.0
C390 C 0.42664 0.18489 0.87238 0.0
O391 O 0.37327 0.16859 0.90269 0.0
O392 O 0.45636 0.23643 0.84159 0.0
O393 O 0.38751 0.29983 0.13544 0.0
O394 O 0.47876 0.32037 0.09251 0.0
O395 O 0.33456 0.14743 0.09241 0.0
C396 C 0.44897 0.33162 0.13344 0.0
O397 O 0.42867 0.21065 0.13031 0.0
O398 O 0.47912 0.322 0.9356 0.0
C399 C 0.37093 0.1738 0.14386 0.0
O400 O 0.39151 0.31239 0.87924 0.0
O401 O 0.24256 0.26479 0.95328 0.0
O402 O 0.24185 0.25717 0.0663 0.0
C403 C 0.86091 0.20605 0.67536 0.0
C404 C 0.78978 0.05306 0.81406 0.0
C405 C 0.66907 0.14159 0.88907 0.0
Mg406 Mg 0.9127 0.18922 0.82352 0.0
O407 O 0.85928 0.21581 0.85577 0.0
Mg408 Mg 0.76756 0.16941 0.79195 0.0
Mg409 Mg 0.81477 0.15025 0.91525 0.0
O410 O 0.76451 0.08472 0.98125 0.0
Mg411 Mg 0.73017 0.13677 0.03085 0.0
Mg412 Mg 0.84088 0.09701 0.04712 0.0
C413 C 0.97103 0.21055 0.97275 0.0
C414 C 0.78914 0.99409 0.97316 0.0
O415 O 0.80776 0.18574 0.69779 0.0
O416 O 0.91044 0.21534 0.71352 0.0
O417 O 0.75445 0.07495 0.79903 0.0
O418 O 0.85031 0.08837 0.82691 0.0
O419 O 0.98779 0.22986 0.91217 0.0
O420 O 0.91267 0.16596 0.97556 0.0
C421 C 0.84887 0.29234 0.793 0.0
O422 O 0.86838 0.26013 0.83403 0.0
O423 O 0.78882 0.26788 0.7821 0.0
O424 O 0.74163 0.01922 0.09811 0.0
O425 O 0.70762 0.07883 0.12344 0.0
O426 O 0.83877 0.17637 0.06385 0.0
C427 C 0.69367 0.02543 0.10456 0.0
O428 O 0.78929 0.20851 0.11364 0.0
O429 O 0.656 0.13975 0.95146 0.0
C430 C 0.82616 0.1877 0.11884 0.0
O431 O 0.72099 0.14546 0.8805 0.0
O432 O 0.76305 0.02829 0.95625 0.0
O433 O 0.84461 0.02172 0.00246 0.0
C434 C 0.81896 0.6446 0.12648 0.0
C435 C 0.87159 0.57007 0.01854 0.0
C436 C 0.99248 0.79351 0.92638 0.0
Mg437 Mg 0.76713 0.59648 0.98241 0.0
O438 O 0.82526 0.68487 0.94827 0.0
Mg439 Mg 0.90965 0.71917 0.01949 0.0
Mg440 Mg 0.86343 0.64631 0.90861 0.0
O441 O 0.87451 0.68129 0.81385 0.0
Mg442 Mg 0.92537 0.76485 0.7724 0.0
Mg443 Mg 0.81603 0.60288 0.74824 0.0
C444 C 0.70721 0.56614 0.84163 0.0
C445 C 0.88496 0.54078 0.81464 0.0
O446 O 0.8506 0.69769 0.10051 0.0
O447 O 0.7689 0.60004 0.09414 0.0
O448 O 0.90442 0.62849 0.03118 0.0
O449 O 0.81508 0.54353 0.98937 0.0
O450 O 0.68866 0.56458 0.90109 0.0
O451 O 0.76436 0.57829 0.84082 0.0
C452 C 0.85227 0.78231 0.0021 0.0
O453 O 0.8243 0.72633 0.96749 0.0
O454 O 0.91224 0.81014 0.01478 0.0
O455 O 0.93009 0.67702 0.79375 0.0
O456 O 0.97055 0.73337 0.7042 0.0
O457 O 0.79209 0.67128 0.72922 0.0
C458 C 0.98021 0.71534 0.7615 0.0
O459 O 0.85959 0.76208 0.6952 0.0
O460 O 0.97641 0.81555 0.8732 0.0
C461 C 0.82781 0.703 0.68327 0.0
O462 O 0.9667 0.73478 0.93584 0.0
O463 O 0.90347 0.5804 0.86555 0.0
O464 O 0.84259 0.53425 0.76964 0.0
C465 C 0.35352 0.05563 0.24236 0.0
C466 C 0.3418 0.18914 0.19943 0.0
C467 C 0.42467 0.2916 0.41614 0.0
Mg468 Mg 0.2634 0.08782 0.288 0.0
O469 O 0.3393 0.14103 0.3473 0.0
Mg470 Mg 0.43339 0.19834 0.30969 0.0
Mg471 Mg 0.35967 0.13847 0.44678 0.0
O472 O 0.31483 0.17115 0.48855 0.0
Mg473 Mg 0.38148 0.2304 0.55494 0.0
Mg474 Mg 0.26351 0.08778 0.5474 0.0
C475 C 0.2175 0.01534 0.44169 0.0
C476 C 0.20857 0.14436 0.49678 0.0
O477 O 0.40865 0.1066 0.24618 0.0
O478 O 0.30904 0.06121 0.21528 0.0
O479 O 0.37696 0.22626 0.24741 0.0
O480 O 0.28147 0.15654 0.20711 0.0
O481 O 0.2013 0.02622 0.37963 0.0
O482 O 0.27578 0.04057 0.4631 0.0
C483 C 0.47851 0.12377 0.37528 0.0
O484 O 0.42433 0.0935 0.40266 0.0
O485 O 0.50247 0.18168 0.36952 0.0
O486 O 0.24615 0.13388 0.62786 0.0
O487 O 0.34353 0.20949 0.65774 0.0
O488 O 0.35851 0.10501 0.59721 0.0
C489 C 0.28938 0.16296 0.67345 0.0
O490 O 0.44497 0.19781 0.57623 0.0
O491 O 0.41264 0.30037 0.47613 0.0
C492 C 0.4192 0.14315 0.60148 0.0
O493 O 0.42886 0.24353 0.4059 0.0
O494 O 0.27052 0.17085 0.48324 0.0
O495 O 0.17569 0.08478 0.50008 0.0
C496 C 0.99562 0.31352 0.17116 0.0
C497 C 0.83878 0.16043 0.18138 0.0
C498 C 0.7328 0.17988 0.30562 0.0
Mg499 Mg 0.94694 0.18606 0.22572 0.0
O500 O 0.91979 0.24112 0.27082 0.0
Mg501 Mg 0.87245 0.28632 0.22304 0.0
Mg502 Mg 0.87296 0.207 0.35285 0.0
O503 O 0.83368 0.17858 0.43484 0.0
Mg504 Mg 0.80127 0.22711 0.45777 0.0
Mg505 Mg 0.92908 0.2082 0.47925 0.0
C506 C 0.99662 0.17961 0.37704 0.0
C507 C 0.82389 0.09056 0.49693 0.0
O508 O 0.96297 0.33944 0.16398 0.0
O509 O 0.96903 0.25737 0.15041 0.0
O510 O 0.86468 0.19779 0.23208 0.0
O511 O 0.8537 0.11891 0.17806 0.0
O512 O 0.00443 0.17329 0.31437 0.0
O513 O 0.95072 0.18608 0.38876 0.0
C514 C 0.88639 0.3506 0.31953 0.0
O515 O 0.84172 0.29322 0.3343 0.0
O516 O 0.93814 0.35476 0.31061 0.0
O517 O 0.91282 0.23282 0.57703 0.0
O518 O 0.80942 0.20375 0.56632 0.0
O519 O 0.96753 0.30355 0.43977 0.0
C520 C 0.86133 0.21641 0.60247 0.0
O521 O 0.89288 0.32054 0.46853 0.0
O522 O 0.7193 0.17182 0.36893 0.0
C523 C 0.95208 0.33853 0.46549 0.0
O524 O 0.79117 0.22289 0.29763 0.0
O525 O 0.80788 0.12372 0.45376 0.0
O526 O 0.88293 0.1111 0.50996 0.0
C527 C 0.70692 0.68015 0.59465 0.0
C528 C 0.85281 0.67082 0.64164 0.0
C529 C 0.9639 0.79834 0.46754 0.0
Mg530 Mg 0.74291 0.60873 0.55965 0.0
O531 O 0.79437 0.6965 0.52692 0.0
Mg532 Mg 0.87378 0.77676 0.57881 0.0
Mg533 Mg 0.81455 0.72118 0.43411 0.0
O534 O 0.83379 0.75001 0.34061 0.0
Mg535 Mg 0.91076 0.75967 0.30621 0.0
Mg536 Mg 0.75166 0.6806 0.28856 0.0
C537 C 0.67945 0.57855 0.39835 0.0
C538 C 0.84448 0.62449 0.35504 0.0
O539 O 0.75417 0.71079 0.5558 0.0
O540 O 0.70961 0.64238 0.63598 0.0
O541 O 0.89317 0.70376 0.59971 0.0
O542 O 0.81755 0.61235 0.62538 0.0
O543 O 0.68307 0.55496 0.45742 0.0
O544 O 0.71431 0.63786 0.38953 0.0
C545 C 0.80963 0.84203 0.51113 0.0
O546 O 0.78465 0.7983 0.46318 0.0
O547 O 0.85221 0.84776 0.55559 0.0
O548 O 0.78593 0.62157 0.23712 0.0
O549 O 0.8881 0.69087 0.22295 0.0
O550 O 0.80842 0.73844 0.20171 0.0
C551 C 0.83299 0.64557 0.19901 0.0
O552 O 0.90276 0.82115 0.2344 0.0
O553 O 0.9747 0.7865 0.40772 0.0
C554 C 0.84362 0.79703 0.21349 0.0
O555 O 0.91125 0.79343 0.476 0.0
O556 O 0.85734 0.6563 0.41086 0.0
O557 O 0.79985 0.6194 0.31245 0.0
loop_
_geom_bond_atom_site_label_1
_geom_bond_atom_site_label_2
_geom_bond_distance
_geom_bond_site_symmetry_2
_ccdc_geom_bond_type
C0 O12 1.241 . S
C0 O13 1.280 . S
C1 O14 1.277 . S
C1 O15 1.245 . S
C2 O26 1.247 . S
C2 O28 1.289 . S
Mg3 O4 1.926 . S
Mg3 O13 1.984 . S
Mg3 O15 1.988 . S
Mg3 O16 2.061 . S
O4 Mg3 1.926 . S
O4 Mg5 1.986 1_655 S
O4 Mg6 1.917 1_655 S
Mg5 O4 1.986 1_455 S
Mg5 O12 2.042 1_455 S
Mg5 O14 2.041 1_455 S
Mg5 O20 2.038 . S
Mg5 O28 2.238 . S
Mg6 O4 1.917 1_455 S
Mg6 O7 1.917 . S
Mg6 O17 2.106 1_455 S
Mg6 O19 2.079 . S
Mg6 O28 2.106 . S
Mg6 O29 2.079 1_455 S
O7 Mg6 1.917 . S
O7 Mg8 1.926 . S
O7 Mg9 1.986 1_455 S
Mg8 O7 1.926 . S
Mg8 O22 1.984 . S
Mg8 O25 1.988 . S
Mg8 O26 2.061 . S
Mg9 O7 1.986 1_655 S
Mg9 O17 2.238 . S
Mg9 O21 2.042 1_655 S
Mg9 O23 2.041 1_655 S
Mg9 O30 2.038 . S
C10 O16 1.247 . S
C10 O17 1.289 . S
C11 O29 1.245 . S
C11 O30 1.274 . S
O12 C0 1.241 . S
O12 Mg5 2.042 1_655 S
O13 C0 1.280 . S
O13 Mg3 1.984 . S
O14 C1 1.277 . S
O14 Mg5 2.041 1_655 S
O15 C1 1.245 . S
O15 Mg3 1.988 . S
O16 Mg3 2.061 . S
O16 C10 1.247 . S
O17 Mg6 2.106 1_655 S
O17 Mg9 2.238 . S
O17 C10 1.289 . S
C18 O19 1.245 . S
C18 O20 1.274 . S
O19 Mg6 2.079 . S
O19 C18 1.245 . S
O20 Mg5 2.038 . S
O20 C18 1.274 . S
O21 Mg9 2.042 1_455 S
O21 C24 1.241 . S
O22 Mg8 1.984 . S
O22 C24 1.280 . S
O23 Mg9 2.041 1_455 S
O23 C27 1.277 . S
C24 O21 1.241 . S
C24 O22 1.280 . S
O25 Mg8 1.988 . S
O25 C27 1.245 . S
O26 C2 1.247 . S
O26 Mg8 2.061 . S
C27 O23 1.277 . S
C27 O25 1.245 . S
O28 C2 1.289 . S
O28 Mg5 2.238 . S
O28 Mg6 2.106 . S
O29 Mg6 2.079 1_655 S
O29 C11 1.245 . S
O30 Mg9 2.038 . S
O30 C11 1.274 . S
C31 O43 1.241 . S
C31 O44 1.280 . S
C32 O45 1.277 . S
C32 O46 1.245 . S
C33 O57 1.247 . S
C33 O59 1.289 . S
Mg34 O35 1.926 . S
Mg34 O44 1.984 . S
Mg34 O46 1.988 . S
Mg34 O47 2.061 . S
O35 Mg34 1.926 . S
O35 Mg36 1.986 . S
O35 Mg37 1.917 . S
Mg36 O35 1.986 . S
Mg36 O43 2.042 . S
Mg36 O45 2.041 . S
Mg36 O51 2.038 . S
Mg36 O59 2.238 . S
Mg37 O35 1.917 . S
Mg37 O38 1.917 . S
Mg37 O48 2.106 . S
Mg37 O50 2.079 . S
Mg37 O59 2.106 . S
Mg37 O60 2.079 . S
O38 Mg37 1.917 . S
O38 Mg39 1.926 . S
O38 Mg40 1.986 . S
Mg39 O38 1.926 . S
Mg39 O53 1.984 . S
Mg39 O56 1.988 . S
Mg39 O57 2.061 . S
Mg40 O38 1.986 . S
Mg40 O48 2.238 . S
Mg40 O52 2.042 . S
Mg40 O54 2.041 . S
Mg40 O61 2.038 . S
C41 O47 1.247 . S
C41 O48 1.289 . S
C42 O60 1.245 . S
C42 O61 1.274 . S
O43 C31 1.241 . S
O43 Mg36 2.042 . S
O44 C31 1.280 . S
O44 Mg34 1.984 . S
O45 C32 1.277 . S
O45 Mg36 2.041 . S
O46 C32 1.245 . S
O46 Mg34 1.988 . S
O47 Mg34 2.061 . S
O47 C41 1.247 . S
O48 Mg37 2.106 . S
O48 Mg40 2.238 . S
O48 C41 1.289 . S
C49 O50 1.245 . S
C49 O51 1.274 . S
O50 Mg37 2.079 . S
O50 C49 1.245 . S
O51 Mg36 2.038 . S
O51 C49 1.274 . S
O52 Mg40 2.042 . S
O52 C55 1.241 . S
O53 Mg39 1.984 . S
O53 C55 1.280 . S
O54 Mg40 2.041 . S
O54 C58 1.277 . S
C55 O52 1.241 . S
C55 O53 1.280 . S
O56 Mg39 1.988 . S
O56 C58 1.245 . S
O57 C33 1.247 . S
O57 Mg39 2.061 . S
C58 O54 1.277 . S
C58 O56 1.245 . S
O59 C33 1.289 . S
O59 Mg36 2.238 . S
O59 Mg37 2.106 . S
O60 Mg37 2.079 . S
O60 C42 1.245 . S
O61 Mg40 2.038 . S
O61 C42 1.274 . S
C62 O74 1.241 . S
C62 O75 1.280 . S
C63 O76 1.277 . S
C63 O77 1.245 . S
C64 O88 1.247 . S
C64 O90 1.289 . S
Mg65 O66 1.926 . S
Mg65 O75 1.984 . S
Mg65 O77 1.988 . S
Mg65 O78 2.061 . S
O66 Mg65 1.926 . S
O66 Mg67 1.986 1_565 S
O66 Mg68 1.917 1_565 S
Mg67 O66 1.986 1_545 S
Mg67 O74 2.042 1_545 S
Mg67 O76 2.041 1_545 S
Mg67 O82 2.038 . S
Mg67 O90 2.238 . S
Mg68 O66 1.917 1_545 S
Mg68 O69 1.917 . S
Mg68 O79 2.106 1_545 S
Mg68 O81 2.079 . S
Mg68 O90 2.106 . S
Mg68 O91 2.079 1_545 S
O69 Mg68 1.917 . S
O69 Mg70 1.926 . S
O69 Mg71 1.986 1_545 S
Mg70 O69 1.926 . S
Mg70 O84 1.984 . S
Mg70 O87 1.988 . S
Mg70 O88 2.061 . S
Mg71 O69 1.986 1_565 S
Mg71 O79 2.238 . S
Mg71 O83 2.042 1_565 S
Mg71 O85 2.041 1_565 S
Mg71 O92 2.038 . S
C72 O78 1.247 . S
C72 O79 1.289 . S
C73 O91 1.245 . S
C73 O92 1.274 . S
O74 C62 1.241 . S
O74 Mg67 2.042 1_565 S
O75 C62 1.280 . S
O75 Mg65 1.984 . S
O76 C63 1.277 . S
O76 Mg67 2.041 1_565 S
O77 C63 1.245 . S
O77 Mg65 1.988 . S
O78 Mg65 2.061 . S
O78 C72 1.247 . S
O79 Mg68 2.106 1_565 S
O79 Mg71 2.238 . S
O79 C72 1.289 . S
C80 O81 1.245 . S
C80 O82 1.274 . S
O81 Mg68 2.079 . S
O81 C80 1.245 . S
O82 Mg67 2.038 . S
O82 C80 1.274 . S
O83 Mg71 2.042 1_545 S
O83 C86 1.241 . S
O84 Mg70 1.984 . S
O84 C86 1.280 . S
O85 Mg71 2.041 1_545 S
O85 C89 1.277 . S
C86 O83 1.241 . S
C86 O84 1.280 . S
O87 Mg70 1.988 . S
O87 C89 1.245 . S
O88 C64 1.247 . S
O88 Mg70 2.061 . S
C89 O85 1.277 . S
C89 O87 1.245 . S
O90 C64 1.289 . S
O90 Mg67 2.238 . S
O90 Mg68 2.106 . S
O91 Mg68 2.079 1_565 S
O91 C73 1.245 . S
O92 Mg71 2.038 . S
O92 C73 1.274 . S
C93 O105 1.241 1_655 S
C93 O106 1.280 . S
C94 O107 1.277 . S
C94 O108 1.245 . S
C95 O119 1.247 . S
C95 O121 1.289 . S
Mg96 O97 1.926 . S
Mg96 O106 1.984 . S
Mg96 O108 1.988 . S
Mg96 O109 2.061 . S
O97 Mg96 1.926 . S
O97 Mg98 1.986 1_655 S
O97 Mg99 1.917 1_655 S
Mg98 O97 1.986 1_455 S
Mg98 O105 2.042 . S
Mg98 O107 2.041 1_455 S
Mg98 O113 2.038 . S
Mg98 O121 2.238 . S
Mg99 O97 1.917 1_455 S
Mg99 O100 1.917 . S
Mg99 O110 2.106 1_455 S
Mg99 O112 2.079 . S
Mg99 O121 2.106 . S
Mg99 O122 2.079 1_455 S
O100 Mg99 1.917 . S
O100 Mg101 1.926 . S
O100 Mg102 1.986 1_455 S
Mg101 O100 1.926 . S
Mg101 O115 1.984 . S
Mg101 O118 1.988 . S
Mg101 O119 2.061 . S
Mg102 O100 1.986 1_655 S
Mg102 O110 2.238 . S
Mg102 O114 2.042 1_655 S
Mg102 O116 2.041 1_655 S
Mg102 O123 2.038 . S
C103 O109 1.247 . S
C103 O110 1.289 . S
C104 O122 1.245 . S
C104 O123 1.274 . S
O105 C93 1.241 1_455 S
O105 Mg98 2.042 . S
O106 C93 1.280 . S
O106 Mg96 1.984 . S
O107 C94 1.277 . S
O107 Mg98 2.041 1_655 S
O108 C94 1.245 . S
O108 Mg96 1.988 . S
O109 Mg96 2.061 . S
O109 C103 1.247 . S
O110 Mg99 2.106 1_655 S
O110 Mg102 2.238 . S
O110 C103 1.289 . S
C111 O112 1.245 . S
C111 O113 1.274 . S
O112 Mg99 2.079 . S
O112 C111 1.245 . S
O113 Mg98 2.038 . S
O113 C111 1.274 . S
O114 Mg102 2.042 1_455 S
O114 C117 1.241 . S
O115 Mg101 1.984 . S
O115 C117 1.280 . S
O116 Mg102 2.041 1_455 S
O116 C120 1.277 . S
C117 O114 1.241 . S
C117 O115 1.280 . S
O118 Mg101 1.988 . S
O118 C120 1.245 . S
O119 C95 1.247 . S
O119 Mg101 2.061 . S
C120 O116 1.277 . S
C120 O118 1.245 . S
O121 C95 1.289 . S
O121 Mg98 2.238 . S
O121 Mg99 2.106 . S
O122 Mg99 2.079 1_655 S
O122 C104 1.245 . S
O123 Mg102 2.038 . S
O123 C104 1.274 . S
C124 O136 1.241 . S
C124 O137 1.280 . S
C125 O138 1.277 . S
C125 O139 1.245 . S
C126 O150 1.247 . S
C126 O152 1.289 . S
Mg127 O128 1.926 . S
Mg127 O137 1.984 . S
Mg127 O139 1.988 . S
Mg127 O140 2.061 . S
O128 Mg127 1.926 . S
O128 Mg129 1.986 . S
O128 Mg130 1.917 . S
Mg129 O128 1.986 . S
Mg129 O136 2.042 . S
Mg129 O138 2.041 . S
Mg129 O144 2.038 . S
Mg129 O152 2.238 . S
Mg130 O128 1.917 . S
Mg130 O131 1.917 . S
Mg130 O141 2.106 . S
Mg130 O143 2.079 . S
Mg130 O152 2.106 . S
Mg130 O153 2.079 . S
O131 Mg130 1.917 . S
O131 Mg132 1.926 . S
O131 Mg133 1.986 . S
Mg132 O131 1.926 . S
Mg132 O146 1.984 . S
Mg132 O149 1.988 . S
Mg132 O150 2.061 . S
Mg133 O131 1.986 . S
Mg133 O141 2.238 . S
Mg133 O145 2.042 . S
Mg133 O147 2.041 . S
Mg133 O154 2.038 . S
C134 O140 1.247 . S
C134 O141 1.289 . S
C135 O153 1.245 . S
C135 O154 1.274 . S
O136 C124 1.241 . S
O136 Mg129 2.042 . S
O137 C124 1.280 . S
O137 Mg127 1.984 . S
O138 C125 1.277 . S
O138 Mg129 2.041 . S
O139 C125 1.245 . S
O139 Mg127 1.988 . S
O140 Mg127 2.061 . S
O140 C134 1.247 . S
O141 Mg130 2.106 . S
O141 Mg133 2.238 . S
O141 C134 1.289 . S
C142 O143 1.245 . S
C142 O144 1.274 . S
O143 Mg130 2.079 . S
O143 C142 1.245 . S
O144 Mg129 2.038 . S
O144 C142 1.274 . S
O145 Mg133 2.042 . S
O145 C148 1.241 . S
O146 Mg132 1.984 . S
O146 C148 1.280 . S
O147 Mg133 2.041 . S
O147 C151 1.277 . S
C148 O145 1.241 . S
C148 O146 1.280 . S
O149 Mg132 1.988 . S
O149 C151 1.245 . S
O150 C126 1.247 . S
O150 Mg132 2.061 . S
C151 O147 1.277 . S
C151 O149 1.245 . S
O152 C126 1.289 . S
O152 Mg129 2.238 . S
O152 Mg130 2.106 . S
O153 Mg130 2.079 . S
O153 C135 1.245 . S
O154 Mg133 2.038 . S
O154 C135 1.274 . S
C155 O167 1.241 1_565 S
C155 O168 1.280 . S
C156 O169 1.277 . S
C156 O170 1.245 . S
C157 O181 1.247 . S
C157 O183 1.289 . S
Mg158 O159 1.926 . S
Mg158 O168 1.984 . S
Mg158 O170 1.988 . S
Mg158 O171 2.061 . S
O159 Mg158 1.926 . S
O159 Mg160 1.986 1_565 S
O159 Mg161 1.917 1_565 S
Mg160 O159 1.986 1_545 S
Mg160 O167 2.042 . S
Mg160 O169 2.041 1_545 S
Mg160 O175 2.038 . S
Mg160 O183 2.238 . S
Mg161 O159 1.917 1_545 S
Mg161 O162 1.917 . S
Mg161 O172 2.106 1_545 S
Mg161 O174 2.079 . S
Mg161 O183 2.106 . S
Mg161 O184 2.079 1_545 S
O162 Mg161 1.917 . S
O162 Mg163 1.926 . S
O162 Mg164 1.986 1_545 S
Mg163 O162 1.926 . S
Mg163 O177 1.984 . S
Mg163 O180 1.988 . S
Mg163 O181 2.061 . S
Mg164 O162 1.986 1_565 S
Mg164 O172 2.238 . S
Mg164 O176 2.042 1_565 S
Mg164 O178 2.041 1_565 S
Mg164 O185 2.038 . S
C165 O171 1.247 . S
C165 O172 1.289 . S
C166 O184 1.245 . S
C166 O185 1.274 . S
O167 C155 1.241 1_545 S
O167 Mg160 2.042 . S
O168 C155 1.280 . S
O168 Mg158 1.984 . S
O169 C156 1.277 . S
O169 Mg160 2.041 1_565 S
O170 C156 1.245 . S
O170 Mg158 1.988 . S
O171 Mg158 2.061 . S
O171 C165 1.247 . S
O172 Mg161 2.106 1_565 S
O172 Mg164 2.238 . S
O172 C165 1.289 . S
C173 O174 1.245 . S
C173 O175 1.274 . S
O174 Mg161 2.079 . S
O174 C173 1.245 . S
O175 Mg160 2.038 . S
O175 C173 1.274 . S
O176 Mg164 2.042 1_545 S
O176 C179 1.241 . S
O177 Mg163 1.984 . S
O177 C179 1.280 . S
O178 Mg164 2.041 1_545 S
O178 C182 1.277 . S
C179 O176 1.241 . S
C179 O177 1.280 . S
O180 Mg163 1.988 . S
O180 C182 1.245 . S
O181 C157 1.247 . S
O181 Mg163 2.061 . S
C182 O178 1.277 . S
C182 O180 1.245 . S
O183 C157 1.289 . S
O183 Mg160 2.238 . S
O183 Mg161 2.106 . S
O184 Mg161 2.079 1_565 S
O184 C166 1.245 . S
O185 Mg164 2.038 . S
O185 C166 1.274 . S
C186 O198 1.241 . S
C186 O199 1.280 . S
C187 O200 1.277 . S
C187 O201 1.245 . S
C188 O212 1.247 . S
C188 O214 1.289 1_545 S
Mg189 O190 1.926 . S
Mg189 O199 1.984 . S
Mg189 O201 1.988 . S
Mg189 O202 2.061 . S
O190 Mg189 1.926 . S
O190 Mg191 1.986 . S
O190 Mg192 1.917 . S
Mg191 O190 1.986 . S
Mg191 O198 2.042 . S
Mg191 O200 2.041 . S
Mg191 O206 2.038 . S
Mg191 O214 2.238 . S
Mg192 O190 1.917 . S
Mg192 O193 1.917 . S
Mg192 O203 2.106 . S
Mg192 O205 2.079 . S
Mg192 O214 2.106 . S
Mg192 O215 2.079 . S
O193 Mg192 1.917 . S
O193 Mg194 1.926 . S
O193 Mg195 1.986 . S
Mg194 O193 1.926 . S
Mg194 O208 1.984 1_565 S
Mg194 O211 1.988 . S
Mg194 O212 2.061 1_565 S
Mg195 O193 1.986 . S
Mg195 O203 2.238 . S
Mg195 O207 2.042 . S
Mg195 O209 2.041 . S
Mg195 O216 2.038 . S
C196 O202 1.247 . S
C196 O203 1.289 . S
C197 O215 1.245 . S
C197 O216 1.274 . S
O198 C186 1.241 . S
O198 Mg191 2.042 . S
O199 C186 1.280 . S
O199 Mg189 1.984 . S
O200 C187 1.277 . S
O200 Mg191 2.041 . S
O201 C187 1.245 . S
O201 Mg189 1.988 . S
O202 Mg189 2.061 . S
O202 C196 1.247 . S
O203 Mg192 2.106 . S
O203 Mg195 2.238 . S
O203 C196 1.289 . S
C204 O205 1.245 . S
C204 O206 1.274 . S
O205 Mg192 2.079 . S
O205 C204 1.245 . S
O206 Mg191 2.038 . S
O206 C204 1.274 . S
O207 Mg195 2.042 . S
O207 C210 1.241 1_565 S
O208 Mg194 1.984 1_545 S
O208 C210 1.280 . S
O209 Mg195 2.041 . S
O209 C213 1.277 . S
C210 O207 1.241 1_545 S
C210 O208 1.280 . S
O211 Mg194 1.988 . S
O211 C213 1.245 . S
O212 C188 1.247 . S
O212 Mg194 2.061 1_545 S
C213 O209 1.277 . S
C213 O211 1.245 . S
O214 C188 1.289 1_565 S
O214 Mg191 2.238 . S
O214 Mg192 2.106 . S
O215 Mg192 2.079 . S
O215 C197 1.245 . S
O216 Mg195 2.038 . S
O216 C197 1.274 . S
C217 O229 1.241 . S
C217 O230 1.280 . S
C218 O231 1.277 . S
C218 O232 1.245 . S
C219 O243 1.247 . S
C219 O245 1.289 1_655 S
Mg220 O221 1.926 . S
Mg220 O230 1.984 . S
Mg220 O232 1.988 . S
Mg220 O233 2.061 . S
O221 Mg220 1.926 . S
O221 Mg222 1.986 . S
O221 Mg223 1.917 . S
Mg222 O221 1.986 . S
Mg222 O229 2.042 . S
Mg222 O231 2.041 . S
Mg222 O237 2.038 . S
Mg222 O245 2.238 . S
Mg223 O221 1.917 . S
Mg223 O224 1.917 . S
Mg223 O234 2.106 . S
Mg223 O236 2.079 . S
Mg223 O245 2.106 . S
Mg223 O246 2.079 . S
O224 Mg223 1.917 . S
O224 Mg225 1.926 . S
O224 Mg226 1.986 . S
Mg225 O224 1.926 . S
Mg225 O239 1.984 1_455 S
Mg225 O242 1.988 . S
Mg225 O243 2.061 1_455 S
Mg226 O224 1.986 . S
Mg226 O234 2.238 . S
Mg226 O238 2.042 . S
Mg226 O240 2.041 . S
Mg226 O247 2.038 . S
C227 O233 1.247 . S
C227 O234 1.289 . S
C228 O246 1.245 . S
C228 O247 1.274 . S
O229 C217 1.241 . S
O229 Mg222 2.042 . S
O230 C217 1.280 . S
O230 Mg220 1.984 . S
O231 C218 1.277 . S
O231 Mg222 2.041 . S
O232 C218 1.245 . S
O232 Mg220 1.988 . S
O233 Mg220 2.061 . S
O233 C227 1.247 . S
O234 Mg223 2.106 . S
O234 Mg226 2.238 . S
O234 C227 1.289 . S
C235 O236 1.245 . S
C235 O237 1.274 . S
O236 Mg223 2.079 . S
O236 C235 1.245 . S
O237 Mg222 2.038 . S
O237 C235 1.274 . S
O238 Mg226 2.042 . S
O238 C241 1.241 . S
O239 Mg225 1.984 1_655 S
O239 C241 1.280 1_655 S
O240 Mg226 2.041 . S
O240 C244 1.277 . S
C241 O238 1.241 . S
C241 O239 1.280 1_455 S
O242 Mg225 1.988 . S
O242 C244 1.245 . S
O243 C219 1.247 . S
O243 Mg225 2.061 1_655 S
C244 O240 1.277 . S
C244 O242 1.245 . S
O245 C219 1.289 1_455 S
O245 Mg222 2.238 . S
O245 Mg223 2.106 . S
O246 Mg223 2.079 . S
O246 C228 1.245 . S
O247 Mg226 2.038 . S
O247 C228 1.274 . S
C248 O260 1.241 . S
C248 O261 1.280 . S
C249 O262 1.277 . S
C249 O263 1.245 . S
C250 O274 1.247 . S
C250 O276 1.289 . S
Mg251 O252 1.926 . S
Mg251 O261 1.984 . S
Mg251 O263 1.988 . S
Mg251 O264 2.061 . S
O252 Mg251 1.926 . S
O252 Mg253 1.986 . S
O252 Mg254 1.917 . S
Mg253 O252 1.986 . S
Mg253 O260 2.042 . S
Mg253 O262 2.041 . S
Mg253 O268 2.038 . S
Mg253 O276 2.238 . S
Mg254 O252 1.917 . S
Mg254 O255 1.917 . S
Mg254 O265 2.106 . S
Mg254 O267 2.079 . S
Mg254 O276 2.106 . S
Mg254 O277 2.079 . S
O255 Mg254 1.917 . S
O255 Mg256 1.926 . S
O255 Mg257 1.986 . S
Mg256 O255 1.926 . S
Mg256 O270 1.984 . S
Mg256 O273 1.988 . S
Mg256 O274 2.061 . S
Mg257 O255 1.986 . S
Mg257 O265 2.238 . S
Mg257 O269 2.042 . S
Mg257 O271 2.041 . S
Mg257 O278 2.038 . S
C258 O264 1.247 . S
C258 O265 1.289 . S
C259 O277 1.245 . S
C259 O278 1.274 . S
O260 C248 1.241 . S
O260 Mg253 2.042 . S
O261 C248 1.280 . S
O261 Mg251 1.984 . S
O262 C249 1.277 . S
O262 Mg253 2.041 . S
O263 C249 1.245 . S
O263 Mg251 1.988 . S
O264 Mg251 2.061 . S
O264 C258 1.247 . S
O265 Mg254 2.106 . S
O265 Mg257 2.238 . S
O265 C258 1.289 . S
C266 O267 1.245 . S
C266 O268 1.274 . S
O267 Mg254 2.079 . S
O267 C266 1.245 . S
O268 Mg253 2.038 . S
O268 C266 1.274 . S
O269 Mg257 2.042 . S
O269 C272 1.241 . S
O270 Mg256 1.984 . S
O270 C272 1.280 . S
O271 Mg257 2.041 . S
O271 C275 1.277 . S
C272 O269 1.241 . S
C272 O270 1.280 . S
O273 Mg256 1.988 . S
O273 C275 1.245 . S
O274 C250 1.247 . S
O274 Mg256 2.061 . S
C275 O271 1.277 . S
C275 O273 1.245 . S
O276 C250 1.289 . S
O276 Mg253 2.238 . S
O276 Mg254 2.106 . S
O277 Mg254 2.079 . S
O277 C259 1.245 . S
O278 Mg257 2.038 . S
O278 C259 1.274 . S
C279 O291 1.241 . S
C279 O292 1.280 . S
C280 O293 1.277 . S
C280 O294 1.245 . S
C281 O305 1.247 . S
C281 O307 1.289 . S
Mg282 O283 1.926 . S
Mg282 O292 1.984 . S
Mg282 O294 1.988 . S
Mg282 O295 2.061 . S
O283 Mg282 1.926 . S
O283 Mg284 1.986 . S
O283 Mg285 1.917 . S
Mg284 O283 1.986 . S
Mg284 O291 2.042 . S
Mg284 O293 2.041 . S
Mg284 O299 2.038 . S
Mg284 O307 2.238 . S
Mg285 O283 1.917 . S
Mg285 O286 1.917 1_554 S
Mg285 O296 2.106 . S
Mg285 O298 2.079 . S
Mg285 O307 2.106 . S
Mg285 O308 2.079 . S
O286 Mg285 1.917 1_556 S
O286 Mg287 1.926 . S
O286 Mg288 1.986 . S
Mg287 O286 1.926 . S
Mg287 O301 1.984 . S
Mg287 O304 1.988 . S
Mg287 O305 2.061 1_556 S
Mg288 O286 1.986 . S
Mg288 O296 2.238 1_556 S
Mg288 O300 2.042 . S
Mg288 O302 2.041 . S
Mg288 O309 2.038 . S
C289 O295 1.247 . S
C289 O296 1.289 . S
C290 O308 1.245 . S
C290 O309 1.274 1_554 S
O291 C279 1.241 . S
O291 Mg284 2.042 . S
O292 C279 1.280 . S
O292 Mg282 1.984 . S
O293 C280 1.277 . S
O293 Mg284 2.041 . S
O294 C280 1.245 . S
O294 Mg282 1.988 . S
O295 Mg282 2.061 . S
O295 C289 1.247 . S
O296 Mg285 2.106 . S
O296 Mg288 2.238 1_554 S
O296 C289 1.289 . S
C297 O298 1.245 . S
C297 O299 1.274 . S
O298 Mg285 2.079 . S
O298 C297 1.245 . S
O299 Mg284 2.038 . S
O299 C297 1.274 . S
O300 Mg288 2.042 . S
O300 C303 1.241 . S
O301 Mg287 1.984 . S
O301 C303 1.280 . S
O302 Mg288 2.041 . S
O302 C306 1.277 . S
C303 O300 1.241 . S
C303 O301 1.280 . S
O304 Mg287 1.988 . S
O304 C306 1.245 . S
O305 C281 1.247 . S
O305 Mg287 2.061 1_554 S
C306 O302 1.277 . S
C306 O304 1.245 . S
O307 C281 1.289 . S
O307 Mg284 2.238 . S
O307 Mg285 2.106 . S
O308 Mg285 2.079 . S
O308 C290 1.245 . S
O309 Mg288 2.038 . S
O309 C290 1.274 1_556 S
C310 O322 1.241 1_545 S
C310 O323 1.280 . S
C311 O324 1.277 . S
C311 O325 1.245 . S
C312 O336 1.247 . S
C312 O338 1.289 . S
Mg313 O314 1.926 . S
Mg313 O323 1.984 1_565 S
Mg313 O325 1.988 . S
Mg313 O326 2.061 1_565 S
O314 Mg313 1.926 . S
O314 Mg315 1.986 . S
O314 Mg316 1.917 . S
Mg315 O314 1.986 . S
Mg315 O322 2.042 . S
Mg315 O324 2.041 . S
Mg315 O330 2.038 . S
Mg315 O338 2.238 . S
Mg316 O314 1.917 . S
Mg316 O317 1.917 1_554 S
Mg316 O327 2.106 . S
Mg316 O329 2.079 . S
Mg316 O338 2.106 . S
Mg316 O339 2.079 . S
O317 Mg316 1.917 1_556 S
O317 Mg318 1.926 . S
O317 Mg319 1.986 . S
Mg318 O317 1.926 . S
Mg318 O332 1.984 . S
Mg318 O335 1.988 . S
Mg318 O336 2.061 1_556 S
Mg319 O317 1.986 . S
Mg319 O327 2.238 1_556 S
Mg319 O331 2.042 . S
Mg319 O333 2.041 . S
Mg319 O340 2.038 . S
C320 O326 1.247 . S
C320 O327 1.289 1_545 S
C321 O339 1.245 . S
C321 O340 1.274 1_554 S
O322 C310 1.241 1_565 S
O322 Mg315 2.042 . S
O323 C310 1.280 . S
O323 Mg313 1.984 1_545 S
O324 C311 1.277 . S
O324 Mg315 2.041 . S
O325 C311 1.245 . S
O325 Mg313 1.988 . S
O326 Mg313 2.061 1_545 S
O326 C320 1.247 . S
O327 Mg316 2.106 . S
O327 Mg319 2.238 1_554 S
O327 C320 1.289 1_565 S
C328 O329 1.245 . S
C328 O330 1.274 . S
O329 Mg316 2.079 . S
O329 C328 1.245 . S
O330 Mg315 2.038 . S
O330 C328 1.274 . S
O331 Mg319 2.042 . S
O331 C334 1.241 . S
O332 Mg318 1.984 . S
O332 C334 1.280 . S
O333 Mg319 2.041 . S
O333 C337 1.277 . S
C334 O331 1.241 . S
C334 O332 1.280 . S
O335 Mg318 1.988 . S
O335 C337 1.245 . S
O336 C312 1.247 . S
O336 Mg318 2.061 1_554 S
C337 O333 1.277 . S
C337 O335 1.245 . S
O338 C312 1.289 . S
O338 Mg315 2.238 . S
O338 Mg316 2.106 . S
O339 Mg316 2.079 . S
O339 C321 1.245 . S
O340 Mg319 2.038 . S
O340 C321 1.274 1_556 S
C341 O353 1.241 . S
C341 O354 1.280 1_455 S
C342 O355 1.277 . S
C342 O356 1.245 . S
C343 O367 1.247 . S
C343 O369 1.289 . S
Mg344 O345 1.926 . S
Mg344 O354 1.984 1_455 S
Mg344 O356 1.988 . S
Mg344 O357 2.061 1_455 S
O345 Mg344 1.926 . S
O345 Mg346 1.986 . S
O345 Mg347 1.917 . S
Mg346 O345 1.986 . S
Mg346 O353 2.042 . S
Mg346 O355 2.041 . S
Mg346 O361 2.038 . S
Mg346 O369 2.238 . S
Mg347 O345 1.917 . S
Mg347 O348 1.917 1_554 S
Mg347 O358 2.106 . S
Mg347 O360 2.079 . S
Mg347 O369 2.106 . S
Mg347 O370 2.079 . S
O348 Mg347 1.917 1_556 S
O348 Mg349 1.926 . S
O348 Mg350 1.986 . S
Mg349 O348 1.926 . S
Mg349 O363 1.984 . S
Mg349 O366 1.988 . S
Mg349 O367 2.061 1_556 S
Mg350 O348 1.986 . S
Mg350 O358 2.238 1_556 S
Mg350 O362 2.042 . S
Mg350 O364 2.041 . S
Mg350 O371 2.038 . S
C351 O357 1.247 . S
C351 O358 1.289 1_655 S
C352 O370 1.245 . S
C352 O371 1.274 1_554 S
O353 C341 1.241 . S
O353 Mg346 2.042 . S
O354 C341 1.280 1_655 S
O354 Mg344 1.984 1_655 S
O355 C342 1.277 . S
O355 Mg346 2.041 . S
O356 C342 1.245 . S
O356 Mg344 1.988 . S
O357 Mg344 2.061 1_655 S
O357 C351 1.247 . S
O358 Mg347 2.106 . S
O358 Mg350 2.238 1_554 S
O358 C351 1.289 1_455 S
C359 O360 1.245 . S
C359 O361 1.274 . S
O360 Mg347 2.079 . S
O360 C359 1.245 . S
O361 Mg346 2.038 . S
O361 C359 1.274 . S
O362 Mg350 2.042 . S
O362 C365 1.241 . S
O363 Mg349 1.984 . S
O363 C365 1.280 . S
O364 Mg350 2.041 . S
O364 C368 1.277 . S
C365 O362 1.241 . S
C365 O363 1.280 . S
O366 Mg349 1.988 . S
O366 C368 1.245 . S
O367 C343 1.247 . S
O367 Mg349 2.061 1_554 S
C368 O364 1.277 . S
C368 O366 1.245 . S
O369 C343 1.289 . S
O369 Mg346 2.238 . S
O369 Mg347 2.106 . S
O370 Mg347 2.079 . S
O370 C352 1.245 . S
O371 Mg350 2.038 . S
O371 C352 1.274 1_556 S
C372 O384 1.241 . S
C372 O385 1.280 . S
C373 O386 1.277 . S
C373 O387 1.245 . S
C374 O398 1.247 . S
C374 O400 1.289 . S
Mg375 O376 1.926 . S
Mg375 O385 1.984 . S
Mg375 O387 1.988 . S
Mg375 O388 2.061 . S
O376 Mg375 1.926 . S
O376 Mg377 1.986 . S
O376 Mg378 1.917 . S
Mg377 O376 1.986 . S
Mg377 O384 2.042 . S
Mg377 O386 2.041 . S
Mg377 O392 2.038 . S
Mg377 O400 2.238 . S
Mg378 O376 1.917 . S
Mg378 O379 1.917 1_556 S
Mg378 O389 2.106 . S
Mg378 O391 2.079 . S
Mg378 O400 2.106 . S
Mg378 O401 2.079 . S
O379 Mg378 1.917 1_554 S
O379 Mg380 1.926 . S
O379 Mg381 1.986 . S
Mg380 O379 1.926 . S
Mg380 O394 1.984 . S
Mg380 O397 1.988 . S
Mg380 O398 2.061 1_554 S
Mg381 O379 1.986 . S
Mg381 O389 2.238 1_554 S
Mg381 O393 2.042 . S
Mg381 O395 2.041 . S
Mg381 O402 2.038 . S
C382 O388 1.247 . S
C382 O389 1.289 . S
C383 O401 1.245 . S
C383 O402 1.274 1_556 S
O384 C372 1.241 . S
O384 Mg377 2.042 . S
O385 C372 1.280 . S
O385 Mg375 1.984 . S
O386 C373 1.277 . S
O386 Mg377 2.041 . S
O387 C373 1.245 . S
O387 Mg375 1.988 . S
O388 Mg375 2.061 . S
O388 C382 1.247 . S
O389 Mg378 2.106 . S
O389 Mg381 2.238 1_556 S
O389 C382 1.289 . S
C390 O391 1.245 . S
C390 O392 1.274 . S
O391 Mg378 2.079 . S
O391 C390 1.245 . S
O392 Mg377 2.038 . S
O392 C390 1.274 . S
O393 Mg381 2.042 . S
O393 C396 1.241 . S
O394 Mg380 1.984 . S
O394 C396 1.280 . S
O395 Mg381 2.041 . S
O395 C399 1.277 . S
C396 O393 1.241 . S
C396 O394 1.280 . S
O397 Mg380 1.988 . S
O397 C399 1.245 . S
O398 C374 1.247 . S
O398 Mg380 2.061 1_556 S
C399 O395 1.277 . S
C399 O397 1.245 . S
O400 C374 1.289 . S
O400 Mg377 2.238 . S
O400 Mg378 2.106 . S
O401 Mg378 2.079 . S
O401 C383 1.245 . S
O402 Mg381 2.038 . S
O402 C383 1.274 1_554 S
C403 O415 1.241 . S
C403 O416 1.280 . S
C404 O417 1.277 . S
C404 O418 1.245 . S
C405 O429 1.247 . S
C405 O431 1.289 . S
Mg406 O407 1.926 . S
Mg406 O416 1.984 . S
Mg406 O418 1.988 . S
Mg406 O419 2.061 . S
O407 Mg406 1.926 . S
O407 Mg408 1.986 . S
O407 Mg409 1.917 . S
Mg408 O407 1.986 . S
Mg408 O415 2.042 . S
Mg408 O417 2.041 . S
Mg408 O423 2.038 . S
Mg408 O431 2.238 . S
Mg409 O407 1.917 . S
Mg409 O410 1.917 1_556 S
Mg409 O420 2.106 . S
Mg409 O422 2.079 . S
Mg409 O431 2.106 . S
Mg409 O432 2.079 . S
O410 Mg409 1.917 1_554 S
O410 Mg411 1.926 . S
O410 Mg412 1.986 . S
Mg411 O410 1.926 . S
Mg411 O425 1.984 . S
Mg411 O428 1.988 . S
Mg411 O429 2.061 1_554 S
Mg412 O410 1.986 . S
Mg412 O420 2.238 1_554 S
Mg412 O424 2.042 . S
Mg412 O426 2.041 . S
Mg412 O433 2.038 . S
C413 O419 1.247 . S
C413 O420 1.289 . S
C414 O432 1.245 . S
C414 O433 1.274 1_556 S
O415 C403 1.241 . S
O415 Mg408 2.042 . S
O416 C403 1.280 . S
O416 Mg406 1.984 . S
O417 C404 1.277 . S
O417 Mg408 2.041 . S
O418 C404 1.245 . S
O418 Mg406 1.988 . S
O419 Mg406 2.061 . S
O419 C413 1.247 . S
O420 Mg409 2.106 . S
O420 Mg412 2.238 1_556 S
O420 C413 1.289 . S
C421 O422 1.245 . S
C421 O423 1.274 . S
O422 Mg409 2.079 . S
O422 C421 1.245 . S
O423 Mg408 2.038 . S
O423 C421 1.274 . S
O424 Mg412 2.042 . S
O424 C427 1.241 . S
O425 Mg411 1.984 . S
O425 C427 1.280 . S
O426 Mg412 2.041 . S
O426 C430 1.277 . S
C427 O424 1.241 . S
C427 O425 1.280 . S
O428 Mg411 1.988 . S
O428 C430 1.245 . S
O429 C405 1.247 . S
O429 Mg411 2.061 1_556 S
C430 O426 1.277 . S
C430 O428 1.245 . S
O431 C405 1.289 . S
O431 Mg408 2.238 . S
O431 Mg409 2.106 . S
O432 Mg409 2.079 . S
O432 C414 1.245 . S
O433 Mg412 2.038 . S
O433 C414 1.274 1_554 S
C434 O446 1.241 . S
C434 O447 1.280 . S
C435 O448 1.277 . S
C435 O449 1.245 . S
C436 O460 1.247 . S
C436 O462 1.289 1_455 S
Mg437 O438 1.926 . S
Mg437 O447 1.984 . S
Mg437 O449 1.988 . S
Mg437 O450 2.061 1_554 S
O438 Mg437 1.926 . S
O438 Mg439 1.986 . S
O438 Mg440 1.917 1_554 S
Mg439 O438 1.986 . S
Mg439 O446 2.042 . S
Mg439 O448 2.041 . S
Mg439 O454 2.038 . S
Mg439 O462 2.238 1_554 S
Mg440 O438 1.917 1_556 S
Mg440 O441 1.917 . S
Mg440 O451 2.106 . S
Mg440 O453 2.079 . S
Mg440 O462 2.106 . S
Mg440 O463 2.079 . S
O441 Mg440 1.917 . S
O441 Mg442 1.926 . S
O441 Mg443 1.986 . S
Mg442 O441 1.926 . S
Mg442 O456 1.984 1_655 S
Mg442 O459 1.988 . S
Mg442 O460 2.061 1_655 S
Mg443 O441 1.986 . S
Mg443 O451 2.238 . S
Mg443 O455 2.042 . S
Mg443 O457 2.041 . S
Mg443 O464 2.038 . S
C444 O450 1.247 . S
C444 O451 1.289 . S
C445 O463 1.245 . S
C445 O464 1.274 . S
O446 C434 1.241 . S
O446 Mg439 2.042 . S
O447 C434 1.280 . S
O447 Mg437 1.984 . S
O448 C435 1.277 . S
O448 Mg439 2.041 . S
O449 C435 1.245 . S
O449 Mg437 1.988 . S
O450 Mg437 2.061 1_556 S
O450 C444 1.247 . S
O451 Mg440 2.106 . S
O451 Mg443 2.238 . S
O451 C444 1.289 . S
C452 O453 1.245 . S
C452 O454 1.274 1_556 S
O453 Mg440 2.079 . S
O453 C452 1.245 . S
O454 Mg439 2.038 . S
O454 C452 1.274 1_554 S
O455 Mg443 2.042 . S
O455 C458 1.241 . S
O456 Mg442 1.984 1_455 S
O456 C458 1.280 1_455 S
O457 Mg443 2.041 . S
O457 C461 1.277 . S
C458 O455 1.241 . S
C458 O456 1.280 1_655 S
O459 Mg442 1.988 . S
O459 C461 1.245 . S
O460 C436 1.247 . S
O460 Mg442 2.061 1_455 S
C461 O457 1.277 . S
C461 O459 1.245 . S
O462 C436 1.289 1_655 S
O462 Mg439 2.238 1_556 S
O462 Mg440 2.106 . S
O463 Mg440 2.079 . S
O463 C445 1.245 . S
O464 Mg443 2.038 . S
O464 C445 1.274 . S
C465 O477 1.241 . S
C465 O478 1.280 . S
C466 O479 1.277 . S
C466 O480 1.245 . S
C467 O491 1.247 . S
C467 O493 1.289 . S
Mg468 O469 1.926 . S
Mg468 O478 1.984 . S
Mg468 O480 1.988 . S
Mg468 O481 2.061 . S
O469 Mg468 1.926 . S
O469 Mg470 1.986 . S
O469 Mg471 1.917 . S
Mg470 O469 1.986 . S
Mg470 O477 2.042 . S
Mg470 O479 2.041 . S
Mg470 O485 2.038 . S
Mg470 O493 2.238 . S
Mg471 O469 1.917 . S
Mg471 O472 1.917 . S
Mg471 O482 2.106 . S
Mg471 O484 2.079 . S
Mg471 O493 2.106 . S
Mg471 O494 2.079 . S
O472 Mg471 1.917 . S
O472 Mg473 1.926 . S
O472 Mg474 1.986 . S
Mg473 O472 1.926 . S
Mg473 O487 1.984 . S
Mg473 O490 1.988 . S
Mg473 O491 2.061 . S
Mg474 O472 1.986 . S
Mg474 O482 2.238 . S
Mg474 O486 2.042 . S
Mg474 O488 2.041 . S
Mg474 O495 2.038 . S
C475 O481 1.247 . S
C475 O482 1.289 . S
C476 O494 1.245 . S
C476 O495 1.274 . S
O477 C465 1.241 . S
O477 Mg470 2.042 . S
O478 C465 1.280 . S
O478 Mg468 1.984 . S
O479 C466 1.277 . S
O479 Mg470 2.041 . S
O480 C466 1.245 . S
O480 Mg468 1.988 . S
O481 Mg468 2.061 . S
O481 C475 1.247 . S
O482 Mg471 2.106 . S
O482 Mg474 2.238 . S
O482 C475 1.289 . S
C483 O484 1.245 . S
C483 O485 1.274 . S
O484 Mg471 2.079 . S
O484 C483 1.245 . S
O485 Mg470 2.038 . S
O485 C483 1.274 . S
O486 Mg474 2.042 . S
O486 C489 1.241 . S
O487 Mg473 1.984 . S
O487 C489 1.280 . S
O488 Mg474 2.041 . S
O488 C492 1.277 . S
C489 O486 1.241 . S
C489 O487 1.280 . S
O490 Mg473 1.988 . S
O490 C492 1.245 . S
O491 C467 1.247 . S
O491 Mg473 2.061 . S
C492 O488 1.277 . S
C492 O490 1.245 . S
O493 C467 1.289 . S
O493 Mg470 2.238 . S
O493 Mg471 2.106 . S
O494 Mg471 2.079 . S
O494 C476 1.245 . S
O495 Mg474 2.038 . S
O495 C476 1.274 . S
C496 O508 1.241 . S
C496 O509 1.280 1_655 S
C497 O510 1.277 . S
C497 O511 1.245 . S
C498 O522 1.247 . S
C498 O524 1.289 . S
Mg499 O500 1.926 . S
Mg499 O509 1.984 1_655 S
Mg499 O511 1.988 . S
Mg499 O512 2.061 1_655 S
O500 Mg499 1.926 . S
O500 Mg501 1.986 . S
O500 Mg502 1.917 . S
Mg501 O500 1.986 . S
Mg501 O508 2.042 . S
Mg501 O510 2.041 . S
Mg501 O516 2.038 . S
Mg501 O524 2.238 . S
Mg502 O500 1.917 . S
Mg502 O503 1.917 . S
Mg502 O513 2.106 . S
Mg502 O515 2.079 . S
Mg502 O524 2.106 . S
Mg502 O525 2.079 . S
O503 Mg502 1.917 . S
O503 Mg504 1.926 . S
O503 Mg505 1.986 . S
Mg504 O503 1.926 . S
Mg504 O518 1.984 . S
Mg504 O521 1.988 . S
Mg504 O522 2.061 . S
Mg505 O503 1.986 . S
Mg505 O513 2.238 . S
Mg505 O517 2.042 . S
Mg505 O519 2.041 . S
Mg505 O526 2.038 . S
C506 O512 1.247 . S
C506 O513 1.289 1_455 S
C507 O525 1.245 . S
C507 O526 1.274 . S
O508 C496 1.241 . S
O508 Mg501 2.042 . S
O509 C496 1.280 1_455 S
O509 Mg499 1.984 1_455 S
O510 C497 1.277 . S
O510 Mg501 2.041 . S
O511 C497 1.245 . S
O511 Mg499 1.988 . S
O512 Mg499 2.061 1_455 S
O512 C506 1.247 . S
O513 Mg502 2.106 . S
O513 Mg505 2.238 . S
O513 C506 1.289 1_655 S
C514 O515 1.245 . S
C514 O516 1.274 . S
O515 Mg502 2.079 . S
O515 C514 1.245 . S
O516 Mg501 2.038 . S
O516 C514 1.274 . S
O517 Mg505 2.042 . S
O517 C520 1.241 . S
O518 Mg504 1.984 . S
O518 C520 1.280 . S
O519 Mg505 2.041 . S
O519 C523 1.277 . S
C520 O517 1.241 . S
C520 O518 1.280 . S
O521 Mg504 1.988 . S
O521 C523 1.245 . S
O522 C498 1.247 . S
O522 Mg504 2.061 . S
C523 O519 1.277 . S
C523 O521 1.245 . S
O524 C498 1.289 . S
O524 Mg501 2.238 . S
O524 Mg502 2.106 . S
O525 Mg502 2.079 . S
O525 C507 1.245 . S
O526 Mg505 2.038 . S
O526 C507 1.274 . S
C527 O539 1.241 . S
C527 O540 1.280 . S
C528 O541 1.277 . S
C528 O542 1.245 . S
C529 O553 1.247 . S
C529 O555 1.289 . S
Mg530 O531 1.926 . S
Mg530 O540 1.984 . S
Mg530 O542 1.988 . S
Mg530 O543 2.061 . S
O531 Mg530 1.926 . S
O531 Mg532 1.986 . S
O531 Mg533 1.917 . S
Mg532 O531 1.986 . S
Mg532 O539 2.042 . S
Mg532 O541 2.041 . S
Mg532 O547 2.038 . S
Mg532 O555 2.238 . S
Mg533 O531 1.917 . S
Mg533 O534 1.917 . S
Mg533 O544 2.106 . S
Mg533 O546 2.079 . S
Mg533 O555 2.106 . S
Mg533 O556 2.079 . S
O534 Mg533 1.917 . S
O534 Mg535 1.926 . S
O534 Mg536 1.986 . S
Mg535 O534 1.926 . S
Mg535 O549 1.984 . S
Mg535 O552 1.988 . S
Mg535 O553 2.061 . S
Mg536 O534 1.986 . S
Mg536 O544 2.238 . S
Mg536 O548 2.042 . S
Mg536 O550 2.041 . S
Mg536 O557 2.038 . S
C537 O543 1.247 . S
C537 O544 1.289 . S
C538 O556 1.245 . S
C538 O557 1.274 . S
O539 C527 1.241 . S
O539 Mg532 2.042 . S
O540 C527 1.280 . S
O540 Mg530 1.984 . S
O541 C528 1.277 . S
O541 Mg532 2.041 . S
O542 C528 1.245 . S
O542 Mg530 1.988 . S
O543 Mg530 2.061 . S
O543 C537 1.247 . S
O544 Mg533 2.106 . S
O544 Mg536 2.238 . S
O544 C537 1.289 . S
C545 O546 1.245 . S
C545 O547 1.274 . S
O546 Mg533 2.079 . S
O546 C545 1.245 . S
O547 Mg532 2.038 . S
O547 C545 1.274 . S
O548 Mg536 2.042 . S
O548 C551 1.241 . S
O549 Mg535 1.984 . S
O549 C551 1.280 . S
O550 Mg536 2.041 . S
O550 C554 1.277 . S
C551 O548 1.241 . S
C551 O549 1.280 . S
O552 Mg535 1.988 . S
O552 C554 1.245 . S
O553 C529 1.247 . S
O553 Mg535 2.061 . S
C554 O550 1.277 . S
C554 O552 1.245 . S
O555 C529 1.289 . S
O555 Mg532 2.238 . S
O555 Mg533 2.106 . S
O556 Mg533 2.079 . S
O556 C538 1.245 . S
O557 Mg536 2.038 . S
O557 C538 1.274 . S
C218 C24 1.633 . S
C55 C249 1.649 . S
C187 C63 0.857 . S
C427 C86 2.144 . S
C435 C1 0.741 . S
C396 C32 1.540 . S
C93 C523 1.618 . S
C124 C527 2.142 . S
C182 C492 0.730 . S
C155 C337 1.629 . S
C120 C368 0.769 . S
C151 C306 0.770 . S
C210 C404 1.369 . S
C241 C458 2.003 1_455 S
C373 C272 1.336 . S
C496 C341 2.055 1_655 S
C279 C554 1.438 . S
C465 C310 2.022 . S
C117 C0 3.165 1_456 S
C148 C31 3.058 1_556 S
C89 C156 4.183 1_544 S
C179 C62 3.148 1_545 S
C27 C94 4.325 1_455 S
C58 C125 4.170 . S
C280 C186 3.757 . S
C311 C217 3.495 . S
C342 C248 3.463 . S
C365 C275 3.788 . S
C303 C213 3.742 . S
C334 C244 3.491 . S
C489 C372 3.099 . S
C520 C403 3.007 . S
C461 C528 4.093 . S
C434 C551 3.080 . S
C399 C466 4.223 . S
C430 C497 4.079 . S
C18 C359 2.562 . S
C297 C49 2.600 . S
C328 C72 2.768 . S
C80 C483 2.481 . S
C514 C10 2.521 . S
C537 C41 2.541 . S
C445 C104 2.445 . S
C135 C374 2.536 . S
C157 C405 2.499 . S
C197 C166 2.650 . S
C95 C228 2.797 . S
C126 C259 2.879 . S
C204 C545 2.332 . S
C475 C235 2.372 1_545 S
C506 C266 2.422 . S
C111 C258 2.663 . S
C196 C142 2.723 . S
C165 C227 2.807 . S
C281 C73 2.751 . S
C312 C2 2.843 . S
C343 C33 2.915 . S
C352 C383 2.290 1_554 S
C290 C414 2.317 1_564 S
C321 C436 2.346 1_554 S
C173 C390 2.541 . S
C103 C421 2.592 . S
C444 C134 2.639 . S
C289 C452 2.476 1_554 S
C382 C320 2.453 1_556 S
C413 C351 2.516 1_556 S
C250 C476 2.388 . S
C507 C188 2.396 . S
C219 C529 2.397 . S
C538 C11 2.577 . S
C42 C467 2.697 . S
C64 C498 2.675 . S
