# Generated by pormake.
# Topology upc, (4)-cn, num edge types: 1
# Building blocks:
#     Node 0, Type 0, BuildingBlock: QUQFOY_clean_sbu_1, # of connection points: 4
#     Node 1, Type 0, BuildingBlock: QUQFOY_clean_sbu_1, # of connection points: 4
#     Node 2, Type 0, BuildingBlock: QUQFOY_clean_sbu_1, # of connection points: 4
#     Node 3, Type 0, BuildingBlock: QUQFOY_clean_sbu_1, # of connection points: 4
#     Node 4, Type 0, BuildingBlock: QUQFOY_clean_sbu_1, # of connection points: 4
#     Node 5, Type 0, BuildingBlock: QUQFOY_clean_sbu_1, # of connection points: 4
#     Node 6, Type 0, BuildingBlock: QUQFOY_clean_sbu_1, # of connection points: 4
#     Node 7, Type 0, BuildingBlock: QUQFOY_clean_sbu_1, # of connection points: 4
#     Node 8, Type 0, BuildingBlock: QUQFOY_clean_sbu_1, # of connection points: 4
#     Node 9, Type 0, BuildingBlock: QUQFOY_clean_sbu_1, # of connection points: 4
#     Node 10, Type 0, BuildingBlock: QUQFOY_clean_sbu_1, # of connection points: 4
#     Node 11, Type 0, BuildingBlock: QUQFOY_clean_sbu_1, # of connection points: 4
#     Node 12, Type 0, BuildingBlock: QUQFOY_clean_sbu_1, # of connection points: 4
#     Node 13, Type 0, BuildingBlock: QUQFOY_clean_sbu_1, # of connection points: 4
#     Node 14, Type 0, BuildingBlock: QUQFOY_clean_sbu_1, # of connection points: 4
#     Node 15, Type 0, BuildingBlock: QUQFOY_clean_sbu_1, # of connection points: 4
#     Edge 16, Type (0, 0), BuildingBlock: KIFKEQ_clean_linker_1, # of connection points: 2
#     Edge 17, Type (0, 0), BuildingBlock: KIFKEQ_clean_linker_1, # of connection points: 2
#     Edge 18, Type (0, 0), BuildingBlock: KIFKEQ_clean_linker_1, # of connection points: 2
#     Edge 19, Type (0, 0), BuildingBlock: KIFKEQ_clean_linker_1, # of connection points: 2
#     Edge 20, Type (0, 0), BuildingBlock: KIFKEQ_clean_linker_1, # of connection points: 2
#     Edge 21, Type (0, 0), BuildingBlock: KIFKEQ_clean_linker_1, # of connection points: 2
#     Edge 22, Type (0, 0), BuildingBlock: KIFKEQ_clean_linker_1, # of connection points: 2
#     Edge 23, Type (0, 0), BuildingBlock: KIFKEQ_clean_linker_1, # of connection points: 2
#     Edge 24, Type (0, 0), BuildingBlock: KIFKEQ_clean_linker_1, # of connection points: 2
#     Edge 25, Type (0, 0), BuildingBlock: KIFKEQ_clean_linker_1, # of connection points: 2
#     Edge 26, Type (0, 0), BuildingBlock: KIFKEQ_clean_linker_1, # of connection points: 2
#     Edge 27, Type (0, 0), BuildingBlock: KIFKEQ_clean_linker_1, # of connection points: 2
#     Edge 28, Type (0, 0), BuildingBlock: KIFKEQ_clean_linker_1, # of connection points: 2
#     Edge 29, Type (0, 0), BuildingBlock: KIFKEQ_clean_linker_1, # of connection points: 2
#     Edge 30, Type (0, 0), BuildingBlock: KIFKEQ_clean_linker_1, # of connection points: 2
#     Edge 31, Type (0, 0), BuildingBlock: KIFKEQ_clean_linker_1, # of connection points: 2
#     Edge 32, Type (0, 0), BuildingBlock: KIFKEQ_clean_linker_1, # of connection points: 2
#     Edge 33, Type (0, 0), BuildingBlock: KIFKEQ_clean_linker_1, # of connection points: 2
#     Edge 34, Type (0, 0), BuildingBlock: KIFKEQ_clean_linker_1, # of connection points: 2
#     Edge 35, Type (0, 0), BuildingBlock: KIFKEQ_clean_linker_1, # of connection points: 2
#     Edge 36, Type (0, 0), BuildingBlock: KIFKEQ_clean_linker_1, # of connection points: 2
#     Edge 37, Type (0, 0), BuildingBlock: KIFKEQ_clean_linker_1, # of connection points: 2
#     Edge 38, Type (0, 0), BuildingBlock: KIFKEQ_clean_linker_1, # of connection points: 2
#     Edge 39, Type (0, 0), BuildingBlock: KIFKEQ_clean_linker_1, # of connection points: 2
#     Edge 40, Type (0, 0), BuildingBlock: KIFKEQ_clean_linker_1, # of connection points: 2
#     Edge 41, Type (0, 0), BuildingBlock: KIFKEQ_clean_linker_1, # of connection points: 2
#     Edge 42, Type (0, 0), BuildingBlock: KIFKEQ_clean_linker_1, # of connection points: 2
#     Edge 43, Type (0, 0), BuildingBlock: KIFKEQ_clean_linker_1, # of connection points: 2
#     Edge 44, Type (0, 0), BuildingBlock: KIFKEQ_clean_linker_1, # of connection points: 2
#     Edge 45, Type (0, 0), BuildingBlock: KIFKEQ_clean_linker_1, # of connection points: 2
#     Edge 46, Type (0, 0), BuildingBlock: KIFKEQ_clean_linker_1, # of connection points: 2
#     Edge 47, Type (0, 0), BuildingBlock: KIFKEQ_clean_linker_1, # of connection points: 2
# Relax obj value: 0.088
# Max RMSD: 0.197
# Mean RMSD: 0.197
data_MOF--net-upc--node1-QUQFOY_clean_sbu_1--edge1-KIFKEQ_clean_linker_1
_symmetry_space_group_name_H-M    P1
_symmetry_Int_Tables_number       1
_symmetry_cell_setting            triclinic
loop_
_symmetry_equiv_pos_as_xyz
'x, y, z'
_cell_length_a     37.230492
_cell_length_b     37.229816
_cell_length_c     44.775831
_cell_angle_alpha  89.799478
_cell_angle_beta   89.833114
_cell_angle_gamma 90.297111
loop_
_atom_site_label
_atom_site_type_symbol
_atom_site_fract_x
_atom_site_fract_y
_atom_site_fract_z
_atom_type_partial_charge
O0 O 0.04702 0.5515 0.15293 0.0
Cd1 Cd 0.04752 0.59864 0.12859 0.0
Cd2 Cd 0.10825 0.60212 0.1564 0.0
O3 O 0.10513 0.54705 0.16089 0.0
O4 O 0.01054 0.58993 0.09746 0.0
O5 O 0.06875 0.59401 0.08755 0.0
C6 C 0.03654 0.58677 0.07854 0.0
C7 C 0.15894 0.6361 0.14355 0.0
C8 C 0.07384 0.53322 0.16157 0.0
C9 C 0.04923 0.6493 0.17734 0.0
O10 O 0.07557 0.62991 0.18507 0.0
O11 O 0.03588 0.64589 0.15138 0.0
O12 O 0.15704 0.61855 0.1684 0.0
O13 O 0.13326 0.63162 0.12452 0.0
O14 O 0.92117 0.07863 0.15808 0.0
Cd15 Cd 0.87374 0.07338 0.13507 0.0
Cd16 Cd 0.86279 0.13449 0.16542 0.0
O17 O 0.91778 0.1354 0.17149 0.0
O18 O 0.88656 0.0362 0.10508 0.0
O19 O 0.87561 0.09271 0.09299 0.0
C20 C 0.88663 0.06124 0.08513 0.0
C21 C 0.82895 0.18561 0.15393 0.0
C22 C 0.93564 0.10654 0.16913 0.0
C23 C 0.82194 0.06782 0.1843 0.0
O24 O 0.83517 0.09804 0.19163 0.0
O25 O 0.82978 0.05403 0.15915 0.0
O26 O 0.84405 0.18151 0.17957 0.0
O27 O 0.83494 0.16152 0.13382 0.0
O28 O 0.4359 0.93733 0.17405 0.0
Cd29 Cd 0.44548 0.89105 0.15057 0.0
Cd30 Cd 0.37714 0.87842 0.17008 0.0
O31 O 0.37734 0.93252 0.18098 0.0
O32 O 0.48586 0.90423 0.1232 0.0
O33 O 0.43071 0.89254 0.10745 0.0
C34 C 0.46302 0.90346 0.10158 0.0
C35 C 0.32654 0.84689 0.15308 0.0
C36 C 0.40637 0.95056 0.18296 0.0
C37 C 0.43837 0.83405 0.19581 0.0
O38 O 0.4065 0.84583 0.19774 0.0
O39 O 0.45949 0.8461 0.17569 0.0
O40 O 0.3277 0.86086 0.17933 0.0
O41 O 0.353 0.85364 0.13516 0.0
O42 O 0.5539 0.48845 0.15486 0.0
Cd43 Cd 0.60096 0.49098 0.13057 0.0
Cd44 Cd 0.60515 0.42718 0.15833 0.0
O45 O 0.5502 0.43033 0.16356 0.0
O46 O 0.59028 0.53154 0.10288 0.0
O47 O 0.59731 0.47561 0.08756 0.0
C48 C 0.58841 0.50838 0.08159 0.0
C49 C 0.63614 0.374 0.14774 0.0
C50 C 0.53609 0.46134 0.16404 0.0
C51 C 0.65172 0.48827 0.17959 0.0
O52 O 0.63393 0.4602 0.18631 0.0
O53 O 0.64745 0.5034 0.15433 0.0
O54 O 0.6194 0.37854 0.17265 0.0
O55 O 0.63314 0.39878 0.12763 0.0
O56 O 0.06512 0.97011 0.31405 0.0
Cd57 Cd 0.06404 0.9266 0.34217 0.0
Cd58 Cd 0.12863 0.91505 0.31225 0.0
O59 O 0.11999 0.96628 0.29545 0.0
O60 O 0.02846 0.93999 0.37342 0.0
O61 O 0.08662 0.93425 0.38234 0.0
C62 C 0.055 0.9431 0.39169 0.0
C63 C 0.18521 0.89257 0.3245 0.0
C64 C 0.09041 0.98296 0.29812 0.0
C65 C 0.06693 0.86178 0.30438 0.0
O66 O 0.09729 0.87399 0.29619 0.0
O67 O 0.04868 0.87751 0.32444 0.0
O68 O 0.17676 0.90026 0.29735 0.0
O69 O 0.16258 0.90083 0.34529 0.0
O70 O 0.52953 0.05554 0.34292 0.0
Cd71 Cd 0.57266 0.04316 0.37009 0.0
Cd72 Cd 0.59254 0.10694 0.33885 0.0
O73 O 0.53895 0.11167 0.32872 0.0
O74 O 0.5515 1.00238 0.39359 0.0
O75 O 0.56741 0.05374 0.41425 0.0
C76 C 0.55241 0.02251 0.4169 0.0
C77 C 0.63191 0.15617 0.34335 0.0
C78 C 0.51888 0.08397 0.32989 0.0
C79 C 0.62899 0.03644 0.3245 0.0
O80 O 0.61772 0.06682 0.31593 0.0
O81 O 0.6188 0.02315 0.34936 0.0
O82 O 0.61636 0.14845 0.31856 0.0
O83 O 0.62273 0.13786 0.36671 0.0
O84 O 0.45198 0.57155 0.34099 0.0
Cd85 Cd 0.48471 0.59122 0.37505 0.0
Cd86 Cd 0.40959 0.65025 0.34779 0.0
O87 O 0.4062 0.60368 0.32245 0.0
O88 O 0.51756 0.55278 0.38944 0.0
O89 O 0.47331 0.57557 0.41668 0.0
C90 C 0.49911 0.5526 0.41396 0.0
C91 C 0.36902 0.69735 0.34562 0.0
C92 C 0.42549 0.57529 0.32309 0.0
C93 C 0.48466 0.66228 0.36332 0.0
O94 O 0.45434 0.65253 0.37361 0.0
O95 O 0.50989 0.63992 0.36611 0.0
O96 O 0.39578 0.69554 0.32722 0.0
O97 O 0.3647 0.67152 0.36477 0.0
O98 O 0.94658 0.43471 0.32613 0.0
Cd99 Cd 0.90901 0.45039 0.35685 0.0
Cd100 Cd 0.87598 0.3843 0.33064 0.0
O101 O 0.92567 0.38278 0.30929 0.0
O102 O 0.93483 0.48695 0.38146 0.0
O103 O 0.91726 0.43419 0.39926 0.0
C104 C 0.93418 0.4642 0.40322 0.0
C105 C 0.84037 0.3321 0.33535 0.0
C106 C 0.94992 0.40704 0.30983 0.0
C107 C 0.84004 0.45925 0.3248 0.0
O108 O 0.84234 0.42583 0.31974 0.0
O109 O 0.86357 0.47552 0.34026 0.0
O110 O 0.84837 0.34586 0.30981 0.0
O111 O 0.85525 0.34604 0.35862 0.0
O112 O 0.94019 0.44651 0.82645 0.0
Cd113 Cd 0.96312 0.40879 0.85356 0.0
Cd114 Cd 0.89825 0.37093 0.83017 0.0
O115 O 0.88986 0.42112 0.81083 0.0
O116 O 1.00125 0.43803 0.87341 0.0
O117 O 0.95565 0.41384 0.89802 0.0
C118 C 0.98383 0.43424 0.89811 0.0
C119 C 0.8487 0.3332 0.84057 0.0
C120 C 0.91124 0.44789 0.81159 0.0
C121 C 0.97477 0.34282 0.81713 0.0
O122 O 0.94085 0.34135 0.81434 0.0
O123 O 0.98986 0.36726 0.83246 0.0
O124 O 0.85737 0.3423 0.81376 0.0
O125 O 0.86704 0.34712 0.86208 0.0
O126 O 0.07818 0.96383 0.84891 0.0
Cd127 Cd 0.10002 0.99985 0.87993 0.0
Cd128 Cd 0.15084 0.9173 0.85007 0.0
O129 O 0.10118 0.91358 0.82942 0.0
O130 O 0.06295 0.0348 0.89337 0.0
O131 O 0.08553 0.99201 0.92236 0.0
C132 C 0.06287 0.01794 0.91869 0.0
C133 C 0.19696 0.87588 0.8481 0.0
C134 C 0.07565 0.93632 0.83195 0.0
C135 C 0.16776 0.99324 0.86176 0.0
O136 O 0.15562 0.96403 0.87242 0.0
O137 O 0.15012 0.02113 0.86821 0.0
O138 O 0.19362 0.90014 0.82753 0.0
O139 O 0.17336 0.87472 0.86941 0.0
O140 O 0.56784 0.02414 0.84074 0.0
Cd141 Cd 0.55025 0.06419 0.8684 0.0
Cd142 Cd 0.61883 0.09472 0.84284 0.0
O143 O 0.61957 0.04455 0.82269 0.0
O144 O 0.51045 0.03925 0.89034 0.0
O145 O 0.55953 0.0589 0.91266 0.0
C146 C 0.52943 0.04156 0.91427 0.0
C147 C 0.67252 0.12747 0.84968 0.0
C148 C 0.59559 0.02016 0.82457 0.0
C149 C 0.54564 0.13197 0.83266 0.0
O150 O 0.57935 0.12922 0.82921 0.0
O151 O 0.52787 0.10914 0.84801 0.0
O152 O 0.66112 0.11873 0.82362 0.0
O153 O 0.65477 0.11548 0.87245 0.0
O154 O 0.4641 0.56786 0.81771 0.0
Cd155 Cd 0.42242 0.56832 0.84763 0.0
Cd156 Cd 0.41055 0.63226 0.8173 0.0
O157 O 0.46091 0.62282 0.79918 0.0
O158 O 0.43689 0.53239 0.87843 0.0
O159 O 0.43374 0.59073 0.88734 0.0
C160 C 0.44237 0.55889 0.89636 0.0
C161 C 0.38947 0.68855 0.83161 0.0
C162 C 0.47679 0.59275 0.80125 0.0
C163 C 0.35621 0.57165 0.81107 0.0
O164 O 0.36883 0.60142 0.80179 0.0
O165 O 0.37205 0.55399 0.83149 0.0
O166 O 0.39673 0.6815 0.8041 0.0
O167 O 0.3972 0.6646 0.85152 0.0
O168 O 0.98408 0.05733 0.65783 0.0
Cd169 Cd 0.99404 0.09994 0.62983 0.0
Cd170 Cd 0.92744 0.12077 0.65969 0.0
O171 O 0.93029 0.06875 0.67634 0.0
O172 O 0.03245 0.07998 0.60375 0.0
O173 O 0.97896 0.09525 0.5868 0.0
C174 C 0.01001 0.08103 0.58192 0.0
C175 C 0.87153 0.14951 0.65597 0.0
C176 C 0.95732 0.04818 0.67384 0.0
C177 C 0.99786 0.16418 0.66821 0.0
O178 O 0.96539 0.1569 0.6746 0.0
O179 O 0.01522 0.14576 0.64926 0.0
O180 O 0.88541 0.1411 0.68128 0.0
O181 O 0.88816 0.13934 0.63215 0.0
O182 O 0.44307 0.92559 0.6767 0.0
Cd183 Cd 0.39808 0.93855 0.6526 0.0
Cd184 Cd 0.37856 0.86996 0.67463 0.0
O185 O 0.43152 0.86905 0.689 0.0
O186 O 0.41473 0.97869 0.62614 0.0
O187 O 0.40002 0.92487 0.60916 0.0
C188 C 0.41308 0.95658 0.60407 0.0
C189 C 0.34683 0.81867 0.65918 0.0
C190 C 0.45255 0.89611 0.68857 0.0
C191 C 0.33662 0.93574 0.69537 0.0
O192 O 0.34453 0.90276 0.69794 0.0
O193 O 0.3533 0.95575 0.67676 0.0
O194 O 0.35839 0.82215 0.68608 0.0
O195 O 0.3561 0.84302 0.63999 0.0
O196 O 0.55484 0.41428 0.6577 0.0
Cd197 Cd 0.54937 0.36707 0.634 0.0
Cd198 Cd 0.60983 0.35538 0.66551 0.0
O199 O 0.61162 0.41022 0.67096 0.0
O200 O 0.51291 0.38049 0.60358 0.0
O201 O 0.56956 0.3691 0.59223 0.0
C202 C 0.53829 0.38025 0.58395 0.0
C203 C 0.66178 0.32123 0.65862 0.0
C204 C 0.58299 0.42842 0.6687 0.0
C205 C 0.54212 0.31516 0.68244 0.0
O206 O 0.57166 0.32895 0.69076 0.0
O207 O 0.52941 0.32234 0.6568 0.0
O208 O 0.65446 0.33622 0.68377 0.0
O209 O 0.6406 0.32737 0.6364 0.0
O210 O 0.04616 0.54414 0.65744 0.0
Cd211 Cd 0.09407 0.5397 0.63453 0.0
Cd212 Cd 0.0986 0.60382 0.6599 0.0
O213 O 0.04338 0.60268 0.66363 0.0
O214 O 0.08331 0.49776 0.60854 0.0
O215 O 0.09198 0.5527 0.59086 0.0
C216 C 0.08242 0.51974 0.58624 0.0
C217 C 0.13405 0.65355 0.64689 0.0
C218 C 0.02853 0.5719 0.66483 0.0
C219 C 0.14357 0.54459 0.68447 0.0
O220 O 0.12489 0.57212 0.6903 0.0
O221 O 0.14014 0.52895 0.6594 0.0
O222 O 0.11552 0.65269 0.67125 0.0
O223 O 0.1298 0.62739 0.6283 0.0
H224 H 0.21242 0.65413 0.18205 0.0
H225 H 0.16856 0.68229 0.09587 0.0
H226 H 0.25122 0.70682 0.18016 0.0
H227 H 0.20825 0.73523 0.09395 0.0
H228 H 0.31967 0.8055 0.10243 0.0
H229 H 0.27979 0.7533 0.0959 0.0
H230 H 0.23103 0.77456 0.18149 0.0
H231 H 0.27002 0.82651 0.18794 0.0
C232 C 0.21151 0.67112 0.16239 0.0
C233 C 0.1871 0.66406 0.13922 0.0
C234 C 0.23363 0.70147 0.16143 0.0
C235 C 0.23226 0.72538 0.13715 0.0
C236 C 0.20969 0.71724 0.11297 0.0
C237 C 0.18709 0.68692 0.11408 0.0
C238 C 0.29982 0.79952 0.11949 0.0
C239 C 0.29828 0.82003 0.14583 0.0
C240 C 0.27711 0.76961 0.11576 0.0
C241 C 0.25287 0.75958 0.13846 0.0
C242 C 0.24992 0.78136 0.16387 0.0
C243 C 0.27217 0.81128 0.16745 0.0
H244 H 0.80963 0.23728 0.19358 0.0
H245 H 0.78898 0.2007 0.10373 0.0
H246 H 0.76189 0.28115 0.18888 0.0
H247 H 0.7408 0.24516 0.09907 0.0
H248 H 0.64765 0.31933 0.187 0.0
H249 H 0.69475 0.27442 0.1855 0.0
H250 H 0.72918 0.31399 0.09929 0.0
H251 H 0.68168 0.35945 0.10072 0.0
C252 C 0.79518 0.23882 0.17265 0.0
C253 C 0.80304 0.21524 0.1491 0.0
C254 C 0.7676 0.26386 0.17006 0.0
C255 C 0.74719 0.2662 0.14379 0.0
C256 C 0.75605 0.2439 0.1196 0.0
C257 C 0.78363 0.21848 0.12229 0.0
C258 C 0.66485 0.31829 0.16747 0.0
C259 C 0.66103 0.34326 0.14409 0.0
C260 C 0.69204 0.29265 0.16673 0.0
C261 C 0.71608 0.2911 0.14253 0.0
C262 C 0.71108 0.31462 0.11826 0.0
C263 C 0.68387 0.3406 0.11909 0.0
H264 H 0.20546 0.86166 0.37758 0.0
H265 H 0.23713 0.87243 0.28508 0.0
H266 H 0.25251 0.81697 0.38506 0.0
H267 H 0.28318 0.82738 0.29226 0.0
H268 H 0.30364 0.70433 0.37331 0.0
H269 H 0.2627 0.75529 0.37072 0.0
H270 H 0.33891 0.81248 0.31494 0.0
H271 H 0.3792 0.76134 0.31708 0.0
C272 C 0.22283 0.85499 0.35899 0.0
C273 C 0.21746 0.87059 0.33072 0.0
C274 C 0.24953 0.82905 0.36317 0.0
C275 C 0.27145 0.81821 0.33919 0.0
C276 C 0.26713 0.83521 0.31134 0.0
C277 C 0.24056 0.86107 0.30719 0.0
C278 C 0.31163 0.72783 0.36056 0.0
C279 C 0.34444 0.72855 0.34497 0.0
C280 C 0.2883 0.75721 0.35926 0.0
C281 C 0.29737 0.78805 0.34251 0.0
C282 C 0.33067 0.78899 0.3276 0.0
C283 C 0.35382 0.75961 0.32878 0.0
H284 H 0.82327 0.28772 0.38297 0.0
H285 H 0.7919 0.31456 0.29291 0.0
H286 H 0.77353 0.24444 0.38608 0.0
H287 H 0.74152 0.27389 0.2965 0.0
H288 H 0.67322 0.17612 0.29643 0.0
H289 H 0.72515 0.21516 0.2958 0.0
H290 H 0.71108 0.23564 0.39016 0.0
H291 H 0.65994 0.19386 0.391 0.0
C292 C 0.80583 0.28432 0.36386 0.0
C293 C 0.81192 0.30416 0.33755 0.0
C294 C 0.77702 0.25983 0.36572 0.0
C295 C 0.75333 0.25518 0.34147 0.0
C296 C 0.75952 0.27555 0.31539 0.0
C297 C 0.78853 0.29922 0.31334 0.0
C298 C 0.68095 0.18913 0.31706 0.0
C299 C 0.66208 0.18231 0.34368 0.0
C300 C 0.71084 0.21182 0.3167 0.0
C301 C 0.72233 0.22938 0.34281 0.0
C302 C 0.70342 0.22248 0.36961 0.0
C303 C 0.67382 0.19886 0.37009 0.0
H304 H 0.83531 0.29357 0.89148 0.0
H305 H 0.7991 0.30937 0.80087 0.0
H306 H 0.79478 0.24173 0.89648 0.0
H307 H 0.75835 0.25864 0.80602 0.0
H308 H 0.72239 0.14491 0.80765 0.0
H309 H 0.76482 0.19467 0.80829 0.0
H310 H 0.73185 0.22076 0.89819 0.0
H311 H 0.68972 0.16992 0.89777 0.0
C312 C 0.81824 0.28641 0.87286 0.0
C313 C 0.82066 0.30539 0.84569 0.0
C314 C 0.79506 0.25669 0.8757 0.0
C315 C 0.77386 0.24547 0.85143 0.0
C316 C 0.77506 0.26576 0.82488 0.0
C317 C 0.79822 0.29514 0.82201 0.0
C318 C 0.72455 0.16085 0.82777 0.0
C319 C 0.70249 0.1536 0.85257 0.0
C320 C 0.74866 0.18967 0.82804 0.0
C321 C 0.75114 0.21236 0.85301 0.0
C322 C 0.73059 0.20389 0.87856 0.0
C323 C 0.70651 0.17472 0.87836 0.0
H324 H 0.34098 0.69579 0.87673 0.0
H325 H 0.38825 0.75283 0.80227 0.0
H326 H 0.29601 0.74241 0.88192 0.0
H327 H 0.34503 0.80107 0.80863 0.0
H328 H 0.23695 0.85573 0.79995 0.0
H329 H 0.28627 0.81331 0.79859 0.0
H330 H 0.27714 0.79868 0.89428 0.0
H331 H 0.22605 0.83921 0.89497 0.0
C332 C 0.34253 0.71905 0.86216 0.0
C333 C 0.36803 0.72063 0.83905 0.0
C334 C 0.31667 0.74597 0.86511 0.0
C335 C 0.31618 0.77561 0.8454 0.0
C336 C 0.34353 0.77826 0.82364 0.0
C337 C 0.36877 0.75086 0.82024 0.0
C338 C 0.24547 0.84329 0.82064 0.0
C339 C 0.22743 0.85052 0.8475 0.0
C340 C 0.27416 0.81919 0.82 0.0
C341 C 0.28622 0.80234 0.84637 0.0
C342 C 0.26843 0.81031 0.87336 0.0
C343 C 0.23915 0.83376 0.87384 0.0
H344 H 0.68988 0.28205 0.70357 0.0
H345 H 0.70082 0.30168 0.60895 0.0
H346 H 0.73777 0.23855 0.70151 0.0
H347 H 0.75116 0.25957 0.60701 0.0
H348 H 0.82369 0.1597 0.60978 0.0
H349 H 0.77187 0.20007 0.60915 0.0
H350 H 0.79858 0.23502 0.69847 0.0
H351 H 0.84802 0.19344 0.69963 0.0
C352 C 0.7031 0.2775 0.68234 0.0
C353 C 0.69193 0.29564 0.6565 0.0
C354 C 0.73087 0.2526 0.68114 0.0
C355 C 0.74916 0.24579 0.65419 0.0
C356 C 0.73768 0.26376 0.62814 0.0
C357 C 0.70905 0.28817 0.62925 0.0
C358 C 0.81799 0.17579 0.62932 0.0
C359 C 0.83955 0.17295 0.65491 0.0
C360 C 0.78851 0.19921 0.62891 0.0
C361 C 0.78049 0.22076 0.65389 0.0
C362 C 0.80281 0.21819 0.67913 0.0
C363 C 0.8315 0.19436 0.67976 0.0
H364 H 0.18347 0.65992 0.60114 0.0
H365 H 0.15027 0.70894 0.68404 0.0
H366 H 0.23708 0.6987 0.60023 0.0
H367 H 0.20357 0.7469 0.68316 0.0
H368 H 0.32227 0.76582 0.69613 0.0
H369 H 0.27017 0.72721 0.68903 0.0
H370 H 0.25696 0.76877 0.59971 0.0
H371 H 0.30939 0.80818 0.60683 0.0
C372 C 0.18716 0.67939 0.6188 0.0
C373 C 0.16266 0.6811 0.64278 0.0
C374 C 0.21788 0.70148 0.61828 0.0
C375 C 0.22476 0.72527 0.64192 0.0
C376 C 0.19926 0.72833 0.66492 0.0
C377 C 0.16855 0.70668 0.66529 0.0
C378 C 0.30877 0.76645 0.67473 0.0
C379 C 0.31987 0.79042 0.65215 0.0
C380 C 0.27874 0.74444 0.67077 0.0
C381 C 0.25915 0.74552 0.64404 0.0
C382 C 0.27154 0.76756 0.62058 0.0
C383 C 0.30158 0.79 0.62466 0.0
H384 H 0.95412 0.37217 0.25603 0.0
H385 H 0.01402 0.44143 0.3151 0.0
H386 H 0.99557 0.38718 0.21535 0.0
H387 H 0.05455 0.45708 0.27474 0.0
H388 H 0.01511 0.49044 0.15548 0.0
H389 H 0.99542 0.44373 0.18956 0.0
H390 H 0.09741 0.44929 0.23527 0.0
H391 H 0.11685 0.49713 0.20124 0.0
C392 C 0.97684 0.38955 0.26062 0.0
C393 C 0.98029 0.40641 0.28848 0.0
C394 C 1.00048 0.39836 0.23728 0.0
C395 C 0.02787 0.42408 0.24151 0.0
C396 C 0.03388 0.4372 0.27048 0.0
C397 C 0.01033 0.42848 0.29368 0.0
C398 C 0.03378 0.48101 0.17225 0.0
C399 C 0.0671 0.49817 0.17624 0.0
C400 C 0.02262 0.45382 0.19169 0.0
C401 C 0.04452 0.44319 0.21564 0.0
C402 C 0.07961 0.45738 0.2174 0.0
C403 C 0.09083 0.48467 0.19782 0.0
H404 H 0.96607 0.14739 0.21335 0.0
H405 H 0.98663 0.05762 0.15505 0.0
H406 H 0.01789 0.1306 0.24373 0.0
H407 H 0.03754 0.04053 0.18538 0.0
H408 H 0.04324 0.03573 0.31142 0.0
H409 H 0.01812 0.07906 0.27697 0.0
H410 H 0.09526 0.04754 0.20979 0.0
H411 H 0.12021 0.00337 0.24454 0.0
C412 C 0.98233 0.12483 0.20645 0.0
C413 C 0.97181 0.10324 0.18232 0.0
C414 C 0.01192 0.11512 0.2239 0.0
C415 C 0.03144 0.08379 0.21736 0.0
C416 C 0.02331 0.06485 0.19112 0.0
C417 C 0.99377 0.07443 0.17385 0.0
C418 C 0.05558 0.03878 0.2896 0.0
C419 C 0.08306 0.01559 0.28038 0.0
C420 C 0.04141 0.06398 0.26987 0.0
C421 C 0.05425 0.06637 0.24038 0.0
C422 C 0.08444 0.04592 0.23224 0.0
C423 C 0.09884 0.02075 0.25216 0.0
H424 H 0.50168 0.12322 0.28006 0.0
H425 H 0.46248 0.03828 0.33759 0.0
H426 H 0.45954 0.10438 0.24136 0.0
H427 H 0.42118 0.01906 0.29906 0.0
H428 H 0.36051 0.97463 0.22652 0.0
H429 H 0.3736 0.02224 0.2625 0.0
H430 H 0.46898 0.05072 0.21229 0.0
H431 H 0.4556 0.00396 0.17651 0.0
C432 C 0.48309 0.10148 0.28493 0.0
C433 C 0.48601 0.08159 0.31152 0.0
C434 C 0.4591 0.09052 0.26267 0.0
C435 C 0.43766 0.05959 0.26675 0.0
C436 C 0.43723 0.04294 0.29498 0.0
C437 C 0.4612 0.0538 0.31711 0.0
C438 C 0.38345 0.99206 0.22261 0.0
C439 C 0.40752 0.98509 0.19914 0.0
C440 C 0.39106 0.01921 0.24329 0.0
C441 C 0.42273 0.03987 0.24067 0.0
C442 C 0.44429 0.03555 0.21511 0.0
C443 C 0.43682 0.0084 0.19465 0.0
H444 H 0.49916 0.41599 0.20199 0.0
H445 H 0.49503 0.52133 0.1615 0.0
H446 H 0.45338 0.434 0.23803 0.0
H447 H 0.45096 0.53979 0.19785 0.0
H448 H 0.38898 0.58032 0.26988 0.0
H449 H 0.39811 0.5422 0.2263 0.0
H450 H 0.46326 0.47078 0.27961 0.0
H451 H 0.45279 0.50763 0.32292 0.0
C452 C 0.48775 0.44261 0.20021 0.0
C453 C 0.50154 0.46763 0.17955 0.0
C454 C 0.46167 0.45307 0.221 0.0
C455 C 0.44922 0.48876 0.2216 0.0
C456 C 0.45975 0.51212 0.19838 0.0
C457 C 0.48551 0.50163 0.17758 0.0
C458 C 0.40406 0.55571 0.27249 0.0
C459 C 0.42121 0.54767 0.2996 0.0
C460 C 0.40953 0.53395 0.24744 0.0
C461 C 0.43247 0.504 0.24905 0.0
C462 C 0.44555 0.49357 0.2772 0.0
C463 C 0.43988 0.51509 0.30216 0.0
H464 H 0.98349 0.51521 0.65768 0.0
H465 H 0.99324 0.61623 0.70404 0.0
H466 H 0.93666 0.49637 0.69174 0.0
H467 H 0.94491 0.59787 0.73799 0.0
H468 H 0.94018 0.51453 0.81754 0.0
H469 H 0.95186 0.55638 0.77735 0.0
H470 H 0.88272 0.49458 0.71928 0.0
H471 H 0.87218 0.45154 0.7597 0.0
C472 C 0.97461 0.534 0.67456 0.0
C473 C 0.99285 0.56667 0.67883 0.0
C474 C 0.94728 0.52334 0.69404 0.0
C475 C 0.93753 0.54515 0.71831 0.0
C476 C 0.95243 0.57998 0.72003 0.0
C477 C 0.97997 0.59065 0.70046 0.0
C478 C 0.92647 0.51046 0.79649 0.0
C479 C 0.90636 0.47904 0.79143 0.0
C480 C 0.9329 0.5348 0.77334 0.0
C481 C 0.91926 0.52829 0.74459 0.0
C482 C 0.89459 0.49979 0.74089 0.0
C483 C 0.88827 0.47524 0.76414 0.0
H484 H 0.01391 0.97485 0.83571 0.0
H485 H 0.06657 0.89477 0.7817 0.0
H486 H 0.97322 0.9878 0.79543 0.0
H487 H 0.02409 0.90631 0.74145 0.0
H488 H 0.00851 0.99653 0.67011 0.0
H489 H 0.02522 0.95464 0.70865 0.0
H490 H 0.92974 0.98203 0.75877 0.0
H491 H 0.91398 0.0259 0.7204 0.0
C492 C 0.01601 0.95903 0.81552 0.0
C493 C 0.04444 0.9348 0.8115 0.0
C494 C 0.99219 0.96619 0.79233 0.0
C495 C 0.99594 0.94899 0.76458 0.0
C496 C 0.02119 0.92103 0.76212 0.0
C497 C 0.04541 0.91415 0.78531 0.0
C498 C 0.99056 0.99316 0.68902 0.0
C499 C 0.96063 0.01558 0.69271 0.0
C500 C 0.99996 0.96858 0.71115 0.0
C501 C 0.97946 0.9655 0.73748 0.0
C502 C 0.94686 0.98452 0.73927 0.0
C503 C 0.93763 0.00953 0.71716 0.0
H504 H 0.58325 0.94958 0.83708 0.0
H505 H 0.6048 0.02332 0.76481 0.0
H506 H 0.56223 0.90474 0.80162 0.0
H507 H 0.58078 0.98064 0.72954 0.0
H508 H 0.51901 0.91611 0.66933 0.0
H509 H 0.56964 0.93282 0.70081 0.0
H510 H 0.50934 0.89757 0.77859 0.0
H511 H 0.46093 0.87793 0.74658 0.0
C512 C 0.58439 0.95571 0.81342 0.0
C513 C 0.59538 0.98985 0.80359 0.0
C514 C 0.57168 0.9303 0.79303 0.0
C515 C 0.56805 0.93922 0.76255 0.0
C516 C 0.58289 0.97216 0.75259 0.0
C517 C 0.59681 0.99699 0.77289 0.0
C518 C 0.51757 0.91058 0.69308 0.0
C519 C 0.4862 0.89595 0.70567 0.0
C520 C 0.54631 0.9207 0.7113 0.0
C521 C 0.54351 0.91807 0.74265 0.0
C522 C 0.51321 0.90015 0.75474 0.0
C523 C 0.48508 0.88884 0.73637 0.0
H524 H 0.62851 0.46023 0.70894 0.0
H525 H 0.53174 0.47864 0.65824 0.0
H526 H 0.61599 0.51365 0.73875 0.0
H527 H 0.51902 0.53127 0.68807 0.0
H528 H 0.49213 0.61934 0.74553 0.0
H529 H 0.53123 0.59086 0.7086 0.0
H530 H 0.56857 0.51704 0.77629 0.0
H531 H 0.53011 0.54558 0.81285 0.0
C532 C 0.60515 0.47621 0.70359 0.0
C533 C 0.5806 0.46475 0.68178 0.0
C534 C 0.59796 0.50677 0.72068 0.0
C535 C 0.56623 0.52641 0.71611 0.0
C536 C 0.54381 0.51698 0.69216 0.0
C537 C 0.55088 0.48646 0.67524 0.0
C538 C 0.50985 0.59801 0.75269 0.0
C539 C 0.50758 0.58409 0.78182 0.0
C540 C 0.53207 0.58157 0.73153 0.0
C541 C 0.55247 0.55122 0.73935 0.0
C542 C 0.55337 0.54036 0.76943 0.0
C543 C 0.53104 0.55654 0.7904 0.0
H544 H 0.05165 0.64601 0.23757 0.0
H545 H 0.0195 0.7152 0.16492 0.0
H546 H 0.04573 0.69569 0.27236 0.0
H547 H 0.01392 0.76544 0.20006 0.0
H548 H 0.10595 0.80209 0.29753 0.0
H549 H 0.09047 0.7484 0.26955 0.0
H550 H 0.98548 0.79179 0.25102 0.0
H551 H 1.00101 0.84594 0.28006 0.0
C552 C 0.04245 0.67168 0.22916 0.0
C553 C 0.03674 0.67699 0.19846 0.0
C554 C 0.03899 0.70006 0.24911 0.0
C555 C 0.02996 0.73446 0.2388 0.0
C556 C 0.02081 0.73909 0.20857 0.0
C557 C 0.0241 0.71043 0.18847 0.0
C558 C 0.07928 0.79985 0.28804 0.0
C559 C 0.05458 0.82789 0.291 0.0
C560 C 0.07035 0.7691 0.2721 0.0
C561 C 0.03671 0.76589 0.25824 0.0
C562 C 0.01154 0.79365 0.26161 0.0
C563 C 0.02028 0.82435 0.2783 0.0
H564 H 0.77235 0.01421 0.1733 0.0
H565 H 0.8163 0.0798 0.24383 0.0
H566 H 0.72756 0.98994 0.2084 0.0
H567 H 0.772 0.05603 0.27842 0.0
H568 H 0.69513 0.01154 0.34063 0.0
H569 H 0.74635 0.00532 0.30651 0.0
H570 H 0.67541 0.01966 0.23125 0.0
H571 H 0.62479 0.02557 0.26523 0.0
C572 C 0.77286 0.02296 0.19634 0.0
C573 C 0.79743 0.0494 0.20564 0.0
C574 C 0.74727 0.00907 0.21644 0.0
C575 C 0.74617 0.02101 0.24626 0.0
C576 C 0.77229 0.04575 0.25582 0.0
C577 C 0.79744 0.05982 0.23579 0.0
C578 C 0.6904 0.01151 0.31677 0.0
C579 C 0.65619 0.0192 0.30548 0.0
C580 C 0.71971 0.00839 0.29722 0.0
C581 C 0.71507 0.01272 0.26616 0.0
C582 C 0.68005 0.01605 0.25494 0.0
C583 C 0.65097 0.01949 0.27443 0.0
H584 H 0.52135 0.66088 0.31009 0.0
H585 H 0.45246 0.72717 0.36424 0.0
H586 H 0.51542 0.70353 0.26844 0.0
H587 H 0.44686 0.76982 0.3229 0.0
H588 H 0.39582 0.79486 0.23288 0.0
H589 H 0.41351 0.75541 0.27326 0.0
H590 H 0.52513 0.77246 0.25121 0.0
H591 H 0.5074 0.81235 0.2098 0.0
C592 C 0.50571 0.68502 0.31331 0.0
C593 C 0.48675 0.69053 0.34013 0.0
C594 C 0.50238 0.70938 0.28951 0.0
C595 C 0.48015 0.73955 0.29232 0.0
C596 C 0.46363 0.74639 0.31998 0.0
C597 C 0.4669 0.72211 0.34364 0.0
C598 C 0.42422 0.79036 0.23642 0.0
C599 C 0.45022 0.80724 0.21828 0.0
C600 C 0.4343 0.76793 0.25981 0.0
C601 C 0.47065 0.76177 0.26595 0.0
C602 C 0.49689 0.77712 0.24709 0.0
C603 C 0.48674 0.79981 0.22341 0.0
H604 H 0.63852 0.49933 0.23793 0.0
H605 H 0.72254 0.50661 0.17169 0.0
H606 H 0.68266 0.5063 0.27756 0.0
H607 H 0.76734 0.51214 0.21151 0.0
H608 H 0.77065 0.43933 0.32566 0.0
H609 H 0.72365 0.45956 0.29234 0.0
H610 H 0.79499 0.54102 0.25649 0.0
H611 H 0.8425 0.52032 0.29047 0.0
C612 C 0.66646 0.50339 0.2319 0.0
C613 C 0.67729 0.50211 0.20188 0.0
C614 C 0.69177 0.5072 0.25457 0.0
C615 C 0.72861 0.50892 0.24776 0.0
C616 C 0.73917 0.51101 0.21754 0.0
C617 C 0.71359 0.50778 0.1947 0.0
C618 C 0.77586 0.46241 0.31144 0.0
C619 C 0.80999 0.47844 0.31073 0.0
C620 C 0.74891 0.47413 0.29231 0.0
C621 C 0.75551 0.50194 0.27162 0.0
C622 C 0.78913 0.51946 0.27209 0.0
C623 C 0.81614 0.50796 0.29173 0.0
H624 H 0.99229 0.23604 0.66031 0.0
H625 H 0.03898 0.15526 0.71713 0.0
H626 H 1.00223 0.28127 0.69896 0.0
H627 H 0.04833 0.20028 0.75619 0.0
H628 H 0.02471 0.3573 0.77423 0.0
H629 H 0.04612 0.31498 0.73617 0.0
H630 H 0.99243 0.22821 0.78272 0.0
H631 H 0.97027 0.27053 0.81989 0.0
C632 C 0.00637 0.22846 0.6805 0.0
C633 C 0.01541 0.19248 0.68571 0.0
C634 C 0.012 0.25426 0.70266 0.0
C635 C 0.02592 0.2442 0.73061 0.0
C636 C 0.03767 0.20872 0.73482 0.0
C637 C 0.03257 0.18307 0.71244 0.0
C638 C 0.01879 0.32894 0.77683 0.0
C639 C 0.99613 0.31693 0.79996 0.0
C640 C 0.03081 0.30484 0.75503 0.0
C641 C 0.021 0.26835 0.75656 0.0
C642 C 1.00086 0.25606 0.78119 0.0
C643 C 0.98813 0.28022 0.80245 0.0
H644 H 0.28125 0.89853 0.71987 0.0
H645 H 0.32845 0.00469 0.71663 0.0
H646 H 0.23875 0.91834 0.75749 0.0
H647 H 0.28538 0.02474 0.75483 0.0
H648 H 0.23654 0.01748 0.85459 0.0
H649 H 0.27531 0.00924 0.81059 0.0
H650 H 0.18673 0.95984 0.76378 0.0
H651 H 0.14839 0.96815 0.8076 0.0
C652 C 0.28221 0.92633 0.72692 0.0
C653 C 0.30825 0.95005 0.71527 0.0
C654 C 0.25768 0.93773 0.74841 0.0
C655 C 0.25865 0.97313 0.7591 0.0
C656 C 0.28412 0.99726 0.74704 0.0
C657 C 0.30852 0.9859 0.72504 0.0
C658 C 0.22541 0.00547 0.83463 0.0
C659 C 0.18985 0.99284 0.83445 0.0
C660 C 0.24744 1.0009 0.80946 0.0
C661 C 0.23414 0.98356 0.78384 0.0
C662 C 0.19787 0.97285 0.7833 0.0
C663 C 0.17595 0.97755 0.80832 0.0
H664 H 0.48996 0.1287 0.79296 0.0
H665 H 0.56404 0.20166 0.83536 0.0
H666 H 0.47435 0.17567 0.75653 0.0
H667 H 0.54888 0.24815 0.79959 0.0
H668 H 0.52312 0.24481 0.67462 0.0
H669 H 0.5099 0.20176 0.71476 0.0
H670 H 0.50638 0.28891 0.77818 0.0
H671 H 0.52114 0.3313 0.73831 0.0
C672 C 0.5017 0.15524 0.79521 0.0
C673 C 0.52797 0.16183 0.81699 0.0
C674 C 0.49315 0.18195 0.77419 0.0
C675 C 0.51044 0.21568 0.775 0.0
C676 C 0.53455 0.22281 0.79842 0.0
C677 C 0.54335 0.19615 0.81899 0.0
C678 C 0.51816 0.25471 0.69697 0.0
C679 C 0.52336 0.29115 0.70357 0.0
C680 C 0.51053 0.23013 0.72 0.0
C681 C 0.50779 0.24182 0.74983 0.0
C682 C 0.50911 0.27891 0.7556 0.0
C683 C 0.51731 0.30323 0.73278 0.0
H684 H 0.33832 0.50354 0.79237 0.0
H685 H 0.29815 0.61172 0.79934 0.0
H686 H 0.28414 0.48618 0.76406 0.0
H687 H 0.2444 0.59447 0.77209 0.0
H688 H 0.14044 0.55365 0.74428 0.0
H689 H 0.19017 0.551 0.77934 0.0
H690 H 0.25901 0.50957 0.71 0.0
H691 H 0.20877 0.51202 0.67455 0.0
C692 C 0.31755 0.52326 0.78846 0.0
C693 C 0.32218 0.55891 0.79801 0.0
C694 C 0.28684 0.51344 0.77216 0.0
C695 C 0.26008 0.53896 0.76608 0.0
C696 C 0.26435 0.57414 0.77676 0.0
C697 C 0.29514 0.58405 0.79227 0.0
C698 C 0.16589 0.54302 0.73664 0.0
C699 C 0.17096 0.5337 0.70654 0.0
C700 C 0.19431 0.54145 0.75676 0.0
C701 C 0.22848 0.53063 0.74723 0.0
C702 C 0.23283 0.5179 0.71789 0.0
C703 C 0.20414 0.51937 0.69762 0.0
H704 H 0.08612 0.56207 0.03837 0.0
H705 H 0.97185 0.57278 0.05243 0.0
H706 H 0.07473 0.52462 0.99479 0.0
H707 H 0.96045 0.53616 0.00851 0.0
H708 H 0.95171 0.4345 0.95326 0.0
H709 H 0.96536 0.47375 0.99528 0.0
H710 H 0.05194 0.52239 0.94467 0.0
H711 H 0.03892 0.48254 0.90306 0.0
C712 C 0.05857 0.55719 0.03174 0.0
C713 C 0.02991 0.5703 0.04897 0.0
C714 C 0.05202 0.53562 0.00676 0.0
C715 C 0.01664 0.5268 -0.0016 0.0
C716 C 0.98802 0.54159 0.01474 0.0
C717 C 0.99457 0.56299 0.03974 0.0
C718 C 0.97392 0.45326 0.95125 0.0
C719 C 0.9942 0.45534 0.9248 0.0
C720 C 0.98152 0.47609 0.97521 0.0
C721 C 0.00949 0.50162 0.97326 0.0
C722 C 0.03037 0.50296 0.94708 0.0
C723 C 0.02284 0.48009 0.92316 0.0
H724 H 0.05605 0.98762 0.97408 0.0
H725 H 0.0083 0.06703 0.91612 0.0
H726 H 0.00952 0.99836 0.0112 0.0
H727 H 0.96114 0.07727 0.95312 0.0
H728 H 0.90569 0.99716 0.06062 0.0
H729 H 0.94624 0.98754 0.01871 0.0
H730 H 0.95051 0.10196 0.00258 0.0
H731 H 0.90916 0.11151 0.0442 0.0
C732 C 0.03566 0.00744 0.96926 0.0
C733 C 0.03597 0.02645 0.94211 0.0
C734 C 0.00869 0.01335 0.99044 0.0
C735 C 0.98121 0.03835 0.98502 0.0
C736 C 0.98192 0.05793 0.9581 0.0
C737 C 0.00898 0.05203 0.93688 0.0
C738 C 0.91463 0.02023 0.04774 0.0
C739 C 0.90437 0.05513 0.05591 0.0
C740 C 0.93823 0.01475 0.02389 0.0
C741 C 0.95237 0.04403 0.00769 0.0
C742 C 0.94018 0.07878 0.01455 0.0
C743 C 0.91637 0.08426 0.0384 0.0
H744 H 0.53007 0.91916 0.08011 0.0
H745 H 0.41778 0.92384 0.05669 0.0
H746 H 0.54554 0.95195 0.03466 0.0
H747 H 0.43295 0.95796 0.01187 0.0
H748 H 0.47443 0.99347 0.92063 0.0
H749 H 0.45903 0.95744 0.9642 0.0
H750 H 0.54297 0.01036 0.01432 0.0
H751 H 0.55937 0.04534 0.97012 0.0
C752 C 0.50868 0.92697 0.06512 0.0
C753 C 0.47269 0.91881 0.072 0.0
C754 C 0.5175 0.94622 0.0392 0.0
C755 C 0.49053 0.95821 0.01964 0.0
C756 C 0.45458 0.94897 0.02612 0.0
C757 C 0.44581 0.92934 0.05188 0.0
C758 C 0.48947 0.99763 0.94101 0.0
C759 C 0.51815 0.02234 0.94187 0.0
C760 C 0.48054 0.97697 0.96611 0.0
C761 C 0.49979 0.98069 0.99293 0.0
C762 C 0.52798 0.00609 0.99395 0.0
C763 C 0.53718 0.0265 0.96869 0.0
H764 H 0.47717 0.60879 0.93048 0.0
H765 H 0.45211 0.4956 0.92614 0.0
H766 H 0.51573 0.59792 0.97337 0.0
H767 H 0.48919 0.48478 0.9699 0.0
H768 H 0.58375 0.46806 0.03052 0.0
H769 H 0.54896 0.48151 0.9858 0.0
H770 H 0.51808 0.58341 0.02388 0.0
H771 H 0.55418 0.57069 0.06761 0.0
C772 C 0.47926 0.58168 0.93913 0.0
C773 C 0.46153 0.55308 0.92493 0.0
C774 C 0.50143 0.57537 0.96378 0.0
C775 C 0.50605 0.54034 0.97513 0.0
C776 C 0.4872 0.51197 0.96144 0.0
C777 C 0.46548 0.51823 0.93654 0.0
C778 C 0.57008 0.49361 0.02902 0.0
C779 C 0.57182 0.51828 0.05264 0.0
C780 C 0.54967 0.50118 0.00353 0.0
C781 C 0.53009 0.53339 0.00122 0.0
C782 C 0.53296 0.55852 0.0245 0.0
C783 C 0.55372 0.55117 0.04974 0.0
H784 H 0.106 0.97073 0.42907 0.0
H785 H 0.99154 0.95451 0.42069 0.0
H786 H 0.09625 0.0059 0.47412 0.0
H787 H 0.98176 0.98837 0.46637 0.0
H788 H 0.97131 0.0819 0.5299 0.0
H789 H 0.98321 0.04795 0.48445 0.0
H790 H 0.07901 0.00419 0.52465 0.0
H791 H 0.06791 0.0392 0.56934 0.0
C792 C 0.0788 0.97401 0.43722 0.0
C793 C 0.04956 0.95986 0.42129 0.0
C794 C 0.07315 0.99422 0.4631 0.0
C795 C 0.03813 1.00042 0.47384 0.0
C796 C 0.00903 0.98502 0.45843 0.0
C797 C 0.01466 0.96518 0.4324 0.0
C798 C 0.99515 0.06539 0.52882 0.0
C799 C 0.01866 0.06333 0.55322 0.0
C800 C 1.0018 0.04557 0.50289 0.0
C801 C 0.03192 0.02291 0.50088 0.0
C802 C 0.0558 0.02158 0.52512 0.0
C803 C 0.04936 0.04166 0.55087 0.0
H804 H 0.5558 0.05348 0.47243 0.0
H805 H 0.5058 0.9665 0.42415 0.0
H806 H 0.52128 0.0371 0.5169 0.0
H807 H 0.47001 0.95125 0.46779 0.0
H808 H 0.43418 0.91128 0.55953 0.0
H809 H 0.46923 0.92616 0.51519 0.0
H810 H 0.4639 0.0388 0.538 0.0
H811 H 0.43044 0.02349 0.58312 0.0
C812 C 0.53747 0.03084 0.47133 0.0
C813 C 0.53374 0.01122 0.44478 0.0
C814 C 0.51728 0.02164 0.49674 0.0
C815 C 0.49242 0.99292 0.49611 0.0
C816 C 0.48915 0.97312 0.46953 0.0
C817 C 0.50969 0.98198 0.44433 0.0
C818 C 0.4401 0.93926 0.55484 0.0
C819 C 0.42948 0.96618 0.57486 0.0
C820 C 0.46026 0.94789 0.52932 0.0
C821 C 0.46988 0.98377 0.52288 0.0
C822 C 0.45795 0.0108 0.54243 0.0
C823 C 0.43828 1.00208 0.56818 0.0
H824 H 0.47461 0.39847 0.55829 0.0
H825 H 0.58926 0.40229 0.5435 0.0
H826 H 0.46558 0.43769 0.5154 0.0
H827 H 0.5803 0.44238 0.50094 0.0
H828 H 0.46618 0.54628 0.46835 0.0
H829 H 0.47583 0.5006 0.50644 0.0
H830 H 0.5569 0.45134 0.45105 0.0
H831 H 0.54781 0.49768 0.41314 0.0
C832 C 0.49788 0.40723 0.54558 0.0
C833 C 0.53267 0.39744 0.55445 0.0
C834 C 0.49273 0.43006 0.52117 0.0
C835 C 0.52225 0.4439 0.5051 0.0
C836 C 0.55694 0.43222 0.51276 0.0
C837 C 0.56209 0.40915 0.53715 0.0
C838 C 0.48618 0.52582 0.46431 0.0
C839 C 0.50622 0.52569 0.43769 0.0
C840 C 0.49148 0.49935 0.48605 0.0
C841 C 0.51687 0.47195 0.48171 0.0
C842 C 0.53728 0.4721 0.45522 0.0
C843 C 0.53201 0.49866 0.43347 0.0
H844 H 0.96147 0.41537 0.44254 0.0
H845 H 0.95452 0.52924 0.42551 0.0
H846 H 1.00117 0.4268 0.48455 0.0
H847 H 0.99227 0.54113 0.46867 0.0
H848 H 0.08431 0.55462 0.5321 0.0
H849 H 0.04992 0.53986 0.48746 0.0
H850 H 0.00565 0.44669 0.5327 0.0
H851 H 0.04168 0.46024 0.57616 0.0
C852 C 0.96781 0.44293 0.44824 0.0
C853 C 0.95478 0.4714 0.43081 0.0
C854 C 0.99061 0.44959 0.47243 0.0
C855 C 1.00035 0.48499 0.48022 0.0
C856 C 0.98636 0.51347 0.46309 0.0
C857 C 0.96423 0.50672 0.43852 0.0
C858 C 0.06779 0.53059 0.53216 0.0
C859 C 0.06587 0.50857 0.55764 0.0
C860 C 0.04758 0.52232 0.5067 0.0
C861 C 0.02435 0.49225 0.50634 0.0
C862 C 0.02344 0.46974 0.53165 0.0
C863 C 0.04416 0.47759 0.55679 0.0
loop_
_geom_bond_atom_site_label_1
_geom_bond_atom_site_label_2
_geom_bond_distance
_geom_bond_site_symmetry_2
_ccdc_geom_bond_type
O0 Cd1 2.223 . S
O0 C8 1.319 . S
Cd1 O0 2.223 . S
Cd1 O4 2.297 . S
Cd1 O5 2.439 1_655 S
Cd1 O11 2.240 1_655 S
Cd2 O3 2.240 . S
Cd2 O10 2.223 . S
Cd2 O12 2.297 . S
Cd2 O13 2.439 . S
O3 Cd2 2.240 . S
O3 C8 1.275 1_455 S
O4 Cd1 2.297 . S
O4 C6 1.247 1_655 S
O5 Cd1 2.439 1_455 S
O5 C6 1.208 . S
C6 O4 1.247 1_455 S
C6 O5 1.208 . S
C7 O12 1.247 . S
C7 O13 1.208 . S
C8 O0 1.319 . S
C8 O3 1.275 1_655 S
C9 O10 1.315 . S
C9 O11 1.279 . S
O10 Cd2 2.223 . S
O10 C9 1.315 . S
O11 Cd1 2.240 1_455 S
O11 C9 1.279 . S
O12 Cd2 2.297 . S
O12 C7 1.247 . S
O13 Cd2 2.439 . S
O13 C7 1.208 . S
O14 Cd15 2.223 . S
O14 C22 1.318 . S
Cd15 O14 2.223 . S
Cd15 O18 2.297 . S
Cd15 O19 2.439 1_565 S
Cd15 O25 2.240 1_565 S
Cd16 O17 2.240 . S
Cd16 O24 2.223 . S
Cd16 O26 2.297 . S
Cd16 O27 2.439 . S
O17 Cd16 2.240 . S
O17 C22 1.275 1_545 S
O18 Cd15 2.297 . S
O18 C20 1.247 1_565 S
O19 Cd15 2.439 1_545 S
O19 C20 1.208 . S
C20 O18 1.247 1_545 S
C20 O19 1.208 . S
C21 O26 1.247 . S
C21 O27 1.208 . S
C22 O14 1.318 . S
C22 O17 1.275 1_565 S
C23 O24 1.315 . S
C23 O25 1.279 . S
O24 Cd16 2.223 . S
O24 C23 1.315 . S
O25 Cd15 2.240 1_545 S
O25 C23 1.279 . S
O26 Cd16 2.297 . S
O26 C21 1.247 . S
O27 Cd16 2.439 . S
O27 C21 1.208 . S
O28 Cd29 2.223 . S
O28 C36 1.315 . S
Cd29 O28 2.223 . S
Cd29 O32 2.297 . S
Cd29 O33 2.439 . S
Cd29 O39 2.240 . S
Cd30 O31 2.240 . S
Cd30 O38 2.223 . S
Cd30 O40 2.297 . S
Cd30 O41 2.439 . S
O31 Cd30 2.240 . S
O31 C36 1.279 . S
O32 Cd29 2.297 . S
O32 C34 1.247 . S
O33 Cd29 2.439 . S
O33 C34 1.208 . S
C34 O32 1.247 . S
C34 O33 1.208 . S
C35 O40 1.247 . S
C35 O41 1.208 . S
C36 O28 1.315 . S
C36 O31 1.279 . S
C37 O38 1.315 . S
C37 O39 1.279 . S
O38 Cd30 2.223 . S
O38 C37 1.315 . S
O39 Cd29 2.240 . S
O39 C37 1.279 . S
O40 Cd30 2.297 . S
O40 C35 1.247 . S
O41 Cd30 2.439 . S
O41 C35 1.208 . S
O42 Cd43 2.223 . S
O42 C50 1.315 . S
Cd43 O42 2.223 . S
Cd43 O46 2.297 . S
Cd43 O47 2.439 . S
Cd43 O53 2.240 . S
Cd44 O45 2.240 . S
Cd44 O52 2.223 . S
Cd44 O54 2.297 . S
Cd44 O55 2.439 . S
O45 Cd44 2.240 . S
O45 C50 1.279 . S
O46 Cd43 2.297 . S
O46 C48 1.247 . S
O47 Cd43 2.439 . S
O47 C48 1.208 . S
C48 O46 1.247 . S
C48 O47 1.208 . S
C49 O54 1.247 . S
C49 O55 1.208 . S
C50 O42 1.315 . S
C50 O45 1.279 . S
C51 O52 1.315 . S
C51 O53 1.279 . S
O52 Cd44 2.223 . S
O52 C51 1.315 . S
O53 Cd43 2.240 . S
O53 C51 1.279 . S
O54 Cd44 2.297 . S
O54 C49 1.247 . S
O55 Cd44 2.439 . S
O55 C49 1.208 . S
O56 Cd57 2.223 . S
O56 C64 1.318 . S
Cd57 O56 2.223 . S
Cd57 O60 2.297 . S
Cd57 O61 2.439 1_655 S
Cd57 O67 2.240 1_655 S
Cd58 O59 2.240 . S
Cd58 O66 2.223 . S
Cd58 O68 2.297 . S
Cd58 O69 2.439 . S
O59 Cd58 2.240 . S
O59 C64 1.275 1_455 S
O60 Cd57 2.297 . S
O60 C62 1.247 1_655 S
O61 Cd57 2.439 1_455 S
O61 C62 1.208 . S
C62 O60 1.247 1_455 S
C62 O61 1.208 . S
C63 O68 1.247 . S
C63 O69 1.208 . S
C64 O56 1.318 . S
C64 O59 1.275 1_655 S
C65 O66 1.315 . S
C65 O67 1.279 . S
O66 Cd58 2.223 . S
O66 C65 1.315 . S
O67 Cd57 2.240 1_455 S
O67 C65 1.279 . S
O68 Cd58 2.297 . S
O68 C63 1.247 . S
O69 Cd58 2.439 . S
O69 C63 1.208 . S
O70 Cd71 2.223 . S
O70 C78 1.319 . S
Cd71 O70 2.223 . S
Cd71 O74 2.297 . S
Cd71 O75 2.439 1_565 S
Cd71 O81 2.240 1_565 S
Cd72 O73 2.240 . S
Cd72 O80 2.223 . S
Cd72 O82 2.297 . S
Cd72 O83 2.439 . S
O73 Cd72 2.240 . S
O73 C78 1.275 1_545 S
O74 Cd71 2.297 . S
O74 C76 1.247 1_565 S
O75 Cd71 2.439 1_545 S
O75 C76 1.208 . S
C76 O74 1.247 1_545 S
C76 O75 1.208 . S
C77 O82 1.247 . S
C77 O83 1.208 . S
C78 O70 1.319 . S
C78 O73 1.275 1_565 S
C79 O80 1.315 . S
C79 O81 1.279 . S
O80 Cd72 2.223 . S
O80 C79 1.315 . S
O81 Cd71 2.240 1_545 S
O81 C79 1.279 . S
O82 Cd72 2.297 . S
O82 C77 1.247 . S
O83 Cd72 2.439 . S
O83 C77 1.208 . S
O84 Cd85 2.223 . S
O84 C92 1.315 . S
Cd85 O84 2.223 . S
Cd85 O88 2.297 . S
Cd85 O89 2.439 . S
Cd85 O95 2.240 . S
Cd86 O87 2.240 . S
Cd86 O94 2.223 . S
Cd86 O96 2.297 . S
Cd86 O97 2.439 . S
O87 Cd86 2.240 . S
O87 C92 1.279 . S
O88 Cd85 2.297 . S
O88 C90 1.247 . S
O89 Cd85 2.439 . S
O89 C90 1.208 . S
C90 O88 1.247 . S
C90 O89 1.208 . S
C91 O96 1.247 . S
C91 O97 1.208 . S
C92 O84 1.315 . S
C92 O87 1.279 . S
C93 O94 1.315 . S
C93 O95 1.279 . S
O94 Cd86 2.223 . S
O94 C93 1.315 . S
O95 Cd85 2.240 . S
O95 C93 1.279 . S
O96 Cd86 2.297 . S
O96 C91 1.247 . S
O97 Cd86 2.439 . S
O97 C91 1.208 . S
O98 Cd99 2.223 . S
O98 C106 1.315 . S
Cd99 O98 2.223 . S
Cd99 O102 2.297 . S
Cd99 O103 2.439 . S
Cd99 O109 2.240 . S
Cd100 O101 2.240 . S
Cd100 O108 2.223 . S
Cd100 O110 2.297 . S
Cd100 O111 2.439 . S
O101 Cd100 2.240 . S
O101 C106 1.279 . S
O102 Cd99 2.297 . S
O102 C104 1.247 . S
O103 Cd99 2.439 . S
O103 C104 1.208 . S
C104 O102 1.247 . S
C104 O103 1.208 . S
C105 O110 1.247 . S
C105 O111 1.208 . S
C106 O98 1.315 . S
C106 O101 1.279 . S
C107 O108 1.315 . S
C107 O109 1.279 . S
O108 Cd100 2.223 . S
O108 C107 1.315 . S
O109 Cd99 2.240 . S
O109 C107 1.279 . S
O110 Cd100 2.297 . S
O110 C105 1.247 . S
O111 Cd100 2.439 . S
O111 C105 1.208 . S
O112 Cd113 2.223 . S
O112 C120 1.319 . S
Cd113 O112 2.223 . S
Cd113 O116 2.297 . S
Cd113 O117 2.439 1_455 S
Cd113 O123 2.240 1_455 S
Cd114 O115 2.240 . S
Cd114 O122 2.223 . S
Cd114 O124 2.297 . S
Cd114 O125 2.439 . S
O115 Cd114 2.240 . S
O115 C120 1.275 1_655 S
O116 Cd113 2.297 . S
O116 C118 1.247 1_455 S
O117 Cd113 2.439 1_655 S
O117 C118 1.208 . S
C118 O116 1.247 1_655 S
C118 O117 1.208 . S
C119 O124 1.247 . S
C119 O125 1.208 . S
C120 O112 1.319 . S
C120 O115 1.275 1_455 S
C121 O122 1.315 . S
C121 O123 1.279 . S
O122 Cd114 2.223 . S
O122 C121 1.315 . S
O123 Cd113 2.240 1_655 S
O123 C121 1.279 . S
O124 Cd114 2.297 . S
O124 C119 1.247 . S
O125 Cd114 2.439 . S
O125 C119 1.208 . S
O126 Cd127 2.223 . S
O126 C134 1.318 . S
Cd127 O126 2.223 . S
Cd127 O130 2.297 . S
Cd127 O131 2.439 1_545 S
Cd127 O137 2.240 1_545 S
Cd128 O129 2.240 . S
Cd128 O136 2.223 . S
Cd128 O138 2.297 . S
Cd128 O139 2.439 . S
O129 Cd128 2.240 . S
O129 C134 1.275 1_565 S
O130 Cd127 2.297 . S
O130 C132 1.247 1_545 S
O131 Cd127 2.439 1_565 S
O131 C132 1.208 . S
C132 O130 1.247 1_565 S
C132 O131 1.208 . S
C133 O138 1.247 . S
C133 O139 1.208 . S
C134 O126 1.318 . S
C134 O129 1.275 1_545 S
C135 O136 1.315 . S
C135 O137 1.279 . S
O136 Cd128 2.223 . S
O136 C135 1.315 . S
O137 Cd127 2.240 1_565 S
O137 C135 1.279 . S
O138 Cd128 2.297 . S
O138 C133 1.247 . S
O139 Cd128 2.439 . S
O139 C133 1.208 . S
O140 Cd141 2.223 . S
O140 C148 1.315 . S
Cd141 O140 2.223 . S
Cd141 O144 2.297 . S
Cd141 O145 2.439 . S
Cd141 O151 2.240 . S
Cd142 O143 2.240 . S
Cd142 O150 2.223 . S
Cd142 O152 2.297 . S
Cd142 O153 2.439 . S
O143 Cd142 2.240 . S
O143 C148 1.279 . S
O144 Cd141 2.297 . S
O144 C146 1.247 . S
O145 Cd141 2.439 . S
O145 C146 1.208 . S
C146 O144 1.247 . S
C146 O145 1.208 . S
C147 O152 1.247 . S
C147 O153 1.208 . S
C148 O140 1.315 . S
C148 O143 1.279 . S
C149 O150 1.315 . S
C149 O151 1.279 . S
O150 Cd142 2.223 . S
O150 C149 1.315 . S
O151 Cd141 2.240 . S
O151 C149 1.279 . S
O152 Cd142 2.297 . S
O152 C147 1.247 . S
O153 Cd142 2.439 . S
O153 C147 1.208 . S
O154 Cd155 2.223 . S
O154 C162 1.315 . S
Cd155 O154 2.223 . S
Cd155 O158 2.297 . S
Cd155 O159 2.439 . S
Cd155 O165 2.240 . S
Cd156 O157 2.240 . S
Cd156 O164 2.223 . S
Cd156 O166 2.297 . S
Cd156 O167 2.439 . S
O157 Cd156 2.240 . S
O157 C162 1.279 . S
O158 Cd155 2.297 . S
O158 C160 1.247 . S
O159 Cd155 2.439 . S
O159 C160 1.208 . S
C160 O158 1.247 . S
C160 O159 1.208 . S
C161 O166 1.247 . S
C161 O167 1.208 . S
C162 O154 1.315 . S
C162 O157 1.279 . S
C163 O164 1.315 . S
C163 O165 1.279 . S
O164 Cd156 2.223 . S
O164 C163 1.315 . S
O165 Cd155 2.240 . S
O165 C163 1.279 . S
O166 Cd156 2.297 . S
O166 C161 1.247 . S
O167 Cd156 2.439 . S
O167 C161 1.208 . S
O168 Cd169 2.223 . S
O168 C176 1.318 . S
Cd169 O168 2.223 . S
Cd169 O172 2.297 . S
Cd169 O173 2.439 1_455 S
Cd169 O179 2.240 1_455 S
Cd170 O171 2.240 . S
Cd170 O178 2.223 . S
Cd170 O180 2.297 . S
Cd170 O181 2.439 . S
O171 Cd170 2.240 . S
O171 C176 1.275 1_655 S
O172 Cd169 2.297 . S
O172 C174 1.247 1_455 S
O173 Cd169 2.439 1_655 S
O173 C174 1.208 . S
C174 O172 1.247 1_655 S
C174 O173 1.208 . S
C175 O180 1.247 . S
C175 O181 1.208 . S
C176 O168 1.318 . S
C176 O171 1.275 1_455 S
C177 O178 1.315 . S
C177 O179 1.279 . S
O178 Cd170 2.223 . S
O178 C177 1.315 . S
O179 Cd169 2.240 1_655 S
O179 C177 1.279 . S
O180 Cd170 2.297 . S
O180 C175 1.247 . S
O181 Cd170 2.439 . S
O181 C175 1.208 . S
O182 Cd183 2.223 . S
O182 C190 1.319 . S
Cd183 O182 2.223 . S
Cd183 O186 2.297 . S
Cd183 O187 2.439 1_545 S
Cd183 O193 2.240 1_545 S
Cd184 O185 2.240 . S
Cd184 O192 2.223 . S
Cd184 O194 2.297 . S
Cd184 O195 2.439 . S
O185 Cd184 2.240 . S
O185 C190 1.275 1_565 S
O186 Cd183 2.297 . S
O186 C188 1.247 1_545 S
O187 Cd183 2.439 1_565 S
O187 C188 1.208 . S
C188 O186 1.247 1_565 S
C188 O187 1.208 . S
C189 O194 1.247 . S
C189 O195 1.208 . S
C190 O182 1.319 . S
C190 O185 1.275 1_545 S
C191 O192 1.315 . S
C191 O193 1.279 . S
O192 Cd184 2.223 . S
O192 C191 1.315 . S
O193 Cd183 2.240 1_565 S
O193 C191 1.279 . S
O194 Cd184 2.297 . S
O194 C189 1.247 . S
O195 Cd184 2.439 . S
O195 C189 1.208 . S
O196 Cd197 2.223 . S
O196 C204 1.315 . S
Cd197 O196 2.223 . S
Cd197 O200 2.297 . S
Cd197 O201 2.439 . S
Cd197 O207 2.240 . S
Cd198 O199 2.240 . S
Cd198 O206 2.223 . S
Cd198 O208 2.297 . S
Cd198 O209 2.439 . S
O199 Cd198 2.240 . S
O199 C204 1.279 . S
O200 Cd197 2.297 . S
O200 C202 1.247 . S
O201 Cd197 2.439 . S
O201 C202 1.208 . S
C202 O200 1.247 . S
C202 O201 1.208 . S
C203 O208 1.247 . S
C203 O209 1.208 . S
C204 O196 1.315 . S
C204 O199 1.279 . S
C205 O206 1.315 . S
C205 O207 1.279 . S
O206 Cd198 2.223 . S
O206 C205 1.315 . S
O207 Cd197 2.240 . S
O207 C205 1.279 . S
O208 Cd198 2.297 . S
O208 C203 1.247 . S
O209 Cd198 2.439 . S
O209 C203 1.208 . S
O210 Cd211 2.223 . S
O210 C218 1.315 . S
Cd211 O210 2.223 . S
Cd211 O214 2.297 . S
Cd211 O215 2.439 . S
Cd211 O221 2.240 . S
Cd212 O213 2.240 . S
Cd212 O220 2.223 . S
Cd212 O222 2.297 . S
Cd212 O223 2.439 . S
O213 Cd212 2.240 . S
O213 C218 1.279 . S
O214 Cd211 2.297 . S
O214 C216 1.247 . S
O215 Cd211 2.439 . S
O215 C216 1.208 . S
C216 O214 1.247 . S
C216 O215 1.208 . S
C217 O222 1.247 . S
C217 O223 1.208 . S
C218 O210 1.315 . S
C218 O213 1.279 . S
C219 O220 1.315 . S
C219 O221 1.279 . S
O220 Cd212 2.223 . S
O220 C219 1.315 . S
O221 Cd211 2.240 . S
O221 C219 1.279 . S
O222 Cd212 2.297 . S
O222 C217 1.247 . S
O223 Cd212 2.439 . S
O223 C217 1.208 . S
H224 C232 0.950 . S
H225 C237 0.950 . S
H226 C234 0.950 . S
H227 C236 0.950 . S
H228 C238 0.950 . S
H229 C240 0.950 . S
H230 C242 0.950 . S
H231 C243 0.950 . S
C232 H224 0.950 . S
C232 C233 1.386 . S
C232 C234 1.391 . S
C233 C232 1.386 . S
C233 C237 1.393 . S
C234 H226 0.950 . S
C234 C232 1.391 . S
C234 C235 1.400 . S
C235 C234 1.400 . S
C235 C236 1.398 . S
C235 C241 1.491 . S
C236 H227 0.950 . S
C236 C235 1.398 . S
C236 C237 1.391 . S
C237 H225 0.950 . S
C237 C233 1.393 . S
C237 C236 1.391 . S
C238 H228 0.950 . S
C238 C239 1.386 . S
C238 C240 1.391 . S
C239 C238 1.386 . S
C239 C243 1.393 . S
C240 H229 0.950 . S
C240 C238 1.391 . S
C240 C241 1.400 . S
C241 C235 1.491 . S
C241 C240 1.400 . S
C241 C242 1.398 . S
C242 H230 0.950 . S
C242 C241 1.398 . S
C242 C243 1.391 . S
C243 H231 0.950 . S
C243 C239 1.393 . S
C243 C242 1.391 . S
H244 C252 0.950 . S
H245 C257 0.950 . S
H246 C254 0.950 . S
H247 C256 0.950 . S
H248 C258 0.950 . S
H249 C260 0.950 . S
H250 C262 0.950 . S
H251 C263 0.950 . S
C252 H244 0.950 . S
C252 C253 1.386 . S
C252 C254 1.391 . S
C253 C252 1.386 . S
C253 C257 1.393 . S
C254 H246 0.950 . S
C254 C252 1.391 . S
C254 C255 1.400 . S
C255 C254 1.400 . S
C255 C256 1.398 . S
C255 C261 1.491 . S
C256 H247 0.950 . S
C256 C255 1.398 . S
C256 C257 1.391 . S
C257 H245 0.950 . S
C257 C253 1.393 . S
C257 C256 1.391 . S
C258 H248 0.950 . S
C258 C259 1.386 . S
C258 C260 1.391 . S
C259 C258 1.386 . S
C259 C263 1.393 . S
C260 H249 0.950 . S
C260 C258 1.391 . S
C260 C261 1.400 . S
C261 C255 1.491 . S
C261 C260 1.400 . S
C261 C262 1.398 . S
C262 H250 0.950 . S
C262 C261 1.398 . S
C262 C263 1.391 . S
C263 H251 0.950 . S
C263 C259 1.393 . S
C263 C262 1.391 . S
H264 C272 0.950 . S
H265 C277 0.950 . S
H266 C274 0.950 . S
H267 C276 0.950 . S
H268 C278 0.950 . S
H269 C280 0.950 . S
H270 C282 0.950 . S
H271 C283 0.950 . S
C272 H264 0.950 . S
C272 C273 1.386 . S
C272 C274 1.391 . S
C273 C272 1.386 . S
C273 C277 1.393 . S
C274 H266 0.950 . S
C274 C272 1.391 . S
C274 C275 1.400 . S
C275 C274 1.400 . S
C275 C276 1.398 . S
C275 C281 1.491 . S
C276 H267 0.950 . S
C276 C275 1.398 . S
C276 C277 1.391 . S
C277 H265 0.950 . S
C277 C273 1.393 . S
C277 C276 1.391 . S
C278 H268 0.950 . S
C278 C279 1.386 . S
C278 C280 1.391 . S
C279 C278 1.386 . S
C279 C283 1.393 . S
C280 H269 0.950 . S
C280 C278 1.391 . S
C280 C281 1.400 . S
C281 C275 1.491 . S
C281 C280 1.400 . S
C281 C282 1.398 . S
C282 H270 0.950 . S
C282 C281 1.398 . S
C282 C283 1.391 . S
C283 H271 0.950 . S
C283 C279 1.393 . S
C283 C282 1.391 . S
H284 C292 0.950 . S
H285 C297 0.950 . S
H286 C294 0.950 . S
H287 C296 0.950 . S
H288 C298 0.950 . S
H289 C300 0.950 . S
H290 C302 0.950 . S
H291 C303 0.950 . S
C292 H284 0.950 . S
C292 C293 1.386 . S
C292 C294 1.391 . S
C293 C292 1.386 . S
C293 C297 1.393 . S
C294 H286 0.950 . S
C294 C292 1.391 . S
C294 C295 1.400 . S
C295 C294 1.400 . S
C295 C296 1.398 . S
C295 C301 1.491 . S
C296 H287 0.950 . S
C296 C295 1.398 . S
C296 C297 1.391 . S
C297 H285 0.950 . S
C297 C293 1.393 . S
C297 C296 1.391 . S
C298 H288 0.950 . S
C298 C299 1.386 . S
C298 C300 1.391 . S
C299 C298 1.386 . S
C299 C303 1.393 . S
C300 H289 0.950 . S
C300 C298 1.391 . S
C300 C301 1.400 . S
C301 C295 1.491 . S
C301 C300 1.400 . S
C301 C302 1.398 . S
C302 H290 0.950 . S
C302 C301 1.398 . S
C302 C303 1.391 . S
C303 H291 0.950 . S
C303 C299 1.393 . S
C303 C302 1.391 . S
H304 C312 0.950 . S
H305 C317 0.950 . S
H306 C314 0.950 . S
H307 C316 0.950 . S
H308 C318 0.950 . S
H309 C320 0.950 . S
H310 C322 0.950 . S
H311 C323 0.950 . S
C312 H304 0.950 . S
C312 C313 1.386 . S
C312 C314 1.391 . S
C313 C312 1.386 . S
C313 C317 1.393 . S
C314 H306 0.950 . S
C314 C312 1.391 . S
C314 C315 1.400 . S
C315 C314 1.400 . S
C315 C316 1.398 . S
C315 C321 1.491 . S
C316 H307 0.950 . S
C316 C315 1.398 . S
C316 C317 1.391 . S
C317 H305 0.950 . S
C317 C313 1.393 . S
C317 C316 1.391 . S
C318 H308 0.950 . S
C318 C319 1.386 . S
C318 C320 1.391 . S
C319 C318 1.386 . S
C319 C323 1.393 . S
C320 H309 0.950 . S
C320 C318 1.391 . S
C320 C321 1.400 . S
C321 C315 1.491 . S
C321 C320 1.400 . S
C321 C322 1.398 . S
C322 H310 0.950 . S
C322 C321 1.398 . S
C322 C323 1.391 . S
C323 H311 0.950 . S
C323 C319 1.393 . S
C323 C322 1.391 . S
H324 C332 0.950 . S
H325 C337 0.950 . S
H326 C334 0.950 . S
H327 C336 0.950 . S
H328 C338 0.950 . S
H329 C340 0.950 . S
H330 C342 0.950 . S
H331 C343 0.950 . S
C332 H324 0.950 . S
C332 C333 1.386 . S
C332 C334 1.391 . S
C333 C332 1.386 . S
C333 C337 1.393 . S
C334 H326 0.950 . S
C334 C332 1.391 . S
C334 C335 1.400 . S
C335 C334 1.400 . S
C335 C336 1.398 . S
C335 C341 1.491 . S
C336 H327 0.950 . S
C336 C335 1.398 . S
C336 C337 1.391 . S
C337 H325 0.950 . S
C337 C333 1.393 . S
C337 C336 1.391 . S
C338 H328 0.950 . S
C338 C339 1.386 . S
C338 C340 1.391 . S
C339 C338 1.386 . S
C339 C343 1.393 . S
C340 H329 0.950 . S
C340 C338 1.391 . S
C340 C341 1.400 . S
C341 C335 1.491 . S
C341 C340 1.400 . S
C341 C342 1.398 . S
C342 H330 0.950 . S
C342 C341 1.398 . S
C342 C343 1.391 . S
C343 H331 0.950 . S
C343 C339 1.393 . S
C343 C342 1.391 . S
H344 C352 0.950 . S
H345 C357 0.950 . S
H346 C354 0.950 . S
H347 C356 0.950 . S
H348 C358 0.950 . S
H349 C360 0.950 . S
H350 C362 0.950 . S
H351 C363 0.950 . S
C352 H344 0.950 . S
C352 C353 1.386 . S
C352 C354 1.391 . S
C353 C352 1.386 . S
C353 C357 1.393 . S
C354 H346 0.950 . S
C354 C352 1.391 . S
C354 C355 1.400 . S
C355 C354 1.400 . S
C355 C356 1.398 . S
C355 C361 1.491 . S
C356 H347 0.950 . S
C356 C355 1.398 . S
C356 C357 1.391 . S
C357 H345 0.950 . S
C357 C353 1.393 . S
C357 C356 1.391 . S
C358 H348 0.950 . S
C358 C359 1.386 . S
C358 C360 1.391 . S
C359 C358 1.386 . S
C359 C363 1.393 . S
C360 H349 0.950 . S
C360 C358 1.391 . S
C360 C361 1.400 . S
C361 C355 1.491 . S
C361 C360 1.400 . S
C361 C362 1.398 . S
C362 H350 0.950 . S
C362 C361 1.398 . S
C362 C363 1.391 . S
C363 H351 0.950 . S
C363 C359 1.393 . S
C363 C362 1.391 . S
H364 C372 0.950 . S
H365 C377 0.950 . S
H366 C374 0.950 . S
H367 C376 0.950 . S
H368 C378 0.950 . S
H369 C380 0.950 . S
H370 C382 0.950 . S
H371 C383 0.950 . S
C372 H364 0.950 . S
C372 C373 1.386 . S
C372 C374 1.391 . S
C373 C372 1.386 . S
C373 C377 1.393 . S
C374 H366 0.950 . S
C374 C372 1.391 . S
C374 C375 1.400 . S
C375 C374 1.400 . S
C375 C376 1.398 . S
C375 C381 1.491 . S
C376 H367 0.950 . S
C376 C375 1.398 . S
C376 C377 1.391 . S
C377 H365 0.950 . S
C377 C373 1.393 . S
C377 C376 1.391 . S
C378 H368 0.950 . S
C378 C379 1.386 . S
C378 C380 1.391 . S
C379 C378 1.386 . S
C379 C383 1.393 . S
C380 H369 0.950 . S
C380 C378 1.391 . S
C380 C381 1.400 . S
C381 C375 1.491 . S
C381 C380 1.400 . S
C381 C382 1.398 . S
C382 H370 0.950 . S
C382 C381 1.398 . S
C382 C383 1.391 . S
C383 H371 0.950 . S
C383 C379 1.393 . S
C383 C382 1.391 . S
H384 C392 0.950 . S
H385 C397 0.950 . S
H386 C394 0.950 . S
H387 C396 0.950 . S
H388 C398 0.950 . S
H389 C400 0.950 . S
H390 C402 0.950 . S
H391 C403 0.950 1_455 S
C392 H384 0.950 . S
C392 C393 1.386 . S
C392 C394 1.391 . S
C393 C392 1.386 . S
C393 C397 1.393 . S
C394 H386 0.950 . S
C394 C392 1.391 . S
C394 C395 1.400 . S
C395 C394 1.400 . S
C395 C396 1.398 . S
C395 C401 1.491 . S
C396 H387 0.950 . S
C396 C395 1.398 . S
C396 C397 1.391 . S
C397 H385 0.950 . S
C397 C393 1.393 . S
C397 C396 1.391 . S
C398 H388 0.950 . S
C398 C399 1.386 . S
C398 C400 1.391 . S
C399 C398 1.386 . S
C399 C403 1.393 . S
C400 H389 0.950 . S
C400 C398 1.391 . S
C400 C401 1.400 . S
C401 C395 1.491 . S
C401 C400 1.400 . S
C401 C402 1.398 . S
C402 H390 0.950 . S
C402 C401 1.398 . S
C402 C403 1.391 . S
C403 H391 0.950 1_655 S
C403 C399 1.393 . S
C403 C402 1.391 . S
H404 C412 0.950 1_545 S
H405 C417 0.950 . S
H406 C414 0.950 . S
H407 C416 0.950 . S
H408 C418 0.950 . S
H409 C420 0.950 . S
H410 C422 0.967 . S
H411 C423 0.950 . S
C412 H404 0.950 1_565 S
C412 C413 1.386 . S
C412 C414 1.391 . S
C413 C412 1.386 . S
C413 C417 1.393 . S
C414 H406 0.950 . S
C414 C412 1.391 . S
C414 C415 1.400 . S
C415 C414 1.400 . S
C415 C416 1.398 . S
C415 C421 1.491 . S
C416 H407 0.950 . S
C416 C415 1.398 . S
C416 C417 1.391 . S
C417 H405 0.950 . S
C417 C413 1.393 . S
C417 C416 1.391 . S
C418 H408 0.950 . S
C418 C419 1.386 . S
C418 C420 1.391 . S
C419 C418 1.386 . S
C419 C423 1.393 1_655 S
C420 H409 0.950 . S
C420 C418 1.391 . S
C420 C421 1.400 . S
C421 C415 1.491 . S
C421 C420 1.400 . S
C421 C422 1.398 . S
C422 H410 0.967 . S
C422 C421 1.398 . S
C422 C423 1.391 1_655 S
C423 H411 0.950 . S
C423 C419 1.393 1_455 S
C423 C422 1.391 1_455 S
H424 C432 0.966 . S
H425 C437 0.950 . S
H426 C434 0.950 . S
H427 C436 0.950 . S
H428 C438 0.950 . S
H429 C440 0.950 . S
H430 C442 0.950 . S
H431 C443 0.950 . S
C432 H424 0.966 . S
C432 C433 1.378 1_545 S
C432 C434 1.383 1_545 S
C433 C432 1.378 1_565 S
C433 C437 1.393 . S
C434 H426 0.950 . S
C434 C432 1.383 1_565 S
C434 C435 1.400 . S
C435 C434 1.400 . S
C435 C436 1.398 . S
C435 C441 1.491 . S
C436 H427 0.950 . S
C436 C435 1.398 . S
C436 C437 1.391 . S
C437 H425 0.950 . S
C437 C433 1.393 . S
C437 C436 1.391 . S
C438 H428 0.950 . S
C438 C439 1.386 . S
C438 C440 1.391 . S
C439 C438 1.386 . S
C439 C443 1.393 . S
C440 H429 0.950 . S
C440 C438 1.391 . S
C440 C441 1.400 . S
C441 C435 1.491 . S
C441 C440 1.400 . S
C441 C442 1.398 . S
C442 H430 0.950 . S
C442 C441 1.398 . S
C442 C443 1.391 . S
C443 H431 0.950 . S
C443 C439 1.393 . S
C443 C442 1.391 . S
H444 C452 0.950 . S
H445 C457 0.950 . S
H446 C454 0.950 . S
H447 C456 0.950 . S
H448 C458 0.950 . S
H449 C460 0.950 . S
H450 C462 0.950 . S
H451 C463 0.950 . S
C452 H444 0.950 . S
C452 C453 1.386 . S
C452 C454 1.391 . S
C453 C452 1.386 . S
C453 C457 1.393 . S
C454 H446 0.950 . S
C454 C452 1.391 . S
C454 C455 1.400 . S
C455 C454 1.400 . S
C455 C456 1.398 . S
C455 C461 1.491 . S
C456 H447 0.950 . S
C456 C455 1.398 . S
C456 C457 1.391 . S
C457 H445 0.950 . S
C457 C453 1.393 . S
C457 C456 1.391 . S
C458 H448 0.950 . S
C458 C459 1.386 . S
C458 C460 1.391 . S
C459 C458 1.386 . S
C459 C463 1.393 . S
C460 H449 0.950 . S
C460 C458 1.391 . S
C460 C461 1.400 . S
C461 C455 1.491 . S
C461 C460 1.400 . S
C461 C462 1.398 . S
C462 H450 0.950 . S
C462 C461 1.398 . S
C462 C463 1.391 . S
C463 H451 0.950 . S
C463 C459 1.393 . S
C463 C462 1.391 . S
H464 C472 0.950 . S
H465 C477 0.950 . S
H466 C474 0.950 . S
H467 C476 0.950 . S
H468 C478 0.950 . S
H469 C480 0.950 . S
H470 C482 0.950 . S
H471 C483 0.950 1_655 S
C472 H464 0.950 . S
C472 C473 1.386 . S
C472 C474 1.391 . S
C473 C472 1.386 . S
C473 C477 1.393 . S
C474 H466 0.950 . S
C474 C472 1.391 . S
C474 C475 1.400 . S
C475 C474 1.400 . S
C475 C476 1.398 . S
C475 C481 1.491 . S
C476 H467 0.950 . S
C476 C475 1.398 . S
C476 C477 1.391 . S
C477 H465 0.950 . S
C477 C473 1.393 . S
C477 C476 1.391 . S
C478 H468 0.950 . S
C478 C479 1.386 . S
C478 C480 1.391 . S
C479 C478 1.386 . S
C479 C483 1.393 . S
C480 H469 0.950 . S
C480 C478 1.391 . S
C480 C481 1.400 . S
C481 C475 1.491 . S
C481 C480 1.400 . S
C481 C482 1.398 . S
C482 H470 0.950 . S
C482 C481 1.398 . S
C482 C483 1.391 . S
C483 H471 0.950 1_455 S
C483 C479 1.393 . S
C483 C482 1.391 . S
H484 C492 0.950 . S
H485 C497 0.950 . S
H486 C494 0.950 . S
H487 C496 0.950 . S
H488 C498 0.950 . S
H489 C500 0.950 . S
H490 C502 0.950 . S
H491 C503 0.950 . S
C492 H484 0.950 . S
C492 C493 1.386 . S
C492 C494 1.391 . S
C493 C492 1.386 . S
C493 C497 1.393 . S
C494 H486 0.950 . S
C494 C492 1.391 . S
C494 C495 1.400 . S
C495 C494 1.400 . S
C495 C496 1.398 . S
C495 C501 1.491 . S
C496 H487 0.950 . S
C496 C495 1.398 . S
C496 C497 1.391 . S
C497 H485 0.950 . S
C497 C493 1.393 . S
C497 C496 1.391 . S
C498 H488 0.950 . S
C498 C499 1.386 . S
C498 C500 1.391 . S
C499 C498 1.386 . S
C499 C503 1.393 1_455 S
C500 H489 0.950 . S
C500 C498 1.391 . S
C500 C501 1.400 . S
C501 C495 1.491 . S
C501 C500 1.400 . S
C501 C502 1.398 . S
C502 H490 0.950 . S
C502 C501 1.398 . S
C502 C503 1.391 1_455 S
C503 H491 0.950 . S
C503 C499 1.393 1_655 S
C503 C502 1.391 1_655 S
H504 C512 0.950 . S
H505 C517 0.950 . S
H506 C514 0.950 . S
H507 C516 0.950 . S
H508 C518 0.950 . S
H509 C520 0.950 . S
H510 C522 0.950 1_565 S
H511 C523 0.950 . S
C512 H504 0.950 . S
C512 C513 1.386 . S
C512 C514 1.391 . S
C513 C512 1.386 . S
C513 C517 1.393 . S
C514 H506 0.950 . S
C514 C512 1.391 . S
C514 C515 1.400 . S
C515 C514 1.400 . S
C515 C516 1.398 . S
C515 C521 1.491 . S
C516 H507 0.950 . S
C516 C515 1.398 . S
C516 C517 1.391 . S
C517 H505 0.950 . S
C517 C513 1.393 . S
C517 C516 1.391 . S
C518 H508 0.950 . S
C518 C519 1.386 . S
C518 C520 1.391 . S
C519 C518 1.386 . S
C519 C523 1.393 1_545 S
C520 H509 0.950 . S
C520 C518 1.391 . S
C520 C521 1.400 . S
C521 C515 1.491 . S
C521 C520 1.400 . S
C521 C522 1.398 . S
C522 H510 0.950 1_545 S
C522 C521 1.398 . S
C522 C523 1.391 1_545 S
C523 H511 0.950 . S
C523 C519 1.393 1_565 S
C523 C522 1.391 1_565 S
H524 C532 0.950 . S
H525 C537 0.950 . S
H526 C534 0.950 . S
H527 C536 0.950 . S
H528 C538 0.950 . S
H529 C540 0.950 . S
H530 C542 0.950 . S
H531 C543 0.950 . S
C532 H524 0.950 . S
C532 C533 1.386 . S
C532 C534 1.391 . S
C533 C532 1.386 . S
C533 C537 1.393 . S
C534 H526 0.950 . S
C534 C532 1.391 . S
C534 C535 1.400 . S
C535 C534 1.400 . S
C535 C536 1.398 . S
C535 C541 1.491 . S
C536 H527 0.950 . S
C536 C535 1.398 . S
C536 C537 1.391 . S
C537 H525 0.950 . S
C537 C533 1.393 . S
C537 C536 1.391 . S
C538 H528 0.950 . S
C538 C539 1.386 . S
C538 C540 1.391 . S
C539 C538 1.386 . S
C539 C543 1.393 . S
C540 H529 0.950 . S
C540 C538 1.391 . S
C540 C541 1.400 . S
C541 C535 1.491 . S
C541 C540 1.400 . S
C541 C542 1.398 . S
C542 H530 0.950 . S
C542 C541 1.398 . S
C542 C543 1.391 . S
C543 H531 0.950 . S
C543 C539 1.393 . S
C543 C542 1.391 . S
H544 C552 0.950 . S
H545 C557 0.950 . S
H546 C554 0.950 . S
H547 C556 0.950 . S
H548 C558 0.950 . S
H549 C560 0.950 . S
H550 C562 0.950 . S
H551 C563 0.950 . S
C552 H544 0.950 . S
C552 C553 1.386 1_655 S
C552 C554 1.391 . S
C553 C552 1.386 1_455 S
C553 C557 1.393 . S
C554 H546 0.950 . S
C554 C552 1.391 . S
C554 C555 1.400 1_655 S
C555 C554 1.400 1_455 S
C555 C556 1.398 . S
C555 C561 1.491 . S
C556 H547 0.950 . S
C556 C555 1.398 . S
C556 C557 1.391 . S
C557 H545 0.950 . S
C557 C553 1.393 . S
C557 C556 1.391 . S
C558 H548 0.950 . S
C558 C559 1.386 . S
C558 C560 1.391 . S
C559 C558 1.386 . S
C559 C563 1.393 1_455 S
C560 H549 0.950 . S
C560 C558 1.391 . S
C560 C561 1.400 . S
C561 C555 1.491 . S
C561 C560 1.400 . S
C561 C562 1.398 1_455 S
C562 H550 0.950 . S
C562 C561 1.398 1_655 S
C562 C563 1.391 . S
C563 H551 0.950 . S
C563 C559 1.393 1_655 S
C563 C562 1.391 . S
H564 C572 0.950 . S
H565 C577 0.950 . S
H566 C574 0.950 . S
H567 C576 0.950 . S
H568 C578 0.950 . S
H569 C580 0.950 . S
H570 C582 0.950 . S
H571 C583 0.950 . S
C572 H564 0.950 . S
C572 C573 1.386 1_565 S
C572 C574 1.391 . S
C573 C572 1.386 1_545 S
C573 C577 1.393 . S
C574 H566 0.950 . S
C574 C572 1.391 . S
C574 C575 1.400 1_565 S
C575 C574 1.400 1_545 S
C575 C576 1.398 . S
C575 C581 1.491 . S
C576 H567 0.950 . S
C576 C575 1.398 . S
C576 C577 1.391 . S
C577 H565 0.950 . S
C577 C573 1.393 . S
C577 C576 1.391 . S
C578 H568 0.950 . S
C578 C579 1.386 . S
C578 C580 1.391 . S
C579 C578 1.386 . S
C579 C583 1.393 1_545 S
C580 H569 0.950 . S
C580 C578 1.391 . S
C580 C581 1.400 . S
C581 C575 1.491 . S
C581 C580 1.400 . S
C581 C582 1.398 1_545 S
C582 H570 0.950 . S
C582 C581 1.398 1_565 S
C582 C583 1.391 . S
C583 H571 0.950 . S
C583 C579 1.393 1_565 S
C583 C582 1.391 . S
H584 C592 0.950 . S
H585 C597 0.950 . S
H586 C594 0.950 . S
H587 C596 0.950 . S
H588 C598 0.950 . S
H589 C600 0.950 . S
H590 C602 0.950 . S
H591 C603 0.950 . S
C592 H584 0.950 . S
C592 C593 1.386 . S
C592 C594 1.391 . S
C593 C592 1.386 . S
C593 C597 1.393 . S
C594 H586 0.950 . S
C594 C592 1.391 . S
C594 C595 1.400 . S
C595 C594 1.400 . S
C595 C596 1.398 . S
C595 C601 1.491 . S
C596 H587 0.950 . S
C596 C595 1.398 . S
C596 C597 1.391 . S
C597 H585 0.950 . S
C597 C593 1.393 . S
C597 C596 1.391 . S
C598 H588 0.950 . S
C598 C599 1.386 . S
C598 C600 1.391 . S
C599 C598 1.386 . S
C599 C603 1.393 . S
C600 H589 0.950 . S
C600 C598 1.391 . S
C600 C601 1.400 . S
C601 C595 1.491 . S
C601 C600 1.400 . S
C601 C602 1.398 . S
C602 H590 0.950 . S
C602 C601 1.398 . S
C602 C603 1.391 . S
C603 H591 0.950 . S
C603 C599 1.393 . S
C603 C602 1.391 . S
H604 C612 0.950 . S
H605 C617 0.950 . S
H606 C614 0.950 . S
H607 C616 0.950 . S
H608 C618 0.950 . S
H609 C620 0.950 . S
H610 C622 0.950 . S
H611 C623 0.950 . S
C612 H604 0.950 . S
C612 C613 1.386 . S
C612 C614 1.391 . S
C613 C612 1.386 . S
C613 C617 1.393 . S
C614 H606 0.950 . S
C614 C612 1.391 . S
C614 C615 1.400 . S
C615 C614 1.400 . S
C615 C616 1.398 . S
C615 C621 1.491 . S
C616 H607 0.950 . S
C616 C615 1.398 . S
C616 C617 1.391 . S
C617 H605 0.950 . S
C617 C613 1.393 . S
C617 C616 1.391 . S
C618 H608 0.950 . S
C618 C619 1.386 . S
C618 C620 1.391 . S
C619 C618 1.386 . S
C619 C623 1.393 . S
C620 H609 0.950 . S
C620 C618 1.391 . S
C620 C621 1.400 . S
C621 C615 1.491 . S
C621 C620 1.400 . S
C621 C622 1.398 . S
C622 H610 0.950 . S
C622 C621 1.398 . S
C622 C623 1.391 . S
C623 H611 0.950 . S
C623 C619 1.393 . S
C623 C622 1.391 . S
H624 C632 0.950 . S
H625 C637 0.950 . S
H626 C634 0.950 . S
H627 C636 0.950 . S
H628 C638 0.950 . S
H629 C640 0.950 . S
H630 C642 0.950 . S
H631 C643 0.950 . S
C632 H624 0.950 . S
C632 C633 1.386 . S
C632 C634 1.391 . S
C633 C632 1.386 . S
C633 C637 1.393 1_655 S
C634 H626 0.950 . S
C634 C632 1.391 . S
C634 C635 1.400 . S
C635 C634 1.400 . S
C635 C636 1.398 1_655 S
C635 C641 1.491 . S
C636 H627 0.950 . S
C636 C635 1.398 1_455 S
C636 C637 1.391 . S
C637 H625 0.950 . S
C637 C633 1.393 1_455 S
C637 C636 1.391 . S
C638 H628 0.950 . S
C638 C639 1.386 1_455 S
C638 C640 1.391 . S
C639 C638 1.386 1_655 S
C639 C643 1.393 . S
C640 H629 0.950 . S
C640 C638 1.391 . S
C640 C641 1.400 1_455 S
C641 C635 1.491 . S
C641 C640 1.400 1_655 S
C641 C642 1.398 . S
C642 H630 0.950 . S
C642 C641 1.398 . S
C642 C643 1.391 . S
C643 H631 0.950 . S
C643 C639 1.393 . S
C643 C642 1.391 . S
H644 C652 0.950 . S
H645 C657 0.966 . S
H646 C654 0.950 . S
H647 C656 0.959 . S
H648 C658 0.950 . S
H649 C660 0.950 . S
H650 C662 0.950 . S
H651 C663 0.950 . S
C652 H644 0.950 . S
C652 C653 1.386 . S
C652 C654 1.391 . S
C653 C652 1.386 . S
C653 C657 1.378 1_565 S
C654 H646 0.950 . S
C654 C652 1.391 . S
C654 C655 1.400 . S
C655 C654 1.400 . S
C655 C656 1.390 1_565 S
C655 C661 1.491 . S
C656 H647 0.959 . S
C656 C655 1.390 1_545 S
C656 C657 1.391 . S
C657 H645 0.966 . S
C657 C653 1.378 1_545 S
C657 C656 1.391 . S
C658 H648 0.950 . S
C658 C659 1.386 1_545 S
C658 C660 1.391 . S
C659 C658 1.386 1_565 S
C659 C663 1.393 . S
C660 H649 0.950 . S
C660 C658 1.391 . S
C660 C661 1.400 1_545 S
C661 C655 1.491 . S
C661 C660 1.400 1_565 S
C661 C662 1.398 . S
C662 H650 0.950 . S
C662 C661 1.398 . S
C662 C663 1.391 . S
C663 H651 0.950 . S
C663 C659 1.393 . S
C663 C662 1.391 . S
H664 C672 0.950 . S
H665 C677 0.950 . S
H666 C674 0.950 . S
H667 C676 0.950 . S
H668 C678 0.950 . S
H669 C680 0.950 . S
H670 C682 0.950 . S
H671 C683 0.950 . S
C672 H664 0.950 . S
C672 C673 1.386 . S
C672 C674 1.391 . S
C673 C672 1.386 . S
C673 C677 1.393 . S
C674 H666 0.950 . S
C674 C672 1.391 . S
C674 C675 1.400 . S
C675 C674 1.400 . S
C675 C676 1.398 . S
C675 C681 1.491 . S
C676 H667 0.950 . S
C676 C675 1.398 . S
C676 C677 1.391 . S
C677 H665 0.950 . S
C677 C673 1.393 . S
C677 C676 1.391 . S
C678 H668 0.950 . S
C678 C679 1.386 . S
C678 C680 1.391 . S
C679 C678 1.386 . S
C679 C683 1.393 . S
C680 H669 0.950 . S
C680 C678 1.391 . S
C680 C681 1.400 . S
C681 C675 1.491 . S
C681 C680 1.400 . S
C681 C682 1.398 . S
C682 H670 0.950 . S
C682 C681 1.398 . S
C682 C683 1.391 . S
C683 H671 0.950 . S
C683 C679 1.393 . S
C683 C682 1.391 . S
H684 C692 0.950 . S
H685 C697 0.950 . S
H686 C694 0.950 . S
H687 C696 0.950 . S
H688 C698 0.950 . S
H689 C700 0.950 . S
H690 C702 0.950 . S
H691 C703 0.950 . S
C692 H684 0.950 . S
C692 C693 1.386 . S
C692 C694 1.391 . S
C693 C692 1.386 . S
C693 C697 1.393 . S
C694 H686 0.950 . S
C694 C692 1.391 . S
C694 C695 1.400 . S
C695 C694 1.400 . S
C695 C696 1.398 . S
C695 C701 1.491 . S
C696 H687 0.950 . S
C696 C695 1.398 . S
C696 C697 1.391 . S
C697 H685 0.950 . S
C697 C693 1.393 . S
C697 C696 1.391 . S
C698 H688 0.950 . S
C698 C699 1.386 . S
C698 C700 1.391 . S
C699 C698 1.386 . S
C699 C703 1.393 . S
C700 H689 0.950 . S
C700 C698 1.391 . S
C700 C701 1.400 . S
C701 C695 1.491 . S
C701 C700 1.400 . S
C701 C702 1.398 . S
C702 H690 0.950 . S
C702 C701 1.398 . S
C702 C703 1.391 . S
C703 H691 0.950 . S
C703 C699 1.393 . S
C703 C702 1.391 . S
H704 C712 0.950 . S
H705 C717 0.950 . S
H706 C714 0.950 . S
H707 C716 0.950 . S
H708 C718 0.950 . S
H709 C720 0.950 . S
H710 C722 0.950 . S
H711 C723 0.950 . S
C712 H704 0.950 . S
C712 C713 1.408 . S
C712 C714 1.391 . S
C713 C712 1.408 . S
C713 C717 1.370 1_455 S
C714 H706 0.950 . S
C714 C712 1.391 . S
C714 C715 1.399 . S
C715 C714 1.399 . S
C715 C716 1.399 1_455 S
C715 C721 1.491 1_454 S
C716 H707 0.950 . S
C716 C715 1.399 1_655 S
C716 C717 1.391 . S
C717 H705 0.950 . S
C717 C713 1.370 1_655 S
C717 C716 1.391 . S
C718 H708 0.950 . S
C718 C719 1.408 . S
C718 C720 1.391 . S
C719 C718 1.408 . S
C719 C723 1.370 1_655 S
C720 H709 0.950 . S
C720 C718 1.391 . S
C720 C721 1.399 . S
C721 C715 1.491 1_656 S
C721 C720 1.399 . S
C721 C722 1.399 1_655 S
C722 H710 0.950 . S
C722 C721 1.399 1_455 S
C722 C723 1.391 . S
C723 H711 0.950 . S
C723 C719 1.370 1_455 S
C723 C722 1.391 . S
H724 C732 0.934 1_554 S
H725 C737 0.950 . S
H726 C734 0.950 . S
H727 C736 0.950 1_655 S
H728 C738 0.934 1_556 S
H729 C740 0.950 . S
H730 C742 0.950 1_455 S
H731 C743 0.950 . S
C732 H724 0.934 1_556 S
C732 C733 1.385 . S
C732 C734 1.391 1_556 S
C733 C732 1.385 . S
C733 C737 1.393 1_545 S
C734 H726 0.950 . S
C734 C732 1.391 1_554 S
C734 C735 1.402 1_554 S
C735 C734 1.402 1_556 S
C735 C736 1.397 1_545 S
C735 C741 1.490 1_446 S
C736 H727 0.950 1_455 S
C736 C735 1.397 1_565 S
C736 C737 1.391 . S
C737 H725 0.950 . S
C737 C733 1.393 1_565 S
C737 C736 1.391 . S
C738 H728 0.934 1_554 S
C738 C739 1.385 . S
C738 C740 1.391 1_554 S
C739 C738 1.385 . S
C739 C743 1.393 1_565 S
C740 H729 0.950 . S
C740 C738 1.391 1_556 S
C740 C741 1.402 1_556 S
C741 C735 1.490 1_664 S
C741 C740 1.402 1_554 S
C741 C742 1.397 1_565 S
C742 H730 0.950 1_655 S
C742 C741 1.397 1_545 S
C742 C743 1.391 . S
C743 H731 0.950 . S
C743 C739 1.393 1_545 S
C743 C742 1.391 . S
H744 C752 0.950 . S
H745 C757 0.950 1_556 S
H746 C754 0.950 1_545 S
H747 C756 0.950 . S
H748 C758 0.950 . S
H749 C760 0.950 1_565 S
H750 C762 0.950 . S
H751 C763 0.950 1_554 S
C752 H744 0.950 . S
C752 C753 1.386 . S
C752 C754 1.391 . S
C753 C752 1.386 . S
C753 C757 1.393 . S
C754 H746 0.950 1_565 S
C754 C752 1.391 . S
C754 C755 1.400 . S
C755 C754 1.400 . S
C755 C756 1.398 1_554 S
C755 C761 1.491 1_564 S
C756 H747 0.950 . S
C756 C755 1.398 1_556 S
C756 C757 1.391 1_556 S
C757 H745 0.950 1_554 S
C757 C753 1.393 . S
C757 C756 1.391 1_554 S
C758 H748 0.950 . S
C758 C759 1.386 . S
C758 C760 1.391 . S
C759 C758 1.386 . S
C759 C763 1.393 . S
C760 H749 0.950 1_545 S
C760 C758 1.391 . S
C760 C761 1.400 . S
C761 C755 1.491 1_546 S
C761 C760 1.400 . S
C761 C762 1.398 1_556 S
C762 H750 0.950 . S
C762 C761 1.398 1_554 S
C762 C763 1.391 1_554 S
C763 H751 0.950 1_556 S
C763 C759 1.393 . S
C763 C762 1.391 1_556 S
H764 C772 0.950 . S
H765 C777 0.950 . S
H766 C774 0.950 . S
H767 C776 0.950 1_554 S
H768 C778 0.950 . S
H769 C780 0.950 . S
H770 C782 0.950 1_556 S
H771 C783 0.950 . S
C772 H764 0.950 . S
C772 C773 1.386 . S
C772 C774 1.391 . S
C773 C772 1.386 . S
C773 C777 1.393 . S
C774 H766 0.950 . S
C774 C772 1.391 . S
C774 C775 1.400 . S
C775 C774 1.400 . S
C775 C776 1.398 . S
C775 C781 1.491 1_556 S
C776 H767 0.950 1_556 S
C776 C775 1.398 . S
C776 C777 1.391 . S
C777 H765 0.950 . S
C777 C773 1.393 . S
C777 C776 1.391 . S
C778 H768 0.950 . S
C778 C779 1.386 . S
C778 C780 1.391 . S
C779 C778 1.386 . S
C779 C783 1.393 . S
C780 H769 0.950 . S
C780 C778 1.391 . S
C780 C781 1.400 . S
C781 C775 1.491 1_554 S
C781 C780 1.400 . S
C781 C782 1.398 . S
C782 H770 0.950 1_554 S
C782 C781 1.398 . S
C782 C783 1.391 . S
C783 H771 0.950 . S
C783 C779 1.393 . S
C783 C782 1.391 . S
H784 C792 0.950 . S
H785 C797 0.950 . S
H786 C794 0.950 . S
H787 C796 0.951 1_545 S
H788 C798 0.950 . S
H789 C800 0.950 . S
H790 C802 0.951 1_565 S
H791 C803 0.950 . S
C792 H784 0.950 . S
C792 C793 1.386 . S
C792 C794 1.391 . S
C793 C792 1.386 . S
C793 C797 1.393 1_455 S
C794 H786 0.950 . S
C794 C792 1.391 . S
C794 C795 1.413 . S
C795 C794 1.413 . S
C795 C796 1.387 1_455 S
C795 C801 1.489 1_465 S
C796 H787 0.951 1_565 S
C796 C795 1.387 1_655 S
C796 C797 1.391 . S
C797 H785 0.950 . S
C797 C793 1.393 1_655 S
C797 C796 1.391 . S
C798 H788 0.950 . S
C798 C799 1.386 . S
C798 C800 1.391 . S
C799 C798 1.386 . S
C799 C803 1.393 1_655 S
C800 H789 0.950 . S
C800 C798 1.391 . S
C800 C801 1.413 . S
C801 C795 1.489 1_645 S
C801 C800 1.413 . S
C801 C802 1.387 1_655 S
C802 H790 0.951 1_545 S
C802 C801 1.387 1_455 S
C802 C803 1.391 . S
C803 H791 0.950 . S
C803 C799 1.393 1_455 S
C803 C802 1.391 . S
H804 C812 0.950 . S
H805 C817 0.950 . S
H806 C814 0.950 . S
H807 C816 0.950 . S
H808 C818 0.950 . S
H809 C820 0.950 . S
H810 C822 0.950 . S
H811 C823 0.950 . S
C812 H804 0.950 . S
C812 C813 1.386 . S
C812 C814 1.391 . S
C813 C812 1.386 . S
C813 C817 1.393 1_545 S
C814 H806 0.950 . S
C814 C812 1.391 . S
C814 C815 1.414 . S
C815 C814 1.414 . S
C815 C816 1.386 1_545 S
C815 C821 1.490 1_545 S
C816 H807 0.950 . S
C816 C815 1.386 1_565 S
C816 C817 1.391 . S
C817 H805 0.950 . S
C817 C813 1.393 1_565 S
C817 C816 1.391 . S
C818 H808 0.950 . S
C818 C819 1.386 . S
C818 C820 1.391 . S
C819 C818 1.386 . S
C819 C823 1.393 1_565 S
C820 H809 0.950 . S
C820 C818 1.391 . S
C820 C821 1.414 . S
C821 C815 1.490 1_565 S
C821 C820 1.414 . S
C821 C822 1.386 1_565 S
C822 H810 0.950 . S
C822 C821 1.386 1_545 S
C822 C823 1.391 . S
C823 H811 0.950 . S
C823 C819 1.393 1_545 S
C823 C822 1.391 . S
H824 C832 0.950 . S
H825 C837 0.950 . S
H826 C834 0.950 . S
H827 C836 0.950 . S
H828 C838 0.950 . S
H829 C840 0.950 . S
H830 C842 0.950 . S
H831 C843 0.950 . S
C832 H824 0.950 . S
C832 C833 1.386 . S
C832 C834 1.391 . S
C833 C832 1.386 . S
C833 C837 1.393 . S
C834 H826 0.950 . S
C834 C832 1.391 . S
C834 C835 1.400 . S
C835 C834 1.400 . S
C835 C836 1.398 . S
C835 C841 1.491 . S
C836 H827 0.950 . S
C836 C835 1.398 . S
C836 C837 1.391 . S
C837 H825 0.950 . S
C837 C833 1.393 . S
C837 C836 1.391 . S
C838 H828 0.950 . S
C838 C839 1.386 . S
C838 C840 1.391 . S
C839 C838 1.386 . S
C839 C843 1.393 . S
C840 H829 0.950 . S
C840 C838 1.391 . S
C840 C841 1.400 . S
C841 C835 1.491 . S
C841 C840 1.400 . S
C841 C842 1.398 . S
C842 H830 0.950 . S
C842 C841 1.398 . S
C842 C843 1.391 . S
C843 H831 0.950 . S
C843 C839 1.393 . S
C843 C842 1.391 . S
H844 C852 0.950 . S
H845 C857 0.950 . S
H846 C854 0.950 . S
H847 C856 0.950 . S
H848 C858 0.950 . S
H849 C860 0.950 . S
H850 C862 0.950 . S
H851 C863 0.950 . S
C852 H844 0.950 . S
C852 C853 1.386 . S
C852 C854 1.391 . S
C853 C852 1.386 . S
C853 C857 1.393 . S
C854 H846 0.950 . S
C854 C852 1.391 . S
C854 C855 1.400 . S
C855 C854 1.400 . S
C855 C856 1.398 . S
C855 C861 1.491 1_655 S
C856 H847 0.950 . S
C856 C855 1.398 . S
C856 C857 1.391 . S
C857 H845 0.950 . S
C857 C853 1.393 . S
C857 C856 1.391 . S
C858 H848 0.950 . S
C858 C859 1.386 . S
C858 C860 1.391 . S
C859 C858 1.386 . S
C859 C863 1.393 . S
C860 H849 0.950 . S
C860 C858 1.391 . S
C860 C861 1.400 . S
C861 C855 1.491 1_455 S
C861 C860 1.400 . S
C861 C862 1.398 . S
C862 H850 0.950 . S
C862 C861 1.398 . S
C862 C863 1.391 . S
C863 H851 0.950 . S
C863 C859 1.393 . S
C863 C862 1.391 . S
C233 C7 1.572 . S
C239 C35 1.558 . S
C253 C21 1.575 . S
C259 C49 1.554 . S
C273 C63 1.573 . S
C279 C91 1.556 . S
C293 C105 1.554 . S
C299 C77 1.575 . S
C313 C119 1.562 . S
C319 C147 1.568 . S
C333 C161 1.573 . S
C339 C133 1.556 . S
C353 C203 1.555 . S
C359 C175 1.574 . S
C373 C217 1.570 . S
C379 C189 1.560 . S
C393 C106 1.587 . S
C399 C8 1.593 . S
C413 C22 1.591 . S
C419 C64 1.590 . S
C433 C78 1.582 . S
C439 C36 1.593 . S
C453 C50 1.579 . S
C459 C92 1.591 . S
C473 C218 1.580 . S
C479 C120 1.594 . S
C493 C134 1.581 . S
C499 C176 1.593 . S
C513 C148 1.579 . S
C519 C190 1.591 . S
C533 C204 1.591 . S
C539 C162 1.579 . S
C553 C9 0.823 . S
C559 C65 0.816 . S
C573 C23 0.812 . S
C579 C79 0.829 . S
C593 C93 0.839 . S
C599 C37 0.810 . S
C613 C51 0.810 . S
C619 C107 0.835 . S
C633 C177 0.815 . S
C639 C121 0.825 . S
C653 C191 0.810 . S
C659 C135 0.849 . S
C673 C149 0.859 . S
C679 C205 0.885 . S
C693 C163 0.881 . S
C699 C219 0.836 . S
C713 C6 1.784 . S
C719 C118 1.784 . S
C733 C132 1.789 1_545 S
C739 C20 1.789 1_565 S
C753 C34 1.793 . S
C759 C146 1.793 . S
C773 C160 1.799 . S
C779 C48 1.799 . S
C793 C62 1.787 . S
C799 C174 1.787 . S
C813 C76 1.786 . S
C819 C188 1.786 . S
C833 C202 1.788 . S
C839 C90 1.788 . S
C853 C104 1.784 . S
C859 C216 1.784 . S
