# Generated by pormake.
# Topology rac, (4)-cn, num edge types: 1
# Building blocks:
#     Node 0, Type 0, BuildingBlock: QUQFOY_clean_sbu_3, # of connection points: 4
#     Node 1, Type 0, BuildingBlock: QUQFOY_clean_sbu_3, # of connection points: 4
#     Node 2, Type 0, BuildingBlock: QUQFOY_clean_sbu_3, # of connection points: 4
#     Node 3, Type 0, BuildingBlock: QUQFOY_clean_sbu_3, # of connection points: 4
#     Node 4, Type 0, BuildingBlock: QUQFOY_clean_sbu_3, # of connection points: 4
#     Node 5, Type 0, BuildingBlock: QUQFOY_clean_sbu_3, # of connection points: 4
#     Node 6, Type 0, BuildingBlock: QUQFOY_clean_sbu_3, # of connection points: 4
#     Node 7, Type 0, BuildingBlock: QUQFOY_clean_sbu_3, # of connection points: 4
#     Edge 8, Type (0, 0), BuildingBlock: XUDNAN_clean_linker_2, # of connection points: 2
#     Edge 9, Type (0, 0), BuildingBlock: XUDNAN_clean_linker_2, # of connection points: 2
#     Edge 10, Type (0, 0), BuildingBlock: XUDNAN_clean_linker_2, # of connection points: 2
#     Edge 11, Type (0, 0), BuildingBlock: XUDNAN_clean_linker_2, # of connection points: 2
#     Edge 12, Type (0, 0), BuildingBlock: XUDNAN_clean_linker_2, # of connection points: 2
#     Edge 13, Type (0, 0), BuildingBlock: XUDNAN_clean_linker_2, # of connection points: 2
#     Edge 14, Type (0, 0), BuildingBlock: XUDNAN_clean_linker_2, # of connection points: 2
#     Edge 15, Type (0, 0), BuildingBlock: XUDNAN_clean_linker_2, # of connection points: 2
#     Edge 16, Type (0, 0), BuildingBlock: XUDNAN_clean_linker_2, # of connection points: 2
#     Edge 17, Type (0, 0), BuildingBlock: XUDNAN_clean_linker_2, # of connection points: 2
#     Edge 18, Type (0, 0), BuildingBlock: XUDNAN_clean_linker_2, # of connection points: 2
#     Edge 19, Type (0, 0), BuildingBlock: XUDNAN_clean_linker_2, # of connection points: 2
#     Edge 20, Type (0, 0), BuildingBlock: XUDNAN_clean_linker_2, # of connection points: 2
#     Edge 21, Type (0, 0), BuildingBlock: XUDNAN_clean_linker_2, # of connection points: 2
#     Edge 22, Type (0, 0), BuildingBlock: XUDNAN_clean_linker_2, # of connection points: 2
#     Edge 23, Type (0, 0), BuildingBlock: XUDNAN_clean_linker_2, # of connection points: 2
# Relax obj value: 0.232
# Max RMSD: 0.072
# Mean RMSD: 0.072
data_MOF--net-rac--node1-QUQFOY_clean_sbu_3--edge1-XUDNAN_clean_linker_2
_symmetry_space_group_name_H-M    P1
_symmetry_Int_Tables_number       1
_symmetry_cell_setting            triclinic
loop_
_symmetry_equiv_pos_as_xyz
'x, y, z'
_cell_length_a     43.178998
_cell_length_b     21.713641
_cell_length_c     37.790632
_cell_angle_alpha  89.868283
_cell_angle_beta   89.970621
_cell_angle_gamma 89.531135
loop_
_atom_site_label
_atom_site_type_symbol
_atom_site_fract_x
_atom_site_fract_y
_atom_site_fract_z
_atom_type_partial_charge
C0 C 0.36714 0.24438 0.12101 0.0
O1 O 0.33942 0.26441 0.12089 0.0
Cd2 Cd 0.30767 0.27958 0.07025 0.0
O3 O 0.38181 0.23447 0.09223 0.0
Cd4 Cd 0.37242 0.25196 0.02718 0.0
C5 C 0.32116 0.13904 0.02659 0.0
O6 O 0.33909 0.33959 0.03429 0.0
O7 O 0.33721 0.29838 0.98271 0.0
O8 O 0.42123 0.30425 0.03463 0.0
C9 C 0.32887 0.3418 0.00299 0.0
O10 O 0.3048 0.17901 0.04284 0.0
C11 C 0.42841 0.30378 0.00214 0.0
O12 O 0.34953 0.14892 0.01902 0.0
O13 O 0.41194 0.27073 0.98189 0.0
C14 C 0.11853 0.70422 0.12236 0.0
O15 O 0.14635 0.68488 0.12193 0.0
Cd16 Cd 0.17848 0.6753 0.07165 0.0
O17 O 0.10407 0.71841 0.09396 0.0
Cd18 Cd 0.11177 0.71749 0.02782 0.0
C19 C 0.16657 0.82428 0.03547 0.0
O20 O 0.14394 0.62961 0.03319 0.0
O21 O 0.14241 0.66515 0.98021 0.0
O22 O 0.06233 0.66956 0.03751 0.0
C23 C 0.15278 0.62489 0.00152 0.0
O24 O 0.18033 0.77938 0.05059 0.0
C25 C 0.05311 0.67401 0.00579 0.0
O26 O 0.13875 0.81944 0.02419 0.0
O27 O 0.06902 0.70794 0.98524 0.0
C28 C 0.37591 0.2495 0.36614 0.0
O29 O 0.34686 0.25124 0.36089 0.0
Cd30 Cd 0.30691 0.23147 0.40085 0.0
O31 O 0.38759 0.24001 0.39685 0.0
Cd32 Cd 0.37275 0.2229 0.46131 0.0
C33 C 0.32627 0.33114 0.47249 0.0
O34 O 0.33332 0.15804 0.43492 0.0
O35 O 0.33486 0.15544 0.49162 0.0
O36 O 0.42371 0.17273 0.45714 0.0
C37 C 0.32174 0.1384 0.46343 0.0
O38 O 0.3195 0.29606 0.4473 0.0
C39 C 0.42395 0.15442 0.48901 0.0
O40 O 0.35283 0.3248 0.48669 0.0
O41 O 0.40266 0.17513 0.50892 0.0
C42 C 0.11851 0.72474 0.3679 0.0
O43 O 0.14627 0.7432 0.36635 0.0
Cd44 Cd 0.17607 0.77472 0.41527 0.0
O45 O 0.10398 0.72157 0.39724 0.0
Cd46 Cd 0.11535 0.75077 0.46006 0.0
C47 C 0.17247 0.64799 0.47114 0.0
O48 O 0.14019 0.84229 0.4417 0.0
O49 O 0.14952 0.81931 0.49593 0.0
O50 O 0.06322 0.79085 0.45414 0.0
C51 C 0.15051 0.8589 0.4713 0.0
O52 O 0.18774 0.68598 0.45245 0.0
C53 C 0.05794 0.79484 0.48703 0.0
O54 O 0.14347 0.65545 0.47633 0.0
O55 O 0.07738 0.76856 0.50749 0.0
C56 C 0.6256 0.70675 0.86633 0.0
O57 O 0.65427 0.69331 0.86685 0.0
Cd58 Cd 0.68444 0.68071 0.91935 0.0
O59 O 0.61015 0.71422 0.89479 0.0
Cd60 Cd 0.61516 0.71121 0.9608 0.0
C61 C 0.66816 0.82439 0.95859 0.0
O62 O 0.65027 0.62706 0.95568 0.0
O63 O 0.64188 0.65505 0.00944 0.0
O64 O 0.56506 0.6735 0.94377 0.0
C65 C 0.65606 0.61973 0.98819 0.0
O66 O 0.68467 0.78339 0.94345 0.0
C67 C 0.55409 0.66993 0.97474 0.0
O68 O 0.63986 0.81456 0.96686 0.0
O69 O 0.57031 0.69187 -0.00029 0.0
C70 C 0.86194 0.25623 0.868 0.0
O71 O 0.83714 0.28795 0.86945 0.0
Cd72 Cd 0.80784 0.29854 0.92225 0.0
O73 O 0.87527 0.23687 0.89607 0.0
Cd74 Cd 0.87278 0.2543 0.96184 0.0
C75 C 0.81951 0.14754 0.95709 0.0
O76 O 0.84208 0.34588 0.96067 0.0
O77 O 0.84156 0.29872 0.01078 0.0
O78 O 0.91904 0.29938 0.94014 0.0
C79 C 0.83303 0.34484 0.99247 0.0
O80 O 0.80529 0.19249 0.94244 0.0
C81 C 0.93337 0.30234 0.96928 0.0
O82 O 0.84753 0.15251 0.96758 0.0
O83 O 0.921 0.27572 -0.00417 0.0
C84 C 0.62212 0.74398 0.61887 0.0
O85 O 0.64984 0.76301 0.6191 0.0
Cd86 Cd 0.67843 0.78701 0.56807 0.0
O87 O 0.60734 0.73636 0.58991 0.0
Cd88 Cd 0.61526 0.75366 0.52399 0.0
C89 C 0.67221 0.64941 0.52005 0.0
O90 O 0.63891 0.84464 0.54128 0.0
O91 O 0.64732 0.82616 0.48653 0.0
O92 O 0.55999 0.76716 0.5328 0.0
C93 C 0.64919 0.86355 0.51213 0.0
O94 O 0.68687 0.68901 0.53816 0.0
C95 C 0.55446 0.78758 0.50201 0.0
O96 O 0.64382 0.65757 0.51179 0.0
O97 O 0.57632 0.78369 0.47964 0.0
C98 C 0.8687 0.24099 0.62179 0.0
O99 O 0.83945 0.24007 0.62589 0.0
Cd100 Cd 0.80394 0.22455 0.58032 0.0
O101 O 0.88156 0.23638 0.59126 0.0
Cd102 Cd 0.8754 0.22571 0.52394 0.0
C103 C 0.83215 0.33184 0.52188 0.0
O104 O 0.83738 0.15742 0.54901 0.0
O105 O 0.84049 0.14971 0.49264 0.0
O106 O 0.92814 0.1984 0.53904 0.0
C107 C 0.82752 0.13271 0.52115 0.0
O108 O 0.8297 0.28378 0.53986 0.0
C109 C 0.93406 0.16942 0.51074 0.0
O110 O 0.85593 0.33431 0.5022 0.0
O111 O 0.91398 0.17334 0.48624 0.0
H112 H 0.28703 0.08253 0.97396 0.0
H113 H 0.32328 0.06068 0.08027 0.0
H114 H 0.28266 0.98555 0.09361 0.0
H115 H 0.21024 0.07206 0.98998 0.0
H116 H 0.19883 0.02227 0.95426 0.0
H117 H 0.23274 0.06942 0.94979 0.0
H118 H 0.26708 0.97404 0.93677 0.0
H119 H 0.23299 0.9269 0.9392 0.0
H120 H 0.26611 0.90899 0.96646 0.0
H121 H 0.23159 0.94048 0.10071 0.0
H122 H 0.18574 0.87555 0.09492 0.0
H123 H 0.18649 0.90281 0.98108 0.0
C124 C 0.28745 0.05888 -0.00079 0.0
C125 C 0.30827 0.07691 0.02619 0.0
C126 C 0.3078 0.04658 0.05925 0.0
C127 C 0.28447 0.00482 0.06726 0.0
C128 C 0.26268 -0.00805 0.0413 0.0
C129 C 0.2651 0.01404 0.00715 0.0
C130 C 0.23896 -0.01108 0.98427 0.0
C131 C 0.21902 0.04132 0.96866 0.0
C132 C 0.25207 0.94721 0.95494 0.0
C133 C 0.22091 0.95198 0.01163 0.0
C134 C 0.23464 0.9572 0.0445 0.0
C135 C 0.22131 0.93342 0.07495 0.0
C136 C 0.19493 0.89761 0.07143 0.0
C137 C 0.18296 0.88332 0.03762 0.0
C138 C 0.19513 0.91313 0.00727 0.0
H139 H 0.2326 0.6409 0.492 0.0
H140 H 0.15018 0.53095 0.47807 0.0
H141 H 0.18117 0.43638 0.48866 0.0
H142 H 0.28243 0.55371 0.44677 0.0
H143 H 0.31562 0.56113 0.47535 0.0
H144 H 0.28629 0.62019 0.47492 0.0
H145 H 0.27868 0.60809 0.54258 0.0
H146 H 0.30841 0.54923 0.5433 0.0
H147 H 0.2705 0.53324 0.56086 0.0
H148 H 0.22155 0.3557 0.48961 0.0
H149 H 0.26823 0.29265 0.48091 0.0
H150 H 0.32588 0.45358 0.49417 0.0
C151 C 0.22095 0.59693 0.49243 0.0
C152 C 0.18902 0.59295 0.4845 0.0
C153 C 0.17448 0.5349 0.48475 0.0
C154 C 0.19193 0.48106 0.49073 0.0
C155 C 0.22363 0.48646 0.49733 0.0
C156 C 0.23796 0.54299 0.49886 0.0
C157 C 0.27282 0.53583 0.50288 0.0
C158 C 0.29029 0.56967 0.47319 0.0
C159 C 0.28322 0.55792 0.53958 0.0
C160 C 0.27624 0.46653 0.49987 0.0
C161 C 0.24738 0.4391 0.49798 0.0
C162 C 0.24415 0.37643 0.49207 0.0
C163 C 0.27089 0.34108 0.48706 0.0
C164 C 0.30066 0.36831 0.48726 0.0
C165 C 0.30349 0.43152 0.4949 0.0
H166 H 0.69624 0.89073 0.0124 0.0
H167 H 0.67243 0.89321 0.90094 0.0
H168 H 0.71374 0.96779 0.88955 0.0
H169 H 0.71454 0.06484 0.01352 0.0
H170 H 0.74448 0.05361 0.04617 0.0
H171 H 0.71104 0.00451 0.04609 0.0
H172 H 0.74784 0.91002 0.04311 0.0
H173 H 0.7813 0.95892 0.0412 0.0
H174 H 0.77478 0.90307 0.00683 0.0
H175 H 0.76367 0.01927 0.88755 0.0
H176 H 0.80679 0.0904 0.89703 0.0
H177 H 0.7948 0.07435 0.01066 0.0
C178 C 0.69865 0.90989 0.98608 0.0
C179 C 0.68112 0.88662 0.95743 0.0
C180 C 0.68535 0.91128 0.92316 0.0
C181 C 0.70913 0.95269 0.91634 0.0
C182 C 0.72767 0.97094 0.9444 0.0
C183 C 0.72157 0.95409 0.97896 0.0
C184 C 0.74451 0.98451 0.00401 0.0
C185 C 0.72764 0.02956 0.02891 0.0
C186 C 0.76321 0.93622 0.02502 0.0
C187 C 0.765 0.01859 0.97771 0.0
C188 C 0.75523 0.00771 0.9435 0.0
C189 C 0.77101 0.03001 0.91419 0.0
C190 C 0.7958 0.06947 0.91984 0.0
C191 C 0.80397 0.08781 0.95443 0.0
C192 C 0.78925 0.06029 0.98395 0.0
H193 H 0.71429 0.60784 0.47054 0.0
H194 H 0.66511 0.55807 0.56628 0.0
H195 H 0.70146 0.47174 0.576 0.0
H196 H 0.73324 0.43854 0.44594 0.0
H197 H 0.7699 0.46026 0.42704 0.0
H198 H 0.73729 0.51253 0.42481 0.0
H199 H 0.7706 0.59624 0.45462 0.0
H200 H 0.8029 0.54371 0.45828 0.0
H201 H 0.78776 0.581 0.49728 0.0
H202 H 0.74764 0.40852 0.58247 0.0
H203 H 0.79478 0.34632 0.5778 0.0
H204 H 0.8137 0.42491 0.47417 0.0
C205 C 0.7104 0.57657 0.49242 0.0
C206 C 0.68667 0.58838 0.5174 0.0
C207 C 0.68268 0.54841 0.54651 0.0
C208 C 0.70341 0.49982 0.55242 0.0
C209 C 0.7275 0.49103 0.5284 0.0
C210 C 0.73045 0.52617 0.49811 0.0
C211 C 0.75894 0.5062 0.4771 0.0
C212 C 0.74927 0.47769 0.44162 0.0
C213 C 0.78137 0.56001 0.47152 0.0
C214 C 0.7726 0.45757 0.50174 0.0
C215 C 0.75385 0.45031 0.53112 0.0
C216 C 0.76192 0.4119 0.55902 0.0
C217 C 0.78895 0.37698 0.55609 0.0
C218 C 0.80762 0.37951 0.52523 0.0
C219 C 0.79981 0.42168 0.49794 0.0
H220 H 0.37094 0.33208 0.1705 0.0
H221 H 0.39698 0.14306 0.149 0.0
H222 H 0.41516 0.13125 0.21108 0.0
H223 H 0.43523 0.36381 0.2373 0.0
H224 H 0.40933 0.4115 0.26295 0.0
H225 H 0.40537 0.4082 0.21548 0.0
H226 H 0.34781 0.37649 0.22245 0.0
H227 H 0.35162 0.38035 0.26956 0.0
H228 H 0.3385 0.31025 0.24917 0.0
H229 H 0.42043 0.13547 0.27777 0.0
H230 H 0.40923 0.15284 0.34118 0.0
H231 H 0.38084 0.33984 0.318 0.0
C232 C 0.3815 0.28891 0.17867 0.0
C233 C 0.38293 0.23865 0.15531 0.0
C234 C 0.39629 0.18233 0.16662 0.0
C235 C 0.4067 0.17543 0.20173 0.0
C236 C 0.40427 0.22585 0.22459 0.0
C237 C 0.39233 0.28181 0.2132 0.0
C238 C 0.38841 0.32669 0.24339 0.0
C239 C 0.41093 0.38075 0.23954 0.0
C240 C 0.3546 0.34967 0.24631 0.0
C241 C 0.39751 0.2859 0.27414 0.0
C242 C 0.40767 0.2285 0.26285 0.0
C243 C 0.4136 0.18083 0.28684 0.0
C244 C 0.40753 0.19123 0.32289 0.0
C245 C 0.39519 0.24835 0.33428 0.0
C246 C 0.39153 0.29682 0.3099 0.0
H247 H 0.10701 0.80828 0.31715 0.0
H248 H 0.09695 0.61536 0.34301 0.0
H249 H 0.08241 0.59375 0.28089 0.0
H250 H 0.04363 0.81071 0.24277 0.0
H251 H 0.06635 0.8649 0.21785 0.0
H252 H 0.06625 0.86761 0.26556 0.0
H253 H 0.12604 0.85907 0.26542 0.0
H254 H 0.12636 0.85534 0.21809 0.0
H255 H 0.1445 0.79472 0.24359 0.0
H256 H 0.08258 0.58938 0.21587 0.0
H257 H 0.09706 0.60188 0.15314 0.0
H258 H 0.10662 0.79816 0.16827 0.0
C259 C 0.1002 0.76211 0.30984 0.0
C260 C 0.10251 0.71344 0.33445 0.0
C261 C 0.09453 0.65315 0.32442 0.0
C262 C 0.08622 0.6407 0.28928 0.0
C263 C 0.08541 0.68941 0.26501 0.0
C264 C 0.09156 0.74932 0.27504 0.0
C265 C 0.09366 0.7918 0.24323 0.0
C266 C 0.06582 0.83638 0.2423 0.0
C267 C 0.12448 0.82718 0.24256 0.0
C268 C 0.0916 0.7452 0.21359 0.0
C269 C 0.08541 0.68688 0.22672 0.0
C270 C 0.08624 0.63498 0.20513 0.0
C271 C 0.0945 0.64242 0.16959 0.0
C272 C 0.10199 0.70111 0.1561 0.0
C273 C 0.09972 0.75335 0.17797 0.0
H274 H 0.62366 0.8033 0.82087 0.0
H275 H 0.59484 0.61447 0.8342 0.0
H276 H 0.57886 0.6108 0.77133 0.0
H277 H 0.56182 0.8446 0.74914 0.0
H278 H 0.58926 0.89323 0.7268 0.0
H279 H 0.59001 0.88665 0.77438 0.0
H280 H 0.64784 0.85437 0.77173 0.0
H281 H 0.64727 0.86068 0.72447 0.0
H282 H 0.65922 0.78929 0.74498 0.0
H283 H 0.57733 0.62028 0.70528 0.0
H284 H 0.59124 0.642 0.64277 0.0
H285 H 0.62086 0.82452 0.67263 0.0
C286 C 0.61259 0.76239 0.81072 0.0
C287 C 0.60985 0.70952 0.83202 0.0
C288 C 0.59641 0.65569 0.81811 0.0
C289 C 0.58721 0.65337 0.78254 0.0
C290 C 0.59121 0.70566 0.76155 0.0
C291 C 0.60306 0.75971 0.77536 0.0
C292 C 0.60904 0.80654 0.74648 0.0
C293 C 0.58617 0.86096 0.74938 0.0
C294 C 0.64284 0.8289 0.74695 0.0
C295 C 0.60213 0.76805 0.71415 0.0
C296 C 0.59055 0.71096 0.72324 0.0
C297 C 0.58553 0.66543 0.69778 0.0
C298 C 0.59346 0.67798 0.6624 0.0
C299 C 0.6069 0.73491 0.65327 0.0
C300 C 0.61025 0.78092 0.67919 0.0
H301 H 0.87772 0.33356 0.66771 0.0
H302 H 0.89633 0.14035 0.64997 0.0
H303 H 0.90711 0.1259 0.7137 0.0
H304 H 0.93494 0.35012 0.74806 0.0
H305 H 0.90826 0.40345 0.76851 0.0
H306 H 0.91237 0.40212 0.72101 0.0
H307 H 0.85322 0.38645 0.71512 0.0
H308 H 0.84887 0.38601 0.76224 0.0
H309 H 0.83545 0.32147 0.7367 0.0
H310 H 0.90241 0.12785 0.78014 0.0
H311 H 0.88557 0.14773 0.84194 0.0
H312 H 0.86902 0.33928 0.81561 0.0
C313 C 0.88622 0.28939 0.67707 0.0
C314 C 0.88722 0.23851 0.65418 0.0
C315 C 0.89667 0.18024 0.66715 0.0
C316 C 0.9026 0.17162 0.70336 0.0
C317 C 0.89953 0.22213 0.72591 0.0
C318 C 0.89244 0.28042 0.71303 0.0
C319 C 0.886 0.32515 0.74281 0.0
C320 C 0.91193 0.37304 0.74524 0.0
C321 C 0.85399 0.35648 0.73896 0.0
C322 C 0.88709 0.28169 0.77406 0.0
C323 C 0.89615 0.22296 0.76417 0.0
C324 C 0.89619 0.17406 0.78831 0.0
C325 C 0.88651 0.18558 0.82326 0.0
C326 C 0.87611 0.24499 0.83317 0.0
C327 C 0.87702 0.29355 0.80848 0.0
H328 H 0.4884 0.33739 0.01679 0.0
H329 H 0.40576 0.39138 0.95918 0.0
H330 H 0.4274 0.49488 0.94934 0.0
H331 H 0.50394 0.4713 0.0606 0.0
H332 H 0.54528 0.47207 0.05382 0.0
H333 H 0.52493 0.4001 0.05388 0.0
H334 H 0.54622 0.37396 0.99157 0.0
H335 H 0.56753 0.44498 0.99182 0.0
H336 H 0.54128 0.42869 0.95607 0.0
H337 H 0.45628 0.59482 0.94952 0.0
H338 H 0.49444 0.67958 0.95153 0.0
H339 H 0.55836 0.561 0.00851 0.0
C340 C 0.47551 0.37042 0.00098 0.0
C341 C 0.44577 0.35635 0.98807 0.0
C342 C 0.42905 0.40091 0.96826 0.0
C343 C 0.44094 0.46005 0.96299 0.0
C344 C 0.46993 0.47336 0.97698 0.0
C345 C 0.48752 0.42924 0.99445 0.0
C346 C 0.51844 0.45521 0.00576 0.0
C347 C 0.5234 0.44932 0.04591 0.0
C348 C 0.54493 0.42387 0.98509 0.0
C349 C 0.51439 0.52185 0.99443 0.0
C350 C 0.48645 0.53115 0.97737 0.0
C351 C 0.4782 0.58821 0.96292 0.0
C352 C 0.49972 0.63626 0.96456 0.0
C353 C 0.52861 0.62717 0.98133 0.0
C354 C 0.53576 0.56971 -0.003 0.0
H355 H 0.0099 0.60813 0.04298 0.0
H356 H 0.04936 0.63144 0.9382 0.0
H357 H 0.02668 0.53274 0.91981 0.0
H358 H 0.02197 0.45099 0.05197 0.0
H359 H 0.98561 0.43354 0.07305 0.0
H360 H 0.00217 0.50892 0.07778 0.0
H361 H 0.95226 0.56011 0.05304 0.0
H362 H 0.93508 0.48505 0.04961 0.0
H363 H 0.93686 0.53451 0.01131 0.0
H364 H 0.00535 0.42663 0.91488 0.0
H365 H 0.97489 0.33126 0.9183 0.0
H366 H 0.94754 0.37677 0.02561 0.0
C367 C 0.01282 0.59348 0.01579 0.0
C368 C 0.03137 0.62761 0.99198 0.0
C369 C 0.03492 0.60665 0.95675 0.0
C370 C 0.02253 0.55008 0.94622 0.0
C371 C 0.00612 0.51568 0.97103 0.0
C372 C 0.00018 0.53751 0.00466 0.0
C373 C 0.98128 0.49172 0.0259 0.0
C374 C -0.00118 0.47004 0.05913 0.0
C375 C 0.94949 0.51948 0.03552 0.0
C376 C 0.97825 0.44001 -0.0008 0.0
C377 C -0.0069 0.45471 0.9679 0.0
C378 C -0.0066 0.41486 0.93911 0.0
C379 C 0.97636 0.36042 0.94146 0.0
C380 C 0.95913 0.34634 0.9723 0.0
C381 C 0.9611 0.38552 0.00204 0.0
H382 H 0.55376 0.89463 0.46457 0.0
H383 H 0.4967 0.77736 0.53034 0.0
H384 H 0.45793 0.86132 0.53564 0.0
H385 H 0.54121 0.02755 0.51544 0.0
H386 H 0.54123 0.08098 0.47889 0.0
H387 H 0.56285 0.00988 0.4759 0.0
H388 H 0.53351 0.98023 0.41874 0.0
H389 H 0.51261 0.05221 0.42088 0.0
H390 H 0.49173 0.98075 0.41862 0.0
H391 H 0.42926 0.96116 0.54044 0.0
H392 H 0.40637 0.06495 0.53453 0.0
H393 H 0.48142 0.11808 0.46473 0.0
C394 C 0.53242 0.88573 0.4787 0.0
C395 C 0.52777 0.8291 0.49643 0.0
C396 C 0.5003 0.82006 0.51609 0.0
C397 C 0.4784 0.86768 0.51955 0.0
C398 C 0.48456 0.92416 0.50351 0.0
C399 C 0.51057 0.93317 0.48289 0.0
C400 C 0.51257 -0.00049 0.47036 0.0
C401 C 0.54116 0.03132 0.48608 0.0
C402 C 0.51257 0.00337 0.42973 0.0
C403 C 0.483 0.02574 0.4861 0.0
C404 C 0.46774 0.98188 0.50598 0.0
C405 C 0.44077 -0.0043 0.52461 0.0
C406 C 0.42819 0.05509 0.52148 0.0
C407 C 0.44219 0.0995 0.49924 0.0
C408 C 0.47032 0.08497 0.48195 0.0
H409 H 0.94606 0.0831 0.45926 0.0
H410 H 0.97755 0.14761 0.56169 0.0
H411 H 0.00935 0.05366 0.56861 0.0
H412 H 0.93863 0.92817 0.48149 0.0
H413 H 0.95311 0.89753 0.44034 0.0
H414 H 0.93472 0.97225 0.44123 0.0
H415 H 0.98325 0.02247 0.4134 0.0
H416 H 0.00132 0.94756 0.41107 0.0
H417 H 0.02064 0.00961 0.43343 0.0
H418 H 0.03283 0.94767 0.56766 0.0
H419 H 0.05694 0.84778 0.55253 0.0
H420 H 0.01154 0.85301 0.45009 0.0
C421 C 0.96037 0.07839 0.48264 0.0
C422 C 0.95916 0.12264 0.51001 0.0
C423 C 0.97806 0.1144 0.54035 0.0
C424 C -0.00401 0.06085 0.54471 0.0
C425 C -0.00492 0.01631 0.5183 0.0
C426 C 0.9786 0.0253 0.48735 0.0
C427 C 0.98178 0.97019 0.46303 0.0
C428 C 0.95018 0.9403 0.45613 0.0
C429 C -0.00229 -0.01145 0.42818 0.0
C430 C 0.00236 0.92866 0.48535 0.0
C431 C 0.00934 0.95577 0.51736 0.0
C432 C 0.02779 0.92617 0.54253 0.0
C433 C 0.04103 0.86893 0.53389 0.0
C434 C 0.03612 0.84245 0.50015 0.0
C435 C 0.01556 0.8718 0.47619 0.0
H436 H 0.19525 0.57811 0.04677 0.0
H437 H 0.16868 0.5787 0.93611 0.0
H438 H 0.21234 0.50686 0.92292 0.0
H439 H 0.27792 0.57952 0.03035 0.0
H440 H 0.28607 0.53288 0.0688 0.0
H441 H 0.25287 0.58363 0.06846 0.0
H442 H 0.21731 0.49141 0.08336 0.0
H443 H 0.25029 0.4403 0.08353 0.0
H444 H 0.21777 0.42455 0.05516 0.0
H445 H 0.25767 0.42943 0.92386 0.0
H446 H 0.3018 0.35961 0.9378 0.0
H447 H 0.29892 0.4202 0.04712 0.0
C448 C 0.1986 0.56374 0.01965 0.0
C449 C 0.17866 0.58365 0.99241 0.0
C450 C 0.18389 0.56375 0.95728 0.0
C451 C 0.20853 0.52312 0.94963 0.0
C452 C 0.22786 0.5045 0.97735 0.0
C453 C 0.22331 0.52511 0.01153 0.0
C454 C 0.24731 0.49999 0.03675 0.0
C455 C 0.26722 0.55211 0.05197 0.0
C456 C 0.23226 0.46178 0.06642 0.0
C457 C 0.26568 0.46012 0.01172 0.0
C458 C 0.25429 0.46301 0.97756 0.0
C459 C 0.26701 0.4275 0.95041 0.0
C460 C 0.29198 0.38804 0.95854 0.0
C461 C 0.30383 0.38497 0.99345 0.0
C462 C 0.2906 0.42198 0.0201 0.0
H463 H 0.29989 0.05543 0.51197 0.0
H464 H 0.27542 0.15217 0.41526 0.0
H465 H 0.22427 0.1057 0.4161 0.0
H466 H 0.2687 0.91715 0.48387 0.0
H467 H 0.25494 0.89194 0.52652 0.0
H468 H 0.28726 0.94339 0.52375 0.0
H469 H 0.25849 0.02105 0.56431 0.0
H470 H 0.22591 0.9698 0.56701 0.0
H471 H 0.22035 0.04808 0.55221 0.0
H472 H 0.17851 0.04497 0.42302 0.0
H473 H 0.14341 0.95748 0.42902 0.0
H474 H 0.1974 0.88839 0.51777 0.0
C475 C 0.28335 0.06772 0.49156 0.0
C476 C 0.29127 0.10905 0.46416 0.0
C477 C 0.26973 0.12223 0.43701 0.0
C478 C 0.24039 0.09623 0.43737 0.0
C479 C 0.23316 0.05585 0.46463 0.0
C480 C 0.25413 0.04021 0.49082 0.0
C481 C 0.24223 0.98719 0.51312 0.0
C482 C 0.26461 0.93165 0.51169 0.0
C483 C 0.23639 0.00779 0.55144 0.0
C484 C 0.212 0.97411 0.49418 0.0
C485 C 0.2069 0.01613 0.46722 0.0
C486 C 0.18194 0.01205 0.44422 0.0
C487 C 0.16223 0.96209 0.44777 0.0
C488 C 0.16789 0.91638 0.47373 0.0
C489 C 0.1924 0.92341 0.49809 0.0
H490 H 0.71193 0.60882 0.95676 0.0
H491 H 0.65799 0.54235 0.0454 0.0
H492 H 0.70069 0.4698 0.06111 0.0
H493 H 0.74267 0.47164 0.92915 0.0
H494 H 0.78035 0.50113 0.91803 0.0
H495 H 0.7471 0.55131 0.91672 0.0
H496 H 0.7739 0.62633 0.96009 0.0
H497 H 0.80742 0.57636 0.96147 0.0
H498 H 0.78813 0.59795 0.00194 0.0
H499 H 0.74724 0.39671 0.062 0.0
H500 H 0.79333 0.3318 0.04897 0.0
H501 H 0.81637 0.45206 0.96118 0.0
C502 C 0.70924 0.57956 0.97971 0.0
C503 C 0.68183 0.5804 -0.00021 0.0
C504 C 0.67909 0.54206 0.02988 0.0
C505 C 0.70316 0.50101 0.03894 0.0
C506 C 0.7299 0.50065 0.01813 0.0
C507 C 0.73316 0.53979 0.98947 0.0
C508 C 0.7634 0.52934 0.97035 0.0
C509 C 0.75803 0.5123 0.93128 0.0
C510 C 0.78445 0.58585 0.97368 0.0
C511 C 0.77598 0.47564 0.99139 0.0
C512 C 0.75671 0.46016 0.01922 0.0
C513 C 0.7628 0.40919 0.04075 0.0
C514 C 0.789 0.37269 0.03321 0.0
C515 C 0.80836 0.38725 0.00418 0.0
C516 C 0.80205 0.44012 0.98369 0.0
H517 H 0.69421 0.89801 0.46327 0.0
H518 H 0.64937 0.95147 0.5617 0.0
H519 H 0.68893 0.02923 0.57156 0.0
H520 H 0.76968 0.9105 0.49045 0.0
H521 H 0.78547 0.94582 0.45127 0.0
H522 H 0.75154 0.89858 0.44808 0.0
H523 H 0.72117 -0.0117 0.41863 0.0
H524 H 0.75524 0.03561 0.42113 0.0
H525 H 0.7193 0.06214 0.44027 0.0
H526 H 0.73782 0.07749 0.57938 0.0
H527 H 0.78889 0.12306 0.57715 0.0
H528 H 0.80099 0.05939 0.46903 0.0
C529 C 0.69224 0.92773 0.48613 0.0
C530 C 0.66903 0.91819 0.51201 0.0
C531 C 0.66718 0.95744 0.5418 0.0
C532 C 0.68952 0.00184 0.54768 0.0
C533 C 0.71305 0.00783 0.52298 0.0
C534 C 0.7142 0.97397 0.49211 0.0
C535 C 0.74302 -0.01002 0.47086 0.0
C536 C 0.76363 0.9328 0.46483 0.0
C537 C 0.73415 0.02086 0.43563 0.0
C538 C 0.75836 0.03541 0.49577 0.0
C539 C 0.74056 0.04371 0.52578 0.0
C540 C 0.75122 0.07492 0.55521 0.0
C541 C 0.78039 0.10105 0.55354 0.0
C542 C 0.79816 0.09866 0.52206 0.0
C543 C 0.78724 0.06442 0.49283 0.0
loop_
_geom_bond_atom_site_label_1
_geom_bond_atom_site_label_2
_geom_bond_distance
_geom_bond_site_symmetry_2
_ccdc_geom_bond_type
C0 O1 1.306 . S
C0 O3 1.160 . S
O1 C0 1.306 . S
O1 Cd2 2.228 . S
Cd2 O1 2.228 . S
Cd2 O6 2.273 . S
Cd2 O10 2.277 . S
O3 C0 1.160 . S
O3 Cd4 2.203 . S
Cd4 O3 2.203 . S
Cd4 O6 2.411 . S
Cd4 O7 2.334 1_554 S
Cd4 O8 2.352 . S
Cd4 O12 2.277 . S
Cd4 O13 2.356 1_554 S
C5 O10 1.209 . S
C5 O12 1.226 . S
O6 Cd2 2.273 . S
O6 Cd4 2.411 . S
O6 C9 1.320 . S
O7 Cd4 2.334 1_556 S
O7 C9 1.215 1_556 S
O8 Cd4 2.352 . S
O8 C11 1.258 . S
C9 O6 1.320 . S
C9 O7 1.215 1_554 S
O10 Cd2 2.277 . S
O10 C5 1.209 . S
C11 O8 1.258 . S
C11 O13 1.282 1_554 S
O12 Cd4 2.277 . S
O12 C5 1.226 . S
O13 Cd4 2.356 1_556 S
O13 C11 1.282 1_556 S
C14 O15 1.306 . S
C14 O17 1.160 . S
O15 C14 1.306 . S
O15 Cd16 2.228 . S
Cd16 O15 2.228 . S
Cd16 O20 2.273 . S
Cd16 O24 2.277 . S
O17 C14 1.160 . S
O17 Cd18 2.203 . S
Cd18 O17 2.203 . S
Cd18 O20 2.411 . S
Cd18 O21 2.334 1_554 S
Cd18 O22 2.352 . S
Cd18 O26 2.277 . S
Cd18 O27 2.356 1_554 S
C19 O24 1.209 . S
C19 O26 1.226 . S
O20 Cd16 2.273 . S
O20 Cd18 2.411 . S
O20 C23 1.320 . S
O21 Cd18 2.334 1_556 S
O21 C23 1.215 1_556 S
O22 Cd18 2.352 . S
O22 C25 1.258 . S
C23 O20 1.320 . S
C23 O21 1.215 1_554 S
O24 Cd16 2.277 . S
O24 C19 1.209 . S
C25 O22 1.258 . S
C25 O27 1.282 1_554 S
O26 Cd18 2.277 . S
O26 C19 1.226 . S
O27 Cd18 2.356 1_556 S
O27 C25 1.282 1_556 S
C28 O29 1.306 . S
C28 O31 1.160 . S
O29 C28 1.306 . S
O29 Cd30 2.228 . S
Cd30 O29 2.228 . S
Cd30 O34 2.273 . S
Cd30 O38 2.277 . S
O31 C28 1.160 . S
O31 Cd32 2.203 . S
Cd32 O31 2.203 . S
Cd32 O34 2.411 . S
Cd32 O35 2.333 . S
Cd32 O36 2.352 . S
Cd32 O40 2.277 . S
Cd32 O41 2.356 . S
C33 O38 1.209 . S
C33 O40 1.226 . S
O34 Cd30 2.273 . S
O34 Cd32 2.411 . S
O34 C37 1.320 . S
O35 Cd32 2.333 . S
O35 C37 1.214 . S
O36 Cd32 2.352 . S
O36 C39 1.258 . S
C37 O34 1.320 . S
C37 O35 1.214 . S
O38 Cd30 2.277 . S
O38 C33 1.209 . S
C39 O36 1.258 . S
C39 O41 1.282 . S
O40 Cd32 2.277 . S
O40 C33 1.226 . S
O41 Cd32 2.356 . S
O41 C39 1.282 . S
C42 O43 1.306 . S
C42 O45 1.160 . S
O43 C42 1.306 . S
O43 Cd44 2.228 . S
Cd44 O43 2.228 . S
Cd44 O48 2.273 . S
Cd44 O52 2.277 . S
O45 C42 1.160 . S
O45 Cd46 2.203 . S
Cd46 O45 2.203 . S
Cd46 O48 2.411 . S
Cd46 O49 2.333 . S
Cd46 O50 2.352 . S
Cd46 O54 2.277 . S
Cd46 O55 2.356 . S
C47 O52 1.209 . S
C47 O54 1.226 . S
O48 Cd44 2.273 . S
O48 Cd46 2.411 . S
O48 C51 1.320 . S
O49 Cd46 2.333 . S
O49 C51 1.214 . S
O50 Cd46 2.352 . S
O50 C53 1.258 . S
C51 O48 1.320 . S
C51 O49 1.214 . S
O52 Cd44 2.277 . S
O52 C47 1.209 . S
C53 O50 1.258 . S
C53 O55 1.282 . S
O54 Cd46 2.277 . S
O54 C47 1.226 . S
O55 Cd46 2.356 . S
O55 C53 1.282 . S
C56 O57 1.306 . S
C56 O59 1.160 . S
O57 C56 1.306 . S
O57 Cd58 2.228 . S
Cd58 O57 2.228 . S
Cd58 O62 2.273 . S
Cd58 O66 2.277 . S
O59 C56 1.160 . S
O59 Cd60 2.203 . S
Cd60 O59 2.203 . S
Cd60 O62 2.411 . S
Cd60 O63 2.334 1_556 S
Cd60 O64 2.352 . S
Cd60 O68 2.277 . S
Cd60 O69 2.356 1_556 S
C61 O66 1.209 . S
C61 O68 1.226 . S
O62 Cd58 2.273 . S
O62 Cd60 2.411 . S
O62 C65 1.320 . S
O63 Cd60 2.334 1_554 S
O63 C65 1.215 1_554 S
O64 Cd60 2.352 . S
O64 C67 1.258 . S
C65 O62 1.320 . S
C65 O63 1.215 1_556 S
O66 Cd58 2.277 . S
O66 C61 1.209 . S
C67 O64 1.258 . S
C67 O69 1.282 1_556 S
O68 Cd60 2.277 . S
O68 C61 1.226 . S
O69 Cd60 2.356 1_554 S
O69 C67 1.282 1_554 S
C70 O71 1.306 . S
C70 O73 1.160 . S
O71 C70 1.306 . S
O71 Cd72 2.228 . S
Cd72 O71 2.228 . S
Cd72 O76 2.273 . S
Cd72 O80 2.277 . S
O73 C70 1.160 . S
O73 Cd74 2.203 . S
Cd74 O73 2.203 . S
Cd74 O76 2.411 . S
Cd74 O77 2.334 1_556 S
Cd74 O78 2.352 . S
Cd74 O82 2.277 . S
Cd74 O83 2.356 1_556 S
C75 O80 1.209 . S
C75 O82 1.226 . S
O76 Cd72 2.273 . S
O76 Cd74 2.411 . S
O76 C79 1.320 . S
O77 Cd74 2.334 1_554 S
O77 C79 1.215 1_554 S
O78 Cd74 2.352 . S
O78 C81 1.258 . S
C79 O76 1.320 . S
C79 O77 1.215 1_556 S
O80 Cd72 2.277 . S
O80 C75 1.209 . S
C81 O78 1.258 . S
C81 O83 1.282 1_556 S
O82 Cd74 2.277 . S
O82 C75 1.226 . S
O83 Cd74 2.356 1_554 S
O83 C81 1.282 1_554 S
C84 O85 1.306 . S
C84 O87 1.160 . S
O85 C84 1.306 . S
O85 Cd86 2.228 . S
Cd86 O85 2.228 . S
Cd86 O90 2.273 . S
Cd86 O94 2.277 . S
O87 C84 1.160 . S
O87 Cd88 2.203 . S
Cd88 O87 2.203 . S
Cd88 O90 2.411 . S
Cd88 O91 2.333 . S
Cd88 O92 2.352 . S
Cd88 O96 2.277 . S
Cd88 O97 2.356 . S
C89 O94 1.209 . S
C89 O96 1.226 . S
O90 Cd86 2.273 . S
O90 Cd88 2.411 . S
O90 C93 1.320 . S
O91 Cd88 2.333 . S
O91 C93 1.214 . S
O92 Cd88 2.352 . S
O92 C95 1.258 . S
C93 O90 1.320 . S
C93 O91 1.214 . S
O94 Cd86 2.277 . S
O94 C89 1.209 . S
C95 O92 1.258 . S
C95 O97 1.282 . S
O96 Cd88 2.277 . S
O96 C89 1.226 . S
O97 Cd88 2.356 . S
O97 C95 1.282 . S
C98 O99 1.306 . S
C98 O101 1.160 . S
O99 C98 1.306 . S
O99 Cd100 2.228 . S
Cd100 O99 2.228 . S
Cd100 O104 2.273 . S
Cd100 O108 2.277 . S
O101 C98 1.160 . S
O101 Cd102 2.203 . S
Cd102 O101 2.203 . S
Cd102 O104 2.411 . S
Cd102 O105 2.333 . S
Cd102 O106 2.352 . S
Cd102 O110 2.277 . S
Cd102 O111 2.356 . S
C103 O108 1.209 . S
C103 O110 1.226 . S
O104 Cd100 2.273 . S
O104 Cd102 2.411 . S
O104 C107 1.320 . S
O105 Cd102 2.333 . S
O105 C107 1.214 . S
O106 Cd102 2.352 . S
O106 C109 1.258 . S
C107 O104 1.320 . S
C107 O105 1.214 . S
O108 Cd100 2.277 . S
O108 C103 1.209 . S
C109 O106 1.258 . S
C109 O111 1.282 . S
O110 Cd102 2.277 . S
O110 C103 1.226 . S
O111 Cd102 2.356 . S
O111 C109 1.282 . S
H112 C124 0.930 1_556 S
H113 C126 0.930 . S
H114 C127 0.930 . S
H115 C131 0.959 . S
H116 C131 0.959 . S
H117 C131 0.961 . S
H118 C132 0.960 . S
H119 C132 0.961 . S
H120 C132 0.959 . S
H121 C135 0.929 . S
H122 C136 0.931 . S
H123 C138 0.930 1_556 S
C124 H112 0.930 1_554 S
C124 C125 1.399 . S
C124 C129 1.399 . S
C125 C124 1.399 . S
C125 C126 1.376 . S
C126 H113 0.930 . S
C126 C125 1.376 . S
C126 C127 1.388 . S
C127 H114 0.930 . S
C127 C126 1.388 . S
C127 C128 1.390 . S
C128 C127 1.390 . S
C128 C129 1.394 . S
C128 C134 1.465 1_545 S
C129 C124 1.399 . S
C129 C128 1.394 . S
C129 C130 1.516 1_554 S
C130 C129 1.516 1_556 S
C130 C131 1.502 . S
C130 C132 1.561 1_545 S
C130 C133 1.526 1_546 S
C131 H115 0.959 . S
C131 H116 0.959 . S
C131 H117 0.961 . S
C131 C130 1.502 . S
C132 H118 0.960 . S
C132 H119 0.961 . S
C132 H120 0.959 . S
C132 C130 1.561 1_565 S
C133 C130 1.526 1_564 S
C133 C134 1.396 . S
C133 C138 1.390 . S
C134 C128 1.465 1_565 S
C134 C133 1.396 . S
C134 C135 1.399 . S
C135 H121 0.929 . S
C135 C134 1.399 . S
C135 C136 1.385 . S
C136 H122 0.931 . S
C136 C135 1.385 . S
C136 C137 1.389 . S
C137 C136 1.389 . S
C137 C138 1.387 . S
C138 H123 0.930 1_554 S
C138 C133 1.390 . S
C138 C137 1.387 . S
H139 C151 0.930 . S
H140 C153 0.930 . S
H141 C154 0.930 . S
H142 C158 0.959 . S
H143 C158 0.959 . S
H144 C158 0.961 . S
H145 C159 0.960 . S
H146 C159 0.961 . S
H147 C159 0.959 . S
H148 C162 0.929 . S
H149 C163 0.931 . S
H150 C165 0.930 . S
C151 H139 0.930 . S
C151 C152 1.399 . S
C151 C156 1.399 . S
C152 C151 1.399 . S
C152 C153 1.376 . S
C153 H140 0.930 . S
C153 C152 1.376 . S
C153 C154 1.388 . S
C154 H141 0.930 . S
C154 C153 1.388 . S
C154 C155 1.390 . S
C155 C154 1.390 . S
C155 C156 1.394 . S
C155 C161 1.465 . S
C156 C151 1.399 . S
C156 C155 1.394 . S
C156 C157 1.516 . S
C157 C156 1.516 . S
C157 C158 1.502 . S
C157 C159 1.561 . S
C157 C160 1.526 . S
C158 H142 0.959 . S
C158 H143 0.959 . S
C158 H144 0.961 . S
C158 C157 1.502 . S
C159 H145 0.960 . S
C159 H146 0.961 . S
C159 H147 0.959 . S
C159 C157 1.561 . S
C160 C157 1.526 . S
C160 C161 1.396 . S
C160 C165 1.390 . S
C161 C155 1.465 . S
C161 C160 1.396 . S
C161 C162 1.399 . S
C162 H148 0.929 . S
C162 C161 1.399 . S
C162 C163 1.385 . S
C163 H149 0.931 . S
C163 C162 1.385 . S
C163 C164 1.389 . S
C164 C163 1.389 . S
C164 C165 1.387 . S
C165 H150 0.930 . S
C165 C160 1.390 . S
C165 C164 1.387 . S
H166 C178 0.930 1_554 S
H167 C180 0.930 . S
H168 C181 0.930 . S
H169 C185 0.959 . S
H170 C185 0.959 . S
H171 C185 0.961 . S
H172 C186 0.960 . S
H173 C186 0.961 . S
H174 C186 0.959 . S
H175 C189 0.929 . S
H176 C190 0.931 . S
H177 C192 0.930 1_554 S
C178 H166 0.930 1_556 S
C178 C179 1.399 . S
C178 C183 1.399 . S
C179 C178 1.399 . S
C179 C180 1.376 . S
C180 H167 0.930 . S
C180 C179 1.376 . S
C180 C181 1.388 . S
C181 H168 0.930 . S
C181 C180 1.388 . S
C181 C182 1.390 . S
C182 C181 1.390 . S
C182 C183 1.394 . S
C182 C188 1.465 1_565 S
C183 C178 1.399 . S
C183 C182 1.394 . S
C183 C184 1.516 1_556 S
C184 C183 1.516 1_554 S
C184 C185 1.502 1_565 S
C184 C186 1.561 . S
C184 C187 1.526 1_564 S
C185 H169 0.959 . S
C185 H170 0.959 . S
C185 H171 0.961 . S
C185 C184 1.502 1_545 S
C186 H172 0.960 . S
C186 H173 0.961 . S
C186 H174 0.959 . S
C186 C184 1.561 . S
C187 C184 1.526 1_546 S
C187 C188 1.396 . S
C187 C192 1.390 . S
C188 C182 1.465 1_545 S
C188 C187 1.396 . S
C188 C189 1.399 . S
C189 H175 0.929 . S
C189 C188 1.399 . S
C189 C190 1.385 . S
C190 H176 0.931 . S
C190 C189 1.385 . S
C190 C191 1.389 . S
C191 C190 1.389 . S
C191 C192 1.387 . S
C192 H177 0.930 1_556 S
C192 C187 1.390 . S
C192 C191 1.387 . S
H193 C205 0.930 . S
H194 C207 0.930 . S
H195 C208 0.930 . S
H196 C212 0.959 . S
H197 C212 0.959 . S
H198 C212 0.961 . S
H199 C213 0.960 . S
H200 C213 0.961 . S
H201 C213 0.959 . S
H202 C216 0.929 . S
H203 C217 0.931 . S
H204 C219 0.930 . S
C205 H193 0.930 . S
C205 C206 1.399 . S
C205 C210 1.399 . S
C206 C205 1.399 . S
C206 C207 1.376 . S
C207 H194 0.930 . S
C207 C206 1.376 . S
C207 C208 1.388 . S
C208 H195 0.930 . S
C208 C207 1.388 . S
C208 C209 1.390 . S
C209 C208 1.390 . S
C209 C210 1.394 . S
C209 C215 1.465 . S
C210 C205 1.399 . S
C210 C209 1.394 . S
C210 C211 1.516 . S
C211 C210 1.516 . S
C211 C212 1.502 . S
C211 C213 1.561 . S
C211 C214 1.526 . S
C212 H196 0.959 . S
C212 H197 0.959 . S
C212 H198 0.961 . S
C212 C211 1.502 . S
C213 H199 0.960 . S
C213 H200 0.961 . S
C213 H201 0.959 . S
C213 C211 1.561 . S
C214 C211 1.526 . S
C214 C215 1.396 . S
C214 C219 1.390 . S
C215 C209 1.465 . S
C215 C214 1.396 . S
C215 C216 1.399 . S
C216 H202 0.929 . S
C216 C215 1.399 . S
C216 C217 1.385 . S
C217 H203 0.931 . S
C217 C216 1.385 . S
C217 C218 1.389 . S
C218 C217 1.389 . S
C218 C219 1.387 . S
C219 H204 0.930 . S
C219 C214 1.390 . S
C219 C218 1.387 . S
H220 C232 0.930 . S
H221 C234 0.930 . S
H222 C235 0.930 . S
H223 C239 0.959 . S
H224 C239 0.959 . S
H225 C239 0.961 . S
H226 C240 0.960 . S
H227 C240 0.961 . S
H228 C240 0.959 . S
H229 C243 0.929 . S
H230 C244 0.931 . S
H231 C246 0.930 . S
C232 H220 0.930 . S
C232 C233 1.399 . S
C232 C237 1.399 . S
C233 C232 1.399 . S
C233 C234 1.376 . S
C234 H221 0.930 . S
C234 C233 1.376 . S
C234 C235 1.388 . S
C235 H222 0.930 . S
C235 C234 1.388 . S
C235 C236 1.390 . S
C236 C235 1.390 . S
C236 C237 1.394 . S
C236 C242 1.465 . S
C237 C232 1.399 . S
C237 C236 1.394 . S
C237 C238 1.516 . S
C238 C237 1.516 . S
C238 C239 1.502 . S
C238 C240 1.561 . S
C238 C241 1.526 . S
C239 H223 0.959 . S
C239 H224 0.959 . S
C239 H225 0.961 . S
C239 C238 1.502 . S
C240 H226 0.960 . S
C240 H227 0.961 . S
C240 H228 0.959 . S
C240 C238 1.561 . S
C241 C238 1.526 . S
C241 C242 1.396 . S
C241 C246 1.390 . S
C242 C236 1.465 . S
C242 C241 1.396 . S
C242 C243 1.399 . S
C243 H229 0.929 . S
C243 C242 1.399 . S
C243 C244 1.385 . S
C244 H230 0.931 . S
C244 C243 1.385 . S
C244 C245 1.389 . S
C245 C244 1.389 . S
C245 C246 1.387 . S
C246 H231 0.930 . S
C246 C241 1.390 . S
C246 C245 1.387 . S
H247 C259 0.930 . S
H248 C261 0.930 . S
H249 C262 0.930 . S
H250 C266 0.959 . S
H251 C266 0.959 . S
H252 C266 0.961 . S
H253 C267 0.960 . S
H254 C267 0.961 . S
H255 C267 0.959 . S
H256 C270 0.929 . S
H257 C271 0.931 . S
H258 C273 0.930 . S
C259 H247 0.930 . S
C259 C260 1.399 . S
C259 C264 1.399 . S
C260 C259 1.399 . S
C260 C261 1.376 . S
C261 H248 0.930 . S
C261 C260 1.376 . S
C261 C262 1.388 . S
C262 H249 0.930 . S
C262 C261 1.388 . S
C262 C263 1.390 . S
C263 C262 1.390 . S
C263 C264 1.394 . S
C263 C269 1.465 . S
C264 C259 1.399 . S
C264 C263 1.394 . S
C264 C265 1.516 . S
C265 C264 1.516 . S
C265 C266 1.502 . S
C265 C267 1.561 . S
C265 C268 1.526 . S
C266 H250 0.959 . S
C266 H251 0.959 . S
C266 H252 0.961 . S
C266 C265 1.502 . S
C267 H253 0.960 . S
C267 H254 0.961 . S
C267 H255 0.959 . S
C267 C265 1.561 . S
C268 C265 1.526 . S
C268 C269 1.396 . S
C268 C273 1.390 . S
C269 C263 1.465 . S
C269 C268 1.396 . S
C269 C270 1.399 . S
C270 H256 0.929 . S
C270 C269 1.399 . S
C270 C271 1.385 . S
C271 H257 0.931 . S
C271 C270 1.385 . S
C271 C272 1.389 . S
C272 C271 1.389 . S
C272 C273 1.387 . S
C273 H258 0.930 . S
C273 C268 1.390 . S
C273 C272 1.387 . S
H274 C286 0.930 . S
H275 C288 0.930 . S
H276 C289 0.930 . S
H277 C293 0.959 . S
H278 C293 0.959 . S
H279 C293 0.961 . S
H280 C294 0.960 . S
H281 C294 0.961 . S
H282 C294 0.959 . S
H283 C297 0.929 . S
H284 C298 0.931 . S
H285 C300 0.930 . S
C286 H274 0.930 . S
C286 C287 1.399 . S
C286 C291 1.399 . S
C287 C286 1.399 . S
C287 C288 1.376 . S
C288 H275 0.930 . S
C288 C287 1.376 . S
C288 C289 1.388 . S
C289 H276 0.930 . S
C289 C288 1.388 . S
C289 C290 1.390 . S
C290 C289 1.390 . S
C290 C291 1.394 . S
C290 C296 1.465 . S
C291 C286 1.399 . S
C291 C290 1.394 . S
C291 C292 1.516 . S
C292 C291 1.516 . S
C292 C293 1.502 . S
C292 C294 1.561 . S
C292 C295 1.526 . S
C293 H277 0.959 . S
C293 H278 0.959 . S
C293 H279 0.961 . S
C293 C292 1.502 . S
C294 H280 0.960 . S
C294 H281 0.961 . S
C294 H282 0.959 . S
C294 C292 1.561 . S
C295 C292 1.526 . S
C295 C296 1.396 . S
C295 C300 1.390 . S
C296 C290 1.465 . S
C296 C295 1.396 . S
C296 C297 1.399 . S
C297 H283 0.929 . S
C297 C296 1.399 . S
C297 C298 1.385 . S
C298 H284 0.931 . S
C298 C297 1.385 . S
C298 C299 1.389 . S
C299 C298 1.389 . S
C299 C300 1.387 . S
C300 H285 0.930 . S
C300 C295 1.390 . S
C300 C299 1.387 . S
H301 C313 0.930 . S
H302 C315 0.930 . S
H303 C316 0.930 . S
H304 C320 0.959 . S
H305 C320 0.959 . S
H306 C320 0.961 . S
H307 C321 0.960 . S
H308 C321 0.961 . S
H309 C321 0.959 . S
H310 C324 0.929 . S
H311 C325 0.931 . S
H312 C327 0.930 . S
C313 H301 0.930 . S
C313 C314 1.399 . S
C313 C318 1.399 . S
C314 C313 1.399 . S
C314 C315 1.376 . S
C315 H302 0.930 . S
C315 C314 1.376 . S
C315 C316 1.388 . S
C316 H303 0.930 . S
C316 C315 1.388 . S
C316 C317 1.390 . S
C317 C316 1.390 . S
C317 C318 1.394 . S
C317 C323 1.465 . S
C318 C313 1.399 . S
C318 C317 1.394 . S
C318 C319 1.516 . S
C319 C318 1.516 . S
C319 C320 1.502 . S
C319 C321 1.561 . S
C319 C322 1.526 . S
C320 H304 0.959 . S
C320 H305 0.959 . S
C320 H306 0.961 . S
C320 C319 1.502 . S
C321 H307 0.960 . S
C321 H308 0.961 . S
C321 H309 0.959 . S
C321 C319 1.561 . S
C322 C319 1.526 . S
C322 C323 1.396 . S
C322 C327 1.390 . S
C323 C317 1.465 . S
C323 C322 1.396 . S
C323 C324 1.399 . S
C324 H310 0.929 . S
C324 C323 1.399 . S
C324 C325 1.385 . S
C325 H311 0.931 . S
C325 C324 1.385 . S
C325 C326 1.389 . S
C326 C325 1.389 . S
C326 C327 1.387 . S
C327 H312 0.930 . S
C327 C322 1.390 . S
C327 C326 1.387 . S
H328 C340 0.930 . S
H329 C342 0.930 . S
H330 C343 0.930 . S
H331 C347 0.959 . S
H332 C347 0.959 . S
H333 C347 0.961 . S
H334 C348 0.960 . S
H335 C348 0.961 . S
H336 C348 0.959 . S
H337 C351 0.929 . S
H338 C352 0.931 . S
H339 C354 0.930 1_554 S
C340 H328 0.930 . S
C340 C341 1.399 . S
C340 C345 1.399 . S
C341 C340 1.399 . S
C341 C342 1.376 1_554 S
C342 H329 0.930 . S
C342 C341 1.376 1_556 S
C342 C343 1.388 . S
C343 H330 0.930 . S
C343 C342 1.388 . S
C343 C344 1.390 . S
C344 C343 1.390 . S
C344 C345 1.394 1_556 S
C344 C350 1.465 . S
C345 C340 1.399 . S
C345 C344 1.394 1_554 S
C345 C346 1.516 . S
C346 C345 1.516 . S
C346 C347 1.502 . S
C346 C348 1.561 1_554 S
C346 C349 1.526 1_554 S
C347 H331 0.959 . S
C347 H332 0.959 . S
C347 H333 0.961 . S
C347 C346 1.502 . S
C348 H334 0.960 . S
C348 H335 0.961 . S
C348 H336 0.959 . S
C348 C346 1.561 1_556 S
C349 C346 1.526 1_556 S
C349 C350 1.396 . S
C349 C354 1.390 . S
C350 C344 1.465 . S
C350 C349 1.396 . S
C350 C351 1.399 . S
C351 H337 0.929 . S
C351 C350 1.399 . S
C351 C352 1.385 . S
C352 H338 0.931 . S
C352 C351 1.385 . S
C352 C353 1.389 . S
C353 C352 1.389 . S
C353 C354 1.387 . S
C354 H339 0.930 1_556 S
C354 C349 1.390 . S
C354 C353 1.387 . S
H355 C367 0.930 . S
H356 C369 0.930 . S
H357 C370 0.930 . S
H358 C374 0.959 1_455 S
H359 C374 0.959 . S
H360 C374 0.961 1_455 S
H361 C375 0.960 . S
H362 C375 0.961 . S
H363 C375 0.959 . S
H364 C378 0.929 . S
H365 C379 0.931 . S
H366 C381 0.930 . S
C367 H355 0.930 . S
C367 C368 1.399 . S
C367 C372 1.399 . S
C368 C367 1.399 . S
C368 C369 1.376 1_554 S
C369 H356 0.930 . S
C369 C368 1.376 1_556 S
C369 C370 1.388 . S
C370 H357 0.930 . S
C370 C369 1.388 . S
C370 C371 1.390 . S
C371 C370 1.390 . S
C371 C372 1.394 1_556 S
C371 C377 1.465 1_455 S
C372 C367 1.399 . S
C372 C371 1.394 1_554 S
C372 C373 1.516 1_455 S
C373 C372 1.516 1_655 S
C373 C374 1.502 . S
C373 C375 1.561 . S
C373 C376 1.526 . S
C374 H358 0.959 1_655 S
C374 H359 0.959 . S
C374 H360 0.961 1_655 S
C374 C373 1.502 . S
C375 H361 0.960 . S
C375 H362 0.961 . S
C375 H363 0.959 . S
C375 C373 1.561 . S
C376 C373 1.526 . S
C376 C377 1.396 1_554 S
C376 C381 1.390 . S
C377 C371 1.465 1_655 S
C377 C376 1.396 1_556 S
C377 C378 1.399 . S
C378 H364 0.929 . S
C378 C377 1.399 . S
C378 C379 1.385 . S
C379 H365 0.931 . S
C379 C378 1.385 . S
C379 C380 1.389 . S
C380 C379 1.389 . S
C380 C381 1.387 1_556 S
C381 H366 0.930 . S
C381 C376 1.390 . S
C381 C380 1.387 1_554 S
H382 C394 0.930 . S
H383 C396 0.930 . S
H384 C397 0.930 . S
H385 C401 0.959 . S
H386 C401 0.959 . S
H387 C401 0.961 . S
H388 C402 0.960 . S
H389 C402 0.961 . S
H390 C402 0.959 . S
H391 C405 0.929 1_565 S
H392 C406 0.931 . S
H393 C408 0.930 . S
C394 H382 0.930 . S
C394 C395 1.399 . S
C394 C399 1.399 . S
C395 C394 1.399 . S
C395 C396 1.376 . S
C396 H383 0.930 . S
C396 C395 1.376 . S
C396 C397 1.388 . S
C397 H384 0.930 . S
C397 C396 1.388 . S
C397 C398 1.390 . S
C398 C397 1.390 . S
C398 C399 1.394 . S
C398 C404 1.465 1_565 S
C399 C394 1.399 . S
C399 C398 1.394 . S
C399 C400 1.516 1_565 S
C400 C399 1.516 1_545 S
C400 C401 1.502 . S
C400 C402 1.561 . S
C400 C403 1.526 . S
C401 H385 0.959 . S
C401 H386 0.959 . S
C401 H387 0.961 . S
C401 C400 1.502 . S
C402 H388 0.960 . S
C402 H389 0.961 . S
C402 H390 0.959 . S
C402 C400 1.561 . S
C403 C400 1.526 . S
C403 C404 1.396 . S
C403 C408 1.390 . S
C404 C398 1.465 1_545 S
C404 C403 1.396 . S
C404 C405 1.399 . S
C405 H391 0.929 1_545 S
C405 C404 1.399 . S
C405 C406 1.385 . S
C406 H392 0.931 . S
C406 C405 1.385 . S
C406 C407 1.389 . S
C407 C406 1.389 . S
C407 C408 1.387 . S
C408 H393 0.930 . S
C408 C403 1.390 . S
C408 C407 1.387 . S
H409 C421 0.930 . S
H410 C423 0.930 . S
H411 C424 0.930 1_455 S
H412 C428 0.959 . S
H413 C428 0.959 . S
H414 C428 0.961 . S
H415 C429 0.960 . S
H416 C429 0.961 1_465 S
H417 C429 0.959 1_455 S
H418 C432 0.929 . S
H419 C433 0.931 . S
H420 C435 0.930 . S
C421 H409 0.930 . S
C421 C422 1.399 . S
C421 C426 1.399 . S
C422 C421 1.399 . S
C422 C423 1.376 . S
C423 H410 0.930 . S
C423 C422 1.376 . S
C423 C424 1.388 . S
C424 H411 0.930 1_655 S
C424 C423 1.388 . S
C424 C425 1.390 . S
C425 C424 1.390 . S
C425 C426 1.394 . S
C425 C431 1.465 1_645 S
C426 C421 1.399 . S
C426 C425 1.394 . S
C426 C427 1.516 1_545 S
C427 C426 1.516 1_565 S
C427 C428 1.502 . S
C427 C429 1.561 1_565 S
C427 C430 1.526 1_655 S
C428 H412 0.959 . S
C428 H413 0.959 . S
C428 H414 0.961 . S
C428 C427 1.502 . S
C429 H415 0.960 . S
C429 H416 0.961 1_645 S
C429 H417 0.959 1_655 S
C429 C427 1.561 1_545 S
C430 C427 1.526 1_455 S
C430 C431 1.396 . S
C430 C435 1.390 . S
C431 C425 1.465 1_465 S
C431 C430 1.396 . S
C431 C432 1.399 . S
C432 H418 0.929 . S
C432 C431 1.399 . S
C432 C433 1.385 . S
C433 H419 0.931 . S
C433 C432 1.385 . S
C433 C434 1.389 . S
C434 C433 1.389 . S
C434 C435 1.387 . S
C435 H420 0.930 . S
C435 C430 1.390 . S
C435 C434 1.387 . S
H436 C448 0.930 . S
H437 C450 0.930 . S
H438 C451 0.930 . S
H439 C455 0.959 . S
H440 C455 0.959 . S
H441 C455 0.961 . S
H442 C456 0.960 . S
H443 C456 0.961 . S
H444 C456 0.959 . S
H445 C459 0.929 . S
H446 C460 0.931 . S
H447 C462 0.930 . S
C448 H436 0.930 . S
C448 C449 1.399 . S
C448 C453 1.399 . S
C449 C448 1.399 . S
C449 C450 1.376 1_554 S
C450 H437 0.930 . S
C450 C449 1.376 1_556 S
C450 C451 1.388 . S
C451 H438 0.930 . S
C451 C450 1.388 . S
C451 C452 1.390 1_556 S
C452 C451 1.390 1_554 S
C452 C453 1.394 . S
C452 C458 1.465 . S
C453 C448 1.399 . S
C453 C452 1.394 . S
C453 C454 1.516 . S
C454 C453 1.516 . S
C454 C455 1.502 . S
C454 C456 1.561 . S
C454 C457 1.526 . S
C455 H439 0.959 . S
C455 H440 0.959 . S
C455 H441 0.961 . S
C455 C454 1.502 . S
C456 H442 0.960 . S
C456 H443 0.961 . S
C456 H444 0.959 . S
C456 C454 1.561 . S
C457 C454 1.526 . S
C457 C458 1.396 . S
C457 C462 1.390 . S
C458 C452 1.465 . S
C458 C457 1.396 . S
C458 C459 1.399 1_554 S
C459 H445 0.929 . S
C459 C458 1.399 1_556 S
C459 C460 1.385 . S
C460 H446 0.931 . S
C460 C459 1.385 . S
C460 C461 1.389 1_556 S
C461 C460 1.389 1_554 S
C461 C462 1.387 . S
C462 H447 0.930 . S
C462 C457 1.390 . S
C462 C461 1.387 . S
H463 C475 0.930 . S
H464 C477 0.930 . S
H465 C478 0.930 . S
H466 C482 0.959 . S
H467 C482 0.959 . S
H468 C482 0.961 . S
H469 C483 0.960 . S
H470 C483 0.961 1_565 S
H471 C483 0.959 . S
H472 C486 0.929 1_545 S
H473 C487 0.931 . S
H474 C489 0.930 . S
C475 H463 0.930 . S
C475 C476 1.399 . S
C475 C480 1.399 . S
C476 C475 1.399 . S
C476 C477 1.376 . S
C477 H464 0.930 . S
C477 C476 1.376 . S
C477 C478 1.388 . S
C478 H465 0.930 . S
C478 C477 1.388 . S
C478 C479 1.390 . S
C479 C478 1.390 . S
C479 C480 1.394 . S
C479 C485 1.465 1_545 S
C480 C475 1.399 . S
C480 C479 1.394 . S
C480 C481 1.516 1_545 S
C481 C480 1.516 1_565 S
C481 C482 1.502 . S
C481 C483 1.561 1_565 S
C481 C484 1.526 . S
C482 H466 0.959 . S
C482 H467 0.959 . S
C482 H468 0.961 . S
C482 C481 1.502 . S
C483 H469 0.960 . S
C483 H470 0.961 1_545 S
C483 H471 0.959 . S
C483 C481 1.561 1_545 S
C484 C481 1.526 . S
C484 C485 1.396 . S
C484 C489 1.390 . S
C485 C479 1.465 1_565 S
C485 C484 1.396 . S
C485 C486 1.399 . S
C486 H472 0.929 1_565 S
C486 C485 1.399 . S
C486 C487 1.385 . S
C487 H473 0.931 . S
C487 C486 1.385 . S
C487 C488 1.389 . S
C488 C487 1.389 . S
C488 C489 1.387 . S
C489 H474 0.930 . S
C489 C484 1.390 . S
C489 C488 1.387 . S
H490 C502 0.930 . S
H491 C504 0.930 . S
H492 C505 0.930 . S
H493 C509 0.959 . S
H494 C509 0.959 . S
H495 C509 0.961 . S
H496 C510 0.960 . S
H497 C510 0.961 . S
H498 C510 0.950 1_554 S
H499 C513 0.929 . S
H500 C514 0.931 . S
H501 C516 0.930 . S
C502 H490 0.930 . S
C502 C503 1.399 . S
C502 C507 1.399 . S
C503 C502 1.399 . S
C503 C504 1.376 1_556 S
C504 H491 0.930 . S
C504 C503 1.376 1_554 S
C504 C505 1.388 . S
C505 H492 0.930 . S
C505 C504 1.388 . S
C505 C506 1.390 1_554 S
C506 C505 1.390 1_556 S
C506 C507 1.394 . S
C506 C512 1.465 . S
C507 C502 1.399 . S
C507 C506 1.394 . S
C507 C508 1.516 . S
C508 C507 1.516 . S
C508 C509 1.502 . S
C508 C510 1.561 . S
C508 C511 1.526 . S
C509 H493 0.959 . S
C509 H494 0.959 . S
C509 H495 0.961 . S
C509 C508 1.502 . S
C510 H496 0.960 . S
C510 H497 0.961 . S
C510 H498 0.950 1_556 S
C510 C508 1.561 . S
C511 C508 1.526 . S
C511 C512 1.396 . S
C511 C516 1.390 . S
C512 C506 1.465 . S
C512 C511 1.396 . S
C512 C513 1.399 1_556 S
C513 H499 0.929 . S
C513 C512 1.399 1_554 S
C513 C514 1.385 . S
C514 H500 0.931 . S
C514 C513 1.385 . S
C514 C515 1.389 1_554 S
C515 C514 1.389 1_556 S
C515 C516 1.387 . S
C516 H501 0.930 . S
C516 C511 1.390 . S
C516 C515 1.387 . S
H517 C529 0.930 . S
H518 C531 0.930 . S
H519 C532 0.930 . S
H520 C536 0.959 . S
H521 C536 0.959 . S
H522 C536 0.961 . S
H523 C537 0.960 1_565 S
H524 C537 0.961 . S
H525 C537 0.959 . S
H526 C540 0.929 . S
H527 C541 0.931 . S
H528 C543 0.930 . S
C529 H517 0.930 . S
C529 C530 1.399 . S
C529 C534 1.399 . S
C530 C529 1.399 . S
C530 C531 1.376 . S
C531 H518 0.930 . S
C531 C530 1.376 . S
C531 C532 1.388 . S
C532 H519 0.930 . S
C532 C531 1.388 . S
C532 C533 1.390 . S
C533 C532 1.390 . S
C533 C534 1.394 . S
C533 C539 1.465 1_565 S
C534 C529 1.399 . S
C534 C533 1.394 . S
C534 C535 1.516 . S
C535 C534 1.516 . S
C535 C536 1.502 . S
C535 C537 1.561 1_565 S
C535 C538 1.526 1_565 S
C536 H520 0.959 . S
C536 H521 0.959 . S
C536 H522 0.961 . S
C536 C535 1.502 . S
C537 H523 0.960 1_545 S
C537 H524 0.961 . S
C537 H525 0.959 . S
C537 C535 1.561 1_545 S
C538 C535 1.526 1_545 S
C538 C539 1.396 . S
C538 C543 1.390 . S
C539 C533 1.465 1_545 S
C539 C538 1.396 . S
C539 C540 1.399 . S
C540 H526 0.929 . S
C540 C539 1.399 . S
C540 C541 1.385 . S
C541 H527 0.931 . S
C541 C540 1.385 . S
C541 C542 1.389 . S
C542 C541 1.389 . S
C542 C543 1.387 . S
C543 H528 0.930 . S
C543 C538 1.390 . S
C543 C542 1.387 . S
C125 C5 1.583 . S
C137 C19 1.561 . S
C152 C47 1.609 . S
C164 C33 1.557 . S
C179 C61 1.559 . S
C191 C75 1.569 . S
C206 C89 1.563 . S
C218 C103 1.564 . S
C233 C0 1.621 . S
C245 C28 1.600 . S
C260 C42 1.611 . S
C272 C14 1.593 . S
C287 C56 1.593 . S
C299 C84 1.633 . S
C314 C98 1.590 . S
C326 C70 1.626 . S
C341 C11 1.419 . S
C353 C67 1.453 . S
C368 C25 1.448 . S
C380 C81 1.425 . S
C395 C95 1.462 . S
C407 C39 1.408 . S
C422 C109 1.449 . S
C434 C53 1.426 . S
C449 C23 0.978 . S
C461 C9 0.993 . S
C476 C37 0.966 . S
C488 C51 0.947 . S
C503 C65 0.985 . S
C515 C79 0.992 . S
C530 C93 0.948 . S
C542 C107 0.957 . S
