# Generated by pormake.
# Topology ilc, (8)-cn, num edge types: 1
# Building blocks:
#     Node 0, Type 0, BuildingBlock: TAGTUT_clean_sbu_3, # of connection points: 8
#     Node 1, Type 0, BuildingBlock: TAGTUT_clean_sbu_3, # of connection points: 8
#     Node 2, Type 0, BuildingBlock: TAGTUT_clean_sbu_3, # of connection points: 8
#     Edge 3, Type (0, 0), BuildingBlock: FUNLAD_clean_linker_1, # of connection points: 2
#     Edge 4, Type (0, 0), BuildingBlock: FUNLAD_clean_linker_1, # of connection points: 2
#     Edge 5, Type (0, 0), BuildingBlock: FUNLAD_clean_linker_1, # of connection points: 2
#     Edge 6, Type (0, 0), BuildingBlock: FUNLAD_clean_linker_1, # of connection points: 2
#     Edge 7, Type (0, 0), BuildingBlock: FUNLAD_clean_linker_1, # of connection points: 2
#     Edge 8, Type (0, 0), BuildingBlock: FUNLAD_clean_linker_1, # of connection points: 2
#     Edge 9, Type (0, 0), BuildingBlock: FUNLAD_clean_linker_1, # of connection points: 2
#     Edge 10, Type (0, 0), BuildingBlock: FUNLAD_clean_linker_1, # of connection points: 2
#     Edge 11, Type (0, 0), BuildingBlock: FUNLAD_clean_linker_1, # of connection points: 2
#     Edge 12, Type (0, 0), BuildingBlock: FUNLAD_clean_linker_1, # of connection points: 2
#     Edge 13, Type (0, 0), BuildingBlock: FUNLAD_clean_linker_1, # of connection points: 2
#     Edge 14, Type (0, 0), BuildingBlock: FUNLAD_clean_linker_1, # of connection points: 2
# Relax obj value: 0.195
# Max RMSD: 0.154
# Mean RMSD: 0.154
data_MOF--net-ilc--node1-TAGTUT_clean_sbu_3--edge1-FUNLAD_clean_linker_1
_symmetry_space_group_name_H-M    P1
_symmetry_Int_Tables_number       1
_symmetry_cell_setting            triclinic
loop_
_symmetry_equiv_pos_as_xyz
'x, y, z'
_cell_length_a     27.423376
_cell_length_b     27.464507
_cell_length_c     14.87016
_cell_angle_alpha  93.401918
_cell_angle_beta   86.986966
_cell_angle_gamma 133.61478
loop_
_atom_site_label
_atom_site_type_symbol
_atom_site_fract_x
_atom_site_fract_y
_atom_site_fract_z
_atom_type_partial_charge
C0 C 0.10757 0.13171 0.07736 0.0
C1 C 0.15739 0.08553 0.26046 0.0
C2 C 0.07936 0.90087 0.17087 0.0
Mg3 Mg 1.02392 0.09868 0.92105 0.0
Mg4 Mg 0.86981 0.95615 0.8626 0.0
O5 O 0.95621 0.99898 0.90261 0.0
Mg6 Mg 0.98289 0.97501 1.00214 0.0
O7 O 1.0218 0.95895 0.09223 0.0
Mg8 Mg 0.1252 0.02675 0.06245 0.0
Mg9 Mg 1.02213 0.96743 0.21474 0.0
C10 C 0.85572 0.83097 0.88815 0.0
O11 O 0.89324 0.93859 0.10347 0.0
O12 O 0.99813 0.10492 0.78314 0.0
O13 O 0.92486 0.93195 0.23585 0.0
O14 O 0.94199 0.09473 0.98423 0.0
O15 O 0.89961 1.00576 0.73506 0.0
O16 O 0.8406 0.99987 0.94705 0.0
O17 O 0.07705 1.00956 0.92157 0.0
O18 O 0.10146 0.0957 0.85606 0.0
C19 C 0.11215 0.05752 0.86596 0.0
C20 C 0.95291 0.06788 0.72339 0.0
O21 O 0.91053 0.86594 0.93371 0.0
O22 O 0.17111 0.05952 0.20422 0.0
O23 O 0.83078 0.85443 0.86481 0.0
O24 O 0.10317 0.93011 0.09394 0.0
O25 O 0.10257 0.07058 0.25378 0.0
O26 O 0.04984 0.91098 0.22769 0.0
O27 O 0.04603 0.08415 0.05712 0.0
O28 O 0.14781 0.12357 0.07152 0.0
C29 C 0.88378 0.06413 0.95398 0.0
C30 C 0.88311 0.92527 0.18806 0.0
C31 C 0.79816 0.48692 0.45123 0.0
C32 C 0.72624 0.36395 0.62441 0.0
C33 C 0.7346 0.22127 0.52653 0.0
Mg34 Mg 0.75574 0.47698 0.25644 0.0
Mg35 Mg 0.59307 0.31025 0.16523 0.0
O36 O 0.67443 0.36827 0.243 0.0
Mg37 Mg 0.68432 0.33714 0.35386 0.0
O38 O 0.70583 0.31637 0.46407 0.0
Mg39 Mg 0.81421 0.37911 0.45476 0.0
Mg40 Mg 0.63634 0.24631 0.549 0.0
C41 C 0.57016 0.19114 0.23391 0.0
O42 O 0.58089 0.29474 0.42048 0.0
O43 O 0.70337 0.38947 0.16427 0.0
O44 O 0.54409 0.20467 0.49254 0.0
O45 O 0.66852 0.47445 0.23979 0.0
O46 O 0.65139 0.33412 0.04071 0.0
O47 O 0.57484 0.37585 0.1756 0.0
O48 O 0.78657 0.37367 0.30471 0.0
O49 O 0.83427 0.47067 0.24259 0.0
C50 C 0.83406 0.42534 0.25881 0.0
C51 C 0.70631 0.3842 0.0786 0.0
O52 O 0.62267 0.22988 0.28396 0.0
O53 O 0.73231 0.35226 0.54212 0.0
O54 O 0.54261 0.20994 0.20326 0.0
O55 O 0.78244 0.27499 0.48223 0.0
O56 O 0.66909 0.31783 0.66123 0.0
O57 O 0.68 0.2052 0.55391 0.0
O58 O 0.74271 0.44549 0.40772 0.0
O59 O 0.83648 0.47647 0.45983 0.0
C60 C 0.61018 0.43741 0.20283 0.0
C61 C 0.53516 0.24132 0.46564 0.0
C62 C 0.41499 0.7926 0.79382 0.0
C63 C 0.34256 0.61982 0.94505 0.0
C64 C 0.41238 0.55381 0.78904 0.0
Mg65 Mg 0.38194 0.78778 0.59343 0.0
Mg66 Mg 0.26117 0.65207 0.4725 0.0
O67 O 0.32922 0.69171 0.55443 0.0
Mg68 Mg 0.33081 0.65337 0.66428 0.0
O69 O 0.34703 0.62766 0.77632 0.0
Mg70 Mg 0.45668 0.70539 0.78606 0.0
Mg71 Mg 0.28176 0.53237 0.81399 0.0
C72 C 0.25308 0.5318 0.49917 0.0
O73 O 0.21936 0.58997 0.71472 0.0
O74 O 0.39809 0.81677 0.44693 0.0
O75 O 0.18876 0.49475 0.75951 0.0
O76 O 0.28336 0.76817 0.59337 0.0
O77 O 0.3198 0.72228 0.36528 0.0
O78 O 0.19893 0.66608 0.53102 0.0
O79 O 0.43924 0.70756 0.63258 0.0
O80 O 0.4752 0.80137 0.57619 0.0
C81 C 0.48399 0.76244 0.59135 0.0
C82 C 0.37171 0.7856 0.37145 0.0
O83 O 0.28878 0.55822 0.5715 0.0
O84 O 0.35969 0.63814 0.86305 0.0
O85 O 0.2349 0.55748 0.45981 0.0
O86 O 0.45247 0.61763 0.77876 0.0
O87 O 0.28693 0.55975 0.95668 0.0
O88 O 0.34783 0.5137 0.79613 0.0
O89 O 0.36778 0.75163 0.73761 0.0
O90 O 0.45453 0.78604 0.81557 0.0
C91 C 0.22182 0.72141 0.56796 0.0
C92 C 0.17535 0.53026 0.74622 0.0
H93 H 1.02053 0.14896 0.63477 0.0
C94 C 0.97066 0.09849 0.6359 0.0
H95 H 0.8927 1.01203 0.56399 0.0
H96 H 0.21862 0.24852 0.43303 0.0
H97 H 0.21553 0.33358 0.46974 0.0
H98 H 0.10707 0.30228 0.49332 0.0
H99 H 1.00086 0.18381 0.48953 0.0
C100 C 0.94254 0.06209 0.55891 0.0
C101 C 0.98887 0.07726 0.48281 0.0
C102 C 0.04798 0.14497 0.46592 0.0
C103 C 0.10968 0.16271 0.44619 0.0
C104 C 0.16992 0.23176 0.44641 0.0
C105 C 0.16877 0.28121 0.46632 0.0
C106 C 0.10776 0.26359 0.47992 0.0
C107 C 0.04761 0.19612 0.47753 0.0
H108 H 0.24791 0.13961 0.34147 0.0
C109 C 0.19834 0.12219 0.34169 0.0
H110 H 0.21148 0.15923 0.47368 0.0
H111 H 0.87751 0.94246 0.4658 0.0
H112 H 0.87649 0.85472 0.42755 0.0
H113 H 0.98247 0.88377 0.38906 0.0
H114 H 0.08874 0.99909 0.39245 0.0
C115 C 0.17651 0.13142 0.41825 0.0
C116 C 0.11022 0.11162 0.43094 0.0
C117 C 0.04794 0.04282 0.43169 0.0
C118 C 0.98695 0.026 0.45454 0.0
C119 C 0.92544 0.95755 0.45298 0.0
C120 C 0.92404 0.90677 0.43012 0.0
C121 C 0.98359 0.92303 0.40875 0.0
C122 C 0.04476 0.9898 0.41139 0.0
H123 H 0.77186 0.42724 0.74489 0.0
C124 C 0.7841 0.41907 0.67867 0.0
H125 H 0.86099 0.4398 0.59388 0.0
H126 H 0.85242 0.56307 0.97153 0.0
H127 H 0.90512 0.66713 0.89798 0.0
H128 H 0.95326 0.68848 0.74384 0.0
H129 H 0.95141 0.60599 0.6638 0.0
C130 C 0.84871 0.45191 0.65627 0.0
C131 C 0.89918 0.48867 0.72859 0.0
C132 C 0.90523 0.53851 0.7754 0.0
C133 C 0.87545 0.5247 0.86248 0.0
C134 C 0.87444 0.57117 0.90527 0.0
C135 C 0.90442 0.63083 0.86354 0.0
C136 C 0.93198 0.64312 0.77678 0.0
C137 C 0.93117 0.5965 0.73192 0.0
H138 H 0.81169 0.48019 0.0662 0.0
C139 C 0.76939 0.43537 0.02937 0.0
H140 H 0.73588 0.37453 0.91243 0.0
H141 H 0.93328 0.41964 0.67558 0.0
H142 H 0.90454 0.32738 0.75849 0.0
H143 H 0.84454 0.29474 0.9051 0.0
H144 H 0.81481 0.35525 0.97202 0.0
C145 C 0.77781 0.42212 0.94569 0.0
C146 C 0.8442 0.46249 0.90018 0.0
C147 C 0.86186 0.42728 0.86504 0.0
C148 C 0.89501 0.44479 0.7803 0.0
C149 C 0.9097 0.40804 0.74177 0.0
C150 C 0.89285 0.35523 0.78789 0.0
C151 C 0.85871 0.33664 0.87054 0.0
C152 C 0.8422 0.37155 0.90839 0.0
H153 H 0.36344 0.65347 0.08556 0.0
C154 C 0.38744 0.66251 0.02002 0.0
H155 H 0.47815 0.72193 0.94384 0.0
H156 H 0.47084 0.77684 0.39199 0.0
H157 H 0.42458 0.66391 0.41403 0.0
H158 H 0.41558 0.59695 0.28569 0.0
H159 H 0.44864 0.64076 0.13389 0.0
C160 C 0.45482 0.71267 0.00964 0.0
C161 C 0.49577 0.76107 0.08584 0.0
C162 C 0.48088 0.73679 0.17383 0.0
C163 C 0.48686 0.77556 0.24715 0.0
C164 C 0.46687 0.74864 0.33407 0.0
C165 C 0.44101 0.68454 0.3475 0.0
C166 C 0.43544 0.64657 0.27518 0.0
C167 C 0.4547 0.67209 0.18895 0.0
H168 H 0.38612 0.79056 0.22662 0.0
C169 C 0.41173 0.81872 0.28895 0.0
H170 H 0.50536 0.8841 0.35393 0.0
H171 H 0.56573 0.83477 0.93569 0.0
H172 H 0.62337 0.95218 0.9182 0.0
H173 H 0.6243 1.01627 0.04287 0.0
H174 H 0.56819 0.96369 0.18684 0.0
C175 C 0.47887 0.85836 0.29127 0.0
C176 C 0.50616 0.83719 0.23052 0.0
C177 C 0.5361 0.8677 0.1471 0.0
C178 C 0.53364 0.83006 0.07476 0.0
C179 C 0.56544 0.86135 0.99206 0.0
C180 C 0.59886 0.92846 0.98161 0.0
C181 C 0.59914 0.96456 0.05184 0.0
C182 C 0.56684 0.93416 0.13353 0.0
H183 H 0.12838 0.70083 0.56755 0.0
C184 C 0.18221 0.73829 0.55317 0.0
H185 H 0.25938 0.81977 0.47292 0.0
H186 H 0.07604 0.75658 0.16266 0.0
H187 H 0.1166 0.70646 0.09958 0.0
H188 H 0.17493 0.68974 0.19334 0.0
H189 H 0.19843 0.72823 0.34989 0.0
C190 C 0.20721 0.78746 0.49589 0.0
C191 C 0.16316 0.7889 0.44357 0.0
C192 C 0.1518 0.76849 0.35112 0.0
C193 C 0.11756 0.77783 0.29678 0.0
C194 C 0.10439 0.75377 0.20604 0.0
C195 C 0.12606 0.72348 0.1693 0.0
C196 C 0.15944 0.71454 0.22205 0.0
C197 C 0.17271 0.73702 0.31174 0.0
H198 H 0.1423 0.87799 0.17622 0.0
C199 C 0.09705 0.86465 0.20385 0.0
H200 H 1.02 0.81267 0.30221 0.0
H201 H 0.16964 0.8256 0.62008 0.0
H202 H 0.12363 0.86943 0.68762 0.0
H203 H 0.06518 0.8868 0.59546 0.0
H204 H 0.05202 0.86073 0.43545 0.0
C205 C 0.06564 0.82584 0.27715 0.0
C206 C 0.09578 0.80902 0.33452 0.0
C207 C 0.10231 0.82414 0.42925 0.0
C208 C 0.13628 0.81431 0.48331 0.0
C209 C 0.14377 0.83151 0.57651 0.0
C210 C 0.11761 0.85668 0.61621 0.0
C211 C 0.0843 0.86606 0.56425 0.0
C212 C 0.07704 0.85063 0.47199 0.0
H213 H 0.23986 0.44196 0.49225 0.0
C214 C 0.23381 0.47052 0.45559 0.0
H215 H 0.20442 0.47986 0.33395 0.0
H216 H 0.23915 0.26782 0.2096 0.0
H217 H 0.35733 0.36009 0.24227 0.0
H218 H 0.3997 0.46768 0.30823 0.0
H219 H 0.32333 0.4825 0.34491 0.0
C220 C 0.21044 0.45116 0.37035 0.0
C221 C 0.1868 0.3886 0.32319 0.0
C222 C 0.23261 0.38206 0.29708 0.0
C223 C 0.20874 0.3214 0.25341 0.0
C224 C 0.25476 0.31404 0.23684 0.0
C225 C 0.32283 0.36644 0.25642 0.0
C226 C 0.34664 0.4269 0.29396 0.0
C227 C 0.30223 0.43473 0.31474 0.0
H228 H 0.17448 0.24212 0.07225 0.0
C229 C 0.13322 0.19758 0.10899 0.0
H230 H 0.07201 0.1582 0.22585 0.0
H231 H 0.08571 0.38544 0.36019 0.0
H232 H 0.9689 0.29684 0.31715 0.0
H233 H 0.92901 0.19529 0.23246 0.0
H234 H 1.00553 0.18143 0.19096 0.0
C235 C 0.11225 0.20342 0.18915 0.0
C236 C 0.13967 0.26911 0.23018 0.0
C237 C 0.09464 0.27729 0.25236 0.0
C238 C 0.11803 0.33667 0.29935 0.0
C239 C 0.07119 0.34219 0.32287 0.0
C240 C 1.00382 0.29154 0.29892 0.0
C241 C 0.98134 0.23431 0.25144 0.0
C242 C 0.02587 0.22694 0.22835 0.0
H243 H 0.52126 0.72443 0.50975 0.0
C244 C 0.53585 0.77035 0.53716 0.0
H245 H 0.6066 0.87472 0.53924 0.0
H246 H 0.72034 0.76405 0.25975 0.0
H247 H 0.69174 0.68934 0.37682 0.0
H248 H 0.64419 0.68851 0.52296 0.0
H249 H 0.62197 0.75947 0.55109 0.0
C250 C 0.59342 0.83044 0.50879 0.0
C251 C 0.63431 0.83901 0.42836 0.0
C252 C 0.65242 0.80133 0.41645 0.0
C253 C 0.68641 0.80694 0.33602 0.0
C254 C 0.69815 0.76428 0.32199 0.0
C255 C 0.6818 0.72113 0.38832 0.0
C256 C 0.65454 0.72028 0.47026 0.0
C257 C 0.64058 0.76027 0.48483 0.0
H258 H 0.82859 0.90841 0.31217 0.0
C259 C 0.82405 0.90446 0.23928 0.0
H260 H 0.75727 0.873 0.1344 0.0
H261 H 0.60891 0.92048 0.42503 0.0
H262 H 0.65262 1.00526 0.31793 0.0
H263 H 0.72105 0.02171 0.18679 0.0
H264 H 0.74627 0.95286 0.16291 0.0
C265 C 0.76503 0.87772 0.20645 0.0
C266 C 0.71065 0.8565 0.27284 0.0
C267 C 0.69405 0.89509 0.28494 0.0
C268 C 0.65539 0.88606 0.36187 0.0
C269 C 0.63999 0.92598 0.37084 0.0
C270 C 0.6644 0.97488 0.30901 0.0
C271 C 0.70283 0.98409 0.23513 0.0
C272 C 0.71706 0.94436 0.2224 0.0
H273 H 0.71009 0.15008 0.62161 0.0
C274 C 0.74589 0.18219 0.56803 0.0
H275 H 0.83708 0.22368 0.50466 0.0
H276 H 0.94442 0.22247 0.86848 0.0
H277 H 0.04042 0.32975 0.8057 0.0
H278 H 0.03446 0.36061 0.65749 0.0
H279 H 0.93221 0.28476 0.57174 0.0
C280 C 0.79989 0.19 0.55581 0.0
C281 C 0.81303 0.16057 0.62209 0.0
C282 C 0.87525 0.20328 0.66785 0.0
C283 C 0.8807 0.18308 0.75025 0.0
C284 C 0.93979 0.23162 0.8013 0.0
C285 C 0.99481 0.29438 0.76719 0.0
C286 C 0.99146 0.31179 0.6837 0.0
C287 C 0.93213 0.26756 0.63516 0.0
H288 H 0.92758 0.12869 0.83662 0.0
C289 C 0.8837 0.09825 0.8806 0.0
H290 H 0.78875 0.06262 0.91161 0.0
H291 H 0.69408 0.05915 0.53714 0.0
H292 H 0.59883 0.94995 0.59616 0.0
H293 H 0.60968 0.91136 0.73265 0.0
H294 H 0.71403 0.98362 0.81373 0.0
C295 C 0.83158 0.09186 0.86518 0.0
C296 C 0.82664 0.11653 0.78115 0.0
C297 C 0.76658 0.07161 0.73008 0.0
C298 C 0.76012 0.0934 0.65067 0.0
C299 C 0.70003 0.04686 0.60091 0.0
C300 C 0.64555 0.98324 0.63271 0.0
C301 C 0.65158 0.96176 0.70974 0.0
C302 C 0.71179 1.00445 0.75656 0.0
H303 H 0.87012 0.58779 0.51656 0.0
C304 C 0.81699 0.54551 0.50277 0.0
H305 H 0.71795 0.49702 0.54223 0.0
H306 H 0.77597 0.63489 0.92505 0.0
H307 H 0.707 0.51763 0.96039 0.0
H308 H 0.67795 0.43473 0.84211 0.0
H309 H 0.71385 0.46716 0.68707 0.0
C310 C 0.77115 0.54218 0.54905 0.0
C311 C 0.79146 0.59354 0.62166 0.0
C312 C 0.76882 0.57346 0.7122 0.0
C313 C 0.78786 0.62188 0.78161 0.0
C314 C 0.76357 0.60018 0.87054 0.0
C315 C 0.72422 0.53322 0.89168 0.0
C316 C 0.70777 0.48651 0.82501 0.0
C317 C 0.7288 0.50585 0.73612 0.0
H318 H 0.77447 0.73457 0.81744 0.0
C319 C 0.82287 0.76343 0.84922 0.0
H320 H 0.90592 0.7735 0.8596 0.0
H321 H 0.83711 0.64957 0.45522 0.0
H322 H 0.91538 0.76799 0.42436 0.0
H323 H 0.95867 0.85262 0.54882 0.0
H324 H 0.92161 0.81918 0.7015 0.0
C325 C 0.85548 0.74316 0.83396 0.0
C326 C 0.83224 0.69084 0.76178 0.0
C327 C 0.85611 0.71108 0.6721 0.0
C328 C 0.83404 0.66244 0.60165 0.0
C329 C 0.85491 0.68432 0.51203 0.0
C330 C 0.89928 0.75227 0.49317 0.0
C331 C 0.92314 0.79976 0.56256 0.0
C332 C 0.90169 0.77979 0.65072 0.0
H333 H 0.45961 0.24965 0.47061 0.0
C334 C 0.47375 0.22553 0.49952 0.0
H335 H 0.4556 0.16473 0.60307 0.0
H336 H 0.295 0.19324 0.8767 0.0
H337 H 0.40111 0.25914 0.9535 0.0
H338 H 0.49795 0.2838 0.87778 0.0
H339 H 0.49167 0.24859 0.72189 0.0
C340 C 0.43895 0.18566 0.57116 0.0
C341 C 0.38022 0.17118 0.61552 0.0
C342 C 0.38558 0.19463 0.70564 0.0
C343 C 0.3286 0.17746 0.75109 0.0
C344 C 0.33605 0.20315 0.83998 0.0
C345 C 0.39666 0.24106 0.88487 0.0
C346 C 0.45132 0.25526 0.84203 0.0
C347 C 0.44681 0.23419 0.75272 0.0
H348 H 0.18443 0.04662 0.83887 0.0
C349 C 0.17044 0.07307 0.81922 0.0
H350 H 0.19136 0.14321 0.73059 0.0
H351 H 0.34923 0.10652 0.45079 0.0
H352 H 0.23753 0.01918 0.3894 0.0
H353 H 0.13848 0.98322 0.47395 0.0
H354 H 0.14924 0.03782 0.61563 0.0
C355 C 0.20612 0.11818 0.75363 0.0
C356 C 0.26541 0.13407 0.70815 0.0
C357 C 0.25877 0.10574 0.62151 0.0
C358 C 0.31629 0.12498 0.57458 0.0
C359 C 0.30754 0.09408 0.4894 0.0
C360 C 0.24375 0.04378 0.45338 0.0
C361 C 0.18781 0.02404 0.50035 0.0
C362 C 0.19481 0.05539 0.58225 0.0
H363 H 0.62836 0.52729 0.1784 0.0
C364 C 0.59208 0.47291 0.16861 0.0
H365 H 0.5072 0.38877 0.09706 0.0
H366 H 0.53804 0.64739 0.00529 0.0
H367 H 0.55887 0.68083 0.16357 0.0
H368 H 0.5519 0.61233 0.27289 0.0
H369 H 0.53606 0.51683 0.22269 0.0
C370 C 0.54141 0.44274 0.10993 0.0
C371 C 0.53792 0.48093 0.04665 0.0
C372 C 0.53639 0.52965 0.07847 0.0
C373 C 0.53196 0.56402 0.01612 0.0
C374 C 0.53877 0.6179 0.04909 0.0
C375 C 0.54948 0.637 0.14021 0.0
C376 C 0.54697 0.59925 0.20166 0.0
C377 C 0.539 0.54518 0.17167 0.0
H378 H 0.40878 0.4743 0.82455 0.0
C379 C 0.44198 0.52839 0.81932 0.0
H380 H 0.53386 0.62391 0.86008 0.0
H381 H 0.55823 0.40516 0.95874 0.0
H382 H 0.56049 0.38863 0.79699 0.0
H383 H 0.54087 0.43923 0.6922 0.0
H384 H 0.52273 0.5105 0.74759 0.0
C385 C 0.50209 0.5699 0.86121 0.0
C386 C 0.52098 0.5441 0.92318 0.0
C387 C 0.52752 0.49935 0.89064 0.0
C388 C 0.53718 0.46871 0.95196 0.0
C389 C 0.54833 0.42803 0.91616 0.0
C390 C 0.54987 0.41808 0.8234 0.0
C391 C 0.53925 0.44698 0.76412 0.0
C392 C 0.52821 0.48721 0.79692 0.0
H393 H 0.41068 0.87089 0.7993 0.0
C394 C 0.42507 0.84929 0.83547 0.0
H395 H 0.45767 0.8457 0.95744 0.0
H396 H 0.6068 0.16197 1.00278 0.0
H397 H 0.67286 0.18148 0.86973 0.0
H398 H 0.64483 0.08642 0.78069 0.0
H399 H 0.55017 0.97147 0.82311 0.0
C400 C 0.45017 0.87244 0.91914 0.0
C401 C 0.46373 0.93001 0.96705 0.0
C402 C 0.51889 0.99705 0.94053 0.0
C403 C 0.53581 0.05201 0.99293 0.0
C404 C 0.59158 0.11841 0.96537 0.0
C405 C 0.63011 0.13035 0.88935 0.0
C406 C 0.61429 0.07684 0.83914 0.0
C407 C 0.55947 1.01094 0.86408 0.0
H408 H 0.56327 0.10538 0.23054 0.0
C409 C 0.54633 0.12606 0.19877 0.0
H410 H 0.49908 0.12088 0.08567 0.0
H411 H 0.35658 0.80838 0.0386 0.0
H412 H 0.29434 0.78953 0.1751 0.0
H413 H 0.32286 0.88438 0.26537 0.0
H414 H 0.41576 0.99949 0.2202 0.0
C415 C 0.51192 0.09756 0.12103 0.0
C416 C 0.49821 0.04011 0.07238 0.0
C417 C 0.44388 0.97326 0.09963 0.0
C418 C 0.42681 0.9183 0.04712 0.0
C419 C 0.37202 0.85207 0.07586 0.0
C420 C 0.33524 0.84043 0.15373 0.0
C421 C 0.35168 0.89391 0.20478 0.0
C422 C 0.40521 0.95969 0.17821 0.0
H423 H 0.08158 0.51056 0.75762 0.0
C424 C 0.1145 0.50934 0.79259 0.0
H425 H 0.14169 0.49938 0.91489 0.0
H426 H 0.95317 0.55717 0.07065 0.0
H427 H 1.01938 0.65367 0.97653 0.0
H428 H 0.10548 0.67728 0.87133 0.0
H429 H 0.12476 0.60388 0.85862 0.0
C430 C 0.1061 0.4978 0.88191 0.0
C431 C 0.05136 0.48285 0.94132 0.0
C432 C 0.04334 0.52879 0.95185 0.0
C433 C 0.99473 0.51606 0.01469 0.0
C434 C 0.98788 0.56287 0.02302 0.0
C435 C 0.02608 0.6191 0.96981 0.0
C436 C 0.07447 0.63235 0.91058 0.0
C437 C 0.08421 0.58881 0.90289 0.0
H438 H 0.91584 0.42546 0.25192 0.0
C439 C 0.88714 0.4308 0.21378 0.0
H440 H 0.86679 0.44533 0.09028 0.0
H441 H 0.05538 0.38597 0.94281 0.0
H442 H 0.98321 0.28483 0.029 0.0
H443 H 0.89429 0.25931 0.12992 0.0
H444 H 0.87817 0.33543 0.14673 0.0
C445 C 0.89848 0.44253 0.12467 0.0
C446 C 0.9544 0.45789 0.06825 0.0
C447 C 0.9618 0.41157 0.05695 0.0
C448 C 1.01128 0.42491 0.99527 0.0
C449 C 1.01831 0.37831 0.98727 0.0
C450 C 0.97701 0.31978 0.03626 0.0
C451 C 0.92713 0.30553 0.09331 0.0
C452 C 0.91904 0.35036 0.10324 0.0
loop_
_geom_bond_atom_site_label_1
_geom_bond_atom_site_label_2
_geom_bond_distance
_geom_bond_site_symmetry_2
_ccdc_geom_bond_type
C0 O27 1.312 . S
C0 O28 1.208 . S
C1 O22 1.331 1_565 S
C1 O25 1.244 1_455 S
C2 O24 1.264 . S
C2 O26 1.273 . S
Mg3 O5 1.936 1_455 S
Mg3 O12 2.081 . S
Mg3 O14 2.023 1_455 S
Mg3 O18 2.031 . S
Mg3 O27 2.291 1_556 S
Mg4 O5 1.963 1_565 S
Mg4 O15 1.942 . S
Mg4 O16 1.955 1_565 S
Mg4 O23 1.986 . S
O5 Mg3 1.936 1_655 S
O5 Mg4 1.963 1_545 S
O5 Mg6 1.915 1_546 S
Mg6 O5 1.915 1_564 S
Mg6 O7 1.915 1_655 S
Mg6 O11 2.013 . S
Mg6 O17 2.114 1_664 S
Mg6 O21 2.013 1_554 S
Mg6 O27 2.114 1_665 S
O7 Mg6 1.915 1_455 S
O7 Mg8 1.936 1_565 S
O7 Mg9 1.963 1_455 S
Mg8 O7 1.936 1_545 S
Mg8 O17 2.291 1_554 S
Mg8 O22 2.081 . S
Mg8 O24 2.023 1_545 S
Mg8 O28 2.031 . S
Mg9 O7 1.963 1_655 S
Mg9 O13 1.986 . S
Mg9 O25 1.942 . S
Mg9 O26 1.955 1_655 S
C10 O21 1.191 . S
C10 O23 1.307 . S
O11 Mg6 2.013 . S
O11 C30 1.191 . S
O12 Mg3 2.081 . S
O12 C20 1.331 1_455 S
O13 Mg9 1.986 . S
O13 C30 1.307 . S
O14 Mg3 2.023 1_655 S
O14 C29 1.264 . S
O15 Mg4 1.942 . S
O15 C20 1.244 1_565 S
O16 Mg4 1.955 1_545 S
O16 C29 1.273 . S
O17 Mg6 2.114 1_446 S
O17 Mg8 2.291 1_556 S
O17 C19 1.312 . S
O18 Mg3 2.031 . S
O18 C19 1.208 . S
C19 O17 1.312 . S
C19 O18 1.208 . S
C20 O12 1.331 1_655 S
C20 O15 1.244 1_545 S
O21 Mg6 2.013 1_556 S
O21 C10 1.191 . S
O22 C1 1.331 1_545 S
O22 Mg8 2.081 . S
O23 Mg4 1.986 . S
O23 C10 1.307 . S
O24 C2 1.264 . S
O24 Mg8 2.023 1_565 S
O25 C1 1.244 1_655 S
O25 Mg9 1.942 . S
O26 C2 1.273 . S
O26 Mg9 1.955 1_455 S
O27 C0 1.312 . S
O27 Mg3 2.291 1_554 S
O27 Mg6 2.114 1_445 S
O28 C0 1.208 . S
O28 Mg8 2.031 . S
C29 O14 1.264 . S
C29 O16 1.273 . S
C30 O11 1.191 . S
C30 O13 1.307 . S
C31 O58 1.312 . S
C31 O59 1.208 . S
C32 O53 1.331 . S
C32 O56 1.244 . S
C33 O55 1.264 . S
C33 O57 1.273 . S
Mg34 O36 1.936 . S
Mg34 O43 2.081 . S
Mg34 O45 2.023 . S
Mg34 O49 2.031 . S
Mg34 O58 2.291 . S
Mg35 O36 1.963 . S
Mg35 O46 1.942 . S
Mg35 O47 1.955 . S
Mg35 O54 1.986 . S
O36 Mg34 1.936 . S
O36 Mg35 1.963 . S
O36 Mg37 1.915 . S
Mg37 O36 1.915 . S
Mg37 O38 1.915 . S
Mg37 O42 2.013 . S
Mg37 O48 2.114 . S
Mg37 O52 2.013 . S
Mg37 O58 2.114 . S
O38 Mg37 1.915 . S
O38 Mg39 1.936 . S
O38 Mg40 1.963 . S
Mg39 O38 1.936 . S
Mg39 O48 2.291 . S
Mg39 O53 2.081 . S
Mg39 O55 2.023 . S
Mg39 O59 2.031 . S
Mg40 O38 1.963 . S
Mg40 O44 1.986 . S
Mg40 O56 1.942 . S
Mg40 O57 1.955 . S
C41 O52 1.191 . S
C41 O54 1.307 . S
O42 Mg37 2.013 . S
O42 C61 1.191 . S
O43 Mg34 2.081 . S
O43 C51 1.331 . S
O44 Mg40 1.986 . S
O44 C61 1.307 . S
O45 Mg34 2.023 . S
O45 C60 1.264 . S
O46 Mg35 1.942 . S
O46 C51 1.244 . S
O47 Mg35 1.955 . S
O47 C60 1.273 . S
O48 Mg37 2.114 . S
O48 Mg39 2.291 . S
O48 C50 1.312 . S
O49 Mg34 2.031 . S
O49 C50 1.208 . S
C50 O48 1.312 . S
C50 O49 1.208 . S
C51 O43 1.331 . S
C51 O46 1.244 . S
O52 Mg37 2.013 . S
O52 C41 1.191 . S
O53 C32 1.331 . S
O53 Mg39 2.081 . S
O54 Mg35 1.986 . S
O54 C41 1.307 . S
O55 C33 1.264 . S
O55 Mg39 2.023 . S
O56 C32 1.244 . S
O56 Mg40 1.942 . S
O57 C33 1.273 . S
O57 Mg40 1.955 . S
O58 C31 1.312 . S
O58 Mg34 2.291 . S
O58 Mg37 2.114 . S
O59 C31 1.208 . S
O59 Mg39 2.031 . S
C60 O45 1.264 . S
C60 O47 1.273 . S
C61 O42 1.191 . S
C61 O44 1.307 . S
C62 O89 1.312 . S
C62 O90 1.208 . S
C63 O84 1.331 . S
C63 O87 1.244 . S
C64 O86 1.264 . S
C64 O88 1.273 . S
Mg65 O67 1.936 . S
Mg65 O74 2.081 . S
Mg65 O76 2.023 . S
Mg65 O80 2.031 . S
Mg65 O89 2.291 . S
Mg66 O67 1.963 . S
Mg66 O77 1.942 . S
Mg66 O78 1.955 . S
Mg66 O85 1.986 . S
O67 Mg65 1.936 . S
O67 Mg66 1.963 . S
O67 Mg68 1.915 . S
Mg68 O67 1.915 . S
Mg68 O69 1.915 . S
Mg68 O73 2.013 . S
Mg68 O79 2.114 . S
Mg68 O83 2.013 . S
Mg68 O89 2.114 . S
O69 Mg68 1.915 . S
O69 Mg70 1.936 . S
O69 Mg71 1.963 . S
Mg70 O69 1.936 . S
Mg70 O79 2.291 . S
Mg70 O84 2.081 . S
Mg70 O86 2.023 . S
Mg70 O90 2.031 . S
Mg71 O69 1.963 . S
Mg71 O75 1.986 . S
Mg71 O87 1.942 . S
Mg71 O88 1.955 . S
C72 O83 1.191 . S
C72 O85 1.307 . S
O73 Mg68 2.013 . S
O73 C92 1.191 . S
O74 Mg65 2.081 . S
O74 C82 1.331 . S
O75 Mg71 1.986 . S
O75 C92 1.307 . S
O76 Mg65 2.023 . S
O76 C91 1.264 . S
O77 Mg66 1.942 . S
O77 C82 1.244 . S
O78 Mg66 1.955 . S
O78 C91 1.273 . S
O79 Mg68 2.114 . S
O79 Mg70 2.291 . S
O79 C81 1.312 . S
O80 Mg65 2.031 . S
O80 C81 1.208 . S
C81 O79 1.312 . S
C81 O80 1.208 . S
C82 O74 1.331 . S
C82 O77 1.244 . S
O83 Mg68 2.013 . S
O83 C72 1.191 . S
O84 C63 1.331 . S
O84 Mg70 2.081 . S
O85 Mg66 1.986 . S
O85 C72 1.307 . S
O86 C64 1.264 . S
O86 Mg70 2.023 . S
O87 C63 1.244 . S
O87 Mg71 1.942 . S
O88 C64 1.273 . S
O88 Mg71 1.955 . S
O89 C62 1.312 . S
O89 Mg65 2.291 . S
O89 Mg68 2.114 . S
O90 C62 1.208 . S
O90 Mg70 2.031 . S
C91 O76 1.264 . S
C91 O78 1.273 . S
C92 O73 1.191 . S
C92 O75 1.307 . S
H93 C94 0.951 . S
C94 H93 0.951 . S
C94 C100 1.265 1_455 S
H95 C100 0.950 . S
H96 C104 0.949 . S
H97 C105 0.950 . S
H98 C106 0.951 . S
H99 C107 0.951 . S
C100 C94 1.265 1_655 S
C100 H95 0.950 . S
C100 C101 1.483 . S
C101 C100 1.483 . S
C101 C102 1.399 1_655 S
C101 C118 1.387 1_545 S
C102 C101 1.399 1_455 S
C102 C103 1.438 . S
C102 C107 1.429 . S
C103 C102 1.438 . S
C103 C104 1.428 . S
C103 C116 1.394 . S
C104 H96 0.949 . S
C104 C103 1.428 . S
C104 C105 1.345 . S
C105 H97 0.950 . S
C105 C104 1.345 . S
C105 C106 1.424 . S
C106 H98 0.951 . S
C106 C105 1.424 . S
C106 C107 1.347 . S
C107 H99 0.951 . S
C107 C102 1.429 . S
C107 C106 1.347 . S
H108 C109 0.951 1_655 S
C109 H108 0.951 1_455 S
C109 C115 1.265 1_565 S
H110 C115 0.952 . S
H111 C119 0.949 . S
H112 C120 0.950 . S
H113 C121 0.951 . S
H114 C122 0.951 1_455 S
C115 C109 1.265 1_545 S
C115 H110 0.952 . S
C115 C116 1.478 . S
C116 C103 1.394 . S
C116 C115 1.478 . S
C116 C117 1.397 1_545 S
C117 C116 1.397 1_565 S
C117 C118 1.438 1_455 S
C117 C122 1.429 1_455 S
C118 C101 1.387 1_565 S
C118 C117 1.438 1_655 S
C118 C119 1.428 . S
C119 H111 0.949 . S
C119 C118 1.428 . S
C119 C120 1.345 . S
C120 H112 0.950 . S
C120 C119 1.345 . S
C120 C121 1.424 . S
C121 H113 0.951 . S
C121 C120 1.424 . S
C121 C122 1.347 . S
C122 H114 0.951 1_655 S
C122 C117 1.429 1_655 S
C122 C121 1.347 . S
H123 C124 0.951 . S
C124 H123 0.951 . S
C124 C130 1.265 . S
H125 C130 0.950 . S
H126 C134 0.949 . S
H127 C135 0.950 . S
H128 C136 0.951 . S
H129 C137 0.951 . S
C130 C124 1.265 . S
C130 H125 0.950 . S
C130 C131 1.478 . S
C131 C130 1.478 . S
C131 C132 1.397 . S
C131 C148 1.394 . S
C132 C131 1.397 . S
C132 C133 1.438 . S
C132 C137 1.429 . S
C133 C132 1.438 . S
C133 C134 1.428 . S
C133 C146 1.394 . S
C134 H126 0.949 . S
C134 C133 1.428 . S
C134 C135 1.345 . S
C135 H127 0.950 . S
C135 C134 1.345 . S
C135 C136 1.424 . S
C136 H128 0.951 . S
C136 C135 1.424 . S
C136 C137 1.347 . S
C137 H129 0.951 . S
C137 C132 1.429 . S
C137 C136 1.347 . S
H138 C139 0.951 . S
C139 H138 0.951 . S
C139 C145 1.265 . S
H140 C145 0.950 . S
H141 C149 0.949 . S
H142 C150 0.950 . S
H143 C151 0.951 . S
H144 C152 0.951 . S
C145 C139 1.265 . S
C145 H140 0.950 . S
C145 C146 1.478 1_554 S
C146 C133 1.394 . S
C146 C145 1.478 1_556 S
C146 C147 1.397 . S
C147 C146 1.397 . S
C147 C148 1.438 . S
C147 C152 1.429 . S
C148 C131 1.394 . S
C148 C147 1.438 . S
C148 C149 1.428 . S
C149 H141 0.949 . S
C149 C148 1.428 . S
C149 C150 1.345 . S
C150 H142 0.950 . S
C150 C149 1.345 . S
C150 C151 1.424 . S
C151 H143 0.951 . S
C151 C150 1.424 . S
C151 C152 1.347 . S
C152 H144 0.951 . S
C152 C147 1.429 . S
C152 C151 1.347 . S
H153 C154 0.951 . S
C154 H153 0.951 . S
C154 C160 1.265 . S
H155 C160 0.950 . S
H156 C164 0.949 . S
H157 C165 0.950 . S
H158 C166 0.951 . S
H159 C167 0.951 . S
C160 C154 1.265 . S
C160 H155 0.950 . S
C160 C161 1.478 1_556 S
C161 C160 1.478 1_554 S
C161 C162 1.397 . S
C161 C178 1.394 . S
C162 C161 1.397 . S
C162 C163 1.438 . S
C162 C167 1.429 . S
C163 C162 1.438 . S
C163 C164 1.428 . S
C163 C176 1.394 . S
C164 H156 0.949 . S
C164 C163 1.428 . S
C164 C165 1.345 . S
C165 H157 0.950 . S
C165 C164 1.345 . S
C165 C166 1.424 . S
C166 H158 0.951 . S
C166 C165 1.424 . S
C166 C167 1.347 . S
C167 H159 0.951 . S
C167 C162 1.429 . S
C167 C166 1.347 . S
H168 C169 0.951 . S
C169 H168 0.951 . S
C169 C175 1.265 . S
H170 C175 0.950 . S
H171 C179 0.949 1_556 S
H172 C180 0.950 . S
H173 C181 0.951 . S
H174 C182 0.951 . S
C175 C169 1.265 . S
C175 H170 0.950 . S
C175 C176 1.478 . S
C176 C163 1.394 . S
C176 C175 1.478 . S
C176 C177 1.397 . S
C177 C176 1.397 . S
C177 C178 1.438 . S
C177 C182 1.429 . S
C178 C161 1.394 . S
C178 C177 1.438 . S
C178 C179 1.428 . S
C179 H171 0.949 1_554 S
C179 C178 1.428 . S
C179 C180 1.345 . S
C180 H172 0.950 . S
C180 C179 1.345 . S
C180 C181 1.424 . S
C181 H173 0.951 . S
C181 C180 1.424 . S
C181 C182 1.347 . S
C182 H174 0.951 . S
C182 C177 1.429 . S
C182 C181 1.347 . S
H183 C184 0.951 . S
C184 H183 0.951 . S
C184 C190 1.265 . S
H185 C190 0.950 . S
H186 C194 0.949 . S
H187 C195 0.950 . S
H188 C196 0.951 . S
H189 C197 0.951 . S
C190 C184 1.265 . S
C190 H185 0.950 . S
C190 C191 1.478 . S
C191 C190 1.478 . S
C191 C192 1.397 . S
C191 C208 1.394 . S
C192 C191 1.397 . S
C192 C193 1.438 . S
C192 C197 1.429 . S
C193 C192 1.438 . S
C193 C194 1.428 . S
C193 C206 1.394 . S
C194 H186 0.949 . S
C194 C193 1.428 . S
C194 C195 1.345 . S
C195 H187 0.950 . S
C195 C194 1.345 . S
C195 C196 1.424 . S
C196 H188 0.951 . S
C196 C195 1.424 . S
C196 C197 1.347 . S
C197 H189 0.951 . S
C197 C192 1.429 . S
C197 C196 1.347 . S
H198 C199 0.951 . S
C199 H198 0.951 . S
C199 C205 1.265 . S
H200 C205 0.950 . S
H201 C209 0.949 . S
H202 C210 0.950 . S
H203 C211 0.951 . S
H204 C212 0.951 . S
C205 C199 1.265 . S
C205 H200 0.950 . S
C205 C206 1.478 . S
C206 C193 1.394 . S
C206 C205 1.478 . S
C206 C207 1.397 . S
C207 C206 1.397 . S
C207 C208 1.438 . S
C207 C212 1.429 . S
C208 C191 1.394 . S
C208 C207 1.438 . S
C208 C209 1.428 . S
C209 H201 0.949 . S
C209 C208 1.428 . S
C209 C210 1.345 . S
C210 H202 0.950 . S
C210 C209 1.345 . S
C210 C211 1.424 . S
C211 H203 0.951 . S
C211 C210 1.424 . S
C211 C212 1.347 . S
C212 H204 0.951 . S
C212 C207 1.429 . S
C212 C211 1.347 . S
H213 C214 0.951 . S
C214 H213 0.951 . S
C214 C220 1.265 . S
H215 C220 0.950 . S
H216 C224 0.949 . S
H217 C225 0.950 . S
H218 C226 0.951 . S
H219 C227 0.951 . S
C220 C214 1.265 . S
C220 H215 0.950 . S
C220 C221 1.478 . S
C221 C220 1.478 . S
C221 C222 1.397 . S
C221 C238 1.394 . S
C222 C221 1.397 . S
C222 C223 1.438 . S
C222 C227 1.429 . S
C223 C222 1.438 . S
C223 C224 1.428 . S
C223 C236 1.394 . S
C224 H216 0.949 . S
C224 C223 1.428 . S
C224 C225 1.345 . S
C225 H217 0.950 . S
C225 C224 1.345 . S
C225 C226 1.424 . S
C226 H218 0.951 . S
C226 C225 1.424 . S
C226 C227 1.347 . S
C227 H219 0.951 . S
C227 C222 1.429 . S
C227 C226 1.347 . S
H228 C229 0.951 . S
C229 H228 0.951 . S
C229 C235 1.265 . S
H230 C235 0.950 . S
H231 C239 0.949 . S
H232 C240 0.950 . S
H233 C241 0.951 . S
H234 C242 0.951 . S
C235 C229 1.265 . S
C235 H230 0.950 . S
C235 C236 1.478 . S
C236 C223 1.394 . S
C236 C235 1.478 . S
C236 C237 1.397 . S
C237 C236 1.397 . S
C237 C238 1.438 . S
C237 C242 1.429 . S
C238 C221 1.394 . S
C238 C237 1.438 . S
C238 C239 1.428 . S
C239 H231 0.949 . S
C239 C238 1.428 . S
C239 C240 1.345 . S
C240 H232 0.950 . S
C240 C239 1.345 . S
C240 C241 1.424 . S
C241 H233 0.951 . S
C241 C240 1.424 . S
C241 C242 1.347 . S
C242 H234 0.951 . S
C242 C237 1.429 . S
C242 C241 1.347 . S
H243 C244 0.951 . S
C244 H243 0.951 . S
C244 C250 1.265 . S
H245 C250 0.950 . S
H246 C254 0.949 . S
H247 C255 0.950 . S
H248 C256 0.951 . S
H249 C257 0.951 . S
C250 C244 1.265 . S
C250 H245 0.950 . S
C250 C251 1.478 . S
C251 C250 1.478 . S
C251 C252 1.397 . S
C251 C268 1.394 . S
C252 C251 1.397 . S
C252 C253 1.438 . S
C252 C257 1.429 . S
C253 C252 1.438 . S
C253 C254 1.428 . S
C253 C266 1.394 . S
C254 H246 0.949 . S
C254 C253 1.428 . S
C254 C255 1.345 . S
C255 H247 0.950 . S
C255 C254 1.345 . S
C255 C256 1.424 . S
C256 H248 0.951 . S
C256 C255 1.424 . S
C256 C257 1.347 . S
C257 H249 0.951 . S
C257 C252 1.429 . S
C257 C256 1.347 . S
H258 C259 0.951 . S
C259 H258 0.951 . S
C259 C265 1.265 . S
H260 C265 0.950 . S
H261 C269 0.949 . S
H262 C270 0.950 . S
H263 C271 0.951 . S
H264 C272 0.951 . S
C265 C259 1.265 . S
C265 H260 0.950 . S
C265 C266 1.478 . S
C266 C253 1.394 . S
C266 C265 1.478 . S
C266 C267 1.397 . S
C267 C266 1.397 . S
C267 C268 1.438 . S
C267 C272 1.429 . S
C268 C251 1.394 . S
C268 C267 1.438 . S
C268 C269 1.428 . S
C269 H261 0.949 . S
C269 C268 1.428 . S
C269 C270 1.345 . S
C270 H262 0.950 . S
C270 C269 1.345 . S
C270 C271 1.424 . S
C271 H263 0.951 . S
C271 C270 1.424 . S
C271 C272 1.347 . S
C272 H264 0.951 . S
C272 C267 1.429 . S
C272 C271 1.347 . S
H273 C274 0.951 . S
C274 H273 0.951 . S
C274 C280 1.265 . S
H275 C280 0.950 . S
H276 C284 0.949 . S
H277 C285 0.950 1_455 S
H278 C286 0.951 1_455 S
H279 C287 0.951 . S
C280 C274 1.265 . S
C280 H275 0.950 . S
C280 C281 1.478 . S
C281 C280 1.478 . S
C281 C282 1.397 . S
C281 C298 1.394 . S
C282 C281 1.397 . S
C282 C283 1.438 . S
C282 C287 1.429 . S
C283 C282 1.438 . S
C283 C284 1.428 . S
C283 C296 1.394 . S
C284 H276 0.949 . S
C284 C283 1.428 . S
C284 C285 1.345 . S
C285 H277 0.950 1_655 S
C285 C284 1.345 . S
C285 C286 1.424 . S
C286 H278 0.951 1_655 S
C286 C285 1.424 . S
C286 C287 1.347 . S
C287 H279 0.951 . S
C287 C282 1.429 . S
C287 C286 1.347 . S
H288 C289 0.951 . S
C289 H288 0.951 . S
C289 C295 1.265 . S
H290 C295 0.950 . S
H291 C299 0.949 . S
H292 C300 0.950 1_565 S
H293 C301 0.951 . S
H294 C302 0.951 . S
C295 C289 1.265 . S
C295 H290 0.950 . S
C295 C296 1.478 . S
C296 C283 1.394 . S
C296 C295 1.478 . S
C296 C297 1.397 . S
C297 C296 1.397 . S
C297 C298 1.438 . S
C297 C302 1.429 . S
C298 C281 1.394 . S
C298 C297 1.438 . S
C298 C299 1.428 . S
C299 H291 0.949 . S
C299 C298 1.428 . S
C299 C300 1.345 . S
C300 H292 0.950 1_545 S
C300 C299 1.345 . S
C300 C301 1.424 1_545 S
C301 H293 0.951 . S
C301 C300 1.424 1_565 S
C301 C302 1.347 1_565 S
C302 H294 0.951 . S
C302 C297 1.429 . S
C302 C301 1.347 1_545 S
H303 C304 0.951 . S
C304 H303 0.951 . S
C304 C310 1.265 . S
H305 C310 0.950 . S
H306 C314 0.949 . S
H307 C315 0.950 . S
H308 C316 0.951 . S
H309 C317 0.951 . S
C310 C304 1.265 . S
C310 H305 0.950 . S
C310 C311 1.478 . S
C311 C310 1.478 . S
C311 C312 1.397 . S
C311 C328 1.394 . S
C312 C311 1.397 . S
C312 C313 1.438 . S
C312 C317 1.429 . S
C313 C312 1.438 . S
C313 C314 1.428 . S
C313 C326 1.394 . S
C314 H306 0.949 . S
C314 C313 1.428 . S
C314 C315 1.345 . S
C315 H307 0.950 . S
C315 C314 1.345 . S
C315 C316 1.424 . S
C316 H308 0.951 . S
C316 C315 1.424 . S
C316 C317 1.347 . S
C317 H309 0.951 . S
C317 C312 1.429 . S
C317 C316 1.347 . S
H318 C319 0.951 . S
C319 H318 0.951 . S
C319 C325 1.265 . S
H320 C325 0.950 . S
H321 C329 0.949 . S
H322 C330 0.950 . S
H323 C331 0.951 1_455 S
H324 C332 0.951 . S
C325 C319 1.265 . S
C325 H320 0.950 . S
C325 C326 1.478 . S
C326 C313 1.394 . S
C326 C325 1.478 . S
C326 C327 1.397 . S
C327 C326 1.397 . S
C327 C328 1.438 . S
C327 C332 1.429 . S
C328 C311 1.394 . S
C328 C327 1.438 . S
C328 C329 1.428 . S
C329 H321 0.949 . S
C329 C328 1.428 . S
C329 C330 1.345 . S
C330 H322 0.950 . S
C330 C329 1.345 . S
C330 C331 1.424 . S
C331 H323 0.951 1_655 S
C331 C330 1.424 . S
C331 C332 1.347 . S
C332 H324 0.951 . S
C332 C327 1.429 . S
C332 C331 1.347 . S
H333 C334 0.951 . S
C334 H333 0.951 . S
C334 C340 1.265 . S
H335 C340 0.950 . S
H336 C344 0.949 . S
H337 C345 0.950 . S
H338 C346 0.951 . S
H339 C347 0.951 . S
C340 C334 1.265 . S
C340 H335 0.950 . S
C340 C341 1.478 . S
C341 C340 1.478 . S
C341 C342 1.397 . S
C341 C358 1.394 . S
C342 C341 1.397 . S
C342 C343 1.438 . S
C342 C347 1.429 . S
C343 C342 1.438 . S
C343 C344 1.428 . S
C343 C356 1.394 . S
C344 H336 0.949 . S
C344 C343 1.428 . S
C344 C345 1.345 . S
C345 H337 0.950 . S
C345 C344 1.345 . S
C345 C346 1.424 . S
C346 H338 0.951 . S
C346 C345 1.424 . S
C346 C347 1.347 . S
C347 H339 0.951 . S
C347 C342 1.429 . S
C347 C346 1.347 . S
H348 C349 0.951 . S
C349 H348 0.951 . S
C349 C355 1.265 . S
H350 C355 0.950 . S
H351 C359 0.949 . S
H352 C360 0.950 . S
H353 C361 0.951 . S
H354 C362 0.951 . S
C355 C349 1.265 . S
C355 H350 0.950 . S
C355 C356 1.478 . S
C356 C343 1.394 . S
C356 C355 1.478 . S
C356 C357 1.397 . S
C357 C356 1.397 . S
C357 C358 1.438 . S
C357 C362 1.429 . S
C358 C341 1.394 . S
C358 C357 1.438 . S
C358 C359 1.428 . S
C359 H351 0.949 . S
C359 C358 1.428 . S
C359 C360 1.345 . S
C360 H352 0.950 . S
C360 C359 1.345 . S
C360 C361 1.424 . S
C361 H353 0.951 . S
C361 C360 1.424 . S
C361 C362 1.347 . S
C362 H354 0.951 . S
C362 C357 1.429 . S
C362 C361 1.347 . S
H363 C364 0.951 . S
C364 H363 0.951 . S
C364 C370 1.265 . S
H365 C370 0.950 . S
H366 C374 0.949 1_556 S
H367 C375 0.950 . S
H368 C376 0.951 . S
H369 C377 0.951 . S
C370 C364 1.265 . S
C370 H365 0.950 . S
C370 C371 1.478 . S
C371 C370 1.478 . S
C371 C372 1.397 . S
C371 C388 1.394 1_554 S
C372 C371 1.397 . S
C372 C373 1.438 . S
C372 C377 1.429 . S
C373 C372 1.438 . S
C373 C374 1.428 . S
C373 C386 1.394 1_554 S
C374 H366 0.949 1_554 S
C374 C373 1.428 . S
C374 C375 1.345 . S
C375 H367 0.950 . S
C375 C374 1.345 . S
C375 C376 1.424 . S
C376 H368 0.951 . S
C376 C375 1.424 . S
C376 C377 1.347 . S
C377 H369 0.951 . S
C377 C372 1.429 . S
C377 C376 1.347 . S
H378 C379 0.951 . S
C379 H378 0.951 . S
C379 C385 1.265 . S
H380 C385 0.950 . S
H381 C389 0.949 1_554 S
H382 C390 0.950 . S
H383 C391 0.951 . S
H384 C392 0.951 . S
C385 C379 1.265 . S
C385 H380 0.950 . S
C385 C386 1.478 . S
C386 C373 1.394 1_556 S
C386 C385 1.478 . S
C386 C387 1.397 . S
C387 C386 1.397 . S
C387 C388 1.438 . S
C387 C392 1.429 . S
C388 C371 1.394 1_556 S
C388 C387 1.438 . S
C388 C389 1.428 . S
C389 H381 0.949 1_556 S
C389 C388 1.428 . S
C389 C390 1.345 . S
C390 H382 0.950 . S
C390 C389 1.345 . S
C390 C391 1.424 . S
C391 H383 0.951 . S
C391 C390 1.424 . S
C391 C392 1.347 . S
C392 H384 0.951 . S
C392 C387 1.429 . S
C392 C391 1.347 . S
H393 C394 0.951 . S
C394 H393 0.951 . S
C394 C400 1.265 . S
H395 C400 0.950 . S
H396 C404 0.949 1_554 S
H397 C405 0.950 . S
H398 C406 0.951 . S
H399 C407 0.951 1_565 S
C400 C394 1.265 . S
C400 H395 0.950 . S
C400 C401 1.478 . S
C401 C400 1.478 . S
C401 C402 1.397 1_565 S
C401 C418 1.390 1_556 S
C402 C401 1.397 1_545 S
C402 C403 1.438 . S
C402 C407 1.429 . S
C403 C402 1.438 . S
C403 C404 1.428 . S
C403 C416 1.394 1_556 S
C404 H396 0.949 1_556 S
C404 C403 1.428 . S
C404 C405 1.345 . S
C405 H397 0.950 . S
C405 C404 1.345 . S
C405 C406 1.424 . S
C406 H398 0.951 . S
C406 C405 1.424 . S
C406 C407 1.347 . S
C407 H399 0.951 1_545 S
C407 C402 1.429 . S
C407 C406 1.347 . S
H408 C409 0.951 . S
C409 H408 0.951 . S
C409 C415 1.265 . S
H410 C415 0.950 . S
H411 C419 0.949 1_556 S
H412 C420 0.950 . S
H413 C421 0.951 . S
H414 C422 0.951 1_545 S
C415 C409 1.265 . S
C415 H410 0.950 . S
C415 C416 1.478 . S
C416 C403 1.394 1_554 S
C416 C415 1.478 . S
C416 C417 1.397 1_545 S
C417 C416 1.397 1_565 S
C417 C418 1.441 . S
C417 C422 1.429 . S
C418 C401 1.390 1_554 S
C418 C417 1.441 . S
C418 C419 1.428 . S
C419 H411 0.949 1_554 S
C419 C418 1.428 . S
C419 C420 1.345 . S
C420 H412 0.950 . S
C420 C419 1.345 . S
C420 C421 1.424 . S
C421 H413 0.951 . S
C421 C420 1.424 . S
C421 C422 1.347 . S
C422 H414 0.951 1_565 S
C422 C417 1.429 . S
C422 C421 1.347 . S
H423 C424 0.951 . S
C424 H423 0.951 . S
C424 C430 1.265 . S
H425 C430 0.950 . S
H426 C434 0.949 1_655 S
H427 C435 0.950 . S
H428 C436 0.951 . S
H429 C437 0.951 . S
C430 C424 1.265 . S
C430 H425 0.950 . S
C430 C431 1.478 . S
C431 C430 1.478 . S
C431 C432 1.397 1_556 S
C431 C448 1.394 1_455 S
C432 C431 1.397 1_554 S
C432 C433 1.438 . S
C432 C437 1.429 . S
C433 C432 1.438 . S
C433 C434 1.428 . S
C433 C446 1.394 1_455 S
C434 H426 0.949 1_455 S
C434 C433 1.428 . S
C434 C435 1.345 . S
C435 H427 0.950 . S
C435 C434 1.345 . S
C435 C436 1.424 . S
C436 H428 0.951 . S
C436 C435 1.424 . S
C436 C437 1.347 . S
C437 H429 0.951 . S
C437 C432 1.429 . S
C437 C436 1.347 . S
H438 C439 0.951 . S
C439 H438 0.951 . S
C439 C445 1.265 . S
H440 C445 0.950 . S
H441 C449 0.949 1_455 S
H442 C450 0.950 . S
H443 C451 0.951 . S
H444 C452 0.951 . S
C445 C439 1.265 . S
C445 H440 0.950 . S
C445 C446 1.478 . S
C446 C433 1.394 1_655 S
C446 C445 1.478 . S
C446 C447 1.397 1_554 S
C447 C446 1.397 1_556 S
C447 C448 1.438 . S
C447 C452 1.429 . S
C448 C431 1.394 1_655 S
C448 C447 1.438 . S
C448 C449 1.428 . S
C449 H441 0.949 1_655 S
C449 C448 1.428 . S
C449 C450 1.345 . S
C450 H442 0.950 . S
C450 C449 1.345 . S
C450 C451 1.424 . S
C451 H443 0.951 . S
C451 C450 1.424 . S
C451 C452 1.347 . S
C452 H444 0.951 . S
C452 C447 1.429 . S
C452 C451 1.347 . S
C94 C20 1.027 1_455 S
C109 C1 1.011 . S
C124 C32 1.007 . S
C139 C51 1.028 . S
C154 C63 0.993 . S
C169 C82 0.975 . S
C184 C91 2.225 . S
C199 C2 2.220 . S
C214 C72 1.851 . S
C229 C0 1.826 . S
C244 C81 1.837 . S
C259 C30 1.847 . S
C274 C33 2.151 . S
C289 C29 2.148 . S
C304 C31 1.826 . S
C319 C10 1.851 . S
C334 C61 1.906 . S
C349 C19 1.900 . S
C364 C60 2.150 . S
C379 C64 2.155 . S
C394 C62 1.867 . S
C409 C41 1.872 . S
C424 C92 1.920 . S
C439 C50 1.904 . S
