# Generated by pormake.
# Topology uni, (4)-cn, num edge types: 1
# Building blocks:
#     Node 0, Type 0, BuildingBlock: QUQFOY_clean_sbu_1, # of connection points: 4
#     Node 1, Type 0, BuildingBlock: QUQFOY_clean_sbu_1, # of connection points: 4
#     Node 2, Type 0, BuildingBlock: QUQFOY_clean_sbu_1, # of connection points: 4
#     Node 3, Type 0, BuildingBlock: QUQFOY_clean_sbu_1, # of connection points: 4
#     Node 4, Type 0, BuildingBlock: QUQFOY_clean_sbu_1, # of connection points: 4
#     Node 5, Type 0, BuildingBlock: QUQFOY_clean_sbu_1, # of connection points: 4
#     Edge 6, Type (0, 0), BuildingBlock: FUNLAD_clean_linker_0, # of connection points: 2
#     Edge 7, Type (0, 0), BuildingBlock: FUNLAD_clean_linker_0, # of connection points: 2
#     Edge 8, Type (0, 0), BuildingBlock: FUNLAD_clean_linker_0, # of connection points: 2
#     Edge 9, Type (0, 0), BuildingBlock: FUNLAD_clean_linker_0, # of connection points: 2
#     Edge 10, Type (0, 0), BuildingBlock: FUNLAD_clean_linker_0, # of connection points: 2
#     Edge 11, Type (0, 0), BuildingBlock: FUNLAD_clean_linker_0, # of connection points: 2
#     Edge 12, Type (0, 0), BuildingBlock: FUNLAD_clean_linker_0, # of connection points: 2
#     Edge 13, Type (0, 0), BuildingBlock: FUNLAD_clean_linker_0, # of connection points: 2
#     Edge 14, Type (0, 0), BuildingBlock: FUNLAD_clean_linker_0, # of connection points: 2
#     Edge 15, Type (0, 0), BuildingBlock: FUNLAD_clean_linker_0, # of connection points: 2
#     Edge 16, Type (0, 0), BuildingBlock: FUNLAD_clean_linker_0, # of connection points: 2
#     Edge 17, Type (0, 0), BuildingBlock: FUNLAD_clean_linker_0, # of connection points: 2
# Relax obj value: 0.073
# Max RMSD: 0.155
# Mean RMSD: 0.155
data_MOF--net-uni--node1-QUQFOY_clean_sbu_1--edge1-FUNLAD_clean_linker_0
_symmetry_space_group_name_H-M    P1
_symmetry_Int_Tables_number       1
_symmetry_cell_setting            triclinic
loop_
_symmetry_equiv_pos_as_xyz
'x, y, z'
_cell_length_a     49.169696
_cell_length_b     48.865029
_cell_length_c     26.094655
_cell_angle_alpha  89.87442
_cell_angle_beta   90.118603
_cell_angle_gamma 120.02695
loop_
_atom_site_label
_atom_site_type_symbol
_atom_site_fract_x
_atom_site_fract_y
_atom_site_fract_z
_atom_type_partial_charge
O0 O 0.62686 0.0512 0.00081 0.0
Cd1 Cd 0.66049 0.06205 0.05633 0.0
Cd2 Cd 0.62992 0.99702 0.05834 0.0
O3 O 0.6114 1.0008 -0.01072 0.0
O4 O 0.68619 0.10856 0.0473 0.0
O5 O 0.70583 0.07706 0.03722 0.0
C6 C 0.70975 0.10522 0.03558 0.0
C7 C 0.64172 0.95643 0.06912 0.0
C8 C 0.61062 0.02551 0.97663 0.0
C9 C 0.62155 0.03211 0.14741 0.0
O10 O 0.6117 1.00633 0.12308 0.0
O11 O 0.64423 0.05759 0.12994 0.0
O12 O 0.61329 0.95077 0.06485 0.0
O13 O 0.66403 0.98548 0.0657 0.0
O14 O 0.60687 0.63199 0.15511 0.0
Cd15 Cd 0.62339 0.65972 0.21968 0.0
Cd16 Cd 0.65943 0.62836 0.22442 0.0
O17 O 0.63706 0.61043 0.15531 0.0
O18 O 0.60397 0.68683 0.21409 0.0
O19 O 0.6553 0.70635 0.21232 0.0
C20 C 0.6317 0.71104 0.20994 0.0
C21 C 0.70949 0.63433 0.23581 0.0
C22 C 0.61549 0.61391 0.13491 0.0
C23 C 0.61275 0.6174 0.30974 0.0
O24 O 0.63245 0.61117 0.28938 0.0
O25 O 0.60648 0.63716 0.28907 0.0
O26 O 0.68468 0.60709 0.23102 0.0
O27 O 0.70631 0.65893 0.23212 0.0
O28 O 0.00986 0.61598 0.31744 0.0
Cd29 Cd 0.99703 0.63232 0.3803 0.0
Cd30 Cd 0.06277 0.66182 0.39547 0.0
O31 O 0.06137 0.641 0.32613 0.0
O32 O 0.95167 0.61447 0.36533 0.0
O33 O 0.98436 0.66577 0.37149 0.0
C34 C 0.95635 0.64278 0.36243 0.0
C35 C 0.10553 0.71234 0.41102 0.0
C36 C 0.03672 0.62211 0.30154 0.0
C37 C 0.01963 0.61411 0.47429 0.0
O38 O 0.04737 0.63232 0.45822 0.0
O39 O 0.99612 0.61174 0.44998 0.0
O40 O 0.10863 0.68775 0.40852 0.0
O41 O 0.07784 0.70851 0.40387 0.0
O42 O 0.41653 1.00211 0.48688 0.0
Cd43 Cd 0.39168 0.99749 0.55318 0.0
Cd44 Cd 0.42512 0.0599 0.54788 0.0
O45 O 0.43647 0.05325 0.47509 0.0
O46 O 0.36075 0.9515 0.5545 0.0
O47 O 0.3466 0.98769 0.54745 0.0
C48 C 0.33872 0.95821 0.54896 0.0
C49 C 0.40455 0.09261 0.56509 0.0
C50 C 0.43251 0.0268 0.46002 0.0
C51 C 0.44168 0.02951 0.63173 0.0
O52 O 0.45087 0.05436 0.60499 0.0
O53 O 0.41607 1.00453 0.62103 0.0
O54 O 0.43342 0.10406 0.55129 0.0
O55 O 0.38686 0.06224 0.56781 0.0
O56 O 0.4462 0.41373 0.65573 0.0
Cd57 Cd 0.42748 0.38346 0.71729 0.0
Cd58 Cd 0.39442 0.41402 0.72952 0.0
O59 O 0.41463 0.43354 0.65983 0.0
O60 O 0.43698 0.34885 0.70653 0.0
O61 O 0.38859 0.34122 0.7058 0.0
C62 C 0.40723 0.32989 0.70104 0.0
C63 C 0.34333 0.40427 0.74454 0.0
C64 C 0.43672 0.43173 0.63786 0.0
C65 C 0.44241 0.42296 0.81064 0.0
O66 O 0.4234 0.43099 0.79264 0.0
O67 O 0.44632 0.40223 0.78794 0.0
O68 O 0.367 0.43244 0.74126 0.0
O69 O 0.34836 0.38099 0.73796 0.0
O70 O 0.05101 0.44183 0.81796 0.0
Cd71 Cd 0.0653 0.42656 0.88065 0.0
Cd72 Cd 0.99925 0.39561 0.89646 0.0
O73 O 0.99954 0.41641 0.82749 0.0
O74 O 0.11083 0.44674 0.8652 0.0
O75 O 0.08041 0.39506 0.8709 0.0
C76 C 0.10778 0.4191 0.86175 0.0
C77 C 0.95779 0.34443 0.91258 0.0
C78 C 0.02394 0.43538 0.80247 0.0
C79 C 0.04223 0.44364 0.97509 0.0
O80 O 0.01453 0.42489 0.95932 0.0
O81 O 0.06586 0.44673 0.95042 0.0
O82 O 0.9538 0.36851 0.91148 0.0
O83 O 0.98561 0.34915 0.90334 0.0
C84 C 0.57686 1.00544 0.20916 0.0
C85 C 0.60374 0.03309 0.19237 0.0
C86 C 0.55705 1.00696 0.24589 0.0
C87 C 0.56363 0.03625 0.26646 0.0
C88 C 0.59154 0.06356 0.2522 0.0
C89 C 0.61135 0.06206 0.21537 0.0
C90 C 0.54194 0.03925 0.30252 0.0
C91 C 0.51075 0.01879 0.30361 0.0
C92 C 0.48929 0.02175 0.34007 0.0
C93 C 0.4628 0.9942 0.35776 0.0
C94 C 0.44339 0.99589 0.39512 0.0
C95 C 0.44981 0.02528 0.41485 0.0
H96 H 0.51431 0.07306 0.3434 0.0
C97 C 0.47515 0.05301 0.39463 0.0
C98 C 0.49477 0.05128 0.35769 0.0
H99 H 0.48064 0.07604 0.4088 0.0
H100 H 0.57051 0.98266 0.19278 0.0
H101 H 0.53654 0.98516 0.2576 0.0
H102 H 0.59746 0.08633 0.26816 0.0
H103 H 0.63197 0.0838 0.20357 0.0
H104 H 0.55204 0.05953 0.32801 0.0
H105 H 0.50048 0.99844 0.27833 0.0
H106 H 0.45778 0.9712 0.34413 0.0
H107 H 0.42391 0.9741 0.40962 0.0
C108 C 0.56742 0.59835 0.3708 0.0
C109 C 0.59532 0.59936 0.35564 0.0
C110 C 0.54909 0.57817 0.41034 0.0
C111 C 0.55845 0.55869 0.43553 0.0
C112 C 0.58713 0.56102 0.4221 0.0
C113 C 0.60527 0.58093 0.38242 0.0
C114 C 0.53911 0.53548 0.47562 0.0
C115 C 0.50766 0.52216 0.47897 0.0
C116 C 0.48881 0.49754 0.5176 0.0
C117 C 0.46092 0.49517 0.53601 0.0
C118 C 0.44341 0.47315 0.57402 0.0
C119 C 0.45326 0.45272 0.59388 0.0
H120 H 0.51856 0.47639 0.521 0.0
C121 C 0.48035 0.45407 0.57358 0.0
C122 C 0.49792 0.47618 0.53582 0.0
H123 H 0.48844 0.43848 0.58758 0.0
H124 H 0.55921 0.61241 0.35112 0.0
H125 H 0.52767 0.57788 0.42079 0.0
H126 H 0.59512 0.54663 0.44132 0.0
H127 H 0.62679 0.58134 0.37204 0.0
H128 H 0.55133 0.5281 0.50203 0.0
H129 H 0.49515 0.52955 0.45329 0.0
H130 H 0.45312 0.511 0.52198 0.0
H131 H 0.42253 0.47261 0.58855 0.0
C132 C 0.99369 0.45278 0.74653 0.0
C133 C 0.02146 0.45221 0.75707 0.0
C134 C 0.99287 0.47188 0.70717 0.0
C135 C 0.01986 0.49071 0.67754 0.0
C136 C 0.04701 0.4888 0.68657 0.0
C137 C 0.04789 0.46995 0.72597 0.0
C138 C 0.02137 0.51312 0.63755 0.0
C139 C 1.00153 0.52456 0.63416 0.0
C140 C 1.00632 0.54913 0.59596 0.0
C141 C 0.98027 0.54897 0.57359 0.0
C142 C 0.98443 0.57079 0.53518 0.0
C143 C 0.01482 0.59346 0.51904 0.0
H144 H 0.0573 0.57453 0.59976 0.0
C145 C 0.04085 0.59469 0.54369 0.0
C146 C 0.03667 0.57285 0.58173 0.0
H147 H 0.0646 0.61208 0.53281 0.0
H148 H 0.97287 0.43923 0.76966 0.0
H149 H 0.97116 0.47188 0.70053 0.0
H150 H 0.06804 0.50272 0.66403 0.0
H151 H 0.0696 0.46987 0.7327 0.0
H152 H 0.04087 0.52173 0.6108 0.0
H153 H 0.9813 0.51589 0.6592 0.0
H154 H 0.95665 0.53127 0.5846 0.0
H155 H 0.96387 0.56932 0.51723 0.0
C156 C 0.58034 1.00379 0.89496 0.0
C157 C 0.58813 0.02382 0.93761 0.0
C158 C 0.55835 1.00218 0.85909 0.0
C159 C 0.54325 0.01987 0.8664 0.0
C160 C 0.55059 0.0393 0.90953 0.0
C161 C 0.57321 0.04169 0.94436 0.0
C162 C 0.51958 0.01834 0.82985 0.0
C163 C 0.52494 0.02149 0.77921 0.0
C164 C 0.50303 0.02388 0.74304 0.0
C165 C 0.51523 0.04588 0.70295 0.0
C166 C 0.49512 0.04861 0.66813 0.0
C167 C 0.46243 0.02866 0.67188 0.0
H168 H 0.46034 0.98683 0.77782 0.0
C169 C 0.45018 1.00646 0.71189 0.0
C170 C 0.47031 1.0043 0.74755 0.0
H171 H 0.42509 0.99065 0.71543 0.0
H172 H 0.59141 0.98965 0.88918 0.0
H173 H 0.55273 0.98675 0.82624 0.0
H174 H 0.53911 0.05302 0.91589 0.0
H175 H 0.57848 0.057 0.97732 0.0
H176 H 0.49892 0.01807 0.84525 0.0
H177 H 0.54729 0.02539 0.76449 0.0
H178 H 0.54038 0.06114 0.69875 0.0
H179 H 0.50525 0.06565 0.63727 0.0
C180 C 0.60167 0.5691 0.07405 0.0
C181 C 0.5982 0.59469 0.08981 0.0
C182 C 0.58251 0.5487 0.03542 0.0
C183 C 0.55952 0.55356 0.01175 0.0
C184 C 0.55723 0.58005 0.02574 0.0
C185 C 0.57618 0.60027 0.0645 0.0
C186 C 0.53729 0.53171 0.97268 0.0
C187 C 0.52903 0.50101 0.96841 0.0
C188 C 0.50518 0.47956 0.93084 0.0
C189 C 0.50769 0.45453 0.90969 0.0
C190 C 0.48655 0.43518 0.87196 0.0
C191 C 0.46227 0.44033 0.85517 0.0
H192 H 0.47632 0.50171 0.93316 0.0
C193 C 0.45874 0.46425 0.87859 0.0
C194 C 0.47987 0.48358 0.91605 0.0
H195 H 0.44005 0.46861 0.86716 0.0
H196 H 0.61857 0.56426 0.09253 0.0
H197 H 0.5858 0.52921 0.02452 0.0
H198 H 0.54003 0.58462 0.00768 0.0
H199 H 0.57304 0.6199 0.07538 0.0
H200 H 0.52631 0.54122 0.94772 0.0
H201 H 0.54009 0.49117 -0.00762 0.0
H202 H 0.52665 0.45059 0.92113 0.0
H203 H 0.48984 0.41685 0.85492 0.0
C204 C 0.02051 0.46216 0.04476 0.0
C205 C 0.04674 0.46412 0.01982 0.0
C206 C 0.02432 0.48388 0.08264 0.0
C207 C 0.05449 0.50819 0.09643 0.0
C208 C 0.08079 0.50909 0.0738 0.0
C209 C 0.07699 0.48739 0.03555 0.0
C210 C 0.05891 0.53267 0.13439 0.0
C211 C 0.03841 0.54328 0.13826 0.0
C212 C 0.03996 0.56587 0.17778 0.0
C213 C 0.01253 0.56704 0.18782 0.0
C214 C 0.01185 0.58616 0.22679 0.0
C215 C 0.03875 0.60491 0.25643 0.0
H216 H 0.08927 0.5863 0.19838 0.0
C217 C 0.06672 0.60502 0.24482 0.0
C218 C 0.06736 0.58567 0.20589 0.0
H219 H 0.08792 0.61934 0.26677 0.0
H220 H 0.99687 0.44429 0.03418 0.0
H221 H 1.00354 0.48164 0.10088 0.0
H222 H 0.10429 0.52726 0.08446 0.0
H223 H 0.09771 0.48944 0.01738 0.0
H224 H 0.07952 0.54208 0.15878 0.0
H225 H 0.01847 0.53393 0.11225 0.0
H226 H 0.99117 0.55235 0.16643 0.0
H227 H 0.98996 0.58567 0.23438 0.0
C228 C 0.66409 0.76801 0.18269 0.0
C229 C 0.63563 0.74272 0.20077 0.0
C230 C 0.66627 0.79694 0.16966 0.0
C231 C 0.64 0.80105 0.1749 0.0
C232 C 0.61209 0.77606 0.19494 0.0
C233 C 0.60986 0.74728 0.20744 0.0
C234 C 0.63959 0.83011 0.15883 0.0
C235 C 0.66184 0.85404 0.13075 0.0
C236 C 0.65717 0.88015 0.11176 0.0
C237 C 0.68277 0.91107 0.10789 0.0
C238 C 0.67815 0.93602 0.09264 0.0
C239 C 0.64786 0.93029 0.08043 0.0
H240 H 0.60714 0.85062 0.09739 0.0
C241 C 0.62261 0.89907 0.08185 0.0
C242 C 0.62721 0.87434 0.09708 0.0
H243 H 0.59904 0.89369 0.07193 0.0
H244 H 0.68438 0.76518 0.17727 0.0
H245 H 0.68841 0.81566 0.15519 0.0
H246 H 0.5915 0.77847 0.19979 0.0
H247 H 0.58765 0.72839 0.22166 0.0
H248 H 0.61876 0.8312 0.16933 0.0
H249 H 0.68372 0.85489 0.12143 0.0
H250 H 0.70618 0.91608 0.11813 0.0
H251 H 0.69811 0.9598 0.09163 0.0
C252 C 0.90236 0.62248 0.32842 0.0
C253 C 0.93035 0.64805 0.34705 0.0
C254 C 0.87762 0.62663 0.31259 0.0
C255 C 0.87981 0.65642 0.31598 0.0
C256 C 0.90804 0.68223 0.33366 0.0
C257 C 0.93313 0.6781 0.34915 0.0
C258 C 0.85326 0.66098 0.29975 0.0
C259 C 0.82323 0.63714 0.30149 0.0
C260 C 0.79559 0.63839 0.28141 0.0
C261 C 0.76853 0.60952 0.27029 0.0
C262 C 0.74115 0.60857 0.25378 0.0
C263 C 0.73989 0.63651 0.2484 0.0
H264 H 0.81508 0.68931 0.28366 0.0
C265 C 0.76711 0.66565 0.25849 0.0
C266 C 0.79482 0.66662 0.27481 0.0
H267 H 0.76678 0.68757 0.25496 0.0
H268 H 0.89963 0.59914 0.32519 0.0
H269 H 0.85706 0.60638 0.29679 0.0
H270 H 0.91058 0.70553 0.3359 0.0
H271 H 0.95455 0.69833 0.36287 0.0
H272 H 0.85872 0.68412 0.28579 0.0
H273 H 0.81828 0.61454 0.31733 0.0
H274 H 0.76842 0.58741 0.27484 0.0
H275 H 0.7207 0.58569 0.24635 0.0
C276 C 0.12967 0.76937 0.43771 0.0
C277 C 0.13303 0.74351 0.42328 0.0
C278 C 0.15593 0.79792 0.45304 0.0
C279 C 0.18605 0.80108 0.45378 0.0
C280 C 0.18925 0.77543 0.43774 0.0
C281 C 0.16317 0.74705 0.42289 0.0
C282 C 0.2149 0.8298 0.4721 0.0
C283 C 0.21625 0.85575 0.49274 0.0
C284 C 0.24641 0.88216 0.51246 0.0
C285 C 0.25334 0.9136 0.50691 0.0
C286 C 0.28296 0.93866 0.5209 0.0
C287 C 0.30596 0.93255 0.541 0.0
H288 H 0.26371 0.85229 0.54295 0.0
C289 C 0.29818 0.90109 0.54964 0.0
C290 C 0.26874 0.87622 0.53588 0.0
H291 H 0.31514 0.89556 0.56597 0.0
H292 H 0.10669 0.76731 0.43836 0.0
H293 H 0.15228 0.81705 0.46467 0.0
H294 H 0.21206 0.77706 0.43759 0.0
H295 H 0.16667 0.7277 0.41168 0.0
H296 H 0.23666 0.82924 0.46885 0.0
H297 H 0.19566 0.8584 0.49399 0.0
H298 H 0.23632 0.91879 0.48979 0.0
H299 H 0.28823 0.9627 0.51407 0.0
C300 C 0.41116 0.28108 0.70468 0.0
C301 C 0.39551 0.29665 0.68686 0.0
C302 C 0.40301 0.25112 0.68629 0.0
C303 C 0.37951 0.23647 0.64876 0.0
C304 C 0.36337 0.25172 0.63177 0.0
C305 C 0.3709 0.28136 0.65139 0.0
C306 C 0.37467 0.20746 0.62264 0.0
C307 C 0.376 0.18411 0.64779 0.0
C308 C 0.37902 0.15905 0.62099 0.0
C309 C 0.36546 0.12862 0.6423 0.0
C310 C 0.372 0.10608 0.62177 0.0
C311 C 0.39312 0.11407 0.58077 0.0
H312 H 0.4101 0.18987 0.56151 0.0
C313 C 0.406 0.14421 0.55857 0.0
C314 C 0.39874 0.16639 0.57809 0.0
H315 H 0.42244 0.15096 0.52704 0.0
H316 H 0.4303 0.29247 0.73188 0.0
H317 H 0.41635 0.24028 0.69931 0.0
H318 H 0.34544 0.24102 0.60244 0.0
H319 H 0.35874 0.29308 0.63667 0.0
H320 H 0.37142 0.20604 0.58131 0.0
H321 H 0.37642 0.18413 0.68945 0.0
H322 H 0.35048 0.12257 0.67572 0.0
H323 H 0.36203 0.08309 0.63989 0.0
C324 C 0.13309 0.38617 0.8435 0.0
C325 C 0.13474 0.41574 0.84523 0.0
C326 C 0.15872 0.38372 0.82565 0.0
C327 C 0.18626 0.41086 0.80889 0.0
C328 C 0.18764 0.4402 0.8107 0.0
C329 C 0.16239 0.44267 0.8289 0.0
C330 C 0.21418 0.41032 0.78859 0.0
C331 C 0.22185 0.388 0.79906 0.0
C332 C 0.25282 0.39202 0.78383 0.0
C333 C 0.25605 0.36545 0.77463 0.0
C334 C 0.28532 0.36912 0.76114 0.0
C335 C 0.31189 0.39947 0.7571 0.0
H336 H 0.27864 0.44334 0.78964 0.0
C337 C 0.30862 0.42591 0.76701 0.0
C338 C 0.27964 0.42227 0.78057 0.0
H339 H 0.32865 0.44964 0.76511 0.0
H340 H 0.11199 0.36496 0.85554 0.0
H341 H 0.15658 0.36061 0.82407 0.0
H342 H 0.20851 0.4615 0.7981 0.0
H343 H 0.16449 0.46582 0.82941 0.0
H344 H 0.23023 0.43066 0.76576 0.0
H345 H 0.20581 0.36689 0.82027 0.0
H346 H 0.23589 0.34186 0.77766 0.0
H347 H 0.28717 0.34827 0.75418 0.0
C348 C 0.90228 0.30981 0.93976 0.0
C349 C 0.93115 0.31278 0.92547 0.0
C350 C 0.87697 0.28052 0.95326 0.0
C351 C 0.87959 0.25313 0.95205 0.0
C352 C 0.9086 0.25608 0.93852 0.0
C353 C 0.93416 0.28564 0.92515 0.0
C354 C 0.85273 0.22173 0.96698 0.0
C355 C 0.82269 0.21482 0.96144 0.0
C356 C 0.79484 0.18606 0.98174 0.0
C357 C 0.76766 0.18778 -0.00899 0.0
C358 C 0.7405 0.16171 0.00946 0.0
C359 C 0.73955 0.1329 0.01849 0.0
H360 H 0.81455 0.15495 0.98358 0.0
C361 C 0.76668 0.13091 0.00918 0.0
C362 C 0.79421 0.15734 -0.00887 0.0
H363 H 0.76658 0.10895 0.01549 0.0
H364 H 0.89923 0.33026 0.94132 0.0
H365 H 0.85563 0.27973 0.96578 0.0
H366 H 0.91143 0.23548 0.93803 0.0
H367 H 0.95622 0.28722 0.91472 0.0
H368 H 0.85799 0.20457 0.98379 0.0
H369 H 0.81797 0.23198 0.94308 0.0
H370 H 0.76742 0.20954 0.98409 0.0
H371 H 0.72003 0.1641 0.01589 0.0
loop_
_geom_bond_atom_site_label_1
_geom_bond_atom_site_label_2
_geom_bond_distance
_geom_bond_site_symmetry_2
_ccdc_geom_bond_type
O0 Cd1 2.223 . S
O0 C8 1.315 . S
Cd1 O0 2.223 . S
Cd1 O4 2.297 . S
Cd1 O5 2.439 . S
Cd1 O11 2.240 . S
Cd2 O3 2.240 1_565 S
Cd2 O10 2.223 . S
Cd2 O12 2.297 . S
Cd2 O13 2.439 . S
O3 Cd2 2.240 1_545 S
O3 C8 1.279 . S
O4 Cd1 2.297 . S
O4 C6 1.247 . S
O5 Cd1 2.439 . S
O5 C6 1.208 . S
C6 O4 1.247 . S
C6 O5 1.208 . S
C7 O12 1.247 . S
C7 O13 1.208 . S
C8 O0 1.315 . S
C8 O3 1.279 . S
C9 O10 1.315 1_545 S
C9 O11 1.279 . S
O10 Cd2 2.223 . S
O10 C9 1.315 1_565 S
O11 Cd1 2.240 . S
O11 C9 1.279 . S
O12 Cd2 2.297 . S
O12 C7 1.247 . S
O13 Cd2 2.439 . S
O13 C7 1.208 . S
O14 Cd15 2.223 . S
O14 C22 1.315 . S
Cd15 O14 2.223 . S
Cd15 O18 2.297 . S
Cd15 O19 2.439 . S
Cd15 O25 2.240 . S
Cd16 O17 2.240 . S
Cd16 O24 2.223 . S
Cd16 O26 2.297 . S
Cd16 O27 2.439 . S
O17 Cd16 2.240 . S
O17 C22 1.279 . S
O18 Cd15 2.297 . S
O18 C20 1.247 . S
O19 Cd15 2.439 . S
O19 C20 1.208 . S
C20 O18 1.247 . S
C20 O19 1.208 . S
C21 O26 1.247 . S
C21 O27 1.208 . S
C22 O14 1.315 . S
C22 O17 1.279 . S
C23 O24 1.315 . S
C23 O25 1.279 . S
O24 Cd16 2.223 . S
O24 C23 1.315 . S
O25 Cd15 2.240 . S
O25 C23 1.279 . S
O26 Cd16 2.297 . S
O26 C21 1.247 . S
O27 Cd16 2.439 . S
O27 C21 1.208 . S
O28 Cd29 2.223 . S
O28 C36 1.315 1_655 S
Cd29 O28 2.223 . S
Cd29 O32 2.297 . S
Cd29 O33 2.439 . S
Cd29 O39 2.240 1_655 S
Cd30 O31 2.240 . S
Cd30 O38 2.223 . S
Cd30 O40 2.297 . S
Cd30 O41 2.439 . S
O31 Cd30 2.240 . S
O31 C36 1.279 . S
O32 Cd29 2.297 . S
O32 C34 1.247 . S
O33 Cd29 2.439 . S
O33 C34 1.208 . S
C34 O32 1.247 . S
C34 O33 1.208 . S
C35 O40 1.247 . S
C35 O41 1.208 . S
C36 O28 1.315 1_455 S
C36 O31 1.279 . S
C37 O38 1.315 . S
C37 O39 1.279 . S
O38 Cd30 2.223 . S
O38 C37 1.315 . S
O39 Cd29 2.240 1_455 S
O39 C37 1.279 . S
O40 Cd30 2.297 . S
O40 C35 1.247 . S
O41 Cd30 2.439 . S
O41 C35 1.208 . S
O42 Cd43 2.223 . S
O42 C50 1.315 1_565 S
Cd43 O42 2.223 . S
Cd43 O46 2.297 . S
Cd43 O47 2.439 . S
Cd43 O53 2.240 1_565 S
Cd44 O45 2.240 . S
Cd44 O52 2.223 . S
Cd44 O54 2.297 . S
Cd44 O55 2.439 . S
O45 Cd44 2.240 . S
O45 C50 1.279 . S
O46 Cd43 2.297 . S
O46 C48 1.247 . S
O47 Cd43 2.439 . S
O47 C48 1.208 . S
C48 O46 1.247 . S
C48 O47 1.208 . S
C49 O54 1.247 . S
C49 O55 1.208 . S
C50 O42 1.315 1_545 S
C50 O45 1.279 . S
C51 O52 1.315 . S
C51 O53 1.279 . S
O52 Cd44 2.223 . S
O52 C51 1.315 . S
O53 Cd43 2.240 1_545 S
O53 C51 1.279 . S
O54 Cd44 2.297 . S
O54 C49 1.247 . S
O55 Cd44 2.439 . S
O55 C49 1.208 . S
O56 Cd57 2.223 . S
O56 C64 1.315 . S
Cd57 O56 2.223 . S
Cd57 O60 2.297 . S
Cd57 O61 2.439 . S
Cd57 O67 2.240 . S
Cd58 O59 2.240 . S
Cd58 O66 2.223 . S
Cd58 O68 2.297 . S
Cd58 O69 2.439 . S
O59 Cd58 2.240 . S
O59 C64 1.279 . S
O60 Cd57 2.297 . S
O60 C62 1.247 . S
O61 Cd57 2.439 . S
O61 C62 1.208 . S
C62 O60 1.247 . S
C62 O61 1.208 . S
C63 O68 1.247 . S
C63 O69 1.208 . S
C64 O56 1.315 . S
C64 O59 1.279 . S
C65 O66 1.315 . S
C65 O67 1.279 . S
O66 Cd58 2.223 . S
O66 C65 1.315 . S
O67 Cd57 2.240 . S
O67 C65 1.279 . S
O68 Cd58 2.297 . S
O68 C63 1.247 . S
O69 Cd58 2.439 . S
O69 C63 1.208 . S
O70 Cd71 2.223 . S
O70 C78 1.315 . S
Cd71 O70 2.223 . S
Cd71 O74 2.297 . S
Cd71 O75 2.439 . S
Cd71 O81 2.240 . S
Cd72 O73 2.240 1_655 S
Cd72 O80 2.223 . S
Cd72 O82 2.297 . S
Cd72 O83 2.439 . S
O73 Cd72 2.240 1_455 S
O73 C78 1.279 . S
O74 Cd71 2.297 . S
O74 C76 1.247 . S
O75 Cd71 2.439 . S
O75 C76 1.208 . S
C76 O74 1.247 . S
C76 O75 1.208 . S
C77 O82 1.247 . S
C77 O83 1.208 . S
C78 O70 1.315 . S
C78 O73 1.279 . S
C79 O80 1.315 1_455 S
C79 O81 1.279 . S
O80 Cd72 2.223 . S
O80 C79 1.315 1_655 S
O81 Cd71 2.240 . S
O81 C79 1.279 . S
O82 Cd72 2.297 . S
O82 C77 1.247 . S
O83 Cd72 2.439 . S
O83 C77 1.208 . S
C84 C85 1.386 . S
C84 C86 1.383 . S
C84 H100 0.951 . S
C85 C84 1.386 . S
C85 C89 1.383 . S
C86 C84 1.383 . S
C86 C87 1.402 . S
C86 H101 0.951 . S
C87 C86 1.402 . S
C87 C88 1.375 . S
C87 C90 1.481 . S
C88 C87 1.375 . S
C88 C89 1.367 . S
C88 H102 0.951 . S
C89 C85 1.383 . S
C89 C88 1.367 . S
C89 H103 0.950 . S
C90 C87 1.481 . S
C90 C91 1.297 . S
C90 H104 0.950 . S
C91 C90 1.297 . S
C91 C92 1.479 . S
C91 H105 0.950 . S
C92 C91 1.479 . S
C92 C93 1.375 . S
C92 C98 1.404 . S
C93 C92 1.375 . S
C93 C94 1.369 . S
C93 H106 0.950 . S
C94 C93 1.369 . S
C94 C95 1.392 . S
C94 H107 0.951 . S
C95 C94 1.392 . S
C95 C97 1.384 . S
H96 C98 0.949 . S
C97 C95 1.384 . S
C97 C98 1.385 . S
C97 H99 0.950 . S
C98 C92 1.404 . S
C98 H96 0.949 . S
C98 C97 1.385 . S
H99 C97 0.950 . S
H100 C84 0.951 . S
H101 C86 0.951 . S
H102 C88 0.951 . S
H103 C89 0.950 . S
H104 C90 0.950 . S
H105 C91 0.950 . S
H106 C93 0.950 . S
H107 C94 0.951 . S
C108 C109 1.386 . S
C108 C110 1.383 . S
C108 H124 0.951 . S
C109 C108 1.386 . S
C109 C113 1.383 . S
C110 C108 1.383 . S
C110 C111 1.402 . S
C110 H125 0.951 . S
C111 C110 1.402 . S
C111 C112 1.375 . S
C111 C114 1.481 . S
C112 C111 1.375 . S
C112 C113 1.367 . S
C112 H126 0.951 . S
C113 C109 1.383 . S
C113 C112 1.367 . S
C113 H127 0.950 . S
C114 C111 1.481 . S
C114 C115 1.297 . S
C114 H128 0.950 . S
C115 C114 1.297 . S
C115 C116 1.479 . S
C115 H129 0.950 . S
C116 C115 1.479 . S
C116 C117 1.375 . S
C116 C122 1.404 . S
C117 C116 1.375 . S
C117 C118 1.369 . S
C117 H130 0.950 . S
C118 C117 1.369 . S
C118 C119 1.392 . S
C118 H131 0.951 . S
C119 C118 1.392 . S
C119 C121 1.384 . S
H120 C122 0.949 . S
C121 C119 1.384 . S
C121 C122 1.385 . S
C121 H123 0.950 . S
C122 C116 1.404 . S
C122 H120 0.949 . S
C122 C121 1.385 . S
H123 C121 0.950 . S
H124 C108 0.951 . S
H125 C110 0.951 . S
H126 C112 0.951 . S
H127 C113 0.950 . S
H128 C114 0.950 . S
H129 C115 0.950 . S
H130 C117 0.950 . S
H131 C118 0.951 . S
C132 C133 1.386 . S
C132 C134 1.383 . S
C132 H148 0.951 1_455 S
C133 C132 1.386 . S
C133 C137 1.383 . S
C134 C132 1.383 . S
C134 C135 1.402 . S
C134 H149 0.951 . S
C135 C134 1.402 . S
C135 C136 1.375 . S
C135 C138 1.481 . S
C136 C135 1.375 . S
C136 C137 1.367 . S
C136 H150 0.951 . S
C137 C133 1.383 . S
C137 C136 1.367 . S
C137 H151 0.950 . S
C138 C135 1.481 . S
C138 C139 1.297 . S
C138 H152 0.950 . S
C139 C138 1.297 . S
C139 C140 1.479 . S
C139 H153 0.950 . S
C140 C139 1.479 . S
C140 C141 1.375 . S
C140 C146 1.404 . S
C141 C140 1.375 . S
C141 C142 1.369 . S
C141 H154 0.938 1_455 S
C142 C141 1.369 . S
C142 C143 1.392 . S
C142 H155 0.951 1_455 S
C143 C142 1.392 . S
C143 C145 1.384 . S
H144 C146 0.949 . S
C145 C143 1.384 . S
C145 C146 1.385 . S
C145 H147 0.950 . S
C146 C140 1.404 . S
C146 H144 0.949 . S
C146 C145 1.385 . S
H147 C145 0.950 . S
H148 C132 0.951 1_655 S
H149 C134 0.951 . S
H150 C136 0.951 . S
H151 C137 0.950 . S
H152 C138 0.950 . S
H153 C139 0.950 . S
H154 C141 0.938 1_655 S
H155 C142 0.951 1_655 S
C156 C157 1.386 . S
C156 C158 1.383 . S
C156 H172 0.951 . S
C157 C156 1.386 . S
C157 C161 1.383 . S
C158 C156 1.383 . S
C158 C159 1.402 . S
C158 H173 0.951 . S
C159 C158 1.402 . S
C159 C160 1.375 . S
C159 C162 1.481 . S
C160 C159 1.375 . S
C160 C161 1.367 . S
C160 H174 0.951 . S
C161 C157 1.383 . S
C161 C160 1.367 . S
C161 H175 0.950 1_556 S
C162 C159 1.481 . S
C162 C163 1.297 . S
C162 H176 0.950 . S
C163 C162 1.297 . S
C163 C164 1.479 . S
C163 H177 0.950 . S
C164 C163 1.479 . S
C164 C165 1.375 . S
C164 C170 1.404 . S
C165 C164 1.375 . S
C165 C166 1.369 . S
C165 H178 0.950 . S
C166 C165 1.369 . S
C166 C167 1.392 . S
C166 H179 0.951 . S
C167 C166 1.392 . S
C167 C169 1.384 . S
H168 C170 0.949 . S
C169 C167 1.384 . S
C169 C170 1.385 . S
C169 H171 0.950 . S
C170 C164 1.404 . S
C170 H168 0.949 . S
C170 C169 1.385 . S
H171 C169 0.950 . S
H172 C156 0.951 . S
H173 C158 0.951 . S
H174 C160 0.951 . S
H175 C161 0.950 1_554 S
H176 C162 0.950 . S
H177 C163 0.950 . S
H178 C165 0.950 . S
H179 C166 0.951 . S
C180 C181 1.386 . S
C180 C182 1.383 . S
C180 H196 0.951 . S
C181 C180 1.386 . S
C181 C185 1.383 . S
C182 C180 1.383 . S
C182 C183 1.402 . S
C182 H197 0.951 . S
C183 C182 1.402 . S
C183 C184 1.375 . S
C183 C186 1.481 1_554 S
C184 C183 1.375 . S
C184 C185 1.367 . S
C184 H198 0.951 . S
C185 C181 1.383 . S
C185 C184 1.367 . S
C185 H199 0.950 . S
C186 C183 1.481 1_556 S
C186 C187 1.297 . S
C186 H200 0.950 . S
C187 C186 1.297 . S
C187 C188 1.479 . S
C187 H201 0.950 1_556 S
C188 C187 1.479 . S
C188 C189 1.375 . S
C188 C194 1.404 . S
C189 C188 1.375 . S
C189 C190 1.369 . S
C189 H202 0.950 . S
C190 C189 1.369 . S
C190 C191 1.392 . S
C190 H203 0.951 . S
C191 C190 1.392 . S
C191 C193 1.384 . S
H192 C194 0.949 . S
C193 C191 1.384 . S
C193 C194 1.385 . S
C193 H195 0.950 . S
C194 C188 1.404 . S
C194 H192 0.949 . S
C194 C193 1.385 . S
H195 C193 0.950 . S
H196 C180 0.951 . S
H197 C182 0.951 . S
H198 C184 0.951 . S
H199 C185 0.950 . S
H200 C186 0.950 . S
H201 C187 0.950 1_554 S
H202 C189 0.950 . S
H203 C190 0.951 . S
C204 C205 1.386 1_655 S
C204 C206 1.383 . S
C204 H220 0.951 . S
C205 C204 1.386 1_455 S
C205 C209 1.383 . S
C206 C204 1.383 . S
C206 C207 1.402 1_655 S
C206 H221 0.951 . S
C207 C206 1.402 1_455 S
C207 C208 1.375 . S
C207 C210 1.481 . S
C208 C207 1.375 . S
C208 C209 1.367 . S
C208 H222 0.951 . S
C209 C205 1.383 . S
C209 C208 1.367 . S
C209 H223 0.950 . S
C210 C207 1.481 . S
C210 C211 1.297 1_455 S
C210 H224 0.950 . S
C211 C210 1.297 1_655 S
C211 C212 1.479 . S
C211 H225 0.950 . S
C212 C211 1.479 . S
C212 C213 1.375 . S
C212 C218 1.404 1_655 S
C213 C212 1.375 . S
C213 C214 1.369 . S
C213 H226 0.950 . S
C214 C213 1.369 . S
C214 C215 1.392 1_655 S
C214 H227 0.951 . S
C215 C214 1.392 1_455 S
C215 C217 1.384 . S
H216 C218 0.949 . S
C217 C215 1.384 . S
C217 C218 1.385 . S
C217 H219 0.950 . S
C218 C212 1.404 1_455 S
C218 H216 0.949 . S
C218 C217 1.385 . S
H219 C217 0.950 . S
H220 C204 0.951 . S
H221 C206 0.951 . S
H222 C208 0.951 . S
H223 C209 0.950 . S
H224 C210 0.950 . S
H225 C211 0.950 . S
H226 C213 0.950 . S
H227 C214 0.951 . S
C228 C229 1.386 . S
C228 C230 1.383 . S
C228 H244 0.951 . S
C229 C228 1.386 . S
C229 C233 1.383 . S
C230 C228 1.383 . S
C230 C231 1.402 . S
C230 H245 0.951 . S
C231 C230 1.402 . S
C231 C232 1.375 . S
C231 C234 1.481 . S
C232 C231 1.375 . S
C232 C233 1.367 . S
C232 H246 0.951 . S
C233 C229 1.383 . S
C233 C232 1.367 . S
C233 H247 0.950 . S
C234 C231 1.481 . S
C234 C235 1.297 . S
C234 H248 0.950 . S
C235 C234 1.297 . S
C235 C236 1.479 . S
C235 H249 0.950 . S
C236 C235 1.479 . S
C236 C237 1.375 . S
C236 C242 1.404 . S
C237 C236 1.375 . S
C237 C238 1.369 . S
C237 H250 0.950 . S
C238 C237 1.369 . S
C238 C239 1.392 . S
C238 H251 0.951 . S
C239 C238 1.392 . S
C239 C241 1.384 . S
H240 C242 0.949 . S
C241 C239 1.384 . S
C241 C242 1.385 . S
C241 H243 0.950 . S
C242 C236 1.404 . S
C242 H240 0.949 . S
C242 C241 1.385 . S
H243 C241 0.950 . S
H244 C228 0.951 . S
H245 C230 0.951 . S
H246 C232 0.951 . S
H247 C233 0.950 . S
H248 C234 0.950 . S
H249 C235 0.950 . S
H250 C237 0.950 . S
H251 C238 0.951 . S
C252 C253 1.386 . S
C252 C254 1.383 . S
C252 H268 0.951 . S
C253 C252 1.386 . S
C253 C257 1.383 . S
C254 C252 1.383 . S
C254 C255 1.402 . S
C254 H269 0.951 . S
C255 C254 1.402 . S
C255 C256 1.375 . S
C255 C258 1.481 . S
C256 C255 1.375 . S
C256 C257 1.367 . S
C256 H270 0.951 . S
C257 C253 1.383 . S
C257 C256 1.367 . S
C257 H271 0.950 . S
C258 C255 1.481 . S
C258 C259 1.297 . S
C258 H272 0.950 . S
C259 C258 1.297 . S
C259 C260 1.479 . S
C259 H273 0.950 . S
C260 C259 1.479 . S
C260 C261 1.375 . S
C260 C266 1.404 . S
C261 C260 1.375 . S
C261 C262 1.369 . S
C261 H274 0.950 . S
C262 C261 1.369 . S
C262 C263 1.392 . S
C262 H275 0.951 . S
C263 C262 1.392 . S
C263 C265 1.384 . S
H264 C266 0.949 . S
C265 C263 1.384 . S
C265 C266 1.385 . S
C265 H267 0.950 . S
C266 C260 1.404 . S
C266 H264 0.949 . S
C266 C265 1.385 . S
H267 C265 0.950 . S
H268 C252 0.951 . S
H269 C254 0.951 . S
H270 C256 0.951 . S
H271 C257 0.950 . S
H272 C258 0.950 . S
H273 C259 0.950 . S
H274 C261 0.950 . S
H275 C262 0.951 . S
C276 C277 1.386 . S
C276 C278 1.383 . S
C276 H292 0.951 . S
C277 C276 1.386 . S
C277 C281 1.383 . S
C278 C276 1.383 . S
C278 C279 1.402 . S
C278 H293 0.951 . S
C279 C278 1.402 . S
C279 C280 1.375 . S
C279 C282 1.481 . S
C280 C279 1.375 . S
C280 C281 1.367 . S
C280 H294 0.951 . S
C281 C277 1.383 . S
C281 C280 1.367 . S
C281 H295 0.950 . S
C282 C279 1.481 . S
C282 C283 1.297 . S
C282 H296 0.950 . S
C283 C282 1.297 . S
C283 C284 1.479 . S
C283 H297 0.950 . S
C284 C283 1.479 . S
C284 C285 1.375 . S
C284 C290 1.404 . S
C285 C284 1.375 . S
C285 C286 1.369 . S
C285 H298 0.950 . S
C286 C285 1.369 . S
C286 C287 1.392 . S
C286 H299 0.951 . S
C287 C286 1.392 . S
C287 C289 1.384 . S
H288 C290 0.949 . S
C289 C287 1.384 . S
C289 C290 1.385 . S
C289 H291 0.950 . S
C290 C284 1.404 . S
C290 H288 0.949 . S
C290 C289 1.385 . S
H291 C289 0.950 . S
H292 C276 0.951 . S
H293 C278 0.951 . S
H294 C280 0.951 . S
H295 C281 0.950 . S
H296 C282 0.950 . S
H297 C283 0.950 . S
H298 C285 0.950 . S
H299 C286 0.951 . S
C300 C301 1.386 . S
C300 C302 1.383 . S
C300 H316 0.951 . S
C301 C300 1.386 . S
C301 C305 1.383 . S
C302 C300 1.383 . S
C302 C303 1.402 . S
C302 H317 0.951 . S
C303 C302 1.402 . S
C303 C304 1.375 . S
C303 C306 1.481 . S
C304 C303 1.375 . S
C304 C305 1.367 . S
C304 H318 0.951 . S
C305 C301 1.383 . S
C305 C304 1.367 . S
C305 H319 0.950 . S
C306 C303 1.481 . S
C306 C307 1.297 . S
C306 H320 0.950 . S
C307 C306 1.297 . S
C307 C308 1.479 . S
C307 H321 0.950 . S
C308 C307 1.479 . S
C308 C309 1.375 . S
C308 C314 1.404 . S
C309 C308 1.375 . S
C309 C310 1.369 . S
C309 H322 0.950 . S
C310 C309 1.369 . S
C310 C311 1.392 . S
C310 H323 0.951 . S
C311 C310 1.392 . S
C311 C313 1.384 . S
H312 C314 0.949 . S
C313 C311 1.384 . S
C313 C314 1.385 . S
C313 H315 0.950 . S
C314 C308 1.404 . S
C314 H312 0.949 . S
C314 C313 1.385 . S
H315 C313 0.950 . S
H316 C300 0.951 . S
H317 C302 0.951 . S
H318 C304 0.951 . S
H319 C305 0.950 . S
H320 C306 0.950 . S
H321 C307 0.950 . S
H322 C309 0.950 . S
H323 C310 0.951 . S
C324 C325 1.386 . S
C324 C326 1.383 . S
C324 H340 0.951 . S
C325 C324 1.386 . S
C325 C329 1.383 . S
C326 C324 1.383 . S
C326 C327 1.402 . S
C326 H341 0.951 . S
C327 C326 1.402 . S
C327 C328 1.375 . S
C327 C330 1.481 . S
C328 C327 1.375 . S
C328 C329 1.367 . S
C328 H342 0.951 . S
C329 C325 1.383 . S
C329 C328 1.367 . S
C329 H343 0.950 . S
C330 C327 1.481 . S
C330 C331 1.297 . S
C330 H344 0.950 . S
C331 C330 1.297 . S
C331 C332 1.479 . S
C331 H345 0.950 . S
C332 C331 1.479 . S
C332 C333 1.375 . S
C332 C338 1.404 . S
C333 C332 1.375 . S
C333 C334 1.369 . S
C333 H346 0.950 . S
C334 C333 1.369 . S
C334 C335 1.392 . S
C334 H347 0.951 . S
C335 C334 1.392 . S
C335 C337 1.384 . S
H336 C338 0.949 . S
C337 C335 1.384 . S
C337 C338 1.385 . S
C337 H339 0.950 . S
C338 C332 1.404 . S
C338 H336 0.949 . S
C338 C337 1.385 . S
H339 C337 0.950 . S
H340 C324 0.951 . S
H341 C326 0.951 . S
H342 C328 0.951 . S
H343 C329 0.950 . S
H344 C330 0.950 . S
H345 C331 0.950 . S
H346 C333 0.950 . S
H347 C334 0.951 . S
C348 C349 1.386 . S
C348 C350 1.383 . S
C348 H364 0.951 . S
C349 C348 1.386 . S
C349 C353 1.383 . S
C350 C348 1.383 . S
C350 C351 1.402 . S
C350 H365 0.951 . S
C351 C350 1.402 . S
C351 C352 1.375 1_556 S
C351 C354 1.481 . S
C352 C351 1.375 1_554 S
C352 C353 1.367 1_554 S
C352 H366 0.951 . S
C353 C349 1.383 . S
C353 C352 1.367 1_556 S
C353 H367 0.950 1_556 S
C354 C351 1.481 . S
C354 C355 1.297 . S
C354 H368 0.950 1_556 S
C355 C354 1.297 . S
C355 C356 1.479 . S
C355 H369 0.950 . S
C356 C355 1.479 . S
C356 C357 1.375 . S
C356 C362 1.404 1_556 S
C357 C356 1.375 . S
C357 C358 1.369 . S
C357 H370 0.950 . S
C358 C357 1.369 . S
C358 C359 1.392 1_556 S
C358 H371 0.951 . S
C359 C358 1.392 1_554 S
C359 C361 1.384 . S
H360 C362 0.949 . S
C361 C359 1.384 . S
C361 C362 1.385 . S
C361 H363 0.950 . S
C362 C356 1.404 1_554 S
C362 H360 0.949 . S
C362 C361 1.385 . S
H363 C361 0.950 . S
H364 C348 0.951 . S
H365 C350 0.951 . S
H366 C352 0.951 . S
H367 C353 0.950 1_554 S
H368 C354 0.950 1_554 S
H369 C355 0.950 . S
H370 C357 0.950 . S
H371 C358 0.951 . S
C85 C9 1.859 . S
C95 C50 1.858 . S
C109 C23 1.852 . S
C119 C64 1.855 . S
C133 C78 1.840 . S
C143 C37 1.829 . S
C157 C8 1.857 1_556 S
C167 C51 1.858 . S
C181 C22 1.840 . S
C191 C65 1.830 . S
C205 C79 1.853 1_554 S
C215 C36 1.833 . S
C229 C20 1.420 . S
C239 C7 1.395 . S
C253 C34 1.421 . S
C263 C21 1.434 . S
C277 C35 1.419 . S
C287 C48 1.394 . S
C301 C62 1.450 . S
C311 C49 1.458 . S
C325 C76 1.442 . S
C335 C63 1.436 . S
C349 C77 1.445 . S
C359 C6 1.464 . S
