# Generated by pormake.
# Topology ukg, (4)-cn, num edge types: 1
# Building blocks:
#     Node 0, Type 0, BuildingBlock: MUDLON_clean_sbu_0, # of connection points: 4
#     Node 1, Type 0, BuildingBlock: MUDLON_clean_sbu_0, # of connection points: 4
#     Node 2, Type 0, BuildingBlock: MUDLON_clean_sbu_0, # of connection points: 4
#     Node 3, Type 0, BuildingBlock: MUDLON_clean_sbu_0, # of connection points: 4
#     Node 4, Type 0, BuildingBlock: MUDLON_clean_sbu_0, # of connection points: 4
#     Node 5, Type 0, BuildingBlock: MUDLON_clean_sbu_0, # of connection points: 4
#     Node 6, Type 0, BuildingBlock: MUDLON_clean_sbu_0, # of connection points: 4
#     Node 7, Type 0, BuildingBlock: MUDLON_clean_sbu_0, # of connection points: 4
#     Edge 8, Type (0, 0), BuildingBlock: TEMPAE_clean_linker_10, # of connection points: 2
#     Edge 9, Type (0, 0), BuildingBlock: TEMPAE_clean_linker_10, # of connection points: 2
#     Edge 10, Type (0, 0), BuildingBlock: TEMPAE_clean_linker_10, # of connection points: 2
#     Edge 11, Type (0, 0), BuildingBlock: TEMPAE_clean_linker_10, # of connection points: 2
#     Edge 12, Type (0, 0), BuildingBlock: TEMPAE_clean_linker_10, # of connection points: 2
#     Edge 13, Type (0, 0), BuildingBlock: TEMPAE_clean_linker_10, # of connection points: 2
#     Edge 14, Type (0, 0), BuildingBlock: TEMPAE_clean_linker_10, # of connection points: 2
#     Edge 15, Type (0, 0), BuildingBlock: TEMPAE_clean_linker_10, # of connection points: 2
#     Edge 16, Type (0, 0), BuildingBlock: TEMPAE_clean_linker_10, # of connection points: 2
#     Edge 17, Type (0, 0), BuildingBlock: TEMPAE_clean_linker_10, # of connection points: 2
#     Edge 18, Type (0, 0), BuildingBlock: TEMPAE_clean_linker_10, # of connection points: 2
#     Edge 19, Type (0, 0), BuildingBlock: TEMPAE_clean_linker_10, # of connection points: 2
#     Edge 20, Type (0, 0), BuildingBlock: TEMPAE_clean_linker_10, # of connection points: 2
#     Edge 21, Type (0, 0), BuildingBlock: TEMPAE_clean_linker_10, # of connection points: 2
#     Edge 22, Type (0, 0), BuildingBlock: TEMPAE_clean_linker_10, # of connection points: 2
#     Edge 23, Type (0, 0), BuildingBlock: TEMPAE_clean_linker_10, # of connection points: 2
# Relax obj value: 0.086
# Max RMSD: 0.240
# Mean RMSD: 0.240
data_MOF--net-ukg--node1-MUDLON_clean_sbu_0--edge1-TEMPAE_clean_linker_10
_symmetry_space_group_name_H-M    P1
_symmetry_Int_Tables_number       1
_symmetry_cell_setting            triclinic
loop_
_symmetry_equiv_pos_as_xyz
'x, y, z'
_cell_length_a     32.882056
_cell_length_b     32.878094
_cell_length_c     38.018757
_cell_angle_alpha  89.954866
_cell_angle_beta   89.972717
_cell_angle_gamma 89.955373
loop_
_atom_site_label
_atom_site_type_symbol
_atom_site_fract_x
_atom_site_fract_y
_atom_site_fract_z
_atom_type_partial_charge
Mg0 Mg 0.03812 0.68459 0.15593 0.0
C1 C 0.97043 0.65331 0.19669 0.0
O2 O 0.95418 0.67014 0.16865 0.0
C3 C 0.11939 0.71708 0.13944 0.0
O4 O 0.09601 0.73346 0.11522 0.0
C5 C 0.02193 0.61049 0.11319 0.0
O6 O 0.0261 0.59557 0.14505 0.0
O7 O 0.02534 0.64875 0.10879 0.0
O8 O 1.00893 0.65401 0.1999 0.0
O9 O 1.01117 0.7451 0.15731 0.0
C10 C 0.02744 0.76866 0.17981 0.0
O11 O 0.05948 0.75561 0.19711 0.0
O12 O 0.10345 0.69261 0.1614 0.0
Mg13 Mg 0.34645 0.53875 0.66021 0.0
C14 C 0.39801 0.47852 0.69827 0.0
O15 O 0.40282 0.46744 0.66534 0.0
C16 C 0.30684 0.61774 0.64818 0.0
O17 O 0.28912 0.59347 0.62542 0.0
C18 C 0.42113 0.54036 0.616 0.0
O19 O 0.43401 0.55536 0.64603 0.0
O20 O 0.38383 0.53048 0.61324 0.0
O21 O 0.37667 0.50992 0.70483 0.0
O22 O 0.28633 0.51107 0.65831 0.0
C23 C 0.28076 0.47464 0.66845 0.0
O24 O 0.31261 0.45175 0.67501 0.0
O25 O 0.33472 0.60324 0.66773 0.0
Mg26 Mg 0.49167 0.84564 0.15554 0.0
C27 C 0.55688 0.88338 0.19439 0.0
O28 O 0.57377 0.86587 0.16695 0.0
C29 C 0.41449 0.80192 0.14495 0.0
O30 O 0.44078 0.7806 0.12656 0.0
C31 C 0.47689 0.8987 0.09148 0.0
O32 O 0.43922 0.89536 0.10263 0.0
O33 O 0.50485 0.87938 0.1075 0.0
O34 O 0.51846 0.88115 0.19777 0.0
O35 O 0.52214 0.787 0.15915 0.0
C36 C 0.5254 0.77438 0.19066 0.0
O37 O 0.51037 0.79682 0.21612 0.0
O38 O 0.42699 0.83345 0.16103 0.0
Mg39 Mg 0.17784 0.99059 0.66184 0.0
C40 C 0.11967 0.04347 0.7016 0.0
O41 O 0.10677 0.04865 0.66921 0.0
C42 C 0.2196 0.91233 0.64976 0.0
O43 O 0.23903 0.93755 0.62885 0.0
C44 C 0.1247 0.97393 0.59771 0.0
O45 O 0.13199 0.93606 0.6068 0.0
O46 O 0.14128 1.00253 0.61506 0.0
O47 O 0.14795 0.01788 0.70723 0.0
O48 O 0.23723 0.01942 0.66073 0.0
C49 C 0.24129 0.05597 0.67101 0.0
O50 O 0.20848 0.07749 0.6776 0.0
O51 O 0.19002 0.9259 0.66789 0.0
Mg52 Mg 0.98829 0.35055 0.85777 0.0
C53 C 0.05298 0.28663 0.84595 0.0
O54 O 0.07374 0.31914 0.83697 0.0
C55 C 0.97196 0.41355 0.91335 0.0
O56 O 0.93881 0.41676 0.89426 0.0
C57 C 0.91021 0.30847 0.86953 0.0
O58 O 0.93532 0.28934 0.89075 0.0
O59 O 0.9238 0.33794 0.85128 0.0
O60 O 0.01747 0.29112 0.85862 0.0
O61 O 0.01522 0.38169 0.81285 0.0
C62 C 0.04292 0.40768 0.81908 0.0
O63 O 0.05064 0.4173 0.85193 0.0
O64 O 0.99829 0.38683 0.90503 0.0
Mg65 Mg 0.67865 0.49135 0.35973 0.0
C66 C 0.76602 0.50327 0.34085 0.0
O67 O 0.75905 0.46635 0.32916 0.0
C68 C 0.62238 0.479 0.42175 0.0
O69 O 0.62437 0.44152 0.40993 0.0
C70 C 0.71378 0.41213 0.3809 0.0
O71 O 0.7283 0.43714 0.40473 0.0
O72 O 0.68975 0.42617 0.35764 0.0
O73 O 0.73767 0.52173 0.35718 0.0
O74 O 0.64423 0.51486 0.31518 0.0
C75 C 0.66265 0.52911 0.28843 0.0
O76 O 0.70225 0.52472 0.28617 0.0
O77 O 0.64332 0.50646 0.40659 0.0
Mg78 Mg 0.53674 0.18182 0.85955 0.0
C79 C 0.47183 0.24719 0.85393 0.0
O80 O 0.4486 0.21518 0.84921 0.0
C81 C 0.53919 0.10635 0.90248 0.0
O82 O 0.55487 0.0946 0.87235 0.0
C83 C 0.6158 0.2213 0.87116 0.0
O84 O 0.59165 0.23901 0.89406 0.0
O85 O 0.60119 0.1935 0.85164 0.0
O86 O 0.50892 0.24185 0.86216 0.0
O87 O 0.50725 0.15247 0.81491 0.0
C88 C 0.47623 0.13075 0.82176 0.0
O89 O 0.466 0.12515 0.85481 0.0
O90 O 0.52869 0.14343 0.90593 0.0
Mg91 Mg 0.8467 0.04171 0.36221 0.0
C92 C 0.7631 0.03035 0.33751 0.0
O93 O 0.77571 0.0631 0.32098 0.0
C94 C 0.92079 0.03421 0.40525 0.0
O95 O 0.93405 0.04876 0.37516 0.0
C96 C 0.81042 0.12044 0.38051 0.0
O97 O 0.79328 0.09476 0.40248 0.0
O98 O 0.83706 0.10703 0.35919 0.0
O99 O 0.78681 0.01365 0.3597 0.0
O100 O 0.87861 0.01474 0.31792 0.0
C101 C 0.87787 0.97611 0.31976 0.0
O102 O 0.85911 0.95922 0.34659 0.0
O103 O 0.88284 0.02764 0.4087 0.0
C104 C 0.01791 0.44558 0.9582 0.0
C105 C 0.97926 0.4422 0.94285 0.0
C106 C 0.02538 0.47377 0.98523 0.0
C107 C 0.99333 0.49886 0.99753 0.0
C108 C 0.95421 0.49537 0.9823 0.0
C109 C 0.94772 0.46729 0.95505 0.0
C110 C 0.0676 0.47678 1.0006 0.0
C111 C 0.91909 0.52113 0.99496 0.0
C112 C 1.0023 0.54224 0.08986 0.0
C113 C 0.01387 0.58263 0.08328 0.0
C114 C 0.99528 0.51486 0.06222 0.0
C115 C 1.0004 0.52793 0.02703 0.0
C116 C 1.01204 0.56867 0.02014 0.0
C117 C 0.01838 0.59564 0.04835 0.0
C118 C 0.98235 0.47188 0.07074 0.0
C119 C 0.01816 0.58365 0.98297 0.0
H120 H 0.04253 0.42655 0.94877 0.0
H121 H 0.91774 0.46486 0.9434 0.0
H122 H 0.07903 0.5084 0.99813 0.0
H123 H 0.06675 0.46936 0.02906 0.0
H124 H 0.08946 0.45595 0.98748 0.0
H125 H 0.89058 0.51486 0.98027 0.0
H126 H 0.91357 0.51539 0.02333 0.0
H127 H 0.9266 0.55385 0.99208 0.0
H128 H 0.99849 0.53194 0.11675 0.0
H129 H 0.02747 0.62673 0.04305 0.0
H130 H 1.005 0.44999 0.06026 0.0
H131 H 0.95287 0.46506 0.05786 0.0
H132 H 0.97909 0.46669 0.09948 0.0
H133 H 0.04175 0.56504 0.96968 0.0
H134 H 0.02755 0.61609 0.98203 0.0
H135 H 0.9896 0.58013 0.96775 0.0
C136 C 0.43684 0.52389 0.55288 0.0
C137 C 0.45039 0.53303 0.58694 0.0
C138 C 0.46465 0.51638 0.52549 0.0
C139 C 0.50698 0.51742 0.53247 0.0
C140 C 0.52077 0.52668 0.5668 0.0
C141 C 0.49236 0.53465 0.59349 0.0
C142 C 0.44875 0.50715 0.48912 0.0
C143 C 0.56558 0.52751 0.57549 0.0
C144 C 0.5773 0.45824 0.47165 0.0
C145 C 0.59406 0.48924 0.45084 0.0
C146 C 0.54914 0.46703 0.49839 0.0
C147 C 0.53691 0.50778 0.50416 0.0
C148 C 0.55373 0.53926 0.48326 0.0
C149 C 0.58234 0.52965 0.45703 0.0
C150 C 0.5325 0.43265 0.52048 0.0
C151 C 0.54114 0.58303 0.48835 0.0
H152 H 0.40447 0.52275 0.54756 0.0
H153 H 0.50316 0.54147 0.61977 0.0
H154 H 0.46195 0.52873 0.4698 0.0
H155 H 0.45823 0.47612 0.48113 0.0
H156 H 0.41506 0.50909 0.48768 0.0
H157 H 0.57135 0.53553 0.60343 0.0
H158 H 0.57928 0.49727 0.57016 0.0
H159 H 0.58145 0.54987 0.55849 0.0
H160 H 0.58628 0.42694 0.46713 0.0
H161 H 0.59491 0.55376 0.44089 0.0
H162 H 0.49896 0.43111 0.51767 0.0
H163 H 0.53913 0.43827 0.54868 0.0
H164 H 0.54557 0.40271 0.51301 0.0
H165 H 0.50777 0.58604 0.48485 0.0
H166 H 0.55657 0.60386 0.46959 0.0
H167 H 0.54831 0.59294 0.51553 0.0
C168 C 0.45611 0.94367 0.04139 0.0
C169 C 0.48698 0.92756 0.06273 0.0
C170 C 0.46482 0.97267 0.01529 0.0
C171 C 0.5053 0.98639 0.01071 0.0
C172 C 0.53664 0.97013 0.03207 0.0
C173 C 0.52716 0.94069 0.05763 0.0
C174 C 0.43065 0.98872 0.99266 0.0
C175 C 0.5801 0.98423 0.02825 0.0
C176 C 0.53435 0.03432 0.9232 0.0
C177 C 0.53144 0.07604 0.93065 0.0
C178 C 0.52595 1.00491 0.94898 0.0
C179 C 0.51487 0.01741 0.98328 0.0
C180 C 0.51242 0.05948 0.99116 0.0
C181 C 0.52044 0.0883 0.96468 0.0
C182 C 0.52841 0.96041 0.93934 0.0
C183 C 0.5012 0.07401 0.02755 0.0
H184 H 0.42502 0.93362 0.04509 0.0
H185 H 0.55116 0.92865 0.07418 0.0
H186 H 0.42775 0.02209 0.99613 0.0
H187 H 0.4375 0.98313 0.96449 0.0
H188 H 0.40097 0.97438 0.99908 0.0
H189 H 0.60086 0.9689 0.04713 0.0
H190 H 0.59109 0.97822 1.00116 0.0
H191 H 0.58187 0.01757 0.03255 0.0
H192 H 0.5426 0.0245 0.89694 0.0
H193 H 0.51824 0.12045 0.97067 0.0
H194 H 0.49847 0.9457 0.94368 0.0
H195 H 0.55071 0.9447 0.95652 0.0
H196 H 0.53749 0.95571 0.91149 0.0
H197 H 0.47027 0.0632 0.03449 0.0
H198 H 0.50181 0.1077 0.02972 0.0
H199 H 0.52252 0.06104 0.0472 0.0
C200 C 0.93666 1.01186 0.46708 0.0
C201 C 0.95003 0.02548 0.43407 0.0
C202 C 0.96452 1.00358 0.49426 0.0
C203 C 1.00673 1.00885 0.48821 0.0
C204 C 0.02035 0.02256 0.45495 0.0
C205 C 0.99189 0.03077 0.42838 0.0
C206 C 0.94882 0.9892 0.52945 0.0
C207 C 0.06506 0.0284 0.44734 0.0
C208 C 0.07899 0.02238 0.56553 0.0
C209 C 0.09529 0.98314 0.56919 0.0
C210 C 0.04973 0.03103 0.53964 0.0
C211 C 0.03683 0.99985 0.51652 0.0
C212 C 0.05346 0.96028 0.51987 0.0
C213 C 0.08227 0.95235 0.54629 0.0
C214 C 0.0325 0.07352 0.53711 0.0
C215 C 0.04095 0.92635 0.49542 0.0
H216 H 0.9044 1.00774 0.47174 0.0
H217 H 1.00262 0.04122 0.40297 0.0
H218 H 0.96167 0.95883 0.53567 0.0
H219 H 0.95887 1.01031 0.55047 0.0
H220 H 0.91511 0.98713 0.53009 0.0
H221 H 0.07069 0.03914 0.42006 0.0
H222 H 0.07818 0.05083 0.46591 0.0
H223 H 0.08158 0.99931 0.4513 0.0
H224 H 0.08861 0.04628 0.58329 0.0
H225 H 0.09476 0.92198 0.54889 0.0
H226 H 0.99892 0.07258 0.53986 0.0
H227 H 0.03931 0.08663 0.51087 0.0
H228 H 0.045 0.09409 0.55759 0.0
H229 H 1.00765 0.92138 0.49717 0.0
H230 H 0.05668 0.89728 0.50153 0.0
H231 H 0.04788 0.93488 0.46782 0.0
C232 C 0.17934 0.75606 0.11723 0.0
C233 C 0.16284 0.72883 0.14183 0.0
C234 C 0.22012 0.76829 0.11916 0.0
C235 C 0.24517 0.75296 0.14638 0.0
C236 C 0.22875 0.72559 0.17142 0.0
C237 C 0.18775 0.7138 0.16884 0.0
C238 C 0.23649 0.79743 0.09187 0.0
C239 C 0.25456 0.70859 0.20079 0.0
C240 C 0.35874 0.75396 0.12858 0.0
C241 C 0.37129 0.78909 0.14649 0.0
C242 C 0.31798 0.74146 0.12896 0.0
C243 C 0.2889 0.76462 0.14772 0.0
C244 C 0.30138 0.79978 0.16633 0.0
C245 C 0.34246 0.81163 0.16548 0.0
C246 C 0.30591 0.70383 0.10872 0.0
C247 C 0.27122 0.82522 0.18664 0.0
H248 H 0.16036 0.76793 0.0963 0.0
H249 H 0.17523 0.69288 0.18803 0.0
H250 H 0.24916 0.82482 0.10487 0.0
H251 H 0.26166 0.78283 0.07708 0.0
H252 H 0.2128 0.80723 0.07284 0.0
H253 H 0.23697 0.68843 0.21865 0.0
H254 H 0.28031 0.69099 0.18965 0.0
H255 H 0.26775 0.73378 0.21648 0.0
H256 H 0.38077 0.73622 0.11392 0.0
H257 H 0.35189 0.83873 0.17947 0.0
H258 H 0.28414 0.7121 0.0876 0.0
H259 H 0.29027 0.68198 0.12639 0.0
H260 H 0.33246 0.68835 0.09657 0.0
H261 H 0.24827 0.83812 0.16838 0.0
H262 H 0.28605 0.85063 0.20097 0.0
H263 H 0.25466 0.80598 0.20588 0.0
C264 C 0.31174 0.6873 0.6753 0.0
C265 C 0.2939 0.66087 0.65082 0.0
C266 C 0.29958 0.72826 0.67749 0.0
C267 C 0.26895 0.74307 0.65462 0.0
C268 C 0.25054 0.7164 0.63017 0.0
C269 C 0.26321 0.67571 0.62859 0.0
C270 C 0.31987 0.75581 0.70393 0.0
C271 C 0.21788 0.73101 0.60523 0.0
C272 C 0.21254 0.84166 0.67433 0.0
C273 C 0.23249 0.86916 0.65197 0.0
C274 C 0.22461 0.80066 0.67607 0.0
C275 C 0.25731 0.78687 0.65493 0.0
C276 C 0.27784 0.8146 0.63268 0.0
C277 C 0.26522 0.85533 0.63149 0.0
C278 C 0.202 0.77196 0.70014 0.0
C279 C 0.31277 0.80111 0.60962 0.0
H280 H 0.33536 0.67607 0.69266 0.0
H281 H 0.24911 0.65555 0.60964 0.0
H282 H 0.3362 0.78059 0.69003 0.0
H283 H 0.29664 0.7703 0.721 0.0
H284 H 0.34191 0.73923 0.72082 0.0
H285 H 0.20566 0.70609 0.58859 0.0
H286 H 0.19238 0.74473 0.62022 0.0
H287 H 0.23033 0.75501 0.58776 0.0
H288 H 0.18733 0.8521 0.69033 0.0
H289 H 0.28094 0.87631 0.6142 0.0
H290 H 0.22362 0.75665 0.71823 0.0
H291 H 0.18701 0.74787 0.68438 0.0
H292 H 0.17847 0.78779 0.71603 0.0
H293 H 0.3368 0.78666 0.62586 0.0
H294 H 0.32646 0.82676 0.59473 0.0
H295 H 0.30202 0.77795 0.59056 0.0
C296 C 0.68533 0.21613 0.8439 0.0
C297 C 0.65893 0.23414 0.86837 0.0
C298 C 0.72629 0.22816 0.84163 0.0
C299 C 0.74116 0.25885 0.86439 0.0
C300 C 0.71451 0.27743 0.8888 0.0
C301 C 0.67381 0.26489 0.89048 0.0
C302 C 0.75382 0.20769 0.81523 0.0
C303 C 0.72916 0.31016 0.91362 0.0
C304 C 0.85332 0.26265 0.88761 0.0
C305 C 0.86714 0.29537 0.86712 0.0
C306 C 0.81265 0.24994 0.88634 0.0
C307 C 0.78495 0.27039 0.86399 0.0
C308 C 0.79875 0.30303 0.84278 0.0
C309 C 0.83971 0.31519 0.84461 0.0
C310 C 0.79915 0.21507 0.90946 0.0
C311 C 0.7701 0.32554 0.81861 0.0
H312 H 0.67406 0.19246 0.82665 0.0
H313 H 0.65369 0.27911 0.90941 0.0
H314 H 0.76836 0.23081 0.79808 0.0
H315 H 0.77855 0.19132 0.82916 0.0
H316 H 0.73721 0.18564 0.79841 0.0
H317 H 0.70426 0.32252 0.93024 0.0
H318 H 0.75315 0.29771 0.9311 0.0
H319 H 0.7429 0.33557 0.89853 0.0
H320 H 0.87426 0.24702 0.905 0.0
H321 H 0.85014 0.34039 0.82859 0.0
H322 H 0.78466 0.19105 0.89328 0.0
H323 H 0.77604 0.2259 0.92855 0.0
H324 H 0.82481 0.20133 0.92432 0.0
H325 H 0.75475 0.30385 0.80065 0.0
H326 H 0.78597 0.34891 0.80256 0.0
H327 H 0.74604 0.34073 0.8343 0.0
C328 C 0.71151 0.34175 0.35543 0.0
C329 C 0.7276 0.36923 0.37995 0.0
C330 C 0.72512 0.30124 0.35414 0.0
C331 C 0.75566 0.28802 0.3778 0.0
C332 C 0.77217 0.31569 0.40243 0.0
C333 C 0.75786 0.35587 0.40328 0.0
C334 C 0.70659 0.2725 0.32767 0.0
C335 C 0.80485 0.30279 0.42804 0.0
C336 C 0.7639 0.17589 0.40042 0.0
C337 C 0.79686 0.16344 0.37958 0.0
C338 C 0.74989 0.21617 0.39969 0.0
C339 C 0.76946 0.24489 0.37773 0.0
C340 C 0.80274 0.2326 0.35657 0.0
C341 C 0.81599 0.19194 0.35766 0.0
C342 C 0.7142 0.22802 0.42254 0.0
C343 C 0.82451 0.26247 0.33301 0.0
H344 H 0.68816 0.35183 0.33729 0.0
H345 H 0.77065 0.3769 0.42221 0.0
H346 H 0.73071 0.25944 0.31067 0.0
H347 H 0.69174 0.24677 0.34152 0.0
H348 H 0.68367 0.2877 0.31069 0.0
H349 H 0.81535 0.32833 0.44485 0.0
H350 H 0.79321 0.2782 0.44531 0.0
H351 H 0.83139 0.29038 0.41355 0.0
H352 H 0.74875 0.15408 0.41732 0.0
H353 H 0.84144 0.18255 0.34145 0.0
H354 H 0.68961 0.24116 0.4061 0.0
H355 H 0.72361 0.2518 0.44156 0.0
H356 H 0.70169 0.20179 0.43746 0.0
H357 H 0.8027 0.27638 0.31427 0.0
H358 H 0.84948 0.24797 0.31781 0.0
H359 H 0.83748 0.28749 0.34903 0.0
C360 C 0.80782 0.56691 0.33528 0.0
C361 C 0.80297 0.52516 0.32895 0.0
C362 C 0.83903 0.58903 0.31873 0.0
C363 C 0.86565 0.56895 0.29511 0.0
C364 C 0.86262 0.52634 0.29063 0.0
C365 C 0.83151 0.50497 0.30775 0.0
C366 C 0.84175 0.63432 0.3247 0.0
C367 C 0.8902 0.50372 0.26557 0.0
C368 C 0.90282 0.62653 0.21499 0.0
C369 C 0.94396 0.633 0.22291 0.0
C370 C 0.87702 0.60646 0.23861 0.0
C371 C 0.89252 0.59283 0.27129 0.0
C372 C 0.93379 0.6001 0.27993 0.0
C373 C 0.95917 0.61987 0.25548 0.0
C374 C 0.83331 0.59897 0.22814 0.0
C375 C 0.95118 0.58654 0.31474 0.0
H376 H 0.78614 0.58273 0.35185 0.0
H377 H 0.82835 0.47263 0.30298 0.0
H378 H 0.87385 0.64378 0.32839 0.0
H379 H 0.82992 0.65055 0.30124 0.0
H380 H 0.82379 0.64408 0.34797 0.0
H381 H 0.88701 0.4702 0.26809 0.0
H382 H 0.88267 0.51245 0.23813 0.0
H383 H 0.92244 0.51197 0.27019 0.0
H384 H 0.89076 0.63652 0.1899 0.0
H385 H 0.99087 0.62504 0.26187 0.0
H386 H 0.81244 0.61222 0.248 0.0
H387 H 0.82731 0.56578 0.2272 0.0
H388 H 0.82584 0.61223 0.20205 0.0
H389 H 0.93219 0.5982 0.33667 0.0
H390 H 0.98294 0.59714 0.31854 0.0
H391 H 0.95075 0.55286 0.31638 0.0
C392 C 0.40011 0.45736 0.76187 0.0
C393 C 0.41224 0.45128 0.72685 0.0
C394 C 0.40955 0.42863 0.7881 0.0
C395 C 0.43142 0.39303 0.77898 0.0
C396 C 0.44518 0.38771 0.74399 0.0
C397 C 0.43554 0.41689 0.71846 0.0
C398 C 0.39475 0.43557 0.82519 0.0
C399 C 0.46871 0.35026 0.7331 0.0
C400 C 0.48442 0.3212 0.84212 0.0
C401 C 0.45787 0.28777 0.84177 0.0
C402 C 0.4748 0.35722 0.82401 0.0
C403 C 0.43789 0.35973 0.80498 0.0
C404 C 0.40956 0.32739 0.80696 0.0
C405 C 0.41983 0.29187 0.82544 0.0
C406 C 0.50551 0.39129 0.82308 0.0
C407 C 0.36977 0.32885 0.78716 0.0
H408 H 0.38213 0.48388 0.76861 0.0
H409 H 0.44532 0.41205 0.69155 0.0
H410 H 0.37012 0.41365 0.83135 0.0
H411 H 0.41966 0.43018 0.84431 0.0
H412 H 0.3828 0.46688 0.82899 0.0
H413 H 0.47877 0.35163 0.70523 0.0
H414 H 0.49591 0.34642 0.75003 0.0
H415 H 0.44945 0.32285 0.7366 0.0
H416 H 0.51373 0.31853 0.85497 0.0
H417 H 0.39891 0.26641 0.82525 0.0
H418 H 0.49035 0.42118 0.82652 0.0
H419 H 0.52084 0.39162 0.79707 0.0
H420 H 0.52912 0.38772 0.84376 0.0
H421 H 0.35399 0.35817 0.79186 0.0
H422 H 0.3491 0.30363 0.79479 0.0
H423 H 0.37583 0.32661 0.75851 0.0
C424 C 0.56652 0.92048 0.25172 0.0
C425 C 0.58277 0.90453 0.2205 0.0
C426 C 0.59154 0.94062 0.27619 0.0
C427 C 0.63359 0.94507 0.26903 0.0
C428 C 0.65011 0.92856 0.23776 0.0
C429 C 0.62457 0.90847 0.21401 0.0
C430 C 0.57299 0.95757 0.3094 0.0
C431 C 0.69474 0.9328 0.22894 0.0
C432 C 0.69894 0.03098 0.30272 0.0
C433 C 0.72493 1.01048 0.32602 0.0
C434 C 0.66687 1.01071 0.28599 0.0
C435 C 0.6605 0.96889 0.2928 0.0
C436 C 0.68445 0.94887 0.31852 0.0
C437 C 0.71651 0.96993 0.33485 0.0
C438 C 0.64204 0.0333 0.25884 0.0
C439 C 0.67827 0.90441 0.32683 0.0
H440 H 0.53429 0.91732 0.25702 0.0
H441 H 0.63749 0.8962 0.19003 0.0
H442 H 0.58986 0.94633 0.33274 0.0
H443 H 0.57546 0.99121 0.30936 0.0
H444 H 0.54043 0.94919 0.31222 0.0
H445 H 0.70294 0.91726 0.20398 0.0
H446 H 0.70275 0.96547 0.22649 0.0
H447 H 0.71359 0.91988 0.25041 0.0
H448 H 0.70485 0.06252 0.29613 0.0
H449 H 0.73628 0.95394 0.35301 0.0
H450 H 0.60915 0.02714 0.26243 0.0
H451 H 0.65058 0.02255 0.23217 0.0
H452 H 0.64705 0.06668 0.26004 0.0
H453 H 0.64544 0.89734 0.32957 0.0
H454 H 0.69419 0.89529 0.35137 0.0
H455 H 0.69031 0.88572 0.30487 0.0
C456 C 0.04351 0.21105 0.84157 0.0
C457 C 0.06697 0.24579 0.83454 0.0
C458 C 0.05241 0.17365 0.8254 0.0
C459 C 0.08524 0.1711 0.80139 0.0
C460 C 0.1107 0.20531 0.79617 0.0
C461 C 0.1014 0.24214 0.81296 0.0
C462 C 0.02509 0.13765 0.83228 0.0
C463 C 0.14604 0.20394 0.77079 0.0
C464 C 0.12516 0.07205 0.76275 0.0
C465 C 0.10656 0.07216 0.7295 0.0
C466 C 0.11703 0.10297 0.78734 0.0
C467 C 0.08997 0.13483 0.77829 0.0
C468 C 0.06959 0.13389 0.7455 0.0
C469 C 0.07798 0.10251 0.72164 0.0
C470 C 0.13882 0.10255 0.82226 0.0
C471 C 0.04048 0.16724 0.73477 0.0
H472 H 0.01708 0.21344 0.85849 0.0
H473 H 0.1199 0.26868 0.80753 0.0
H474 H 1.00527 0.13251 0.8091 0.0
H475 H 0.04334 0.10963 0.83629 0.0
H476 H 1.00539 0.14245 0.85566 0.0
H477 H 0.16513 0.23175 0.77223 0.0
H478 H 0.16551 0.17709 0.77614 0.0
H479 H 0.13437 0.20092 0.74353 0.0
H480 H 0.14719 0.04865 0.76914 0.0
H481 H 0.06322 0.10275 0.69615 0.0
H482 H 0.1173 0.10905 0.84403 0.0
H483 H 0.16232 0.12674 0.82252 0.0
H484 H 0.15395 0.07291 0.8274 0.0
H485 H 0.01663 0.17131 0.7551 0.0
H486 H 0.02545 0.16084 0.7092 0.0
H487 H 0.05716 0.19646 0.7325 0.0
C488 C 0.06745 0.40625 0.75642 0.0
C489 C 0.07085 0.42142 0.79081 0.0
C490 C 0.09729 0.41483 0.73094 0.0
C491 C 0.1314 0.43879 0.74021 0.0
C492 C 0.1339 0.45574 0.77437 0.0
C493 C 0.10354 0.44702 0.79913 0.0
C494 C 0.09323 0.39676 0.69463 0.0
C495 C 0.16974 0.48148 0.7854 0.0
C496 C 0.23545 0.42508 0.69925 0.0
C497 C 0.23983 0.46147 0.68033 0.0
C498 C 0.19918 0.41601 0.71705 0.0
C499 C 0.16629 0.44379 0.71558 0.0
C500 C 0.16929 0.47885 0.69409 0.0
C501 C 0.20611 0.48739 0.67682 0.0
C502 C 0.19728 0.37823 0.73962 0.0
C503 C 0.13462 0.50878 0.69125 0.0
H504 H 0.04222 0.38654 0.74969 0.0
H505 H 0.10635 0.45912 0.82553 0.0
H506 H 0.09949 0.42006 0.67421 0.0
H507 H 0.11594 0.3721 0.69127 0.0
H508 H 0.06246 0.38387 0.69006 0.0
H509 H 0.16607 0.49406 0.81233 0.0
H510 H 0.19791 0.46288 0.78473 0.0
H511 H 0.17397 0.50712 0.76679 0.0
H512 H 0.26117 0.40466 0.70193 0.0
H513 H 0.20903 0.51539 0.66197 0.0
H514 H 0.16887 0.36111 0.73443 0.0
H515 H 0.19701 0.38708 0.76779 0.0
H516 H 0.22361 0.35771 0.73506 0.0
H517 H 0.10532 0.49266 0.68745 0.0
H518 H 0.13907 0.53051 0.66919 0.0
H519 H 0.13226 0.5264 0.71605 0.0
C520 C 0.66388 0.58462 0.24355 0.0
C521 C 0.64134 0.55752 0.26439 0.0
C522 C 0.64493 0.61721 0.2262 0.0
C523 C 0.60234 0.62238 0.22927 0.0
C524 C 0.57903 0.59301 0.24764 0.0
C525 C 0.59886 0.5611 0.26526 0.0
C526 C 0.671 0.64799 0.2072 0.0
C527 C 0.53344 0.59693 0.25088 0.0
C528 C 0.56168 0.73009 0.23329 0.0
C529 C 0.54617 0.73575 0.19932 0.0
C530 C 0.58049 0.69357 0.243 0.0
C531 C 0.58325 0.66145 0.21832 0.0
C532 C 0.56775 0.66693 0.18387 0.0
C533 C 0.5497 0.70429 0.17462 0.0
C534 C 0.59731 0.68937 0.27982 0.0
C535 C 0.56958 0.63313 0.15709 0.0
H536 H 0.69673 0.58206 0.2426 0.0
H537 H 0.58118 0.53998 0.28095 0.0
H538 H 0.65754 0.65599 0.18137 0.0
H539 H 0.67255 0.67632 0.223 0.0
H540 H 0.70249 0.63673 0.20293 0.0
H541 H 0.51924 0.56849 0.26079 0.0
H542 H 0.52603 0.62189 0.26943 0.0
H543 H 0.51969 0.60476 0.2251 0.0
H544 H 0.55936 0.75445 0.25239 0.0
H545 H 0.53749 0.70852 0.14839 0.0
H546 H 0.63003 0.68121 0.27874 0.0
H547 H 0.58133 0.6645 0.2939 0.0
H548 H 0.59398 0.71777 0.29538 0.0
H549 H 0.60147 0.62303 0.1533 0.0
H550 H 0.55695 0.6425 0.13122 0.0
H551 H 0.55218 0.60649 0.16682 0.0
C552 C 0.45235 0.13107 0.75891 0.0
C553 C 0.44844 0.1168 0.79356 0.0
C554 C 0.4228 0.1219 0.73335 0.0
C555 C 0.38864 0.09804 0.74279 0.0
C556 C 0.38561 0.08208 0.77729 0.0
C557 C 0.41554 0.09159 0.80216 0.0
C558 C 0.42725 0.13912 0.69676 0.0
C559 C 0.34981 0.05633 0.78846 0.0
C560 C 0.28487 0.10791 0.70067 0.0
C561 C 0.28167 0.07079 0.68271 0.0
C562 C 0.32078 0.1186 0.71831 0.0
C563 C 0.3544 0.09166 0.71779 0.0
C564 C 0.35256 0.05585 0.69721 0.0
C565 C 0.31616 0.04577 0.67996 0.0
C566 C 0.32152 0.15721 0.7398 0.0
C567 C 0.38794 0.02664 0.69552 0.0
H568 H 0.4777 0.15058 0.75204 0.0
H569 H 0.41243 0.08014 0.82877 0.0
H570 H 0.42185 0.11518 0.67675 0.0
H571 H 0.40411 0.16321 0.69256 0.0
H572 H 0.45785 0.1525 0.69233 0.0
H573 H 0.35303 0.04466 0.81575 0.0
H574 H 0.32145 0.07457 0.7869 0.0
H575 H 0.34627 0.03004 0.77046 0.0
H576 H 0.25856 0.12765 0.70271 0.0
H577 H 0.31416 0.01722 0.66583 0.0
H578 H 0.34985 0.17454 0.73472 0.0
H579 H 0.32104 0.14939 0.7682 0.0
H580 H 0.29504 0.17716 0.73408 0.0
H581 H 0.41693 0.04327 0.69162 0.0
H582 H 0.38434 1.00409 0.67399 0.0
H583 H 0.39026 1.0099 0.72079 0.0
C584 C 0.02667 0.83189 0.2159 0.0
C585 C 1.00755 0.80706 0.19088 0.0
C586 C 1.00584 0.86407 0.23202 0.0
C587 C 0.9649 0.87188 0.22274 0.0
C588 C 0.94653 0.84918 0.19536 0.0
C589 C 0.96806 0.81688 0.17977 0.0
C590 C 0.02666 0.88744 0.26108 0.0
C591 C 0.90316 0.85702 0.18431 0.0
C592 C 0.89973 0.90781 0.29872 0.0
C593 C 0.89844 0.95002 0.29339 0.0
C594 C 0.92029 0.88216 0.27532 0.0
C595 C 0.93989 0.89894 0.24552 0.0
C596 C 0.93772 0.94138 0.23927 0.0
C597 C 0.91716 0.96653 0.26343 0.0
C598 C 0.92204 0.83711 0.28319 0.0
C599 C 0.95782 0.96025 0.20753 0.0
H600 H 0.05739 0.82494 0.2243 0.0
H601 H 0.95315 0.79806 0.16025 0.0
H602 H 0.02203 0.92062 0.25766 0.0
H603 H 1.01313 0.87878 0.28677 0.0
H604 H 0.05985 0.88119 0.2621 0.0
H605 H 0.89585 0.84216 0.15885 0.0
H606 H 0.88221 0.8449 0.20465 0.0
H607 H 0.89728 0.89014 0.18193 0.0
H608 H 0.88528 0.89467 0.32169 0.0
H609 H 0.91606 0.99908 0.25901 0.0
H610 H 0.95407 0.8277 0.28753 0.0
H611 H 0.91038 0.81949 0.26047 0.0
H612 H 0.90404 0.82876 0.30685 0.0
H613 H 0.99133 0.95752 0.20991 0.0
H614 H 0.94993 0.99293 0.20453 0.0
H615 H 0.94874 0.94385 0.18328 0.0
loop_
_geom_bond_atom_site_label_1
_geom_bond_atom_site_label_2
_geom_bond_distance
_geom_bond_site_symmetry_2
_ccdc_geom_bond_type
Mg0 O7 2.141 . S
Mg0 O8 2.048 1_455 S
Mg0 O9 2.048 . S
Mg0 O12 2.141 . S
C1 O2 1.313 . S
C1 O8 1.195 . S
O2 C1 1.313 . S
C3 O4 1.245 . S
C3 O12 1.289 . S
O4 C3 1.245 . S
C5 O6 1.245 . S
C5 O7 1.289 . S
O6 C5 1.245 . S
O7 Mg0 2.141 . S
O7 C5 1.289 . S
O8 Mg0 2.048 1_655 S
O8 C1 1.195 . S
O9 Mg0 2.048 . S
O9 C10 1.195 . S
C10 O9 1.195 . S
C10 O11 1.313 1_455 S
O11 C10 1.313 1_655 S
O12 Mg0 2.141 . S
O12 C3 1.289 . S
Mg13 O20 2.141 . S
Mg13 O21 2.048 . S
Mg13 O22 2.048 . S
Mg13 O25 2.141 . S
C14 O15 1.313 . S
C14 O21 1.195 . S
O15 C14 1.313 . S
C16 O17 1.245 . S
C16 O25 1.289 . S
O17 C16 1.245 . S
C18 O19 1.245 . S
C18 O20 1.289 . S
O19 C18 1.245 . S
O20 Mg13 2.141 . S
O20 C18 1.289 . S
O21 Mg13 2.048 . S
O21 C14 1.195 . S
O22 Mg13 2.048 . S
O22 C23 1.195 . S
C23 O22 1.195 . S
C23 O24 1.313 . S
O24 C23 1.313 . S
O25 Mg13 2.141 . S
O25 C16 1.289 . S
Mg26 O33 2.141 . S
Mg26 O34 2.048 . S
Mg26 O35 2.048 . S
Mg26 O38 2.141 . S
C27 O28 1.313 . S
C27 O34 1.195 . S
O28 C27 1.313 . S
C29 O30 1.245 . S
C29 O38 1.289 . S
O30 C29 1.245 . S
C31 O32 1.245 . S
C31 O33 1.289 . S
O32 C31 1.245 . S
O33 Mg26 2.141 . S
O33 C31 1.289 . S
O34 Mg26 2.048 . S
O34 C27 1.195 . S
O35 Mg26 2.048 . S
O35 C36 1.195 . S
C36 O35 1.195 . S
C36 O37 1.313 . S
O37 C36 1.313 . S
O38 Mg26 2.141 . S
O38 C29 1.289 . S
Mg39 O46 2.141 . S
Mg39 O47 2.048 1_565 S
Mg39 O48 2.048 . S
Mg39 O51 2.141 . S
C40 O41 1.313 . S
C40 O47 1.195 . S
O41 C40 1.313 . S
C42 O43 1.245 . S
C42 O51 1.289 . S
O43 C42 1.245 . S
C44 O45 1.245 . S
C44 O46 1.289 . S
O45 C44 1.245 . S
O46 Mg39 2.141 . S
O46 C44 1.289 . S
O47 Mg39 2.048 1_545 S
O47 C40 1.195 . S
O48 Mg39 2.048 . S
O48 C49 1.195 . S
C49 O48 1.195 . S
C49 O50 1.313 1_565 S
O50 C49 1.313 1_545 S
O51 Mg39 2.141 . S
O51 C42 1.289 . S
Mg52 O59 2.141 . S
Mg52 O60 2.048 . S
Mg52 O61 2.048 1_655 S
Mg52 O64 2.141 . S
C53 O54 1.313 1_655 S
C53 O60 1.195 . S
O54 C53 1.313 1_455 S
C55 O56 1.245 . S
C55 O64 1.289 . S
O56 C55 1.245 . S
C57 O58 1.245 . S
C57 O59 1.289 . S
O58 C57 1.245 . S
O59 Mg52 2.141 . S
O59 C57 1.289 . S
O60 Mg52 2.048 . S
O60 C53 1.195 . S
O61 Mg52 2.048 1_455 S
O61 C62 1.195 . S
C62 O61 1.195 . S
C62 O63 1.313 . S
O63 C62 1.313 . S
O64 Mg52 2.141 . S
O64 C55 1.289 . S
Mg65 O72 2.141 . S
Mg65 O73 2.048 . S
Mg65 O74 2.048 . S
Mg65 O77 2.141 . S
C66 O67 1.313 . S
C66 O73 1.195 . S
O67 C66 1.313 . S
C68 O69 1.245 . S
C68 O77 1.289 . S
O69 C68 1.245 . S
C70 O71 1.245 . S
C70 O72 1.289 . S
O71 C70 1.245 . S
O72 Mg65 2.141 . S
O72 C70 1.289 . S
O73 Mg65 2.048 . S
O73 C66 1.195 . S
O74 Mg65 2.048 . S
O74 C75 1.195 . S
C75 O74 1.195 . S
C75 O76 1.313 . S
O76 C75 1.313 . S
O77 Mg65 2.141 . S
O77 C68 1.289 . S
Mg78 O85 2.141 . S
Mg78 O86 2.048 . S
Mg78 O87 2.048 . S
Mg78 O90 2.141 . S
C79 O80 1.313 . S
C79 O86 1.195 . S
O80 C79 1.313 . S
C81 O82 1.245 . S
C81 O90 1.289 . S
O82 C81 1.245 . S
C83 O84 1.245 . S
C83 O85 1.289 . S
O84 C83 1.245 . S
O85 Mg78 2.141 . S
O85 C83 1.289 . S
O86 Mg78 2.048 . S
O86 C79 1.195 . S
O87 Mg78 2.048 . S
O87 C88 1.195 . S
C88 O87 1.195 . S
C88 O89 1.313 . S
O89 C88 1.313 . S
O90 Mg78 2.141 . S
O90 C81 1.289 . S
Mg91 O98 2.141 . S
Mg91 O99 2.048 . S
Mg91 O100 2.048 1_545 S
Mg91 O103 2.141 . S
C92 O93 1.313 1_545 S
C92 O99 1.195 . S
O93 C92 1.313 1_565 S
C94 O95 1.245 . S
C94 O103 1.289 . S
O95 C94 1.245 . S
C96 O97 1.245 . S
C96 O98 1.289 . S
O97 C96 1.245 . S
O98 Mg91 2.141 . S
O98 C96 1.289 . S
O99 Mg91 2.048 . S
O99 C92 1.195 . S
O100 Mg91 2.048 1_565 S
O100 C101 1.195 . S
C101 O100 1.195 . S
C101 O102 1.313 . S
O102 C101 1.313 . S
O103 Mg91 2.141 . S
O103 C94 1.289 . S
C104 C105 1.391 . S
C104 C106 1.394 . S
C104 H120 0.931 . S
C105 C104 1.391 . S
C105 C109 1.376 1_655 S
C106 C104 1.394 . S
C106 C107 1.369 . S
C106 C110 1.531 1_556 S
C107 C106 1.369 . S
C107 C108 1.410 1_655 S
C107 C115 1.503 1_656 S
C108 C107 1.410 1_455 S
C108 C109 1.392 . S
C108 C111 1.511 . S
C109 C105 1.376 1_455 S
C109 C108 1.392 . S
C109 H121 0.929 . S
C110 C106 1.531 1_554 S
C110 H122 0.960 . S
C110 H123 0.962 1_554 S
C110 H124 0.958 1_554 S
C111 C108 1.511 . S
C111 H125 0.961 . S
C111 H126 0.961 . S
C111 H127 0.961 . S
C112 C113 1.370 . S
C112 C114 1.363 . S
C112 H128 0.931 . S
C113 C112 1.370 . S
C113 C117 1.408 . S
C114 C112 1.363 . S
C114 C115 1.370 . S
C114 C118 1.524 1_554 S
C115 C107 1.503 1_454 S
C115 C114 1.370 . S
C115 C116 1.403 . S
C116 C115 1.403 . S
C116 C117 1.404 . S
C116 C119 1.541 . S
C117 C113 1.408 . S
C117 C116 1.404 . S
C117 H129 0.930 . S
C118 C114 1.524 1_556 S
C118 H130 0.956 1_455 S
C118 H131 0.961 . S
C118 H132 0.961 . S
C119 C116 1.541 . S
C119 H133 0.948 1_455 S
C119 H134 0.968 . S
C119 H135 0.962 . S
H120 C104 0.931 . S
H121 C109 0.929 . S
H122 C110 0.960 . S
H123 C110 0.962 1_556 S
H124 C110 0.958 1_556 S
H125 C111 0.961 . S
H126 C111 0.961 . S
H127 C111 0.961 . S
H128 C112 0.931 . S
H129 C117 0.930 . S
H130 C118 0.956 1_655 S
H131 C118 0.961 . S
H132 C118 0.961 . S
H133 C119 0.948 1_655 S
H134 C119 0.968 . S
H135 C119 0.962 . S
C136 C137 1.391 . S
C136 C138 1.394 . S
C136 H152 0.931 . S
C137 C136 1.391 . S
C137 C141 1.376 . S
C138 C136 1.394 . S
C138 C139 1.369 . S
C138 C142 1.531 . S
C139 C138 1.369 . S
C139 C140 1.410 . S
C139 C147 1.503 . S
C140 C139 1.410 . S
C140 C141 1.392 . S
C140 C143 1.511 . S
C141 C137 1.376 . S
C141 C140 1.392 . S
C141 H153 0.929 . S
C142 C138 1.531 . S
C142 H154 0.960 . S
C142 H155 0.962 . S
C142 H156 0.960 . S
C143 C140 1.511 . S
C143 H157 0.961 . S
C143 H158 0.961 . S
C143 H159 0.961 . S
C144 C145 1.370 . S
C144 C146 1.363 . S
C144 H160 0.931 . S
C145 C144 1.370 . S
C145 C149 1.408 . S
C146 C144 1.363 . S
C146 C147 1.370 . S
C146 C150 1.524 . S
C147 C139 1.503 . S
C147 C146 1.370 . S
C147 C148 1.403 . S
C148 C147 1.403 . S
C148 C149 1.404 . S
C148 C151 1.539 . S
C149 C145 1.408 . S
C149 C148 1.404 . S
C149 H161 0.930 . S
C150 C146 1.524 . S
C150 H162 0.956 . S
C150 H163 0.961 . S
C150 H164 0.961 . S
C151 C148 1.539 . S
C151 H165 0.958 . S
C151 H166 0.961 . S
C151 H167 0.960 . S
H152 C136 0.931 . S
H153 C141 0.929 . S
H154 C142 0.960 . S
H155 C142 0.962 . S
H156 C142 0.960 . S
H157 C143 0.961 . S
H158 C143 0.961 . S
H159 C143 0.961 . S
H160 C144 0.931 . S
H161 C149 0.930 . S
H162 C150 0.956 . S
H163 C150 0.961 . S
H164 C150 0.961 . S
H165 C151 0.958 . S
H166 C151 0.961 . S
H167 C151 0.960 . S
C168 C169 1.391 . S
C168 C170 1.394 . S
C168 H184 0.931 . S
C169 C168 1.391 . S
C169 C173 1.376 . S
C170 C168 1.394 . S
C170 C171 1.369 . S
C170 C174 1.531 . S
C171 C170 1.369 . S
C171 C172 1.410 . S
C171 C179 1.503 1_564 S
C172 C171 1.410 . S
C172 C173 1.392 . S
C172 C175 1.511 1_565 S
C173 C169 1.376 . S
C173 C172 1.392 . S
C173 H185 0.929 . S
C174 C170 1.531 . S
C174 H186 0.960 1_554 S
C174 H187 0.962 . S
C174 H188 0.960 . S
C175 C172 1.511 1_545 S
C175 H189 0.961 . S
C175 H190 0.961 1_554 S
C175 H191 0.961 1_544 S
C176 C177 1.370 . S
C176 C178 1.363 . S
C176 H192 0.931 . S
C177 C176 1.370 . S
C177 C181 1.408 . S
C178 C176 1.363 . S
C178 C179 1.370 . S
C178 C182 1.524 1_556 S
C179 C171 1.503 1_546 S
C179 C178 1.370 . S
C179 C180 1.403 1_545 S
C180 C179 1.403 1_565 S
C180 C181 1.404 1_565 S
C180 C183 1.539 . S
C181 C177 1.408 . S
C181 C180 1.404 1_545 S
C181 H193 0.930 . S
C182 C178 1.524 1_554 S
C182 H194 0.956 . S
C182 H195 0.961 . S
C182 H196 0.961 . S
C183 C180 1.539 . S
C183 H197 0.958 . S
C183 H198 0.961 . S
C183 H199 0.960 . S
H184 C168 0.931 . S
H185 C173 0.929 . S
H186 C174 0.960 1_556 S
H187 C174 0.962 . S
H188 C174 0.960 . S
H189 C175 0.961 . S
H190 C175 0.961 1_556 S
H191 C175 0.961 1_566 S
H192 C176 0.931 . S
H193 C181 0.930 . S
H194 C182 0.956 . S
H195 C182 0.961 . S
H196 C182 0.961 . S
H197 C183 0.958 . S
H198 C183 0.961 . S
H199 C183 0.960 . S
C200 C201 1.391 . S
C200 C202 1.394 1_645 S
C200 H216 0.931 1_545 S
C201 C200 1.391 . S
C201 C205 1.376 . S
C202 C200 1.394 1_465 S
C202 C203 1.369 1_465 S
C202 C206 1.531 . S
C203 C202 1.369 1_645 S
C203 C204 1.410 . S
C203 C211 1.503 1_645 S
C204 C203 1.410 . S
C204 C205 1.392 . S
C204 C207 1.511 . S
C205 C201 1.376 . S
C205 C204 1.392 . S
C205 H217 0.929 . S
C206 C202 1.531 . S
C206 H218 0.960 . S
C206 H219 0.962 . S
C206 H220 0.960 . S
C207 C204 1.511 . S
C207 H221 0.961 . S
C207 H222 0.961 . S
C207 H223 0.961 . S
C208 C209 1.370 . S
C208 C210 1.363 . S
C208 H224 0.931 . S
C209 C208 1.370 . S
C209 C213 1.408 1_565 S
C210 C208 1.363 . S
C210 C211 1.370 . S
C210 C214 1.524 1_455 S
C211 C203 1.503 1_465 S
C211 C210 1.370 . S
C211 C212 1.403 1_565 S
C212 C211 1.403 1_545 S
C212 C213 1.404 . S
C212 C215 1.539 . S
C213 C209 1.408 1_545 S
C213 C212 1.404 . S
C213 H225 0.930 . S
C214 C210 1.524 1_655 S
C214 H226 0.956 . S
C214 H227 0.961 . S
C214 H228 0.961 . S
C215 C212 1.539 . S
C215 H229 0.958 . S
C215 H230 0.961 . S
C215 H231 0.960 . S
H216 C200 0.931 1_565 S
H217 C205 0.929 . S
H218 C206 0.960 . S
H219 C206 0.962 . S
H220 C206 0.960 . S
H221 C207 0.961 . S
H222 C207 0.961 . S
H223 C207 0.961 . S
H224 C208 0.931 . S
H225 C213 0.930 . S
H226 C214 0.956 . S
H227 C214 0.961 . S
H228 C214 0.961 . S
H229 C215 0.958 . S
H230 C215 0.961 . S
H231 C215 0.960 . S
C232 C233 1.391 . S
C232 C234 1.394 . S
C232 H248 0.931 . S
C233 C232 1.391 . S
C233 C237 1.376 . S
C234 C232 1.394 . S
C234 C235 1.369 . S
C234 C238 1.531 . S
C235 C234 1.369 . S
C235 C236 1.410 . S
C235 C243 1.503 . S
C236 C235 1.410 . S
C236 C237 1.392 . S
C236 C239 1.511 . S
C237 C233 1.376 . S
C237 C236 1.392 . S
C237 H249 0.929 . S
C238 C234 1.531 . S
C238 H250 0.960 . S
C238 H251 0.962 . S
C238 H252 0.960 . S
C239 C236 1.511 . S
C239 H253 0.961 . S
C239 H254 0.961 . S
C239 H255 0.961 . S
C240 C241 1.370 . S
C240 C242 1.363 . S
C240 H256 0.931 . S
C241 C240 1.370 . S
C241 C245 1.408 . S
C242 C240 1.363 . S
C242 C243 1.370 . S
C242 C246 1.524 . S
C243 C235 1.503 . S
C243 C242 1.370 . S
C243 C244 1.403 . S
C244 C243 1.403 . S
C244 C245 1.404 . S
C244 C247 1.539 . S
C245 C241 1.408 . S
C245 C244 1.404 . S
C245 H257 0.930 . S
C246 C242 1.524 . S
C246 H258 0.956 . S
C246 H259 0.961 . S
C246 H260 0.961 . S
C247 C244 1.539 . S
C247 H261 0.958 . S
C247 H262 0.961 . S
C247 H263 0.960 . S
H248 C232 0.931 . S
H249 C237 0.929 . S
H250 C238 0.960 . S
H251 C238 0.962 . S
H252 C238 0.960 . S
H253 C239 0.961 . S
H254 C239 0.961 . S
H255 C239 0.961 . S
H256 C240 0.931 . S
H257 C245 0.930 . S
H258 C246 0.956 . S
H259 C246 0.961 . S
H260 C246 0.961 . S
H261 C247 0.958 . S
H262 C247 0.961 . S
H263 C247 0.960 . S
C264 C265 1.391 . S
C264 C266 1.394 . S
C264 H280 0.931 . S
C265 C264 1.391 . S
C265 C269 1.376 . S
C266 C264 1.394 . S
C266 C267 1.369 . S
C266 C270 1.531 . S
C267 C266 1.369 . S
C267 C268 1.410 . S
C267 C275 1.503 . S
C268 C267 1.410 . S
C268 C269 1.392 . S
C268 C271 1.511 . S
C269 C265 1.376 . S
C269 C268 1.392 . S
C269 H281 0.929 . S
C270 C266 1.531 . S
C270 H282 0.960 . S
C270 H283 0.962 . S
C270 H284 0.960 . S
C271 C268 1.511 . S
C271 H285 0.961 . S
C271 H286 0.961 . S
C271 H287 0.961 . S
C272 C273 1.370 . S
C272 C274 1.363 . S
C272 H288 0.931 . S
C273 C272 1.370 . S
C273 C277 1.408 . S
C274 C272 1.363 . S
C274 C275 1.370 . S
C274 C278 1.524 . S
C275 C267 1.503 . S
C275 C274 1.370 . S
C275 C276 1.403 . S
C276 C275 1.403 . S
C276 C277 1.404 . S
C276 C279 1.539 . S
C277 C273 1.408 . S
C277 C276 1.404 . S
C277 H289 0.930 . S
C278 C274 1.524 . S
C278 H290 0.956 . S
C278 H291 0.961 . S
C278 H292 0.961 . S
C279 C276 1.539 . S
C279 H293 0.958 . S
C279 H294 0.961 . S
C279 H295 0.960 . S
H280 C264 0.931 . S
H281 C269 0.929 . S
H282 C270 0.960 . S
H283 C270 0.962 . S
H284 C270 0.960 . S
H285 C271 0.961 . S
H286 C271 0.961 . S
H287 C271 0.961 . S
H288 C272 0.931 . S
H289 C277 0.930 . S
H290 C278 0.956 . S
H291 C278 0.961 . S
H292 C278 0.961 . S
H293 C279 0.958 . S
H294 C279 0.961 . S
H295 C279 0.960 . S
C296 C297 1.391 . S
C296 C298 1.394 . S
C296 H312 0.931 . S
C297 C296 1.391 . S
C297 C301 1.376 . S
C298 C296 1.394 . S
C298 C299 1.369 . S
C298 C302 1.531 . S
C299 C298 1.369 . S
C299 C300 1.410 . S
C299 C307 1.503 . S
C300 C299 1.410 . S
C300 C301 1.392 . S
C300 C303 1.511 . S
C301 C297 1.376 . S
C301 C300 1.392 . S
C301 H313 0.929 . S
C302 C298 1.531 . S
C302 H314 0.960 . S
C302 H315 0.962 . S
C302 H316 0.960 . S
C303 C300 1.511 . S
C303 H317 0.961 . S
C303 H318 0.961 . S
C303 H319 0.961 . S
C304 C305 1.370 . S
C304 C306 1.363 . S
C304 H320 0.931 . S
C305 C304 1.370 . S
C305 C309 1.408 . S
C306 C304 1.363 . S
C306 C307 1.370 . S
C306 C310 1.524 . S
C307 C299 1.503 . S
C307 C306 1.370 . S
C307 C308 1.403 . S
C308 C307 1.403 . S
C308 C309 1.404 . S
C308 C311 1.539 . S
C309 C305 1.408 . S
C309 C308 1.404 . S
C309 H321 0.930 . S
C310 C306 1.524 . S
C310 H322 0.956 . S
C310 H323 0.961 . S
C310 H324 0.961 . S
C311 C308 1.539 . S
C311 H325 0.958 . S
C311 H326 0.961 . S
C311 H327 0.960 . S
H312 C296 0.931 . S
H313 C301 0.929 . S
H314 C302 0.960 . S
H315 C302 0.962 . S
H316 C302 0.960 . S
H317 C303 0.961 . S
H318 C303 0.961 . S
H319 C303 0.961 . S
H320 C304 0.931 . S
H321 C309 0.930 . S
H322 C310 0.956 . S
H323 C310 0.961 . S
H324 C310 0.961 . S
H325 C311 0.958 . S
H326 C311 0.961 . S
H327 C311 0.960 . S
C328 C329 1.391 . S
C328 C330 1.394 . S
C328 H344 0.931 . S
C329 C328 1.391 . S
C329 C333 1.376 . S
C330 C328 1.394 . S
C330 C331 1.369 . S
C330 C334 1.531 . S
C331 C330 1.369 . S
C331 C332 1.410 . S
C331 C339 1.503 . S
C332 C331 1.410 . S
C332 C333 1.392 . S
C332 C335 1.511 . S
C333 C329 1.376 . S
C333 C332 1.392 . S
C333 H345 0.929 . S
C334 C330 1.531 . S
C334 H346 0.960 . S
C334 H347 0.962 . S
C334 H348 0.960 . S
C335 C332 1.511 . S
C335 H349 0.961 . S
C335 H350 0.961 . S
C335 H351 0.961 . S
C336 C337 1.370 . S
C336 C338 1.363 . S
C336 H352 0.931 . S
C337 C336 1.370 . S
C337 C341 1.408 . S
C338 C336 1.363 . S
C338 C339 1.370 . S
C338 C342 1.524 . S
C339 C331 1.503 . S
C339 C338 1.370 . S
C339 C340 1.403 . S
C340 C339 1.403 . S
C340 C341 1.404 . S
C340 C343 1.539 . S
C341 C337 1.408 . S
C341 C340 1.404 . S
C341 H353 0.930 . S
C342 C338 1.524 . S
C342 H354 0.956 . S
C342 H355 0.961 . S
C342 H356 0.961 . S
C343 C340 1.539 . S
C343 H357 0.958 . S
C343 H358 0.961 . S
C343 H359 0.960 . S
H344 C328 0.931 . S
H345 C333 0.929 . S
H346 C334 0.960 . S
H347 C334 0.962 . S
H348 C334 0.960 . S
H349 C335 0.961 . S
H350 C335 0.961 . S
H351 C335 0.961 . S
H352 C336 0.931 . S
H353 C341 0.930 . S
H354 C342 0.956 . S
H355 C342 0.961 . S
H356 C342 0.961 . S
H357 C343 0.958 . S
H358 C343 0.961 . S
H359 C343 0.960 . S
C360 C361 1.391 . S
C360 C362 1.394 . S
C360 H376 0.931 . S
C361 C360 1.391 . S
C361 C365 1.376 . S
C362 C360 1.394 . S
C362 C363 1.369 . S
C362 C366 1.531 . S
C363 C362 1.369 . S
C363 C364 1.410 . S
C363 C371 1.503 . S
C364 C363 1.410 . S
C364 C365 1.392 . S
C364 C367 1.511 . S
C365 C361 1.376 . S
C365 C364 1.392 . S
C365 H377 0.929 . S
C366 C362 1.531 . S
C366 H378 0.960 . S
C366 H379 0.962 . S
C366 H380 0.960 . S
C367 C364 1.511 . S
C367 H381 0.961 . S
C367 H382 0.961 . S
C367 H383 0.961 . S
C368 C369 1.370 . S
C368 C370 1.363 . S
C368 H384 0.931 . S
C369 C368 1.370 . S
C369 C373 1.408 . S
C370 C368 1.363 . S
C370 C371 1.370 . S
C370 C374 1.524 . S
C371 C363 1.503 . S
C371 C370 1.370 . S
C371 C372 1.403 . S
C372 C371 1.403 . S
C372 C373 1.404 . S
C372 C375 1.539 . S
C373 C369 1.408 . S
C373 C372 1.404 . S
C373 H385 0.930 . S
C374 C370 1.524 . S
C374 H386 0.956 . S
C374 H387 0.961 . S
C374 H388 0.961 . S
C375 C372 1.539 . S
C375 H389 0.958 . S
C375 H390 0.961 . S
C375 H391 0.960 . S
H376 C360 0.931 . S
H377 C365 0.929 . S
H378 C366 0.960 . S
H379 C366 0.962 . S
H380 C366 0.960 . S
H381 C367 0.961 . S
H382 C367 0.961 . S
H383 C367 0.961 . S
H384 C368 0.931 . S
H385 C373 0.930 . S
H386 C374 0.956 . S
H387 C374 0.961 . S
H388 C374 0.961 . S
H389 C375 0.958 . S
H390 C375 0.961 . S
H391 C375 0.960 . S
C392 C393 1.391 . S
C392 C394 1.394 . S
C392 H408 0.931 . S
C393 C392 1.391 . S
C393 C397 1.376 . S
C394 C392 1.394 . S
C394 C395 1.369 . S
C394 C398 1.531 . S
C395 C394 1.369 . S
C395 C396 1.410 . S
C395 C403 1.503 . S
C396 C395 1.410 . S
C396 C397 1.392 . S
C396 C399 1.511 . S
C397 C393 1.376 . S
C397 C396 1.392 . S
C397 H409 0.929 . S
C398 C394 1.531 . S
C398 H410 0.960 . S
C398 H411 0.962 . S
C398 H412 0.960 . S
C399 C396 1.511 . S
C399 H413 0.961 . S
C399 H414 0.961 . S
C399 H415 0.961 . S
C400 C401 1.370 . S
C400 C402 1.363 . S
C400 H416 0.931 . S
C401 C400 1.370 . S
C401 C405 1.408 . S
C402 C400 1.363 . S
C402 C403 1.370 . S
C402 C406 1.524 . S
C403 C395 1.503 . S
C403 C402 1.370 . S
C403 C404 1.403 . S
C404 C403 1.403 . S
C404 C405 1.404 . S
C404 C407 1.539 . S
C405 C401 1.408 . S
C405 C404 1.404 . S
C405 H417 0.930 . S
C406 C402 1.524 . S
C406 H418 0.956 . S
C406 H419 0.961 . S
C406 H420 0.961 . S
C407 C404 1.539 . S
C407 H421 0.958 . S
C407 H422 0.961 . S
C407 H423 0.960 . S
H408 C392 0.931 . S
H409 C397 0.929 . S
H410 C398 0.960 . S
H411 C398 0.962 . S
H412 C398 0.960 . S
H413 C399 0.961 . S
H414 C399 0.961 . S
H415 C399 0.961 . S
H416 C400 0.931 . S
H417 C405 0.930 . S
H418 C406 0.956 . S
H419 C406 0.961 . S
H420 C406 0.961 . S
H421 C407 0.958 . S
H422 C407 0.961 . S
H423 C407 0.960 . S
C424 C425 1.391 . S
C424 C426 1.394 . S
C424 H440 0.931 . S
C425 C424 1.391 . S
C425 C429 1.376 . S
C426 C424 1.394 . S
C426 C427 1.369 . S
C426 C430 1.531 . S
C427 C426 1.369 . S
C427 C428 1.410 . S
C427 C435 1.503 . S
C428 C427 1.410 . S
C428 C429 1.392 . S
C428 C431 1.511 . S
C429 C425 1.376 . S
C429 C428 1.392 . S
C429 H441 0.929 . S
C430 C426 1.531 . S
C430 H442 0.960 . S
C430 H443 0.962 . S
C430 H444 0.960 . S
C431 C428 1.511 . S
C431 H445 0.961 . S
C431 H446 0.961 . S
C431 H447 0.961 . S
C432 C433 1.370 1_545 S
C432 C434 1.363 1_545 S
C432 H448 0.931 . S
C433 C432 1.370 1_565 S
C433 C437 1.408 . S
C434 C432 1.363 1_565 S
C434 C435 1.370 . S
C434 C438 1.524 1_565 S
C435 C427 1.503 . S
C435 C434 1.370 . S
C435 C436 1.403 . S
C436 C435 1.403 . S
C436 C437 1.404 . S
C436 C439 1.539 . S
C437 C433 1.408 . S
C437 C436 1.404 . S
C437 H449 0.930 . S
C438 C434 1.524 1_545 S
C438 H450 0.956 1_545 S
C438 H451 0.961 . S
C438 H452 0.961 . S
C439 C436 1.539 . S
C439 H453 0.958 . S
C439 H454 0.961 . S
C439 H455 0.960 . S
H440 C424 0.931 . S
H441 C429 0.929 . S
H442 C430 0.960 . S
H443 C430 0.962 . S
H444 C430 0.960 . S
H445 C431 0.961 . S
H446 C431 0.961 . S
H447 C431 0.961 . S
H448 C432 0.931 . S
H449 C437 0.930 . S
H450 C438 0.956 1_565 S
H451 C438 0.961 . S
H452 C438 0.961 . S
H453 C439 0.958 . S
H454 C439 0.961 . S
H455 C439 0.960 . S
C456 C457 1.391 . S
C456 C458 1.394 . S
C456 H472 0.931 1_455 S
C457 C456 1.391 . S
C457 C461 1.376 . S
C458 C456 1.394 . S
C458 C459 1.369 . S
C458 C462 1.531 . S
C459 C458 1.369 . S
C459 C460 1.410 . S
C459 C467 1.503 . S
C460 C459 1.410 . S
C460 C461 1.392 . S
C460 C463 1.511 . S
C461 C457 1.376 . S
C461 C460 1.392 . S
C461 H473 0.929 . S
C462 C458 1.531 . S
C462 H474 0.960 . S
C462 H475 0.962 . S
C462 H476 0.960 . S
C463 C460 1.511 . S
C463 H477 0.961 . S
C463 H478 0.961 . S
C463 H479 0.961 . S
C464 C465 1.370 . S
C464 C466 1.363 . S
C464 H480 0.931 . S
C465 C464 1.370 . S
C465 C469 1.408 . S
C466 C464 1.363 . S
C466 C467 1.370 . S
C466 C470 1.524 . S
C467 C459 1.503 . S
C467 C466 1.370 . S
C467 C468 1.403 . S
C468 C467 1.403 . S
C468 C469 1.404 . S
C468 C471 1.539 . S
C469 C465 1.408 . S
C469 C468 1.404 . S
C469 H481 0.930 . S
C470 C466 1.524 . S
C470 H482 0.956 1_455 S
C470 H483 0.961 . S
C470 H484 0.961 1_455 S
C471 C468 1.539 . S
C471 H485 0.958 . S
C471 H486 0.961 . S
C471 H487 0.960 . S
H472 C456 0.931 1_655 S
H473 C461 0.929 . S
H474 C462 0.960 . S
H475 C462 0.962 . S
H476 C462 0.960 . S
H477 C463 0.961 . S
H478 C463 0.961 . S
H479 C463 0.961 . S
H480 C464 0.931 . S
H481 C469 0.930 . S
H482 C470 0.956 1_655 S
H483 C470 0.961 . S
H484 C470 0.961 1_655 S
H485 C471 0.958 . S
H486 C471 0.961 . S
H487 C471 0.960 . S
C488 C489 1.391 . S
C488 C490 1.394 . S
C488 H504 0.931 . S
C489 C488 1.391 . S
C489 C493 1.376 . S
C490 C488 1.394 . S
C490 C491 1.369 . S
C490 C494 1.531 . S
C491 C490 1.369 . S
C491 C492 1.410 . S
C491 C499 1.503 . S
C492 C491 1.410 . S
C492 C493 1.392 . S
C492 C495 1.511 . S
C493 C489 1.376 . S
C493 C492 1.392 . S
C493 H505 0.929 . S
C494 C490 1.531 . S
C494 H506 0.960 . S
C494 H507 0.962 . S
C494 H508 0.960 . S
C495 C492 1.511 . S
C495 H509 0.961 . S
C495 H510 0.961 . S
C495 H511 0.961 . S
C496 C497 1.370 . S
C496 C498 1.363 . S
C496 H512 0.931 . S
C497 C496 1.370 . S
C497 C501 1.408 . S
C498 C496 1.363 . S
C498 C499 1.370 . S
C498 C502 1.524 . S
C499 C491 1.503 . S
C499 C498 1.370 . S
C499 C500 1.403 . S
C500 C499 1.403 . S
C500 C501 1.404 . S
C500 C503 1.539 . S
C501 C497 1.408 . S
C501 C500 1.404 . S
C501 H513 0.930 . S
C502 C498 1.524 . S
C502 H514 0.956 . S
C502 H515 0.961 . S
C502 H516 0.961 . S
C503 C500 1.539 . S
C503 H517 0.958 . S
C503 H518 0.961 . S
C503 H519 0.960 . S
H504 C488 0.931 . S
H505 C493 0.929 . S
H506 C494 0.960 . S
H507 C494 0.962 . S
H508 C494 0.960 . S
H509 C495 0.961 . S
H510 C495 0.961 . S
H511 C495 0.961 . S
H512 C496 0.931 . S
H513 C501 0.930 . S
H514 C502 0.956 . S
H515 C502 0.961 . S
H516 C502 0.961 . S
H517 C503 0.958 . S
H518 C503 0.961 . S
H519 C503 0.960 . S
C520 C521 1.391 . S
C520 C522 1.394 . S
C520 H536 0.931 . S
C521 C520 1.391 . S
C521 C525 1.376 . S
C522 C520 1.394 . S
C522 C523 1.369 . S
C522 C526 1.531 . S
C523 C522 1.369 . S
C523 C524 1.410 . S
C523 C531 1.503 . S
C524 C523 1.410 . S
C524 C525 1.392 . S
C524 C527 1.511 . S
C525 C521 1.376 . S
C525 C524 1.392 . S
C525 H537 0.929 . S
C526 C522 1.531 . S
C526 H538 0.960 . S
C526 H539 0.962 . S
C526 H540 0.960 . S
C527 C524 1.511 . S
C527 H541 0.961 . S
C527 H542 0.961 . S
C527 H543 0.961 . S
C528 C529 1.370 . S
C528 C530 1.363 . S
C528 H544 0.931 . S
C529 C528 1.370 . S
C529 C533 1.408 . S
C530 C528 1.363 . S
C530 C531 1.370 . S
C530 C534 1.524 . S
C531 C523 1.503 . S
C531 C530 1.370 . S
C531 C532 1.403 . S
C532 C531 1.403 . S
C532 C533 1.404 . S
C532 C535 1.539 . S
C533 C529 1.408 . S
C533 C532 1.404 . S
C533 H545 0.930 . S
C534 C530 1.524 . S
C534 H546 0.956 . S
C534 H547 0.961 . S
C534 H548 0.961 . S
C535 C532 1.539 . S
C535 H549 0.958 . S
C535 H550 0.961 . S
C535 H551 0.960 . S
H536 C520 0.931 . S
H537 C525 0.929 . S
H538 C526 0.960 . S
H539 C526 0.962 . S
H540 C526 0.960 . S
H541 C527 0.961 . S
H542 C527 0.961 . S
H543 C527 0.961 . S
H544 C528 0.931 . S
H545 C533 0.930 . S
H546 C534 0.956 . S
H547 C534 0.961 . S
H548 C534 0.961 . S
H549 C535 0.958 . S
H550 C535 0.961 . S
H551 C535 0.960 . S
C552 C553 1.391 . S
C552 C554 1.394 . S
C552 H568 0.931 . S
C553 C552 1.391 . S
C553 C557 1.376 . S
C554 C552 1.394 . S
C554 C555 1.369 . S
C554 C558 1.531 . S
C555 C554 1.369 . S
C555 C556 1.410 . S
C555 C563 1.503 . S
C556 C555 1.410 . S
C556 C557 1.392 . S
C556 C559 1.511 . S
C557 C553 1.376 . S
C557 C556 1.392 . S
C557 H569 0.929 . S
C558 C554 1.531 . S
C558 H570 0.960 1_545 S
C558 H571 0.962 . S
C558 H572 0.960 1_545 S
C559 C556 1.511 . S
C559 H573 0.961 . S
C559 H574 0.961 . S
C559 H575 0.961 . S
C560 C561 1.370 . S
C560 C562 1.363 . S
C560 H576 0.931 . S
C561 C560 1.370 . S
C561 C565 1.408 1_545 S
C562 C560 1.363 . S
C562 C563 1.370 . S
C562 C566 1.524 . S
C563 C555 1.503 . S
C563 C562 1.370 . S
C563 C564 1.403 . S
C564 C563 1.403 . S
C564 C565 1.404 1_545 S
C564 C567 1.539 1_545 S
C565 C561 1.408 1_565 S
C565 C564 1.404 1_565 S
C565 H577 0.930 . S
C566 C562 1.524 . S
C566 H578 0.956 . S
C566 H579 0.961 . S
C566 H580 0.961 . S
C567 C564 1.539 1_565 S
C567 H581 0.958 . S
C567 H582 0.961 . S
C567 H583 0.960 1_565 S
H568 C552 0.931 . S
H569 C557 0.929 . S
H570 C558 0.960 1_565 S
H571 C558 0.962 . S
H572 C558 0.960 1_565 S
H573 C559 0.961 . S
H574 C559 0.961 . S
H575 C559 0.961 . S
H576 C560 0.931 . S
H577 C565 0.930 . S
H578 C566 0.956 . S
H579 C566 0.961 . S
H580 C566 0.961 . S
H581 C567 0.958 . S
H582 C567 0.961 . S
H583 C567 0.960 1_545 S
C584 C585 1.391 1_455 S
C584 C586 1.394 1_455 S
C584 H600 0.931 . S
C585 C584 1.391 1_655 S
C585 C589 1.376 . S
C586 C584 1.394 1_655 S
C586 C587 1.369 . S
C586 C590 1.531 1_655 S
C587 C586 1.369 . S
C587 C588 1.410 . S
C587 C595 1.503 . S
C588 C587 1.410 . S
C588 C589 1.392 . S
C588 C591 1.511 . S
C589 C585 1.376 . S
C589 C588 1.392 . S
C589 H601 0.929 . S
C590 C586 1.531 1_455 S
C590 H602 0.960 1_455 S
C590 H603 0.962 . S
C590 H604 0.960 . S
C591 C588 1.511 . S
C591 H605 0.961 . S
C591 H606 0.961 . S
C591 H607 0.961 . S
C592 C593 1.370 . S
C592 C594 1.363 . S
C592 H608 0.931 . S
C593 C592 1.370 . S
C593 C597 1.408 . S
C594 C592 1.363 . S
C594 C595 1.370 . S
C594 C598 1.524 . S
C595 C587 1.503 . S
C595 C594 1.370 . S
C595 C596 1.403 . S
C596 C595 1.403 . S
C596 C597 1.404 . S
C596 C599 1.539 . S
C597 C593 1.408 . S
C597 C596 1.404 . S
C597 H609 0.930 . S
C598 C594 1.524 . S
C598 H610 0.956 . S
C598 H611 0.961 . S
C598 H612 0.961 . S
C599 C596 1.539 . S
C599 H613 0.958 . S
C599 H614 0.961 . S
C599 H615 0.960 . S
H600 C584 0.931 . S
H601 C589 0.929 . S
H602 C590 0.960 1_655 S
H603 C590 0.962 . S
H604 C590 0.960 . S
H605 C591 0.961 . S
H606 C591 0.961 . S
H607 C591 0.961 . S
H608 C592 0.931 . S
H609 C597 0.930 . S
H610 C598 0.956 . S
H611 C598 0.961 . S
H612 C598 0.961 . S
H613 C599 0.958 . S
H614 C599 0.961 . S
H615 C599 0.960 . S
C105 C55 1.786 . S
C113 C5 1.825 . S
C137 C18 1.798 . S
C145 C68 1.821 . S
C169 C31 1.793 . S
C177 C81 1.819 . S
C201 C94 1.842 . S
C209 C44 1.801 . S
C233 C3 1.932 . S
C241 C29 1.939 . S
C265 C16 1.934 . S
C273 C42 1.939 . S
C297 C83 1.932 . S
C305 C57 1.939 . S
C329 C70 1.931 . S
C337 C96 1.939 . S
C361 C66 1.415 . S
C369 C1 1.494 . S
C393 C14 1.486 . S
C401 C79 1.438 . S
C425 C27 1.491 . S
C433 C92 1.441 1_565 S
C457 C53 1.424 1_455 S
C465 C40 1.496 . S
C489 C62 1.501 . S
C497 C23 1.457 . S
C521 C75 1.489 . S
C529 C36 1.448 . S
C553 C88 1.502 . S
C561 C49 1.459 1_545 S
C585 C10 1.419 1_655 S
C593 C101 1.494 . S
