# Generated by pormake.
# Topology uoa, (4)-cn, num edge types: 1
# Building blocks:
#     Node 0, Type 0, BuildingBlock: GALJAG_clean_sbu_0, # of connection points: 4
#     Node 1, Type 0, BuildingBlock: GALJAG_clean_sbu_0, # of connection points: 4
#     Node 2, Type 0, BuildingBlock: GALJAG_clean_sbu_0, # of connection points: 4
#     Node 3, Type 0, BuildingBlock: GALJAG_clean_sbu_0, # of connection points: 4
#     Node 4, Type 0, BuildingBlock: GALJAG_clean_sbu_0, # of connection points: 4
#     Node 5, Type 0, BuildingBlock: GALJAG_clean_sbu_0, # of connection points: 4
#     Node 6, Type 0, BuildingBlock: GALJAG_clean_sbu_0, # of connection points: 4
#     Node 7, Type 0, BuildingBlock: GALJAG_clean_sbu_0, # of connection points: 4
#     Node 8, Type 0, BuildingBlock: GALJAG_clean_sbu_0, # of connection points: 4
#     Node 9, Type 0, BuildingBlock: GALJAG_clean_sbu_0, # of connection points: 4
#     Node 10, Type 0, BuildingBlock: GALJAG_clean_sbu_0, # of connection points: 4
#     Node 11, Type 0, BuildingBlock: GALJAG_clean_sbu_0, # of connection points: 4
#     Node 12, Type 0, BuildingBlock: GALJAG_clean_sbu_0, # of connection points: 4
#     Node 13, Type 0, BuildingBlock: GALJAG_clean_sbu_0, # of connection points: 4
#     Node 14, Type 0, BuildingBlock: GALJAG_clean_sbu_0, # of connection points: 4
#     Node 15, Type 0, BuildingBlock: GALJAG_clean_sbu_0, # of connection points: 4
#     Node 16, Type 0, BuildingBlock: GALJAG_clean_sbu_0, # of connection points: 4
#     Node 17, Type 0, BuildingBlock: GALJAG_clean_sbu_0, # of connection points: 4
#     Node 18, Type 0, BuildingBlock: GALJAG_clean_sbu_0, # of connection points: 4
#     Node 19, Type 0, BuildingBlock: GALJAG_clean_sbu_0, # of connection points: 4
#     Node 20, Type 0, BuildingBlock: GALJAG_clean_sbu_0, # of connection points: 4
#     Node 21, Type 0, BuildingBlock: GALJAG_clean_sbu_0, # of connection points: 4
#     Node 22, Type 0, BuildingBlock: GALJAG_clean_sbu_0, # of connection points: 4
#     Node 23, Type 0, BuildingBlock: GALJAG_clean_sbu_0, # of connection points: 4
#     Node 24, Type 0, BuildingBlock: GALJAG_clean_sbu_0, # of connection points: 4
#     Node 25, Type 0, BuildingBlock: GALJAG_clean_sbu_0, # of connection points: 4
#     Node 26, Type 0, BuildingBlock: GALJAG_clean_sbu_0, # of connection points: 4
#     Node 27, Type 0, BuildingBlock: GALJAG_clean_sbu_0, # of connection points: 4
#     Node 28, Type 0, BuildingBlock: GALJAG_clean_sbu_0, # of connection points: 4
#     Node 29, Type 0, BuildingBlock: GALJAG_clean_sbu_0, # of connection points: 4
#     Node 30, Type 0, BuildingBlock: GALJAG_clean_sbu_0, # of connection points: 4
#     Node 31, Type 0, BuildingBlock: GALJAG_clean_sbu_0, # of connection points: 4
#     Edge 32, Type (0, 0), BuildingBlock: KIFKEQ_clean_linker_1, # of connection points: 2
#     Edge 33, Type (0, 0), BuildingBlock: KIFKEQ_clean_linker_1, # of connection points: 2
#     Edge 34, Type (0, 0), BuildingBlock: KIFKEQ_clean_linker_1, # of connection points: 2
#     Edge 35, Type (0, 0), BuildingBlock: KIFKEQ_clean_linker_1, # of connection points: 2
#     Edge 36, Type (0, 0), BuildingBlock: KIFKEQ_clean_linker_1, # of connection points: 2
#     Edge 37, Type (0, 0), BuildingBlock: KIFKEQ_clean_linker_1, # of connection points: 2
#     Edge 38, Type (0, 0), BuildingBlock: KIFKEQ_clean_linker_1, # of connection points: 2
#     Edge 39, Type (0, 0), BuildingBlock: KIFKEQ_clean_linker_1, # of connection points: 2
#     Edge 40, Type (0, 0), BuildingBlock: KIFKEQ_clean_linker_1, # of connection points: 2
#     Edge 41, Type (0, 0), BuildingBlock: KIFKEQ_clean_linker_1, # of connection points: 2
#     Edge 42, Type (0, 0), BuildingBlock: KIFKEQ_clean_linker_1, # of connection points: 2
#     Edge 43, Type (0, 0), BuildingBlock: KIFKEQ_clean_linker_1, # of connection points: 2
#     Edge 44, Type (0, 0), BuildingBlock: KIFKEQ_clean_linker_1, # of connection points: 2
#     Edge 45, Type (0, 0), BuildingBlock: KIFKEQ_clean_linker_1, # of connection points: 2
#     Edge 46, Type (0, 0), BuildingBlock: KIFKEQ_clean_linker_1, # of connection points: 2
#     Edge 47, Type (0, 0), BuildingBlock: KIFKEQ_clean_linker_1, # of connection points: 2
#     Edge 48, Type (0, 0), BuildingBlock: KIFKEQ_clean_linker_1, # of connection points: 2
#     Edge 49, Type (0, 0), BuildingBlock: KIFKEQ_clean_linker_1, # of connection points: 2
#     Edge 50, Type (0, 0), BuildingBlock: KIFKEQ_clean_linker_1, # of connection points: 2
#     Edge 51, Type (0, 0), BuildingBlock: KIFKEQ_clean_linker_1, # of connection points: 2
#     Edge 52, Type (0, 0), BuildingBlock: KIFKEQ_clean_linker_1, # of connection points: 2
#     Edge 53, Type (0, 0), BuildingBlock: KIFKEQ_clean_linker_1, # of connection points: 2
#     Edge 54, Type (0, 0), BuildingBlock: KIFKEQ_clean_linker_1, # of connection points: 2
#     Edge 55, Type (0, 0), BuildingBlock: KIFKEQ_clean_linker_1, # of connection points: 2
#     Edge 56, Type (0, 0), BuildingBlock: KIFKEQ_clean_linker_1, # of connection points: 2
#     Edge 57, Type (0, 0), BuildingBlock: KIFKEQ_clean_linker_1, # of connection points: 2
#     Edge 58, Type (0, 0), BuildingBlock: KIFKEQ_clean_linker_1, # of connection points: 2
#     Edge 59, Type (0, 0), BuildingBlock: KIFKEQ_clean_linker_1, # of connection points: 2
#     Edge 60, Type (0, 0), BuildingBlock: KIFKEQ_clean_linker_1, # of connection points: 2
#     Edge 61, Type (0, 0), BuildingBlock: KIFKEQ_clean_linker_1, # of connection points: 2
#     Edge 62, Type (0, 0), BuildingBlock: KIFKEQ_clean_linker_1, # of connection points: 2
#     Edge 63, Type (0, 0), BuildingBlock: KIFKEQ_clean_linker_1, # of connection points: 2
#     Edge 64, Type (0, 0), BuildingBlock: KIFKEQ_clean_linker_1, # of connection points: 2
#     Edge 65, Type (0, 0), BuildingBlock: KIFKEQ_clean_linker_1, # of connection points: 2
#     Edge 66, Type (0, 0), BuildingBlock: KIFKEQ_clean_linker_1, # of connection points: 2
#     Edge 67, Type (0, 0), BuildingBlock: KIFKEQ_clean_linker_1, # of connection points: 2
#     Edge 68, Type (0, 0), BuildingBlock: KIFKEQ_clean_linker_1, # of connection points: 2
#     Edge 69, Type (0, 0), BuildingBlock: KIFKEQ_clean_linker_1, # of connection points: 2
#     Edge 70, Type (0, 0), BuildingBlock: KIFKEQ_clean_linker_1, # of connection points: 2
#     Edge 71, Type (0, 0), BuildingBlock: KIFKEQ_clean_linker_1, # of connection points: 2
#     Edge 72, Type (0, 0), BuildingBlock: KIFKEQ_clean_linker_1, # of connection points: 2
#     Edge 73, Type (0, 0), BuildingBlock: KIFKEQ_clean_linker_1, # of connection points: 2
#     Edge 74, Type (0, 0), BuildingBlock: KIFKEQ_clean_linker_1, # of connection points: 2
#     Edge 75, Type (0, 0), BuildingBlock: KIFKEQ_clean_linker_1, # of connection points: 2
#     Edge 76, Type (0, 0), BuildingBlock: KIFKEQ_clean_linker_1, # of connection points: 2
#     Edge 77, Type (0, 0), BuildingBlock: KIFKEQ_clean_linker_1, # of connection points: 2
#     Edge 78, Type (0, 0), BuildingBlock: KIFKEQ_clean_linker_1, # of connection points: 2
#     Edge 79, Type (0, 0), BuildingBlock: KIFKEQ_clean_linker_1, # of connection points: 2
#     Edge 80, Type (0, 0), BuildingBlock: KIFKEQ_clean_linker_1, # of connection points: 2
#     Edge 81, Type (0, 0), BuildingBlock: KIFKEQ_clean_linker_1, # of connection points: 2
#     Edge 82, Type (0, 0), BuildingBlock: KIFKEQ_clean_linker_1, # of connection points: 2
#     Edge 83, Type (0, 0), BuildingBlock: KIFKEQ_clean_linker_1, # of connection points: 2
#     Edge 84, Type (0, 0), BuildingBlock: KIFKEQ_clean_linker_1, # of connection points: 2
#     Edge 85, Type (0, 0), BuildingBlock: KIFKEQ_clean_linker_1, # of connection points: 2
#     Edge 86, Type (0, 0), BuildingBlock: KIFKEQ_clean_linker_1, # of connection points: 2
#     Edge 87, Type (0, 0), BuildingBlock: KIFKEQ_clean_linker_1, # of connection points: 2
#     Edge 88, Type (0, 0), BuildingBlock: KIFKEQ_clean_linker_1, # of connection points: 2
#     Edge 89, Type (0, 0), BuildingBlock: KIFKEQ_clean_linker_1, # of connection points: 2
#     Edge 90, Type (0, 0), BuildingBlock: KIFKEQ_clean_linker_1, # of connection points: 2
#     Edge 91, Type (0, 0), BuildingBlock: KIFKEQ_clean_linker_1, # of connection points: 2
#     Edge 92, Type (0, 0), BuildingBlock: KIFKEQ_clean_linker_1, # of connection points: 2
#     Edge 93, Type (0, 0), BuildingBlock: KIFKEQ_clean_linker_1, # of connection points: 2
#     Edge 94, Type (0, 0), BuildingBlock: KIFKEQ_clean_linker_1, # of connection points: 2
#     Edge 95, Type (0, 0), BuildingBlock: KIFKEQ_clean_linker_1, # of connection points: 2
# Relax obj value: 0.050
# Max RMSD: 0.160
# Mean RMSD: 0.160
data_MOF--net-uoa--node1-GALJAG_clean_sbu_0--edge1-KIFKEQ_clean_linker_1
_symmetry_space_group_name_H-M    P1
_symmetry_Int_Tables_number       1
_symmetry_cell_setting            triclinic
loop_
_symmetry_equiv_pos_as_xyz
'x, y, z'
_cell_length_a     76.624438
_cell_length_b     76.634617
_cell_length_c     28.939862
_cell_angle_alpha  89.983624
_cell_angle_beta   90.047031
_cell_angle_gamma 89.946065
loop_
_atom_site_label
_atom_site_type_symbol
_atom_site_fract_x
_atom_site_fract_y
_atom_site_fract_z
_atom_type_partial_charge
In0 In 0.01994 0.09701 0.01378 0.0
O1 O 0.04889 0.09698 0.03221 0.0
O2 O 0.03624 0.12133 0.01957 0.0
C3 C 0.01247 0.06283 0.00767 0.0
C4 C 0.00712 0.10478 0.09796 0.0
C5 C 0.01162 0.10721 0.92732 0.0
O6 O 0.02775 0.06856 1.00141 0.0
O7 O 0.00117 0.0743 0.01662 0.0
O8 O 0.00163 0.11004 0.96134 0.0
O9 O 0.02573 0.09959 0.93729 0.0
C10 C 0.04999 0.11346 0.03167 0.0
O11 O 0.00014 0.11078 0.06153 0.0
O12 O 0.01998 0.09483 0.09129 0.0
In13 In 0.14717 0.77045 0.30315 0.0
O14 O 0.13393 0.75135 0.35351 0.0
O15 O 0.15222 0.76978 0.37983 0.0
C16 C 0.13436 0.76233 0.21897 0.0
C17 C 0.13202 0.80092 0.32392 0.0
C18 C 0.18097 0.76279 0.28886 0.0
O19 O 0.13298 0.75208 0.25304 0.0
O20 O 0.1417 0.77665 0.22794 0.0
O21 O 0.17516 0.77818 0.2858 0.0
O22 O 0.16977 0.75141 0.29933 0.0
C23 C 0.14161 0.75765 0.38852 0.0
O24 O 0.14831 0.79971 0.31758 0.0
O25 O 0.12353 0.78701 0.31755 0.0
In26 In 0.45916 0.906 0.54745 0.0
O27 O 0.48014 0.90452 0.60305 0.0
O28 O 0.46258 0.88328 0.59905 0.0
C29 C 0.46515 0.89586 0.45917 0.0
C30 C 0.42602 0.90048 0.57387 0.0
C31 C 0.46913 0.93965 0.54396 0.0
O32 O 0.47424 0.8902 0.49242 0.0
O33 O 0.45315 0.90615 0.47078 0.0
O34 O 0.45325 0.93529 0.54116 0.0
O35 O 0.47964 0.92716 0.54893 0.0
C36 C 0.47508 0.89034 0.62037 0.0
O37 O 0.43546 0.91197 0.59276 0.0
O38 O 0.43316 0.89233 0.54105 0.0
In39 In 0.33601 0.21939 0.77849 0.0
O40 O 0.34486 0.2425 0.82301 0.0
O41 O 0.33373 0.22008 0.85579 0.0
C42 C 0.34683 0.22506 0.69164 0.0
C43 C 0.35701 0.19321 0.80257 0.0
C44 C 0.30171 0.22554 0.76923 0.0
O45 O 0.34995 0.23568 0.72411 0.0
O46 O 0.33858 0.2115 0.70339 0.0
O47 O 0.30742 0.21031 0.7773 0.0
O48 O 0.31325 0.23718 0.76593 0.0
C49 C 0.34064 0.23491 0.86026 0.0
O50 O 0.34108 0.19039 0.79313 0.0
O51 O 0.36215 0.20871 0.79696 0.0
In52 In 0.02596 0.90464 0.46181 0.0
O53 O 0.05433 0.90619 0.43841 0.0
O54 O 0.04687 0.88544 0.48313 0.0
C55 C 0.02095 0.93905 0.44878 0.0
C56 C 0.01164 0.8899 0.38558 0.0
C57 C 0.01419 0.89894 0.54872 0.0
O58 O 0.0347 0.93308 0.46698 0.0
O59 O 0.01009 0.92766 0.43616 0.0
O60 O 0.0213 0.91289 0.53573 0.0
O61 O 0.01269 0.8875 0.51752 0.0
C62 C 0.05881 0.89247 0.45956 0.0
O63 O 0.0024 0.89583 0.41815 0.0
O64 O 0.02782 0.89077 0.39251 0.0
In65 In 0.33693 0.78247 0.71992 0.0
O66 O 0.35318 0.76492 0.67135 0.0
O67 O 0.33463 0.78244 0.64224 0.0
C68 C 0.34869 0.77432 0.80512 0.0
C69 C 0.34838 0.81518 0.70733 0.0
C70 C 0.3038 0.77155 0.73096 0.0
O71 O 0.3522 0.76496 0.77028 0.0
O72 O 0.33972 0.78773 0.79643 0.0
O73 O 0.30822 0.78726 0.73674 0.0
O74 O 0.31601 0.76149 0.71899 0.0
C75 C 0.34614 0.77101 0.63514 0.0
O76 O 0.3326 0.81102 0.70113 0.0
O77 O 0.35822 0.80292 0.72062 0.0
In78 In 0.47723 0.09515 0.95246 0.0
O79 O 0.49744 0.10723 0.90347 0.0
O80 O 0.4771 0.09146 0.8754 0.0
C81 C 0.48607 0.10568 0.03808 0.0
C82 C 0.44867 0.11413 0.93486 0.0
C83 C 0.48266 0.0607 0.96253 0.0
O84 O 0.49641 0.10716 0.0042 0.0
O85 O 0.47138 0.09927 0.02829 0.0
O86 O 0.46756 0.06734 0.96479 0.0
O87 O 0.4948 0.07141 0.95484 0.0
C88 C 0.49025 0.10092 0.86775 0.0
O89 O 0.44791 0.0977 0.93904 0.0
O90 O 0.46356 0.12073 0.94153 0.0
In91 In 0.13896 0.22194 0.23886 0.0
O92 O 0.14052 0.19301 0.22054 0.0
O93 O 0.11551 0.20449 0.23222 0.0
C94 C 0.17245 0.23171 0.24801 0.0
C95 C 0.13145 0.2341 0.15393 0.0
C96 C 0.12766 0.22904 0.32486 0.0
O97 O 0.16774 0.21596 0.25196 0.0
O98 O 0.16029 0.24235 0.23956 0.0
O99 O 0.12411 0.23887 0.29093 0.0
O100 O 0.13657 0.2157 0.31495 0.0
C101 C 0.12411 0.19112 0.22054 0.0
O102 O 0.12474 0.24091 0.18969 0.0
O103 O 0.14198 0.2218 0.16168 0.0
In104 In 0.96809 0.903 0.97009 0.0
O105 O 0.98456 0.88802 0.91558 0.0
O106 O 0.96743 0.90825 0.8939 0.0
C107 C 0.9765 0.89071 0.05443 0.0
C108 C 0.93605 0.88984 0.95929 0.0
C109 C 0.97768 0.93641 0.98218 0.0
O110 O 0.98664 0.8889 0.0202 0.0
O111 O 0.96231 0.89839 0.04565 0.0
O112 O 0.96188 0.93175 0.98068 0.0
O113 O 0.98861 0.92418 0.97815 0.0
C114 C 0.9782 0.89667 0.88223 0.0
O115 O 0.93892 0.90608 0.95849 0.0
O116 O 0.94927 0.88035 0.96661 0.0
In117 In 0.84136 0.20827 0.71766 0.0
O118 O 0.83575 0.18048 0.69445 0.0
O119 O 0.86167 0.18678 0.71556 0.0
C120 C 0.80845 0.21987 0.72913 0.0
C121 C 0.8513 0.21983 0.63368 0.0
C122 C 0.85383 0.21545 0.80269 0.0
O123 O 0.81271 0.20418 0.73619 0.0
O124 O 0.82075 0.22962 0.71613 0.0
O125 O 0.85671 0.22536 0.76853 0.0
O126 O 0.84515 0.20192 0.7934 0.0
C127 C 0.85134 0.17546 0.69948 0.0
O128 O 0.85873 0.22519 0.67014 0.0
O129 O 0.83894 0.20931 0.64028 0.0
In130 In 0.53316 0.08932 0.45418 0.0
O131 O 0.51657 0.10582 0.40399 0.0
O132 O 0.53197 0.085 0.37736 0.0
C133 C 0.52722 0.10212 0.53887 0.0
C134 C 0.5659 0.10042 0.44111 0.0
C135 C 0.5195 0.05767 0.47114 0.0
O136 O 0.51796 0.10656 0.50448 0.0
O137 O 0.53947 0.09161 0.52995 0.0
O138 O 0.53577 0.06002 0.46702 0.0
O139 O 0.51029 0.07116 0.46566 0.0
C140 C 0.52168 0.09742 0.36883 0.0
O141 O 0.56172 0.08463 0.43493 0.0
O142 O 0.55372 0.11028 0.45456 0.0
In143 In 0.65109 0.76558 0.17557 0.0
O144 O 0.63957 0.74512 0.12649 0.0
O145 O 0.6546 0.76603 0.09837 0.0
C146 C 0.64247 0.75621 0.26211 0.0
C147 C 0.62958 0.79257 0.16163 0.0
C148 C 0.68572 0.76155 0.18522 0.0
O149 O 0.64122 0.74567 0.22855 0.0
O150 O 0.6476 0.77132 0.25149 0.0
O151 O 0.67858 0.77644 0.18737 0.0
O152 O 0.67545 0.74907 0.17712 0.0
C153 C 0.64556 0.75256 0.09073 0.0
O154 O 0.64598 0.79467 0.16337 0.0
O155 O 0.62438 0.77713 0.16826 0.0
In156 In 0.96356 0.0928 0.51123 0.0
O157 O 0.93587 0.08606 0.53313 0.0
O158 O 0.94158 0.11251 0.51586 0.0
C159 C 0.97681 0.06093 0.49433 0.0
C160 C 0.97547 0.1011 0.59626 0.0
C161 C 0.96912 0.10627 0.42657 0.0
O162 O 0.96059 0.06386 0.49542 0.0
O163 O 0.98629 0.07403 0.50229 0.0
O164 O 0.97866 0.11021 0.46079 0.0
O165 O 0.95667 0.09607 0.4357 0.0
C166 C 0.93047 0.1016 0.53012 0.0
O167 O 0.9801 0.10971 0.56097 0.0
O168 O 0.96554 0.08841 0.58796 0.0
In169 In 0.65132 0.21952 0.28894 0.0
O170 O 0.65292 0.24085 0.34366 0.0
O171 O 0.63108 0.22404 0.34696 0.0
C172 C 0.64031 0.22745 0.20214 0.0
C173 C 0.64355 0.1865 0.31222 0.0
C174 C 0.68589 0.22538 0.2834 0.0
O175 O 0.63559 0.23626 0.23686 0.0
O176 O 0.65013 0.2148 0.21156 0.0
O177 O 0.67956 0.21021 0.28066 0.0
O178 O 0.67483 0.23738 0.28882 0.0
C179 C 0.63941 0.23641 0.36539 0.0
O180 O 0.65655 0.19442 0.32903 0.0
O181 O 0.63465 0.19522 0.2836 0.0
In182 In 0.51155 0.89912 0.0385 0.0
O183 O 0.49092 0.88939 0.09018 0.0
O184 O 0.511 0.90649 0.11373 0.0
C185 C 0.50437 0.88603 0.95411 0.0
C186 C 0.53896 0.87952 0.06231 0.0
C187 C 0.50681 0.93317 0.0204 0.0
O188 O 0.49306 0.8862 0.98605 0.0
O189 O 0.51911 0.89199 0.96541 0.0
O190 O 0.52173 0.92698 0.02973 0.0
O191 O 0.49455 0.9222 0.02043 0.0
C192 C 0.4979 0.89731 0.12395 0.0
O193 O 0.54096 0.89497 0.04758 0.0
O194 O 0.52342 0.87404 0.06295 0.0
In195 In 0.84051 0.77769 0.81055 0.0
O196 O 0.8581 0.76088 0.85793 0.0
O197 O 0.8376 0.77593 0.88761 0.0
C198 C 0.85198 0.77105 0.72451 0.0
C199 C 0.85161 0.81014 0.8273 0.0
C200 C 0.80765 0.7666 0.79675 0.0
O201 O 0.85466 0.76051 0.75751 0.0
O202 O 0.84412 0.7849 0.73557 0.0
O203 O 0.81184 0.78249 0.79369 0.0
O204 O 0.81993 0.75646 0.80781 0.0
C205 C 0.85029 0.76577 0.89428 0.0
O206 O 0.836 0.80561 0.8346 0.0
O207 O 0.86136 0.79847 0.81043 0.0
In208 In 0.52243 0.58572 0.5465 0.0
O209 O 0.5522 0.58395 0.54781 0.0
O210 O 0.53991 0.60694 0.57398 0.0
C211 C 0.51342 0.55235 0.53084 0.0
C212 C 0.5091 0.59042 0.63158 0.0
C213 C 0.51526 0.60015 0.46348 0.0
O214 O 0.52888 0.55678 0.54038 0.0
O215 O 0.50259 0.56474 0.52925 0.0
O216 O 0.50494 0.60151 0.49739 0.0
O217 O 0.52925 0.59215 0.47222 0.0
C218 C 0.55391 0.59866 0.56703 0.0
O219 O 0.50424 0.59972 0.59771 0.0
O220 O 0.51999 0.57866 0.62176 0.0
In221 In 0.65278 0.27558 0.78596 0.0
O222 O 0.657 0.30407 0.80507 0.0
O223 O 0.63113 0.29568 0.78888 0.0
C224 C 0.68582 0.26444 0.77447 0.0
C225 C 0.64415 0.26383 0.87109 0.0
C226 C 0.64093 0.2692 0.69969 0.0
O227 O 0.68195 0.28045 0.77622 0.0
O228 O 0.67306 0.25418 0.77863 0.0
O229 O 0.63768 0.25901 0.73305 0.0
O230 O 0.64972 0.28253 0.71031 0.0
C231 C 0.64101 0.30796 0.80177 0.0
O232 O 0.63673 0.25794 0.83521 0.0
O233 O 0.65584 0.27498 0.86339 0.0
In234 In 0.96951 0.39238 0.0276 0.0
O235 O 0.98819 0.37798 0.07723 0.0
O236 O 0.96872 0.39484 0.10503 0.0
C237 C 0.97797 0.38193 0.94164 0.0
C238 C 0.93875 0.37677 0.04108 0.0
C239 C 0.97826 0.42617 0.01973 0.0
O240 O 0.98773 0.37876 0.976 0.0
O241 O 0.96408 0.39002 0.9511 0.0
O242 O 0.96276 0.42096 0.01399 0.0
O243 O 0.98913 0.41438 0.02959 0.0
C244 C 0.9811 0.38442 0.11296 0.0
O245 O 0.94041 0.39316 0.04419 0.0
O246 O 0.9524 0.36861 0.02951 0.0
In247 In 0.84191 0.72541 0.30542 0.0
O248 O 0.85421 0.74472 0.35657 0.0
O249 O 0.83298 0.72889 0.37905 0.0
C250 C 0.85755 0.73149 0.2235 0.0
C251 C 0.85655 0.69569 0.33451 0.0
C252 C 0.80887 0.73332 0.28199 0.0
O253 O 0.8578 0.74251 0.25605 0.0
O254 O 0.85007 0.7173 0.23319 0.0
O255 O 0.81348 0.71795 0.29228 0.0
O256 O 0.82085 0.74457 0.28417 0.0
C257 C 0.84441 0.74006 0.38957 0.0
O258 O 0.84175 0.69567 0.31506 0.0
O259 O 0.864 0.71033 0.33694 0.0
In260 In 0.52884 0.39891 0.97016 0.0
O261 O 0.55707 0.40375 0.94905 0.0
O262 O 0.5497 0.37796 0.96873 0.0
C263 C 0.51663 0.43147 0.98334 0.0
C264 C 0.5168 0.39005 0.88564 0.0
C265 C 0.52251 0.38678 0.05583 0.0
O266 O 0.53275 0.42811 0.98117 0.0
O267 O 0.50674 0.41845 0.97841 0.0
O268 O 0.51321 0.38243 0.02151 0.0
O269 O 0.53509 0.39681 0.04644 0.0
C270 C 0.56153 0.38798 0.954 0.0
O271 O 0.51155 0.38227 0.92165 0.0
O272 O 0.52744 0.40224 0.89294 0.0
In273 In 0.84592 0.26398 0.21981 0.0
O274 O 0.84499 0.29319 0.20462 0.0
O275 O 0.86978 0.28075 0.21192 0.0
C276 C 0.81231 0.2558 0.23447 0.0
C277 C 0.85173 0.25137 0.13414 0.0
C278 C 0.85799 0.25641 0.30486 0.0
O279 O 0.81739 0.2714 0.23012 0.0
O280 O 0.82416 0.24443 0.23109 0.0
O281 O 0.8605 0.24634 0.27078 0.0
O282 O 0.8498 0.27026 0.2955 0.0
C283 C 0.86143 0.29459 0.20319 0.0
O284 O 0.85947 0.24508 0.16907 0.0
O285 O 0.84097 0.26333 0.14309 0.0
In286 In 0.96935 0.58908 0.459 0.0
O287 O 0.93989 0.59121 0.44763 0.0
O288 O 0.95472 0.61439 0.45995 0.0
C289 C 0.97693 0.55483 0.4624 0.0
C290 C 0.98214 0.59776 0.37558 0.0
C291 C 0.97747 0.59801 0.54624 0.0
O292 O 0.96132 0.56018 0.46002 0.0
O293 O 0.98832 0.56667 0.46232 0.0
O294 O 0.98659 0.6029 0.51214 0.0
O295 O 0.96436 0.58882 0.53602 0.0
C296 C 0.94 0.6077 0.45138 0.0
O297 O 0.99099 0.59988 0.41206 0.0
O298 O 0.96722 0.59121 0.38139 0.0
In299 In 0.65787 0.70905 0.68006 0.0
O300 O 0.66062 0.67928 0.67716 0.0
O301 O 0.63745 0.69128 0.65066 0.0
C302 C 0.68992 0.72062 0.70147 0.0
C303 C 0.65347 0.72258 0.59525 0.0
C304 C 0.64231 0.71475 0.76214 0.0
O305 O 0.68717 0.7049 0.69038 0.0
O306 O 0.67663 0.73033 0.7008 0.0
O307 O 0.64062 0.7252 0.72857 0.0
O308 O 0.65112 0.70126 0.75334 0.0
C309 C 0.646 0.67745 0.6574 0.0
O310 O 0.64347 0.72658 0.62846 0.0
O311 O 0.66587 0.71246 0.60565 0.0
In312 In 0.47137 0.39302 0.47009 0.0
O313 O 0.49096 0.37967 0.42098 0.0
O314 O 0.47125 0.39616 0.39274 0.0
C315 C 0.47967 0.38213 0.55601 0.0
C316 C 0.4409 0.3772 0.45327 0.0
C317 C 0.47907 0.42703 0.47946 0.0
O318 O 0.48958 0.37937 0.5218 0.0
O319 O 0.46563 0.38993 0.5464 0.0
O320 O 0.46365 0.42138 0.48321 0.0
O321 O 0.49042 0.41556 0.47093 0.0
C322 C 0.48404 0.38621 0.38514 0.0
O323 O 0.44223 0.39365 0.45445 0.0
O324 O 0.45475 0.36894 0.46249 0.0
In325 In 0.34077 0.72346 0.22077 0.0
O326 O 0.34118 0.69405 0.20807 0.0
O327 O 0.36537 0.7077 0.21324 0.0
C328 C 0.30684 0.73112 0.23221 0.0
C329 C 0.34671 0.7361 0.1352 0.0
C330 C 0.35161 0.7317 0.30663 0.0
O331 O 0.31218 0.71557 0.22814 0.0
O332 O 0.31858 0.74262 0.23015 0.0
O333 O 0.35459 0.74148 0.27224 0.0
O334 O 0.3436 0.71775 0.29724 0.0
C335 C 0.35766 0.69339 0.20602 0.0
O336 O 0.35384 0.7428 0.17047 0.0
O337 O 0.3365 0.72363 0.14369 0.0
In338 In 0.02686 0.58385 0.96046 0.0
O339 O 0.05555 0.58053 0.9421 0.0
O340 O 0.04643 0.60589 0.96099 0.0
C341 C 0.01711 0.55047 0.97312 0.0
C342 C 0.01515 0.59261 0.87559 0.0
C343 C 0.01834 0.59597 0.04462 0.0
O344 O 0.03296 0.55498 0.97229 0.0
O345 O 0.00636 0.56272 0.96735 0.0
O346 O 0.00817 0.59741 0.01035 0.0
O347 O 0.03281 0.58879 0.03609 0.0
C348 C 0.05903 0.5965 0.94777 0.0
O349 O 0.00939 0.60005 0.9115 0.0
O350 O 0.02625 0.58083 0.88303 0.0
In351 In 0.14355 0.27644 0.73842 0.0
O352 O 0.12663 0.25907 0.69091 0.0
O353 O 0.14568 0.27579 0.66099 0.0
C354 C 0.13091 0.27012 0.82363 0.0
C355 C 0.13375 0.30931 0.71982 0.0
C356 C 0.17631 0.26427 0.74947 0.0
O357 O 0.12713 0.26051 0.78947 0.0
O358 O 0.14066 0.28289 0.81431 0.0
O359 O 0.1724 0.28015 0.75475 0.0
O360 O 0.1637 0.25454 0.73862 0.0
C361 C 0.1337 0.26484 0.65443 0.0
O362 O 0.14936 0.30424 0.71557 0.0
O363 O 0.1233 0.29801 0.73541 0.0
In364 In 0.46507 0.58742 0.05074 0.0
O365 O 0.43595 0.58867 0.06768 0.0
O366 O 0.44939 0.61213 0.0498 0.0
C367 C 0.47323 0.5534 0.04479 0.0
C368 C 0.47703 0.59583 0.13525 0.0
C369 C 0.47369 0.59638 0.9639 0.0
O370 O 0.45775 0.55877 0.03918 0.0
O371 O 0.48425 0.56512 0.05389 0.0
O372 O 0.4836 0.59972 0.99785 0.0
O373 O 0.45958 0.58884 0.97419 0.0
C374 C 0.43529 0.60507 0.0624 0.0
O375 O 0.48417 0.60176 0.09899 0.0
O376 O 0.4644 0.58562 0.12828 0.0
In377 In 0.15012 0.71398 0.80546 0.0
O378 O 0.13303 0.73084 0.85396 0.0
O379 O 0.15301 0.71495 0.88283 0.0
C380 C 0.13867 0.72089 0.71946 0.0
C381 C 0.13911 0.68119 0.81831 0.0
C382 C 0.1828 0.72597 0.79396 0.0
O383 O 0.13453 0.73037 0.75361 0.0
O384 O 0.14813 0.70791 0.72919 0.0
O385 O 0.1794 0.70987 0.79615 0.0
O386 O 0.16978 0.73592 0.79814 0.0
C387 C 0.1407 0.72548 0.89005 0.0
O388 O 0.15484 0.68554 0.82448 0.0
O389 O 0.12913 0.69325 0.80452 0.0
In390 In 0.02568 0.3973 0.52632 0.0
O391 O 0.00864 0.38075 0.57549 0.0
O392 O 0.02402 0.40137 0.60315 0.0
C393 C 0.01848 0.38372 0.44256 0.0
C394 C 0.05824 0.38698 0.54675 0.0
C395 C 0.01471 0.43012 0.50976 0.0
O396 O 0.00856 0.3813 0.47696 0.0
O397 O 0.03204 0.39247 0.45108 0.0
O398 O 0.03039 0.42547 0.50437 0.0
O399 O 0.00463 0.41828 0.52393 0.0
C400 C 0.01368 0.38897 0.61106 0.0
O401 O 0.05344 0.40268 0.55052 0.0
O402 O 0.04687 0.3767 0.53071 0.0
In403 In 0.33231 0.27631 0.28002 0.0
O404 O 0.34574 0.256 0.32659 0.0
O405 O 0.32969 0.27556 0.35721 0.0
C406 C 0.34143 0.26922 0.19277 0.0
C407 C 0.35144 0.30484 0.29524 0.0
C408 C 0.29825 0.26886 0.27225 0.0
O409 O 0.34402 0.2585 0.22538 0.0
O410 O 0.3345 0.28352 0.20446 0.0
O411 O 0.30355 0.28443 0.27648 0.0
O412 O 0.31008 0.25742 0.27209 0.0
C413 C 0.33962 0.26264 0.36324 0.0
O414 O 0.33493 0.30529 0.29747 0.0
O415 O 0.3579 0.29032 0.28358 0.0
H416 H 0.95989 0.08998 0.67462 0.0
H417 H 0.00251 0.12194 0.62616 0.0
H418 H 0.96855 0.09533 0.75408 0.0
H419 H 0.01135 0.12727 0.70667 0.0
H420 H 0.03247 0.10571 0.8512 0.0
H421 H 0.02358 0.10778 0.77037 0.0
H422 H 0.97081 0.1192 0.81298 0.0
H423 H 0.97969 0.11711 0.89401 0.0
C424 C 0.97109 0.09826 0.681 0.0
C425 C 0.98061 0.10544 0.64415 0.0
C426 C 0.97594 0.10146 0.72662 0.0
C427 C 0.99057 0.11179 0.73666 0.0
C428 C 2e-05 0.11923 0.69988 0.0
C429 C 0.99496 0.11622 0.65393 0.0
C430 C 0.01902 0.10897 0.84332 0.0
C431 C 0.00672 0.11106 0.87892 0.0
C432 C 0.01398 0.11027 0.79701 0.0
C433 C -0.00352 0.11352 0.78535 0.0
C434 C 0.98436 0.11651 0.82099 0.0
C435 C 0.98945 0.11538 0.86735 0.0
H436 H 0.15075 0.70973 0.96931 0.0
H437 H 0.11976 0.75272 0.91822 0.0
H438 H 0.14477 0.71856 0.04819 0.0
H439 H 0.11368 0.76167 0.99819 0.0
H440 H 0.13452 0.78311 0.14259 0.0
H441 H 0.13211 0.77398 0.06215 0.0
H442 H 0.12137 0.72126 0.10649 0.0
H443 H 0.12396 0.73038 0.18715 0.0
C444 C 0.14251 0.72103 0.97498 0.0
C445 C 0.13584 0.73063 0.93756 0.0
C446 C 0.13893 0.72598 0.0203 0.0
C447 C 0.12867 0.74076 0.0295 0.0
C448 C 0.12166 0.75023 0.99211 0.0
C449 C 0.1251 0.74511 0.94644 0.0
C450 C 0.13129 0.76964 0.1352 0.0
C451 C 0.12968 0.75739 0.17114 0.0
C452 C 0.12979 0.76444 0.08908 0.0
C453 C 0.12675 0.74687 0.07796 0.0
C454 C 0.12397 0.73486 0.11402 0.0
C455 C 0.12537 0.74008 0.16019 0.0
H456 H 0.46778 0.88235 0.15717 0.0
H457 H 0.51561 0.90727 0.20058 0.0
H458 H 0.45927 0.87889 0.23851 0.0
H459 H 0.50723 0.90369 0.28103 0.0
H460 H 0.49482 0.88176 0.42184 0.0
H461 H 0.50224 0.87972 0.33967 0.0
H462 H 0.45136 0.89983 0.30374 0.0
H463 H 0.44398 0.90192 0.38553 0.0
C464 C 0.47645 0.88705 0.184 0.0
C465 C 0.49228 0.89519 0.17252 0.0
C466 C 0.47161 0.88505 0.23043 0.0
C467 C 0.48267 0.89088 0.26608 0.0
C468 C 0.49857 0.89881 0.25441 0.0
C469 C 0.50326 0.90103 0.20824 0.0
C470 C 0.48513 0.88543 0.39634 0.0
C471 C 0.46889 0.89212 0.41005 0.0
C472 C 0.4894 0.88435 0.34938 0.0
C473 C 0.4774 0.88973 0.31534 0.0
C474 C 0.46081 0.89549 0.32911 0.0
C475 C 0.45664 0.89677 0.37597 0.0
H476 H 0.35591 0.23211 0.38885 0.0
H477 H 0.33305 0.27932 0.4436 0.0
H478 H 0.36179 0.22202 0.46802 0.0
H479 H 0.33884 0.26937 0.52165 0.0
H480 H 0.36137 0.25471 0.65653 0.0
H481 H 0.36333 0.26308 0.57531 0.0
H482 H 0.34279 0.21284 0.53532 0.0
H483 H 0.341 0.20438 0.61649 0.0
C484 C 0.35227 0.24034 0.41769 0.0
C485 C 0.34392 0.25642 0.41014 0.0
C486 C 0.35561 0.23459 0.46285 0.0
C487 C 0.3509 0.24499 0.50095 0.0
C488 C 0.34291 0.2612 0.49306 0.0
C489 C 0.33942 0.26682 0.44827 0.0
C490 C 0.35761 0.24533 0.63038 0.0
C491 C 0.35079 0.229 0.64283 0.0
C492 C 0.35869 0.25013 0.58392 0.0
C493 C 0.353 0.23869 0.54906 0.0
C494 C 0.34734 0.2219 0.56139 0.0
C495 C 0.34622 0.21711 0.60789 0.0
H496 H 0.00369 0.87552 0.84399 0.0
H497 H 0.96258 0.91184 0.80883 0.0
H498 H 0.0119 0.87385 0.76172 0.0
H499 H 0.97071 0.91013 0.72801 0.0
H500 H 0.00829 0.92439 0.61123 0.0
H501 H -0.00065 0.92143 0.69138 0.0
H502 H -0.00175 0.86539 0.67682 0.0
H503 H 0.00712 0.86836 0.59529 0.0
C504 C -0.00368 0.88295 0.8188 0.0
C505 C 0.98269 0.89402 0.83297 0.0
C506 C 0.00094 0.88192 0.77186 0.0
C507 C 0.99203 0.89201 0.73874 0.0
C508 C 0.97794 0.9024 0.75288 0.0
C509 C 0.97333 0.90337 0.79929 0.0
C510 C 0.00611 0.9114 0.62491 0.0
C511 C 0.0083 0.8966 0.59694 0.0
C512 C 0.00098 0.90972 0.67082 0.0
C513 C -0.00192 0.89319 0.6902 0.0
C514 C 0.00047 0.87828 0.66263 0.0
C515 C 0.00539 0.87998 0.61607 0.0
H516 H 0.36096 0.74293 0.83674 0.0
H517 H 0.3461 0.79454 0.88201 0.0
H518 H 0.36381 0.73374 0.91742 0.0
H519 H 0.34883 0.78536 0.9623 0.0
H520 H 0.36425 0.76531 0.10536 0.0
H521 H 0.3686 0.77476 0.02511 0.0
H522 H 0.34112 0.72902 0.97715 0.0
H523 H 0.33684 0.71966 0.05653 0.0
C524 C 0.35863 0.75238 0.86387 0.0
C525 C 0.35314 0.76939 0.8531 0.0
C526 C 0.36017 0.74711 0.91002 0.0
C527 C 0.35639 0.75879 0.94622 0.0
C528 C 0.35195 0.77609 0.93529 0.0
C529 C 0.35028 0.78131 0.88925 0.0
C530 C 0.35926 0.75727 0.07756 0.0
C531 C 0.35009 0.74184 0.08722 0.0
C532 C 0.36173 0.76266 0.03171 0.0
C533 C 0.35527 0.75258 0.99479 0.0
C534 C 0.3465 0.73695 0.00468 0.0
C535 C 0.34389 0.73168 0.05027 0.0
H536 H 0.465 0.10647 0.11374 0.0
H537 H 0.51864 0.11303 0.07137 0.0
H538 H 0.47391 0.10781 0.1946 0.0
H539 H 0.52754 0.11446 0.15245 0.0
H540 H 0.5361 0.08469 0.29048 0.0
H541 H 0.52778 0.09059 0.21106 0.0
H542 H 0.48755 0.12581 0.25841 0.0
H543 H 0.49598 0.11985 0.33884 0.0
C544 C 0.47866 0.10855 0.12173 0.0
C545 C 0.49117 0.10943 0.08629 0.0
C546 C 0.48373 0.10943 0.16805 0.0
C547 C 0.50143 0.11106 0.17982 0.0
C548 C 0.51382 0.11298 0.14432 0.0
C549 C 0.50873 0.11224 0.09795 0.0
C550 C 0.52553 0.09378 0.2841 0.0
C551 C 0.51661 0.10174 0.3209 0.0
C552 C 0.52089 0.0973 0.23851 0.0
C553 C 0.50711 0.10877 0.22847 0.0
C554 C 0.49823 0.1169 0.26521 0.0
C555 C 0.50304 0.11351 0.31112 0.0
H556 H 0.11516 0.23591 0.62657 0.0
H557 H 0.14084 0.2822 0.5755 0.0
H558 H 0.10923 0.22682 0.54659 0.0
H559 H 0.13496 0.27325 0.49659 0.0
H560 H 0.11418 0.2596 0.35827 0.0
H561 H 0.11137 0.26815 0.43936 0.0
H562 H 0.12875 0.21694 0.48156 0.0
H563 H 0.13144 0.20838 0.40076 0.0
C564 C 0.11932 0.24421 0.59836 0.0
C565 C 0.1286 0.25965 0.60717 0.0
C566 C 0.11597 0.23902 0.55271 0.0
C567 C 0.12158 0.24937 0.51533 0.0
C568 C 0.13024 0.26512 0.52452 0.0
C569 C 0.13377 0.27015 0.56981 0.0
C570 C 0.11705 0.25008 0.38488 0.0
C571 C 0.12325 0.23341 0.37321 0.0
C572 C 0.11549 0.25497 0.43127 0.0
C573 C 0.12 0.24326 0.46681 0.0
C574 C 0.12507 0.22622 0.45503 0.0
C575 C 0.12673 0.22137 0.40871 0.0
H576 H 0.02738 0.87013 0.31952 0.0
H577 H 0.9802 0.89886 0.34838 0.0
H578 H 0.01806 0.86608 0.23971 0.0
H579 H 0.97123 0.89576 0.26819 0.0
H580 H 0.95429 0.88398 0.12526 0.0
H581 H 0.96153 0.87932 0.20624 0.0
H582 H 0.01644 0.88269 0.17265 0.0
H583 H 0.00904 0.88631 0.0913 0.0
C584 C 0.01489 0.87539 0.30883 0.0
C585 C 0.00452 0.88484 0.34006 0.0
C586 C 0.00962 0.87326 0.26291 0.0
C587 C 0.99399 0.88082 0.24689 0.0
C588 C 0.98323 0.88952 0.27901 0.0
C589 C 0.98837 0.89137 0.32515 0.0
C590 C 0.96791 0.88339 0.13522 0.0
C591 C 0.98112 0.88561 0.10212 0.0
C592 C 0.97209 0.88087 0.18175 0.0
C593 C 0.98959 0.8809 0.19654 0.0
C594 C 0.00281 0.88236 0.16285 0.0
C595 C -0.00139 0.88453 0.11609 0.0
H596 H 0.87037 0.22295 0.10318 0.0
H597 H 0.84082 0.2676 0.05618 0.0
H598 H 0.87487 0.21403 0.0225 0.0
H599 H 0.84529 0.25878 0.97649 0.0
H600 H 0.86551 0.24679 0.83573 0.0
H601 H 0.86841 0.25539 0.91678 0.0
H602 H 0.85515 0.20303 0.95919 0.0
H603 H 0.85232 0.19443 0.8784 0.0
C604 C 0.86494 0.23088 0.0757 0.0
C605 C 0.85513 0.24588 0.08598 0.0
C606 C 0.86751 0.22579 0.02962 0.0
C607 C 0.86053 0.23578 0.99315 0.0
C608 C 0.85108 0.25097 0.00367 0.0
C609 C 0.84836 0.25591 0.04945 0.0
C610 C 0.86358 0.23704 0.86235 0.0
C611 C 0.8585 0.22 0.85078 0.0
C612 C 0.86516 0.24198 0.90873 0.0
C613 C 0.86183 0.22992 0.94434 0.0
C614 C 0.85789 0.21259 0.9326 0.0
C615 C 0.85617 0.2077 0.8863 0.0
H616 H 0.52069 0.11655 0.8395 0.0
H617 H 0.47293 0.0936 0.78855 0.0
H618 H 0.53036 0.12133 0.75961 0.0
H619 H 0.4825 0.09832 0.70958 0.0
H620 H 0.49767 0.11797 0.57121 0.0
H621 H 0.48917 0.12157 0.65212 0.0
H622 H 0.53908 0.10103 0.69541 0.0
H623 H 0.5476 0.09755 0.61484 0.0
C624 C 0.51224 0.11265 0.81131 0.0
C625 C 0.49615 0.10456 0.82018 0.0
C626 C 0.51775 0.11539 0.76572 0.0
C627 C 0.50713 0.1103 0.72839 0.0
C628 C 0.49085 0.10266 0.73753 0.0
C629 C 0.48546 0.09976 0.78284 0.0
C630 C 0.50695 0.11462 0.59803 0.0
C631 C 0.52319 0.10727 0.58681 0.0
C632 C 0.50207 0.1166 0.64429 0.0
C633 C 0.5134 0.11139 0.68003 0.0
C634 C 0.53012 0.10524 0.66868 0.0
C635 C 0.53494 0.10314 0.62251 0.0
H636 H 0.67013 0.71089 0.51859 0.0
H637 H 0.62936 0.7461 0.56277 0.0
H638 H 0.66438 0.7185 0.4384 0.0
H639 H 0.62363 0.75381 0.48186 0.0
H640 H 0.63971 0.77761 0.33665 0.0
H641 H 0.64023 0.76933 0.41804 0.0
H642 H 0.64049 0.71493 0.37918 0.0
H643 H 0.63997 0.72323 0.29752 0.0
C644 C 0.65995 0.72031 0.51117 0.0
C645 C 0.65024 0.72798 0.54698 0.0
C646 C 0.65654 0.72451 0.46517 0.0
C647 C 0.64344 0.7366 0.45387 0.0
C648 C 0.63381 0.74444 0.48966 0.0
C649 C 0.6371 0.74006 0.53586 0.0
C650 C 0.63956 0.76388 0.3455 0.0
C651 C 0.63995 0.75105 0.31079 0.0
C652 C 0.63978 0.75915 0.3921 0.0
C653 C 0.64057 0.7415 0.40489 0.0
C654 C 0.64009 0.72865 0.37021 0.0
C655 C 0.63968 0.73338 0.32354 0.0
H656 H -0.00148 0.12246 0.3944 0.0
H657 H 0.94907 0.10126 0.35 0.0
H658 H 0.00719 0.12609 0.31367 0.0
H659 H 0.95778 0.10472 0.26955 0.0
H660 H 0.97623 0.11998 0.12526 0.0
H661 H 0.9662 0.12472 0.20492 0.0
H662 H 0.0147 0.10344 0.25628 0.0
H663 H 0.02462 0.0988 0.17763 0.0
C664 C 0.98937 0.11892 0.36745 0.0
C665 C 0.97321 0.11139 0.3785 0.0
C666 C 0.99436 0.12091 0.32124 0.0
C667 C 0.98324 0.1155 0.28524 0.0
C668 C 0.9666 0.10911 0.2964 0.0
C669 C 0.96166 0.10702 0.34255 0.0
C670 C 0.98476 0.11652 0.15369 0.0
C671 C 0.00113 0.1089 0.14527 0.0
C672 C 0.97903 0.11919 0.19919 0.0
C673 C 0.9897 0.11452 0.23689 0.0
C674 C 0.00627 0.10745 0.22814 0.0
C675 C 0.01188 0.10461 0.18296 0.0
H676 H 0.6267 0.25814 0.16916 0.0
H677 H 0.64469 0.20732 0.12573 0.0
H678 H 0.6239 0.26694 0.08807 0.0
H679 H 0.64191 0.21607 0.04509 0.0
H680 H 0.62645 0.23463 0.90076 0.0
H681 H 0.62154 0.22555 0.9812 0.0
H682 H 0.64704 0.27243 0.02901 0.0
H683 H 0.65196 0.28136 0.94951 0.0
C684 C 0.62972 0.24876 0.14234 0.0
C685 C 0.63606 0.23211 0.15377 0.0
C686 C 0.62819 0.2538 0.09596 0.0
C687 C 0.63278 0.24222 0.06018 0.0
C688 C 0.63813 0.22524 0.07175 0.0
C689 C 0.63984 0.22028 0.118 0.0
C690 C 0.6308 0.24303 0.92857 0.0
C691 C 0.63972 0.2586 0.91889 0.0
C692 C 0.62804 0.23784 0.97452 0.0
C693 C 0.63387 0.24831 0.01145 0.0
C694 C 0.64218 0.26418 1.00147 0.0
C695 C 0.64515 0.26921 0.95583 0.0
H696 H 0.50406 0.90124 0.6659 0.0
H697 H 0.45998 0.86654 0.67867 0.0
H698 H 0.51155 0.89614 0.74631 0.0
H699 H 0.46763 0.86115 0.75965 0.0
H700 H 0.47237 0.88157 0.91332 0.0
H701 H 0.46637 0.87847 0.83071 0.0
H702 H 0.52174 0.87588 0.80348 0.0
H703 H 0.52768 0.87948 0.88559 0.0
C704 C 0.49622 0.89215 0.68565 0.0
C705 C 0.48142 0.88433 0.66598 0.0
C706 C 0.50055 0.88915 0.73183 0.0
C707 C 0.49015 0.87828 0.75967 0.0
C708 C 0.47581 0.86974 0.73933 0.0
C709 C 0.47153 0.87268 0.69284 0.0
C710 C 0.48322 0.87999 0.88971 0.0
C711 C 0.50048 0.881 0.90581 0.0
C712 C 0.4798 0.87814 0.84236 0.0
C713 C 0.49359 0.87717 0.8103 0.0
C714 C 0.51082 0.87697 0.82703 0.0
C715 C 0.51422 0.87895 0.87415 0.0
H716 H 0.85295 0.79363 0.65208 0.0
H717 H 0.85874 0.73909 0.68659 0.0
H718 H 0.85349 0.78636 0.56997 0.0
H719 H 0.8592 0.73181 0.60423 0.0
H720 H 0.82891 0.72661 0.46584 0.0
H721 H 0.83431 0.73397 0.54631 0.0
H722 H 0.87161 0.77303 0.5042 0.0
H723 H 0.86631 0.76552 0.42287 0.0
C724 C 0.85471 0.78012 0.64206 0.0
C725 C 0.85566 0.76689 0.67567 0.0
C726 C 0.85508 0.77598 0.59506 0.0
C727 C 0.85618 0.75852 0.58079 0.0
C728 C 0.85814 0.74538 0.61438 0.0
C729 C 0.858 0.74954 0.66145 0.0
C730 C 0.83823 0.73683 0.47358 0.0
C731 C 0.84712 0.74557 0.43799 0.0
C732 C 0.84147 0.74088 0.51974 0.0
C733 C 0.85353 0.75391 0.53151 0.0
C734 C 0.86227 0.76289 0.49601 0.0
C735 C 0.8592 0.75865 0.44959 0.0
H736 H 0.46039 0.58783 0.21499 0.0
H737 H 0.50627 0.6139 0.16277 0.0
H738 H 0.46986 0.59331 0.29362 0.0
H739 H 0.51579 0.61962 0.24236 0.0
H740 H 0.5358 0.59867 0.38683 0.0
H741 H 0.52658 0.6014 0.30662 0.0
H742 H 0.47481 0.61584 0.35169 0.0
H743 H 0.48399 0.61278 0.43219 0.0
C744 C 0.47246 0.5949 0.22034 0.0
C745 C 0.48268 0.6003 0.18267 0.0
C746 C 0.47779 0.59822 0.26553 0.0
C747 C 0.49354 0.60699 0.27435 0.0
C748 C 0.50362 0.61276 0.23666 0.0
C749 C 0.49818 0.60952 0.19116 0.0
C750 C 0.52254 0.60278 0.37966 0.0
C751 C 0.51054 0.60527 0.4158 0.0
C752 C 0.51728 0.60445 0.33362 0.0
C753 C 0.4999 0.60861 0.32273 0.0
C754 C 0.48823 0.61232 0.35898 0.0
C755 C 0.4935 0.61068 0.40509 0.0
H756 H 0.65551 0.26331 0.40909 0.0
H757 H 0.61483 0.225 0.42747 0.0
H758 H 0.65278 0.27188 0.48939 0.0
H759 H 0.61168 0.23396 0.50827 0.0
H760 H 0.63137 0.23788 0.6615 0.0
H761 H 0.62786 0.23124 0.57937 0.0
H762 H 0.63571 0.28569 0.54645 0.0
H763 H 0.63989 0.29209 0.62806 0.0
C764 C 0.64567 0.25699 0.43008 0.0
C765 C 0.63541 0.24346 0.41188 0.0
C766 C 0.64402 0.26197 0.47627 0.0
C767 C 0.63202 0.25361 0.50564 0.0
C768 C 0.62121 0.24054 0.48689 0.0
C769 C 0.62288 0.23553 0.44046 0.0
C770 C 0.63208 0.24844 0.63667 0.0
C771 C 0.63612 0.26546 0.65112 0.0
C772 C 0.62999 0.24467 0.58955 0.0
C773 C 0.63174 0.25789 0.55601 0.0
C774 C 0.63471 0.27509 0.57105 0.0
C775 C 0.637 0.27879 0.61792 0.0
H776 H 0.02947 0.39963 0.68968 0.0
H777 H 0.98661 0.3681 0.64046 0.0
H778 H 0.02099 0.39382 0.769 0.0
H779 H 0.97798 0.36228 0.72083 0.0
H780 H 0.95708 0.3833 0.86567 0.0
H781 H 0.9659 0.38134 0.7849 0.0
H782 H 0.01871 0.36987 0.82741 0.0
H783 H 0.00988 0.37188 0.90851 0.0
C784 C 0.01826 0.39135 0.69585 0.0
C785 C 0.0086 0.38444 0.65885 0.0
C786 C 0.01352 0.38786 0.7414 0.0
C787 C -0.00112 0.37752 0.75119 0.0
C788 C 0.98932 0.37033 0.71423 0.0
C789 C 0.99424 0.37364 0.66836 0.0
C790 C 0.97052 0.38004 0.85779 0.0
C791 C 0.98285 0.37795 0.89337 0.0
C792 C 0.97552 0.3788 0.8115 0.0
C793 C 0.99302 0.3756 0.79983 0.0
C794 C 0.00516 0.37253 0.83545 0.0
C795 C 0.00011 0.37361 0.88182 0.0
H796 H 0.85814 0.70973 0.14894 0.0
H797 H 0.86885 0.76284 0.18999 0.0
H798 H 0.8607 0.7181 0.06791 0.0
H799 H 0.87159 0.77117 0.10885 0.0
H800 H 0.84059 0.78155 0.97357 0.0
H801 H 0.84738 0.77316 0.0523 0.0
H802 H 0.87865 0.73027 0.00198 0.0
H803 H 0.87179 0.73883 0.92201 0.0
C804 C 0.86152 0.7231 0.14069 0.0
C805 C 0.86301 0.73571 0.17579 0.0
C806 C 0.86308 0.72786 0.09423 0.0
C807 C 0.86608 0.74534 0.082 0.0
C808 C 0.869 0.75764 0.11727 0.0
C809 C 0.86751 0.75287 0.16373 0.0
C810 C 0.84903 0.7704 0.9791 0.0
C811 C 0.85554 0.76075 0.94162 0.0
C812 C 0.85309 0.7657 0.02433 0.0
C813 C 0.86366 0.75113 0.03342 0.0
C814 C 0.87047 0.74158 0.99595 0.0
C815 C 0.86657 0.74646 0.95031 0.0
H816 H 0.54218 0.39237 0.13287 0.0
H817 H 0.49302 0.37071 0.08775 0.0
H818 H 0.53336 0.38873 0.21325 0.0
H819 H 0.48422 0.36697 0.16835 0.0
H820 H 0.46656 0.39309 0.30591 0.0
H821 H 0.47655 0.38939 0.22689 0.0
H822 H 0.52514 0.36782 0.27675 0.0
H823 H 0.51502 0.37155 0.35671 0.0
C824 C 0.52962 0.38651 0.14015 0.0
C825 C 0.5182 0.382 0.10402 0.0
C826 C 0.52462 0.38433 0.18623 0.0
C827 C 0.50804 0.3777 0.19713 0.0
C828 C 0.497 0.3723 0.16097 0.0
C829 C 0.50206 0.37437 0.11484 0.0
C830 C 0.47933 0.38741 0.30014 0.0
C831 C 0.49007 0.38272 0.33751 0.0
C832 C 0.48498 0.38514 0.25477 0.0
C833 C 0.5016 0.37825 0.24553 0.0
C834 C 0.51228 0.37322 0.28287 0.0
C835 C 0.50649 0.3753 0.32854 0.0
H836 H 0.86985 0.22503 0.33731 0.0
H837 H 0.85616 0.27715 0.38112 0.0
H838 H 0.87252 0.2161 0.41813 0.0
H839 H 0.85869 0.2682 0.4617 0.0
H840 H 0.87141 0.24776 0.60617 0.0
H841 H 0.87762 0.25682 0.52633 0.0
H842 H 0.84884 0.21233 0.47558 0.0
H843 H 0.8427 0.20341 0.55433 0.0
C844 C 0.86776 0.23466 0.36415 0.0
C845 C 0.86257 0.25171 0.35293 0.0
C846 C 0.86922 0.22954 0.4104 0.0
C847 C 0.86562 0.24141 0.44627 0.0
C848 C 0.86165 0.25878 0.43492 0.0
C849 C 0.86008 0.26387 0.38872 0.0
C850 C 0.86662 0.23987 0.57782 0.0
C851 C 0.85644 0.22499 0.5864 0.0
C852 C 0.87013 0.24505 0.53224 0.0
C853 C 0.86377 0.23524 0.49468 0.0
C854 C 0.85416 0.22003 0.50363 0.0
C855 C 0.85048 0.21502 0.54884 0.0
H856 H 0.98595 0.61059 0.84747 0.0
H857 H 0.03215 0.58464 0.79656 0.0
H858 H 0.97641 0.61573 0.76749 0.0
H859 H 0.02277 0.58982 0.7175 0.0
H860 H 0.00811 0.61142 0.57915 0.0
H861 H 0.01713 0.61382 0.66004 0.0
H862 H 0.96659 0.5951 0.70345 0.0
H863 H 0.95759 0.5927 0.62283 0.0
C864 C 0.99413 0.6062 0.81927 0.0
C865 C 0.00969 0.5971 0.82813 0.0
C866 C 0.98868 0.6091 0.77364 0.0
C867 C -0.00111 0.60323 0.73632 0.0
C868 C 0.01474 0.59471 0.74546 0.0
C869 C 0.02003 0.5916 0.79079 0.0
C870 C -0.00115 0.60811 0.60601 0.0
C871 C 0.98223 0.60168 0.59473 0.0
C872 C 0.00401 0.60944 0.65224 0.0
C873 C 0.99258 0.60455 0.68799 0.0
C874 C 0.97562 0.59909 0.67669 0.0
C875 C 0.97053 0.59759 0.63051 0.0
H876 H 0.6544 0.76889 0.01102 0.0
H877 H 0.62853 0.72282 0.06288 0.0
H878 H 0.64924 0.7593 0.93228 0.0
H879 H 0.62319 0.71319 0.98328 0.0
H880 H 0.6441 0.69381 0.83801 0.0
H881 H 0.64155 0.7027 0.91852 0.0
H882 H 0.62611 0.75438 0.87498 0.0
H883 H 0.62894 0.74554 0.79421 0.0
C884 C 0.64751 0.75673 0.00557 0.0
C885 C 0.64198 0.74654 0.04315 0.0
C886 C 0.64437 0.75133 0.96035 0.0
C887 C 0.63567 0.73555 0.95148 0.0
C888 C 0.62996 0.72539 0.98906 0.0
C889 C 0.63302 0.73089 0.03455 0.0
C890 C 0.63977 0.70696 0.8456 0.0
C891 C 0.63695 0.71906 0.80983 0.0
C892 C 0.63823 0.71203 0.89178 0.0
C893 C 0.63389 0.72931 0.90311 0.0
C894 C 0.62978 0.74104 0.86727 0.0
C895 C 0.63127 0.73596 0.82104 0.0
H896 H 0.48923 0.36957 0.85752 0.0
H897 H 0.53253 0.39998 0.80631 0.0
H898 H 0.48017 0.36357 0.77757 0.0
H899 H 0.5236 0.39402 0.72739 0.0
H900 H 0.51157 0.37187 0.58884 0.0
H901 H 0.52068 0.3701 0.66975 0.0
H902 H 0.46814 0.38226 0.71306 0.0
H903 H 0.45903 0.38395 0.63242 0.0
C904 C 0.49687 0.37482 0.82928 0.0
C905 C 0.51149 0.38535 0.83811 0.0
C906 C 0.49169 0.37141 0.78363 0.0
C907 C 0.50124 0.37825 0.7462 0.0
C908 C 0.51613 0.38833 0.75534 0.0
C909 C 0.52113 0.3919 0.80066 0.0
C910 C 0.50191 0.3738 0.61566 0.0
C911 C 0.48465 0.37824 0.60432 0.0
C912 C 0.50713 0.37287 0.66195 0.0
C913 C 0.49515 0.3762 0.69774 0.0
C914 C 0.47764 0.37951 0.68634 0.0
C915 C 0.47246 0.38059 0.6401 0.0
H916 H 0.34837 0.71173 0.38409 0.0
H917 H 0.36355 0.76315 0.33818 0.0
H918 H 0.35058 0.72122 0.46431 0.0
H919 H 0.36589 0.77262 0.41862 0.0
H920 H 0.33754 0.78733 0.55534 0.0
H921 H 0.34269 0.77762 0.47665 0.0
H922 H 0.36991 0.73221 0.52809 0.0
H923 H 0.36469 0.74204 0.60772 0.0
C924 C 0.3525 0.72498 0.39117 0.0
C925 C 0.3556 0.73676 0.35483 0.0
C926 C 0.35388 0.73037 0.43717 0.0
C927 C 0.35826 0.74771 0.44781 0.0
C928 C 0.36228 0.75923 0.41146 0.0
C929 C 0.36101 0.75379 0.36542 0.0
C930 C 0.34478 0.77534 0.54999 0.0
C931 C 0.35062 0.76538 0.58772 0.0
C932 C 0.34787 0.76986 0.5048 0.0
C933 C 0.35677 0.75419 0.49608 0.0
C934 C 0.36296 0.74434 0.53379 0.0
C935 C 0.36003 0.74996 0.57927 0.0
H936 H 0.03958 0.60562 0.11551 0.0
H937 H 0.98564 0.59644 0.08061 0.0
H938 H 0.03151 0.61023 0.19602 0.0
H939 H 0.97757 0.59958 0.16121 0.0
H940 H 0.96371 0.61185 0.30524 0.0
H941 H 0.97295 0.61577 0.22555 0.0
H942 H 0.02389 0.59512 0.26086 0.0
H943 H 0.01486 0.59274 0.34132 0.0
C944 C 0.02596 0.60465 0.12524 0.0
C945 C 0.01321 0.60069 0.09204 0.0
C946 C 0.02131 0.60709 0.1715 0.0
C947 C 0.00386 0.60509 0.18585 0.0
C948 C 0.99109 0.60161 0.15194 0.0
C949 C -0.00431 0.59968 0.10553 0.0
C950 C 0.97699 0.60852 0.29585 0.0
C951 C 0.98859 0.60195 0.32907 0.0
C952 C 0.98227 0.61055 0.25003 0.0
C953 C -0.00089 0.60543 0.23595 0.0
C954 C 0.0109 0.59946 0.26999 0.0
C955 C 0.00575 0.59797 0.31621 0.0
H956 H 0.1156 0.24031 0.85623 0.0
H957 H 0.13506 0.29058 0.89969 0.0
H958 H 0.11167 0.23195 0.93714 0.0
H959 H 0.13128 0.28219 0.98029 0.0
H960 H 0.1153 0.26421 0.12434 0.0
H961 H 0.11082 0.27356 0.04394 0.0
H962 H 0.13418 0.22552 0.99618 0.0
H963 H 0.13859 0.2163 0.07555 0.0
C964 C 0.11872 0.24968 0.883 0.0
C965 C 0.12584 0.266 0.87168 0.0
C966 C 0.11654 0.24488 0.92929 0.0
C967 C 0.12133 0.25636 0.96508 0.0
C968 C 0.12735 0.27311 0.95358 0.0
C969 C 0.12964 0.27785 0.90737 0.0
C970 C 0.11928 0.25564 0.09653 0.0
C971 C 0.12744 0.23963 0.10616 0.0
C972 C 0.11675 0.26097 0.05062 0.0
C973 C 0.1221 0.25024 0.01374 0.0
C974 C 0.12967 0.23398 0.02369 0.0
C975 C 0.13237 0.22878 0.06926 0.0
H976 H 0.52347 0.57662 0.70889 0.0
H977 H 0.4825 0.61136 0.66322 0.0
H978 H 0.51504 0.58145 0.78882 0.0
H979 H 0.47391 0.61611 0.74404 0.0
H980 H 0.45246 0.5954 0.88858 0.0
H981 H 0.46101 0.59669 0.80744 0.0
H982 H 0.51447 0.60575 0.84808 0.0
H983 H 0.50591 0.6045 0.92951 0.0
C984 C 0.51264 0.58531 0.71595 0.0
C985 C 0.50357 0.59353 0.67977 0.0
C986 C 0.50794 0.58821 0.76182 0.0
C987 C 0.49393 0.59927 0.77267 0.0
C988 C 0.48478 0.60753 0.73656 0.0
C989 C 0.48967 0.6048 0.69044 0.0
C990 C 0.466 0.59796 0.88019 0.0
C991 C 0.47857 0.59968 0.91532 0.0
C992 C 0.47085 0.59881 0.83374 0.0
C993 C 0.48841 0.60119 0.8215 0.0
C994 C 0.50085 0.60373 0.85663 0.0
C995 C 0.49596 0.6031 0.90316 0.0
H996 H 0.12396 0.72854 0.41847 0.0
H997 H 0.1516 0.7741 0.46701 0.0
H998 H 0.11946 0.71925 0.49884 0.0
H999 H 0.14708 0.76493 0.54649 0.0
H1000 H 0.12586 0.75175 0.6861 0.0
H1001 H 0.12335 0.76045 0.605 0.0
H1002 H 0.13969 0.70894 0.5627 0.0
H1003 H 0.14218 0.70025 0.64354 0.0
C1004 C 0.12896 0.73659 0.44623 0.0
C1005 C 0.13824 0.75195 0.43649 0.0
C1006 C 0.1264 0.73129 0.49211 0.0
C1007 C 0.13282 0.74143 0.52892 0.0
C1008 C 0.14173 0.75698 0.51897 0.0
C1009 C 0.14448 0.76213 0.47336 0.0
C1010 C 0.12856 0.7422 0.65946 0.0
C1011 C 0.13438 0.72539 0.6711 0.0
C1012 C 0.12721 0.7472 0.61308 0.0
C1013 C 0.13148 0.73541 0.57755 0.0
C1014 C 0.13622 0.71827 0.58927 0.0
C1015 C 0.13774 0.71334 0.63558 0.0
H1016 H 0.01064 0.36725 0.14256 0.0
H1017 H 0.96379 0.39255 0.19158 0.0
H1018 H 0.02001 0.36267 0.22283 0.0
H1019 H 0.97309 0.38813 0.27088 0.0
H1020 H 0.98762 0.37009 0.41139 0.0
H1021 H 0.97868 0.36622 0.33089 0.0
H1022 H 0.02991 0.38231 0.28565 0.0
H1023 H 0.03887 0.38594 0.36583 0.0
C1024 C 0.0023 0.37166 0.1704 0.0
C1025 C 0.98658 0.38038 0.16081 0.0
C1026 C 0.00765 0.36909 0.21628 0.0
C1027 C -0.00274 0.375 0.25325 0.0
C1028 C 0.98128 0.38317 0.24337 0.0
C1029 C 0.97604 0.38586 0.19779 0.0
C1030 C -0.00294 0.37243 0.38425 0.0
C1031 C 0.01387 0.37851 0.39488 0.0
C1032 C 0.99193 0.3703 0.33817 0.0
C1033 C 0.00353 0.37415 0.30186 0.0
C1034 C 0.02069 0.37912 0.31272 0.0
C1035 C 0.02579 0.38131 0.35872 0.0
H1036 H 0.34369 0.23702 0.15423 0.0
H1037 H 0.3467 0.29188 0.12163 0.0
H1038 H 0.34577 0.22991 0.07276 0.0
H1039 H 0.35006 0.28487 0.03992 0.0
H1040 H 0.33161 0.2666 0.8959 0.0
H1041 H 0.33418 0.27565 0.97661 0.0
H1042 H 0.36221 0.22791 0.00725 0.0
H1043 H 0.35824 0.21851 0.92767 0.0
C1044 C 0.34527 0.24754 0.12956 0.0
C1045 C 0.34496 0.26497 0.14406 0.0
C1046 C 0.3466 0.2435 0.08268 0.0
C1047 C 0.34809 0.2568 0.04925 0.0
C1048 C 0.34855 0.27427 0.0643 0.0
C1049 C 0.34679 0.2783 0.11117 0.0
C1050 C 0.33847 0.25825 0.92009 0.0
C1051 C 0.34459 0.24186 0.90621 0.0
C1052 C 0.34006 0.26341 0.96631 0.0
C1053 C 0.34818 0.2524 0.99904 0.0
C1054 C 0.35534 0.2365 0.98374 0.0
C1055 C 0.35327 0.23117 0.93805 0.0
H1056 H 0.03204 0.03616 0.97202 0.0
H1057 H 0.98269 0.04745 0.03754 0.0
H1058 H 0.02374 0.00548 0.96554 0.0
H1059 H 0.9747 0.01684 0.03312 0.0
H1060 H 0.95716 0.96523 0.97373 0.0
H1061 H 0.96603 -0.00435 0.97911 0.0
H1062 H 0.019 0.97946 0.00832 0.0
H1063 H 0.01018 0.94903 1.00082 0.0
C1064 C 0.01948 0.03203 0.98544 0.0
C1065 C 0.00795 0.04417 0.00502 0.0
C1066 C 0.01477 0.01445 0.98198 0.0
C1067 C -0.0015 0.00866 0.9986 0.0
C1068 C 0.98716 0.02085 0.01898 0.0
C1069 C 0.99177 0.03841 0.02186 0.0
C1070 C 0.97071 0.9682 0.98139 0.0
C1071 C 0.98299 0.9548 0.98697 0.0
C1072 C 0.97577 0.98564 0.98472 0.0
C1073 C 0.99323 0.99006 0.99439 0.0
C1074 C 0.0055 0.97657 1.00016 0.0
C1075 C 0.00046 0.95912 0.99624 0.0
H1076 H 0.20616 0.78324 0.25024 0.0
H1077 H 0.19726 0.7321 0.30825 0.0
H1078 H 0.23643 0.77541 0.23455 0.0
H1079 H 0.22765 0.72447 0.29453 0.0
H1080 H 0.27839 0.70994 0.22329 0.0
H1081 H 0.24784 0.71771 0.23534 0.0
H1082 H 0.26332 0.77018 0.27197 0.0
H1083 H 0.29366 0.76257 0.25793 0.0
C1084 C 0.21075 0.77039 0.26001 0.0
C1085 C 0.1994 0.75828 0.28041 0.0
C1086 C 0.22811 0.7659 0.25126 0.0
C1087 C 0.23453 0.74929 0.26328 0.0
C1088 C 0.22312 0.73725 0.28401 0.0
C1089 C 0.20572 0.74167 0.29223 0.0
C1090 C 0.2752 0.72313 0.23378 0.0
C1091 C 0.28836 0.73565 0.2396 0.0
C1092 C 0.25772 0.72758 0.24098 0.0
C1093 C 0.25308 0.74459 0.2547 0.0
C1094 C 0.26634 0.75706 0.26061 0.0
C1095 C 0.28376 0.75267 0.25287 0.0
H1096 H 0.5355 0.02586 0.47254 0.0
H1097 H 0.48602 0.05118 0.49719 0.0
H1098 H 0.52261 -0.00217 0.49274 0.0
H1099 H 0.47325 0.02333 0.51938 0.0
H1100 H 0.45188 0.96737 0.50582 0.0
H1101 H 0.46382 -0.00377 0.48916 0.0
H1102 H 0.51217 0.98155 0.55602 0.0
H1103 H 0.50047 0.95258 0.57056 0.0
C1104 C 0.52189 0.02542 0.48258 0.0
C1105 C 0.51175 0.04066 0.48312 0.0
C1106 C 0.51451 0.00939 0.49459 0.0
C1107 C 0.49688 0.00829 0.50799 0.0
C1108 C 0.48678 0.02361 0.50863 0.0
C1109 C 0.49412 0.0396 0.4961 0.0
C1110 C 0.46498 0.97044 0.51729 0.0
C1111 C 0.47531 0.95775 0.53905 0.0
C1112 C 0.47183 0.98698 0.5079 0.0
C1113 C 0.48907 0.99118 0.52069 0.0
C1114 C 0.49904 0.97865 0.5445 0.0
C1115 C 0.49228 0.96209 0.55323 0.0
H1116 H 0.27327 0.20509 0.78964 0.0
H1117 H 0.28803 0.256 0.73891 0.0
H1118 H 0.24247 0.21379 0.7868 0.0
H1119 H 0.25758 0.26445 0.73481 0.0
H1120 H 0.20462 0.28201 0.78113 0.0
H1121 H 0.23455 0.27161 0.78715 0.0
H1122 H 0.21871 0.22132 0.7342 0.0
H1123 H 0.18856 0.23163 0.72956 0.0
C1124 C 0.26991 0.21804 0.77748 0.0
C1125 C 0.28302 0.22991 0.76488 0.0
C1126 C 0.25231 0.22301 0.77572 0.0
C1127 C 0.24758 0.23991 0.76118 0.0
C1128 C 0.26076 0.25151 0.74733 0.0
C1129 C 0.27823 0.2466 0.74935 0.0
C1130 C 0.20751 0.26872 0.77097 0.0
C1131 C 0.1943 0.25768 0.75458 0.0
C1132 C 0.22468 0.26277 0.77416 0.0
C1133 C 0.22907 0.24568 0.76062 0.0
C1134 C 0.21575 0.2345 0.74521 0.0
C1135 C 0.19852 0.24044 0.7423 0.0
H1136 H 0.99477 0.9548 0.40099 0.0
H1137 H 0.03749 0.9655 0.49417 0.0
H1138 H 0.98514 0.985 0.4073 0.0
H1139 H 0.02753 -0.0044 0.50187 0.0
H1140 H 0.01107 0.05223 0.48294 0.0
H1141 H 0.02316 0.0235 0.4655 0.0
H1142 H 0.97113 0.00173 0.46638 0.0
H1143 H 0.95908 0.03049 0.48236 0.0
C1144 C 0.00219 0.96368 0.42249 0.0
C1145 C 0.0168 0.95781 0.44735 0.0
C1146 C -0.0034 0.98094 0.42642 0.0
C1147 C 0.00537 0.99264 0.45572 0.0
C1148 C 0.02052 0.98697 0.47878 0.0
C1149 C 0.02622 0.96971 0.47447 0.0
C1150 C 0.00224 0.04129 0.47924 0.0
C1151 C 0.98414 0.04357 0.48403 0.0
C1152 C 0.00917 0.02483 0.46941 0.0
C1153 C -0.00188 0.01032 0.46435 0.0
C1154 C 0.98 0.01268 0.46913 0.0
C1155 C 0.97308 0.02913 0.4787 0.0
H1156 H 0.19202 0.75921 0.77198 0.0
H1157 H 0.21352 0.70797 0.79725 0.0
H1158 H 0.22111 0.77032 0.75559 0.0
H1159 H 0.24278 0.7192 0.78284 0.0
H1160 H 0.29025 0.74 0.7072 0.0
H1161 H 0.26094 0.72913 0.72221 0.0
H1162 H 0.24801 0.77764 0.79046 0.0
H1163 H 0.27712 0.78873 0.77354 0.0
C1164 C 0.20302 0.75037 0.77452 0.0
C1165 C 0.20054 0.73273 0.7858 0.0
C1166 C 0.21972 0.75675 0.76539 0.0
C1167 C 0.23433 0.74567 0.76787 0.0
C1168 C 0.23181 0.72804 0.77977 0.0
C1169 C 0.21507 0.72161 0.78837 0.0
C1170 C 0.28109 0.74835 0.72519 0.0
C1171 C 0.28591 0.76521 0.73912 0.0
C1172 C 0.26433 0.74208 0.73417 0.0
C1173 C 0.2521 0.75246 0.75778 0.0
C1174 C 0.25698 0.76938 0.77159 0.0
C1175 C 0.27368 0.77572 0.7621 0.0
H1176 H 0.47728 0.94773 0.98564 0.0
H1177 H 0.5292 0.96058 0.03273 0.0
H1178 H 0.47158 0.97837 0.9699 0.0
H1179 H 0.52329 0.99145 0.01873 0.0
H1180 H 0.46011 0.03586 0.99408 0.0
H1181 H 0.46626 0.00511 0.00833 0.0
H1182 H 0.51903 0.0124 0.95915 0.0
H1183 H 0.51302 0.04325 0.94672 0.0
C1184 C 0.48745 0.95716 0.99289 0.0
C1185 C 0.50368 0.95179 0.01046 0.0
C1186 C 0.48414 0.97475 0.98417 0.0
C1187 C 0.49691 0.98744 0.9933 0.0
C1188 C 0.51322 0.98203 0.0107 0.0
C1189 C 0.51659 0.96436 0.01897 0.0
C1190 C 0.47299 0.03085 0.98626 0.0
C1191 C 0.48608 0.04193 0.96935 0.0
C1192 C 0.47652 0.0132 0.99419 0.0
C1193 C 0.49317 0.00623 0.98489 0.0
C1194 C 0.50617 0.01735 0.96747 0.0
C1195 C 0.50269 0.03502 0.96 0.0
H1196 H 0.186 0.26347 0.22639 0.0
H1197 H 0.20013 0.21276 0.27979 0.0
H1198 H 0.2163 0.2728 0.23188 0.0
H1199 H 0.23035 0.22227 0.28719 0.0
H1200 H 0.28519 0.23749 0.24656 0.0
H1201 H 0.2548 0.22884 0.2407 0.0
H1202 H 0.23891 0.28041 0.28454 0.0
H1203 H 0.26953 0.28926 0.28854 0.0
C1204 C 0.19559 0.25437 0.23971 0.0
C1205 C 0.19075 0.23737 0.25247 0.0
C1206 C 0.21294 0.25976 0.24318 0.0
C1207 C 0.22581 0.2483 0.25991 0.0
C1208 C 0.22086 0.23134 0.27331 0.0
C1209 C 0.20353 0.2259 0.26935 0.0
C1210 C 0.2752 0.247 0.25485 0.0
C1211 C 0.2797 0.26404 0.26808 0.0
C1212 C 0.25776 0.242 0.25185 0.0
C1213 C 0.24437 0.25386 0.26257 0.0
C1214 C 0.24888 0.27099 0.27555 0.0
C1215 C 0.2664 0.27606 0.27805 0.0
H1216 H 0.78135 0.20327 0.77126 0.0
H1217 H 0.79521 0.25125 0.70225 0.0
H1218 H 0.75188 0.21431 0.78355 0.0
H1219 H 0.76557 0.26207 0.71267 0.0
H1220 H 0.71602 0.28325 0.77891 0.0
H1221 H 0.74577 0.2725 0.76919 0.0
H1222 H 0.72576 0.22065 0.74351 0.0
H1223 H 0.69617 0.2313 0.75518 0.0
C1224 C 0.77802 0.21612 0.75837 0.0
C1225 C 0.79053 0.2264 0.73582 0.0
C1226 C 0.76111 0.22243 0.76515 0.0
C1227 C 0.75629 0.23909 0.74901 0.0
C1228 C 0.76887 0.24932 0.72625 0.0
C1229 C 0.78583 0.24308 0.71996 0.0
C1230 C 0.71804 0.26956 0.77126 0.0
C1231 C 0.70382 0.2581 0.76791 0.0
C1232 C 0.73507 0.2634 0.7654 0.0
C1233 C 0.73821 0.24568 0.75557 0.0
C1234 C 0.72389 0.23429 0.75191 0.0
C1235 C 0.70691 0.24041 0.75828 0.0
H1236 H 0.70926 0.78403 0.2241 0.0
H1237 H 0.70417 0.73198 0.16859 0.0
H1238 H 0.73919 0.77746 0.24761 0.0
H1239 H 0.73415 0.72559 0.19042 0.0
H1240 H 0.77995 0.71257 0.28363 0.0
H1241 H 0.75048 0.72009 0.2588 0.0
H1242 H 0.76815 0.77171 0.22091 0.0
H1243 H 0.79744 0.76434 0.24733 0.0
C1244 C 0.71465 0.7713 0.21621 0.0
C1245 C 0.70439 0.75849 0.19476 0.0
C1246 C 0.73181 0.76753 0.22958 0.0
C1247 C 0.73904 0.75091 0.22138 0.0
C1248 C 0.72889 0.73837 0.19832 0.0
C1249 C 0.71175 0.74208 0.1854 0.0
C1250 C 0.7775 0.72552 0.27011 0.0
C1251 C 0.79097 0.73786 0.26743 0.0
C1252 C 0.76064 0.72982 0.25554 0.0
C1253 C 0.75694 0.74649 0.23754 0.0
C1254 C 0.77046 0.75884 0.23509 0.0
C1255 C 0.78728 0.75458 0.25001 0.0
H1256 H 0.70264 0.25497 0.30924 0.0
H1257 H 0.71143 0.20418 0.24906 0.0
H1258 H 0.73341 0.26193 0.3002 0.0
H1259 H 0.74216 0.21138 0.23783 0.0
H1260 H 0.79949 0.22412 0.26 0.0
H1261 H 0.76921 0.21635 0.27509 0.0
H1262 H 0.75341 0.26906 0.24148 0.0
H1263 H 0.78379 0.27693 0.22846 0.0
C1264 C 0.71119 0.24532 0.29386 0.0
C1265 C 0.70469 0.22908 0.27963 0.0
C1266 C 0.7288 0.24935 0.28835 0.0
C1267 C 0.74027 0.23732 0.26777 0.0
C1268 C 0.73377 0.2209 0.25429 0.0
C1269 C 0.71616 0.21678 0.26047 0.0
C1270 C 0.78952 0.23403 0.25597 0.0
C1271 C 0.79396 0.25113 0.24312 0.0
C1272 C 0.77215 0.22956 0.26435 0.0
C1273 C 0.75882 0.24206 0.25954 0.0
C1274 C 0.76334 0.25916 0.24642 0.0
C1275 C 0.78073 0.26367 0.2386 0.0
H1276 H 0.72141 0.7039 0.69661 0.0
H1277 H 0.69725 0.75232 0.7385 0.0
H1278 H 0.74984 0.71518 0.72035 0.0
H1279 H 0.72541 0.76335 0.76375 0.0
H1280 H 0.78082 0.78471 0.75765 0.0
H1281 H 0.75247 0.77344 0.73394 0.0
H1282 H 0.76635 0.72263 0.78773 0.0
H1283 H 0.79493 0.73381 0.80984 0.0
C1284 C 0.72219 0.71691 0.71109 0.0
C1285 C 0.70717 0.72726 0.71553 0.0
C1286 C 0.73843 0.72334 0.72501 0.0
C1287 C 0.73992 0.74019 0.74399 0.0
C1288 C 0.72481 0.75045 0.74856 0.0
C1289 C 0.70865 0.74409 0.7343 0.0
C1290 C 0.77774 0.77117 0.76462 0.0
C1291 C 0.79005 0.76013 0.78554 0.0
C1292 C 0.76148 0.7647 0.7512 0.0
C1293 C 0.75714 0.7471 0.75882 0.0
C1294 C 0.76938 0.73616 0.78057 0.0
C1295 C 0.78569 0.7426 0.79362 0.0
H1296 H 0.53307 0.52313 0.54421 0.0
H1297 H 0.48221 0.54043 0.49878 0.0
H1298 H 0.52441 0.49291 0.53176 0.0
H1299 H 0.47371 0.51027 0.48464 0.0
H1300 H 0.45841 0.45343 0.51162 0.0
H1301 H 0.46667 0.48381 0.52421 0.0
H1302 H 0.51828 0.47278 0.47135 0.0
H1303 H 0.51019 0.44237 0.46048 0.0
C1304 C 0.52009 0.52046 0.5312 0.0
C1305 C 0.50831 0.53409 0.52249 0.0
C1306 C 0.51514 0.50316 0.52378 0.0
C1307 C 0.49837 0.49915 0.50707 0.0
C1308 C 0.48663 0.51286 0.49819 0.0
C1309 C 0.49153 0.53015 0.506 0.0
C1310 C 0.47149 0.45755 0.50266 0.0
C1311 C 0.48368 0.44556 0.48529 0.0
C1312 C 0.47621 0.47497 0.50962 0.0
C1313 C 0.49317 0.48074 0.49895 0.0
C1314 C 0.50523 0.46873 0.48081 0.0
C1315 C 0.50056 0.45132 0.47427 0.0
H1316 H 0.00872 0.44098 0.04728 0.0
H1317 H 0.95975 0.45268 0.98009 0.0
H1318 H 0.01795 0.47111 0.03735 0.0
H1319 H 0.96925 0.48271 0.96809 0.0
H1320 H 0.03698 0.52095 0.96936 0.0
H1321 H 0.02733 0.49092 0.98021 0.0
H1322 H 0.97486 0.50927 0.00652 0.0
H1323 H 0.98442 0.53914 0.99352 0.0
C1324 C -3e-05 0.45002 0.03013 0.0
C1325 C 0.98352 0.44454 0.01446 0.0
C1326 C 0.00531 0.46726 0.02408 0.0
C1327 C 0.99441 0.47936 0.00164 0.0
C1328 C 0.97789 0.47384 0.98614 0.0
C1329 C 0.97245 0.45662 0.99278 0.0
C1330 C 0.0234 0.51851 0.97741 0.0
C1331 C 0.01144 0.53232 0.9805 0.0
C1332 C 0.01786 0.50132 0.98393 0.0
C1333 C 0.00029 0.49763 0.99433 0.0
C1334 C 0.9884 0.51156 0.99774 0.0
C1335 C 0.9939 0.5287 0.99061 0.0
H1336 H 0.53462 0.4621 0.98168 0.0
H1337 H 0.48324 0.44071 0.00465 0.0
H1338 H 0.52343 0.49129 0.99689 0.0
H1339 H 0.47212 0.46981 0.02182 0.0
H1340 H 0.45487 0.52696 0.00395 0.0
H1341 H 0.46507 0.49731 0.98838 0.0
H1342 H 0.51356 0.50884 0.05859 0.0
H1343 H 0.50362 0.53851 0.07225 0.0
C1344 C 0.52095 0.46365 0.99027 0.0
C1345 C 0.5098 0.44916 0.99202 0.0
C1346 C 0.51454 0.48036 0.99935 0.0
C1347 C 0.49688 0.48293 0.01098 0.0
C1348 C 0.48573 0.46838 0.01244 0.0
C1349 C 0.49211 0.45168 0.00285 0.0
C1350 C 0.46764 0.52305 0.01625 0.0
C1351 C 0.4785 0.53502 0.03903 0.0
C1352 C 0.47349 0.50607 0.00748 0.0
C1353 C 0.49024 0.50071 0.02179 0.0
C1354 C 0.50078 0.51261 0.046 0.0
C1355 C 0.49503 0.52959 0.05422 0.0
H1356 H 0.03223 0.4559 0.46477 0.0
H1357 H 0.98337 0.44462 0.53271 0.0
H1358 H 0.02235 0.48554 0.44941 0.0
H1359 H 0.9737 0.47453 0.51917 0.0
H1360 H 0.95591 0.52598 0.4543 0.0
H1361 H 0.96459 0.49538 0.46243 0.0
H1362 H 0.01758 0.51162 0.4906 0.0
H1363 H 0.00906 0.54184 0.48071 0.0
C1364 C 0.01941 0.45982 0.47667 0.0
C1365 C 0.00861 0.44802 0.50017 0.0
C1366 C 0.01376 0.47684 0.46809 0.0
C1367 C -0.00273 0.48251 0.48339 0.0
C1368 C 0.98638 0.47057 0.50637 0.0
C1369 C 0.99196 0.45347 0.51448 0.0
C1370 C 0.96941 0.52292 0.46195 0.0
C1371 C 0.98181 0.53627 0.46668 0.0
C1372 C 0.97438 0.50542 0.46688 0.0
C1373 C 0.99182 0.50099 0.47698 0.0
C1374 C 0.00413 0.51445 0.48181 0.0
C1375 C -0.00079 0.53183 0.47646 0.0
H1376 H 0.078 0.1001 0.07912 0.0
H1377 H 0.05507 0.14842 0.03142 0.0
H1378 H 0.09822 0.1167 0.12817 0.0
H1379 H 0.07506 0.16477 0.08032 0.0
H1380 H 0.0895 0.18404 0.22172 0.0
H1381 H 0.0741 0.16334 0.1728 0.0
H1382 H 0.12318 0.14312 0.12308 0.0
H1383 H 0.13883 0.16407 0.17217 0.0
C1384 C 0.0776 0.11423 0.07811 0.0
C1385 C 0.06483 0.123 0.05195 0.0
C1386 C 0.08911 0.12366 0.10625 0.0
C1387 C 0.08783 0.14191 0.10859 0.0
C1388 C 0.07602 0.15066 0.07964 0.0
C1389 C 0.06466 0.1413 0.05149 0.0
C1390 C 0.09707 0.17494 0.20122 0.0
C1391 C 0.11535 0.17582 0.20025 0.0
C1392 C 0.08824 0.16318 0.17307 0.0
C1393 C 0.09752 0.15199 0.14359 0.0
C1394 C 0.11581 0.15174 0.14542 0.0
C1395 C 0.12471 0.16365 0.17358 0.0
H1396 H 0.09876 0.80383 0.35402 0.0
H1397 H 0.14644 0.83334 0.33786 0.0
H1398 H 0.0854 0.82839 0.39345 0.0
H1399 H 0.1327 0.8583 0.3772 0.0
H1400 H 0.08243 0.8994 0.39119 0.0
H1401 H 0.10374 0.87864 0.36025 0.0
H1402 H 0.09302 0.84359 0.47341 0.0
H1403 H 0.07178 0.86417 0.50432 0.0
C1404 C 0.10634 0.81564 0.35847 0.0
C1405 C 0.12365 0.81666 0.34297 0.0
C1406 C 0.09874 0.82963 0.38146 0.0
C1407 C 0.10819 0.84503 0.38907 0.0
C1408 C 0.12528 0.84644 0.37203 0.0
C1409 C 0.13305 0.83224 0.34947 0.0
C1410 C 0.08514 0.88757 0.41041 0.0
C1411 C 0.0752 0.88318 0.44957 0.0
C1412 C 0.09732 0.87573 0.39269 0.0
C1413 C 0.09965 0.85946 0.41405 0.0
C1414 C 0.0912 0.856 0.45607 0.0
C1415 C 0.07909 0.86778 0.47375 0.0
H1416 H 0.33466 0.83888 0.64708 0.0
H1417 H 0.37799 0.83018 0.73976 0.0
H1418 H 0.34917 0.86497 0.61675 0.0
H1419 H 0.39228 0.8563 0.7102 0.0
H1420 H 0.41359 0.90613 0.66087 0.0
H1421 H 0.39026 0.8897 0.69877 0.0
H1422 H 0.37777 0.86482 0.56907 0.0
H1423 H 0.40112 0.88104 0.53138 0.0
C1424 C 0.34702 0.84285 0.66189 0.0
C1425 C 0.35533 0.8325 0.69541 0.0
C1426 C 0.3553 0.85773 0.64452 0.0
C1427 C 0.3718 0.86264 0.66121 0.0
C1428 C 0.37946 0.85295 0.69713 0.0
C1429 C 0.37136 0.83793 0.71379 0.0
C1430 C 0.40544 0.89762 0.64018 0.0
C1431 C 0.40927 0.89464 0.5934 0.0
C1432 C 0.39217 0.88819 0.66189 0.0
C1433 C 0.38237 0.8759 0.63689 0.0
C1434 C 0.38505 0.87429 0.58909 0.0
C1435 C 0.39847 0.8835 0.56758 0.0
H1436 H 0.44972 0.14807 0.91016 0.0
H1437 H 0.41441 0.10441 0.92274 0.0
H1438 H 0.42643 0.16583 0.87927 0.0
H1439 H 0.39052 0.12266 0.89331 0.0
H1440 H 0.35856 0.15763 0.78917 0.0
H1441 H 0.37978 0.13742 0.82407 0.0
H1442 H 0.40107 0.18002 0.90423 0.0
H1443 H 0.38084 0.19999 0.86771 0.0
C1444 C 0.43685 0.14235 0.90709 0.0
C1445 C 0.43385 0.1249 0.91927 0.0
C1446 C 0.42342 0.15258 0.88952 0.0
C1447 C 0.40649 0.14577 0.88439 0.0
C1448 C 0.40342 0.12827 0.89664 0.0
C1449 C 0.41703 0.11788 0.91383 0.0
C1450 C 0.36784 0.16251 0.81427 0.0
C1451 C 0.36845 0.18035 0.82497 0.0
C1452 C 0.37988 0.15098 0.83449 0.0
C1453 C 0.39239 0.15718 0.86622 0.0
C1454 C 0.39208 0.17488 0.87875 0.0
C1455 C 0.38044 0.18634 0.85793 0.0
H1456 H 0.87784 0.82868 0.78843 0.0
H1457 H 0.84208 0.82839 0.90365 0.0
H1458 H 0.89413 0.85256 0.82438 0.0
H1459 H 0.85889 0.85186 0.94049 0.0
H1460 H 0.92266 0.85908 0.9888 0.0
H1461 H 0.89718 0.84393 0.95734 0.0
H1462 H 0.88656 0.88777 0.86814 0.0
H1463 H 0.9117 0.90332 0.90092 0.0
C1464 C 0.87321 0.8341 0.82077 0.0
C1465 C 0.85878 0.82681 0.84339 0.0
C1466 C 0.88245 0.84774 0.84116 0.0
C1467 C 0.87762 0.85394 0.8849 0.0
C1468 C 0.86264 0.84733 0.90645 0.0
C1469 C 0.85307 0.83399 0.88539 0.0
C1470 C 0.91454 0.86569 0.9636 0.0
C1471 C 0.91907 0.88228 0.94712 0.0
C1472 C 0.89997 0.85709 0.94586 0.0
C1473 C 0.89002 0.86482 0.91069 0.0
C1474 C 0.89402 0.88174 0.89569 0.0
C1475 C 0.90833 0.89056 0.9144 0.0
H1476 H 0.91256 0.08682 0.60097 0.0
H1477 H 0.91103 0.12949 0.50357 0.0
H1478 H 0.88875 0.10033 0.64485 0.0
H1479 H 0.88684 0.14259 0.54644 0.0
H1480 H 0.8382 0.15763 0.62623 0.0
H1481 H 0.85332 0.13494 0.58193 0.0
H1482 H 0.89425 0.13368 0.68431 0.0
H1483 H 0.87954 0.15678 0.72772 0.0
C1484 C 0.90665 0.09869 0.58794 0.0
C1485 C 0.91361 0.10722 0.54912 0.0
C1486 C 0.8931 0.10639 0.61305 0.0
C1487 C 0.88604 0.12239 0.59875 0.0
C1488 C 0.89199 0.13012 0.55771 0.0
C1489 C 0.90583 0.12269 0.53336 0.0
C1490 C 0.85012 0.15206 0.64004 0.0
C1491 C 0.85781 0.15894 0.68018 0.0
C1492 C 0.85873 0.13916 0.61467 0.0
C1493 C 0.87484 0.13264 0.62996 0.0
C1494 C 0.88172 0.13841 0.67224 0.0
C1495 C 0.87337 0.15163 0.69692 0.0
H1496 H 0.65354 0.16956 0.39086 0.0
H1497 H 0.62059 0.16458 0.27041 0.0
H1498 H 0.63966 0.14381 0.42484 0.0
H1499 H 0.60695 0.1388 0.30403 0.0
H1500 H 0.58689 0.09034 0.37003 0.0
H1501 H 0.61112 0.10728 0.33746 0.0
H1502 H 0.60708 0.14381 0.45053 0.0
H1503 H 0.58274 0.12722 0.48217 0.0
C1504 C 0.64372 0.16266 0.37109 0.0
C1505 C 0.63793 0.16917 0.32837 0.0
C1506 C 0.63581 0.14796 0.3905 0.0
C1507 C 0.62224 0.13939 0.36706 0.0
C1508 C 0.61751 0.14505 0.32262 0.0
C1509 C 0.62521 0.15989 0.30357 0.0
C1510 C 0.59163 0.10165 0.38862 0.0
C1511 C 0.58298 0.10761 0.42834 0.0
C1512 C 0.6054 0.11134 0.36995 0.0
C1513 C 0.6109 0.12683 0.3915 0.0
C1514 C 0.60323 0.13183 0.4335 0.0
C1515 C 0.58925 0.1224 0.45148 0.0
H1516 H 0.57382 0.88098 0.04028 0.0
H1517 H 0.5364 0.85398 0.12571 0.0
H1518 H 0.59679 0.86098 0.06692 0.0
H1519 H 0.55918 0.83479 0.15399 0.0
H1520 H 0.59518 0.78898 0.14404 0.0
H1521 H 0.57447 0.81119 0.12153 0.0
H1522 H 0.61483 0.85044 0.13077 0.0
H1523 H 0.63601 0.82772 0.15182 0.0
C1524 C 0.57061 0.87093 0.06517 0.0
C1525 C 0.55334 0.86871 0.08021 0.0
C1526 C 0.58373 0.85957 0.08067 0.0
C1527 C 0.57975 0.84606 0.11194 0.0
C1528 C 0.56261 0.84466 0.12879 0.0
C1529 C 0.54955 0.85569 0.11271 0.0
C1530 C 0.59968 0.80235 0.14159 0.0
C1531 C 0.61719 0.80663 0.15003 0.0
C1532 C 0.58775 0.81515 0.12891 0.0
C1533 C 0.5929 0.83268 0.12498 0.0
C1534 C 0.61047 0.83704 0.13331 0.0
C1535 C 0.62255 0.82409 0.14565 0.0
H1536 H 0.55972 0.6188 0.64171 0.0
H1537 H 0.58595 0.59394 0.52729 0.0
H1538 H 0.58703 0.63253 0.66504 0.0
H1539 H 0.61339 0.60832 0.54989 0.0
H1540 H 0.63986 0.6489 0.71072 0.0
H1541 H 0.62065 0.62443 0.68997 0.0
H1542 H 0.61693 0.64424 0.55066 0.0
H1543 H 0.63551 0.66889 0.57185 0.0
C1544 C 0.57142 0.61616 0.62187 0.0
C1545 C 0.5708 0.60553 0.58248 0.0
C1546 C 0.58705 0.62382 0.63554 0.0
C1547 C 0.60226 0.62129 0.60945 0.0
C1548 C 0.60181 0.61024 0.57074 0.0
C1549 C 0.58619 0.60214 0.55776 0.0
C1550 C 0.63544 0.64757 0.67533 0.0
C1551 C 0.63899 0.66061 0.64275 0.0
C1552 C 0.6245 0.63366 0.66351 0.0
C1553 C 0.61743 0.63253 0.61875 0.0
C1554 C 0.62242 0.64473 0.58516 0.0
C1555 C 0.63294 0.65882 0.59728 0.0
H1556 H 0.58071 0.4002 0.88202 0.0
H1557 H 0.57925 0.35975 0.98583 0.0
H1558 H 0.6042 0.38456 0.84189 0.0
H1559 H 0.60315 0.34455 0.9467 0.0
H1560 H 0.65387 0.32836 0.8706 0.0
H1561 H 0.6384 0.3521 0.91013 0.0
H1562 H 0.59668 0.34861 0.81044 0.0
H1563 H 0.61173 0.32446 0.77201 0.0
C1564 C 0.58591 0.38836 0.89722 0.0
C1565 C 0.57821 0.38109 0.93684 0.0
C1566 C 0.59926 0.37945 0.87425 0.0
C1567 C 0.60541 0.36349 0.89153 0.0
C1568 C 0.59869 0.35697 0.93318 0.0
C1569 C 0.58503 0.36561 0.9554 0.0
C1570 C 0.64166 0.33305 0.85637 0.0
C1571 C 0.6339 0.32462 0.81844 0.0
C1572 C 0.63285 0.34655 0.87899 0.0
C1573 C 0.61649 0.35212 0.86298 0.0
C1574 C 0.60941 0.34461 0.82293 0.0
C1575 C 0.61795 0.33081 0.80112 0.0
H1576 H 0.84709 0.32318 0.1604 0.0
H1577 H 0.89608 0.30112 0.20624 0.0
H1578 H 0.8631 0.34577 0.11747 0.0
H1579 H 0.91182 0.32346 0.16352 0.0
H1580 H 0.91147 0.38941 0.09246 0.0
H1581 H 0.88991 0.37173 0.1344 0.0
H1582 H 0.90982 0.32534 0.06842 0.0
H1583 H 0.93116 0.34275 0.02668 0.0
C1584 C 0.8612 0.32344 0.16229 0.0
C1585 C 0.87039 0.31029 0.18606 0.0
C1586 C 0.8703 0.33629 0.13772 0.0
C1587 C 0.88859 0.33601 0.13672 0.0
C1588 C 0.89767 0.32369 0.16333 0.0
C1589 C 0.88866 0.31097 0.18784 0.0
C1590 C 0.91083 0.37551 0.08588 0.0
C1591 C 0.92313 0.36737 0.05694 0.0
C1592 C 0.89855 0.36546 0.10989 0.0
C1593 C 0.89856 0.34725 0.10505 0.0
C1594 C 0.90981 0.33937 0.07306 0.0
C1595 C 0.92197 0.34934 0.04915 0.0
H1596 H 0.93761 0.6425 0.4642 0.0
H1597 H 0.9079 0.59797 0.41751 0.0
H1598 H 0.91432 0.66177 0.44057 0.0
H1599 H 0.88396 0.61748 0.39474 0.0
H1600 H 0.86087 0.66269 0.29987 0.0
H1601 H 0.87842 0.63932 0.33483 0.0
H1602 H 0.88568 0.67111 0.4568 0.0
H1603 H 0.8692 0.69457 0.42064 0.0
C1604 C 0.92589 0.63679 0.44968 0.0
C1605 C 0.9246 0.61875 0.44254 0.0
C1606 C 0.91241 0.64785 0.43643 0.0
C1607 C 0.89717 0.64118 0.41594 0.0
C1608 C 0.89558 0.62302 0.41015 0.0
C1609 C 0.9092 0.61186 0.42347 0.0
C1610 C 0.86605 0.66442 0.3344 0.0
C1611 C 0.86411 0.6804 0.35739 0.0
C1612 C 0.87599 0.65107 0.35457 0.0
C1613 C 0.88378 0.65351 0.39823 0.0
C1614 C 0.88034 0.669 0.42258 0.0
C1615 C 0.87086 0.6824 0.40204 0.0
H1616 H 0.34242 0.33331 0.34758 0.0
H1617 H 0.38611 0.30815 0.28071 0.0
H1618 H 0.36269 0.35274 0.38853 0.0
H1619 H 0.40613 0.32742 0.32119 0.0
H1620 H 0.43551 0.3423 0.44916 0.0
H1621 H 0.4123 0.32713 0.40836 0.0
H1622 H 0.38768 0.37636 0.37632 0.0
H1623 H 0.41108 0.39175 0.41753 0.0
C1624 C 0.35627 0.33226 0.34069 0.0
C1625 C 0.36275 0.3191 0.31152 0.0
C1626 C 0.36783 0.34331 0.36419 0.0
C1627 C 0.38593 0.34122 0.35875 0.0
C1628 C 0.39223 0.32899 0.32677 0.0
C1629 C 0.38077 0.31804 0.30341 0.0
C1630 C 0.42503 0.34992 0.43411 0.0
C1631 C 0.4252 0.36821 0.43605 0.0
C1632 C 0.41181 0.34124 0.4105 0.0
C1633 C 0.39847 0.35064 0.38841 0.0
C1634 C 0.39791 0.36887 0.39291 0.0
C1635 C 0.41126 0.37762 0.4165 0.0
H1636 H 0.34443 0.66254 0.17282 0.0
H1637 H 0.39272 0.6893 0.20323 0.0
H1638 H 0.36097 0.63914 0.13467 0.0
H1639 H 0.409 0.66614 0.16542 0.0
H1640 H 0.4297 0.639 0.0416 0.0
H1641 H 0.40891 0.65863 0.07801 0.0
H1642 H 0.38622 0.61536 0.15214 0.0
H1643 H 0.40719 0.59546 0.11534 0.0
C1644 C 0.35854 0.66325 0.17216 0.0
C1645 C 0.3673 0.67782 0.19048 0.0
C1646 C 0.36795 0.64991 0.15032 0.0
C1647 C 0.38617 0.65111 0.14635 0.0
C1648 C 0.39491 0.66514 0.16719 0.0
C1649 C 0.38559 0.67833 0.18906 0.0
C1650 C 0.42006 0.63357 0.06489 0.0
C1651 C 0.4202 0.61577 0.07621 0.0
C1652 C 0.40822 0.64482 0.08586 0.0
C1653 C 0.39629 0.63851 0.11859 0.0
C1654 C 0.39539 0.6205 0.12713 0.0
C1655 C 0.40733 0.60915 0.10604 0.0
H1656 H 0.07473 0.6249 0.98494 0.0
H1657 H 0.08036 0.58594 0.87821 0.0
H1658 H 0.09907 0.64133 0.95184 0.0
H1659 H 0.10431 0.60283 0.84402 0.0
H1660 H 0.1114 0.66415 0.78155 0.0
H1661 H 0.09636 0.6389 0.81457 0.0
H1662 H 0.13542 0.63541 0.9216 0.0
H1663 H 0.15092 0.6603 0.88751 0.0
C1664 C 0.0815 0.61965 0.95516 0.0
C1665 C 0.07576 0.60424 0.934 0.0
C1666 C 0.09542 0.62898 0.93641 0.0
C1667 C 0.10346 0.62322 0.89565 0.0
C1668 C 0.09834 0.60734 0.87578 0.0
C1669 C 0.08472 0.59773 0.89533 0.0
C1670 C 0.11707 0.6576 0.81115 0.0
C1671 C 0.13224 0.66409 0.83212 0.0
C1672 C 0.10855 0.64316 0.82984 0.0
C1673 C 0.11486 0.63532 0.87035 0.0
C1674 C 0.1305 0.64122 0.89003 0.0
C1675 C 0.13932 0.65538 0.87054 0.0
H1676 H 0.0768 0.35844 0.52048 0.0
H1677 H 0.07574 0.40026 0.62041 0.0
H1678 H 0.09981 0.34393 0.56487 0.0
H1679 H 0.09833 0.38534 0.66573 0.0
H1680 H 0.14778 0.32749 0.64835 0.0
H1681 H 0.13342 0.35063 0.60385 0.0
H1682 H 0.09116 0.3514 0.70222 0.0
H1683 H 0.10513 0.32784 0.7458 0.0
C1684 C 0.08186 0.36474 0.55121 0.0
C1685 C 0.07457 0.38042 0.56711 0.0
C1686 C 0.09501 0.35649 0.57646 0.0
C1687 C 0.10074 0.3636 0.61852 0.0
C1688 C 0.09415 0.37975 0.63317 0.0
C1689 C 0.08131 0.38826 0.60721 0.0
C1690 C 0.13571 0.333 0.66124 0.0
C1691 C 0.12748 0.3259 0.70032 0.0
C1692 C 0.12752 0.34617 0.63574 0.0
C1693 C 0.11129 0.35272 0.64988 0.0
C1694 C 0.10379 0.34663 0.69106 0.0
C1695 C 0.11173 0.33316 0.71584 0.0
loop_
_geom_bond_atom_site_label_1
_geom_bond_atom_site_label_2
_geom_bond_distance
_geom_bond_site_symmetry_2
_ccdc_geom_bond_type
In0 O1 2.294 . S
In0 O2 2.326 . S
In0 O6 2.266 . S
In0 O7 2.322 1_455 S
In0 O8 2.266 1_455 S
In0 O9 2.326 1_554 S
In0 O11 2.294 1_455 S
In0 O12 2.326 . S
O1 In0 2.294 . S
O1 C10 1.240 . S
O2 In0 2.326 . S
O2 C10 1.252 . S
C3 O6 1.252 . S
C3 O7 1.255 1_455 S
C4 O11 1.240 1_455 S
C4 O12 1.252 . S
C5 O8 1.252 1_456 S
C5 O9 1.260 . S
O6 In0 2.266 . S
O6 C3 1.252 . S
O7 In0 2.322 1_655 S
O7 C3 1.255 1_655 S
O8 In0 2.266 1_655 S
O8 C5 1.252 1_654 S
O9 In0 2.326 1_556 S
O9 C5 1.260 . S
C10 O1 1.240 . S
C10 O2 1.252 . S
O11 In0 2.294 1_655 S
O11 C4 1.240 1_655 S
O12 In0 2.326 . S
O12 C4 1.252 . S
In13 O14 2.294 . S
In13 O15 2.326 . S
In13 O19 2.266 . S
In13 O20 2.326 . S
In13 O21 2.266 . S
In13 O22 2.326 . S
In13 O24 2.294 . S
In13 O25 2.326 . S
O14 In13 2.294 . S
O14 C23 1.240 . S
O15 In13 2.326 . S
O15 C23 1.252 . S
C16 O19 1.252 . S
C16 O20 1.260 . S
C17 O24 1.240 . S
C17 O25 1.252 . S
C18 O21 1.252 . S
C18 O22 1.260 . S
O19 In13 2.266 . S
O19 C16 1.252 . S
O20 In13 2.326 . S
O20 C16 1.260 . S
O21 In13 2.266 . S
O21 C18 1.252 . S
O22 In13 2.326 . S
O22 C18 1.260 . S
C23 O14 1.240 . S
C23 O15 1.252 . S
O24 In13 2.294 . S
O24 C17 1.240 . S
O25 In13 2.326 . S
O25 C17 1.252 . S
In26 O27 2.294 . S
In26 O28 2.326 . S
In26 O32 2.266 . S
In26 O33 2.326 . S
In26 O34 2.266 . S
In26 O35 2.326 . S
In26 O37 2.294 . S
In26 O38 2.326 . S
O27 In26 2.294 . S
O27 C36 1.240 . S
O28 In26 2.326 . S
O28 C36 1.252 . S
C29 O32 1.252 . S
C29 O33 1.260 . S
C30 O37 1.240 . S
C30 O38 1.252 . S
C31 O34 1.252 . S
C31 O35 1.260 . S
O32 In26 2.266 . S
O32 C29 1.252 . S
O33 In26 2.326 . S
O33 C29 1.260 . S
O34 In26 2.266 . S
O34 C31 1.252 . S
O35 In26 2.326 . S
O35 C31 1.260 . S
C36 O27 1.240 . S
C36 O28 1.252 . S
O37 In26 2.294 . S
O37 C30 1.240 . S
O38 In26 2.326 . S
O38 C30 1.252 . S
In39 O40 2.294 . S
In39 O41 2.326 . S
In39 O45 2.266 . S
In39 O46 2.326 . S
In39 O47 2.266 . S
In39 O48 2.326 . S
In39 O50 2.294 . S
In39 O51 2.326 . S
O40 In39 2.294 . S
O40 C49 1.240 . S
O41 In39 2.326 . S
O41 C49 1.252 . S
C42 O45 1.252 . S
C42 O46 1.260 . S
C43 O50 1.240 . S
C43 O51 1.252 . S
C44 O47 1.252 . S
C44 O48 1.260 . S
O45 In39 2.266 . S
O45 C42 1.252 . S
O46 In39 2.326 . S
O46 C42 1.260 . S
O47 In39 2.266 . S
O47 C44 1.252 . S
O48 In39 2.326 . S
O48 C44 1.260 . S
C49 O40 1.240 . S
C49 O41 1.252 . S
O50 In39 2.294 . S
O50 C43 1.240 . S
O51 In39 2.326 . S
O51 C43 1.252 . S
In52 O53 2.294 . S
In52 O54 2.326 . S
In52 O58 2.266 . S
In52 O59 2.320 1_455 S
In52 O60 2.266 1_455 S
In52 O61 2.326 . S
In52 O63 2.294 1_455 S
In52 O64 2.326 . S
O53 In52 2.294 . S
O53 C62 1.240 . S
O54 In52 2.326 . S
O54 C62 1.252 . S
C55 O58 1.252 . S
C55 O59 1.252 1_455 S
C56 O63 1.240 1_455 S
C56 O64 1.252 . S
C57 O60 1.252 1_455 S
C57 O61 1.260 . S
O58 In52 2.266 . S
O58 C55 1.252 . S
O59 In52 2.320 1_655 S
O59 C55 1.252 1_655 S
O60 In52 2.266 1_655 S
O60 C57 1.252 1_655 S
O61 In52 2.326 . S
O61 C57 1.260 . S
C62 O53 1.240 . S
C62 O54 1.252 . S
O63 In52 2.294 1_655 S
O63 C56 1.240 1_655 S
O64 In52 2.326 . S
O64 C56 1.252 . S
In65 O66 2.294 . S
In65 O67 2.326 . S
In65 O71 2.266 . S
In65 O72 2.326 . S
In65 O73 2.266 . S
In65 O74 2.326 . S
In65 O76 2.294 . S
In65 O77 2.326 . S
O66 In65 2.294 . S
O66 C75 1.240 . S
O67 In65 2.326 . S
O67 C75 1.252 . S
C68 O71 1.252 . S
C68 O72 1.260 . S
C69 O76 1.240 . S
C69 O77 1.252 . S
C70 O73 1.252 . S
C70 O74 1.260 . S
O71 In65 2.266 . S
O71 C68 1.252 . S
O72 In65 2.326 . S
O72 C68 1.260 . S
O73 In65 2.266 . S
O73 C70 1.252 . S
O74 In65 2.326 . S
O74 C70 1.260 . S
C75 O66 1.240 . S
C75 O67 1.252 . S
O76 In65 2.294 . S
O76 C69 1.240 . S
O77 In65 2.326 . S
O77 C69 1.252 . S
In78 O79 2.294 . S
In78 O80 2.326 . S
In78 O84 2.266 . S
In78 O85 2.326 1_556 S
In78 O86 2.266 . S
In78 O87 2.326 . S
In78 O89 2.294 . S
In78 O90 2.326 . S
O79 In78 2.294 . S
O79 C88 1.240 . S
O80 In78 2.326 . S
O80 C88 1.252 . S
C81 O84 1.252 1_554 S
C81 O85 1.260 . S
C82 O89 1.240 . S
C82 O90 1.252 . S
C83 O86 1.252 . S
C83 O87 1.260 . S
O84 In78 2.266 . S
O84 C81 1.252 1_556 S
O85 In78 2.326 1_554 S
O85 C81 1.260 . S
O86 In78 2.266 . S
O86 C83 1.252 . S
O87 In78 2.326 . S
O87 C83 1.260 . S
C88 O79 1.240 . S
C88 O80 1.252 . S
O89 In78 2.294 . S
O89 C82 1.240 . S
O90 In78 2.326 . S
O90 C82 1.252 . S
In91 O92 2.294 . S
In91 O93 2.326 . S
In91 O97 2.266 . S
In91 O98 2.326 . S
In91 O99 2.266 . S
In91 O100 2.326 . S
In91 O102 2.294 . S
In91 O103 2.326 . S
O92 In91 2.294 . S
O92 C101 1.240 . S
O93 In91 2.326 . S
O93 C101 1.252 . S
C94 O97 1.252 . S
C94 O98 1.260 . S
C95 O102 1.240 . S
C95 O103 1.252 . S
C96 O99 1.252 . S
C96 O100 1.260 . S
O97 In91 2.266 . S
O97 C94 1.252 . S
O98 In91 2.326 . S
O98 C94 1.260 . S
O99 In91 2.266 . S
O99 C96 1.252 . S
O100 In91 2.326 . S
O100 C96 1.260 . S
C101 O92 1.240 . S
C101 O93 1.252 . S
O102 In91 2.294 . S
O102 C95 1.240 . S
O103 In91 2.326 . S
O103 C95 1.252 . S
In104 O105 2.294 1_655 S
In104 O106 2.326 . S
In104 O110 2.266 1_655 S
In104 O111 2.326 1_556 S
In104 O112 2.266 . S
In104 O113 2.322 1_655 S
In104 O115 2.294 . S
In104 O116 2.326 . S
O105 In104 2.294 1_455 S
O105 C114 1.240 1_455 S
O106 In104 2.326 . S
O106 C114 1.252 . S
C107 O110 1.252 1_654 S
C107 O111 1.260 . S
C108 O115 1.240 . S
C108 O116 1.252 . S
C109 O112 1.252 . S
C109 O113 1.255 1_655 S
O110 In104 2.266 1_455 S
O110 C107 1.252 1_456 S
O111 In104 2.326 1_554 S
O111 C107 1.260 . S
O112 In104 2.266 . S
O112 C109 1.252 . S
O113 In104 2.322 1_455 S
O113 C109 1.255 1_455 S
C114 O105 1.240 1_655 S
C114 O106 1.252 . S
O115 In104 2.294 . S
O115 C108 1.240 . S
O116 In104 2.326 . S
O116 C108 1.252 . S
In117 O118 2.294 . S
In117 O119 2.326 . S
In117 O123 2.266 . S
In117 O124 2.326 . S
In117 O125 2.266 . S
In117 O126 2.326 . S
In117 O128 2.294 . S
In117 O129 2.326 . S
O118 In117 2.294 . S
O118 C127 1.240 . S
O119 In117 2.326 . S
O119 C127 1.252 . S
C120 O123 1.252 . S
C120 O124 1.260 . S
C121 O128 1.240 . S
C121 O129 1.252 . S
C122 O125 1.252 . S
C122 O126 1.260 . S
O123 In117 2.266 . S
O123 C120 1.252 . S
O124 In117 2.326 . S
O124 C120 1.260 . S
O125 In117 2.266 . S
O125 C122 1.252 . S
O126 In117 2.326 . S
O126 C122 1.260 . S
C127 O118 1.240 . S
C127 O119 1.252 . S
O128 In117 2.294 . S
O128 C121 1.240 . S
O129 In117 2.326 . S
O129 C121 1.252 . S
In130 O131 2.294 . S
In130 O132 2.326 . S
In130 O136 2.266 . S
In130 O137 2.326 . S
In130 O138 2.266 . S
In130 O139 2.326 . S
In130 O141 2.294 . S
In130 O142 2.326 . S
O131 In130 2.294 . S
O131 C140 1.240 . S
O132 In130 2.326 . S
O132 C140 1.252 . S
C133 O136 1.252 . S
C133 O137 1.260 . S
C134 O141 1.240 . S
C134 O142 1.252 . S
C135 O138 1.252 . S
C135 O139 1.260 . S
O136 In130 2.266 . S
O136 C133 1.252 . S
O137 In130 2.326 . S
O137 C133 1.260 . S
O138 In130 2.266 . S
O138 C135 1.252 . S
O139 In130 2.326 . S
O139 C135 1.260 . S
C140 O131 1.240 . S
C140 O132 1.252 . S
O141 In130 2.294 . S
O141 C134 1.240 . S
O142 In130 2.326 . S
O142 C134 1.252 . S
In143 O144 2.294 . S
In143 O145 2.326 . S
In143 O149 2.266 . S
In143 O150 2.326 . S
In143 O151 2.266 . S
In143 O152 2.326 . S
In143 O154 2.294 . S
In143 O155 2.326 . S
O144 In143 2.294 . S
O144 C153 1.240 . S
O145 In143 2.326 . S
O145 C153 1.252 . S
C146 O149 1.252 . S
C146 O150 1.260 . S
C147 O154 1.240 . S
C147 O155 1.252 . S
C148 O151 1.252 . S
C148 O152 1.260 . S
O149 In143 2.266 . S
O149 C146 1.252 . S
O150 In143 2.326 . S
O150 C146 1.260 . S
O151 In143 2.266 . S
O151 C148 1.252 . S
O152 In143 2.326 . S
O152 C148 1.260 . S
C153 O144 1.240 . S
C153 O145 1.252 . S
O154 In143 2.294 . S
O154 C147 1.240 . S
O155 In143 2.326 . S
O155 C147 1.252 . S
In156 O157 2.294 . S
In156 O158 2.326 . S
In156 O162 2.266 . S
In156 O163 2.320 1_655 S
In156 O164 2.266 1_655 S
In156 O165 2.326 . S
In156 O167 2.294 1_655 S
In156 O168 2.326 . S
O157 In156 2.294 . S
O157 C166 1.240 . S
O158 In156 2.326 . S
O158 C166 1.252 . S
C159 O162 1.252 . S
C159 O163 1.252 1_655 S
C160 O167 1.240 1_655 S
C160 O168 1.252 . S
C161 O164 1.252 1_655 S
C161 O165 1.260 . S
O162 In156 2.266 . S
O162 C159 1.252 . S
O163 In156 2.320 1_455 S
O163 C159 1.252 1_455 S
O164 In156 2.266 1_455 S
O164 C161 1.252 1_455 S
O165 In156 2.326 . S
O165 C161 1.260 . S
C166 O157 1.240 . S
C166 O158 1.252 . S
O167 In156 2.294 1_455 S
O167 C160 1.240 1_455 S
O168 In156 2.326 . S
O168 C160 1.252 . S
In169 O170 2.294 . S
In169 O171 2.326 . S
In169 O175 2.266 . S
In169 O176 2.326 . S
In169 O177 2.266 . S
In169 O178 2.326 . S
In169 O180 2.294 . S
In169 O181 2.326 . S
O170 In169 2.294 . S
O170 C179 1.240 . S
O171 In169 2.326 . S
O171 C179 1.252 . S
C172 O175 1.252 . S
C172 O176 1.260 . S
C173 O180 1.240 . S
C173 O181 1.252 . S
C174 O177 1.252 . S
C174 O178 1.260 . S
O175 In169 2.266 . S
O175 C172 1.252 . S
O176 In169 2.326 . S
O176 C172 1.260 . S
O177 In169 2.266 . S
O177 C174 1.252 . S
O178 In169 2.326 . S
O178 C174 1.260 . S
C179 O170 1.240 . S
C179 O171 1.252 . S
O180 In169 2.294 . S
O180 C173 1.240 . S
O181 In169 2.326 . S
O181 C173 1.252 . S
In182 O183 2.294 . S
In182 O184 2.326 . S
In182 O188 2.266 . S
In182 O189 2.326 1_554 S
In182 O190 2.266 . S
In182 O191 2.326 . S
In182 O193 2.294 . S
In182 O194 2.326 . S
O183 In182 2.294 . S
O183 C192 1.240 . S
O184 In182 2.326 . S
O184 C192 1.252 . S
C185 O188 1.252 1_556 S
C185 O189 1.260 . S
C186 O193 1.240 . S
C186 O194 1.252 . S
C187 O190 1.252 . S
C187 O191 1.260 . S
O188 In182 2.266 . S
O188 C185 1.252 1_554 S
O189 In182 2.326 1_556 S
O189 C185 1.260 . S
O190 In182 2.266 . S
O190 C187 1.252 . S
O191 In182 2.326 . S
O191 C187 1.260 . S
C192 O183 1.240 . S
C192 O184 1.252 . S
O193 In182 2.294 . S
O193 C186 1.240 . S
O194 In182 2.326 . S
O194 C186 1.252 . S
In195 O196 2.294 . S
In195 O197 2.326 . S
In195 O201 2.266 . S
In195 O202 2.326 . S
In195 O203 2.266 . S
In195 O204 2.326 . S
In195 O206 2.294 . S
In195 O207 2.326 . S
O196 In195 2.294 . S
O196 C205 1.240 . S
O197 In195 2.326 . S
O197 C205 1.252 . S
C198 O201 1.252 . S
C198 O202 1.260 . S
C199 O206 1.240 . S
C199 O207 1.252 . S
C200 O203 1.252 . S
C200 O204 1.260 . S
O201 In195 2.266 . S
O201 C198 1.252 . S
O202 In195 2.326 . S
O202 C198 1.260 . S
O203 In195 2.266 . S
O203 C200 1.252 . S
O204 In195 2.326 . S
O204 C200 1.260 . S
C205 O196 1.240 . S
C205 O197 1.252 . S
O206 In195 2.294 . S
O206 C199 1.240 . S
O207 In195 2.326 . S
O207 C199 1.252 . S
In208 O209 2.294 . S
In208 O210 2.326 . S
In208 O214 2.266 . S
In208 O215 2.326 . S
In208 O216 2.266 . S
In208 O217 2.326 . S
In208 O219 2.294 . S
In208 O220 2.326 . S
O209 In208 2.294 . S
O209 C218 1.240 . S
O210 In208 2.326 . S
O210 C218 1.252 . S
C211 O214 1.252 . S
C211 O215 1.260 . S
C212 O219 1.240 . S
C212 O220 1.252 . S
C213 O216 1.252 . S
C213 O217 1.260 . S
O214 In208 2.266 . S
O214 C211 1.252 . S
O215 In208 2.326 . S
O215 C211 1.260 . S
O216 In208 2.266 . S
O216 C213 1.252 . S
O217 In208 2.326 . S
O217 C213 1.260 . S
C218 O209 1.240 . S
C218 O210 1.252 . S
O219 In208 2.294 . S
O219 C212 1.240 . S
O220 In208 2.326 . S
O220 C212 1.252 . S
In221 O222 2.294 . S
In221 O223 2.326 . S
In221 O227 2.266 . S
In221 O228 2.326 . S
In221 O229 2.266 . S
In221 O230 2.326 . S
In221 O232 2.294 . S
In221 O233 2.326 . S
O222 In221 2.294 . S
O222 C231 1.240 . S
O223 In221 2.326 . S
O223 C231 1.252 . S
C224 O227 1.252 . S
C224 O228 1.260 . S
C225 O232 1.240 . S
C225 O233 1.252 . S
C226 O229 1.252 . S
C226 O230 1.260 . S
O227 In221 2.266 . S
O227 C224 1.252 . S
O228 In221 2.326 . S
O228 C224 1.260 . S
O229 In221 2.266 . S
O229 C226 1.252 . S
O230 In221 2.326 . S
O230 C226 1.260 . S
C231 O222 1.240 . S
C231 O223 1.252 . S
O232 In221 2.294 . S
O232 C225 1.240 . S
O233 In221 2.326 . S
O233 C225 1.252 . S
In234 O235 2.294 1_655 S
In234 O236 2.326 . S
In234 O240 2.266 1_655 S
In234 O241 2.326 1_554 S
In234 O242 2.266 . S
In234 O243 2.321 1_655 S
In234 O245 2.294 . S
In234 O246 2.326 . S
O235 In234 2.294 1_455 S
O235 C244 1.240 1_455 S
O236 In234 2.326 . S
O236 C244 1.252 . S
C237 O240 1.252 1_656 S
C237 O241 1.260 . S
C238 O245 1.240 . S
C238 O246 1.252 . S
C239 O242 1.252 . S
C239 O243 1.253 1_655 S
O240 In234 2.266 1_455 S
O240 C237 1.252 1_454 S
O241 In234 2.326 1_556 S
O241 C237 1.260 . S
O242 In234 2.266 . S
O242 C239 1.252 . S
O243 In234 2.321 1_455 S
O243 C239 1.253 1_455 S
C244 O235 1.240 1_655 S
C244 O236 1.252 . S
O245 In234 2.294 . S
O245 C238 1.240 . S
O246 In234 2.326 . S
O246 C238 1.252 . S
In247 O248 2.294 . S
In247 O249 2.326 . S
In247 O253 2.266 . S
In247 O254 2.326 . S
In247 O255 2.266 . S
In247 O256 2.326 . S
In247 O258 2.294 . S
In247 O259 2.326 . S
O248 In247 2.294 . S
O248 C257 1.240 . S
O249 In247 2.326 . S
O249 C257 1.252 . S
C250 O253 1.252 . S
C250 O254 1.260 . S
C251 O258 1.240 . S
C251 O259 1.252 . S
C252 O255 1.252 . S
C252 O256 1.260 . S
O253 In247 2.266 . S
O253 C250 1.252 . S
O254 In247 2.326 . S
O254 C250 1.260 . S
O255 In247 2.266 . S
O255 C252 1.252 . S
O256 In247 2.326 . S
O256 C252 1.260 . S
C257 O248 1.240 . S
C257 O249 1.252 . S
O258 In247 2.294 . S
O258 C251 1.240 . S
O259 In247 2.326 . S
O259 C251 1.252 . S
In260 O261 2.294 . S
In260 O262 2.326 . S
In260 O266 2.266 . S
In260 O267 2.326 . S
In260 O268 2.266 . S
In260 O269 2.326 1_556 S
In260 O271 2.294 . S
In260 O272 2.326 . S
O261 In260 2.294 . S
O261 C270 1.240 . S
O262 In260 2.326 . S
O262 C270 1.252 . S
C263 O266 1.252 . S
C263 O267 1.260 . S
C264 O271 1.240 . S
C264 O272 1.252 . S
C265 O268 1.252 1_554 S
C265 O269 1.260 . S
O266 In260 2.266 . S
O266 C263 1.252 . S
O267 In260 2.326 . S
O267 C263 1.260 . S
O268 In260 2.266 . S
O268 C265 1.252 1_556 S
O269 In260 2.326 1_554 S
O269 C265 1.260 . S
C270 O261 1.240 . S
C270 O262 1.252 . S
O271 In260 2.294 . S
O271 C264 1.240 . S
O272 In260 2.326 . S
O272 C264 1.252 . S
In273 O274 2.294 . S
In273 O275 2.326 . S
In273 O279 2.266 . S
In273 O280 2.326 . S
In273 O281 2.266 . S
In273 O282 2.326 . S
In273 O284 2.294 . S
In273 O285 2.326 . S
O274 In273 2.294 . S
O274 C283 1.240 . S
O275 In273 2.326 . S
O275 C283 1.252 . S
C276 O279 1.252 . S
C276 O280 1.260 . S
C277 O284 1.240 . S
C277 O285 1.252 . S
C278 O281 1.252 . S
C278 O282 1.260 . S
O279 In273 2.266 . S
O279 C276 1.252 . S
O280 In273 2.326 . S
O280 C276 1.260 . S
O281 In273 2.266 . S
O281 C278 1.252 . S
O282 In273 2.326 . S
O282 C278 1.260 . S
C283 O274 1.240 . S
C283 O275 1.252 . S
O284 In273 2.294 . S
O284 C277 1.240 . S
O285 In273 2.326 . S
O285 C277 1.252 . S
In286 O287 2.294 . S
In286 O288 2.326 . S
In286 O292 2.266 . S
In286 O293 2.321 1_655 S
In286 O294 2.266 1_655 S
In286 O295 2.326 . S
In286 O297 2.294 1_655 S
In286 O298 2.326 . S
O287 In286 2.294 . S
O287 C296 1.240 . S
O288 In286 2.326 . S
O288 C296 1.252 . S
C289 O292 1.252 . S
C289 O293 1.253 1_655 S
C290 O297 1.240 1_655 S
C290 O298 1.252 . S
C291 O294 1.252 1_655 S
C291 O295 1.260 . S
O292 In286 2.266 . S
O292 C289 1.252 . S
O293 In286 2.321 1_455 S
O293 C289 1.253 1_455 S
O294 In286 2.266 1_455 S
O294 C291 1.252 1_455 S
O295 In286 2.326 . S
O295 C291 1.260 . S
C296 O287 1.240 . S
C296 O288 1.252 . S
O297 In286 2.294 1_455 S
O297 C290 1.240 1_455 S
O298 In286 2.326 . S
O298 C290 1.252 . S
In299 O300 2.294 . S
In299 O301 2.326 . S
In299 O305 2.266 . S
In299 O306 2.326 . S
In299 O307 2.266 . S
In299 O308 2.326 . S
In299 O310 2.294 . S
In299 O311 2.326 . S
O300 In299 2.294 . S
O300 C309 1.240 . S
O301 In299 2.326 . S
O301 C309 1.252 . S
C302 O305 1.252 . S
C302 O306 1.260 . S
C303 O310 1.240 . S
C303 O311 1.252 . S
C304 O307 1.252 . S
C304 O308 1.260 . S
O305 In299 2.266 . S
O305 C302 1.252 . S
O306 In299 2.326 . S
O306 C302 1.260 . S
O307 In299 2.266 . S
O307 C304 1.252 . S
O308 In299 2.326 . S
O308 C304 1.260 . S
C309 O300 1.240 . S
C309 O301 1.252 . S
O310 In299 2.294 . S
O310 C303 1.240 . S
O311 In299 2.326 . S
O311 C303 1.252 . S
In312 O313 2.294 . S
In312 O314 2.326 . S
In312 O318 2.266 . S
In312 O319 2.326 . S
In312 O320 2.266 . S
In312 O321 2.326 . S
In312 O323 2.294 . S
In312 O324 2.326 . S
O313 In312 2.294 . S
O313 C322 1.240 . S
O314 In312 2.326 . S
O314 C322 1.252 . S
C315 O318 1.252 . S
C315 O319 1.260 . S
C316 O323 1.240 . S
C316 O324 1.252 . S
C317 O320 1.252 . S
C317 O321 1.260 . S
O318 In312 2.266 . S
O318 C315 1.252 . S
O319 In312 2.326 . S
O319 C315 1.260 . S
O320 In312 2.266 . S
O320 C317 1.252 . S
O321 In312 2.326 . S
O321 C317 1.260 . S
C322 O313 1.240 . S
C322 O314 1.252 . S
O323 In312 2.294 . S
O323 C316 1.240 . S
O324 In312 2.326 . S
O324 C316 1.252 . S
In325 O326 2.294 . S
In325 O327 2.326 . S
In325 O331 2.266 . S
In325 O332 2.326 . S
In325 O333 2.266 . S
In325 O334 2.326 . S
In325 O336 2.294 . S
In325 O337 2.326 . S
O326 In325 2.294 . S
O326 C335 1.240 . S
O327 In325 2.326 . S
O327 C335 1.252 . S
C328 O331 1.252 . S
C328 O332 1.260 . S
C329 O336 1.240 . S
C329 O337 1.252 . S
C330 O333 1.252 . S
C330 O334 1.260 . S
O331 In325 2.266 . S
O331 C328 1.252 . S
O332 In325 2.326 . S
O332 C328 1.260 . S
O333 In325 2.266 . S
O333 C330 1.252 . S
O334 In325 2.326 . S
O334 C330 1.260 . S
C335 O326 1.240 . S
C335 O327 1.252 . S
O336 In325 2.294 . S
O336 C329 1.240 . S
O337 In325 2.326 . S
O337 C329 1.252 . S
In338 O339 2.294 . S
In338 O340 2.326 . S
In338 O344 2.266 . S
In338 O345 2.321 1_455 S
In338 O346 2.266 1_455 S
In338 O347 2.326 1_556 S
In338 O349 2.294 1_455 S
In338 O350 2.326 . S
O339 In338 2.294 . S
O339 C348 1.240 . S
O340 In338 2.326 . S
O340 C348 1.252 . S
C341 O344 1.252 . S
C341 O345 1.253 1_455 S
C342 O349 1.240 1_455 S
C342 O350 1.252 . S
C343 O346 1.252 1_454 S
C343 O347 1.260 . S
O344 In338 2.266 . S
O344 C341 1.252 . S
O345 In338 2.321 1_655 S
O345 C341 1.253 1_655 S
O346 In338 2.266 1_655 S
O346 C343 1.252 1_656 S
O347 In338 2.326 1_554 S
O347 C343 1.260 . S
C348 O339 1.240 . S
C348 O340 1.252 . S
O349 In338 2.294 1_655 S
O349 C342 1.240 1_655 S
O350 In338 2.326 . S
O350 C342 1.252 . S
In351 O352 2.294 . S
In351 O353 2.326 . S
In351 O357 2.266 . S
In351 O358 2.326 . S
In351 O359 2.266 . S
In351 O360 2.326 . S
In351 O362 2.294 . S
In351 O363 2.326 . S
O352 In351 2.294 . S
O352 C361 1.240 . S
O353 In351 2.326 . S
O353 C361 1.252 . S
C354 O357 1.252 . S
C354 O358 1.260 . S
C355 O362 1.240 . S
C355 O363 1.252 . S
C356 O359 1.252 . S
C356 O360 1.260 . S
O357 In351 2.266 . S
O357 C354 1.252 . S
O358 In351 2.326 . S
O358 C354 1.260 . S
O359 In351 2.266 . S
O359 C356 1.252 . S
O360 In351 2.326 . S
O360 C356 1.260 . S
C361 O352 1.240 . S
C361 O353 1.252 . S
O362 In351 2.294 . S
O362 C355 1.240 . S
O363 In351 2.326 . S
O363 C355 1.252 . S
In364 O365 2.294 . S
In364 O366 2.326 . S
In364 O370 2.266 . S
In364 O371 2.326 . S
In364 O372 2.266 . S
In364 O373 2.326 1_554 S
In364 O375 2.294 . S
In364 O376 2.326 . S
O365 In364 2.294 . S
O365 C374 1.240 . S
O366 In364 2.326 . S
O366 C374 1.252 . S
C367 O370 1.252 . S
C367 O371 1.260 . S
C368 O375 1.240 . S
C368 O376 1.252 . S
C369 O372 1.252 1_556 S
C369 O373 1.260 . S
O370 In364 2.266 . S
O370 C367 1.252 . S
O371 In364 2.326 . S
O371 C367 1.260 . S
O372 In364 2.266 . S
O372 C369 1.252 1_554 S
O373 In364 2.326 1_556 S
O373 C369 1.260 . S
C374 O365 1.240 . S
C374 O366 1.252 . S
O375 In364 2.294 . S
O375 C368 1.240 . S
O376 In364 2.326 . S
O376 C368 1.252 . S
In377 O378 2.294 . S
In377 O379 2.326 . S
In377 O383 2.266 . S
In377 O384 2.326 . S
In377 O385 2.266 . S
In377 O386 2.326 . S
In377 O388 2.294 . S
In377 O389 2.326 . S
O378 In377 2.294 . S
O378 C387 1.240 . S
O379 In377 2.326 . S
O379 C387 1.252 . S
C380 O383 1.252 . S
C380 O384 1.260 . S
C381 O388 1.240 . S
C381 O389 1.252 . S
C382 O385 1.252 . S
C382 O386 1.260 . S
O383 In377 2.266 . S
O383 C380 1.252 . S
O384 In377 2.326 . S
O384 C380 1.260 . S
O385 In377 2.266 . S
O385 C382 1.252 . S
O386 In377 2.326 . S
O386 C382 1.260 . S
C387 O378 1.240 . S
C387 O379 1.252 . S
O388 In377 2.294 . S
O388 C381 1.240 . S
O389 In377 2.326 . S
O389 C381 1.252 . S
In390 O391 2.294 1_455 S
In390 O392 2.326 . S
In390 O396 2.266 1_455 S
In390 O397 2.326 . S
In390 O398 2.266 . S
In390 O399 2.321 1_455 S
In390 O401 2.294 . S
In390 O402 2.326 . S
O391 In390 2.294 1_655 S
O391 C400 1.240 1_655 S
O392 In390 2.326 . S
O392 C400 1.252 . S
C393 O396 1.252 1_455 S
C393 O397 1.260 . S
C394 O401 1.240 . S
C394 O402 1.252 . S
C395 O398 1.252 . S
C395 O399 1.253 1_455 S
O396 In390 2.266 1_655 S
O396 C393 1.252 1_655 S
O397 In390 2.326 . S
O397 C393 1.260 . S
O398 In390 2.266 . S
O398 C395 1.252 . S
O399 In390 2.321 1_655 S
O399 C395 1.253 1_655 S
C400 O391 1.240 1_455 S
C400 O392 1.252 . S
O401 In390 2.294 . S
O401 C394 1.240 . S
O402 In390 2.326 . S
O402 C394 1.252 . S
In403 O404 2.294 . S
In403 O405 2.326 . S
In403 O409 2.266 . S
In403 O410 2.326 . S
In403 O411 2.266 . S
In403 O412 2.326 . S
In403 O414 2.294 . S
In403 O415 2.326 . S
O404 In403 2.294 . S
O404 C413 1.240 . S
O405 In403 2.326 . S
O405 C413 1.252 . S
C406 O409 1.252 . S
C406 O410 1.260 . S
C407 O414 1.240 . S
C407 O415 1.252 . S
C408 O411 1.252 . S
C408 O412 1.260 . S
O409 In403 2.266 . S
O409 C406 1.252 . S
O410 In403 2.326 . S
O410 C406 1.260 . S
O411 In403 2.266 . S
O411 C408 1.252 . S
O412 In403 2.326 . S
O412 C408 1.260 . S
C413 O404 1.240 . S
C413 O405 1.252 . S
O414 In403 2.294 . S
O414 C407 1.240 . S
O415 In403 2.326 . S
O415 C407 1.252 . S
H416 C424 0.950 . S
H417 C429 0.950 . S
H418 C426 0.950 . S
H419 C428 0.950 . S
H420 C430 0.950 . S
H421 C432 0.950 . S
H422 C434 0.950 . S
H423 C435 0.950 . S
C424 H416 0.950 . S
C424 C425 1.386 1_455 S
C424 C426 1.391 . S
C425 C424 1.386 1_655 S
C425 C429 1.392 . S
C426 H418 0.950 . S
C426 C424 1.391 . S
C426 C427 1.405 . S
C427 C426 1.405 . S
C427 C428 1.395 1_455 S
C427 C433 1.490 . S
C428 H419 0.950 . S
C428 C427 1.395 1_655 S
C428 C429 1.391 . S
C429 H417 0.950 . S
C429 C425 1.392 . S
C429 C428 1.391 . S
C430 H420 0.950 . S
C430 C431 1.378 1_655 S
C430 C432 1.391 . S
C431 C430 1.378 1_455 S
C431 C435 1.400 . S
C432 H421 0.950 . S
C432 C430 1.391 . S
C432 C433 1.399 1_655 S
C433 C427 1.490 . S
C433 C432 1.399 1_455 S
C433 C434 1.399 . S
C434 H422 0.950 . S
C434 C433 1.399 . S
C434 C435 1.391 . S
C435 H423 0.950 . S
C435 C431 1.400 . S
C435 C434 1.391 . S
H436 C444 0.950 . S
H437 C449 0.950 . S
H438 C446 0.950 . S
H439 C448 0.950 . S
H440 C450 0.950 . S
H441 C452 0.950 . S
H442 C454 0.950 . S
H443 C455 0.950 . S
C444 H436 0.950 . S
C444 C445 1.386 . S
C444 C446 1.391 1_556 S
C445 C444 1.386 . S
C445 C449 1.393 . S
C446 H438 0.950 . S
C446 C444 1.391 1_554 S
C446 C447 1.400 . S
C447 C446 1.400 . S
C447 C448 1.398 . S
C447 C453 1.491 . S
C448 H439 0.950 . S
C448 C447 1.398 . S
C448 C449 1.391 1_554 S
C449 H437 0.950 . S
C449 C445 1.393 . S
C449 C448 1.391 1_556 S
C450 H440 0.950 . S
C450 C451 1.386 . S
C450 C452 1.391 . S
C451 C450 1.386 . S
C451 C455 1.393 . S
C452 H441 0.950 . S
C452 C450 1.391 . S
C452 C453 1.400 . S
C453 C447 1.491 . S
C453 C452 1.400 . S
C453 C454 1.398 . S
C454 H442 0.950 . S
C454 C453 1.398 . S
C454 C455 1.391 . S
C455 H443 0.950 . S
C455 C451 1.393 . S
C455 C454 1.391 . S
H456 C464 0.950 . S
H457 C469 0.950 . S
H458 C466 0.950 . S
H459 C468 0.950 . S
H460 C470 0.950 . S
H461 C472 0.950 . S
H462 C474 0.950 . S
H463 C475 0.950 . S
C464 H456 0.950 . S
C464 C465 1.386 . S
C464 C466 1.391 . S
C465 C464 1.386 . S
C465 C469 1.393 . S
C466 H458 0.950 . S
C466 C464 1.391 . S
C466 C467 1.400 . S
C467 C466 1.400 . S
C467 C468 1.398 . S
C467 C473 1.491 . S
C468 H459 0.950 . S
C468 C467 1.398 . S
C468 C469 1.391 . S
C469 H457 0.950 . S
C469 C465 1.393 . S
C469 C468 1.391 . S
C470 H460 0.950 . S
C470 C471 1.386 . S
C470 C472 1.391 . S
C471 C470 1.386 . S
C471 C475 1.393 . S
C472 H461 0.950 . S
C472 C470 1.391 . S
C472 C473 1.400 . S
C473 C467 1.491 . S
C473 C472 1.400 . S
C473 C474 1.398 . S
C474 H462 0.950 . S
C474 C473 1.398 . S
C474 C475 1.391 . S
C475 H463 0.950 . S
C475 C471 1.393 . S
C475 C474 1.391 . S
H476 C484 0.950 . S
H477 C489 0.950 . S
H478 C486 0.950 . S
H479 C488 0.950 . S
H480 C490 0.950 . S
H481 C492 0.950 . S
H482 C494 0.950 . S
H483 C495 0.950 . S
C484 H476 0.950 . S
C484 C485 1.386 . S
C484 C486 1.391 . S
C485 C484 1.386 . S
C485 C489 1.393 . S
C486 H478 0.950 . S
C486 C484 1.391 . S
C486 C487 1.400 . S
C487 C486 1.400 . S
C487 C488 1.398 . S
C487 C493 1.491 . S
C488 H479 0.950 . S
C488 C487 1.398 . S
C488 C489 1.391 . S
C489 H477 0.950 . S
C489 C485 1.393 . S
C489 C488 1.391 . S
C490 H480 0.950 . S
C490 C491 1.386 . S
C490 C492 1.391 . S
C491 C490 1.386 . S
C491 C495 1.393 . S
C492 H481 0.950 . S
C492 C490 1.391 . S
C492 C493 1.400 . S
C493 C487 1.491 . S
C493 C492 1.400 . S
C493 C494 1.398 . S
C494 H482 0.950 . S
C494 C493 1.398 . S
C494 C495 1.391 . S
C495 H483 0.950 . S
C495 C491 1.393 . S
C495 C494 1.391 . S
H496 C504 0.950 . S
H497 C509 0.950 . S
H498 C506 0.950 . S
H499 C508 0.950 . S
H500 C510 0.950 . S
H501 C512 0.950 . S
H502 C514 0.950 . S
H503 C515 0.950 . S
C504 H496 0.950 . S
C504 C505 1.386 1_455 S
C504 C506 1.391 . S
C505 C504 1.386 1_655 S
C505 C509 1.393 . S
C506 H498 0.950 . S
C506 C504 1.391 . S
C506 C507 1.396 1_455 S
C507 C506 1.396 1_655 S
C507 C508 1.402 . S
C507 C513 1.489 1_655 S
C508 H499 0.950 . S
C508 C507 1.402 . S
C508 C509 1.391 . S
C509 H497 0.950 . S
C509 C505 1.393 . S
C509 C508 1.391 . S
C510 H500 0.950 . S
C510 C511 1.386 1_655 S
C510 C512 1.391 . S
C511 C510 1.386 1_455 S
C511 C515 1.393 . S
C512 H501 0.950 . S
C512 C510 1.391 . S
C512 C513 1.372 1_655 S
C513 C507 1.489 1_455 S
C513 C512 1.372 1_455 S
C513 C514 1.429 . S
C514 H502 0.950 . S
C514 C513 1.429 . S
C514 C515 1.391 . S
C515 H503 0.950 . S
C515 C511 1.393 . S
C515 C514 1.391 . S
H516 C524 0.950 . S
H517 C529 0.950 . S
H518 C526 0.950 . S
H519 C528 0.950 . S
H520 C530 0.950 . S
H521 C532 0.950 . S
H522 C534 0.950 . S
H523 C535 0.950 . S
C524 H516 0.950 . S
C524 C525 1.386 . S
C524 C526 1.391 . S
C525 C524 1.386 . S
C525 C529 1.393 . S
C526 H518 0.950 . S
C526 C524 1.391 . S
C526 C527 1.400 . S
C527 C526 1.400 . S
C527 C528 1.398 . S
C527 C533 1.491 . S
C528 H519 0.950 . S
C528 C527 1.398 . S
C528 C529 1.391 . S
C529 H517 0.950 . S
C529 C525 1.393 . S
C529 C528 1.391 . S
C530 H520 0.950 . S
C530 C531 1.386 . S
C530 C532 1.391 1_554 S
C531 C530 1.386 . S
C531 C535 1.393 . S
C532 H521 0.950 . S
C532 C530 1.391 1_556 S
C532 C533 1.400 . S
C533 C527 1.491 . S
C533 C532 1.400 . S
C533 C534 1.398 . S
C534 H522 0.950 . S
C534 C533 1.398 . S
C534 C535 1.391 1_556 S
C535 H523 0.950 . S
C535 C531 1.393 . S
C535 C534 1.391 1_554 S
H536 C544 0.950 . S
H537 C549 0.950 . S
H538 C546 0.950 . S
H539 C548 0.950 . S
H540 C550 0.950 . S
H541 C552 0.950 . S
H542 C554 0.950 . S
H543 C555 0.950 . S
C544 H536 0.950 . S
C544 C545 1.386 . S
C544 C546 1.391 . S
C545 C544 1.386 . S
C545 C549 1.393 . S
C546 H538 0.950 . S
C546 C544 1.391 . S
C546 C547 1.400 . S
C547 C546 1.400 . S
C547 C548 1.398 . S
C547 C553 1.491 . S
C548 H539 0.950 . S
C548 C547 1.398 . S
C548 C549 1.391 . S
C549 H537 0.950 . S
C549 C545 1.393 . S
C549 C548 1.391 . S
C550 H540 0.950 . S
C550 C551 1.386 . S
C550 C552 1.391 . S
C551 C550 1.386 . S
C551 C555 1.393 . S
C552 H541 0.950 . S
C552 C550 1.391 . S
C552 C553 1.400 . S
C553 C547 1.491 . S
C553 C552 1.400 . S
C553 C554 1.398 . S
C554 H542 0.950 . S
C554 C553 1.398 . S
C554 C555 1.391 . S
C555 H543 0.950 . S
C555 C551 1.393 . S
C555 C554 1.391 . S
H556 C564 0.950 . S
H557 C569 0.950 . S
H558 C566 0.950 . S
H559 C568 0.950 . S
H560 C570 0.950 . S
H561 C572 0.950 . S
H562 C574 0.950 . S
H563 C575 0.950 . S
C564 H556 0.950 . S
C564 C565 1.386 . S
C564 C566 1.391 . S
C565 C564 1.386 . S
C565 C569 1.393 . S
C566 H558 0.950 . S
C566 C564 1.391 . S
C566 C567 1.400 . S
C567 C566 1.400 . S
C567 C568 1.398 . S
C567 C573 1.491 . S
C568 H559 0.950 . S
C568 C567 1.398 . S
C568 C569 1.391 . S
C569 H557 0.950 . S
C569 C565 1.393 . S
C569 C568 1.391 . S
C570 H560 0.950 . S
C570 C571 1.386 . S
C570 C572 1.391 . S
C571 C570 1.386 . S
C571 C575 1.393 . S
C572 H561 0.950 . S
C572 C570 1.391 . S
C572 C573 1.400 . S
C573 C567 1.491 . S
C573 C572 1.400 . S
C573 C574 1.398 . S
C574 H562 0.950 . S
C574 C573 1.398 . S
C574 C575 1.391 . S
C575 H563 0.950 . S
C575 C571 1.393 . S
C575 C574 1.391 . S
H576 C584 0.950 . S
H577 C589 0.950 . S
H578 C586 0.950 . S
H579 C588 0.950 . S
H580 C590 0.950 . S
H581 C592 0.950 . S
H582 C594 0.950 . S
H583 C595 0.950 . S
C584 H576 0.950 . S
C584 C585 1.429 . S
C584 C586 1.391 . S
C585 C584 1.429 . S
C585 C589 1.349 1_455 S
C586 H578 0.950 . S
C586 C584 1.391 . S
C586 C587 1.406 1_455 S
C587 C586 1.406 1_655 S
C587 C588 1.392 . S
C587 C593 1.490 . S
C588 H579 0.950 . S
C588 C587 1.392 . S
C588 C589 1.391 . S
C589 H577 0.950 . S
C589 C585 1.349 1_655 S
C589 C588 1.391 . S
C590 H580 0.950 . S
C590 C591 1.386 . S
C590 C592 1.391 . S
C591 C590 1.386 . S
C591 C595 1.393 1_655 S
C592 H581 0.950 . S
C592 C590 1.391 . S
C592 C593 1.428 . S
C593 C587 1.490 . S
C593 C592 1.428 . S
C593 C594 1.372 1_655 S
C594 H582 0.950 . S
C594 C593 1.372 1_455 S
C594 C595 1.391 . S
C595 H583 0.950 . S
C595 C591 1.393 1_455 S
C595 C594 1.391 . S
H596 C604 0.950 . S
H597 C609 0.950 . S
H598 C606 0.950 . S
H599 C608 0.950 . S
H600 C610 0.950 . S
H601 C612 0.950 . S
H602 C614 0.950 . S
H603 C615 0.950 . S
C604 H596 0.950 . S
C604 C605 1.386 . S
C604 C606 1.391 1_554 S
C605 C604 1.386 . S
C605 C609 1.393 . S
C606 H598 0.950 . S
C606 C604 1.391 1_556 S
C606 C607 1.400 . S
C607 C606 1.400 . S
C607 C608 1.398 . S
C607 C613 1.491 . S
C608 H599 0.950 . S
C608 C607 1.398 . S
C608 C609 1.391 1_556 S
C609 H597 0.950 . S
C609 C605 1.393 . S
C609 C608 1.391 1_554 S
C610 H600 0.950 . S
C610 C611 1.386 . S
C610 C612 1.391 . S
C611 C610 1.386 . S
C611 C615 1.393 . S
C612 H601 0.950 . S
C612 C610 1.391 . S
C612 C613 1.400 . S
C613 C607 1.491 . S
C613 C612 1.400 . S
C613 C614 1.398 . S
C614 H602 0.950 . S
C614 C613 1.398 . S
C614 C615 1.391 . S
C615 H603 0.950 . S
C615 C611 1.393 . S
C615 C614 1.391 . S
H616 C624 0.950 . S
H617 C629 0.950 . S
H618 C626 0.950 . S
H619 C628 0.950 . S
H620 C630 0.950 . S
H621 C632 0.950 . S
H622 C634 0.950 . S
H623 C635 0.950 . S
C624 H616 0.950 . S
C624 C625 1.386 . S
C624 C626 1.391 . S
C625 C624 1.386 . S
C625 C629 1.393 . S
C626 H618 0.950 . S
C626 C624 1.391 . S
C626 C627 1.400 . S
C627 C626 1.400 . S
C627 C628 1.398 . S
C627 C633 1.491 . S
C628 H619 0.950 . S
C628 C627 1.398 . S
C628 C629 1.391 . S
C629 H617 0.950 . S
C629 C625 1.393 . S
C629 C628 1.391 . S
C630 H620 0.950 . S
C630 C631 1.386 . S
C630 C632 1.391 . S
C631 C630 1.386 . S
C631 C635 1.393 . S
C632 H621 0.950 . S
C632 C630 1.391 . S
C632 C633 1.400 . S
C633 C627 1.491 . S
C633 C632 1.400 . S
C633 C634 1.398 . S
C634 H622 0.950 . S
C634 C633 1.398 . S
C634 C635 1.391 . S
C635 H623 0.950 . S
C635 C631 1.393 . S
C635 C634 1.391 . S
H636 C644 0.950 . S
H637 C649 0.950 . S
H638 C646 0.950 . S
H639 C648 0.950 . S
H640 C650 0.950 . S
H641 C652 0.950 . S
H642 C654 0.950 . S
H643 C655 0.950 . S
C644 H636 0.950 . S
C644 C645 1.386 . S
C644 C646 1.391 . S
C645 C644 1.386 . S
C645 C649 1.393 . S
C646 H638 0.950 . S
C646 C644 1.391 . S
C646 C647 1.400 . S
C647 C646 1.400 . S
C647 C648 1.398 . S
C647 C653 1.491 . S
C648 H639 0.950 . S
C648 C647 1.398 . S
C648 C649 1.391 . S
C649 H637 0.950 . S
C649 C645 1.393 . S
C649 C648 1.391 . S
C650 H640 0.950 . S
C650 C651 1.386 . S
C650 C652 1.391 . S
C651 C650 1.386 . S
C651 C655 1.393 . S
C652 H641 0.950 . S
C652 C650 1.391 . S
C652 C653 1.400 . S
C653 C647 1.491 . S
C653 C652 1.400 . S
C653 C654 1.398 . S
C654 H642 0.950 . S
C654 C653 1.398 . S
C654 C655 1.391 . S
C655 H643 0.950 . S
C655 C651 1.393 . S
C655 C654 1.391 . S
H656 C664 0.950 . S
H657 C669 0.950 . S
H658 C666 0.950 . S
H659 C668 0.950 . S
H660 C670 0.950 . S
H661 C672 0.950 . S
H662 C674 0.950 . S
H663 C675 0.950 . S
C664 H656 0.950 . S
C664 C665 1.386 . S
C664 C666 1.391 . S
C665 C664 1.386 . S
C665 C669 1.393 1_655 S
C666 H658 0.950 . S
C666 C664 1.391 . S
C666 C667 1.410 . S
C667 C666 1.410 . S
C667 C668 1.393 1_655 S
C667 C673 1.489 1_655 S
C668 H659 0.950 . S
C668 C667 1.393 1_455 S
C668 C669 1.391 . S
C669 H657 0.950 . S
C669 C665 1.393 1_455 S
C669 C668 1.391 . S
C670 H660 0.950 . S
C670 C671 1.386 . S
C670 C672 1.391 . S
C671 C670 1.386 . S
C671 C675 1.393 1_455 S
C672 H661 0.950 . S
C672 C670 1.391 . S
C672 C673 1.403 . S
C673 C667 1.489 1_455 S
C673 C672 1.403 . S
C673 C674 1.397 1_455 S
C674 H662 0.950 . S
C674 C673 1.397 1_655 S
C674 C675 1.391 . S
C675 H663 0.950 . S
C675 C671 1.393 1_655 S
C675 C674 1.391 . S
H676 C684 0.950 . S
H677 C689 0.950 . S
H678 C686 0.950 . S
H679 C688 0.950 . S
H680 C690 0.950 . S
H681 C692 0.950 . S
H682 C694 0.950 . S
H683 C695 0.950 . S
C684 H676 0.950 . S
C684 C685 1.386 . S
C684 C686 1.391 . S
C685 C684 1.386 . S
C685 C689 1.393 . S
C686 H678 0.950 . S
C686 C684 1.391 . S
C686 C687 1.400 . S
C687 C686 1.400 . S
C687 C688 1.398 . S
C687 C693 1.491 . S
C688 H679 0.950 . S
C688 C687 1.398 . S
C688 C689 1.391 . S
C689 H677 0.950 . S
C689 C685 1.393 . S
C689 C688 1.391 . S
C690 H680 0.950 . S
C690 C691 1.386 . S
C690 C692 1.391 1_556 S
C691 C690 1.386 . S
C691 C695 1.393 . S
C692 H681 0.950 . S
C692 C690 1.391 1_554 S
C692 C693 1.400 . S
C693 C687 1.491 . S
C693 C692 1.400 . S
C693 C694 1.398 . S
C694 H682 0.950 . S
C694 C693 1.398 . S
C694 C695 1.391 1_554 S
C695 H683 0.950 . S
C695 C691 1.393 . S
C695 C694 1.391 1_556 S
H696 C704 0.950 . S
H697 C709 0.950 . S
H698 C706 0.950 . S
H699 C708 0.950 . S
H700 C710 0.950 . S
H701 C712 0.950 . S
H702 C714 0.950 . S
H703 C715 0.950 . S
C704 H696 0.950 . S
C704 C705 1.386 . S
C704 C706 1.391 . S
C705 C704 1.386 . S
C705 C709 1.393 . S
C706 H698 0.950 . S
C706 C704 1.391 . S
C706 C707 1.400 . S
C707 C706 1.400 . S
C707 C708 1.398 . S
C707 C713 1.491 . S
C708 H699 0.950 . S
C708 C707 1.398 . S
C708 C709 1.391 . S
C709 H697 0.950 . S
C709 C705 1.393 . S
C709 C708 1.391 . S
C710 H700 0.950 . S
C710 C711 1.386 . S
C710 C712 1.391 . S
C711 C710 1.386 . S
C711 C715 1.393 . S
C712 H701 0.950 . S
C712 C710 1.391 . S
C712 C713 1.400 . S
C713 C707 1.491 . S
C713 C712 1.400 . S
C713 C714 1.398 . S
C714 H702 0.950 . S
C714 C713 1.398 . S
C714 C715 1.391 . S
C715 H703 0.950 . S
C715 C711 1.393 . S
C715 C714 1.391 . S
H716 C724 0.950 . S
H717 C729 0.950 . S
H718 C726 0.950 . S
H719 C728 0.950 . S
H720 C730 0.950 . S
H721 C732 0.950 . S
H722 C734 0.950 . S
H723 C735 0.950 . S
C724 H716 0.950 . S
C724 C725 1.386 . S
C724 C726 1.391 . S
C725 C724 1.386 . S
C725 C729 1.393 . S
C726 H718 0.950 . S
C726 C724 1.391 . S
C726 C727 1.400 . S
C727 C726 1.400 . S
C727 C728 1.398 . S
C727 C733 1.491 . S
C728 H719 0.950 . S
C728 C727 1.398 . S
C728 C729 1.391 . S
C729 H717 0.950 . S
C729 C725 1.393 . S
C729 C728 1.391 . S
C730 H720 0.950 . S
C730 C731 1.386 . S
C730 C732 1.391 . S
C731 C730 1.386 . S
C731 C735 1.393 . S
C732 H721 0.950 . S
C732 C730 1.391 . S
C732 C733 1.400 . S
C733 C727 1.491 . S
C733 C732 1.400 . S
C733 C734 1.398 . S
C734 H722 0.950 . S
C734 C733 1.398 . S
C734 C735 1.391 . S
C735 H723 0.950 . S
C735 C731 1.393 . S
C735 C734 1.391 . S
H736 C744 0.950 . S
H737 C749 0.950 . S
H738 C746 0.950 . S
H739 C748 0.950 . S
H740 C750 0.950 . S
H741 C752 0.950 . S
H742 C754 0.950 . S
H743 C755 0.950 . S
C744 H736 0.950 . S
C744 C745 1.386 . S
C744 C746 1.391 . S
C745 C744 1.386 . S
C745 C749 1.393 . S
C746 H738 0.950 . S
C746 C744 1.391 . S
C746 C747 1.400 . S
C747 C746 1.400 . S
C747 C748 1.398 . S
C747 C753 1.491 . S
C748 H739 0.950 . S
C748 C747 1.398 . S
C748 C749 1.391 . S
C749 H737 0.950 . S
C749 C745 1.393 . S
C749 C748 1.391 . S
C750 H740 0.950 . S
C750 C751 1.386 . S
C750 C752 1.391 . S
C751 C750 1.386 . S
C751 C755 1.393 . S
C752 H741 0.950 . S
C752 C750 1.391 . S
C752 C753 1.400 . S
C753 C747 1.491 . S
C753 C752 1.400 . S
C753 C754 1.398 . S
C754 H742 0.950 . S
C754 C753 1.398 . S
C754 C755 1.391 . S
C755 H743 0.950 . S
C755 C751 1.393 . S
C755 C754 1.391 . S
H756 C764 0.950 . S
H757 C769 0.950 . S
H758 C766 0.950 . S
H759 C768 0.950 . S
H760 C770 0.950 . S
H761 C772 0.950 . S
H762 C774 0.950 . S
H763 C775 0.950 . S
C764 H756 0.950 . S
C764 C765 1.386 . S
C764 C766 1.391 . S
C765 C764 1.386 . S
C765 C769 1.393 . S
C766 H758 0.950 . S
C766 C764 1.391 . S
C766 C767 1.400 . S
C767 C766 1.400 . S
C767 C768 1.398 . S
C767 C773 1.491 . S
C768 H759 0.950 . S
C768 C767 1.398 . S
C768 C769 1.391 . S
C769 H757 0.950 . S
C769 C765 1.393 . S
C769 C768 1.391 . S
C770 H760 0.950 . S
C770 C771 1.386 . S
C770 C772 1.391 . S
C771 C770 1.386 . S
C771 C775 1.393 . S
C772 H761 0.950 . S
C772 C770 1.391 . S
C772 C773 1.400 . S
C773 C767 1.491 . S
C773 C772 1.400 . S
C773 C774 1.398 . S
C774 H762 0.950 . S
C774 C773 1.398 . S
C774 C775 1.391 . S
C775 H763 0.950 . S
C775 C771 1.393 . S
C775 C774 1.391 . S
H776 C784 0.950 . S
H777 C789 0.950 . S
H778 C786 0.950 . S
H779 C788 0.950 . S
H780 C790 0.950 . S
H781 C792 0.950 . S
H782 C794 0.950 . S
H783 C795 0.950 . S
C784 H776 0.950 . S
C784 C785 1.385 . S
C784 C786 1.391 . S
C785 C784 1.385 . S
C785 C789 1.393 1_455 S
C786 H778 0.950 . S
C786 C784 1.391 . S
C786 C787 1.397 1_455 S
C787 C786 1.397 1_655 S
C787 C788 1.403 . S
C787 C793 1.490 . S
C788 H779 0.950 . S
C788 C787 1.403 . S
C788 C789 1.391 . S
C789 H777 0.950 . S
C789 C785 1.393 1_655 S
C789 C788 1.391 . S
C790 H780 0.950 . S
C790 C791 1.392 . S
C790 C792 1.391 . S
C791 C790 1.392 . S
C791 C795 1.387 1_655 S
C792 H781 0.950 . S
C792 C790 1.391 . S
C792 C793 1.400 . S
C793 C787 1.490 . S
C793 C792 1.400 . S
C793 C794 1.398 1_655 S
C794 H782 0.950 . S
C794 C793 1.398 1_455 S
C794 C795 1.391 . S
C795 H783 0.950 . S
C795 C791 1.387 1_455 S
C795 C794 1.391 . S
H796 C804 0.950 . S
H797 C809 0.950 . S
H798 C806 0.950 . S
H799 C808 0.950 . S
H800 C810 0.950 . S
H801 C812 0.950 . S
H802 C814 0.950 . S
H803 C815 0.950 . S
C804 H796 0.950 . S
C804 C805 1.386 . S
C804 C806 1.391 . S
C805 C804 1.386 . S
C805 C809 1.393 . S
C806 H798 0.950 . S
C806 C804 1.391 . S
C806 C807 1.400 . S
C807 C806 1.400 . S
C807 C808 1.398 . S
C807 C813 1.491 . S
C808 H799 0.950 . S
C808 C807 1.398 . S
C808 C809 1.391 . S
C809 H797 0.950 . S
C809 C805 1.393 . S
C809 C808 1.391 . S
C810 H800 0.950 . S
C810 C811 1.386 . S
C810 C812 1.391 1_556 S
C811 C810 1.386 . S
C811 C815 1.393 . S
C812 H801 0.950 . S
C812 C810 1.391 1_554 S
C812 C813 1.400 . S
C813 C807 1.491 . S
C813 C812 1.400 . S
C813 C814 1.398 . S
C814 H802 0.950 . S
C814 C813 1.398 . S
C814 C815 1.391 1_554 S
C815 H803 0.950 . S
C815 C811 1.393 . S
C815 C814 1.391 1_556 S
H816 C824 0.950 . S
H817 C829 0.950 . S
H818 C826 0.950 . S
H819 C828 0.950 . S
H820 C830 0.950 . S
H821 C832 0.950 . S
H822 C834 0.950 . S
H823 C835 0.950 . S
C824 H816 0.950 . S
C824 C825 1.386 . S
C824 C826 1.391 . S
C825 C824 1.386 . S
C825 C829 1.393 . S
C826 H818 0.950 . S
C826 C824 1.391 . S
C826 C827 1.400 . S
C827 C826 1.400 . S
C827 C828 1.398 . S
C827 C833 1.491 . S
C828 H819 0.950 . S
C828 C827 1.398 . S
C828 C829 1.391 . S
C829 H817 0.950 . S
C829 C825 1.393 . S
C829 C828 1.391 . S
C830 H820 0.950 . S
C830 C831 1.386 . S
C830 C832 1.391 . S
C831 C830 1.386 . S
C831 C835 1.393 . S
C832 H821 0.950 . S
C832 C830 1.391 . S
C832 C833 1.400 . S
C833 C827 1.491 . S
C833 C832 1.400 . S
C833 C834 1.398 . S
C834 H822 0.950 . S
C834 C833 1.398 . S
C834 C835 1.391 . S
C835 H823 0.950 . S
C835 C831 1.393 . S
C835 C834 1.391 . S
H836 C844 0.950 . S
H837 C849 0.950 . S
H838 C846 0.950 . S
H839 C848 0.950 . S
H840 C850 0.950 . S
H841 C852 0.950 . S
H842 C854 0.950 . S
H843 C855 0.950 . S
C844 H836 0.950 . S
C844 C845 1.386 . S
C844 C846 1.391 . S
C845 C844 1.386 . S
C845 C849 1.393 . S
C846 H838 0.950 . S
C846 C844 1.391 . S
C846 C847 1.400 . S
C847 C846 1.400 . S
C847 C848 1.398 . S
C847 C853 1.491 . S
C848 H839 0.950 . S
C848 C847 1.398 . S
C848 C849 1.391 . S
C849 H837 0.950 . S
C849 C845 1.393 . S
C849 C848 1.391 . S
C850 H840 0.950 . S
C850 C851 1.386 . S
C850 C852 1.391 . S
C851 C850 1.386 . S
C851 C855 1.393 . S
C852 H841 0.950 . S
C852 C850 1.391 . S
C852 C853 1.400 . S
C853 C847 1.491 . S
C853 C852 1.400 . S
C853 C854 1.398 . S
C854 H842 0.950 . S
C854 C853 1.398 . S
C854 C855 1.391 . S
C855 H843 0.950 . S
C855 C851 1.393 . S
C855 C854 1.391 . S
H856 C864 0.950 . S
H857 C869 0.950 . S
H858 C866 0.950 . S
H859 C868 0.950 . S
H860 C870 0.950 . S
H861 C872 0.950 . S
H862 C874 0.950 . S
H863 C875 0.950 . S
C864 H856 0.950 . S
C864 C865 1.386 1_655 S
C864 C866 1.391 . S
C865 C864 1.386 1_455 S
C865 C869 1.393 . S
C866 H858 0.950 . S
C866 C864 1.391 . S
C866 C867 1.397 1_655 S
C867 C866 1.397 1_455 S
C867 C868 1.402 . S
C867 C873 1.489 1_455 S
C868 H859 0.950 . S
C868 C867 1.402 . S
C868 C869 1.391 . S
C869 H857 0.950 . S
C869 C865 1.393 . S
C869 C868 1.391 . S
C870 H860 0.950 . S
C870 C871 1.386 1_455 S
C870 C872 1.391 . S
C871 C870 1.386 1_655 S
C871 C875 1.393 . S
C872 H861 0.950 . S
C872 C870 1.391 . S
C872 C873 1.371 1_455 S
C873 C867 1.489 1_655 S
C873 C872 1.371 1_655 S
C873 C874 1.430 . S
C874 H862 0.950 . S
C874 C873 1.430 . S
C874 C875 1.391 . S
C875 H863 0.950 . S
C875 C871 1.393 . S
C875 C874 1.391 . S
H876 C884 0.950 . S
H877 C889 0.950 . S
H878 C886 0.950 . S
H879 C888 0.950 . S
H880 C890 0.950 . S
H881 C892 0.950 . S
H882 C894 0.950 . S
H883 C895 0.950 . S
C884 H876 0.950 . S
C884 C885 1.386 . S
C884 C886 1.391 1_554 S
C885 C884 1.386 . S
C885 C889 1.393 . S
C886 H878 0.950 . S
C886 C884 1.391 1_556 S
C886 C887 1.400 . S
C887 C886 1.400 . S
C887 C888 1.398 . S
C887 C893 1.491 . S
C888 H879 0.950 . S
C888 C887 1.398 . S
C888 C889 1.391 1_556 S
C889 H877 0.950 . S
C889 C885 1.393 . S
C889 C888 1.391 1_554 S
C890 H880 0.950 . S
C890 C891 1.386 . S
C890 C892 1.391 . S
C891 C890 1.386 . S
C891 C895 1.393 . S
C892 H881 0.950 . S
C892 C890 1.391 . S
C892 C893 1.400 . S
C893 C887 1.491 . S
C893 C892 1.400 . S
C893 C894 1.398 . S
C894 H882 0.950 . S
C894 C893 1.398 . S
C894 C895 1.391 . S
C895 H883 0.950 . S
C895 C891 1.393 . S
C895 C894 1.391 . S
H896 C904 0.950 . S
H897 C909 0.950 . S
H898 C906 0.950 . S
H899 C908 0.950 . S
H900 C910 0.950 . S
H901 C912 0.950 . S
H902 C914 0.950 . S
H903 C915 0.950 . S
C904 H896 0.950 . S
C904 C905 1.386 . S
C904 C906 1.391 . S
C905 C904 1.386 . S
C905 C909 1.393 . S
C906 H898 0.950 . S
C906 C904 1.391 . S
C906 C907 1.400 . S
C907 C906 1.400 . S
C907 C908 1.398 . S
C907 C913 1.491 . S
C908 H899 0.950 . S
C908 C907 1.398 . S
C908 C909 1.391 . S
C909 H897 0.950 . S
C909 C905 1.393 . S
C909 C908 1.391 . S
C910 H900 0.950 . S
C910 C911 1.386 . S
C910 C912 1.391 . S
C911 C910 1.386 . S
C911 C915 1.393 . S
C912 H901 0.950 . S
C912 C910 1.391 . S
C912 C913 1.400 . S
C913 C907 1.491 . S
C913 C912 1.400 . S
C913 C914 1.398 . S
C914 H902 0.950 . S
C914 C913 1.398 . S
C914 C915 1.391 . S
C915 H903 0.950 . S
C915 C911 1.393 . S
C915 C914 1.391 . S
H916 C924 0.950 . S
H917 C929 0.950 . S
H918 C926 0.950 . S
H919 C928 0.950 . S
H920 C930 0.950 . S
H921 C932 0.950 . S
H922 C934 0.950 . S
H923 C935 0.950 . S
C924 H916 0.950 . S
C924 C925 1.386 . S
C924 C926 1.391 . S
C925 C924 1.386 . S
C925 C929 1.393 . S
C926 H918 0.950 . S
C926 C924 1.391 . S
C926 C927 1.400 . S
C927 C926 1.400 . S
C927 C928 1.398 . S
C927 C933 1.491 . S
C928 H919 0.950 . S
C928 C927 1.398 . S
C928 C929 1.391 . S
C929 H917 0.950 . S
C929 C925 1.393 . S
C929 C928 1.391 . S
C930 H920 0.950 . S
C930 C931 1.386 . S
C930 C932 1.391 . S
C931 C930 1.386 . S
C931 C935 1.393 . S
C932 H921 0.950 . S
C932 C930 1.391 . S
C932 C933 1.400 . S
C933 C927 1.491 . S
C933 C932 1.400 . S
C933 C934 1.398 . S
C934 H922 0.950 . S
C934 C933 1.398 . S
C934 C935 1.391 . S
C935 H923 0.950 . S
C935 C931 1.393 . S
C935 C934 1.391 . S
H936 C944 0.950 . S
H937 C949 0.950 . S
H938 C946 0.950 . S
H939 C948 0.950 . S
H940 C950 0.950 . S
H941 C952 0.950 . S
H942 C954 0.950 . S
H943 C955 0.950 . S
C944 H936 0.950 . S
C944 C945 1.386 . S
C944 C946 1.391 . S
C945 C944 1.386 . S
C945 C949 1.393 1_455 S
C946 H938 0.950 . S
C946 C944 1.391 . S
C946 C947 1.426 . S
C947 C946 1.426 . S
C947 C948 1.373 1_455 S
C947 C953 1.490 1_455 S
C948 H939 0.950 . S
C948 C947 1.373 1_655 S
C948 C949 1.391 . S
C949 H937 0.950 . S
C949 C945 1.393 1_655 S
C949 C948 1.391 . S
C950 H940 0.950 . S
C950 C951 1.430 . S
C950 C952 1.391 . S
C951 C950 1.430 . S
C951 C955 1.348 1_655 S
C952 H941 0.950 . S
C952 C950 1.391 . S
C952 C953 1.395 . S
C953 C947 1.490 1_655 S
C953 C952 1.395 . S
C953 C954 1.403 1_655 S
C954 H942 0.950 . S
C954 C953 1.403 1_455 S
C954 C955 1.391 . S
C955 H943 0.950 . S
C955 C951 1.348 1_455 S
C955 C954 1.391 . S
H956 C964 0.950 . S
H957 C969 0.950 . S
H958 C966 0.950 . S
H959 C968 0.950 . S
H960 C970 0.950 . S
H961 C972 0.950 . S
H962 C974 0.950 . S
H963 C975 0.950 . S
C964 H956 0.950 . S
C964 C965 1.386 . S
C964 C966 1.391 . S
C965 C964 1.386 . S
C965 C969 1.393 . S
C966 H958 0.950 . S
C966 C964 1.391 . S
C966 C967 1.400 . S
C967 C966 1.400 . S
C967 C968 1.398 . S
C967 C973 1.491 . S
C968 H959 0.950 . S
C968 C967 1.398 . S
C968 C969 1.391 . S
C969 H957 0.950 . S
C969 C965 1.393 . S
C969 C968 1.391 . S
C970 H960 0.950 . S
C970 C971 1.386 . S
C970 C972 1.391 1_554 S
C971 C970 1.386 . S
C971 C975 1.393 . S
C972 H961 0.950 . S
C972 C970 1.391 1_556 S
C972 C973 1.400 . S
C973 C967 1.491 . S
C973 C972 1.400 . S
C973 C974 1.398 . S
C974 H962 0.950 . S
C974 C973 1.398 . S
C974 C975 1.391 1_556 S
C975 H963 0.950 . S
C975 C971 1.393 . S
C975 C974 1.391 1_554 S
H976 C984 0.950 . S
H977 C989 0.950 . S
H978 C986 0.950 . S
H979 C988 0.950 . S
H980 C990 0.950 . S
H981 C992 0.950 . S
H982 C994 0.950 . S
H983 C995 0.950 . S
C984 H976 0.950 . S
C984 C985 1.386 . S
C984 C986 1.391 . S
C985 C984 1.386 . S
C985 C989 1.393 . S
C986 H978 0.950 . S
C986 C984 1.391 . S
C986 C987 1.400 . S
C987 C986 1.400 . S
C987 C988 1.398 . S
C987 C993 1.491 . S
C988 H979 0.950 . S
C988 C987 1.398 . S
C988 C989 1.391 . S
C989 H977 0.950 . S
C989 C985 1.393 . S
C989 C988 1.391 . S
C990 H980 0.950 . S
C990 C991 1.386 . S
C990 C992 1.391 . S
C991 C990 1.386 . S
C991 C995 1.393 . S
C992 H981 0.950 . S
C992 C990 1.391 . S
C992 C993 1.400 . S
C993 C987 1.491 . S
C993 C992 1.400 . S
C993 C994 1.398 . S
C994 H982 0.950 . S
C994 C993 1.398 . S
C994 C995 1.391 . S
C995 H983 0.950 . S
C995 C991 1.393 . S
C995 C994 1.391 . S
H996 C1004 0.950 . S
H997 C1009 0.950 . S
H998 C1006 0.950 . S
H999 C1008 0.950 . S
H1000 C1010 0.950 . S
H1001 C1012 0.950 . S
H1002 C1014 0.950 . S
H1003 C1015 0.950 . S
C1004 H996 0.950 . S
C1004 C1005 1.386 . S
C1004 C1006 1.391 . S
C1005 C1004 1.386 . S
C1005 C1009 1.393 . S
C1006 H998 0.950 . S
C1006 C1004 1.391 . S
C1006 C1007 1.400 . S
C1007 C1006 1.400 . S
C1007 C1008 1.398 . S
C1007 C1013 1.491 . S
C1008 H999 0.950 . S
C1008 C1007 1.398 . S
C1008 C1009 1.391 . S
C1009 H997 0.950 . S
C1009 C1005 1.393 . S
C1009 C1008 1.391 . S
C1010 H1000 0.950 . S
C1010 C1011 1.386 . S
C1010 C1012 1.391 . S
C1011 C1010 1.386 . S
C1011 C1015 1.393 . S
C1012 H1001 0.950 . S
C1012 C1010 1.391 . S
C1012 C1013 1.400 . S
C1013 C1007 1.491 . S
C1013 C1012 1.400 . S
C1013 C1014 1.398 . S
C1014 H1002 0.950 . S
C1014 C1013 1.398 . S
C1014 C1015 1.391 . S
C1015 H1003 0.950 . S
C1015 C1011 1.393 . S
C1015 C1014 1.391 . S
H1016 C1024 0.950 . S
H1017 C1029 0.950 . S
H1018 C1026 0.950 . S
H1019 C1028 0.950 . S
H1020 C1030 0.950 . S
H1021 C1032 0.950 . S
H1022 C1034 0.950 . S
H1023 C1035 0.950 . S
C1024 H1016 0.950 . S
C1024 C1025 1.376 1_455 S
C1024 C1026 1.391 . S
C1025 C1024 1.376 1_655 S
C1025 C1029 1.402 . S
C1026 H1018 0.950 . S
C1026 C1024 1.391 . S
C1026 C1027 1.408 . S
C1027 C1026 1.408 . S
C1027 C1028 1.391 1_455 S
C1027 C1033 1.491 . S
C1028 H1019 0.950 . S
C1028 C1027 1.391 1_655 S
C1028 C1029 1.391 . S
C1029 H1017 0.950 . S
C1029 C1025 1.402 . S
C1029 C1028 1.391 . S
C1030 H1020 0.950 . S
C1030 C1031 1.352 1_655 S
C1030 C1032 1.391 . S
C1031 C1030 1.352 1_455 S
C1031 C1035 1.426 . S
C1032 H1021 0.950 . S
C1032 C1030 1.391 . S
C1032 C1033 1.394 1_655 S
C1033 C1027 1.491 . S
C1033 C1032 1.394 1_455 S
C1033 C1034 1.405 . S
C1034 H1022 0.950 . S
C1034 C1033 1.405 . S
C1034 C1035 1.391 . S
C1035 H1023 0.950 . S
C1035 C1031 1.426 . S
C1035 C1034 1.391 . S
H1036 C1044 0.950 . S
H1037 C1049 0.950 . S
H1038 C1046 0.950 . S
H1039 C1048 0.950 . S
H1040 C1050 0.950 . S
H1041 C1052 0.950 . S
H1042 C1054 0.950 . S
H1043 C1055 0.950 . S
C1044 H1036 0.950 . S
C1044 C1045 1.386 . S
C1044 C1046 1.391 . S
C1045 C1044 1.386 . S
C1045 C1049 1.393 . S
C1046 H1038 0.950 . S
C1046 C1044 1.391 . S
C1046 C1047 1.400 . S
C1047 C1046 1.400 . S
C1047 C1048 1.398 . S
C1047 C1053 1.491 . S
C1048 H1039 0.950 . S
C1048 C1047 1.398 . S
C1048 C1049 1.391 . S
C1049 H1037 0.950 . S
C1049 C1045 1.393 . S
C1049 C1048 1.391 . S
C1050 H1040 0.950 . S
C1050 C1051 1.386 . S
C1050 C1052 1.391 1_556 S
C1051 C1050 1.386 . S
C1051 C1055 1.393 . S
C1052 H1041 0.950 . S
C1052 C1050 1.391 1_554 S
C1052 C1053 1.400 . S
C1053 C1047 1.491 . S
C1053 C1052 1.400 . S
C1053 C1054 1.398 . S
C1054 H1042 0.950 . S
C1054 C1053 1.398 . S
C1054 C1055 1.391 1_554 S
C1055 H1043 0.950 . S
C1055 C1051 1.393 . S
C1055 C1054 1.391 1_556 S
H1056 C1064 0.950 . S
H1057 C1069 0.959 . S
H1058 C1066 0.950 . S
H1059 C1068 0.950 . S
H1060 C1070 0.950 . S
H1061 C1072 0.950 . S
H1062 C1074 0.950 . S
H1063 C1075 0.959 . S
C1064 H1056 0.950 . S
C1064 C1065 1.386 . S
C1064 C1066 1.391 . S
C1065 C1064 1.386 . S
C1065 C1069 1.393 1_554 S
C1066 H1058 0.950 . S
C1066 C1064 1.391 . S
C1066 C1067 1.400 . S
C1067 C1066 1.400 . S
C1067 C1068 1.398 1_454 S
C1067 C1073 1.491 1_444 S
C1068 H1059 0.950 . S
C1068 C1067 1.398 1_656 S
C1068 C1069 1.391 1_655 S
C1069 H1057 0.959 . S
C1069 C1065 1.393 1_556 S
C1069 C1068 1.391 1_455 S
C1070 H1060 0.950 . S
C1070 C1071 1.386 . S
C1070 C1072 1.391 . S
C1071 C1070 1.386 . S
C1071 C1075 1.393 1_556 S
C1072 H1061 0.950 . S
C1072 C1070 1.391 . S
C1072 C1073 1.400 . S
C1073 C1067 1.491 1_666 S
C1073 C1072 1.400 . S
C1073 C1074 1.398 1_656 S
C1074 H1062 0.950 . S
C1074 C1073 1.398 1_454 S
C1074 C1075 1.391 1_455 S
C1075 H1063 0.959 . S
C1075 C1071 1.393 1_554 S
C1075 C1074 1.391 1_655 S
H1076 C1084 0.950 . S
H1077 C1089 0.950 . S
H1078 C1086 0.950 . S
H1079 C1088 0.950 . S
H1080 C1090 0.950 . S
H1081 C1092 0.950 . S
H1082 C1094 0.950 . S
H1083 C1095 0.950 . S
C1084 H1076 0.950 . S
C1084 C1085 1.386 . S
C1084 C1086 1.391 . S
C1085 C1084 1.386 . S
C1085 C1089 1.393 . S
C1086 H1078 0.950 . S
C1086 C1084 1.391 . S
C1086 C1087 1.400 . S
C1087 C1086 1.400 . S
C1087 C1088 1.398 . S
C1087 C1093 1.491 . S
C1088 H1079 0.950 . S
C1088 C1087 1.398 . S
C1088 C1089 1.391 . S
C1089 H1077 0.950 . S
C1089 C1085 1.393 . S
C1089 C1088 1.391 . S
C1090 H1080 0.950 . S
C1090 C1091 1.386 . S
C1090 C1092 1.391 . S
C1091 C1090 1.386 . S
C1091 C1095 1.393 . S
C1092 H1081 0.950 . S
C1092 C1090 1.391 . S
C1092 C1093 1.400 . S
C1093 C1087 1.491 . S
C1093 C1092 1.400 . S
C1093 C1094 1.398 . S
C1094 H1082 0.950 . S
C1094 C1093 1.398 . S
C1094 C1095 1.391 . S
C1095 H1083 0.950 . S
C1095 C1091 1.393 . S
C1095 C1094 1.391 . S
H1096 C1104 0.950 . S
H1097 C1109 0.950 . S
H1098 C1106 0.950 . S
H1099 C1108 0.950 . S
H1100 C1110 0.950 . S
H1101 C1112 0.950 . S
H1102 C1114 0.950 . S
H1103 C1115 0.950 . S
C1104 H1096 0.950 . S
C1104 C1105 1.386 . S
C1104 C1106 1.391 . S
C1105 C1104 1.386 . S
C1105 C1109 1.393 . S
C1106 H1098 0.950 . S
C1106 C1104 1.391 . S
C1106 C1107 1.400 . S
C1107 C1106 1.400 . S
C1107 C1108 1.398 . S
C1107 C1113 1.491 1_545 S
C1108 H1099 0.950 . S
C1108 C1107 1.398 . S
C1108 C1109 1.391 . S
C1109 H1097 0.950 . S
C1109 C1105 1.393 . S
C1109 C1108 1.391 . S
C1110 H1100 0.950 . S
C1110 C1111 1.386 . S
C1110 C1112 1.391 . S
C1111 C1110 1.386 . S
C1111 C1115 1.393 . S
C1112 H1101 0.950 . S
C1112 C1110 1.391 . S
C1112 C1113 1.400 . S
C1113 C1107 1.491 1_565 S
C1113 C1112 1.400 . S
C1113 C1114 1.398 . S
C1114 H1102 0.950 . S
C1114 C1113 1.398 . S
C1114 C1115 1.391 . S
C1115 H1103 0.950 . S
C1115 C1111 1.393 . S
C1115 C1114 1.391 . S
H1116 C1124 0.950 . S
H1117 C1129 0.950 . S
H1118 C1126 0.950 . S
H1119 C1128 0.950 . S
H1120 C1130 0.950 . S
H1121 C1132 0.950 . S
H1122 C1134 0.950 . S
H1123 C1135 0.950 . S
C1124 H1116 0.950 . S
C1124 C1125 1.386 . S
C1124 C1126 1.391 . S
C1125 C1124 1.386 . S
C1125 C1129 1.393 . S
C1126 H1118 0.950 . S
C1126 C1124 1.391 . S
C1126 C1127 1.400 . S
C1127 C1126 1.400 . S
C1127 C1128 1.398 . S
C1127 C1133 1.491 . S
C1128 H1119 0.950 . S
C1128 C1127 1.398 . S
C1128 C1129 1.391 . S
C1129 H1117 0.950 . S
C1129 C1125 1.393 . S
C1129 C1128 1.391 . S
C1130 H1120 0.950 . S
C1130 C1131 1.386 . S
C1130 C1132 1.391 . S
C1131 C1130 1.386 . S
C1131 C1135 1.393 . S
C1132 H1121 0.950 . S
C1132 C1130 1.391 . S
C1132 C1133 1.400 . S
C1133 C1127 1.491 . S
C1133 C1132 1.400 . S
C1133 C1134 1.398 . S
C1134 H1122 0.950 . S
C1134 C1133 1.398 . S
C1134 C1135 1.391 . S
C1135 H1123 0.950 . S
C1135 C1131 1.393 . S
C1135 C1134 1.391 . S
H1136 C1144 0.950 . S
H1137 C1149 0.950 . S
H1138 C1146 0.940 1_655 S
H1139 C1148 0.950 . S
H1140 C1150 0.950 . S
H1141 C1152 0.940 1_455 S
H1142 C1154 0.950 . S
H1143 C1155 0.950 . S
C1144 H1136 0.950 . S
C1144 C1145 1.386 . S
C1144 C1146 1.391 . S
C1145 C1144 1.386 . S
C1145 C1149 1.393 . S
C1146 H1138 0.940 1_455 S
C1146 C1144 1.391 . S
C1146 C1147 1.400 . S
C1147 C1146 1.400 . S
C1147 C1148 1.398 . S
C1147 C1153 1.491 1_465 S
C1148 H1139 0.950 . S
C1148 C1147 1.398 . S
C1148 C1149 1.391 . S
C1149 H1137 0.950 . S
C1149 C1145 1.393 . S
C1149 C1148 1.391 . S
C1150 H1140 0.950 . S
C1150 C1151 1.386 . S
C1150 C1152 1.391 . S
C1151 C1150 1.386 . S
C1151 C1155 1.393 . S
C1152 H1141 0.940 1_655 S
C1152 C1150 1.391 . S
C1152 C1153 1.400 . S
C1153 C1147 1.491 1_645 S
C1153 C1152 1.400 . S
C1153 C1154 1.398 . S
C1154 H1142 0.950 . S
C1154 C1153 1.398 . S
C1154 C1155 1.391 . S
C1155 H1143 0.950 . S
C1155 C1151 1.393 . S
C1155 C1154 1.391 . S
H1156 C1164 0.950 . S
H1157 C1169 0.950 . S
H1158 C1166 0.950 . S
H1159 C1168 0.950 . S
H1160 C1170 0.950 . S
H1161 C1172 0.950 . S
H1162 C1174 0.950 . S
H1163 C1175 0.950 . S
C1164 H1156 0.950 . S
C1164 C1165 1.386 . S
C1164 C1166 1.391 . S
C1165 C1164 1.386 . S
C1165 C1169 1.393 . S
C1166 H1158 0.950 . S
C1166 C1164 1.391 . S
C1166 C1167 1.400 . S
C1167 C1166 1.400 . S
C1167 C1168 1.398 . S
C1167 C1173 1.491 . S
C1168 H1159 0.950 . S
C1168 C1167 1.398 . S
C1168 C1169 1.391 . S
C1169 H1157 0.950 . S
C1169 C1165 1.393 . S
C1169 C1168 1.391 . S
C1170 H1160 0.950 . S
C1170 C1171 1.386 . S
C1170 C1172 1.391 . S
C1171 C1170 1.386 . S
C1171 C1175 1.393 . S
C1172 H1161 0.950 . S
C1172 C1170 1.391 . S
C1172 C1173 1.400 . S
C1173 C1167 1.491 . S
C1173 C1172 1.400 . S
C1173 C1174 1.398 . S
C1174 H1162 0.950 . S
C1174 C1173 1.398 . S
C1174 C1175 1.391 . S
C1175 H1163 0.950 . S
C1175 C1171 1.393 . S
C1175 C1174 1.391 . S
H1176 C1184 0.950 . S
H1177 C1189 0.950 . S
H1178 C1186 0.950 . S
H1179 C1188 0.950 . S
H1180 C1190 0.950 . S
H1181 C1192 0.950 . S
H1182 C1194 0.950 . S
H1183 C1195 0.950 . S
C1184 H1176 0.950 . S
C1184 C1185 1.386 1_556 S
C1184 C1186 1.391 . S
C1185 C1184 1.386 1_554 S
C1185 C1189 1.393 . S
C1186 H1178 0.950 . S
C1186 C1184 1.391 . S
C1186 C1187 1.400 1_556 S
C1187 C1186 1.400 1_554 S
C1187 C1188 1.398 . S
C1187 C1193 1.491 1_564 S
C1188 H1179 0.950 . S
C1188 C1187 1.398 . S
C1188 C1189 1.391 . S
C1189 H1177 0.950 . S
C1189 C1185 1.393 . S
C1189 C1188 1.391 . S
C1190 H1180 0.950 . S
C1190 C1191 1.386 1_554 S
C1190 C1192 1.391 . S
C1191 C1190 1.386 1_556 S
C1191 C1195 1.393 . S
C1192 H1181 0.950 . S
C1192 C1190 1.391 . S
C1192 C1193 1.400 1_554 S
C1193 C1187 1.491 1_546 S
C1193 C1192 1.400 1_556 S
C1193 C1194 1.398 . S
C1194 H1182 0.950 . S
C1194 C1193 1.398 . S
C1194 C1195 1.391 . S
C1195 H1183 0.950 . S
C1195 C1191 1.393 . S
C1195 C1194 1.391 . S
H1196 C1204 0.950 . S
H1197 C1209 0.950 . S
H1198 C1206 0.950 . S
H1199 C1208 0.950 . S
H1200 C1210 0.950 . S
H1201 C1212 0.950 . S
H1202 C1214 0.950 . S
H1203 C1215 0.950 . S
C1204 H1196 0.950 . S
C1204 C1205 1.386 . S
C1204 C1206 1.391 . S
C1205 C1204 1.386 . S
C1205 C1209 1.393 . S
C1206 H1198 0.950 . S
C1206 C1204 1.391 . S
C1206 C1207 1.400 . S
C1207 C1206 1.400 . S
C1207 C1208 1.398 . S
C1207 C1213 1.491 . S
C1208 H1199 0.950 . S
C1208 C1207 1.398 . S
C1208 C1209 1.391 . S
C1209 H1197 0.950 . S
C1209 C1205 1.393 . S
C1209 C1208 1.391 . S
C1210 H1200 0.950 . S
C1210 C1211 1.386 . S
C1210 C1212 1.391 . S
C1211 C1210 1.386 . S
C1211 C1215 1.393 . S
C1212 H1201 0.950 . S
C1212 C1210 1.391 . S
C1212 C1213 1.400 . S
C1213 C1207 1.491 . S
C1213 C1212 1.400 . S
C1213 C1214 1.398 . S
C1214 H1202 0.950 . S
C1214 C1213 1.398 . S
C1214 C1215 1.391 . S
C1215 H1203 0.950 . S
C1215 C1211 1.393 . S
C1215 C1214 1.391 . S
H1216 C1224 0.950 . S
H1217 C1229 0.950 . S
H1218 C1226 0.950 . S
H1219 C1228 0.950 . S
H1220 C1230 0.950 . S
H1221 C1232 0.950 . S
H1222 C1234 0.950 . S
H1223 C1235 0.950 . S
C1224 H1216 0.950 . S
C1224 C1225 1.386 . S
C1224 C1226 1.391 . S
C1225 C1224 1.386 . S
C1225 C1229 1.393 . S
C1226 H1218 0.950 . S
C1226 C1224 1.391 . S
C1226 C1227 1.400 . S
C1227 C1226 1.400 . S
C1227 C1228 1.398 . S
C1227 C1233 1.491 . S
C1228 H1219 0.950 . S
C1228 C1227 1.398 . S
C1228 C1229 1.391 . S
C1229 H1217 0.950 . S
C1229 C1225 1.393 . S
C1229 C1228 1.391 . S
C1230 H1220 0.950 . S
C1230 C1231 1.386 . S
C1230 C1232 1.391 . S
C1231 C1230 1.386 . S
C1231 C1235 1.393 . S
C1232 H1221 0.950 . S
C1232 C1230 1.391 . S
C1232 C1233 1.400 . S
C1233 C1227 1.491 . S
C1233 C1232 1.400 . S
C1233 C1234 1.398 . S
C1234 H1222 0.950 . S
C1234 C1233 1.398 . S
C1234 C1235 1.391 . S
C1235 H1223 0.950 . S
C1235 C1231 1.393 . S
C1235 C1234 1.391 . S
H1236 C1244 0.950 . S
H1237 C1249 0.950 . S
H1238 C1246 0.950 . S
H1239 C1248 0.950 . S
H1240 C1250 0.950 . S
H1241 C1252 0.950 . S
H1242 C1254 0.950 . S
H1243 C1255 0.950 . S
C1244 H1236 0.950 . S
C1244 C1245 1.386 . S
C1244 C1246 1.391 . S
C1245 C1244 1.386 . S
C1245 C1249 1.393 . S
C1246 H1238 0.950 . S
C1246 C1244 1.391 . S
C1246 C1247 1.400 . S
C1247 C1246 1.400 . S
C1247 C1248 1.398 . S
C1247 C1253 1.491 . S
C1248 H1239 0.950 . S
C1248 C1247 1.398 . S
C1248 C1249 1.391 . S
C1249 H1237 0.950 . S
C1249 C1245 1.393 . S
C1249 C1248 1.391 . S
C1250 H1240 0.950 . S
C1250 C1251 1.386 . S
C1250 C1252 1.391 . S
C1251 C1250 1.386 . S
C1251 C1255 1.393 . S
C1252 H1241 0.950 . S
C1252 C1250 1.391 . S
C1252 C1253 1.400 . S
C1253 C1247 1.491 . S
C1253 C1252 1.400 . S
C1253 C1254 1.398 . S
C1254 H1242 0.950 . S
C1254 C1253 1.398 . S
C1254 C1255 1.391 . S
C1255 H1243 0.950 . S
C1255 C1251 1.393 . S
C1255 C1254 1.391 . S
H1256 C1264 0.950 . S
H1257 C1269 0.950 . S
H1258 C1266 0.950 . S
H1259 C1268 0.950 . S
H1260 C1270 0.950 . S
H1261 C1272 0.950 . S
H1262 C1274 0.950 . S
H1263 C1275 0.950 . S
C1264 H1256 0.950 . S
C1264 C1265 1.386 . S
C1264 C1266 1.391 . S
C1265 C1264 1.386 . S
C1265 C1269 1.393 . S
C1266 H1258 0.950 . S
C1266 C1264 1.391 . S
C1266 C1267 1.400 . S
C1267 C1266 1.400 . S
C1267 C1268 1.398 . S
C1267 C1273 1.491 . S
C1268 H1259 0.950 . S
C1268 C1267 1.398 . S
C1268 C1269 1.391 . S
C1269 H1257 0.950 . S
C1269 C1265 1.393 . S
C1269 C1268 1.391 . S
C1270 H1260 0.950 . S
C1270 C1271 1.386 . S
C1270 C1272 1.391 . S
C1271 C1270 1.386 . S
C1271 C1275 1.393 . S
C1272 H1261 0.950 . S
C1272 C1270 1.391 . S
C1272 C1273 1.400 . S
C1273 C1267 1.491 . S
C1273 C1272 1.400 . S
C1273 C1274 1.398 . S
C1274 H1262 0.950 . S
C1274 C1273 1.398 . S
C1274 C1275 1.391 . S
C1275 H1263 0.950 . S
C1275 C1271 1.393 . S
C1275 C1274 1.391 . S
H1276 C1284 0.950 . S
H1277 C1289 0.950 . S
H1278 C1286 0.950 . S
H1279 C1288 0.950 . S
H1280 C1290 0.950 . S
H1281 C1292 0.950 . S
H1282 C1294 0.950 . S
H1283 C1295 0.950 . S
C1284 H1276 0.950 . S
C1284 C1285 1.386 . S
C1284 C1286 1.391 . S
C1285 C1284 1.386 . S
C1285 C1289 1.393 . S
C1286 H1278 0.950 . S
C1286 C1284 1.391 . S
C1286 C1287 1.400 . S
C1287 C1286 1.400 . S
C1287 C1288 1.398 . S
C1287 C1293 1.491 . S
C1288 H1279 0.950 . S
C1288 C1287 1.398 . S
C1288 C1289 1.391 . S
C1289 H1277 0.950 . S
C1289 C1285 1.393 . S
C1289 C1288 1.391 . S
C1290 H1280 0.950 . S
C1290 C1291 1.386 . S
C1290 C1292 1.391 . S
C1291 C1290 1.386 . S
C1291 C1295 1.393 . S
C1292 H1281 0.950 . S
C1292 C1290 1.391 . S
C1292 C1293 1.400 . S
C1293 C1287 1.491 . S
C1293 C1292 1.400 . S
C1293 C1294 1.398 . S
C1294 H1282 0.950 . S
C1294 C1293 1.398 . S
C1294 C1295 1.391 . S
C1295 H1283 0.950 . S
C1295 C1291 1.393 . S
C1295 C1294 1.391 . S
H1296 C1304 0.950 . S
H1297 C1309 0.950 . S
H1298 C1306 0.950 . S
H1299 C1308 0.950 . S
H1300 C1310 0.950 . S
H1301 C1312 0.950 . S
H1302 C1314 0.950 . S
H1303 C1315 0.950 . S
C1304 H1296 0.950 . S
C1304 C1305 1.386 . S
C1304 C1306 1.391 . S
C1305 C1304 1.386 . S
C1305 C1309 1.393 . S
C1306 H1298 0.950 . S
C1306 C1304 1.391 . S
C1306 C1307 1.400 . S
C1307 C1306 1.400 . S
C1307 C1308 1.398 . S
C1307 C1313 1.491 . S
C1308 H1299 0.950 . S
C1308 C1307 1.398 . S
C1308 C1309 1.391 . S
C1309 H1297 0.950 . S
C1309 C1305 1.393 . S
C1309 C1308 1.391 . S
C1310 H1300 0.950 . S
C1310 C1311 1.386 . S
C1310 C1312 1.391 . S
C1311 C1310 1.386 . S
C1311 C1315 1.393 . S
C1312 H1301 0.950 . S
C1312 C1310 1.391 . S
C1312 C1313 1.400 . S
C1313 C1307 1.491 . S
C1313 C1312 1.400 . S
C1313 C1314 1.398 . S
C1314 H1302 0.950 . S
C1314 C1313 1.398 . S
C1314 C1315 1.391 . S
C1315 H1303 0.950 . S
C1315 C1311 1.393 . S
C1315 C1314 1.391 . S
H1316 C1324 0.950 . S
H1317 C1329 0.950 . S
H1318 C1326 0.950 . S
H1319 C1328 0.950 . S
H1320 C1330 0.950 . S
H1321 C1332 0.950 . S
H1322 C1334 0.950 . S
H1323 C1335 0.950 . S
C1324 H1316 0.950 . S
C1324 C1325 1.386 . S
C1324 C1326 1.391 . S
C1325 C1324 1.386 . S
C1325 C1329 1.393 1_554 S
C1326 H1318 0.950 . S
C1326 C1324 1.391 . S
C1326 C1327 1.400 . S
C1327 C1326 1.400 . S
C1327 C1328 1.398 1_554 S
C1327 C1333 1.491 1_654 S
C1328 H1319 0.950 . S
C1328 C1327 1.398 1_556 S
C1328 C1329 1.391 . S
C1329 H1317 0.950 . S
C1329 C1325 1.393 1_556 S
C1329 C1328 1.391 . S
C1330 H1320 0.950 . S
C1330 C1331 1.386 . S
C1330 C1332 1.391 . S
C1331 C1330 1.386 . S
C1331 C1335 1.393 1_556 S
C1332 H1321 0.950 . S
C1332 C1330 1.391 . S
C1332 C1333 1.400 . S
C1333 C1327 1.491 1_456 S
C1333 C1332 1.400 . S
C1333 C1334 1.398 1_556 S
C1334 H1322 0.950 . S
C1334 C1333 1.398 1_554 S
C1334 C1335 1.391 . S
C1335 H1323 0.950 . S
C1335 C1331 1.393 1_554 S
C1335 C1334 1.391 . S
H1336 C1344 0.950 . S
H1337 C1349 0.950 . S
H1338 C1346 0.950 . S
H1339 C1348 0.950 . S
H1340 C1350 0.950 . S
H1341 C1352 0.950 . S
H1342 C1354 0.950 . S
H1343 C1355 0.950 . S
C1344 H1336 0.950 . S
C1344 C1345 1.386 1_554 S
C1344 C1346 1.391 . S
C1345 C1344 1.386 1_556 S
C1345 C1349 1.393 . S
C1346 H1338 0.950 . S
C1346 C1344 1.391 . S
C1346 C1347 1.400 1_554 S
C1347 C1346 1.400 1_556 S
C1347 C1348 1.398 . S
C1347 C1353 1.491 1_556 S
C1348 H1339 0.950 . S
C1348 C1347 1.398 . S
C1348 C1349 1.391 . S
C1349 H1337 0.950 . S
C1349 C1345 1.393 . S
C1349 C1348 1.391 . S
C1350 H1340 0.950 . S
C1350 C1351 1.386 1_556 S
C1350 C1352 1.391 . S
C1351 C1350 1.386 1_554 S
C1351 C1355 1.393 . S
C1352 H1341 0.950 . S
C1352 C1350 1.391 . S
C1352 C1353 1.400 1_556 S
C1353 C1347 1.491 1_554 S
C1353 C1352 1.400 1_554 S
C1353 C1354 1.398 . S
C1354 H1342 0.950 . S
C1354 C1353 1.398 . S
C1354 C1355 1.391 . S
C1355 H1343 0.950 . S
C1355 C1351 1.393 . S
C1355 C1354 1.391 . S
H1356 C1364 0.950 . S
H1357 C1369 0.950 . S
H1358 C1366 0.950 . S
H1359 C1368 0.950 . S
H1360 C1370 0.950 . S
H1361 C1372 0.950 . S
H1362 C1374 0.950 . S
H1363 C1375 0.950 . S
C1364 H1356 0.950 . S
C1364 C1365 1.386 . S
C1364 C1366 1.391 . S
C1365 C1364 1.386 . S
C1365 C1369 1.393 1_455 S
C1366 H1358 0.950 . S
C1366 C1364 1.391 . S
C1366 C1367 1.400 . S
C1367 C1366 1.400 . S
C1367 C1368 1.398 1_455 S
C1367 C1373 1.491 1_455 S
C1368 H1359 0.950 . S
C1368 C1367 1.398 1_655 S
C1368 C1369 1.391 . S
C1369 H1357 0.950 . S
C1369 C1365 1.393 1_655 S
C1369 C1368 1.391 . S
C1370 H1360 0.950 . S
C1370 C1371 1.386 . S
C1370 C1372 1.391 . S
C1371 C1370 1.386 . S
C1371 C1375 1.393 1_655 S
C1372 H1361 0.950 . S
C1372 C1370 1.391 . S
C1372 C1373 1.400 . S
C1373 C1367 1.491 1_655 S
C1373 C1372 1.400 . S
C1373 C1374 1.398 1_655 S
C1374 H1362 0.950 . S
C1374 C1373 1.398 1_455 S
C1374 C1375 1.391 . S
C1375 H1363 0.950 . S
C1375 C1371 1.393 1_455 S
C1375 C1374 1.391 . S
H1376 C1384 0.950 . S
H1377 C1389 0.950 . S
H1378 C1386 0.950 . S
H1379 C1388 0.950 . S
H1380 C1390 0.950 . S
H1381 C1392 0.950 . S
H1382 C1394 0.950 . S
H1383 C1395 0.950 . S
C1384 H1376 0.950 . S
C1384 C1385 1.386 . S
C1384 C1386 1.391 . S
C1385 C1384 1.386 . S
C1385 C1389 1.393 . S
C1386 H1378 0.950 . S
C1386 C1384 1.391 . S
C1386 C1387 1.400 . S
C1387 C1386 1.400 . S
C1387 C1388 1.398 . S
C1387 C1393 1.491 . S
C1388 H1379 0.950 . S
C1388 C1387 1.398 . S
C1388 C1389 1.391 . S
C1389 H1377 0.950 . S
C1389 C1385 1.393 . S
C1389 C1388 1.391 . S
C1390 H1380 0.950 . S
C1390 C1391 1.386 . S
C1390 C1392 1.391 . S
C1391 C1390 1.386 . S
C1391 C1395 1.393 . S
C1392 H1381 0.950 . S
C1392 C1390 1.391 . S
C1392 C1393 1.400 . S
C1393 C1387 1.491 . S
C1393 C1392 1.400 . S
C1393 C1394 1.398 . S
C1394 H1382 0.950 . S
C1394 C1393 1.398 . S
C1394 C1395 1.391 . S
C1395 H1383 0.950 . S
C1395 C1391 1.393 . S
C1395 C1394 1.391 . S
H1396 C1404 0.950 . S
H1397 C1409 0.950 . S
H1398 C1406 0.950 . S
H1399 C1408 0.950 . S
H1400 C1410 0.950 . S
H1401 C1412 0.950 . S
H1402 C1414 0.950 . S
H1403 C1415 0.950 . S
C1404 H1396 0.950 . S
C1404 C1405 1.386 . S
C1404 C1406 1.391 . S
C1405 C1404 1.386 . S
C1405 C1409 1.393 . S
C1406 H1398 0.950 . S
C1406 C1404 1.391 . S
C1406 C1407 1.400 . S
C1407 C1406 1.400 . S
C1407 C1408 1.398 . S
C1407 C1413 1.491 . S
C1408 H1399 0.950 . S
C1408 C1407 1.398 . S
C1408 C1409 1.391 . S
C1409 H1397 0.950 . S
C1409 C1405 1.393 . S
C1409 C1408 1.391 . S
C1410 H1400 0.950 . S
C1410 C1411 1.386 . S
C1410 C1412 1.391 . S
C1411 C1410 1.386 . S
C1411 C1415 1.393 . S
C1412 H1401 0.950 . S
C1412 C1410 1.391 . S
C1412 C1413 1.400 . S
C1413 C1407 1.491 . S
C1413 C1412 1.400 . S
C1413 C1414 1.398 . S
C1414 H1402 0.950 . S
C1414 C1413 1.398 . S
C1414 C1415 1.391 . S
C1415 H1403 0.950 . S
C1415 C1411 1.393 . S
C1415 C1414 1.391 . S
H1416 C1424 0.950 . S
H1417 C1429 0.950 . S
H1418 C1426 0.950 . S
H1419 C1428 0.950 . S
H1420 C1430 0.950 . S
H1421 C1432 0.950 . S
H1422 C1434 0.950 . S
H1423 C1435 0.950 . S
C1424 H1416 0.950 . S
C1424 C1425 1.386 . S
C1424 C1426 1.391 . S
C1425 C1424 1.386 . S
C1425 C1429 1.393 . S
C1426 H1418 0.950 . S
C1426 C1424 1.391 . S
C1426 C1427 1.400 . S
C1427 C1426 1.400 . S
C1427 C1428 1.398 . S
C1427 C1433 1.491 . S
C1428 H1419 0.950 . S
C1428 C1427 1.398 . S
C1428 C1429 1.391 . S
C1429 H1417 0.950 . S
C1429 C1425 1.393 . S
C1429 C1428 1.391 . S
C1430 H1420 0.950 . S
C1430 C1431 1.386 . S
C1430 C1432 1.391 . S
C1431 C1430 1.386 . S
C1431 C1435 1.393 . S
C1432 H1421 0.950 . S
C1432 C1430 1.391 . S
C1432 C1433 1.400 . S
C1433 C1427 1.491 . S
C1433 C1432 1.400 . S
C1433 C1434 1.398 . S
C1434 H1422 0.950 . S
C1434 C1433 1.398 . S
C1434 C1435 1.391 . S
C1435 H1423 0.950 . S
C1435 C1431 1.393 . S
C1435 C1434 1.391 . S
H1436 C1444 0.950 . S
H1437 C1449 0.950 . S
H1438 C1446 0.950 . S
H1439 C1448 0.950 . S
H1440 C1450 0.950 . S
H1441 C1452 0.950 . S
H1442 C1454 0.950 . S
H1443 C1455 0.950 . S
C1444 H1436 0.950 . S
C1444 C1445 1.386 . S
C1444 C1446 1.391 . S
C1445 C1444 1.386 . S
C1445 C1449 1.393 . S
C1446 H1438 0.950 . S
C1446 C1444 1.391 . S
C1446 C1447 1.400 . S
C1447 C1446 1.400 . S
C1447 C1448 1.398 . S
C1447 C1453 1.491 . S
C1448 H1439 0.950 . S
C1448 C1447 1.398 . S
C1448 C1449 1.391 . S
C1449 H1437 0.950 . S
C1449 C1445 1.393 . S
C1449 C1448 1.391 . S
C1450 H1440 0.950 . S
C1450 C1451 1.386 . S
C1450 C1452 1.391 . S
C1451 C1450 1.386 . S
C1451 C1455 1.393 . S
C1452 H1441 0.950 . S
C1452 C1450 1.391 . S
C1452 C1453 1.400 . S
C1453 C1447 1.491 . S
C1453 C1452 1.400 . S
C1453 C1454 1.398 . S
C1454 H1442 0.950 . S
C1454 C1453 1.398 . S
C1454 C1455 1.391 . S
C1455 H1443 0.950 . S
C1455 C1451 1.393 . S
C1455 C1454 1.391 . S
H1456 C1464 0.950 . S
H1457 C1469 0.950 . S
H1458 C1466 0.950 . S
H1459 C1468 0.950 . S
H1460 C1470 0.950 . S
H1461 C1472 0.950 . S
H1462 C1474 0.950 . S
H1463 C1475 0.950 . S
C1464 H1456 0.950 . S
C1464 C1465 1.386 . S
C1464 C1466 1.391 . S
C1465 C1464 1.386 . S
C1465 C1469 1.393 . S
C1466 H1458 0.950 . S
C1466 C1464 1.391 . S
C1466 C1467 1.400 . S
C1467 C1466 1.400 . S
C1467 C1468 1.398 . S
C1467 C1473 1.491 . S
C1468 H1459 0.950 . S
C1468 C1467 1.398 . S
C1468 C1469 1.391 . S
C1469 H1457 0.950 . S
C1469 C1465 1.393 . S
C1469 C1468 1.391 . S
C1470 H1460 0.950 . S
C1470 C1471 1.386 . S
C1470 C1472 1.391 . S
C1471 C1470 1.386 . S
C1471 C1475 1.393 . S
C1472 H1461 0.950 . S
C1472 C1470 1.391 . S
C1472 C1473 1.400 . S
C1473 C1467 1.491 . S
C1473 C1472 1.400 . S
C1473 C1474 1.398 . S
C1474 H1462 0.950 . S
C1474 C1473 1.398 . S
C1474 C1475 1.391 . S
C1475 H1463 0.950 . S
C1475 C1471 1.393 . S
C1475 C1474 1.391 . S
H1476 C1484 0.950 . S
H1477 C1489 0.950 . S
H1478 C1486 0.950 . S
H1479 C1488 0.950 . S
H1480 C1490 0.950 . S
H1481 C1492 0.950 . S
H1482 C1494 0.950 . S
H1483 C1495 0.950 . S
C1484 H1476 0.950 . S
C1484 C1485 1.386 . S
C1484 C1486 1.391 . S
C1485 C1484 1.386 . S
C1485 C1489 1.393 . S
C1486 H1478 0.950 . S
C1486 C1484 1.391 . S
C1486 C1487 1.400 . S
C1487 C1486 1.400 . S
C1487 C1488 1.398 . S
C1487 C1493 1.491 . S
C1488 H1479 0.950 . S
C1488 C1487 1.398 . S
C1488 C1489 1.391 . S
C1489 H1477 0.950 . S
C1489 C1485 1.393 . S
C1489 C1488 1.391 . S
C1490 H1480 0.950 . S
C1490 C1491 1.386 . S
C1490 C1492 1.391 . S
C1491 C1490 1.386 . S
C1491 C1495 1.393 . S
C1492 H1481 0.950 . S
C1492 C1490 1.391 . S
C1492 C1493 1.400 . S
C1493 C1487 1.491 . S
C1493 C1492 1.400 . S
C1493 C1494 1.398 . S
C1494 H1482 0.950 . S
C1494 C1493 1.398 . S
C1494 C1495 1.391 . S
C1495 H1483 0.950 . S
C1495 C1491 1.393 . S
C1495 C1494 1.391 . S
H1496 C1504 0.950 . S
H1497 C1509 0.950 . S
H1498 C1506 0.950 . S
H1499 C1508 0.950 . S
H1500 C1510 0.950 . S
H1501 C1512 0.950 . S
H1502 C1514 0.950 . S
H1503 C1515 0.950 . S
C1504 H1496 0.950 . S
C1504 C1505 1.386 . S
C1504 C1506 1.391 . S
C1505 C1504 1.386 . S
C1505 C1509 1.393 . S
C1506 H1498 0.950 . S
C1506 C1504 1.391 . S
C1506 C1507 1.400 . S
C1507 C1506 1.400 . S
C1507 C1508 1.398 . S
C1507 C1513 1.491 . S
C1508 H1499 0.950 . S
C1508 C1507 1.398 . S
C1508 C1509 1.391 . S
C1509 H1497 0.950 . S
C1509 C1505 1.393 . S
C1509 C1508 1.391 . S
C1510 H1500 0.950 . S
C1510 C1511 1.386 . S
C1510 C1512 1.391 . S
C1511 C1510 1.386 . S
C1511 C1515 1.393 . S
C1512 H1501 0.950 . S
C1512 C1510 1.391 . S
C1512 C1513 1.400 . S
C1513 C1507 1.491 . S
C1513 C1512 1.400 . S
C1513 C1514 1.398 . S
C1514 H1502 0.950 . S
C1514 C1513 1.398 . S
C1514 C1515 1.391 . S
C1515 H1503 0.950 . S
C1515 C1511 1.393 . S
C1515 C1514 1.391 . S
H1516 C1524 0.950 . S
H1517 C1529 0.950 . S
H1518 C1526 0.950 . S
H1519 C1528 0.950 . S
H1520 C1530 0.950 . S
H1521 C1532 0.950 . S
H1522 C1534 0.950 . S
H1523 C1535 0.950 . S
C1524 H1516 0.950 . S
C1524 C1525 1.386 . S
C1524 C1526 1.391 . S
C1525 C1524 1.386 . S
C1525 C1529 1.393 . S
C1526 H1518 0.950 . S
C1526 C1524 1.391 . S
C1526 C1527 1.400 . S
C1527 C1526 1.400 . S
C1527 C1528 1.398 . S
C1527 C1533 1.491 . S
C1528 H1519 0.950 . S
C1528 C1527 1.398 . S
C1528 C1529 1.391 . S
C1529 H1517 0.950 . S
C1529 C1525 1.393 . S
C1529 C1528 1.391 . S
C1530 H1520 0.950 . S
C1530 C1531 1.386 . S
C1530 C1532 1.391 . S
C1531 C1530 1.386 . S
C1531 C1535 1.393 . S
C1532 H1521 0.950 . S
C1532 C1530 1.391 . S
C1532 C1533 1.400 . S
C1533 C1527 1.491 . S
C1533 C1532 1.400 . S
C1533 C1534 1.398 . S
C1534 H1522 0.950 . S
C1534 C1533 1.398 . S
C1534 C1535 1.391 . S
C1535 H1523 0.950 . S
C1535 C1531 1.393 . S
C1535 C1534 1.391 . S
H1536 C1544 0.950 . S
H1537 C1549 0.950 . S
H1538 C1546 0.950 . S
H1539 C1548 0.950 . S
H1540 C1550 0.950 . S
H1541 C1552 0.950 . S
H1542 C1554 0.950 . S
H1543 C1555 0.950 . S
C1544 H1536 0.950 . S
C1544 C1545 1.386 . S
C1544 C1546 1.391 . S
C1545 C1544 1.386 . S
C1545 C1549 1.393 . S
C1546 H1538 0.950 . S
C1546 C1544 1.391 . S
C1546 C1547 1.400 . S
C1547 C1546 1.400 . S
C1547 C1548 1.398 . S
C1547 C1553 1.491 . S
C1548 H1539 0.950 . S
C1548 C1547 1.398 . S
C1548 C1549 1.391 . S
C1549 H1537 0.950 . S
C1549 C1545 1.393 . S
C1549 C1548 1.391 . S
C1550 H1540 0.950 . S
C1550 C1551 1.386 . S
C1550 C1552 1.391 . S
C1551 C1550 1.386 . S
C1551 C1555 1.393 . S
C1552 H1541 0.950 . S
C1552 C1550 1.391 . S
C1552 C1553 1.400 . S
C1553 C1547 1.491 . S
C1553 C1552 1.400 . S
C1553 C1554 1.398 . S
C1554 H1542 0.950 . S
C1554 C1553 1.398 . S
C1554 C1555 1.391 . S
C1555 H1543 0.950 . S
C1555 C1551 1.393 . S
C1555 C1554 1.391 . S
H1556 C1564 0.950 . S
H1557 C1569 0.950 . S
H1558 C1566 0.950 . S
H1559 C1568 0.950 . S
H1560 C1570 0.950 . S
H1561 C1572 0.950 . S
H1562 C1574 0.950 . S
H1563 C1575 0.950 . S
C1564 H1556 0.950 . S
C1564 C1565 1.386 . S
C1564 C1566 1.391 . S
C1565 C1564 1.386 . S
C1565 C1569 1.393 . S
C1566 H1558 0.950 . S
C1566 C1564 1.391 . S
C1566 C1567 1.400 . S
C1567 C1566 1.400 . S
C1567 C1568 1.398 . S
C1567 C1573 1.491 . S
C1568 H1559 0.950 . S
C1568 C1567 1.398 . S
C1568 C1569 1.391 . S
C1569 H1557 0.950 . S
C1569 C1565 1.393 . S
C1569 C1568 1.391 . S
C1570 H1560 0.950 . S
C1570 C1571 1.386 . S
C1570 C1572 1.391 . S
C1571 C1570 1.386 . S
C1571 C1575 1.393 . S
C1572 H1561 0.950 . S
C1572 C1570 1.391 . S
C1572 C1573 1.400 . S
C1573 C1567 1.491 . S
C1573 C1572 1.400 . S
C1573 C1574 1.398 . S
C1574 H1562 0.950 . S
C1574 C1573 1.398 . S
C1574 C1575 1.391 . S
C1575 H1563 0.950 . S
C1575 C1571 1.393 . S
C1575 C1574 1.391 . S
H1576 C1584 0.950 . S
H1577 C1589 0.950 . S
H1578 C1586 0.950 . S
H1579 C1588 0.950 . S
H1580 C1590 0.950 . S
H1581 C1592 0.950 . S
H1582 C1594 0.950 . S
H1583 C1595 0.950 . S
C1584 H1576 0.950 . S
C1584 C1585 1.386 . S
C1584 C1586 1.391 . S
C1585 C1584 1.386 . S
C1585 C1589 1.393 . S
C1586 H1578 0.950 . S
C1586 C1584 1.391 . S
C1586 C1587 1.400 . S
C1587 C1586 1.400 . S
C1587 C1588 1.398 . S
C1587 C1593 1.491 . S
C1588 H1579 0.950 . S
C1588 C1587 1.398 . S
C1588 C1589 1.391 . S
C1589 H1577 0.950 . S
C1589 C1585 1.393 . S
C1589 C1588 1.391 . S
C1590 H1580 0.950 . S
C1590 C1591 1.386 . S
C1590 C1592 1.391 . S
C1591 C1590 1.386 . S
C1591 C1595 1.393 . S
C1592 H1581 0.950 . S
C1592 C1590 1.391 . S
C1592 C1593 1.400 . S
C1593 C1587 1.491 . S
C1593 C1592 1.400 . S
C1593 C1594 1.398 . S
C1594 H1582 0.950 . S
C1594 C1593 1.398 . S
C1594 C1595 1.391 . S
C1595 H1583 0.950 . S
C1595 C1591 1.393 . S
C1595 C1594 1.391 . S
H1596 C1604 0.950 . S
H1597 C1609 0.950 . S
H1598 C1606 0.950 . S
H1599 C1608 0.950 . S
H1600 C1610 0.950 . S
H1601 C1612 0.950 . S
H1602 C1614 0.950 . S
H1603 C1615 0.950 . S
C1604 H1596 0.950 . S
C1604 C1605 1.386 . S
C1604 C1606 1.391 . S
C1605 C1604 1.386 . S
C1605 C1609 1.393 . S
C1606 H1598 0.950 . S
C1606 C1604 1.391 . S
C1606 C1607 1.400 . S
C1607 C1606 1.400 . S
C1607 C1608 1.398 . S
C1607 C1613 1.491 . S
C1608 H1599 0.950 . S
C1608 C1607 1.398 . S
C1608 C1609 1.391 . S
C1609 H1597 0.950 . S
C1609 C1605 1.393 . S
C1609 C1608 1.391 . S
C1610 H1600 0.950 . S
C1610 C1611 1.386 . S
C1610 C1612 1.391 . S
C1611 C1610 1.386 . S
C1611 C1615 1.393 . S
C1612 H1601 0.950 . S
C1612 C1610 1.391 . S
C1612 C1613 1.400 . S
C1613 C1607 1.491 . S
C1613 C1612 1.400 . S
C1613 C1614 1.398 . S
C1614 H1602 0.950 . S
C1614 C1613 1.398 . S
C1614 C1615 1.391 . S
C1615 H1603 0.950 . S
C1615 C1611 1.393 . S
C1615 C1614 1.391 . S
H1616 C1624 0.950 . S
H1617 C1629 0.950 . S
H1618 C1626 0.950 . S
H1619 C1628 0.950 . S
H1620 C1630 0.950 . S
H1621 C1632 0.950 . S
H1622 C1634 0.950 . S
H1623 C1635 0.950 . S
C1624 H1616 0.950 . S
C1624 C1625 1.386 . S
C1624 C1626 1.391 . S
C1625 C1624 1.386 . S
C1625 C1629 1.393 . S
C1626 H1618 0.950 . S
C1626 C1624 1.391 . S
C1626 C1627 1.400 . S
C1627 C1626 1.400 . S
C1627 C1628 1.398 . S
C1627 C1633 1.491 . S
C1628 H1619 0.950 . S
C1628 C1627 1.398 . S
C1628 C1629 1.391 . S
C1629 H1617 0.950 . S
C1629 C1625 1.393 . S
C1629 C1628 1.391 . S
C1630 H1620 0.950 . S
C1630 C1631 1.386 . S
C1630 C1632 1.391 . S
C1631 C1630 1.386 . S
C1631 C1635 1.393 . S
C1632 H1621 0.950 . S
C1632 C1630 1.391 . S
C1632 C1633 1.400 . S
C1633 C1627 1.491 . S
C1633 C1632 1.400 . S
C1633 C1634 1.398 . S
C1634 H1622 0.950 . S
C1634 C1633 1.398 . S
C1634 C1635 1.391 . S
C1635 H1623 0.950 . S
C1635 C1631 1.393 . S
C1635 C1634 1.391 . S
H1636 C1644 0.950 . S
H1637 C1649 0.950 . S
H1638 C1646 0.950 . S
H1639 C1648 0.950 . S
H1640 C1650 0.950 . S
H1641 C1652 0.950 . S
H1642 C1654 0.950 . S
H1643 C1655 0.950 . S
C1644 H1636 0.950 . S
C1644 C1645 1.386 . S
C1644 C1646 1.391 . S
C1645 C1644 1.386 . S
C1645 C1649 1.393 . S
C1646 H1638 0.950 . S
C1646 C1644 1.391 . S
C1646 C1647 1.400 . S
C1647 C1646 1.400 . S
C1647 C1648 1.398 . S
C1647 C1653 1.491 . S
C1648 H1639 0.950 . S
C1648 C1647 1.398 . S
C1648 C1649 1.391 . S
C1649 H1637 0.950 . S
C1649 C1645 1.393 . S
C1649 C1648 1.391 . S
C1650 H1640 0.950 . S
C1650 C1651 1.386 . S
C1650 C1652 1.391 . S
C1651 C1650 1.386 . S
C1651 C1655 1.393 . S
C1652 H1641 0.950 . S
C1652 C1650 1.391 . S
C1652 C1653 1.400 . S
C1653 C1647 1.491 . S
C1653 C1652 1.400 . S
C1653 C1654 1.398 . S
C1654 H1642 0.950 . S
C1654 C1653 1.398 . S
C1654 C1655 1.391 . S
C1655 H1643 0.950 . S
C1655 C1651 1.393 . S
C1655 C1654 1.391 . S
H1656 C1664 0.950 . S
H1657 C1669 0.950 . S
H1658 C1666 0.950 . S
H1659 C1668 0.950 . S
H1660 C1670 0.950 . S
H1661 C1672 0.950 . S
H1662 C1674 0.950 . S
H1663 C1675 0.950 . S
C1664 H1656 0.950 . S
C1664 C1665 1.386 . S
C1664 C1666 1.391 . S
C1665 C1664 1.386 . S
C1665 C1669 1.393 . S
C1666 H1658 0.950 . S
C1666 C1664 1.391 . S
C1666 C1667 1.400 . S
C1667 C1666 1.400 . S
C1667 C1668 1.398 . S
C1667 C1673 1.491 . S
C1668 H1659 0.950 . S
C1668 C1667 1.398 . S
C1668 C1669 1.391 . S
C1669 H1657 0.950 . S
C1669 C1665 1.393 . S
C1669 C1668 1.391 . S
C1670 H1660 0.950 . S
C1670 C1671 1.386 . S
C1670 C1672 1.391 . S
C1671 C1670 1.386 . S
C1671 C1675 1.393 . S
C1672 H1661 0.950 . S
C1672 C1670 1.391 . S
C1672 C1673 1.400 . S
C1673 C1667 1.491 . S
C1673 C1672 1.400 . S
C1673 C1674 1.398 . S
C1674 H1662 0.950 . S
C1674 C1673 1.398 . S
C1674 C1675 1.391 . S
C1675 H1663 0.950 . S
C1675 C1671 1.393 . S
C1675 C1674 1.391 . S
H1676 C1684 0.950 . S
H1677 C1689 0.950 . S
H1678 C1686 0.950 . S
H1679 C1688 0.950 . S
H1680 C1690 0.950 . S
H1681 C1692 0.950 . S
H1682 C1694 0.950 . S
H1683 C1695 0.950 . S
C1684 H1676 0.950 . S
C1684 C1685 1.386 . S
C1684 C1686 1.391 . S
C1685 C1684 1.386 . S
C1685 C1689 1.393 . S
C1686 H1678 0.950 . S
C1686 C1684 1.391 . S
C1686 C1687 1.400 . S
C1687 C1686 1.400 . S
C1687 C1688 1.398 . S
C1687 C1693 1.491 . S
C1688 H1679 0.950 . S
C1688 C1687 1.398 . S
C1688 C1689 1.391 . S
C1689 H1677 0.950 . S
C1689 C1685 1.393 . S
C1689 C1688 1.391 . S
C1690 H1680 0.950 . S
C1690 C1691 1.386 . S
C1690 C1692 1.391 . S
C1691 C1690 1.386 . S
C1691 C1695 1.393 . S
C1692 H1681 0.950 . S
C1692 C1690 1.391 . S
C1692 C1693 1.400 . S
C1693 C1687 1.491 . S
C1693 C1692 1.400 . S
C1693 C1694 1.398 . S
C1694 H1682 0.950 . S
C1694 C1693 1.398 . S
C1694 C1695 1.391 . S
C1695 H1683 0.950 . S
C1695 C1691 1.393 . S
C1695 C1694 1.391 . S
C425 C160 1.270 . S
C431 C5 1.273 . S
C445 C387 1.271 . S
C451 C16 1.261 . S
C465 C192 1.255 . S
C471 C29 1.243 . S
C485 C413 1.268 . S
C491 C42 1.256 . S
C505 C114 1.256 . S
C511 C57 1.244 . S
C525 C68 1.265 . S
C531 C329 1.271 . S
C545 C81 1.246 . S
C551 C140 1.249 . S
C565 C361 1.251 . S
C571 C96 1.243 . S
C585 C56 1.274 . S
C591 C107 1.246 . S
C605 C277 1.268 . S
C611 C122 1.267 . S
C625 C88 1.264 . S
C631 C133 1.266 . S
C645 C303 1.251 . S
C651 C146 1.243 . S
C665 C161 1.248 . S
C671 C4 1.249 . S
C685 C172 1.246 . S
C691 C225 1.249 . S
C705 C36 1.256 . S
C711 C185 1.260 . S
C725 C198 1.267 . S
C731 C257 1.270 . S
C745 C368 1.254 . S
C751 C213 1.257 . S
C765 C179 1.261 . S
C771 C226 1.247 . S
C785 C400 1.270 . S
C791 C237 1.275 . S
C805 C250 1.243 . S
C811 C205 1.254 . S
C825 C265 1.257 . S
C831 C322 1.269 . S
C845 C278 1.265 . S
C851 C121 1.271 . S
C865 C342 1.255 . S
C871 C291 1.243 . S
C885 C153 1.252 . S
C891 C304 1.254 . S
C905 C264 1.262 . S
C911 C315 1.265 . S
C925 C330 1.267 . S
C931 C75 1.265 . S
C945 C343 1.260 . S
C951 C290 1.270 . S
C965 C354 1.245 . S
C971 C95 1.250 . S
C985 C212 1.253 . S
C991 C369 1.243 . S
C1005 C23 1.251 . S
C1011 C380 1.252 . S
C1025 C244 1.269 . S
C1031 C393 1.281 . S
C1045 C406 1.244 . S
C1051 C49 1.257 . S
C1065 C3 1.405 . S
C1071 C109 1.405 . S
C1085 C18 1.406 . S
C1091 C328 1.406 . S
C1105 C135 1.408 . S
C1111 C31 1.408 . S
C1125 C44 1.416 . S
C1131 C356 1.416 . S
C1145 C55 1.404 . S
C1151 C159 1.404 . S
C1165 C382 1.414 . S
C1171 C70 1.414 . S
C1185 C187 1.404 . S
C1191 C83 1.404 . S
C1205 C94 1.409 . S
C1211 C408 1.409 . S
C1225 C120 1.405 . S
C1231 C224 1.405 . S
C1245 C148 1.410 . S
C1251 C252 1.409 . S
C1265 C174 1.408 . S
C1271 C276 1.408 . S
C1285 C302 1.410 . S
C1291 C200 1.410 . S
C1305 C211 1.416 . S
C1311 C317 1.416 . S
C1325 C239 1.404 . S
C1331 C341 1.404 . S
C1345 C263 1.416 . S
C1351 C367 1.416 . S
C1365 C395 1.407 . S
C1371 C289 1.407 . S
C1385 C10 1.393 . S
C1391 C101 1.396 . S
C1405 C17 1.394 . S
C1411 C62 1.390 . S
C1425 C69 1.393 . S
C1431 C30 1.390 . S
C1445 C82 1.390 . S
C1451 C43 1.392 . S
C1465 C199 1.393 . S
C1471 C108 1.390 . S
C1485 C166 1.391 . S
C1491 C127 1.395 . S
C1505 C173 1.390 . S
C1511 C134 1.392 . S
C1525 C186 1.390 . S
C1531 C147 1.391 . S
C1545 C218 1.392 . S
C1551 C309 1.390 . S
C1565 C270 1.394 . S
C1571 C231 1.390 . S
C1585 C283 1.391 . S
C1591 C238 1.390 . S
C1605 C296 1.392 . S
C1611 C251 1.389 . S
C1625 C407 1.390 . S
C1631 C316 1.392 . S
C1645 C335 1.391 . S
C1651 C374 1.390 . S
C1665 C348 1.396 . S
C1671 C381 1.392 . S
C1685 C394 1.394 . S
C1691 C355 1.397 . S
