# Generated by pormake.
# Topology dei, (4)-cn, num edge types: 1
# Building blocks:
#     Node 0, Type 0, BuildingBlock: QUQFOY_clean_sbu_1, # of connection points: 4
#     Node 1, Type 0, BuildingBlock: QUQFOY_clean_sbu_1, # of connection points: 4
#     Node 2, Type 0, BuildingBlock: QUQFOY_clean_sbu_1, # of connection points: 4
#     Node 3, Type 0, BuildingBlock: QUQFOY_clean_sbu_1, # of connection points: 4
#     Node 4, Type 0, BuildingBlock: QUQFOY_clean_sbu_1, # of connection points: 4
#     Node 5, Type 0, BuildingBlock: QUQFOY_clean_sbu_1, # of connection points: 4
#     Node 6, Type 0, BuildingBlock: QUQFOY_clean_sbu_1, # of connection points: 4
#     Node 7, Type 0, BuildingBlock: QUQFOY_clean_sbu_1, # of connection points: 4
#     Node 8, Type 0, BuildingBlock: QUQFOY_clean_sbu_1, # of connection points: 4
#     Node 9, Type 0, BuildingBlock: QUQFOY_clean_sbu_1, # of connection points: 4
#     Node 10, Type 0, BuildingBlock: QUQFOY_clean_sbu_1, # of connection points: 4
#     Node 11, Type 0, BuildingBlock: QUQFOY_clean_sbu_1, # of connection points: 4
#     Node 12, Type 0, BuildingBlock: QUQFOY_clean_sbu_1, # of connection points: 4
#     Node 13, Type 0, BuildingBlock: QUQFOY_clean_sbu_1, # of connection points: 4
#     Node 14, Type 0, BuildingBlock: QUQFOY_clean_sbu_1, # of connection points: 4
#     Node 15, Type 0, BuildingBlock: QUQFOY_clean_sbu_1, # of connection points: 4
#     Node 16, Type 0, BuildingBlock: QUQFOY_clean_sbu_1, # of connection points: 4
#     Node 17, Type 0, BuildingBlock: QUQFOY_clean_sbu_1, # of connection points: 4
#     Node 18, Type 0, BuildingBlock: QUQFOY_clean_sbu_1, # of connection points: 4
#     Node 19, Type 0, BuildingBlock: QUQFOY_clean_sbu_1, # of connection points: 4
#     Node 20, Type 0, BuildingBlock: QUQFOY_clean_sbu_1, # of connection points: 4
#     Node 21, Type 0, BuildingBlock: QUQFOY_clean_sbu_1, # of connection points: 4
#     Node 22, Type 0, BuildingBlock: QUQFOY_clean_sbu_1, # of connection points: 4
#     Node 23, Type 0, BuildingBlock: QUQFOY_clean_sbu_1, # of connection points: 4
#     Node 24, Type 0, BuildingBlock: QUQFOY_clean_sbu_1, # of connection points: 4
#     Node 25, Type 0, BuildingBlock: QUQFOY_clean_sbu_1, # of connection points: 4
#     Node 26, Type 0, BuildingBlock: QUQFOY_clean_sbu_1, # of connection points: 4
#     Node 27, Type 0, BuildingBlock: QUQFOY_clean_sbu_1, # of connection points: 4
#     Node 28, Type 0, BuildingBlock: QUQFOY_clean_sbu_1, # of connection points: 4
#     Node 29, Type 0, BuildingBlock: QUQFOY_clean_sbu_1, # of connection points: 4
#     Node 30, Type 0, BuildingBlock: QUQFOY_clean_sbu_1, # of connection points: 4
#     Node 31, Type 0, BuildingBlock: QUQFOY_clean_sbu_1, # of connection points: 4
#     Edge 32, Type (0, 0), BuildingBlock: XUDNAN_clean_linker_2, # of connection points: 2
#     Edge 33, Type (0, 0), BuildingBlock: XUDNAN_clean_linker_2, # of connection points: 2
#     Edge 34, Type (0, 0), BuildingBlock: XUDNAN_clean_linker_2, # of connection points: 2
#     Edge 35, Type (0, 0), BuildingBlock: XUDNAN_clean_linker_2, # of connection points: 2
#     Edge 36, Type (0, 0), BuildingBlock: XUDNAN_clean_linker_2, # of connection points: 2
#     Edge 37, Type (0, 0), BuildingBlock: XUDNAN_clean_linker_2, # of connection points: 2
#     Edge 38, Type (0, 0), BuildingBlock: XUDNAN_clean_linker_2, # of connection points: 2
#     Edge 39, Type (0, 0), BuildingBlock: XUDNAN_clean_linker_2, # of connection points: 2
#     Edge 40, Type (0, 0), BuildingBlock: XUDNAN_clean_linker_2, # of connection points: 2
#     Edge 41, Type (0, 0), BuildingBlock: XUDNAN_clean_linker_2, # of connection points: 2
#     Edge 42, Type (0, 0), BuildingBlock: XUDNAN_clean_linker_2, # of connection points: 2
#     Edge 43, Type (0, 0), BuildingBlock: XUDNAN_clean_linker_2, # of connection points: 2
#     Edge 44, Type (0, 0), BuildingBlock: XUDNAN_clean_linker_2, # of connection points: 2
#     Edge 45, Type (0, 0), BuildingBlock: XUDNAN_clean_linker_2, # of connection points: 2
#     Edge 46, Type (0, 0), BuildingBlock: XUDNAN_clean_linker_2, # of connection points: 2
#     Edge 47, Type (0, 0), BuildingBlock: XUDNAN_clean_linker_2, # of connection points: 2
#     Edge 48, Type (0, 0), BuildingBlock: XUDNAN_clean_linker_2, # of connection points: 2
#     Edge 49, Type (0, 0), BuildingBlock: XUDNAN_clean_linker_2, # of connection points: 2
#     Edge 50, Type (0, 0), BuildingBlock: XUDNAN_clean_linker_2, # of connection points: 2
#     Edge 51, Type (0, 0), BuildingBlock: XUDNAN_clean_linker_2, # of connection points: 2
#     Edge 52, Type (0, 0), BuildingBlock: XUDNAN_clean_linker_2, # of connection points: 2
#     Edge 53, Type (0, 0), BuildingBlock: XUDNAN_clean_linker_2, # of connection points: 2
#     Edge 54, Type (0, 0), BuildingBlock: XUDNAN_clean_linker_2, # of connection points: 2
#     Edge 55, Type (0, 0), BuildingBlock: XUDNAN_clean_linker_2, # of connection points: 2
#     Edge 56, Type (0, 0), BuildingBlock: XUDNAN_clean_linker_2, # of connection points: 2
#     Edge 57, Type (0, 0), BuildingBlock: XUDNAN_clean_linker_2, # of connection points: 2
#     Edge 58, Type (0, 0), BuildingBlock: XUDNAN_clean_linker_2, # of connection points: 2
#     Edge 59, Type (0, 0), BuildingBlock: XUDNAN_clean_linker_2, # of connection points: 2
#     Edge 60, Type (0, 0), BuildingBlock: XUDNAN_clean_linker_2, # of connection points: 2
#     Edge 61, Type (0, 0), BuildingBlock: XUDNAN_clean_linker_2, # of connection points: 2
#     Edge 62, Type (0, 0), BuildingBlock: XUDNAN_clean_linker_2, # of connection points: 2
#     Edge 63, Type (0, 0), BuildingBlock: XUDNAN_clean_linker_2, # of connection points: 2
#     Edge 64, Type (0, 0), BuildingBlock: XUDNAN_clean_linker_2, # of connection points: 2
#     Edge 65, Type (0, 0), BuildingBlock: XUDNAN_clean_linker_2, # of connection points: 2
#     Edge 66, Type (0, 0), BuildingBlock: XUDNAN_clean_linker_2, # of connection points: 2
#     Edge 67, Type (0, 0), BuildingBlock: XUDNAN_clean_linker_2, # of connection points: 2
#     Edge 68, Type (0, 0), BuildingBlock: XUDNAN_clean_linker_2, # of connection points: 2
#     Edge 69, Type (0, 0), BuildingBlock: XUDNAN_clean_linker_2, # of connection points: 2
#     Edge 70, Type (0, 0), BuildingBlock: XUDNAN_clean_linker_2, # of connection points: 2
#     Edge 71, Type (0, 0), BuildingBlock: XUDNAN_clean_linker_2, # of connection points: 2
#     Edge 72, Type (0, 0), BuildingBlock: XUDNAN_clean_linker_2, # of connection points: 2
#     Edge 73, Type (0, 0), BuildingBlock: XUDNAN_clean_linker_2, # of connection points: 2
#     Edge 74, Type (0, 0), BuildingBlock: XUDNAN_clean_linker_2, # of connection points: 2
#     Edge 75, Type (0, 0), BuildingBlock: XUDNAN_clean_linker_2, # of connection points: 2
#     Edge 76, Type (0, 0), BuildingBlock: XUDNAN_clean_linker_2, # of connection points: 2
#     Edge 77, Type (0, 0), BuildingBlock: XUDNAN_clean_linker_2, # of connection points: 2
#     Edge 78, Type (0, 0), BuildingBlock: XUDNAN_clean_linker_2, # of connection points: 2
#     Edge 79, Type (0, 0), BuildingBlock: XUDNAN_clean_linker_2, # of connection points: 2
#     Edge 80, Type (0, 0), BuildingBlock: XUDNAN_clean_linker_2, # of connection points: 2
#     Edge 81, Type (0, 0), BuildingBlock: XUDNAN_clean_linker_2, # of connection points: 2
#     Edge 82, Type (0, 0), BuildingBlock: XUDNAN_clean_linker_2, # of connection points: 2
#     Edge 83, Type (0, 0), BuildingBlock: XUDNAN_clean_linker_2, # of connection points: 2
#     Edge 84, Type (0, 0), BuildingBlock: XUDNAN_clean_linker_2, # of connection points: 2
#     Edge 85, Type (0, 0), BuildingBlock: XUDNAN_clean_linker_2, # of connection points: 2
#     Edge 86, Type (0, 0), BuildingBlock: XUDNAN_clean_linker_2, # of connection points: 2
#     Edge 87, Type (0, 0), BuildingBlock: XUDNAN_clean_linker_2, # of connection points: 2
#     Edge 88, Type (0, 0), BuildingBlock: XUDNAN_clean_linker_2, # of connection points: 2
#     Edge 89, Type (0, 0), BuildingBlock: XUDNAN_clean_linker_2, # of connection points: 2
#     Edge 90, Type (0, 0), BuildingBlock: XUDNAN_clean_linker_2, # of connection points: 2
#     Edge 91, Type (0, 0), BuildingBlock: XUDNAN_clean_linker_2, # of connection points: 2
#     Edge 92, Type (0, 0), BuildingBlock: XUDNAN_clean_linker_2, # of connection points: 2
#     Edge 93, Type (0, 0), BuildingBlock: XUDNAN_clean_linker_2, # of connection points: 2
#     Edge 94, Type (0, 0), BuildingBlock: XUDNAN_clean_linker_2, # of connection points: 2
#     Edge 95, Type (0, 0), BuildingBlock: XUDNAN_clean_linker_2, # of connection points: 2
# Relax obj value: 0.262
# Max RMSD: 0.145
# Mean RMSD: 0.145
data_MOF--net-dei--node1-QUQFOY_clean_sbu_1--edge1-XUDNAN_clean_linker_2
_symmetry_space_group_name_H-M    P1
_symmetry_Int_Tables_number       1
_symmetry_cell_setting            triclinic
loop_
_symmetry_equiv_pos_as_xyz
'x, y, z'
_cell_length_a     57.681385
_cell_length_b     57.668592
_cell_length_c     93.248787
_cell_angle_alpha  89.986642
_cell_angle_beta   90.038785
_cell_angle_gamma 89.900466
loop_
_atom_site_label
_atom_site_type_symbol
_atom_site_fract_x
_atom_site_fract_y
_atom_site_fract_z
_atom_type_partial_charge
O0 O 0.11381 0.63063 0.01857 0.0
Cd1 Cd 0.14931 0.63124 0.021 0.0
Cd2 Cd 0.13576 0.64455 0.05093 0.0
O3 O 0.10522 0.63348 0.04158 0.0
O4 O 0.16173 0.61263 1.00456 0.0
O5 O 0.16371 0.60075 0.02707 0.0
C6 C 0.16696 0.5965 0.0136 0.0
C7 C 0.13239 0.64608 0.07622 0.0
C8 C 0.09903 0.63027 0.02865 0.0
C9 C 0.16257 0.67886 0.03122 0.0
O10 O 0.15194 0.67368 0.04274 0.0
O11 O 0.16488 0.66392 0.02124 0.0
O12 O 0.12126 0.65978 0.06785 0.0
O13 O 0.14601 0.63111 0.07033 0.0
O14 O 0.60554 0.90057 0.29462 0.0
Cd15 Cd 0.63715 0.88986 0.30321 0.0
Cd16 Cd 0.64775 0.89336 0.27362 0.0
O17 O 0.61446 0.90723 0.27193 0.0
O18 O 0.62842 0.88404 0.32361 0.0
O19 O 0.65516 0.90941 0.31762 0.0
C20 C 0.6438 0.89881 0.32757 0.0
C21 C 0.68315 0.91195 0.26938 0.0
C22 C 0.59963 0.9071 0.28207 0.0
C23 C 0.65275 0.84698 0.28628 0.0
O24 O 0.65024 0.85774 0.27451 0.0
O25 O 0.64996 0.85738 0.29816 0.0
O26 O 0.67063 0.90432 0.25889 0.0
O27 O 0.67464 0.91058 0.2822 0.0
O28 O 0.42001 0.3963 0.52595 0.0
Cd29 Cd 0.3844 0.39523 0.52396 0.0
Cd30 Cd 0.38684 0.38222 0.55495 0.0
O31 O 0.41858 0.39637 0.54962 0.0
O32 O 0.3749 0.41943 0.50962 0.0
O33 O 0.36774 0.42219 0.53289 0.0
C34 C 0.36719 0.43154 0.52027 0.0
C35 C 0.38486 0.3771 0.58009 0.0
C36 C 0.42983 0.39899 0.53802 0.0
C37 C 0.36763 0.34804 0.53159 0.0
O38 O 0.37379 0.35349 0.54425 0.0
O39 O 0.36914 0.36276 0.52143 0.0
O40 O 0.3979 0.36472 0.572 0.0
O41 O 0.37232 0.39277 0.57397 0.0
O42 O 0.92469 0.12334 0.79526 0.0
Cd43 Cd 0.89463 0.13856 0.8029 0.0
Cd44 Cd 0.88173 0.12845 0.775 0.0
O45 O 0.91389 0.11178 0.7737 0.0
O46 O 0.90312 0.14497 0.82326 0.0
O47 O 0.87403 0.12217 0.81741 0.0
C48 C 0.88635 0.13184 0.82728 0.0
C49 C 0.84472 0.11234 0.77239 0.0
C50 C 0.92936 0.11336 0.78343 0.0
C51 C 0.88383 0.17853 0.78293 0.0
O52 O 0.88236 0.16399 0.77273 0.0
O53 O 0.88719 0.17164 0.79571 0.0
O54 O 0.85755 0.11663 0.76135 0.0
O55 O 0.85371 0.11552 0.78496 0.0
O56 O 0.11265 0.39653 0.98814 0.0
Cd57 Cd 0.1482 0.39568 0.98617 0.0
Cd58 Cd 0.13627 0.37978 0.95703 0.0
O59 O 0.1047 0.39032 0.96529 0.0
O60 O 0.16037 0.41939 1.0 0.0
O61 O 0.16277 0.42312 0.97641 0.0
C62 C 0.16579 0.43197 0.98903 0.0
C63 C 0.13514 0.37685 0.93171 0.0
C64 C 0.09809 0.39509 0.97796 0.0
C65 C 0.16278 0.34758 0.97836 0.0
O66 O 0.15293 0.35179 0.96642 0.0
O67 O 0.16399 0.36322 0.988 0.0
O68 O 0.12393 0.36309 0.93998 0.0
O69 O 0.14748 0.39272 0.93773 0.0
O70 O 0.92404 0.90247 0.21347 0.0
Cd71 Cd 0.89312 0.88835 0.20641 0.0
Cd72 Cd 0.88172 0.89967 0.23509 0.0
O73 O 0.91443 0.91534 0.23497 0.0
O74 O 0.90088 0.88069 0.18609 0.0
O75 O 0.87303 0.90517 0.19176 0.0
C76 C 0.88473 0.89455 0.18195 0.0
C77 C 0.84676 0.91675 0.24262 0.0
C78 C 0.92944 0.91283 0.22505 0.0
C79 C 0.88152 0.84943 0.22712 0.0
O80 O 0.8815 0.8641 0.23728 0.0
O81 O 0.88428 0.85601 0.21421 0.0
O82 O 0.86302 0.91169 0.25161 0.0
O83 O 0.851 0.91371 0.22913 0.0
O84 O 0.41922 0.62822 0.48537 0.0
Cd85 Cd 0.38361 0.6303 0.48674 0.0
Cd86 Cd 0.38618 0.6399 0.45666 0.0
O87 O 0.41867 0.62722 0.46172 0.0
O88 O 0.37416 0.61146 0.5038 0.0
O89 O 0.36702 0.60068 0.48145 0.0
C90 C 0.36648 0.59596 0.495 0.0
C91 C 0.3773 0.633 0.43233 0.0
C92 C 0.42953 0.62509 0.47351 0.0
C93 C 0.36929 0.67807 0.47727 0.0
O94 O 0.37573 0.67185 0.46479 0.0
O95 O 0.36932 0.66352 0.48758 0.0
O96 O 0.39215 0.64831 0.43626 0.0
O97 O 0.36658 0.6218 0.4423 0.0
O98 O 0.60539 0.12243 0.71429 0.0
Cd99 Cd 0.63653 0.13344 0.70551 0.0
Cd100 Cd 0.64674 0.13246 0.73617 0.0
O101 O 0.61371 0.11775 0.73725 0.0
O102 O 0.6264 0.1389 0.68532 0.0
O103 O 0.65388 0.11391 0.69072 0.0
C104 C 0.64157 0.12413 0.68103 0.0
C105 C 0.68078 0.11608 0.74567 0.0
C106 C 0.59929 0.11662 0.7269 0.0
C107 C 0.6508 0.17784 0.72153 0.0
O108 O 0.64849 0.16803 0.73364 0.0
O109 O 0.64842 0.16639 0.70998 0.0
O110 O 0.66496 0.12477 0.75386 0.0
O111 O 0.67665 0.11533 0.73204 0.0
O112 O 0.91341 0.39673 0.98765 0.0
Cd113 Cd 0.87778 0.39613 0.98584 0.0
Cd114 Cd 0.88867 0.38419 0.95702 0.0
O115 O 0.92118 0.39294 0.96459 0.0
O116 O 0.86617 0.41465 1.00254 0.0
O117 O 0.86295 0.42661 0.98011 0.0
C118 C 0.86038 0.43079 0.99365 0.0
C119 C 0.88241 0.39207 0.93251 0.0
C120 C 0.92793 0.39623 0.97741 0.0
C121 C 0.86443 0.34826 0.97608 0.0
O122 O 0.8744 0.35353 0.96436 0.0
O123 O 0.86235 0.36333 0.98601 0.0
O124 O 0.89617 0.37592 0.93676 0.0
O125 O 0.87189 0.40405 0.94223 0.0
O126 O 0.38006 0.16145 0.73813 0.0
Cd127 Cd 0.38115 0.12613 0.73518 0.0
Cd128 Cd 0.39347 0.13836 0.70738 0.0
O129 O 0.38403 0.17053 0.71529 0.0
O130 O 0.35787 0.11288 0.74888 0.0
O131 O 0.35351 0.11221 0.72528 0.0
C132 C 0.34495 0.1084 0.7379 0.0
C133 C 0.38549 0.13224 0.68286 0.0
C134 C 0.38048 0.17655 0.72822 0.0
C135 C 0.42948 0.11399 0.72643 0.0
O136 O 0.42432 0.12436 0.7148 0.0
O137 O 0.41412 0.11108 0.7361 0.0
O138 O 0.40146 0.14618 0.6871 0.0
O139 O 0.37379 0.12147 0.69259 0.0
O140 O 0.60795 0.62944 0.48719 0.0
Cd141 Cd 0.64353 0.63122 0.48867 0.0
Cd142 Cd 0.63979 0.64413 0.45784 0.0
O143 O 0.60912 0.62813 0.46355 0.0
O144 O 0.65377 0.6068 0.50275 0.0
O145 O 0.66001 0.6044 0.47938 0.0
C146 C 0.66092 0.59477 0.49191 0.0
C147 C 0.64041 0.64836 0.4326 0.0
C148 C 0.59814 0.62562 0.47525 0.0
C149 C 0.65798 0.67934 0.48088 0.0
O150 O 0.65146 0.6738 0.46829 0.0
O151 O 0.65786 0.66431 0.49093 0.0
O152 O 0.62712 0.66039 0.44074 0.0
O153 O 0.65423 0.63382 0.43874 0.0
O154 O 0.1468 0.86344 0.23759 0.0
Cd155 Cd 0.14675 0.89899 0.23526 0.0
Cd156 Cd 0.13535 0.88762 0.20672 0.0
O157 O 0.144 0.85522 0.21455 0.0
O158 O 0.16579 0.91118 0.25158 0.0
O159 O 0.17742 0.91269 0.22901 0.0
C160 C 0.1819 0.91596 0.24245 0.0
C161 C 0.14375 0.89381 0.18228 0.0
C162 C 0.14669 0.8487 0.22747 0.0
C163 C 0.09906 0.91239 0.22522 0.0
O164 O 0.10443 0.90191 0.21368 0.0
O165 O 0.11409 0.9149 0.23514 0.0
O166 O 0.1276 0.88 0.1864 0.0
O167 O 0.15549 0.90435 0.1921 0.0
O168 O 0.91444 0.63047 0.01826 0.0
Cd169 Cd 0.87904 0.63141 0.02109 0.0
Cd170 Cd 0.89219 0.64485 0.05028 0.0
O171 O 0.92296 0.63373 0.04125 0.0
O172 O 0.86572 0.60799 0.0075 0.0
O173 O 0.86528 0.60383 0.03111 0.0
C174 C 0.86127 0.5952 0.01854 0.0
C175 C 0.8951 0.64648 0.07558 0.0
C176 C 0.92922 0.63028 0.02836 0.0
C177 C 0.86562 0.67913 0.03031 0.0
O178 O 0.87609 0.67397 0.0419 0.0
O179 O 0.8634 0.66408 0.02038 0.0
O180 O 0.90632 0.66016 0.06728 0.0
O181 O 0.88163 0.6315 0.06961 0.0
O182 O 0.14627 0.16327 0.76851 0.0
Cd183 Cd 0.14595 0.12773 0.77088 0.0
Cd184 Cd 0.13251 0.14115 0.8009 0.0
O185 O 0.14273 0.17191 0.79148 0.0
O186 O 0.16429 0.1155 0.75425 0.0
O187 O 0.17662 0.11329 0.77664 0.0
C188 C 0.18061 0.11015 0.76314 0.0
C189 C 0.13158 0.14475 0.82621 0.0
C190 C 0.14605 0.17812 0.77857 0.0
C191 C 0.09842 0.11399 0.78126 0.0
O192 O 0.10355 0.12451 0.79283 0.0
O193 O 0.1133 0.11202 0.77122 0.0
O194 O 0.11744 0.15553 0.81793 0.0
O195 O 0.14653 0.13123 0.82022 0.0
O196 O 0.6087 0.39541 0.52599 0.0
Cd197 Cd 0.64416 0.39416 0.52366 0.0
Cd198 Cd 0.64505 0.38893 0.55473 0.0
O199 O 0.61137 0.39819 0.54955 0.0
O200 O 0.65307 0.41346 0.50663 0.0
O201 O 0.66003 0.42417 0.52902 0.0
C202 C 0.66038 0.42908 0.51547 0.0
C203 C 0.6526 0.39694 0.57914 0.0
C204 C 0.59934 0.39886 0.53812 0.0
C205 C 0.66348 0.34942 0.53518 0.0
O206 O 0.65918 0.35787 0.54751 0.0
O207 O 0.65942 0.36116 0.52386 0.0
O208 O 0.63928 0.38035 0.57514 0.0
O209 O 0.66245 0.40901 0.56923 0.0
O210 O 0.37901 0.85741 0.27501 0.0
Cd211 Cd 0.38143 0.89295 0.27299 0.0
Cd212 Cd 0.39145 0.89229 0.30275 0.0
O213 O 0.37947 0.85929 0.29862 0.0
O214 O 0.35827 0.90309 0.25816 0.0
O215 O 0.35469 0.91075 0.28133 0.0
C216 C 0.34595 0.91139 0.26854 0.0
C217 C 0.38503 0.90196 0.32701 0.0
C218 C 0.37675 0.84774 0.28716 0.0
C219 C 0.42927 0.9078 0.28142 0.0
O220 O 0.42302 0.90259 0.29411 0.0
O221 O 0.41475 0.90674 0.27111 0.0
O222 O 0.40066 0.88737 0.32312 0.0
O223 O 0.37331 0.9121 0.31701 0.0
O224 O 0.61346 0.13515 0.52057 0.0
Cd225 Cd 0.64895 0.13505 0.52231 0.0
Cd226 Cd 0.63966 0.14337 0.55172 0.0
O227 O 0.60668 0.13723 0.54382 0.0
O228 O 0.66105 0.11567 0.50608 0.0
O229 O 0.66237 0.10426 0.52871 0.0
C230 C 0.66557 0.09954 0.51529 0.0
C231 C 0.64488 0.13235 0.57587 0.0
C232 C 0.59936 0.13522 0.53102 0.0
C233 C 0.66462 0.18094 0.53421 0.0
O234 O 0.65604 0.17395 0.54601 0.0
O235 O 0.66454 0.16791 0.52317 0.0
O236 O 0.63221 0.14975 0.57223 0.0
O237 O 0.65493 0.12091 0.56573 0.0
O238 O 0.1043 0.40497 0.79341 0.0
Cd239 Cd 0.13229 0.38574 0.80074 0.0
Cd240 Cd 0.14466 0.39831 0.77017 0.0
O241 O 0.1122 0.41461 0.77091 0.0
O242 O 0.11705 0.37168 0.8178 0.0
O243 O 0.14743 0.39432 0.81995 0.0
C244 C 0.13199 0.38147 0.82599 0.0
C245 C 0.1801 0.41514 0.76329 0.0
C246 C 0.09859 0.4147 0.78168 0.0
C247 C 0.14406 0.34822 0.77798 0.0
O248 O 0.14448 0.36288 0.76782 0.0
O249 O 0.14096 0.35471 0.79087 0.0
O250 O 0.16404 0.41065 0.75404 0.0
O251 O 0.17538 0.41167 0.77668 0.0
O252 O 0.91436 0.89727 0.02188 0.0
Cd253 Cd 0.87867 0.89657 0.02318 0.0
Cd254 Cd 0.88898 0.8838 0.05208 0.0
O255 O 0.92175 0.89242 0.04492 0.0
O256 O 0.86769 0.91481 0.00618 0.0
O257 O 0.86337 0.92705 0.02847 0.0
C258 C 0.86133 0.931 0.01487 0.0
C259 C 0.88204 0.8916 0.07653 0.0
C260 C 0.92872 0.89623 0.0322 0.0
C261 C 0.86506 0.84843 0.03244 0.0
O262 O 0.87468 0.85338 0.04434 0.0
O263 O 0.86334 0.86374 0.02262 0.0
O264 O 0.89571 0.87527 0.07242 0.0
O265 O 0.87197 0.90376 0.0667 0.0
O266 O 0.42192 0.6231 0.29397 0.0
Cd267 Cd 0.39072 0.63388 0.30294 0.0
Cd268 Cd 0.37984 0.63306 0.27334 0.0
O269 O 0.41293 0.61897 0.27107 0.0
O270 O 0.40046 0.63862 0.32324 0.0
O271 O 0.37271 0.61429 0.31736 0.0
C272 C 0.38479 0.62422 0.32725 0.0
C273 C 0.34428 0.61478 0.26925 0.0
C274 C 0.42773 0.61776 0.28121 0.0
C275 C 0.37591 0.67846 0.28737 0.0
O276 O 0.37768 0.66863 0.27525 0.0
O277 O 0.37892 0.66701 0.29886 0.0
O278 O 0.35637 0.62299 0.25874 0.0
O279 O 0.35329 0.61548 0.28196 0.0
O280 O 0.60824 0.90019 0.48463 0.0
Cd281 Cd 0.64379 0.89819 0.48683 0.0
Cd282 Cd 0.64311 0.88623 0.45712 0.0
O283 O 0.61 0.8982 0.46103 0.0
O284 O 0.65333 0.92213 0.5014 0.0
O285 O 0.66131 0.92495 0.47825 0.0
C286 C 0.66155 0.93422 0.4909 0.0
C287 C 0.65281 0.89166 0.43274 0.0
C288 C 0.59849 0.90157 0.47245 0.0
C289 C 0.6589 0.84974 0.47938 0.0
O290 O 0.65371 0.85525 0.46653 0.0
O291 O 0.65774 0.86486 0.48936 0.0
O292 O 0.63842 0.87605 0.43686 0.0
O293 O 0.66275 0.90388 0.44256 0.0
O294 O 0.42576 0.39972 0.71881 0.0
Cd295 Cd 0.39608 0.38441 0.71062 0.0
Cd296 Cd 0.38255 0.39606 0.73966 0.0
O297 O 0.41561 0.41102 0.7406 0.0
O298 O 0.40968 0.37066 0.69297 0.0
O299 O 0.38089 0.3956 0.69195 0.0
C300 C 0.39486 0.38178 0.68535 0.0
C301 C 0.34615 0.41389 0.74166 0.0
C302 C 0.43084 0.40926 0.73072 0.0
C303 C 0.38164 0.34634 0.73196 0.0
O304 O 0.3813 0.36064 0.7423 0.0
O305 O 0.38554 0.35324 0.71926 0.0
O306 O 0.35853 0.40946 0.7529 0.0
O307 O 0.35536 0.40998 0.72923 0.0
O308 O 0.91369 0.13028 0.98753 0.0
Cd309 Cd 0.87817 0.13098 0.98517 0.0
Cd310 Cd 0.88899 0.14296 0.95708 0.0
O311 O 0.92164 0.13437 0.96454 0.0
O312 O 0.86553 0.10772 0.99911 0.0
O313 O 0.86412 0.10318 0.97554 0.0
C314 C 0.86068 0.09472 0.98822 0.0
C315 C 0.88251 0.13485 0.93264 0.0
C316 C 0.92832 0.13094 0.97736 0.0
C317 C 0.86455 0.17881 0.97618 0.0
O318 O 0.87453 0.17358 0.96445 0.0
O319 O 0.8625 0.16367 0.98607 0.0
O320 O 0.89615 0.15114 0.93677 0.0
O321 O 0.87222 0.12288 0.94244 0.0
O322 O 0.10167 0.62427 0.21607 0.0
Cd323 Cd 0.13019 0.64078 0.20732 0.0
Cd324 Cd 0.14485 0.62851 0.23718 0.0
O325 O 0.11236 0.61258 0.23768 0.0
O326 O 0.11422 0.6541 0.19027 0.0
O327 O 0.14353 0.63006 0.18802 0.0
C328 C 0.12808 0.64298 0.18199 0.0
C329 C 0.17999 0.61136 0.2443 0.0
C330 C 0.09707 0.61412 0.22785 0.0
C331 C 0.14459 0.67859 0.22885 0.0
O332 O 0.14515 0.66409 0.23911 0.0
O333 O 0.14075 0.67195 0.21607 0.0
O334 O 0.16416 0.6167 0.2535 0.0
O335 O 0.17526 0.61426 0.23086 0.0
O336 O 0.41958 0.89864 0.48438 0.0
Cd337 Cd 0.38408 0.89619 0.48681 0.0
Cd338 Cd 0.38472 0.88654 0.45633 0.0
O339 O 0.41763 0.89844 0.46075 0.0
O340 O 0.37585 0.91429 0.50444 0.0
O341 O 0.36646 0.92576 0.48255 0.0
C342 C 0.36701 0.92995 0.49617 0.0
C343 C 0.37552 0.89311 0.432 0.0
C344 C 0.42919 0.90102 0.47223 0.0
C345 C 0.36903 0.84846 0.47736 0.0
O346 O 0.37431 0.85484 0.46471 0.0
O347 O 0.37016 0.8628 0.48775 0.0
O348 O 0.39008 0.87751 0.43597 0.0
O349 O 0.36517 0.90475 0.44193 0.0
O350 O 0.88055 0.6647 0.23816 0.0
Cd351 Cd 0.8807 0.62924 0.23558 0.0
Cd352 Cd 0.8958 0.64137 0.20665 0.0
O353 O 0.88543 0.67276 0.21522 0.0
O354 O 0.85631 0.61667 0.24877 0.0
O355 O 0.85326 0.61611 0.22509 0.0
C356 C 0.84393 0.61245 0.23751 0.0
C357 C 0.89825 0.6434 0.18135 0.0
C358 C 0.88143 0.67933 0.228 0.0
C359 C 0.92842 0.61432 0.2274 0.0
O360 O 0.92408 0.62459 0.21562 0.0
O361 O 0.91288 0.61281 0.23707 0.0
O362 O 0.91211 0.65437 0.18968 0.0
O363 O 0.88261 0.6307 0.1873 0.0
O364 O 0.11296 0.1304 0.98849 0.0
Cd365 Cd 0.14851 0.13106 0.98654 0.0
Cd366 Cd 0.13668 0.14674 0.95729 0.0
O367 O 0.10513 0.13637 0.9656 0.0
O368 O 0.1606 0.10747 1.00051 0.0
O369 O 0.16299 0.10339 0.97695 0.0
C370 C 0.16596 0.09469 0.98962 0.0
C371 C 0.13532 0.14952 0.93195 0.0
C372 C 0.09845 0.13178 0.97827 0.0
C373 C 0.16315 0.17903 0.97853 0.0
O374 O 0.15334 0.17475 0.96659 0.0
O375 O 0.16432 0.16347 0.98823 0.0
O376 O 0.12422 0.16339 0.94023 0.0
O377 O 0.14773 0.13365 0.93798 0.0
O378 O 0.65036 0.35673 0.73593 0.0
Cd379 Cd 0.64858 0.39224 0.73888 0.0
Cd380 Cd 0.63814 0.39284 0.70851 0.0
O381 O 0.64953 0.35949 0.71233 0.0
O382 O 0.66751 0.39965 0.75634 0.0
O383 O 0.67826 0.4095 0.73441 0.0
C384 C 0.68297 0.40851 0.74797 0.0
C385 C 0.64426 0.40307 0.68428 0.0
C386 C 0.6522 0.34746 0.72362 0.0
C387 C 0.60083 0.40855 0.73011 0.0
O388 O 0.60685 0.40357 0.71734 0.0
O389 O 0.61537 0.40678 0.74037 0.0
O390 O 0.62858 0.38856 0.68812 0.0
O391 O 0.65629 0.41273 0.6943 0.0
O392 O 0.41448 0.13074 0.52287 0.0
Cd393 Cd 0.37903 0.13069 0.52519 0.0
Cd394 Cd 0.38961 0.14432 0.55298 0.0
O395 O 0.42254 0.13628 0.54573 0.0
O396 O 0.36699 0.10663 0.51154 0.0
O397 O 0.36564 0.10286 0.53515 0.0
C398 C 0.36249 0.09387 0.52258 0.0
C399 C 0.38277 0.13635 0.57742 0.0
C400 C 0.42918 0.13239 0.53296 0.0
C401 C 0.36483 0.17884 0.5331 0.0
O402 O 0.37466 0.17436 0.54502 0.0
O403 O 0.36305 0.16313 0.52353 0.0
O404 O 0.39606 0.15298 0.57334 0.0
O405 O 0.37302 0.12403 0.56757 0.0
O406 O 0.64809 0.6688 0.27164 0.0
Cd407 Cd 0.64542 0.63326 0.27007 0.0
Cd408 Cd 0.63399 0.63771 0.30189 0.0
O409 O 0.65038 0.6677 0.29527 0.0
O410 O 0.6638 0.62387 0.25281 0.0
O411 O 0.6748 0.61589 0.27501 0.0
C412 C 0.67929 0.61559 0.26142 0.0
C413 C 0.63122 0.63945 0.32718 0.0
C414 C 0.65266 0.67855 0.2835 0.0
C415 C 0.59774 0.61909 0.27969 0.0
O416 O 0.60378 0.62572 0.29217 0.0
O417 O 0.61219 0.61931 0.26936 0.0
O418 O 0.61897 0.65222 0.31884 0.0
O419 O 0.64479 0.62449 0.32123 0.0
O420 O 0.11341 0.89679 0.02216 0.0
Cd421 Cd 0.14909 0.89614 0.02366 0.0
Cd422 Cd 0.13867 0.88365 0.05244 0.0
O423 O 0.10592 0.8923 0.0452 0.0
O424 O 0.16026 0.91456 0.00681 0.0
O425 O 0.16409 0.92659 0.02918 0.0
C426 C 0.16634 0.93069 0.01562 0.0
C427 C 0.1456 0.89153 0.07688 0.0
C428 C 0.099 0.89593 0.03244 0.0
C429 C 0.16283 0.84811 0.03304 0.0
O430 O 0.15304 0.85313 0.04487 0.0
O431 O 0.16463 0.86336 0.0232 0.0
O432 O 0.13191 0.87526 0.07278 0.0
O433 O 0.15567 0.90362 0.06704 0.0
O434 O 0.88628 0.36322 0.77207 0.0
Cd435 Cd 0.88547 0.39864 0.77422 0.0
Cd436 Cd 0.89701 0.3891 0.80281 0.0
O437 O 0.89082 0.35592 0.79513 0.0
O438 O 0.86069 0.41062 0.76097 0.0
O439 O 0.85757 0.41098 0.78464 0.0
C440 C 0.84811 0.41435 0.77221 0.0
C441 C 0.88766 0.39485 0.82715 0.0
C442 C 0.8877 0.34885 0.78236 0.0
C443 C 0.9318 0.41561 0.78395 0.0
O444 O 0.9264 0.40647 0.79591 0.0
O445 O 0.91763 0.41537 0.77345 0.0
O446 O 0.90505 0.38241 0.82322 0.0
O447 O 0.87523 0.40425 0.8172 0.0
H448 H 0.15309 0.62093 0.16037 0.0
H449 H 0.09816 0.67118 0.16788 0.0
H450 H 0.09378 0.67674 0.14197 0.0
H451 H 0.17864 0.65037 0.12996 0.0
H452 H 0.18497 0.6242 0.12014 0.0
H453 H 0.18413 0.62368 0.13946 0.0
H454 H 0.15356 0.59087 0.13866 0.0
H455 H 0.15431 0.59128 0.11935 0.0
H456 H 0.12717 0.5951 0.12862 0.0
H457 H 0.09506 0.67774 0.11582 0.0
H458 H 0.10159 0.67373 0.08998 0.0
H459 H 0.15543 0.62253 0.09811 0.0
C460 C 0.14016 0.63307 0.15653 0.0
C461 C 0.12597 0.64561 0.16622 0.0
C462 C 0.10923 0.66132 0.16075 0.0
C463 C 0.10659 0.66465 0.14601 0.0
C464 C 0.12074 0.65213 0.13678 0.0
C465 C 0.13718 0.6366 0.14171 0.0
C466 C 0.14998 0.62546 0.12921 0.0
C467 C 0.17597 0.63128 0.12973 0.0
C468 C 0.14601 0.59911 0.12895 0.0
C469 C 0.13814 0.63728 0.11658 0.0
C470 C 0.12137 0.65258 0.12132 0.0
C471 C 0.10811 0.66579 0.11193 0.0
C472 C 0.11201 0.66337 0.09723 0.0
C473 C 0.12903 0.64781 0.09195 0.0
C474 C 0.14226 0.63453 0.1018 0.0
H475 H 0.63082 0.8704 0.41051 0.0
H476 H 0.68245 0.92293 0.41979 0.0
H477 H 0.68613 0.931 0.39374 0.0
H478 H 0.65645 0.84857 0.37804 0.0
H479 H 0.62879 0.84407 0.36949 0.0
H480 H 0.63119 0.84225 0.38871 0.0
H481 H 0.59895 0.87335 0.39133 0.0
H482 H 0.59657 0.8754 0.37212 0.0
H483 H 0.60232 0.90103 0.38259 0.0
H484 H 0.68333 0.93329 0.36613 0.0
H485 H 0.67464 0.92928 0.34017 0.0
H486 H 0.62419 0.87589 0.35003 0.0
C487 C 0.6431 0.88349 0.40713 0.0
C488 C 0.65645 0.89596 0.41721 0.0
C489 C 0.67212 0.91308 0.41226 0.0
C490 C 0.67428 0.9178 0.39749 0.0
C491 C 0.66058 0.9053 0.38785 0.0
C492 C 0.64533 0.88847 0.39254 0.0
C493 C 0.63216 0.87769 0.38023 0.0
C494 C 0.63748 0.8516 0.37905 0.0
C495 C 0.60595 0.88214 0.38166 0.0
C496 C 0.64232 0.89102 0.36779 0.0
C497 C 0.65873 0.90686 0.3723 0.0
C498 C 0.67048 0.92094 0.36253 0.0
C499 C 0.66541 0.91859 0.34781 0.0
C500 C 0.64867 0.90235 0.34305 0.0
C501 C 0.637 0.88857 0.35326 0.0
H502 H 0.37441 0.40862 0.66395 0.0
H503 H 0.41245 0.34465 0.67145 0.0
H504 H 0.41121 0.33589 0.64574 0.0
H505 H 0.33751 0.38668 0.63485 0.0
H506 H 0.33897 0.41306 0.62452 0.0
H507 H 0.34128 0.41414 0.64379 0.0
H508 H 0.38047 0.43568 0.64163 0.0
H509 H 0.37824 0.43475 0.62237 0.0
H510 H 0.4035 0.42299 0.63117 0.0
H511 H 0.40735 0.33395 0.61975 0.0
H512 H 0.40291 0.33997 0.59388 0.0
H513 H 0.36806 0.40559 0.60183 0.0
C514 C 0.38228 0.39272 0.66015 0.0
C515 C 0.39351 0.37731 0.66974 0.0
C516 C 0.40385 0.35679 0.66434 0.0
C517 C 0.40313 0.35155 0.64974 0.0
C518 C 0.39211 0.36703 0.64057 0.0
C519 C 0.38198 0.38727 0.64543 0.0
C520 C 0.37242 0.40133 0.63293 0.0
C521 C 0.34597 0.40395 0.6341 0.0
C522 C 0.38438 0.42509 0.63197 0.0
C523 C 0.37907 0.38586 0.62037 0.0
C524 C 0.39018 0.36608 0.62517 0.0
C525 C 0.39862 0.34931 0.61582 0.0
C526 C 0.39603 0.35295 0.60111 0.0
C527 C 0.38516 0.37326 0.59579 0.0
C528 C 0.37625 0.38981 0.60558 0.0
H529 H 0.90521 0.15538 0.91041 0.0
H530 H 0.85231 0.10415 0.91973 0.0
H531 H 0.84704 0.09748 0.89364 0.0
H532 H 0.8783 0.17993 0.87942 0.0
H533 H 0.90533 0.18419 0.87011 0.0
H534 H 0.90464 0.18466 0.8894 0.0
H535 H 0.93591 0.15232 0.89022 0.0
H536 H 0.93671 0.15176 0.87093 0.0
H537 H 0.93094 0.12551 0.88078 0.0
H538 H 0.8476 0.09714 0.86601 0.0
H539 H 0.85462 0.10249 0.83997 0.0
H540 H 0.90754 0.15352 0.84968 0.0
C541 C 0.89246 0.14274 0.90703 0.0
C542 C 0.87912 0.13032 0.91712 0.0
C543 C 0.86273 0.11387 0.91218 0.0
C544 C 0.85961 0.11 0.89739 0.0
C545 C 0.87309 0.12264 0.88772 0.0
C546 C 0.88923 0.13862 0.89241 0.0
C547 C 0.90175 0.14993 0.88002 0.0
C548 C 0.89722 0.17623 0.87972 0.0
C549 C 0.92787 0.14455 0.88052 0.0
C550 C 0.89014 0.1379 0.86755 0.0
C551 C 0.8736 0.12225 0.87212 0.0
C552 C 0.86057 0.10932 0.86236 0.0
C553 C 0.86465 0.11248 0.84759 0.0
C554 C 0.88167 0.12836 0.84277 0.0
C555 C 0.89447 0.14116 0.85296 0.0
H556 H 0.15597 0.40292 0.91013 0.0
H557 H 0.1099 0.34456 0.91752 0.0
H558 H 0.10531 0.33947 0.89159 0.0
H559 H 0.12529 0.42601 0.87966 0.0
H560 H 0.15096 0.43424 0.86991 0.0
H561 H 0.15143 0.43339 0.88922 0.0
H562 H 0.18646 0.40527 0.8885 0.0
H563 H 0.1861 0.40605 0.86918 0.0
H564 H 0.1843 0.37867 0.87844 0.0
H565 H 0.10425 0.34083 0.86542 0.0
H566 H 0.1073 0.34823 0.83959 0.0
H567 H 0.15454 0.40531 0.84788 0.0
C568 C 0.14502 0.38904 0.90626 0.0
C569 C 0.1333 0.37415 0.91593 0.0
C570 C 0.11908 0.35621 0.91041 0.0
C571 C 0.11634 0.35313 0.89566 0.0
C572 C 0.12797 0.36804 0.88645 0.0
C573 C 0.14209 0.38561 0.89142 0.0
C574 C 0.15229 0.39922 0.87896 0.0
C575 C 0.14452 0.42473 0.87947 0.0
C576 C 0.17887 0.39717 0.87876 0.0
C577 C 0.14149 0.38659 0.86629 0.0
C578 C 0.12754 0.36869 0.87099 0.0
C579 C 0.11519 0.35472 0.86156 0.0
C580 C 0.11702 0.35914 0.84688 0.0
C581 C 0.13117 0.37734 0.84167 0.0
C582 C 0.14371 0.39118 0.85153 0.0
H583 H 0.90378 0.8702 0.09888 0.0
H584 H 0.85228 0.92291 0.08932 0.0
H585 H 0.84675 0.92959 0.11538 0.0
H586 H 0.8758 0.84628 0.12975 0.0
H587 H 0.9026 0.84126 0.13921 0.0
H588 H 0.90214 0.84082 0.1199 0.0
H589 H 0.93419 0.87227 0.11927 0.0
H590 H 0.93477 0.8728 0.13857 0.0
H591 H 0.92976 0.89921 0.12869 0.0
H592 H 0.84708 0.93 0.14299 0.0
H593 H 0.8538 0.92465 0.16907 0.0
H594 H 0.90539 0.87196 0.15967 0.0
C595 C 0.89127 0.88315 0.10221 0.0
C596 C 0.87841 0.896 0.09204 0.0
C597 C 0.86232 0.91284 0.09691 0.0
C598 C 0.85906 0.91673 0.11169 0.0
C599 C 0.87207 0.90368 0.12142 0.0
C600 C 0.8879 0.88727 0.11682 0.0
C601 C 0.89997 0.87561 0.12928 0.0
C602 C 0.89481 0.84945 0.12955 0.0
C603 C 0.92622 0.88026 0.12893 0.0
C604 C 0.88851 0.88795 0.1417 0.0
C605 C 0.87241 0.90406 0.13703 0.0
C606 C 0.85967 0.91744 0.14672 0.0
C607 C 0.86358 0.91428 0.16151 0.0
C608 C 0.88013 0.89792 0.16643 0.0
C609 C 0.89264 0.88466 0.15631 0.0
H610 H 0.40056 0.65224 0.40995 0.0
H611 H 0.34651 0.60247 0.41971 0.0
H612 H 0.34247 0.59386 0.39374 0.0
H613 H 0.37579 0.67456 0.37754 0.0
H614 H 0.40352 0.67771 0.36886 0.0
H615 H 0.40147 0.67984 0.38807 0.0
H616 H 0.43228 0.6473 0.39071 0.0
H617 H 0.43431 0.64496 0.3715 0.0
H618 H 0.42754 0.61973 0.3821 0.0
H619 H 0.34481 0.59115 0.36609 0.0
H620 H 0.35304 0.59489 0.34005 0.0
H621 H 0.40618 0.64579 0.34955 0.0
C622 C 0.38774 0.6396 0.40669 0.0
C623 C 0.37377 0.62809 0.41687 0.0
C624 C 0.35735 0.61156 0.41209 0.0
C625 C 0.35498 0.60654 0.39736 0.0
C626 C 0.36923 0.61814 0.38762 0.0
C627 C 0.38528 0.63434 0.39217 0.0
C628 C 0.39876 0.64438 0.37976 0.0
C629 C 0.39462 0.67067 0.37849 0.0
C630 C 0.42476 0.63875 0.3811 0.0
C631 C 0.38783 0.63141 0.36743 0.0
C632 C 0.37081 0.61634 0.37207 0.0
C633 C 0.35818 0.60286 0.36239 0.0
C634 C 0.36299 0.60505 0.34763 0.0
C635 C 0.38032 0.62054 0.34275 0.0
C636 C 0.39291 0.63366 0.35288 0.0
H637 H 0.61958 0.14614 0.65908 0.0
H638 H 0.6714 0.09334 0.66773 0.0
H639 H 0.67749 0.08843 0.64155 0.0
H640 H 0.59487 0.11996 0.62745 0.0
H641 H 0.59053 0.14747 0.61866 0.0
H642 H 0.58983 0.14574 0.63794 0.0
H643 H 0.62187 0.17713 0.6395 0.0
H644 H 0.62272 0.17891 0.62024 0.0
H645 H 0.64886 0.17273 0.63014 0.0
H646 H 0.67814 0.09039 0.61389 0.0
H647 H 0.6737 0.09941 0.588 0.0
H648 H 0.62194 0.15137 0.5985 0.0
C649 C 0.6321 0.13336 0.65553 0.0
C650 C 0.64495 0.12004 0.66547 0.0
C651 C 0.66129 0.10368 0.66031 0.0
C652 C 0.66485 0.10078 0.64547 0.0
C653 C 0.65195 0.11441 0.63597 0.0
C654 C 0.63591 0.13037 0.64087 0.0
C655 C 0.62468 0.14348 0.62867 0.0
C656 C 0.59843 0.13887 0.62815 0.0
C657 C 0.62985 0.1696 0.62971 0.0
C658 C 0.63694 0.13257 0.61606 0.0
C659 C 0.65254 0.11574 0.62038 0.0
C660 C 0.66592 0.10352 0.61043 0.0
C661 C 0.6633 0.10874 0.59576 0.0
C662 C 0.64752 0.12612 0.59121 0.0
C663 C 0.6342 0.13802 0.60158 0.0
H664 H 0.90881 0.37335 0.84967 0.0
H665 H 0.85493 0.42338 0.83963 0.0
H666 H 0.84739 0.4286 0.86563 0.0
H667 H 0.87973 0.34647 0.87927 0.0
H668 H 0.90606 0.3422 0.88935 0.0
H669 H 0.90695 0.34274 0.87006 0.0
H670 H 0.93752 0.37562 0.87092 0.0
H671 H 0.93669 0.37521 0.89022 0.0
H672 H 0.93116 0.40185 0.88068 0.0
H673 H 0.84656 0.42847 0.89324 0.0
H674 H 0.85173 0.42214 0.91937 0.0
H675 H 0.90577 0.37175 0.91043 0.0
C676 C 0.8954 0.38544 0.85288 0.0
C677 C 0.88249 0.39801 0.84261 0.0
C678 C 0.86503 0.41355 0.84732 0.0
C679 C 0.86066 0.41664 0.86206 0.0
C680 C 0.87383 0.40398 0.87191 0.0
C681 C 0.89078 0.38861 0.86745 0.0
C682 C 0.9025 0.37689 0.88001 0.0
C683 C 0.89856 0.35051 0.87965 0.0
C684 C 0.9285 0.38275 0.88048 0.0
C685 C 0.88961 0.38805 0.89231 0.0
C686 C 0.87316 0.40369 0.88751 0.0
C687 C 0.85935 0.4162 0.89708 0.0
C688 C 0.86242 0.41253 0.9119 0.0
C689 C 0.8791 0.39641 0.91696 0.0
C690 C 0.89279 0.38413 0.90696 0.0
H691 H 0.40579 0.15542 0.66069 0.0
H692 H 0.35519 0.10183 0.66982 0.0
H693 H 0.3486 0.0967 0.64372 0.0
H694 H 0.37567 0.181 0.63099 0.0
H695 H 0.40187 0.18711 0.62118 0.0
H696 H 0.40239 0.18624 0.64047 0.0
H697 H 0.43508 0.15535 0.63968 0.0
H698 H 0.43465 0.1561 0.62038 0.0
H699 H 0.43067 0.12898 0.62967 0.0
H700 H 0.34826 0.09741 0.61613 0.0
H701 H 0.35364 0.10446 0.5901 0.0
H702 H 0.40408 0.15793 0.59986 0.0
C703 C 0.3933 0.14256 0.65726 0.0
C704 C 0.38103 0.12898 0.66731 0.0
C705 C 0.36479 0.11244 0.66231 0.0
C706 C 0.36096 0.1094 0.64751 0.0
C707 C 0.37344 0.1231 0.63788 0.0
C708 C 0.38922 0.1394 0.64262 0.0
C709 C 0.40042 0.15208 0.63024 0.0
C710 C 0.39474 0.17815 0.63075 0.0
C711 C 0.42676 0.14786 0.62998 0.0
C712 C 0.38855 0.14039 0.61773 0.0
C713 C 0.37307 0.12367 0.62228 0.0
C714 C 0.36031 0.11052 0.6125 0.0
C715 C 0.36348 0.11462 0.59773 0.0
C716 C 0.37922 0.13178 0.59292 0.0
C717 C 0.39183 0.14474 0.60314 0.0
H718 H 0.65977 0.62094 0.41113 0.0
H719 H 0.61677 0.68178 0.41837 0.0
H720 H 0.6103 0.68545 0.3925 0.0
H721 H 0.68628 0.64198 0.37765 0.0
H722 H 0.68621 0.61384 0.36924 0.0
H723 H 0.68851 0.61614 0.38846 0.0
H724 H 0.65272 0.58949 0.39127 0.0
H725 H 0.65018 0.58727 0.37206 0.0
H726 H 0.6259 0.59726 0.38255 0.0
H727 H 0.60624 0.68191 0.36658 0.0
H728 H 0.60706 0.67304 0.34091 0.0
H729 H 0.65334 0.61491 0.34904 0.0
C730 C 0.64927 0.63518 0.40721 0.0
C731 C 0.63874 0.65104 0.41683 0.0
C732 C 0.62496 0.66934 0.41129 0.0
C733 C 0.62114 0.67161 0.39658 0.0
C734 C 0.63128 0.65551 0.38743 0.0
C735 C 0.64525 0.63777 0.39241 0.0
C736 C 0.6537 0.62282 0.38001 0.0
C737 C 0.68025 0.62376 0.37877 0.0
C738 C 0.64511 0.59772 0.38157 0.0
C739 C 0.64208 0.63492 0.3674 0.0
C740 C 0.6292 0.65366 0.37207 0.0
C741 C 0.61639 0.6674 0.36273 0.0
C742 C 0.61693 0.66211 0.34813 0.0
C743 C 0.63029 0.64328 0.34289 0.0
C744 C 0.64299 0.62942 0.35271 0.0
H745 H 0.12298 0.8714 0.16 0.0
H746 H 0.17462 0.92387 0.16942 0.0
H747 H 0.18111 0.92941 0.14334 0.0
H748 H 0.15231 0.84588 0.13003 0.0
H749 H 0.12588 0.84049 0.12027 0.0
H750 H 0.1256 0.84095 0.13957 0.0
H751 H 0.0935 0.87249 0.13914 0.0
H752 H 0.0937 0.87215 0.11984 0.0
H753 H 0.09831 0.89898 0.12932 0.0
H754 H 0.18119 0.92921 0.11572 0.0
H755 H 0.17543 0.92273 0.08966 0.0
H756 H 0.12403 0.87012 0.09923 0.0
C757 C 0.1357 0.88408 0.15664 0.0
C758 C 0.14828 0.89724 0.16677 0.0
C759 C 0.16478 0.91358 0.16186 0.0
C760 C 0.16856 0.91685 0.14707 0.0
C761 C 0.15574 0.90358 0.13737 0.0
C762 C 0.1397 0.88748 0.14203 0.0
C763 C 0.12812 0.87528 0.1296 0.0
C764 C 0.1333 0.84911 0.12989 0.0
C765 C 0.10186 0.88002 0.12947 0.0
C766 C 0.14006 0.88702 0.11715 0.0
C767 C 0.15593 0.90334 0.12176 0.0
C768 C 0.16884 0.91643 0.11203 0.0
C769 C 0.16545 0.91265 0.09725 0.0
C770 C 0.14932 0.89589 0.09238 0.0
C771 C 0.13655 0.88302 0.10255 0.0
H772 H 0.87176 0.62306 0.09734 0.0
H773 H 0.92575 0.67401 0.08949 0.0
H774 H 0.932 0.67797 0.11536 0.0
H775 H 0.84825 0.65102 0.12896 0.0
H776 H 0.84251 0.62436 0.13839 0.0
H777 H 0.84208 0.62487 0.11908 0.0
H778 H 0.8726 0.5919 0.11844 0.0
H779 H 0.87312 0.59129 0.13776 0.0
H780 H 0.89964 0.59549 0.12788 0.0
H781 H 0.93305 0.67693 0.1415 0.0
H782 H 0.9284 0.67139 0.16738 0.0
H783 H 0.87342 0.62147 0.15962 0.0
C784 C 0.8849 0.63499 0.1011 0.0
C785 C 0.89826 0.64821 0.09133 0.0
C786 C 0.91524 0.6637 0.09669 0.0
C787 C 0.91899 0.66609 0.1114 0.0
C788 C 0.90561 0.65294 0.12072 0.0
C789 C 0.88886 0.63771 0.1159 0.0
C790 C 0.87687 0.62596 0.12848 0.0
C791 C 0.85089 0.63192 0.12874 0.0
C792 C 0.8808 0.5996 0.12811 0.0
C793 C 0.88956 0.63705 0.14103 0.0
C794 C 0.90608 0.65248 0.13618 0.0
C795 C 0.92018 0.66492 0.14548 0.0
C796 C 0.91738 0.6616 0.1602 0.0
C797 C 0.90054 0.64599 0.16559 0.0
C798 C 0.88642 0.63353 0.15584 0.0
H799 H 0.15405 0.12067 0.84809 0.0
H800 H 0.10644 0.17766 0.83989 0.0
H801 H 0.10336 0.18494 0.86571 0.0
H802 H 0.12505 0.09986 0.87991 0.0
H803 H 0.15132 0.0925 0.88936 0.0
H804 H 0.15069 0.09176 0.87005 0.0
H805 H 0.18553 0.11998 0.86915 0.0
H806 H 0.18627 0.12081 0.88846 0.0
H807 H 0.18374 0.14738 0.87839 0.0
H808 H 0.10467 0.18644 0.89187 0.0
H809 H 0.10969 0.18161 0.91779 0.0
H810 H 0.15601 0.12329 0.91036 0.0
C811 C 0.14308 0.13471 0.85177 0.0
C812 C 0.13049 0.14859 0.84191 0.0
C813 C 0.11621 0.16672 0.84716 0.0
C814 C 0.11436 0.17107 0.86184 0.0
C815 C 0.12682 0.15712 0.87125 0.0
C816 C 0.14087 0.13927 0.86654 0.0
C817 C 0.15188 0.12673 0.8792 0.0
C818 C 0.14428 0.1012 0.87965 0.0
C819 C 0.17844 0.12886 0.87877 0.0
C820 C 0.1417 0.14037 0.89167 0.0
C821 C 0.1274 0.15785 0.88671 0.0
C822 C 0.11583 0.17284 0.89593 0.0
C823 C 0.11883 0.1699 0.91067 0.0
C824 C 0.13324 0.15206 0.91617 0.0
C825 C 0.1449 0.1371 0.9065 0.0
H826 H 0.62985 0.37654 0.60132 0.0
H827 H 0.68162 0.42892 0.59205 0.0
H828 H 0.68517 0.43713 0.61811 0.0
H829 H 0.60138 0.40718 0.62952 0.0
H830 H 0.59576 0.38135 0.63983 0.0
H831 H 0.59785 0.37969 0.62059 0.0
H832 H 0.63004 0.34846 0.62286 0.0
H833 H 0.62798 0.34994 0.6421 0.0
H834 H 0.6555 0.35456 0.63342 0.0
H835 H 0.68291 0.43881 0.64582 0.0
H836 H 0.67492 0.43392 0.67181 0.0
H837 H 0.62393 0.38115 0.66175 0.0
C838 C 0.64204 0.38971 0.6047 0.0
C839 C 0.65554 0.40202 0.59463 0.0
C840 C 0.67113 0.41922 0.59958 0.0
C841 C 0.67324 0.424 0.61435 0.0
C842 C 0.65952 0.41152 0.62398 0.0
C843 C 0.64421 0.39475 0.61926 0.0
C844 C 0.63122 0.38375 0.63156 0.0
C845 C 0.605 0.38828 0.6303 0.0
C846 C 0.63652 0.35764 0.63254 0.0
C847 C 0.6416 0.39683 0.64403 0.0
C848 C 0.65794 0.41277 0.63955 0.0
C849 C 0.67006 0.42644 0.64939 0.0
C850 C 0.6654 0.42358 0.66412 0.0
C851 C 0.64871 0.40726 0.66883 0.0
C852 C 0.63667 0.39392 0.65856 0.0
H853 H 0.40527 0.87957 0.34942 0.0
H854 H 0.35364 0.93203 0.33959 0.0
H855 H 0.34488 0.93579 0.36556 0.0
H856 H 0.37355 0.85147 0.37696 0.0
H857 H 0.39885 0.84532 0.38767 0.0
H858 H 0.40138 0.84768 0.36849 0.0
H859 H 0.4328 0.87944 0.37142 0.0
H860 H 0.43051 0.87705 0.39062 0.0
H861 H 0.42653 0.9048 0.38205 0.0
H862 H 0.34198 0.93307 0.39322 0.0
H863 H 0.3455 0.92439 0.41922 0.0
H864 H 0.39832 0.873 0.40972 0.0
C865 C 0.39222 0.89204 0.35266 0.0
C866 C 0.38022 0.90561 0.34246 0.0
C867 C 0.36314 0.92152 0.34723 0.0
C868 C 0.35803 0.92373 0.36195 0.0
C869 C 0.37009 0.90981 0.37171 0.0
C870 C 0.38685 0.89431 0.36718 0.0
C871 C 0.39718 0.88096 0.37957 0.0
C872 C 0.39245 0.85481 0.37808 0.0
C873 C 0.4233 0.88587 0.381 0.0
C874 C 0.3837 0.89132 0.39187 0.0
C875 C 0.36815 0.90798 0.38724 0.0
C876 C 0.35408 0.92 0.39691 0.0
C877 C 0.35615 0.91494 0.41165 0.0
C878 C 0.37209 0.89794 0.41652 0.0
C879 C 0.38584 0.88599 0.4064 0.0
H880 H 0.06317 0.62912 0.04778 0.0
H881 H 0.07831 0.62442 1.00226 0.0
H882 H 0.03632 0.62141 0.99713 0.0
H883 H 0.01417 0.58921 0.048 0.0
H884 H 0.99852 0.60609 0.06109 0.0
H885 H 0.02976 0.6061 0.06109 0.0
H886 H 0.02969 0.65096 0.05916 0.0
H887 H 0.99851 0.65108 0.05911 0.0
H888 H 0.01416 0.66471 0.04468 0.0
H889 H 0.99217 0.62136 0.99705 0.0
H890 H 0.95013 0.62437 1.00204 0.0
H891 H 0.96495 0.6291 0.04761 0.0
C892 C 0.05778 0.62718 0.03672 0.0
C893 C 0.07409 0.62698 0.02543 0.0
C894 C 0.06616 0.62456 0.01111 0.0
C895 C 0.04234 0.62281 0.00809 0.0
C896 C 0.02674 0.62339 0.01951 0.0
C897 C 0.0342 0.62542 0.03354 0.0
C898 C 0.01406 0.62667 0.04386 0.0
C899 C 0.01414 0.60577 0.05411 0.0
C900 C 0.01412 0.64973 0.05219 0.0
C901 C 0.99402 0.62546 0.03346 0.0
C902 C 1.00158 0.6234 0.01946 0.0
C903 C 0.98606 0.62278 0.00799 0.0
C904 C 0.96222 0.62452 0.01092 0.0
C905 C 0.95419 0.62695 0.02521 0.0
C906 C 0.97042 0.62716 0.03656 0.0
H907 H 0.64259 0.71376 0.26443 0.0
H908 H 0.67833 0.69878 0.30436 0.0
H909 H 0.68617 0.74032 0.30769 0.0
H910 H 0.6798 0.76453 0.25358 0.0
H911 H 0.65529 0.78027 0.24652 0.0
H912 H 0.65567 0.74901 0.24592 0.0
H913 H 0.61648 0.74799 0.25944 0.0
H914 H 0.61606 0.77915 0.26019 0.0
H915 H 0.61392 0.7625 0.2765 0.0
H916 H 0.68527 0.78278 0.30875 0.0
H917 H 0.67693 0.82456 0.30701 0.0
H918 H 0.64233 0.81343 0.26625 0.0
C919 C 0.6527 0.71922 0.27361 0.0
C920 C 0.65996 0.70306 0.28411 0.0
C921 C 0.6726 0.71087 0.29619 0.0
C922 C 0.67724 0.73442 0.29815 0.0
C923 C 0.66921 0.75002 0.28791 0.0
C924 C 0.65738 0.74284 0.2758 0.0
C925 C 0.64883 0.76352 0.26719 0.0
C926 C 0.66061 0.76438 0.25243 0.0
C927 C 0.62225 0.76327 0.26576 0.0
C928 C 0.65693 0.78331 0.27668 0.0
C929 C 0.66887 0.77502 0.28848 0.0
C930 C 0.67638 0.78957 0.29943 0.0
C931 C 0.67143 0.81325 0.29838 0.0
C932 C 0.65916 0.8222 0.28645 0.0
C933 C 0.65216 0.80707 0.27534 0.0
H934 H 0.46454 0.39007 0.51835 0.0
H935 H 0.45141 0.42035 0.56021 0.0
H936 H 0.4932 0.42665 0.56354 0.0
H937 H 0.51391 0.35891 0.52845 0.0
H938 H 0.52979 0.36323 0.51202 0.0
H939 H 0.4986 0.36371 0.51185 0.0
H940 H 0.49908 0.40456 0.50029 0.0
H941 H 0.53034 0.40415 0.50035 0.0
H942 H 0.51495 0.42762 0.50888 0.0
H943 H 0.53571 0.42612 0.56372 0.0
H944 H 0.57747 0.41939 0.56056 0.0
H945 H 0.56448 0.38946 0.51857 0.0
C946 C 0.47048 0.39855 0.52804 0.0
C947 C 0.45472 0.40481 0.539 0.0
C948 C 0.46316 0.41538 0.55168 0.0
C949 C 0.48686 0.41914 0.55366 0.0
C950 C 0.50199 0.41226 0.54286 0.0
C951 C 0.49426 0.40229 0.53026 0.0
C952 C 0.51454 0.39494 0.52091 0.0
C953 C 0.51418 0.36864 0.51815 0.0
C954 C 0.51474 0.40864 0.50677 0.0
C955 C 0.53476 0.40177 0.53044 0.0
C956 C 0.527 0.41192 0.54297 0.0
C957 C 0.54208 0.41849 0.55387 0.0
C958 C 0.56577 0.41446 0.552 0.0
C959 C 0.57427 0.40395 0.53931 0.0
C960 C 0.55853 0.3978 0.5283 0.0
H961 H 0.89063 0.31315 0.80173 0.0
H962 H 0.88013 0.32751 0.75646 0.0
H963 H 0.87691 0.28552 0.75172 0.0
H964 H 0.92557 0.26261 0.79713 0.0
H965 H 0.91336 0.24757 0.81229 0.0
H966 H 0.91423 0.27877 0.81212 0.0
H967 H 0.86982 0.28023 0.81628 0.0
H968 H 0.8688 0.24902 0.81644 0.0
H969 H 0.85081 0.2651 0.80413 0.0
H970 H 0.87553 0.24179 0.75189 0.0
H971 H 0.87655 0.19975 0.75693 0.0
H972 H 0.88791 0.21436 0.80209 0.0
C973 C 0.88759 0.30753 0.79082 0.0
C974 C 0.88563 0.32368 0.77947 0.0
C975 C 0.8817 0.3155 0.76534 0.0
C976 C 0.87981 0.29168 0.76254 0.0
C977 C 0.88186 0.27626 0.77397 0.0
C978 C 0.88566 0.28386 0.78783 0.0
C979 C 0.88759 0.26374 0.79818 0.0
C980 C 0.91162 0.26314 0.80535 0.0
C981 C 0.86809 0.26458 0.80942 0.0
C982 C 0.88443 0.2436 0.78797 0.0
C983 C 0.88107 0.25116 0.77407 0.0
C984 C 0.87808 0.23567 0.76275 0.0
C985 C 0.87869 0.21182 0.76572 0.0
C986 C 0.88229 0.2037 0.7799 0.0
C987 C 0.88505 0.21993 0.79113 0.0
H988 H 0.96385 0.39328 0.95828 0.0
H989 H 0.94889 0.40486 1.00335 0.0
H990 H 0.99088 0.40767 0.00834 0.0
H991 H 1.01283 0.35742 0.96348 0.0
H992 H 0.02861 0.36877 0.94836 0.0
H993 H 0.99741 0.36906 0.94827 0.0
H994 H 0.99764 0.41342 0.94378 0.0
H995 H 0.02887 0.41327 0.94384 0.0
H996 H 1.01328 0.4321 0.95589 0.0
H997 H 0.03481 0.40758 0.00848 0.0
H998 H 0.07687 0.40429 1.00376 0.0
H999 H 0.06242 0.39266 0.95862 0.0
C1000 C 0.96932 0.39663 0.96919 0.0
C1001 C 0.95302 0.39889 0.98042 0.0
C1002 C 0.96102 0.40309 0.99456 0.0
C1003 C 0.98484 0.40475 0.9975 0.0
C1004 C 1.00042 0.40222 0.98618 0.0
C1005 C 0.99295 0.3983 0.97231 0.0
C1006 C 1.01315 0.39541 0.96213 0.0
C1007 C 1.01298 0.37123 0.95516 0.0
C1008 C 1.01323 0.4147 0.95074 0.0
C1009 C 0.03319 0.39803 0.97246 0.0
C1010 C 0.02555 0.40209 0.98627 0.0
C1011 C 0.04099 0.40454 0.99768 0.0
C1012 C 0.06484 0.40263 0.9949 0.0
C1013 C 0.07301 0.39823 0.98082 0.0
C1014 C 0.05684 0.39611 0.9695 0.0
H1015 H 0.8827 0.81336 0.20804 0.0
H1016 H 0.87466 0.82876 0.25335 0.0
H1017 H 0.87185 0.78682 0.25853 0.0
H1018 H 0.84329 0.76429 0.2069 0.0
H1019 H 0.86104 0.74846 0.19436 0.0
H1020 H 0.86115 0.77969 0.19423 0.0
H1021 H 0.90581 0.77956 0.19743 0.0
H1022 H 0.90583 0.74836 0.19758 0.0
H1023 H 0.91846 0.76412 0.21233 0.0
H1024 H 0.87162 0.7428 0.25878 0.0
H1025 H 0.87428 0.70067 0.25404 0.0
H1026 H 0.88253 0.71488 0.20859 0.0
C1027 C 0.88014 0.808 0.21905 0.0
C1028 C 0.87887 0.8244 0.23028 0.0
C1029 C 0.87566 0.81654 0.24455 0.0
C1030 C 0.874 0.79275 0.24761 0.0
C1031 C 0.87554 0.77707 0.23627 0.0
C1032 C 0.87848 0.78441 0.22228 0.0
C1033 C 0.88041 0.76413 0.21208 0.0
C1034 C 0.86027 0.76415 0.20126 0.0
C1035 C 0.90403 0.76404 0.20441 0.0
C1036 C 0.87841 0.74419 0.22252 0.0
C1037 C 0.87546 0.75193 0.23642 0.0
C1038 C 0.87378 0.73655 0.24792 0.0
C1039 C 0.87532 0.71266 0.24512 0.0
C1040 C 0.8786 0.70442 0.23095 0.0
C1041 C 0.87995 0.72052 0.21955 0.0
H1042 H 0.46347 0.6351 0.4934 0.0
H1043 H 0.45166 0.60164 0.45235 0.0
H1044 H 0.49344 0.59384 0.45012 0.0
H1045 H 0.5135 0.66426 0.48316 0.0
H1046 H 0.52859 0.66129 0.49999 0.0
H1047 H 0.49741 0.66122 0.49962 0.0
H1048 H 0.49702 0.62152 0.51264 0.0
H1049 H 0.52828 0.6215 0.51307 0.0
H1050 H 0.51295 0.59748 0.50515 0.0
H1051 H 0.53592 0.59347 0.45074 0.0
H1052 H 0.57751 0.60124 0.45395 0.0
H1053 H 0.56315 0.63516 0.49455 0.0
C1054 C 0.46968 0.62562 0.48414 0.0
C1055 C 0.45435 0.61885 0.47308 0.0
C1056 C 0.46312 0.60699 0.46094 0.0
C1057 C 0.4868 0.60234 0.45962 0.0
C1058 C 0.50154 0.60966 0.47052 0.0
C1059 C 0.49344 0.62103 0.48257 0.0
C1060 C 0.5134 0.62898 0.49197 0.0
C1061 C 0.5132 0.65551 0.49378 0.0
C1062 C 0.51288 0.61663 0.50657 0.0
C1063 C 0.5339 0.62099 0.48305 0.0
C1064 C 0.52655 0.60958 0.47084 0.0
C1065 C 0.54196 0.60204 0.46036 0.0
C1066 C 0.56554 0.60664 0.46225 0.0
C1067 C 0.57354 0.61869 0.47452 0.0
C1068 C 0.55754 0.62552 0.48521 0.0
H1069 H 0.64343 0.21211 0.74177 0.0
H1070 H 0.66988 0.20018 0.6988 0.0
H1071 H 0.67642 0.24202 0.69586 0.0
H1072 H 0.61219 0.26258 0.73336 0.0
H1073 H 0.61816 0.27759 0.7499 0.0
H1074 H 0.618 0.24639 0.74951 0.0
H1075 H 0.65971 0.24559 0.75982 0.0
H1076 H 0.65998 0.27684 0.76027 0.0
H1077 H 0.68238 0.26134 0.75079 0.0
H1078 H 0.67688 0.28457 0.69642 0.0
H1079 H 0.6711 0.3263 0.70042 0.0
H1080 H 0.64436 0.31207 0.74305 0.0
C1081 C 0.65104 0.21831 0.73187 0.0
C1082 C 0.65622 0.20286 0.72052 0.0
C1083 C 0.66573 0.21166 0.70762 0.0
C1084 C 0.66963 0.2354 0.70587 0.0
C1085 C 0.66395 0.25021 0.7171 0.0
C1086 C 0.65491 0.24212 0.72988 0.0
C1087 C 0.64878 0.26213 0.73978 0.0
C1088 C 0.62274 0.26217 0.74334 0.0
C1089 C 0.6636 0.26143 0.75348 0.0
C1090 C 0.65525 0.28264 0.73039 0.0
C1091 C 0.66418 0.27522 0.71743 0.0
C1092 C 0.67019 0.29065 0.70659 0.0
C1093 C 0.66673 0.31433 0.70895 0.0
C1094 C 0.65734 0.32245 0.72206 0.0
C1095 C 0.65188 0.30638 0.73301 0.0
H1096 H 0.38214 0.31171 0.71201 0.0
H1097 H 0.37399 0.32402 0.75767 0.0
H1098 H 0.37063 0.28172 0.76167 0.0
H1099 H 0.34232 0.26305 0.70937 0.0
H1100 H 0.36011 0.24813 0.69643 0.0
H1101 H 0.3603 0.27934 0.6972 0.0
H1102 H 0.40493 0.27884 0.70049 0.0
H1103 H 0.40489 0.24766 0.69976 0.0
H1104 H 0.41745 0.2623 0.71497 0.0
H1105 H 0.3703 0.23771 0.76064 0.0
H1106 H 0.3731 0.19601 0.75475 0.0
H1107 H 0.3816 0.21343 0.70974 0.0
C1108 C 0.3794 0.30563 0.72286 0.0
C1109 C 0.3783 0.32123 0.73453 0.0
C1110 C 0.37484 0.31242 0.74856 0.0
C1111 C 0.37289 0.28843 0.75093 0.0
C1112 C 0.37434 0.27357 0.73916 0.0
C1113 C 0.37745 0.28189 0.72541 0.0
C1114 C 0.3794 0.26241 0.71462 0.0
C1115 C 0.35933 0.26329 0.70377 0.0
C1116 C 0.40307 0.26283 0.70702 0.0
C1117 C 0.37728 0.24172 0.72447 0.0
C1118 C 0.37422 0.24844 0.73857 0.0
C1119 C 0.37253 0.23226 0.74962 0.0
C1120 C 0.37416 0.20862 0.74616 0.0
C1121 C 0.37755 0.20141 0.73177 0.0
C1122 C 0.37891 0.21829 0.72084 0.0
H1123 H 0.14385 0.71401 0.20933 0.0
H1124 H 0.15199 0.70006 0.25483 0.0
H1125 H 0.15522 0.74216 0.25943 0.0
H1126 H 0.18374 0.76263 0.20749 0.0
H1127 H 0.16608 0.77816 0.19473 0.0
H1128 H 0.16571 0.74693 0.19505 0.0
H1129 H 0.12107 0.74757 0.19824 0.0
H1130 H 0.12131 0.77877 0.19797 0.0
H1131 H 0.10859 0.76364 0.21293 0.0
H1132 H 0.15564 0.78616 0.25906 0.0
H1133 H 0.1534 0.8281 0.25376 0.0
H1134 H 0.14503 0.8125 0.20849 0.0
C1135 C 0.14653 0.7197 0.22027 0.0
C1136 C 0.14769 0.70367 0.23172 0.0
C1137 C 0.15109 0.71198 0.24587 0.0
C1138 C 0.15295 0.73586 0.24859 0.0
C1139 C 0.15148 0.75117 0.23704 0.0
C1140 C 0.14842 0.74337 0.22316 0.0
C1141 C 0.14664 0.7633 0.21267 0.0
C1142 C 0.16674 0.76271 0.20185 0.0
C1143 C 0.123 0.76331 0.20501 0.0
C1144 C 0.14884 0.7836 0.22282 0.0
C1145 C 0.15174 0.77631 0.23683 0.0
C1146 C 0.15353 0.79205 0.24812 0.0
C1147 C 0.15221 0.81584 0.245 0.0
C1148 C 0.14907 0.82365 0.2307 0.0
C1149 C 0.14755 0.80719 0.21952 0.0
H1150 H 0.14551 0.21413 0.79763 0.0
H1151 H 0.15212 0.19887 0.75222 0.0
H1152 H 0.15409 0.2409 0.74703 0.0
H1153 H 0.10876 0.26248 0.79396 0.0
H1154 H 0.12161 0.27849 0.80853 0.0
H1155 H 0.12233 0.2473 0.80865 0.0
H1156 H 0.16708 0.24809 0.81116 0.0
H1157 H 0.1665 0.27932 0.8111 0.0
H1158 H 0.1841 0.26394 0.79826 0.0
H1159 H 0.15332 0.28504 0.74687 0.0
H1160 H 0.15013 0.32709 0.75175 0.0
H1161 H 0.14391 0.31248 0.79728 0.0
C1162 C 0.14762 0.21952 0.78658 0.0
C1163 C 0.14869 0.20314 0.77533 0.0
C1164 C 0.15131 0.21106 0.76103 0.0
C1165 C 0.15246 0.2349 0.75798 0.0
C1166 C 0.15104 0.25055 0.76935 0.0
C1167 C 0.14877 0.24312 0.78337 0.0
C1168 C 0.1468 0.26331 0.79364 0.0
C1169 C 0.12349 0.26286 0.80166 0.0
C1170 C 0.16735 0.26368 0.80416 0.0
C1171 C 0.14796 0.28333 0.78321 0.0
C1172 C 0.15054 0.27571 0.76925 0.0
C1173 C 0.15145 0.29118 0.75777 0.0
C1174 C 0.14959 0.31503 0.76065 0.0
C1175 C 0.14678 0.32315 0.7749 0.0
C1176 C 0.14611 0.30695 0.78626 0.0
H1177 H 0.38369 0.71303 0.26745 0.0
H1178 H 0.35621 0.70028 0.31006 0.0
H1179 H 0.3498 0.7421 0.31333 0.0
H1180 H 0.41517 0.76255 0.27662 0.0
H1181 H 0.40981 0.77821 0.26021 0.0
H1182 H 0.40947 0.74701 0.26022 0.0
H1183 H 0.36799 0.74734 0.24956 0.0
H1184 H 0.36822 0.7786 0.24948 0.0
H1185 H 0.34537 0.76325 0.25859 0.0
H1186 H 0.34997 0.7846 0.31326 0.0
H1187 H 0.3568 0.8263 0.30989 0.0
H1188 H 0.38424 0.81292 0.26732 0.0
C1189 C 0.37583 0.71906 0.27731 0.0
C1190 C 0.37036 0.70341 0.28848 0.0
C1191 C 0.36058 0.71195 0.30137 0.0
C1192 C 0.35674 0.73567 0.30331 0.0
C1193 C 0.36277 0.75069 0.29226 0.0
C1194 C 0.37204 0.74285 0.27949 0.0
C1195 C 0.37872 0.76303 0.26988 0.0
C1196 C 0.40484 0.76267 0.26654 0.0
C1197 C 0.3642 0.76305 0.25606 0.0
C1198 C 0.37235 0.78334 0.27946 0.0
C1199 C 0.36293 0.7757 0.29224 0.0
C1200 C 0.35702 0.79087 0.30324 0.0
C1201 C 0.36108 0.81452 0.30123 0.0
C1202 C 0.37098 0.82285 0.28833 0.0
C1203 C 0.37633 0.80706 0.2772 0.0
H1204 H 0.46544 0.13584 0.55188 0.0
H1205 H 0.44974 0.12488 0.50682 0.0
H1206 H 0.49163 0.12344 0.50145 0.0
H1207 H 0.51361 0.173 0.54663 0.0
H1208 H 0.53003 0.16151 0.56148 0.0
H1209 H 0.49884 0.16067 0.56186 0.0
H1210 H 0.50008 0.1162 0.56586 0.0
H1211 H 0.53129 0.11691 0.56553 0.0
H1212 H 0.5158 0.09815 0.55342 0.0
H1213 H 0.53532 0.1247 0.50088 0.0
H1214 H 0.57744 0.12786 0.50526 0.0
H1215 H 0.56417 0.1378 0.5507 0.0
C1216 C 0.47075 0.13296 0.54089 0.0
C1217 C 0.45426 0.13047 0.52978 0.0
C1218 C 0.46202 0.12682 0.51553 0.0
C1219 C 0.48578 0.12596 0.51236 0.0
C1220 C 0.50154 0.12872 0.52356 0.0
C1221 C 0.49434 0.13204 0.53754 0.0
C1222 C 0.51475 0.13499 0.54757 0.0
C1223 C 0.51427 0.15897 0.5548 0.0
C1224 C 0.51552 0.11539 0.55875 0.0
C1225 C 0.53457 0.13301 0.53703 0.0
C1226 C 0.52663 0.12936 0.52324 0.0
C1227 C 0.54176 0.12744 0.51165 0.0
C1228 C 0.56565 0.1293 0.51425 0.0
C1229 C 0.57415 0.13305 0.52833 0.0
C1230 C 0.55829 0.13485 0.53982 0.0
H1231 H 0.96441 0.89296 0.05157 0.0
H1232 H 0.95003 0.9052 0.00646 0.0
H1233 H 0.99206 0.90802 1.00173 0.0
H1234 H 1.01377 0.9318 0.05438 0.0
H1235 H 0.0293 0.91288 0.06642 0.0
H1236 H 0.99807 0.91294 0.06633 0.0
H1237 H 0.99804 0.86863 0.06166 0.0
H1238 H 0.02924 0.86844 0.06171 0.0
H1239 H 1.01365 0.85722 0.04647 0.0
H1240 H 0.03582 0.9079 1.00178 0.0
H1241 H 0.07782 0.9049 0.00664 0.0
H1242 H 0.0632 0.89276 0.0517 0.0
C1243 C 0.97002 0.89643 0.0407 0.0
C1244 C 0.95386 0.89888 0.02939 0.0
C1245 C 0.96204 0.90328 0.01532 0.0
C1246 C 0.98589 0.90494 0.01252 0.0
C1247 C 1.00132 0.90222 0.0239 0.0
C1248 C 0.99371 0.89812 0.03771 0.0
C1249 C 1.01383 0.89519 0.04798 0.0
C1250 C 1.01373 0.91435 0.05945 0.0
C1251 C 1.01367 0.87093 0.05485 0.0
C1252 C 0.03399 0.898 0.03776 0.0
C1253 C 0.02644 0.90215 0.02393 0.0
C1254 C 0.04193 0.90479 0.01259 0.0
C1255 C 0.06576 0.90302 0.01545 0.0
C1256 C 0.07387 0.89862 0.02955 0.0
C1257 C 0.05765 0.89624 0.04082 0.0
H1258 H 0.46391 0.8938 0.49219 0.0
H1259 H 0.4508 0.92051 0.44939 0.0
H1260 H 0.49253 0.92709 0.44604 0.0
H1261 H 0.51364 0.93273 0.50071 0.0
H1262 H 0.52928 0.9102 0.51001 0.0
H1263 H 0.49803 0.91015 0.50993 0.0
H1264 H 0.49822 0.86844 0.49962 0.0
H1265 H 0.52941 0.86839 0.49963 0.0
H1266 H 0.51382 0.86255 0.48327 0.0
H1267 H 0.53503 0.9271 0.44606 0.0
H1268 H 0.57682 0.92071 0.4495 0.0
H1269 H 0.56379 0.8942 0.49233 0.0
C1270 C 0.46983 0.90152 0.48226 0.0
C1271 C 0.4541 0.9067 0.47106 0.0
C1272 C 0.46252 0.91634 0.4581 0.0
C1273 C 0.48619 0.92027 0.45612 0.0
C1274 C 0.5013 0.91452 0.46719 0.0
C1275 C 0.49357 0.90544 0.48004 0.0
C1276 C 0.51384 0.89914 0.4897 0.0
C1277 C 0.51368 0.91395 0.5034 0.0
C1278 C 0.51381 0.87308 0.49326 0.0
C1279 C 0.53406 0.9055 0.48007 0.0
C1280 C 0.5263 0.91456 0.46721 0.0
C1281 C 0.54139 0.92035 0.45615 0.0
C1282 C 0.56509 0.91654 0.45819 0.0
C1283 C 0.57355 0.90705 0.4712 0.0
C1284 C 0.55783 0.90182 0.48237 0.0
H1285 H 0.06289 0.13438 0.95888 0.0
H1286 H 0.07711 0.12262 1.00404 0.0
H1287 H 0.03504 0.11945 0.00868 0.0
H1288 H 1.01354 0.16976 0.96368 0.0
H1289 H 0.99817 0.15833 0.94841 0.0
H1290 H 0.02937 0.15832 0.94859 0.0
H1291 H 0.02965 0.11396 0.94407 0.0
H1292 H 0.99842 0.11384 0.94384 0.0
H1293 H 0.01392 0.09511 0.95601 0.0
H1294 H 0.9911 0.11941 0.00845 0.0
H1295 H 0.94913 0.12226 1.00336 0.0
H1296 H 0.96434 0.13396 0.95833 0.0
C1297 C 0.05726 0.13093 0.96974 0.0
C1298 C 0.07336 0.12873 0.98109 0.0
C1299 C 0.06513 0.12434 0.99516 0.0
C1300 C 0.04126 0.12249 0.99789 0.0
C1301 C 0.02589 0.125 0.98645 0.0
C1302 C 0.03359 0.12904 0.97265 0.0
C1303 C 1.01358 0.13177 0.96229 0.0
C1304 C 1.01368 0.15598 0.95534 0.0
C1305 C 0.01392 0.11252 0.95088 0.0
C1306 C 0.99336 0.12894 0.97244 0.0
C1307 C 1.00075 0.12494 0.98632 0.0
C1308 C 0.98512 0.12238 0.9976 0.0
C1309 C 0.96131 0.12406 0.9946 0.0
C1310 C 0.95339 0.1283 0.98044 0.0
C1311 C 0.96975 0.1306 0.96926 0.0
H1312 H 0.16403 0.45845 0.01353 0.0
H1313 H 0.18266 0.46151 0.9685 0.0
H1314 H 0.1896 0.50361 0.97076 0.0
H1315 H 0.13224 0.50954 0.01401 0.0
H1316 H 0.14093 0.51853 0.03173 0.0
H1317 H 0.14074 0.48823 0.02716 0.0
H1318 H 0.18396 0.48483 0.03445 0.0
H1319 H 0.18427 0.51517 0.03908 0.0
H1320 H 0.20498 0.5039 0.02639 0.0
H1321 H 0.19 0.54598 0.97715 0.0
H1322 H 0.18374 0.58515 0.98711 0.0
H1323 H 0.16498 0.55491 0.02808 0.0
C1324 C 0.17022 0.46784 1.00423 0.0
C1325 C 0.17304 0.45655 0.99085 0.0
C1326 C 0.18056 0.46966 0.97888 0.0
C1327 C 0.18457 0.49362 0.98007 0.0
C1328 C 0.18107 0.5043 0.99332 0.0
C1329 C 0.17418 0.4918 0.00522 0.0
C1330 C 0.16972 0.50774 0.0179 0.0
C1331 C 0.14441 0.5059 0.02299 0.0
C1332 C 0.18675 0.5026 0.03018 0.0
C1333 C 0.17456 0.5312 0.01117 0.0
C1334 C 0.18132 0.52879 0.99702 0.0
C1335 C 0.1851 0.54803 0.98828 0.0
C1336 C 0.18148 0.57025 0.99404 0.0
C1337 C 0.17415 0.57317 0.00843 0.0
C1338 C 0.17112 0.55331 0.01715 0.0
H1339 H 0.80488 0.91205 0.22877 0.0
H1340 H 0.83565 0.93525 0.2687 0.0
H1341 H 0.79658 0.94097 0.27894 0.0
H1342 H 0.75237 0.9501 0.22979 0.0
H1343 H 0.73402 0.92761 0.22265 0.0
H1344 H 0.7642 0.92876 0.2177 0.0
H1345 H 0.7696 0.88642 0.22638 0.0
H1346 H 0.73953 0.88517 0.2314 0.0
H1347 H 0.76167 0.87886 0.24449 0.0
H1348 H 0.75444 0.93996 0.28582 0.0
H1349 H 0.7127 0.93184 0.28885 0.0
H1350 H 0.70897 0.90874 0.24463 0.0
C1351 C 0.80337 0.91907 0.2395 0.0
C1352 C 0.82337 0.92354 0.24786 0.0
C1353 C 0.82063 0.93192 0.26204 0.0
C1354 C 0.79847 0.93525 0.26795 0.0
C1355 C 0.77912 0.93008 0.25958 0.0
C1356 C 0.78133 0.92224 0.24564 0.0
C1357 C 0.75785 0.91583 0.23942 0.0
C1358 C 0.75175 0.93151 0.22663 0.0
C1359 C 0.75713 0.89004 0.23518 0.0
C1360 C 0.74219 0.92075 0.25215 0.0
C1361 C 0.75477 0.92922 0.26362 0.0
C1362 C 0.74436 0.93367 0.27684 0.0
C1363 C 0.7206 0.92899 0.27847 0.0
C1364 C 0.7074 0.91986 0.26696 0.0
C1365 C 0.71839 0.91611 0.25357 0.0
H1366 H 0.36939 0.45791 0.49566 0.0
H1367 H 0.3501 0.46138 0.54058 0.0
H1368 H 0.34358 0.50352 0.53821 0.0
H1369 H 0.40123 0.50891 0.49494 0.0
H1370 H 0.39248 0.5178 0.47721 0.0
H1371 H 0.39267 0.48753 0.48187 0.0
H1372 H 0.34944 0.48423 0.47466 0.0
H1373 H 0.34912 0.51454 0.46992 0.0
H1374 H 0.32845 0.50346 0.48267 0.0
H1375 H 0.34412 0.5459 0.53184 0.0
H1376 H 0.35049 0.58499 0.52172 0.0
H1377 H 0.36822 0.55431 0.48072 0.0
C1378 C 0.36319 0.4674 0.50491 0.0
C1379 C 0.3601 0.45619 0.5183 0.0
C1380 C 0.35243 0.46944 0.53019 0.0
C1381 C 0.34867 0.49344 0.52895 0.0
C1382 C 0.35245 0.50403 0.51571 0.0
C1383 C 0.35932 0.4914 0.50385 0.0
C1384 C 0.36373 0.50722 0.49111 0.0
C1385 C 0.38903 0.50525 0.48599 0.0
C1386 C 0.34666 0.50205 0.47887 0.0
C1387 C 0.35893 0.53076 0.49777 0.0
C1388 C 0.35231 0.52851 0.51195 0.0
C1389 C 0.34882 0.54785 0.52067 0.0
C1390 C 0.3525 0.57 0.51483 0.0
C1391 C 0.35945 0.57275 0.50037 0.0
C1392 C 0.36227 0.55281 0.49169 0.0
H1393 H 0.81891 0.11154 0.74753 0.0
H1394 H 0.81369 0.10079 0.79348 0.0
H1395 H 0.77128 0.09633 0.79115 0.0
H1396 H 0.76985 0.14609 0.74417 0.0
H1397 H 0.76073 0.13481 0.72706 0.0
H1398 H 0.79088 0.13402 0.73197 0.0
H1399 H 0.79181 0.08963 0.72776 0.0
H1400 H 0.76161 0.09029 0.72277 0.0
H1401 H 0.77129 0.07137 0.73696 0.0
H1402 H 0.7291 0.09792 0.78432 0.0
H1403 H 0.69058 0.10446 0.77343 0.0
H1404 H 0.72283 0.11339 0.7318 0.0
C1405 C 0.80895 0.10761 0.75706 0.0
C1406 C 0.81976 0.10632 0.77069 0.0
C1407 C 0.80593 0.10168 0.78291 0.0
C1408 C 0.78178 0.09911 0.78169 0.0
C1409 C 0.77162 0.10109 0.76816 0.0
C1410 C 0.78479 0.10502 0.75603 0.0
C1411 C 0.76944 0.1081 0.74292 0.0
C1412 C 0.77294 0.13218 0.73614 0.0
C1413 C 0.7738 0.08869 0.73195 0.0
C1414 C 0.74556 0.10592 0.74962 0.0
C1415 C 0.74723 0.10172 0.76419 0.0
C1416 C 0.7276 0.10078 0.77289 0.0
C1417 C 0.70577 0.10455 0.7666 0.0
C1418 C 0.70361 0.1091 0.75173 0.0
C1419 C 0.72383 0.10937 0.74313 0.0
H1420 H 0.86188 0.5689 0.99395 0.0
H1421 H 0.84573 0.56539 0.03933 0.0
H1422 H 0.83909 0.52323 0.03711 0.0
H1423 H 0.82076 0.52304 0.98181 0.0
H1424 H 0.84093 0.51207 0.96869 0.0
H1425 H 0.84113 0.54239 0.97338 0.0
H1426 H 0.88474 0.53945 0.97978 0.0
H1427 H 0.88466 0.50917 0.97517 0.0
H1428 H 0.89417 0.51818 0.99272 0.0
H1429 H 0.83878 0.48091 0.03064 0.0
H1430 H 0.84493 0.44186 0.02049 0.0
H1431 H 0.86121 0.47249 0.97922 0.0
C1432 C 0.85627 0.5594 1.00334 0.0
C1433 C 0.85407 0.57058 0.0168 0.0
C1434 C 0.84734 0.55732 0.02889 0.0
C1435 C 0.8435 0.53334 0.02773 0.0
C1436 C 0.8464 0.52277 0.01439 0.0
C1437 C 0.85251 0.53539 1.00238 0.0
C1438 C 0.85648 0.51957 0.98959 0.0
C1439 C 0.83877 0.52457 0.97766 0.0
C1440 C 0.8815 0.52172 0.98399 0.0
C1441 C 0.85227 0.49602 0.99636 0.0
C1442 C 0.84623 0.49828 0.01064 0.0
C1443 C 0.84312 0.47896 0.01942 0.0
C1444 C 0.84667 0.45681 0.01354 0.0
C1445 C 0.85327 0.45403 0.99901 0.0
C1446 C 0.85564 0.47397 0.99027 0.0
H1447 H 0.22244 0.11097 0.77743 0.0
H1448 H 0.19137 0.09405 0.73638 0.0
H1449 H 0.23027 0.08726 0.72619 0.0
H1450 H 0.26814 0.14304 0.7636 0.0
H1451 H 0.28945 0.13378 0.77654 0.0
H1452 H 0.25922 0.13392 0.78125 0.0
H1453 H 0.26165 0.09042 0.78803 0.0
H1454 H 0.29198 0.09016 0.78338 0.0
H1455 H 0.27242 0.06983 0.7751 0.0
H1456 H 0.27258 0.08683 0.71963 0.0
H1457 H 0.31482 0.09279 0.71729 0.0
H1458 H 0.31878 0.10993 0.76253 0.0
C1459 C 0.22379 0.10514 0.76643 0.0
C1460 C 0.20377 0.10278 0.75776 0.0
C1461 C 0.20638 0.0958 0.74328 0.0
C1462 C 0.22845 0.09187 0.73739 0.0
C1463 C 0.24786 0.09495 0.74609 0.0
C1464 C 0.24577 0.1013 0.76033 0.0
C1465 C 0.26943 0.10541 0.767 0.0
C1466 C 0.27168 0.13053 0.77241 0.0
C1467 C 0.27415 0.08791 0.77909 0.0
C1468 C 0.2851 0.10098 0.75421 0.0
C1469 C 0.27232 0.09473 0.74229 0.0
C1470 C 0.28279 0.09133 0.72896 0.0
C1471 C 0.30683 0.09476 0.72773 0.0
C1472 C 0.32025 0.10155 0.73974 0.0
C1473 C 0.30916 0.10425 0.75319 0.0
H1474 H 0.65874 0.47053 0.5301 0.0
H1475 H 0.67543 0.44086 0.48865 0.0
H1476 H 0.68167 0.48019 0.47886 0.0
H1477 H 0.62574 0.51652 0.51659 0.0
H1478 H 0.63468 0.53746 0.52983 0.0
H1479 H 0.63483 0.50706 0.53416 0.0
H1480 H 0.67822 0.50961 0.54112 0.0
H1481 H 0.67819 0.5401 0.53683 0.0
H1482 H 0.6988 0.52095 0.52839 0.0
H1483 H 0.68274 0.52284 0.47296 0.0
H1484 H 0.6771 0.56519 0.47117 0.0
H1485 H 0.65856 0.56757 0.51625 0.0
C1486 C 0.66438 0.4723 0.51909 0.0
C1487 C 0.66698 0.45254 0.5102 0.0
C1488 C 0.67357 0.45567 0.4957 0.0
C1489 C 0.67719 0.47798 0.49005 0.0
C1490 C 0.67401 0.49712 0.49899 0.0
C1491 C 0.66773 0.49452 0.51321 0.0
C1492 C 0.66332 0.51797 0.52014 0.0
C1493 C 0.63815 0.51985 0.52549 0.0
C1494 C 0.68067 0.52241 0.53234 0.0
C1495 C 0.66767 0.53411 0.50755 0.0
C1496 C 0.67411 0.52174 0.4955 0.0
C1497 C 0.67795 0.53271 0.48238 0.0
C1498 C 0.67472 0.55684 0.48147 0.0
C1499 C 0.66756 0.56988 0.49357 0.0
C1500 C 0.66439 0.55826 0.50683 0.0
H1501 H 0.22359 0.91047 0.22849 0.0
H1502 H 0.19343 0.93528 0.26822 0.0
H1503 H 0.23266 0.94118 0.2782 0.0
H1504 H 0.267 0.87764 0.24448 0.0
H1505 H 0.28896 0.88336 0.2312 0.0
H1506 H 0.25882 0.88456 0.2263 0.0
H1507 H 0.26413 0.92653 0.217 0.0
H1508 H 0.29439 0.92543 0.22182 0.0
H1509 H 0.27617 0.94826 0.22873 0.0
H1510 H 0.2749 0.94032 0.28487 0.0
H1511 H 0.31668 0.93218 0.28782 0.0
H1512 H 0.31975 0.90726 0.24395 0.0
C1513 C 0.22526 0.91787 0.23911 0.0
C1514 C 0.20539 0.92276 0.2475 0.0
C1515 C 0.20836 0.93163 0.26155 0.0
C1516 C 0.2306 0.93507 0.2673 0.0
C1517 C 0.24983 0.92949 0.25892 0.0
C1518 C 0.2474 0.92114 0.2451 0.0
C1519 C 0.27079 0.91439 0.23887 0.0
C1520 C 0.27142 0.88845 0.23499 0.0
C1521 C 0.27672 0.92957 0.22583 0.0
C1522 C 0.28664 0.91971 0.25145 0.0
C1523 C 0.27423 0.92868 0.26285 0.0
C1524 C 0.28484 0.93362 0.27594 0.0
C1525 C 0.30862 0.92892 0.27752 0.0
C1526 C 0.32165 0.91927 0.2661 0.0
C1527 C 0.31046 0.91502 0.25283 0.0
H1528 H 0.65979 0.05809 0.52957 0.0
H1529 H 0.68442 0.08718 0.4895 0.0
H1530 H 0.69004 0.04768 0.47986 0.0
H1531 H 0.69743 1.00548 0.52979 0.0
H1532 H 0.6747 0.98743 0.53691 0.0
H1533 H 0.67569 0.01782 0.5414 0.0
H1534 H 0.63369 0.02287 0.53206 0.0
H1535 H 0.6326 0.99258 0.5275 0.0
H1536 H 0.62675 0.01417 0.51399 0.0
H1537 H 0.68938 1.00515 0.47366 0.0
H1538 H 0.68181 0.9632 0.47125 0.0
H1539 H 0.65689 0.96131 0.51514 0.0
C1540 C 0.66704 0.05612 0.51893 0.0
C1541 C 0.67201 0.07581 0.51037 0.0
C1542 C 0.68071 0.07244 0.49632 0.0
C1543 C 0.68398 0.05002 0.49075 0.0
C1544 C 0.67839 0.031 0.49931 0.0
C1545 C 0.67015 0.0338 0.51313 0.0
C1546 C 0.66352 1.01055 0.51961 0.0
C1547 C 0.67875 1.005 0.5327 0.0
C1548 C 0.6376 1.01002 0.52351 0.0
C1549 C 0.66886 0.99433 0.5072 0.0
C1550 C 0.67768 1.00646 0.49565 0.0
C1551 C 0.68276 0.99545 0.4827 0.0
C1552 C 0.6784 0.97156 0.48144 0.0
C1553 C 0.66894 0.95878 0.49302 0.0
C1554 C 0.66449 0.9704 0.50614 0.0
H1555 H 0.22116 0.41294 0.77844 0.0
H1556 H 0.19278 0.43122 0.73685 0.0
H1557 H 0.23238 0.43709 0.72753 0.0
H1558 H 0.27197 0.45289 0.77741 0.0
H1559 H 0.29069 0.43204 0.78601 0.0
H1560 H 0.26011 0.43234 0.78998 0.0
H1561 H 0.25734 0.38901 0.78291 0.0
H1562 H 0.28783 0.38859 0.77888 0.0
H1563 H 0.26712 0.37994 0.76543 0.0
H1564 H 0.27507 0.43666 0.72189 0.0
H1565 H 0.31735 0.43011 0.72048 0.0
H1566 H 0.31844 0.41222 0.76567 0.0
C1567 C 0.22325 0.41885 0.7675 0.0
C1568 C 0.20376 0.42188 0.75843 0.0
C1569 C 0.20736 0.42896 0.74405 0.0
C1570 C 0.22983 0.43236 0.73865 0.0
C1571 C 0.24868 0.42866 0.74774 0.0
C1572 C 0.24565 0.42218 0.76189 0.0
C1573 C 0.26885 0.41749 0.76906 0.0
C1574 C 0.27316 0.43472 0.78134 0.0
C1575 C 0.27036 0.39226 0.77437 0.0
C1576 C 0.28535 0.42177 0.75664 0.0
C1577 C 0.27336 0.42841 0.74448 0.0
C1578 C 0.28466 0.43184 0.73142 0.0
C1579 C 0.30872 0.42806 0.73071 0.0
C1580 C 0.32136 0.42092 0.74298 0.0
C1581 C 0.30944 0.41815 0.75616 0.0
H1582 H 0.86174 0.97307 0.02886 0.0
H1583 H 0.84596 0.9412 0.98788 0.0
H1584 H 0.83945 0.97992 0.97731 0.0
H1585 H 0.82085 0.02321 0.02566 0.0
H1586 H 0.84106 0.04285 0.03399 0.0
H1587 H 0.84104 1.01261 0.0389 0.0
H1588 H 0.88469 1.00982 0.03262 0.0
H1589 H 0.88483 0.03995 0.02764 0.0
H1590 H 0.89432 0.0183 0.01499 0.0
H1591 H 0.83917 0.02206 0.97041 0.0
H1592 H 0.84538 0.06422 0.96775 0.0
H1593 H 0.86157 0.06909 0.0131 0.0
C1594 C 0.85619 0.97422 0.01778 0.0
C1595 C 0.85407 0.95403 0.00925 0.0
C1596 C 0.84751 0.95636 0.99467 0.0
C1597 C 0.84373 0.97831 0.98856 0.0
C1598 C 0.84658 0.99789 0.99715 0.0
C1599 C 0.85256 0.99607 0.01147 0.0
C1600 C 0.85662 0.01986 0.01798 0.0
C1601 C 0.83883 0.02493 0.02983 0.0
C1602 C 0.8816 0.0221 0.02364 0.0
C1603 C 0.85261 0.03527 0.005 0.0
C1604 C 0.84657 0.02227 0.99313 0.0
C1605 C 0.84352 0.03245 0.97969 0.0
C1606 C 0.8471 0.05645 0.97827 0.0
C1607 C 0.85373 0.07009 0.99022 0.0
C1608 C 0.85607 0.05929 1.0038 0.0
H1609 H 0.31778 0.61849 0.24478 0.0
H1610 H 0.31531 0.59453 0.28887 0.0
H1611 H 0.27346 0.58664 0.28625 0.0
H1612 H 0.26573 0.64857 0.24545 0.0
H1613 H 0.25703 0.64152 0.22741 0.0
H1614 H 0.28729 0.64217 0.23202 0.0
H1615 H 0.29206 0.59994 0.22302 0.0
H1616 H 0.26175 0.59918 0.21832 0.0
H1617 H 0.27366 0.57751 0.23016 0.0
H1618 H 0.23112 0.58614 0.27988 0.0
H1619 H 0.19177 0.59241 0.27015 0.0
H1620 H 0.22142 0.61596 0.22999 0.0
C1621 C 0.3086 0.61096 0.25377 0.0
C1622 C 0.31997 0.60694 0.26702 0.0
C1623 C 0.30711 0.5976 0.27859 0.0
C1624 C 0.28329 0.59304 0.2772 0.0
C1625 C 0.2725 0.59776 0.26412 0.0
C1626 C 0.28478 0.60634 0.25256 0.0
C1627 C 0.26872 0.61165 0.24006 0.0
C1628 C 0.26976 0.63751 0.23601 0.0
C1629 C 0.27439 0.59614 0.22712 0.0
C1630 C 0.24542 0.60537 0.24653 0.0
C1631 C 0.24803 0.59721 0.26038 0.0
C1632 C 0.22891 0.59207 0.26896 0.0
C1633 C 0.2066 0.59571 0.26334 0.0
C1634 C 0.20348 0.60433 0.24924 0.0
C1635 C 0.22322 0.60876 0.24066 0.0
H1636 H 0.36185 0.06802 0.49776 0.0
H1637 H 0.35059 0.06291 0.54365 0.0
H1638 H 0.34616 0.02049 0.54137 0.0
H1639 H 0.32185 0.02025 0.48705 0.0
H1640 H 0.34098 1.01059 0.47297 0.0
H1641 H 0.34017 0.0408 0.47792 0.0
H1642 H 0.38449 0.04002 0.48235 0.0
H1643 H 0.38543 1.00985 0.4775 0.0
H1644 H 0.39648 0.01907 0.49466 0.0
H1645 H 0.34798 0.97827 0.53462 0.0
H1646 H 0.35489 0.93975 0.52384 0.0
H1647 H 0.36417 0.97191 0.4822 0.0
C1648 C 0.35779 0.05808 0.50728 0.0
C1649 C 0.35637 0.06893 0.52089 0.0
C1650 C 0.35158 0.05512 0.53311 0.0
C1651 C 0.34903 0.03096 0.53191 0.0
C1652 C 0.35116 0.02077 0.51841 0.0
C1653 C 0.35523 0.03391 0.50627 0.0
C1654 C 0.35851 0.01853 0.4932 0.0
C1655 C 0.33922 0.0228 0.48213 0.0
C1656 C 0.38266 0.02208 0.48654 0.0
C1657 C 0.35632 0.99467 0.49994 0.0
C1658 C 0.35192 0.99636 0.51447 0.0
C1659 C 0.35098 0.97675 0.5232 0.0
C1660 C 0.35496 0.95491 0.51698 0.0
C1661 C 0.35973 0.95274 0.50214 0.0
C1662 C 0.35998 0.97292 0.4935 0.0
H1663 H 0.72064 0.61301 0.27604 0.0
H1664 H 0.69015 0.6029 0.23399 0.0
H1665 H 0.7291 0.59617 0.22382 0.0
H1666 H 0.76739 0.64554 0.2643 0.0
H1667 H 0.78816 0.63404 0.2769 0.0
H1668 H 0.75783 0.63433 0.28134 0.0
H1669 H 0.75902 0.59003 0.28589 0.0
H1670 H 0.78945 0.58961 0.28149 0.0
H1671 H 0.76961 0.57095 0.27204 0.0
H1672 H 0.77155 0.59498 0.21767 0.0
H1673 H 0.81397 0.60009 0.21598 0.0
H1674 H 0.8172 0.61152 0.26194 0.0
C1675 C 0.72211 0.60863 0.26479 0.0
C1676 C 0.70227 0.60815 0.25585 0.0
C1677 C 0.70503 0.60315 0.24108 0.0
C1678 C 0.72712 0.59926 0.2352 0.0
C1679 C 0.74638 0.60047 0.24421 0.0
C1680 C 0.7441 0.60495 0.25871 0.0
C1681 C 0.76769 0.60756 0.26577 0.0
C1682 C 0.77041 0.6318 0.27246 0.0
C1683 C 0.77167 0.58839 0.27696 0.0
C1684 C 0.78354 0.60445 0.25292 0.0
C1685 C 0.77092 0.60007 0.24062 0.0
C1686 C 0.78163 0.59805 0.22727 0.0
C1687 C 0.80577 0.60099 0.22642 0.0
C1688 C 0.81904 0.606 0.23883 0.0
C1689 C 0.80769 0.60729 0.25227 0.0
H1690 H 0.1652 0.9726 0.02976 0.0
H1691 H 0.1822 0.94125 0.98881 0.0
H1692 H 0.18853 0.98012 0.97844 0.0
H1693 H 0.13242 0.01771 0.01576 0.0
H1694 H 0.14139 0.0393 0.02858 0.0
H1695 H 0.14176 1.00913 0.03344 0.0
H1696 H 0.18524 1.01218 0.04014 0.0
H1697 H 0.18498 0.04247 0.03534 0.0
H1698 H 0.2056 0.02307 0.02713 0.0
H1699 H 0.18853 0.02234 0.97171 0.0
H1700 H 0.18198 0.06449 0.96917 0.0
H1701 H 0.16468 0.06876 0.01437 0.0
C1702 C 0.17098 0.9739 0.01874 0.0
C1703 C 0.1735 0.95382 0.01015 0.0
C1704 C 0.18035 0.95633 0.99564 0.0
C1705 C 0.18402 0.97837 0.98965 0.0
C1706 C 0.18077 0.99784 0.99828 0.0
C1707 C 0.17451 0.99584 0.01254 0.0
C1708 C 0.17004 0.01953 0.0191 0.0
C1709 C 0.14491 0.02152 0.02453 0.0
C1710 C 0.18751 0.02461 0.03114 0.0
C1711 C 0.17416 0.03509 0.00622 0.0
C1712 C 0.1806 0.02225 0.99436 0.0
C1713 C 0.18386 0.0326 0.98099 0.0
C1714 C 0.18007 0.05659 0.97964 0.0
C1715 C 0.17304 0.07006 0.99158 0.0
C1716 C 0.17048 0.0591 0.00508 0.0
H1717 H 0.82125 0.41493 0.74774 0.0
H1718 H 0.81766 0.42505 0.79379 0.0
H1719 H 0.77508 0.42867 0.79216 0.0
H1720 H 0.77235 0.45432 0.73811 0.0
H1721 H 0.76248 0.43542 0.72398 0.0
H1722 H 0.79285 0.43652 0.72851 0.0
H1723 H 0.79297 0.39208 0.7325 0.0
H1724 H 0.76265 0.39085 0.72807 0.0
H1725 H 0.7727 0.37949 0.74498 0.0
H1726 H 0.73265 0.42646 0.78598 0.0
H1727 H 0.69381 0.41966 0.77565 0.0
H1728 H 0.72448 0.41176 0.73348 0.0
C1729 C 0.81159 0.41855 0.75744 0.0
C1730 C 0.82294 0.41991 0.7709 0.0
C1731 C 0.80949 0.42412 0.78335 0.0
C1732 C 0.78524 0.4262 0.78252 0.0
C1733 C 0.77457 0.42417 0.76915 0.0
C1734 C 0.78732 0.42064 0.7568 0.0
C1735 C 0.77148 0.41748 0.74391 0.0
C1736 C 0.775 0.43711 0.73298 0.0
C1737 C 0.77517 0.39356 0.73696 0.0
C1738 C 0.74784 0.41918 0.751 0.0
C1739 C 0.75003 0.42318 0.76555 0.0
C1740 C 0.73073 0.42374 0.77456 0.0
C1741 C 0.70871 0.41982 0.76859 0.0
C1742 C 0.706 0.4155 0.75372 0.0
C1743 C 0.72588 0.41558 0.74481 0.0
H1744 H 0.16139 0.81198 0.05206 0.0
H1745 H 0.17934 0.82831 0.00803 0.0
H1746 H 0.18574 0.78653 1.00323 0.0
H1747 H 0.20192 0.7627 0.05677 0.0
H1748 H 0.18129 0.74686 0.06746 0.0
H1749 H 0.1813 0.77811 0.06775 0.0
H1750 H 0.13788 0.77837 0.06057 0.0
H1751 H 0.13776 0.74721 0.06022 0.0
H1752 H 0.12885 0.76331 0.04458 0.0
H1753 H 0.18581 0.74191 1.00276 0.0
H1754 H 0.17936 0.69989 0.00665 0.0
H1755 H 0.16144 0.71385 0.05101 0.0
C1756 C 0.1672 0.80694 0.04147 0.0
C1757 C 0.16996 0.82359 0.03045 0.0
C1758 C 0.17728 0.816 0.0167 0.0
C1759 C 0.18094 0.79226 0.01388 0.0
C1760 C 0.17741 0.77628 0.02493 0.0
C1761 C 0.17087 0.78343 0.03848 0.0
C1762 C 0.16645 0.76296 0.04827 0.0
C1763 C 0.18378 0.76265 0.0608 0.0
C1764 C 0.14124 0.76297 0.05372 0.0
C1765 C 0.17084 0.74308 0.03803 0.0
C1766 C 0.17741 0.75097 0.02465 0.0
C1767 C 0.181 0.7356 0.01327 0.0
C1768 C 0.17734 0.71171 0.01559 0.0
C1769 C 0.16998 0.7034 0.02915 0.0
C1770 C 0.16725 0.71944 0.04052 0.0
H1771 H 0.56357 0.9074 0.3013 0.0
H1772 H 0.57895 0.91832 0.25626 0.0
H1773 H 0.53703 0.923 0.2513 0.0
H1774 H 0.51437 0.87329 0.29623 0.0
H1775 H 0.49861 0.88487 0.3113 0.0
H1776 H 0.52979 0.88486 0.31144 0.0
H1777 H 0.52987 0.92924 0.31579 0.0
H1778 H 0.49862 0.92938 0.3157 0.0
H1779 H 0.51436 0.948 0.30363 0.0
H1780 H 0.49253 0.92299 0.25109 0.0
H1781 H 0.45048 0.91858 0.25569 0.0
H1782 H 0.46496 0.90795 0.30089 0.0
C1783 C 0.55826 0.91122 0.29041 0.0
C1784 C 0.57474 0.91259 0.27919 0.0
C1785 C 0.5668 0.91733 0.26508 0.0
C1786 C 0.54297 0.92 0.26216 0.0
C1787 C 0.5272 0.91805 0.27346 0.0
C1788 C 0.53462 0.91392 0.28732 0.0
C1789 C 0.51428 0.91129 0.29747 0.0
C1790 C 0.51427 0.88714 0.30452 0.0
C1791 C 0.51429 0.93063 0.30882 0.0
C1792 C 0.49419 0.91406 0.28714 0.0
C1793 C 0.5019 0.91812 0.27334 0.0
C1794 C 0.48636 0.9201 0.2619 0.0
C1795 C 0.46246 0.91758 0.26461 0.0
C1796 C 0.45422 0.91306 0.27867 0.0
C1797 C 0.47048 0.91165 0.29004 0.0
H1798 H 0.36235 0.21482 0.55214 0.0
H1799 H 0.35319 0.19866 0.50707 0.0
H1800 H 0.34864 0.24053 0.50179 0.0
H1801 H 0.322 0.26503 0.55349 0.0
H1802 H 0.34053 0.28043 0.56579 0.0
H1803 H 0.33974 0.24919 0.56606 0.0
H1804 H 0.38429 0.24797 0.56256 0.0
H1805 H 0.3852 0.27911 0.56218 0.0
H1806 H 0.39699 0.2627 0.54743 0.0
H1807 H 0.35021 0.28522 0.50126 0.0
H1808 H 0.35661 0.32713 0.5057 0.0
H1809 H 0.36421 0.31289 0.55116 0.0
C1810 C 0.3588 0.21994 0.54119 0.0
C1811 C 0.35803 0.20331 0.53004 0.0
C1812 C 0.35361 0.21096 0.51584 0.0
C1813 C 0.35107 0.23476 0.51273 0.0
C1814 C 0.35272 0.25074 0.52395 0.0
C1815 C 0.35619 0.24351 0.53793 0.0
C1816 C 0.35896 0.26392 0.54799 0.0
C1817 C 0.33912 0.26468 0.55898 0.0
C1818 C 0.38277 0.26338 0.55547 0.0
C1819 C 0.35724 0.28384 0.53748 0.0
C1820 C 0.35344 0.27605 0.52366 0.0
C1821 C 0.3528 0.29146 0.51209 0.0
C1822 C 0.35645 0.31528 0.5147 0.0
C1823 C 0.36079 0.3235 0.52878 0.0
C1824 C 0.3607 0.30741 0.54026 0.0
H1825 H 0.96554 0.11395 0.8024 0.0
H1826 H 0.94891 0.09722 0.75822 0.0
H1827 H 0.99066 0.09089 0.75328 0.0
H1828 H 0.01394 0.14678 0.79511 0.0
H1829 H 0.03019 0.13759 0.81063 0.0
H1830 H 0.99904 0.13731 0.81106 0.0
H1831 H 0.99953 0.09372 0.81783 0.0
H1832 H 0.03077 0.09388 0.81747 0.0
H1833 H 0.01496 0.07342 0.80663 0.0
H1834 H 0.03534 0.09097 0.75272 0.0
H1835 H 0.07733 0.09759 0.75658 0.0
H1836 H 0.06357 0.11431 0.80114 0.0
C1837 C 0.97049 0.10839 0.79174 0.0
C1838 C 0.95378 0.10597 0.78072 0.0
C1839 C 0.96126 0.09899 0.7669 0.0
C1840 C 0.98499 0.09538 0.76399 0.0
C1841 C 1.00105 0.09863 0.77504 0.0
C1842 C 0.99398 0.1048 0.78868 0.0
C1843 C 0.01448 0.10909 0.79846 0.0
C1844 C 0.0144 0.13418 0.80414 0.0
C1845 C 0.01496 0.09147 0.81083 0.0
C1846 C 0.03431 0.10503 0.78814 0.0
C1847 C 0.02637 0.09875 0.77471 0.0
C1848 C 0.04169 0.09555 0.76326 0.0
C1849 C 0.06557 0.0993 0.76556 0.0
C1850 C 0.07392 0.10638 0.77918 0.0
C1851 C 0.05795 0.10871 0.79061 0.0
H1852 H 0.16659 0.2143 0.95912 0.0
H1853 H 0.17583 0.19914 1.00433 0.0
H1854 H 0.18193 0.241 0.00907 0.0
H1855 H 0.20817 0.26334 0.95685 0.0
H1856 H 0.18969 0.27883 0.94453 0.0
H1857 H 0.18983 0.24757 0.94461 0.0
H1858 H 0.14534 0.2475 0.9485 0.0
H1859 H 0.14507 0.27865 0.9485 0.0
H1860 H 0.13329 0.26299 0.96355 0.0
H1861 H 0.18183 0.28575 0.00903 0.0
H1862 H 0.17552 0.32759 1.00421 0.0
H1863 H 0.16633 0.3122 0.95903 0.0
C1864 C 0.17049 0.21959 0.97 0.0
C1865 C 0.17082 0.20329 0.98134 0.0
C1866 C 0.17573 0.21118 0.99542 0.0
C1867 C 0.17917 0.23498 0.99821 0.0
C1868 C 0.17791 0.25066 0.9868 0.0
C1869 C 0.17392 0.24313 0.97294 0.0
C1870 C 0.17133 0.26328 0.96267 0.0
C1871 C 0.19093 0.26325 0.9515 0.0
C1872 C 0.14734 0.26308 0.95539 0.0
C1873 C 0.1737 0.28345 0.97292 0.0
C1874 C 0.17779 0.27599 0.98678 0.0
C1875 C 0.179 0.29172 0.99817 0.0
C1876 C 0.17545 0.3155 0.99533 0.0
C1877 C 0.17051 0.32332 0.98123 0.0
C1878 C 0.17023 0.30697 0.96992 0.0
H1879 H 0.96515 0.90962 0.20581 0.0
H1880 H 0.94998 0.93071 0.24947 0.0
H1881 H 0.99191 0.93699 0.25375 0.0
H1882 H 0.01403 0.87719 0.21371 0.0
H1883 H 0.02971 0.88494 0.19771 0.0
H1884 H 0.99855 0.88518 0.19764 0.0
H1885 H 0.99863 0.92807 0.18934 0.0
H1886 H 0.02988 0.92794 0.18933 0.0
H1887 H 0.01433 0.94936 0.19963 0.0
H1888 H 0.03654 0.93689 0.25379 0.0
H1889 H 0.07848 0.93039 0.24961 0.0
H1890 H 0.0634 0.90937 0.20591 0.0
C1891 C 0.97047 0.91607 0.2162 0.0
C1892 C 0.9541 0.91978 0.22728 0.0
C1893 C 0.96206 0.92792 0.24076 0.0
C1894 C 0.9859 0.93151 0.24329 0.0
C1895 C 1.00159 0.92706 0.23221 0.0
C1896 C 0.99408 0.91968 0.21889 0.0
C1897 C 0.01429 0.9145 0.20904 0.0
C1898 C 0.01413 0.88894 0.20425 0.0
C1899 C 0.01428 0.93095 0.19607 0.0
C1900 C 0.03445 0.9195 0.21896 0.0
C1901 C 0.02691 0.92696 0.23225 0.0
C1902 C 0.04258 0.93135 0.24335 0.0
C1903 C 0.06641 0.92765 0.24087 0.0
C1904 C 0.07441 0.91947 0.22741 0.0
C1905 C 0.05806 0.91583 0.2163 0.0
H1906 H 0.36988 0.71393 0.45786 0.0
H1907 H 0.35706 0.69904 0.50278 0.0
H1908 H 0.35227 0.74101 0.50747 0.0
H1909 H 0.4039 0.76311 0.46332 0.0
H1910 H 0.39302 0.7788 0.448 0.0
H1911 H 0.39293 0.74761 0.44797 0.0
H1912 H 0.34876 0.74764 0.44287 0.0
H1913 H 0.34873 0.77889 0.44285 0.0
H1914 H 0.32955 0.76331 0.45466 0.0
H1915 H 0.35238 0.78539 0.50753 0.0
H1916 H 0.35711 0.82739 0.50291 0.0
H1917 H 0.36965 0.81266 0.45793 0.0
C1918 C 0.3656 0.71936 0.46866 0.0
C1919 C 0.36373 0.703 0.47993 0.0
C1920 C 0.35844 0.71109 0.49392 0.0
C1921 C 0.3557 0.73495 0.49669 0.0
C1922 C 0.35815 0.7506 0.48537 0.0
C1923 C 0.36284 0.74305 0.4716 0.0
C1924 C 0.36597 0.76332 0.46143 0.0
C1925 C 0.39041 0.76319 0.4548 0.0
C1926 C 0.34713 0.76328 0.44976 0.0
C1927 C 0.36283 0.78351 0.47165 0.0
C1928 C 0.35816 0.7759 0.4854 0.0
C1929 C 0.35575 0.79149 0.49676 0.0
C1930 C 0.35846 0.81537 0.49403 0.0
C1931 C 0.36361 0.82352 0.48004 0.0
C1932 C 0.36545 0.80721 0.46873 0.0
H1933 H 0.46525 0.11517 0.70715 0.0
H1934 H 0.4501 0.0996 0.75169 0.0
H1935 H 0.49213 0.09501 0.75644 0.0
H1936 H 0.5155 0.07576 0.70331 0.0
H1937 H 0.53063 0.09596 0.69193 0.0
H1938 H 0.4994 0.09517 0.69186 0.0
H1939 H 0.49822 0.13906 0.69777 0.0
H1940 H 0.52937 0.13997 0.69796 0.0
H1941 H 0.51327 0.14962 0.71341 0.0
H1942 H 0.5367 0.09659 0.7567 0.0
H1943 H 0.57856 0.10296 0.75228 0.0
H1944 H 0.56358 0.11708 0.7075 0.0
C1945 C 0.47063 0.11028 0.71787 0.0
C1946 C 0.45422 0.10766 0.72903 0.0
C1947 C 0.46222 0.10149 0.74291 0.0
C1948 C 0.48611 0.09891 0.74571 0.0
C1949 C 0.50182 0.10232 0.73451 0.0
C1950 C 0.49429 0.10761 0.72082 0.0
C1951 C 0.5145 0.11181 0.71079 0.0
C1952 C 0.51504 0.09359 0.69877 0.0
C1953 C 0.51379 0.13658 0.70463 0.0
C1954 C 0.53466 0.10866 0.72101 0.0
C1955 C 0.52712 0.10304 0.73464 0.0
C1956 C 0.54274 0.10065 0.74601 0.0
C1957 C 0.56653 0.10432 0.7434 0.0
C1958 C 0.57455 0.11038 0.72952 0.0
C1959 C 0.55824 0.11219 0.71821 0.0
H1960 H 0.86608 0.31261 0.95674 0.0
H1961 H 0.84795 0.32783 1.0009 0.0
H1962 H 0.84174 0.28592 0.0053 0.0
H1963 H 0.82574 0.26352 0.95154 0.0
H1964 H 0.84641 0.24793 0.9407 0.0
H1965 H 0.84635 0.27918 0.94073 0.0
H1966 H 0.88975 0.27918 0.94793 0.0
H1967 H 0.88994 0.24801 0.94799 0.0
H1968 H 0.89878 0.26369 0.96378 0.0
H1969 H 0.84179 0.24128 0.00535 0.0
H1970 H 0.84809 0.19933 1.00101 0.0
H1971 H 0.86611 0.21442 0.95681 0.0
C1972 C 0.86028 0.3073 0.96728 0.0
C1973 C 0.85741 0.32367 0.97845 0.0
C1974 C 0.85009 0.31574 0.99211 0.0
C1975 C 0.84654 0.29192 0.99472 0.0
C1976 C 0.85019 0.27622 0.98353 0.0
C1977 C 0.85671 0.28371 0.97004 0.0
C1978 C 0.8612 0.2635 0.96006 0.0
C1979 C 0.84389 0.26354 0.94752 0.0
C1980 C 0.88641 0.26361 0.95463 0.0
C1981 C 0.85682 0.24335 0.9701 0.0
C1982 C 0.85024 0.2509 0.98356 0.0
C1983 C 0.84662 0.23524 0.99478 0.0
C1984 C 0.8502 0.2114 0.99221 0.0
C1985 C 0.8575 0.20342 0.97855 0.0
C1986 C 0.86034 0.21976 0.96736 0.0
H1987 H 0.66107 0.8133 0.46049 0.0
H1988 H 0.6676 0.82945 0.50576 0.0
H1989 H 0.67164 0.78755 0.51113 0.0
H1990 H 0.62615 0.76453 0.46462 0.0
H1991 H 0.63897 0.74847 0.45005 0.0
H1992 H 0.63925 0.77965 0.44977 0.0
H1993 H 0.68395 0.77928 0.44702 0.0
H1994 H 0.6838 0.74803 0.44726 0.0
H1995 H 0.70141 0.76378 0.4599 0.0
H1996 H 0.67155 0.74274 0.51154 0.0
H1997 H 0.66712 0.70063 0.50692 0.0
H1998 H 0.66061 0.71485 0.46139 0.0
C1999 C 0.66381 0.80819 0.47154 0.0
C2000 C 0.66415 0.82488 0.48268 0.0
C2001 C 0.66746 0.81715 0.49699 0.0
C2002 C 0.66975 0.79332 0.50014 0.0
C2003 C 0.66882 0.77733 0.48889 0.0
C2004 C 0.66607 0.78457 0.47486 0.0
C2005 C 0.6642 0.76411 0.46474 0.0
C2006 C 0.64075 0.7642 0.45684 0.0
C2007 C 0.68455 0.76379 0.4541 0.0
C2008 C 0.66582 0.74413 0.47524 0.0
C2009 C 0.6687 0.75197 0.48913 0.0
C2010 C 0.66956 0.73649 0.50067 0.0
C2011 C 0.66707 0.71254 0.49794 0.0
C2012 C 0.66361 0.70422 0.48379 0.0
C2013 C 0.6634 0.72041 0.47235 0.0
H2014 H 0.8665 0.71405 0.0501 0.0
H2015 H 0.84921 0.7003 0.00562 0.0
H2016 H 0.84282 0.74237 1.00174 0.0
H2017 H 0.82604 0.76297 0.05575 0.0
H2018 H 0.84658 0.77811 0.06689 0.0
H2019 H 0.84654 0.74687 0.06644 0.0
H2020 H 0.89002 0.74701 0.05947 0.0
H2021 H 0.89018 0.77817 0.05983 0.0
H2022 H 0.89921 0.76302 0.04387 0.0
H2023 H 0.84273 0.78706 1.00233 0.0
H2024 H 0.84893 0.82881 0.00728 0.0
H2025 H 0.86644 0.81214 0.05136 0.0
C2026 C 0.86084 0.7197 0.03958 0.0
C2027 C 0.85826 0.70371 0.02818 0.0
C2028 C 0.8511 0.71208 0.01458 0.0
C2029 C 0.84747 0.736 0.01228 0.0
C2030 C 0.85088 0.75132 0.0237 0.0
C2031 C 0.85722 0.74336 0.03712 0.0
C2032 C 0.86158 0.7632 0.0474 0.0
C2033 C 0.84414 0.76275 0.05986 0.0
C2034 C 0.88674 0.76282 0.05296 0.0
C2035 C 0.85731 0.7837 0.03762 0.0
C2036 C 0.8509 0.77664 0.02402 0.0
C2037 C 0.84742 0.79271 0.01301 0.0
C2038 C 0.85095 0.81643 0.01593 0.0
C2039 C 0.85807 0.82392 0.02973 0.0
C2040 C 0.86079 0.80719 0.04071 0.0
H2041 H 0.65192 0.31529 0.51556 0.0
H2042 H 0.6928 0.32811 0.55377 0.0
H2043 H 0.70217 0.28646 0.55537 0.0
H2044 H 0.62628 0.26487 0.52807 0.0
H2045 H 0.62596 0.24957 0.51121 0.0
H2046 H 0.62569 0.28076 0.51141 0.0
H2047 H 0.66235 0.28146 0.49542 0.0
H2048 H 0.66269 0.25019 0.49514 0.0
H2049 H 0.68794 0.26592 0.50103 0.0
H2050 H 0.70247 0.24345 0.55516 0.0
H2051 H 0.69373 0.20168 0.55303 0.0
H2052 H 0.65309 0.21521 0.51484 0.0
C2053 C 0.66355 0.30938 0.52392 0.0
C2054 C 0.67198 0.32506 0.53441 0.0
C2055 C 0.68636 0.31651 0.54554 0.0
C2056 C 0.69181 0.29285 0.54653 0.0
C2057 C 0.68272 0.27773 0.53632 0.0
C2058 C 0.66897 0.2856 0.52517 0.0
C2059 C 0.65945 0.26527 0.51657 0.0
C2060 C 0.63277 0.26512 0.51684 0.0
C2061 C 0.66866 0.26574 0.50112 0.0
C2062 C 0.66944 0.24484 0.52488 0.0
C2063 C 0.68302 0.25252 0.53614 0.0
C2064 C 0.69236 0.23719 0.54618 0.0
C2065 C 0.68734 0.21348 0.54489 0.0
C2066 C 0.67331 0.20514 0.53357 0.0
C2067 C 0.66463 0.22101 0.52327 0.0
H2068 H 0.96463 0.40464 0.76369 0.0
H2069 H 0.95299 0.44599 0.80177 0.0
H2070 H 0.99462 0.45582 0.80262 0.0
H2071 H 0.01467 0.37916 0.77586 0.0
H2072 H 0.02969 0.37811 0.75892 0.0
H2073 H 0.99853 0.37839 0.7593 0.0
H2074 H 0.99803 0.41464 0.74292 0.0
H2075 H 0.02929 0.41443 0.74244 0.0
H2076 H 0.01402 0.44011 0.74815 0.0
H2077 H 0.03759 0.45571 0.80198 0.0
H2078 H 0.07906 0.4455 0.79996 0.0
H2079 H 0.06429 0.40418 0.76229 0.0
C2080 C 0.97076 0.41663 0.77177 0.0
C2081 C 0.95551 0.42516 0.78244 0.0
C2082 C 0.96431 0.43975 0.79334 0.0
C2083 C 0.98794 0.4454 0.7939 0.0
C2084 C 1.00273 0.43617 0.78352 0.0
C2085 C 0.99452 0.42215 0.77261 0.0
C2086 C 0.01454 0.41204 0.764 0.0
C2087 C 0.01434 0.38535 0.76456 0.0
C2088 C 0.01393 0.42084 0.74845 0.0
C2089 C 0.03521 0.42191 0.77207 0.0
C2090 C 0.02792 0.43605 0.78318 0.0
C2091 C 0.04353 0.44521 0.79309 0.0
C2092 C 0.06708 0.43937 0.79186 0.0
C2093 C 0.07495 0.42468 0.78073 0.0
C2094 C 0.05885 0.41626 0.77053 0.0
H2095 H 0.46397 0.61701 0.30027 0.0
H2096 H 0.44804 0.60704 0.2552 0.0
H2097 H 0.48992 0.60254 0.25006 0.0
H2098 H 0.51255 0.65164 0.29518 0.0
H2099 H 0.52868 0.64004 0.31012 0.0
H2100 H 0.49751 0.63963 0.31041 0.0
H2101 H 0.49809 0.59518 0.3145 0.0
H2102 H 0.52933 0.59547 0.31427 0.0
H2103 H 0.51367 0.57682 0.30217 0.0
H2104 H 0.53438 0.60271 0.24969 0.0
H2105 H 0.57639 0.60782 0.25409 0.0
H2106 H 0.56244 0.61787 0.2994 0.0
C2107 C 0.46913 0.61339 0.28934 0.0
C2108 C 0.45254 0.61224 0.27816 0.0
C2109 C 0.4603 0.60783 0.26399 0.0
C2110 C 0.4841 0.60526 0.26096 0.0
C2111 C 0.49999 0.60702 0.27222 0.0
C2112 C 0.49273 0.61086 0.28614 0.0
C2113 C 0.51317 0.61362 0.29622 0.0
C2114 C 0.51296 0.63766 0.3034 0.0
C2115 C 0.51358 0.5941 0.30745 0.0
C2116 C 0.53313 0.61127 0.28577 0.0
C2117 C 0.52528 0.60724 0.27199 0.0
C2118 C 0.54066 0.6056 0.26047 0.0
C2119 C 0.56455 0.6085 0.26308 0.0
C2120 C 0.5729 0.61315 0.2771 0.0
C2121 C 0.55682 0.61413 0.28856 0.0
H2122 H 0.46634 0.40995 0.71121 0.0
H2123 H 0.4517 0.42225 0.75621 0.0
H2124 H 0.49375 0.427 0.76081 0.0
H2125 H 0.51495 0.37562 0.7163 0.0
H2126 H 0.53066 0.38648 0.70101 0.0
H2127 H 0.49949 0.38706 0.70104 0.0
H2128 H 0.49997 0.43131 0.69624 0.0
H2129 H 0.53121 0.43085 0.6961 0.0
H2130 H 0.51599 0.45011 0.70807 0.0
H2131 H 0.53841 0.42597 0.76075 0.0
H2132 H 0.58028 0.42037 0.7559 0.0
H2133 H 0.56476 0.40906 0.71091 0.0
C2134 C 0.47182 0.41418 0.72201 0.0
C2135 C 0.45553 0.41583 0.73334 0.0
C2136 C 0.46369 0.42111 0.74731 0.0
C2137 C 0.48761 0.42378 0.75003 0.0
C2138 C 0.5032 0.42132 0.73865 0.0
C2139 C 0.49551 0.41689 0.72489 0.0
C2140 C 0.51562 0.41358 0.71464 0.0
C2141 C 0.51514 0.38924 0.70786 0.0
C2142 C 0.5157 0.4326 0.70308 0.0
C2143 C 0.53592 0.41626 0.7248 0.0
C2144 C 0.52853 0.42088 0.7386 0.0
C2145 C 0.54432 0.42269 0.74992 0.0
C2146 C 0.56812 0.41948 0.74707 0.0
C2147 C 0.57601 0.41443 0.733 0.0
C2148 C 0.55953 0.41318 0.72176 0.0
H2149 H 0.96387 0.61241 0.20804 0.0
H2150 H 0.94839 0.59974 0.25288 0.0
H2151 H 0.99022 0.59324 0.25757 0.0
H2152 H 1.01295 0.57102 0.20468 0.0
H2153 H 0.02852 0.59041 0.19298 0.0
H2154 H 0.99727 0.59035 0.19296 0.0
H2155 H 0.99712 0.63449 0.1982 0.0
H2156 H 0.02827 0.63467 0.19832 0.0
H2157 H 1.01249 0.6453 0.21365 0.0
H2158 H 0.03493 0.59316 0.25768 0.0
H2159 H 0.07679 0.59959 0.2532 0.0
H2160 H 0.06179 0.61242 0.20829 0.0
C2161 C 0.96908 0.60768 0.21881 0.0
C2162 C 0.9527 0.60649 0.23008 0.0
C2163 C 0.9605 0.60053 0.24403 0.0
C2164 C 0.98428 0.59685 0.24679 0.0
C2165 C 1.00003 0.59896 0.23548 0.0
C2166 C 0.9926 0.60403 0.22173 0.0
C2167 C 1.01283 0.60737 0.21161 0.0
C2168 C 1.01289 0.58867 0.19986 0.0
C2169 C 1.01266 0.63191 0.20507 0.0
C2170 C 0.03292 0.60414 0.22185 0.0
C2171 C 0.02535 0.599 0.23554 0.0
C2172 C 0.04098 0.59682 0.24693 0.0
C2173 C 0.06478 0.60045 0.24428 0.0
C2174 C 0.07274 0.60643 0.23038 0.0
C2175 C 0.05647 0.6077 0.21903 0.0
loop_
_geom_bond_atom_site_label_1
_geom_bond_atom_site_label_2
_geom_bond_distance
_geom_bond_site_symmetry_2
_ccdc_geom_bond_type
O0 Cd1 2.223 . S
O0 C8 1.315 . S
Cd1 O0 2.223 . S
Cd1 O4 2.297 . S
Cd1 O5 2.439 . S
Cd1 O11 2.240 . S
Cd2 O3 2.240 . S
Cd2 O10 2.223 . S
Cd2 O12 2.297 . S
Cd2 O13 2.439 . S
O3 Cd2 2.240 . S
O3 C8 1.279 . S
O4 Cd1 2.297 . S
O4 C6 1.247 . S
O5 Cd1 2.439 . S
O5 C6 1.208 . S
C6 O4 1.247 . S
C6 O5 1.208 . S
C7 O12 1.247 . S
C7 O13 1.208 . S
C8 O0 1.315 . S
C8 O3 1.279 . S
C9 O10 1.315 . S
C9 O11 1.279 . S
O10 Cd2 2.223 . S
O10 C9 1.315 . S
O11 Cd1 2.240 . S
O11 C9 1.279 . S
O12 Cd2 2.297 . S
O12 C7 1.247 . S
O13 Cd2 2.439 . S
O13 C7 1.208 . S
O14 Cd15 2.223 . S
O14 C22 1.315 . S
Cd15 O14 2.223 . S
Cd15 O18 2.297 . S
Cd15 O19 2.439 . S
Cd15 O25 2.240 . S
Cd16 O17 2.240 . S
Cd16 O24 2.223 . S
Cd16 O26 2.297 . S
Cd16 O27 2.439 . S
O17 Cd16 2.240 . S
O17 C22 1.279 . S
O18 Cd15 2.297 . S
O18 C20 1.247 . S
O19 Cd15 2.439 . S
O19 C20 1.208 . S
C20 O18 1.247 . S
C20 O19 1.208 . S
C21 O26 1.247 . S
C21 O27 1.208 . S
C22 O14 1.315 . S
C22 O17 1.279 . S
C23 O24 1.315 . S
C23 O25 1.279 . S
O24 Cd16 2.223 . S
O24 C23 1.315 . S
O25 Cd15 2.240 . S
O25 C23 1.279 . S
O26 Cd16 2.297 . S
O26 C21 1.247 . S
O27 Cd16 2.439 . S
O27 C21 1.208 . S
O28 Cd29 2.223 . S
O28 C36 1.315 . S
Cd29 O28 2.223 . S
Cd29 O32 2.297 . S
Cd29 O33 2.439 . S
Cd29 O39 2.240 . S
Cd30 O31 2.240 . S
Cd30 O38 2.223 . S
Cd30 O40 2.297 . S
Cd30 O41 2.439 . S
O31 Cd30 2.240 . S
O31 C36 1.279 . S
O32 Cd29 2.297 . S
O32 C34 1.247 . S
O33 Cd29 2.439 . S
O33 C34 1.208 . S
C34 O32 1.247 . S
C34 O33 1.208 . S
C35 O40 1.247 . S
C35 O41 1.208 . S
C36 O28 1.315 . S
C36 O31 1.279 . S
C37 O38 1.315 . S
C37 O39 1.279 . S
O38 Cd30 2.223 . S
O38 C37 1.315 . S
O39 Cd29 2.240 . S
O39 C37 1.279 . S
O40 Cd30 2.297 . S
O40 C35 1.247 . S
O41 Cd30 2.439 . S
O41 C35 1.208 . S
O42 Cd43 2.223 . S
O42 C50 1.315 . S
Cd43 O42 2.223 . S
Cd43 O46 2.297 . S
Cd43 O47 2.439 . S
Cd43 O53 2.240 . S
Cd44 O45 2.240 . S
Cd44 O52 2.223 . S
Cd44 O54 2.297 . S
Cd44 O55 2.439 . S
O45 Cd44 2.240 . S
O45 C50 1.279 . S
O46 Cd43 2.297 . S
O46 C48 1.247 . S
O47 Cd43 2.439 . S
O47 C48 1.208 . S
C48 O46 1.247 . S
C48 O47 1.208 . S
C49 O54 1.247 . S
C49 O55 1.208 . S
C50 O42 1.315 . S
C50 O45 1.279 . S
C51 O52 1.315 . S
C51 O53 1.279 . S
O52 Cd44 2.223 . S
O52 C51 1.315 . S
O53 Cd43 2.240 . S
O53 C51 1.279 . S
O54 Cd44 2.297 . S
O54 C49 1.247 . S
O55 Cd44 2.439 . S
O55 C49 1.208 . S
O56 Cd57 2.223 . S
O56 C64 1.315 . S
Cd57 O56 2.223 . S
Cd57 O60 2.297 . S
Cd57 O61 2.439 . S
Cd57 O67 2.240 . S
Cd58 O59 2.240 . S
Cd58 O66 2.223 . S
Cd58 O68 2.297 . S
Cd58 O69 2.439 . S
O59 Cd58 2.240 . S
O59 C64 1.279 . S
O60 Cd57 2.297 . S
O60 C62 1.247 . S
O61 Cd57 2.439 . S
O61 C62 1.208 . S
C62 O60 1.247 . S
C62 O61 1.208 . S
C63 O68 1.247 . S
C63 O69 1.208 . S
C64 O56 1.315 . S
C64 O59 1.279 . S
C65 O66 1.315 . S
C65 O67 1.279 . S
O66 Cd58 2.223 . S
O66 C65 1.315 . S
O67 Cd57 2.240 . S
O67 C65 1.279 . S
O68 Cd58 2.297 . S
O68 C63 1.247 . S
O69 Cd58 2.439 . S
O69 C63 1.208 . S
O70 Cd71 2.223 . S
O70 C78 1.315 . S
Cd71 O70 2.223 . S
Cd71 O74 2.297 . S
Cd71 O75 2.439 . S
Cd71 O81 2.240 . S
Cd72 O73 2.240 . S
Cd72 O80 2.223 . S
Cd72 O82 2.297 . S
Cd72 O83 2.439 . S
O73 Cd72 2.240 . S
O73 C78 1.279 . S
O74 Cd71 2.297 . S
O74 C76 1.247 . S
O75 Cd71 2.439 . S
O75 C76 1.208 . S
C76 O74 1.247 . S
C76 O75 1.208 . S
C77 O82 1.247 . S
C77 O83 1.208 . S
C78 O70 1.315 . S
C78 O73 1.279 . S
C79 O80 1.315 . S
C79 O81 1.279 . S
O80 Cd72 2.223 . S
O80 C79 1.315 . S
O81 Cd71 2.240 . S
O81 C79 1.279 . S
O82 Cd72 2.297 . S
O82 C77 1.247 . S
O83 Cd72 2.439 . S
O83 C77 1.208 . S
O84 Cd85 2.223 . S
O84 C92 1.315 . S
Cd85 O84 2.223 . S
Cd85 O88 2.297 . S
Cd85 O89 2.439 . S
Cd85 O95 2.240 . S
Cd86 O87 2.240 . S
Cd86 O94 2.223 . S
Cd86 O96 2.297 . S
Cd86 O97 2.439 . S
O87 Cd86 2.240 . S
O87 C92 1.279 . S
O88 Cd85 2.297 . S
O88 C90 1.247 . S
O89 Cd85 2.439 . S
O89 C90 1.208 . S
C90 O88 1.247 . S
C90 O89 1.208 . S
C91 O96 1.247 . S
C91 O97 1.208 . S
C92 O84 1.315 . S
C92 O87 1.279 . S
C93 O94 1.315 . S
C93 O95 1.279 . S
O94 Cd86 2.223 . S
O94 C93 1.315 . S
O95 Cd85 2.240 . S
O95 C93 1.279 . S
O96 Cd86 2.297 . S
O96 C91 1.247 . S
O97 Cd86 2.439 . S
O97 C91 1.208 . S
O98 Cd99 2.223 . S
O98 C106 1.315 . S
Cd99 O98 2.223 . S
Cd99 O102 2.297 . S
Cd99 O103 2.439 . S
Cd99 O109 2.240 . S
Cd100 O101 2.240 . S
Cd100 O108 2.223 . S
Cd100 O110 2.297 . S
Cd100 O111 2.439 . S
O101 Cd100 2.240 . S
O101 C106 1.279 . S
O102 Cd99 2.297 . S
O102 C104 1.247 . S
O103 Cd99 2.439 . S
O103 C104 1.208 . S
C104 O102 1.247 . S
C104 O103 1.208 . S
C105 O110 1.247 . S
C105 O111 1.208 . S
C106 O98 1.315 . S
C106 O101 1.279 . S
C107 O108 1.315 . S
C107 O109 1.279 . S
O108 Cd100 2.223 . S
O108 C107 1.315 . S
O109 Cd99 2.240 . S
O109 C107 1.279 . S
O110 Cd100 2.297 . S
O110 C105 1.247 . S
O111 Cd100 2.439 . S
O111 C105 1.208 . S
O112 Cd113 2.223 . S
O112 C120 1.315 . S
Cd113 O112 2.223 . S
Cd113 O116 2.297 . S
Cd113 O117 2.439 . S
Cd113 O123 2.240 . S
Cd114 O115 2.240 . S
Cd114 O122 2.223 . S
Cd114 O124 2.297 . S
Cd114 O125 2.439 . S
O115 Cd114 2.240 . S
O115 C120 1.279 . S
O116 Cd113 2.297 . S
O116 C118 1.247 . S
O117 Cd113 2.439 . S
O117 C118 1.208 . S
C118 O116 1.247 . S
C118 O117 1.208 . S
C119 O124 1.247 . S
C119 O125 1.208 . S
C120 O112 1.315 . S
C120 O115 1.279 . S
C121 O122 1.315 . S
C121 O123 1.279 . S
O122 Cd114 2.223 . S
O122 C121 1.315 . S
O123 Cd113 2.240 . S
O123 C121 1.279 . S
O124 Cd114 2.297 . S
O124 C119 1.247 . S
O125 Cd114 2.439 . S
O125 C119 1.208 . S
O126 Cd127 2.223 . S
O126 C134 1.315 . S
Cd127 O126 2.223 . S
Cd127 O130 2.297 . S
Cd127 O131 2.439 . S
Cd127 O137 2.240 . S
Cd128 O129 2.240 . S
Cd128 O136 2.223 . S
Cd128 O138 2.297 . S
Cd128 O139 2.439 . S
O129 Cd128 2.240 . S
O129 C134 1.279 . S
O130 Cd127 2.297 . S
O130 C132 1.247 . S
O131 Cd127 2.439 . S
O131 C132 1.208 . S
C132 O130 1.247 . S
C132 O131 1.208 . S
C133 O138 1.247 . S
C133 O139 1.208 . S
C134 O126 1.315 . S
C134 O129 1.279 . S
C135 O136 1.315 . S
C135 O137 1.279 . S
O136 Cd128 2.223 . S
O136 C135 1.315 . S
O137 Cd127 2.240 . S
O137 C135 1.279 . S
O138 Cd128 2.297 . S
O138 C133 1.247 . S
O139 Cd128 2.439 . S
O139 C133 1.208 . S
O140 Cd141 2.223 . S
O140 C148 1.315 . S
Cd141 O140 2.223 . S
Cd141 O144 2.297 . S
Cd141 O145 2.439 . S
Cd141 O151 2.240 . S
Cd142 O143 2.240 . S
Cd142 O150 2.223 . S
Cd142 O152 2.297 . S
Cd142 O153 2.439 . S
O143 Cd142 2.240 . S
O143 C148 1.279 . S
O144 Cd141 2.297 . S
O144 C146 1.247 . S
O145 Cd141 2.439 . S
O145 C146 1.208 . S
C146 O144 1.247 . S
C146 O145 1.208 . S
C147 O152 1.247 . S
C147 O153 1.208 . S
C148 O140 1.315 . S
C148 O143 1.279 . S
C149 O150 1.315 . S
C149 O151 1.279 . S
O150 Cd142 2.223 . S
O150 C149 1.315 . S
O151 Cd141 2.240 . S
O151 C149 1.279 . S
O152 Cd142 2.297 . S
O152 C147 1.247 . S
O153 Cd142 2.439 . S
O153 C147 1.208 . S
O154 Cd155 2.223 . S
O154 C162 1.315 . S
Cd155 O154 2.223 . S
Cd155 O158 2.297 . S
Cd155 O159 2.439 . S
Cd155 O165 2.240 . S
Cd156 O157 2.240 . S
Cd156 O164 2.223 . S
Cd156 O166 2.297 . S
Cd156 O167 2.439 . S
O157 Cd156 2.240 . S
O157 C162 1.279 . S
O158 Cd155 2.297 . S
O158 C160 1.247 . S
O159 Cd155 2.439 . S
O159 C160 1.208 . S
C160 O158 1.247 . S
C160 O159 1.208 . S
C161 O166 1.247 . S
C161 O167 1.208 . S
C162 O154 1.315 . S
C162 O157 1.279 . S
C163 O164 1.315 . S
C163 O165 1.279 . S
O164 Cd156 2.223 . S
O164 C163 1.315 . S
O165 Cd155 2.240 . S
O165 C163 1.279 . S
O166 Cd156 2.297 . S
O166 C161 1.247 . S
O167 Cd156 2.439 . S
O167 C161 1.208 . S
O168 Cd169 2.223 . S
O168 C176 1.315 . S
Cd169 O168 2.223 . S
Cd169 O172 2.297 . S
Cd169 O173 2.439 . S
Cd169 O179 2.240 . S
Cd170 O171 2.240 . S
Cd170 O178 2.223 . S
Cd170 O180 2.297 . S
Cd170 O181 2.439 . S
O171 Cd170 2.240 . S
O171 C176 1.279 . S
O172 Cd169 2.297 . S
O172 C174 1.247 . S
O173 Cd169 2.439 . S
O173 C174 1.208 . S
C174 O172 1.247 . S
C174 O173 1.208 . S
C175 O180 1.247 . S
C175 O181 1.208 . S
C176 O168 1.315 . S
C176 O171 1.279 . S
C177 O178 1.315 . S
C177 O179 1.279 . S
O178 Cd170 2.223 . S
O178 C177 1.315 . S
O179 Cd169 2.240 . S
O179 C177 1.279 . S
O180 Cd170 2.297 . S
O180 C175 1.247 . S
O181 Cd170 2.439 . S
O181 C175 1.208 . S
O182 Cd183 2.223 . S
O182 C190 1.315 . S
Cd183 O182 2.223 . S
Cd183 O186 2.297 . S
Cd183 O187 2.439 . S
Cd183 O193 2.240 . S
Cd184 O185 2.240 . S
Cd184 O192 2.223 . S
Cd184 O194 2.297 . S
Cd184 O195 2.439 . S
O185 Cd184 2.240 . S
O185 C190 1.279 . S
O186 Cd183 2.297 . S
O186 C188 1.247 . S
O187 Cd183 2.439 . S
O187 C188 1.208 . S
C188 O186 1.247 . S
C188 O187 1.208 . S
C189 O194 1.247 . S
C189 O195 1.208 . S
C190 O182 1.315 . S
C190 O185 1.279 . S
C191 O192 1.315 . S
C191 O193 1.279 . S
O192 Cd184 2.223 . S
O192 C191 1.315 . S
O193 Cd183 2.240 . S
O193 C191 1.279 . S
O194 Cd184 2.297 . S
O194 C189 1.247 . S
O195 Cd184 2.439 . S
O195 C189 1.208 . S
O196 Cd197 2.223 . S
O196 C204 1.315 . S
Cd197 O196 2.223 . S
Cd197 O200 2.297 . S
Cd197 O201 2.439 . S
Cd197 O207 2.240 . S
Cd198 O199 2.240 . S
Cd198 O206 2.223 . S
Cd198 O208 2.297 . S
Cd198 O209 2.439 . S
O199 Cd198 2.240 . S
O199 C204 1.279 . S
O200 Cd197 2.297 . S
O200 C202 1.247 . S
O201 Cd197 2.439 . S
O201 C202 1.208 . S
C202 O200 1.247 . S
C202 O201 1.208 . S
C203 O208 1.247 . S
C203 O209 1.208 . S
C204 O196 1.315 . S
C204 O199 1.279 . S
C205 O206 1.315 . S
C205 O207 1.279 . S
O206 Cd198 2.223 . S
O206 C205 1.315 . S
O207 Cd197 2.240 . S
O207 C205 1.279 . S
O208 Cd198 2.297 . S
O208 C203 1.247 . S
O209 Cd198 2.439 . S
O209 C203 1.208 . S
O210 Cd211 2.223 . S
O210 C218 1.315 . S
Cd211 O210 2.223 . S
Cd211 O214 2.297 . S
Cd211 O215 2.439 . S
Cd211 O221 2.240 . S
Cd212 O213 2.240 . S
Cd212 O220 2.223 . S
Cd212 O222 2.297 . S
Cd212 O223 2.439 . S
O213 Cd212 2.240 . S
O213 C218 1.279 . S
O214 Cd211 2.297 . S
O214 C216 1.247 . S
O215 Cd211 2.439 . S
O215 C216 1.208 . S
C216 O214 1.247 . S
C216 O215 1.208 . S
C217 O222 1.247 . S
C217 O223 1.208 . S
C218 O210 1.315 . S
C218 O213 1.279 . S
C219 O220 1.315 . S
C219 O221 1.279 . S
O220 Cd212 2.223 . S
O220 C219 1.315 . S
O221 Cd211 2.240 . S
O221 C219 1.279 . S
O222 Cd212 2.297 . S
O222 C217 1.247 . S
O223 Cd212 2.439 . S
O223 C217 1.208 . S
O224 Cd225 2.223 . S
O224 C232 1.315 . S
Cd225 O224 2.223 . S
Cd225 O228 2.297 . S
Cd225 O229 2.439 . S
Cd225 O235 2.240 . S
Cd226 O227 2.240 . S
Cd226 O234 2.223 . S
Cd226 O236 2.297 . S
Cd226 O237 2.439 . S
O227 Cd226 2.240 . S
O227 C232 1.279 . S
O228 Cd225 2.297 . S
O228 C230 1.247 . S
O229 Cd225 2.439 . S
O229 C230 1.208 . S
C230 O228 1.247 . S
C230 O229 1.208 . S
C231 O236 1.247 . S
C231 O237 1.208 . S
C232 O224 1.315 . S
C232 O227 1.279 . S
C233 O234 1.315 . S
C233 O235 1.279 . S
O234 Cd226 2.223 . S
O234 C233 1.315 . S
O235 Cd225 2.240 . S
O235 C233 1.279 . S
O236 Cd226 2.297 . S
O236 C231 1.247 . S
O237 Cd226 2.439 . S
O237 C231 1.208 . S
O238 Cd239 2.223 . S
O238 C246 1.315 . S
Cd239 O238 2.223 . S
Cd239 O242 2.297 . S
Cd239 O243 2.439 . S
Cd239 O249 2.240 . S
Cd240 O241 2.240 . S
Cd240 O248 2.223 . S
Cd240 O250 2.297 . S
Cd240 O251 2.439 . S
O241 Cd240 2.240 . S
O241 C246 1.279 . S
O242 Cd239 2.297 . S
O242 C244 1.247 . S
O243 Cd239 2.439 . S
O243 C244 1.208 . S
C244 O242 1.247 . S
C244 O243 1.208 . S
C245 O250 1.247 . S
C245 O251 1.208 . S
C246 O238 1.315 . S
C246 O241 1.279 . S
C247 O248 1.315 . S
C247 O249 1.279 . S
O248 Cd240 2.223 . S
O248 C247 1.315 . S
O249 Cd239 2.240 . S
O249 C247 1.279 . S
O250 Cd240 2.297 . S
O250 C245 1.247 . S
O251 Cd240 2.439 . S
O251 C245 1.208 . S
O252 Cd253 2.223 . S
O252 C260 1.315 . S
Cd253 O252 2.223 . S
Cd253 O256 2.297 . S
Cd253 O257 2.439 . S
Cd253 O263 2.240 . S
Cd254 O255 2.240 . S
Cd254 O262 2.223 . S
Cd254 O264 2.297 . S
Cd254 O265 2.439 . S
O255 Cd254 2.240 . S
O255 C260 1.279 . S
O256 Cd253 2.297 . S
O256 C258 1.247 . S
O257 Cd253 2.439 . S
O257 C258 1.208 . S
C258 O256 1.247 . S
C258 O257 1.208 . S
C259 O264 1.247 . S
C259 O265 1.208 . S
C260 O252 1.315 . S
C260 O255 1.279 . S
C261 O262 1.315 . S
C261 O263 1.279 . S
O262 Cd254 2.223 . S
O262 C261 1.315 . S
O263 Cd253 2.240 . S
O263 C261 1.279 . S
O264 Cd254 2.297 . S
O264 C259 1.247 . S
O265 Cd254 2.439 . S
O265 C259 1.208 . S
O266 Cd267 2.223 . S
O266 C274 1.315 . S
Cd267 O266 2.223 . S
Cd267 O270 2.297 . S
Cd267 O271 2.439 . S
Cd267 O277 2.240 . S
Cd268 O269 2.240 . S
Cd268 O276 2.223 . S
Cd268 O278 2.297 . S
Cd268 O279 2.439 . S
O269 Cd268 2.240 . S
O269 C274 1.279 . S
O270 Cd267 2.297 . S
O270 C272 1.247 . S
O271 Cd267 2.439 . S
O271 C272 1.208 . S
C272 O270 1.247 . S
C272 O271 1.208 . S
C273 O278 1.247 . S
C273 O279 1.208 . S
C274 O266 1.315 . S
C274 O269 1.279 . S
C275 O276 1.315 . S
C275 O277 1.279 . S
O276 Cd268 2.223 . S
O276 C275 1.315 . S
O277 Cd267 2.240 . S
O277 C275 1.279 . S
O278 Cd268 2.297 . S
O278 C273 1.247 . S
O279 Cd268 2.439 . S
O279 C273 1.208 . S
O280 Cd281 2.223 . S
O280 C288 1.315 . S
Cd281 O280 2.223 . S
Cd281 O284 2.297 . S
Cd281 O285 2.439 . S
Cd281 O291 2.240 . S
Cd282 O283 2.240 . S
Cd282 O290 2.223 . S
Cd282 O292 2.297 . S
Cd282 O293 2.439 . S
O283 Cd282 2.240 . S
O283 C288 1.279 . S
O284 Cd281 2.297 . S
O284 C286 1.247 . S
O285 Cd281 2.439 . S
O285 C286 1.208 . S
C286 O284 1.247 . S
C286 O285 1.208 . S
C287 O292 1.247 . S
C287 O293 1.208 . S
C288 O280 1.315 . S
C288 O283 1.279 . S
C289 O290 1.315 . S
C289 O291 1.279 . S
O290 Cd282 2.223 . S
O290 C289 1.315 . S
O291 Cd281 2.240 . S
O291 C289 1.279 . S
O292 Cd282 2.297 . S
O292 C287 1.247 . S
O293 Cd282 2.439 . S
O293 C287 1.208 . S
O294 Cd295 2.223 . S
O294 C302 1.315 . S
Cd295 O294 2.223 . S
Cd295 O298 2.297 . S
Cd295 O299 2.439 . S
Cd295 O305 2.240 . S
Cd296 O297 2.240 . S
Cd296 O304 2.223 . S
Cd296 O306 2.297 . S
Cd296 O307 2.439 . S
O297 Cd296 2.240 . S
O297 C302 1.279 . S
O298 Cd295 2.297 . S
O298 C300 1.247 . S
O299 Cd295 2.439 . S
O299 C300 1.208 . S
C300 O298 1.247 . S
C300 O299 1.208 . S
C301 O306 1.247 . S
C301 O307 1.208 . S
C302 O294 1.315 . S
C302 O297 1.279 . S
C303 O304 1.315 . S
C303 O305 1.279 . S
O304 Cd296 2.223 . S
O304 C303 1.315 . S
O305 Cd295 2.240 . S
O305 C303 1.279 . S
O306 Cd296 2.297 . S
O306 C301 1.247 . S
O307 Cd296 2.439 . S
O307 C301 1.208 . S
O308 Cd309 2.223 . S
O308 C316 1.315 . S
Cd309 O308 2.223 . S
Cd309 O312 2.297 . S
Cd309 O313 2.439 . S
Cd309 O319 2.240 . S
Cd310 O311 2.240 . S
Cd310 O318 2.223 . S
Cd310 O320 2.297 . S
Cd310 O321 2.439 . S
O311 Cd310 2.240 . S
O311 C316 1.279 . S
O312 Cd309 2.297 . S
O312 C314 1.247 . S
O313 Cd309 2.439 . S
O313 C314 1.208 . S
C314 O312 1.247 . S
C314 O313 1.208 . S
C315 O320 1.247 . S
C315 O321 1.208 . S
C316 O308 1.315 . S
C316 O311 1.279 . S
C317 O318 1.315 . S
C317 O319 1.279 . S
O318 Cd310 2.223 . S
O318 C317 1.315 . S
O319 Cd309 2.240 . S
O319 C317 1.279 . S
O320 Cd310 2.297 . S
O320 C315 1.247 . S
O321 Cd310 2.439 . S
O321 C315 1.208 . S
O322 Cd323 2.223 . S
O322 C330 1.315 . S
Cd323 O322 2.223 . S
Cd323 O326 2.297 . S
Cd323 O327 2.439 . S
Cd323 O333 2.240 . S
Cd324 O325 2.240 . S
Cd324 O332 2.223 . S
Cd324 O334 2.297 . S
Cd324 O335 2.439 . S
O325 Cd324 2.240 . S
O325 C330 1.279 . S
O326 Cd323 2.297 . S
O326 C328 1.247 . S
O327 Cd323 2.439 . S
O327 C328 1.208 . S
C328 O326 1.247 . S
C328 O327 1.208 . S
C329 O334 1.247 . S
C329 O335 1.208 . S
C330 O322 1.315 . S
C330 O325 1.279 . S
C331 O332 1.315 . S
C331 O333 1.279 . S
O332 Cd324 2.223 . S
O332 C331 1.315 . S
O333 Cd323 2.240 . S
O333 C331 1.279 . S
O334 Cd324 2.297 . S
O334 C329 1.247 . S
O335 Cd324 2.439 . S
O335 C329 1.208 . S
O336 Cd337 2.223 . S
O336 C344 1.315 . S
Cd337 O336 2.223 . S
Cd337 O340 2.297 . S
Cd337 O341 2.439 . S
Cd337 O347 2.240 . S
Cd338 O339 2.240 . S
Cd338 O346 2.223 . S
Cd338 O348 2.297 . S
Cd338 O349 2.439 . S
O339 Cd338 2.240 . S
O339 C344 1.279 . S
O340 Cd337 2.297 . S
O340 C342 1.247 . S
O341 Cd337 2.439 . S
O341 C342 1.208 . S
C342 O340 1.247 . S
C342 O341 1.208 . S
C343 O348 1.247 . S
C343 O349 1.208 . S
C344 O336 1.315 . S
C344 O339 1.279 . S
C345 O346 1.315 . S
C345 O347 1.279 . S
O346 Cd338 2.223 . S
O346 C345 1.315 . S
O347 Cd337 2.240 . S
O347 C345 1.279 . S
O348 Cd338 2.297 . S
O348 C343 1.247 . S
O349 Cd338 2.439 . S
O349 C343 1.208 . S
O350 Cd351 2.223 . S
O350 C358 1.315 . S
Cd351 O350 2.223 . S
Cd351 O354 2.297 . S
Cd351 O355 2.439 . S
Cd351 O361 2.240 . S
Cd352 O353 2.240 . S
Cd352 O360 2.223 . S
Cd352 O362 2.297 . S
Cd352 O363 2.439 . S
O353 Cd352 2.240 . S
O353 C358 1.279 . S
O354 Cd351 2.297 . S
O354 C356 1.247 . S
O355 Cd351 2.439 . S
O355 C356 1.208 . S
C356 O354 1.247 . S
C356 O355 1.208 . S
C357 O362 1.247 . S
C357 O363 1.208 . S
C358 O350 1.315 . S
C358 O353 1.279 . S
C359 O360 1.315 . S
C359 O361 1.279 . S
O360 Cd352 2.223 . S
O360 C359 1.315 . S
O361 Cd351 2.240 . S
O361 C359 1.279 . S
O362 Cd352 2.297 . S
O362 C357 1.247 . S
O363 Cd352 2.439 . S
O363 C357 1.208 . S
O364 Cd365 2.223 . S
O364 C372 1.315 . S
Cd365 O364 2.223 . S
Cd365 O368 2.297 . S
Cd365 O369 2.439 . S
Cd365 O375 2.240 . S
Cd366 O367 2.240 . S
Cd366 O374 2.223 . S
Cd366 O376 2.297 . S
Cd366 O377 2.439 . S
O367 Cd366 2.240 . S
O367 C372 1.279 . S
O368 Cd365 2.297 . S
O368 C370 1.247 . S
O369 Cd365 2.439 . S
O369 C370 1.208 . S
C370 O368 1.247 . S
C370 O369 1.208 . S
C371 O376 1.247 . S
C371 O377 1.208 . S
C372 O364 1.315 . S
C372 O367 1.279 . S
C373 O374 1.315 . S
C373 O375 1.279 . S
O374 Cd366 2.223 . S
O374 C373 1.315 . S
O375 Cd365 2.240 . S
O375 C373 1.279 . S
O376 Cd366 2.297 . S
O376 C371 1.247 . S
O377 Cd366 2.439 . S
O377 C371 1.208 . S
O378 Cd379 2.223 . S
O378 C386 1.315 . S
Cd379 O378 2.223 . S
Cd379 O382 2.297 . S
Cd379 O383 2.439 . S
Cd379 O389 2.240 . S
Cd380 O381 2.240 . S
Cd380 O388 2.223 . S
Cd380 O390 2.297 . S
Cd380 O391 2.439 . S
O381 Cd380 2.240 . S
O381 C386 1.279 . S
O382 Cd379 2.297 . S
O382 C384 1.247 . S
O383 Cd379 2.439 . S
O383 C384 1.208 . S
C384 O382 1.247 . S
C384 O383 1.208 . S
C385 O390 1.247 . S
C385 O391 1.208 . S
C386 O378 1.315 . S
C386 O381 1.279 . S
C387 O388 1.315 . S
C387 O389 1.279 . S
O388 Cd380 2.223 . S
O388 C387 1.315 . S
O389 Cd379 2.240 . S
O389 C387 1.279 . S
O390 Cd380 2.297 . S
O390 C385 1.247 . S
O391 Cd380 2.439 . S
O391 C385 1.208 . S
O392 Cd393 2.223 . S
O392 C400 1.315 . S
Cd393 O392 2.223 . S
Cd393 O396 2.297 . S
Cd393 O397 2.439 . S
Cd393 O403 2.240 . S
Cd394 O395 2.240 . S
Cd394 O402 2.223 . S
Cd394 O404 2.297 . S
Cd394 O405 2.439 . S
O395 Cd394 2.240 . S
O395 C400 1.279 . S
O396 Cd393 2.297 . S
O396 C398 1.247 . S
O397 Cd393 2.439 . S
O397 C398 1.208 . S
C398 O396 1.247 . S
C398 O397 1.208 . S
C399 O404 1.247 . S
C399 O405 1.208 . S
C400 O392 1.315 . S
C400 O395 1.279 . S
C401 O402 1.315 . S
C401 O403 1.279 . S
O402 Cd394 2.223 . S
O402 C401 1.315 . S
O403 Cd393 2.240 . S
O403 C401 1.279 . S
O404 Cd394 2.297 . S
O404 C399 1.247 . S
O405 Cd394 2.439 . S
O405 C399 1.208 . S
O406 Cd407 2.223 . S
O406 C414 1.315 . S
Cd407 O406 2.223 . S
Cd407 O410 2.297 . S
Cd407 O411 2.439 . S
Cd407 O417 2.240 . S
Cd408 O409 2.240 . S
Cd408 O416 2.223 . S
Cd408 O418 2.297 . S
Cd408 O419 2.439 . S
O409 Cd408 2.240 . S
O409 C414 1.279 . S
O410 Cd407 2.297 . S
O410 C412 1.247 . S
O411 Cd407 2.439 . S
O411 C412 1.208 . S
C412 O410 1.247 . S
C412 O411 1.208 . S
C413 O418 1.247 . S
C413 O419 1.208 . S
C414 O406 1.315 . S
C414 O409 1.279 . S
C415 O416 1.315 . S
C415 O417 1.279 . S
O416 Cd408 2.223 . S
O416 C415 1.315 . S
O417 Cd407 2.240 . S
O417 C415 1.279 . S
O418 Cd408 2.297 . S
O418 C413 1.247 . S
O419 Cd408 2.439 . S
O419 C413 1.208 . S
O420 Cd421 2.223 . S
O420 C428 1.315 . S
Cd421 O420 2.223 . S
Cd421 O424 2.297 . S
Cd421 O425 2.439 . S
Cd421 O431 2.240 . S
Cd422 O423 2.240 . S
Cd422 O430 2.223 . S
Cd422 O432 2.297 . S
Cd422 O433 2.439 . S
O423 Cd422 2.240 . S
O423 C428 1.279 . S
O424 Cd421 2.297 . S
O424 C426 1.247 . S
O425 Cd421 2.439 . S
O425 C426 1.208 . S
C426 O424 1.247 . S
C426 O425 1.208 . S
C427 O432 1.247 . S
C427 O433 1.208 . S
C428 O420 1.315 . S
C428 O423 1.279 . S
C429 O430 1.315 . S
C429 O431 1.279 . S
O430 Cd422 2.223 . S
O430 C429 1.315 . S
O431 Cd421 2.240 . S
O431 C429 1.279 . S
O432 Cd422 2.297 . S
O432 C427 1.247 . S
O433 Cd422 2.439 . S
O433 C427 1.208 . S
O434 Cd435 2.223 . S
O434 C442 1.315 . S
Cd435 O434 2.223 . S
Cd435 O438 2.297 . S
Cd435 O439 2.439 . S
Cd435 O445 2.240 . S
Cd436 O437 2.240 . S
Cd436 O444 2.223 . S
Cd436 O446 2.297 . S
Cd436 O447 2.439 . S
O437 Cd436 2.240 . S
O437 C442 1.279 . S
O438 Cd435 2.297 . S
O438 C440 1.247 . S
O439 Cd435 2.439 . S
O439 C440 1.208 . S
C440 O438 1.247 . S
C440 O439 1.208 . S
C441 O446 1.247 . S
C441 O447 1.208 . S
C442 O434 1.315 . S
C442 O437 1.279 . S
C443 O444 1.315 . S
C443 O445 1.279 . S
O444 Cd436 2.223 . S
O444 C443 1.315 . S
O445 Cd435 2.240 . S
O445 C443 1.279 . S
O446 Cd436 2.297 . S
O446 C441 1.247 . S
O447 Cd436 2.439 . S
O447 C441 1.208 . S
H448 C460 0.930 . S
H449 C462 0.930 . S
H450 C463 0.930 . S
H451 C467 0.959 . S
H452 C467 0.959 . S
H453 C467 0.961 . S
H454 C468 0.960 . S
H455 C468 0.961 . S
H456 C468 0.959 . S
H457 C471 0.929 . S
H458 C472 0.931 . S
H459 C474 0.930 . S
C460 H448 0.930 . S
C460 C461 1.399 . S
C460 C465 1.399 . S
C461 C460 1.399 . S
C461 C462 1.376 . S
C462 H449 0.930 . S
C462 C461 1.376 . S
C462 C463 1.388 . S
C463 H450 0.930 . S
C463 C462 1.388 . S
C463 C464 1.390 . S
C464 C463 1.390 . S
C464 C465 1.394 . S
C464 C470 1.465 . S
C465 C460 1.399 . S
C465 C464 1.394 . S
C465 C466 1.516 . S
C466 C465 1.516 . S
C466 C467 1.502 . S
C466 C468 1.561 . S
C466 C469 1.526 . S
C467 H451 0.959 . S
C467 H452 0.959 . S
C467 H453 0.961 . S
C467 C466 1.502 . S
C468 H454 0.960 . S
C468 H455 0.961 . S
C468 H456 0.959 . S
C468 C466 1.561 . S
C469 C466 1.526 . S
C469 C470 1.396 . S
C469 C474 1.390 . S
C470 C464 1.465 . S
C470 C469 1.396 . S
C470 C471 1.399 . S
C471 H457 0.929 . S
C471 C470 1.399 . S
C471 C472 1.385 . S
C472 H458 0.931 . S
C472 C471 1.385 . S
C472 C473 1.389 . S
C473 C472 1.389 . S
C473 C474 1.387 . S
C474 H459 0.930 . S
C474 C469 1.390 . S
C474 C473 1.387 . S
H475 C487 0.930 . S
H476 C489 0.930 . S
H477 C490 0.930 . S
H478 C494 0.959 . S
H479 C494 0.959 . S
H480 C494 0.961 . S
H481 C495 0.960 . S
H482 C495 0.961 . S
H483 C495 0.959 . S
H484 C498 0.929 . S
H485 C499 0.931 . S
H486 C501 0.930 . S
C487 H475 0.930 . S
C487 C488 1.399 . S
C487 C492 1.399 . S
C488 C487 1.399 . S
C488 C489 1.376 . S
C489 H476 0.930 . S
C489 C488 1.376 . S
C489 C490 1.388 . S
C490 H477 0.930 . S
C490 C489 1.388 . S
C490 C491 1.390 . S
C491 C490 1.390 . S
C491 C492 1.394 . S
C491 C497 1.465 . S
C492 C487 1.399 . S
C492 C491 1.394 . S
C492 C493 1.516 . S
C493 C492 1.516 . S
C493 C494 1.502 . S
C493 C495 1.561 . S
C493 C496 1.526 . S
C494 H478 0.959 . S
C494 H479 0.959 . S
C494 H480 0.961 . S
C494 C493 1.502 . S
C495 H481 0.960 . S
C495 H482 0.961 . S
C495 H483 0.959 . S
C495 C493 1.561 . S
C496 C493 1.526 . S
C496 C497 1.396 . S
C496 C501 1.390 . S
C497 C491 1.465 . S
C497 C496 1.396 . S
C497 C498 1.399 . S
C498 H484 0.929 . S
C498 C497 1.399 . S
C498 C499 1.385 . S
C499 H485 0.931 . S
C499 C498 1.385 . S
C499 C500 1.389 . S
C500 C499 1.389 . S
C500 C501 1.387 . S
C501 H486 0.930 . S
C501 C496 1.390 . S
C501 C500 1.387 . S
H502 C514 0.930 . S
H503 C516 0.930 . S
H504 C517 0.930 . S
H505 C521 0.959 . S
H506 C521 0.959 . S
H507 C521 0.961 . S
H508 C522 0.960 . S
H509 C522 0.961 . S
H510 C522 0.959 . S
H511 C525 0.929 . S
H512 C526 0.931 . S
H513 C528 0.930 . S
C514 H502 0.930 . S
C514 C515 1.399 . S
C514 C519 1.399 . S
C515 C514 1.399 . S
C515 C516 1.376 . S
C516 H503 0.930 . S
C516 C515 1.376 . S
C516 C517 1.388 . S
C517 H504 0.930 . S
C517 C516 1.388 . S
C517 C518 1.390 . S
C518 C517 1.390 . S
C518 C519 1.394 . S
C518 C524 1.465 . S
C519 C514 1.399 . S
C519 C518 1.394 . S
C519 C520 1.516 . S
C520 C519 1.516 . S
C520 C521 1.502 . S
C520 C522 1.561 . S
C520 C523 1.526 . S
C521 H505 0.959 . S
C521 H506 0.959 . S
C521 H507 0.961 . S
C521 C520 1.502 . S
C522 H508 0.960 . S
C522 H509 0.961 . S
C522 H510 0.959 . S
C522 C520 1.561 . S
C523 C520 1.526 . S
C523 C524 1.396 . S
C523 C528 1.390 . S
C524 C518 1.465 . S
C524 C523 1.396 . S
C524 C525 1.399 . S
C525 H511 0.929 . S
C525 C524 1.399 . S
C525 C526 1.385 . S
C526 H512 0.931 . S
C526 C525 1.385 . S
C526 C527 1.389 . S
C527 C526 1.389 . S
C527 C528 1.387 . S
C528 H513 0.930 . S
C528 C523 1.390 . S
C528 C527 1.387 . S
H529 C541 0.930 . S
H530 C543 0.930 . S
H531 C544 0.930 . S
H532 C548 0.959 . S
H533 C548 0.959 . S
H534 C548 0.961 . S
H535 C549 0.960 . S
H536 C549 0.961 . S
H537 C549 0.959 . S
H538 C552 0.929 . S
H539 C553 0.931 . S
H540 C555 0.930 . S
C541 H529 0.930 . S
C541 C542 1.399 . S
C541 C546 1.399 . S
C542 C541 1.399 . S
C542 C543 1.376 . S
C543 H530 0.930 . S
C543 C542 1.376 . S
C543 C544 1.388 . S
C544 H531 0.930 . S
C544 C543 1.388 . S
C544 C545 1.390 . S
C545 C544 1.390 . S
C545 C546 1.394 . S
C545 C551 1.465 . S
C546 C541 1.399 . S
C546 C545 1.394 . S
C546 C547 1.516 . S
C547 C546 1.516 . S
C547 C548 1.502 . S
C547 C549 1.561 . S
C547 C550 1.526 . S
C548 H532 0.959 . S
C548 H533 0.959 . S
C548 H534 0.961 . S
C548 C547 1.502 . S
C549 H535 0.960 . S
C549 H536 0.961 . S
C549 H537 0.959 . S
C549 C547 1.561 . S
C550 C547 1.526 . S
C550 C551 1.396 . S
C550 C555 1.390 . S
C551 C545 1.465 . S
C551 C550 1.396 . S
C551 C552 1.399 . S
C552 H538 0.929 . S
C552 C551 1.399 . S
C552 C553 1.385 . S
C553 H539 0.931 . S
C553 C552 1.385 . S
C553 C554 1.389 . S
C554 C553 1.389 . S
C554 C555 1.387 . S
C555 H540 0.930 . S
C555 C550 1.390 . S
C555 C554 1.387 . S
H556 C568 0.930 . S
H557 C570 0.930 . S
H558 C571 0.930 . S
H559 C575 0.959 . S
H560 C575 0.959 . S
H561 C575 0.961 . S
H562 C576 0.960 . S
H563 C576 0.961 . S
H564 C576 0.959 . S
H565 C579 0.929 . S
H566 C580 0.931 . S
H567 C582 0.930 . S
C568 H556 0.930 . S
C568 C569 1.399 . S
C568 C573 1.399 . S
C569 C568 1.399 . S
C569 C570 1.376 . S
C570 H557 0.930 . S
C570 C569 1.376 . S
C570 C571 1.388 . S
C571 H558 0.930 . S
C571 C570 1.388 . S
C571 C572 1.390 . S
C572 C571 1.390 . S
C572 C573 1.394 . S
C572 C578 1.465 . S
C573 C568 1.399 . S
C573 C572 1.394 . S
C573 C574 1.516 . S
C574 C573 1.516 . S
C574 C575 1.502 . S
C574 C576 1.561 . S
C574 C577 1.526 . S
C575 H559 0.959 . S
C575 H560 0.959 . S
C575 H561 0.961 . S
C575 C574 1.502 . S
C576 H562 0.960 . S
C576 H563 0.961 . S
C576 H564 0.959 . S
C576 C574 1.561 . S
C577 C574 1.526 . S
C577 C578 1.396 . S
C577 C582 1.390 . S
C578 C572 1.465 . S
C578 C577 1.396 . S
C578 C579 1.399 . S
C579 H565 0.929 . S
C579 C578 1.399 . S
C579 C580 1.385 . S
C580 H566 0.931 . S
C580 C579 1.385 . S
C580 C581 1.389 . S
C581 C580 1.389 . S
C581 C582 1.387 . S
C582 H567 0.930 . S
C582 C577 1.390 . S
C582 C581 1.387 . S
H583 C595 0.930 . S
H584 C597 0.930 . S
H585 C598 0.930 . S
H586 C602 0.959 . S
H587 C602 0.959 . S
H588 C602 0.961 . S
H589 C603 0.960 . S
H590 C603 0.961 . S
H591 C603 0.959 . S
H592 C606 0.929 . S
H593 C607 0.931 . S
H594 C609 0.930 . S
C595 H583 0.930 . S
C595 C596 1.399 . S
C595 C600 1.399 . S
C596 C595 1.399 . S
C596 C597 1.376 . S
C597 H584 0.930 . S
C597 C596 1.376 . S
C597 C598 1.388 . S
C598 H585 0.930 . S
C598 C597 1.388 . S
C598 C599 1.390 . S
C599 C598 1.390 . S
C599 C600 1.394 . S
C599 C605 1.465 . S
C600 C595 1.399 . S
C600 C599 1.394 . S
C600 C601 1.516 . S
C601 C600 1.516 . S
C601 C602 1.502 . S
C601 C603 1.561 . S
C601 C604 1.526 . S
C602 H586 0.959 . S
C602 H587 0.959 . S
C602 H588 0.961 . S
C602 C601 1.502 . S
C603 H589 0.960 . S
C603 H590 0.961 . S
C603 H591 0.959 . S
C603 C601 1.561 . S
C604 C601 1.526 . S
C604 C605 1.396 . S
C604 C609 1.390 . S
C605 C599 1.465 . S
C605 C604 1.396 . S
C605 C606 1.399 . S
C606 H592 0.929 . S
C606 C605 1.399 . S
C606 C607 1.385 . S
C607 H593 0.931 . S
C607 C606 1.385 . S
C607 C608 1.389 . S
C608 C607 1.389 . S
C608 C609 1.387 . S
C609 H594 0.930 . S
C609 C604 1.390 . S
C609 C608 1.387 . S
H610 C622 0.930 . S
H611 C624 0.930 . S
H612 C625 0.930 . S
H613 C629 0.959 . S
H614 C629 0.959 . S
H615 C629 0.961 . S
H616 C630 0.960 . S
H617 C630 0.961 . S
H618 C630 0.959 . S
H619 C633 0.929 . S
H620 C634 0.931 . S
H621 C636 0.930 . S
C622 H610 0.930 . S
C622 C623 1.399 . S
C622 C627 1.399 . S
C623 C622 1.399 . S
C623 C624 1.376 . S
C624 H611 0.930 . S
C624 C623 1.376 . S
C624 C625 1.388 . S
C625 H612 0.930 . S
C625 C624 1.388 . S
C625 C626 1.390 . S
C626 C625 1.390 . S
C626 C627 1.394 . S
C626 C632 1.465 . S
C627 C622 1.399 . S
C627 C626 1.394 . S
C627 C628 1.516 . S
C628 C627 1.516 . S
C628 C629 1.502 . S
C628 C630 1.561 . S
C628 C631 1.526 . S
C629 H613 0.959 . S
C629 H614 0.959 . S
C629 H615 0.961 . S
C629 C628 1.502 . S
C630 H616 0.960 . S
C630 H617 0.961 . S
C630 H618 0.959 . S
C630 C628 1.561 . S
C631 C628 1.526 . S
C631 C632 1.396 . S
C631 C636 1.390 . S
C632 C626 1.465 . S
C632 C631 1.396 . S
C632 C633 1.399 . S
C633 H619 0.929 . S
C633 C632 1.399 . S
C633 C634 1.385 . S
C634 H620 0.931 . S
C634 C633 1.385 . S
C634 C635 1.389 . S
C635 C634 1.389 . S
C635 C636 1.387 . S
C636 H621 0.930 . S
C636 C631 1.390 . S
C636 C635 1.387 . S
H637 C649 0.930 . S
H638 C651 0.930 . S
H639 C652 0.930 . S
H640 C656 0.959 . S
H641 C656 0.959 . S
H642 C656 0.961 . S
H643 C657 0.960 . S
H644 C657 0.961 . S
H645 C657 0.959 . S
H646 C660 0.929 . S
H647 C661 0.931 . S
H648 C663 0.930 . S
C649 H637 0.930 . S
C649 C650 1.399 . S
C649 C654 1.399 . S
C650 C649 1.399 . S
C650 C651 1.376 . S
C651 H638 0.930 . S
C651 C650 1.376 . S
C651 C652 1.388 . S
C652 H639 0.930 . S
C652 C651 1.388 . S
C652 C653 1.390 . S
C653 C652 1.390 . S
C653 C654 1.394 . S
C653 C659 1.465 . S
C654 C649 1.399 . S
C654 C653 1.394 . S
C654 C655 1.516 . S
C655 C654 1.516 . S
C655 C656 1.502 . S
C655 C657 1.561 . S
C655 C658 1.526 . S
C656 H640 0.959 . S
C656 H641 0.959 . S
C656 H642 0.961 . S
C656 C655 1.502 . S
C657 H643 0.960 . S
C657 H644 0.961 . S
C657 H645 0.959 . S
C657 C655 1.561 . S
C658 C655 1.526 . S
C658 C659 1.396 . S
C658 C663 1.390 . S
C659 C653 1.465 . S
C659 C658 1.396 . S
C659 C660 1.399 . S
C660 H646 0.929 . S
C660 C659 1.399 . S
C660 C661 1.385 . S
C661 H647 0.931 . S
C661 C660 1.385 . S
C661 C662 1.389 . S
C662 C661 1.389 . S
C662 C663 1.387 . S
C663 H648 0.930 . S
C663 C658 1.390 . S
C663 C662 1.387 . S
H664 C676 0.930 . S
H665 C678 0.930 . S
H666 C679 0.930 . S
H667 C683 0.959 . S
H668 C683 0.959 . S
H669 C683 0.961 . S
H670 C684 0.960 . S
H671 C684 0.961 . S
H672 C684 0.959 . S
H673 C687 0.929 . S
H674 C688 0.931 . S
H675 C690 0.930 . S
C676 H664 0.930 . S
C676 C677 1.399 . S
C676 C681 1.399 . S
C677 C676 1.399 . S
C677 C678 1.376 . S
C678 H665 0.930 . S
C678 C677 1.376 . S
C678 C679 1.388 . S
C679 H666 0.930 . S
C679 C678 1.388 . S
C679 C680 1.390 . S
C680 C679 1.390 . S
C680 C681 1.394 . S
C680 C686 1.465 . S
C681 C676 1.399 . S
C681 C680 1.394 . S
C681 C682 1.516 . S
C682 C681 1.516 . S
C682 C683 1.502 . S
C682 C684 1.561 . S
C682 C685 1.526 . S
C683 H667 0.959 . S
C683 H668 0.959 . S
C683 H669 0.961 . S
C683 C682 1.502 . S
C684 H670 0.960 . S
C684 H671 0.961 . S
C684 H672 0.959 . S
C684 C682 1.561 . S
C685 C682 1.526 . S
C685 C686 1.396 . S
C685 C690 1.390 . S
C686 C680 1.465 . S
C686 C685 1.396 . S
C686 C687 1.399 . S
C687 H673 0.929 . S
C687 C686 1.399 . S
C687 C688 1.385 . S
C688 H674 0.931 . S
C688 C687 1.385 . S
C688 C689 1.389 . S
C689 C688 1.389 . S
C689 C690 1.387 . S
C690 H675 0.930 . S
C690 C685 1.390 . S
C690 C689 1.387 . S
H691 C703 0.930 . S
H692 C705 0.930 . S
H693 C706 0.930 . S
H694 C710 0.959 . S
H695 C710 0.959 . S
H696 C710 0.961 . S
H697 C711 0.960 . S
H698 C711 0.961 . S
H699 C711 0.959 . S
H700 C714 0.929 . S
H701 C715 0.931 . S
H702 C717 0.930 . S
C703 H691 0.930 . S
C703 C704 1.399 . S
C703 C708 1.399 . S
C704 C703 1.399 . S
C704 C705 1.376 . S
C705 H692 0.930 . S
C705 C704 1.376 . S
C705 C706 1.388 . S
C706 H693 0.930 . S
C706 C705 1.388 . S
C706 C707 1.390 . S
C707 C706 1.390 . S
C707 C708 1.394 . S
C707 C713 1.465 . S
C708 C703 1.399 . S
C708 C707 1.394 . S
C708 C709 1.516 . S
C709 C708 1.516 . S
C709 C710 1.502 . S
C709 C711 1.561 . S
C709 C712 1.526 . S
C710 H694 0.959 . S
C710 H695 0.959 . S
C710 H696 0.961 . S
C710 C709 1.502 . S
C711 H697 0.960 . S
C711 H698 0.961 . S
C711 H699 0.959 . S
C711 C709 1.561 . S
C712 C709 1.526 . S
C712 C713 1.396 . S
C712 C717 1.390 . S
C713 C707 1.465 . S
C713 C712 1.396 . S
C713 C714 1.399 . S
C714 H700 0.929 . S
C714 C713 1.399 . S
C714 C715 1.385 . S
C715 H701 0.931 . S
C715 C714 1.385 . S
C715 C716 1.389 . S
C716 C715 1.389 . S
C716 C717 1.387 . S
C717 H702 0.930 . S
C717 C712 1.390 . S
C717 C716 1.387 . S
H718 C730 0.930 . S
H719 C732 0.930 . S
H720 C733 0.930 . S
H721 C737 0.959 . S
H722 C737 0.959 . S
H723 C737 0.961 . S
H724 C738 0.960 . S
H725 C738 0.961 . S
H726 C738 0.959 . S
H727 C741 0.929 . S
H728 C742 0.931 . S
H729 C744 0.930 . S
C730 H718 0.930 . S
C730 C731 1.399 . S
C730 C735 1.399 . S
C731 C730 1.399 . S
C731 C732 1.376 . S
C732 H719 0.930 . S
C732 C731 1.376 . S
C732 C733 1.388 . S
C733 H720 0.930 . S
C733 C732 1.388 . S
C733 C734 1.390 . S
C734 C733 1.390 . S
C734 C735 1.394 . S
C734 C740 1.465 . S
C735 C730 1.399 . S
C735 C734 1.394 . S
C735 C736 1.516 . S
C736 C735 1.516 . S
C736 C737 1.502 . S
C736 C738 1.561 . S
C736 C739 1.526 . S
C737 H721 0.959 . S
C737 H722 0.959 . S
C737 H723 0.961 . S
C737 C736 1.502 . S
C738 H724 0.960 . S
C738 H725 0.961 . S
C738 H726 0.959 . S
C738 C736 1.561 . S
C739 C736 1.526 . S
C739 C740 1.396 . S
C739 C744 1.390 . S
C740 C734 1.465 . S
C740 C739 1.396 . S
C740 C741 1.399 . S
C741 H727 0.929 . S
C741 C740 1.399 . S
C741 C742 1.385 . S
C742 H728 0.931 . S
C742 C741 1.385 . S
C742 C743 1.389 . S
C743 C742 1.389 . S
C743 C744 1.387 . S
C744 H729 0.930 . S
C744 C739 1.390 . S
C744 C743 1.387 . S
H745 C757 0.930 . S
H746 C759 0.930 . S
H747 C760 0.930 . S
H748 C764 0.959 . S
H749 C764 0.959 . S
H750 C764 0.961 . S
H751 C765 0.960 . S
H752 C765 0.961 . S
H753 C765 0.959 . S
H754 C768 0.929 . S
H755 C769 0.931 . S
H756 C771 0.930 . S
C757 H745 0.930 . S
C757 C758 1.399 . S
C757 C762 1.399 . S
C758 C757 1.399 . S
C758 C759 1.376 . S
C759 H746 0.930 . S
C759 C758 1.376 . S
C759 C760 1.388 . S
C760 H747 0.930 . S
C760 C759 1.388 . S
C760 C761 1.390 . S
C761 C760 1.390 . S
C761 C762 1.394 . S
C761 C767 1.465 . S
C762 C757 1.399 . S
C762 C761 1.394 . S
C762 C763 1.516 . S
C763 C762 1.516 . S
C763 C764 1.502 . S
C763 C765 1.561 . S
C763 C766 1.526 . S
C764 H748 0.959 . S
C764 H749 0.959 . S
C764 H750 0.961 . S
C764 C763 1.502 . S
C765 H751 0.960 . S
C765 H752 0.961 . S
C765 H753 0.959 . S
C765 C763 1.561 . S
C766 C763 1.526 . S
C766 C767 1.396 . S
C766 C771 1.390 . S
C767 C761 1.465 . S
C767 C766 1.396 . S
C767 C768 1.399 . S
C768 H754 0.929 . S
C768 C767 1.399 . S
C768 C769 1.385 . S
C769 H755 0.931 . S
C769 C768 1.385 . S
C769 C770 1.389 . S
C770 C769 1.389 . S
C770 C771 1.387 . S
C771 H756 0.930 . S
C771 C766 1.390 . S
C771 C770 1.387 . S
H772 C784 0.930 . S
H773 C786 0.930 . S
H774 C787 0.930 . S
H775 C791 0.959 . S
H776 C791 0.959 . S
H777 C791 0.961 . S
H778 C792 0.960 . S
H779 C792 0.961 . S
H780 C792 0.959 . S
H781 C795 0.929 . S
H782 C796 0.931 . S
H783 C798 0.930 . S
C784 H772 0.930 . S
C784 C785 1.399 . S
C784 C789 1.399 . S
C785 C784 1.399 . S
C785 C786 1.376 . S
C786 H773 0.930 . S
C786 C785 1.376 . S
C786 C787 1.388 . S
C787 H774 0.930 . S
C787 C786 1.388 . S
C787 C788 1.390 . S
C788 C787 1.390 . S
C788 C789 1.394 . S
C788 C794 1.465 . S
C789 C784 1.399 . S
C789 C788 1.394 . S
C789 C790 1.516 . S
C790 C789 1.516 . S
C790 C791 1.502 . S
C790 C792 1.561 . S
C790 C793 1.526 . S
C791 H775 0.959 . S
C791 H776 0.959 . S
C791 H777 0.961 . S
C791 C790 1.502 . S
C792 H778 0.960 . S
C792 H779 0.961 . S
C792 H780 0.959 . S
C792 C790 1.561 . S
C793 C790 1.526 . S
C793 C794 1.396 . S
C793 C798 1.390 . S
C794 C788 1.465 . S
C794 C793 1.396 . S
C794 C795 1.399 . S
C795 H781 0.929 . S
C795 C794 1.399 . S
C795 C796 1.385 . S
C796 H782 0.931 . S
C796 C795 1.385 . S
C796 C797 1.389 . S
C797 C796 1.389 . S
C797 C798 1.387 . S
C798 H783 0.930 . S
C798 C793 1.390 . S
C798 C797 1.387 . S
H799 C811 0.930 . S
H800 C813 0.930 . S
H801 C814 0.930 . S
H802 C818 0.959 . S
H803 C818 0.959 . S
H804 C818 0.961 . S
H805 C819 0.960 . S
H806 C819 0.961 . S
H807 C819 0.959 . S
H808 C822 0.929 . S
H809 C823 0.931 . S
H810 C825 0.930 . S
C811 H799 0.930 . S
C811 C812 1.399 . S
C811 C816 1.399 . S
C812 C811 1.399 . S
C812 C813 1.376 . S
C813 H800 0.930 . S
C813 C812 1.376 . S
C813 C814 1.388 . S
C814 H801 0.930 . S
C814 C813 1.388 . S
C814 C815 1.390 . S
C815 C814 1.390 . S
C815 C816 1.394 . S
C815 C821 1.465 . S
C816 C811 1.399 . S
C816 C815 1.394 . S
C816 C817 1.516 . S
C817 C816 1.516 . S
C817 C818 1.502 . S
C817 C819 1.561 . S
C817 C820 1.526 . S
C818 H802 0.959 . S
C818 H803 0.959 . S
C818 H804 0.961 . S
C818 C817 1.502 . S
C819 H805 0.960 . S
C819 H806 0.961 . S
C819 H807 0.959 . S
C819 C817 1.561 . S
C820 C817 1.526 . S
C820 C821 1.396 . S
C820 C825 1.390 . S
C821 C815 1.465 . S
C821 C820 1.396 . S
C821 C822 1.399 . S
C822 H808 0.929 . S
C822 C821 1.399 . S
C822 C823 1.385 . S
C823 H809 0.931 . S
C823 C822 1.385 . S
C823 C824 1.389 . S
C824 C823 1.389 . S
C824 C825 1.387 . S
C825 H810 0.930 . S
C825 C820 1.390 . S
C825 C824 1.387 . S
H826 C838 0.930 . S
H827 C840 0.930 . S
H828 C841 0.930 . S
H829 C845 0.959 . S
H830 C845 0.959 . S
H831 C845 0.961 . S
H832 C846 0.960 . S
H833 C846 0.961 . S
H834 C846 0.959 . S
H835 C849 0.929 . S
H836 C850 0.931 . S
H837 C852 0.930 . S
C838 H826 0.930 . S
C838 C839 1.399 . S
C838 C843 1.399 . S
C839 C838 1.399 . S
C839 C840 1.376 . S
C840 H827 0.930 . S
C840 C839 1.376 . S
C840 C841 1.388 . S
C841 H828 0.930 . S
C841 C840 1.388 . S
C841 C842 1.390 . S
C842 C841 1.390 . S
C842 C843 1.394 . S
C842 C848 1.465 . S
C843 C838 1.399 . S
C843 C842 1.394 . S
C843 C844 1.516 . S
C844 C843 1.516 . S
C844 C845 1.502 . S
C844 C846 1.561 . S
C844 C847 1.526 . S
C845 H829 0.959 . S
C845 H830 0.959 . S
C845 H831 0.961 . S
C845 C844 1.502 . S
C846 H832 0.960 . S
C846 H833 0.961 . S
C846 H834 0.959 . S
C846 C844 1.561 . S
C847 C844 1.526 . S
C847 C848 1.396 . S
C847 C852 1.390 . S
C848 C842 1.465 . S
C848 C847 1.396 . S
C848 C849 1.399 . S
C849 H835 0.929 . S
C849 C848 1.399 . S
C849 C850 1.385 . S
C850 H836 0.931 . S
C850 C849 1.385 . S
C850 C851 1.389 . S
C851 C850 1.389 . S
C851 C852 1.387 . S
C852 H837 0.930 . S
C852 C847 1.390 . S
C852 C851 1.387 . S
H853 C865 0.930 . S
H854 C867 0.930 . S
H855 C868 0.930 . S
H856 C872 0.959 . S
H857 C872 0.959 . S
H858 C872 0.961 . S
H859 C873 0.960 . S
H860 C873 0.961 . S
H861 C873 0.959 . S
H862 C876 0.929 . S
H863 C877 0.931 . S
H864 C879 0.930 . S
C865 H853 0.930 . S
C865 C866 1.399 . S
C865 C870 1.399 . S
C866 C865 1.399 . S
C866 C867 1.376 . S
C867 H854 0.930 . S
C867 C866 1.376 . S
C867 C868 1.388 . S
C868 H855 0.930 . S
C868 C867 1.388 . S
C868 C869 1.390 . S
C869 C868 1.390 . S
C869 C870 1.394 . S
C869 C875 1.465 . S
C870 C865 1.399 . S
C870 C869 1.394 . S
C870 C871 1.516 . S
C871 C870 1.516 . S
C871 C872 1.502 . S
C871 C873 1.561 . S
C871 C874 1.526 . S
C872 H856 0.959 . S
C872 H857 0.959 . S
C872 H858 0.961 . S
C872 C871 1.502 . S
C873 H859 0.960 . S
C873 H860 0.961 . S
C873 H861 0.959 . S
C873 C871 1.561 . S
C874 C871 1.526 . S
C874 C875 1.396 . S
C874 C879 1.390 . S
C875 C869 1.465 . S
C875 C874 1.396 . S
C875 C876 1.399 . S
C876 H862 0.929 . S
C876 C875 1.399 . S
C876 C877 1.385 . S
C877 H863 0.931 . S
C877 C876 1.385 . S
C877 C878 1.389 . S
C878 C877 1.389 . S
C878 C879 1.387 . S
C879 H864 0.930 . S
C879 C874 1.390 . S
C879 C878 1.387 . S
H880 C892 0.930 . S
H881 C894 0.930 . S
H882 C895 0.930 . S
H883 C899 0.962 . S
H884 C899 0.979 . S
H885 C899 0.939 1_455 S
H886 C900 0.957 1_455 S
H887 C900 0.963 . S
H888 C900 0.959 . S
H889 C903 0.929 . S
H890 C904 0.931 . S
H891 C906 0.930 . S
C892 H880 0.930 . S
C892 C893 1.399 . S
C892 C897 1.399 . S
C893 C892 1.399 . S
C893 C894 1.376 . S
C894 H881 0.930 . S
C894 C893 1.376 . S
C894 C895 1.388 . S
C895 H882 0.930 . S
C895 C894 1.388 . S
C895 C896 1.390 . S
C896 C895 1.390 . S
C896 C897 1.394 . S
C896 C902 1.465 1_455 S
C897 C892 1.399 . S
C897 C896 1.394 . S
C897 C898 1.517 1_455 S
C898 C897 1.517 1_655 S
C898 C899 1.502 . S
C898 C900 1.561 . S
C898 C901 1.525 . S
C899 H883 0.962 . S
C899 H884 0.979 . S
C899 H885 0.939 1_655 S
C899 C898 1.502 . S
C900 H886 0.957 1_655 S
C900 H887 0.963 . S
C900 H888 0.959 . S
C900 C898 1.561 . S
C901 C898 1.525 . S
C901 C902 1.396 . S
C901 C906 1.390 . S
C902 C896 1.465 1_655 S
C902 C901 1.396 . S
C902 C903 1.399 . S
C903 H889 0.929 . S
C903 C902 1.399 . S
C903 C904 1.385 . S
C904 H890 0.931 . S
C904 C903 1.385 . S
C904 C905 1.389 . S
C905 C904 1.389 . S
C905 C906 1.387 . S
C906 H891 0.930 . S
C906 C901 1.390 . S
C906 C905 1.387 . S
H907 C919 0.930 . S
H908 C921 0.930 . S
H909 C922 0.930 . S
H910 C926 0.959 . S
H911 C926 0.959 . S
H912 C926 0.961 . S
H913 C927 0.960 . S
H914 C927 0.961 . S
H915 C927 0.959 . S
H916 C930 0.929 . S
H917 C931 0.931 . S
H918 C933 0.930 . S
C919 H907 0.930 . S
C919 C920 1.399 . S
C919 C924 1.399 . S
C920 C919 1.399 . S
C920 C921 1.376 . S
C921 H908 0.930 . S
C921 C920 1.376 . S
C921 C922 1.388 . S
C922 H909 0.930 . S
C922 C921 1.388 . S
C922 C923 1.390 . S
C923 C922 1.390 . S
C923 C924 1.394 . S
C923 C929 1.465 . S
C924 C919 1.399 . S
C924 C923 1.394 . S
C924 C925 1.516 . S
C925 C924 1.516 . S
C925 C926 1.502 . S
C925 C927 1.561 . S
C925 C928 1.526 . S
C926 H910 0.959 . S
C926 H911 0.959 . S
C926 H912 0.961 . S
C926 C925 1.502 . S
C927 H913 0.960 . S
C927 H914 0.961 . S
C927 H915 0.959 . S
C927 C925 1.561 . S
C928 C925 1.526 . S
C928 C929 1.396 . S
C928 C933 1.390 . S
C929 C923 1.465 . S
C929 C928 1.396 . S
C929 C930 1.399 . S
C930 H916 0.929 . S
C930 C929 1.399 . S
C930 C931 1.385 . S
C931 H917 0.931 . S
C931 C930 1.385 . S
C931 C932 1.389 . S
C932 C931 1.389 . S
C932 C933 1.387 . S
C933 H918 0.930 . S
C933 C928 1.390 . S
C933 C932 1.387 . S
H934 C946 0.930 . S
H935 C948 0.930 . S
H936 C949 0.930 . S
H937 C953 0.959 . S
H938 C953 0.959 . S
H939 C953 0.961 . S
H940 C954 0.960 . S
H941 C954 0.961 . S
H942 C954 0.959 . S
H943 C957 0.929 . S
H944 C958 0.931 . S
H945 C960 0.930 . S
C946 H934 0.930 . S
C946 C947 1.399 . S
C946 C951 1.399 . S
C947 C946 1.399 . S
C947 C948 1.376 . S
C948 H935 0.930 . S
C948 C947 1.376 . S
C948 C949 1.388 . S
C949 H936 0.930 . S
C949 C948 1.388 . S
C949 C950 1.390 . S
C950 C949 1.390 . S
C950 C951 1.394 . S
C950 C956 1.465 . S
C951 C946 1.399 . S
C951 C950 1.394 . S
C951 C952 1.516 . S
C952 C951 1.516 . S
C952 C953 1.502 . S
C952 C954 1.561 . S
C952 C955 1.526 . S
C953 H937 0.959 . S
C953 H938 0.959 . S
C953 H939 0.961 . S
C953 C952 1.502 . S
C954 H940 0.960 . S
C954 H941 0.961 . S
C954 H942 0.959 . S
C954 C952 1.561 . S
C955 C952 1.526 . S
C955 C956 1.396 . S
C955 C960 1.390 . S
C956 C950 1.465 . S
C956 C955 1.396 . S
C956 C957 1.399 . S
C957 H943 0.929 . S
C957 C956 1.399 . S
C957 C958 1.385 . S
C958 H944 0.931 . S
C958 C957 1.385 . S
C958 C959 1.389 . S
C959 C958 1.389 . S
C959 C960 1.387 . S
C960 H945 0.930 . S
C960 C955 1.390 . S
C960 C959 1.387 . S
H961 C973 0.930 . S
H962 C975 0.930 . S
H963 C976 0.930 . S
H964 C980 0.959 . S
H965 C980 0.959 . S
H966 C980 0.961 . S
H967 C981 0.960 . S
H968 C981 0.961 . S
H969 C981 0.959 . S
H970 C984 0.929 . S
H971 C985 0.931 . S
H972 C987 0.930 . S
C973 H961 0.930 . S
C973 C974 1.399 . S
C973 C978 1.399 . S
C974 C973 1.399 . S
C974 C975 1.376 . S
C975 H962 0.930 . S
C975 C974 1.376 . S
C975 C976 1.388 . S
C976 H963 0.930 . S
C976 C975 1.388 . S
C976 C977 1.390 . S
C977 C976 1.390 . S
C977 C978 1.394 . S
C977 C983 1.465 . S
C978 C973 1.399 . S
C978 C977 1.394 . S
C978 C979 1.516 . S
C979 C978 1.516 . S
C979 C980 1.502 . S
C979 C981 1.561 . S
C979 C982 1.526 . S
C980 H964 0.959 . S
C980 H965 0.959 . S
C980 H966 0.961 . S
C980 C979 1.502 . S
C981 H967 0.960 . S
C981 H968 0.961 . S
C981 H969 0.959 . S
C981 C979 1.561 . S
C982 C979 1.526 . S
C982 C983 1.396 . S
C982 C987 1.390 . S
C983 C977 1.465 . S
C983 C982 1.396 . S
C983 C984 1.399 . S
C984 H970 0.929 . S
C984 C983 1.399 . S
C984 C985 1.385 . S
C985 H971 0.931 . S
C985 C984 1.385 . S
C985 C986 1.389 . S
C986 C985 1.389 . S
C986 C987 1.387 . S
C987 H972 0.930 . S
C987 C982 1.390 . S
C987 C986 1.387 . S
H988 C1000 0.930 . S
H989 C1002 0.930 . S
H990 C1003 0.930 . S
H991 C1007 0.962 . S
H992 C1007 0.978 . S
H993 C1007 0.940 1_655 S
H994 C1008 0.958 1_655 S
H995 C1008 0.962 . S
H996 C1008 0.959 . S
H997 C1011 0.929 . S
H998 C1012 0.931 . S
H999 C1014 0.930 . S
C1000 H988 0.930 . S
C1000 C1001 1.399 . S
C1000 C1005 1.399 . S
C1001 C1000 1.399 . S
C1001 C1002 1.376 . S
C1002 H989 0.930 . S
C1002 C1001 1.376 . S
C1002 C1003 1.388 . S
C1003 H990 0.930 . S
C1003 C1002 1.388 . S
C1003 C1004 1.390 . S
C1004 C1003 1.390 . S
C1004 C1005 1.394 . S
C1004 C1010 1.465 1_655 S
C1005 C1000 1.399 . S
C1005 C1004 1.394 . S
C1005 C1006 1.518 1_655 S
C1006 C1005 1.518 1_455 S
C1006 C1007 1.502 . S
C1006 C1008 1.561 . S
C1006 C1009 1.524 . S
C1007 H991 0.962 . S
C1007 H992 0.978 . S
C1007 H993 0.940 1_455 S
C1007 C1006 1.502 . S
C1008 H994 0.958 1_455 S
C1008 H995 0.962 . S
C1008 H996 0.959 . S
C1008 C1006 1.561 . S
C1009 C1006 1.524 . S
C1009 C1010 1.396 . S
C1009 C1014 1.390 . S
C1010 C1004 1.465 1_455 S
C1010 C1009 1.396 . S
C1010 C1011 1.399 . S
C1011 H997 0.929 . S
C1011 C1010 1.399 . S
C1011 C1012 1.385 . S
C1012 H998 0.931 . S
C1012 C1011 1.385 . S
C1012 C1013 1.389 . S
C1013 C1012 1.389 . S
C1013 C1014 1.387 . S
C1014 H999 0.930 . S
C1014 C1009 1.390 . S
C1014 C1013 1.387 . S
H1015 C1027 0.930 . S
H1016 C1029 0.930 . S
H1017 C1030 0.930 . S
H1018 C1034 0.959 . S
H1019 C1034 0.959 . S
H1020 C1034 0.961 . S
H1021 C1035 0.960 . S
H1022 C1035 0.961 . S
H1023 C1035 0.959 . S
H1024 C1038 0.929 . S
H1025 C1039 0.931 . S
H1026 C1041 0.930 . S
C1027 H1015 0.930 . S
C1027 C1028 1.399 . S
C1027 C1032 1.399 . S
C1028 C1027 1.399 . S
C1028 C1029 1.376 . S
C1029 H1016 0.930 . S
C1029 C1028 1.376 . S
C1029 C1030 1.388 . S
C1030 H1017 0.930 . S
C1030 C1029 1.388 . S
C1030 C1031 1.390 . S
C1031 C1030 1.390 . S
C1031 C1032 1.394 . S
C1031 C1037 1.465 . S
C1032 C1027 1.399 . S
C1032 C1031 1.394 . S
C1032 C1033 1.516 . S
C1033 C1032 1.516 . S
C1033 C1034 1.502 . S
C1033 C1035 1.561 . S
C1033 C1036 1.526 . S
C1034 H1018 0.959 . S
C1034 H1019 0.959 . S
C1034 H1020 0.961 . S
C1034 C1033 1.502 . S
C1035 H1021 0.960 . S
C1035 H1022 0.961 . S
C1035 H1023 0.959 . S
C1035 C1033 1.561 . S
C1036 C1033 1.526 . S
C1036 C1037 1.396 . S
C1036 C1041 1.390 . S
C1037 C1031 1.465 . S
C1037 C1036 1.396 . S
C1037 C1038 1.399 . S
C1038 H1024 0.929 . S
C1038 C1037 1.399 . S
C1038 C1039 1.385 . S
C1039 H1025 0.931 . S
C1039 C1038 1.385 . S
C1039 C1040 1.389 . S
C1040 C1039 1.389 . S
C1040 C1041 1.387 . S
C1041 H1026 0.930 . S
C1041 C1036 1.390 . S
C1041 C1040 1.387 . S
H1042 C1054 0.930 . S
H1043 C1056 0.930 . S
H1044 C1057 0.930 . S
H1045 C1061 0.959 . S
H1046 C1061 0.959 . S
H1047 C1061 0.961 . S
H1048 C1062 0.960 . S
H1049 C1062 0.961 . S
H1050 C1062 0.959 . S
H1051 C1065 0.929 . S
H1052 C1066 0.931 . S
H1053 C1068 0.930 . S
C1054 H1042 0.930 . S
C1054 C1055 1.399 . S
C1054 C1059 1.399 . S
C1055 C1054 1.399 . S
C1055 C1056 1.376 . S
C1056 H1043 0.930 . S
C1056 C1055 1.376 . S
C1056 C1057 1.388 . S
C1057 H1044 0.930 . S
C1057 C1056 1.388 . S
C1057 C1058 1.390 . S
C1058 C1057 1.390 . S
C1058 C1059 1.394 . S
C1058 C1064 1.465 . S
C1059 C1054 1.399 . S
C1059 C1058 1.394 . S
C1059 C1060 1.516 . S
C1060 C1059 1.516 . S
C1060 C1061 1.502 . S
C1060 C1062 1.561 . S
C1060 C1063 1.526 . S
C1061 H1045 0.959 . S
C1061 H1046 0.959 . S
C1061 H1047 0.961 . S
C1061 C1060 1.502 . S
C1062 H1048 0.960 . S
C1062 H1049 0.961 . S
C1062 H1050 0.959 . S
C1062 C1060 1.561 . S
C1063 C1060 1.526 . S
C1063 C1064 1.396 . S
C1063 C1068 1.390 . S
C1064 C1058 1.465 . S
C1064 C1063 1.396 . S
C1064 C1065 1.399 . S
C1065 H1051 0.929 . S
C1065 C1064 1.399 . S
C1065 C1066 1.385 . S
C1066 H1052 0.931 . S
C1066 C1065 1.385 . S
C1066 C1067 1.389 . S
C1067 C1066 1.389 . S
C1067 C1068 1.387 . S
C1068 H1053 0.930 . S
C1068 C1063 1.390 . S
C1068 C1067 1.387 . S
H1069 C1081 0.930 . S
H1070 C1083 0.930 . S
H1071 C1084 0.930 . S
H1072 C1088 0.959 . S
H1073 C1088 0.959 . S
H1074 C1088 0.961 . S
H1075 C1089 0.960 . S
H1076 C1089 0.961 . S
H1077 C1089 0.959 . S
H1078 C1092 0.929 . S
H1079 C1093 0.931 . S
H1080 C1095 0.930 . S
C1081 H1069 0.930 . S
C1081 C1082 1.399 . S
C1081 C1086 1.399 . S
C1082 C1081 1.399 . S
C1082 C1083 1.376 . S
C1083 H1070 0.930 . S
C1083 C1082 1.376 . S
C1083 C1084 1.388 . S
C1084 H1071 0.930 . S
C1084 C1083 1.388 . S
C1084 C1085 1.390 . S
C1085 C1084 1.390 . S
C1085 C1086 1.394 . S
C1085 C1091 1.465 . S
C1086 C1081 1.399 . S
C1086 C1085 1.394 . S
C1086 C1087 1.516 . S
C1087 C1086 1.516 . S
C1087 C1088 1.502 . S
C1087 C1089 1.561 . S
C1087 C1090 1.526 . S
C1088 H1072 0.959 . S
C1088 H1073 0.959 . S
C1088 H1074 0.961 . S
C1088 C1087 1.502 . S
C1089 H1075 0.960 . S
C1089 H1076 0.961 . S
C1089 H1077 0.959 . S
C1089 C1087 1.561 . S
C1090 C1087 1.526 . S
C1090 C1091 1.396 . S
C1090 C1095 1.390 . S
C1091 C1085 1.465 . S
C1091 C1090 1.396 . S
C1091 C1092 1.399 . S
C1092 H1078 0.929 . S
C1092 C1091 1.399 . S
C1092 C1093 1.385 . S
C1093 H1079 0.931 . S
C1093 C1092 1.385 . S
C1093 C1094 1.389 . S
C1094 C1093 1.389 . S
C1094 C1095 1.387 . S
C1095 H1080 0.930 . S
C1095 C1090 1.390 . S
C1095 C1094 1.387 . S
H1096 C1108 0.930 . S
H1097 C1110 0.930 . S
H1098 C1111 0.930 . S
H1099 C1115 0.959 . S
H1100 C1115 0.959 . S
H1101 C1115 0.961 . S
H1102 C1116 0.960 . S
H1103 C1116 0.961 . S
H1104 C1116 0.959 . S
H1105 C1119 0.929 . S
H1106 C1120 0.931 . S
H1107 C1122 0.930 . S
C1108 H1096 0.930 . S
C1108 C1109 1.399 . S
C1108 C1113 1.399 . S
C1109 C1108 1.399 . S
C1109 C1110 1.376 . S
C1110 H1097 0.930 . S
C1110 C1109 1.376 . S
C1110 C1111 1.388 . S
C1111 H1098 0.930 . S
C1111 C1110 1.388 . S
C1111 C1112 1.390 . S
C1112 C1111 1.390 . S
C1112 C1113 1.394 . S
C1112 C1118 1.465 . S
C1113 C1108 1.399 . S
C1113 C1112 1.394 . S
C1113 C1114 1.516 . S
C1114 C1113 1.516 . S
C1114 C1115 1.502 . S
C1114 C1116 1.561 . S
C1114 C1117 1.526 . S
C1115 H1099 0.959 . S
C1115 H1100 0.959 . S
C1115 H1101 0.961 . S
C1115 C1114 1.502 . S
C1116 H1102 0.960 . S
C1116 H1103 0.961 . S
C1116 H1104 0.959 . S
C1116 C1114 1.561 . S
C1117 C1114 1.526 . S
C1117 C1118 1.396 . S
C1117 C1122 1.390 . S
C1118 C1112 1.465 . S
C1118 C1117 1.396 . S
C1118 C1119 1.399 . S
C1119 H1105 0.929 . S
C1119 C1118 1.399 . S
C1119 C1120 1.385 . S
C1120 H1106 0.931 . S
C1120 C1119 1.385 . S
C1120 C1121 1.389 . S
C1121 C1120 1.389 . S
C1121 C1122 1.387 . S
C1122 H1107 0.930 . S
C1122 C1117 1.390 . S
C1122 C1121 1.387 . S
H1123 C1135 0.930 . S
H1124 C1137 0.930 . S
H1125 C1138 0.930 . S
H1126 C1142 0.959 . S
H1127 C1142 0.959 . S
H1128 C1142 0.961 . S
H1129 C1143 0.960 . S
H1130 C1143 0.961 . S
H1131 C1143 0.959 . S
H1132 C1146 0.929 . S
H1133 C1147 0.931 . S
H1134 C1149 0.930 . S
C1135 H1123 0.930 . S
C1135 C1136 1.399 . S
C1135 C1140 1.399 . S
C1136 C1135 1.399 . S
C1136 C1137 1.376 . S
C1137 H1124 0.930 . S
C1137 C1136 1.376 . S
C1137 C1138 1.388 . S
C1138 H1125 0.930 . S
C1138 C1137 1.388 . S
C1138 C1139 1.390 . S
C1139 C1138 1.390 . S
C1139 C1140 1.394 . S
C1139 C1145 1.465 . S
C1140 C1135 1.399 . S
C1140 C1139 1.394 . S
C1140 C1141 1.516 . S
C1141 C1140 1.516 . S
C1141 C1142 1.502 . S
C1141 C1143 1.561 . S
C1141 C1144 1.526 . S
C1142 H1126 0.959 . S
C1142 H1127 0.959 . S
C1142 H1128 0.961 . S
C1142 C1141 1.502 . S
C1143 H1129 0.960 . S
C1143 H1130 0.961 . S
C1143 H1131 0.959 . S
C1143 C1141 1.561 . S
C1144 C1141 1.526 . S
C1144 C1145 1.396 . S
C1144 C1149 1.390 . S
C1145 C1139 1.465 . S
C1145 C1144 1.396 . S
C1145 C1146 1.399 . S
C1146 H1132 0.929 . S
C1146 C1145 1.399 . S
C1146 C1147 1.385 . S
C1147 H1133 0.931 . S
C1147 C1146 1.385 . S
C1147 C1148 1.389 . S
C1148 C1147 1.389 . S
C1148 C1149 1.387 . S
C1149 H1134 0.930 . S
C1149 C1144 1.390 . S
C1149 C1148 1.387 . S
H1150 C1162 0.930 . S
H1151 C1164 0.930 . S
H1152 C1165 0.930 . S
H1153 C1169 0.959 . S
H1154 C1169 0.959 . S
H1155 C1169 0.961 . S
H1156 C1170 0.960 . S
H1157 C1170 0.961 . S
H1158 C1170 0.959 . S
H1159 C1173 0.929 . S
H1160 C1174 0.931 . S
H1161 C1176 0.930 . S
C1162 H1150 0.930 . S
C1162 C1163 1.399 . S
C1162 C1167 1.399 . S
C1163 C1162 1.399 . S
C1163 C1164 1.376 . S
C1164 H1151 0.930 . S
C1164 C1163 1.376 . S
C1164 C1165 1.388 . S
C1165 H1152 0.930 . S
C1165 C1164 1.388 . S
C1165 C1166 1.390 . S
C1166 C1165 1.390 . S
C1166 C1167 1.394 . S
C1166 C1172 1.465 . S
C1167 C1162 1.399 . S
C1167 C1166 1.394 . S
C1167 C1168 1.516 . S
C1168 C1167 1.516 . S
C1168 C1169 1.502 . S
C1168 C1170 1.561 . S
C1168 C1171 1.526 . S
C1169 H1153 0.959 . S
C1169 H1154 0.959 . S
C1169 H1155 0.961 . S
C1169 C1168 1.502 . S
C1170 H1156 0.960 . S
C1170 H1157 0.961 . S
C1170 H1158 0.959 . S
C1170 C1168 1.561 . S
C1171 C1168 1.526 . S
C1171 C1172 1.396 . S
C1171 C1176 1.390 . S
C1172 C1166 1.465 . S
C1172 C1171 1.396 . S
C1172 C1173 1.399 . S
C1173 H1159 0.929 . S
C1173 C1172 1.399 . S
C1173 C1174 1.385 . S
C1174 H1160 0.931 . S
C1174 C1173 1.385 . S
C1174 C1175 1.389 . S
C1175 C1174 1.389 . S
C1175 C1176 1.387 . S
C1176 H1161 0.930 . S
C1176 C1171 1.390 . S
C1176 C1175 1.387 . S
H1177 C1189 0.930 . S
H1178 C1191 0.930 . S
H1179 C1192 0.930 . S
H1180 C1196 0.959 . S
H1181 C1196 0.959 . S
H1182 C1196 0.961 . S
H1183 C1197 0.960 . S
H1184 C1197 0.961 . S
H1185 C1197 0.959 . S
H1186 C1200 0.929 . S
H1187 C1201 0.931 . S
H1188 C1203 0.930 . S
C1189 H1177 0.930 . S
C1189 C1190 1.399 . S
C1189 C1194 1.399 . S
C1190 C1189 1.399 . S
C1190 C1191 1.376 . S
C1191 H1178 0.930 . S
C1191 C1190 1.376 . S
C1191 C1192 1.388 . S
C1192 H1179 0.930 . S
C1192 C1191 1.388 . S
C1192 C1193 1.390 . S
C1193 C1192 1.390 . S
C1193 C1194 1.394 . S
C1193 C1199 1.465 . S
C1194 C1189 1.399 . S
C1194 C1193 1.394 . S
C1194 C1195 1.516 . S
C1195 C1194 1.516 . S
C1195 C1196 1.502 . S
C1195 C1197 1.561 . S
C1195 C1198 1.526 . S
C1196 H1180 0.959 . S
C1196 H1181 0.959 . S
C1196 H1182 0.961 . S
C1196 C1195 1.502 . S
C1197 H1183 0.960 . S
C1197 H1184 0.961 . S
C1197 H1185 0.959 . S
C1197 C1195 1.561 . S
C1198 C1195 1.526 . S
C1198 C1199 1.396 . S
C1198 C1203 1.390 . S
C1199 C1193 1.465 . S
C1199 C1198 1.396 . S
C1199 C1200 1.399 . S
C1200 H1186 0.929 . S
C1200 C1199 1.399 . S
C1200 C1201 1.385 . S
C1201 H1187 0.931 . S
C1201 C1200 1.385 . S
C1201 C1202 1.389 . S
C1202 C1201 1.389 . S
C1202 C1203 1.387 . S
C1203 H1188 0.930 . S
C1203 C1198 1.390 . S
C1203 C1202 1.387 . S
H1204 C1216 0.930 . S
H1205 C1218 0.930 . S
H1206 C1219 0.930 . S
H1207 C1223 0.959 . S
H1208 C1223 0.959 . S
H1209 C1223 0.961 . S
H1210 C1224 0.960 . S
H1211 C1224 0.961 . S
H1212 C1224 0.959 . S
H1213 C1227 0.929 . S
H1214 C1228 0.931 . S
H1215 C1230 0.930 . S
C1216 H1204 0.930 . S
C1216 C1217 1.399 . S
C1216 C1221 1.399 . S
C1217 C1216 1.399 . S
C1217 C1218 1.376 . S
C1218 H1205 0.930 . S
C1218 C1217 1.376 . S
C1218 C1219 1.388 . S
C1219 H1206 0.930 . S
C1219 C1218 1.388 . S
C1219 C1220 1.390 . S
C1220 C1219 1.390 . S
C1220 C1221 1.394 . S
C1220 C1226 1.465 . S
C1221 C1216 1.399 . S
C1221 C1220 1.394 . S
C1221 C1222 1.516 . S
C1222 C1221 1.516 . S
C1222 C1223 1.502 . S
C1222 C1224 1.561 . S
C1222 C1225 1.526 . S
C1223 H1207 0.959 . S
C1223 H1208 0.959 . S
C1223 H1209 0.961 . S
C1223 C1222 1.502 . S
C1224 H1210 0.960 . S
C1224 H1211 0.961 . S
C1224 H1212 0.959 . S
C1224 C1222 1.561 . S
C1225 C1222 1.526 . S
C1225 C1226 1.396 . S
C1225 C1230 1.390 . S
C1226 C1220 1.465 . S
C1226 C1225 1.396 . S
C1226 C1227 1.399 . S
C1227 H1213 0.929 . S
C1227 C1226 1.399 . S
C1227 C1228 1.385 . S
C1228 H1214 0.931 . S
C1228 C1227 1.385 . S
C1228 C1229 1.389 . S
C1229 C1228 1.389 . S
C1229 C1230 1.387 . S
C1230 H1215 0.930 . S
C1230 C1225 1.390 . S
C1230 C1229 1.387 . S
H1231 C1243 0.930 . S
H1232 C1245 0.930 . S
H1233 C1246 0.930 . S
H1234 C1250 0.962 . S
H1235 C1250 0.979 . S
H1236 C1250 0.939 1_655 S
H1237 C1251 0.957 1_655 S
H1238 C1251 0.963 . S
H1239 C1251 1.010 . S
H1240 C1254 0.929 . S
H1241 C1255 0.931 . S
H1242 C1257 0.930 . S
C1243 H1231 0.930 . S
C1243 C1244 1.399 . S
C1243 C1248 1.399 . S
C1244 C1243 1.399 . S
C1244 C1245 1.376 . S
C1245 H1232 0.930 . S
C1245 C1244 1.376 . S
C1245 C1246 1.388 . S
C1246 H1233 0.930 . S
C1246 C1245 1.388 . S
C1246 C1247 1.390 . S
C1247 C1246 1.390 . S
C1247 C1248 1.394 . S
C1247 C1253 1.465 1_655 S
C1248 C1243 1.399 . S
C1248 C1247 1.394 . S
C1248 C1249 1.517 1_655 S
C1249 C1248 1.517 1_455 S
C1249 C1250 1.502 . S
C1249 C1251 1.561 . S
C1249 C1252 1.525 . S
C1250 H1234 0.962 . S
C1250 H1235 0.979 . S
C1250 H1236 0.939 1_455 S
C1250 C1249 1.502 . S
C1251 H1237 0.957 1_455 S
C1251 H1238 0.963 . S
C1251 H1239 1.010 . S
C1251 C1249 1.561 . S
C1252 C1249 1.525 . S
C1252 C1253 1.396 . S
C1252 C1257 1.390 . S
C1253 C1247 1.465 1_455 S
C1253 C1252 1.396 . S
C1253 C1254 1.399 . S
C1254 H1240 0.929 . S
C1254 C1253 1.399 . S
C1254 C1255 1.385 . S
C1255 H1241 0.931 . S
C1255 C1254 1.385 . S
C1255 C1256 1.389 . S
C1256 C1255 1.389 . S
C1256 C1257 1.387 . S
C1257 H1242 0.930 . S
C1257 C1252 1.390 . S
C1257 C1256 1.387 . S
H1258 C1270 0.930 . S
H1259 C1272 0.930 . S
H1260 C1273 0.930 . S
H1261 C1277 0.959 . S
H1262 C1277 0.959 . S
H1263 C1277 0.961 . S
H1264 C1278 0.960 . S
H1265 C1278 0.961 . S
H1266 C1278 0.959 . S
H1267 C1281 0.929 . S
H1268 C1282 0.931 . S
H1269 C1284 0.930 . S
C1270 H1258 0.930 . S
C1270 C1271 1.399 . S
C1270 C1275 1.399 . S
C1271 C1270 1.399 . S
C1271 C1272 1.376 . S
C1272 H1259 0.930 . S
C1272 C1271 1.376 . S
C1272 C1273 1.388 . S
C1273 H1260 0.930 . S
C1273 C1272 1.388 . S
C1273 C1274 1.390 . S
C1274 C1273 1.390 . S
C1274 C1275 1.394 . S
C1274 C1280 1.465 . S
C1275 C1270 1.399 . S
C1275 C1274 1.394 . S
C1275 C1276 1.516 . S
C1276 C1275 1.516 . S
C1276 C1277 1.502 . S
C1276 C1278 1.561 . S
C1276 C1279 1.526 . S
C1277 H1261 0.959 . S
C1277 H1262 0.959 . S
C1277 H1263 0.961 . S
C1277 C1276 1.502 . S
C1278 H1264 0.960 . S
C1278 H1265 0.961 . S
C1278 H1266 0.959 . S
C1278 C1276 1.561 . S
C1279 C1276 1.526 . S
C1279 C1280 1.396 . S
C1279 C1284 1.390 . S
C1280 C1274 1.465 . S
C1280 C1279 1.396 . S
C1280 C1281 1.399 . S
C1281 H1267 0.929 . S
C1281 C1280 1.399 . S
C1281 C1282 1.385 . S
C1282 H1268 0.931 . S
C1282 C1281 1.385 . S
C1282 C1283 1.389 . S
C1283 C1282 1.389 . S
C1283 C1284 1.387 . S
C1284 H1269 0.930 . S
C1284 C1279 1.390 . S
C1284 C1283 1.387 . S
H1285 C1297 0.930 . S
H1286 C1299 0.930 . S
H1287 C1300 0.930 . S
H1288 C1304 0.962 . S
H1289 C1304 0.978 . S
H1290 C1304 0.940 1_455 S
H1291 C1305 0.958 1_455 S
H1292 C1305 0.962 . S
H1293 C1305 0.959 . S
H1294 C1308 0.929 . S
H1295 C1309 0.931 . S
H1296 C1311 0.930 . S
C1297 H1285 0.930 . S
C1297 C1298 1.399 . S
C1297 C1302 1.399 . S
C1298 C1297 1.399 . S
C1298 C1299 1.376 . S
C1299 H1286 0.930 . S
C1299 C1298 1.376 . S
C1299 C1300 1.388 . S
C1300 H1287 0.930 . S
C1300 C1299 1.388 . S
C1300 C1301 1.390 . S
C1301 C1300 1.390 . S
C1301 C1302 1.394 . S
C1301 C1307 1.465 1_455 S
C1302 C1297 1.399 . S
C1302 C1301 1.394 . S
C1302 C1303 1.518 1_455 S
C1303 C1302 1.518 1_655 S
C1303 C1304 1.502 . S
C1303 C1305 1.561 . S
C1303 C1306 1.524 . S
C1304 H1288 0.962 . S
C1304 H1289 0.978 . S
C1304 H1290 0.940 1_655 S
C1304 C1303 1.502 . S
C1305 H1291 0.958 1_655 S
C1305 H1292 0.962 . S
C1305 H1293 0.959 . S
C1305 C1303 1.561 . S
C1306 C1303 1.524 . S
C1306 C1307 1.396 . S
C1306 C1311 1.390 . S
C1307 C1301 1.465 1_655 S
C1307 C1306 1.396 . S
C1307 C1308 1.399 . S
C1308 H1294 0.929 . S
C1308 C1307 1.399 . S
C1308 C1309 1.385 . S
C1309 H1295 0.931 . S
C1309 C1308 1.385 . S
C1309 C1310 1.389 . S
C1310 C1309 1.389 . S
C1310 C1311 1.387 . S
C1311 H1296 0.930 . S
C1311 C1306 1.390 . S
C1311 C1310 1.387 . S
H1312 C1324 0.930 . S
H1313 C1326 0.930 . S
H1314 C1327 0.930 . S
H1315 C1331 0.959 1_556 S
H1316 C1331 0.959 . S
H1317 C1331 0.961 . S
H1318 C1332 0.960 . S
H1319 C1332 0.961 . S
H1320 C1332 0.959 . S
H1321 C1335 0.929 . S
H1322 C1336 0.931 . S
H1323 C1338 0.930 . S
C1324 H1312 0.930 . S
C1324 C1325 1.399 . S
C1324 C1329 1.404 . S
C1325 C1324 1.399 . S
C1325 C1326 1.376 . S
C1326 H1313 0.930 . S
C1326 C1325 1.376 . S
C1326 C1327 1.388 . S
C1327 H1314 0.930 . S
C1327 C1326 1.388 . S
C1327 C1328 1.390 . S
C1328 C1327 1.390 . S
C1328 C1329 1.399 . S
C1328 C1334 1.451 1_556 S
C1329 C1324 1.404 . S
C1329 C1328 1.399 . S
C1329 C1330 1.505 1_556 S
C1330 C1329 1.505 1_554 S
C1330 C1331 1.502 . S
C1330 C1332 1.561 . S
C1330 C1333 1.526 . S
C1331 H1315 0.959 1_554 S
C1331 H1316 0.959 . S
C1331 H1317 0.961 . S
C1331 C1330 1.502 . S
C1332 H1318 0.960 . S
C1332 H1319 0.961 . S
C1332 H1320 0.959 . S
C1332 C1330 1.561 . S
C1333 C1330 1.526 . S
C1333 C1334 1.420 . S
C1333 C1338 1.390 . S
C1334 C1328 1.451 1_554 S
C1334 C1333 1.420 . S
C1334 C1335 1.394 1_554 S
C1335 H1321 0.929 . S
C1335 C1334 1.394 1_556 S
C1335 C1336 1.385 1_556 S
C1336 H1322 0.931 . S
C1336 C1335 1.385 1_554 S
C1336 C1337 1.389 . S
C1337 C1336 1.389 . S
C1337 C1338 1.387 . S
C1338 H1323 0.930 . S
C1338 C1333 1.390 . S
C1338 C1337 1.387 . S
H1339 C1351 0.930 . S
H1340 C1353 0.930 . S
H1341 C1354 0.930 . S
H1342 C1358 0.959 . S
H1343 C1358 0.959 . S
H1344 C1358 0.961 . S
H1345 C1359 0.960 . S
H1346 C1359 0.961 . S
H1347 C1359 0.959 . S
H1348 C1362 0.929 . S
H1349 C1363 0.931 . S
H1350 C1365 0.930 . S
C1351 H1339 0.930 . S
C1351 C1352 1.399 . S
C1351 C1356 1.399 . S
C1352 C1351 1.399 . S
C1352 C1353 1.376 . S
C1353 H1340 0.930 . S
C1353 C1352 1.376 . S
C1353 C1354 1.388 . S
C1354 H1341 0.930 . S
C1354 C1353 1.388 . S
C1354 C1355 1.390 . S
C1355 C1354 1.390 . S
C1355 C1356 1.394 . S
C1355 C1361 1.465 . S
C1356 C1351 1.399 . S
C1356 C1355 1.394 . S
C1356 C1357 1.516 . S
C1357 C1356 1.516 . S
C1357 C1358 1.502 . S
C1357 C1359 1.561 . S
C1357 C1360 1.526 . S
C1358 H1342 0.959 . S
C1358 H1343 0.959 . S
C1358 H1344 0.961 . S
C1358 C1357 1.502 . S
C1359 H1345 0.960 . S
C1359 H1346 0.961 . S
C1359 H1347 0.959 . S
C1359 C1357 1.561 . S
C1360 C1357 1.526 . S
C1360 C1361 1.396 . S
C1360 C1365 1.390 . S
C1361 C1355 1.465 . S
C1361 C1360 1.396 . S
C1361 C1362 1.399 . S
C1362 H1348 0.929 . S
C1362 C1361 1.399 . S
C1362 C1363 1.385 . S
C1363 H1349 0.931 . S
C1363 C1362 1.385 . S
C1363 C1364 1.389 . S
C1364 C1363 1.389 . S
C1364 C1365 1.387 . S
C1365 H1350 0.930 . S
C1365 C1360 1.390 . S
C1365 C1364 1.387 . S
H1366 C1378 0.930 . S
H1367 C1380 0.930 . S
H1368 C1381 0.930 . S
H1369 C1385 0.959 . S
H1370 C1385 0.959 . S
H1371 C1385 0.961 . S
H1372 C1386 0.960 . S
H1373 C1386 0.961 . S
H1374 C1386 0.959 . S
H1375 C1389 0.929 . S
H1376 C1390 0.931 . S
H1377 C1392 0.930 . S
C1378 H1366 0.930 . S
C1378 C1379 1.399 . S
C1378 C1383 1.399 . S
C1379 C1378 1.399 . S
C1379 C1380 1.376 . S
C1380 H1367 0.930 . S
C1380 C1379 1.376 . S
C1380 C1381 1.388 . S
C1381 H1368 0.930 . S
C1381 C1380 1.388 . S
C1381 C1382 1.390 . S
C1382 C1381 1.390 . S
C1382 C1383 1.394 . S
C1382 C1388 1.465 . S
C1383 C1378 1.399 . S
C1383 C1382 1.394 . S
C1383 C1384 1.516 . S
C1384 C1383 1.516 . S
C1384 C1385 1.502 . S
C1384 C1386 1.561 . S
C1384 C1387 1.526 . S
C1385 H1369 0.959 . S
C1385 H1370 0.959 . S
C1385 H1371 0.961 . S
C1385 C1384 1.502 . S
C1386 H1372 0.960 . S
C1386 H1373 0.961 . S
C1386 H1374 0.959 . S
C1386 C1384 1.561 . S
C1387 C1384 1.526 . S
C1387 C1388 1.396 . S
C1387 C1392 1.390 . S
C1388 C1382 1.465 . S
C1388 C1387 1.396 . S
C1388 C1389 1.399 . S
C1389 H1375 0.929 . S
C1389 C1388 1.399 . S
C1389 C1390 1.385 . S
C1390 H1376 0.931 . S
C1390 C1389 1.385 . S
C1390 C1391 1.389 . S
C1391 C1390 1.389 . S
C1391 C1392 1.387 . S
C1392 H1377 0.930 . S
C1392 C1387 1.390 . S
C1392 C1391 1.387 . S
H1393 C1405 0.930 . S
H1394 C1407 0.930 . S
H1395 C1408 0.930 . S
H1396 C1412 0.959 . S
H1397 C1412 0.959 . S
H1398 C1412 0.961 . S
H1399 C1413 0.960 . S
H1400 C1413 0.961 . S
H1401 C1413 0.959 . S
H1402 C1416 0.929 . S
H1403 C1417 0.931 . S
H1404 C1419 0.930 . S
C1405 H1393 0.930 . S
C1405 C1406 1.399 . S
C1405 C1410 1.399 . S
C1406 C1405 1.399 . S
C1406 C1407 1.376 . S
C1407 H1394 0.930 . S
C1407 C1406 1.376 . S
C1407 C1408 1.388 . S
C1408 H1395 0.930 . S
C1408 C1407 1.388 . S
C1408 C1409 1.390 . S
C1409 C1408 1.390 . S
C1409 C1410 1.394 . S
C1409 C1415 1.465 . S
C1410 C1405 1.399 . S
C1410 C1409 1.394 . S
C1410 C1411 1.516 . S
C1411 C1410 1.516 . S
C1411 C1412 1.502 . S
C1411 C1413 1.561 . S
C1411 C1414 1.526 . S
C1412 H1396 0.959 . S
C1412 H1397 0.959 . S
C1412 H1398 0.961 . S
C1412 C1411 1.502 . S
C1413 H1399 0.960 . S
C1413 H1400 0.961 . S
C1413 H1401 0.959 . S
C1413 C1411 1.561 . S
C1414 C1411 1.526 . S
C1414 C1415 1.396 . S
C1414 C1419 1.390 . S
C1415 C1409 1.465 . S
C1415 C1414 1.396 . S
C1415 C1416 1.399 . S
C1416 H1402 0.929 . S
C1416 C1415 1.399 . S
C1416 C1417 1.385 . S
C1417 H1403 0.931 . S
C1417 C1416 1.385 . S
C1417 C1418 1.389 . S
C1418 C1417 1.389 . S
C1418 C1419 1.387 . S
C1419 H1404 0.930 . S
C1419 C1414 1.390 . S
C1419 C1418 1.387 . S
H1420 C1432 0.892 1_556 S
H1421 C1434 0.930 . S
H1422 C1435 0.930 . S
H1423 C1439 0.959 . S
H1424 C1439 0.959 . S
H1425 C1439 0.961 . S
H1426 C1440 0.960 . S
H1427 C1440 0.961 . S
H1428 C1440 0.959 . S
H1429 C1443 0.929 . S
H1430 C1444 0.931 . S
H1431 C1446 0.930 . S
C1432 H1420 0.892 1_554 S
C1432 C1433 1.449 . S
C1432 C1437 1.390 1_554 S
C1433 C1432 1.449 . S
C1433 C1434 1.376 . S
C1434 H1421 0.930 . S
C1434 C1433 1.376 . S
C1434 C1435 1.388 . S
C1435 H1422 0.930 . S
C1435 C1434 1.388 . S
C1435 C1436 1.390 . S
C1436 C1435 1.390 . S
C1436 C1437 1.394 1_554 S
C1436 C1442 1.465 . S
C1437 C1432 1.390 1_556 S
C1437 C1436 1.394 1_556 S
C1437 C1438 1.516 . S
C1438 C1437 1.516 . S
C1438 C1439 1.502 . S
C1438 C1440 1.561 . S
C1438 C1441 1.526 . S
C1439 H1423 0.959 . S
C1439 H1424 0.959 . S
C1439 H1425 0.961 . S
C1439 C1438 1.502 . S
C1440 H1426 0.960 . S
C1440 H1427 0.961 . S
C1440 H1428 0.959 . S
C1440 C1438 1.561 . S
C1441 C1438 1.526 . S
C1441 C1442 1.396 1_556 S
C1441 C1446 1.390 . S
C1442 C1436 1.465 . S
C1442 C1441 1.396 1_554 S
C1442 C1443 1.399 . S
C1443 H1429 0.929 . S
C1443 C1442 1.399 . S
C1443 C1444 1.385 . S
C1444 H1430 0.931 . S
C1444 C1443 1.385 . S
C1444 C1445 1.389 1_554 S
C1445 C1444 1.389 1_556 S
C1445 C1446 1.387 . S
C1446 H1431 0.930 . S
C1446 C1441 1.390 . S
C1446 C1445 1.387 . S
H1447 C1459 0.930 . S
H1448 C1461 0.930 . S
H1449 C1462 0.930 . S
H1450 C1466 0.959 . S
H1451 C1466 0.959 . S
H1452 C1466 0.961 . S
H1453 C1467 0.960 . S
H1454 C1467 0.961 . S
H1455 C1467 0.959 . S
H1456 C1470 0.929 . S
H1457 C1471 0.931 . S
H1458 C1473 0.930 . S
C1459 H1447 0.930 . S
C1459 C1460 1.399 . S
C1459 C1464 1.399 . S
C1460 C1459 1.399 . S
C1460 C1461 1.376 . S
C1461 H1448 0.930 . S
C1461 C1460 1.376 . S
C1461 C1462 1.388 . S
C1462 H1449 0.930 . S
C1462 C1461 1.388 . S
C1462 C1463 1.390 . S
C1463 C1462 1.390 . S
C1463 C1464 1.394 . S
C1463 C1469 1.465 . S
C1464 C1459 1.399 . S
C1464 C1463 1.394 . S
C1464 C1465 1.516 . S
C1465 C1464 1.516 . S
C1465 C1466 1.502 . S
C1465 C1467 1.561 . S
C1465 C1468 1.526 . S
C1466 H1450 0.959 . S
C1466 H1451 0.959 . S
C1466 H1452 0.961 . S
C1466 C1465 1.502 . S
C1467 H1453 0.960 . S
C1467 H1454 0.961 . S
C1467 H1455 0.959 . S
C1467 C1465 1.561 . S
C1468 C1465 1.526 . S
C1468 C1469 1.396 . S
C1468 C1473 1.390 . S
C1469 C1463 1.465 . S
C1469 C1468 1.396 . S
C1469 C1470 1.399 . S
C1470 H1456 0.929 . S
C1470 C1469 1.399 . S
C1470 C1471 1.385 . S
C1471 H1457 0.931 . S
C1471 C1470 1.385 . S
C1471 C1472 1.389 . S
C1472 C1471 1.389 . S
C1472 C1473 1.387 . S
C1473 H1458 0.930 . S
C1473 C1468 1.390 . S
C1473 C1472 1.387 . S
H1474 C1486 0.930 . S
H1475 C1488 0.930 . S
H1476 C1489 0.930 . S
H1477 C1493 0.959 . S
H1478 C1493 0.959 . S
H1479 C1493 0.961 . S
H1480 C1494 0.960 . S
H1481 C1494 0.961 . S
H1482 C1494 0.959 . S
H1483 C1497 0.929 . S
H1484 C1498 0.931 . S
H1485 C1500 0.930 . S
C1486 H1474 0.930 . S
C1486 C1487 1.399 . S
C1486 C1491 1.399 . S
C1487 C1486 1.399 . S
C1487 C1488 1.376 . S
C1488 H1475 0.930 . S
C1488 C1487 1.376 . S
C1488 C1489 1.388 . S
C1489 H1476 0.930 . S
C1489 C1488 1.388 . S
C1489 C1490 1.390 . S
C1490 C1489 1.390 . S
C1490 C1491 1.394 . S
C1490 C1496 1.465 . S
C1491 C1486 1.399 . S
C1491 C1490 1.394 . S
C1491 C1492 1.516 . S
C1492 C1491 1.516 . S
C1492 C1493 1.502 . S
C1492 C1494 1.561 . S
C1492 C1495 1.526 . S
C1493 H1477 0.959 . S
C1493 H1478 0.959 . S
C1493 H1479 0.961 . S
C1493 C1492 1.502 . S
C1494 H1480 0.960 . S
C1494 H1481 0.961 . S
C1494 H1482 0.959 . S
C1494 C1492 1.561 . S
C1495 C1492 1.526 . S
C1495 C1496 1.396 . S
C1495 C1500 1.390 . S
C1496 C1490 1.465 . S
C1496 C1495 1.396 . S
C1496 C1497 1.399 . S
C1497 H1483 0.929 . S
C1497 C1496 1.399 . S
C1497 C1498 1.385 . S
C1498 H1484 0.931 . S
C1498 C1497 1.385 . S
C1498 C1499 1.389 . S
C1499 C1498 1.389 . S
C1499 C1500 1.387 . S
C1500 H1485 0.930 . S
C1500 C1495 1.390 . S
C1500 C1499 1.387 . S
H1501 C1513 0.930 . S
H1502 C1515 0.930 . S
H1503 C1516 0.930 . S
H1504 C1520 0.959 . S
H1505 C1520 0.959 . S
H1506 C1520 0.961 . S
H1507 C1521 0.960 . S
H1508 C1521 0.961 . S
H1509 C1521 0.959 . S
H1510 C1524 0.929 . S
H1511 C1525 0.931 . S
H1512 C1527 0.930 . S
C1513 H1501 0.930 . S
C1513 C1514 1.399 . S
C1513 C1518 1.399 . S
C1514 C1513 1.399 . S
C1514 C1515 1.376 . S
C1515 H1502 0.930 . S
C1515 C1514 1.376 . S
C1515 C1516 1.388 . S
C1516 H1503 0.930 . S
C1516 C1515 1.388 . S
C1516 C1517 1.390 . S
C1517 C1516 1.390 . S
C1517 C1518 1.394 . S
C1517 C1523 1.465 . S
C1518 C1513 1.399 . S
C1518 C1517 1.394 . S
C1518 C1519 1.516 . S
C1519 C1518 1.516 . S
C1519 C1520 1.502 . S
C1519 C1521 1.561 . S
C1519 C1522 1.526 . S
C1520 H1504 0.959 . S
C1520 H1505 0.959 . S
C1520 H1506 0.961 . S
C1520 C1519 1.502 . S
C1521 H1507 0.960 . S
C1521 H1508 0.961 . S
C1521 H1509 0.959 . S
C1521 C1519 1.561 . S
C1522 C1519 1.526 . S
C1522 C1523 1.396 . S
C1522 C1527 1.390 . S
C1523 C1517 1.465 . S
C1523 C1522 1.396 . S
C1523 C1524 1.399 . S
C1524 H1510 0.929 . S
C1524 C1523 1.399 . S
C1524 C1525 1.385 . S
C1525 H1511 0.931 . S
C1525 C1524 1.385 . S
C1525 C1526 1.389 . S
C1526 C1525 1.389 . S
C1526 C1527 1.387 . S
C1527 H1512 0.930 . S
C1527 C1522 1.390 . S
C1527 C1526 1.387 . S
H1528 C1540 0.930 . S
H1529 C1542 0.930 . S
H1530 C1543 0.930 . S
H1531 C1547 0.959 . S
H1532 C1547 0.959 . S
H1533 C1547 0.961 . S
H1534 C1548 0.960 . S
H1535 C1548 0.961 . S
H1536 C1548 0.959 . S
H1537 C1551 0.929 . S
H1538 C1552 0.931 . S
H1539 C1554 0.930 . S
C1540 H1528 0.930 . S
C1540 C1541 1.399 . S
C1540 C1545 1.399 . S
C1541 C1540 1.399 . S
C1541 C1542 1.376 . S
C1542 H1529 0.930 . S
C1542 C1541 1.376 . S
C1542 C1543 1.388 . S
C1543 H1530 0.930 . S
C1543 C1542 1.388 . S
C1543 C1544 1.390 . S
C1544 C1543 1.390 . S
C1544 C1545 1.394 . S
C1544 C1550 1.465 1_545 S
C1545 C1540 1.399 . S
C1545 C1544 1.394 . S
C1545 C1546 1.516 1_545 S
C1546 C1545 1.516 1_565 S
C1546 C1547 1.502 . S
C1546 C1548 1.561 . S
C1546 C1549 1.526 . S
C1547 H1531 0.959 . S
C1547 H1532 0.959 . S
C1547 H1533 0.961 . S
C1547 C1546 1.502 . S
C1548 H1534 0.960 . S
C1548 H1535 0.961 . S
C1548 H1536 0.959 . S
C1548 C1546 1.561 . S
C1549 C1546 1.526 . S
C1549 C1550 1.396 . S
C1549 C1554 1.390 . S
C1550 C1544 1.465 1_565 S
C1550 C1549 1.396 . S
C1550 C1551 1.399 . S
C1551 H1537 0.929 . S
C1551 C1550 1.399 . S
C1551 C1552 1.385 . S
C1552 H1538 0.931 . S
C1552 C1551 1.385 . S
C1552 C1553 1.389 . S
C1553 C1552 1.389 . S
C1553 C1554 1.387 . S
C1554 H1539 0.930 . S
C1554 C1549 1.390 . S
C1554 C1553 1.387 . S
H1555 C1567 0.930 . S
H1556 C1569 0.930 . S
H1557 C1570 0.930 . S
H1558 C1574 0.959 . S
H1559 C1574 0.959 . S
H1560 C1574 0.961 . S
H1561 C1575 0.960 . S
H1562 C1575 0.961 . S
H1563 C1575 0.959 . S
H1564 C1578 0.929 . S
H1565 C1579 0.931 . S
H1566 C1581 0.930 . S
C1567 H1555 0.930 . S
C1567 C1568 1.399 . S
C1567 C1572 1.399 . S
C1568 C1567 1.399 . S
C1568 C1569 1.376 . S
C1569 H1556 0.930 . S
C1569 C1568 1.376 . S
C1569 C1570 1.388 . S
C1570 H1557 0.930 . S
C1570 C1569 1.388 . S
C1570 C1571 1.390 . S
C1571 C1570 1.390 . S
C1571 C1572 1.394 . S
C1571 C1577 1.465 . S
C1572 C1567 1.399 . S
C1572 C1571 1.394 . S
C1572 C1573 1.516 . S
C1573 C1572 1.516 . S
C1573 C1574 1.502 . S
C1573 C1575 1.561 . S
C1573 C1576 1.526 . S
C1574 H1558 0.959 . S
C1574 H1559 0.959 . S
C1574 H1560 0.961 . S
C1574 C1573 1.502 . S
C1575 H1561 0.960 . S
C1575 H1562 0.961 . S
C1575 H1563 0.959 . S
C1575 C1573 1.561 . S
C1576 C1573 1.526 . S
C1576 C1577 1.396 . S
C1576 C1581 1.390 . S
C1577 C1571 1.465 . S
C1577 C1576 1.396 . S
C1577 C1578 1.399 . S
C1578 H1564 0.929 . S
C1578 C1577 1.399 . S
C1578 C1579 1.385 . S
C1579 H1565 0.931 . S
C1579 C1578 1.385 . S
C1579 C1580 1.389 . S
C1580 C1579 1.389 . S
C1580 C1581 1.387 . S
C1581 H1566 0.930 . S
C1581 C1576 1.390 . S
C1581 C1580 1.387 . S
H1582 C1594 0.930 . S
H1583 C1596 0.929 1_556 S
H1584 C1597 0.930 . S
H1585 C1601 0.959 . S
H1586 C1601 0.959 . S
H1587 C1601 0.961 1_565 S
H1588 C1602 0.960 . S
H1589 C1602 0.961 . S
H1590 C1602 0.959 . S
H1591 C1605 0.929 . S
H1592 C1606 0.931 . S
H1593 C1608 0.930 1_554 S
C1594 H1582 0.930 . S
C1594 C1595 1.399 . S
C1594 C1599 1.399 . S
C1595 C1594 1.399 . S
C1595 C1596 1.380 . S
C1596 H1583 0.929 1_554 S
C1596 C1595 1.380 . S
C1596 C1597 1.386 1_554 S
C1597 H1584 0.930 . S
C1597 C1596 1.386 1_556 S
C1597 C1598 1.390 . S
C1598 C1597 1.390 . S
C1598 C1599 1.394 1_556 S
C1598 C1604 1.465 1_565 S
C1599 C1594 1.399 . S
C1599 C1598 1.394 1_554 S
C1599 C1600 1.516 1_565 S
C1600 C1599 1.516 1_545 S
C1600 C1601 1.502 . S
C1600 C1602 1.561 . S
C1600 C1603 1.526 . S
C1601 H1585 0.959 . S
C1601 H1586 0.959 . S
C1601 H1587 0.961 1_545 S
C1601 C1600 1.502 . S
C1602 H1588 0.960 . S
C1602 H1589 0.961 . S
C1602 H1590 0.959 . S
C1602 C1600 1.561 . S
C1603 C1600 1.526 . S
C1603 C1604 1.396 1_554 S
C1603 C1608 1.390 1_554 S
C1604 C1598 1.465 1_545 S
C1604 C1603 1.396 1_556 S
C1604 C1605 1.399 . S
C1605 H1591 0.929 . S
C1605 C1604 1.399 . S
C1605 C1606 1.385 . S
C1606 H1592 0.931 . S
C1606 C1605 1.385 . S
C1606 C1607 1.389 . S
C1607 C1606 1.389 . S
C1607 C1608 1.387 . S
C1608 H1593 0.930 1_556 S
C1608 C1603 1.390 1_556 S
C1608 C1607 1.387 . S
H1609 C1621 0.930 . S
H1610 C1623 0.930 . S
H1611 C1624 0.930 . S
H1612 C1628 0.959 . S
H1613 C1628 0.959 . S
H1614 C1628 0.961 . S
H1615 C1629 0.960 . S
H1616 C1629 0.961 . S
H1617 C1629 0.959 . S
H1618 C1632 0.929 . S
H1619 C1633 0.931 . S
H1620 C1635 0.930 . S
C1621 H1609 0.930 . S
C1621 C1622 1.399 . S
C1621 C1626 1.399 . S
C1622 C1621 1.399 . S
C1622 C1623 1.376 . S
C1623 H1610 0.930 . S
C1623 C1622 1.376 . S
C1623 C1624 1.388 . S
C1624 H1611 0.930 . S
C1624 C1623 1.388 . S
C1624 C1625 1.390 . S
C1625 C1624 1.390 . S
C1625 C1626 1.394 . S
C1625 C1631 1.465 . S
C1626 C1621 1.399 . S
C1626 C1625 1.394 . S
C1626 C1627 1.516 . S
C1627 C1626 1.516 . S
C1627 C1628 1.502 . S
C1627 C1629 1.561 . S
C1627 C1630 1.526 . S
C1628 H1612 0.959 . S
C1628 H1613 0.959 . S
C1628 H1614 0.961 . S
C1628 C1627 1.502 . S
C1629 H1615 0.960 . S
C1629 H1616 0.961 . S
C1629 H1617 0.959 . S
C1629 C1627 1.561 . S
C1630 C1627 1.526 . S
C1630 C1631 1.396 . S
C1630 C1635 1.390 . S
C1631 C1625 1.465 . S
C1631 C1630 1.396 . S
C1631 C1632 1.399 . S
C1632 H1618 0.929 . S
C1632 C1631 1.399 . S
C1632 C1633 1.385 . S
C1633 H1619 0.931 . S
C1633 C1632 1.385 . S
C1633 C1634 1.389 . S
C1634 C1633 1.389 . S
C1634 C1635 1.387 . S
C1635 H1620 0.930 . S
C1635 C1630 1.390 . S
C1635 C1634 1.387 . S
H1636 C1648 0.930 . S
H1637 C1650 0.930 . S
H1638 C1651 0.930 . S
H1639 C1655 0.959 . S
H1640 C1655 0.959 . S
H1641 C1655 0.961 . S
H1642 C1656 0.960 . S
H1643 C1656 0.961 . S
H1644 C1656 0.959 . S
H1645 C1659 0.929 . S
H1646 C1660 0.931 . S
H1647 C1662 0.930 . S
C1648 H1636 0.930 . S
C1648 C1649 1.399 . S
C1648 C1653 1.399 . S
C1649 C1648 1.399 . S
C1649 C1650 1.376 . S
C1650 H1637 0.930 . S
C1650 C1649 1.376 . S
C1650 C1651 1.388 . S
C1651 H1638 0.930 . S
C1651 C1650 1.388 . S
C1651 C1652 1.390 . S
C1652 C1651 1.390 . S
C1652 C1653 1.394 . S
C1652 C1658 1.465 1_545 S
C1653 C1648 1.399 . S
C1653 C1652 1.394 . S
C1653 C1654 1.516 . S
C1654 C1653 1.516 . S
C1654 C1655 1.502 . S
C1654 C1656 1.561 . S
C1654 C1657 1.526 1_545 S
C1655 H1639 0.959 . S
C1655 H1640 0.959 . S
C1655 H1641 0.961 . S
C1655 C1654 1.502 . S
C1656 H1642 0.960 . S
C1656 H1643 0.961 . S
C1656 H1644 0.959 . S
C1656 C1654 1.561 . S
C1657 C1654 1.526 1_565 S
C1657 C1658 1.396 . S
C1657 C1662 1.390 . S
C1658 C1652 1.465 1_565 S
C1658 C1657 1.396 . S
C1658 C1659 1.399 . S
C1659 H1645 0.929 . S
C1659 C1658 1.399 . S
C1659 C1660 1.385 . S
C1660 H1646 0.931 . S
C1660 C1659 1.385 . S
C1660 C1661 1.389 . S
C1661 C1660 1.389 . S
C1661 C1662 1.387 . S
C1662 H1647 0.930 . S
C1662 C1657 1.390 . S
C1662 C1661 1.387 . S
H1663 C1675 0.930 . S
H1664 C1677 0.930 . S
H1665 C1678 0.930 . S
H1666 C1682 0.959 . S
H1667 C1682 0.959 . S
H1668 C1682 0.961 . S
H1669 C1683 0.960 . S
H1670 C1683 0.961 . S
H1671 C1683 0.959 . S
H1672 C1686 0.929 . S
H1673 C1687 0.931 . S
H1674 C1689 0.930 . S
C1675 H1663 0.930 . S
C1675 C1676 1.399 . S
C1675 C1680 1.399 . S
C1676 C1675 1.399 . S
C1676 C1677 1.376 . S
C1677 H1664 0.930 . S
C1677 C1676 1.376 . S
C1677 C1678 1.388 . S
C1678 H1665 0.930 . S
C1678 C1677 1.388 . S
C1678 C1679 1.390 . S
C1679 C1678 1.390 . S
C1679 C1680 1.394 . S
C1679 C1685 1.465 . S
C1680 C1675 1.399 . S
C1680 C1679 1.394 . S
C1680 C1681 1.516 . S
C1681 C1680 1.516 . S
C1681 C1682 1.502 . S
C1681 C1683 1.561 . S
C1681 C1684 1.526 . S
C1682 H1666 0.959 . S
C1682 H1667 0.959 . S
C1682 H1668 0.961 . S
C1682 C1681 1.502 . S
C1683 H1669 0.960 . S
C1683 H1670 0.961 . S
C1683 H1671 0.959 . S
C1683 C1681 1.561 . S
C1684 C1681 1.526 . S
C1684 C1685 1.396 . S
C1684 C1689 1.390 . S
C1685 C1679 1.465 . S
C1685 C1684 1.396 . S
C1685 C1686 1.399 . S
C1686 H1672 0.929 . S
C1686 C1685 1.399 . S
C1686 C1687 1.385 . S
C1687 H1673 0.931 . S
C1687 C1686 1.385 . S
C1687 C1688 1.389 . S
C1688 C1687 1.389 . S
C1688 C1689 1.387 . S
C1689 H1674 0.930 . S
C1689 C1684 1.390 . S
C1689 C1688 1.387 . S
H1690 C1702 0.930 . S
H1691 C1704 0.930 . S
H1692 C1705 0.930 . S
H1693 C1709 0.959 . S
H1694 C1709 0.959 . S
H1695 C1709 0.961 . S
H1696 C1710 0.960 . S
H1697 C1710 0.961 . S
H1698 C1710 0.959 . S
H1699 C1713 0.929 . S
H1700 C1714 0.931 . S
H1701 C1716 0.895 1_554 S
C1702 H1690 0.930 . S
C1702 C1703 1.399 . S
C1702 C1707 1.399 . S
C1703 C1702 1.399 . S
C1703 C1704 1.376 1_554 S
C1704 H1691 0.930 . S
C1704 C1703 1.376 1_556 S
C1704 C1705 1.388 . S
C1705 H1692 0.930 . S
C1705 C1704 1.388 . S
C1705 C1706 1.390 . S
C1706 C1705 1.390 . S
C1706 C1707 1.394 1_556 S
C1706 C1712 1.465 1_565 S
C1707 C1702 1.399 . S
C1707 C1706 1.394 1_554 S
C1707 C1708 1.516 1_565 S
C1708 C1707 1.516 1_545 S
C1708 C1709 1.502 . S
C1708 C1710 1.561 . S
C1708 C1711 1.526 . S
C1709 H1693 0.959 . S
C1709 H1694 0.959 . S
C1709 H1695 0.961 . S
C1709 C1708 1.502 . S
C1710 H1696 0.960 . S
C1710 H1697 0.961 . S
C1710 H1698 0.959 . S
C1710 C1708 1.561 . S
C1711 C1708 1.526 . S
C1711 C1712 1.396 1_554 S
C1711 C1716 1.382 1_554 S
C1712 C1706 1.465 1_545 S
C1712 C1711 1.396 1_556 S
C1712 C1713 1.399 . S
C1713 H1699 0.929 . S
C1713 C1712 1.399 . S
C1713 C1714 1.385 . S
C1714 H1700 0.931 . S
C1714 C1713 1.385 . S
C1714 C1715 1.389 . S
C1715 C1714 1.389 . S
C1715 C1716 1.432 . S
C1716 H1701 0.895 1_556 S
C1716 C1711 1.382 1_556 S
C1716 C1715 1.432 . S
H1717 C1729 0.930 . S
H1718 C1731 0.930 . S
H1719 C1732 0.930 . S
H1720 C1736 0.959 . S
H1721 C1736 0.959 . S
H1722 C1736 0.961 . S
H1723 C1737 0.960 . S
H1724 C1737 0.961 . S
H1725 C1737 0.959 . S
H1726 C1740 0.929 . S
H1727 C1741 0.931 . S
H1728 C1743 0.930 . S
C1729 H1717 0.930 . S
C1729 C1730 1.399 . S
C1729 C1734 1.399 . S
C1730 C1729 1.399 . S
C1730 C1731 1.376 . S
C1731 H1718 0.930 . S
C1731 C1730 1.376 . S
C1731 C1732 1.388 . S
C1732 H1719 0.930 . S
C1732 C1731 1.388 . S
C1732 C1733 1.390 . S
C1733 C1732 1.390 . S
C1733 C1734 1.394 . S
C1733 C1739 1.465 . S
C1734 C1729 1.399 . S
C1734 C1733 1.394 . S
C1734 C1735 1.516 . S
C1735 C1734 1.516 . S
C1735 C1736 1.502 . S
C1735 C1737 1.561 . S
C1735 C1738 1.526 . S
C1736 H1720 0.959 . S
C1736 H1721 0.959 . S
C1736 H1722 0.961 . S
C1736 C1735 1.502 . S
C1737 H1723 0.960 . S
C1737 H1724 0.961 . S
C1737 H1725 0.959 . S
C1737 C1735 1.561 . S
C1738 C1735 1.526 . S
C1738 C1739 1.396 . S
C1738 C1743 1.390 . S
C1739 C1733 1.465 . S
C1739 C1738 1.396 . S
C1739 C1740 1.399 . S
C1740 H1726 0.929 . S
C1740 C1739 1.399 . S
C1740 C1741 1.385 . S
C1741 H1727 0.931 . S
C1741 C1740 1.385 . S
C1741 C1742 1.389 . S
C1742 C1741 1.389 . S
C1742 C1743 1.387 . S
C1743 H1728 0.930 . S
C1743 C1738 1.390 . S
C1743 C1742 1.387 . S
H1744 C1756 0.930 . S
H1745 C1758 0.930 . S
H1746 C1759 0.930 . S
H1747 C1763 0.959 . S
H1748 C1763 0.959 . S
H1749 C1763 0.961 . S
H1750 C1764 0.960 . S
H1751 C1764 0.961 . S
H1752 C1764 0.959 . S
H1753 C1767 0.929 . S
H1754 C1768 0.931 . S
H1755 C1770 0.930 . S
C1756 H1744 0.930 . S
C1756 C1757 1.399 . S
C1756 C1761 1.399 . S
C1757 C1756 1.399 . S
C1757 C1758 1.376 . S
C1758 H1745 0.930 . S
C1758 C1757 1.376 . S
C1758 C1759 1.388 . S
C1759 H1746 0.930 . S
C1759 C1758 1.388 . S
C1759 C1760 1.390 . S
C1760 C1759 1.390 . S
C1760 C1761 1.394 . S
C1760 C1766 1.465 . S
C1761 C1756 1.399 . S
C1761 C1760 1.394 . S
C1761 C1762 1.516 . S
C1762 C1761 1.516 . S
C1762 C1763 1.502 . S
C1762 C1764 1.561 . S
C1762 C1765 1.526 . S
C1763 H1747 0.959 . S
C1763 H1748 0.959 . S
C1763 H1749 0.961 . S
C1763 C1762 1.502 . S
C1764 H1750 0.960 . S
C1764 H1751 0.961 . S
C1764 H1752 0.959 . S
C1764 C1762 1.561 . S
C1765 C1762 1.526 . S
C1765 C1766 1.396 . S
C1765 C1770 1.390 . S
C1766 C1760 1.465 . S
C1766 C1765 1.396 . S
C1766 C1767 1.399 . S
C1767 H1753 0.929 . S
C1767 C1766 1.399 . S
C1767 C1768 1.385 . S
C1768 H1754 0.931 . S
C1768 C1767 1.385 . S
C1768 C1769 1.389 . S
C1769 C1768 1.389 . S
C1769 C1770 1.387 . S
C1770 H1755 0.930 . S
C1770 C1765 1.390 . S
C1770 C1769 1.387 . S
H1771 C1783 0.930 . S
H1772 C1785 0.930 . S
H1773 C1786 0.930 . S
H1774 C1790 0.959 . S
H1775 C1790 0.959 . S
H1776 C1790 0.961 . S
H1777 C1791 0.960 . S
H1778 C1791 0.961 . S
H1779 C1791 0.959 . S
H1780 C1794 0.929 . S
H1781 C1795 0.931 . S
H1782 C1797 0.930 . S
C1783 H1771 0.930 . S
C1783 C1784 1.399 . S
C1783 C1788 1.399 . S
C1784 C1783 1.399 . S
C1784 C1785 1.376 . S
C1785 H1772 0.930 . S
C1785 C1784 1.376 . S
C1785 C1786 1.388 . S
C1786 H1773 0.930 . S
C1786 C1785 1.388 . S
C1786 C1787 1.390 . S
C1787 C1786 1.390 . S
C1787 C1788 1.394 . S
C1787 C1793 1.465 . S
C1788 C1783 1.399 . S
C1788 C1787 1.394 . S
C1788 C1789 1.516 . S
C1789 C1788 1.516 . S
C1789 C1790 1.502 . S
C1789 C1791 1.561 . S
C1789 C1792 1.526 . S
C1790 H1774 0.959 . S
C1790 H1775 0.959 . S
C1790 H1776 0.961 . S
C1790 C1789 1.502 . S
C1791 H1777 0.960 . S
C1791 H1778 0.961 . S
C1791 H1779 0.959 . S
C1791 C1789 1.561 . S
C1792 C1789 1.526 . S
C1792 C1793 1.396 . S
C1792 C1797 1.390 . S
C1793 C1787 1.465 . S
C1793 C1792 1.396 . S
C1793 C1794 1.399 . S
C1794 H1780 0.929 . S
C1794 C1793 1.399 . S
C1794 C1795 1.385 . S
C1795 H1781 0.931 . S
C1795 C1794 1.385 . S
C1795 C1796 1.389 . S
C1796 C1795 1.389 . S
C1796 C1797 1.387 . S
C1797 H1782 0.930 . S
C1797 C1792 1.390 . S
C1797 C1796 1.387 . S
H1798 C1810 0.930 . S
H1799 C1812 0.930 . S
H1800 C1813 0.930 . S
H1801 C1817 0.959 . S
H1802 C1817 0.959 . S
H1803 C1817 0.961 . S
H1804 C1818 0.960 . S
H1805 C1818 0.961 . S
H1806 C1818 0.959 . S
H1807 C1821 0.929 . S
H1808 C1822 0.931 . S
H1809 C1824 0.930 . S
C1810 H1798 0.930 . S
C1810 C1811 1.399 . S
C1810 C1815 1.399 . S
C1811 C1810 1.399 . S
C1811 C1812 1.376 . S
C1812 H1799 0.930 . S
C1812 C1811 1.376 . S
C1812 C1813 1.388 . S
C1813 H1800 0.930 . S
C1813 C1812 1.388 . S
C1813 C1814 1.390 . S
C1814 C1813 1.390 . S
C1814 C1815 1.394 . S
C1814 C1820 1.465 . S
C1815 C1810 1.399 . S
C1815 C1814 1.394 . S
C1815 C1816 1.516 . S
C1816 C1815 1.516 . S
C1816 C1817 1.502 . S
C1816 C1818 1.561 . S
C1816 C1819 1.526 . S
C1817 H1801 0.959 . S
C1817 H1802 0.959 . S
C1817 H1803 0.961 . S
C1817 C1816 1.502 . S
C1818 H1804 0.960 . S
C1818 H1805 0.961 . S
C1818 H1806 0.959 . S
C1818 C1816 1.561 . S
C1819 C1816 1.526 . S
C1819 C1820 1.396 . S
C1819 C1824 1.390 . S
C1820 C1814 1.465 . S
C1820 C1819 1.396 . S
C1820 C1821 1.399 . S
C1821 H1807 0.929 . S
C1821 C1820 1.399 . S
C1821 C1822 1.385 . S
C1822 H1808 0.931 . S
C1822 C1821 1.385 . S
C1822 C1823 1.389 . S
C1823 C1822 1.389 . S
C1823 C1824 1.387 . S
C1824 H1809 0.930 . S
C1824 C1819 1.390 . S
C1824 C1823 1.387 . S
H1825 C1837 0.930 . S
H1826 C1839 0.930 . S
H1827 C1840 0.930 . S
H1828 C1844 0.962 . S
H1829 C1844 0.979 . S
H1830 C1844 0.939 1_655 S
H1831 C1845 0.958 1_655 S
H1832 C1845 0.963 . S
H1833 C1845 0.959 . S
H1834 C1848 0.929 . S
H1835 C1849 0.931 . S
H1836 C1851 0.930 . S
C1837 H1825 0.930 . S
C1837 C1838 1.399 . S
C1837 C1842 1.399 . S
C1838 C1837 1.399 . S
C1838 C1839 1.376 . S
C1839 H1826 0.930 . S
C1839 C1838 1.376 . S
C1839 C1840 1.388 . S
C1840 H1827 0.930 . S
C1840 C1839 1.388 . S
C1840 C1841 1.390 . S
C1841 C1840 1.390 . S
C1841 C1842 1.394 . S
C1841 C1847 1.465 1_655 S
C1842 C1837 1.399 . S
C1842 C1841 1.394 . S
C1842 C1843 1.517 1_655 S
C1843 C1842 1.517 1_455 S
C1843 C1844 1.502 . S
C1843 C1845 1.561 . S
C1843 C1846 1.525 . S
C1844 H1828 0.962 . S
C1844 H1829 0.979 . S
C1844 H1830 0.939 1_455 S
C1844 C1843 1.502 . S
C1845 H1831 0.958 1_455 S
C1845 H1832 0.963 . S
C1845 H1833 0.959 . S
C1845 C1843 1.561 . S
C1846 C1843 1.525 . S
C1846 C1847 1.396 . S
C1846 C1851 1.390 . S
C1847 C1841 1.465 1_455 S
C1847 C1846 1.396 . S
C1847 C1848 1.399 . S
C1848 H1834 0.929 . S
C1848 C1847 1.399 . S
C1848 C1849 1.385 . S
C1849 H1835 0.931 . S
C1849 C1848 1.385 . S
C1849 C1850 1.389 . S
C1850 C1849 1.389 . S
C1850 C1851 1.387 . S
C1851 H1836 0.930 . S
C1851 C1846 1.390 . S
C1851 C1850 1.387 . S
H1852 C1864 0.930 . S
H1853 C1866 0.930 . S
H1854 C1867 0.930 . S
H1855 C1871 0.959 . S
H1856 C1871 0.959 . S
H1857 C1871 0.961 . S
H1858 C1872 0.960 . S
H1859 C1872 0.961 . S
H1860 C1872 0.959 . S
H1861 C1875 0.929 . S
H1862 C1876 0.931 . S
H1863 C1878 0.930 . S
C1864 H1852 0.930 . S
C1864 C1865 1.399 . S
C1864 C1869 1.399 . S
C1865 C1864 1.399 . S
C1865 C1866 1.376 . S
C1866 H1853 0.930 . S
C1866 C1865 1.376 . S
C1866 C1867 1.388 . S
C1867 H1854 0.930 . S
C1867 C1866 1.388 . S
C1867 C1868 1.390 . S
C1868 C1867 1.390 . S
C1868 C1869 1.394 . S
C1868 C1874 1.465 . S
C1869 C1864 1.399 . S
C1869 C1868 1.394 . S
C1869 C1870 1.516 . S
C1870 C1869 1.516 . S
C1870 C1871 1.502 . S
C1870 C1872 1.561 . S
C1870 C1873 1.526 . S
C1871 H1855 0.959 . S
C1871 H1856 0.959 . S
C1871 H1857 0.961 . S
C1871 C1870 1.502 . S
C1872 H1858 0.960 . S
C1872 H1859 0.961 . S
C1872 H1860 0.959 . S
C1872 C1870 1.561 . S
C1873 C1870 1.526 . S
C1873 C1874 1.396 . S
C1873 C1878 1.390 . S
C1874 C1868 1.465 . S
C1874 C1873 1.396 . S
C1874 C1875 1.399 . S
C1875 H1861 0.929 . S
C1875 C1874 1.399 . S
C1875 C1876 1.385 . S
C1876 H1862 0.931 . S
C1876 C1875 1.385 . S
C1876 C1877 1.389 . S
C1877 C1876 1.389 . S
C1877 C1878 1.387 . S
C1878 H1863 0.930 . S
C1878 C1873 1.390 . S
C1878 C1877 1.387 . S
H1879 C1891 0.930 . S
H1880 C1893 0.930 . S
H1881 C1894 0.930 . S
H1882 C1898 0.962 . S
H1883 C1898 0.979 . S
H1884 C1898 0.940 1_655 S
H1885 C1899 0.958 1_655 S
H1886 C1899 0.963 . S
H1887 C1899 0.959 . S
H1888 C1902 0.929 . S
H1889 C1903 0.931 . S
H1890 C1905 0.930 . S
C1891 H1879 0.930 . S
C1891 C1892 1.399 . S
C1891 C1896 1.399 . S
C1892 C1891 1.399 . S
C1892 C1893 1.376 . S
C1893 H1880 0.930 . S
C1893 C1892 1.376 . S
C1893 C1894 1.388 . S
C1894 H1881 0.930 . S
C1894 C1893 1.388 . S
C1894 C1895 1.390 . S
C1895 C1894 1.390 . S
C1895 C1896 1.394 . S
C1895 C1901 1.465 1_655 S
C1896 C1891 1.399 . S
C1896 C1895 1.394 . S
C1896 C1897 1.517 1_655 S
C1897 C1896 1.517 1_455 S
C1897 C1898 1.502 . S
C1897 C1899 1.561 . S
C1897 C1900 1.525 . S
C1898 H1882 0.962 . S
C1898 H1883 0.979 . S
C1898 H1884 0.940 1_455 S
C1898 C1897 1.502 . S
C1899 H1885 0.958 1_455 S
C1899 H1886 0.963 . S
C1899 H1887 0.959 . S
C1899 C1897 1.561 . S
C1900 C1897 1.525 . S
C1900 C1901 1.396 . S
C1900 C1905 1.390 . S
C1901 C1895 1.465 1_455 S
C1901 C1900 1.396 . S
C1901 C1902 1.399 . S
C1902 H1888 0.929 . S
C1902 C1901 1.399 . S
C1902 C1903 1.385 . S
C1903 H1889 0.931 . S
C1903 C1902 1.385 . S
C1903 C1904 1.389 . S
C1904 C1903 1.389 . S
C1904 C1905 1.387 . S
C1905 H1890 0.930 . S
C1905 C1900 1.390 . S
C1905 C1904 1.387 . S
H1906 C1918 0.930 . S
H1907 C1920 0.930 . S
H1908 C1921 0.930 . S
H1909 C1925 0.959 . S
H1910 C1925 0.959 . S
H1911 C1925 0.961 . S
H1912 C1926 0.960 . S
H1913 C1926 0.961 . S
H1914 C1926 0.959 . S
H1915 C1929 0.929 . S
H1916 C1930 0.931 . S
H1917 C1932 0.930 . S
C1918 H1906 0.930 . S
C1918 C1919 1.399 . S
C1918 C1923 1.399 . S
C1919 C1918 1.399 . S
C1919 C1920 1.376 . S
C1920 H1907 0.930 . S
C1920 C1919 1.376 . S
C1920 C1921 1.388 . S
C1921 H1908 0.930 . S
C1921 C1920 1.388 . S
C1921 C1922 1.390 . S
C1922 C1921 1.390 . S
C1922 C1923 1.394 . S
C1922 C1928 1.465 . S
C1923 C1918 1.399 . S
C1923 C1922 1.394 . S
C1923 C1924 1.516 . S
C1924 C1923 1.516 . S
C1924 C1925 1.502 . S
C1924 C1926 1.561 . S
C1924 C1927 1.526 . S
C1925 H1909 0.959 . S
C1925 H1910 0.959 . S
C1925 H1911 0.961 . S
C1925 C1924 1.502 . S
C1926 H1912 0.960 . S
C1926 H1913 0.961 . S
C1926 H1914 0.959 . S
C1926 C1924 1.561 . S
C1927 C1924 1.526 . S
C1927 C1928 1.396 . S
C1927 C1932 1.390 . S
C1928 C1922 1.465 . S
C1928 C1927 1.396 . S
C1928 C1929 1.399 . S
C1929 H1915 0.929 . S
C1929 C1928 1.399 . S
C1929 C1930 1.385 . S
C1930 H1916 0.931 . S
C1930 C1929 1.385 . S
C1930 C1931 1.389 . S
C1931 C1930 1.389 . S
C1931 C1932 1.387 . S
C1932 H1917 0.930 . S
C1932 C1927 1.390 . S
C1932 C1931 1.387 . S
H1933 C1945 0.930 . S
H1934 C1947 0.930 . S
H1935 C1948 0.930 . S
H1936 C1952 0.959 . S
H1937 C1952 0.959 . S
H1938 C1952 0.961 . S
H1939 C1953 0.960 . S
H1940 C1953 0.961 . S
H1941 C1953 0.959 . S
H1942 C1956 0.929 . S
H1943 C1957 0.931 . S
H1944 C1959 0.930 . S
C1945 H1933 0.930 . S
C1945 C1946 1.399 . S
C1945 C1950 1.399 . S
C1946 C1945 1.399 . S
C1946 C1947 1.376 . S
C1947 H1934 0.930 . S
C1947 C1946 1.376 . S
C1947 C1948 1.388 . S
C1948 H1935 0.930 . S
C1948 C1947 1.388 . S
C1948 C1949 1.390 . S
C1949 C1948 1.390 . S
C1949 C1950 1.394 . S
C1949 C1955 1.465 . S
C1950 C1945 1.399 . S
C1950 C1949 1.394 . S
C1950 C1951 1.516 . S
C1951 C1950 1.516 . S
C1951 C1952 1.502 . S
C1951 C1953 1.561 . S
C1951 C1954 1.526 . S
C1952 H1936 0.959 . S
C1952 H1937 0.959 . S
C1952 H1938 0.961 . S
C1952 C1951 1.502 . S
C1953 H1939 0.960 . S
C1953 H1940 0.961 . S
C1953 H1941 0.959 . S
C1953 C1951 1.561 . S
C1954 C1951 1.526 . S
C1954 C1955 1.396 . S
C1954 C1959 1.390 . S
C1955 C1949 1.465 . S
C1955 C1954 1.396 . S
C1955 C1956 1.399 . S
C1956 H1942 0.929 . S
C1956 C1955 1.399 . S
C1956 C1957 1.385 . S
C1957 H1943 0.931 . S
C1957 C1956 1.385 . S
C1957 C1958 1.389 . S
C1958 C1957 1.389 . S
C1958 C1959 1.387 . S
C1959 H1944 0.930 . S
C1959 C1954 1.390 . S
C1959 C1958 1.387 . S
H1960 C1972 0.930 . S
H1961 C1974 0.930 . S
H1962 C1975 0.930 . S
H1963 C1979 0.959 . S
H1964 C1979 0.959 . S
H1965 C1979 0.961 . S
H1966 C1980 0.960 . S
H1967 C1980 0.961 . S
H1968 C1980 0.959 . S
H1969 C1983 0.929 . S
H1970 C1984 0.931 . S
H1971 C1986 0.930 . S
C1972 H1960 0.930 . S
C1972 C1973 1.399 . S
C1972 C1977 1.399 . S
C1973 C1972 1.399 . S
C1973 C1974 1.376 . S
C1974 H1961 0.930 . S
C1974 C1973 1.376 . S
C1974 C1975 1.388 . S
C1975 H1962 0.930 . S
C1975 C1974 1.388 . S
C1975 C1976 1.390 . S
C1976 C1975 1.390 . S
C1976 C1977 1.394 . S
C1976 C1982 1.465 . S
C1977 C1972 1.399 . S
C1977 C1976 1.394 . S
C1977 C1978 1.516 . S
C1978 C1977 1.516 . S
C1978 C1979 1.502 . S
C1978 C1980 1.561 . S
C1978 C1981 1.526 . S
C1979 H1963 0.959 . S
C1979 H1964 0.959 . S
C1979 H1965 0.961 . S
C1979 C1978 1.502 . S
C1980 H1966 0.960 . S
C1980 H1967 0.961 . S
C1980 H1968 0.959 . S
C1980 C1978 1.561 . S
C1981 C1978 1.526 . S
C1981 C1982 1.396 . S
C1981 C1986 1.390 . S
C1982 C1976 1.465 . S
C1982 C1981 1.396 . S
C1982 C1983 1.399 . S
C1983 H1969 0.929 . S
C1983 C1982 1.399 . S
C1983 C1984 1.385 . S
C1984 H1970 0.931 . S
C1984 C1983 1.385 . S
C1984 C1985 1.389 . S
C1985 C1984 1.389 . S
C1985 C1986 1.387 . S
C1986 H1971 0.930 . S
C1986 C1981 1.390 . S
C1986 C1985 1.387 . S
H1987 C1999 0.930 . S
H1988 C2001 0.930 . S
H1989 C2002 0.930 . S
H1990 C2006 0.959 . S
H1991 C2006 0.959 . S
H1992 C2006 0.961 . S
H1993 C2007 0.960 . S
H1994 C2007 0.961 . S
H1995 C2007 0.959 . S
H1996 C2010 0.929 . S
H1997 C2011 0.931 . S
H1998 C2013 0.930 . S
C1999 H1987 0.930 . S
C1999 C2000 1.399 . S
C1999 C2004 1.399 . S
C2000 C1999 1.399 . S
C2000 C2001 1.376 . S
C2001 H1988 0.930 . S
C2001 C2000 1.376 . S
C2001 C2002 1.388 . S
C2002 H1989 0.930 . S
C2002 C2001 1.388 . S
C2002 C2003 1.390 . S
C2003 C2002 1.390 . S
C2003 C2004 1.394 . S
C2003 C2009 1.465 . S
C2004 C1999 1.399 . S
C2004 C2003 1.394 . S
C2004 C2005 1.516 . S
C2005 C2004 1.516 . S
C2005 C2006 1.502 . S
C2005 C2007 1.561 . S
C2005 C2008 1.526 . S
C2006 H1990 0.959 . S
C2006 H1991 0.959 . S
C2006 H1992 0.961 . S
C2006 C2005 1.502 . S
C2007 H1993 0.960 . S
C2007 H1994 0.961 . S
C2007 H1995 0.959 . S
C2007 C2005 1.561 . S
C2008 C2005 1.526 . S
C2008 C2009 1.396 . S
C2008 C2013 1.390 . S
C2009 C2003 1.465 . S
C2009 C2008 1.396 . S
C2009 C2010 1.399 . S
C2010 H1996 0.929 . S
C2010 C2009 1.399 . S
C2010 C2011 1.385 . S
C2011 H1997 0.931 . S
C2011 C2010 1.385 . S
C2011 C2012 1.389 . S
C2012 C2011 1.389 . S
C2012 C2013 1.387 . S
C2013 H1998 0.930 . S
C2013 C2008 1.390 . S
C2013 C2012 1.387 . S
H2014 C2026 0.930 . S
H2015 C2028 0.930 . S
H2016 C2029 0.930 . S
H2017 C2033 0.959 . S
H2018 C2033 0.959 . S
H2019 C2033 0.961 . S
H2020 C2034 0.960 1_556 S
H2021 C2034 0.961 1_556 S
H2022 C2034 0.959 . S
H2023 C2037 0.929 . S
H2024 C2038 0.931 . S
H2025 C2040 0.930 . S
C2026 H2014 0.930 . S
C2026 C2027 1.399 . S
C2026 C2031 1.399 . S
C2027 C2026 1.399 . S
C2027 C2028 1.376 . S
C2028 H2015 0.930 . S
C2028 C2027 1.376 . S
C2028 C2029 1.388 . S
C2029 H2016 0.930 . S
C2029 C2028 1.388 . S
C2029 C2030 1.390 . S
C2030 C2029 1.390 . S
C2030 C2031 1.394 . S
C2030 C2036 1.465 . S
C2031 C2026 1.399 . S
C2031 C2030 1.394 . S
C2031 C2032 1.516 . S
C2032 C2031 1.516 . S
C2032 C2033 1.502 . S
C2032 C2034 1.561 . S
C2032 C2035 1.526 . S
C2033 H2017 0.959 . S
C2033 H2018 0.959 . S
C2033 H2019 0.961 . S
C2033 C2032 1.502 . S
C2034 H2020 0.960 1_554 S
C2034 H2021 0.961 1_554 S
C2034 H2022 0.959 . S
C2034 C2032 1.561 . S
C2035 C2032 1.526 . S
C2035 C2036 1.396 . S
C2035 C2040 1.390 . S
C2036 C2030 1.465 . S
C2036 C2035 1.396 . S
C2036 C2037 1.399 . S
C2037 H2023 0.929 . S
C2037 C2036 1.399 . S
C2037 C2038 1.385 . S
C2038 H2024 0.931 . S
C2038 C2037 1.385 . S
C2038 C2039 1.389 . S
C2039 C2038 1.389 . S
C2039 C2040 1.387 . S
C2040 H2025 0.930 . S
C2040 C2035 1.390 . S
C2040 C2039 1.387 . S
H2041 C2053 0.930 . S
H2042 C2055 0.930 . S
H2043 C2056 0.930 . S
H2044 C2060 0.959 . S
H2045 C2060 0.959 . S
H2046 C2060 0.961 . S
H2047 C2061 0.960 . S
H2048 C2061 0.961 . S
H2049 C2061 0.959 . S
H2050 C2064 0.929 . S
H2051 C2065 0.931 . S
H2052 C2067 0.930 . S
C2053 H2041 0.930 . S
C2053 C2054 1.399 . S
C2053 C2058 1.399 . S
C2054 C2053 1.399 . S
C2054 C2055 1.376 . S
C2055 H2042 0.930 . S
C2055 C2054 1.376 . S
C2055 C2056 1.388 . S
C2056 H2043 0.930 . S
C2056 C2055 1.388 . S
C2056 C2057 1.390 . S
C2057 C2056 1.390 . S
C2057 C2058 1.394 . S
C2057 C2063 1.465 . S
C2058 C2053 1.399 . S
C2058 C2057 1.394 . S
C2058 C2059 1.516 . S
C2059 C2058 1.516 . S
C2059 C2060 1.502 . S
C2059 C2061 1.561 . S
C2059 C2062 1.526 . S
C2060 H2044 0.959 . S
C2060 H2045 0.959 . S
C2060 H2046 0.961 . S
C2060 C2059 1.502 . S
C2061 H2047 0.960 . S
C2061 H2048 0.961 . S
C2061 H2049 0.959 . S
C2061 C2059 1.561 . S
C2062 C2059 1.526 . S
C2062 C2063 1.396 . S
C2062 C2067 1.390 . S
C2063 C2057 1.465 . S
C2063 C2062 1.396 . S
C2063 C2064 1.399 . S
C2064 H2050 0.929 . S
C2064 C2063 1.399 . S
C2064 C2065 1.385 . S
C2065 H2051 0.931 . S
C2065 C2064 1.385 . S
C2065 C2066 1.389 . S
C2066 C2065 1.389 . S
C2066 C2067 1.387 . S
C2067 H2052 0.930 . S
C2067 C2062 1.390 . S
C2067 C2066 1.387 . S
H2068 C2080 0.930 . S
H2069 C2082 0.930 . S
H2070 C2083 0.930 . S
H2071 C2087 0.962 . S
H2072 C2087 0.979 . S
H2073 C2087 0.940 1_655 S
H2074 C2088 0.958 1_655 S
H2075 C2088 0.963 . S
H2076 C2088 0.959 . S
H2077 C2091 0.929 . S
H2078 C2092 0.931 . S
H2079 C2094 0.930 . S
C2080 H2068 0.930 . S
C2080 C2081 1.399 . S
C2080 C2085 1.399 . S
C2081 C2080 1.399 . S
C2081 C2082 1.376 . S
C2082 H2069 0.930 . S
C2082 C2081 1.376 . S
C2082 C2083 1.388 . S
C2083 H2070 0.930 . S
C2083 C2082 1.388 . S
C2083 C2084 1.390 . S
C2084 C2083 1.390 . S
C2084 C2085 1.394 . S
C2084 C2090 1.465 1_655 S
C2085 C2080 1.399 . S
C2085 C2084 1.394 . S
C2085 C2086 1.517 1_655 S
C2086 C2085 1.517 1_455 S
C2086 C2087 1.502 . S
C2086 C2088 1.561 . S
C2086 C2089 1.525 . S
C2087 H2071 0.962 . S
C2087 H2072 0.979 . S
C2087 H2073 0.940 1_455 S
C2087 C2086 1.502 . S
C2088 H2074 0.958 1_455 S
C2088 H2075 0.963 . S
C2088 H2076 0.959 . S
C2088 C2086 1.561 . S
C2089 C2086 1.525 . S
C2089 C2090 1.396 . S
C2089 C2094 1.390 . S
C2090 C2084 1.465 1_455 S
C2090 C2089 1.396 . S
C2090 C2091 1.399 . S
C2091 H2077 0.929 . S
C2091 C2090 1.399 . S
C2091 C2092 1.385 . S
C2092 H2078 0.931 . S
C2092 C2091 1.385 . S
C2092 C2093 1.389 . S
C2093 C2092 1.389 . S
C2093 C2094 1.387 . S
C2094 H2079 0.930 . S
C2094 C2089 1.390 . S
C2094 C2093 1.387 . S
H2095 C2107 0.930 . S
H2096 C2109 0.930 . S
H2097 C2110 0.930 . S
H2098 C2114 0.959 . S
H2099 C2114 0.959 . S
H2100 C2114 0.961 . S
H2101 C2115 0.960 . S
H2102 C2115 0.961 . S
H2103 C2115 0.959 . S
H2104 C2118 0.929 . S
H2105 C2119 0.931 . S
H2106 C2121 0.930 . S
C2107 H2095 0.930 . S
C2107 C2108 1.399 . S
C2107 C2112 1.399 . S
C2108 C2107 1.399 . S
C2108 C2109 1.376 . S
C2109 H2096 0.930 . S
C2109 C2108 1.376 . S
C2109 C2110 1.388 . S
C2110 H2097 0.930 . S
C2110 C2109 1.388 . S
C2110 C2111 1.390 . S
C2111 C2110 1.390 . S
C2111 C2112 1.394 . S
C2111 C2117 1.465 . S
C2112 C2107 1.399 . S
C2112 C2111 1.394 . S
C2112 C2113 1.516 . S
C2113 C2112 1.516 . S
C2113 C2114 1.502 . S
C2113 C2115 1.561 . S
C2113 C2116 1.526 . S
C2114 H2098 0.959 . S
C2114 H2099 0.959 . S
C2114 H2100 0.961 . S
C2114 C2113 1.502 . S
C2115 H2101 0.960 . S
C2115 H2102 0.961 . S
C2115 H2103 0.959 . S
C2115 C2113 1.561 . S
C2116 C2113 1.526 . S
C2116 C2117 1.396 . S
C2116 C2121 1.390 . S
C2117 C2111 1.465 . S
C2117 C2116 1.396 . S
C2117 C2118 1.399 . S
C2118 H2104 0.929 . S
C2118 C2117 1.399 . S
C2118 C2119 1.385 . S
C2119 H2105 0.931 . S
C2119 C2118 1.385 . S
C2119 C2120 1.389 . S
C2120 C2119 1.389 . S
C2120 C2121 1.387 . S
C2121 H2106 0.930 . S
C2121 C2116 1.390 . S
C2121 C2120 1.387 . S
H2122 C2134 0.930 . S
H2123 C2136 0.930 . S
H2124 C2137 0.930 . S
H2125 C2141 0.959 . S
H2126 C2141 0.959 . S
H2127 C2141 0.961 . S
H2128 C2142 0.960 . S
H2129 C2142 0.961 . S
H2130 C2142 0.959 . S
H2131 C2145 0.929 . S
H2132 C2146 0.931 . S
H2133 C2148 0.930 . S
C2134 H2122 0.930 . S
C2134 C2135 1.399 . S
C2134 C2139 1.399 . S
C2135 C2134 1.399 . S
C2135 C2136 1.376 . S
C2136 H2123 0.930 . S
C2136 C2135 1.376 . S
C2136 C2137 1.388 . S
C2137 H2124 0.930 . S
C2137 C2136 1.388 . S
C2137 C2138 1.390 . S
C2138 C2137 1.390 . S
C2138 C2139 1.394 . S
C2138 C2144 1.465 . S
C2139 C2134 1.399 . S
C2139 C2138 1.394 . S
C2139 C2140 1.516 . S
C2140 C2139 1.516 . S
C2140 C2141 1.502 . S
C2140 C2142 1.561 . S
C2140 C2143 1.526 . S
C2141 H2125 0.959 . S
C2141 H2126 0.959 . S
C2141 H2127 0.961 . S
C2141 C2140 1.502 . S
C2142 H2128 0.960 . S
C2142 H2129 0.961 . S
C2142 H2130 0.959 . S
C2142 C2140 1.561 . S
C2143 C2140 1.526 . S
C2143 C2144 1.396 . S
C2143 C2148 1.390 . S
C2144 C2138 1.465 . S
C2144 C2143 1.396 . S
C2144 C2145 1.399 . S
C2145 H2131 0.929 . S
C2145 C2144 1.399 . S
C2145 C2146 1.385 . S
C2146 H2132 0.931 . S
C2146 C2145 1.385 . S
C2146 C2147 1.389 . S
C2147 C2146 1.389 . S
C2147 C2148 1.387 . S
C2148 H2133 0.930 . S
C2148 C2143 1.390 . S
C2148 C2147 1.387 . S
H2149 C2161 0.930 . S
H2150 C2163 0.930 . S
H2151 C2164 0.930 . S
H2152 C2168 0.962 . S
H2153 C2168 0.979 . S
H2154 C2168 0.940 1_655 S
H2155 C2169 0.958 1_655 S
H2156 C2169 0.963 . S
H2157 C2169 0.959 . S
H2158 C2172 0.929 . S
H2159 C2173 0.931 . S
H2160 C2175 0.930 . S
C2161 H2149 0.930 . S
C2161 C2162 1.399 . S
C2161 C2166 1.399 . S
C2162 C2161 1.399 . S
C2162 C2163 1.376 . S
C2163 H2150 0.930 . S
C2163 C2162 1.376 . S
C2163 C2164 1.388 . S
C2164 H2151 0.930 . S
C2164 C2163 1.388 . S
C2164 C2165 1.390 . S
C2165 C2164 1.390 . S
C2165 C2166 1.394 . S
C2165 C2171 1.465 1_655 S
C2166 C2161 1.399 . S
C2166 C2165 1.394 . S
C2166 C2167 1.517 1_655 S
C2167 C2166 1.517 1_455 S
C2167 C2168 1.502 . S
C2167 C2169 1.561 . S
C2167 C2170 1.525 . S
C2168 H2152 0.962 . S
C2168 H2153 0.979 . S
C2168 H2154 0.940 1_455 S
C2168 C2167 1.502 . S
C2169 H2155 0.958 1_455 S
C2169 H2156 0.963 . S
C2169 H2157 0.959 . S
C2169 C2167 1.561 . S
C2170 C2167 1.525 . S
C2170 C2171 1.396 . S
C2170 C2175 1.390 . S
C2171 C2165 1.465 1_455 S
C2171 C2170 1.396 . S
C2171 C2172 1.399 . S
C2172 H2158 0.929 . S
C2172 C2171 1.399 . S
C2172 C2173 1.385 . S
C2173 H2159 0.931 . S
C2173 C2172 1.385 . S
C2173 C2174 1.389 . S
C2174 C2173 1.389 . S
C2174 C2175 1.387 . S
C2175 H2160 0.930 . S
C2175 C2170 1.390 . S
C2175 C2174 1.387 . S
C461 C328 1.679 . S
C473 C7 1.695 . S
C488 C287 1.752 . S
C500 C20 1.678 . S
C515 C300 1.691 . S
C527 C35 1.683 . S
C542 C315 1.755 . S
C554 C48 1.680 . S
C569 C63 1.701 . S
C581 C244 1.676 . S
C596 C259 1.755 . S
C608 C76 1.680 . S
C623 C91 1.760 . S
C635 C272 1.686 . S
C650 C104 1.759 . S
C662 C231 1.742 . S
C677 C441 1.754 . S
C689 C119 1.704 . S
C704 C133 1.751 . S
C716 C399 1.701 . S
C731 C147 1.679 . S
C743 C413 1.674 . S
C758 C161 1.689 . S
C770 C427 1.741 . S
C785 C175 1.673 . S
C797 C357 1.679 . S
C812 C189 1.669 . S
C824 C371 1.691 . S
C839 C203 1.759 . S
C851 C385 1.762 . S
C866 C217 1.753 . S
C878 C343 1.702 . S
C893 C8 1.271 . S
C905 C176 1.267 . S
C920 C414 1.292 . S
C932 C23 1.292 . S
C947 C36 1.281 . S
C959 C204 1.285 . S
C974 C442 1.277 . S
C986 C51 1.282 . S
C1001 C120 1.290 . S
C1013 C64 1.292 . S
C1028 C79 1.291 . S
C1040 C358 1.288 . S
C1055 C92 1.280 . S
C1067 C148 1.284 . S
C1082 C107 1.275 . S
C1094 C386 1.280 . S
C1109 C303 1.290 . S
C1121 C134 1.286 . S
C1136 C331 1.266 . S
C1148 C162 1.264 . S
C1163 C190 1.270 . S
C1175 C247 1.274 . S
C1190 C275 1.265 . S
C1202 C218 1.269 . S
C1217 C400 1.289 . S
C1229 C232 1.291 . S
C1244 C260 1.266 . S
C1256 C428 1.264 . S
C1271 C344 1.292 . S
C1283 C288 1.291 . S
C1298 C372 1.263 . S
C1310 C316 1.263 . S
C1325 C62 1.303 . S
C1337 C6 1.295 . S
C1352 C77 1.283 . S
C1364 C21 1.309 . S
C1379 C34 1.300 . S
C1391 C90 1.299 . S
C1406 C49 1.290 . S
C1418 C105 1.268 . S
C1433 C174 1.290 . S
C1445 C118 1.266 . S
C1460 C188 1.265 . S
C1472 C132 1.286 . S
C1487 C202 1.287 . S
C1499 C146 1.310 . S
C1514 C160 1.265 . S
C1526 C216 1.292 . S
C1541 C230 1.266 . S
C1553 C286 1.295 . S
C1568 C245 1.286 . S
C1580 C301 1.307 . S
C1595 C258 1.267 . S
C1607 C314 1.292 . S
C1622 C273 1.295 . S
C1634 C329 1.266 . S
C1649 C398 1.286 . S
C1661 C342 1.266 . S
C1676 C412 1.265 . S
C1688 C356 1.284 . S
C1703 C426 1.284 . S
C1715 C370 1.310 . S
C1730 C440 1.302 . S
C1742 C384 1.271 . S
C1757 C429 1.647 . S
C1769 C9 1.657 . S
C1784 C22 1.642 . S
C1796 C219 1.652 . S
C1811 C401 1.654 . S
C1823 C37 1.662 . S
C1838 C50 1.609 . S
C1850 C191 1.618 . S
C1865 C373 1.670 . S
C1877 C65 1.672 . S
C1892 C78 1.672 . S
C1904 C163 1.668 . S
C1919 C93 1.672 . S
C1931 C345 1.672 . S
C1946 C135 1.605 . S
C1958 C106 1.612 . S
C1973 C121 1.641 . S
C1985 C317 1.651 . S
C2000 C289 1.669 . S
C2012 C149 1.672 . S
C2027 C177 1.625 . S
C2039 C261 1.616 . S
C2054 C205 1.635 . S
C2066 C233 1.624 . S
C2081 C443 1.610 . S
C2093 C246 1.605 . S
C2108 C274 1.642 . S
C2120 C415 1.632 . S
C2135 C302 1.664 . S
C2147 C387 1.669 . S
C2162 C359 1.645 . S
C2174 C330 1.634 . S
