# Generated by pormake.
# Topology wnj, (7)-cn, num edge types: 1
# Building blocks:
#     Node 0, Type 0, BuildingBlock: OLANEW_clean_sbu_0, # of connection points: 7
#     Node 1, Type 0, BuildingBlock: OLANEW_clean_sbu_0, # of connection points: 7
#     Node 2, Type 0, BuildingBlock: OLANEW_clean_sbu_0, # of connection points: 7
#     Node 3, Type 0, BuildingBlock: OLANEW_clean_sbu_0, # of connection points: 7
#     Node 4, Type 0, BuildingBlock: OLANEW_clean_sbu_0, # of connection points: 7
#     Node 5, Type 0, BuildingBlock: OLANEW_clean_sbu_0, # of connection points: 7
#     Edge 6, Type (0, 0), BuildingBlock: UVAHIK_clean_linker_0, # of connection points: 2
#     Edge 7, Type (0, 0), BuildingBlock: UVAHIK_clean_linker_0, # of connection points: 2
#     Edge 8, Type (0, 0), BuildingBlock: UVAHIK_clean_linker_0, # of connection points: 2
#     Edge 9, Type (0, 0), BuildingBlock: UVAHIK_clean_linker_0, # of connection points: 2
#     Edge 10, Type (0, 0), BuildingBlock: UVAHIK_clean_linker_0, # of connection points: 2
#     Edge 11, Type (0, 0), BuildingBlock: UVAHIK_clean_linker_0, # of connection points: 2
#     Edge 12, Type (0, 0), BuildingBlock: UVAHIK_clean_linker_0, # of connection points: 2
#     Edge 13, Type (0, 0), BuildingBlock: UVAHIK_clean_linker_0, # of connection points: 2
#     Edge 14, Type (0, 0), BuildingBlock: UVAHIK_clean_linker_0, # of connection points: 2
#     Edge 15, Type (0, 0), BuildingBlock: UVAHIK_clean_linker_0, # of connection points: 2
#     Edge 16, Type (0, 0), BuildingBlock: UVAHIK_clean_linker_0, # of connection points: 2
#     Edge 17, Type (0, 0), BuildingBlock: UVAHIK_clean_linker_0, # of connection points: 2
#     Edge 18, Type (0, 0), BuildingBlock: UVAHIK_clean_linker_0, # of connection points: 2
#     Edge 19, Type (0, 0), BuildingBlock: UVAHIK_clean_linker_0, # of connection points: 2
#     Edge 20, Type (0, 0), BuildingBlock: UVAHIK_clean_linker_0, # of connection points: 2
#     Edge 21, Type (0, 0), BuildingBlock: UVAHIK_clean_linker_0, # of connection points: 2
#     Edge 22, Type (0, 0), BuildingBlock: UVAHIK_clean_linker_0, # of connection points: 2
#     Edge 23, Type (0, 0), BuildingBlock: UVAHIK_clean_linker_0, # of connection points: 2
#     Edge 24, Type (0, 0), BuildingBlock: UVAHIK_clean_linker_0, # of connection points: 2
#     Edge 25, Type (0, 0), BuildingBlock: UVAHIK_clean_linker_0, # of connection points: 2
#     Edge 26, Type (0, 0), BuildingBlock: UVAHIK_clean_linker_0, # of connection points: 2
# Relax obj value: 0.260
# Max RMSD: 0.267
# Mean RMSD: 0.267
data_MOF--net-wnj--node1-OLANEW_clean_sbu_0--edge1-UVAHIK_clean_linker_0
_symmetry_space_group_name_H-M    P1
_symmetry_Int_Tables_number       1
_symmetry_cell_setting            triclinic
loop_
_symmetry_equiv_pos_as_xyz
'x, y, z'
_cell_length_a     46.174754
_cell_length_b     46.191984
_cell_length_c     55.213928
_cell_angle_alpha  90.148403
_cell_angle_beta   89.877361
_cell_angle_gamma 119.95979
loop_
_atom_site_label
_atom_site_type_symbol
_atom_site_fract_x
_atom_site_fract_y
_atom_site_fract_z
_atom_type_partial_charge
Cd0 Cd 0.20365 0.58271 0.09882 0.0
C1 C 0.22732 0.66275 0.08042 0.0
C2 C 0.1105 0.47877 -0.01047 0.0
O3 O 0.12475 0.47557 0.96985 0.0
Cd4 Cd 0.17529 0.64829 0.13429 0.0
C5 C 0.08556 0.44963 0.00321 0.0
C6 C 0.03573 0.40284 0.03361 0.0
C7 C 0.04911 0.43721 0.03696 0.0
N8 N 0.07311 0.45812 0.02194 0.0
C9 C 0.0733 0.41566 -0.00135 0.0
C10 C 0.04817 0.39215 0.01419 0.0
Co11 Co 0.08907 0.503 0.0266 0.0
C12 C 0.04036 0.45462 0.05535 0.0
O13 O 1.01909 0.43857 0.07293 0.0
C14 C 0.05673 0.5091 0.07339 0.0
C15 C 0.08438 0.52571 0.08807 0.0
C16 C 0.08608 0.54777 0.10591 0.0
C17 C 0.05693 0.54926 0.11166 0.0
C18 C 0.02658 0.52888 0.09912 0.0
C19 C 0.0273 0.50974 0.07921 0.0
C20 C 0.11968 0.57163 0.11543 0.0
C21 C 0.14023 0.54019 -0.0135 0.0
C22 C 0.1732 0.5473 0.98237 0.0
C23 C 0.13006 0.56181 0.97699 0.0
C24 C 0.15283 0.59152 0.96578 0.0
C25 C 0.18578 0.59925 0.96276 0.0
C26 C 0.19577 0.57642 0.96993 0.0
N27 N 0.11641 0.50929 -0.00218 0.0
N28 N 0.05806 0.48876 0.05423 0.0
N29 N 0.12672 0.50972 0.04656 0.0
C30 C 0.13556 0.48491 0.05221 0.0
C31 C 0.16264 0.48519 0.04056 0.0
C32 C 0.11808 0.46132 0.07021 0.0
C33 C 0.17236 0.46178 0.04669 0.0
H34 H 0.17618 0.5039 0.02686 0.0
C35 C 0.15442 0.43797 0.06472 0.0
C36 C 0.12725 0.43758 0.07662 0.0
C37 C 0.20137 0.46239 0.03451 0.0
H38 H 0.09777 0.462 0.07952 0.0
H39 H 0.16175 0.41984 0.06961 0.0
C40 C 0.10883 0.41273 0.09593 0.0
O41 O 0.21102 0.44024 0.04083 0.0
O42 O 0.21679 0.48299 0.01874 0.0
O43 O 0.08494 0.41215 0.10601 0.0
O44 O 0.11838 0.3906 0.10253 0.0
H45 H 0.2299 0.44026 0.03317 0.0
H46 H 0.10677 0.37425 0.1151 0.0
N47 N 0.10486 0.54776 0.03144 0.0
C48 C 0.08709 0.56025 0.02152 0.0
C49 C 0.10066 0.59497 0.02182 0.0
C50 C 0.13237 0.61478 0.03275 0.0
C51 C 0.14991 0.59983 0.04282 0.0
C52 C 0.13494 0.56504 0.04178 0.0
N53 N 0.05508 0.50393 0.00682 0.0
C54 C 0.05777 0.53479 0.00794 0.0
O55 O 0.03929 0.54263 -0.00558 0.0
C56 C 0.14802 0.54338 0.05023 0.0
O57 O 0.21816 0.54182 0.11831 0.0
O58 O 0.25943 0.5881 0.10539 0.0
C59 C 0.03463 0.47862 -0.01029 0.0
C60 C 1.00482 0.45137 -0.00235 0.0
C61 C 0.98535 0.42532 0.98174 0.0
C62 C 0.99573 0.42665 0.9577 0.0
C63 C 0.02482 0.45456 0.94901 0.0
C64 C 0.0444 0.48066 0.96526 0.0
O65 O 0.23077 0.63706 0.07885 0.0
O66 O 0.20989 0.66616 0.09699 0.0
O67 O 0.14486 0.56965 0.10765 0.0
O68 O 0.12369 0.59733 0.12675 0.0
O69 O 0.17959 0.55583 0.05882 0.0
C70 C 0.21908 0.62593 0.15047 0.0
O71 O 0.21096 0.64307 0.16376 0.0
O72 O 0.19979 0.61012 0.13316 0.0
C73 C 0.24972 0.56021 0.11579 0.0
H74 H 1.01633 0.38492 0.0454 0.0
H75 H 0.08257 0.4075 0.98362 0.0
H76 H 0.03821 0.36571 0.01111 0.0
H77 H 0.10515 0.52171 0.08522 0.0
H78 H 0.05774 0.56552 0.12613 0.0
H79 H 1.00505 0.49502 0.06846 0.0
H80 H 0.18081 0.52957 -0.01222 0.0
H81 H 0.10434 0.55534 0.9769 0.0
H82 H 0.20263 0.62173 0.95291 0.0
H83 H 0.08792 0.60651 0.01322 0.0
H84 H 0.14363 0.6417 0.03297 0.0
H85 H 0.17435 0.61496 0.05075 0.0
H86 H 0.99653 0.45076 0.01611 0.0
H87 H 0.97951 0.40707 0.94521 0.0
H88 H 0.06706 0.50229 0.95896 0.0
Cd89 Cd 0.45207 0.62662 0.76531 0.0
C90 C 0.37225 0.57074 0.74576 0.0
C91 C 0.55707 0.63504 0.65707 0.0
O92 O 0.56018 0.65157 0.63697 0.0
Cd93 Cd 0.38538 0.53212 0.79911 0.0
C94 C 0.58636 0.63958 0.67069 0.0
C95 C 0.63356 0.63693 0.70082 0.0
C96 C 0.59922 0.61641 0.70463 0.0
N97 N 0.57809 0.6194 0.68978 0.0
C98 C 0.62029 0.66077 0.66564 0.0
C99 C 0.644 0.6594 0.68108 0.0
Co100 Co 0.53326 0.5906 0.69473 0.0
C101 C 0.58205 0.59078 0.72331 0.0
O102 O 0.59833 0.58599 0.74092 0.0
C103 C 0.5277 0.5536 0.74194 0.0
C104 C 0.51148 0.56535 0.75642 0.0
C105 C 0.48793 0.54488 0.77335 0.0
C106 C 0.48475 0.51351 0.7787 0.0
C107 C 0.50527 0.50282 0.767 0.0
C108 C 0.52593 0.52298 0.74769 0.0
C109 C 0.46381 0.55492 0.78183 0.0
C110 C 0.49551 0.60479 0.65509 0.0
C111 C 0.49043 0.63169 0.64974 0.0
C112 C 0.47155 0.57263 0.64738 0.0
C113 C 0.4419 0.5668 0.63659 0.0
C114 C 0.43644 0.59329 0.63223 0.0
C115 C 0.46136 0.62602 0.63776 0.0
N116 N 0.52655 0.61092 0.66573 0.0
N117 N 0.54791 0.57458 0.72252 0.0
N118 N 0.5265 0.62191 0.71437 0.0
C119 C 0.55107 0.65588 0.71933 0.0
C120 C 0.5498 0.68196 0.70746 0.0
C121 C 0.57521 0.66306 0.73712 0.0
C122 C 0.57271 0.71541 0.71317 0.0
H123 H 0.53062 0.67597 0.69399 0.0
C124 C 0.59699 0.72236 0.73105 0.0
C125 C 0.59837 0.69632 0.74318 0.0
C126 C 0.57102 0.74301 0.70075 0.0
H127 H 0.57532 0.64263 0.74658 0.0
H128 H 0.61469 0.74807 0.73566 0.0
C129 C 0.62358 0.70387 0.76244 0.0
O130 O 0.59267 0.77513 0.70669 0.0
O131 O 0.54999 0.73689 0.68512 0.0
O132 O 0.62494 0.68121 0.77279 0.0
O133 O 0.64512 0.73587 0.76873 0.0
H134 H 0.59195 0.79349 0.69887 0.0
H135 H 0.66167 0.74134 0.78129 0.0
N136 N 0.48865 0.5616 0.69997 0.0
C137 C 0.4764 0.53085 0.69096 0.0
C138 C 0.44181 0.5091 0.69222 0.0
C139 C 0.42194 0.52094 0.70324 0.0
C140 C 0.43668 0.55392 0.71244 0.0
C141 C 0.47132 0.57432 0.71041 0.0
N142 N 0.53235 0.55527 0.67532 0.0
C143 C 0.50166 0.52694 0.67707 0.0
O144 O 0.49355 0.50044 0.66362 0.0
C145 C 0.49281 0.60939 0.71822 0.0
O146 O 0.49213 0.68112 0.78613 0.0
O147 O 0.44824 0.67816 0.77008 0.0
C148 C 0.55581 0.56053 0.65646 0.0
C149 C 0.58414 0.5582 0.66183 0.0
C150 C 0.60726 0.56338 0.64362 0.0
C151 C 0.60287 0.57234 0.62033 0.0
C152 C 0.57431 0.57394 0.61449 0.0
C153 C 0.55037 0.5675 0.63255 0.0
O154 O 0.39808 0.5998 0.74469 0.0
O155 O 0.36839 0.54953 0.76204 0.0
O156 O 0.46683 0.58241 0.77397 0.0
O157 O 0.43724 0.53321 0.79222 0.0
O158 O 0.4801 0.6287 0.72602 0.0
C159 C 0.40567 0.59745 0.81542 0.0
O160 O 0.38841 0.57201 0.82846 0.0
O161 O 0.42345 0.59494 0.79911 0.0
C162 C 0.47505 0.69536 0.78198 0.0
H163 H 0.65164 0.63556 0.71248 0.0
H164 H 0.62825 0.67756 0.65031 0.0
H165 H 0.67042 0.67548 0.67762 0.0
H166 H 0.51641 0.59046 0.75371 0.0
H167 H 0.46606 0.49748 0.79169 0.0
H168 H 0.54133 0.5158 0.73746 0.0
H169 H 0.50963 0.65706 0.65383 0.0
H170 H 0.47614 0.55213 0.64823 0.0
H171 H 0.41392 0.58848 0.62279 0.0
H172 H 0.4304 0.48435 0.68434 0.0
H173 H 0.39512 0.50478 0.70427 0.0
H174 H 0.42152 0.56309 0.7206 0.0
H175 H 0.58728 0.55087 0.67983 0.0
H176 H 0.62056 0.57549 0.60617 0.0
H177 H 0.52783 0.56793 0.62802 0.0
Cd178 Cd 0.40336 0.8268 0.42619 0.0
C179 C 0.44644 0.80375 0.39969 0.0
C180 C 0.39722 0.92806 0.32252 0.0
O181 O 0.37984 0.9145 0.30272 0.0
Cd182 Cd 0.50878 0.85342 0.43636 0.0
C183 C 0.39258 0.9521 0.33717 0.0
C184 C 0.39466 0.99989 0.36942 0.0
C185 C 0.41574 0.98648 0.37205 0.0
N186 N 0.4131 0.96348 0.35615 0.0
C187 C 0.37079 0.96444 0.33332 0.0
C188 C 0.37194 0.98854 0.34979 0.0
Co189 Co 0.44197 0.94734 0.35996 0.0
C190 C 0.44146 0.99408 0.39058 0.0
O191 O 0.44613 0.01416 0.40892 0.0
C192 C 0.4793 0.97644 0.40761 0.0
C193 C 0.46934 0.9472 0.42021 0.0
C194 C 0.49078 0.94385 0.43617 0.0
C195 C 0.52125 0.97279 0.4427 0.0
C196 C 0.52963 1.0045 0.43299 0.0
C197 C 0.50886 1.00561 0.41455 0.0
C198 C 0.48288 0.90915 0.44155 0.0
C199 C 0.42868 0.8981 0.31851 0.0
C200 C 0.40294 0.865 0.31478 0.0
C201 C 0.46036 0.90823 0.30872 0.0
C202 C 0.46743 0.88525 0.2979 0.0
C203 C 0.4424 0.85215 0.29539 0.0
C204 C 0.40956 0.84222 0.30257 0.0
N205 N 0.42179 0.92187 0.33029 0.0
N206 N 0.45783 0.97633 0.38874 0.0
N207 N 0.41046 0.90843 0.37848 0.0
C208 C 0.37694 0.89963 0.38477 0.0
C209 C 0.34985 0.87281 0.37318 0.0
C210 C 0.37121 0.91659 0.40346 0.0
C211 C 0.31689 0.86282 0.38009 0.0
H212 H 0.35466 0.85957 0.35897 0.0
C213 C 0.31142 0.88042 0.39868 0.0
C214 C 0.33846 0.90737 0.41049 0.0
C215 C 0.28825 0.83381 0.36818 0.0
H216 H 0.39236 0.93647 0.41286 0.0
H217 H 0.28609 0.87297 0.40411 0.0
C218 C 0.33246 0.92551 0.43032 0.0
O219 O 0.25662 0.82394 0.37521 0.0
O220 O 0.29308 0.81855 0.35202 0.0
O221 O 0.35597 0.94915 0.44039 0.0
O222 O 0.30093 0.916 0.43741 0.0
H223 H 0.23761 0.80502 0.36776 0.0
H224 H 0.29646 0.92747 0.45031 0.0
N225 N 0.47099 0.93134 0.3639 0.0
C226 C 0.50098 0.94918 0.35346 0.0
C227 C 0.52057 0.9341 0.3503 0.0
C228 C 0.5068 0.9003 0.35721 0.0
C229 C 0.47424 0.88246 0.36708 0.0
C230 C 0.45684 0.89955 0.37115 0.0
N231 N 0.47715 0.98253 0.34113 0.0
C232 C 0.50511 0.97946 0.34133 0.0
O233 O 0.53122 0.99827 0.32769 0.0
C234 C 0.42214 0.88633 0.37997 0.0
O235 O 0.35905 0.81052 0.45924 0.0
O236 O 0.34344 0.78199 0.42627 0.0
C237 C 0.47216 1.00314 0.32431 0.0
C238 C 0.47412 0.03252 0.33276 0.0
C239 C 0.46909 0.05299 0.31691 0.0
C240 C 0.46246 0.04428 0.29244 0.0
C241 C 0.46248 0.01602 0.28325 0.0
C242 C 0.46659 0.99486 0.29943 0.0
O243 O 0.41484 0.78971 0.40061 0.0
O244 O 0.46286 0.8329 0.40843 0.0
O245 O 0.45376 0.88484 0.43563 0.0
O246 O 0.50729 0.90423 0.44558 0.0
O247 O 0.40264 0.85438 0.38754 0.0
C248 C 0.44957 0.80391 0.4654 0.0
O249 O 0.48011 0.81245 0.46814 0.0
O250 O 0.4427 0.8202 0.45055 0.0
C251 C 0.33581 0.78624 0.44753 0.0
H252 H 0.39572 0.01847 0.38193 0.0
H253 H 0.35368 0.95602 0.31816 0.0
H254 H 0.35539 0.99854 0.34726 0.0
H255 H 0.44496 0.92629 0.41664 0.0
H256 H 0.53781 0.97074 0.45556 0.0
H257 H 0.51554 0.02903 0.40569 0.0
H258 H 0.37762 0.85746 0.32028 0.0
H259 H 0.47957 0.93399 0.30855 0.0
H260 H 0.44812 0.83517 0.28575 0.0
H261 H 0.54442 0.94696 0.34106 0.0
H262 H 0.52056 0.88743 0.35369 0.0
H263 H 0.4624 0.85592 0.36969 0.0
H264 H 0.48063 0.03995 0.35149 0.0
H265 H 0.46017 0.06125 0.28006 0.0
H266 H 0.46677 0.973 0.2926 0.0
Cd267 Cd 0.59005 0.19612 0.87553 0.0
C268 C 0.67017 0.2207 0.8946 0.0
C269 C 0.48364 0.09898 0.98296 0.0
O270 O 0.47986 0.11236 0.00292 0.0
Cd271 Cd 0.65765 0.16927 0.84087 0.0
C272 C 0.45488 0.07455 0.96871 0.0
C273 C 0.40887 0.02596 0.93718 0.0
C274 C 0.44333 0.03947 0.93423 0.0
N275 N 0.46387 0.06286 0.94979 0.0
C276 C 0.42078 0.06213 0.97289 0.0
C277 C 0.39768 0.03763 0.95678 0.0
Co278 Co 0.50889 0.07901 0.94565 0.0
C279 C 0.46119 0.03128 0.91584 0.0
O280 O 0.44558 1.01071 0.8978 0.0
C281 C 0.51608 0.04823 0.89836 0.0
C282 C 0.53242 0.0763 0.8841 0.0
C283 C 0.5554 0.07918 0.86667 0.0
C284 C 0.55795 0.05078 0.86067 0.0
C285 C 0.53757 0.01971 0.87238 0.0
C286 C 0.51748 0.01926 0.89211 0.0
C287 C 0.57941 0.11325 0.85818 0.0
C288 C 0.54499 0.12936 -0.01344 0.0
C289 C 0.5511 0.16182 -0.00846 0.0
C290 C 0.5671 0.11961 -0.00423 0.0
C291 C 0.59641 0.14248 0.00744 0.0
C292 C 0.60315 0.17498 0.01131 0.0
C293 C 0.57968 0.18428 0.00452 0.0
N294 N 0.51443 0.10547 0.97485 0.0
N295 N 0.49531 0.04874 0.91753 0.0
N296 N 0.51599 0.11719 0.92619 0.0
C297 C 0.49136 0.12632 0.92059 0.0
C298 C 0.49187 0.15346 0.93233 0.0
C299 C 0.468 0.10935 0.90233 0.0
C300 C 0.46898 0.16378 0.926 0.0
H301 H 0.51046 0.16667 0.94619 0.0
C302 C 0.44536 0.14631 0.90773 0.0
C303 C 0.44471 0.11906 0.89576 0.0
C304 C 0.47 0.193 0.93815 0.0
H305 H 0.46856 0.08907 0.8929 0.0
H306 H 0.42762 0.15409 0.9027 0.0
C307 C 0.42011 0.10116 0.87619 0.0
O308 O 0.44838 0.20324 0.93161 0.0
O309 O 0.49048 0.20806 0.95409 0.0
O310 O 0.41935 0.07724 0.86601 0.0
O311 O 0.39842 0.11122 0.86945 0.0
H312 H 0.44869 0.22228 0.93925 0.0
H313 H 0.38223 0.09995 0.8567 0.0
N314 N 0.55378 0.09499 0.94129 0.0
C315 C 0.56611 0.07696 0.951 0.0
C316 C 0.60083 0.09039 0.95077 0.0
C317 C 0.6208 0.12224 0.94011 0.0
C318 C 0.60603 0.14007 0.93024 0.0
C319 C 0.57123 0.12523 0.93123 0.0
N320 N 0.50949 0.04458 0.96507 0.0
C321 C 0.54041 0.04735 0.96419 0.0
O322 O 0.54795 0.02841 0.97742 0.0
C323 C 0.54972 0.13853 0.92288 0.0
O324 O 0.55118 0.20986 0.85241 0.0
O325 O 0.59132 0.25039 0.87201 0.0
C326 C 0.48336 0.02311 0.98129 0.0
C327 C 0.45618 0.99428 0.97201 0.0
C328 C 0.42869 0.97465 -0.01332 0.0
C329 C 0.42865 0.98378 0.01085 0.0
C330 C 0.45726 1.01037 0.02144 0.0
C331 C 0.48447 0.03088 0.00617 0.0
O332 O 0.64427 0.22383 0.89582 0.0
O333 O 0.67418 0.2035 0.87816 0.0
O334 O 0.57644 0.13771 0.86626 0.0
O335 O 0.60593 0.11812 0.84762 0.0
O336 O 0.56233 0.17039 0.91491 0.0
C337 C 0.63535 0.21317 0.82489 0.0
O338 O 0.65333 0.20577 0.81189 0.0
O339 O 0.62007 0.19411 0.84238 0.0
C340 C 0.56622 0.24073 0.85814 0.0
H341 H 0.39124 1.007 0.92497 0.0
H342 H 0.41225 0.07081 -0.01195 0.0
H343 H 0.37115 0.02755 0.95957 0.0
H344 H 0.52773 0.09659 0.88714 0.0
H345 H 0.5759 0.05302 0.84709 0.0
H346 H 0.50208 0.99651 0.90211 0.0
H347 H 0.53296 0.16902 -0.01359 0.0
H348 H 0.56121 0.09407 -0.00466 0.0
H349 H 0.62529 0.19193 0.02146 0.0
H350 H 0.61222 0.07739 0.95918 0.0
H351 H 0.64772 0.13336 0.9399 0.0
H352 H 0.62129 0.16457 0.92245 0.0
H353 H 0.45667 0.98692 0.95343 0.0
H354 H 0.40705 0.9681 0.02196 0.0
H355 H 0.50661 0.05212 0.01352 0.0
Cd356 Cd 0.83641 0.397 0.54284 0.0
C357 C 0.81144 0.44786 0.56201 0.0
C358 C 0.9358 0.39088 0.64921 0.0
O359 O 0.923 0.37413 0.66935 0.0
Cd360 Cd 0.86306 0.49465 0.50883 0.0
C361 C 0.96041 0.38681 0.63488 0.0
C362 C 1.00901 0.38972 0.60309 0.0
C363 C 0.99481 0.41005 0.60008 0.0
N364 N 0.97148 0.40707 0.61578 0.0
C365 C 0.97357 0.36579 0.63915 0.0
C366 C 0.99805 0.36733 0.6229 0.0
Co367 Co 0.95435 0.43507 0.6115 0.0
C368 C 1.00206 0.43545 0.58143 0.0
O369 O 0.02258 0.44056 0.56331 0.0
C370 C 0.9843 0.47303 0.56433 0.0
C371 C 0.95576 0.46234 0.55063 0.0
C372 C 0.95318 0.48311 0.53372 0.0
C373 C 0.98207 0.51379 0.52778 0.0
C374 C 1.01314 0.52367 0.53926 0.0
C375 C 1.01346 0.50327 0.55834 0.0
C376 C 0.91922 0.47391 0.52527 0.0
C377 C 0.90427 0.42085 0.65256 0.0
C378 C 0.87222 0.39412 0.65792 0.0
C379 C 0.91304 0.45291 0.66091 0.0
C380 C 0.8896 0.45897 0.67215 0.0
C381 C 0.85749 0.43274 0.6764 0.0
C382 C 0.84918 0.39996 0.67041 0.0
N383 N 0.92866 0.41467 0.64102 0.0
N384 N 0.98381 0.45131 0.58305 0.0
N385 N 0.91609 0.40296 0.59258 0.0
C386 C 0.9076 0.36933 0.58712 0.0
C387 C 0.88094 0.34261 0.59911 0.0
C388 C 0.92438 0.36309 0.56857 0.0
C389 C 0.87086 0.30947 0.59268 0.0
H390 H 0.86784 0.34788 0.61316 0.0
C391 C 0.88813 0.30347 0.57412 0.0
C392 C 0.91493 0.33015 0.56193 0.0
C393 C 0.84199 0.28119 0.60499 0.0
H394 H 0.94422 0.38399 0.55894 0.0
H395 H 0.88052 0.278 0.56901 0.0
C396 C 0.93255 0.32358 0.54202 0.0
O397 O 0.83177 0.24939 0.59822 0.0
O398 O 0.82717 0.28648 0.62124 0.0
O399 O 0.95613 0.34679 0.53167 0.0
O400 O 0.9226 0.29189 0.53514 0.0
H401 H 0.81293 0.23062 0.60593 0.0
H402 H 0.93368 0.28706 0.52216 0.0
N403 N 0.93747 0.46314 0.60698 0.0
C404 C 0.95541 0.49394 0.61605 0.0
C405 C 0.94137 0.5147 0.61574 0.0
C406 C 0.90903 0.50183 0.60568 0.0
C407 C 0.89136 0.46882 0.59647 0.0
C408 C 0.90685 0.44946 0.59746 0.0
N409 N 0.98886 0.47104 0.6303 0.0
C410 C 0.98552 0.49884 0.62904 0.0
O411 O 1.00401 0.52561 0.64218 0.0
C412 C 0.89405 0.41452 0.58951 0.0
O413 O 0.82216 0.34029 0.52519 0.0
O414 O 0.78096 0.34868 0.53192 0.0
C415 C 1.00908 0.46665 0.64785 0.0
C416 C 0.03864 0.46823 0.6403 0.0
C417 C 0.05751 0.46142 0.6566 0.0
C418 C 0.0465 0.45264 0.68054 0.0
C419 C 1.01769 0.45246 0.68877 0.0
C420 C 0.99898 0.45968 0.67228 0.0
O421 O 0.80736 0.41919 0.56706 0.0
O422 O 0.82907 0.4638 0.54384 0.0
O423 O 0.89396 0.44645 0.53264 0.0
O424 O 0.91517 0.49607 0.51477 0.0
O425 O 0.86222 0.39457 0.58177 0.0
C426 C 0.82305 0.428 0.49106 0.0
O427 O 0.83156 0.45399 0.47851 0.0
O428 O 0.84188 0.43022 0.5084 0.0
C429 C 0.79066 0.3289 0.52434 0.0
H430 H 0.02791 0.39112 0.59075 0.0
H431 H 0.96544 0.34895 0.65445 0.0
H432 H 1.00867 0.35137 0.62573 0.0
H433 H 0.935 0.43764 0.55362 0.0
H434 H 0.98027 0.52999 0.51447 0.0
H435 H 0.0363 0.51008 0.56807 0.0
H436 H 0.86572 0.36876 0.65335 0.0
H437 H 0.93825 0.47316 0.66008 0.0
H438 H 0.84008 0.43772 0.68618 0.0
H439 H 0.95426 0.53942 0.6237 0.0
H440 H 0.89739 0.51717 0.60545 0.0
H441 H 0.86652 0.45882 0.58919 0.0
H442 H 0.04721 0.47534 0.62183 0.0
H443 H 0.06202 0.44876 0.69336 0.0
H444 H 0.97661 0.45949 0.67835 0.0
Cd445 Cd 0.63611 0.44538 0.21011 0.0
C446 C 0.58384 0.36854 0.22701 0.0
C447 C 0.64302 0.5509 0.31646 0.0
O448 O 0.66022 0.5551 0.3364 0.0
Cd449 Cd 0.54131 0.37669 0.17227 0.0
C450 C 0.64715 0.57933 0.3019 0.0
C451 C 0.64441 0.62449 0.26967 0.0
C452 C 0.62368 0.58997 0.26705 0.0
N453 N 0.62656 0.56987 0.28296 0.0
C454 C 0.6686 0.61352 0.30576 0.0
C455 C 0.66712 0.6362 0.2893 0.0
Co456 Co 0.5982 0.52474 0.27909 0.0
C457 C 0.59791 0.57158 0.24864 0.0
O458 O 0.59283 0.58672 0.23038 0.0
C459 C 0.5599 0.51615 0.23188 0.0
C460 C 0.57076 0.49835 0.2182 0.0
C461 C 0.55064 0.47591 0.20054 0.0
C462 C 0.5204 0.47465 0.19414 0.0
C463 C 0.51031 0.49562 0.20573 0.0
C464 C 0.53003 0.51561 0.22538 0.0
C465 C 0.56015 0.45169 0.19142 0.0
C466 C 0.61249 0.48957 0.32042 0.0
C467 C 0.63886 0.48342 0.3251 0.0
C468 C 0.58067 0.46741 0.32971 0.0
C469 C 0.57429 0.43801 0.34115 0.0
C470 C 0.60005 0.43118 0.34465 0.0
C471 C 0.63279 0.45463 0.33774 0.0
N472 N 0.61892 0.51994 0.30857 0.0
N473 N 0.58164 0.53751 0.25061 0.0
N474 N 0.62991 0.51791 0.26013 0.0
C475 C 0.66347 0.54276 0.25427 0.0
C476 C 0.69039 0.54297 0.26604 0.0
C477 C 0.66941 0.56545 0.23562 0.0
C478 C 0.72344 0.56589 0.25934 0.0
H479 H 0.68537 0.52485 0.28017 0.0
C480 C 0.72913 0.58889 0.24073 0.0
C481 C 0.70224 0.58885 0.22875 0.0
C482 C 0.75193 0.56548 0.27143 0.0
H483 H 0.64836 0.56424 0.22613 0.0
H484 H 0.75453 0.60668 0.23543 0.0
C485 C 0.70846 0.61282 0.20885 0.0
O486 O 0.78364 0.58701 0.26447 0.0
O487 O 0.74691 0.54557 0.28769 0.0
O488 O 0.68506 0.61302 0.19867 0.0
O489 O 0.74006 0.63459 0.2018 0.0
H490 H 0.80255 0.58707 0.27204 0.0
H491 H 0.74466 0.65039 0.18885 0.0
N492 N 0.56984 0.47971 0.27503 0.0
C493 C 0.5394 0.46718 0.2847 0.0
C494 C 0.51875 0.43239 0.28513 0.0
C495 C 0.53137 0.41257 0.27521 0.0
C496 C 0.56407 0.42756 0.26543 0.0
C497 C 0.58333 0.46243 0.26568 0.0
N498 N 0.56268 0.524 0.29805 0.0
C499 C 0.53487 0.49286 0.29743 0.0
O500 O 0.50836 0.48516 0.31074 0.0
C501 C 0.61816 0.48423 0.25742 0.0
O502 O 0.69341 0.48835 0.19444 0.0
O503 O 0.68374 0.43784 0.19848 0.0
C504 C 0.56723 0.54979 0.31459 0.0
C505 C 0.56613 0.57748 0.30571 0.0
C506 C 0.57322 0.60427 0.32099 0.0
C507 C 0.5807 0.60298 0.34534 0.0
C508 C 0.57894 0.57419 0.35512 0.0
C509 C 0.57314 0.54777 0.33945 0.0
O510 O 0.61226 0.39324 0.23251 0.0
O511 O 0.56818 0.36991 0.20853 0.0
O512 O 0.5871 0.45323 0.19919 0.0
O513 O 0.53867 0.42641 0.17963 0.0
O514 O 0.63787 0.47205 0.24963 0.0
C515 C 0.6091 0.40532 0.15654 0.0
O516 O 0.58408 0.38831 0.14299 0.0
O517 O 0.605 0.41976 0.1746 0.0
C518 C 0.70409 0.46776 0.19224 0.0
H519 H 0.64306 0.64179 0.25717 0.0
H520 H 0.68574 0.62246 0.3209 0.0
H521 H 0.6834 0.66279 0.29182 0.0
H522 H 0.59526 0.50195 0.2215 0.0
H523 H 0.50473 0.45729 0.18026 0.0
H524 H 0.52305 0.53162 0.23507 0.0
H525 H 0.66416 0.50157 0.31986 0.0
H526 H 0.56093 0.47319 0.32934 0.0
H527 H 0.59484 0.40891 0.3546 0.0
H528 H 0.49434 0.42087 0.29358 0.0
H529 H 0.51612 0.38561 0.27559 0.0
H530 H 0.57394 0.41242 0.25834 0.0
H531 H 0.55919 0.57787 0.28703 0.0
H532 H 0.58485 0.62339 0.3573 0.0
H533 H 0.57219 0.52552 0.34659 0.0
C534 C 0.22905 0.70625 0.05311 0.0
C535 C 0.24517 0.69026 0.06328 0.0
C536 C 0.24673 0.73419 0.03834 0.0
C537 C 0.33104 0.80349 0.03062 0.0
H538 H 0.29856 0.82017 0.97039 0.0
C539 C 0.41426 0.91734 0.97609 0.0
C540 C 0.40361 0.94071 0.97927 0.0
C541 C 0.39179 0.88347 0.97933 0.0
C542 C 0.30775 0.81559 -0.01285 0.0
H543 H 0.2918 0.68996 0.0658 0.0
H544 H 0.3231 0.73946 0.04039 0.0
H545 H 0.26558 0.76623 -0.0088 0.0
H546 H 0.36096 0.94741 0.985 0.0
H547 H 0.32112 0.88757 -0.01007 0.0
H548 H 0.37294 0.85274 0.02678 0.0
C549 C 0.29677 0.73023 0.04364 0.0
C550 C 0.289 0.785 -0.00094 0.0
C551 C 0.27892 0.70191 0.05801 0.0
C552 C 0.36946 0.9296 0.98236 0.0
C553 C 0.34682 0.89554 0.98522 0.0
C554 C 0.34974 0.8338 0.01871 0.0
C555 C 0.28093 0.74688 0.03396 0.0
C556 C 0.30063 0.77871 0.02084 0.0
C557 C 0.3584 0.87267 0.98529 0.0
C558 C 0.33835 0.83994 -0.00314 0.0
H559 H 0.20289 0.69736 0.05685 0.0
H560 H 0.234 0.74666 0.03117 0.0
H561 H 0.34012 0.79966 0.04771 0.0
H562 H 0.44058 0.92546 0.97403 0.0
H563 H 0.40111 0.86609 0.97942 0.0
C564 C 0.33493 0.5844 0.72202 0.0
C565 C 0.34512 0.56147 0.72831 0.0
C566 C 0.30659 0.57423 0.70771 0.0
C567 C 0.24787 0.50929 0.66583 0.0
H568 H 0.18372 0.53049 0.69412 0.0
C569 C 0.10245 0.44665 0.65478 0.0
C570 C 0.09172 0.46972 0.65047 0.0
C571 C 0.13656 0.45768 0.6567 0.0
C572 C 0.20166 0.52485 0.68587 0.0
H573 H 0.33552 0.51086 0.72356 0.0
H574 H 0.28614 0.49315 0.69811 0.0
H575 H 0.23807 0.55131 0.71324 0.0
H576 H 0.1074 0.5214 0.64257 0.0
H577 H 0.16695 0.54076 0.6465 0.0
H578 H 0.21035 0.48164 0.63892 0.0
C579 C 0.2998 0.5188 0.70439 0.0
C580 C 0.2327 0.5368 0.69672 0.0
C581 C 0.32778 0.52881 0.71906 0.0
C582 C 0.11527 0.50319 0.64563 0.0
C583 C 0.14921 0.51426 0.64794 0.0
C584 C 0.21653 0.49711 0.65499 0.0
C585 C 0.28844 0.54117 0.69916 0.0
C586 C 0.25616 0.52928 0.68677 0.0
C587 C 0.15988 0.49186 0.6547 0.0
C588 C 0.19344 0.50508 0.66493 0.0
H589 H 0.34793 0.60968 0.72907 0.0
H590 H 0.29838 0.59197 0.70379 0.0
H591 H 0.2656 0.50314 0.65789 0.0
H592 H 0.08447 0.42074 0.6586 0.0
H593 H 0.14444 0.44014 0.66208 0.0
C594 C 0.44595 0.75076 0.39007 0.0
C595 C 0.46335 0.78574 0.39139 0.0
C596 C 0.46131 0.73399 0.38023 0.0
C597 C 0.52634 0.74561 0.33703 0.0
H598 H 0.51355 0.6631 0.36499 0.0
C599 C 0.58925 0.66391 0.31733 0.0
C600 C 0.56537 0.63011 0.31388 0.0
C601 C 0.5789 0.68723 0.32126 0.0
C602 C 0.51706 0.68605 0.35699 0.0
H603 H 0.51047 0.83075 0.38405 0.0
H604 H 0.53729 0.80132 0.3666 0.0
H605 H 0.49288 0.69539 0.38653 0.0
H606 H 0.51278 0.5945 0.30902 0.0
H607 H 0.49469 0.63519 0.31622 0.0
H608 H 0.55102 0.73606 0.30758 0.0
C609 C 0.51183 0.78694 0.37314 0.0
C610 C 0.50531 0.70446 0.36926 0.0
C611 C 0.4966 0.80369 0.38329 0.0
C612 C 0.53157 0.62057 0.3113 0.0
C613 C 0.52122 0.6437 0.31562 0.0
C614 C 0.53839 0.72721 0.32481 0.0
C615 C 0.49417 0.75196 0.37127 0.0
C616 C 0.5093 0.73411 0.35922 0.0
C617 C 0.54468 0.67663 0.32201 0.0
C618 C 0.53318 0.69705 0.33456 0.0
H619 H 0.42035 0.73637 0.39633 0.0
H620 H 0.44705 0.70699 0.37888 0.0
H621 H 0.5295 0.76828 0.32882 0.0
H622 H 0.61541 0.67151 0.31957 0.0
H623 H 0.59726 0.71257 0.32627 0.0
C624 C 0.70948 0.27268 0.9165 0.0
C625 C 0.69735 0.23869 0.91194 0.0
C626 C 0.73807 0.29075 0.93059 0.0
C627 C 0.79394 0.28485 0.97504 0.0
H628 H 0.86201 0.36475 0.94303 0.0
C629 C 0.94063 0.36577 0.9848 0.0
C630 C 0.9513 0.39971 -0.01156 0.0
C631 C 0.90654 0.34258 0.98325 0.0
C632 C 0.84301 0.34268 0.95224 0.0
H633 H 0.70369 0.19619 0.91943 0.0
H634 H 0.75347 0.22775 0.94466 0.0
H635 H 0.80753 0.33152 0.92394 0.0
H636 H 0.93556 0.4359 -0.00439 0.0
H637 H 0.87597 0.39545 -0.0077 0.0
H638 H 0.83041 0.29601 0.00307 0.0
C639 C 0.74115 0.24045 0.93717 0.0
C640 C 0.81193 0.32379 0.94142 0.0
C641 C 0.71295 0.22253 0.92267 0.0
C642 C 0.92774 0.40973 -0.00692 0.0
C643 C 0.89377 0.38671 -0.00884 0.0
C644 C 0.82531 0.30384 0.98589 0.0
C645 C 0.75447 0.2749 0.94066 0.0
C646 C 0.78702 0.29487 0.95277 0.0
C647 C 0.88315 0.35342 0.98501 0.0
C648 C 0.84979 0.33297 0.97456 0.0
H649 H 0.69783 0.28556 0.90823 0.0
H650 H 0.74787 0.31731 0.93313 0.0
H651 H 0.77507 0.26253 0.98404 0.0
H652 H 0.95863 0.35776 0.98114 0.0
H653 H 0.89867 0.317 0.97827 0.0
C654 C 0.787 0.48475 0.56637 0.0
C655 C 0.7961 0.46291 0.57698 0.0
C656 C 0.77305 0.49978 0.58039 0.0
C657 C 0.72713 0.48838 0.63705 0.0
H658 H 0.73941 0.57509 0.61946 0.0
C659 C 0.6625 0.57352 0.65887 0.0
C660 C 0.6322 0.55307 0.64692 0.0
C661 C 0.68811 0.56567 0.65783 0.0
C662 C 0.73652 0.55132 0.62509 0.0
H663 H 0.79877 0.44019 0.61055 0.0
H664 H 0.77505 0.46721 0.63538 0.0
H665 H 0.77592 0.55639 0.60189 0.0
H666 H 0.6038 0.50828 0.6255 0.0
H667 H 0.64808 0.49419 0.62411 0.0
H668 H 0.68641 0.48271 0.65911 0.0
C669 C 0.77798 0.47213 0.61611 0.0
C670 C 0.75696 0.54033 0.61476 0.0
C671 C 0.79146 0.45662 0.60194 0.0
C672 C 0.62696 0.52401 0.63507 0.0
C673 C 0.65215 0.51599 0.63431 0.0
C674 C 0.70669 0.49936 0.6473 0.0
C675 C 0.76846 0.49376 0.60545 0.0
C676 C 0.75153 0.50814 0.61986 0.0
C677 C 0.68308 0.53705 0.64523 0.0
C678 C 0.71047 0.53031 0.64067 0.0
H679 H 0.79011 0.48974 0.54709 0.0
H680 H 0.76513 0.5155 0.57144 0.0
H681 H 0.72208 0.4634 0.64128 0.0
H682 H 0.66682 0.59619 0.6679 0.0
H683 H 0.71201 0.58225 0.66618 0.0
C684 C 0.57935 0.33843 0.26564 0.0
C685 C 0.56918 0.33787 0.24159 0.0
C686 C 0.56567 0.30895 0.27911 0.0
C687 C 0.53313 0.22108 0.27024 0.0
H688 H 0.49681 0.20871 0.33535 0.0
C689 C 0.51235 0.11075 0.3252 0.0
C690 C 0.47824 0.08703 0.32388 0.0
C691 C 0.52291 0.14443 0.32194 0.0
C692 C 0.50709 0.21215 0.31725 0.0
H693 H 0.5364 0.30645 0.21291 0.0
H694 H 0.51318 0.25493 0.23628 0.0
H695 H 0.51525 0.26203 0.3141 0.0
H696 H 0.42816 0.07926 0.32093 0.0
H697 H 0.44674 0.13884 0.316 0.0
H698 H 0.52547 0.17163 0.27334 0.0
C699 C 0.53146 0.27814 0.24471 0.0
C700 C 0.51756 0.24237 0.30517 0.0
C701 C 0.54473 0.30758 0.2314 0.0
C702 C 0.45455 0.09747 0.32229 0.0
C703 C 0.46514 0.13133 0.31946 0.0
C704 C 0.52325 0.1913 0.2824 0.0
C705 C 0.54209 0.27856 0.26855 0.0
C706 C 0.53054 0.2469 0.28155 0.0
C707 C 0.49938 0.15459 0.31779 0.0
C708 C 0.5103 0.18673 0.30595 0.0
H709 H 0.59792 0.36157 0.27399 0.0
H710 H 0.57432 0.3097 0.29745 0.0
H711 H 0.54327 0.22413 0.2521 0.0
H712 H 0.53091 0.10295 0.32593 0.0
H713 H 0.54943 0.1621 0.32039 0.0
C714 C 0.4726 0.4945 0.1718 0.0
C715 C 0.48024 0.49734 0.19673 0.0
C716 C 0.44589 0.49791 0.163 0.0
C717 C 0.36857 0.5006 0.18198 0.0
H718 H 0.38175 0.54545 0.12035 0.0
C719 C 0.26415 0.52025 0.13732 0.0
C720 C 0.27437 0.55027 0.12462 0.0
C721 C 0.28773 0.51166 0.14579 0.0
C722 C 0.37753 0.53311 0.1377 0.0
H723 H 0.464 0.5048 0.23191 0.0
H724 H 0.41815 0.51153 0.21661 0.0
H725 H 0.4247 0.53483 0.13592 0.0
H726 H 0.31794 0.59467 0.11103 0.0
H727 H 0.3586 0.58008 0.12577 0.0
H728 H 0.32175 0.4999 0.18401 0.0
C729 C 0.43276 0.5064 0.20375 0.0
C730 C 0.4022 0.52649 0.14656 0.0
C731 C 0.45953 0.50295 0.21258 0.0
C732 C 0.30889 0.57128 0.12062 0.0
C733 C 0.33237 0.5627 0.12899 0.0
C734 C 0.34385 0.50727 0.1731 0.0
C735 C 0.4257 0.50445 0.17873 0.0
C736 C 0.3984 0.51034 0.16896 0.0
C737 C 0.32235 0.53274 0.14177 0.0
C738 C 0.34801 0.524 0.1509 0.0
H739 H 0.48784 0.49049 0.1588 0.0
H740 H 0.4412 0.49549 0.1437 0.0
H741 H 0.36416 0.48768 0.19909 0.0
H742 H 0.23787 0.50335 0.14079 0.0
H743 H 0.27869 0.48821 0.15526 0.0
C744 C 0.51306 0.74804 0.80598 0.0
C745 C 0.48518 0.72999 0.79079 0.0
C746 C 0.5217 0.78018 0.81455 0.0
C747 C 0.50592 0.85173 0.80318 0.0
H748 H 0.54147 0.87912 0.86792 0.0
C749 C 0.54197 0.98407 0.83888 0.0
C750 C 0.53667 0.98814 0.86355 0.0
C751 C 0.53916 0.95415 0.83014 0.0
C752 C 0.53128 0.87196 0.84985 0.0
H753 H 0.44471 0.73223 0.77274 0.0
H754 H 0.45935 0.78747 0.78765 0.0
H755 H 0.52923 0.82462 0.85267 0.0
H756 H 0.52555 0.9631 0.89837 0.0
H757 H 0.51913 0.91082 0.88308 0.0
H758 H 0.50657 0.89824 0.80059 0.0
C759 C 0.47504 0.77725 0.79281 0.0
C760 C 0.52467 0.84062 0.8409 0.0
C761 C 0.4664 0.7452 0.78433 0.0
C762 C 0.52919 0.96118 0.8792 0.0
C763 C 0.526 0.93104 0.87039 0.0
C764 C 0.51233 0.88291 0.81215 0.0
C765 C 0.50281 0.79542 0.80814 0.0
C766 C 0.51152 0.82972 0.81746 0.0
C767 C 0.53045 0.92672 0.8456 0.0
C768 C 0.52491 0.89364 0.83575 0.0
H769 H 0.52816 0.73726 0.8114 0.0
H770 H 0.54347 0.7932 0.82604 0.0
H771 H 0.49647 0.84493 0.7849 0.0
H772 H 0.54744 1.00369 0.82593 0.0
H773 H 0.54368 0.95261 0.81107 0.0
C774 C 0.07104 0.57399 0.54733 0.0
C775 C 0.04497 0.55442 0.53102 0.0
C776 C 0.10147 0.60115 0.53924 0.0
C777 C 0.14283 0.65755 0.4853 0.0
H778 H 0.22447 0.67384 0.51695 0.0
C779 C 0.27489 0.74224 0.44275 0.0
C780 C 0.30182 0.763 0.45803 0.0
C781 C 0.2434 0.719 0.45226 0.0
C782 C 0.20198 0.67003 0.50801 0.0
H783 H 0.03128 0.54937 0.49303 0.0
H784 H 0.08374 0.59616 0.47907 0.0
H785 H 0.17064 0.63015 0.53209 0.0
H786 H 0.31626 0.77507 0.4956 0.0
H787 H 0.26151 0.73434 0.51225 0.0
H788 H 0.17441 0.69704 0.46088 0.0
C789 C 0.08069 0.59087 0.49829 0.0
C790 C 0.17082 0.64482 0.51678 0.0
C791 C 0.05026 0.56375 0.50638 0.0
C792 C 0.29616 0.7598 0.48321 0.0
C793 C 0.26472 0.73614 0.49277 0.0
C794 C 0.17402 0.6826 0.47643 0.0
C795 C 0.10714 0.60989 0.51449 0.0
C796 C 0.14057 0.63789 0.50554 0.0
C797 C 0.23776 0.71525 0.47746 0.0
C798 C 0.20421 0.68921 0.48754 0.0
H799 H 0.06801 0.56843 0.56651 0.0
H800 H 0.12057 0.6154 0.55255 0.0
H801 H 0.12043 0.65382 0.47627 0.0
H802 H 0.27817 0.74378 0.42327 0.0
H803 H 0.22366 0.70332 0.43977 0.0
C804 C 0.49651 0.45958 0.79922 0.0
C805 C 0.50554 0.47157 0.77529 0.0
C806 C 0.49871 0.43202 0.80759 0.0
C807 C 0.51537 0.36281 0.78727 0.0
H808 H 0.53379 0.36178 0.85555 0.0
C809 C 0.53229 0.25603 0.83009 0.0
C810 C 0.55578 0.26473 0.84891 0.0
C811 C 0.5236 0.27926 0.82111 0.0
C812 C 0.52907 0.36168 0.83635 0.0
H813 H 0.52264 0.46138 0.74129 0.0
H814 H 0.52883 0.41563 0.75625 0.0
H815 H 0.52434 0.40515 0.83985 0.0
H816 H 0.58828 0.30503 0.87301 0.0
H817 H 0.57359 0.3452 0.85746 0.0
H818 H 0.52201 0.32019 0.78374 0.0
C819 C 0.51916 0.427 0.76857 0.0
C820 C 0.52291 0.38651 0.82727 0.0
C821 C 0.5162 0.45413 0.76 0.0
C822 C 0.57007 0.29725 0.85855 0.0
C823 C 0.56134 0.32036 0.84968 0.0
C824 C 0.52196 0.33817 0.79633 0.0
C825 C 0.51092 0.41561 0.79268 0.0
C826 C 0.51614 0.38783 0.80248 0.0
C827 C 0.53799 0.31193 0.83073 0.0
C828 C 0.52928 0.33731 0.82103 0.0
H829 H 0.48851 0.47191 0.81204 0.0
H830 H 0.49099 0.42389 0.82601 0.0
H831 H 0.50966 0.36205 0.76821 0.0
H832 H 0.52081 0.23132 0.82211 0.0
H833 H 0.50529 0.27138 0.80673 0.0
C834 C 0.77601 0.27192 0.50668 0.0
C835 C 0.76599 0.29444 0.51509 0.0
C836 C 0.75231 0.23968 0.49824 0.0
C837 C 0.65941 0.17742 0.49947 0.0
H838 H 0.67934 0.13477 0.4466 0.0
C839 C 0.55452 0.06388 0.44805 0.0
C840 C 0.55882 0.03651 0.44241 0.0
C841 C 0.58093 0.09381 0.45731 0.0
C842 C 0.6734 0.14614 0.46155 0.0
H843 H 0.72264 0.30015 0.52073 0.0
H844 H 0.68197 0.24504 0.50594 0.0
H845 H 0.72271 0.18936 0.46166 0.0
H846 H 0.59517 0.01989 0.44192 0.0
H847 H 0.64171 0.07265 0.4576 0.0
H848 H 0.61 0.13468 0.49901 0.0
C849 C 0.70799 0.25164 0.50623 0.0
C850 C 0.69841 0.1776 0.47029 0.0
C851 C 0.73156 0.28368 0.51462 0.0
C852 C 0.59077 0.04029 0.44612 0.0
C853 C 0.61754 0.07067 0.45499 0.0
C854 C 0.63446 0.14629 0.49061 0.0
C855 C 0.71772 0.2288 0.49797 0.0
C856 C 0.69176 0.19414 0.48923 0.0
C857 C 0.61293 0.09785 0.46099 0.0
C858 C 0.64078 0.13024 0.47128 0.0
H859 H 0.80222 0.27913 0.5067 0.0
H860 H 0.76116 0.22311 0.49229 0.0
H861 H 0.65315 0.18834 0.51453 0.0
H862 H 0.53035 0.06198 0.44566 0.0
H863 H 0.57627 0.11407 0.46142 0.0
C864 C 0.99211 0.55397 0.1158 0.0
C865 C 0.99408 0.52615 0.10734 0.0
C866 C 0.96155 0.55049 0.12408 0.0
C867 C 0.86831 0.48902 0.12402 0.0
H868 H 0.86606 0.54435 0.17603 0.0
C869 C 0.74617 0.45247 0.17668 0.0
C870 C 0.73818 0.47739 0.18247 0.0
C871 C 0.7776 0.46071 0.16715 0.0
C872 C 0.86619 0.52882 0.16135 0.0
H873 H 0.96497 0.47263 0.10178 0.0
H874 H 0.91271 0.4664 0.11648 0.0
H875 H 0.91986 0.55443 0.16018 0.0
H876 H 0.75785 0.5309 0.18294 0.0
H877 H 0.813 0.54535 0.16651 0.0
H878 H 0.81477 0.46292 0.12561 0.0
C879 C 0.93425 0.4913 0.11603 0.0
C880 C 0.89721 0.53467 0.15212 0.0
C881 C 0.96455 0.49484 0.10757 0.0
C882 C 0.76296 0.51098 0.17868 0.0
C883 C 0.79471 0.51929 0.16935 0.0
C884 C 0.83748 0.48296 0.13342 0.0
C885 C 0.93195 0.51899 0.12438 0.0
C886 C 0.8989 0.51451 0.13349 0.0
C887 C 0.80243 0.49421 0.16321 0.0
C888 C 0.83579 0.5024 0.15245 0.0
H889 H 1.01414 0.57859 0.1158 0.0
H890 H 0.96117 0.57266 0.12998 0.0
H891 H 0.86797 0.47351 0.10918 0.0
H892 H 0.72793 0.42633 0.17931 0.0
H893 H 0.78254 0.44064 0.16305 0.0
C894 C 1.00909 0.47359 0.72843 0.0
C895 C 1.01007 0.44817 0.71511 0.0
C896 C 1.00958 0.47334 0.75381 0.0
C897 C 0.03491 0.43741 0.80446 0.0
H898 H 0.9944 0.47683 0.84429 0.0
C899 C 0.02799 0.42916 0.90951 0.0
C900 C 0.03181 0.45711 0.92251 0.0
C901 C 0.02752 0.42884 0.88416 0.0
C902 C 1.00623 0.46611 0.8334 0.0
H903 H 1.00988 0.40135 0.71778 0.0
H904 H 1.00912 0.39995 0.76198 0.0
H905 H 0.98499 0.47213 0.8007 0.0
H906 H 0.04002 0.50734 0.91899 0.0
H907 H 0.03957 0.50697 0.87466 0.0
H908 H 0.05557 0.43085 0.83736 0.0
C909 C 1.00929 0.42083 0.753 0.0
C910 C 1.0008 0.46336 0.80833 0.0
C911 C 1.00926 0.42135 0.72765 0.0
C912 C 0.03721 0.48551 0.90953 0.0
C913 C 0.03647 0.48511 0.88414 0.0
C914 C 0.04007 0.43989 0.82956 0.0
C915 C 1.01067 0.44743 0.76649 0.0
C916 C 1.01517 0.44909 0.79343 0.0
C917 C 0.03066 0.45641 0.87116 0.0
C918 C 0.02595 0.45444 0.84434 0.0
H919 H 1.01017 0.49479 0.71922 0.0
H920 H 1.01089 0.49443 0.7634 0.0
H921 H 0.04705 0.42691 0.79369 0.0
H922 H 0.02394 0.40694 0.91901 0.0
H923 H 0.02299 0.40633 0.8748 0.0
C924 C 0.59957 0.56249 0.39442 0.0
C925 C 0.57844 0.57108 0.38192 0.0
C926 C 0.60077 0.56366 0.41991 0.0
C927 C 0.58266 0.60397 0.47127 0.0
H928 H 0.57631 0.53162 0.51051 0.0
C929 C 0.59062 0.60756 0.57656 0.0
C930 C 0.56868 0.57785 0.58869 0.0
C931 C 0.59222 0.60837 0.55123 0.0
C932 C 0.57793 0.55196 0.49975 0.0
H933 H 0.54047 0.58526 0.38621 0.0
H934 H 0.54261 0.58731 0.43006 0.0
H935 H 0.58065 0.52939 0.46641 0.0
H936 H 0.5305 0.52611 0.58413 0.0
H937 H 0.53295 0.52747 0.53981 0.0
H938 H 0.57936 0.62629 0.50446 0.0
C939 C 0.55891 0.58061 0.42046 0.0
C940 C 0.58088 0.55086 0.47455 0.0
C941 C 0.55759 0.57926 0.39531 0.0
C942 C 0.54712 0.54946 0.57512 0.0
C943 C 0.54901 0.55011 0.54982 0.0
C944 C 0.57997 0.60518 0.49643 0.0
C945 C 0.58092 0.57352 0.43312 0.0
C946 C 0.58243 0.57647 0.45999 0.0
C947 C 0.57232 0.57927 0.53762 0.0
C948 C 0.57681 0.57883 0.51093 0.0
H949 H 0.61586 0.55606 0.38453 0.0
H950 H 0.61784 0.55783 0.42923 0.0
H951 H 0.5843 0.62434 0.46054 0.0
H952 H 0.60791 0.62956 0.58674 0.0
H953 H 0.61042 0.63121 0.54239 0.0
C954 C 0.48778 0.0398 0.24324 0.0
C955 C 0.46339 1.01262 0.25653 0.0
C956 C 0.48718 0.03975 0.21801 0.0
C957 C 0.43079 0.99896 0.16541 0.0
H958 H 0.514 0.04538 0.1294 0.0
C959 C 0.44318 0.9844 0.06283 0.0
C960 C 0.45898 0.01355 0.04851 0.0
C961 C 0.44301 0.98617 0.08801 0.0
C962 C 0.49059 0.03279 0.13926 0.0
H963 H 0.41972 0.96342 0.2538 0.0
H964 H 0.41901 0.96266 0.20923 0.0
H965 H 0.51534 0.04135 0.17334 0.0
H966 H 0.48842 0.06765 0.05011 0.0
H967 H 0.48963 0.07056 0.09469 0.0
H968 H 0.40632 0.98904 0.13086 0.0
C969 C 0.43833 0.98448 0.21846 0.0
C970 C 0.49124 0.03039 0.1645 0.0
C971 C 0.43892 0.98461 0.24395 0.0
C972 C 0.47593 0.04468 0.06041 0.0
C973 C 0.47645 0.04638 0.0859 0.0
C974 C 0.4302 1.00087 0.14009 0.0
C975 C 0.4623 1.01231 0.20513 0.0
C976 C 0.46137 0.01353 0.17802 0.0
C977 C 0.45957 0.01705 0.09987 0.0
C978 C 0.46011 0.01781 0.12678 0.0
H979 H 0.50698 0.06171 0.2525 0.0
H980 H 0.50574 0.06189 0.20868 0.0
H981 H 0.40725 0.98633 0.17506 0.0
H982 H 0.43112 0.95979 0.05466 0.0
H983 H 0.43055 0.96316 0.0983 0.0
C984 C 0.22423 0.55754 0.94155 0.0
C985 C 0.22679 0.58023 0.95955 0.0
C986 C 0.2492 0.56738 0.92404 0.0
C987 C 0.33321 0.62872 0.90532 0.0
H988 H 0.29239 0.62692 0.84356 0.0
C989 C 0.41308 0.65144 0.82941 0.0
C990 C 0.39628 0.62322 0.81465 0.0
C991 C 0.39478 0.66385 0.84126 0.0
C992 C 0.30437 0.62766 0.86055 0.0
H993 H 0.25894 0.6286 0.97576 0.0
H994 H 0.30344 0.64528 0.9457 0.0
H995 H 0.25742 0.60297 0.87923 0.0
H996 H 0.35045 0.59163 0.79527 0.0
H997 H 0.3182 0.61089 0.81699 0.0
H998 H 0.37973 0.65098 0.88711 0.0
C999 C 0.28186 0.62038 0.94475 0.0
C1000 C 0.28423 0.6137 0.88094 0.0
C1001 C 0.25662 0.6108 0.96199 0.0
C1002 C 0.36347 0.6128 0.80739 0.0
C1003 C 0.34489 0.62405 0.82003 0.0
C1004 C 0.35331 0.64191 0.8849 0.0
C1005 C 0.27714 0.59966 0.92479 0.0
C1006 C 0.29853 0.61361 0.90332 0.0
C1007 C 0.35957 0.64612 0.8397 0.0
C1008 C 0.33919 0.64083 0.86198 0.0
H1009 H 0.20133 0.53385 0.93933 0.0
H1010 H 0.24549 0.55083 0.90895 0.0
H1011 H 0.3447 0.62925 0.92253 0.0
H1012 H 0.43888 0.66067 0.8345 0.0
H1013 H 0.4074 0.68324 0.85473 0.0
C1014 C 0.42561 0.74436 0.47424 0.0
C1015 C 0.4235 0.77339 0.47636 0.0
C1016 C 0.41023 0.71929 0.49141 0.0
C1017 C 0.40965 0.73254 0.55463 0.0
H1018 H 0.40578 0.64685 0.55616 0.0
C1019 C 0.43362 0.65981 0.63286 0.0
C1020 C 0.45931 0.65351 0.62634 0.0
C1021 C 0.42367 0.67645 0.6168 0.0
C1022 C 0.40661 0.67071 0.55594 0.0
H1023 H 0.39846 0.79669 0.494 0.0
H1024 H 0.37175 0.75286 0.52459 0.0
H1025 H 0.38248 0.66103 0.52148 0.0
H1026 H 0.49682 0.66176 0.59939 0.0
H1027 H 0.4788 0.69023 0.57098 0.0
H1028 H 0.43468 0.74229 0.5889 0.0
C1029 C 0.38567 0.74955 0.51008 0.0
C1030 C 0.39304 0.67868 0.5363 0.0
C1031 C 0.40094 0.77462 0.49269 0.0
C1032 C 0.47718 0.66682 0.60479 0.0
C1033 C 0.46678 0.68279 0.58854 0.0
C1034 C 0.42271 0.72428 0.57444 0.0
C1035 C 0.39358 0.72384 0.51115 0.0
C1036 C 0.39589 0.71036 0.53486 0.0
C1037 C 0.43892 0.6861 0.59403 0.0
C1038 C 0.42238 0.69391 0.57466 0.0
H1039 H 0.44214 0.74274 0.46101 0.0
H1040 H 0.4161 0.69934 0.49116 0.0
H1041 H 0.41297 0.75745 0.554 0.0
H1042 H 0.41946 0.64938 0.64935 0.0
H1043 H 0.40216 0.67898 0.62119 0.0
C1044 C 0.2648 0.62229 0.16999 0.0
C1045 C 0.2539 0.63394 0.15069 0.0
C1046 C 0.29569 0.64352 0.18066 0.0
C1047 C 0.30879 0.71702 0.19814 0.0
H1048 H 0.38486 0.73211 0.23682 0.0
C1049 C 0.36256 0.81492 0.27409 0.0
C1050 C 0.38239 0.81155 0.29179 0.0
C1051 C 0.3476 0.79079 0.25606 0.0
C1052 C 0.36314 0.72766 0.22646 0.0
H1053 H 0.26883 0.67278 0.12373 0.0
H1054 H 0.32171 0.71042 0.14313 0.0
H1055 H 0.37005 0.69644 0.20086 0.0
H1056 H 0.39787 0.7784 0.30713 0.0
H1057 H 0.36944 0.73473 0.2767 0.0
H1058 H 0.29964 0.74538 0.22436 0.0
C1059 C 0.30724 0.68508 0.14987 0.0
C1060 C 0.35533 0.70795 0.2056 0.0
C1061 C 0.2768 0.66348 0.13881 0.0
C1062 C 0.38288 0.78152 0.29344 0.0
C1063 C 0.36723 0.75695 0.27571 0.0
C1064 C 0.31596 0.73585 0.21923 0.0
C1065 C 0.31455 0.67662 0.17252 0.0
C1066 C 0.32806 0.70251 0.19138 0.0
C1067 C 0.35165 0.76254 0.25582 0.0
C1068 C 0.34309 0.74127 0.23381 0.0
H1069 H 0.24754 0.59934 0.17918 0.0
H1070 H 0.30132 0.63634 0.19792 0.0
H1071 H 0.2869 0.71219 0.18777 0.0
H1072 H 0.362 0.83801 0.27242 0.0
H1073 H 0.33567 0.79603 0.24121 0.0
C1074 C 0.6607 0.41277 0.13804 0.0
C1075 C 0.63602 0.39755 0.15579 0.0
C1076 C 0.67084 0.39344 0.12501 0.0
C1077 C 0.63714 0.30219 0.11058 0.0
H1078 H 0.62068 0.33183 0.04899 0.0
C1079 C 0.56147 0.21018 0.03553 0.0
C1080 C 0.58226 0.2143 0.01571 0.0
C1081 C 0.57109 0.23582 0.05245 0.0
C1082 C 0.62525 0.32334 0.06608 0.0
H1083 H 0.60937 0.35394 0.17849 0.0
H1084 H 0.62456 0.31966 0.1549 0.0
H1085 H 0.64488 0.37128 0.08201 0.0
H1086 H 0.62693 0.24896 -0.00377 0.0
H1087 H 0.64292 0.29469 0.02523 0.0
H1088 H 0.61515 0.25348 0.09445 0.0
C1089 C 0.63663 0.346 0.15057 0.0
C1090 C 0.63987 0.34605 0.08498 0.0
C1091 C 0.62786 0.36578 0.1643 0.0
C1092 C 0.61052 0.24554 0.01134 0.0
C1093 C 0.61972 0.27146 0.02796 0.0
C1094 C 0.62187 0.27933 0.09172 0.0
C1095 C 0.65441 0.35864 0.1288 0.0
C1096 C 0.64578 0.33582 0.10763 0.0
C1097 C 0.60117 0.26596 0.04931 0.0
C1098 C 0.61562 0.28978 0.06946 0.0
H1099 H 0.66811 0.43772 0.13176 0.0
H1100 H 0.68677 0.40447 0.10936 0.0
H1101 H 0.64134 0.29331 0.1276 0.0
H1102 H 0.53972 0.18606 0.03927 0.0
H1103 H 0.55629 0.23137 0.06872 0.0
C1104 C 0.67149 0.27246 0.8314 0.0
C1105 C 0.64039 0.24685 0.82333 0.0
C1106 C 0.68947 0.30064 0.81701 0.0
C1107 C 0.68819 0.29885 0.75146 0.0
H1108 H 0.77948 0.37061 0.75935 0.0
C1109 C 0.78791 0.36836 0.67695 0.0
C1110 C 0.81954 0.37255 0.68185 0.0
C1111 C 0.76203 0.35198 0.69361 0.0
C1112 C 0.75399 0.35042 0.75707 0.0
H1113 H 0.59893 0.23455 0.79936 0.0
H1114 H 0.62891 0.28558 0.77564 0.0
H1115 H 0.73955 0.35781 0.79234 0.0
H1116 H 0.84859 0.36067 0.70644 0.0
H1117 H 0.80332 0.33254 0.73597 0.0
H1118 H 0.70287 0.29199 0.71606 0.0
C1119 C 0.64096 0.28271 0.79153 0.0
C1120 C 0.73106 0.34327 0.77582 0.0
C1121 C 0.62348 0.2537 0.80529 0.0
C1122 C 0.82417 0.35734 0.7023 0.0
C1123 C 0.79854 0.34168 0.71925 0.0
C1124 C 0.71093 0.30648 0.73264 0.0
C1125 C 0.67566 0.30323 0.79497 0.0
C1126 C 0.69795 0.31684 0.7735 0.0
C1127 C 0.76795 0.34049 0.7155 0.0
C1128 C 0.74406 0.3318 0.73551 0.0
H1129 H 0.68449 0.26784 0.84589 0.0
H1130 H 0.7157 0.31668 0.82111 0.0
H1131 H 0.66341 0.27756 0.74901 0.0
H1132 H 0.78412 0.38025 0.66134 0.0
H1133 H 0.73844 0.35107 0.69044 0.0
C1134 C 0.67824 0.4732 0.36755 0.0
C1135 C 0.66023 0.45164 0.34842 0.0
C1136 C 0.69386 0.4634 0.38461 0.0
C1137 C 0.72312 0.4063 0.39999 0.0
H1138 H 0.67906 0.39692 0.46181 0.0
C1139 C 0.77776 0.37578 0.47399 0.0
C1140 C 0.78799 0.40205 0.4905 0.0
C1141 C 0.74797 0.36485 0.46128 0.0
C1142 C 0.69157 0.39924 0.44473 0.0
H1143 H 0.64782 0.40545 0.33007 0.0
H1144 H 0.67674 0.38903 0.35932 0.0
H1145 H 0.66641 0.4221 0.42761 0.0
H1146 H 0.77237 0.43144 0.51152 0.0
H1147 H 0.72235 0.41472 0.48845 0.0
H1148 H 0.75006 0.38588 0.41685 0.0
C1149 C 0.67803 0.41297 0.36144 0.0
C1150 C 0.68452 0.41393 0.42525 0.0
C1151 C 0.66178 0.42242 0.34467 0.0
C1152 C 0.76507 0.41165 0.49825 0.0
C1153 C 0.73616 0.40193 0.48484 0.0
C1154 C 0.73073 0.39231 0.41952 0.0
C1155 C 0.69218 0.43235 0.38228 0.0
C1156 C 0.70063 0.41793 0.4029 0.0
C1157 C 0.73009 0.38204 0.46404 0.0
C1158 C 0.71553 0.38906 0.44235 0.0
H1159 H 0.67709 0.49576 0.37081 0.0
H1160 H 0.70514 0.47887 0.40046 0.0
H1161 H 0.7356 0.40901 0.38281 0.0
H1162 H 0.79479 0.36732 0.46836 0.0
H1163 H 0.74235 0.34738 0.44651 0.0
loop_
_geom_bond_atom_site_label_1
_geom_bond_atom_site_label_2
_geom_bond_distance
_geom_bond_site_symmetry_2
_ccdc_geom_bond_type
Cd0 O57 2.350 . S
Cd0 O58 2.277 . S
Cd0 O65 2.173 . S
Cd0 O67 2.263 . S
Cd0 O69 2.366 . S
Cd0 O72 2.329 . S
C1 O65 1.277 . S
C1 O66 1.230 . S
C2 O3 1.246 . S
C2 C5 1.481 1_556 S
C2 N27 1.329 1_556 S
O3 C2 1.246 . S
Cd4 O66 2.250 . S
Cd4 O68 2.308 . S
Cd4 O71 2.352 . S
C5 C2 1.481 1_554 S
C5 N8 1.327 . S
C5 C9 1.407 . S
C6 C7 1.346 . S
C6 C10 1.390 . S
C6 H74 0.930 . S
C7 C6 1.346 . S
C7 N8 1.342 . S
C7 C12 1.516 . S
N8 C5 1.327 . S
N8 C7 1.342 . S
N8 Co11 1.864 . S
C9 C5 1.407 . S
C9 C10 1.364 . S
C9 H75 0.930 . S
C10 C6 1.390 . S
C10 C9 1.364 . S
C10 H76 0.931 . S
Co11 N8 1.864 . S
Co11 N27 1.955 . S
Co11 N28 1.958 . S
Co11 N29 1.953 . S
Co11 N47 1.869 . S
Co11 N53 1.974 . S
C12 C7 1.516 . S
C12 O13 1.238 . S
C12 N28 1.324 . S
O13 C12 1.238 . S
C14 C15 1.394 . S
C14 C19 1.395 . S
C14 N28 1.427 . S
C15 C14 1.394 . S
C15 C16 1.380 . S
C15 H77 0.929 . S
C16 C15 1.380 . S
C16 C17 1.384 . S
C16 C20 1.495 . S
C17 C16 1.384 . S
C17 C18 1.382 . S
C17 H78 0.930 . S
C18 C17 1.382 . S
C18 C19 1.398 . S
C19 C14 1.395 . S
C19 C18 1.398 . S
C19 H79 0.930 . S
C20 C16 1.495 . S
C20 O67 1.258 . S
C20 O68 1.274 . S
C21 C22 1.385 . S
C21 C23 1.381 . S
C21 N27 1.432 1_556 S
C22 C21 1.385 . S
C22 C26 1.388 . S
C22 H80 0.929 . S
C23 C21 1.381 . S
C23 C24 1.371 . S
C23 H81 0.932 . S
C24 C23 1.371 . S
C24 C25 1.400 . S
C25 C24 1.400 . S
C25 C26 1.351 . S
C25 H82 0.930 . S
C26 C22 1.388 . S
C26 C25 1.351 . S
N27 C2 1.329 1_554 S
N27 Co11 1.955 . S
N27 C21 1.432 1_554 S
N28 Co11 1.958 . S
N28 C12 1.324 . S
N28 C14 1.427 . S
N29 Co11 1.953 . S
N29 C30 1.436 . S
N29 C56 1.316 . S
C30 N29 1.436 . S
C30 C31 1.421 . S
C30 C32 1.360 . S
C31 C30 1.421 . S
C31 C33 1.379 . S
C31 H34 0.929 . S
C32 C30 1.360 . S
C32 C36 1.393 . S
C32 H38 0.931 . S
C33 C31 1.379 . S
C33 C35 1.417 . S
C33 C37 1.505 . S
H34 C31 0.929 . S
C35 C33 1.417 . S
C35 C36 1.352 . S
C35 H39 0.929 . S
C36 C32 1.393 . S
C36 C35 1.352 . S
C36 C40 1.482 . S
C37 C33 1.505 . S
C37 O41 1.259 . S
C37 O42 1.229 . S
H38 C32 0.931 . S
H39 C35 0.929 . S
C40 C36 1.482 . S
C40 O43 1.207 . S
C40 O44 1.289 . S
O41 C37 1.259 . S
O41 H45 0.822 . S
O42 C37 1.229 . S
O43 C40 1.207 . S
O44 C40 1.289 . S
O44 H46 0.819 . S
H45 O41 0.822 . S
H46 O44 0.819 . S
N47 Co11 1.869 . S
N47 C48 1.330 . S
N47 C52 1.325 . S
C48 N47 1.330 . S
C48 C49 1.359 . S
C48 C54 1.504 . S
C49 C48 1.359 . S
C49 C50 1.366 . S
C49 H83 0.929 . S
C50 C49 1.366 . S
C50 C51 1.415 . S
C50 H84 0.932 . S
C51 C50 1.415 . S
C51 C52 1.366 . S
C51 H85 0.931 . S
C52 N47 1.325 . S
C52 C51 1.366 . S
C52 C56 1.516 . S
N53 Co11 1.974 . S
N53 C54 1.309 . S
N53 C59 1.412 1_554 S
C54 C48 1.504 . S
C54 N53 1.309 . S
C54 O55 1.258 1_554 S
O55 C54 1.258 1_556 S
C56 N29 1.316 . S
C56 C52 1.516 . S
C56 O69 1.263 . S
O57 Cd0 2.350 . S
O57 C73 1.270 . S
O58 Cd0 2.277 . S
O58 C73 1.248 . S
C59 N53 1.412 1_556 S
C59 C60 1.354 1_556 S
C59 C64 1.431 . S
C60 C59 1.354 1_554 S
C60 C61 1.389 1_455 S
C60 H86 0.931 . S
C61 C60 1.389 1_655 S
C61 C62 1.389 1_554 S
C62 C61 1.389 1_556 S
C62 C63 1.379 1_655 S
C62 H87 0.929 . S
C63 C62 1.379 1_455 S
C63 C64 1.405 . S
C64 C59 1.431 . S
C64 C63 1.405 . S
C64 H88 0.932 . S
O65 Cd0 2.173 . S
O65 C1 1.277 . S
O66 C1 1.230 . S
O66 Cd4 2.250 . S
O67 Cd0 2.263 . S
O67 C20 1.258 . S
O68 Cd4 2.308 . S
O68 C20 1.274 . S
O69 Cd0 2.366 . S
O69 C56 1.263 . S
C70 O71 1.235 . S
C70 O72 1.270 . S
O71 Cd4 2.352 . S
O71 C70 1.235 . S
O72 Cd0 2.329 . S
O72 C70 1.270 . S
C73 O57 1.270 . S
C73 O58 1.248 . S
H74 C6 0.930 . S
H75 C9 0.930 . S
H76 C10 0.931 . S
H77 C15 0.929 . S
H78 C17 0.930 . S
H79 C19 0.930 . S
H80 C22 0.929 . S
H81 C23 0.932 . S
H82 C25 0.930 . S
H83 C49 0.929 . S
H84 C50 0.932 . S
H85 C51 0.931 . S
H86 C60 0.931 . S
H87 C62 0.929 . S
H88 C64 0.932 . S
Cd89 O146 2.350 . S
Cd89 O147 2.277 . S
Cd89 O154 2.173 . S
Cd89 O156 2.263 . S
Cd89 O158 2.366 . S
Cd89 O161 2.329 . S
C90 O154 1.277 . S
C90 O155 1.230 . S
C91 O92 1.246 . S
C91 C94 1.481 . S
C91 N116 1.329 . S
O92 C91 1.246 . S
Cd93 O155 2.250 . S
Cd93 O157 2.308 . S
Cd93 O160 2.352 . S
C94 C91 1.481 . S
C94 N97 1.327 . S
C94 C98 1.407 . S
C95 C96 1.346 . S
C95 C99 1.390 . S
C95 H163 0.930 . S
C96 C95 1.346 . S
C96 N97 1.342 . S
C96 C101 1.516 . S
N97 C94 1.327 . S
N97 C96 1.342 . S
N97 Co100 1.864 . S
C98 C94 1.407 . S
C98 C99 1.364 . S
C98 H164 0.930 . S
C99 C95 1.390 . S
C99 C98 1.364 . S
C99 H165 0.931 . S
Co100 N97 1.864 . S
Co100 N116 1.955 . S
Co100 N117 1.958 . S
Co100 N118 1.953 . S
Co100 N136 1.869 . S
Co100 N142 1.974 . S
C101 C96 1.516 . S
C101 O102 1.238 . S
C101 N117 1.324 . S
O102 C101 1.238 . S
C103 C104 1.394 . S
C103 C108 1.395 . S
C103 N117 1.427 . S
C104 C103 1.394 . S
C104 C105 1.380 . S
C104 H166 0.929 . S
C105 C104 1.380 . S
C105 C106 1.384 . S
C105 C109 1.495 . S
C106 C105 1.384 . S
C106 C107 1.382 . S
C106 H167 0.930 . S
C107 C106 1.382 . S
C107 C108 1.398 . S
C108 C103 1.395 . S
C108 C107 1.398 . S
C108 H168 0.930 . S
C109 C105 1.495 . S
C109 O156 1.258 . S
C109 O157 1.274 . S
C110 C111 1.385 . S
C110 C112 1.381 . S
C110 N116 1.432 . S
C111 C110 1.385 . S
C111 C115 1.388 . S
C111 H169 0.929 . S
C112 C110 1.381 . S
C112 C113 1.371 . S
C112 H170 0.932 . S
C113 C112 1.371 . S
C113 C114 1.400 . S
C114 C113 1.400 . S
C114 C115 1.351 . S
C114 H171 0.930 . S
C115 C111 1.388 . S
C115 C114 1.351 . S
N116 C91 1.329 . S
N116 Co100 1.955 . S
N116 C110 1.432 . S
N117 Co100 1.958 . S
N117 C101 1.324 . S
N117 C103 1.427 . S
N118 Co100 1.953 . S
N118 C119 1.436 . S
N118 C145 1.316 . S
C119 N118 1.436 . S
C119 C120 1.421 . S
C119 C121 1.360 . S
C120 C119 1.421 . S
C120 C122 1.379 . S
C120 H123 0.929 . S
C121 C119 1.360 . S
C121 C125 1.393 . S
C121 H127 0.931 . S
C122 C120 1.379 . S
C122 C124 1.417 . S
C122 C126 1.505 . S
H123 C120 0.929 . S
C124 C122 1.417 . S
C124 C125 1.352 . S
C124 H128 0.929 . S
C125 C121 1.393 . S
C125 C124 1.352 . S
C125 C129 1.482 . S
C126 C122 1.505 . S
C126 O130 1.259 . S
C126 O131 1.229 . S
H127 C121 0.931 . S
H128 C124 0.929 . S
C129 C125 1.482 . S
C129 O132 1.207 . S
C129 O133 1.289 . S
O130 C126 1.259 . S
O130 H134 0.822 . S
O131 C126 1.229 . S
O132 C129 1.207 . S
O133 C129 1.289 . S
O133 H135 0.819 . S
H134 O130 0.822 . S
H135 O133 0.819 . S
N136 Co100 1.869 . S
N136 C137 1.330 . S
N136 C141 1.325 . S
C137 N136 1.330 . S
C137 C138 1.359 . S
C137 C143 1.504 . S
C138 C137 1.359 . S
C138 C139 1.366 . S
C138 H172 0.929 . S
C139 C138 1.366 . S
C139 C140 1.415 . S
C139 H173 0.932 . S
C140 C139 1.415 . S
C140 C141 1.366 . S
C140 H174 0.931 . S
C141 N136 1.325 . S
C141 C140 1.366 . S
C141 C145 1.516 . S
N142 Co100 1.974 . S
N142 C143 1.309 . S
N142 C148 1.423 . S
C143 C137 1.504 . S
C143 N142 1.309 . S
C143 O144 1.258 . S
O144 C143 1.258 . S
C145 N118 1.316 . S
C145 C141 1.516 . S
C145 O158 1.263 . S
O146 Cd89 2.350 . S
O146 C162 1.270 . S
O147 Cd89 2.277 . S
O147 C162 1.248 . S
C148 N142 1.423 . S
C148 C149 1.370 . S
C148 C153 1.403 . S
C149 C148 1.370 . S
C149 C150 1.389 . S
C149 H175 0.931 . S
C150 C149 1.389 . S
C150 C151 1.389 . S
C151 C150 1.389 . S
C151 C152 1.379 . S
C151 H176 0.929 . S
C152 C151 1.379 . S
C152 C153 1.405 . S
C153 C148 1.403 . S
C153 C152 1.405 . S
C153 H177 0.932 . S
O154 Cd89 2.173 . S
O154 C90 1.277 . S
O155 C90 1.230 . S
O155 Cd93 2.250 . S
O156 Cd89 2.263 . S
O156 C109 1.258 . S
O157 Cd93 2.308 . S
O157 C109 1.274 . S
O158 Cd89 2.366 . S
O158 C145 1.263 . S
C159 O160 1.235 . S
C159 O161 1.270 . S
O160 Cd93 2.352 . S
O160 C159 1.235 . S
O161 Cd89 2.329 . S
O161 C159 1.270 . S
C162 O146 1.270 . S
C162 O147 1.248 . S
H163 C95 0.930 . S
H164 C98 0.930 . S
H165 C99 0.931 . S
H166 C104 0.929 . S
H167 C106 0.930 . S
H168 C108 0.930 . S
H169 C111 0.929 . S
H170 C112 0.932 . S
H171 C114 0.930 . S
H172 C138 0.929 . S
H173 C139 0.932 . S
H174 C140 0.931 . S
H175 C149 0.931 . S
H176 C151 0.929 . S
H177 C153 0.932 . S
Cd178 O235 2.350 . S
Cd178 O236 2.277 . S
Cd178 O243 2.173 . S
Cd178 O245 2.263 . S
Cd178 O247 2.366 . S
Cd178 O250 2.329 . S
C179 O243 1.277 . S
C179 O244 1.230 . S
C180 O181 1.246 . S
C180 C183 1.481 . S
C180 N205 1.329 . S
O181 C180 1.246 . S
Cd182 O244 2.250 . S
Cd182 O246 2.308 . S
Cd182 O249 2.352 . S
C183 C180 1.481 . S
C183 N186 1.327 . S
C183 C187 1.407 . S
C184 C185 1.346 . S
C184 C188 1.390 . S
C184 H252 0.930 . S
C185 C184 1.346 . S
C185 N186 1.342 . S
C185 C190 1.516 . S
N186 C183 1.327 . S
N186 C185 1.342 . S
N186 Co189 1.864 . S
C187 C183 1.407 . S
C187 C188 1.364 . S
C187 H253 0.930 . S
C188 C184 1.390 . S
C188 C187 1.364 . S
C188 H254 0.931 . S
Co189 N186 1.864 . S
Co189 N205 1.955 . S
Co189 N206 1.958 . S
Co189 N207 1.953 . S
Co189 N225 1.869 . S
Co189 N231 1.974 . S
C190 C185 1.516 . S
C190 O191 1.238 . S
C190 N206 1.324 . S
O191 C190 1.238 . S
C192 C193 1.394 . S
C192 C197 1.395 . S
C192 N206 1.427 . S
C193 C192 1.394 . S
C193 C194 1.380 . S
C193 H255 0.929 . S
C194 C193 1.380 . S
C194 C195 1.384 . S
C194 C198 1.495 . S
C195 C194 1.384 . S
C195 C196 1.382 . S
C195 H256 0.930 . S
C196 C195 1.382 . S
C196 C197 1.398 . S
C197 C192 1.395 . S
C197 C196 1.398 . S
C197 H257 0.930 . S
C198 C194 1.495 . S
C198 O245 1.258 . S
C198 O246 1.274 . S
C199 C200 1.385 . S
C199 C201 1.381 . S
C199 N205 1.432 . S
C200 C199 1.385 . S
C200 C204 1.388 . S
C200 H258 0.929 . S
C201 C199 1.381 . S
C201 C202 1.371 . S
C201 H259 0.932 . S
C202 C201 1.371 . S
C202 C203 1.400 . S
C203 C202 1.400 . S
C203 C204 1.351 . S
C203 H260 0.930 . S
C204 C200 1.388 . S
C204 C203 1.351 . S
N205 C180 1.329 . S
N205 Co189 1.955 . S
N205 C199 1.432 . S
N206 Co189 1.958 . S
N206 C190 1.324 . S
N206 C192 1.427 . S
N207 Co189 1.953 . S
N207 C208 1.436 . S
N207 C234 1.316 . S
C208 N207 1.436 . S
C208 C209 1.421 . S
C208 C210 1.360 . S
C209 C208 1.421 . S
C209 C211 1.379 . S
C209 H212 0.929 . S
C210 C208 1.360 . S
C210 C214 1.393 . S
C210 H216 0.931 . S
C211 C209 1.379 . S
C211 C213 1.417 . S
C211 C215 1.505 . S
H212 C209 0.929 . S
C213 C211 1.417 . S
C213 C214 1.352 . S
C213 H217 0.929 . S
C214 C210 1.393 . S
C214 C213 1.352 . S
C214 C218 1.482 . S
C215 C211 1.505 . S
C215 O219 1.259 . S
C215 O220 1.229 . S
H216 C210 0.931 . S
H217 C213 0.929 . S
C218 C214 1.482 . S
C218 O221 1.207 . S
C218 O222 1.289 . S
O219 C215 1.259 . S
O219 H223 0.822 . S
O220 C215 1.229 . S
O221 C218 1.207 . S
O222 C218 1.289 . S
O222 H224 0.819 . S
H223 O219 0.822 . S
H224 O222 0.819 . S
N225 Co189 1.869 . S
N225 C226 1.330 . S
N225 C230 1.325 . S
C226 N225 1.330 . S
C226 C227 1.359 . S
C226 C232 1.504 . S
C227 C226 1.359 . S
C227 C228 1.366 . S
C227 H261 0.929 . S
C228 C227 1.366 . S
C228 C229 1.415 . S
C228 H262 0.932 . S
C229 C228 1.415 . S
C229 C230 1.366 . S
C229 H263 0.931 . S
C230 N225 1.325 . S
C230 C229 1.366 . S
C230 C234 1.516 . S
N231 Co189 1.974 . S
N231 C232 1.309 . S
N231 C237 1.423 . S
C232 C226 1.504 . S
C232 N231 1.309 . S
C232 O233 1.258 . S
O233 C232 1.258 . S
C234 N207 1.316 . S
C234 C230 1.516 . S
C234 O247 1.263 . S
O235 Cd178 2.350 . S
O235 C251 1.270 . S
O236 Cd178 2.277 . S
O236 C251 1.248 . S
C237 N231 1.423 . S
C237 C238 1.370 . S
C237 C242 1.403 . S
C238 C237 1.370 . S
C238 C239 1.389 1_565 S
C238 H264 0.931 . S
C239 C238 1.389 1_545 S
C239 C240 1.389 . S
C240 C239 1.389 . S
C240 C241 1.379 1_545 S
C240 H265 0.929 . S
C241 C240 1.379 1_565 S
C241 C242 1.405 . S
C242 C237 1.403 . S
C242 C241 1.405 . S
C242 H266 0.932 . S
O243 Cd178 2.173 . S
O243 C179 1.277 . S
O244 C179 1.230 . S
O244 Cd182 2.250 . S
O245 Cd178 2.263 . S
O245 C198 1.258 . S
O246 Cd182 2.308 . S
O246 C198 1.274 . S
O247 Cd178 2.366 . S
O247 C234 1.263 . S
C248 O249 1.235 . S
C248 O250 1.270 . S
O249 Cd182 2.352 . S
O249 C248 1.235 . S
O250 Cd178 2.329 . S
O250 C248 1.270 . S
C251 O235 1.270 . S
C251 O236 1.248 . S
H252 C184 0.930 . S
H253 C187 0.930 . S
H254 C188 0.931 . S
H255 C193 0.929 . S
H256 C195 0.930 . S
H257 C197 0.930 . S
H258 C200 0.929 . S
H259 C201 0.932 . S
H260 C203 0.930 . S
H261 C227 0.929 . S
H262 C228 0.932 . S
H263 C229 0.931 . S
H264 C238 0.931 . S
H265 C240 0.929 . S
H266 C242 0.932 . S
Cd267 O324 2.350 . S
Cd267 O325 2.277 . S
Cd267 O332 2.173 . S
Cd267 O334 2.263 . S
Cd267 O336 2.366 . S
Cd267 O339 2.329 . S
C268 O332 1.277 . S
C268 O333 1.230 . S
C269 O270 1.246 . S
C269 C272 1.481 1_554 S
C269 N294 1.329 1_554 S
O270 C269 1.246 . S
Cd271 O333 2.250 . S
Cd271 O335 2.308 . S
Cd271 O338 2.352 . S
C272 C269 1.481 1_556 S
C272 N275 1.327 . S
C272 C276 1.407 . S
C273 C274 1.346 . S
C273 C277 1.390 . S
C273 H341 0.930 . S
C274 C273 1.346 . S
C274 N275 1.342 . S
C274 C279 1.516 . S
N275 C272 1.327 . S
N275 C274 1.342 . S
N275 Co278 1.864 . S
C276 C272 1.407 . S
C276 C277 1.364 . S
C276 H342 0.930 . S
C277 C273 1.390 . S
C277 C276 1.364 . S
C277 H343 0.931 . S
Co278 N275 1.864 . S
Co278 N294 1.955 . S
Co278 N295 1.958 . S
Co278 N296 1.953 . S
Co278 N314 1.869 . S
Co278 N320 1.974 . S
C279 C274 1.516 . S
C279 O280 1.238 . S
C279 N295 1.324 . S
O280 C279 1.238 . S
C281 C282 1.394 . S
C281 C286 1.395 . S
C281 N295 1.427 . S
C282 C281 1.394 . S
C282 C283 1.380 . S
C282 H344 0.929 . S
C283 C282 1.380 . S
C283 C284 1.384 . S
C283 C287 1.495 . S
C284 C283 1.384 . S
C284 C285 1.382 . S
C284 H345 0.930 . S
C285 C284 1.382 . S
C285 C286 1.398 . S
C286 C281 1.395 . S
C286 C285 1.398 . S
C286 H346 0.930 . S
C287 C283 1.495 . S
C287 O334 1.258 . S
C287 O335 1.274 . S
C288 C289 1.385 . S
C288 C290 1.381 . S
C288 N294 1.432 1_554 S
C289 C288 1.385 . S
C289 C293 1.388 . S
C289 H347 0.929 . S
C290 C288 1.381 . S
C290 C291 1.371 . S
C290 H348 0.932 . S
C291 C290 1.371 . S
C291 C292 1.400 . S
C292 C291 1.400 . S
C292 C293 1.351 . S
C292 H349 0.930 . S
C293 C289 1.388 . S
C293 C292 1.351 . S
N294 C269 1.329 1_556 S
N294 Co278 1.955 . S
N294 C288 1.432 1_556 S
N295 Co278 1.958 . S
N295 C279 1.324 . S
N295 C281 1.427 . S
N296 Co278 1.953 . S
N296 C297 1.436 . S
N296 C323 1.316 . S
C297 N296 1.436 . S
C297 C298 1.421 . S
C297 C299 1.360 . S
C298 C297 1.421 . S
C298 C300 1.379 . S
C298 H301 0.929 . S
C299 C297 1.360 . S
C299 C303 1.393 . S
C299 H305 0.931 . S
C300 C298 1.379 . S
C300 C302 1.417 . S
C300 C304 1.505 . S
H301 C298 0.929 . S
C302 C300 1.417 . S
C302 C303 1.352 . S
C302 H306 0.929 . S
C303 C299 1.393 . S
C303 C302 1.352 . S
C303 C307 1.482 . S
C304 C300 1.505 . S
C304 O308 1.259 . S
C304 O309 1.229 . S
H305 C299 0.931 . S
H306 C302 0.929 . S
C307 C303 1.482 . S
C307 O310 1.207 . S
C307 O311 1.289 . S
O308 C304 1.259 . S
O308 H312 0.822 . S
O309 C304 1.229 . S
O310 C307 1.207 . S
O311 C307 1.289 . S
O311 H313 0.819 . S
H312 O308 0.822 . S
H313 O311 0.819 . S
N314 Co278 1.869 . S
N314 C315 1.330 . S
N314 C319 1.325 . S
C315 N314 1.330 . S
C315 C316 1.359 . S
C315 C321 1.504 . S
C316 C315 1.359 . S
C316 C317 1.366 . S
C316 H350 0.929 . S
C317 C316 1.366 . S
C317 C318 1.415 . S
C317 H351 0.932 . S
C318 C317 1.415 . S
C318 C319 1.366 . S
C318 H352 0.931 . S
C319 N314 1.325 . S
C319 C318 1.366 . S
C319 C323 1.516 . S
N320 Co278 1.974 . S
N320 C321 1.309 . S
N320 C326 1.412 1_556 S
C321 C315 1.504 . S
C321 N320 1.309 . S
C321 O322 1.258 1_556 S
O322 C321 1.258 1_554 S
C323 N296 1.316 . S
C323 C319 1.516 . S
C323 O336 1.263 . S
O324 Cd267 2.350 . S
O324 C340 1.270 . S
O325 Cd267 2.277 . S
O325 C340 1.248 . S
C326 N320 1.412 1_554 S
C326 C327 1.354 1_554 S
C326 C331 1.431 . S
C327 C326 1.354 1_556 S
C327 C328 1.389 1_545 S
C327 H353 0.931 . S
C328 C327 1.389 1_565 S
C328 C329 1.389 1_556 S
C329 C328 1.389 1_554 S
C329 C330 1.379 1_565 S
C329 H354 0.929 . S
C330 C329 1.379 1_545 S
C330 C331 1.405 . S
C331 C326 1.431 . S
C331 C330 1.405 . S
C331 H355 0.932 . S
O332 Cd267 2.173 . S
O332 C268 1.277 . S
O333 C268 1.230 . S
O333 Cd271 2.250 . S
O334 Cd267 2.263 . S
O334 C287 1.258 . S
O335 Cd271 2.308 . S
O335 C287 1.274 . S
O336 Cd267 2.366 . S
O336 C323 1.263 . S
C337 O338 1.235 . S
C337 O339 1.270 . S
O338 Cd271 2.352 . S
O338 C337 1.235 . S
O339 Cd267 2.329 . S
O339 C337 1.270 . S
C340 O324 1.270 . S
C340 O325 1.248 . S
H341 C273 0.930 . S
H342 C276 0.930 . S
H343 C277 0.931 . S
H344 C282 0.929 . S
H345 C284 0.930 . S
H346 C286 0.930 . S
H347 C289 0.929 . S
H348 C290 0.932 . S
H349 C292 0.930 . S
H350 C316 0.929 . S
H351 C317 0.932 . S
H352 C318 0.931 . S
H353 C327 0.931 . S
H354 C329 0.929 . S
H355 C331 0.932 . S
Cd356 O413 2.350 . S
Cd356 O414 2.277 . S
Cd356 O421 2.173 . S
Cd356 O423 2.263 . S
Cd356 O425 2.366 . S
Cd356 O428 2.329 . S
C357 O421 1.277 . S
C357 O422 1.230 . S
C358 O359 1.246 . S
C358 C361 1.481 . S
C358 N383 1.329 . S
O359 C358 1.246 . S
Cd360 O422 2.250 . S
Cd360 O424 2.308 . S
Cd360 O427 2.352 . S
C361 C358 1.481 . S
C361 N364 1.327 . S
C361 C365 1.407 . S
C362 C363 1.346 . S
C362 C366 1.390 . S
C362 H430 0.930 . S
C363 C362 1.346 . S
C363 N364 1.342 . S
C363 C368 1.516 . S
N364 C361 1.327 . S
N364 C363 1.342 . S
N364 Co367 1.864 . S
C365 C361 1.407 . S
C365 C366 1.364 . S
C365 H431 0.930 . S
C366 C362 1.390 . S
C366 C365 1.364 . S
C366 H432 0.931 . S
Co367 N364 1.864 . S
Co367 N383 1.955 . S
Co367 N384 1.958 . S
Co367 N385 1.953 . S
Co367 N403 1.869 . S
Co367 N409 1.974 . S
C368 C363 1.516 . S
C368 O369 1.238 . S
C368 N384 1.324 . S
O369 C368 1.238 . S
C370 C371 1.394 . S
C370 C375 1.395 . S
C370 N384 1.427 . S
C371 C370 1.394 . S
C371 C372 1.380 . S
C371 H433 0.929 . S
C372 C371 1.380 . S
C372 C373 1.384 . S
C372 C376 1.495 . S
C373 C372 1.384 . S
C373 C374 1.382 . S
C373 H434 0.930 . S
C374 C373 1.382 . S
C374 C375 1.398 . S
C375 C370 1.395 . S
C375 C374 1.398 . S
C375 H435 0.930 . S
C376 C372 1.495 . S
C376 O423 1.258 . S
C376 O424 1.274 . S
C377 C378 1.385 . S
C377 C379 1.381 . S
C377 N383 1.432 . S
C378 C377 1.385 . S
C378 C382 1.388 . S
C378 H436 0.929 . S
C379 C377 1.381 . S
C379 C380 1.371 . S
C379 H437 0.932 . S
C380 C379 1.371 . S
C380 C381 1.400 . S
C381 C380 1.400 . S
C381 C382 1.351 . S
C381 H438 0.930 . S
C382 C378 1.388 . S
C382 C381 1.351 . S
N383 C358 1.329 . S
N383 Co367 1.955 . S
N383 C377 1.432 . S
N384 Co367 1.958 . S
N384 C368 1.324 . S
N384 C370 1.427 . S
N385 Co367 1.953 . S
N385 C386 1.436 . S
N385 C412 1.316 . S
C386 N385 1.436 . S
C386 C387 1.421 . S
C386 C388 1.360 . S
C387 C386 1.421 . S
C387 C389 1.379 . S
C387 H390 0.929 . S
C388 C386 1.360 . S
C388 C392 1.393 . S
C388 H394 0.931 . S
C389 C387 1.379 . S
C389 C391 1.417 . S
C389 C393 1.505 . S
H390 C387 0.929 . S
C391 C389 1.417 . S
C391 C392 1.352 . S
C391 H395 0.929 . S
C392 C388 1.393 . S
C392 C391 1.352 . S
C392 C396 1.482 . S
C393 C389 1.505 . S
C393 O397 1.259 . S
C393 O398 1.229 . S
H394 C388 0.931 . S
H395 C391 0.929 . S
C396 C392 1.482 . S
C396 O399 1.207 . S
C396 O400 1.289 . S
O397 C393 1.259 . S
O397 H401 0.822 . S
O398 C393 1.229 . S
O399 C396 1.207 . S
O400 C396 1.289 . S
O400 H402 0.819 . S
H401 O397 0.822 . S
H402 O400 0.819 . S
N403 Co367 1.869 . S
N403 C404 1.330 . S
N403 C408 1.325 . S
C404 N403 1.330 . S
C404 C405 1.359 . S
C404 C410 1.504 . S
C405 C404 1.359 . S
C405 C406 1.366 . S
C405 H439 0.929 . S
C406 C405 1.366 . S
C406 C407 1.415 . S
C406 H440 0.932 . S
C407 C406 1.415 . S
C407 C408 1.366 . S
C407 H441 0.931 . S
C408 N403 1.325 . S
C408 C407 1.366 . S
C408 C412 1.516 . S
N409 Co367 1.974 . S
N409 C410 1.309 . S
N409 C415 1.423 . S
C410 C404 1.504 . S
C410 N409 1.309 . S
C410 O411 1.258 . S
O411 C410 1.258 . S
C412 N385 1.316 . S
C412 C408 1.516 . S
C412 O425 1.263 . S
O413 Cd356 2.350 . S
O413 C429 1.270 . S
O414 Cd356 2.277 . S
O414 C429 1.248 . S
C415 N409 1.423 . S
C415 C416 1.370 . S
C415 C420 1.403 . S
C416 C415 1.370 . S
C416 C417 1.389 1_655 S
C416 H442 0.931 . S
C417 C416 1.389 1_455 S
C417 C418 1.389 . S
C418 C417 1.389 . S
C418 C419 1.379 1_455 S
C418 H443 0.929 . S
C419 C418 1.379 1_655 S
C419 C420 1.405 . S
C420 C415 1.403 . S
C420 C419 1.405 . S
C420 H444 0.932 . S
O421 Cd356 2.173 . S
O421 C357 1.277 . S
O422 C357 1.230 . S
O422 Cd360 2.250 . S
O423 Cd356 2.263 . S
O423 C376 1.258 . S
O424 Cd360 2.308 . S
O424 C376 1.274 . S
O425 Cd356 2.366 . S
O425 C412 1.263 . S
C426 O427 1.235 . S
C426 O428 1.270 . S
O427 Cd360 2.352 . S
O427 C426 1.235 . S
O428 Cd356 2.329 . S
O428 C426 1.270 . S
C429 O413 1.270 . S
C429 O414 1.248 . S
H430 C362 0.930 . S
H431 C365 0.930 . S
H432 C366 0.931 . S
H433 C371 0.929 . S
H434 C373 0.930 . S
H435 C375 0.930 . S
H436 C378 0.929 . S
H437 C379 0.932 . S
H438 C381 0.930 . S
H439 C405 0.929 . S
H440 C406 0.932 . S
H441 C407 0.931 . S
H442 C416 0.931 . S
H443 C418 0.929 . S
H444 C420 0.932 . S
Cd445 O502 2.350 . S
Cd445 O503 2.277 . S
Cd445 O510 2.173 . S
Cd445 O512 2.263 . S
Cd445 O514 2.366 . S
Cd445 O517 2.329 . S
C446 O510 1.277 . S
C446 O511 1.230 . S
C447 O448 1.246 . S
C447 C450 1.481 . S
C447 N472 1.329 . S
O448 C447 1.246 . S
Cd449 O511 2.250 . S
Cd449 O513 2.308 . S
Cd449 O516 2.352 . S
C450 C447 1.481 . S
C450 N453 1.327 . S
C450 C454 1.407 . S
C451 C452 1.346 . S
C451 C455 1.390 . S
C451 H519 0.930 . S
C452 C451 1.346 . S
C452 N453 1.342 . S
C452 C457 1.516 . S
N453 C450 1.327 . S
N453 C452 1.342 . S
N453 Co456 1.864 . S
C454 C450 1.407 . S
C454 C455 1.364 . S
C454 H520 0.930 . S
C455 C451 1.390 . S
C455 C454 1.364 . S
C455 H521 0.931 . S
Co456 N453 1.864 . S
Co456 N472 1.955 . S
Co456 N473 1.958 . S
Co456 N474 1.953 . S
Co456 N492 1.869 . S
Co456 N498 1.974 . S
C457 C452 1.516 . S
C457 O458 1.238 . S
C457 N473 1.324 . S
O458 C457 1.238 . S
C459 C460 1.394 . S
C459 C464 1.395 . S
C459 N473 1.427 . S
C460 C459 1.394 . S
C460 C461 1.380 . S
C460 H522 0.929 . S
C461 C460 1.380 . S
C461 C462 1.384 . S
C461 C465 1.495 . S
C462 C461 1.384 . S
C462 C463 1.382 . S
C462 H523 0.930 . S
C463 C462 1.382 . S
C463 C464 1.398 . S
C464 C459 1.395 . S
C464 C463 1.398 . S
C464 H524 0.930 . S
C465 C461 1.495 . S
C465 O512 1.258 . S
C465 O513 1.274 . S
C466 C467 1.385 . S
C466 C468 1.381 . S
C466 N472 1.432 . S
C467 C466 1.385 . S
C467 C471 1.388 . S
C467 H525 0.929 . S
C468 C466 1.381 . S
C468 C469 1.371 . S
C468 H526 0.932 . S
C469 C468 1.371 . S
C469 C470 1.400 . S
C470 C469 1.400 . S
C470 C471 1.351 . S
C470 H527 0.930 . S
C471 C467 1.388 . S
C471 C470 1.351 . S
N472 C447 1.329 . S
N472 Co456 1.955 . S
N472 C466 1.432 . S
N473 Co456 1.958 . S
N473 C457 1.324 . S
N473 C459 1.427 . S
N474 Co456 1.953 . S
N474 C475 1.436 . S
N474 C501 1.316 . S
C475 N474 1.436 . S
C475 C476 1.421 . S
C475 C477 1.360 . S
C476 C475 1.421 . S
C476 C478 1.379 . S
C476 H479 0.929 . S
C477 C475 1.360 . S
C477 C481 1.393 . S
C477 H483 0.931 . S
C478 C476 1.379 . S
C478 C480 1.417 . S
C478 C482 1.505 . S
H479 C476 0.929 . S
C480 C478 1.417 . S
C480 C481 1.352 . S
C480 H484 0.929 . S
C481 C477 1.393 . S
C481 C480 1.352 . S
C481 C485 1.482 . S
C482 C478 1.505 . S
C482 O486 1.259 . S
C482 O487 1.229 . S
H483 C477 0.931 . S
H484 C480 0.929 . S
C485 C481 1.482 . S
C485 O488 1.207 . S
C485 O489 1.289 . S
O486 C482 1.259 . S
O486 H490 0.822 . S
O487 C482 1.229 . S
O488 C485 1.207 . S
O489 C485 1.289 . S
O489 H491 0.819 . S
H490 O486 0.822 . S
H491 O489 0.819 . S
N492 Co456 1.869 . S
N492 C493 1.330 . S
N492 C497 1.325 . S
C493 N492 1.330 . S
C493 C494 1.359 . S
C493 C499 1.504 . S
C494 C493 1.359 . S
C494 C495 1.366 . S
C494 H528 0.929 . S
C495 C494 1.366 . S
C495 C496 1.415 . S
C495 H529 0.932 . S
C496 C495 1.415 . S
C496 C497 1.366 . S
C496 H530 0.931 . S
C497 N492 1.325 . S
C497 C496 1.366 . S
C497 C501 1.516 . S
N498 Co456 1.974 . S
N498 C499 1.309 . S
N498 C504 1.423 . S
C499 C493 1.504 . S
C499 N498 1.309 . S
C499 O500 1.258 . S
O500 C499 1.258 . S
C501 N474 1.316 . S
C501 C497 1.516 . S
C501 O514 1.263 . S
O502 Cd445 2.350 . S
O502 C518 1.270 . S
O503 Cd445 2.277 . S
O503 C518 1.248 . S
C504 N498 1.423 . S
C504 C505 1.370 . S
C504 C509 1.403 . S
C505 C504 1.370 . S
C505 C506 1.389 . S
C505 H531 0.931 . S
C506 C505 1.389 . S
C506 C507 1.389 . S
C507 C506 1.389 . S
C507 C508 1.379 . S
C507 H532 0.929 . S
C508 C507 1.379 . S
C508 C509 1.405 . S
C509 C504 1.403 . S
C509 C508 1.405 . S
C509 H533 0.932 . S
O510 Cd445 2.173 . S
O510 C446 1.277 . S
O511 C446 1.230 . S
O511 Cd449 2.250 . S
O512 Cd445 2.263 . S
O512 C465 1.258 . S
O513 Cd449 2.308 . S
O513 C465 1.274 . S
O514 Cd445 2.366 . S
O514 C501 1.263 . S
C515 O516 1.235 . S
C515 O517 1.270 . S
O516 Cd449 2.352 . S
O516 C515 1.235 . S
O517 Cd445 2.329 . S
O517 C515 1.270 . S
C518 O502 1.270 . S
C518 O503 1.248 . S
H519 C451 0.930 . S
H520 C454 0.930 . S
H521 C455 0.931 . S
H522 C460 0.929 . S
H523 C462 0.930 . S
H524 C464 0.930 . S
H525 C467 0.929 . S
H526 C468 0.932 . S
H527 C470 0.930 . S
H528 C494 0.929 . S
H529 C495 0.932 . S
H530 C496 0.931 . S
H531 C505 0.931 . S
H532 C507 0.929 . S
H533 C509 0.932 . S
C534 C535 1.349 . S
C534 C536 1.327 . S
C534 H559 0.950 . S
C535 C534 1.349 . S
C535 C551 1.349 . S
C536 C534 1.327 . S
C536 C555 1.429 . S
C536 H560 0.950 . S
C537 C554 1.574 . S
C537 C556 1.368 . S
C537 H561 0.949 . S
H538 C542 0.949 1_556 S
C539 C540 1.349 1_554 S
C539 C541 1.327 . S
C539 H562 0.950 . S
C540 C539 1.349 1_556 S
C540 C552 1.349 . S
C541 C539 1.327 . S
C541 C557 1.429 . S
C541 H563 0.950 . S
C542 H538 0.949 1_554 S
C542 C550 1.574 . S
C542 C558 1.368 . S
H543 C551 0.950 . S
H544 C549 0.950 . S
H545 C550 0.949 . S
H546 C552 0.950 . S
H547 C553 0.950 . S
H548 C554 0.949 . S
C549 H544 0.950 . S
C549 C551 1.327 . S
C549 C555 1.429 . S
C550 C542 1.574 . S
C550 H545 0.949 . S
C550 C556 1.368 . S
C551 C535 1.349 . S
C551 H543 0.950 . S
C551 C549 1.327 . S
C552 C540 1.349 . S
C552 H546 0.950 . S
C552 C553 1.327 . S
C553 H547 0.950 . S
C553 C552 1.327 . S
C553 C557 1.429 1_556 S
C554 C537 1.574 . S
C554 H548 0.949 . S
C554 C558 1.368 . S
C555 C536 1.429 . S
C555 C549 1.429 . S
C555 C556 1.523 . S
C556 C537 1.368 . S
C556 C550 1.368 . S
C556 C555 1.523 . S
C557 C541 1.429 . S
C557 C553 1.429 1_554 S
C557 C558 1.523 . S
C558 C542 1.368 . S
C558 C554 1.368 . S
C558 C557 1.523 . S
H559 C534 0.950 . S
H560 C536 0.950 . S
H561 C537 0.949 . S
H562 C539 0.950 . S
H563 C541 0.950 . S
C564 C565 1.349 . S
C564 C566 1.327 . S
C564 H589 0.950 . S
C565 C564 1.349 . S
C565 C581 1.349 . S
C566 C564 1.327 . S
C566 C585 1.429 . S
C566 H590 0.950 . S
C567 C584 1.574 . S
C567 C586 1.368 . S
C567 H591 0.949 . S
H568 C572 0.949 . S
C569 C570 1.349 . S
C569 C571 1.327 . S
C569 H592 0.950 . S
C570 C569 1.349 . S
C570 C582 1.349 . S
C571 C569 1.327 . S
C571 C587 1.429 . S
C571 H593 0.950 . S
C572 H568 0.949 . S
C572 C580 1.574 . S
C572 C588 1.368 . S
H573 C581 0.950 . S
H574 C579 0.950 . S
H575 C580 0.949 . S
H576 C582 0.950 . S
H577 C583 0.950 . S
H578 C584 0.949 . S
C579 H574 0.950 . S
C579 C581 1.327 . S
C579 C585 1.429 . S
C580 C572 1.574 . S
C580 H575 0.949 . S
C580 C586 1.368 . S
C581 C565 1.349 . S
C581 H573 0.950 . S
C581 C579 1.327 . S
C582 C570 1.349 . S
C582 H576 0.950 . S
C582 C583 1.327 . S
C583 H577 0.950 . S
C583 C582 1.327 . S
C583 C587 1.429 . S
C584 C567 1.574 . S
C584 H578 0.949 . S
C584 C588 1.368 . S
C585 C566 1.429 . S
C585 C579 1.429 . S
C585 C586 1.523 . S
C586 C567 1.368 . S
C586 C580 1.368 . S
C586 C585 1.523 . S
C587 C571 1.429 . S
C587 C583 1.429 . S
C587 C588 1.523 . S
C588 C572 1.368 . S
C588 C584 1.368 . S
C588 C587 1.523 . S
H589 C564 0.950 . S
H590 C566 0.950 . S
H591 C567 0.949 . S
H592 C569 0.950 . S
H593 C571 0.950 . S
C594 C595 1.349 . S
C594 C596 1.327 . S
C594 H619 0.950 . S
C595 C594 1.349 . S
C595 C611 1.349 . S
C596 C594 1.327 . S
C596 C615 1.429 . S
C596 H620 0.950 . S
C597 C614 1.574 . S
C597 C616 1.368 . S
C597 H621 0.949 . S
H598 C602 0.949 . S
C599 C600 1.349 . S
C599 C601 1.327 . S
C599 H622 0.950 . S
C600 C599 1.349 . S
C600 C612 1.349 . S
C601 C599 1.327 . S
C601 C617 1.429 . S
C601 H623 0.950 . S
C602 H598 0.949 . S
C602 C610 1.574 . S
C602 C618 1.368 . S
H603 C611 0.950 . S
H604 C609 0.950 . S
H605 C610 0.949 . S
H606 C612 0.950 . S
H607 C613 0.950 . S
H608 C614 0.949 . S
C609 H604 0.950 . S
C609 C611 1.327 . S
C609 C615 1.429 . S
C610 C602 1.574 . S
C610 H605 0.949 . S
C610 C616 1.368 . S
C611 C595 1.349 . S
C611 H603 0.950 . S
C611 C609 1.327 . S
C612 C600 1.349 . S
C612 H606 0.950 . S
C612 C613 1.327 . S
C613 H607 0.950 . S
C613 C612 1.327 . S
C613 C617 1.429 . S
C614 C597 1.574 . S
C614 H608 0.949 . S
C614 C618 1.368 . S
C615 C596 1.429 . S
C615 C609 1.429 . S
C615 C616 1.523 . S
C616 C597 1.368 . S
C616 C610 1.368 . S
C616 C615 1.523 . S
C617 C601 1.429 . S
C617 C613 1.429 . S
C617 C618 1.523 . S
C618 C602 1.368 . S
C618 C614 1.368 . S
C618 C617 1.523 . S
H619 C594 0.950 . S
H620 C596 0.950 . S
H621 C597 0.949 . S
H622 C599 0.950 . S
H623 C601 0.950 . S
C624 C625 1.349 . S
C624 C626 1.327 . S
C624 H649 0.950 . S
C625 C624 1.349 . S
C625 C641 1.349 . S
C626 C624 1.327 . S
C626 C645 1.429 . S
C626 H650 0.950 . S
C627 C644 1.574 . S
C627 C646 1.368 . S
C627 H651 0.949 . S
H628 C632 0.949 . S
C629 C630 1.349 . S
C629 C631 1.327 . S
C629 H652 0.950 . S
C630 C629 1.349 . S
C630 C642 1.349 1_554 S
C631 C629 1.327 . S
C631 C647 1.429 1_554 S
C631 H653 0.950 . S
C632 H628 0.949 . S
C632 C640 1.574 . S
C632 C648 1.368 . S
H633 C641 0.950 . S
H634 C639 0.950 . S
H635 C640 0.949 . S
H636 C642 0.950 . S
H637 C643 0.950 . S
H638 C644 0.949 1_554 S
C639 H634 0.950 . S
C639 C641 1.327 . S
C639 C645 1.429 . S
C640 C632 1.574 . S
C640 H635 0.949 . S
C640 C646 1.368 . S
C641 C625 1.349 . S
C641 H633 0.950 . S
C641 C639 1.327 . S
C642 C630 1.349 1_556 S
C642 H636 0.950 . S
C642 C643 1.327 . S
C643 H637 0.950 . S
C643 C642 1.327 . S
C643 C647 1.429 . S
C644 C627 1.574 . S
C644 H638 0.949 1_556 S
C644 C648 1.368 . S
C645 C626 1.429 . S
C645 C639 1.429 . S
C645 C646 1.523 . S
C646 C627 1.368 . S
C646 C640 1.368 . S
C646 C645 1.523 . S
C647 C631 1.429 1_556 S
C647 C643 1.429 . S
C647 C648 1.523 . S
C648 C632 1.368 . S
C648 C644 1.368 . S
C648 C647 1.523 . S
H649 C624 0.950 . S
H650 C626 0.950 . S
H651 C627 0.949 . S
H652 C629 0.950 . S
H653 C631 0.950 . S
C654 C655 1.349 . S
C654 C656 1.327 . S
C654 H679 0.950 . S
C655 C654 1.349 . S
C655 C671 1.349 . S
C656 C654 1.327 . S
C656 C675 1.429 . S
C656 H680 0.950 . S
C657 C674 1.574 . S
C657 C676 1.368 . S
C657 H681 0.949 . S
H658 C662 0.949 . S
C659 C660 1.349 . S
C659 C661 1.327 . S
C659 H682 0.950 . S
C660 C659 1.349 . S
C660 C672 1.349 . S
C661 C659 1.327 . S
C661 C677 1.429 . S
C661 H683 0.950 . S
C662 H658 0.949 . S
C662 C670 1.574 . S
C662 C678 1.368 . S
H663 C671 0.950 . S
H664 C669 0.950 . S
H665 C670 0.949 . S
H666 C672 0.950 . S
H667 C673 0.950 . S
H668 C674 0.949 . S
C669 H664 0.950 . S
C669 C671 1.327 . S
C669 C675 1.429 . S
C670 C662 1.574 . S
C670 H665 0.949 . S
C670 C676 1.368 . S
C671 C655 1.349 . S
C671 H663 0.950 . S
C671 C669 1.327 . S
C672 C660 1.349 . S
C672 H666 0.950 . S
C672 C673 1.327 . S
C673 H667 0.950 . S
C673 C672 1.327 . S
C673 C677 1.429 . S
C674 C657 1.574 . S
C674 H668 0.949 . S
C674 C678 1.368 . S
C675 C656 1.429 . S
C675 C669 1.429 . S
C675 C676 1.523 . S
C676 C657 1.368 . S
C676 C670 1.368 . S
C676 C675 1.523 . S
C677 C661 1.429 . S
C677 C673 1.429 . S
C677 C678 1.523 . S
C678 C662 1.368 . S
C678 C674 1.368 . S
C678 C677 1.523 . S
H679 C654 0.950 . S
H680 C656 0.950 . S
H681 C657 0.949 . S
H682 C659 0.950 . S
H683 C661 0.950 . S
C684 C685 1.349 . S
C684 C686 1.327 . S
C684 H709 0.950 . S
C685 C684 1.349 . S
C685 C701 1.349 . S
C686 C684 1.327 . S
C686 C705 1.429 . S
C686 H710 0.950 . S
C687 C704 1.574 . S
C687 C706 1.368 . S
C687 H711 0.949 . S
H688 C692 0.949 . S
C689 C690 1.349 . S
C689 C691 1.327 . S
C689 H712 0.950 . S
C690 C689 1.349 . S
C690 C702 1.349 . S
C691 C689 1.327 . S
C691 C707 1.429 . S
C691 H713 0.950 . S
C692 H688 0.949 . S
C692 C700 1.574 . S
C692 C708 1.368 . S
H693 C701 0.950 . S
H694 C699 0.950 . S
H695 C700 0.949 . S
H696 C702 0.950 . S
H697 C703 0.950 . S
H698 C704 0.949 . S
C699 H694 0.950 . S
C699 C701 1.327 . S
C699 C705 1.429 . S
C700 C692 1.574 . S
C700 H695 0.949 . S
C700 C706 1.368 . S
C701 C685 1.349 . S
C701 H693 0.950 . S
C701 C699 1.327 . S
C702 C690 1.349 . S
C702 H696 0.950 . S
C702 C703 1.327 . S
C703 H697 0.950 . S
C703 C702 1.327 . S
C703 C707 1.429 . S
C704 C687 1.574 . S
C704 H698 0.949 . S
C704 C708 1.368 . S
C705 C686 1.429 . S
C705 C699 1.429 . S
C705 C706 1.523 . S
C706 C687 1.368 . S
C706 C700 1.368 . S
C706 C705 1.523 . S
C707 C691 1.429 . S
C707 C703 1.429 . S
C707 C708 1.523 . S
C708 C692 1.368 . S
C708 C704 1.368 . S
C708 C707 1.523 . S
H709 C684 0.950 . S
H710 C686 0.950 . S
H711 C687 0.949 . S
H712 C689 0.950 . S
H713 C691 0.950 . S
C714 C715 1.349 . S
C714 C716 1.327 . S
C714 H739 0.950 . S
C715 C714 1.349 . S
C715 C731 1.349 . S
C716 C714 1.327 . S
C716 C735 1.429 . S
C716 H740 0.950 . S
C717 C734 1.574 . S
C717 C736 1.368 . S
C717 H741 0.949 . S
H718 C722 0.949 . S
C719 C720 1.349 . S
C719 C721 1.327 . S
C719 H742 0.950 . S
C720 C719 1.349 . S
C720 C732 1.349 . S
C721 C719 1.327 . S
C721 C737 1.429 . S
C721 H743 0.950 . S
C722 H718 0.949 . S
C722 C730 1.574 . S
C722 C738 1.368 . S
H723 C731 0.950 . S
H724 C729 0.950 . S
H725 C730 0.949 . S
H726 C732 0.950 . S
H727 C733 0.950 . S
H728 C734 0.949 . S
C729 H724 0.950 . S
C729 C731 1.327 . S
C729 C735 1.429 . S
C730 C722 1.574 . S
C730 H725 0.949 . S
C730 C736 1.368 . S
C731 C715 1.349 . S
C731 H723 0.950 . S
C731 C729 1.327 . S
C732 C720 1.349 . S
C732 H726 0.950 . S
C732 C733 1.327 . S
C733 H727 0.950 . S
C733 C732 1.327 . S
C733 C737 1.429 . S
C734 C717 1.574 . S
C734 H728 0.949 . S
C734 C738 1.368 . S
C735 C716 1.429 . S
C735 C729 1.429 . S
C735 C736 1.523 . S
C736 C717 1.368 . S
C736 C730 1.368 . S
C736 C735 1.523 . S
C737 C721 1.429 . S
C737 C733 1.429 . S
C737 C738 1.523 . S
C738 C722 1.368 . S
C738 C734 1.368 . S
C738 C737 1.523 . S
H739 C714 0.950 . S
H740 C716 0.950 . S
H741 C717 0.949 . S
H742 C719 0.950 . S
H743 C721 0.950 . S
C744 C745 1.349 . S
C744 C746 1.327 . S
C744 H769 0.950 . S
C745 C744 1.349 . S
C745 C761 1.349 . S
C746 C744 1.327 . S
C746 C765 1.429 . S
C746 H770 0.950 . S
C747 C764 1.574 . S
C747 C766 1.368 . S
C747 H771 0.949 . S
H748 C752 0.949 . S
C749 C750 1.349 . S
C749 C751 1.327 . S
C749 H772 0.950 . S
C750 C749 1.349 . S
C750 C762 1.349 . S
C751 C749 1.327 . S
C751 C767 1.429 . S
C751 H773 0.950 . S
C752 H748 0.949 . S
C752 C760 1.574 . S
C752 C768 1.368 . S
H753 C761 0.950 . S
H754 C759 0.950 . S
H755 C760 0.949 . S
H756 C762 0.950 . S
H757 C763 0.950 . S
H758 C764 0.949 . S
C759 H754 0.950 . S
C759 C761 1.327 . S
C759 C765 1.429 . S
C760 C752 1.574 . S
C760 H755 0.949 . S
C760 C766 1.368 . S
C761 C745 1.349 . S
C761 H753 0.950 . S
C761 C759 1.327 . S
C762 C750 1.349 . S
C762 H756 0.950 . S
C762 C763 1.327 . S
C763 H757 0.950 . S
C763 C762 1.327 . S
C763 C767 1.429 . S
C764 C747 1.574 . S
C764 H758 0.949 . S
C764 C768 1.368 . S
C765 C746 1.429 . S
C765 C759 1.429 . S
C765 C766 1.523 . S
C766 C747 1.368 . S
C766 C760 1.368 . S
C766 C765 1.523 . S
C767 C751 1.429 . S
C767 C763 1.429 . S
C767 C768 1.523 . S
C768 C752 1.368 . S
C768 C764 1.368 . S
C768 C767 1.523 . S
H769 C744 0.950 . S
H770 C746 0.950 . S
H771 C747 0.949 . S
H772 C749 0.950 . S
H773 C751 0.950 . S
C774 C775 1.349 . S
C774 C776 1.327 . S
C774 H799 0.950 . S
C775 C774 1.349 . S
C775 C791 1.349 . S
C776 C774 1.327 . S
C776 C795 1.429 . S
C776 H800 0.950 . S
C777 C794 1.574 . S
C777 C796 1.368 . S
C777 H801 0.949 . S
H778 C782 0.949 . S
C779 C780 1.349 . S
C779 C781 1.327 . S
C779 H802 0.950 . S
C780 C779 1.349 . S
C780 C792 1.349 . S
C781 C779 1.327 . S
C781 C797 1.429 . S
C781 H803 0.950 . S
C782 H778 0.949 . S
C782 C790 1.574 . S
C782 C798 1.368 . S
H783 C791 0.950 . S
H784 C789 0.950 . S
H785 C790 0.949 . S
H786 C792 0.950 . S
H787 C793 0.950 . S
H788 C794 0.949 . S
C789 H784 0.950 . S
C789 C791 1.327 . S
C789 C795 1.429 . S
C790 C782 1.574 . S
C790 H785 0.949 . S
C790 C796 1.368 . S
C791 C775 1.349 . S
C791 H783 0.950 . S
C791 C789 1.327 . S
C792 C780 1.349 . S
C792 H786 0.950 . S
C792 C793 1.327 . S
C793 H787 0.950 . S
C793 C792 1.327 . S
C793 C797 1.429 . S
C794 C777 1.574 . S
C794 H788 0.949 . S
C794 C798 1.368 . S
C795 C776 1.429 . S
C795 C789 1.429 . S
C795 C796 1.523 . S
C796 C777 1.368 . S
C796 C790 1.368 . S
C796 C795 1.523 . S
C797 C781 1.429 . S
C797 C793 1.429 . S
C797 C798 1.523 . S
C798 C782 1.368 . S
C798 C794 1.368 . S
C798 C797 1.523 . S
H799 C774 0.950 . S
H800 C776 0.950 . S
H801 C777 0.949 . S
H802 C779 0.950 . S
H803 C781 0.950 . S
C804 C805 1.349 . S
C804 C806 1.327 . S
C804 H829 0.950 . S
C805 C804 1.349 . S
C805 C821 1.349 . S
C806 C804 1.327 . S
C806 C825 1.429 . S
C806 H830 0.950 . S
C807 C824 1.574 . S
C807 C826 1.368 . S
C807 H831 0.949 . S
H808 C812 0.949 . S
C809 C810 1.349 . S
C809 C811 1.327 . S
C809 H832 0.950 . S
C810 C809 1.349 . S
C810 C822 1.349 . S
C811 C809 1.327 . S
C811 C827 1.429 . S
C811 H833 0.950 . S
C812 H808 0.949 . S
C812 C820 1.574 . S
C812 C828 1.368 . S
H813 C821 0.950 . S
H814 C819 0.950 . S
H815 C820 0.949 . S
H816 C822 0.950 . S
H817 C823 0.950 . S
H818 C824 0.949 . S
C819 H814 0.950 . S
C819 C821 1.327 . S
C819 C825 1.429 . S
C820 C812 1.574 . S
C820 H815 0.949 . S
C820 C826 1.368 . S
C821 C805 1.349 . S
C821 H813 0.950 . S
C821 C819 1.327 . S
C822 C810 1.349 . S
C822 H816 0.950 . S
C822 C823 1.327 . S
C823 H817 0.950 . S
C823 C822 1.327 . S
C823 C827 1.429 . S
C824 C807 1.574 . S
C824 H818 0.949 . S
C824 C828 1.368 . S
C825 C806 1.429 . S
C825 C819 1.429 . S
C825 C826 1.523 . S
C826 C807 1.368 . S
C826 C820 1.368 . S
C826 C825 1.523 . S
C827 C811 1.429 . S
C827 C823 1.429 . S
C827 C828 1.523 . S
C828 C812 1.368 . S
C828 C824 1.368 . S
C828 C827 1.523 . S
H829 C804 0.950 . S
H830 C806 0.950 . S
H831 C807 0.949 . S
H832 C809 0.950 . S
H833 C811 0.950 . S
C834 C835 1.349 . S
C834 C836 1.327 . S
C834 H859 0.950 . S
C835 C834 1.349 . S
C835 C851 1.349 . S
C836 C834 1.327 . S
C836 C855 1.429 . S
C836 H860 0.950 . S
C837 C854 1.574 . S
C837 C856 1.368 . S
C837 H861 0.949 . S
H838 C842 0.949 . S
C839 C840 1.349 . S
C839 C841 1.327 . S
C839 H862 0.950 . S
C840 C839 1.349 . S
C840 C852 1.349 . S
C841 C839 1.327 . S
C841 C857 1.429 . S
C841 H863 0.950 . S
C842 H838 0.949 . S
C842 C850 1.574 . S
C842 C858 1.368 . S
H843 C851 0.950 . S
H844 C849 0.950 . S
H845 C850 0.949 . S
H846 C852 0.950 . S
H847 C853 0.950 . S
H848 C854 0.949 . S
C849 H844 0.950 . S
C849 C851 1.327 . S
C849 C855 1.429 . S
C850 C842 1.574 . S
C850 H845 0.949 . S
C850 C856 1.368 . S
C851 C835 1.349 . S
C851 H843 0.950 . S
C851 C849 1.327 . S
C852 C840 1.349 . S
C852 H846 0.950 . S
C852 C853 1.327 . S
C853 H847 0.950 . S
C853 C852 1.327 . S
C853 C857 1.429 . S
C854 C837 1.574 . S
C854 H848 0.949 . S
C854 C858 1.368 . S
C855 C836 1.429 . S
C855 C849 1.429 . S
C855 C856 1.523 . S
C856 C837 1.368 . S
C856 C850 1.368 . S
C856 C855 1.523 . S
C857 C841 1.429 . S
C857 C853 1.429 . S
C857 C858 1.523 . S
C858 C842 1.368 . S
C858 C854 1.368 . S
C858 C857 1.523 . S
H859 C834 0.950 . S
H860 C836 0.950 . S
H861 C837 0.949 . S
H862 C839 0.950 . S
H863 C841 0.950 . S
C864 C865 1.349 . S
C864 C866 1.327 . S
C864 H889 0.950 . S
C865 C864 1.349 . S
C865 C881 1.349 . S
C866 C864 1.327 . S
C866 C885 1.429 . S
C866 H890 0.950 . S
C867 C884 1.574 . S
C867 C886 1.368 . S
C867 H891 0.949 . S
H868 C872 0.949 . S
C869 C870 1.349 . S
C869 C871 1.327 . S
C869 H892 0.950 . S
C870 C869 1.349 . S
C870 C882 1.349 . S
C871 C869 1.327 . S
C871 C887 1.429 . S
C871 H893 0.950 . S
C872 H868 0.949 . S
C872 C880 1.574 . S
C872 C888 1.368 . S
H873 C881 0.950 . S
H874 C879 0.950 . S
H875 C880 0.949 . S
H876 C882 0.950 . S
H877 C883 0.950 . S
H878 C884 0.949 . S
C879 H874 0.950 . S
C879 C881 1.327 . S
C879 C885 1.429 . S
C880 C872 1.574 . S
C880 H875 0.949 . S
C880 C886 1.368 . S
C881 C865 1.349 . S
C881 H873 0.950 . S
C881 C879 1.327 . S
C882 C870 1.349 . S
C882 H876 0.950 . S
C882 C883 1.327 . S
C883 H877 0.950 . S
C883 C882 1.327 . S
C883 C887 1.429 . S
C884 C867 1.574 . S
C884 H878 0.949 . S
C884 C888 1.368 . S
C885 C866 1.429 . S
C885 C879 1.429 . S
C885 C886 1.523 . S
C886 C867 1.368 . S
C886 C880 1.368 . S
C886 C885 1.523 . S
C887 C871 1.429 . S
C887 C883 1.429 . S
C887 C888 1.523 . S
C888 C872 1.368 . S
C888 C884 1.368 . S
C888 C887 1.523 . S
H889 C864 0.950 . S
H890 C866 0.950 . S
H891 C867 0.949 . S
H892 C869 0.950 . S
H893 C871 0.950 . S
C894 C895 1.349 . S
C894 C896 1.327 . S
C894 H919 0.950 . S
C895 C894 1.349 . S
C895 C911 1.342 1_655 S
C896 C894 1.327 . S
C896 C915 1.429 . S
C896 H920 0.950 . S
C897 C914 1.574 . S
C897 C916 1.355 1_455 S
C897 H921 0.949 . S
H898 C902 0.949 . S
C899 C900 1.349 . S
C899 C901 1.327 . S
C899 H922 0.950 . S
C900 C899 1.349 . S
C900 C912 1.342 1_455 S
C901 C899 1.327 . S
C901 C917 1.429 . S
C901 H923 0.950 . S
C902 H898 0.949 . S
C902 C910 1.574 . S
C902 C918 1.355 1_655 S
H903 C911 0.956 . S
H904 C909 0.950 . S
H905 C910 0.949 . S
H906 C912 0.956 . S
H907 C913 0.950 . S
H908 C914 0.949 . S
C909 H904 0.950 . S
C909 C911 1.328 . S
C909 C915 1.429 1_455 S
C910 C902 1.574 . S
C910 H905 0.949 . S
C910 C916 1.382 . S
C911 C895 1.342 1_455 S
C911 H903 0.956 . S
C911 C909 1.328 . S
C912 C900 1.342 1_655 S
C912 H906 0.956 . S
C912 C913 1.328 . S
C913 H907 0.950 . S
C913 C912 1.328 . S
C913 C917 1.429 1_655 S
C914 C897 1.574 . S
C914 H908 0.949 . S
C914 C918 1.382 . S
C915 C896 1.429 . S
C915 C909 1.429 1_655 S
C915 C916 1.524 . S
C916 C897 1.355 1_655 S
C916 C910 1.382 . S
C916 C915 1.524 . S
C917 C901 1.429 . S
C917 C913 1.429 1_455 S
C917 C918 1.524 . S
C918 C902 1.355 1_455 S
C918 C914 1.382 . S
C918 C917 1.524 . S
H919 C894 0.950 . S
H920 C896 0.950 . S
H921 C897 0.949 . S
H922 C899 0.950 . S
H923 C901 0.950 . S
C924 C925 1.349 . S
C924 C926 1.327 . S
C924 H949 0.950 . S
C925 C924 1.349 . S
C925 C941 1.349 . S
C926 C924 1.327 . S
C926 C945 1.429 . S
C926 H950 0.950 . S
C927 C944 1.574 . S
C927 C946 1.368 . S
C927 H951 0.949 . S
H928 C932 0.949 . S
C929 C930 1.349 . S
C929 C931 1.327 . S
C929 H952 0.950 . S
C930 C929 1.349 . S
C930 C942 1.349 . S
C931 C929 1.327 . S
C931 C947 1.429 . S
C931 H953 0.950 . S
C932 H928 0.949 . S
C932 C940 1.574 . S
C932 C948 1.368 . S
H933 C941 0.950 . S
H934 C939 0.950 . S
H935 C940 0.949 . S
H936 C942 0.950 . S
H937 C943 0.950 . S
H938 C944 0.949 . S
C939 H934 0.950 . S
C939 C941 1.327 . S
C939 C945 1.429 . S
C940 C932 1.574 . S
C940 H935 0.949 . S
C940 C946 1.368 . S
C941 C925 1.349 . S
C941 H933 0.950 . S
C941 C939 1.327 . S
C942 C930 1.349 . S
C942 H936 0.950 . S
C942 C943 1.327 . S
C943 H937 0.950 . S
C943 C942 1.327 . S
C943 C947 1.429 . S
C944 C927 1.574 . S
C944 H938 0.949 . S
C944 C948 1.368 . S
C945 C926 1.429 . S
C945 C939 1.429 . S
C945 C946 1.523 . S
C946 C927 1.368 . S
C946 C940 1.368 . S
C946 C945 1.523 . S
C947 C931 1.429 . S
C947 C943 1.429 . S
C947 C948 1.523 . S
C948 C932 1.368 . S
C948 C944 1.368 . S
C948 C947 1.523 . S
H949 C924 0.950 . S
H950 C926 0.950 . S
H951 C927 0.949 . S
H952 C929 0.950 . S
H953 C931 0.950 . S
C954 C955 1.349 1_545 S
C954 C956 1.327 . S
C954 H979 0.950 . S
C955 C954 1.349 1_565 S
C955 C971 1.349 . S
C956 C954 1.327 . S
C956 C975 1.429 1_545 S
C956 H980 0.950 . S
C957 C974 1.574 . S
C957 C976 1.377 . S
C957 H981 0.949 . S
H958 C962 0.949 . S
C959 C960 1.349 1_565 S
C959 C961 1.327 . S
C959 H982 0.950 . S
C960 C959 1.349 1_545 S
C960 C972 1.349 . S
C961 C959 1.327 . S
C961 C977 1.429 1_565 S
C961 H983 0.950 . S
C962 H958 0.949 . S
C962 C970 1.574 . S
C962 C978 1.377 . S
H963 C971 0.950 . S
H964 C969 0.950 . S
H965 C970 0.949 . S
H966 C972 0.950 . S
H967 C973 0.950 . S
H968 C974 0.949 . S
C969 H964 0.950 . S
C969 C971 1.327 . S
C969 C975 1.429 . S
C970 C962 1.574 . S
C970 H965 0.949 . S
C970 C976 1.360 1_545 S
C971 C955 1.349 . S
C971 H963 0.950 . S
C971 C969 1.327 . S
C972 C960 1.349 . S
C972 H966 0.950 . S
C972 C973 1.327 . S
C973 H967 0.950 . S
C973 C972 1.327 . S
C973 C977 1.429 . S
C974 C957 1.574 . S
C974 H968 0.949 . S
C974 C978 1.360 1_565 S
C975 C956 1.429 1_565 S
C975 C969 1.429 . S
C975 C976 1.524 . S
C976 C957 1.377 . S
C976 C970 1.360 1_565 S
C976 C975 1.524 . S
C977 C961 1.429 1_545 S
C977 C973 1.429 . S
C977 C978 1.524 . S
C978 C962 1.377 . S
C978 C974 1.360 1_545 S
C978 C977 1.524 . S
H979 C954 0.950 . S
H980 C956 0.950 . S
H981 C957 0.949 . S
H982 C959 0.950 . S
H983 C961 0.950 . S
C984 C985 1.349 . S
C984 C986 1.327 . S
C984 H1009 0.950 . S
C985 C984 1.349 . S
C985 C1001 1.349 . S
C986 C984 1.327 . S
C986 C1005 1.429 . S
C986 H1010 0.950 . S
C987 C1004 1.574 . S
C987 C1006 1.368 . S
C987 H1011 0.949 . S
H988 C992 0.949 . S
C989 C990 1.349 . S
C989 C991 1.327 . S
C989 H1012 0.950 . S
C990 C989 1.349 . S
C990 C1002 1.349 . S
C991 C989 1.327 . S
C991 C1007 1.429 . S
C991 H1013 0.950 . S
C992 H988 0.949 . S
C992 C1000 1.574 . S
C992 C1008 1.368 . S
H993 C1001 0.950 . S
H994 C999 0.950 . S
H995 C1000 0.949 . S
H996 C1002 0.950 . S
H997 C1003 0.950 . S
H998 C1004 0.949 . S
C999 H994 0.950 . S
C999 C1001 1.327 . S
C999 C1005 1.429 . S
C1000 C992 1.574 . S
C1000 H995 0.949 . S
C1000 C1006 1.368 . S
C1001 C985 1.349 . S
C1001 H993 0.950 . S
C1001 C999 1.327 . S
C1002 C990 1.349 . S
C1002 H996 0.950 . S
C1002 C1003 1.327 . S
C1003 H997 0.950 . S
C1003 C1002 1.327 . S
C1003 C1007 1.429 . S
C1004 C987 1.574 . S
C1004 H998 0.949 . S
C1004 C1008 1.368 . S
C1005 C986 1.429 . S
C1005 C999 1.429 . S
C1005 C1006 1.523 . S
C1006 C987 1.368 . S
C1006 C1000 1.368 . S
C1006 C1005 1.523 . S
C1007 C991 1.429 . S
C1007 C1003 1.429 . S
C1007 C1008 1.523 . S
C1008 C992 1.368 . S
C1008 C1004 1.368 . S
C1008 C1007 1.523 . S
H1009 C984 0.950 . S
H1010 C986 0.950 . S
H1011 C987 0.949 . S
H1012 C989 0.950 . S
H1013 C991 0.950 . S
C1014 C1015 1.349 . S
C1014 C1016 1.327 . S
C1014 H1039 0.950 . S
C1015 C1014 1.349 . S
C1015 C1031 1.349 . S
C1016 C1014 1.327 . S
C1016 C1035 1.429 . S
C1016 H1040 0.950 . S
C1017 C1034 1.574 . S
C1017 C1036 1.368 . S
C1017 H1041 0.949 . S
H1018 C1022 0.949 . S
C1019 C1020 1.349 . S
C1019 C1021 1.327 . S
C1019 H1042 0.950 . S
C1020 C1019 1.349 . S
C1020 C1032 1.349 . S
C1021 C1019 1.327 . S
C1021 C1037 1.429 . S
C1021 H1043 0.950 . S
C1022 H1018 0.949 . S
C1022 C1030 1.574 . S
C1022 C1038 1.368 . S
H1023 C1031 0.950 . S
H1024 C1029 0.950 . S
H1025 C1030 0.949 . S
H1026 C1032 0.950 . S
H1027 C1033 0.950 . S
H1028 C1034 0.949 . S
C1029 H1024 0.950 . S
C1029 C1031 1.327 . S
C1029 C1035 1.429 . S
C1030 C1022 1.574 . S
C1030 H1025 0.949 . S
C1030 C1036 1.368 . S
C1031 C1015 1.349 . S
C1031 H1023 0.950 . S
C1031 C1029 1.327 . S
C1032 C1020 1.349 . S
C1032 H1026 0.950 . S
C1032 C1033 1.327 . S
C1033 H1027 0.950 . S
C1033 C1032 1.327 . S
C1033 C1037 1.429 . S
C1034 C1017 1.574 . S
C1034 H1028 0.949 . S
C1034 C1038 1.368 . S
C1035 C1016 1.429 . S
C1035 C1029 1.429 . S
C1035 C1036 1.523 . S
C1036 C1017 1.368 . S
C1036 C1030 1.368 . S
C1036 C1035 1.523 . S
C1037 C1021 1.429 . S
C1037 C1033 1.429 . S
C1037 C1038 1.523 . S
C1038 C1022 1.368 . S
C1038 C1034 1.368 . S
C1038 C1037 1.523 . S
H1039 C1014 0.950 . S
H1040 C1016 0.950 . S
H1041 C1017 0.949 . S
H1042 C1019 0.950 . S
H1043 C1021 0.950 . S
C1044 C1045 1.349 . S
C1044 C1046 1.327 . S
C1044 H1069 0.950 . S
C1045 C1044 1.349 . S
C1045 C1061 1.349 . S
C1046 C1044 1.327 . S
C1046 C1065 1.429 . S
C1046 H1070 0.950 . S
C1047 C1064 1.574 . S
C1047 C1066 1.368 . S
C1047 H1071 0.949 . S
H1048 C1052 0.949 . S
C1049 C1050 1.349 . S
C1049 C1051 1.327 . S
C1049 H1072 0.950 . S
C1050 C1049 1.349 . S
C1050 C1062 1.349 . S
C1051 C1049 1.327 . S
C1051 C1067 1.429 . S
C1051 H1073 0.950 . S
C1052 H1048 0.949 . S
C1052 C1060 1.574 . S
C1052 C1068 1.368 . S
H1053 C1061 0.950 . S
H1054 C1059 0.950 . S
H1055 C1060 0.949 . S
H1056 C1062 0.950 . S
H1057 C1063 0.950 . S
H1058 C1064 0.949 . S
C1059 H1054 0.950 . S
C1059 C1061 1.327 . S
C1059 C1065 1.429 . S
C1060 C1052 1.574 . S
C1060 H1055 0.949 . S
C1060 C1066 1.368 . S
C1061 C1045 1.349 . S
C1061 H1053 0.950 . S
C1061 C1059 1.327 . S
C1062 C1050 1.349 . S
C1062 H1056 0.950 . S
C1062 C1063 1.327 . S
C1063 H1057 0.950 . S
C1063 C1062 1.327 . S
C1063 C1067 1.429 . S
C1064 C1047 1.574 . S
C1064 H1058 0.949 . S
C1064 C1068 1.368 . S
C1065 C1046 1.429 . S
C1065 C1059 1.429 . S
C1065 C1066 1.523 . S
C1066 C1047 1.368 . S
C1066 C1060 1.368 . S
C1066 C1065 1.523 . S
C1067 C1051 1.429 . S
C1067 C1063 1.429 . S
C1067 C1068 1.523 . S
C1068 C1052 1.368 . S
C1068 C1064 1.368 . S
C1068 C1067 1.523 . S
H1069 C1044 0.950 . S
H1070 C1046 0.950 . S
H1071 C1047 0.949 . S
H1072 C1049 0.950 . S
H1073 C1051 0.950 . S
C1074 C1075 1.349 . S
C1074 C1076 1.327 . S
C1074 H1099 0.950 . S
C1075 C1074 1.349 . S
C1075 C1091 1.349 . S
C1076 C1074 1.327 . S
C1076 C1095 1.429 . S
C1076 H1100 0.950 . S
C1077 C1094 1.574 . S
C1077 C1096 1.368 . S
C1077 H1101 0.949 . S
H1078 C1082 0.949 . S
C1079 C1080 1.349 . S
C1079 C1081 1.327 . S
C1079 H1102 0.950 . S
C1080 C1079 1.349 . S
C1080 C1092 1.349 . S
C1081 C1079 1.327 . S
C1081 C1097 1.429 . S
C1081 H1103 0.950 . S
C1082 H1078 0.949 . S
C1082 C1090 1.574 . S
C1082 C1098 1.368 . S
H1083 C1091 0.950 . S
H1084 C1089 0.950 . S
H1085 C1090 0.949 . S
H1086 C1092 0.950 . S
H1087 C1093 0.950 . S
H1088 C1094 0.949 . S
C1089 H1084 0.950 . S
C1089 C1091 1.327 . S
C1089 C1095 1.429 . S
C1090 C1082 1.574 . S
C1090 H1085 0.949 . S
C1090 C1096 1.368 . S
C1091 C1075 1.349 . S
C1091 H1083 0.950 . S
C1091 C1089 1.327 . S
C1092 C1080 1.349 . S
C1092 H1086 0.950 . S
C1092 C1093 1.327 . S
C1093 H1087 0.950 . S
C1093 C1092 1.327 . S
C1093 C1097 1.429 . S
C1094 C1077 1.574 . S
C1094 H1088 0.949 . S
C1094 C1098 1.368 . S
C1095 C1076 1.429 . S
C1095 C1089 1.429 . S
C1095 C1096 1.523 . S
C1096 C1077 1.368 . S
C1096 C1090 1.368 . S
C1096 C1095 1.523 . S
C1097 C1081 1.429 . S
C1097 C1093 1.429 . S
C1097 C1098 1.523 . S
C1098 C1082 1.368 . S
C1098 C1094 1.368 . S
C1098 C1097 1.523 . S
H1099 C1074 0.950 . S
H1100 C1076 0.950 . S
H1101 C1077 0.949 . S
H1102 C1079 0.950 . S
H1103 C1081 0.950 . S
C1104 C1105 1.349 . S
C1104 C1106 1.327 . S
C1104 H1129 0.950 . S
C1105 C1104 1.349 . S
C1105 C1121 1.349 . S
C1106 C1104 1.327 . S
C1106 C1125 1.429 . S
C1106 H1130 0.950 . S
C1107 C1124 1.574 . S
C1107 C1126 1.368 . S
C1107 H1131 0.949 . S
H1108 C1112 0.949 . S
C1109 C1110 1.349 . S
C1109 C1111 1.327 . S
C1109 H1132 0.950 . S
C1110 C1109 1.349 . S
C1110 C1122 1.349 . S
C1111 C1109 1.327 . S
C1111 C1127 1.429 . S
C1111 H1133 0.950 . S
C1112 H1108 0.949 . S
C1112 C1120 1.574 . S
C1112 C1128 1.368 . S
H1113 C1121 0.950 . S
H1114 C1119 0.950 . S
H1115 C1120 0.949 . S
H1116 C1122 0.950 . S
H1117 C1123 0.950 . S
H1118 C1124 0.949 . S
C1119 H1114 0.950 . S
C1119 C1121 1.327 . S
C1119 C1125 1.429 . S
C1120 C1112 1.574 . S
C1120 H1115 0.949 . S
C1120 C1126 1.368 . S
C1121 C1105 1.349 . S
C1121 H1113 0.950 . S
C1121 C1119 1.327 . S
C1122 C1110 1.349 . S
C1122 H1116 0.950 . S
C1122 C1123 1.327 . S
C1123 H1117 0.950 . S
C1123 C1122 1.327 . S
C1123 C1127 1.429 . S
C1124 C1107 1.574 . S
C1124 H1118 0.949 . S
C1124 C1128 1.368 . S
C1125 C1106 1.429 . S
C1125 C1119 1.429 . S
C1125 C1126 1.523 . S
C1126 C1107 1.368 . S
C1126 C1120 1.368 . S
C1126 C1125 1.523 . S
C1127 C1111 1.429 . S
C1127 C1123 1.429 . S
C1127 C1128 1.523 . S
C1128 C1112 1.368 . S
C1128 C1124 1.368 . S
C1128 C1127 1.523 . S
H1129 C1104 0.950 . S
H1130 C1106 0.950 . S
H1131 C1107 0.949 . S
H1132 C1109 0.950 . S
H1133 C1111 0.950 . S
C1134 C1135 1.349 . S
C1134 C1136 1.327 . S
C1134 H1159 0.950 . S
C1135 C1134 1.349 . S
C1135 C1151 1.349 . S
C1136 C1134 1.327 . S
C1136 C1155 1.429 . S
C1136 H1160 0.950 . S
C1137 C1154 1.574 . S
C1137 C1156 1.368 . S
C1137 H1161 0.949 . S
H1138 C1142 0.949 . S
C1139 C1140 1.349 . S
C1139 C1141 1.327 . S
C1139 H1162 0.950 . S
C1140 C1139 1.349 . S
C1140 C1152 1.349 . S
C1141 C1139 1.327 . S
C1141 C1157 1.429 . S
C1141 H1163 0.950 . S
C1142 H1138 0.949 . S
C1142 C1150 1.574 . S
C1142 C1158 1.368 . S
H1143 C1151 0.950 . S
H1144 C1149 0.950 . S
H1145 C1150 0.949 . S
H1146 C1152 0.950 . S
H1147 C1153 0.950 . S
H1148 C1154 0.949 . S
C1149 H1144 0.950 . S
C1149 C1151 1.327 . S
C1149 C1155 1.429 . S
C1150 C1142 1.574 . S
C1150 H1145 0.949 . S
C1150 C1156 1.368 . S
C1151 C1135 1.349 . S
C1151 H1143 0.950 . S
C1151 C1149 1.327 . S
C1152 C1140 1.349 . S
C1152 H1146 0.950 . S
C1152 C1153 1.327 . S
C1153 H1147 0.950 . S
C1153 C1152 1.327 . S
C1153 C1157 1.429 . S
C1154 C1137 1.574 . S
C1154 H1148 0.949 . S
C1154 C1158 1.368 . S
C1155 C1136 1.429 . S
C1155 C1149 1.429 . S
C1155 C1156 1.523 . S
C1156 C1137 1.368 . S
C1156 C1150 1.368 . S
C1156 C1155 1.523 . S
C1157 C1141 1.429 . S
C1157 C1153 1.429 . S
C1157 C1158 1.523 . S
C1158 C1142 1.368 . S
C1158 C1154 1.368 . S
C1158 C1157 1.523 . S
H1159 C1134 0.950 . S
H1160 C1136 0.950 . S
H1161 C1137 0.949 . S
H1162 C1139 0.950 . S
H1163 C1141 0.950 . S
C535 C1 1.776 . S
C540 C328 1.618 . S
C565 C90 1.776 . S
C570 C417 1.618 . S
C595 C179 1.776 . S
C600 C506 1.618 . S
C625 C268 1.776 . S
C630 C61 1.618 . S
C655 C357 1.776 . S
C660 C150 1.618 . S
C685 C446 1.776 . S
C690 C239 1.618 . S
C715 C463 3.210 . S
C720 C73 3.163 . S
C745 C162 3.163 . S
C750 C285 3.209 1_565 S
C775 C374 3.209 1_455 S
C780 C251 3.163 . S
C805 C107 3.210 . S
C810 C340 3.163 . S
C835 C429 3.163 . S
C840 C196 3.209 1_545 S
C865 C18 3.209 1_655 S
C870 C518 3.163 . S
C895 C419 1.310 . S
C900 C63 1.310 . S
C925 C508 1.310 . S
C930 C152 1.310 . S
C955 C241 1.310 . S
C960 C330 1.310 . S
C985 C26 0.614 . S
C990 C159 0.747 . S
C1015 C248 0.747 . S
C1020 C115 0.614 . S
C1045 C70 0.747 . S
C1050 C204 0.614 . S
C1075 C515 0.747 . S
C1080 C293 0.614 . S
C1105 C337 0.747 . S
C1110 C382 0.614 . S
C1135 C471 0.614 . S
C1140 C426 0.747 . S
