# Generated by pormake.
# Topology uoi, (4)-cn, num edge types: 1
# Building blocks:
#     Node 0, Type 0, BuildingBlock: NAHDIM_clean_sbu_0, # of connection points: 4
#     Node 1, Type 0, BuildingBlock: NAHDIM_clean_sbu_0, # of connection points: 4
#     Node 2, Type 0, BuildingBlock: NAHDIM_clean_sbu_0, # of connection points: 4
#     Node 3, Type 0, BuildingBlock: NAHDIM_clean_sbu_0, # of connection points: 4
#     Node 4, Type 0, BuildingBlock: NAHDIM_clean_sbu_0, # of connection points: 4
#     Node 5, Type 0, BuildingBlock: NAHDIM_clean_sbu_0, # of connection points: 4
#     Node 6, Type 0, BuildingBlock: NAHDIM_clean_sbu_0, # of connection points: 4
#     Node 7, Type 0, BuildingBlock: NAHDIM_clean_sbu_0, # of connection points: 4
#     Node 8, Type 0, BuildingBlock: NAHDIM_clean_sbu_0, # of connection points: 4
#     Node 9, Type 0, BuildingBlock: NAHDIM_clean_sbu_0, # of connection points: 4
#     Node 10, Type 0, BuildingBlock: NAHDIM_clean_sbu_0, # of connection points: 4
#     Node 11, Type 0, BuildingBlock: NAHDIM_clean_sbu_0, # of connection points: 4
#     Node 12, Type 0, BuildingBlock: NAHDIM_clean_sbu_0, # of connection points: 4
#     Node 13, Type 0, BuildingBlock: NAHDIM_clean_sbu_0, # of connection points: 4
#     Node 14, Type 0, BuildingBlock: NAHDIM_clean_sbu_0, # of connection points: 4
#     Node 15, Type 0, BuildingBlock: NAHDIM_clean_sbu_0, # of connection points: 4
#     Node 16, Type 0, BuildingBlock: NAHDIM_clean_sbu_0, # of connection points: 4
#     Node 17, Type 0, BuildingBlock: NAHDIM_clean_sbu_0, # of connection points: 4
#     Node 18, Type 0, BuildingBlock: NAHDIM_clean_sbu_0, # of connection points: 4
#     Node 19, Type 0, BuildingBlock: NAHDIM_clean_sbu_0, # of connection points: 4
#     Node 20, Type 0, BuildingBlock: NAHDIM_clean_sbu_0, # of connection points: 4
#     Node 21, Type 0, BuildingBlock: NAHDIM_clean_sbu_0, # of connection points: 4
#     Node 22, Type 0, BuildingBlock: NAHDIM_clean_sbu_0, # of connection points: 4
#     Node 23, Type 0, BuildingBlock: NAHDIM_clean_sbu_0, # of connection points: 4
#     Node 24, Type 0, BuildingBlock: NAHDIM_clean_sbu_0, # of connection points: 4
#     Node 25, Type 0, BuildingBlock: NAHDIM_clean_sbu_0, # of connection points: 4
#     Node 26, Type 0, BuildingBlock: NAHDIM_clean_sbu_0, # of connection points: 4
#     Node 27, Type 0, BuildingBlock: NAHDIM_clean_sbu_0, # of connection points: 4
#     Node 28, Type 0, BuildingBlock: NAHDIM_clean_sbu_0, # of connection points: 4
#     Node 29, Type 0, BuildingBlock: NAHDIM_clean_sbu_0, # of connection points: 4
#     Node 30, Type 0, BuildingBlock: NAHDIM_clean_sbu_0, # of connection points: 4
#     Node 31, Type 0, BuildingBlock: NAHDIM_clean_sbu_0, # of connection points: 4
#     Edge 32, Type (0, 0), BuildingBlock: TEMPAE_clean_linker_10, # of connection points: 2
#     Edge 33, Type (0, 0), BuildingBlock: TEMPAE_clean_linker_10, # of connection points: 2
#     Edge 34, Type (0, 0), BuildingBlock: TEMPAE_clean_linker_10, # of connection points: 2
#     Edge 35, Type (0, 0), BuildingBlock: TEMPAE_clean_linker_10, # of connection points: 2
#     Edge 36, Type (0, 0), BuildingBlock: TEMPAE_clean_linker_10, # of connection points: 2
#     Edge 37, Type (0, 0), BuildingBlock: TEMPAE_clean_linker_10, # of connection points: 2
#     Edge 38, Type (0, 0), BuildingBlock: TEMPAE_clean_linker_10, # of connection points: 2
#     Edge 39, Type (0, 0), BuildingBlock: TEMPAE_clean_linker_10, # of connection points: 2
#     Edge 40, Type (0, 0), BuildingBlock: TEMPAE_clean_linker_10, # of connection points: 2
#     Edge 41, Type (0, 0), BuildingBlock: TEMPAE_clean_linker_10, # of connection points: 2
#     Edge 42, Type (0, 0), BuildingBlock: TEMPAE_clean_linker_10, # of connection points: 2
#     Edge 43, Type (0, 0), BuildingBlock: TEMPAE_clean_linker_10, # of connection points: 2
#     Edge 44, Type (0, 0), BuildingBlock: TEMPAE_clean_linker_10, # of connection points: 2
#     Edge 45, Type (0, 0), BuildingBlock: TEMPAE_clean_linker_10, # of connection points: 2
#     Edge 46, Type (0, 0), BuildingBlock: TEMPAE_clean_linker_10, # of connection points: 2
#     Edge 47, Type (0, 0), BuildingBlock: TEMPAE_clean_linker_10, # of connection points: 2
#     Edge 48, Type (0, 0), BuildingBlock: TEMPAE_clean_linker_10, # of connection points: 2
#     Edge 49, Type (0, 0), BuildingBlock: TEMPAE_clean_linker_10, # of connection points: 2
#     Edge 50, Type (0, 0), BuildingBlock: TEMPAE_clean_linker_10, # of connection points: 2
#     Edge 51, Type (0, 0), BuildingBlock: TEMPAE_clean_linker_10, # of connection points: 2
#     Edge 52, Type (0, 0), BuildingBlock: TEMPAE_clean_linker_10, # of connection points: 2
#     Edge 53, Type (0, 0), BuildingBlock: TEMPAE_clean_linker_10, # of connection points: 2
#     Edge 54, Type (0, 0), BuildingBlock: TEMPAE_clean_linker_10, # of connection points: 2
#     Edge 55, Type (0, 0), BuildingBlock: TEMPAE_clean_linker_10, # of connection points: 2
#     Edge 56, Type (0, 0), BuildingBlock: TEMPAE_clean_linker_10, # of connection points: 2
#     Edge 57, Type (0, 0), BuildingBlock: TEMPAE_clean_linker_10, # of connection points: 2
#     Edge 58, Type (0, 0), BuildingBlock: TEMPAE_clean_linker_10, # of connection points: 2
#     Edge 59, Type (0, 0), BuildingBlock: TEMPAE_clean_linker_10, # of connection points: 2
#     Edge 60, Type (0, 0), BuildingBlock: TEMPAE_clean_linker_10, # of connection points: 2
#     Edge 61, Type (0, 0), BuildingBlock: TEMPAE_clean_linker_10, # of connection points: 2
#     Edge 62, Type (0, 0), BuildingBlock: TEMPAE_clean_linker_10, # of connection points: 2
#     Edge 63, Type (0, 0), BuildingBlock: TEMPAE_clean_linker_10, # of connection points: 2
#     Edge 64, Type (0, 0), BuildingBlock: TEMPAE_clean_linker_10, # of connection points: 2
#     Edge 65, Type (0, 0), BuildingBlock: TEMPAE_clean_linker_10, # of connection points: 2
#     Edge 66, Type (0, 0), BuildingBlock: TEMPAE_clean_linker_10, # of connection points: 2
#     Edge 67, Type (0, 0), BuildingBlock: TEMPAE_clean_linker_10, # of connection points: 2
#     Edge 68, Type (0, 0), BuildingBlock: TEMPAE_clean_linker_10, # of connection points: 2
#     Edge 69, Type (0, 0), BuildingBlock: TEMPAE_clean_linker_10, # of connection points: 2
#     Edge 70, Type (0, 0), BuildingBlock: TEMPAE_clean_linker_10, # of connection points: 2
#     Edge 71, Type (0, 0), BuildingBlock: TEMPAE_clean_linker_10, # of connection points: 2
#     Edge 72, Type (0, 0), BuildingBlock: TEMPAE_clean_linker_10, # of connection points: 2
#     Edge 73, Type (0, 0), BuildingBlock: TEMPAE_clean_linker_10, # of connection points: 2
#     Edge 74, Type (0, 0), BuildingBlock: TEMPAE_clean_linker_10, # of connection points: 2
#     Edge 75, Type (0, 0), BuildingBlock: TEMPAE_clean_linker_10, # of connection points: 2
#     Edge 76, Type (0, 0), BuildingBlock: TEMPAE_clean_linker_10, # of connection points: 2
#     Edge 77, Type (0, 0), BuildingBlock: TEMPAE_clean_linker_10, # of connection points: 2
#     Edge 78, Type (0, 0), BuildingBlock: TEMPAE_clean_linker_10, # of connection points: 2
#     Edge 79, Type (0, 0), BuildingBlock: TEMPAE_clean_linker_10, # of connection points: 2
#     Edge 80, Type (0, 0), BuildingBlock: TEMPAE_clean_linker_10, # of connection points: 2
#     Edge 81, Type (0, 0), BuildingBlock: TEMPAE_clean_linker_10, # of connection points: 2
#     Edge 82, Type (0, 0), BuildingBlock: TEMPAE_clean_linker_10, # of connection points: 2
#     Edge 83, Type (0, 0), BuildingBlock: TEMPAE_clean_linker_10, # of connection points: 2
#     Edge 84, Type (0, 0), BuildingBlock: TEMPAE_clean_linker_10, # of connection points: 2
#     Edge 85, Type (0, 0), BuildingBlock: TEMPAE_clean_linker_10, # of connection points: 2
#     Edge 86, Type (0, 0), BuildingBlock: TEMPAE_clean_linker_10, # of connection points: 2
#     Edge 87, Type (0, 0), BuildingBlock: TEMPAE_clean_linker_10, # of connection points: 2
#     Edge 88, Type (0, 0), BuildingBlock: TEMPAE_clean_linker_10, # of connection points: 2
#     Edge 89, Type (0, 0), BuildingBlock: TEMPAE_clean_linker_10, # of connection points: 2
#     Edge 90, Type (0, 0), BuildingBlock: TEMPAE_clean_linker_10, # of connection points: 2
#     Edge 91, Type (0, 0), BuildingBlock: TEMPAE_clean_linker_10, # of connection points: 2
#     Edge 92, Type (0, 0), BuildingBlock: TEMPAE_clean_linker_10, # of connection points: 2
#     Edge 93, Type (0, 0), BuildingBlock: TEMPAE_clean_linker_10, # of connection points: 2
#     Edge 94, Type (0, 0), BuildingBlock: TEMPAE_clean_linker_10, # of connection points: 2
#     Edge 95, Type (0, 0), BuildingBlock: TEMPAE_clean_linker_10, # of connection points: 2
# Relax obj value: 0.315
# Max RMSD: 0.189
# Mean RMSD: 0.189
data_MOF--net-uoi--node1-NAHDIM_clean_sbu_0--edge1-TEMPAE_clean_linker_10
_symmetry_space_group_name_H-M    P1
_symmetry_Int_Tables_number       1
_symmetry_cell_setting            triclinic
loop_
_symmetry_equiv_pos_as_xyz
'x, y, z'
_cell_length_a     80.980342
_cell_length_b     80.99258
_cell_length_c     19.161513
_cell_angle_alpha  90.025749
_cell_angle_beta   89.993892
_cell_angle_gamma 89.998962
loop_
_atom_site_label
_atom_site_type_symbol
_atom_site_fract_x
_atom_site_fract_y
_atom_site_fract_z
_atom_type_partial_charge
C0 C 0.13067 0.16708 0.33763 0.0
O1 O 0.12298 0.18069 0.35597 0.0
O2 O 0.18182 0.18075 0.40358 0.0
Zn3 Zn 0.15715 0.18389 0.40405 0.0
O4 O 0.15177 0.20485 0.35292 0.0
C5 C 0.15871 0.18487 0.55551 0.0
O6 O 0.17224 0.17619 0.54668 0.0
O7 O 0.14563 0.16512 0.35587 0.0
C8 C 0.15714 0.20799 0.29214 0.0
O9 O 0.1666 0.19712 0.26062 0.0
C10 C 0.18862 0.1668 0.41352 0.0
O11 O 0.17928 0.15364 0.42031 0.0
O12 O 0.14961 0.18794 0.50298 0.0
C13 C 0.08416 0.88382 0.58114 0.0
O14 O 0.07143 0.87524 0.60334 0.0
O15 O 0.07032 0.93218 0.68105 0.0
Zn16 Zn 0.06804 0.90781 0.6637 0.0
O17 O 0.04617 0.90414 0.61737 0.0
C18 C 0.06748 0.90439 0.81231 0.0
O19 O 0.07601 0.91818 0.81045 0.0
O20 O 0.08597 0.89855 0.60267 0.0
C21 C 0.04265 0.90914 0.55647 0.0
O22 O 0.05389 0.91704 0.52004 0.0
C23 C 0.07642 0.94308 0.64101 0.0
O24 O 0.0826 0.93866 0.58043 0.0
O25 O 0.06542 0.89638 0.75592 0.0
C26 C 0.34942 0.84061 0.81718 0.0
O27 O 0.3333 0.83912 0.814 0.0
O28 O 0.32276 0.81974 0.94334 0.0
Zn29 Zn 0.3461 0.81391 0.91596 0.0
O30 O 0.34536 0.79305 0.8589 0.0
C31 C 0.35332 0.81045 0.0631 0.0
O32 O 0.34146 0.82136 0.07102 0.0
O33 O 0.35747 0.83157 0.85946 0.0
C34 C 0.34334 0.77938 0.89048 0.0
O35 O 0.34113 0.77936 0.95837 0.0
C36 C 0.31068 0.81571 0.90458 0.0
O37 O 0.31364 0.80879 0.84381 0.0
O38 O 0.35871 0.80751 0.00208 0.0
C39 C 0.40751 0.10294 0.10555 0.0
O40 O 0.41113 0.08724 0.09795 0.0
O41 O 0.42822 0.07629 0.22784 0.0
Zn42 Zn 0.43356 0.1 0.20377 0.0
O43 O 0.45362 0.10021 0.14203 0.0
C44 C 0.43851 0.10497 0.35069 0.0
O45 O 0.4273 0.09333 0.35658 0.0
O46 O 0.4151 0.11128 0.15174 0.0
C47 C 0.46775 0.09746 0.16861 0.0
O48 O 0.46885 0.09418 0.23557 0.0
C49 C 0.43369 0.06436 0.19141 0.0
O50 O 0.442 0.06756 0.13413 0.0
O51 O 0.44086 0.11154 0.2913 0.0
C52 C 0.15311 0.83071 0.20582 0.0
O53 O 0.16628 0.8222 0.22355 0.0
O54 O 0.18349 0.81735 0.07851 0.0
Zn55 Zn 0.15925 0.81194 0.08704 0.0
O56 O 0.15677 0.79025 0.13771 0.0
C57 C 0.15839 0.81092 0.93596 0.0
O58 O 0.17238 0.81903 0.94109 0.0
O59 O 0.1474 0.82904 0.14437 0.0
C60 C 0.14603 0.77961 0.11956 0.0
O61 O 0.1361 0.78289 0.0672 0.0
C62 C 0.19364 0.8055 0.07137 0.0
O63 O 0.18807 0.79027 0.073 0.0
O64 O 0.1499 0.8084 0.99074 0.0
C65 C 0.41273 0.90581 0.45802 0.0
O66 O 0.4207 0.91924 0.47676 0.0
O67 O 0.42805 0.93604 0.33821 0.0
Zn68 Zn 0.43296 0.91161 0.34275 0.0
O69 O 0.45453 0.90777 0.3925 0.0
C70 C 0.43584 0.91249 0.19234 0.0
O71 O 0.4301 0.92755 0.20016 0.0
O72 O 0.41543 0.8998 0.39775 0.0
C73 C 0.46394 0.89586 0.37532 0.0
O74 O 0.45934 0.8858 0.32516 0.0
C75 C 0.43859 0.94682 0.35672 0.0
O76 O 0.4527 0.94195 0.38352 0.0
O77 O 0.4363 0.90295 0.24498 0.0
C78 C 0.34346 0.16053 0.7266 0.0
O79 O 0.32908 0.16744 0.73894 0.0
O80 O 0.31657 0.17123 0.57439 0.0
Zn81 Zn 0.33934 0.17894 0.60231 0.0
O82 O 0.3375 0.20093 0.65114 0.0
C83 C 0.34664 0.181 0.45585 0.0
O84 O 0.33369 0.17133 0.45017 0.0
O85 O 0.35048 0.16315 0.66827 0.0
C86 C 0.3381 0.21446 0.61744 0.0
O87 O 0.33934 0.21414 0.54912 0.0
C88 C 0.30357 0.17664 0.60367 0.0
O89 O 0.30494 0.18683 0.6567 0.0
O90 O 0.35274 0.18349 0.51604 0.0
C91 C 0.07645 0.09855 0.96425 0.0
O92 O 0.0669 0.0859 0.979 0.0
O93 O 0.06704 0.07018 0.813 0.0
Zn94 Zn 0.06059 0.09363 0.83522 0.0
O95 O 0.0382 0.09353 0.88197 0.0
C96 C 0.06353 0.10141 0.68741 0.0
O97 O 0.07376 0.08883 0.68566 0.0
O98 O 0.07652 0.10415 0.90225 0.0
C99 C 0.02523 0.09935 0.85366 0.0
O100 O 0.02605 0.10538 0.79015 0.0
C101 C 0.05697 0.06174 0.77671 0.0
O102 O 0.04302 0.06858 0.75692 0.0
O103 O 0.0582 0.10645 0.74602 0.0
C104 C 0.84858 0.84366 0.68792 0.0
O105 O 0.83261 0.8413 0.69421 0.0
O106 O 0.82064 0.82054 0.5766 0.0
Zn107 Zn 0.84534 0.81768 0.5857 0.0
O108 O 0.85031 0.79617 0.63368 0.0
C109 C 0.84548 0.81861 0.43626 0.0
O110 O 0.83221 0.82765 0.44592 0.0
O111 O 0.85646 0.83573 0.64129 0.0
C112 C 0.84138 0.78341 0.62584 0.0
O113 O 0.82805 0.78413 0.587 0.0
C114 C 0.80948 0.81669 0.62026 0.0
O115 O 0.81368 0.81108 0.68209 0.0
O116 O 0.85433 0.81484 0.48867 0.0
C117 C 0.915 0.09997 0.45584 0.0
O118 O 0.9232 0.08629 0.46834 0.0
O119 O 0.93036 0.07357 0.31858 0.0
Zn120 Zn 0.93489 0.09762 0.33629 0.0
O121 O 0.95678 0.09929 0.38612 0.0
C122 C 0.93177 0.10249 0.18747 0.0
O123 O 0.92119 0.09024 0.19186 0.0
O124 O 0.9175 0.10748 0.39852 0.0
C125 C 0.96923 0.10689 0.36134 0.0
O126 O 0.96802 0.11423 0.30045 0.0
C127 C 0.94126 0.0656 0.28473 0.0
O128 O 0.95477 0.0733 0.26518 0.0
O129 O 0.93729 0.1089 0.24334 0.0
C130 C 0.65883 0.16362 0.26367 0.0
O131 O 0.67081 0.17396 0.27899 0.0
O132 O 0.68435 0.17907 0.11522 0.0
Zn133 Zn 0.66049 0.18253 0.1411 0.0
O134 O 0.65843 0.20409 0.19366 0.0
C135 C 0.65356 0.17956 0.99426 0.0
O136 O 0.66627 0.16947 0.99537 0.0
O137 O 0.65222 0.16441 0.20356 0.0
C138 C 0.64945 0.21602 0.17293 0.0
O139 O 0.64106 0.21451 0.11462 0.0
C140 C 0.69169 0.19104 0.08557 0.0
O141 O 0.68372 0.20502 0.0769 0.0
O142 O 0.64772 0.18477 0.05174 0.0
C143 C 0.58456 0.89584 0.94035 0.0
O144 O 0.57933 0.91104 0.94988 0.0
O145 O 0.57146 0.92204 0.79458 0.0
Zn146 Zn 0.56364 0.89941 0.8235 0.0
O147 O 0.54244 0.90193 0.87844 0.0
C148 C 0.56278 0.89026 0.67705 0.0
O149 O 0.57419 0.90167 0.66995 0.0
O150 O 0.57998 0.88809 0.886 0.0
C151 C 0.52838 0.89794 0.8539 0.0
O152 O 0.52737 0.89221 0.78994 0.0
C153 C 0.56103 0.93115 0.76335 0.0
O154 O 0.54608 0.92542 0.75229 0.0
O155 O 0.55821 0.88615 0.73804 0.0
C156 C 0.84785 0.1569 0.82696 0.0
O157 O 0.83169 0.1575 0.82247 0.0
O158 O 0.81874 0.18102 0.92982 0.0
Zn159 Zn 0.84315 0.18521 0.91738 0.0
O160 O 0.84683 0.2062 0.86336 0.0
C161 C 0.84362 0.18495 0.06627 0.0
O162 O 0.83203 0.17381 0.05724 0.0
O163 O 0.85525 0.1669 0.86749 0.0
C164 C 0.83685 0.21828 0.86585 0.0
O165 O 0.82328 0.2171 0.90305 0.0
C166 C 0.80674 0.18278 0.88781 0.0
O167 O 0.80961 0.18697 0.82269 0.0
O168 O 0.8518 0.1899 0.01364 0.0
C169 C 0.60303 0.09323 0.6262 0.0
O170 O 0.60692 0.07769 0.63681 0.0
O171 O 0.57737 0.06023 0.69256 0.0
Zn172 Zn 0.57164 0.08451 0.69247 0.0
O173 O 0.55052 0.08901 0.64032 0.0
C174 C 0.55723 0.08 0.82182 0.0
O175 O 0.55417 0.06609 0.78904 0.0
O176 O 0.58931 0.09867 0.64882 0.0
C177 C 0.54047 0.07836 0.61658 0.0
O178 O 0.54389 0.06257 0.62215 0.0
C179 C 0.57964 0.05024 0.64236 0.0
O180 O 0.57934 0.05573 0.57786 0.0
O181 O 0.56601 0.09087 0.79142 0.0
C182 C 0.63557 0.83132 0.33378 0.0
O183 O 0.62548 0.8224 0.372 0.0
O184 O 0.68383 0.81612 0.42828 0.0
Zn185 Zn 0.66009 0.81171 0.40354 0.0
O186 O 0.65849 0.78979 0.35491 0.0
C187 C 0.65289 0.81356 0.55082 0.0
O188 O 0.66564 0.82358 0.55208 0.0
O189 O 0.65104 0.82929 0.34046 0.0
C190 C 0.66405 0.7872 0.29397 0.0
O191 O 0.67118 0.79936 0.26006 0.0
C192 C 0.69214 0.80428 0.45402 0.0
O193 O 0.68511 0.78974 0.46068 0.0
O194 O 0.64731 0.80878 0.49223 0.0
C195 C 0.91517 0.88837 0.08793 0.0
O196 O 0.92413 0.87743 0.12154 0.0
O197 O 0.93361 0.93526 0.18713 0.0
Zn198 Zn 0.93516 0.91103 0.16602 0.0
O199 O 0.95707 0.90703 0.12072 0.0
C200 C 0.93516 0.90603 0.31359 0.0
O201 O 0.9273 0.92022 0.31403 0.0
O202 O 0.91722 0.9036 0.10099 0.0
C203 C 0.96072 0.91196 0.05984 0.0
O204 O 0.9496 0.91997 0.02314 0.0
C205 C 0.92744 0.9462 0.14749 0.0
O206 O 0.9211 0.94181 0.08717 0.0
O207 O 0.93678 0.89845 0.25594 0.0
C208 C 0.65904 0.66673 0.74823 0.0
O209 O 0.66997 0.67809 0.73199 0.0
O210 O 0.68935 0.67771 0.88791 0.0
Zn211 Zn 0.66499 0.68207 0.87567 0.0
O212 O 0.66204 0.70442 0.83017 0.0
C213 C 0.66307 0.68225 0.02586 0.0
O214 O 0.67724 0.6744 0.02184 0.0
O215 O 0.65468 0.66524 0.81173 0.0
C216 C 0.65281 0.71567 0.85536 0.0
O217 O 0.6445 0.71279 0.91289 0.0
C218 C 0.69891 0.68993 0.89793 0.0
O219 O 0.69276 0.70493 0.89611 0.0
O220 O 0.65449 0.68393 0.97076 0.0
C221 C 0.58641 0.40737 0.07266 0.0
O222 O 0.59142 0.4222 0.09051 0.0
O223 O 0.56529 0.4363 0.19265 0.0
Zn224 Zn 0.55699 0.41435 0.15829 0.0
O225 O 0.53611 0.41773 0.10297 0.0
C226 C 0.55501 0.40348 0.30304 0.0
O227 O 0.56792 0.413 0.31313 0.0
O228 O 0.57295 0.40183 0.09741 0.0
C229 C 0.52249 0.41957 0.13516 0.0
O230 O 0.52255 0.42063 0.20355 0.0
C231 C 0.56675 0.44893 0.15389 0.0
O232 O 0.56372 0.4476 0.08676 0.0
O233 O 0.54984 0.4011 0.24127 0.0
C234 C 0.84084 0.33858 0.28144 0.0
O235 O 0.8257 0.3334 0.27032 0.0
O236 O 0.81499 0.32502 0.4321 0.0
Zn237 Zn 0.83707 0.31703 0.39721 0.0
O238 O 0.83408 0.2961 0.34214 0.0
C239 C 0.84729 0.31336 0.54172 0.0
O240 O 0.83635 0.32495 0.55436 0.0
O241 O 0.84844 0.33363 0.33562 0.0
C242 C 0.83175 0.28269 0.37523 0.0
O243 O 0.83006 0.2831 0.44336 0.0
C244 C 0.80164 0.32107 0.40151 0.0
O245 O 0.80233 0.31227 0.34398 0.0
O246 O 0.85092 0.30995 0.47884 0.0
C247 C 0.91625 0.59694 0.55896 0.0
O248 O 0.92232 0.58249 0.54111 0.0
O249 O 0.93241 0.56671 0.67417 0.0
Zn250 Zn 0.93837 0.59089 0.66853 0.0
O251 O 0.95977 0.59385 0.61627 0.0
C252 C 0.94237 0.58999 0.81859 0.0
O253 O 0.93626 0.57506 0.81181 0.0
O254 O 0.92094 0.60345 0.61602 0.0
C255 C 0.96935 0.60576 0.63172 0.0
O256 O 0.96493 0.6162 0.68076 0.0
C257 C 0.94279 0.55545 0.65951 0.0
O258 O 0.95746 0.55966 0.63633 0.0
O259 O 0.94269 0.59947 0.76571 0.0
C260 C 0.64081 0.33925 0.69684 0.0
O261 O 0.63698 0.34129 0.63077 0.0
O262 O 0.68302 0.31366 0.63169 0.0
Zn263 Zn 0.65896 0.30963 0.65098 0.0
O264 O 0.65728 0.28776 0.70097 0.0
C265 C 0.65301 0.31066 0.50131 0.0
O266 O 0.66653 0.3196 0.49989 0.0
O267 O 0.64975 0.32707 0.71459 0.0
C268 C 0.65223 0.27464 0.67113 0.0
O269 O 0.64797 0.27513 0.60506 0.0
C270 C 0.68931 0.32776 0.6199 0.0
O271 O 0.67985 0.34093 0.62186 0.0
O272 O 0.64665 0.30703 0.55999 0.0
C273 C 0.90494 0.3997 0.91295 0.0
O274 O 0.91015 0.41475 0.92589 0.0
O275 O 0.92518 0.42677 0.78812 0.0
Zn276 Zn 0.92978 0.4028 0.81006 0.0
O277 O 0.94996 0.40165 0.87102 0.0
C278 C 0.93369 0.39826 0.66235 0.0
O279 O 0.92268 0.41014 0.6585 0.0
O280 O 0.9111 0.39186 0.86165 0.0
C281 C 0.9642 0.40354 0.84415 0.0
O282 O 0.96544 0.40648 0.77695 0.0
C283 C 0.93125 0.43837 0.82474 0.0
O284 O 0.93965 0.43469 0.88126 0.0
O285 O 0.93635 0.39148 0.72109 0.0
C286 C 0.85236 0.66324 0.20542 0.0
O287 O 0.83692 0.66745 0.21646 0.0
O288 O 0.82595 0.68038 0.06465 0.0
Zn289 Zn 0.84874 0.68702 0.09632 0.0
O290 O 0.84698 0.70784 0.15313 0.0
C291 C 0.85777 0.6897 0.95038 0.0
O292 O 0.84703 0.67774 0.94131 0.0
O293 O 0.86006 0.66963 0.15427 0.0
C294 C 0.84463 0.7214 0.12113 0.0
O295 O 0.84259 0.72125 0.05315 0.0
C296 C 0.81316 0.68462 0.09869 0.0
O297 O 0.81493 0.69248 0.15823 0.0
O298 O 0.86185 0.69374 0.01209 0.0
C299 C 0.59343 0.60902 0.37448 0.0
O300 O 0.59966 0.59978 0.32464 0.0
O301 O 0.56269 0.57399 0.31937 0.0
Zn302 Zn 0.56012 0.59875 0.3258 0.0
O303 O 0.53852 0.60326 0.37326 0.0
C304 C 0.5617 0.59869 0.17607 0.0
O305 O 0.57091 0.58558 0.18666 0.0
O306 O 0.57786 0.61014 0.38131 0.0
C307 C 0.5354 0.59715 0.43278 0.0
O308 O 0.54663 0.58795 0.46341 0.0
C309 C 0.57381 0.56447 0.34325 0.0
O310 O 0.58585 0.57056 0.38119 0.0
O311 O 0.5574 0.60741 0.22819 0.0
C312 C 0.36346 0.32636 0.16626 0.0
O313 O 0.37102 0.31246 0.15114 0.0
O314 O 0.31352 0.31387 0.08568 0.0
Zn315 Zn 0.33816 0.31079 0.08714 0.0
O316 O 0.34307 0.28935 0.13508 0.0
C317 C 0.3374 0.31093 0.93576 0.0
O318 O 0.3238 0.31948 0.94463 0.0
O319 O 0.34922 0.32901 0.14084 0.0
C320 C 0.3383 0.28636 0.19686 0.0
O321 O 0.3298 0.29762 0.23074 0.0
C322 C 0.30664 0.32786 0.07811 0.0
O323 O 0.31589 0.34117 0.07448 0.0
O324 O 0.34634 0.30766 0.98855 0.0
C325 C 0.41288 0.59235 0.97103 0.0
O326 O 0.4229 0.57993 0.98332 0.0
O327 O 0.42536 0.56713 0.81509 0.0
Zn328 Zn 0.43029 0.59059 0.84414 0.0
O329 O 0.45243 0.59135 0.89223 0.0
C330 C 0.43077 0.59855 0.69818 0.0
O331 O 0.42215 0.58487 0.69265 0.0
O332 O 0.41325 0.59921 0.91133 0.0
C333 C 0.4658 0.59301 0.85799 0.0
O334 O 0.46525 0.59389 0.7896 0.0
C335 C 0.4337 0.55498 0.83785 0.0
O336 O 0.44517 0.55758 0.88501 0.0
O337 O 0.43306 0.60466 0.7585 0.0
C338 C 0.15454 0.66013 0.69035 0.0
O339 O 0.16949 0.66601 0.69991 0.0
O340 O 0.1801 0.67563 0.54749 0.0
Zn341 Zn 0.15676 0.68166 0.57422 0.0
O342 O 0.1573 0.70318 0.62794 0.0
C343 C 0.1484 0.68151 0.42682 0.0
O344 O 0.16087 0.67122 0.42111 0.0
O345 O 0.14648 0.66459 0.63664 0.0
C346 C 0.15215 0.71674 0.60226 0.0
O347 O 0.14646 0.71699 0.53811 0.0
C348 C 0.18858 0.68672 0.51713 0.0
O349 O 0.18182 0.70122 0.50567 0.0
O350 O 0.14353 0.68574 0.48727 0.0
C351 C 0.09725 0.40455 0.39488 0.0
O352 O 0.10203 0.41981 0.38352 0.0
O353 O 0.07391 0.43845 0.32148 0.0
Zn354 Zn 0.06705 0.41446 0.32211 0.0
O355 O 0.04528 0.4112 0.37086 0.0
C356 C 0.05411 0.41898 0.18985 0.0
O357 O 0.0517 0.43331 0.2203 0.0
O358 O 0.08352 0.39966 0.37017 0.0
C359 C 0.03559 0.42233 0.39323 0.0
O360 O 0.03982 0.43794 0.38842 0.0
C361 C 0.07627 0.44842 0.37169 0.0
O362 O 0.07521 0.44308 0.43626 0.0
O363 O 0.06198 0.40785 0.22289 0.0
C364 C 0.34952 0.64883 0.35484 0.0
O365 O 0.33422 0.64511 0.37131 0.0
O366 O 0.31865 0.67573 0.43363 0.0
Zn367 Zn 0.34314 0.68016 0.4272 0.0
O368 O 0.34726 0.70154 0.37624 0.0
C369 C 0.34239 0.68158 0.57714 0.0
O370 O 0.32884 0.67287 0.56882 0.0
O371 O 0.35567 0.66236 0.37615 0.0
C372 C 0.33613 0.71208 0.36211 0.0
O373 O 0.32072 0.70908 0.37918 0.0
C374 C 0.30816 0.67361 0.38514 0.0
O375 O 0.31311 0.67354 0.31983 0.0
O376 O 0.3515 0.6844 0.52445 0.0
C377 C 0.09387 0.60177 0.07694 0.0
O378 O 0.08884 0.58645 0.06934 0.0
O379 O 0.07696 0.57679 0.21715 0.0
Zn380 Zn 0.07075 0.59989 0.18766 0.0
O381 O 0.04977 0.59858 0.13043 0.0
C382 C 0.06942 0.60874 0.33422 0.0
O383 O 0.08031 0.59685 0.34184 0.0
O384 O 0.08823 0.61025 0.12746 0.0
C385 C 0.03581 0.60314 0.15426 0.0
O386 O 0.03482 0.60877 0.21839 0.0
C387 C 0.0658 0.56835 0.24726 0.0
O388 O 0.05119 0.57504 0.2569 0.0
O389 O 0.06549 0.61329 0.273 0.0
C390 C 0.1513 0.33353 0.76175 0.0
O391 O 0.16324 0.32323 0.74564 0.0
O392 O 0.17854 0.3241 0.92041 0.0
Zn393 Zn 0.15584 0.31693 0.88967 0.0
O394 O 0.15772 0.29513 0.83954 0.0
C395 C 0.14786 0.31392 0.03504 0.0
O396 O 0.16076 0.32359 0.04277 0.0
O397 O 0.14568 0.3335 0.82377 0.0
C398 C 0.15777 0.28158 0.87314 0.0
O399 O 0.1572 0.28184 0.94161 0.0
C400 C 0.19153 0.31957 0.88853 0.0
O401 O 0.19016 0.31058 0.83174 0.0
O402 O 0.1419 0.31197 0.97422 0.0
C403 C 0.41427 0.39675 0.54295 0.0
O404 O 0.42451 0.40861 0.52528 0.0
O405 O 0.42423 0.42939 0.67022 0.0
Zn406 Zn 0.42941 0.40499 0.66791 0.0
O407 O 0.45202 0.40126 0.62797 0.0
C408 C 0.42659 0.40684 0.81645 0.0
O409 O 0.41685 0.41932 0.80152 0.0
O410 O 0.41334 0.39263 0.60691 0.0
C411 C 0.46459 0.40929 0.64839 0.0
O412 O 0.46295 0.42094 0.69561 0.0
C413 C 0.43104 0.44071 0.63447 0.0
O414 O 0.44179 0.43673 0.58595 0.0
O415 O 0.43116 0.39728 0.76746 0.0
C416 C 0.27277 0.17723 0.61066 0.0
C417 C 0.28711 0.17274 0.57438 0.0
C418 C 0.25709 0.17482 0.58128 0.0
C419 C 0.25573 0.16787 0.51368 0.0
C420 C 0.27013 0.16291 0.47746 0.0
C421 C 0.28566 0.16534 0.50839 0.0
C422 C 0.242 0.18012 0.62187 0.0
C423 C 0.26917 0.15557 0.40514 0.0
C424 C 0.21312 0.15223 0.46395 0.0
C425 C 0.20646 0.16607 0.43018 0.0
C426 C 0.2294 0.15237 0.48926 0.0
C427 C 0.23925 0.16664 0.47991 0.0
C428 C 0.23288 0.18029 0.44244 0.0
C429 C 0.21654 0.17987 0.41828 0.0
C430 C 0.23575 0.1376 0.5291 0.0
C431 C 0.24307 0.19565 0.43056 0.0
H432 H 0.27378 0.18287 0.66181 0.0
H433 H 0.29669 0.16187 0.4799 0.0
H434 H 0.23565 0.1903 0.59393 0.0
H435 H 0.23313 0.16972 0.62596 0.0
H436 H 0.24511 0.18442 0.67533 0.0
H437 H 0.28142 0.15142 0.38579 0.0
H438 H 0.26058 0.1449 0.40464 0.0
H439 H 0.26418 0.16488 0.36828 0.0
H440 H 0.20541 0.14152 0.47343 0.0
H441 H 0.21152 0.19056 0.39173 0.0
H442 H 0.23749 0.14099 0.58474 0.0
H443 H 0.24796 0.13371 0.5086 0.0
H444 H 0.22714 0.12694 0.52631 0.0
H445 H 0.24544 0.20185 0.48123 0.0
H446 H 0.23683 0.20457 0.39529 0.0
H447 H 0.25524 0.19237 0.40781 0.0
C448 C 0.06834 0.9651 0.7257 0.0
C449 C 0.07545 0.9607 0.66151 0.0
C450 C 0.06628 0.98169 0.74455 0.0
C451 C 0.07151 0.99424 0.69824 0.0
C452 C 0.07913 0.98993 0.63423 0.0
C453 C 0.081 0.97319 0.61654 0.0
C454 C 0.05809 0.98577 0.81327 0.0
C455 C 0.08493 0.003 0.58372 0.0
C456 C 0.04966 0.03547 0.71566 0.0
C457 C 0.06097 0.04462 0.7554 0.0
C458 C 0.0531 0.01917 0.69562 0.0
C459 C 0.06823 0.01184 0.71565 0.0
C460 C 0.07983 0.02107 0.75484 0.0
C461 C 0.07605 0.03735 0.77436 0.0
C462 C 0.04039 0.00971 0.65399 0.0
C463 C 0.09611 0.01365 0.777 0.0
H464 H 0.06407 0.95556 0.76101 0.0
H465 H 0.08654 0.96991 0.56696 0.0
H466 H 0.0661 0.99408 0.84445 0.0
H467 H 0.04633 0.99242 0.80361 0.0
H468 H 0.05537 0.97457 0.84469 0.0
H469 H 0.09148 0.99764 0.53808 0.0
H470 H 0.07419 0.0102 0.56453 0.0
H471 H 0.09332 0.01179 0.61044 0.0
H472 H 0.038 0.04099 0.70055 0.0
H473 H 0.08489 0.04436 0.8048 0.0
H474 H 0.03613 0.99884 0.68426 0.0
H475 H 0.04596 0.00502 0.60496 0.0
H476 H 0.02947 0.01739 0.64057 0.0
H477 H 0.09388 0.003 0.81216 0.0
H478 H 0.10409 0.0227 0.80458 0.0
H479 H 0.10287 0.00891 0.73078 0.0
C480 C 0.22252 0.79562 0.0536 0.0
C481 C 0.21119 0.80871 0.05469 0.0
C482 C 0.2389 0.79809 0.03238 0.0
C483 C 0.24405 0.81402 0.01123 0.0
C484 C 0.23282 0.8274 0.01409 0.0
C485 C 0.21651 0.82459 0.03606 0.0
C486 C 0.25056 0.78353 0.03069 0.0
C487 C 0.23788 0.84454 0.9917 0.0
C488 C 0.2904 0.82063 0.00102 0.0
C489 C 0.29353 0.81716 0.93047 0.0
C490 C 0.27427 0.82021 0.02774 0.0
C491 C 0.26096 0.81637 0.9827 0.0
C492 C 0.26396 0.8136 0.91085 0.0
C493 C 0.28022 0.81397 0.88566 0.0
C494 C 0.27155 0.82317 0.1047 0.0
C495 C 0.25007 0.80962 0.86102 0.0
H496 H 0.21853 0.78333 0.06835 0.0
H497 H 0.20782 0.83476 0.03664 0.0
H498 H 0.25433 0.78098 0.97607 0.0
H499 H 0.26193 0.78639 0.06063 0.0
H500 H 0.24489 0.77218 0.05265 0.0
H501 H 0.22802 0.8538 0.00135 0.0
H502 H 0.24919 0.84843 0.01985 0.0
H503 H 0.24084 0.84452 0.93516 0.0
H504 H 0.30063 0.82309 0.03602 0.0
H505 H 0.28252 0.81139 0.831 0.0
H506 H 0.26727 0.81159 0.12976 0.0
H507 H 0.26177 0.83256 0.11275 0.0
H508 H 0.28297 0.82735 0.1315 0.0
H509 H 0.24455 0.79752 0.87496 0.0
H510 H 0.25431 0.80905 0.80593 0.0
H511 H 0.24016 0.81903 0.86521 0.0
C512 C 0.43864 0.03411 0.17705 0.0
C513 C 0.43199 0.04714 0.21626 0.0
C514 C 0.43841 0.01788 0.20235 0.0
C515 C 0.43134 0.01457 0.26845 0.0
C516 C 0.42415 0.02756 0.30741 0.0
C517 C 0.42457 0.04372 0.28085 0.0
C518 C 0.44618 0.00433 0.15918 0.0
C519 C 0.41645 0.02448 0.37797 0.0
C520 C 0.42161 0.96954 0.30465 0.0
C521 C 0.4358 0.9645 0.34089 0.0
C522 C 0.41968 0.98598 0.28293 0.0
C523 C 0.43223 0.99761 0.29781 0.0
C524 C 0.44625 0.99275 0.33686 0.0
C525 C 0.44786 0.97625 0.35796 0.0
C526 C 0.40452 0.99073 0.2417 0.0
C527 C 0.45987 0.00483 0.35396 0.0
H528 H 0.44436 0.03663 0.12703 0.0
H529 H 0.41939 0.05371 0.31149 0.0
H530 H 0.45688 0.99904 0.18759 0.0
H531 H 0.4372 0.99419 0.15068 0.0
H532 H 0.45051 0.00883 0.10756 0.0
H533 H 0.41042 0.0357 0.39954 0.0
H534 H 0.40712 0.01449 0.37433 0.0
H535 H 0.42607 0.02032 0.41522 0.0
H536 H 0.4122 0.96055 0.29142 0.0
H537 H 0.45882 0.97249 0.38624 0.0
H538 H 0.40813 0.99391 0.18748 0.0
H539 H 0.39864 0.00184 0.26473 0.0
H540 H 0.39526 0.98062 0.23974 0.0
H541 H 0.46596 0.00894 0.30507 0.0
H542 H 0.4694 0.99937 0.38872 0.0
H543 H 0.4547 0.01597 0.37963 0.0
C544 C 0.71938 0.79334 0.49369 0.0
C545 C 0.70921 0.80691 0.47902 0.0
C546 C 0.73555 0.79557 0.51808 0.0
C547 C 0.74162 0.81176 0.52907 0.0
C548 C 0.73135 0.82551 0.51516 0.0
C549 C 0.71529 0.82293 0.48975 0.0
C550 C 0.74622 0.78059 0.53131 0.0
C551 C 0.73733 0.84294 0.52717 0.0
C552 C 0.77921 0.81532 0.64687 0.0
C553 C 0.792 0.81669 0.59789 0.0
C554 C 0.76266 0.81424 0.62532 0.0
C555 C 0.75889 0.81423 0.55313 0.0
C556 C 0.77174 0.81586 0.50356 0.0
C557 C 0.78811 0.81722 0.52655 0.0
C558 C 0.74925 0.8128 0.67969 0.0
C559 C 0.76826 0.81563 0.4261 0.0
H560 H 0.71476 0.78093 0.48539 0.0
H561 H 0.70743 0.83346 0.47911 0.0
H562 H 0.75745 0.78115 0.49819 0.0
H563 H 0.75037 0.78044 0.58647 0.0
H564 H 0.73963 0.76885 0.52019 0.0
H565 H 0.72761 0.85227 0.51616 0.0
H566 H 0.74146 0.84442 0.58203 0.0
H567 H 0.74813 0.84553 0.49329 0.0
H568 H 0.78215 0.81498 0.70205 0.0
H569 H 0.79792 0.81816 0.4883 0.0
H570 H 0.74311 0.8006 0.67518 0.0
H571 H 0.73966 0.82236 0.67091 0.0
H572 H 0.75411 0.81414 0.73361 0.0
H573 H 0.76257 0.80366 0.41137 0.0
H574 H 0.77961 0.81741 0.39442 0.0
H575 H 0.7593 0.82548 0.41247 0.0
C576 C 0.92394 0.03996 0.28386 0.0
C577 C 0.93853 0.04815 0.26483 0.0
C578 C 0.92122 0.02345 0.26464 0.0
C579 C 0.93339 0.01496 0.22558 0.0
C580 C 0.94809 0.02318 0.20593 0.0
C581 C 0.95047 0.03968 0.22575 0.0
C582 C 0.90539 0.01507 0.28647 0.0
C583 C 0.96137 0.01452 0.1644 0.0
C584 C 0.93523 0.96822 0.23267 0.0
C585 C 0.92815 0.96379 0.16848 0.0
C586 C 0.93674 0.98482 0.25236 0.0
C587 C 0.93101 0.99731 0.20684 0.0
C588 C 0.92355 0.99294 0.1426 0.0
C589 C 0.92221 0.97621 0.12413 0.0
C590 C 0.94478 0.98899 0.3213 0.0
C591 C 0.91725 0.00596 0.09286 0.0
H592 H 0.91462 0.04644 0.31388 0.0
H593 H 0.96176 0.04592 0.21061 0.0
H594 H 0.8988 0.0103 0.23988 0.0
H595 H 0.90822 0.00432 0.32028 0.0
H596 H 0.897 0.02352 0.31531 0.0
H597 H 0.97194 0.02276 0.15213 0.0
H598 H 0.96605 0.00373 0.19407 0.0
H599 H 0.95617 0.00977 0.11473 0.0
H600 H 0.93982 0.95871 0.26744 0.0
H601 H 0.9167 0.97289 0.07453 0.0
H602 H 0.93637 0.99673 0.35322 0.0
H603 H 0.95617 0.99628 0.31211 0.0
H604 H 0.94807 0.97779 0.35175 0.0
H605 H 0.9083 0.01413 0.11981 0.0
H606 H 0.91117 0.0005 0.04629 0.0
H607 H 0.92766 0.01382 0.07512 0.0
C608 C 0.787 0.18261 0.98779 0.0
C609 C 0.78967 0.18217 0.91539 0.0
C610 C 0.77101 0.18341 0.01548 0.0
C611 C 0.75729 0.18349 0.96977 0.0
C612 C 0.75985 0.18253 0.89672 0.0
C613 C 0.77604 0.18201 0.87032 0.0
C614 C 0.76883 0.18467 0.09362 0.0
C615 C 0.74549 0.18236 0.84647 0.0
C616 C 0.71545 0.17327 0.04867 0.0
C617 C 0.70855 0.18903 0.05704 0.0
C618 C 0.7312 0.17124 0.01918 0.0
C619 C 0.74033 0.18532 0.99857 0.0
C620 C 0.73346 0.20126 0.00731 0.0
C621 C 0.71761 0.20291 0.03598 0.0
C622 C 0.73805 0.15404 0.00989 0.0
C623 C 0.74292 0.2166 0.98697 0.0
H624 H 0.79745 0.18286 0.02311 0.0
H625 H 0.77801 0.18162 0.8144 0.0
H626 H 0.76261 0.19647 0.1069 0.0
H627 H 0.76081 0.17453 0.11267 0.0
H628 H 0.78078 0.18412 0.12202 0.0
H629 H 0.74952 0.18052 0.79159 0.0
H630 H 0.73671 0.17239 0.86061 0.0
H631 H 0.73868 0.19422 0.8499 0.0
H632 H 0.70845 0.16247 0.06425 0.0
H633 H 0.71236 0.21513 0.04237 0.0
H634 H 0.74957 0.15264 0.04066 0.0
H635 H 0.74129 0.15194 0.95432 0.0
H636 H 0.72918 0.14435 0.02657 0.0
H637 H 0.75469 0.21719 0.01649 0.0
H638 H 0.73582 0.22808 0.99717 0.0
H639 H 0.74611 0.21615 0.9307 0.0
C640 C 0.58192 0.95346 0.74204 0.0
C641 C 0.56548 0.94801 0.74023 0.0
C642 C 0.58608 0.96961 0.72191 0.0
C643 C 0.57347 0.9806 0.70041 0.0
C644 C 0.55691 0.97505 0.69727 0.0
C645 C 0.55314 0.95881 0.71681 0.0
C646 C 0.6039 0.97504 0.72505 0.0
C647 C 0.54307 0.98644 0.67538 0.0
C648 C 0.57807 0.0267 0.72608 0.0
C649 C 0.58022 0.03229 0.65733 0.0
C650 C 0.57648 0.00985 0.741 0.0
C651 C 0.57726 0.99823 0.68598 0.0
C652 C 0.58032 0.00368 0.61694 0.0
C653 C 0.58168 0.02069 0.60332 0.0
C654 C 0.57312 0.00457 0.81529 0.0
C655 C 0.58148 0.99161 0.55711 0.0
H656 H 0.59154 0.94513 0.75951 0.0
H657 H 0.5404 0.9547 0.71517 0.0
H658 H 0.60766 0.9806 0.67458 0.0
H659 H 0.6054 0.98467 0.76573 0.0
H660 H 0.61238 0.96464 0.73722 0.0
H661 H 0.53095 0.98003 0.67313 0.0
H662 H 0.54209 0.99685 0.71281 0.0
H663 H 0.54572 0.99179 0.6233 0.0
H664 H 0.577 0.03554 0.76834 0.0
H665 H 0.58344 0.02489 0.55014 0.0
H666 H 0.58205 0.99494 0.83163 0.0
H667 H 0.56059 0.99909 0.81882 0.0
H668 H 0.57388 0.01505 0.85262 0.0
H669 H 0.59008 0.98142 0.57027 0.0
H670 H 0.58574 0.99761 0.50818 0.0
H671 H 0.56918 0.98602 0.54749 0.0
C672 C 0.72717 0.70081 0.92145 0.0
C673 C 0.71629 0.68737 0.91904 0.0
C674 C 0.74325 0.69901 0.94744 0.0
C675 C 0.74852 0.68342 0.97225 0.0
C676 C 0.73777 0.66967 0.96802 0.0
C677 C 0.72178 0.67179 0.94111 0.0
C678 C 0.75442 0.71393 0.95033 0.0
C679 C 0.74294 0.65288 0.99433 0.0
C680 C 0.79473 0.6783 0.99732 0.0
C681 C 0.79654 0.68244 0.06803 0.0
C682 C 0.77909 0.67803 0.96576 0.0
C683 C 0.76495 0.68183 0.00608 0.0
C684 C 0.76664 0.68528 0.07818 0.0
C685 C 0.78243 0.68561 0.10821 0.0
C686 C 0.77778 0.67439 0.88866 0.0
C687 C 0.75182 0.68923 0.12308 0.0
H688 H 0.72304 0.71286 0.90405 0.0
H689 H 0.7134 0.66136 0.93961 0.0
H690 H 0.75714 0.71708 0.00551 0.0
H691 H 0.76637 0.71118 0.92448 0.0
H692 H 0.74883 0.72491 0.92482 0.0
H693 H 0.73357 0.64323 0.98292 0.0
H694 H 0.75484 0.64916 0.97039 0.0
H695 H 0.74488 0.65341 0.05161 0.0
H696 H 0.80559 0.67586 0.96587 0.0
H697 H 0.78372 0.68871 0.16298 0.0
H698 H 0.77361 0.68564 0.86069 0.0
H699 H 0.76843 0.66464 0.87908 0.0
H700 H 0.78975 0.67036 0.86598 0.0
H701 H 0.74622 0.70103 0.10573 0.0
H702 H 0.75509 0.69036 0.17919 0.0
H703 H 0.74228 0.67949 0.11734 0.0
C704 C 0.58806 0.53725 0.32725 0.0
C705 C 0.57367 0.54684 0.323 0.0
C706 C 0.5883 0.52092 0.30231 0.0
C707 C 0.57375 0.51401 0.27352 0.0
C708 C 0.55908 0.52348 0.27116 0.0
C709 C 0.55925 0.5398 0.29547 0.0
C710 C 0.60422 0.51124 0.30496 0.0
C711 C 0.54323 0.51648 0.24189 0.0
C712 C 0.57468 0.47869 0.14337 0.0
C713 C 0.57023 0.46525 0.18541 0.0
C714 C 0.57665 0.49452 0.17206 0.0
C715 C 0.57381 0.497 0.24426 0.0
C716 C 0.56979 0.48339 0.2873 0.0
C717 C 0.56818 0.46765 0.25744 0.0
C718 C 0.58123 0.50869 0.12469 0.0
C719 C 0.56643 0.48556 0.36428 0.0
H720 H 0.59927 0.54265 0.34808 0.0
H721 H 0.54806 0.54711 0.29242 0.0
H722 H 0.60231 0.49943 0.33314 0.0
H723 H 0.60821 0.5081 0.25117 0.0
H724 H 0.6143 0.51819 0.33105 0.0
H725 H 0.53272 0.5252 0.24688 0.0
H726 H 0.5449 0.51345 0.18587 0.0
H727 H 0.54001 0.50484 0.26924 0.0
H728 H 0.57641 0.47688 0.08779 0.0
H729 H 0.56469 0.45733 0.29028 0.0
H730 H 0.59184 0.51563 0.14671 0.0
H731 H 0.57071 0.51741 0.12076 0.0
H732 H 0.58451 0.50446 0.07129 0.0
H733 H 0.57679 0.4922 0.38968 0.0
H734 H 0.56458 0.47358 0.39138 0.0
H735 H 0.55518 0.49319 0.37149 0.0
C736 C 0.77082 0.32148 0.3978 0.0
C737 C 0.78549 0.32497 0.43368 0.0
C738 C 0.75541 0.32363 0.42989 0.0
C739 C 0.75466 0.32932 0.49969 0.0
C740 C 0.76939 0.33346 0.53535 0.0
C741 C 0.78465 0.33129 0.50182 0.0
C742 C 0.73995 0.31919 0.38994 0.0
C743 C 0.76908 0.33952 0.60987 0.0
C744 C 0.7126 0.34338 0.56456 0.0
C745 C 0.70663 0.32888 0.5957 0.0
C746 C 0.72845 0.3439 0.5348 0.0
C747 C 0.73854 0.32964 0.53675 0.0
C748 C 0.73284 0.31522 0.57074 0.0
C749 C 0.71694 0.315 0.59961 0.0
C750 C 0.73413 0.35949 0.4989 0.0
C751 C 0.7433 0.2998 0.5745 0.0
H752 H 0.77136 0.31672 0.34498 0.0
H753 H 0.79594 0.33403 0.52992 0.0
H754 H 0.73393 0.30836 0.41463 0.0
H755 H 0.731 0.32956 0.39168 0.0
H756 H 0.74256 0.31616 0.33448 0.0
H757 H 0.78145 0.34359 0.62808 0.0
H758 H 0.7603 0.34996 0.61543 0.0
H759 H 0.7647 0.32947 0.64459 0.0
H760 H 0.7047 0.35415 0.5613 0.0
H761 H 0.71247 0.3038 0.62408 0.0
H762 H 0.73536 0.35719 0.44205 0.0
H763 H 0.74647 0.36322 0.51848 0.0
H764 H 0.72538 0.36989 0.50679 0.0
H765 H 0.74532 0.29486 0.52116 0.0
H766 H 0.73748 0.28999 0.60671 0.0
H767 H 0.7556 0.30271 0.59677 0.0
C768 C 0.93733 0.46838 0.84039 0.0
C769 C 0.93035 0.45569 0.80028 0.0
C770 C 0.93801 0.48462 0.81526 0.0
C771 C 0.93155 0.48827 0.74836 0.0
C772 C 0.92399 0.47564 0.70852 0.0
C773 C 0.92347 0.45948 0.73498 0.0
C774 C 0.94612 0.49778 0.85944 0.0
C775 C 0.91695 0.47908 0.63705 0.0
C776 C 0.92437 0.53369 0.71011 0.0
C777 C 0.93906 0.53797 0.67568 0.0
C778 C 0.92147 0.5174 0.73201 0.0
C779 C 0.93353 0.50514 0.71905 0.0
C780 C 0.94806 0.50924 0.68184 0.0
C781 C 0.95066 0.52561 0.66065 0.0
C782 C 0.9058 0.51347 0.77136 0.0
C783 C 0.96118 0.49647 0.66667 0.0
H784 H 0.94262 0.46558 0.89098 0.0
H785 H 0.91805 0.44975 0.70362 0.0
H786 H 0.95731 0.50247 0.83258 0.0
H787 H 0.93762 0.50839 0.86652 0.0
H788 H 0.94977 0.4931 0.9117 0.0
H789 H 0.91046 0.46819 0.61488 0.0
H790 H 0.90817 0.48958 0.63944 0.0
H791 H 0.92704 0.48267 0.60093 0.0
H792 H 0.91531 0.54315 0.72182 0.0
H793 H 0.96199 0.52879 0.63373 0.0
H794 H 0.90886 0.51013 0.826 0.0
H795 H 0.89951 0.50267 0.74763 0.0
H796 H 0.89707 0.52405 0.77216 0.0
H797 H 0.96666 0.49208 0.71638 0.0
H798 H 0.97124 0.50141 0.63323 0.0
H799 H 0.95564 0.4856 0.64034 0.0
C800 C 0.22232 0.31941 0.88028 0.0
C801 C 0.20801 0.32317 0.91826 0.0
C802 C 0.23803 0.3216 0.90962 0.0
C803 C 0.23946 0.32757 0.97882 0.0
C804 C 0.22509 0.33181 0.01683 0.0
C805 C 0.20952 0.32961 0.98599 0.0
C806 C 0.25309 0.31707 0.86719 0.0
C807 C 0.22614 0.33813 0.09084 0.0
C808 C 0.27887 0.31462 0.07004 0.0
C809 C 0.28882 0.32865 0.06148 0.0
C810 C 0.26252 0.31438 0.04607 0.0
C811 C 0.25599 0.32847 0.01228 0.0
C812 C 0.2657 0.34294 0.00631 0.0
C813 C 0.282 0.34288 0.03128 0.0
C814 C 0.25249 0.29877 0.0542 0.0
C815 C 0.25915 0.35819 0.9705 0.0
H816 H 0.22125 0.31452 0.8278 0.0
H817 H 0.19852 0.33252 0.01576 0.0
H818 H 0.26184 0.3276 0.86547 0.0
H819 H 0.25961 0.30658 0.89222 0.0
H820 H 0.24991 0.31351 0.81283 0.0
H821 H 0.21389 0.34187 0.11164 0.0
H822 H 0.2313 0.32837 0.12511 0.0
H823 H 0.23461 0.34886 0.09372 0.0
H824 H 0.28401 0.30362 0.09384 0.0
H825 H 0.28961 0.35377 0.02443 0.0
H826 H 0.25005 0.29333 0.00207 0.0
H827 H 0.24035 0.3016 0.07828 0.0
H828 H 0.25888 0.2894 0.08675 0.0
H829 H 0.25733 0.35559 0.91416 0.0
H830 H 0.26768 0.36887 0.9757 0.0
H831 H 0.24696 0.36168 0.99236 0.0
C832 C 0.41771 0.46224 0.70913 0.0
C833 C 0.42881 0.45816 0.65554 0.0
C834 C 0.41704 0.47828 0.73649 0.0
C835 C 0.42774 0.49054 0.70969 0.0
C836 C 0.4384 0.48673 0.65333 0.0
C837 C 0.43878 0.47058 0.62681 0.0
C838 C 0.40543 0.4819 0.79627 0.0
C839 C 0.44997 0.49951 0.62329 0.0
C840 C 0.42016 0.53572 0.7529 0.0
C841 C 0.43144 0.53831 0.80746 0.0
C842 C 0.41867 0.52018 0.72094 0.0
C843 C 0.42871 0.50697 0.74406 0.0
C844 C 0.4399 0.50944 0.79985 0.0
C845 C 0.44112 0.52508 0.83088 0.0
C846 C 0.40655 0.51796 0.66182 0.0
C847 C 0.45078 0.49562 0.82612 0.0
H848 H 0.40988 0.45275 0.73141 0.0
H849 H 0.44738 0.46755 0.58536 0.0
H850 H 0.41268 0.48433 0.84433 0.0
H851 H 0.39806 0.49314 0.7852 0.0
H852 H 0.39685 0.47149 0.80666 0.0
H853 H 0.45649 0.49496 0.57603 0.0
H854 H 0.44308 0.51089 0.60956 0.0
H855 H 0.45933 0.50295 0.66301 0.0
H856 H 0.41264 0.54588 0.73441 0.0
H857 H 0.44986 0.52696 0.873 0.0
H858 H 0.39787 0.50776 0.67397 0.0
H859 H 0.41324 0.51449 0.61348 0.0
H860 H 0.39929 0.52934 0.65145 0.0
H861 H 0.44308 0.48503 0.84307 0.0
H862 H 0.45868 0.49952 0.87059 0.0
H863 H 0.45889 0.49117 0.78337 0.0
C864 C 0.27836 0.6709 0.35079 0.0
C865 C 0.29035 0.67307 0.4028 0.0
C866 C 0.26144 0.67173 0.36687 0.0
C867 C 0.25645 0.67495 0.43641 0.0
C868 C 0.26849 0.67665 0.4894 0.0
C869 C 0.28526 0.67562 0.47203 0.0
C870 C 0.24892 0.66966 0.30914 0.0
C871 C 0.26369 0.68021 0.56411 0.0
C872 C 0.2156 0.69644 0.46979 0.0
C873 C 0.20575 0.68346 0.49448 0.0
C874 C 0.23202 0.69376 0.44954 0.0
C875 C 0.23873 0.67765 0.45339 0.0
C876 C 0.22876 0.6644 0.47682 0.0
C877 C 0.2124 0.66747 0.49746 0.0
C878 C 0.24229 0.70825 0.42549 0.0
C879 C 0.23547 0.64703 0.481 0.0
H880 H 0.28217 0.66884 0.29727 0.0
H881 H 0.29441 0.67729 0.51271 0.0
H882 H 0.23955 0.66032 0.32405 0.0
H883 H 0.24231 0.68149 0.30064 0.0
H884 H 0.25473 0.66584 0.25915 0.0
H885 H 0.27453 0.6804 0.59967 0.0
H886 H 0.25742 0.69237 0.56716 0.0
H887 H 0.25483 0.67079 0.58311 0.0
H888 H 0.21057 0.70883 0.46728 0.0
H889 H 0.20483 0.65735 0.51602 0.0
H890 H 0.24742 0.70579 0.37283 0.0
H891 H 0.2529 0.71002 0.46138 0.0
H892 H 0.23508 0.7199 0.42357 0.0
H893 H 0.2407 0.6433 0.42985 0.0
H894 H 0.22585 0.63795 0.49635 0.0
H895 H 0.24564 0.64651 0.51968 0.0
C896 C 0.0798 0.47786 0.41028 0.0
C897 C 0.07793 0.46628 0.35639 0.0
C898 C 0.07956 0.4949 0.39618 0.0
C899 C 0.07721 0.50042 0.32676 0.0
C900 C 0.07598 0.48879 0.27193 0.0
C901 C 0.07646 0.47189 0.28734 0.0
C902 C 0.08115 0.50697 0.45584 0.0
C903 C 0.07335 0.49415 0.19723 0.0
C904 C 0.05587 0.54129 0.29309 0.0
C905 C 0.06901 0.55125 0.27078 0.0
C906 C 0.05847 0.52486 0.31311 0.0
C907 C 0.07465 0.51824 0.3116 0.0
C908 C 0.08806 0.52836 0.29116 0.0
C909 C 0.08507 0.54474 0.27051 0.0
C910 C 0.0438 0.51442 0.33383 0.0
C911 C 0.1055 0.52179 0.28976 0.0
H912 H 0.08104 0.47364 0.46369 0.0
H913 H 0.07507 0.46307 0.24519 0.0
H914 H 0.09049 0.51655 0.44337 0.0
H915 H 0.0692 0.51337 0.46403 0.0
H916 H 0.08472 0.50078 0.50535 0.0
H917 H 0.07361 0.48359 0.16022 0.0
H918 H 0.06122 0.50043 0.19245 0.0
H919 H 0.08296 0.50316 0.18149 0.0
H920 H 0.04343 0.54623 0.29353 0.0
H921 H 0.0953 0.55241 0.2539 0.0
H922 H 0.04581 0.50898 0.38625 0.0
H923 H 0.04236 0.50404 0.29651 0.0
H924 H 0.03212 0.5216 0.33477 0.0
H925 H 0.10863 0.51608 0.34072 0.0
H926 H 0.11469 0.53158 0.27807 0.0
H927 H 0.10657 0.512 0.24951 0.0
C928 C 0.09527 0.12104 0.00578 0.0
C929 C 0.08575 0.107 0.02045 0.0
C930 C 0.10306 0.12989 0.05947 0.0
C931 C 0.10127 0.12458 0.12947 0.0
C932 C 0.09207 0.11016 0.14445 0.0
C933 C 0.08444 0.10154 0.08974 0.0
C934 C 0.11283 0.14519 0.04144 0.0
C935 C 0.08991 0.10412 0.21844 0.0
C936 C 0.13168 0.14196 0.2614 0.0
C937 C 0.12268 0.1552 0.2895 0.0
C938 C 0.12474 0.13162 0.21039 0.0
C939 C 0.10842 0.13458 0.18713 0.0
C940 C 0.09908 0.14756 0.21707 0.0
C941 C 0.10633 0.15771 0.26785 0.0
C942 C 0.13504 0.11786 0.17985 0.0
C943 C 0.08159 0.15103 0.19399 0.0
H944 H 0.09639 0.12532 0.95241 0.0
H945 H 0.07713 0.09068 0.10161 0.0
H946 H 0.10693 0.15617 0.06553 0.0
H947 H 0.12551 0.14427 0.06299 0.0
H948 H 0.11368 0.14723 0.98422 0.0
H949 H 0.08322 0.09216 0.2209 0.0
H950 H 0.10211 0.10263 0.24397 0.0
H951 H 0.08289 0.11339 0.2491 0.0
H952 H 0.14432 0.13991 0.27786 0.0
H953 H 0.09927 0.16787 0.28946 0.0
H954 H 0.13727 0.12026 0.12363 0.0
H955 H 0.12833 0.10595 0.18364 0.0
H956 H 0.14716 0.11657 0.20647 0.0
H957 H 0.0815 0.1546 0.13809 0.0
H958 H 0.07575 0.16108 0.22475 0.0
H959 H 0.07393 0.13973 0.19913 0.0
C960 C 0.12932 0.84852 0.2427 0.0
C961 C 0.14424 0.84062 0.25894 0.0
C962 C 0.1201 0.85661 0.29458 0.0
C963 C 0.12594 0.85675 0.36425 0.0
C964 C 0.14128 0.84931 0.38042 0.0
C965 C 0.15025 0.84137 0.32758 0.0
C966 C 0.10384 0.86449 0.27531 0.0
C967 C 0.14793 0.84921 0.45408 0.0
C968 C 0.10707 0.88685 0.49408 0.0
C969 C 0.09542 0.87682 0.5279 0.0
C970 C 0.11712 0.8805 0.44065 0.0
C971 C 0.11554 0.86373 0.42102 0.0
C972 C 0.10399 0.85349 0.45575 0.0
C973 C 0.09405 0.86018 0.50859 0.0
C974 C 0.12927 0.89178 0.40465 0.0
C975 C 0.10206 0.83549 0.43674 0.0
H976 H 0.12462 0.84805 0.18978 0.0
H977 H 0.1618 0.83536 0.34062 0.0
H978 H 0.09359 0.85781 0.30134 0.0
H979 H 0.10346 0.87746 0.2939 0.0
H980 H 0.10161 0.86436 0.2181 0.0
H981 H 0.16055 0.84388 0.45713 0.0
H982 H 0.14824 0.86193 0.47543 0.0
H983 H 0.13963 0.84184 0.48806 0.0
H984 H 0.10815 0.89974 0.50848 0.0
H985 H 0.08511 0.85234 0.53456 0.0
H986 H 0.12637 0.89248 0.34813 0.0
H987 H 0.14195 0.88674 0.40946 0.0
H988 H 0.12911 0.90448 0.42659 0.0
H989 H 0.09839 0.83434 0.38117 0.0
H990 H 0.09265 0.82917 0.4694 0.0
H991 H 0.11402 0.82899 0.44299 0.0
C992 C 0.39575 0.88141 0.49433 0.0
C993 C 0.40195 0.89722 0.50875 0.0
C994 C 0.38664 0.87267 0.54453 0.0
C995 C 0.38357 0.87996 0.61048 0.0
C996 C 0.38936 0.8961 0.62456 0.0
C997 C 0.39851 0.90451 0.5736 0.0
C998 C 0.38067 0.85546 0.5277 0.0
C999 C 0.38622 0.90434 0.69404 0.0
C1000 C 0.34929 0.86164 0.7215 0.0
C1001 C 0.35821 0.85151 0.76743 0.0
C1002 C 0.35739 0.87116 0.67076 0.0
C1003 C 0.37481 0.87047 0.66562 0.0
C1004 C 0.3839 0.86051 0.71264 0.0
C1005 C 0.3755 0.8512 0.76313 0.0
C1006 C 0.3473 0.88176 0.62196 0.0
C1007 C 0.4025 0.85946 0.70876 0.0
H1008 H 0.39837 0.87568 0.44441 0.0
H1009 H 0.40318 0.91676 0.58509 0.0
H1010 H 0.38653 0.84646 0.56365 0.0
H1011 H 0.36713 0.85461 0.53563 0.0
H1012 H 0.38356 0.85179 0.47317 0.0
H1013 H 0.39081 0.91726 0.69539 0.0
H1014 H 0.3728 0.90438 0.70577 0.0
H1015 H 0.39241 0.89727 0.73618 0.0
H1016 H 0.33593 0.86199 0.72457 0.0
H1017 H 0.38249 0.84339 0.79831 0.0
H1018 H 0.34905 0.87752 0.56739 0.0
H1019 H 0.35156 0.89476 0.6246 0.0
H1020 H 0.3339 0.88138 0.6344 0.0
H1021 H 0.40628 0.85458 0.65703 0.0
H1022 H 0.40776 0.85136 0.74992 0.0
H1023 H 0.40799 0.87194 0.71416 0.0
C1024 C 0.3684 0.14618 0.77439 0.0
C1025 C 0.35186 0.15098 0.78209 0.0
C1026 C 0.3768 0.13811 0.82861 0.0
C1027 C 0.36841 0.13464 0.8918 0.0
C1028 C 0.35162 0.13912 0.89932 0.0
C1029 C 0.34356 0.14728 0.84446 0.0
C1030 C 0.39474 0.13357 0.81875 0.0
C1031 C 0.34223 0.13547 0.96565 0.0
C1032 C 0.38742 0.10158 0.00676 0.0
C1033 C 0.39622 0.11108 0.05544 0.0
C1034 C 0.37794 0.10909 0.95434 0.0
C1035 C 0.37733 0.12651 0.95026 0.0
C1036 C 0.38576 0.13618 0.00051 0.0
C1037 C 0.39506 0.12834 0.05271 0.0
C1038 C 0.36897 0.09836 0.90216 0.0
C1039 C 0.3854 0.15481 0.99777 0.0
H1040 H 0.37491 0.14903 0.72646 0.0
H1041 H 0.33076 0.15089 0.85076 0.0
H1042 H 0.4024 0.13993 0.85854 0.0
H1043 H 0.39644 0.1201 0.82634 0.0
H1044 H 0.3994 0.13694 0.76613 0.0
H1045 H 0.32907 0.13925 0.96229 0.0
H1046 H 0.34278 0.12207 0.97742 0.0
H1047 H 0.34804 0.14204 0.01013 0.0
H1048 H 0.38817 0.08822 0.0087 0.0
H1049 H 0.40183 0.13577 0.09006 0.0
H1050 H 0.37423 0.10032 0.84934 0.0
H1051 H 0.35574 0.10186 0.89977 0.0
H1052 H 0.36987 0.08503 0.91511 0.0
H1053 H 0.39122 0.15913 0.9486 0.0
H1054 H 0.39202 0.16053 0.04245 0.0
H1055 H 0.37246 0.1593 0.99773 0.0
C1056 C 0.89809 0.89475 0.98251 0.0
C1057 C 0.90404 0.88315 0.03077 0.0
C1058 C 0.8886 0.88981 0.9249 0.0
C1059 C 0.88481 0.87289 0.91585 0.0
C1060 C 0.89039 0.86118 0.96544 0.0
C1061 C 0.90003 0.86645 0.02207 0.0
C1062 C 0.88297 0.90262 0.87283 0.0
C1063 C 0.8864 0.84305 0.95807 0.0
C1064 C 0.84925 0.85916 0.80073 0.0
C1065 C 0.85762 0.8532 0.74171 0.0
C1066 C 0.8579 0.86613 0.85694 0.0
C1067 C 0.87532 0.86727 0.85381 0.0
C1068 C 0.88376 0.86208 0.79291 0.0
C1069 C 0.87481 0.85507 0.73763 0.0
C1070 C 0.84846 0.87152 0.921 0.0
C1071 C 0.90232 0.86331 0.7873 0.0
H1072 H 0.90122 0.90769 0.98867 0.0
H1073 H 0.90452 0.85743 0.05932 0.0
H1074 H 0.88851 0.89998 0.82104 0.0
H1075 H 0.86937 0.90208 0.86648 0.0
H1076 H 0.88648 0.91534 0.88868 0.0
H1077 H 0.89112 0.83564 0.00257 0.0
H1078 H 0.87283 0.84128 0.95442 0.0
H1079 H 0.89189 0.83818 0.90917 0.0
H1080 H 0.83596 0.85782 0.80436 0.0
H1081 H 0.88137 0.85058 0.69209 0.0
H1082 H 0.85193 0.8843 0.93576 0.0
H1083 H 0.8517 0.8634 0.96557 0.0
H1084 H 0.83488 0.87101 0.91306 0.0
H1085 H 0.90647 0.87602 0.79992 0.0
H1086 H 0.90686 0.86002 0.73438 0.0
H1087 H 0.90814 0.85488 0.82572 0.0
C1088 C 0.84926 0.13612 0.73037 0.0
C1089 C 0.85743 0.14636 0.77833 0.0
C1090 C 0.85805 0.1275 0.6788 0.0
C1091 C 0.87542 0.12919 0.67501 0.0
C1092 C 0.8838 0.13902 0.72481 0.0
C1093 C 0.87471 0.14746 0.77596 0.0
C1094 C 0.8487 0.11701 0.62699 0.0
C1095 C 0.90233 0.14108 0.72261 0.0
C1096 C 0.90109 0.09838 0.5722 0.0
C1097 C 0.904 0.10703 0.50994 0.0
C1098 C 0.89154 0.1053 0.62589 0.0
C1099 C 0.8848 0.12128 0.61723 0.0
C1100 C 0.8874 0.12994 0.55399 0.0
C1101 C 0.89694 0.1227 0.50102 0.0
C1102 C 0.88894 0.09564 0.69238 0.0
C1103 C 0.88041 0.14703 0.54288 0.0
H1104 H 0.83591 0.13515 0.73193 0.0
H1105 H 0.88114 0.15531 0.81284 0.0
H1106 H 0.84996 0.12235 0.57395 0.0
H1107 H 0.85398 0.10437 0.6252 0.0
H1108 H 0.83536 0.11611 0.63984 0.0
H1109 H 0.90705 0.14851 0.76709 0.0
H1110 H 0.90847 0.12884 0.72339 0.0
H1111 H 0.90596 0.14727 0.67327 0.0
H1112 H 0.90645 0.08624 0.57948 0.0
H1113 H 0.89913 0.12947 0.45312 0.0
H1114 H 0.87555 0.09451 0.70373 0.0
H1115 H 0.89464 0.1023 0.73687 0.0
H1116 H 0.89436 0.08305 0.68959 0.0
H1117 H 0.86683 0.14688 0.55024 0.0
H1118 H 0.88318 0.15192 0.48999 0.0
H1119 H 0.88561 0.15564 0.5822 0.0
C1120 C 0.62682 0.09696 0.54414 0.0
C1121 C 0.61332 0.10371 0.58011 0.0
C1122 C 0.63547 0.10624 0.49417 0.0
C1123 C 0.63051 0.12266 0.48007 0.0
C1124 C 0.61733 0.12976 0.51817 0.0
C1125 C 0.60889 0.1202 0.56768 0.0
C1126 C 0.64952 0.09829 0.45475 0.0
C1127 C 0.61176 0.14728 0.50501 0.0
C1128 C 0.65903 0.15234 0.38518 0.0
C1129 C 0.65235 0.15222 0.31756 0.0
C1130 C 0.6523 0.14248 0.43827 0.0
C1131 C 0.63859 0.13225 0.42337 0.0
C1132 C 0.63208 0.13172 0.35479 0.0
C1133 C 0.63904 0.14172 0.3027 0.0
C1134 C 0.65958 0.14337 0.51074 0.0
C1135 C 0.61749 0.12091 0.33686 0.0
H1136 H 0.63035 0.08424 0.55339 0.0
H1137 H 0.59852 0.12555 0.59543 0.0
H1138 H 0.64621 0.09717 0.39876 0.0
H1139 H 0.66074 0.10612 0.45786 0.0
H1140 H 0.65255 0.0858 0.47505 0.0
H1141 H 0.60188 0.15123 0.54162 0.0
H1142 H 0.62234 0.15589 0.51011 0.0
H1143 H 0.60702 0.14841 0.45087 0.0
H1144 H 0.66934 0.16039 0.39715 0.0
H1145 H 0.63384 0.14152 0.25059 0.0
H1146 H 0.66279 0.13081 0.52946 0.0
H1147 H 0.65031 0.14849 0.54748 0.0
H1148 H 0.67082 0.15121 0.51281 0.0
H1149 H 0.62007 0.10792 0.35163 0.0
H1150 H 0.6144 0.12133 0.2804 0.0
H1151 H 0.60652 0.12496 0.36704 0.0
C1152 C 0.59926 0.89606 0.05517 0.0
C1153 C 0.59407 0.88736 0.99574 0.0
C1154 C 0.60693 0.8879 0.11104 0.0
C1155 C 0.6094 0.87062 0.10749 0.0
C1156 C 0.60465 0.86185 0.0468 0.0
C1157 C 0.59708 0.87033 0.99155 0.0
C1158 C 0.61197 0.89768 0.17467 0.0
C1159 C 0.60709 0.84341 0.04108 0.0
C1160 C 0.63968 0.8494 0.22927 0.0
C1161 C 0.62903 0.84246 0.27909 0.0
C1162 C 0.6335 0.85888 0.17381 0.0
C1163 C 0.61629 0.86155 0.16832 0.0
C1164 C 0.60553 0.85502 0.21963 0.0
C1165 C 0.61203 0.84551 0.27429 0.0
C1166 C 0.64535 0.86563 0.12006 0.0
C1167 C 0.5871 0.85776 0.21587 0.0
H1168 H 0.59705 0.90923 0.0587 0.0
H1169 H 0.59311 0.86351 0.94585 0.0
H1170 H 0.6046 0.89363 0.22038 0.0
H1171 H 0.62515 0.89538 0.18718 0.0
H1172 H 0.61015 0.91117 0.16744 0.0
H1173 H 0.60342 0.83855 0.98913 0.0
H1174 H 0.62021 0.8402 0.05055 0.0
H1175 H 0.59965 0.83706 0.08163 0.0
H1176 H 0.65284 0.84709 0.23252 0.0
H1177 H 0.60374 0.84027 0.31275 0.0
H1178 H 0.64361 0.87915 0.11425 0.0
H1179 H 0.64276 0.85994 0.06852 0.0
H1180 H 0.65845 0.86319 0.13386 0.0
H1181 H 0.58435 0.87116 0.21301 0.0
H1182 H 0.58052 0.85248 0.26157 0.0
H1183 H 0.58212 0.85199 0.16774 0.0
C1184 C 0.62035 0.61163 0.43796 0.0
C1185 C 0.60425 0.61731 0.42581 0.0
C1186 C 0.63022 0.61877 0.49022 0.0
C1187 C 0.62392 0.63209 0.5301 0.0
C1188 C 0.60781 0.63809 0.51687 0.0
C1189 C 0.59813 0.63053 0.46536 0.0
C1190 C 0.64726 0.61191 0.50357 0.0
C1191 C 0.60076 0.65248 0.55729 0.0
C1192 C 0.64105 0.64333 0.70851 0.0
C1193 C 0.65104 0.65694 0.6924 0.0
C1194 C 0.63267 0.63467 0.65575 0.0
C1195 C 0.63412 0.63993 0.58551 0.0
C1196 C 0.64449 0.65342 0.56883 0.0
C1197 C 0.65291 0.66168 0.62239 0.0
C1198 C 0.62192 0.62017 0.67537 0.0
C1199 C 0.64617 0.65956 0.49473 0.0
H1200 H 0.62507 0.60132 0.40793 0.0
H1201 H 0.58571 0.63503 0.45591 0.0
H1202 H 0.65666 0.62174 0.49679 0.0
H1203 H 0.64816 0.60753 0.5583 0.0
H1204 H 0.65032 0.6015 0.4681 0.0
H1205 H 0.58818 0.65591 0.53929 0.0
H1206 H 0.60014 0.64937 0.61361 0.0
H1207 H 0.60894 0.66339 0.55194 0.0
H1208 H 0.63964 0.63954 0.76243 0.0
H1209 H 0.66058 0.67221 0.60945 0.0
H1210 H 0.6251 0.60927 0.64295 0.0
H1211 H 0.60878 0.62318 0.66498 0.0
H1212 H 0.6232 0.61678 0.73129 0.0
H1213 H 0.64989 0.64931 0.45968 0.0
H1214 H 0.65538 0.66966 0.49 0.0
H1215 H 0.63406 0.66419 0.47599 0.0
C1216 C 0.61019 0.40374 0.99009 0.0
C1217 C 0.59554 0.39766 0.0196 0.0
C1218 C 0.61842 0.39499 0.93715 0.0
C1219 C 0.6118 0.37984 0.91309 0.0
C1220 C 0.59712 0.37357 0.94314 0.0
C1221 C 0.5892 0.38252 0.99607 0.0
C1222 C 0.63411 0.40199 0.90661 0.0
C1223 C 0.58968 0.35744 0.91893 0.0
C1224 C 0.62291 0.36295 0.73403 0.0
C1225 C 0.6342 0.35046 0.75122 0.0
C1226 C 0.61585 0.37294 0.78606 0.0
C1227 C 0.62022 0.37039 0.85682 0.0
C1228 C 0.63196 0.35813 0.87424 0.0
C1229 C 0.63879 0.34832 0.82129 0.0
C1230 C 0.60336 0.3859 0.76552 0.0
C1231 C 0.63697 0.35506 0.94906 0.0
H1232 H 0.61518 0.41542 0.00792 0.0
H1233 H 0.57788 0.37772 0.0184 0.0
H1234 H 0.64436 0.39302 0.91285 0.0
H1235 H 0.6325 0.40412 0.84983 0.0
H1236 H 0.63774 0.41382 0.93163 0.0
H1237 H 0.5782 0.35428 0.9477 0.0
H1238 H 0.58678 0.35813 0.86242 0.0
H1239 H 0.5987 0.34727 0.92606 0.0
H1240 H 0.61933 0.36473 0.68006 0.0
H1241 H 0.64757 0.33877 0.83513 0.0
H1242 H 0.60702 0.39811 0.78679 0.0
H1243 H 0.59115 0.38278 0.78821 0.0
H1244 H 0.60201 0.38697 0.70801 0.0
H1245 H 0.64119 0.36672 0.97367 0.0
H1246 H 0.64699 0.34576 0.95344 0.0
H1247 H 0.62616 0.35063 0.97929 0.0
C1248 C 0.84053 0.35504 0.17107 0.0
C1249 C 0.84931 0.34885 0.22853 0.0
C1250 C 0.84856 0.36389 0.11805 0.0
C1251 C 0.8658 0.36651 0.12238 0.0
C1252 C 0.87469 0.36055 0.1808 0.0
C1253 C 0.86633 0.35185 0.23333 0.0
C1254 C 0.83864 0.37021 0.05691 0.0
C1255 C 0.89311 0.36307 0.18713 0.0
C1256 C 0.89062 0.37441 0.95765 0.0
C1257 C 0.89357 0.39144 0.96236 0.0
C1258 C 0.88128 0.36619 0.00863 0.0
C1259 C 0.87464 0.37524 0.06531 0.0
C1260 C 0.87703 0.39252 0.06891 0.0
C1261 C 0.8865 0.40041 0.01749 0.0
C1262 C 0.87899 0.34773 0.00307 0.0
C1263 C 0.87 0.40261 0.12817 0.0
H1264 H 0.82736 0.35283 0.16708 0.0
H1265 H 0.87321 0.34708 0.27745 0.0
H1266 H 0.84045 0.38372 0.05101 0.0
H1267 H 0.84302 0.36431 0.00803 0.0
H1268 H 0.82522 0.3677 0.06273 0.0
H1269 H 0.89816 0.3579 0.2364 0.0
H1270 H 0.89949 0.35709 0.14253 0.0
H1271 H 0.89608 0.37643 0.18504 0.0
H1272 H 0.89604 0.36739 0.91526 0.0
H1273 H 0.88864 0.41359 0.02133 0.0
H1274 H 0.86567 0.34457 0.00508 0.0
H1275 H 0.88502 0.34157 0.04809 0.0
H1276 H 0.8843 0.34262 0.95415 0.0
H1277 H 0.85653 0.40036 0.13307 0.0
H1278 H 0.87208 0.41606 0.12095 0.0
H1279 H 0.87579 0.39878 0.17807 0.0
C1280 C 0.87819 0.65022 0.25154 0.0
C1281 C 0.86102 0.65232 0.25544 0.0
C1282 C 0.88667 0.64084 0.30159 0.0
C1283 C 0.87775 0.63327 0.35651 0.0
C1284 C 0.86038 0.63502 0.35984 0.0
C1285 C 0.85223 0.64457 0.30939 0.0
C1286 C 0.90522 0.63929 0.29644 0.0
C1287 C 0.85044 0.62698 0.4172 0.0
C1288 C 0.89916 0.59804 0.45053 0.0
C1289 C 0.90532 0.60597 0.51023 0.0
C1290 C 0.88982 0.60668 0.4009 0.0
C1291 C 0.88667 0.6237 0.41091 0.0
C1292 C 0.89252 0.6317 0.47184 0.0
C1293 C 0.90172 0.62271 0.52096 0.0
C1294 C 0.88363 0.59768 0.33698 0.0
C1295 C 0.88944 0.64986 0.48418 0.0
H1296 H 0.88508 0.65619 0.21015 0.0
H1297 H 0.83896 0.64608 0.31267 0.0
H1298 H 0.91106 0.64451 0.34395 0.0
H1299 H 0.90879 0.62608 0.29357 0.0
H1300 H 0.91029 0.64576 0.25005 0.0
H1301 H 0.83697 0.62907 0.411 0.0
H1302 H 0.8528 0.61348 0.41794 0.0
H1303 H 0.85433 0.63193 0.46862 0.0
H1304 H 0.90181 0.58507 0.44203 0.0
H1305 H 0.90646 0.62893 0.56687 0.0
H1306 H 0.88946 0.60295 0.28954 0.0
H1307 H 0.8701 0.59935 0.33159 0.0
H1308 H 0.88638 0.58425 0.33884 0.0
H1309 H 0.89537 0.65719 0.44219 0.0
H1310 H 0.89434 0.6541 0.53528 0.0
H1311 H 0.87601 0.6525 0.48226 0.0
C1312 C 0.39525 0.37401 0.50475 0.0
C1313 C 0.40522 0.3876 0.48804 0.0
C1314 C 0.38771 0.36458 0.45207 0.0
C1315 C 0.39024 0.36885 0.38117 0.0
C1316 C 0.3999 0.38283 0.36414 0.0
C1317 C 0.40724 0.39204 0.41773 0.0
C1318 C 0.3774 0.3498 0.47217 0.0
C1319 C 0.4029 0.38777 0.28917 0.0
C1320 C 0.38639 0.33486 0.2458 0.0
C1321 C 0.37064 0.33786 0.21815 0.0
C1322 C 0.39293 0.34491 0.29863 0.0
C1323 C 0.38346 0.35826 0.32462 0.0
C1324 C 0.36766 0.36152 0.29629 0.0
C1325 C 0.36145 0.3513 0.24323 0.0
C1326 C 0.4099 0.34114 0.32713 0.0
C1327 C 0.35723 0.37566 0.32269 0.0
H1328 H 0.3936 0.37053 0.55891 0.0
H1329 H 0.41487 0.40255 0.40424 0.0
H1330 H 0.365 0.35062 0.44776 0.0
H1331 H 0.38331 0.33836 0.4524 0.0
H1332 H 0.37586 0.34869 0.52959 0.0
H1333 H 0.41003 0.39944 0.28485 0.0
H1334 H 0.40982 0.37786 0.2619 0.0
H1335 H 0.39098 0.38933 0.26144 0.0
H1336 H 0.39359 0.32452 0.22671 0.0
H1337 H 0.34924 0.35367 0.22232 0.0
H1338 H 0.4091 0.33847 0.38381 0.0
H1339 H 0.41807 0.35204 0.32083 0.0
H1340 H 0.41574 0.33041 0.30069 0.0
H1341 H 0.35469 0.37402 0.37916 0.0
H1342 H 0.34527 0.37664 0.29461 0.0
H1343 H 0.36401 0.38747 0.31672 0.0
C1344 C 0.39213 0.6127 0.01601 0.0
C1345 C 0.40234 0.59899 0.02768 0.0
C1346 C 0.38301 0.61978 0.07067 0.0
C1347 C 0.38415 0.613 0.13863 0.0
C1348 C 0.39405 0.59889 0.15035 0.0
C1349 C 0.40302 0.59204 0.09473 0.0
C1350 C 0.37251 0.6348 0.0561 0.0
C1351 C 0.39558 0.59131 0.22207 0.0
C1352 C 0.37525 0.64247 0.28788 0.0
C1353 C 0.35885 0.63851 0.30455 0.0
C1354 C 0.38374 0.63397 0.23516 0.0
C1355 C 0.37564 0.62122 0.19801 0.0
C1356 C 0.35928 0.61678 0.21606 0.0
C1357 C 0.35108 0.62547 0.26927 0.0
C1358 C 0.40124 0.63897 0.21784 0.0
C1359 C 0.35026 0.60323 0.17769 0.0
H1360 H 0.39149 0.61811 0.96436 0.0
H1361 H 0.41083 0.58142 0.10427 0.0
H1362 H 0.35966 0.63266 0.07398 0.0
H1363 H 0.37737 0.64553 0.08568 0.0
H1364 H 0.37227 0.63803 -0.00023 0.0
H1365 H 0.403 0.57978 0.22164 0.0
H1366 H 0.40152 0.60024 0.2581 0.0
H1367 H 0.38316 0.5885 0.24349 0.0
H1368 H 0.38139 0.65248 0.31506 0.0
H1369 H 0.33841 0.62233 0.28174 0.0
H1370 H 0.40179 0.64381 0.16373 0.0
H1371 H 0.40953 0.62809 0.22034 0.0
H1372 H 0.40604 0.6486 0.25382 0.0
H1373 H 0.34858 0.60679 0.12224 0.0
H1374 H 0.33793 0.60064 0.20066 0.0
H1375 H 0.35764 0.59169 0.17834 0.0
C1376 C 0.15584 0.64432 0.80241 0.0
C1377 C 0.14666 0.64982 0.74483 0.0
C1378 C 0.14827 0.63568 0.85725 0.0
C1379 C 0.13108 0.63259 0.85469 0.0
C1380 C 0.12182 0.63775 0.79595 0.0
C1381 C 0.12973 0.64624 0.74158 0.0
C1382 C 0.15858 0.6302 0.91867 0.0
C1383 C 0.10344 0.63472 0.79143 0.0
C1384 C 0.1114 0.59986 0.96971 0.0
C1385 C 0.10459 0.60947 0.02343 0.0
C1386 C 0.12045 0.60716 0.91539 0.0
C1387 C 0.12262 0.6245 0.91449 0.0
C1388 C 0.11615 0.63422 0.96951 0.0
C1389 C 0.10727 0.62658 0.02348 0.0
C1390 C 0.12734 0.59637 0.85806 0.0
C1391 C 0.11816 0.65276 0.97026 0.0
H1392 H 0.16894 0.64697 0.8052 0.0
H1393 H 0.12253 0.65046 0.69735 0.0
H1394 H 0.15448 0.63674 0.9665 0.0
H1395 H 0.15688 0.61679 0.92801 0.0
H1396 H 0.17195 0.63269 0.91077 0.0
H1397 H 0.09812 0.63904 0.74121 0.0
H1398 H 0.10077 0.62136 0.79725 0.0
H1399 H 0.09708 0.64122 0.83475 0.0
H1400 H 0.10947 0.58662 0.96945 0.0
H1401 H 0.10204 0.63411 0.06473 0.0
H1402 H 0.14075 0.59871 0.85151 0.0
H1403 H 0.12128 0.59946 0.80781 0.0
H1404 H 0.12547 0.58302 0.86869 0.0
H1405 H 0.13143 0.65608 0.96685 0.0
H1406 H 0.1129 0.65848 0.01806 0.0
H1407 H 0.11194 0.65818 0.92406 0.0
C1408 C 0.13124 0.35528 0.72317 0.0
C1409 C 0.14423 0.34446 0.70745 0.0
C1410 C 0.12417 0.36527 0.67123 0.0
C1411 C 0.13023 0.36438 0.60198 0.0
C1412 C 0.14348 0.35365 0.586 0.0
C1413 C 0.15033 0.34383 0.6389 0.0
C1414 C 0.11006 0.3766 0.69023 0.0
C1415 C 0.15027 0.35235 0.51278 0.0
C1416 C 0.10114 0.37769 0.45722 0.0
C1417 C 0.1066 0.3938 0.44339 0.0
C1418 C 0.10889 0.3679 0.50795 0.0
C1419 C 0.12242 0.37437 0.54586 0.0
C1420 C 0.12828 0.39045 0.53092 0.0
C1421 C 0.12032 0.39997 0.47976 0.0
C1422 C 0.10235 0.35075 0.52205 0.0
C1423 C 0.14272 0.39774 0.57015 0.0
H1424 H 0.12648 0.35587 0.77598 0.0
H1425 H 0.16038 0.33553 0.6262 0.0
H1426 H 0.11315 0.38951 0.67588 0.0
H1427 H 0.09886 0.3731 0.66033 0.0
H1428 H 0.10709 0.37618 0.74681 0.0
H1429 H 0.16092 0.34373 0.50938 0.0
H1430 H 0.14047 0.34798 0.47679 0.0
H1431 H 0.15428 0.36468 0.49412 0.0
H1432 H 0.09058 0.37279 0.42931 0.0
H1433 H 0.12462 0.41241 0.46952 0.0
H1434 H 0.09785 0.34995 0.57663 0.0
H1435 H 0.11239 0.34153 0.51617 0.0
H1436 H 0.09208 0.34735 0.48643 0.0
H1437 H 0.13964 0.39873 0.62642 0.0
H1438 H 0.14614 0.41019 0.55059 0.0
H1439 H 0.15363 0.38953 0.56572 0.0
C1440 C 0.14216 0.23506 0.29039 0.0
C1441 C 0.15319 0.22399 0.25858 0.0
C1442 C 0.13879 0.25052 0.26052 0.0
C1443 C 0.14675 0.25506 0.19771 0.0
C1444 C 0.15766 0.24383 0.16467 0.0
C1445 C 0.16071 0.22841 0.19542 0.0
C1446 C 0.12689 0.26208 0.29655 0.0
C1447 C 0.16638 0.24822 0.09746 0.0
C1448 C 0.13252 0.28888 0.07544 0.0
C1449 C 0.14439 0.30114 0.08843 0.0
C1450 C 0.13233 0.27418 0.1142 0.0
C1451 C 0.14425 0.27175 0.16717 0.0
C1452 C 0.15517 0.28473 0.18503 0.0
C1453 C 0.15503 0.29933 0.1457 0.0
C1454 C 0.12029 0.26075 0.09428 0.0
C1455 C 0.16802 0.28267 0.24147 0.0
H1456 H 0.1362 0.23169 0.339 0.0
H1457 H 0.16921 0.21993 0.17043 0.0
H1458 H 0.13347 0.27342 0.31329 0.0
H1459 H 0.11704 0.26593 0.2598 0.0
H1460 H 0.12106 0.25634 0.34308 0.0
H1461 H 0.17419 0.23796 0.07765 0.0
H1462 H 0.15721 0.25146 0.0567 0.0
H1463 H 0.17432 0.25922 0.10572 0.0
H1464 H 0.12411 0.29023 0.03178 0.0
H1465 H 0.16414 0.30879 0.15668 0.0
H1466 H 0.11507 0.25474 0.14137 0.0
H1467 H 0.12685 0.25112 0.06377 0.0
H1468 H 0.10999 0.26558 0.06191 0.0
H1469 H 0.16241 0.27745 0.28942 0.0
H1470 H 0.17412 0.29454 0.25488 0.0
H1471 H 0.17761 0.27386 0.22341 0.0
C1472 C 0.95776 0.88873 0.36383 0.0
C1473 C 0.94713 0.90235 0.36995 0.0
C1474 C 0.97237 0.88784 0.40299 0.0
C1475 C 0.97635 0.90084 0.44935 0.0
C1476 C 0.96477 0.91361 0.46156 0.0
C1477 C 0.95022 0.91416 0.42193 0.0
C1478 C 0.98423 0.87382 0.38951 0.0
C1479 C 0.96847 0.92761 0.51123 0.0
C1480 C 0.01395 0.89788 0.56733 0.0
C1481 C 0.02583 0.90653 0.52829 0.0
C1482 C 0.99781 0.89573 0.54217 0.0
C1483 C 0.99346 0.90243 0.47661 0.0
C1484 C 0.00543 0.91101 0.43666 0.0
C1485 C 0.02147 0.91293 0.46295 0.0
C1486 C 0.98541 0.88643 0.58591 0.0
C1487 C 0.00125 0.91834 0.36633 0.0
H1488 H 0.95534 0.87939 0.32461 0.0
H1489 H 0.94199 0.92463 0.42779 0.0
H1490 H 0.99453 0.8783 0.35632 0.0
H1491 H 0.98966 0.86925 0.43902 0.0
H1492 H 0.97815 0.86334 0.36227 0.0
H1493 H 0.95728 0.93503 0.52315 0.0
H1494 H 0.97369 0.92287 0.56083 0.0
H1495 H 0.97783 0.93588 0.48741 0.0
H1496 H 0.01722 0.89285 0.61788 0.0
H1497 H 0.03056 0.9196 0.43248 0.0
H1498 H 0.98023 0.87596 0.55565 0.0
H1499 H 0.97496 0.89466 0.59971 0.0
H1500 H 0.99091 0.88154 0.63485 0.0
H1501 H 0.99681 0.90852 0.33056 0.0
H1502 H 0.012 0.92457 0.34175 0.0
H1503 H 0.99112 0.92747 0.37203 0.0
C1504 C 0.35923 0.70046 0.65177 0.0
C1505 C 0.3444 0.69196 0.64006 0.0
C1506 C 0.36008 0.71326 0.701 0.0
C1507 C 0.34568 0.71782 0.73823 0.0
C1508 C 0.33105 0.70844 0.73051 0.0
C1509 C 0.33064 0.69548 0.682 0.0
C1510 C 0.37605 0.72267 0.7093 0.0
C1511 C 0.31539 0.71299 0.76877 0.0
C1512 C 0.34766 0.74887 0.88672 0.0
C1513 C 0.34392 0.76363 0.85183 0.0
C1514 C 0.34856 0.73384 0.85038 0.0
C1515 C 0.34529 0.73358 0.77787 0.0
C1516 C 0.34137 0.74845 0.74259 0.0
C1517 C 0.34091 0.76333 0.77991 0.0
C1518 C 0.35313 0.71831 0.88937 0.0
C1519 C 0.33751 0.74863 0.66544 0.0
H1520 H 0.36995 0.69767 0.61998 0.0
H1521 H 0.31913 0.68897 0.67331 0.0
H1522 H 0.37494 0.73486 0.68337 0.0
H1523 H 0.37872 0.72495 0.76527 0.0
H1524 H 0.38666 0.71599 0.68575 0.0
H1525 H 0.30572 0.70333 0.76358 0.0
H1526 H 0.31789 0.71504 0.82499 0.0
H1527 H 0.31046 0.72472 0.74724 0.0
H1528 H 0.35016 0.7491 0.94231 0.0
H1529 H 0.33795 0.77471 0.75292 0.0
H1530 H 0.36424 0.71262 0.86545 0.0
H1531 H 0.34299 0.70915 0.88542 0.0
H1532 H 0.35568 0.72069 0.94545 0.0
H1533 H 0.3483 0.74405 0.63543 0.0
H1534 H 0.33432 0.76118 0.64628 0.0
H1535 H 0.32701 0.74024 0.65427 0.0
C1536 C 0.53984 0.07088 0.92129 0.0
C1537 C 0.54814 0.08369 0.88685 0.0
C1538 C 0.52843 0.07421 0.97427 0.0
C1539 C 0.5253 0.09078 0.99354 0.0
C1540 C 0.53461 0.10369 0.96299 0.0
C1541 C 0.54597 0.09999 0.90975 0.0
C1542 C 0.51884 0.06005 0.00585 0.0
C1543 C 0.53178 0.12149 0.98304 0.0
C1544 C 0.48121 0.09792 0.05145 0.0
C1545 C 0.48268 0.09719 0.12424 0.0
C1546 C 0.49513 0.09654 0.00844 0.0
C1547 C 0.51093 0.0945 0.03901 0.0
C1548 C 0.51259 0.0945 0.11249 0.0
C1549 C 0.49842 0.09576 0.15433 0.0
C1550 C 0.49283 0.09653 0.93018 0.0
C1551 C 0.52925 0.09256 0.14688 0.0
H1552 H 0.54165 0.05822 0.90451 0.0
H1553 H 0.5524 0.10995 0.8835 0.0
H1554 H 0.51893 0.06088 0.06361 0.0
H1555 H 0.50577 0.06074 0.98867 0.0
H1556 H 0.5239 0.04784 0.99024 0.0
H1557 H 0.54175 0.12968 0.96336 0.0
H1558 H 0.51987 0.12575 0.96079 0.0
H1559 H 0.53096 0.12281 0.04057 0.0
H1560 H 0.4691 0.0991 0.02784 0.0
H1561 H 0.49966 0.09537 0.21064 0.0
H1562 H 0.49629 0.08428 0.90874 0.0
H1563 H 0.50104 0.10583 0.90567 0.0
H1564 H 0.47989 0.09924 0.91478 0.0
H1565 H 0.5339 0.07983 0.13824 0.0
H1566 H 0.5287 0.09486 0.204 0.0
H1567 H 0.53834 0.10116 0.12331 0.0
C1568 C 0.13143 0.70413 0.37532 0.0
C1569 C 0.14359 0.69195 0.36679 0.0
C1570 C 0.12991 0.71713 0.32752 0.0
C1571 C 0.14072 0.71787 0.26961 0.0
C1572 C 0.15178 0.70468 0.25671 0.0
C1573 C 0.15308 0.69183 0.30553 0.0
C1574 C 0.11782 0.73086 0.34284 0.0
C1575 C 0.16336 0.70489 0.19495 0.0
C1576 C 0.13384 0.75137 0.13382 0.0
C1577 C 0.14476 0.76368 0.15699 0.0
C1578 C 0.13249 0.73626 0.16929 0.0
C1579 C 0.14223 0.73347 0.22941 0.0
C1580 C 0.15333 0.74581 0.25277 0.0
C1581 C 0.15448 0.76074 0.2162 0.0
C1582 C 0.12059 0.72335 0.14283 0.0
C1583 C 0.1639 0.74332 0.31691 0.0
H1584 H 0.12386 0.70419 0.42199 0.0
H1585 H 0.1624 0.68239 0.29807 0.0
H1586 H 0.12466 0.7418 0.36248 0.0
H1587 H 0.11121 0.73466 0.29478 0.0
H1588 H 0.10859 0.72722 0.38285 0.0
H1589 H 0.16903 0.6926 0.18559 0.0
H1590 H 0.1568 0.70884 0.14696 0.0
H1591 H 0.1734 0.71392 0.20476 0.0
H1592 H 0.12633 0.75353 0.0879 0.0
H1593 H 0.16294 0.77017 0.23443 0.0
H1594 H 0.11108 0.72078 0.18308 0.0
H1595 H 0.12722 0.7116 0.13285 0.0
H1596 H 0.11429 0.72724 0.09404 0.0
H1597 H 0.15592 0.74123 0.36317 0.0
H1598 H 0.17203 0.75407 0.32764 0.0
H1599 H 0.17175 0.73219 0.31042 0.0
C1600 C 0.48403 0.90309 0.4693 0.0
C1601 C 0.47987 0.89332 0.41156 0.0
C1602 C 0.49893 0.90069 0.505 0.0
C1603 C 0.51001 0.88826 0.48218 0.0
C1604 C 0.50601 0.8785 0.42337 0.0
C1605 C 0.49094 0.88111 0.38881 0.0
C1606 C 0.50273 0.91134 0.56779 0.0
C1607 C 0.51757 0.86522 0.39744 0.0
C1608 C 0.55274 0.89524 0.55556 0.0
C1609 C 0.55181 0.88616 0.61777 0.0
C1610 C 0.5397 0.89497 0.50731 0.0
C1611 C 0.5255 0.88538 0.52182 0.0
C1612 C 0.52529 0.87487 0.58074 0.0
C1613 C 0.5385 0.87532 0.62789 0.0
C1614 C 0.54051 0.90615 0.44438 0.0
C1615 C 0.51043 0.86435 0.59782 0.0
H1616 H 0.47556 0.91255 0.48718 0.0
H1617 H 0.48785 0.87355 0.34397 0.0
H1618 H 0.50415 0.90348 0.61482 0.0
H1619 H 0.51458 0.91795 0.55985 0.0
H1620 H 0.49291 0.9206 0.57812 0.0
H1621 H 0.51295 0.85915 0.34924 0.0
H1622 H 0.52993 0.87054 0.38664 0.0
H1623 H 0.51921 0.85566 0.43832 0.0
H1624 H 0.56305 0.90352 0.54687 0.0
H1625 H 0.5378 0.86806 0.6753 0.0
H1626 H 0.53263 0.91715 0.45359 0.0
H1627 H 0.53572 0.89978 0.39728 0.0
H1628 H 0.5533 0.91042 0.43384 0.0
H1629 H 0.50031 0.87238 0.61711 0.0
H1630 H 0.51323 0.85502 0.63866 0.0
H1631 H 0.50586 0.85788 0.55061 0.0
C1632 C 0.33358 0.23106 0.7254 0.0
C1633 C 0.33821 0.23039 0.65504 0.0
C1634 C 0.33411 0.24595 0.76255 0.0
C1635 C 0.33962 0.2605 0.72876 0.0
C1636 C 0.34421 0.25995 0.65755 0.0
C1637 C 0.34335 0.24489 0.62134 0.0
C1638 C 0.32887 0.24607 0.83825 0.0
C1639 C 0.35033 0.27516 0.62008 0.0
C1640 C 0.32639 0.29902 0.82507 0.0
C1641 C 0.33969 0.30118 0.87113 0.0
C1642 C 0.32665 0.28651 0.77445 0.0
C1643 C 0.34066 0.27614 0.76914 0.0
C1644 C 0.35478 0.27941 0.81043 0.0
C1645 C 0.35409 0.29185 0.86132 0.0
C1646 C 0.31133 0.28342 0.73145 0.0
C1647 C 0.37011 0.26889 0.80508 0.0
H1648 H 0.3295 0.21992 0.75157 0.0
H1649 H 0.34705 0.24443 0.567 0.0
H1650 H 0.33942 0.24978 0.87169 0.0
H1651 H 0.31889 0.25526 0.84632 0.0
H1652 H 0.32438 0.23381 0.85603 0.0
H1653 H 0.35266 0.27283 0.56379 0.0
H1654 H 0.34122 0.28532 0.62497 0.0
H1655 H 0.36197 0.27949 0.64454 0.0
H1656 H 0.31523 0.30623 0.83192 0.0
H1657 H 0.36451 0.29361 0.89611 0.0
H1658 H 0.30496 0.27224 0.75132 0.0
H1659 H 0.31456 0.2811 0.67607 0.0
H1660 H 0.30256 0.29396 0.73395 0.0
H1661 H 0.36774 0.25669 0.82941 0.0
H1662 H 0.38082 0.27465 0.83193 0.0
H1663 H 0.37341 0.26669 0.74966 0.0
C1664 C 0.00845 0.09286 0.95958 0.0
C1665 C 0.00956 0.10011 0.89333 0.0
C1666 C 0.99399 0.09415 0.99937 0.0
C1667 C 0.9803 0.10298 0.97245 0.0
C1668 C 0.98119 0.11006 0.90508 0.0
C1669 C 0.99581 0.1085 0.86618 0.0
C1670 C 0.99348 0.0863 0.07088 0.0
C1671 C 0.96685 0.11958 0.87483 0.0
C1672 C 0.94079 0.09316 0.06926 0.0
C1673 C 0.94114 0.10515 0.12214 0.0
C1674 C 0.95283 0.09297 0.01657 0.0
C1675 C 0.96536 0.10516 0.01658 0.0
C1676 C 0.96476 0.11821 0.06562 0.0
C1677 C 0.95266 0.11804 0.11796 0.0
C1678 C 0.95299 0.07888 0.965 0.0
C1679 C 0.97775 0.13159 0.06672 0.0
H1680 H 0.01897 0.08629 0.9808 0.0
H1681 H 0.99656 0.11414 0.81499 0.0
H1682 H 0.99172 0.09596 0.11128 0.0
H1683 H 0.98284 0.0777 0.07457 0.0
H1684 H 0.00495 0.07936 0.08306 0.0
H1685 H 0.96917 0.12352 0.82018 0.0
H1686 H 0.95547 0.11196 0.8761 0.0
H1687 H 0.96446 0.13072 0.90698 0.0
H1688 H 0.93191 0.08317 0.07188 0.0
H1689 H 0.95289 0.12745 0.1582 0.0
H1690 H 0.96292 0.07007 0.97937 0.0
H1691 H 0.95565 0.08339 0.91154 0.0
H1692 H 0.94107 0.07209 0.96439 0.0
H1693 H 0.98954 0.12639 0.08637 0.0
H1694 H 0.97417 0.14208 0.10093 0.0
H1695 H 0.98004 0.13635 0.01333 0.0
C1696 C 0.83329 0.75966 0.70002 0.0
C1697 C 0.84554 0.76815 0.66329 0.0
C1698 C 0.83729 0.74591 0.74112 0.0
C1699 C 0.85383 0.74017 0.74292 0.0
C1700 C 0.86607 0.74821 0.7026 0.0
C1701 C 0.86185 0.76239 0.66447 0.0
C1702 C 0.82397 0.73802 0.78506 0.0
C1703 C 0.88365 0.74202 0.70076 0.0
C1704 C 0.8651 0.71795 0.9096 0.0
C1705 C 0.86078 0.70162 0.89323 0.0
C1706 C 0.86356 0.73058 0.86016 0.0
C1707 C 0.85839 0.72664 0.79159 0.0
C1708 C 0.85584 0.70993 0.77262 0.0
C1709 C 0.85675 0.69762 0.8241 0.0
C1710 C 0.86599 0.74826 0.88327 0.0
C1711 C 0.85111 0.70517 0.69913 0.0
H1712 H 0.82071 0.76424 0.69912 0.0
H1713 H 0.87125 0.76893 0.6352 0.0
H1714 H 0.82276 0.72475 0.77174 0.0
H1715 H 0.82738 0.73878 0.84108 0.0
H1716 H 0.81176 0.74403 0.77781 0.0
H1717 H 0.89106 0.74822 0.65958 0.0
H1718 H 0.88966 0.74429 0.75186 0.0
H1719 H 0.88388 0.7285 0.69142 0.0
H1720 H 0.86843 0.72117 0.96266 0.0
H1721 H 0.85362 0.68499 0.81085 0.0
H1722 H 0.85399 0.75488 0.88115 0.0
H1723 H 0.8746 0.75476 0.84769 0.0
H1724 H 0.87088 0.74915 0.93732 0.0
H1725 H 0.83795 0.70824 0.68997 0.0
H1726 H 0.85282 0.69175 0.68965 0.0
H1727 H 0.85856 0.71217 0.66055 0.0
C1728 C 0.04319 0.11947 0.62654 0.0
C1729 C 0.05431 0.10621 0.62393 0.0
C1730 C 0.03099 0.1214 0.57535 0.0
C1731 C 0.02989 0.10976 0.52046 0.0
C1732 C 0.04215 0.0974 0.51356 0.0
C1733 C 0.0543 0.09581 0.56535 0.0
C1734 C 0.01832 0.13492 0.58398 0.0
C1735 C 0.0415 0.08482 0.45547 0.0
C1736 C 0.98641 0.09888 0.46407 0.0
C1737 C 0.98491 0.10749 0.40095 0.0
C1738 C 0.00107 0.09941 0.50277 0.0
C1739 C 0.01458 0.10884 0.47794 0.0
C1740 C 0.01323 0.11748 0.41405 0.0
C1741 C 0.9984 0.11668 0.37618 0.0
C1742 C 0.00204 0.08996 0.57066 0.0
C1743 C 0.02737 0.12769 0.38622 0.0
H1744 H 0.04328 0.12771 0.67118 0.0
H1745 H 0.06291 0.08559 0.56262 0.0
H1746 H 0.01559 0.1409 0.5332 0.0
H1747 H 0.00663 0.12951 0.60374 0.0
H1748 H 0.02247 0.14453 0.6215 0.0
H1749 H 0.05333 0.07799 0.45022 0.0
H1750 H 0.03155 0.07578 0.4666 0.0
H1751 H 0.03858 0.0908 0.40489 0.0
H1752 H 0.97608 0.09171 0.48349 0.0
H1753 H 0.99734 0.12336 0.32739 0.0
H1754 H 0.0043 0.09862 0.61453 0.0
H1755 H 0.01254 0.08117 0.56913 0.0
H1756 H 0.99056 0.08293 0.58178 0.0
H1757 H 0.03033 0.13774 0.42352 0.0
H1758 H 0.02452 0.13326 0.33465 0.0
H1759 H 0.03861 0.11995 0.38102 0.0
C1760 C 0.63552 0.28916 0.44379 0.0
C1761 C 0.64834 0.30078 0.43926 0.0
C1762 C 0.63383 0.27666 0.39362 0.0
C1763 C 0.64516 0.27584 0.33751 0.0
C1764 C 0.65703 0.28851 0.32882 0.0
C1765 C 0.65845 0.30088 0.37977 0.0
C1766 C 0.62086 0.26352 0.4043 0.0
C1767 C 0.66923 0.28818 0.26926 0.0
C1768 C 0.6573 0.23299 0.27669 0.0
C1769 C 0.64837 0.23142 0.2144 0.0
C1770 C 0.65634 0.24741 0.31692 0.0
C1771 C 0.64619 0.26062 0.29439 0.0
C1772 C 0.63715 0.25916 0.23153 0.0
C1773 C 0.63835 0.24456 0.1922 0.0
C1774 C 0.6662 0.24849 0.38375 0.0
C1775 C 0.62619 0.27297 0.20607 0.0
H1776 H 0.62749 0.28913 0.48904 0.0
H1777 H 0.66827 0.3099 0.37529 0.0
H1778 H 0.61459 0.26052 0.35442 0.0
H1779 H 0.62686 0.25205 0.42334 0.0
H1780 H 0.61141 0.26733 0.44313 0.0
H1781 H 0.67586 0.30012 0.26365 0.0
H1782 H 0.67849 0.27834 0.27879 0.0
H1783 H 0.66295 0.28529 0.21932 0.0
H1784 H 0.66507 0.22291 0.29426 0.0
H1785 H 0.6314 0.24346 0.1441 0.0
H1786 H 0.65778 0.25049 0.42865 0.0
H1787 H 0.67473 0.25919 0.38151 0.0
H1788 H 0.67356 0.23715 0.39369 0.0
H1789 H 0.61653 0.27567 0.24553 0.0
H1790 H 0.62007 0.26995 0.15577 0.0
H1791 H 0.63354 0.28441 0.19919 0.0
C1792 C 0.44827 0.92021 0.07752 0.0
C1793 C 0.44555 0.90826 0.12928 0.0
C1794 C 0.46034 0.91788 0.02596 0.0
C1795 C 0.46984 0.90321 0.02597 0.0
C1796 C 0.4662 0.89053 0.07443 0.0
C1797 C 0.45409 0.89321 0.12555 0.0
C1798 C 0.46377 0.93165 0.97487 0.0
C1799 C 0.47592 0.87462 0.0756 0.0
C1800 C 0.498 0.89398 0.87205 0.0
C1801 C 0.51333 0.89948 0.89729 0.0
C1802 C 0.48369 0.8951 0.9132 0.0
C1803 C 0.48474 0.90193 0.981 0.0
C1804 C 0.50015 0.9076 0.00656 0.0
C1805 C 0.51425 0.90627 0.96447 0.0
C1806 C 0.46749 0.88888 0.88438 0.0
C1807 C 0.50176 0.91503 0.07858 0.0
H1808 H 0.44165 0.93183 0.07957 0.0
H1809 H 0.45198 0.88383 0.16492 0.0
H1810 H 0.47574 0.93756 0.98805 0.0
H1811 H 0.46483 0.92674 0.92101 0.0
H1812 H 0.454 0.94127 0.97583 0.0
H1813 H 0.47015 0.86521 0.11001 0.0
H1814 H 0.47705 0.86943 0.02223 0.0
H1815 H 0.4886 0.87711 0.09489 0.0
H1816 H 0.49718 0.88869 0.8202 0.0
H1817 H 0.52602 0.91057 0.98435 0.0
H1818 H 0.45823 0.89897 0.88432 0.0
H1819 H 0.46259 0.87891 0.91823 0.0
H1820 H 0.46873 0.88404 0.83038 0.0
H1821 H 0.4935 0.9259 0.0835 0.0
H1822 H 0.5146 0.91899 0.09035 0.0
H1823 H 0.49787 0.90591 0.11853 0.0
C1824 C 0.85546 0.28491 0.57714 0.0
C1825 C 0.85115 0.30107 0.59653 0.0
C1826 C 0.85483 0.27195 0.6254 0.0
C1827 C 0.85057 0.27535 0.69557 0.0
C1828 C 0.84797 0.29189 0.71707 0.0
C1829 C 0.84799 0.30455 0.66695 0.0
C1830 C 0.85725 0.25447 0.59968 0.0
C1831 C 0.84415 0.29609 0.7921 0.0
C1832 C 0.82743 0.24158 0.79152 0.0
C1833 C 0.84029 0.23336 0.82565 0.0
C1834 C 0.83063 0.25538 0.74949 0.0
C1835 C 0.84699 0.26146 0.74388 0.0
C1836 C 0.85991 0.25361 0.78093 0.0
C1837 C 0.85646 0.23941 0.8203 0.0
C1838 C 0.81657 0.26308 0.70914 0.0
C1839 C 0.87737 0.26012 0.77841 0.0
H1840 H 0.85807 0.2821 0.52296 0.0
H1841 H 0.84485 0.31703 0.68243 0.0
H1842 H 0.86619 0.24779 0.63317 0.0
H1843 H 0.84534 0.24773 0.60258 0.0
H1844 H 0.86172 0.25404 0.54488 0.0
H1845 H 0.84554 0.30951 0.80259 0.0
H1846 H 0.83125 0.29249 0.80427 0.0
H1847 H 0.85237 0.28914 0.82795 0.0
H1848 H 0.81496 0.23681 0.79556 0.0
H1849 H 0.86636 0.23312 0.84755 0.0
H1850 H 0.81929 0.26264 0.65239 0.0
H1851 H 0.81521 0.27626 0.72375 0.0
H1852 H 0.80463 0.25673 0.71865 0.0
H1853 H 0.88249 0.25855 0.72514 0.0
H1854 H 0.88561 0.25366 0.81588 0.0
H1855 H 0.87751 0.27353 0.79032 0.0
C1856 C 0.46711 0.11302 0.38534 0.0
C1857 C 0.45181 0.10611 0.40361 0.0
C1858 C 0.48124 0.11003 0.42559 0.0
C1859 C 0.47992 0.10041 0.48695 0.0
C1860 C 0.46421 0.09495 0.50971 0.0
C1861 C 0.45033 0.09772 0.46734 0.0
C1862 C 0.49779 0.11589 0.39886 0.0
C1863 C 0.46221 0.08515 0.57616 0.0
C1864 C 0.51693 0.07399 0.53465 0.0
C1865 C 0.52481 0.08382 0.58465 0.0
C1866 C 0.50228 0.07927 0.5026 0.0
C1867 C 0.49513 0.09454 0.52257 0.0
C1868 C 0.50281 0.1043 0.57447 0.0
C1869 C 0.5177 0.09893 0.60424 0.0
C1870 C 0.49463 0.06866 0.44635 0.0
C1871 C 0.49532 0.12041 0.59835 0.0
H1872 H 0.46838 0.11968 0.33658 0.0
H1873 H 0.43852 0.09252 0.48233 0.0
H1874 H 0.50493 0.12194 0.44107 0.0
H1875 H 0.50507 0.10511 0.38064 0.0
H1876 H 0.49651 0.12469 0.35471 0.0
H1877 H 0.44907 0.08425 0.5924 0.0
H1878 H 0.46703 0.07247 0.56814 0.0
H1879 H 0.46942 0.09082 0.61919 0.0
H1880 H 0.52244 0.06234 0.51933 0.0
H1881 H 0.52368 0.10646 0.64359 0.0
H1882 H 0.49376 0.07576 0.39696 0.0
H1883 H 0.4819 0.06511 0.46147 0.0
H1884 H 0.50185 0.05723 0.43638 0.0
H1885 H 0.49499 0.1293 0.55435 0.0
H1886 H 0.50234 0.12606 0.64208 0.0
H1887 H 0.48238 0.11842 0.61539 0.0
C1888 C 0.66845 0.76769 0.19445 0.0
C1889 C 0.66258 0.77059 0.26215 0.0
C1890 C 0.66724 0.75199 0.16386 0.0
C1891 C 0.65999 0.73886 0.20191 0.0
C1892 C 0.65397 0.7417 0.27015 0.0
C1893 C 0.65534 0.75753 0.29949 0.0
C1894 C 0.67378 0.74946 0.09076 0.0
C1895 C 0.64613 0.72801 0.31212 0.0
C1896 C 0.64608 0.70398 0.08444 0.0
C1897 C 0.66015 0.69385 0.0844 0.0
C1898 C 0.64532 0.71816 0.1264 0.0
C1899 C 0.6589 0.7222 0.16968 0.0
C1900 C 0.67236 0.71112 0.17519 0.0
C1901 C 0.6728 0.69703 0.13262 0.0
C1902 C 0.63063 0.72953 0.11964 0.0
C1903 C 0.687 0.71489 0.22131 0.0
H1904 H 0.67404 0.77769 0.16521 0.0
H1905 H 0.65075 0.75965 0.35188 0.0
H1906 H 0.68351 0.73981 0.09098 0.0
H1907 H 0.66372 0.74507 0.05608 0.0
H1908 H 0.67905 0.76095 0.06825 0.0
H1909 H 0.64195 0.73227 0.36435 0.0
H1910 H 0.63535 0.72292 0.28357 0.0
H1911 H 0.65505 0.71776 0.31924 0.0
H1912 H 0.63611 0.70147 0.04821 0.0
H1913 H 0.68366 0.68921 0.13357 0.0
H1914 H 0.63422 0.74054 0.08871 0.0
H1915 H 0.62651 0.73391 0.17163 0.0
H1916 H 0.62008 0.72342 0.09306 0.0
H1917 H 0.69426 0.72511 0.19797 0.0
H1918 H 0.69525 0.70403 0.22749 0.0
H1919 H 0.68288 0.719 0.27372 0.0
C1920 C 0.04454 0.88828 0.86665 0.0
C1921 C 0.05556 0.90164 0.86979 0.0
C1922 C 0.03007 0.88817 0.90684 0.0
C1923 C 0.02661 0.9017 0.95121 0.0
C1924 C 0.03857 0.91426 0.96042 0.0
C1925 C 0.05298 0.91403 0.91979 0.0
C1926 C 0.01777 0.87436 0.89655 0.0
C1927 C 0.03544 0.92882 0.00787 0.0
C1928 C 0.98181 0.91487 0.96541 0.0
C1929 C 0.97749 0.90902 0.03172 0.0
C1930 C 0.99775 0.91247 0.93874 0.0
C1931 C 0.00967 0.90399 0.97934 0.0
C1932 C 0.00538 0.89794 0.0461 0.0
C1933 C 0.98933 0.90053 0.07155 0.0
C1934 C 0.00187 0.91913 0.86715 0.0
C1935 C 0.01774 0.88879 0.09065 0.0
H1936 H 0.04656 0.8785 0.82895 0.0
H1937 H 0.0615 0.92431 0.9233 0.0
H1938 H 0.0125 0.87036 0.94721 0.0
H1939 H 0.00742 0.87885 0.8637 0.0
H1940 H 0.02343 0.86351 0.87034 0.0
H1941 H 0.04687 0.93601 0.01791 0.0
H1942 H 0.02625 0.93713 0.98317 0.0
H1943 H 0.03024 0.92471 0.05852 0.0
H1944 H 0.97275 0.92142 0.93432 0.0
H1945 H 0.98609 0.89595 0.12291 0.0
H1946 H 0.00594 0.90892 0.83258 0.0
H1947 H 0.01223 0.92804 0.8709 0.0
H1948 H 0.99119 0.92543 0.84231 0.0
H1949 H 0.02241 0.87781 0.06222 0.0
H1950 H 0.01237 0.88469 0.14111 0.0
H1951 H 0.02852 0.89683 0.10158 0.0
C1952 C 0.65937 0.80356 0.67095 0.0
C1953 C 0.64864 0.80378 0.61349 0.0
C1954 C 0.6585 0.79088 0.72065 0.0
C1955 C 0.64656 0.77825 0.71266 0.0
C1956 C 0.63449 0.77953 0.65953 0.0
C1957 C 0.63567 0.79232 0.61053 0.0
C1958 C 0.67145 0.79008 0.77721 0.0
C1959 C 0.62139 0.76647 0.64987 0.0
C1960 C 0.65969 0.73463 0.75696 0.0
C1961 C 0.65141 0.73185 0.82008 0.0
C1962 C 0.65831 0.74977 0.72217 0.0
C1963 C 0.64843 0.76247 0.75125 0.0
C1964 C 0.64021 0.75985 0.81541 0.0
C1965 C 0.64179 0.74453 0.84911 0.0
C1966 C 0.66731 0.7521 0.65377 0.0
C1967 C 0.62963 0.77313 0.84797 0.0
H1968 H 0.66933 0.81247 0.67414 0.0
H1969 H 0.62714 0.79257 0.5669 0.0
H1970 H 0.66595 0.78618 0.82758 0.0
H1971 H 0.68092 0.78079 0.76269 0.0
H1972 H 0.67771 0.80216 0.78466 0.0
H1973 H 0.61138 0.77067 0.61438 0.0
H1974 H 0.6271 0.75523 0.62712 0.0
H1975 H 0.61586 0.76295 0.70069 0.0
H1976 H 0.66718 0.72492 0.73427 0.0
H1977 H 0.63541 0.7425 0.89811 0.0
H1978 H 0.6757 0.7629 0.6572 0.0
H1979 H 0.65831 0.75464 0.61146 0.0
H1980 H 0.67472 0.74109 0.63896 0.0
H1981 H 0.63687 0.78467 0.8542 0.0
H1982 H 0.62473 0.76942 0.89978 0.0
H1983 H 0.61908 0.776 0.81313 0.0
C1984 C 0.44668 0.39388 0.89881 0.0
C1985 C 0.43649 0.40725 0.88132 0.0
C1986 C 0.45917 0.39558 0.94903 0.0
C1987 C 0.46166 0.41108 0.98158 0.0
C1988 C 0.45057 0.42421 0.96827 0.0
C1989 C 0.438 0.42208 0.91875 0.0
C1990 C 0.47049 0.38115 0.96319 0.0
C1991 C 0.45286 0.44096 0.0015 0.0
C1992 C 0.49211 0.41421 0.13198 0.0
C1993 C 0.50668 0.41859 0.09688 0.0
C1994 C 0.47728 0.41181 0.09538 0.0
C1995 C 0.47699 0.41414 0.02223 0.0
C1996 C 0.49156 0.41906 0.98689 0.0
C1997 C 0.50626 0.42108 0.02458 0.0
C1998 C 0.46207 0.40633 0.13461 0.0
C1999 C 0.49168 0.42196 0.90899 0.0
H2000 H 0.44548 0.38235 0.87051 0.0
H2001 H 0.43019 0.43249 0.90563 0.0
H2002 H 0.48267 0.38346 0.93852 0.0
H2003 H 0.47258 0.37969 0.02008 0.0
H2004 H 0.46545 0.36941 0.94209 0.0
H2005 H 0.44198 0.44909 0.99333 0.0
H2006 H 0.45513 0.43977 0.05834 0.0
H2007 H 0.46384 0.44707 0.97834 0.0
H2008 H 0.4924 0.41212 0.18786 0.0
H2009 H 0.51748 0.42453 0.99733 0.0
H2010 H 0.45823 0.39393 0.11609 0.0
H2011 H 0.45166 0.41488 0.12425 0.0
H2012 H 0.46417 0.40573 0.19186 0.0
H2013 H 0.48874 0.41029 0.88128 0.0
H2014 H 0.50382 0.42652 0.89005 0.0
H2015 H 0.48205 0.43109 0.89467 0.0
C2016 C 0.83733 0.25238 0.37475 0.0
C2017 C 0.83272 0.2667 0.33848 0.0
C2018 C 0.83967 0.23737 0.33946 0.0
C2019 C 0.83699 0.23665 0.26656 0.0
C2020 C 0.83182 0.25097 0.23016 0.0
C2021 C 0.82992 0.26588 0.26648 0.0
C2022 C 0.84548 0.22244 0.37972 0.0
C2023 C 0.82851 0.25063 0.15257 0.0
C2024 C 0.85679 0.20584 0.14414 0.0
C2025 C 0.84345 0.19538 0.12952 0.0
C2026 C 0.85527 0.2186 0.19326 0.0
C2027 C 0.83995 0.22112 0.22723 0.0
C2028 C 0.82684 0.20984 0.21643 0.0
C2029 C 0.82883 0.19697 0.1682 0.0
C2030 C 0.86968 0.2301 0.20484 0.0
C2031 C 0.81024 0.21221 0.25093 0.0
H2032 H 0.83965 0.25302 0.43041 0.0
H2033 H 0.82628 0.27692 0.23846 0.0
H2034 H 0.8369 0.21195 0.37158 0.0
H2035 H 0.85777 0.21852 0.36014 0.0
H2036 H 0.84646 0.22492 0.43661 0.0
H2037 H 0.8237 0.2626 0.1329 0.0
H2038 H 0.84007 0.24767 0.12406 0.0
H2039 H 0.81942 0.24081 0.14004 0.0
H2040 H 0.86815 0.20457 0.11464 0.0
H2041 H 0.81842 0.18898 0.15691 0.0
H2042 H 0.87144 0.23253 0.26134 0.0
H2043 H 0.86714 0.24211 0.17919 0.0
H2044 H 0.88135 0.22504 0.18307 0.0
H2045 H 0.81172 0.21469 0.3075 0.0
H2046 H 0.8021 0.20129 0.24416 0.0
H2047 H 0.804 0.22309 0.22763 0.0
C2048 C 0.98925 0.59785 0.53784 0.0
C2049 C 0.98532 0.60782 0.59526 0.0
C2050 C 0.00424 0.59978 0.50225 0.0
C2051 C 0.01566 0.6119 0.52495 0.0
C2052 C 0.01188 0.62189 0.58336 0.0
C2053 C 0.99671 0.61977 0.61773 0.0
C2054 C 0.0078 0.58893 0.43983 0.0
C2055 C 0.0238 0.63485 0.60921 0.0
C2056 C 0.0585 0.60377 0.4544 0.0
C2057 C 0.05813 0.61295 0.39235 0.0
C2058 C 0.04522 0.60429 0.50142 0.0
C2059 C 0.03132 0.61423 0.48584 0.0
C2060 C 0.03164 0.62476 0.42697 0.0
C2061 C 0.0451 0.62406 0.38111 0.0
C2062 C 0.04546 0.59309 0.56438 0.0
C2063 C 0.01712 0.63562 0.40871 0.0
H2064 H 0.98052 0.5886 0.52017 0.0
H2065 H 0.9938 0.62747 0.66234 0.0
H2066 H 0.00959 0.59668 0.3927 0.0
H2067 H 0.0194 0.58192 0.44834 0.0
H2068 H 0.99768 0.58 0.42933 0.0
H2069 H 0.01923 0.64123 0.65678 0.0
H2070 H 0.03593 0.62913 0.62107 0.0
H2071 H 0.02591 0.64421 0.56789 0.0
H2072 H 0.06858 0.59526 0.46396 0.0
H2073 H 0.04483 0.6314 0.33383 0.0
H2074 H 0.0372 0.58239 0.55488 0.0
H2075 H 0.04079 0.59964 0.61125 0.0
H2076 H 0.05806 0.58835 0.57552 0.0
H2077 H 0.00683 0.62782 0.38927 0.0
H2078 H 0.02026 0.64478 0.36764 0.0
H2079 H 0.01258 0.64232 0.45544 0.0
C2080 C 0.65807 0.25776 0.77725 0.0
C2081 C 0.6511 0.25898 0.71053 0.0
C2082 C 0.6571 0.24304 0.81542 0.0
C2083 C 0.6488 0.22925 0.78647 0.0
C2084 C 0.64171 0.23037 0.71918 0.0
C2085 C 0.64302 0.24523 0.68178 0.0
C2086 C 0.66497 0.24228 0.88688 0.0
C2087 C 0.63264 0.21597 0.68708 0.0
C2088 C 0.66132 0.18961 0.87575 0.0
C2089 C 0.64974 0.18896 0.93015 0.0
C2090 C 0.66045 0.20199 0.8247 0.0
C2091 C 0.64757 0.21378 0.82778 0.0
C2092 C 0.63486 0.21204 0.87795 0.0
C2093 C 0.63614 0.19967 0.92882 0.0
C2094 C 0.67424 0.2034 0.77199 0.0
C2095 C 0.62073 0.22416 0.88207 0.0
H2096 H 0.66439 0.2683 0.79965 0.0
H2097 H 0.63756 0.2461 0.63028 0.0
H2098 H 0.65543 0.23961 0.92689 0.0
H2099 H 0.67413 0.2321 0.88875 0.0
H2100 H 0.67128 0.25398 0.90111 0.0
H2101 H 0.62801 0.21879 0.63384 0.0
H2102 H 0.64089 0.20506 0.68409 0.0
H2103 H 0.62201 0.21249 0.72051 0.0
H2104 H 0.67184 0.18135 0.87617 0.0
H2105 H 0.62703 0.1991 0.97025 0.0
H2106 H 0.68253 0.2137 0.78718 0.0
H2107 H 0.6693 0.20623 0.71937 0.0
H2108 H 0.6817 0.19191 0.76896 0.0
H2109 H 0.62523 0.23596 0.90453 0.0
H2110 H 0.61052 0.2195 0.91545 0.0
H2111 H 0.61578 0.22687 0.82933 0.0
C2112 C 0.99492 0.40367 0.85825 0.0
C2113 C 0.97913 0.40329 0.88847 0.0
C2114 C 0.00915 0.4045 0.89993 0.0
C2115 C 0.0075 0.40516 0.97338 0.0
C2116 C 0.99163 0.40419 0.00416 0.0
C2117 C 0.97764 0.4032 0.96133 0.0
C2118 C 0.02588 0.40527 0.86534 0.0
C2119 C 0.98934 0.40494 0.08236 0.0
C2120 C 0.0421 0.39891 0.10407 0.0
C2121 C 0.04508 0.41526 0.12471 0.0
C2122 C 0.03065 0.39538 0.051 0.0
C2123 C 0.02205 0.4085 0.01835 0.0
C2124 C 0.02604 0.42503 0.03522 0.0
C2125 C 0.03755 0.4282 0.08803 0.0
C2126 C 0.02691 0.3776 0.03345 0.0
C2127 C 0.01724 0.4394 0.00139 0.0
H2128 H 0.99617 0.40357 0.80191 0.0
H2129 H 0.9655 0.40285 0.98505 0.0
H2130 H 0.03118 0.41781 0.87199 0.0
H2131 H 0.03452 0.39643 0.89028 0.0
H2132 H 0.0252 0.4025 0.80862 0.0
H2133 H 0.97627 0.40306 0.0981 0.0
H2134 H 0.99704 0.39542 0.10822 0.0
H2135 H 0.99346 0.41716 0.10206 0.0
H2136 H 0.04794 0.38885 0.13201 0.0
H2137 H 0.03999 0.44087 0.10304 0.0
H2138 H 0.02599 0.37587 0.97615 0.0
H2139 H 0.01482 0.37412 0.05636 0.0
H2140 H 0.03647 0.36908 0.05425 0.0
H2141 H 0.0173 0.43809 0.94379 0.0
H2142 H 0.02294 0.45145 0.0152 0.0
H2143 H 0.00415 0.43957 0.01853 0.0
C2144 C 0.84866 0.75195 0.12399 0.0
C2145 C 0.845 0.73722 0.15926 0.0
C2146 C 0.84969 0.76701 0.16008 0.0
C2147 C 0.84662 0.76733 0.23275 0.0
C2148 C 0.84266 0.75251 0.26833 0.0
C2149 C 0.84207 0.7376 0.23124 0.0
C2150 C 0.85428 0.78249 0.12076 0.0
C2151 C 0.83902 0.75239 0.34568 0.0
C2152 C 0.86173 0.79992 0.35866 0.0
C2153 C 0.84711 0.80863 0.37204 0.0
C2154 C 0.86215 0.78726 0.3087 0.0
C2155 C 0.8475 0.78305 0.27247 0.0
C2156 C 0.83309 0.79269 0.28169 0.0
C2157 C 0.83312 0.80551 0.3309 0.0
C2158 C 0.8779 0.77757 0.29882 0.0
C2159 C 0.81718 0.78852 0.24454 0.0
H2160 H 0.85109 0.75167 0.06835 0.0
H2161 H 0.83916 0.72625 0.25852 0.0
H2162 H 0.84442 0.7919 0.1265 0.0
H2163 H 0.86573 0.78786 0.14308 0.0
H2164 H 0.85629 0.78013 0.06427 0.0
H2165 H 0.8356 0.73991 0.36493 0.0
H2166 H 0.85 0.7567 0.37512 0.0
H2167 H 0.82875 0.76102 0.35749 0.0
H2168 H 0.87262 0.8024 0.38989 0.0
H2169 H 0.82175 0.81217 0.34095 0.0
H2170 H 0.88026 0.77532 0.24258 0.0
H2171 H 0.87667 0.76536 0.32457 0.0
H2172 H 0.88873 0.78403 0.32162 0.0
H2173 H 0.81941 0.78635 0.18819 0.0
H2174 H 0.80779 0.79844 0.25025 0.0
H2175 H 0.81202 0.77695 0.26663 0.0
C2176 C 0.50718 0.60988 0.4335 0.0
C2177 C 0.51912 0.5999 0.46595 0.0
C2178 C 0.49151 0.61213 0.46341 0.0
C2179 C 0.48768 0.60414 0.527 0.0
C2180 C 0.49976 0.59428 0.56055 0.0
C2181 C 0.51533 0.59231 0.52966 0.0
C2182 C 0.47901 0.62289 0.42673 0.0
C2183 C 0.49616 0.5856 0.6287 0.0
C2184 C 0.45365 0.61613 0.65196 0.0
C2185 C 0.44245 0.60311 0.64189 0.0
C2186 C 0.4679 0.61749 0.61078 0.0
C2187 C 0.47096 0.60558 0.55831 0.0
C2188 C 0.45882 0.59353 0.54294 0.0
C2189 C 0.44464 0.59251 0.58471 0.0
C2190 C 0.48039 0.63071 0.62806 0.0
C2191 C 0.46155 0.58068 0.48702 0.0
H2192 H 0.51004 0.61586 0.38437 0.0
H2193 H 0.52447 0.58463 0.55518 0.0
H2194 H 0.46814 0.61539 0.41138 0.0
H2195 H 0.47452 0.63267 0.46261 0.0
H2196 H 0.48417 0.62883 0.37926 0.0
H2197 H 0.50696 0.57853 0.64836 0.0
H2198 H 0.49251 0.59473 0.66902 0.0
H2199 H 0.48565 0.57696 0.62187 0.0
H2200 H 0.45195 0.62454 0.69541 0.0
H2201 H 0.43597 0.58252 0.5759 0.0
H2202 H 0.48574 0.6361 0.57989 0.0
H2203 H 0.49067 0.62516 0.65837 0.0
H2204 H 0.47488 0.64078 0.6598 0.0
H2205 H 0.46628 0.58644 0.43848 0.0
H2206 H 0.45005 0.5738 0.47463 0.0
H2207 H 0.47098 0.57171 0.50514 0.0
C2208 C 0.33895 0.19517 0.34498 0.0
C2209 C 0.35011 0.19325 0.40038 0.0
C2210 C 0.33892 0.20959 0.30452 0.0
C2211 C 0.35047 0.22223 0.31926 0.0
C2212 C 0.36291 0.21956 0.36985 0.0
C2213 C 0.36258 0.20507 0.4099 0.0
C2214 C 0.3255 0.21193 0.2507 0.0
C2215 C 0.37566 0.23259 0.38621 0.0
C2216 C 0.35219 0.25874 0.19508 0.0
C2217 C 0.34198 0.27019 0.2293 0.0
C2218 C 0.35539 0.24317 0.22429 0.0
C2219 C 0.3481 0.23894 0.28889 0.0
C2220 C 0.338 0.25054 0.32421 0.0
C2221 C 0.33511 0.26604 0.29407 0.0
C2222 C 0.36643 0.23121 0.18581 0.0
C2223 C 0.33001 0.24647 0.39339 0.0
H2224 H 0.32935 0.18605 0.33669 0.0
H2225 H 0.3714 0.20359 0.45202 0.0
H2226 H 0.31634 0.22099 0.27053 0.0
H2227 H 0.33067 0.21696 0.20153 0.0
H2228 H 0.31895 0.20021 0.23886 0.0
H2229 H 0.38618 0.22747 0.41646 0.0
H2230 H 0.38048 0.23828 0.33767 0.0
H2231 H 0.36985 0.24253 0.41765 0.0
H2232 H 0.35765 0.26189 0.1452 0.0
H2233 H 0.32725 0.27482 0.32089 0.0
H2234 H 0.3593 0.22005 0.17104 0.0
H2235 H 0.37665 0.22711 0.22024 0.0
H2236 H 0.37179 0.2367 0.13777 0.0
H2237 H 0.32172 0.23565 0.3873 0.0
H2238 H 0.3227 0.25695 0.41452 0.0
H2239 H 0.33959 0.24309 0.43221 0.0
C2240 C 0.54241 0.61429 0.09865 0.0
C2241 C 0.5523 0.60034 0.11021 0.0
C2242 C 0.5301 0.6142 0.04718 0.0
C2243 C 0.52753 0.59974 0.00705 0.0
C2244 C 0.53853 0.58626 0.01376 0.0
C2245 C 0.5509 0.58678 0.06499 0.0
C2246 C 0.51888 0.62899 0.04038 0.0
C2247 C 0.53624 0.57063 0.97193 0.0
C2248 C 0.4828 0.59014 0.96574 0.0
C2249 C 0.48175 0.59434 0.895 0.0
C2250 C 0.49771 0.59165 0.00222 0.0
C2251 C 0.5119 0.59771 0.96732 0.0
C2252 C 0.51097 0.6019 0.89575 0.0
C2253 C 0.4959 0.60008 0.86025 0.0
C2254 C 0.49824 0.58682 0.07837 0.0
C2255 C 0.52577 0.60858 0.85711 0.0
H2256 H 0.54359 0.62491 0.13275 0.0
H2257 H 0.55855 0.57597 0.07318 0.0
H2258 H 0.51646 0.63184 0.98469 0.0
H2259 H 0.50683 0.62622 0.06537 0.0
H2260 H 0.52419 0.64011 0.06589 0.0
H2261 H 0.54727 0.5625 0.97462 0.0
H2262 H 0.52549 0.56371 0.99278 0.0
H2263 H 0.53362 0.57348 0.91643 0.0
H2264 H 0.47195 0.5856 0.99274 0.0
H2265 H 0.49513 0.60343 0.80558 0.0
H2266 H 0.50151 0.59771 0.11069 0.0
H2267 H 0.50792 0.57734 0.08695 0.0
H2268 H 0.48625 0.58184 0.0971 0.0
H2269 H 0.52959 0.62052 0.88043 0.0
H2270 H 0.5232 0.61052 0.80075 0.0
H2271 H 0.53638 0.59999 0.86227 0.0
C2272 C 0.14077 0.79096 0.86992 0.0
C2273 C 0.1549 0.80096 0.8728 0.0
C2274 C 0.13918 0.7786 0.81906 0.0
C2275 C 0.15204 0.77619 0.77009 0.0
C2276 C 0.16566 0.78713 0.76909 0.0
C2277 C 0.1669 0.79945 0.82034 0.0
C2278 C 0.12433 0.76734 0.8212 0.0
C2279 C 0.1796 0.78502 0.71748 0.0
C2280 C 0.15937 0.73208 0.7113 0.0
C2281 C 0.15234 0.73205 0.64447 0.0
C2282 C 0.15944 0.74642 0.7523 0.0
C2283 C 0.15223 0.76109 0.72599 0.0
C2284 C 0.14516 0.76119 0.65848 0.0
C2285 C 0.14534 0.74667 0.6184 0.0
C2286 C 0.16718 0.74585 0.82401 0.0
C2287 C 0.1373 0.77657 0.62892 0.0
H2288 H 0.13134 0.79215 0.90979 0.0
H2289 H 0.17782 0.80718 0.82181 0.0
H2290 H 0.1192 0.76553 0.76807 0.0
H2291 H 0.12811 0.75504 0.84108 0.0
H2292 H 0.11443 0.77223 0.85563 0.0
H2293 H 0.1881 0.79578 0.71735 0.0
H2294 H 0.18681 0.77382 0.73114 0.0
H2295 H 0.17471 0.78323 0.66394 0.0
H2296 H 0.16485 0.72087 0.73176 0.0
H2297 H 0.13986 0.74675 0.5668 0.0
H2298 H 0.1578 0.74888 0.86421 0.0
H2299 H 0.17712 0.75523 0.82794 0.0
H2300 H 0.1725 0.73354 0.83625 0.0
H2301 H 0.1269 0.78052 0.66271 0.0
H2302 H 0.13257 0.77467 0.57509 0.0
H2303 H 0.14638 0.78683 0.62819 0.0
C2304 C 0.01173 0.40298 0.40246 0.0
C2305 C 0.01956 0.41759 0.42372 0.0
C2306 C 0.99663 0.3981 0.43187 0.0
C2307 C 0.98948 0.40784 0.4852 0.0
C2308 C 0.99729 0.42268 0.50646 0.0
C2309 C 0.01213 0.4275 0.47466 0.0
C2310 C 0.98843 0.38248 0.40647 0.0
C2311 C 0.99021 0.43324 0.56419 0.0
C2312 C 0.94496 0.40579 0.54503 0.0
C2313 C 0.94656 0.39697 0.60764 0.0
C2314 C 0.95865 0.40835 0.50133 0.0
C2315 C 0.9743 0.40223 0.52166 0.0
C2316 C 0.97568 0.39216 0.58172 0.0
C2317 C 0.96171 0.38939 0.62325 0.0
C2318 C 0.95657 0.41862 0.43622 0.0
C2319 C 0.99217 0.38557 0.60583 0.0
H2320 H 0.01737 0.3954 0.36233 0.0
H2321 H 0.0182 0.43878 0.49123 0.0
H2322 H 0.98824 0.37317 0.44891 0.0
H2323 H 0.9754 0.38501 0.39196 0.0
H2324 H 0.99487 0.37707 0.36067 0.0
H2325 H 0.99782 0.44439 0.57456 0.0
H2326 H 0.97753 0.43725 0.55047 0.0
H2327 H 0.98935 0.42592 0.61302 0.0
H2328 H 0.93325 0.41149 0.53204 0.0
H2329 H 0.96305 0.38237 0.67104 0.0
H2330 H 0.96343 0.41307 0.3919 0.0
H2331 H 0.96173 0.43113 0.44526 0.0
H2332 H 0.94338 0.41994 0.4213 0.0
H2333 H 0.99877 0.37944 0.56226 0.0
H2334 H 0.99088 0.37663 0.64946 0.0
H2335 H -1e-05 0.39599 0.62385 0.0
C2336 C 0.32913 0.73506 0.28118 0.0
C2337 C 0.3405 0.72754 0.32599 0.0
C2338 C 0.33331 0.74938 0.24411 0.0
C2339 C 0.34906 0.75663 0.25395 0.0
C2340 C 0.3604 0.7494 0.30109 0.0
C2341 C 0.35608 0.73475 0.33573 0.0
C2342 C 0.32101 0.75648 0.19299 0.0
C2343 C 0.37709 0.75708 0.31455 0.0
C2344 C 0.36286 0.78258 0.10085 0.0
C2345 C 0.35627 0.79806 0.11856 0.0
C2346 C 0.36138 0.76909 0.14613 0.0
C2347 C 0.35378 0.77131 0.21196 0.0
C2348 C 0.34886 0.78731 0.23333 0.0
C2349 C 0.34995 0.80049 0.18591 0.0
C2350 C 0.36649 0.75219 0.12056 0.0
C2351 C 0.34132 0.7903 0.30425 0.0
H2352 H 0.31711 0.72944 0.27346 0.0
H2353 H 0.36482 0.72902 0.37112 0.0
H2354 H 0.31792 0.76936 0.20765 0.0
H2355 H 0.3265 0.75682 0.13993 0.0
H2356 H 0.30939 0.74921 0.19081 0.0
H2357 H 0.38393 0.75066 0.35685 0.0
H2358 H 0.38466 0.75666 0.26636 0.0
H2359 H 0.37562 0.77027 0.32902 0.0
H2360 H 0.36796 0.78059 0.04922 0.0
H2361 H 0.34505 0.81247 0.20037 0.0
H2362 H 0.35529 0.74462 0.11093 0.0
H2363 H 0.37396 0.74571 0.16051 0.0
H2364 H 0.37372 0.75281 0.07133 0.0
H2365 H 0.32845 0.78559 0.30475 0.0
H2366 H 0.34105 0.80364 0.31768 0.0
H2367 H 0.34827 0.78357 0.34525 0.0
C2368 C 0.95521 0.58223 0.93251 0.0
C2369 C 0.95248 0.59414 0.88059 0.0
C2370 C 0.96751 0.58447 0.9832 0.0
C2371 C 0.97721 0.599 0.98215 0.0
C2372 C 0.97362 0.61163 0.93344 0.0
C2373 C 0.96129 0.60905 0.88318 0.0
C2374 C 0.97089 0.57075 0.0346 0.0
C2375 C 0.98356 0.62739 0.9312 0.0
C2376 C 0.0056 0.60798 0.13547 0.0
C2377 C 0.0208 0.60212 0.11038 0.0
C2378 C 0.99128 0.60713 0.09434 0.0
C2379 C 0.99218 0.60019 0.0267 0.0
C2380 C 0.00748 0.59424 0.00113 0.0
C2381 C 0.0216 0.5953 0.04322 0.0
C2382 C 0.9752 0.61366 0.12315 0.0
C2383 C 0.00893 0.58669 0.92925 0.0
H2384 H 0.9484 0.57072 0.9313 0.0
H2385 H 0.95918 0.61839 0.84365 0.0
H2386 H 0.98281 0.56475 0.02142 0.0
H2387 H 0.97202 0.57574 0.0883 0.0
H2388 H 0.96105 0.56119 0.03406 0.0
H2389 H 0.97787 0.63681 0.89655 0.0
H2390 H 0.98486 0.6327 0.9843 0.0
H2391 H 0.99617 0.62468 0.91163 0.0
H2392 H 0.00487 0.61329 0.18731 0.0
H2393 H 0.03328 0.59072 0.02345 0.0
H2394 H 0.96584 0.60366 0.12445 0.0
H2395 H 0.97032 0.62351 0.08858 0.0
H2396 H 0.97659 0.61876 0.17666 0.0
H2397 H 0.00056 0.57589 0.92483 0.0
H2398 H 0.02172 0.5826 0.91728 0.0
H2399 H 0.00506 0.59578 0.88916 0.0
C2400 C 0.16207 0.26512 0.76468 0.0
C2401 C 0.15773 0.26568 0.83539 0.0
C2402 C 0.16164 0.25023 0.72748 0.0
C2403 C 0.15652 0.23558 0.76159 0.0
C2404 C 0.15219 0.23603 0.83311 0.0
C2405 C 0.15296 0.25109 0.86936 0.0
C2406 C 0.16659 0.25022 0.65144 0.0
C2407 C 0.14647 0.22071 0.8709 0.0
C2408 C 0.14208 0.20394 0.63019 0.0
C2409 C 0.15658 0.1948 0.6197 0.0
C2410 C 0.14139 0.21642 0.6809 0.0
C2411 C 0.15561 0.21994 0.72124 0.0
C2412 C 0.16976 0.2098 0.7151 0.0
C2413 C 0.17003 0.19724 0.66474 0.0
C2414 C 0.12591 0.22669 0.68717 0.0
C2415 C 0.18519 0.21318 0.757 0.0
H2416 H 0.16585 0.27634 0.73834 0.0
H2417 H 0.14947 0.25148 0.92395 0.0
H2418 H 0.1767 0.24121 0.64265 0.0
H2419 H 0.15598 0.24633 0.6187 0.0
H2420 H 0.1708 0.26256 0.63342 0.0
H2421 H 0.14424 0.22301 0.92729 0.0
H2422 H 0.13486 0.21615 0.84698 0.0
H2423 H 0.15577 0.21074 0.86562 0.0
H2424 H 0.13157 0.20197 0.59617 0.0
H2425 H 0.18127 0.19018 0.65728 0.0
H2426 H 0.12801 0.23893 0.66273 0.0
H2427 H 0.12276 0.22884 0.74279 0.0
H2428 H 0.1152 0.22076 0.66096 0.0
H2429 H 0.19125 0.2245 0.73679 0.0
H2430 H 0.19416 0.20282 0.75377 0.0
H2431 H 0.18214 0.21541 0.81262 0.0
C2432 C 0.48636 0.39083 0.60078 0.0
C2433 C 0.48043 0.40682 0.61273 0.0
C2434 C 0.50049 0.38821 0.55987 0.0
C2435 C 0.50827 0.40186 0.52757 0.0
C2436 C 0.5026 0.41809 0.54165 0.0
C2437 C 0.4889 0.42038 0.58536 0.0
C2438 C 0.50662 0.37081 0.54875 0.0
C2439 C 0.51022 0.43295 0.50661 0.0
C2440 C 0.54922 0.40121 0.43127 0.0
C2441 C 0.54387 0.39957 0.36201 0.0
C2442 C 0.53788 0.4007 0.48678 0.0
C2443 C 0.5208 0.39919 0.47212 0.0
C2444 C 0.51548 0.39663 0.40261 0.0
C2445 C 0.52712 0.39644 0.3487 0.0
C2446 C 0.54409 0.4026 0.56059 0.0
C2447 C 0.49736 0.39535 0.38428 0.0
H2448 H 0.47981 0.38037 0.62272 0.0
H2449 H 0.48416 0.43272 0.59447 0.0
H2450 H 0.50305 0.36651 0.49591 0.0
H2451 H 0.52029 0.37034 0.55206 0.0
H2452 H 0.50135 0.3621 0.58763 0.0
H2453 H 0.50481 0.44475 0.52542 0.0
H2454 H 0.52373 0.43325 0.51594 0.0
H2455 H 0.50831 0.43212 0.44934 0.0
H2456 H 0.56218 0.40342 0.44198 0.0
H2457 H 0.52287 0.39499 0.29545 0.0
H2458 H 0.53755 0.39399 0.5962 0.0
H2459 H 0.54162 0.41534 0.57911 0.0
H2460 H 0.55758 0.4003 0.56432 0.0
H2461 H 0.4915 0.38513 0.41374 0.0
H2462 H 0.49532 0.39319 0.32766 0.0
H2463 H 0.49094 0.40693 0.39928 0.0
loop_
_geom_bond_atom_site_label_1
_geom_bond_atom_site_label_2
_geom_bond_distance
_geom_bond_site_symmetry_2
_ccdc_geom_bond_type
C0 O1 1.160 . S
C0 O7 1.185 . S
O1 C0 1.160 . S
O2 Zn3 1.899 . S
O2 C10 1.284 . S
Zn3 O2 1.899 . S
Zn3 O4 2.032 . S
Zn3 O7 2.086 . S
Zn3 O12 1.977 . S
O4 Zn3 2.032 . S
O4 C8 1.278 . S
C5 O6 1.203 . S
C5 O12 1.267 . S
O6 C5 1.203 . S
O7 C0 1.185 . S
O7 Zn3 2.086 . S
C8 O4 1.278 . S
C8 O9 1.211 . S
O9 C8 1.211 . S
C10 O2 1.284 . S
C10 O11 1.273 . S
O11 C10 1.273 . S
O12 Zn3 1.977 . S
O12 C5 1.267 . S
C13 O14 1.160 . S
C13 O20 1.185 . S
O14 C13 1.160 . S
O15 Zn16 1.899 . S
O15 C23 1.284 . S
Zn16 O15 1.899 . S
Zn16 O17 2.032 . S
Zn16 O20 2.086 . S
Zn16 O25 1.977 . S
O17 Zn16 2.032 . S
O17 C21 1.278 . S
C18 O19 1.203 . S
C18 O25 1.267 . S
O19 C18 1.203 . S
O20 C13 1.185 . S
O20 Zn16 2.086 . S
C21 O17 1.278 . S
C21 O22 1.211 . S
O22 C21 1.211 . S
C23 O15 1.284 . S
C23 O24 1.273 . S
O24 C23 1.273 . S
O25 Zn16 1.977 . S
O25 C18 1.267 . S
C26 O27 1.160 . S
C26 O33 1.185 . S
O27 C26 1.160 . S
O28 Zn29 1.899 . S
O28 C36 1.284 . S
Zn29 O28 1.899 . S
Zn29 O30 2.032 . S
Zn29 O33 2.086 . S
Zn29 O38 1.977 . S
O30 Zn29 2.032 . S
O30 C34 1.278 . S
C31 O32 1.203 . S
C31 O38 1.267 . S
O32 C31 1.203 . S
O33 C26 1.185 . S
O33 Zn29 2.086 . S
C34 O30 1.278 . S
C34 O35 1.211 . S
O35 C34 1.211 . S
C36 O28 1.284 . S
C36 O37 1.273 . S
O37 C36 1.273 . S
O38 Zn29 1.977 . S
O38 C31 1.267 . S
C39 O40 1.160 . S
C39 O46 1.185 . S
O40 C39 1.160 . S
O41 Zn42 1.899 . S
O41 C49 1.284 . S
Zn42 O41 1.899 . S
Zn42 O43 2.032 . S
Zn42 O46 2.086 . S
Zn42 O51 1.977 . S
O43 Zn42 2.032 . S
O43 C47 1.278 . S
C44 O45 1.203 . S
C44 O51 1.267 . S
O45 C44 1.203 . S
O46 C39 1.185 . S
O46 Zn42 2.086 . S
C47 O43 1.278 . S
C47 O48 1.211 . S
O48 C47 1.211 . S
C49 O41 1.284 . S
C49 O50 1.273 . S
O50 C49 1.273 . S
O51 Zn42 1.977 . S
O51 C44 1.267 . S
C52 O53 1.160 . S
C52 O59 1.185 . S
O53 C52 1.160 . S
O54 Zn55 1.899 . S
O54 C62 1.284 . S
Zn55 O54 1.899 . S
Zn55 O56 2.032 . S
Zn55 O59 2.086 . S
Zn55 O64 1.977 . S
O56 Zn55 2.032 . S
O56 C60 1.278 . S
C57 O58 1.203 . S
C57 O64 1.267 . S
O58 C57 1.203 . S
O59 C52 1.185 . S
O59 Zn55 2.086 . S
C60 O56 1.278 . S
C60 O61 1.211 . S
O61 C60 1.211 . S
C62 O54 1.284 . S
C62 O63 1.273 . S
O63 C62 1.273 . S
O64 Zn55 1.977 . S
O64 C57 1.267 . S
C65 O66 1.160 . S
C65 O72 1.185 . S
O66 C65 1.160 . S
O67 Zn68 1.899 . S
O67 C75 1.284 . S
Zn68 O67 1.899 . S
Zn68 O69 2.032 . S
Zn68 O72 2.086 . S
Zn68 O77 1.977 . S
O69 Zn68 2.032 . S
O69 C73 1.278 . S
C70 O71 1.203 . S
C70 O77 1.267 . S
O71 C70 1.203 . S
O72 C65 1.185 . S
O72 Zn68 2.086 . S
C73 O69 1.278 . S
C73 O74 1.211 . S
O74 C73 1.211 . S
C75 O67 1.284 . S
C75 O76 1.273 . S
O76 C75 1.273 . S
O77 Zn68 1.977 . S
O77 C70 1.267 . S
C78 O79 1.160 . S
C78 O85 1.185 . S
O79 C78 1.160 . S
O80 Zn81 1.899 . S
O80 C88 1.284 . S
Zn81 O80 1.899 . S
Zn81 O82 2.032 . S
Zn81 O85 2.086 . S
Zn81 O90 1.977 . S
O82 Zn81 2.032 . S
O82 C86 1.278 . S
C83 O84 1.203 . S
C83 O90 1.267 . S
O84 C83 1.203 . S
O85 C78 1.185 . S
O85 Zn81 2.086 . S
C86 O82 1.278 . S
C86 O87 1.211 . S
O87 C86 1.211 . S
C88 O80 1.284 . S
C88 O89 1.273 . S
O89 C88 1.273 . S
O90 Zn81 1.977 . S
O90 C83 1.267 . S
C91 O92 1.160 . S
C91 O98 1.185 . S
O92 C91 1.160 . S
O93 Zn94 1.899 . S
O93 C101 1.284 . S
Zn94 O93 1.899 . S
Zn94 O95 2.032 . S
Zn94 O98 2.086 . S
Zn94 O103 1.977 . S
O95 Zn94 2.032 . S
O95 C99 1.278 . S
C96 O97 1.203 . S
C96 O103 1.267 . S
O97 C96 1.203 . S
O98 C91 1.185 . S
O98 Zn94 2.086 . S
C99 O95 1.278 . S
C99 O100 1.211 . S
O100 C99 1.211 . S
C101 O93 1.284 . S
C101 O102 1.273 . S
O102 C101 1.273 . S
O103 Zn94 1.977 . S
O103 C96 1.267 . S
C104 O105 1.160 . S
C104 O111 1.185 . S
O105 C104 1.160 . S
O106 Zn107 1.899 . S
O106 C114 1.284 . S
Zn107 O106 1.899 . S
Zn107 O108 2.032 . S
Zn107 O111 2.086 . S
Zn107 O116 1.977 . S
O108 Zn107 2.032 . S
O108 C112 1.278 . S
C109 O110 1.203 . S
C109 O116 1.267 . S
O110 C109 1.203 . S
O111 C104 1.185 . S
O111 Zn107 2.086 . S
C112 O108 1.278 . S
C112 O113 1.211 . S
O113 C112 1.211 . S
C114 O106 1.284 . S
C114 O115 1.273 . S
O115 C114 1.273 . S
O116 Zn107 1.977 . S
O116 C109 1.267 . S
C117 O118 1.160 . S
C117 O124 1.185 . S
O118 C117 1.160 . S
O119 Zn120 1.899 . S
O119 C127 1.284 . S
Zn120 O119 1.899 . S
Zn120 O121 2.032 . S
Zn120 O124 2.086 . S
Zn120 O129 1.977 . S
O121 Zn120 2.032 . S
O121 C125 1.278 . S
C122 O123 1.203 . S
C122 O129 1.267 . S
O123 C122 1.203 . S
O124 C117 1.185 . S
O124 Zn120 2.086 . S
C125 O121 1.278 . S
C125 O126 1.211 . S
O126 C125 1.211 . S
C127 O119 1.284 . S
C127 O128 1.273 . S
O128 C127 1.273 . S
O129 Zn120 1.977 . S
O129 C122 1.267 . S
C130 O131 1.160 . S
C130 O137 1.185 . S
O131 C130 1.160 . S
O132 Zn133 1.899 . S
O132 C140 1.284 . S
Zn133 O132 1.899 . S
Zn133 O134 2.032 . S
Zn133 O137 2.086 . S
Zn133 O142 1.977 . S
O134 Zn133 2.032 . S
O134 C138 1.278 . S
C135 O136 1.203 . S
C135 O142 1.267 . S
O136 C135 1.203 . S
O137 C130 1.185 . S
O137 Zn133 2.086 . S
C138 O134 1.278 . S
C138 O139 1.211 . S
O139 C138 1.211 . S
C140 O132 1.284 . S
C140 O141 1.273 . S
O141 C140 1.273 . S
O142 Zn133 1.977 . S
O142 C135 1.267 . S
C143 O144 1.160 . S
C143 O150 1.185 . S
O144 C143 1.160 . S
O145 Zn146 1.899 . S
O145 C153 1.284 . S
Zn146 O145 1.899 . S
Zn146 O147 2.032 . S
Zn146 O150 2.086 . S
Zn146 O155 1.977 . S
O147 Zn146 2.032 . S
O147 C151 1.278 . S
C148 O149 1.203 . S
C148 O155 1.267 . S
O149 C148 1.203 . S
O150 C143 1.185 . S
O150 Zn146 2.086 . S
C151 O147 1.278 . S
C151 O152 1.211 . S
O152 C151 1.211 . S
C153 O145 1.284 . S
C153 O154 1.273 . S
O154 C153 1.273 . S
O155 Zn146 1.977 . S
O155 C148 1.267 . S
C156 O157 1.160 . S
C156 O163 1.185 . S
O157 C156 1.160 . S
O158 Zn159 1.899 . S
O158 C166 1.284 . S
Zn159 O158 1.899 . S
Zn159 O160 2.032 . S
Zn159 O163 2.086 . S
Zn159 O168 1.977 . S
O160 Zn159 2.032 . S
O160 C164 1.278 . S
C161 O162 1.203 . S
C161 O168 1.267 . S
O162 C161 1.203 . S
O163 C156 1.185 . S
O163 Zn159 2.086 . S
C164 O160 1.278 . S
C164 O165 1.211 . S
O165 C164 1.211 . S
C166 O158 1.284 . S
C166 O167 1.273 . S
O167 C166 1.273 . S
O168 Zn159 1.977 . S
O168 C161 1.267 . S
C169 O170 1.160 . S
C169 O176 1.185 . S
O170 C169 1.160 . S
O171 Zn172 1.899 . S
O171 C179 1.284 . S
Zn172 O171 1.899 . S
Zn172 O173 2.032 . S
Zn172 O176 2.086 . S
Zn172 O181 1.977 . S
O173 Zn172 2.032 . S
O173 C177 1.278 . S
C174 O175 1.203 . S
C174 O181 1.267 . S
O175 C174 1.203 . S
O176 C169 1.185 . S
O176 Zn172 2.086 . S
C177 O173 1.278 . S
C177 O178 1.211 . S
O178 C177 1.211 . S
C179 O171 1.284 . S
C179 O180 1.273 . S
O180 C179 1.273 . S
O181 Zn172 1.977 . S
O181 C174 1.267 . S
C182 O183 1.160 . S
C182 O189 1.185 . S
O183 C182 1.160 . S
O184 Zn185 1.899 . S
O184 C192 1.284 . S
Zn185 O184 1.899 . S
Zn185 O186 2.032 . S
Zn185 O189 2.086 . S
Zn185 O194 1.977 . S
O186 Zn185 2.032 . S
O186 C190 1.278 . S
C187 O188 1.203 . S
C187 O194 1.267 . S
O188 C187 1.203 . S
O189 C182 1.185 . S
O189 Zn185 2.086 . S
C190 O186 1.278 . S
C190 O191 1.211 . S
O191 C190 1.211 . S
C192 O184 1.284 . S
C192 O193 1.273 . S
O193 C192 1.273 . S
O194 Zn185 1.977 . S
O194 C187 1.267 . S
C195 O196 1.160 . S
C195 O202 1.185 . S
O196 C195 1.160 . S
O197 Zn198 1.899 . S
O197 C205 1.284 . S
Zn198 O197 1.899 . S
Zn198 O199 2.032 . S
Zn198 O202 2.086 . S
Zn198 O207 1.977 . S
O199 Zn198 2.032 . S
O199 C203 1.278 . S
C200 O201 1.203 . S
C200 O207 1.267 . S
O201 C200 1.203 . S
O202 C195 1.185 . S
O202 Zn198 2.086 . S
C203 O199 1.278 . S
C203 O204 1.211 . S
O204 C203 1.211 . S
C205 O197 1.284 . S
C205 O206 1.273 . S
O206 C205 1.273 . S
O207 Zn198 1.977 . S
O207 C200 1.267 . S
C208 O209 1.160 . S
C208 O215 1.185 . S
O209 C208 1.160 . S
O210 Zn211 1.899 . S
O210 C218 1.284 . S
Zn211 O210 1.899 . S
Zn211 O212 2.032 . S
Zn211 O215 2.086 . S
Zn211 O220 1.977 . S
O212 Zn211 2.032 . S
O212 C216 1.278 . S
C213 O214 1.203 . S
C213 O220 1.267 . S
O214 C213 1.203 . S
O215 C208 1.185 . S
O215 Zn211 2.086 . S
C216 O212 1.278 . S
C216 O217 1.211 . S
O217 C216 1.211 . S
C218 O210 1.284 . S
C218 O219 1.273 . S
O219 C218 1.273 . S
O220 Zn211 1.977 . S
O220 C213 1.267 . S
C221 O222 1.160 . S
C221 O228 1.185 . S
O222 C221 1.160 . S
O223 Zn224 1.899 . S
O223 C231 1.284 . S
Zn224 O223 1.899 . S
Zn224 O225 2.032 . S
Zn224 O228 2.086 . S
Zn224 O233 1.977 . S
O225 Zn224 2.032 . S
O225 C229 1.278 . S
C226 O227 1.203 . S
C226 O233 1.267 . S
O227 C226 1.203 . S
O228 C221 1.185 . S
O228 Zn224 2.086 . S
C229 O225 1.278 . S
C229 O230 1.211 . S
O230 C229 1.211 . S
C231 O223 1.284 . S
C231 O232 1.273 . S
O232 C231 1.273 . S
O233 Zn224 1.977 . S
O233 C226 1.267 . S
C234 O235 1.160 . S
C234 O241 1.185 . S
O235 C234 1.160 . S
O236 Zn237 1.899 . S
O236 C244 1.284 . S
Zn237 O236 1.899 . S
Zn237 O238 2.032 . S
Zn237 O241 2.086 . S
Zn237 O246 1.977 . S
O238 Zn237 2.032 . S
O238 C242 1.278 . S
C239 O240 1.203 . S
C239 O246 1.267 . S
O240 C239 1.203 . S
O241 C234 1.185 . S
O241 Zn237 2.086 . S
C242 O238 1.278 . S
C242 O243 1.211 . S
O243 C242 1.211 . S
C244 O236 1.284 . S
C244 O245 1.273 . S
O245 C244 1.273 . S
O246 Zn237 1.977 . S
O246 C239 1.267 . S
C247 O248 1.160 . S
C247 O254 1.185 . S
O248 C247 1.160 . S
O249 Zn250 1.899 . S
O249 C257 1.284 . S
Zn250 O249 1.899 . S
Zn250 O251 2.032 . S
Zn250 O254 2.086 . S
Zn250 O259 1.977 . S
O251 Zn250 2.032 . S
O251 C255 1.278 . S
C252 O253 1.203 . S
C252 O259 1.267 . S
O253 C252 1.203 . S
O254 C247 1.185 . S
O254 Zn250 2.086 . S
C255 O251 1.278 . S
C255 O256 1.211 . S
O256 C255 1.211 . S
C257 O249 1.284 . S
C257 O258 1.273 . S
O258 C257 1.273 . S
O259 Zn250 1.977 . S
O259 C252 1.267 . S
C260 O261 1.160 . S
C260 O267 1.185 . S
O261 C260 1.160 . S
O262 Zn263 1.899 . S
O262 C270 1.284 . S
Zn263 O262 1.899 . S
Zn263 O264 2.032 . S
Zn263 O267 2.086 . S
Zn263 O272 1.977 . S
O264 Zn263 2.032 . S
O264 C268 1.278 . S
C265 O266 1.203 . S
C265 O272 1.267 . S
O266 C265 1.203 . S
O267 C260 1.185 . S
O267 Zn263 2.086 . S
C268 O264 1.278 . S
C268 O269 1.211 . S
O269 C268 1.211 . S
C270 O262 1.284 . S
C270 O271 1.273 . S
O271 C270 1.273 . S
O272 Zn263 1.977 . S
O272 C265 1.267 . S
C273 O274 1.160 . S
C273 O280 1.185 . S
O274 C273 1.160 . S
O275 Zn276 1.899 . S
O275 C283 1.284 . S
Zn276 O275 1.899 . S
Zn276 O277 2.032 . S
Zn276 O280 2.086 . S
Zn276 O285 1.977 . S
O277 Zn276 2.032 . S
O277 C281 1.278 . S
C278 O279 1.203 . S
C278 O285 1.267 . S
O279 C278 1.203 . S
O280 C273 1.185 . S
O280 Zn276 2.086 . S
C281 O277 1.278 . S
C281 O282 1.211 . S
O282 C281 1.211 . S
C283 O275 1.284 . S
C283 O284 1.273 . S
O284 C283 1.273 . S
O285 Zn276 1.977 . S
O285 C278 1.267 . S
C286 O287 1.160 . S
C286 O293 1.185 . S
O287 C286 1.160 . S
O288 Zn289 1.899 . S
O288 C296 1.284 . S
Zn289 O288 1.899 . S
Zn289 O290 2.032 . S
Zn289 O293 2.086 . S
Zn289 O298 1.977 . S
O290 Zn289 2.032 . S
O290 C294 1.278 . S
C291 O292 1.203 . S
C291 O298 1.267 . S
O292 C291 1.203 . S
O293 C286 1.185 . S
O293 Zn289 2.086 . S
C294 O290 1.278 . S
C294 O295 1.211 . S
O295 C294 1.211 . S
C296 O288 1.284 . S
C296 O297 1.273 . S
O297 C296 1.273 . S
O298 Zn289 1.977 . S
O298 C291 1.267 . S
C299 O300 1.160 . S
C299 O306 1.185 . S
O300 C299 1.160 . S
O301 Zn302 1.899 . S
O301 C309 1.284 . S
Zn302 O301 1.899 . S
Zn302 O303 2.032 . S
Zn302 O306 2.086 . S
Zn302 O311 1.977 . S
O303 Zn302 2.032 . S
O303 C307 1.278 . S
C304 O305 1.203 . S
C304 O311 1.267 . S
O305 C304 1.203 . S
O306 C299 1.185 . S
O306 Zn302 2.086 . S
C307 O303 1.278 . S
C307 O308 1.211 . S
O308 C307 1.211 . S
C309 O301 1.284 . S
C309 O310 1.273 . S
O310 C309 1.273 . S
O311 Zn302 1.977 . S
O311 C304 1.267 . S
C312 O313 1.160 . S
C312 O319 1.185 . S
O313 C312 1.160 . S
O314 Zn315 1.899 . S
O314 C322 1.284 . S
Zn315 O314 1.899 . S
Zn315 O316 2.032 . S
Zn315 O319 2.086 . S
Zn315 O324 1.977 . S
O316 Zn315 2.032 . S
O316 C320 1.278 . S
C317 O318 1.203 . S
C317 O324 1.267 . S
O318 C317 1.203 . S
O319 C312 1.185 . S
O319 Zn315 2.086 . S
C320 O316 1.278 . S
C320 O321 1.211 . S
O321 C320 1.211 . S
C322 O314 1.284 . S
C322 O323 1.273 . S
O323 C322 1.273 . S
O324 Zn315 1.977 . S
O324 C317 1.267 . S
C325 O326 1.160 . S
C325 O332 1.185 . S
O326 C325 1.160 . S
O327 Zn328 1.899 . S
O327 C335 1.284 . S
Zn328 O327 1.899 . S
Zn328 O329 2.032 . S
Zn328 O332 2.086 . S
Zn328 O337 1.977 . S
O329 Zn328 2.032 . S
O329 C333 1.278 . S
C330 O331 1.203 . S
C330 O337 1.267 . S
O331 C330 1.203 . S
O332 C325 1.185 . S
O332 Zn328 2.086 . S
C333 O329 1.278 . S
C333 O334 1.211 . S
O334 C333 1.211 . S
C335 O327 1.284 . S
C335 O336 1.273 . S
O336 C335 1.273 . S
O337 Zn328 1.977 . S
O337 C330 1.267 . S
C338 O339 1.160 . S
C338 O345 1.185 . S
O339 C338 1.160 . S
O340 Zn341 1.899 . S
O340 C348 1.284 . S
Zn341 O340 1.899 . S
Zn341 O342 2.032 . S
Zn341 O345 2.086 . S
Zn341 O350 1.977 . S
O342 Zn341 2.032 . S
O342 C346 1.278 . S
C343 O344 1.203 . S
C343 O350 1.267 . S
O344 C343 1.203 . S
O345 C338 1.185 . S
O345 Zn341 2.086 . S
C346 O342 1.278 . S
C346 O347 1.211 . S
O347 C346 1.211 . S
C348 O340 1.284 . S
C348 O349 1.273 . S
O349 C348 1.273 . S
O350 Zn341 1.977 . S
O350 C343 1.267 . S
C351 O352 1.160 . S
C351 O358 1.185 . S
O352 C351 1.160 . S
O353 Zn354 1.899 . S
O353 C361 1.284 . S
Zn354 O353 1.899 . S
Zn354 O355 2.032 . S
Zn354 O358 2.086 . S
Zn354 O363 1.977 . S
O355 Zn354 2.032 . S
O355 C359 1.278 . S
C356 O357 1.203 . S
C356 O363 1.267 . S
O357 C356 1.203 . S
O358 C351 1.185 . S
O358 Zn354 2.086 . S
C359 O355 1.278 . S
C359 O360 1.211 . S
O360 C359 1.211 . S
C361 O353 1.284 . S
C361 O362 1.273 . S
O362 C361 1.273 . S
O363 Zn354 1.977 . S
O363 C356 1.267 . S
C364 O365 1.160 . S
C364 O371 1.185 . S
O365 C364 1.160 . S
O366 Zn367 1.899 . S
O366 C374 1.284 . S
Zn367 O366 1.899 . S
Zn367 O368 2.032 . S
Zn367 O371 2.086 . S
Zn367 O376 1.977 . S
O368 Zn367 2.032 . S
O368 C372 1.278 . S
C369 O370 1.203 . S
C369 O376 1.267 . S
O370 C369 1.203 . S
O371 C364 1.185 . S
O371 Zn367 2.086 . S
C372 O368 1.278 . S
C372 O373 1.211 . S
O373 C372 1.211 . S
C374 O366 1.284 . S
C374 O375 1.273 . S
O375 C374 1.273 . S
O376 Zn367 1.977 . S
O376 C369 1.267 . S
C377 O378 1.160 . S
C377 O384 1.185 . S
O378 C377 1.160 . S
O379 Zn380 1.899 . S
O379 C387 1.284 . S
Zn380 O379 1.899 . S
Zn380 O381 2.032 . S
Zn380 O384 2.086 . S
Zn380 O389 1.977 . S
O381 Zn380 2.032 . S
O381 C385 1.278 . S
C382 O383 1.203 . S
C382 O389 1.267 . S
O383 C382 1.203 . S
O384 C377 1.185 . S
O384 Zn380 2.086 . S
C385 O381 1.278 . S
C385 O386 1.211 . S
O386 C385 1.211 . S
C387 O379 1.284 . S
C387 O388 1.273 . S
O388 C387 1.273 . S
O389 Zn380 1.977 . S
O389 C382 1.267 . S
C390 O391 1.160 . S
C390 O397 1.185 . S
O391 C390 1.160 . S
O392 Zn393 1.899 . S
O392 C400 1.284 . S
Zn393 O392 1.899 . S
Zn393 O394 2.032 . S
Zn393 O397 2.086 . S
Zn393 O402 1.977 . S
O394 Zn393 2.032 . S
O394 C398 1.278 . S
C395 O396 1.203 . S
C395 O402 1.267 . S
O396 C395 1.203 . S
O397 C390 1.185 . S
O397 Zn393 2.086 . S
C398 O394 1.278 . S
C398 O399 1.211 . S
O399 C398 1.211 . S
C400 O392 1.284 . S
C400 O401 1.273 . S
O401 C400 1.273 . S
O402 Zn393 1.977 . S
O402 C395 1.267 . S
C403 O404 1.160 . S
C403 O410 1.185 . S
O404 C403 1.160 . S
O405 Zn406 1.899 . S
O405 C413 1.284 . S
Zn406 O405 1.899 . S
Zn406 O407 2.032 . S
Zn406 O410 2.086 . S
Zn406 O415 1.977 . S
O407 Zn406 2.032 . S
O407 C411 1.278 . S
C408 O409 1.203 . S
C408 O415 1.267 . S
O409 C408 1.203 . S
O410 C403 1.185 . S
O410 Zn406 2.086 . S
C411 O407 1.278 . S
C411 O412 1.211 . S
O412 C411 1.211 . S
C413 O405 1.284 . S
C413 O414 1.273 . S
O414 C413 1.273 . S
O415 Zn406 1.977 . S
O415 C408 1.267 . S
C416 C417 1.391 . S
C416 C418 1.394 . S
C416 H432 0.931 . S
C417 C416 1.391 . S
C417 C421 1.376 . S
C418 C416 1.394 . S
C418 C419 1.369 . S
C418 C422 1.531 . S
C419 C418 1.369 . S
C419 C420 1.410 . S
C419 C427 1.503 . S
C420 C419 1.410 . S
C420 C421 1.392 . S
C420 C423 1.511 . S
C421 C417 1.376 . S
C421 C420 1.392 . S
C421 H433 0.929 . S
C422 C418 1.531 . S
C422 H434 0.960 . S
C422 H435 0.962 . S
C422 H436 0.960 . S
C423 C420 1.511 . S
C423 H437 0.961 . S
C423 H438 0.961 . S
C423 H439 0.961 . S
C424 C425 1.370 . S
C424 C426 1.363 . S
C424 H440 0.931 . S
C425 C424 1.370 . S
C425 C429 1.408 . S
C426 C424 1.363 . S
C426 C427 1.370 . S
C426 C430 1.524 . S
C427 C419 1.503 . S
C427 C426 1.370 . S
C427 C428 1.403 . S
C428 C427 1.403 . S
C428 C429 1.404 . S
C428 C431 1.539 . S
C429 C425 1.408 . S
C429 C428 1.404 . S
C429 H441 0.930 . S
C430 C426 1.524 . S
C430 H442 0.956 . S
C430 H443 0.961 . S
C430 H444 0.961 . S
C431 C428 1.539 . S
C431 H445 0.958 . S
C431 H446 0.961 . S
C431 H447 0.960 . S
H432 C416 0.931 . S
H433 C421 0.929 . S
H434 C422 0.960 . S
H435 C422 0.962 . S
H436 C422 0.960 . S
H437 C423 0.961 . S
H438 C423 0.961 . S
H439 C423 0.961 . S
H440 C424 0.931 . S
H441 C429 0.930 . S
H442 C430 0.956 . S
H443 C430 0.961 . S
H444 C430 0.961 . S
H445 C431 0.958 . S
H446 C431 0.961 . S
H447 C431 0.960 . S
C448 C449 1.391 . S
C448 C450 1.394 . S
C448 H464 0.931 . S
C449 C448 1.391 . S
C449 C453 1.376 . S
C450 C448 1.394 . S
C450 C451 1.369 . S
C450 C454 1.531 . S
C451 C450 1.369 . S
C451 C452 1.410 . S
C451 C459 1.503 1_565 S
C452 C451 1.410 . S
C452 C453 1.392 . S
C452 C455 1.511 . S
C453 C449 1.376 . S
C453 C452 1.392 . S
C453 H465 0.929 . S
C454 C450 1.531 . S
C454 H466 0.960 1_565 S
C454 H467 0.962 . S
C454 H468 0.960 . S
C455 C452 1.511 . S
C455 H469 0.961 . S
C455 H470 0.961 1_565 S
C455 H471 0.961 1_565 S
C456 C457 1.370 . S
C456 C458 1.363 . S
C456 H472 0.931 . S
C457 C456 1.370 . S
C457 C461 1.408 . S
C458 C456 1.363 . S
C458 C459 1.370 . S
C458 C462 1.524 1_545 S
C459 C451 1.503 1_545 S
C459 C458 1.370 . S
C459 C460 1.403 . S
C460 C459 1.403 . S
C460 C461 1.404 . S
C460 C463 1.539 . S
C461 C457 1.408 . S
C461 C460 1.404 . S
C461 H473 0.930 . S
C462 C458 1.524 1_565 S
C462 H474 0.956 . S
C462 H475 0.961 . S
C462 H476 0.961 . S
C463 C460 1.539 . S
C463 H477 0.958 . S
C463 H478 0.961 . S
C463 H479 0.960 . S
H464 C448 0.931 . S
H465 C453 0.929 . S
H466 C454 0.960 1_545 S
H467 C454 0.962 . S
H468 C454 0.960 . S
H469 C455 0.961 . S
H470 C455 0.961 1_545 S
H471 C455 0.961 1_545 S
H472 C456 0.931 . S
H473 C461 0.930 . S
H474 C462 0.956 . S
H475 C462 0.961 . S
H476 C462 0.961 . S
H477 C463 0.958 . S
H478 C463 0.961 . S
H479 C463 0.960 . S
C480 C481 1.391 . S
C480 C482 1.394 . S
C480 H496 0.931 . S
C481 C480 1.391 . S
C481 C485 1.376 . S
C482 C480 1.394 . S
C482 C483 1.369 . S
C482 C486 1.531 1_554 S
C483 C482 1.369 . S
C483 C484 1.410 . S
C483 C491 1.503 1_554 S
C484 C483 1.410 . S
C484 C485 1.392 . S
C484 C487 1.511 . S
C485 C481 1.376 . S
C485 C484 1.392 . S
C485 H497 0.929 . S
C486 C482 1.531 1_556 S
C486 H498 0.960 . S
C486 H499 0.962 1_556 S
C486 H500 0.960 . S
C487 C484 1.511 . S
C487 H501 0.961 . S
C487 H502 0.961 . S
C487 H503 0.961 1_554 S
C488 C489 1.370 . S
C488 C490 1.363 1_556 S
C488 H504 0.931 1_556 S
C489 C488 1.370 . S
C489 C493 1.408 . S
C490 C488 1.363 1_554 S
C490 C491 1.370 1_554 S
C490 C494 1.524 . S
C491 C483 1.503 1_556 S
C491 C490 1.370 1_556 S
C491 C492 1.403 . S
C492 C491 1.403 . S
C492 C493 1.404 . S
C492 C495 1.539 . S
C493 C489 1.408 . S
C493 C492 1.404 . S
C493 H505 0.930 . S
C494 C490 1.524 . S
C494 H506 0.956 . S
C494 H507 0.961 . S
C494 H508 0.961 . S
C495 C492 1.539 . S
C495 H509 0.958 . S
C495 H510 0.961 . S
C495 H511 0.960 . S
H496 C480 0.931 . S
H497 C485 0.929 . S
H498 C486 0.960 . S
H499 C486 0.962 1_554 S
H500 C486 0.960 . S
H501 C487 0.961 . S
H502 C487 0.961 . S
H503 C487 0.961 1_556 S
H504 C488 0.931 1_554 S
H505 C493 0.930 . S
H506 C494 0.956 . S
H507 C494 0.961 . S
H508 C494 0.961 . S
H509 C495 0.958 . S
H510 C495 0.961 . S
H511 C495 0.960 . S
C512 C513 1.391 . S
C512 C514 1.394 . S
C512 H528 0.931 . S
C513 C512 1.391 . S
C513 C517 1.376 . S
C514 C512 1.394 . S
C514 C515 1.369 . S
C514 C518 1.531 . S
C515 C514 1.369 . S
C515 C516 1.410 . S
C515 C523 1.503 1_545 S
C516 C515 1.410 . S
C516 C517 1.392 . S
C516 C519 1.511 . S
C517 C513 1.376 . S
C517 C516 1.392 . S
C517 H529 0.929 . S
C518 C514 1.531 . S
C518 H530 0.960 1_545 S
C518 H531 0.962 1_545 S
C518 H532 0.960 . S
C519 C516 1.511 . S
C519 H533 0.961 . S
C519 H534 0.961 . S
C519 H535 0.961 . S
C520 C521 1.370 . S
C520 C522 1.363 . S
C520 H536 0.931 . S
C521 C520 1.370 . S
C521 C525 1.408 . S
C522 C520 1.363 . S
C522 C523 1.370 . S
C522 C526 1.524 . S
C523 C515 1.503 1_565 S
C523 C522 1.370 . S
C523 C524 1.403 . S
C524 C523 1.403 . S
C524 C525 1.404 . S
C524 C527 1.539 1_565 S
C525 C521 1.408 . S
C525 C524 1.404 . S
C525 H537 0.930 . S
C526 C522 1.524 . S
C526 H538 0.956 . S
C526 H539 0.961 . S
C526 H540 0.961 . S
C527 C524 1.539 1_545 S
C527 H541 0.958 . S
C527 H542 0.962 1_545 S
C527 H543 0.960 . S
H528 C512 0.931 . S
H529 C517 0.929 . S
H530 C518 0.960 1_565 S
H531 C518 0.962 1_565 S
H532 C518 0.960 . S
H533 C519 0.961 . S
H534 C519 0.961 . S
H535 C519 0.961 . S
H536 C520 0.931 . S
H537 C525 0.930 . S
H538 C526 0.956 . S
H539 C526 0.961 . S
H540 C526 0.961 . S
H541 C527 0.958 . S
H542 C527 0.962 1_565 S
H543 C527 0.960 . S
C544 C545 1.391 . S
C544 C546 1.394 . S
C544 H560 0.931 . S
C545 C544 1.391 . S
C545 C549 1.376 . S
C546 C544 1.394 . S
C546 C547 1.369 . S
C546 C550 1.531 . S
C547 C546 1.369 . S
C547 C548 1.410 . S
C547 C555 1.503 . S
C548 C547 1.410 . S
C548 C549 1.392 . S
C548 C551 1.511 . S
C549 C545 1.376 . S
C549 C548 1.392 . S
C549 H561 0.929 . S
C550 C546 1.531 . S
C550 H562 0.960 . S
C550 H563 0.962 . S
C550 H564 0.960 . S
C551 C548 1.511 . S
C551 H565 0.961 . S
C551 H566 0.961 . S
C551 H567 0.961 . S
C552 C553 1.370 . S
C552 C554 1.363 . S
C552 H568 0.931 . S
C553 C552 1.370 . S
C553 C557 1.408 . S
C554 C552 1.363 . S
C554 C555 1.370 . S
C554 C558 1.524 . S
C555 C547 1.503 . S
C555 C554 1.370 . S
C555 C556 1.403 . S
C556 C555 1.403 . S
C556 C557 1.404 . S
C556 C559 1.539 . S
C557 C553 1.408 . S
C557 C556 1.404 . S
C557 H569 0.930 . S
C558 C554 1.524 . S
C558 H570 0.956 . S
C558 H571 0.961 . S
C558 H572 0.961 . S
C559 C556 1.539 . S
C559 H573 0.958 . S
C559 H574 0.961 . S
C559 H575 0.960 . S
H560 C544 0.931 . S
H561 C549 0.929 . S
H562 C550 0.960 . S
H563 C550 0.962 . S
H564 C550 0.960 . S
H565 C551 0.961 . S
H566 C551 0.961 . S
H567 C551 0.961 . S
H568 C552 0.931 . S
H569 C557 0.930 . S
H570 C558 0.956 . S
H571 C558 0.961 . S
H572 C558 0.961 . S
H573 C559 0.958 . S
H574 C559 0.961 . S
H575 C559 0.960 . S
C576 C577 1.391 . S
C576 C578 1.394 . S
C576 H592 0.931 . S
C577 C576 1.391 . S
C577 C581 1.376 . S
C578 C576 1.394 . S
C578 C579 1.369 . S
C578 C582 1.531 . S
C579 C578 1.369 . S
C579 C580 1.410 . S
C579 C587 1.503 1_545 S
C580 C579 1.410 . S
C580 C581 1.392 . S
C580 C583 1.511 . S
C581 C577 1.376 . S
C581 C580 1.392 . S
C581 H593 0.929 . S
C582 C578 1.531 . S
C582 H594 0.960 . S
C582 H595 0.962 . S
C582 H596 0.960 . S
C583 C580 1.511 . S
C583 H597 0.961 . S
C583 H598 0.961 1_545 S
C583 H599 0.961 . S
C584 C585 1.370 . S
C584 C586 1.363 . S
C584 H600 0.931 . S
C585 C584 1.370 . S
C585 C589 1.408 . S
C586 C584 1.363 . S
C586 C587 1.370 . S
C586 C590 1.524 . S
C587 C579 1.503 1_565 S
C587 C586 1.370 . S
C587 C588 1.403 . S
C588 C587 1.403 . S
C588 C589 1.404 . S
C588 C591 1.539 1_565 S
C589 C585 1.408 . S
C589 C588 1.404 . S
C589 H601 0.930 . S
C590 C586 1.524 . S
C590 H602 0.956 . S
C590 H603 0.961 . S
C590 H604 0.961 . S
C591 C588 1.539 1_545 S
C591 H605 0.958 . S
C591 H606 0.940 1_545 S
C591 H607 0.960 . S
H592 C576 0.931 . S
H593 C581 0.929 . S
H594 C582 0.960 . S
H595 C582 0.962 . S
H596 C582 0.960 . S
H597 C583 0.961 . S
H598 C583 0.961 1_565 S
H599 C583 0.961 . S
H600 C584 0.931 . S
H601 C589 0.930 . S
H602 C590 0.956 . S
H603 C590 0.961 . S
H604 C590 0.961 . S
H605 C591 0.958 . S
H606 C591 0.940 1_565 S
H607 C591 0.960 . S
C608 C609 1.391 . S
C608 C610 1.394 1_556 S
C608 H624 0.931 1_556 S
C609 C608 1.391 . S
C609 C613 1.376 . S
C610 C608 1.394 1_554 S
C610 C611 1.369 1_554 S
C610 C614 1.531 . S
C611 C610 1.369 1_556 S
C611 C612 1.410 . S
C611 C619 1.503 1_556 S
C612 C611 1.410 . S
C612 C613 1.392 . S
C612 C615 1.511 . S
C613 C609 1.376 . S
C613 C612 1.392 . S
C613 H625 0.929 . S
C614 C610 1.531 . S
C614 H626 0.960 . S
C614 H627 0.962 . S
C614 H628 0.960 . S
C615 C612 1.511 . S
C615 H629 0.961 . S
C615 H630 0.961 . S
C615 H631 0.961 . S
C616 C617 1.370 . S
C616 C618 1.363 . S
C616 H632 0.931 . S
C617 C616 1.370 . S
C617 C621 1.408 . S
C618 C616 1.363 . S
C618 C619 1.370 . S
C618 C622 1.524 . S
C619 C611 1.503 1_554 S
C619 C618 1.370 . S
C619 C620 1.403 . S
C620 C619 1.403 . S
C620 C621 1.404 . S
C620 C623 1.539 . S
C621 C617 1.408 . S
C621 C620 1.404 . S
C621 H633 0.930 . S
C622 C618 1.524 . S
C622 H634 0.956 . S
C622 H635 0.961 1_554 S
C622 H636 0.961 . S
C623 C620 1.539 . S
C623 H637 0.958 . S
C623 H638 0.961 . S
C623 H639 0.960 1_554 S
H624 C608 0.931 1_554 S
H625 C613 0.929 . S
H626 C614 0.960 . S
H627 C614 0.962 . S
H628 C614 0.960 . S
H629 C615 0.961 . S
H630 C615 0.961 . S
H631 C615 0.961 . S
H632 C616 0.931 . S
H633 C621 0.930 . S
H634 C622 0.956 . S
H635 C622 0.961 1_556 S
H636 C622 0.961 . S
H637 C623 0.958 . S
H638 C623 0.961 . S
H639 C623 0.960 1_556 S
C640 C641 1.391 . S
C640 C642 1.394 . S
C640 H656 0.931 . S
C641 C640 1.391 . S
C641 C645 1.376 . S
C642 C640 1.394 . S
C642 C643 1.369 . S
C642 C646 1.531 . S
C643 C642 1.369 . S
C643 C644 1.410 . S
C643 C651 1.503 1_565 S
C644 C643 1.410 . S
C644 C645 1.392 . S
C644 C647 1.511 1_565 S
C645 C641 1.376 . S
C645 C644 1.392 . S
C645 H657 0.929 . S
C646 C642 1.531 . S
C646 H658 0.960 . S
C646 H659 0.962 . S
C646 H660 0.960 . S
C647 C644 1.511 1_545 S
C647 H661 0.961 . S
C647 H662 0.961 . S
C647 H663 0.961 . S
C648 C649 1.370 . S
C648 C650 1.363 . S
C648 H664 0.931 . S
C649 C648 1.370 . S
C649 C653 1.408 . S
C650 C648 1.363 . S
C650 C651 1.370 . S
C650 C654 1.524 . S
C651 C643 1.503 1_545 S
C651 C650 1.370 . S
C651 C652 1.403 . S
C652 C651 1.403 . S
C652 C653 1.404 . S
C652 C655 1.539 . S
C653 C649 1.408 . S
C653 C652 1.404 . S
C653 H665 0.930 . S
C654 C650 1.524 . S
C654 H666 0.956 1_545 S
C654 H667 0.961 . S
C654 H668 0.961 . S
C655 C652 1.539 . S
C655 H669 0.958 . S
C655 H670 0.961 . S
C655 H671 0.962 . S
H656 C640 0.931 . S
H657 C645 0.929 . S
H658 C646 0.960 . S
H659 C646 0.962 . S
H660 C646 0.960 . S
H661 C647 0.961 . S
H662 C647 0.961 . S
H663 C647 0.961 . S
H664 C648 0.931 . S
H665 C653 0.930 . S
H666 C654 0.956 1_565 S
H667 C654 0.961 . S
H668 C654 0.961 . S
H669 C655 0.958 . S
H670 C655 0.961 . S
H671 C655 0.962 . S
C672 C673 1.391 . S
C672 C674 1.394 . S
C672 H688 0.931 . S
C673 C672 1.391 . S
C673 C677 1.376 . S
C674 C672 1.394 . S
C674 C675 1.369 . S
C674 C678 1.531 . S
C675 C674 1.369 . S
C675 C676 1.410 1_556 S
C675 C683 1.503 1_556 S
C676 C675 1.410 1_554 S
C676 C677 1.392 1_554 S
C676 C679 1.511 . S
C677 C673 1.376 . S
C677 C676 1.392 1_556 S
C677 H689 0.929 1_556 S
C678 C674 1.531 . S
C678 H690 0.960 . S
C678 H691 0.962 . S
C678 H692 0.960 . S
C679 C676 1.511 . S
C679 H693 0.961 . S
C679 H694 0.961 . S
C679 H695 0.961 . S
C680 C681 1.370 . S
C680 C682 1.363 . S
C680 H696 0.931 . S
C681 C680 1.370 . S
C681 C685 1.408 . S
C682 C680 1.363 . S
C682 C683 1.370 . S
C682 C686 1.524 1_554 S
C683 C675 1.503 1_554 S
C683 C682 1.370 . S
C683 C684 1.403 . S
C684 C683 1.403 . S
C684 C685 1.404 . S
C684 C687 1.539 . S
C685 C681 1.408 . S
C685 C684 1.404 . S
C685 H697 0.930 . S
C686 C682 1.524 1_556 S
C686 H698 0.956 . S
C686 H699 0.961 . S
C686 H700 0.961 . S
C687 C684 1.539 . S
C687 H701 0.958 . S
C687 H702 0.961 . S
C687 H703 0.960 . S
H688 C672 0.931 . S
H689 C677 0.929 1_554 S
H690 C678 0.960 . S
H691 C678 0.962 . S
H692 C678 0.960 . S
H693 C679 0.961 . S
H694 C679 0.961 . S
H695 C679 0.961 . S
H696 C680 0.931 . S
H697 C685 0.930 . S
H698 C686 0.956 . S
H699 C686 0.961 . S
H700 C686 0.961 . S
H701 C687 0.958 . S
H702 C687 0.961 . S
H703 C687 0.960 . S
C704 C705 1.391 . S
C704 C706 1.394 . S
C704 H720 0.931 . S
C705 C704 1.391 . S
C705 C709 1.376 . S
C706 C704 1.394 . S
C706 C707 1.369 . S
C706 C710 1.531 . S
C707 C706 1.369 . S
C707 C708 1.410 . S
C707 C715 1.503 . S
C708 C707 1.410 . S
C708 C709 1.392 . S
C708 C711 1.511 . S
C709 C705 1.376 . S
C709 C708 1.392 . S
C709 H721 0.929 . S
C710 C706 1.531 . S
C710 H722 0.960 . S
C710 H723 0.962 . S
C710 H724 0.960 . S
C711 C708 1.511 . S
C711 H725 0.961 . S
C711 H726 0.961 . S
C711 H727 0.961 . S
C712 C713 1.370 . S
C712 C714 1.363 . S
C712 H728 0.931 . S
C713 C712 1.370 . S
C713 C717 1.408 . S
C714 C712 1.363 . S
C714 C715 1.370 . S
C714 C718 1.524 . S
C715 C707 1.503 . S
C715 C714 1.370 . S
C715 C716 1.403 . S
C716 C715 1.403 . S
C716 C717 1.404 . S
C716 C719 1.539 . S
C717 C713 1.408 . S
C717 C716 1.404 . S
C717 H729 0.930 . S
C718 C714 1.524 . S
C718 H730 0.956 . S
C718 H731 0.961 . S
C718 H732 0.961 . S
C719 C716 1.539 . S
C719 H733 0.958 . S
C719 H734 0.961 . S
C719 H735 0.960 . S
H720 C704 0.931 . S
H721 C709 0.929 . S
H722 C710 0.960 . S
H723 C710 0.962 . S
H724 C710 0.960 . S
H725 C711 0.961 . S
H726 C711 0.961 . S
H727 C711 0.961 . S
H728 C712 0.931 . S
H729 C717 0.930 . S
H730 C718 0.956 . S
H731 C718 0.961 . S
H732 C718 0.961 . S
H733 C719 0.958 . S
H734 C719 0.961 . S
H735 C719 0.960 . S
C736 C737 1.391 . S
C736 C738 1.394 . S
C736 H752 0.931 . S
C737 C736 1.391 . S
C737 C741 1.376 . S
C738 C736 1.394 . S
C738 C739 1.369 . S
C738 C742 1.531 . S
C739 C738 1.369 . S
C739 C740 1.410 . S
C739 C747 1.503 . S
C740 C739 1.410 . S
C740 C741 1.392 . S
C740 C743 1.511 . S
C741 C737 1.376 . S
C741 C740 1.392 . S
C741 H753 0.929 . S
C742 C738 1.531 . S
C742 H754 0.960 . S
C742 H755 0.962 . S
C742 H756 0.960 . S
C743 C740 1.511 . S
C743 H757 0.961 . S
C743 H758 0.961 . S
C743 H759 0.961 . S
C744 C745 1.370 . S
C744 C746 1.363 . S
C744 H760 0.931 . S
C745 C744 1.370 . S
C745 C749 1.408 . S
C746 C744 1.363 . S
C746 C747 1.370 . S
C746 C750 1.524 . S
C747 C739 1.503 . S
C747 C746 1.370 . S
C747 C748 1.403 . S
C748 C747 1.403 . S
C748 C749 1.404 . S
C748 C751 1.539 . S
C749 C745 1.408 . S
C749 C748 1.404 . S
C749 H761 0.930 . S
C750 C746 1.524 . S
C750 H762 0.956 . S
C750 H763 0.961 . S
C750 H764 0.961 . S
C751 C748 1.539 . S
C751 H765 0.958 . S
C751 H766 0.961 . S
C751 H767 0.960 . S
H752 C736 0.931 . S
H753 C741 0.929 . S
H754 C742 0.960 . S
H755 C742 0.962 . S
H756 C742 0.960 . S
H757 C743 0.961 . S
H758 C743 0.961 . S
H759 C743 0.961 . S
H760 C744 0.931 . S
H761 C749 0.930 . S
H762 C750 0.956 . S
H763 C750 0.961 . S
H764 C750 0.961 . S
H765 C751 0.958 . S
H766 C751 0.961 . S
H767 C751 0.960 . S
C768 C769 1.391 . S
C768 C770 1.394 . S
C768 H784 0.931 . S
C769 C768 1.391 . S
C769 C773 1.376 . S
C770 C768 1.394 . S
C770 C771 1.369 . S
C770 C774 1.531 . S
C771 C770 1.369 . S
C771 C772 1.410 . S
C771 C779 1.503 . S
C772 C771 1.410 . S
C772 C773 1.392 . S
C772 C775 1.511 . S
C773 C769 1.376 . S
C773 C772 1.392 . S
C773 H785 0.929 . S
C774 C770 1.531 . S
C774 H786 0.960 . S
C774 H787 0.962 . S
C774 H788 0.960 . S
C775 C772 1.511 . S
C775 H789 0.961 . S
C775 H790 0.961 . S
C775 H791 0.961 . S
C776 C777 1.370 . S
C776 C778 1.363 . S
C776 H792 0.931 . S
C777 C776 1.370 . S
C777 C781 1.408 . S
C778 C776 1.363 . S
C778 C779 1.370 . S
C778 C782 1.524 . S
C779 C771 1.503 . S
C779 C778 1.370 . S
C779 C780 1.403 . S
C780 C779 1.403 . S
C780 C781 1.404 . S
C780 C783 1.539 . S
C781 C777 1.408 . S
C781 C780 1.404 . S
C781 H793 0.930 . S
C782 C778 1.524 . S
C782 H794 0.956 . S
C782 H795 0.961 . S
C782 H796 0.961 . S
C783 C780 1.539 . S
C783 H797 0.958 . S
C783 H798 0.961 . S
C783 H799 0.960 . S
H784 C768 0.931 . S
H785 C773 0.929 . S
H786 C774 0.960 . S
H787 C774 0.962 . S
H788 C774 0.960 . S
H789 C775 0.961 . S
H790 C775 0.961 . S
H791 C775 0.961 . S
H792 C776 0.931 . S
H793 C781 0.930 . S
H794 C782 0.956 . S
H795 C782 0.961 . S
H796 C782 0.961 . S
H797 C783 0.958 . S
H798 C783 0.961 . S
H799 C783 0.960 . S
C800 C801 1.391 . S
C800 C802 1.394 . S
C800 H816 0.931 . S
C801 C800 1.391 . S
C801 C805 1.376 . S
C802 C800 1.394 . S
C802 C803 1.369 . S
C802 C806 1.531 . S
C803 C802 1.369 . S
C803 C804 1.410 1_556 S
C803 C811 1.503 1_556 S
C804 C803 1.410 1_554 S
C804 C805 1.392 1_554 S
C804 C807 1.511 . S
C805 C801 1.376 . S
C805 C804 1.392 1_556 S
C805 H817 0.929 1_556 S
C806 C802 1.531 . S
C806 H818 0.960 . S
C806 H819 0.962 . S
C806 H820 0.960 . S
C807 C804 1.511 . S
C807 H821 0.961 . S
C807 H822 0.961 . S
C807 H823 0.961 . S
C808 C809 1.370 . S
C808 C810 1.363 . S
C808 H824 0.931 . S
C809 C808 1.370 . S
C809 C813 1.408 . S
C810 C808 1.363 . S
C810 C811 1.370 . S
C810 C814 1.524 1_554 S
C811 C803 1.503 1_554 S
C811 C810 1.370 . S
C811 C812 1.403 . S
C812 C811 1.403 . S
C812 C813 1.404 . S
C812 C815 1.539 . S
C813 C809 1.408 . S
C813 C812 1.404 . S
C813 H825 0.930 . S
C814 C810 1.524 1_556 S
C814 H826 0.956 . S
C814 H827 0.961 1_556 S
C814 H828 0.961 . S
C815 C812 1.539 . S
C815 H829 0.958 . S
C815 H830 0.961 . S
C815 H831 0.960 . S
H816 C800 0.931 . S
H817 C805 0.929 1_554 S
H818 C806 0.960 . S
H819 C806 0.962 . S
H820 C806 0.960 . S
H821 C807 0.961 . S
H822 C807 0.961 . S
H823 C807 0.961 . S
H824 C808 0.931 . S
H825 C813 0.930 . S
H826 C814 0.956 . S
H827 C814 0.961 1_554 S
H828 C814 0.961 . S
H829 C815 0.958 . S
H830 C815 0.961 . S
H831 C815 0.960 . S
C832 C833 1.391 . S
C832 C834 1.394 . S
C832 H848 0.931 . S
C833 C832 1.391 . S
C833 C837 1.376 . S
C834 C832 1.394 . S
C834 C835 1.369 . S
C834 C838 1.531 . S
C835 C834 1.369 . S
C835 C836 1.410 . S
C835 C843 1.503 . S
C836 C835 1.410 . S
C836 C837 1.392 . S
C836 C839 1.511 . S
C837 C833 1.376 . S
C837 C836 1.392 . S
C837 H849 0.929 . S
C838 C834 1.531 . S
C838 H850 0.960 . S
C838 H851 0.962 . S
C838 H852 0.960 . S
C839 C836 1.511 . S
C839 H853 0.961 . S
C839 H854 0.961 . S
C839 H855 0.961 . S
C840 C841 1.370 . S
C840 C842 1.363 . S
C840 H856 0.931 . S
C841 C840 1.370 . S
C841 C845 1.408 . S
C842 C840 1.363 . S
C842 C843 1.370 . S
C842 C846 1.524 . S
C843 C835 1.503 . S
C843 C842 1.370 . S
C843 C844 1.403 . S
C844 C843 1.403 . S
C844 C845 1.404 . S
C844 C847 1.539 . S
C845 C841 1.408 . S
C845 C844 1.404 . S
C845 H857 0.930 . S
C846 C842 1.524 . S
C846 H858 0.956 . S
C846 H859 0.961 . S
C846 H860 0.961 . S
C847 C844 1.539 . S
C847 H861 0.958 . S
C847 H862 0.961 . S
C847 H863 0.960 . S
H848 C832 0.931 . S
H849 C837 0.929 . S
H850 C838 0.960 . S
H851 C838 0.962 . S
H852 C838 0.960 . S
H853 C839 0.961 . S
H854 C839 0.961 . S
H855 C839 0.961 . S
H856 C840 0.931 . S
H857 C845 0.930 . S
H858 C846 0.956 . S
H859 C846 0.961 . S
H860 C846 0.961 . S
H861 C847 0.958 . S
H862 C847 0.961 . S
H863 C847 0.960 . S
C864 C865 1.391 . S
C864 C866 1.394 . S
C864 H880 0.931 . S
C865 C864 1.391 . S
C865 C869 1.376 . S
C866 C864 1.394 . S
C866 C867 1.369 . S
C866 C870 1.531 . S
C867 C866 1.369 . S
C867 C868 1.410 . S
C867 C875 1.503 . S
C868 C867 1.410 . S
C868 C869 1.392 . S
C868 C871 1.511 . S
C869 C865 1.376 . S
C869 C868 1.392 . S
C869 H881 0.929 . S
C870 C866 1.531 . S
C870 H882 0.960 . S
C870 H883 0.962 . S
C870 H884 0.960 . S
C871 C868 1.511 . S
C871 H885 0.961 . S
C871 H886 0.961 . S
C871 H887 0.961 . S
C872 C873 1.370 . S
C872 C874 1.363 . S
C872 H888 0.931 . S
C873 C872 1.370 . S
C873 C877 1.408 . S
C874 C872 1.363 . S
C874 C875 1.370 . S
C874 C878 1.524 . S
C875 C867 1.503 . S
C875 C874 1.370 . S
C875 C876 1.403 . S
C876 C875 1.403 . S
C876 C877 1.404 . S
C876 C879 1.539 . S
C877 C873 1.408 . S
C877 C876 1.404 . S
C877 H889 0.930 . S
C878 C874 1.524 . S
C878 H890 0.956 . S
C878 H891 0.961 . S
C878 H892 0.961 . S
C879 C876 1.539 . S
C879 H893 0.958 . S
C879 H894 0.961 . S
C879 H895 0.960 . S
H880 C864 0.931 . S
H881 C869 0.929 . S
H882 C870 0.960 . S
H883 C870 0.962 . S
H884 C870 0.960 . S
H885 C871 0.961 . S
H886 C871 0.961 . S
H887 C871 0.961 . S
H888 C872 0.931 . S
H889 C877 0.930 . S
H890 C878 0.956 . S
H891 C878 0.961 . S
H892 C878 0.961 . S
H893 C879 0.958 . S
H894 C879 0.961 . S
H895 C879 0.960 . S
C896 C897 1.391 . S
C896 C898 1.394 . S
C896 H912 0.931 . S
C897 C896 1.391 . S
C897 C901 1.376 . S
C898 C896 1.394 . S
C898 C899 1.369 . S
C898 C902 1.531 . S
C899 C898 1.369 . S
C899 C900 1.410 . S
C899 C907 1.503 . S
C900 C899 1.410 . S
C900 C901 1.392 . S
C900 C903 1.511 . S
C901 C897 1.376 . S
C901 C900 1.392 . S
C901 H913 0.929 . S
C902 C898 1.531 . S
C902 H914 0.960 . S
C902 H915 0.962 . S
C902 H916 0.960 . S
C903 C900 1.511 . S
C903 H917 0.961 . S
C903 H918 0.961 . S
C903 H919 0.961 . S
C904 C905 1.370 . S
C904 C906 1.363 . S
C904 H920 0.931 . S
C905 C904 1.370 . S
C905 C909 1.408 . S
C906 C904 1.363 . S
C906 C907 1.370 . S
C906 C910 1.524 . S
C907 C899 1.503 . S
C907 C906 1.370 . S
C907 C908 1.403 . S
C908 C907 1.403 . S
C908 C909 1.404 . S
C908 C911 1.539 . S
C909 C905 1.408 . S
C909 C908 1.404 . S
C909 H921 0.930 . S
C910 C906 1.524 . S
C910 H922 0.956 . S
C910 H923 0.961 . S
C910 H924 0.961 . S
C911 C908 1.539 . S
C911 H925 0.958 . S
C911 H926 0.961 . S
C911 H927 0.960 . S
H912 C896 0.931 . S
H913 C901 0.929 . S
H914 C902 0.960 . S
H915 C902 0.962 . S
H916 C902 0.960 . S
H917 C903 0.961 . S
H918 C903 0.961 . S
H919 C903 0.961 . S
H920 C904 0.931 . S
H921 C909 0.930 . S
H922 C910 0.956 . S
H923 C910 0.961 . S
H924 C910 0.961 . S
H925 C911 0.958 . S
H926 C911 0.961 . S
H927 C911 0.960 . S
C928 C929 1.391 1_554 S
C928 C930 1.394 . S
C928 H944 0.931 . S
C929 C928 1.391 1_556 S
C929 C933 1.376 . S
C930 C928 1.394 . S
C930 C931 1.369 . S
C930 C934 1.531 . S
C931 C930 1.369 . S
C931 C932 1.410 . S
C931 C939 1.503 . S
C932 C931 1.410 . S
C932 C933 1.392 1_554 S
C932 C935 1.511 . S
C933 C929 1.376 . S
C933 C932 1.392 1_556 S
C933 H945 0.929 . S
C934 C930 1.531 . S
C934 H946 0.960 . S
C934 H947 0.962 . S
C934 H948 0.960 . S
C935 C932 1.511 . S
C935 H949 0.961 . S
C935 H950 0.961 . S
C935 H951 0.961 . S
C936 C937 1.370 . S
C936 C938 1.363 . S
C936 H952 0.931 . S
C937 C936 1.370 . S
C937 C941 1.408 . S
C938 C936 1.363 . S
C938 C939 1.370 . S
C938 C942 1.524 . S
C939 C931 1.503 . S
C939 C938 1.370 . S
C939 C940 1.403 . S
C940 C939 1.403 . S
C940 C941 1.404 . S
C940 C943 1.539 . S
C941 C937 1.408 . S
C941 C940 1.404 . S
C941 H953 0.930 . S
C942 C938 1.524 . S
C942 H954 0.956 . S
C942 H955 0.961 . S
C942 H956 0.961 . S
C943 C940 1.539 . S
C943 H957 0.958 . S
C943 H958 0.961 . S
C943 H959 0.960 . S
H944 C928 0.931 . S
H945 C933 0.929 . S
H946 C934 0.960 . S
H947 C934 0.962 . S
H948 C934 0.960 . S
H949 C935 0.961 . S
H950 C935 0.961 . S
H951 C935 0.961 . S
H952 C936 0.931 . S
H953 C941 0.930 . S
H954 C942 0.956 . S
H955 C942 0.961 . S
H956 C942 0.961 . S
H957 C943 0.958 . S
H958 C943 0.961 . S
H959 C943 0.960 . S
C960 C961 1.391 . S
C960 C962 1.394 . S
C960 H976 0.931 . S
C961 C960 1.391 . S
C961 C965 1.376 . S
C962 C960 1.394 . S
C962 C963 1.369 . S
C962 C966 1.531 . S
C963 C962 1.369 . S
C963 C964 1.410 . S
C963 C971 1.503 . S
C964 C963 1.410 . S
C964 C965 1.392 . S
C964 C967 1.511 . S
C965 C961 1.376 . S
C965 C964 1.392 . S
C965 H977 0.929 . S
C966 C962 1.531 . S
C966 H978 0.960 . S
C966 H979 0.962 . S
C966 H980 0.960 . S
C967 C964 1.511 . S
C967 H981 0.961 . S
C967 H982 0.961 . S
C967 H983 0.961 . S
C968 C969 1.370 . S
C968 C970 1.363 . S
C968 H984 0.931 . S
C969 C968 1.370 . S
C969 C973 1.408 . S
C970 C968 1.363 . S
C970 C971 1.370 . S
C970 C974 1.524 . S
C971 C963 1.503 . S
C971 C970 1.370 . S
C971 C972 1.403 . S
C972 C971 1.403 . S
C972 C973 1.404 . S
C972 C975 1.539 . S
C973 C969 1.408 . S
C973 C972 1.404 . S
C973 H985 0.930 . S
C974 C970 1.524 . S
C974 H986 0.956 . S
C974 H987 0.961 . S
C974 H988 0.961 . S
C975 C972 1.539 . S
C975 H989 0.958 . S
C975 H990 0.961 . S
C975 H991 0.960 . S
H976 C960 0.931 . S
H977 C965 0.929 . S
H978 C966 0.960 . S
H979 C966 0.962 . S
H980 C966 0.960 . S
H981 C967 0.961 . S
H982 C967 0.961 . S
H983 C967 0.961 . S
H984 C968 0.931 . S
H985 C973 0.930 . S
H986 C974 0.956 . S
H987 C974 0.961 . S
H988 C974 0.961 . S
H989 C975 0.958 . S
H990 C975 0.961 . S
H991 C975 0.960 . S
C992 C993 1.391 . S
C992 C994 1.394 . S
C992 H1008 0.931 . S
C993 C992 1.391 . S
C993 C997 1.376 . S
C994 C992 1.394 . S
C994 C995 1.369 . S
C994 C998 1.531 . S
C995 C994 1.369 . S
C995 C996 1.410 . S
C995 C1003 1.503 . S
C996 C995 1.410 . S
C996 C997 1.392 . S
C996 C999 1.511 . S
C997 C993 1.376 . S
C997 C996 1.392 . S
C997 H1009 0.929 . S
C998 C994 1.531 . S
C998 H1010 0.960 . S
C998 H1011 0.962 . S
C998 H1012 0.960 . S
C999 C996 1.511 . S
C999 H1013 0.961 . S
C999 H1014 0.961 . S
C999 H1015 0.961 . S
C1000 C1001 1.370 . S
C1000 C1002 1.363 . S
C1000 H1016 0.931 . S
C1001 C1000 1.370 . S
C1001 C1005 1.408 . S
C1002 C1000 1.363 . S
C1002 C1003 1.370 . S
C1002 C1006 1.524 . S
C1003 C995 1.503 . S
C1003 C1002 1.370 . S
C1003 C1004 1.403 . S
C1004 C1003 1.403 . S
C1004 C1005 1.404 . S
C1004 C1007 1.539 . S
C1005 C1001 1.408 . S
C1005 C1004 1.404 . S
C1005 H1017 0.930 . S
C1006 C1002 1.524 . S
C1006 H1018 0.956 . S
C1006 H1019 0.961 . S
C1006 H1020 0.961 . S
C1007 C1004 1.539 . S
C1007 H1021 0.958 . S
C1007 H1022 0.961 . S
C1007 H1023 0.960 . S
H1008 C992 0.931 . S
H1009 C997 0.929 . S
H1010 C998 0.960 . S
H1011 C998 0.962 . S
H1012 C998 0.960 . S
H1013 C999 0.961 . S
H1014 C999 0.961 . S
H1015 C999 0.961 . S
H1016 C1000 0.931 . S
H1017 C1005 0.930 . S
H1018 C1006 0.956 . S
H1019 C1006 0.961 . S
H1020 C1006 0.961 . S
H1021 C1007 0.958 . S
H1022 C1007 0.961 . S
H1023 C1007 0.960 . S
C1024 C1025 1.391 . S
C1024 C1026 1.394 . S
C1024 H1040 0.931 . S
C1025 C1024 1.391 . S
C1025 C1029 1.376 . S
C1026 C1024 1.394 . S
C1026 C1027 1.369 . S
C1026 C1030 1.531 . S
C1027 C1026 1.369 . S
C1027 C1028 1.410 . S
C1027 C1035 1.503 . S
C1028 C1027 1.410 . S
C1028 C1029 1.392 . S
C1028 C1031 1.511 . S
C1029 C1025 1.376 . S
C1029 C1028 1.392 . S
C1029 H1041 0.929 . S
C1030 C1026 1.531 . S
C1030 H1042 0.960 . S
C1030 H1043 0.962 . S
C1030 H1044 0.960 . S
C1031 C1028 1.511 . S
C1031 H1045 0.961 . S
C1031 H1046 0.961 . S
C1031 H1047 0.961 . S
C1032 C1033 1.370 1_556 S
C1032 C1034 1.363 . S
C1032 H1048 0.931 . S
C1033 C1032 1.370 1_554 S
C1033 C1037 1.408 . S
C1034 C1032 1.363 . S
C1034 C1035 1.370 . S
C1034 C1038 1.524 . S
C1035 C1027 1.503 . S
C1035 C1034 1.370 . S
C1035 C1036 1.403 . S
C1036 C1035 1.403 . S
C1036 C1037 1.404 1_556 S
C1036 C1039 1.539 . S
C1037 C1033 1.408 . S
C1037 C1036 1.404 1_554 S
C1037 H1049 0.930 . S
C1038 C1034 1.524 . S
C1038 H1050 0.956 . S
C1038 H1051 0.961 . S
C1038 H1052 0.961 . S
C1039 C1036 1.539 . S
C1039 H1053 0.958 1_556 S
C1039 H1054 0.961 1_556 S
C1039 H1055 0.960 . S
H1040 C1024 0.931 . S
H1041 C1029 0.929 . S
H1042 C1030 0.960 . S
H1043 C1030 0.962 . S
H1044 C1030 0.960 . S
H1045 C1031 0.961 . S
H1046 C1031 0.961 . S
H1047 C1031 0.961 . S
H1048 C1032 0.931 . S
H1049 C1037 0.930 . S
H1050 C1038 0.956 . S
H1051 C1038 0.961 . S
H1052 C1038 0.961 . S
H1053 C1039 0.958 1_554 S
H1054 C1039 0.961 1_554 S
H1055 C1039 0.960 . S
C1056 C1057 1.391 1_556 S
C1056 C1058 1.394 . S
C1056 H1072 0.931 . S
C1057 C1056 1.391 1_554 S
C1057 C1061 1.376 . S
C1058 C1056 1.394 . S
C1058 C1059 1.369 . S
C1058 C1062 1.531 . S
C1059 C1058 1.369 . S
C1059 C1060 1.410 . S
C1059 C1067 1.503 . S
C1060 C1059 1.410 . S
C1060 C1061 1.392 1_556 S
C1060 C1063 1.511 . S
C1061 C1057 1.376 . S
C1061 C1060 1.392 1_554 S
C1061 H1073 0.929 . S
C1062 C1058 1.531 . S
C1062 H1074 0.960 . S
C1062 H1075 0.962 . S
C1062 H1076 0.960 . S
C1063 C1060 1.511 . S
C1063 H1077 0.961 . S
C1063 H1078 0.961 . S
C1063 H1079 0.961 . S
C1064 C1065 1.370 . S
C1064 C1066 1.363 . S
C1064 H1080 0.931 . S
C1065 C1064 1.370 . S
C1065 C1069 1.408 . S
C1066 C1064 1.363 . S
C1066 C1067 1.370 . S
C1066 C1070 1.524 . S
C1067 C1059 1.503 . S
C1067 C1066 1.370 . S
C1067 C1068 1.403 . S
C1068 C1067 1.403 . S
C1068 C1069 1.404 . S
C1068 C1071 1.539 . S
C1069 C1065 1.408 . S
C1069 C1068 1.404 . S
C1069 H1081 0.930 . S
C1070 C1066 1.524 . S
C1070 H1082 0.956 . S
C1070 H1083 0.961 . S
C1070 H1084 0.961 . S
C1071 C1068 1.539 . S
C1071 H1085 0.958 . S
C1071 H1086 0.961 . S
C1071 H1087 0.960 . S
H1072 C1056 0.931 . S
H1073 C1061 0.929 . S
H1074 C1062 0.960 . S
H1075 C1062 0.962 . S
H1076 C1062 0.960 . S
H1077 C1063 0.961 . S
H1078 C1063 0.961 . S
H1079 C1063 0.961 . S
H1080 C1064 0.931 . S
H1081 C1069 0.930 . S
H1082 C1070 0.956 . S
H1083 C1070 0.961 . S
H1084 C1070 0.961 . S
H1085 C1071 0.958 . S
H1086 C1071 0.961 . S
H1087 C1071 0.960 . S
C1088 C1089 1.391 . S
C1088 C1090 1.394 . S
C1088 H1104 0.931 . S
C1089 C1088 1.391 . S
C1089 C1093 1.376 . S
C1090 C1088 1.394 . S
C1090 C1091 1.369 . S
C1090 C1094 1.531 . S
C1091 C1090 1.369 . S
C1091 C1092 1.410 . S
C1091 C1099 1.503 . S
C1092 C1091 1.410 . S
C1092 C1093 1.392 . S
C1092 C1095 1.511 . S
C1093 C1089 1.376 . S
C1093 C1092 1.392 . S
C1093 H1105 0.929 . S
C1094 C1090 1.531 . S
C1094 H1106 0.960 . S
C1094 H1107 0.962 . S
C1094 H1108 0.960 . S
C1095 C1092 1.511 . S
C1095 H1109 0.961 . S
C1095 H1110 0.961 . S
C1095 H1111 0.961 . S
C1096 C1097 1.370 . S
C1096 C1098 1.363 . S
C1096 H1112 0.931 . S
C1097 C1096 1.370 . S
C1097 C1101 1.408 . S
C1098 C1096 1.363 . S
C1098 C1099 1.370 . S
C1098 C1102 1.524 . S
C1099 C1091 1.503 . S
C1099 C1098 1.370 . S
C1099 C1100 1.403 . S
C1100 C1099 1.403 . S
C1100 C1101 1.404 . S
C1100 C1103 1.539 . S
C1101 C1097 1.408 . S
C1101 C1100 1.404 . S
C1101 H1113 0.930 . S
C1102 C1098 1.524 . S
C1102 H1114 0.956 . S
C1102 H1115 0.961 . S
C1102 H1116 0.961 . S
C1103 C1100 1.539 . S
C1103 H1117 0.958 . S
C1103 H1118 0.961 . S
C1103 H1119 0.960 . S
H1104 C1088 0.931 . S
H1105 C1093 0.929 . S
H1106 C1094 0.960 . S
H1107 C1094 0.962 . S
H1108 C1094 0.960 . S
H1109 C1095 0.961 . S
H1110 C1095 0.961 . S
H1111 C1095 0.961 . S
H1112 C1096 0.931 . S
H1113 C1101 0.930 . S
H1114 C1102 0.956 . S
H1115 C1102 0.961 . S
H1116 C1102 0.961 . S
H1117 C1103 0.958 . S
H1118 C1103 0.961 . S
H1119 C1103 0.960 . S
C1120 C1121 1.391 . S
C1120 C1122 1.394 . S
C1120 H1136 0.931 . S
C1121 C1120 1.391 . S
C1121 C1125 1.376 . S
C1122 C1120 1.394 . S
C1122 C1123 1.369 . S
C1122 C1126 1.531 . S
C1123 C1122 1.369 . S
C1123 C1124 1.410 . S
C1123 C1131 1.503 . S
C1124 C1123 1.410 . S
C1124 C1125 1.392 . S
C1124 C1127 1.511 . S
C1125 C1121 1.376 . S
C1125 C1124 1.392 . S
C1125 H1137 0.929 . S
C1126 C1122 1.531 . S
C1126 H1138 0.960 . S
C1126 H1139 0.962 . S
C1126 H1140 0.960 . S
C1127 C1124 1.511 . S
C1127 H1141 0.961 . S
C1127 H1142 0.961 . S
C1127 H1143 0.961 . S
C1128 C1129 1.370 . S
C1128 C1130 1.363 . S
C1128 H1144 0.931 . S
C1129 C1128 1.370 . S
C1129 C1133 1.408 . S
C1130 C1128 1.363 . S
C1130 C1131 1.370 . S
C1130 C1134 1.524 . S
C1131 C1123 1.503 . S
C1131 C1130 1.370 . S
C1131 C1132 1.403 . S
C1132 C1131 1.403 . S
C1132 C1133 1.404 . S
C1132 C1135 1.539 . S
C1133 C1129 1.408 . S
C1133 C1132 1.404 . S
C1133 H1145 0.930 . S
C1134 C1130 1.524 . S
C1134 H1146 0.956 . S
C1134 H1147 0.961 . S
C1134 H1148 0.961 . S
C1135 C1132 1.539 . S
C1135 H1149 0.958 . S
C1135 H1150 0.961 . S
C1135 H1151 0.960 . S
H1136 C1120 0.931 . S
H1137 C1125 0.929 . S
H1138 C1126 0.960 . S
H1139 C1126 0.962 . S
H1140 C1126 0.960 . S
H1141 C1127 0.961 . S
H1142 C1127 0.961 . S
H1143 C1127 0.961 . S
H1144 C1128 0.931 . S
H1145 C1133 0.930 . S
H1146 C1134 0.956 . S
H1147 C1134 0.961 . S
H1148 C1134 0.961 . S
H1149 C1135 0.958 . S
H1150 C1135 0.961 . S
H1151 C1135 0.960 . S
C1152 C1153 1.391 . S
C1152 C1154 1.394 1_556 S
C1152 H1168 0.931 . S
C1153 C1152 1.391 . S
C1153 C1157 1.376 1_556 S
C1154 C1152 1.394 1_554 S
C1154 C1155 1.369 . S
C1154 C1158 1.531 . S
C1155 C1154 1.369 . S
C1155 C1156 1.410 . S
C1155 C1163 1.503 . S
C1156 C1155 1.410 . S
C1156 C1157 1.392 . S
C1156 C1159 1.511 . S
C1157 C1153 1.376 1_554 S
C1157 C1156 1.392 . S
C1157 H1169 0.929 . S
C1158 C1154 1.531 . S
C1158 H1170 0.960 . S
C1158 H1171 0.962 . S
C1158 H1172 0.960 . S
C1159 C1156 1.511 . S
C1159 H1173 0.961 . S
C1159 H1174 0.961 . S
C1159 H1175 0.961 . S
C1160 C1161 1.370 . S
C1160 C1162 1.363 . S
C1160 H1176 0.931 . S
C1161 C1160 1.370 . S
C1161 C1165 1.408 . S
C1162 C1160 1.363 . S
C1162 C1163 1.370 . S
C1162 C1166 1.524 . S
C1163 C1155 1.503 . S
C1163 C1162 1.370 . S
C1163 C1164 1.403 . S
C1164 C1163 1.403 . S
C1164 C1165 1.404 . S
C1164 C1167 1.539 . S
C1165 C1161 1.408 . S
C1165 C1164 1.404 . S
C1165 H1177 0.930 . S
C1166 C1162 1.524 . S
C1166 H1178 0.956 . S
C1166 H1179 0.961 . S
C1166 H1180 0.961 . S
C1167 C1164 1.539 . S
C1167 H1181 0.958 . S
C1167 H1182 0.961 . S
C1167 H1183 0.960 . S
H1168 C1152 0.931 . S
H1169 C1157 0.929 . S
H1170 C1158 0.960 . S
H1171 C1158 0.962 . S
H1172 C1158 0.960 . S
H1173 C1159 0.961 . S
H1174 C1159 0.961 . S
H1175 C1159 0.961 . S
H1176 C1160 0.931 . S
H1177 C1165 0.930 . S
H1178 C1166 0.956 . S
H1179 C1166 0.961 . S
H1180 C1166 0.961 . S
H1181 C1167 0.958 . S
H1182 C1167 0.961 . S
H1183 C1167 0.960 . S
C1184 C1185 1.391 . S
C1184 C1186 1.394 . S
C1184 H1200 0.931 . S
C1185 C1184 1.391 . S
C1185 C1189 1.376 . S
C1186 C1184 1.394 . S
C1186 C1187 1.369 . S
C1186 C1190 1.531 . S
C1187 C1186 1.369 . S
C1187 C1188 1.410 . S
C1187 C1195 1.503 . S
C1188 C1187 1.410 . S
C1188 C1189 1.392 . S
C1188 C1191 1.511 . S
C1189 C1185 1.376 . S
C1189 C1188 1.392 . S
C1189 H1201 0.929 . S
C1190 C1186 1.531 . S
C1190 H1202 0.960 . S
C1190 H1203 0.962 . S
C1190 H1204 0.960 . S
C1191 C1188 1.511 . S
C1191 H1205 0.961 . S
C1191 H1206 0.961 . S
C1191 H1207 0.961 . S
C1192 C1193 1.370 . S
C1192 C1194 1.363 . S
C1192 H1208 0.931 . S
C1193 C1192 1.370 . S
C1193 C1197 1.408 . S
C1194 C1192 1.363 . S
C1194 C1195 1.370 . S
C1194 C1198 1.524 . S
C1195 C1187 1.503 . S
C1195 C1194 1.370 . S
C1195 C1196 1.403 . S
C1196 C1195 1.403 . S
C1196 C1197 1.404 . S
C1196 C1199 1.539 . S
C1197 C1193 1.408 . S
C1197 C1196 1.404 . S
C1197 H1209 0.930 . S
C1198 C1194 1.524 . S
C1198 H1210 0.956 . S
C1198 H1211 0.961 . S
C1198 H1212 0.961 . S
C1199 C1196 1.539 . S
C1199 H1213 0.958 . S
C1199 H1214 0.961 . S
C1199 H1215 0.960 . S
H1200 C1184 0.931 . S
H1201 C1189 0.929 . S
H1202 C1190 0.960 . S
H1203 C1190 0.962 . S
H1204 C1190 0.960 . S
H1205 C1191 0.961 . S
H1206 C1191 0.961 . S
H1207 C1191 0.961 . S
H1208 C1192 0.931 . S
H1209 C1197 0.930 . S
H1210 C1198 0.956 . S
H1211 C1198 0.961 . S
H1212 C1198 0.961 . S
H1213 C1199 0.958 . S
H1214 C1199 0.961 . S
H1215 C1199 0.960 . S
C1216 C1217 1.391 . S
C1216 C1218 1.394 1_554 S
C1216 H1232 0.931 . S
C1217 C1216 1.391 . S
C1217 C1221 1.376 1_554 S
C1218 C1216 1.394 1_556 S
C1218 C1219 1.369 . S
C1218 C1222 1.531 . S
C1219 C1218 1.369 . S
C1219 C1220 1.410 . S
C1219 C1227 1.503 . S
C1220 C1219 1.410 . S
C1220 C1221 1.392 . S
C1220 C1223 1.511 . S
C1221 C1217 1.376 1_556 S
C1221 C1220 1.392 . S
C1221 H1233 0.929 . S
C1222 C1218 1.531 . S
C1222 H1234 0.960 . S
C1222 H1235 0.962 . S
C1222 H1236 0.960 1_556 S
C1223 C1220 1.511 . S
C1223 H1237 0.961 . S
C1223 H1238 0.961 . S
C1223 H1239 0.961 . S
C1224 C1225 1.370 . S
C1224 C1226 1.363 . S
C1224 H1240 0.931 . S
C1225 C1224 1.370 . S
C1225 C1229 1.408 . S
C1226 C1224 1.363 . S
C1226 C1227 1.370 . S
C1226 C1230 1.524 . S
C1227 C1219 1.503 . S
C1227 C1226 1.370 . S
C1227 C1228 1.403 . S
C1228 C1227 1.403 . S
C1228 C1229 1.404 . S
C1228 C1231 1.539 . S
C1229 C1225 1.408 . S
C1229 C1228 1.404 . S
C1229 H1241 0.930 . S
C1230 C1226 1.524 . S
C1230 H1242 0.956 . S
C1230 H1243 0.961 . S
C1230 H1244 0.961 . S
C1231 C1228 1.539 . S
C1231 H1245 0.958 . S
C1231 H1246 0.961 . S
C1231 H1247 0.960 . S
H1232 C1216 0.931 . S
H1233 C1221 0.929 . S
H1234 C1222 0.960 . S
H1235 C1222 0.962 . S
H1236 C1222 0.960 1_554 S
H1237 C1223 0.961 . S
H1238 C1223 0.961 . S
H1239 C1223 0.961 . S
H1240 C1224 0.931 . S
H1241 C1229 0.930 . S
H1242 C1230 0.956 . S
H1243 C1230 0.961 . S
H1244 C1230 0.961 . S
H1245 C1231 0.958 . S
H1246 C1231 0.961 . S
H1247 C1231 0.960 . S
C1248 C1249 1.391 . S
C1248 C1250 1.394 . S
C1248 H1264 0.931 . S
C1249 C1248 1.391 . S
C1249 C1253 1.376 . S
C1250 C1248 1.394 . S
C1250 C1251 1.369 . S
C1250 C1254 1.531 . S
C1251 C1250 1.369 . S
C1251 C1252 1.410 . S
C1251 C1259 1.503 . S
C1252 C1251 1.410 . S
C1252 C1253 1.392 . S
C1252 C1255 1.511 . S
C1253 C1249 1.376 . S
C1253 C1252 1.392 . S
C1253 H1265 0.929 . S
C1254 C1250 1.531 . S
C1254 H1266 0.960 . S
C1254 H1267 0.962 . S
C1254 H1268 0.960 . S
C1255 C1252 1.511 . S
C1255 H1269 0.961 . S
C1255 H1270 0.961 . S
C1255 H1271 0.961 . S
C1256 C1257 1.370 . S
C1256 C1258 1.363 1_556 S
C1256 H1272 0.931 . S
C1257 C1256 1.370 . S
C1257 C1261 1.408 1_556 S
C1258 C1256 1.363 1_554 S
C1258 C1259 1.370 . S
C1258 C1262 1.524 . S
C1259 C1251 1.503 . S
C1259 C1258 1.370 . S
C1259 C1260 1.403 . S
C1260 C1259 1.403 . S
C1260 C1261 1.404 . S
C1260 C1263 1.539 . S
C1261 C1257 1.408 1_554 S
C1261 C1260 1.404 . S
C1261 H1273 0.930 . S
C1262 C1258 1.524 . S
C1262 H1274 0.956 . S
C1262 H1275 0.961 . S
C1262 H1276 0.961 1_554 S
C1263 C1260 1.539 . S
C1263 H1277 0.958 . S
C1263 H1278 0.961 . S
C1263 H1279 0.960 . S
H1264 C1248 0.931 . S
H1265 C1253 0.929 . S
H1266 C1254 0.960 . S
H1267 C1254 0.962 . S
H1268 C1254 0.960 . S
H1269 C1255 0.961 . S
H1270 C1255 0.961 . S
H1271 C1255 0.961 . S
H1272 C1256 0.931 . S
H1273 C1261 0.930 . S
H1274 C1262 0.956 . S
H1275 C1262 0.961 . S
H1276 C1262 0.961 1_556 S
H1277 C1263 0.958 . S
H1278 C1263 0.961 . S
H1279 C1263 0.960 . S
C1280 C1281 1.391 . S
C1280 C1282 1.394 . S
C1280 H1296 0.931 . S
C1281 C1280 1.391 . S
C1281 C1285 1.376 . S
C1282 C1280 1.394 . S
C1282 C1283 1.369 . S
C1282 C1286 1.531 . S
C1283 C1282 1.369 . S
C1283 C1284 1.410 . S
C1283 C1291 1.503 . S
C1284 C1283 1.410 . S
C1284 C1285 1.392 . S
C1284 C1287 1.511 . S
C1285 C1281 1.376 . S
C1285 C1284 1.392 . S
C1285 H1297 0.929 . S
C1286 C1282 1.531 . S
C1286 H1298 0.960 . S
C1286 H1299 0.962 . S
C1286 H1300 0.960 . S
C1287 C1284 1.511 . S
C1287 H1301 0.961 . S
C1287 H1302 0.961 . S
C1287 H1303 0.961 . S
C1288 C1289 1.370 . S
C1288 C1290 1.363 . S
C1288 H1304 0.931 . S
C1289 C1288 1.370 . S
C1289 C1293 1.408 . S
C1290 C1288 1.363 . S
C1290 C1291 1.370 . S
C1290 C1294 1.524 . S
C1291 C1283 1.503 . S
C1291 C1290 1.370 . S
C1291 C1292 1.403 . S
C1292 C1291 1.403 . S
C1292 C1293 1.404 . S
C1292 C1295 1.539 . S
C1293 C1289 1.408 . S
C1293 C1292 1.404 . S
C1293 H1305 0.930 . S
C1294 C1290 1.524 . S
C1294 H1306 0.956 . S
C1294 H1307 0.961 . S
C1294 H1308 0.961 . S
C1295 C1292 1.539 . S
C1295 H1309 0.958 . S
C1295 H1310 0.961 . S
C1295 H1311 0.960 . S
H1296 C1280 0.931 . S
H1297 C1285 0.929 . S
H1298 C1286 0.960 . S
H1299 C1286 0.962 . S
H1300 C1286 0.960 . S
H1301 C1287 0.961 . S
H1302 C1287 0.961 . S
H1303 C1287 0.961 . S
H1304 C1288 0.931 . S
H1305 C1293 0.930 . S
H1306 C1294 0.956 . S
H1307 C1294 0.961 . S
H1308 C1294 0.961 . S
H1309 C1295 0.958 . S
H1310 C1295 0.961 . S
H1311 C1295 0.960 . S
C1312 C1313 1.391 . S
C1312 C1314 1.394 . S
C1312 H1328 0.931 . S
C1313 C1312 1.391 . S
C1313 C1317 1.376 . S
C1314 C1312 1.394 . S
C1314 C1315 1.369 . S
C1314 C1318 1.531 . S
C1315 C1314 1.369 . S
C1315 C1316 1.410 . S
C1315 C1323 1.503 . S
C1316 C1315 1.410 . S
C1316 C1317 1.392 . S
C1316 C1319 1.511 . S
C1317 C1313 1.376 . S
C1317 C1316 1.392 . S
C1317 H1329 0.929 . S
C1318 C1314 1.531 . S
C1318 H1330 0.960 . S
C1318 H1331 0.962 . S
C1318 H1332 0.960 . S
C1319 C1316 1.511 . S
C1319 H1333 0.961 . S
C1319 H1334 0.961 . S
C1319 H1335 0.961 . S
C1320 C1321 1.370 . S
C1320 C1322 1.363 . S
C1320 H1336 0.931 . S
C1321 C1320 1.370 . S
C1321 C1325 1.408 . S
C1322 C1320 1.363 . S
C1322 C1323 1.370 . S
C1322 C1326 1.524 . S
C1323 C1315 1.503 . S
C1323 C1322 1.370 . S
C1323 C1324 1.403 . S
C1324 C1323 1.403 . S
C1324 C1325 1.404 . S
C1324 C1327 1.539 . S
C1325 C1321 1.408 . S
C1325 C1324 1.404 . S
C1325 H1337 0.930 . S
C1326 C1322 1.524 . S
C1326 H1338 0.956 . S
C1326 H1339 0.961 . S
C1326 H1340 0.961 . S
C1327 C1324 1.539 . S
C1327 H1341 0.958 . S
C1327 H1342 0.961 . S
C1327 H1343 0.960 . S
H1328 C1312 0.931 . S
H1329 C1317 0.929 . S
H1330 C1318 0.960 . S
H1331 C1318 0.962 . S
H1332 C1318 0.960 . S
H1333 C1319 0.961 . S
H1334 C1319 0.961 . S
H1335 C1319 0.961 . S
H1336 C1320 0.931 . S
H1337 C1325 0.930 . S
H1338 C1326 0.956 . S
H1339 C1326 0.961 . S
H1340 C1326 0.961 . S
H1341 C1327 0.958 . S
H1342 C1327 0.961 . S
H1343 C1327 0.960 . S
C1344 C1345 1.391 . S
C1344 C1346 1.394 1_556 S
C1344 H1360 0.931 . S
C1345 C1344 1.391 . S
C1345 C1349 1.376 1_556 S
C1346 C1344 1.394 1_554 S
C1346 C1347 1.369 . S
C1346 C1350 1.531 . S
C1347 C1346 1.369 . S
C1347 C1348 1.410 . S
C1347 C1355 1.503 . S
C1348 C1347 1.410 . S
C1348 C1349 1.392 . S
C1348 C1351 1.511 . S
C1349 C1345 1.376 1_554 S
C1349 C1348 1.392 . S
C1349 H1361 0.929 . S
C1350 C1346 1.531 . S
C1350 H1362 0.960 . S
C1350 H1363 0.962 . S
C1350 H1364 0.960 1_554 S
C1351 C1348 1.511 . S
C1351 H1365 0.961 . S
C1351 H1366 0.961 . S
C1351 H1367 0.961 . S
C1352 C1353 1.370 . S
C1352 C1354 1.363 . S
C1352 H1368 0.931 . S
C1353 C1352 1.370 . S
C1353 C1357 1.408 . S
C1354 C1352 1.363 . S
C1354 C1355 1.370 . S
C1354 C1358 1.524 . S
C1355 C1347 1.503 . S
C1355 C1354 1.370 . S
C1355 C1356 1.403 . S
C1356 C1355 1.403 . S
C1356 C1357 1.404 . S
C1356 C1359 1.539 . S
C1357 C1353 1.408 . S
C1357 C1356 1.404 . S
C1357 H1369 0.930 . S
C1358 C1354 1.524 . S
C1358 H1370 0.956 . S
C1358 H1371 0.961 . S
C1358 H1372 0.961 . S
C1359 C1356 1.539 . S
C1359 H1373 0.958 . S
C1359 H1374 0.961 . S
C1359 H1375 0.960 . S
H1360 C1344 0.931 . S
H1361 C1349 0.929 . S
H1362 C1350 0.960 . S
H1363 C1350 0.962 . S
H1364 C1350 0.960 1_556 S
H1365 C1351 0.961 . S
H1366 C1351 0.961 . S
H1367 C1351 0.961 . S
H1368 C1352 0.931 . S
H1369 C1357 0.930 . S
H1370 C1358 0.956 . S
H1371 C1358 0.961 . S
H1372 C1358 0.961 . S
H1373 C1359 0.958 . S
H1374 C1359 0.961 . S
H1375 C1359 0.960 . S
C1376 C1377 1.391 . S
C1376 C1378 1.394 . S
C1376 H1392 0.931 . S
C1377 C1376 1.391 . S
C1377 C1381 1.376 . S
C1378 C1376 1.394 . S
C1378 C1379 1.369 . S
C1378 C1382 1.531 . S
C1379 C1378 1.369 . S
C1379 C1380 1.410 . S
C1379 C1387 1.503 . S
C1380 C1379 1.410 . S
C1380 C1381 1.392 . S
C1380 C1383 1.511 . S
C1381 C1377 1.376 . S
C1381 C1380 1.392 . S
C1381 H1393 0.929 . S
C1382 C1378 1.531 . S
C1382 H1394 0.960 . S
C1382 H1395 0.962 . S
C1382 H1396 0.960 . S
C1383 C1380 1.511 . S
C1383 H1397 0.961 . S
C1383 H1398 0.961 . S
C1383 H1399 0.961 . S
C1384 C1385 1.370 1_556 S
C1384 C1386 1.363 . S
C1384 H1400 0.931 . S
C1385 C1384 1.370 1_554 S
C1385 C1389 1.408 . S
C1386 C1384 1.363 . S
C1386 C1387 1.370 . S
C1386 C1390 1.524 . S
C1387 C1379 1.503 . S
C1387 C1386 1.370 . S
C1387 C1388 1.403 . S
C1388 C1387 1.403 . S
C1388 C1389 1.404 1_556 S
C1388 C1391 1.539 . S
C1389 C1385 1.408 . S
C1389 C1388 1.404 1_554 S
C1389 H1401 0.930 . S
C1390 C1386 1.524 . S
C1390 H1402 0.956 . S
C1390 H1403 0.961 . S
C1390 H1404 0.961 . S
C1391 C1388 1.539 . S
C1391 H1405 0.958 . S
C1391 H1406 0.961 . S
C1391 H1407 0.960 . S
H1392 C1376 0.931 . S
H1393 C1381 0.929 . S
H1394 C1382 0.960 . S
H1395 C1382 0.962 . S
H1396 C1382 0.960 . S
H1397 C1383 0.961 . S
H1398 C1383 0.961 . S
H1399 C1383 0.961 . S
H1400 C1384 0.931 . S
H1401 C1389 0.930 . S
H1402 C1390 0.956 . S
H1403 C1390 0.961 . S
H1404 C1390 0.961 . S
H1405 C1391 0.958 . S
H1406 C1391 0.961 . S
H1407 C1391 0.960 . S
C1408 C1409 1.391 . S
C1408 C1410 1.394 . S
C1408 H1424 0.931 . S
C1409 C1408 1.391 . S
C1409 C1413 1.376 . S
C1410 C1408 1.394 . S
C1410 C1411 1.369 . S
C1410 C1414 1.531 . S
C1411 C1410 1.369 . S
C1411 C1412 1.410 . S
C1411 C1419 1.503 . S
C1412 C1411 1.410 . S
C1412 C1413 1.392 . S
C1412 C1415 1.511 . S
C1413 C1409 1.376 . S
C1413 C1412 1.392 . S
C1413 H1425 0.929 . S
C1414 C1410 1.531 . S
C1414 H1426 0.960 . S
C1414 H1427 0.962 . S
C1414 H1428 0.960 . S
C1415 C1412 1.511 . S
C1415 H1429 0.961 . S
C1415 H1430 0.961 . S
C1415 H1431 0.961 . S
C1416 C1417 1.370 . S
C1416 C1418 1.363 . S
C1416 H1432 0.931 . S
C1417 C1416 1.370 . S
C1417 C1421 1.408 . S
C1418 C1416 1.363 . S
C1418 C1419 1.370 . S
C1418 C1422 1.524 . S
C1419 C1411 1.503 . S
C1419 C1418 1.370 . S
C1419 C1420 1.403 . S
C1420 C1419 1.403 . S
C1420 C1421 1.404 . S
C1420 C1423 1.539 . S
C1421 C1417 1.408 . S
C1421 C1420 1.404 . S
C1421 H1433 0.930 . S
C1422 C1418 1.524 . S
C1422 H1434 0.956 . S
C1422 H1435 0.961 . S
C1422 H1436 0.961 . S
C1423 C1420 1.539 . S
C1423 H1437 0.958 . S
C1423 H1438 0.961 . S
C1423 H1439 0.960 . S
H1424 C1408 0.931 . S
H1425 C1413 0.929 . S
H1426 C1414 0.960 . S
H1427 C1414 0.962 . S
H1428 C1414 0.960 . S
H1429 C1415 0.961 . S
H1430 C1415 0.961 . S
H1431 C1415 0.961 . S
H1432 C1416 0.931 . S
H1433 C1421 0.930 . S
H1434 C1422 0.956 . S
H1435 C1422 0.961 . S
H1436 C1422 0.961 . S
H1437 C1423 0.958 . S
H1438 C1423 0.961 . S
H1439 C1423 0.960 . S
C1440 C1441 1.391 . S
C1440 C1442 1.394 . S
C1440 H1456 0.931 . S
C1441 C1440 1.391 . S
C1441 C1445 1.376 . S
C1442 C1440 1.394 . S
C1442 C1443 1.369 . S
C1442 C1446 1.531 . S
C1443 C1442 1.369 . S
C1443 C1444 1.410 . S
C1443 C1451 1.503 . S
C1444 C1443 1.410 . S
C1444 C1445 1.392 . S
C1444 C1447 1.511 . S
C1445 C1441 1.376 . S
C1445 C1444 1.392 . S
C1445 H1457 0.929 . S
C1446 C1442 1.531 . S
C1446 H1458 0.960 . S
C1446 H1459 0.962 . S
C1446 H1460 0.960 . S
C1447 C1444 1.511 . S
C1447 H1461 0.961 . S
C1447 H1462 0.961 . S
C1447 H1463 0.961 . S
C1448 C1449 1.370 . S
C1448 C1450 1.363 . S
C1448 H1464 0.931 1_554 S
C1449 C1448 1.370 . S
C1449 C1453 1.408 . S
C1450 C1448 1.363 . S
C1450 C1451 1.370 . S
C1450 C1454 1.524 . S
C1451 C1443 1.503 . S
C1451 C1450 1.370 . S
C1451 C1452 1.403 . S
C1452 C1451 1.403 . S
C1452 C1453 1.404 . S
C1452 C1455 1.539 . S
C1453 C1449 1.408 . S
C1453 C1452 1.404 . S
C1453 H1465 0.930 . S
C1454 C1450 1.524 . S
C1454 H1466 0.956 . S
C1454 H1467 0.961 . S
C1454 H1468 0.961 1_554 S
C1455 C1452 1.539 . S
C1455 H1469 0.958 . S
C1455 H1470 0.961 . S
C1455 H1471 0.960 . S
H1456 C1440 0.931 . S
H1457 C1445 0.929 . S
H1458 C1446 0.960 . S
H1459 C1446 0.962 . S
H1460 C1446 0.960 . S
H1461 C1447 0.961 . S
H1462 C1447 0.961 . S
H1463 C1447 0.961 . S
H1464 C1448 0.931 1_556 S
H1465 C1453 0.930 . S
H1466 C1454 0.956 . S
H1467 C1454 0.961 . S
H1468 C1454 0.961 1_556 S
H1469 C1455 0.958 . S
H1470 C1455 0.961 . S
H1471 C1455 0.960 . S
C1472 C1473 1.391 . S
C1472 C1474 1.394 . S
C1472 H1488 0.931 . S
C1473 C1472 1.391 . S
C1473 C1477 1.376 . S
C1474 C1472 1.394 . S
C1474 C1475 1.369 . S
C1474 C1478 1.531 1_655 S
C1475 C1474 1.369 . S
C1475 C1476 1.410 . S
C1475 C1483 1.503 1_655 S
C1476 C1475 1.410 . S
C1476 C1477 1.392 . S
C1476 C1479 1.511 . S
C1477 C1473 1.376 . S
C1477 C1476 1.392 . S
C1477 H1489 0.929 . S
C1478 C1474 1.531 1_455 S
C1478 H1490 0.960 . S
C1478 H1491 0.962 . S
C1478 H1492 0.960 . S
C1479 C1476 1.511 . S
C1479 H1493 0.961 . S
C1479 H1494 0.961 . S
C1479 H1495 0.961 . S
C1480 C1481 1.370 . S
C1480 C1482 1.363 . S
C1480 H1496 0.931 . S
C1481 C1480 1.370 . S
C1481 C1485 1.408 . S
C1482 C1480 1.363 . S
C1482 C1483 1.370 . S
C1482 C1486 1.524 1_455 S
C1483 C1475 1.503 1_455 S
C1483 C1482 1.370 . S
C1483 C1484 1.403 . S
C1484 C1483 1.403 . S
C1484 C1485 1.404 . S
C1484 C1487 1.539 . S
C1485 C1481 1.408 . S
C1485 C1484 1.404 . S
C1485 H1497 0.930 . S
C1486 C1482 1.524 1_655 S
C1486 H1498 0.955 1_655 S
C1486 H1499 0.961 . S
C1486 H1500 0.960 1_655 S
C1487 C1484 1.539 . S
C1487 H1501 0.958 . S
C1487 H1502 0.961 . S
C1487 H1503 0.960 1_455 S
H1488 C1472 0.931 . S
H1489 C1477 0.929 . S
H1490 C1478 0.960 . S
H1491 C1478 0.962 . S
H1492 C1478 0.960 . S
H1493 C1479 0.961 . S
H1494 C1479 0.961 . S
H1495 C1479 0.961 . S
H1496 C1480 0.931 . S
H1497 C1485 0.930 . S
H1498 C1486 0.955 1_455 S
H1499 C1486 0.961 . S
H1500 C1486 0.960 1_455 S
H1501 C1487 0.958 . S
H1502 C1487 0.961 . S
H1503 C1487 0.960 1_655 S
C1504 C1505 1.391 . S
C1504 C1506 1.394 . S
C1504 H1520 0.931 . S
C1505 C1504 1.391 . S
C1505 C1509 1.376 . S
C1506 C1504 1.394 . S
C1506 C1507 1.369 . S
C1506 C1510 1.531 . S
C1507 C1506 1.369 . S
C1507 C1508 1.410 . S
C1507 C1515 1.503 . S
C1508 C1507 1.410 . S
C1508 C1509 1.392 . S
C1508 C1511 1.511 . S
C1509 C1505 1.376 . S
C1509 C1508 1.392 . S
C1509 H1521 0.929 . S
C1510 C1506 1.531 . S
C1510 H1522 0.960 . S
C1510 H1523 0.962 . S
C1510 H1524 0.960 . S
C1511 C1508 1.511 . S
C1511 H1525 0.961 . S
C1511 H1526 0.961 . S
C1511 H1527 0.961 . S
C1512 C1513 1.370 . S
C1512 C1514 1.363 . S
C1512 H1528 0.931 . S
C1513 C1512 1.370 . S
C1513 C1517 1.408 . S
C1514 C1512 1.363 . S
C1514 C1515 1.370 . S
C1514 C1518 1.524 . S
C1515 C1507 1.503 . S
C1515 C1514 1.370 . S
C1515 C1516 1.403 . S
C1516 C1515 1.403 . S
C1516 C1517 1.404 . S
C1516 C1519 1.539 . S
C1517 C1513 1.408 . S
C1517 C1516 1.404 . S
C1517 H1529 0.930 . S
C1518 C1514 1.524 . S
C1518 H1530 0.956 . S
C1518 H1531 0.961 . S
C1518 H1532 0.961 . S
C1519 C1516 1.539 . S
C1519 H1533 0.958 . S
C1519 H1534 0.961 . S
C1519 H1535 0.960 . S
H1520 C1504 0.931 . S
H1521 C1509 0.929 . S
H1522 C1510 0.960 . S
H1523 C1510 0.962 . S
H1524 C1510 0.960 . S
H1525 C1511 0.961 . S
H1526 C1511 0.961 . S
H1527 C1511 0.961 . S
H1528 C1512 0.931 . S
H1529 C1517 0.930 . S
H1530 C1518 0.956 . S
H1531 C1518 0.961 . S
H1532 C1518 0.961 . S
H1533 C1519 0.958 . S
H1534 C1519 0.961 . S
H1535 C1519 0.960 . S
C1536 C1537 1.391 . S
C1536 C1538 1.394 . S
C1536 H1552 0.931 . S
C1537 C1536 1.391 . S
C1537 C1541 1.376 . S
C1538 C1536 1.394 . S
C1538 C1539 1.369 . S
C1538 C1542 1.531 . S
C1539 C1538 1.369 . S
C1539 C1540 1.410 . S
C1539 C1547 1.503 . S
C1540 C1539 1.410 . S
C1540 C1541 1.392 . S
C1540 C1543 1.511 . S
C1541 C1537 1.376 . S
C1541 C1540 1.392 . S
C1541 H1553 0.929 . S
C1542 C1538 1.531 . S
C1542 H1554 0.960 . S
C1542 H1555 0.962 . S
C1542 H1556 0.960 . S
C1543 C1540 1.511 . S
C1543 H1557 0.961 . S
C1543 H1558 0.961 . S
C1543 H1559 0.961 . S
C1544 C1545 1.370 . S
C1544 C1546 1.363 . S
C1544 H1560 0.931 . S
C1545 C1544 1.370 . S
C1545 C1549 1.408 1_556 S
C1546 C1544 1.363 . S
C1546 C1547 1.370 . S
C1546 C1550 1.524 . S
C1547 C1539 1.503 . S
C1547 C1546 1.370 . S
C1547 C1548 1.403 . S
C1548 C1547 1.403 . S
C1548 C1549 1.404 1_556 S
C1548 C1551 1.539 1_556 S
C1549 C1545 1.408 1_554 S
C1549 C1548 1.404 1_554 S
C1549 H1561 0.930 . S
C1550 C1546 1.524 . S
C1550 H1562 0.956 . S
C1550 H1563 0.961 . S
C1550 H1564 0.961 . S
C1551 C1548 1.539 1_554 S
C1551 H1565 0.958 . S
C1551 H1566 0.961 . S
C1551 H1567 0.960 1_554 S
H1552 C1536 0.931 . S
H1553 C1541 0.929 . S
H1554 C1542 0.960 . S
H1555 C1542 0.962 . S
H1556 C1542 0.960 . S
H1557 C1543 0.961 . S
H1558 C1543 0.961 . S
H1559 C1543 0.961 . S
H1560 C1544 0.931 . S
H1561 C1549 0.930 . S
H1562 C1550 0.956 . S
H1563 C1550 0.961 . S
H1564 C1550 0.961 . S
H1565 C1551 0.958 . S
H1566 C1551 0.961 . S
H1567 C1551 0.960 1_556 S
C1568 C1569 1.391 . S
C1568 C1570 1.394 . S
C1568 H1584 0.931 . S
C1569 C1568 1.391 . S
C1569 C1573 1.376 . S
C1570 C1568 1.394 . S
C1570 C1571 1.369 . S
C1570 C1574 1.531 . S
C1571 C1570 1.369 . S
C1571 C1572 1.410 . S
C1571 C1579 1.503 . S
C1572 C1571 1.410 . S
C1572 C1573 1.392 . S
C1572 C1575 1.511 . S
C1573 C1569 1.376 . S
C1573 C1572 1.392 . S
C1573 H1585 0.929 . S
C1574 C1570 1.531 . S
C1574 H1586 0.960 . S
C1574 H1587 0.962 . S
C1574 H1588 0.960 . S
C1575 C1572 1.511 . S
C1575 H1589 0.961 . S
C1575 H1590 0.961 . S
C1575 H1591 0.961 . S
C1576 C1577 1.370 . S
C1576 C1578 1.363 . S
C1576 H1592 0.931 . S
C1577 C1576 1.370 . S
C1577 C1581 1.408 . S
C1578 C1576 1.363 . S
C1578 C1579 1.370 . S
C1578 C1582 1.524 . S
C1579 C1571 1.503 . S
C1579 C1578 1.370 . S
C1579 C1580 1.403 . S
C1580 C1579 1.403 . S
C1580 C1581 1.404 . S
C1580 C1583 1.539 . S
C1581 C1577 1.408 . S
C1581 C1580 1.404 . S
C1581 H1593 0.930 . S
C1582 C1578 1.524 . S
C1582 H1594 0.956 . S
C1582 H1595 0.961 . S
C1582 H1596 0.961 . S
C1583 C1580 1.539 . S
C1583 H1597 0.958 . S
C1583 H1598 0.961 . S
C1583 H1599 0.960 . S
H1584 C1568 0.931 . S
H1585 C1573 0.929 . S
H1586 C1574 0.960 . S
H1587 C1574 0.962 . S
H1588 C1574 0.960 . S
H1589 C1575 0.961 . S
H1590 C1575 0.961 . S
H1591 C1575 0.961 . S
H1592 C1576 0.931 . S
H1593 C1581 0.930 . S
H1594 C1582 0.956 . S
H1595 C1582 0.961 . S
H1596 C1582 0.961 . S
H1597 C1583 0.958 . S
H1598 C1583 0.961 . S
H1599 C1583 0.960 . S
C1600 C1601 1.391 . S
C1600 C1602 1.394 . S
C1600 H1616 0.931 . S
C1601 C1600 1.391 . S
C1601 C1605 1.376 . S
C1602 C1600 1.394 . S
C1602 C1603 1.369 . S
C1602 C1606 1.531 . S
C1603 C1602 1.369 . S
C1603 C1604 1.410 . S
C1603 C1611 1.503 . S
C1604 C1603 1.410 . S
C1604 C1605 1.392 . S
C1604 C1607 1.511 . S
C1605 C1601 1.376 . S
C1605 C1604 1.392 . S
C1605 H1617 0.929 . S
C1606 C1602 1.531 . S
C1606 H1618 0.960 . S
C1606 H1619 0.962 . S
C1606 H1620 0.960 . S
C1607 C1604 1.511 . S
C1607 H1621 0.961 . S
C1607 H1622 0.961 . S
C1607 H1623 0.961 . S
C1608 C1609 1.370 . S
C1608 C1610 1.363 . S
C1608 H1624 0.931 . S
C1609 C1608 1.370 . S
C1609 C1613 1.408 . S
C1610 C1608 1.363 . S
C1610 C1611 1.370 . S
C1610 C1614 1.524 . S
C1611 C1603 1.503 . S
C1611 C1610 1.370 . S
C1611 C1612 1.403 . S
C1612 C1611 1.403 . S
C1612 C1613 1.404 . S
C1612 C1615 1.539 . S
C1613 C1609 1.408 . S
C1613 C1612 1.404 . S
C1613 H1625 0.930 . S
C1614 C1610 1.524 . S
C1614 H1626 0.956 . S
C1614 H1627 0.961 . S
C1614 H1628 0.961 . S
C1615 C1612 1.539 . S
C1615 H1629 0.958 . S
C1615 H1630 0.961 . S
C1615 H1631 0.960 . S
H1616 C1600 0.931 . S
H1617 C1605 0.929 . S
H1618 C1606 0.960 . S
H1619 C1606 0.962 . S
H1620 C1606 0.960 . S
H1621 C1607 0.961 . S
H1622 C1607 0.961 . S
H1623 C1607 0.961 . S
H1624 C1608 0.931 . S
H1625 C1613 0.930 . S
H1626 C1614 0.956 . S
H1627 C1614 0.961 . S
H1628 C1614 0.961 . S
H1629 C1615 0.958 . S
H1630 C1615 0.961 . S
H1631 C1615 0.960 . S
C1632 C1633 1.391 . S
C1632 C1634 1.394 . S
C1632 H1648 0.931 . S
C1633 C1632 1.391 . S
C1633 C1637 1.376 . S
C1634 C1632 1.394 . S
C1634 C1635 1.369 . S
C1634 C1638 1.531 . S
C1635 C1634 1.369 . S
C1635 C1636 1.410 . S
C1635 C1643 1.503 . S
C1636 C1635 1.410 . S
C1636 C1637 1.392 . S
C1636 C1639 1.511 . S
C1637 C1633 1.376 . S
C1637 C1636 1.392 . S
C1637 H1649 0.929 . S
C1638 C1634 1.531 . S
C1638 H1650 0.960 . S
C1638 H1651 0.962 . S
C1638 H1652 0.960 . S
C1639 C1636 1.511 . S
C1639 H1653 0.961 . S
C1639 H1654 0.961 . S
C1639 H1655 0.961 . S
C1640 C1641 1.370 . S
C1640 C1642 1.363 . S
C1640 H1656 0.931 . S
C1641 C1640 1.370 . S
C1641 C1645 1.408 . S
C1642 C1640 1.363 . S
C1642 C1643 1.370 . S
C1642 C1646 1.524 . S
C1643 C1635 1.503 . S
C1643 C1642 1.370 . S
C1643 C1644 1.403 . S
C1644 C1643 1.403 . S
C1644 C1645 1.404 . S
C1644 C1647 1.539 . S
C1645 C1641 1.408 . S
C1645 C1644 1.404 . S
C1645 H1657 0.938 . S
C1646 C1642 1.524 . S
C1646 H1658 0.956 . S
C1646 H1659 0.961 . S
C1646 H1660 0.961 . S
C1647 C1644 1.539 . S
C1647 H1661 0.958 . S
C1647 H1662 0.961 . S
C1647 H1663 0.960 . S
H1648 C1632 0.931 . S
H1649 C1637 0.929 . S
H1650 C1638 0.960 . S
H1651 C1638 0.962 . S
H1652 C1638 0.960 . S
H1653 C1639 0.961 . S
H1654 C1639 0.961 . S
H1655 C1639 0.961 . S
H1656 C1640 0.931 . S
H1657 C1645 0.938 . S
H1658 C1646 0.956 . S
H1659 C1646 0.961 . S
H1660 C1646 0.961 . S
H1661 C1647 0.958 . S
H1662 C1647 0.961 . S
H1663 C1647 0.960 . S
C1664 C1665 1.391 . S
C1664 C1666 1.394 . S
C1664 H1680 0.931 . S
C1665 C1664 1.391 . S
C1665 C1669 1.376 1_554 S
C1666 C1664 1.394 . S
C1666 C1667 1.369 . S
C1666 C1670 1.531 . S
C1667 C1666 1.369 . S
C1667 C1668 1.410 . S
C1667 C1675 1.503 1_455 S
C1668 C1667 1.410 . S
C1668 C1669 1.392 1_554 S
C1668 C1671 1.511 1_454 S
C1669 C1665 1.376 1_556 S
C1669 C1668 1.392 1_556 S
C1669 H1681 0.929 . S
C1670 C1666 1.531 . S
C1670 H1682 0.960 . S
C1670 H1683 0.962 . S
C1670 H1684 0.960 . S
C1671 C1668 1.511 1_656 S
C1671 H1685 0.961 . S
C1671 H1686 0.961 1_556 S
C1671 H1687 0.961 . S
C1672 C1673 1.370 . S
C1672 C1674 1.363 . S
C1672 H1688 0.931 . S
C1673 C1672 1.370 . S
C1673 C1677 1.408 . S
C1674 C1672 1.363 . S
C1674 C1675 1.370 . S
C1674 C1678 1.524 . S
C1675 C1667 1.503 1_655 S
C1675 C1674 1.370 . S
C1675 C1676 1.403 . S
C1676 C1675 1.403 . S
C1676 C1677 1.404 . S
C1676 C1679 1.539 . S
C1677 C1673 1.408 . S
C1677 C1676 1.404 . S
C1677 H1689 0.930 . S
C1678 C1674 1.524 . S
C1678 H1690 0.956 1_655 S
C1678 H1691 0.961 . S
C1678 H1692 0.961 . S
C1679 C1676 1.539 . S
C1679 H1693 0.958 . S
C1679 H1694 0.961 . S
C1679 H1695 0.960 . S
H1680 C1664 0.931 . S
H1681 C1669 0.929 . S
H1682 C1670 0.960 . S
H1683 C1670 0.962 . S
H1684 C1670 0.960 . S
H1685 C1671 0.961 . S
H1686 C1671 0.961 1_554 S
H1687 C1671 0.961 . S
H1688 C1672 0.931 . S
H1689 C1677 0.930 . S
H1690 C1678 0.956 1_455 S
H1691 C1678 0.961 . S
H1692 C1678 0.961 . S
H1693 C1679 0.958 . S
H1694 C1679 0.961 . S
H1695 C1679 0.960 . S
C1696 C1697 1.391 . S
C1696 C1698 1.394 . S
C1696 H1712 0.931 . S
C1697 C1696 1.391 . S
C1697 C1701 1.376 . S
C1698 C1696 1.394 . S
C1698 C1699 1.369 . S
C1698 C1702 1.531 . S
C1699 C1698 1.369 . S
C1699 C1700 1.410 . S
C1699 C1707 1.503 . S
C1700 C1699 1.410 . S
C1700 C1701 1.392 . S
C1700 C1703 1.511 . S
C1701 C1697 1.376 . S
C1701 C1700 1.392 . S
C1701 H1713 0.929 . S
C1702 C1698 1.531 . S
C1702 H1714 0.960 . S
C1702 H1715 0.962 . S
C1702 H1716 0.960 . S
C1703 C1700 1.511 . S
C1703 H1717 0.961 . S
C1703 H1718 0.961 . S
C1703 H1719 0.961 . S
C1704 C1705 1.370 . S
C1704 C1706 1.363 . S
C1704 H1720 0.931 1_556 S
C1705 C1704 1.370 . S
C1705 C1709 1.408 . S
C1706 C1704 1.363 . S
C1706 C1707 1.370 . S
C1706 C1710 1.524 . S
C1707 C1699 1.503 . S
C1707 C1706 1.370 . S
C1707 C1708 1.403 . S
C1708 C1707 1.403 . S
C1708 C1709 1.404 . S
C1708 C1711 1.539 . S
C1709 C1705 1.408 . S
C1709 C1708 1.404 . S
C1709 H1721 0.930 . S
C1710 C1706 1.524 . S
C1710 H1722 0.956 . S
C1710 H1723 0.961 . S
C1710 H1724 0.961 1_556 S
C1711 C1708 1.539 . S
C1711 H1725 0.958 . S
C1711 H1726 0.961 . S
C1711 H1727 0.960 . S
H1712 C1696 0.931 . S
H1713 C1701 0.929 . S
H1714 C1702 0.960 . S
H1715 C1702 0.962 . S
H1716 C1702 0.960 . S
H1717 C1703 0.961 . S
H1718 C1703 0.961 . S
H1719 C1703 0.961 . S
H1720 C1704 0.931 1_554 S
H1721 C1709 0.930 . S
H1722 C1710 0.956 . S
H1723 C1710 0.961 . S
H1724 C1710 0.961 1_554 S
H1725 C1711 0.958 . S
H1726 C1711 0.961 . S
H1727 C1711 0.960 . S
C1728 C1729 1.391 . S
C1728 C1730 1.394 . S
C1728 H1744 0.931 . S
C1729 C1728 1.391 . S
C1729 C1733 1.376 . S
C1730 C1728 1.394 . S
C1730 C1731 1.369 . S
C1730 C1734 1.531 1_455 S
C1731 C1730 1.369 . S
C1731 C1732 1.410 . S
C1731 C1739 1.503 1_455 S
C1732 C1731 1.410 . S
C1732 C1733 1.392 . S
C1732 C1735 1.511 . S
C1733 C1729 1.376 . S
C1733 C1732 1.392 . S
C1733 H1745 0.929 . S
C1734 C1730 1.531 1_655 S
C1734 H1746 0.960 . S
C1734 H1747 0.962 . S
C1734 H1748 0.960 1_655 S
C1735 C1732 1.511 . S
C1735 H1749 0.961 . S
C1735 H1750 0.961 . S
C1735 H1751 0.961 . S
C1736 C1737 1.370 . S
C1736 C1738 1.363 . S
C1736 H1752 0.931 . S
C1737 C1736 1.370 . S
C1737 C1741 1.408 . S
C1738 C1736 1.363 . S
C1738 C1739 1.370 . S
C1738 C1742 1.524 . S
C1739 C1731 1.503 1_655 S
C1739 C1738 1.370 . S
C1739 C1740 1.403 . S
C1740 C1739 1.403 . S
C1740 C1741 1.404 . S
C1740 C1743 1.539 1_655 S
C1741 C1737 1.408 . S
C1741 C1740 1.404 . S
C1741 H1753 0.930 . S
C1742 C1738 1.524 . S
C1742 H1754 0.956 . S
C1742 H1755 0.961 . S
C1742 H1756 0.961 . S
C1743 C1740 1.539 1_455 S
C1743 H1757 0.958 . S
C1743 H1758 0.961 . S
C1743 H1759 0.960 . S
H1744 C1728 0.931 . S
H1745 C1733 0.929 . S
H1746 C1734 0.960 . S
H1747 C1734 0.962 . S
H1748 C1734 0.960 1_455 S
H1749 C1735 0.961 . S
H1750 C1735 0.961 . S
H1751 C1735 0.961 . S
H1752 C1736 0.931 . S
H1753 C1741 0.930 . S
H1754 C1742 0.956 . S
H1755 C1742 0.961 . S
H1756 C1742 0.961 . S
H1757 C1743 0.958 . S
H1758 C1743 0.961 . S
H1759 C1743 0.960 . S
C1760 C1761 1.391 . S
C1760 C1762 1.394 . S
C1760 H1776 0.931 . S
C1761 C1760 1.391 . S
C1761 C1765 1.376 . S
C1762 C1760 1.394 . S
C1762 C1763 1.369 . S
C1762 C1766 1.531 . S
C1763 C1762 1.369 . S
C1763 C1764 1.410 . S
C1763 C1771 1.503 . S
C1764 C1763 1.410 . S
C1764 C1765 1.392 . S
C1764 C1767 1.511 . S
C1765 C1761 1.376 . S
C1765 C1764 1.392 . S
C1765 H1777 0.929 . S
C1766 C1762 1.531 . S
C1766 H1778 0.960 . S
C1766 H1779 0.962 . S
C1766 H1780 0.960 . S
C1767 C1764 1.511 . S
C1767 H1781 0.961 . S
C1767 H1782 0.961 . S
C1767 H1783 0.961 . S
C1768 C1769 1.370 . S
C1768 C1770 1.363 . S
C1768 H1784 0.931 . S
C1769 C1768 1.370 . S
C1769 C1773 1.408 . S
C1770 C1768 1.363 . S
C1770 C1771 1.370 . S
C1770 C1774 1.524 . S
C1771 C1763 1.503 . S
C1771 C1770 1.370 . S
C1771 C1772 1.403 . S
C1772 C1771 1.403 . S
C1772 C1773 1.404 . S
C1772 C1775 1.539 . S
C1773 C1769 1.408 . S
C1773 C1772 1.404 . S
C1773 H1785 0.930 . S
C1774 C1770 1.524 . S
C1774 H1786 0.956 . S
C1774 H1787 0.961 . S
C1774 H1788 0.961 . S
C1775 C1772 1.539 . S
C1775 H1789 0.958 . S
C1775 H1790 0.961 . S
C1775 H1791 0.960 . S
H1776 C1760 0.931 . S
H1777 C1765 0.929 . S
H1778 C1766 0.960 . S
H1779 C1766 0.962 . S
H1780 C1766 0.960 . S
H1781 C1767 0.961 . S
H1782 C1767 0.961 . S
H1783 C1767 0.961 . S
H1784 C1768 0.931 . S
H1785 C1773 0.930 . S
H1786 C1774 0.956 . S
H1787 C1774 0.961 . S
H1788 C1774 0.961 . S
H1789 C1775 0.958 . S
H1790 C1775 0.961 . S
H1791 C1775 0.960 . S
C1792 C1793 1.391 . S
C1792 C1794 1.394 . S
C1792 H1808 0.931 . S
C1793 C1792 1.391 . S
C1793 C1797 1.376 . S
C1794 C1792 1.394 . S
C1794 C1795 1.369 . S
C1794 C1798 1.531 . S
C1795 C1794 1.369 . S
C1795 C1796 1.410 . S
C1795 C1803 1.503 . S
C1796 C1795 1.410 . S
C1796 C1797 1.392 . S
C1796 C1799 1.511 . S
C1797 C1793 1.376 . S
C1797 C1796 1.392 . S
C1797 H1809 0.929 . S
C1798 C1794 1.531 . S
C1798 H1810 0.960 . S
C1798 H1811 0.962 . S
C1798 H1812 0.960 . S
C1799 C1796 1.511 . S
C1799 H1813 0.961 . S
C1799 H1814 0.961 . S
C1799 H1815 0.961 . S
C1800 C1801 1.370 1_556 S
C1800 C1802 1.363 1_556 S
C1800 H1816 0.931 . S
C1801 C1800 1.370 1_554 S
C1801 C1805 1.408 . S
C1802 C1800 1.363 1_554 S
C1802 C1803 1.370 . S
C1802 C1806 1.524 . S
C1803 C1795 1.503 . S
C1803 C1802 1.370 . S
C1803 C1804 1.403 . S
C1804 C1803 1.403 . S
C1804 C1805 1.404 . S
C1804 C1807 1.539 . S
C1805 C1801 1.408 . S
C1805 C1804 1.404 . S
C1805 H1817 0.930 . S
C1806 C1802 1.524 . S
C1806 H1818 0.956 . S
C1806 H1819 0.961 . S
C1806 H1820 0.961 1_554 S
C1807 C1804 1.539 . S
C1807 H1821 0.958 . S
C1807 H1822 0.961 . S
C1807 H1823 0.960 . S
H1808 C1792 0.931 . S
H1809 C1797 0.929 . S
H1810 C1798 0.960 . S
H1811 C1798 0.962 . S
H1812 C1798 0.960 . S
H1813 C1799 0.961 . S
H1814 C1799 0.961 . S
H1815 C1799 0.961 . S
H1816 C1800 0.931 . S
H1817 C1805 0.930 . S
H1818 C1806 0.956 . S
H1819 C1806 0.961 . S
H1820 C1806 0.961 1_556 S
H1821 C1807 0.958 . S
H1822 C1807 0.961 . S
H1823 C1807 0.960 . S
C1824 C1825 1.391 . S
C1824 C1826 1.394 . S
C1824 H1840 0.931 . S
C1825 C1824 1.391 . S
C1825 C1829 1.376 . S
C1826 C1824 1.394 . S
C1826 C1827 1.369 . S
C1826 C1830 1.531 . S
C1827 C1826 1.369 . S
C1827 C1828 1.410 . S
C1827 C1835 1.503 . S
C1828 C1827 1.410 . S
C1828 C1829 1.392 . S
C1828 C1831 1.511 . S
C1829 C1825 1.376 . S
C1829 C1828 1.392 . S
C1829 H1841 0.929 . S
C1830 C1826 1.531 . S
C1830 H1842 0.960 . S
C1830 H1843 0.962 . S
C1830 H1844 0.960 . S
C1831 C1828 1.511 . S
C1831 H1845 0.961 . S
C1831 H1846 0.961 . S
C1831 H1847 0.961 . S
C1832 C1833 1.370 . S
C1832 C1834 1.363 . S
C1832 H1848 0.931 . S
C1833 C1832 1.370 . S
C1833 C1837 1.408 . S
C1834 C1832 1.363 . S
C1834 C1835 1.370 . S
C1834 C1838 1.524 . S
C1835 C1827 1.503 . S
C1835 C1834 1.370 . S
C1835 C1836 1.403 . S
C1836 C1835 1.403 . S
C1836 C1837 1.404 . S
C1836 C1839 1.539 . S
C1837 C1833 1.408 . S
C1837 C1836 1.404 . S
C1837 H1849 0.930 . S
C1838 C1834 1.524 . S
C1838 H1850 0.956 . S
C1838 H1851 0.961 . S
C1838 H1852 0.961 . S
C1839 C1836 1.539 . S
C1839 H1853 0.958 . S
C1839 H1854 0.961 . S
C1839 H1855 0.960 . S
H1840 C1824 0.931 . S
H1841 C1829 0.929 . S
H1842 C1830 0.960 . S
H1843 C1830 0.962 . S
H1844 C1830 0.960 . S
H1845 C1831 0.961 . S
H1846 C1831 0.961 . S
H1847 C1831 0.961 . S
H1848 C1832 0.931 . S
H1849 C1837 0.930 . S
H1850 C1838 0.956 . S
H1851 C1838 0.961 . S
H1852 C1838 0.961 . S
H1853 C1839 0.958 . S
H1854 C1839 0.961 . S
H1855 C1839 0.960 . S
C1856 C1857 1.391 . S
C1856 C1858 1.394 . S
C1856 H1872 0.931 . S
C1857 C1856 1.391 . S
C1857 C1861 1.376 . S
C1858 C1856 1.394 . S
C1858 C1859 1.369 . S
C1858 C1862 1.531 . S
C1859 C1858 1.369 . S
C1859 C1860 1.410 . S
C1859 C1867 1.503 . S
C1860 C1859 1.410 . S
C1860 C1861 1.392 . S
C1860 C1863 1.511 . S
C1861 C1857 1.376 . S
C1861 C1860 1.392 . S
C1861 H1873 0.929 . S
C1862 C1858 1.531 . S
C1862 H1874 0.960 . S
C1862 H1875 0.962 . S
C1862 H1876 0.960 . S
C1863 C1860 1.511 . S
C1863 H1877 0.961 . S
C1863 H1878 0.961 . S
C1863 H1879 0.961 . S
C1864 C1865 1.370 . S
C1864 C1866 1.363 . S
C1864 H1880 0.931 . S
C1865 C1864 1.370 . S
C1865 C1869 1.408 . S
C1866 C1864 1.363 . S
C1866 C1867 1.370 . S
C1866 C1870 1.524 . S
C1867 C1859 1.503 . S
C1867 C1866 1.370 . S
C1867 C1868 1.403 . S
C1868 C1867 1.403 . S
C1868 C1869 1.404 . S
C1868 C1871 1.539 . S
C1869 C1865 1.408 . S
C1869 C1868 1.404 . S
C1869 H1881 0.930 . S
C1870 C1866 1.524 . S
C1870 H1882 0.956 . S
C1870 H1883 0.961 . S
C1870 H1884 0.961 . S
C1871 C1868 1.539 . S
C1871 H1885 0.958 . S
C1871 H1886 0.961 . S
C1871 H1887 0.960 . S
H1872 C1856 0.931 . S
H1873 C1861 0.929 . S
H1874 C1862 0.960 . S
H1875 C1862 0.962 . S
H1876 C1862 0.960 . S
H1877 C1863 0.961 . S
H1878 C1863 0.961 . S
H1879 C1863 0.961 . S
H1880 C1864 0.931 . S
H1881 C1869 0.930 . S
H1882 C1870 0.956 . S
H1883 C1870 0.961 . S
H1884 C1870 0.961 . S
H1885 C1871 0.958 . S
H1886 C1871 0.961 . S
H1887 C1871 0.960 . S
C1888 C1889 1.391 . S
C1888 C1890 1.394 . S
C1888 H1904 0.931 . S
C1889 C1888 1.391 . S
C1889 C1893 1.376 . S
C1890 C1888 1.394 . S
C1890 C1891 1.369 . S
C1890 C1894 1.531 . S
C1891 C1890 1.369 . S
C1891 C1892 1.410 . S
C1891 C1899 1.503 . S
C1892 C1891 1.410 . S
C1892 C1893 1.392 . S
C1892 C1895 1.511 . S
C1893 C1889 1.376 . S
C1893 C1892 1.392 . S
C1893 H1905 0.929 . S
C1894 C1890 1.531 . S
C1894 H1906 0.960 . S
C1894 H1907 0.962 . S
C1894 H1908 0.960 . S
C1895 C1892 1.511 . S
C1895 H1909 0.961 . S
C1895 H1910 0.961 . S
C1895 H1911 0.961 . S
C1896 C1897 1.370 . S
C1896 C1898 1.363 . S
C1896 H1912 0.931 1_554 S
C1897 C1896 1.370 . S
C1897 C1901 1.408 . S
C1898 C1896 1.363 . S
C1898 C1899 1.370 . S
C1898 C1902 1.524 . S
C1899 C1891 1.503 . S
C1899 C1898 1.370 . S
C1899 C1900 1.403 . S
C1900 C1899 1.403 . S
C1900 C1901 1.404 . S
C1900 C1903 1.539 . S
C1901 C1897 1.408 . S
C1901 C1900 1.404 . S
C1901 H1913 0.930 . S
C1902 C1898 1.524 . S
C1902 H1914 0.956 . S
C1902 H1915 0.961 . S
C1902 H1916 0.961 1_554 S
C1903 C1900 1.539 . S
C1903 H1917 0.958 . S
C1903 H1918 0.961 . S
C1903 H1919 0.960 . S
H1904 C1888 0.931 . S
H1905 C1893 0.929 . S
H1906 C1894 0.960 . S
H1907 C1894 0.962 . S
H1908 C1894 0.960 . S
H1909 C1895 0.961 . S
H1910 C1895 0.961 . S
H1911 C1895 0.961 . S
H1912 C1896 0.931 1_556 S
H1913 C1901 0.930 . S
H1914 C1902 0.956 . S
H1915 C1902 0.961 . S
H1916 C1902 0.961 1_556 S
H1917 C1903 0.958 . S
H1918 C1903 0.961 . S
H1919 C1903 0.960 . S
C1920 C1921 1.391 . S
C1920 C1922 1.394 . S
C1920 H1936 0.931 . S
C1921 C1920 1.391 . S
C1921 C1925 1.376 . S
C1922 C1920 1.394 . S
C1922 C1923 1.369 . S
C1922 C1926 1.531 1_455 S
C1923 C1922 1.369 . S
C1923 C1924 1.410 . S
C1923 C1931 1.503 1_455 S
C1924 C1923 1.410 . S
C1924 C1925 1.392 . S
C1924 C1927 1.511 . S
C1925 C1921 1.376 . S
C1925 C1924 1.392 . S
C1925 H1937 0.929 . S
C1926 C1922 1.531 1_655 S
C1926 H1938 0.960 . S
C1926 H1939 0.962 . S
C1926 H1940 0.960 . S
C1927 C1924 1.511 . S
C1927 H1941 0.961 . S
C1927 H1942 0.961 . S
C1927 H1943 0.961 . S
C1928 C1929 1.370 . S
C1928 C1930 1.363 . S
C1928 H1944 0.931 . S
C1929 C1928 1.370 . S
C1929 C1933 1.408 1_556 S
C1930 C1928 1.363 . S
C1930 C1931 1.370 . S
C1930 C1934 1.524 . S
C1931 C1923 1.503 1_655 S
C1931 C1930 1.370 . S
C1931 C1932 1.403 . S
C1932 C1931 1.403 . S
C1932 C1933 1.404 1_556 S
C1932 C1935 1.503 1_655 S
C1933 C1929 1.408 1_554 S
C1933 C1932 1.404 1_554 S
C1933 H1945 0.930 . S
C1934 C1930 1.524 . S
C1934 H1946 0.956 . S
C1934 H1947 0.961 1_655 S
C1934 H1948 0.961 . S
C1935 C1932 1.503 1_455 S
C1935 H1949 0.939 1_455 S
C1935 H1950 0.958 1_456 S
C1935 H1951 1.024 . S
H1936 C1920 0.931 . S
H1937 C1925 0.929 . S
H1938 C1926 0.960 . S
H1939 C1926 0.962 . S
H1940 C1926 0.960 . S
H1941 C1927 0.961 . S
H1942 C1927 0.961 . S
H1943 C1927 0.961 . S
H1944 C1928 0.931 . S
H1945 C1933 0.930 . S
H1946 C1934 0.956 . S
H1947 C1934 0.961 1_455 S
H1948 C1934 0.961 . S
H1949 C1935 0.939 1_655 S
H1950 C1935 0.958 1_654 S
H1951 C1935 1.024 . S
C1952 C1953 1.391 . S
C1952 C1954 1.394 . S
C1952 H1968 0.931 . S
C1953 C1952 1.391 . S
C1953 C1957 1.376 . S
C1954 C1952 1.394 . S
C1954 C1955 1.369 . S
C1954 C1958 1.531 . S
C1955 C1954 1.369 . S
C1955 C1956 1.410 . S
C1955 C1963 1.503 . S
C1956 C1955 1.410 . S
C1956 C1957 1.392 . S
C1956 C1959 1.511 . S
C1957 C1953 1.376 . S
C1957 C1956 1.392 . S
C1957 H1969 0.929 . S
C1958 C1954 1.531 . S
C1958 H1970 0.960 . S
C1958 H1971 0.962 . S
C1958 H1972 0.960 . S
C1959 C1956 1.511 . S
C1959 H1973 0.961 . S
C1959 H1974 0.961 . S
C1959 H1975 0.961 . S
C1960 C1961 1.370 . S
C1960 C1962 1.363 . S
C1960 H1976 0.931 . S
C1961 C1960 1.370 . S
C1961 C1965 1.408 . S
C1962 C1960 1.363 . S
C1962 C1963 1.370 . S
C1962 C1966 1.524 . S
C1963 C1955 1.503 . S
C1963 C1962 1.370 . S
C1963 C1964 1.403 . S
C1964 C1963 1.403 . S
C1964 C1965 1.404 . S
C1964 C1967 1.539 . S
C1965 C1961 1.408 . S
C1965 C1964 1.404 . S
C1965 H1977 0.930 . S
C1966 C1962 1.524 . S
C1966 H1978 0.956 . S
C1966 H1979 0.961 . S
C1966 H1980 0.961 . S
C1967 C1964 1.539 . S
C1967 H1981 0.958 . S
C1967 H1982 0.961 . S
C1967 H1983 0.960 . S
H1968 C1952 0.931 . S
H1969 C1957 0.929 . S
H1970 C1958 0.960 . S
H1971 C1958 0.962 . S
H1972 C1958 0.960 . S
H1973 C1959 0.961 . S
H1974 C1959 0.961 . S
H1975 C1959 0.961 . S
H1976 C1960 0.931 . S
H1977 C1965 0.930 . S
H1978 C1966 0.956 . S
H1979 C1966 0.961 . S
H1980 C1966 0.961 . S
H1981 C1967 0.958 . S
H1982 C1967 0.961 . S
H1983 C1967 0.960 . S
C1984 C1985 1.391 . S
C1984 C1986 1.394 . S
C1984 H2000 0.931 . S
C1985 C1984 1.391 . S
C1985 C1989 1.376 . S
C1986 C1984 1.394 . S
C1986 C1987 1.369 . S
C1986 C1990 1.531 . S
C1987 C1986 1.369 . S
C1987 C1988 1.410 . S
C1987 C1995 1.503 . S
C1988 C1987 1.410 . S
C1988 C1989 1.392 . S
C1988 C1991 1.511 . S
C1989 C1985 1.376 . S
C1989 C1988 1.392 . S
C1989 H2001 0.929 . S
C1990 C1986 1.531 . S
C1990 H2002 0.960 . S
C1990 H2003 0.962 . S
C1990 H2004 0.960 . S
C1991 C1988 1.511 . S
C1991 H2005 0.961 . S
C1991 H2006 0.961 . S
C1991 H2007 0.961 . S
C1992 C1993 1.370 1_554 S
C1992 C1994 1.363 1_554 S
C1992 H2008 0.931 . S
C1993 C1992 1.370 1_556 S
C1993 C1997 1.408 . S
C1994 C1992 1.363 1_556 S
C1994 C1995 1.370 . S
C1994 C1998 1.524 . S
C1995 C1987 1.503 . S
C1995 C1994 1.370 . S
C1995 C1996 1.403 . S
C1996 C1995 1.403 . S
C1996 C1997 1.404 . S
C1996 C1999 1.539 . S
C1997 C1993 1.408 . S
C1997 C1996 1.404 . S
C1997 H2009 0.930 . S
C1998 C1994 1.524 . S
C1998 H2010 0.956 . S
C1998 H2011 0.961 . S
C1998 H2012 0.961 1_556 S
C1999 C1996 1.539 . S
C1999 H2013 0.958 . S
C1999 H2014 0.961 . S
C1999 H2015 0.960 . S
H2000 C1984 0.931 . S
H2001 C1989 0.929 . S
H2002 C1990 0.960 . S
H2003 C1990 0.962 . S
H2004 C1990 0.960 . S
H2005 C1991 0.961 . S
H2006 C1991 0.961 . S
H2007 C1991 0.961 . S
H2008 C1992 0.931 . S
H2009 C1997 0.930 . S
H2010 C1998 0.956 . S
H2011 C1998 0.961 . S
H2012 C1998 0.961 1_554 S
H2013 C1999 0.958 . S
H2014 C1999 0.961 . S
H2015 C1999 0.960 . S
C2016 C2017 1.391 . S
C2016 C2018 1.394 . S
C2016 H2032 0.931 . S
C2017 C2016 1.391 . S
C2017 C2021 1.376 . S
C2018 C2016 1.394 . S
C2018 C2019 1.369 . S
C2018 C2022 1.531 . S
C2019 C2018 1.369 . S
C2019 C2020 1.410 . S
C2019 C2027 1.503 . S
C2020 C2019 1.410 . S
C2020 C2021 1.392 . S
C2020 C2023 1.511 . S
C2021 C2017 1.376 . S
C2021 C2020 1.392 . S
C2021 H2033 0.929 . S
C2022 C2018 1.531 . S
C2022 H2034 0.960 . S
C2022 H2035 0.962 . S
C2022 H2036 0.960 . S
C2023 C2020 1.511 . S
C2023 H2037 0.961 . S
C2023 H2038 0.961 . S
C2023 H2039 0.961 . S
C2024 C2025 1.370 . S
C2024 C2026 1.363 . S
C2024 H2040 0.931 . S
C2025 C2024 1.370 . S
C2025 C2029 1.408 . S
C2026 C2024 1.363 . S
C2026 C2027 1.370 . S
C2026 C2030 1.524 . S
C2027 C2019 1.503 . S
C2027 C2026 1.370 . S
C2027 C2028 1.403 . S
C2028 C2027 1.403 . S
C2028 C2029 1.404 . S
C2028 C2031 1.539 . S
C2029 C2025 1.408 . S
C2029 C2028 1.404 . S
C2029 H2041 0.930 1_554 S
C2030 C2026 1.524 . S
C2030 H2042 0.956 . S
C2030 H2043 0.961 . S
C2030 H2044 0.961 . S
C2031 C2028 1.539 . S
C2031 H2045 0.958 . S
C2031 H2046 0.961 1_554 S
C2031 H2047 0.960 . S
H2032 C2016 0.931 . S
H2033 C2021 0.929 . S
H2034 C2022 0.960 . S
H2035 C2022 0.962 . S
H2036 C2022 0.960 . S
H2037 C2023 0.961 . S
H2038 C2023 0.961 . S
H2039 C2023 0.961 . S
H2040 C2024 0.931 . S
H2041 C2029 0.930 1_556 S
H2042 C2030 0.956 . S
H2043 C2030 0.961 . S
H2044 C2030 0.961 . S
H2045 C2031 0.958 . S
H2046 C2031 0.961 1_556 S
H2047 C2031 0.960 . S
C2048 C2049 1.391 . S
C2048 C2050 1.394 . S
C2048 H2064 0.931 . S
C2049 C2048 1.391 . S
C2049 C2053 1.376 . S
C2050 C2048 1.394 . S
C2050 C2051 1.369 . S
C2050 C2054 1.531 . S
C2051 C2050 1.369 . S
C2051 C2052 1.410 . S
C2051 C2059 1.503 1_655 S
C2052 C2051 1.410 . S
C2052 C2053 1.392 . S
C2052 C2055 1.511 1_655 S
C2053 C2049 1.376 . S
C2053 C2052 1.392 . S
C2053 H2065 0.929 . S
C2054 C2050 1.531 . S
C2054 H2066 0.960 . S
C2054 H2067 0.962 . S
C2054 H2068 0.960 . S
C2055 C2052 1.511 1_455 S
C2055 H2069 0.961 . S
C2055 H2070 0.961 . S
C2055 H2071 0.961 . S
C2056 C2057 1.370 . S
C2056 C2058 1.363 . S
C2056 H2072 0.931 . S
C2057 C2056 1.370 . S
C2057 C2061 1.408 . S
C2058 C2056 1.363 . S
C2058 C2059 1.370 . S
C2058 C2062 1.524 . S
C2059 C2051 1.503 1_455 S
C2059 C2058 1.370 . S
C2059 C2060 1.403 . S
C2060 C2059 1.403 . S
C2060 C2061 1.404 . S
C2060 C2063 1.539 . S
C2061 C2057 1.408 . S
C2061 C2060 1.404 . S
C2061 H2073 0.930 . S
C2062 C2058 1.524 . S
C2062 H2074 0.956 1_455 S
C2062 H2075 0.961 . S
C2062 H2076 0.961 . S
C2063 C2060 1.539 . S
C2063 H2077 0.958 . S
C2063 H2078 0.961 . S
C2063 H2079 0.960 . S
H2064 C2048 0.931 . S
H2065 C2053 0.929 . S
H2066 C2054 0.960 . S
H2067 C2054 0.962 . S
H2068 C2054 0.960 . S
H2069 C2055 0.961 . S
H2070 C2055 0.961 . S
H2071 C2055 0.961 . S
H2072 C2056 0.931 . S
H2073 C2061 0.930 . S
H2074 C2062 0.956 1_655 S
H2075 C2062 0.961 . S
H2076 C2062 0.961 . S
H2077 C2063 0.958 . S
H2078 C2063 0.961 . S
H2079 C2063 0.960 . S
C2080 C2081 1.391 . S
C2080 C2082 1.394 . S
C2080 H2096 0.931 . S
C2081 C2080 1.391 . S
C2081 C2085 1.376 . S
C2082 C2080 1.394 . S
C2082 C2083 1.369 . S
C2082 C2086 1.531 . S
C2083 C2082 1.369 . S
C2083 C2084 1.410 . S
C2083 C2091 1.503 . S
C2084 C2083 1.410 . S
C2084 C2085 1.392 . S
C2084 C2087 1.511 . S
C2085 C2081 1.376 . S
C2085 C2084 1.392 . S
C2085 H2097 0.929 . S
C2086 C2082 1.531 . S
C2086 H2098 0.960 . S
C2086 H2099 0.962 . S
C2086 H2100 0.960 . S
C2087 C2084 1.511 . S
C2087 H2101 0.961 . S
C2087 H2102 0.961 . S
C2087 H2103 0.961 . S
C2088 C2089 1.370 . S
C2088 C2090 1.363 . S
C2088 H2104 0.931 . S
C2089 C2088 1.370 . S
C2089 C2093 1.408 . S
C2090 C2088 1.363 . S
C2090 C2091 1.370 . S
C2090 C2094 1.524 . S
C2091 C2083 1.503 . S
C2091 C2090 1.370 . S
C2091 C2092 1.403 . S
C2092 C2091 1.403 . S
C2092 C2093 1.404 . S
C2092 C2095 1.539 . S
C2093 C2089 1.408 . S
C2093 C2092 1.404 . S
C2093 H2105 0.930 . S
C2094 C2090 1.524 . S
C2094 H2106 0.956 . S
C2094 H2107 0.961 . S
C2094 H2108 0.961 . S
C2095 C2092 1.539 . S
C2095 H2109 0.958 . S
C2095 H2110 0.961 . S
C2095 H2111 0.960 . S
H2096 C2080 0.931 . S
H2097 C2085 0.929 . S
H2098 C2086 0.960 . S
H2099 C2086 0.962 . S
H2100 C2086 0.960 . S
H2101 C2087 0.961 . S
H2102 C2087 0.961 . S
H2103 C2087 0.961 . S
H2104 C2088 0.931 . S
H2105 C2093 0.930 . S
H2106 C2094 0.956 . S
H2107 C2094 0.961 . S
H2108 C2094 0.961 . S
H2109 C2095 0.958 . S
H2110 C2095 0.961 . S
H2111 C2095 0.960 . S
C2112 C2113 1.391 1_556 S
C2112 C2114 1.394 1_556 S
C2112 H2128 0.931 . S
C2113 C2112 1.391 1_554 S
C2113 C2117 1.376 . S
C2114 C2112 1.394 1_554 S
C2114 C2115 1.369 . S
C2114 C2118 1.531 1_655 S
C2115 C2114 1.369 . S
C2115 C2116 1.410 . S
C2115 C2123 1.503 1_655 S
C2116 C2115 1.410 . S
C2116 C2117 1.392 . S
C2116 C2119 1.511 . S
C2117 C2113 1.376 . S
C2117 C2116 1.392 . S
C2117 H2129 0.929 . S
C2118 C2114 1.531 1_455 S
C2118 H2130 0.960 . S
C2118 H2131 0.962 1_554 S
C2118 H2132 0.960 1_554 S
C2119 C2116 1.511 . S
C2119 H2133 0.961 . S
C2119 H2134 0.961 . S
C2119 H2135 0.961 . S
C2120 C2121 1.370 . S
C2120 C2122 1.363 . S
C2120 H2136 0.931 . S
C2121 C2120 1.370 . S
C2121 C2125 1.408 . S
C2122 C2120 1.363 . S
C2122 C2123 1.370 . S
C2122 C2126 1.524 . S
C2123 C2115 1.503 1_455 S
C2123 C2122 1.370 . S
C2123 C2124 1.403 . S
C2124 C2123 1.403 . S
C2124 C2125 1.404 . S
C2124 C2127 1.539 . S
C2125 C2121 1.408 . S
C2125 C2124 1.404 . S
C2125 H2137 0.930 . S
C2126 C2122 1.524 . S
C2126 H2138 0.956 . S
C2126 H2139 0.961 1_455 S
C2126 H2140 0.961 . S
C2127 C2124 1.539 . S
C2127 H2141 0.958 . S
C2127 H2142 0.961 . S
C2127 H2143 0.960 1_455 S
H2128 C2112 0.931 . S
H2129 C2117 0.929 . S
H2130 C2118 0.960 . S
H2131 C2118 0.962 1_556 S
H2132 C2118 0.960 1_556 S
H2133 C2119 0.961 . S
H2134 C2119 0.961 . S
H2135 C2119 0.961 . S
H2136 C2120 0.931 . S
H2137 C2125 0.930 . S
H2138 C2126 0.956 . S
H2139 C2126 0.961 1_655 S
H2140 C2126 0.961 . S
H2141 C2127 0.958 . S
H2142 C2127 0.961 . S
H2143 C2127 0.960 1_655 S
C2144 C2145 1.391 . S
C2144 C2146 1.394 . S
C2144 H2160 0.931 . S
C2145 C2144 1.391 . S
C2145 C2149 1.376 . S
C2146 C2144 1.394 . S
C2146 C2147 1.369 . S
C2146 C2150 1.531 . S
C2147 C2146 1.369 . S
C2147 C2148 1.410 . S
C2147 C2155 1.503 . S
C2148 C2147 1.410 . S
C2148 C2149 1.392 . S
C2148 C2151 1.511 . S
C2149 C2145 1.376 . S
C2149 C2148 1.392 . S
C2149 H2161 0.929 . S
C2150 C2146 1.531 . S
C2150 H2162 0.960 . S
C2150 H2163 0.962 . S
C2150 H2164 0.960 . S
C2151 C2148 1.511 . S
C2151 H2165 0.961 . S
C2151 H2166 0.961 . S
C2151 H2167 0.961 . S
C2152 C2153 1.370 . S
C2152 C2154 1.363 . S
C2152 H2168 0.931 . S
C2153 C2152 1.370 . S
C2153 C2157 1.408 . S
C2154 C2152 1.363 . S
C2154 C2155 1.370 . S
C2154 C2158 1.524 . S
C2155 C2147 1.503 . S
C2155 C2154 1.370 . S
C2155 C2156 1.403 . S
C2156 C2155 1.403 . S
C2156 C2157 1.404 . S
C2156 C2159 1.539 . S
C2157 C2153 1.408 . S
C2157 C2156 1.404 . S
C2157 H2169 0.930 . S
C2158 C2154 1.524 . S
C2158 H2170 0.956 . S
C2158 H2171 0.961 . S
C2158 H2172 0.961 . S
C2159 C2156 1.539 . S
C2159 H2173 0.958 . S
C2159 H2174 0.961 . S
C2159 H2175 0.960 . S
H2160 C2144 0.931 . S
H2161 C2149 0.929 . S
H2162 C2150 0.960 . S
H2163 C2150 0.962 . S
H2164 C2150 0.960 . S
H2165 C2151 0.961 . S
H2166 C2151 0.961 . S
H2167 C2151 0.961 . S
H2168 C2152 0.931 . S
H2169 C2157 0.930 . S
H2170 C2158 0.956 . S
H2171 C2158 0.961 . S
H2172 C2158 0.961 . S
H2173 C2159 0.958 . S
H2174 C2159 0.961 . S
H2175 C2159 0.960 . S
C2176 C2177 1.391 . S
C2176 C2178 1.394 . S
C2176 H2192 0.931 . S
C2177 C2176 1.391 . S
C2177 C2181 1.376 . S
C2178 C2176 1.394 . S
C2178 C2179 1.369 . S
C2178 C2182 1.531 . S
C2179 C2178 1.369 . S
C2179 C2180 1.410 . S
C2179 C2187 1.503 . S
C2180 C2179 1.410 . S
C2180 C2181 1.392 . S
C2180 C2183 1.511 . S
C2181 C2177 1.376 . S
C2181 C2180 1.392 . S
C2181 H2193 0.929 . S
C2182 C2178 1.531 . S
C2182 H2194 0.960 . S
C2182 H2195 0.962 . S
C2182 H2196 0.960 . S
C2183 C2180 1.511 . S
C2183 H2197 0.961 . S
C2183 H2198 0.961 . S
C2183 H2199 0.961 . S
C2184 C2185 1.370 . S
C2184 C2186 1.363 . S
C2184 H2200 0.931 . S
C2185 C2184 1.370 . S
C2185 C2189 1.408 . S
C2186 C2184 1.363 . S
C2186 C2187 1.370 . S
C2186 C2190 1.524 . S
C2187 C2179 1.503 . S
C2187 C2186 1.370 . S
C2187 C2188 1.403 . S
C2188 C2187 1.403 . S
C2188 C2189 1.404 . S
C2188 C2191 1.539 . S
C2189 C2185 1.408 . S
C2189 C2188 1.404 . S
C2189 H2201 0.930 . S
C2190 C2186 1.524 . S
C2190 H2202 0.956 . S
C2190 H2203 0.961 . S
C2190 H2204 0.961 . S
C2191 C2188 1.539 . S
C2191 H2205 0.958 . S
C2191 H2206 0.961 . S
C2191 H2207 0.960 . S
H2192 C2176 0.931 . S
H2193 C2181 0.929 . S
H2194 C2182 0.960 . S
H2195 C2182 0.962 . S
H2196 C2182 0.960 . S
H2197 C2183 0.961 . S
H2198 C2183 0.961 . S
H2199 C2183 0.961 . S
H2200 C2184 0.931 . S
H2201 C2189 0.930 . S
H2202 C2190 0.956 . S
H2203 C2190 0.961 . S
H2204 C2190 0.961 . S
H2205 C2191 0.958 . S
H2206 C2191 0.961 . S
H2207 C2191 0.960 . S
C2208 C2209 1.391 . S
C2208 C2210 1.394 . S
C2208 H2224 0.931 . S
C2209 C2208 1.391 . S
C2209 C2213 1.376 . S
C2210 C2208 1.394 . S
C2210 C2211 1.369 . S
C2210 C2214 1.531 . S
C2211 C2210 1.369 . S
C2211 C2212 1.410 . S
C2211 C2219 1.503 . S
C2212 C2211 1.410 . S
C2212 C2213 1.392 . S
C2212 C2215 1.511 . S
C2213 C2209 1.376 . S
C2213 C2212 1.392 . S
C2213 H2225 0.929 . S
C2214 C2210 1.531 . S
C2214 H2226 0.960 . S
C2214 H2227 0.962 . S
C2214 H2228 0.960 . S
C2215 C2212 1.511 . S
C2215 H2229 0.961 . S
C2215 H2230 0.961 . S
C2215 H2231 0.961 . S
C2216 C2217 1.370 . S
C2216 C2218 1.363 . S
C2216 H2232 0.931 . S
C2217 C2216 1.370 . S
C2217 C2221 1.408 . S
C2218 C2216 1.363 . S
C2218 C2219 1.370 . S
C2218 C2222 1.524 . S
C2219 C2211 1.503 . S
C2219 C2218 1.370 . S
C2219 C2220 1.403 . S
C2220 C2219 1.403 . S
C2220 C2221 1.404 . S
C2220 C2223 1.539 . S
C2221 C2217 1.408 . S
C2221 C2220 1.404 . S
C2221 H2233 0.930 . S
C2222 C2218 1.524 . S
C2222 H2234 0.956 . S
C2222 H2235 0.961 . S
C2222 H2236 0.961 . S
C2223 C2220 1.539 . S
C2223 H2237 0.958 . S
C2223 H2238 0.961 . S
C2223 H2239 0.960 . S
H2224 C2208 0.931 . S
H2225 C2213 0.929 . S
H2226 C2214 0.960 . S
H2227 C2214 0.962 . S
H2228 C2214 0.960 . S
H2229 C2215 0.961 . S
H2230 C2215 0.961 . S
H2231 C2215 0.961 . S
H2232 C2216 0.931 . S
H2233 C2221 0.930 . S
H2234 C2222 0.956 . S
H2235 C2222 0.961 . S
H2236 C2222 0.961 . S
H2237 C2223 0.958 . S
H2238 C2223 0.961 . S
H2239 C2223 0.960 . S
C2240 C2241 1.391 . S
C2240 C2242 1.394 . S
C2240 H2256 0.931 . S
C2241 C2240 1.391 . S
C2241 C2245 1.376 . S
C2242 C2240 1.394 . S
C2242 C2243 1.369 . S
C2242 C2246 1.531 . S
C2243 C2242 1.369 . S
C2243 C2244 1.410 . S
C2243 C2251 1.503 . S
C2244 C2243 1.410 . S
C2244 C2245 1.392 . S
C2244 C2247 1.511 . S
C2245 C2241 1.376 . S
C2245 C2244 1.392 . S
C2245 H2257 0.929 . S
C2246 C2242 1.531 . S
C2246 H2258 0.960 . S
C2246 H2259 0.962 . S
C2246 H2260 0.960 . S
C2247 C2244 1.511 . S
C2247 H2261 0.961 . S
C2247 H2262 0.961 . S
C2247 H2263 0.961 . S
C2248 C2249 1.370 . S
C2248 C2250 1.363 . S
C2248 H2264 0.931 . S
C2249 C2248 1.370 . S
C2249 C2253 1.408 . S
C2250 C2248 1.363 . S
C2250 C2251 1.370 . S
C2250 C2254 1.524 . S
C2251 C2243 1.503 . S
C2251 C2250 1.370 . S
C2251 C2252 1.403 . S
C2252 C2251 1.403 . S
C2252 C2253 1.404 . S
C2252 C2255 1.539 . S
C2253 C2249 1.408 . S
C2253 C2252 1.404 . S
C2253 H2265 0.930 . S
C2254 C2250 1.524 . S
C2254 H2266 0.956 . S
C2254 H2267 0.961 . S
C2254 H2268 0.961 . S
C2255 C2252 1.539 . S
C2255 H2269 0.958 . S
C2255 H2270 0.961 . S
C2255 H2271 0.960 . S
H2256 C2240 0.931 . S
H2257 C2245 0.929 . S
H2258 C2246 0.960 . S
H2259 C2246 0.962 . S
H2260 C2246 0.960 . S
H2261 C2247 0.961 . S
H2262 C2247 0.961 . S
H2263 C2247 0.961 . S
H2264 C2248 0.931 . S
H2265 C2253 0.930 . S
H2266 C2254 0.956 . S
H2267 C2254 0.961 . S
H2268 C2254 0.961 . S
H2269 C2255 0.958 . S
H2270 C2255 0.961 . S
H2271 C2255 0.960 . S
C2272 C2273 1.391 . S
C2272 C2274 1.394 . S
C2272 H2288 0.931 . S
C2273 C2272 1.391 . S
C2273 C2277 1.376 . S
C2274 C2272 1.394 . S
C2274 C2275 1.369 . S
C2274 C2278 1.531 . S
C2275 C2274 1.369 . S
C2275 C2276 1.410 . S
C2275 C2283 1.503 . S
C2276 C2275 1.410 . S
C2276 C2277 1.392 . S
C2276 C2279 1.511 . S
C2277 C2273 1.376 . S
C2277 C2276 1.392 . S
C2277 H2289 0.929 1_556 S
C2278 C2274 1.531 . S
C2278 H2290 0.960 . S
C2278 H2291 0.962 . S
C2278 H2292 0.960 . S
C2279 C2276 1.511 . S
C2279 H2293 0.961 1_556 S
C2279 H2294 0.961 . S
C2279 H2295 0.961 . S
C2280 C2281 1.370 . S
C2280 C2282 1.363 . S
C2280 H2296 0.931 . S
C2281 C2280 1.370 . S
C2281 C2285 1.408 . S
C2282 C2280 1.363 . S
C2282 C2283 1.370 . S
C2282 C2286 1.524 . S
C2283 C2275 1.503 . S
C2283 C2282 1.370 . S
C2283 C2284 1.403 . S
C2284 C2283 1.403 . S
C2284 C2285 1.404 . S
C2284 C2287 1.539 . S
C2285 C2281 1.408 . S
C2285 C2284 1.404 . S
C2285 H2297 0.930 . S
C2286 C2282 1.524 . S
C2286 H2298 0.956 . S
C2286 H2299 0.961 . S
C2286 H2300 0.961 . S
C2287 C2284 1.539 . S
C2287 H2301 0.958 . S
C2287 H2302 0.961 . S
C2287 H2303 0.960 . S
H2288 C2272 0.931 . S
H2289 C2277 0.929 1_554 S
H2290 C2278 0.960 . S
H2291 C2278 0.962 . S
H2292 C2278 0.960 . S
H2293 C2279 0.961 1_554 S
H2294 C2279 0.961 . S
H2295 C2279 0.961 . S
H2296 C2280 0.931 . S
H2297 C2285 0.930 . S
H2298 C2286 0.956 . S
H2299 C2286 0.961 . S
H2300 C2286 0.961 . S
H2301 C2287 0.958 . S
H2302 C2287 0.961 . S
H2303 C2287 0.960 . S
C2304 C2305 1.391 . S
C2304 C2306 1.394 . S
C2304 H2320 0.931 . S
C2305 C2304 1.391 . S
C2305 C2309 1.376 . S
C2306 C2304 1.394 . S
C2306 C2307 1.369 . S
C2306 C2310 1.531 . S
C2307 C2306 1.369 . S
C2307 C2308 1.410 . S
C2307 C2315 1.503 1_455 S
C2308 C2307 1.410 . S
C2308 C2309 1.392 . S
C2308 C2311 1.511 . S
C2309 C2305 1.376 . S
C2309 C2308 1.392 . S
C2309 H2321 0.929 . S
C2310 C2306 1.531 . S
C2310 H2322 0.960 . S
C2310 H2323 0.962 . S
C2310 H2324 0.960 . S
C2311 C2308 1.511 . S
C2311 H2325 0.961 . S
C2311 H2326 0.961 1_455 S
C2311 H2327 0.961 . S
C2312 C2313 1.370 . S
C2312 C2314 1.363 . S
C2312 H2328 0.931 . S
C2313 C2312 1.370 . S
C2313 C2317 1.408 . S
C2314 C2312 1.363 . S
C2314 C2315 1.370 . S
C2314 C2318 1.524 . S
C2315 C2307 1.503 1_655 S
C2315 C2314 1.370 . S
C2315 C2316 1.403 . S
C2316 C2315 1.403 . S
C2316 C2317 1.404 . S
C2316 C2319 1.539 1_655 S
C2317 C2313 1.408 . S
C2317 C2316 1.404 . S
C2317 H2329 0.930 . S
C2318 C2314 1.524 . S
C2318 H2330 0.956 . S
C2318 H2331 0.961 . S
C2318 H2332 0.961 . S
C2319 C2316 1.539 1_455 S
C2319 H2333 0.958 . S
C2319 H2334 0.961 . S
C2319 H2335 0.960 . S
H2320 C2304 0.931 . S
H2321 C2309 0.929 . S
H2322 C2310 0.960 . S
H2323 C2310 0.962 . S
H2324 C2310 0.960 . S
H2325 C2311 0.961 . S
H2326 C2311 0.961 1_655 S
H2327 C2311 0.961 . S
H2328 C2312 0.931 . S
H2329 C2317 0.930 . S
H2330 C2318 0.956 . S
H2331 C2318 0.961 . S
H2332 C2318 0.961 . S
H2333 C2319 0.958 . S
H2334 C2319 0.961 . S
H2335 C2319 0.960 . S
C2336 C2337 1.391 . S
C2336 C2338 1.394 . S
C2336 H2352 0.931 . S
C2337 C2336 1.391 . S
C2337 C2341 1.376 . S
C2338 C2336 1.394 . S
C2338 C2339 1.369 . S
C2338 C2342 1.531 . S
C2339 C2338 1.369 . S
C2339 C2340 1.410 . S
C2339 C2347 1.503 . S
C2340 C2339 1.410 . S
C2340 C2341 1.392 . S
C2340 C2343 1.511 . S
C2341 C2337 1.376 . S
C2341 C2340 1.392 . S
C2341 H2353 0.929 . S
C2342 C2338 1.531 . S
C2342 H2354 0.960 . S
C2342 H2355 0.962 . S
C2342 H2356 0.960 . S
C2343 C2340 1.511 . S
C2343 H2357 0.961 . S
C2343 H2358 0.961 . S
C2343 H2359 0.961 . S
C2344 C2345 1.370 . S
C2344 C2346 1.363 . S
C2344 H2360 0.931 1_554 S
C2345 C2344 1.370 . S
C2345 C2349 1.408 . S
C2346 C2344 1.363 . S
C2346 C2347 1.370 . S
C2346 C2350 1.524 . S
C2347 C2339 1.503 . S
C2347 C2346 1.370 . S
C2347 C2348 1.403 . S
C2348 C2347 1.403 . S
C2348 C2349 1.404 . S
C2348 C2351 1.539 . S
C2349 C2345 1.408 . S
C2349 C2348 1.404 . S
C2349 H2361 0.930 . S
C2350 C2346 1.524 . S
C2350 H2362 0.956 . S
C2350 H2363 0.961 . S
C2350 H2364 0.961 1_554 S
C2351 C2348 1.539 . S
C2351 H2365 0.958 . S
C2351 H2366 0.961 . S
C2351 H2367 0.960 . S
H2352 C2336 0.931 . S
H2353 C2341 0.929 . S
H2354 C2342 0.960 . S
H2355 C2342 0.962 . S
H2356 C2342 0.960 . S
H2357 C2343 0.961 . S
H2358 C2343 0.961 . S
H2359 C2343 0.961 . S
H2360 C2344 0.931 1_556 S
H2361 C2349 0.930 . S
H2362 C2350 0.956 . S
H2363 C2350 0.961 . S
H2364 C2350 0.961 1_556 S
H2365 C2351 0.958 . S
H2366 C2351 0.961 . S
H2367 C2351 0.960 . S
C2368 C2369 1.391 . S
C2368 C2370 1.394 . S
C2368 H2384 0.931 . S
C2369 C2368 1.391 . S
C2369 C2373 1.376 . S
C2370 C2368 1.394 . S
C2370 C2371 1.369 . S
C2370 C2374 1.531 . S
C2371 C2370 1.369 . S
C2371 C2372 1.410 . S
C2371 C2379 1.503 1_655 S
C2372 C2371 1.410 . S
C2372 C2373 1.392 . S
C2372 C2375 1.511 1_655 S
C2373 C2369 1.376 . S
C2373 C2372 1.392 . S
C2373 H2385 0.929 . S
C2374 C2370 1.531 . S
C2374 H2386 0.960 . S
C2374 H2387 0.962 . S
C2374 H2388 0.960 . S
C2375 C2372 1.511 1_455 S
C2375 H2389 0.951 1_455 S
C2375 H2390 0.961 . S
C2375 H2391 0.961 . S
C2376 C2377 1.370 1_554 S
C2376 C2378 1.363 1_554 S
C2376 H2392 0.931 . S
C2377 C2376 1.370 1_556 S
C2377 C2381 1.408 . S
C2378 C2376 1.363 1_556 S
C2378 C2379 1.370 . S
C2378 C2382 1.524 1_455 S
C2379 C2371 1.503 1_455 S
C2379 C2378 1.370 . S
C2379 C2380 1.403 . S
C2380 C2379 1.403 . S
C2380 C2381 1.404 . S
C2380 C2383 1.539 . S
C2381 C2377 1.408 . S
C2381 C2380 1.404 . S
C2381 H2393 0.930 . S
C2382 C2378 1.524 1_655 S
C2382 H2394 0.956 . S
C2382 H2395 0.961 . S
C2382 H2396 0.961 1_556 S
C2383 C2380 1.539 . S
C2383 H2397 0.958 . S
C2383 H2398 0.961 . S
C2383 H2399 0.960 . S
H2384 C2368 0.931 . S
H2385 C2373 0.929 . S
H2386 C2374 0.960 . S
H2387 C2374 0.962 . S
H2388 C2374 0.960 . S
H2389 C2375 0.951 1_655 S
H2390 C2375 0.961 . S
H2391 C2375 0.961 . S
H2392 C2376 0.931 . S
H2393 C2381 0.930 . S
H2394 C2382 0.956 . S
H2395 C2382 0.961 . S
H2396 C2382 0.961 1_554 S
H2397 C2383 0.958 . S
H2398 C2383 0.961 . S
H2399 C2383 0.960 . S
C2400 C2401 1.391 . S
C2400 C2402 1.394 . S
C2400 H2416 0.931 . S
C2401 C2400 1.391 . S
C2401 C2405 1.376 . S
C2402 C2400 1.394 . S
C2402 C2403 1.369 . S
C2402 C2406 1.531 . S
C2403 C2402 1.369 . S
C2403 C2404 1.410 . S
C2403 C2411 1.503 . S
C2404 C2403 1.410 . S
C2404 C2405 1.392 . S
C2404 C2407 1.511 . S
C2405 C2401 1.376 . S
C2405 C2404 1.392 . S
C2405 H2417 0.929 . S
C2406 C2402 1.531 . S
C2406 H2418 0.960 . S
C2406 H2419 0.962 . S
C2406 H2420 0.960 . S
C2407 C2404 1.511 . S
C2407 H2421 0.961 . S
C2407 H2422 0.961 . S
C2407 H2423 0.961 . S
C2408 C2409 1.370 . S
C2408 C2410 1.363 . S
C2408 H2424 0.931 . S
C2409 C2408 1.370 . S
C2409 C2413 1.408 . S
C2410 C2408 1.363 . S
C2410 C2411 1.370 . S
C2410 C2414 1.524 . S
C2411 C2403 1.503 . S
C2411 C2410 1.370 . S
C2411 C2412 1.403 . S
C2412 C2411 1.403 . S
C2412 C2413 1.404 . S
C2412 C2415 1.539 . S
C2413 C2409 1.408 . S
C2413 C2412 1.404 . S
C2413 H2425 0.930 . S
C2414 C2410 1.524 . S
C2414 H2426 0.956 . S
C2414 H2427 0.961 . S
C2414 H2428 0.961 . S
C2415 C2412 1.539 . S
C2415 H2429 0.958 . S
C2415 H2430 0.961 . S
C2415 H2431 0.960 . S
H2416 C2400 0.931 . S
H2417 C2405 0.929 . S
H2418 C2406 0.960 . S
H2419 C2406 0.962 . S
H2420 C2406 0.960 . S
H2421 C2407 0.961 . S
H2422 C2407 0.961 . S
H2423 C2407 0.961 . S
H2424 C2408 0.931 . S
H2425 C2413 0.930 . S
H2426 C2414 0.956 . S
H2427 C2414 0.961 . S
H2428 C2414 0.961 . S
H2429 C2415 0.958 . S
H2430 C2415 0.961 . S
H2431 C2415 0.960 . S
C2432 C2433 1.391 . S
C2432 C2434 1.394 . S
C2432 H2448 0.931 . S
C2433 C2432 1.391 . S
C2433 C2437 1.376 . S
C2434 C2432 1.394 . S
C2434 C2435 1.369 . S
C2434 C2438 1.531 . S
C2435 C2434 1.369 . S
C2435 C2436 1.410 . S
C2435 C2443 1.503 . S
C2436 C2435 1.410 . S
C2436 C2437 1.392 . S
C2436 C2439 1.511 . S
C2437 C2433 1.376 . S
C2437 C2436 1.392 . S
C2437 H2449 0.929 . S
C2438 C2434 1.531 . S
C2438 H2450 0.960 . S
C2438 H2451 0.962 . S
C2438 H2452 0.960 . S
C2439 C2436 1.511 . S
C2439 H2453 0.961 . S
C2439 H2454 0.961 . S
C2439 H2455 0.961 . S
C2440 C2441 1.370 . S
C2440 C2442 1.363 . S
C2440 H2456 0.931 . S
C2441 C2440 1.370 . S
C2441 C2445 1.408 . S
C2442 C2440 1.363 . S
C2442 C2443 1.370 . S
C2442 C2446 1.524 . S
C2443 C2435 1.503 . S
C2443 C2442 1.370 . S
C2443 C2444 1.403 . S
C2444 C2443 1.403 . S
C2444 C2445 1.404 . S
C2444 C2447 1.539 . S
C2445 C2441 1.408 . S
C2445 C2444 1.404 . S
C2445 H2457 0.930 . S
C2446 C2442 1.524 . S
C2446 H2458 0.956 . S
C2446 H2459 0.961 . S
C2446 H2460 0.961 . S
C2447 C2444 1.539 . S
C2447 H2461 0.958 . S
C2447 H2462 0.961 . S
C2447 H2463 0.960 . S
H2448 C2432 0.931 . S
H2449 C2437 0.929 . S
H2450 C2438 0.960 . S
H2451 C2438 0.962 . S
H2452 C2438 0.960 . S
H2453 C2439 0.961 . S
H2454 C2439 0.961 . S
H2455 C2439 0.961 . S
H2456 C2440 0.931 . S
H2457 C2445 0.930 . S
H2458 C2446 0.956 . S
H2459 C2446 0.961 . S
H2460 C2446 0.961 . S
H2461 C2447 0.958 . S
H2462 C2447 0.961 . S
H2463 C2447 0.960 . S
C417 C88 1.233 . S
C425 C10 1.254 . S
C449 C23 1.271 . S
C457 C101 1.269 . S
C481 C62 1.272 . S
C489 C36 1.270 . S
C513 C49 1.248 . S
C521 C75 1.260 . S
C545 C192 1.295 . S
C553 C114 1.280 . S
C577 C127 1.254 . S
C585 C205 1.258 . S
C609 C166 1.230 . S
C617 C140 1.253 . S
C641 C153 1.231 . S
C649 C179 1.252 . S
C673 C218 1.235 . S
C681 C296 1.254 . S
C705 C309 1.247 . S
C713 C231 1.260 . S
C737 C244 1.231 . S
C745 C270 1.253 . S
C769 C283 1.234 . S
C777 C257 1.254 . S
C801 C400 1.296 . S
C809 C322 1.278 . S
C833 C413 1.248 . S
C841 C335 1.256 . S
C865 C374 1.296 . S
C873 C348 1.279 . S
C897 C361 1.274 . S
C905 C387 1.275 . S
C929 C91 1.367 . S
C937 C0 1.416 . S
C961 C52 1.368 . S
C969 C13 1.412 . S
C993 C65 1.411 . S
C1001 C26 1.419 . S
C1025 C78 1.368 . S
C1033 C39 1.418 . S
C1057 C195 1.438 . S
C1065 C104 1.400 . S
C1089 C156 1.424 . S
C1097 C117 1.409 . S
C1121 C169 1.373 . S
C1129 C130 1.422 . S
C1153 C143 1.368 . S
C1161 C182 1.420 . S
C1185 C299 1.389 . S
C1193 C208 1.399 . S
C1217 C221 1.436 . S
C1225 C260 1.406 . S
C1249 C234 1.430 . S
C1257 C273 1.393 . S
C1281 C286 1.399 . S
C1289 C247 1.421 . S
C1313 C403 1.439 . S
C1321 C312 1.394 . S
C1345 C325 1.381 . S
C1353 C364 1.407 . S
C1377 C338 1.403 . S
C1385 C377 1.417 . S
C1409 C390 1.385 . S
C1417 C351 1.405 . S
C1441 C8 0.967 . S
C1449 C395 0.980 1_554 S
C1473 C200 0.899 . S
C1481 C21 1.031 . S
C1505 C369 0.904 . S
C1513 C34 1.038 . S
C1537 C174 0.983 . S
C1545 C47 0.998 1_556 S
C1569 C343 0.979 . S
C1577 C60 1.036 . S
C1601 C73 0.991 . S
C1609 C148 1.005 . S
C1633 C86 1.024 . S
C1641 C317 0.997 1_556 S
C1665 C99 0.988 1_554 S
C1673 C122 1.005 . S
C1697 C112 0.964 . S
C1705 C291 0.993 1_556 S
C1729 C96 1.037 . S
C1737 C125 0.995 . S
C1761 C265 1.036 . S
C1769 C138 1.009 . S
C1793 C70 0.908 . S
C1801 C151 1.041 1_554 S
C1825 C239 1.003 . S
C1833 C164 1.024 . S
C1857 C44 1.043 . S
C1865 C177 1.005 . S
C1889 C190 0.981 . S
C1897 C213 0.978 1_554 S
C1921 C18 1.045 . S
C1929 C203 0.998 1_556 S
C1953 C187 1.024 . S
C1961 C216 0.996 . S
C1985 C408 0.937 . S
C1993 C229 1.041 1_556 S
C2017 C242 1.057 . S
C2025 C161 0.945 1_554 S
C2049 C255 0.982 . S
C2057 C382 1.005 . S
C2081 C268 0.993 . S
C2089 C135 1.005 1_556 S
C2113 C281 1.050 1_554 S
C2121 C356 0.944 . S
C2145 C294 1.067 . S
C2153 C109 0.948 . S
C2177 C307 0.961 . S
C2185 C330 0.989 . S
C2209 C83 0.916 . S
C2217 C320 1.025 . S
C2241 C304 1.031 . S
C2249 C333 1.012 1_554 S
C2273 C57 0.959 1_556 S
C2281 C346 1.009 . S
C2305 C359 1.071 . S
C2313 C278 0.953 . S
C2337 C372 0.961 . S
C2345 C31 0.998 1_554 S
C2369 C252 0.913 . S
C2377 C385 1.041 1_556 S
C2401 C398 1.065 . S
C2409 C5 0.944 . S
C2433 C411 1.063 . S
C2441 C226 0.944 . S
