# Generated by pormake.
# Topology fob, (5)-cn, num edge types: 1
# Building blocks:
#     Node 0, Type 0, BuildingBlock: XOMCOT_clean_sbu_1, # of connection points: 5
#     Node 1, Type 0, BuildingBlock: XOMCOT_clean_sbu_1, # of connection points: 5
#     Node 2, Type 0, BuildingBlock: XOMCOT_clean_sbu_1, # of connection points: 5
#     Node 3, Type 0, BuildingBlock: XOMCOT_clean_sbu_1, # of connection points: 5
#     Node 4, Type 0, BuildingBlock: XOMCOT_clean_sbu_1, # of connection points: 5
#     Node 5, Type 0, BuildingBlock: XOMCOT_clean_sbu_1, # of connection points: 5
#     Node 6, Type 0, BuildingBlock: XOMCOT_clean_sbu_1, # of connection points: 5
#     Node 7, Type 0, BuildingBlock: XOMCOT_clean_sbu_1, # of connection points: 5
#     Node 8, Type 0, BuildingBlock: XOMCOT_clean_sbu_1, # of connection points: 5
#     Node 9, Type 0, BuildingBlock: XOMCOT_clean_sbu_1, # of connection points: 5
#     Node 10, Type 0, BuildingBlock: XOMCOT_clean_sbu_1, # of connection points: 5
#     Node 11, Type 0, BuildingBlock: XOMCOT_clean_sbu_1, # of connection points: 5
#     Node 12, Type 0, BuildingBlock: XOMCOT_clean_sbu_1, # of connection points: 5
#     Node 13, Type 0, BuildingBlock: XOMCOT_clean_sbu_1, # of connection points: 5
#     Node 14, Type 0, BuildingBlock: XOMCOT_clean_sbu_1, # of connection points: 5
#     Node 15, Type 0, BuildingBlock: XOMCOT_clean_sbu_1, # of connection points: 5
#     Edge 16, Type (0, 0), BuildingBlock: MIFKUJ_clean_linker_0, # of connection points: 2
#     Edge 17, Type (0, 0), BuildingBlock: MIFKUJ_clean_linker_0, # of connection points: 2
#     Edge 18, Type (0, 0), BuildingBlock: MIFKUJ_clean_linker_0, # of connection points: 2
#     Edge 19, Type (0, 0), BuildingBlock: MIFKUJ_clean_linker_0, # of connection points: 2
#     Edge 20, Type (0, 0), BuildingBlock: MIFKUJ_clean_linker_0, # of connection points: 2
#     Edge 21, Type (0, 0), BuildingBlock: MIFKUJ_clean_linker_0, # of connection points: 2
#     Edge 22, Type (0, 0), BuildingBlock: MIFKUJ_clean_linker_0, # of connection points: 2
#     Edge 23, Type (0, 0), BuildingBlock: MIFKUJ_clean_linker_0, # of connection points: 2
#     Edge 24, Type (0, 0), BuildingBlock: MIFKUJ_clean_linker_0, # of connection points: 2
#     Edge 25, Type (0, 0), BuildingBlock: MIFKUJ_clean_linker_0, # of connection points: 2
#     Edge 26, Type (0, 0), BuildingBlock: MIFKUJ_clean_linker_0, # of connection points: 2
#     Edge 27, Type (0, 0), BuildingBlock: MIFKUJ_clean_linker_0, # of connection points: 2
#     Edge 28, Type (0, 0), BuildingBlock: MIFKUJ_clean_linker_0, # of connection points: 2
#     Edge 29, Type (0, 0), BuildingBlock: MIFKUJ_clean_linker_0, # of connection points: 2
#     Edge 30, Type (0, 0), BuildingBlock: MIFKUJ_clean_linker_0, # of connection points: 2
#     Edge 31, Type (0, 0), BuildingBlock: MIFKUJ_clean_linker_0, # of connection points: 2
#     Edge 32, Type (0, 0), BuildingBlock: MIFKUJ_clean_linker_0, # of connection points: 2
#     Edge 33, Type (0, 0), BuildingBlock: MIFKUJ_clean_linker_0, # of connection points: 2
#     Edge 34, Type (0, 0), BuildingBlock: MIFKUJ_clean_linker_0, # of connection points: 2
#     Edge 35, Type (0, 0), BuildingBlock: MIFKUJ_clean_linker_0, # of connection points: 2
#     Edge 36, Type (0, 0), BuildingBlock: MIFKUJ_clean_linker_0, # of connection points: 2
#     Edge 37, Type (0, 0), BuildingBlock: MIFKUJ_clean_linker_0, # of connection points: 2
#     Edge 38, Type (0, 0), BuildingBlock: MIFKUJ_clean_linker_0, # of connection points: 2
#     Edge 39, Type (0, 0), BuildingBlock: MIFKUJ_clean_linker_0, # of connection points: 2
#     Edge 40, Type (0, 0), BuildingBlock: MIFKUJ_clean_linker_0, # of connection points: 2
#     Edge 41, Type (0, 0), BuildingBlock: MIFKUJ_clean_linker_0, # of connection points: 2
#     Edge 42, Type (0, 0), BuildingBlock: MIFKUJ_clean_linker_0, # of connection points: 2
#     Edge 43, Type (0, 0), BuildingBlock: MIFKUJ_clean_linker_0, # of connection points: 2
#     Edge 44, Type (0, 0), BuildingBlock: MIFKUJ_clean_linker_0, # of connection points: 2
#     Edge 45, Type (0, 0), BuildingBlock: MIFKUJ_clean_linker_0, # of connection points: 2
#     Edge 46, Type (0, 0), BuildingBlock: MIFKUJ_clean_linker_0, # of connection points: 2
#     Edge 47, Type (0, 0), BuildingBlock: MIFKUJ_clean_linker_0, # of connection points: 2
#     Edge 48, Type (0, 0), BuildingBlock: MIFKUJ_clean_linker_0, # of connection points: 2
#     Edge 49, Type (0, 0), BuildingBlock: MIFKUJ_clean_linker_0, # of connection points: 2
#     Edge 50, Type (0, 0), BuildingBlock: MIFKUJ_clean_linker_0, # of connection points: 2
#     Edge 51, Type (0, 0), BuildingBlock: MIFKUJ_clean_linker_0, # of connection points: 2
#     Edge 52, Type (0, 0), BuildingBlock: MIFKUJ_clean_linker_0, # of connection points: 2
#     Edge 53, Type (0, 0), BuildingBlock: MIFKUJ_clean_linker_0, # of connection points: 2
#     Edge 54, Type (0, 0), BuildingBlock: MIFKUJ_clean_linker_0, # of connection points: 2
#     Edge 55, Type (0, 0), BuildingBlock: MIFKUJ_clean_linker_0, # of connection points: 2
# Relax obj value: 0.102
# Max RMSD: 0.151
# Mean RMSD: 0.151
data_MOF--net-fob--node1-XOMCOT_clean_sbu_1--edge1-MIFKUJ_clean_linker_0
_symmetry_space_group_name_H-M    P1
_symmetry_Int_Tables_number       1
_symmetry_cell_setting            triclinic
loop_
_symmetry_equiv_pos_as_xyz
'x, y, z'
_cell_length_a     31.904217
_cell_length_b     82.095435
_cell_length_c     64.893569
_cell_angle_alpha  100.24131
_cell_angle_beta   89.943499
_cell_angle_gamma 89.938573
loop_
_atom_site_label
_atom_site_type_symbol
_atom_site_fract_x
_atom_site_fract_y
_atom_site_fract_z
_atom_type_partial_charge
C0 C 0.09498 0.17276 0.49141 0.0
C1 C 0.10432 0.1893 0.49349 0.0
N2 N 0.14319 0.19082 0.48586 0.0
N3 N 0.12757 0.16377 0.48242 0.0
C4 C 0.15673 0.17508 0.47933 0.0
H5 H 0.06633 0.16755 0.49633 0.0
Co6 Co 0.12694 0.14076 0.4777 0.0
C7 C 0.1779 0.12999 0.4402 0.0
O8 O 0.14729 0.1199 0.43288 0.0
N9 N 0.12634 0.11718 0.47401 0.0
C10 C 0.15149 0.0917 0.47326 0.0
C11 C 0.16159 0.10788 0.47292 0.0
C12 C 0.09523 0.10625 0.47582 0.0
N13 N 0.10967 0.09065 0.47515 0.0
O14 O 0.16552 0.14096 0.49996 0.0
H15 H 0.19313 0.11269 0.47289 0.0
H16 H 0.0628 0.1096 0.4785 0.0
O17 O 0.17399 0.13958 0.45796 0.0
C18 C 0.14791 0.13835 0.51662 0.0
O19 O 0.10697 0.13657 0.51671 0.0
N20 N 0.08663 0.14118 0.45655 0.0
C21 C 0.02234 0.1423 0.42778 0.0
C22 C 0.06244 0.14813 0.42417 0.0
C23 C 0.09379 0.148 0.43911 0.0
C24 C 0.04684 0.13702 0.4612 0.0
C25 C 0.01435 0.13712 0.44684 0.0
H26 H 0.12367 0.15352 0.43667 0.0
H27 H 0.03991 0.13412 0.47641 0.0
H28 H 0.18714 0.17182 0.4724 0.0
H29 H 0.08428 0.1994 0.50057 0.0
H30 H 0.17353 0.08167 0.47332 0.0
H31 H 0.06921 0.15315 0.41018 0.0
H32 H 0.98331 0.13321 0.45066 0.0
C33 C 0.09365 0.10474 0.74157 0.0
C34 C 0.10346 0.08829 0.74034 0.0
N35 N 0.14294 0.08714 0.74738 0.0
N36 N 0.12657 0.11402 0.74946 0.0
C37 C 0.15631 0.10299 0.75273 0.0
H38 H 0.06451 0.10967 0.73676 0.0
Co39 Co 0.12705 0.13698 0.75282 0.0
C40 C 0.17888 0.14841 0.78997 0.0
O41 O 0.15048 0.1598 0.79642 0.0
N42 N 0.12771 0.16048 0.75523 0.0
C43 C 0.15359 0.18561 0.75456 0.0
C44 C 0.16326 0.16948 0.75551 0.0
C45 C 0.09685 0.17151 0.75338 0.0
N46 N 0.11169 0.18692 0.75313 0.0
O47 O 0.16636 0.13558 0.7306 0.0
H48 H 0.19462 0.16449 0.75572 0.0
H49 H 0.06433 0.16827 0.7509 0.0
O50 O 0.17332 0.13822 0.77284 0.0
C51 C 0.14998 0.13825 0.71369 0.0
O52 O 0.10944 0.14104 0.71327 0.0
N53 N 0.08618 0.13777 0.77398 0.0
C54 C 0.0211 0.13894 0.80287 0.0
C55 C 0.06085 0.13322 0.80733 0.0
C56 C 0.09261 0.1322 0.79237 0.0
C57 C 0.04667 0.14172 0.76861 0.0
C58 C 0.01378 0.14276 0.78298 0.0
H59 H 0.12213 0.12673 0.79558 0.0
H60 H 0.04038 0.14373 0.75291 0.0
H61 H 0.18712 0.10653 0.75889 0.0
H62 H 0.0833 0.07798 0.73419 0.0
H63 H 0.17593 0.19552 0.75457 0.0
H64 H 0.06706 0.12922 0.82207 0.0
H65 H 0.98304 0.14657 0.77858 0.0
C66 C 0.91807 0.86177 0.49755 0.0
C67 C 0.90792 0.84528 0.49487 0.0
N68 N 0.86623 0.84388 0.49772 0.0
N69 N 0.8832 0.87089 0.50237 0.0
C70 C 0.85206 0.8597 0.50224 0.0
H71 H 0.94897 0.86682 0.49603 0.0
Co72 Co 0.88168 0.8939 0.50668 0.0
C73 C 0.8251 0.90383 0.54261 0.0
O74 O 0.85209 0.91532 0.5506 0.0
N75 N 0.87996 0.91742 0.51009 0.0
C76 C 0.85341 0.94255 0.50994 0.0
C77 C 0.84414 0.92626 0.51012 0.0
C78 C 0.91062 0.9287 0.50911 0.0
N79 N 0.89531 0.94409 0.50922 0.0
O80 O 0.84436 0.89281 0.4838 0.0
H81 H 0.81294 0.92105 0.50937 0.0
H82 H 0.94348 0.92574 0.50745 0.0
O83 O 0.8335 0.89417 0.52537 0.0
C84 C 0.86094 0.89613 0.46726 0.0
O85 O 0.90119 0.89955 0.46732 0.0
N86 N 0.92056 0.89441 0.52863 0.0
C87 C 0.98435 0.89303 0.5576 0.0
C88 C 0.94371 0.88787 0.5614 0.0
C89 C 0.91258 0.88815 0.54641 0.0
C90 C 0.9606 0.89837 0.5241 0.0
C91 C 0.99291 0.89804 0.53851 0.0
H92 H 0.88258 0.88276 0.54888 0.0
H93 H 0.96795 0.90107 0.50882 0.0
H94 H 0.81957 0.86318 0.505 0.0
H95 H 0.92999 0.83517 0.49121 0.0
H96 H 0.83094 0.95232 0.50921 0.0
H97 H 0.93646 0.88304 0.57548 0.0
H98 H 0.02434 0.90149 0.53464 0.0
C99 C 0.92636 0.90926 0.23799 0.0
C100 C 0.91827 0.92596 0.24151 0.0
N101 N 0.87722 0.92834 0.2379 0.0
N102 N 0.89077 0.90097 0.23208 0.0
C103 C 0.86132 0.91286 0.2322 0.0
H104 H 0.95612 0.90347 0.24014 0.0
Co105 Co 0.88592 0.87793 0.22775 0.0
C106 C 0.82943 0.86992 0.19137 0.0
O107 O 0.8541 0.85758 0.18331 0.0
N108 N 0.88081 0.85453 0.22443 0.0
C109 C 0.8505 0.83004 0.22446 0.0
C110 C 0.84376 0.84647 0.22384 0.0
C111 C 0.90955 0.84264 0.22616 0.0
N112 N 0.892 0.82761 0.22599 0.0
O113 O 0.84782 0.87988 0.25045 0.0
H114 H 0.81336 0.85231 0.22379 0.0
H115 H 0.94242 0.84498 0.22899 0.0
O116 O 0.83875 0.87894 0.2089 0.0
C117 C 0.86424 0.88365 0.26846 0.0
O118 O 0.90509 0.88552 0.26995 0.0
N119 N 0.92542 0.87659 0.20583 0.0
C120 C 0.99045 0.87797 0.17728 0.0
C121 C 0.95071 0.88434 0.17405 0.0
C122 C 0.919 0.88389 0.18872 0.0
C123 C 0.96455 0.87125 0.20982 0.0
C124 C 0.99722 0.8714 0.19553 0.0
H125 H 0.89009 0.89025 0.18676 0.0
H126 H 0.9713 0.86782 0.22475 0.0
H127 H 0.82878 0.91012 0.2285 0.0
H128 H 0.941 0.93551 0.24695 0.0
H129 H 0.82649 0.82072 0.22428 0.0
H130 H 0.94467 0.89044 0.16086 0.0
H131 H 0.02775 0.86684 0.19908 0.0
C132 C 0.07685 0.68394 -0.00491 0.0
C133 C 0.09054 0.70003 -0.00188 0.0
N134 N 0.13105 0.70012 0.9922 0.0
N135 N 0.10839 0.67378 0.98727 0.0
C136 C 0.14119 0.68398 0.98576 0.0
H137 H 0.04578 0.67985 -0.00154 0.0
Co138 Co 0.1023 0.65082 0.9808 0.0
C139 C 0.18507 0.63972 0.96551 0.0
O140 O 0.18551 0.62958 0.97908 0.0
N141 N 0.09481 0.62779 0.97434 0.0
C142 C 0.08904 0.60225 0.95621 0.0
C143 C 0.10265 0.61802 0.9557 0.0
C144 C 0.07609 0.61765 0.9859 0.0
N145 N 0.07209 0.602 0.97517 0.0
O146 O 0.13316 0.64863 0.00508 0.0
H147 H 0.1165 0.62215 0.94232 0.0
H148 H 0.06408 0.62183 0.00154 0.0
O149 O 0.15345 0.64908 0.96454 0.0
C150 C 0.11284 0.65129 0.02218 0.0
O151 O 0.07318 0.65558 0.02187 0.0
N152 N 0.06965 0.65303 0.95784 0.0
C153 C 0.01043 0.65164 0.92616 0.0
C154 C 0.05326 0.65335 0.92188 0.0
C155 C 0.08258 0.65413 0.93807 0.0
C156 C 0.02825 0.65218 0.96244 0.0
C157 C 0.9981 0.65162 0.94692 0.0
H158 H 0.11546 0.65499 0.93448 0.0
H159 H 0.01879 0.65143 0.97826 0.0
H160 H 0.17172 0.67968 0.97985 0.0
H161 H 0.07209 0.71081 0.00454 0.0
H162 H 0.09124 0.59179 0.94349 0.0
H163 H 0.06419 0.65344 0.90611 0.0
H164 H 0.96541 0.65087 0.95114 0.0
C165 C 0.08326 0.597 0.26227 0.0
C166 C 0.09546 0.58114 0.26352 0.0
N167 N 0.13769 0.58065 0.26445 0.0
N168 N 0.11748 0.60662 0.26254 0.0
C169 C 0.15021 0.59632 0.2638 0.0
H170 H 0.05147 0.60113 0.26057 0.0
Co171 Co 0.11739 0.62876 0.25908 0.0
C172 C 0.17718 0.64535 0.29045 0.0
O173 O 0.15137 0.65796 0.29512 0.0
N174 N 0.11797 0.65112 0.25476 0.0
C175 C 0.14449 0.67417 0.24637 0.0
C176 C 0.15326 0.65844 0.24941 0.0
C177 C 0.08778 0.66273 0.25426 0.0
N178 N 0.10311 0.67699 0.24936 0.0
O179 O 0.1522 0.62314 0.23518 0.0
H180 H 0.18386 0.65267 0.24782 0.0
H181 H 0.05502 0.66072 0.25685 0.0
O182 O 0.16696 0.63288 0.27663 0.0
C183 C 0.13346 0.61616 0.21872 0.0
O184 O 0.09369 0.6123 0.22004 0.0
N185 N 0.08059 0.63373 0.28198 0.0
C186 C 0.01733 0.63715 0.31212 0.0
C187 C 0.05884 0.63431 0.31755 0.0
C188 C 0.08986 0.63214 0.30211 0.0
C189 C 0.04009 0.63581 0.27636 0.0
C190 C 0.00804 0.63783 0.29121 0.0
H191 H 0.12066 0.62839 0.30626 0.0
H192 H 0.03236 0.63523 0.26002 0.0
H193 H 0.18257 0.60024 0.2638 0.0
H194 H 0.07468 0.57066 0.26286 0.0
H195 H 0.16732 0.68278 0.24229 0.0
H196 H 0.06685 0.6329 0.33336 0.0
H197 H 0.97614 0.63952 0.28628 0.0
C198 C 0.89479 0.37181 0.98195 0.0
C199 C 0.88006 0.35591 0.97704 0.0
N200 N 0.8555 0.35285 0.99285 0.0
N201 N 0.87953 0.37902 0.0007 0.0
C202 C 0.85549 0.36719 0.00699 0.0
H203 H 0.91615 0.37764 0.97258 0.0
Co204 Co 0.89607 0.40034 0.01326 0.0
C205 C 0.84046 0.40995 0.05028 0.0
O206 O 0.87112 0.41777 0.06128 0.0
N207 N 0.91496 0.42237 0.02542 0.0
C208 C 0.95163 0.44318 0.04398 0.0
C209 C 0.94188 0.42671 0.04164 0.0
C210 C 0.90906 0.43685 0.01832 0.0
N211 N 0.93129 0.44959 0.02918 0.0
O212 O 0.86285 0.40894 0.99339 0.0
H213 H 0.95418 0.41856 0.05151 0.0
H214 H 0.88931 0.43815 0.00524 0.0
O215 O 0.84705 0.40238 0.0316 0.0
C216 C 0.88049 0.41163 0.97675 0.0
O217 O 0.92146 0.41022 0.9751 0.0
N218 N 0.92967 0.39089 0.0316 0.0
C219 C 0.98784 0.37984 0.05789 0.0
C220 C 0.94475 0.37874 0.0617 0.0
C221 C 0.91604 0.38409 0.04814 0.0
C222 C 0.97109 0.39043 0.02642 0.0
C223 C 0.00089 0.38521 0.03955 0.0
H224 H 0.88311 0.38287 0.05119 0.0
H225 H 0.98114 0.39513 0.01266 0.0
H226 H 0.83949 0.36889 0.02192 0.0
H227 H 0.88724 0.34727 0.96286 0.0
H228 H 0.97356 0.44972 0.0552 0.0
H229 H 0.93333 0.37398 0.07519 0.0
H230 H 0.03381 0.38613 0.03587 0.0
C231 C 0.89423 0.41508 0.74688 0.0
C232 C 0.88394 0.43153 0.74846 0.0
N233 N 0.84477 0.43258 0.74099 0.0
N234 N 0.86188 0.40573 0.73836 0.0
C235 C 0.83206 0.41671 0.73506 0.0
H236 H 0.92333 0.41018 0.75178 0.0
Co237 Co 0.86152 0.38272 0.73385 0.0
C238 C 0.8051 0.37296 0.69777 0.0
O239 O 0.83182 0.3614 0.68956 0.0
N240 N 0.86097 0.35921 0.73016 0.0
C241 C 0.83597 0.33385 0.73005 0.0
C242 C 0.82571 0.35006 0.72991 0.0
C243 C 0.8923 0.34818 0.73112 0.0
N244 N 0.87798 0.33264 0.73094 0.0
O245 O 0.82461 0.38355 0.75698 0.0
H246 H 0.7942 0.35499 0.73043 0.0
H247 H 0.9248 0.35154 0.73339 0.0
O248 O 0.81342 0.3823 0.71523 0.0
C249 C 0.84269 0.38039 0.77325 0.0
O250 O 0.88278 0.37663 0.77219 0.0
N251 N 0.9003 0.38263 0.71193 0.0
C252 C 0.96474 0.38453 0.68338 0.0
C253 C 0.92387 0.38926 0.67924 0.0
C254 C 0.89236 0.38874 0.69404 0.0
C255 C 0.94046 0.37911 0.71678 0.0
C256 C 0.97306 0.37965 0.70258 0.0
H257 H 0.86214 0.39385 0.69133 0.0
H258 H 0.94758 0.37651 0.73213 0.0
H259 H 0.80169 0.41316 0.72836 0.0
H260 H 0.90358 0.4419 0.75501 0.0
H261 H 0.81394 0.32383 0.73 0.0
H262 H 0.91669 0.39399 0.66508 0.0
H263 H 0.00455 0.37649 0.70672 0.0
C264 C 0.58987 0.18043 0.99079 0.0
C265 C 0.59987 0.19695 0.99325 0.0
N266 N 0.64113 0.19831 0.98936 0.0
N267 N 0.62448 0.17131 0.98519 0.0
C268 C 0.65531 0.18252 0.98446 0.0
H269 H 0.55939 0.17536 0.99328 0.0
Co270 Co 0.62622 0.14832 0.98224 0.0
C271 C 0.68161 0.13706 0.94638 0.0
O272 O 0.65456 0.12521 0.93977 0.0
N273 N 0.62824 0.12483 0.98031 0.0
C274 C 0.65587 0.10022 0.98252 0.0
C275 C 0.6644 0.11639 0.98127 0.0
C276 C 0.59803 0.1134 0.98163 0.0
N277 N 0.61401 0.09831 0.98286 0.0
O278 O 0.66308 0.15039 0.00543 0.0
H279 H 0.69535 0.12181 0.98177 0.0
H280 H 0.56503 0.11616 0.98305 0.0
O281 O 0.67418 0.1474 0.9632 0.0
C282 C 0.64345 0.14827 0.02177 0.0
O283 O 0.60288 0.14549 0.02049 0.0
N284 N 0.5873 0.14689 0.9602 0.0
C285 C 0.52328 0.1461 0.93086 0.0
C286 C 0.56343 0.15156 0.92665 0.0
C287 C 0.59467 0.15239 0.94183 0.0
C288 C 0.54762 0.1428 0.96511 0.0
C289 C 0.51525 0.142 0.95054 0.0
H290 H 0.62432 0.15788 0.93892 0.0
H291 H 0.54066 0.14072 0.98071 0.0
H292 H 0.68776 0.17918 0.98117 0.0
H293 H 0.57829 0.20716 -0.00236 0.0
H294 H 0.67889 0.09071 0.98353 0.0
H295 H 0.5702 0.15571 0.91206 0.0
H296 H 0.48421 0.13834 0.95469 0.0
C297 C 0.63464 0.10102 0.22925 0.0
C298 C 0.65219 0.08555 0.22697 0.0
N299 N 0.67195 0.08421 0.24489 0.0
N300 N 0.64315 0.10949 0.24855 0.0
C301 C 0.66623 0.09892 0.25779 0.0
H302 H 0.61488 0.10548 0.21793 0.0
Co303 Co 0.61719 0.12969 0.25869 0.0
C304 C 0.6761 0.14918 0.28949 0.0
O305 O 0.64943 0.16138 0.29481 0.0
N306 N 0.58812 0.15014 0.26804 0.0
C307 C 0.53776 0.16786 0.28117 0.0
C308 C 0.55298 0.15213 0.27993 0.0
C309 C 0.59291 0.16509 0.26202 0.0
N310 N 0.5625 0.17605 0.26969 0.0
O311 O 0.64355 0.13882 0.2371 0.0
H312 H 0.53757 0.14267 0.28674 0.0
H313 H 0.61756 0.16781 0.25172 0.0
O314 O 0.66589 0.13639 0.27619 0.0
C315 C 0.62322 0.14059 0.22083 0.0
O316 O 0.58324 0.1367 0.21956 0.0
N317 N 0.59102 0.12 0.27941 0.0
C318 C 0.5358 0.10918 0.30743 0.0
C319 C 0.57135 0.11855 0.31467 0.0
C320 C 0.59886 0.12369 0.30041 0.0
C321 C 0.55888 0.10973 0.27198 0.0
C322 C 0.53109 0.10403 0.28572 0.0
H323 H 0.62429 0.13164 0.30656 0.0
H324 H 0.55336 0.10674 0.25529 0.0
H325 H 0.67614 0.10152 0.27399 0.0
H326 H 0.64936 0.07577 0.21345 0.0
H327 H 0.50986 0.17269 0.2896 0.0
H328 H 0.57648 0.12298 0.3312 0.0
H329 H 0.50498 0.09636 0.27931 0.0
C330 C 0.41949 0.86759 0.00118 0.0
C331 C 0.40978 0.85117 0.00036 0.0
N332 N 0.36932 0.85005 0.006 0.0
N333 N 0.38553 0.87691 0.00746 0.0
C334 C 0.35529 0.86589 0.01015 0.0
H335 H 0.4493 0.87245 -0.00284 0.0
Co336 Co 0.38417 0.89989 0.00978 0.0
C337 C 0.3293 0.91162 0.04586 0.0
O338 O 0.35656 0.92323 0.05305 0.0
N339 N 0.38243 0.92332 0.01125 0.0
C340 C 0.35504 0.94797 0.00907 0.0
C341 C 0.34634 0.93185 0.01053 0.0
C342 C 0.41275 0.93464 0.00967 0.0
N343 N 0.39691 0.94975 0.00841 0.0
O344 O 0.34608 0.89746 0.98702 0.0
H345 H 0.31531 0.92654 0.01032 0.0
H346 H 0.44569 0.9318 0.00813 0.0
O347 O 0.33691 0.90132 0.02906 0.0
C348 C 0.36175 0.90013 0.96994 0.0
O349 O 0.40135 0.90447 0.96955 0.0
N350 N 0.42394 0.90152 0.03148 0.0
C351 C 0.48994 0.90093 0.05952 0.0
C352 C 0.44945 0.89632 0.06452 0.0
C353 C 0.41716 0.8962 0.05001 0.0
C354 C 0.46363 0.90508 0.02592 0.0
C355 C 0.49699 0.90517 0.03982 0.0
H356 H 0.38727 0.89115 0.05344 0.0
H357 H 0.46987 0.90707 0.0102 0.0
H358 H 0.32361 0.86944 0.01497 0.0
H359 H 0.43072 0.84085 -0.00464 0.0
H360 H 0.33211 0.95754 0.00817 0.0
H361 H 0.44322 0.8921 0.07913 0.0
H362 H 0.52812 0.90823 0.03505 0.0
C363 C 0.41131 0.91522 0.7464 0.0
C364 C 0.40093 0.93174 0.75039 0.0
N365 N 0.36212 0.9335 0.74287 0.0
N366 N 0.37933 0.90651 0.73637 0.0
C367 C 0.34963 0.91797 0.73455 0.0
H368 H 0.44059 0.90986 0.7503 0.0
Co369 Co 0.38185 0.88372 0.727 0.0
C370 C 0.29767 0.87575 0.71103 0.0
O371 O 0.29543 0.86393 0.72224 0.0
N372 N 0.38581 0.86078 0.71766 0.0
C373 C 0.38748 0.83595 0.69732 0.0
C374 C 0.37754 0.85237 0.69827 0.0
C375 C 0.40135 0.84924 0.72809 0.0
N376 N 0.40255 0.83396 0.71612 0.0
O377 O 0.35021 0.88038 0.75064 0.0
H378 H 0.36593 0.85789 0.68544 0.0
H379 H 0.41211 0.85204 0.7441 0.0
O380 O 0.33067 0.88453 0.71148 0.0
C381 C 0.37025 0.87986 0.76739 0.0
O382 O 0.41121 0.88161 0.76745 0.0
N383 N 0.41456 0.88718 0.70451 0.0
C384 C 0.47214 0.89137 0.67375 0.0
C385 C 0.42932 0.8941 0.67089 0.0
C386 C 0.40087 0.89213 0.68665 0.0
C387 C 0.456 0.8845 0.70753 0.0
C388 C 0.48542 0.88657 0.69236 0.0
H389 H 0.36813 0.89462 0.68441 0.0
H390 H 0.46611 0.88071 0.72187 0.0
H391 H 0.31988 0.91506 0.72683 0.0
H392 H 0.42051 0.94168 0.75828 0.0
H393 H 0.38514 0.82637 0.68358 0.0
H394 H 0.41807 0.898 0.65678 0.0
H395 H 0.51822 0.88424 0.69505 0.0
C396 C 0.57919 0.67518 0.48377 0.0
C397 C 0.59022 0.69139 0.48401 0.0
N398 N 0.63241 0.69249 0.48426 0.0
N399 N 0.61416 0.66595 0.4836 0.0
C400 C 0.64611 0.67682 0.48392 0.0
H401 H 0.5476 0.67052 0.48421 0.0
Co402 Co 0.61588 0.64351 0.48553 0.0
C403 C 0.67495 0.62866 0.45241 0.0
O404 O 0.65007 0.61582 0.44732 0.0
N405 N 0.61801 0.62086 0.48835 0.0
C406 C 0.64487 0.59721 0.49486 0.0
C407 C 0.65377 0.61301 0.492 0.0
C408 C 0.58761 0.60956 0.48972 0.0
N409 N 0.60309 0.595 0.49347 0.0
O410 O 0.65279 0.64842 0.50871 0.0
H411 H 0.68466 0.61851 0.49274 0.0
H412 H 0.55457 0.61201 0.48892 0.0
O413 O 0.66441 0.64051 0.46703 0.0
C414 C 0.63796 0.65594 0.52595 0.0
O415 O 0.59832 0.66039 0.52685 0.0
N416 N 0.57764 0.63914 0.46309 0.0
C417 C 0.51384 0.63565 0.43323 0.0
C418 C 0.5548 0.63944 0.4279 0.0
C419 C 0.58599 0.64159 0.44319 0.0
C420 C 0.53749 0.63638 0.46876 0.0
C421 C 0.50524 0.63426 0.45403 0.0
H422 H 0.61618 0.64599 0.43912 0.0
H423 H 0.53008 0.63651 0.48504 0.0
H424 H 0.67872 0.67337 0.48481 0.0
H425 H 0.5686 0.70157 0.4842 0.0
H426 H 0.66761 0.58811 0.49779 0.0
H427 H 0.56224 0.64153 0.41229 0.0
H428 H 0.47374 0.63188 0.45897 0.0
C429 C 0.57154 0.60249 0.7359 0.0
C430 C 0.5822 0.58598 0.73222 0.0
N431 N 0.62075 0.58439 0.74014 0.0
N432 N 0.60302 0.61131 0.74622 0.0
C433 C 0.63278 0.59998 0.74843 0.0
H434 H 0.54255 0.60777 0.73148 0.0
Co435 Co 0.60146 0.63417 0.75475 0.0
C436 C 0.65124 0.63925 0.7938 0.0
O437 O 0.62085 0.64812 0.8039 0.0
N438 N 0.60018 0.65772 0.7625 0.0
C439 C 0.62317 0.68378 0.76979 0.0
C440 C 0.63341 0.66747 0.76916 0.0
C441 C 0.57079 0.66859 0.75814 0.0
N442 N 0.58372 0.68452 0.76278 0.0
O443 O 0.64139 0.63658 0.73392 0.0
H444 H 0.66448 0.66309 0.77189 0.0
H445 H 0.54153 0.66497 0.7504 0.0
O446 O 0.64732 0.63303 0.77441 0.0
C447 C 0.6252 0.64101 0.71793 0.0
O448 O 0.58425 0.64252 0.7171 0.0
N449 N 0.55996 0.6314 0.77463 0.0
C450 C 0.49569 0.62885 0.80306 0.0
C451 C 0.53414 0.62081 0.80443 0.0
C452 C 0.56546 0.62184 0.78966 0.0
C453 C 0.5212 0.63753 0.77163 0.0
C454 C 0.4889 0.63675 0.7859 0.0
H455 H 0.59445 0.6152 0.7906 0.0
H456 H 0.51481 0.64272 0.75786 0.0
H457 H 0.66234 0.60306 0.7563 0.0
H458 H 0.5631 0.57595 0.72416 0.0
H459 H 0.64427 0.69419 0.77367 0.0
H460 H 0.54044 0.61408 0.81701 0.0
H461 H 0.45877 0.64217 0.78339 0.0
C462 C 0.39835 0.36661 0.49543 0.0
C463 C 0.39001 0.34992 0.49199 0.0
N464 N 0.35108 0.34764 0.49907 0.0
N465 N 0.36503 0.37491 0.50475 0.0
C466 C 0.33651 0.36306 0.50666 0.0
H467 H 0.42675 0.3724 0.4912 0.0
Co468 Co 0.36295 0.39789 0.51125 0.0
C469 C 0.30891 0.40565 0.54844 0.0
O470 O 0.33625 0.41694 0.55663 0.0
N471 N 0.36084 0.42148 0.51681 0.0
C472 C 0.33393 0.44679 0.51848 0.0
C473 C 0.32492 0.43038 0.51803 0.0
C474 C 0.39123 0.4329 0.51596 0.0
N475 N 0.37574 0.44838 0.51709 0.0
O476 O 0.32482 0.39796 0.48885 0.0
H477 H 0.29377 0.42515 0.51761 0.0
H478 H 0.42378 0.42995 0.51288 0.0
O479 O 0.31576 0.39694 0.53036 0.0
C480 C 0.34169 0.40232 0.47294 0.0
O481 O 0.38167 0.40623 0.47376 0.0
N482 N 0.40287 0.3972 0.53248 0.0
C483 C 0.46738 0.39548 0.56102 0.0
C484 C 0.42759 0.38912 0.56413 0.0
C485 C 0.39612 0.38966 0.54936 0.0
C486 C 0.44237 0.40198 0.52826 0.0
C487 C 0.47488 0.40164 0.54255 0.0
H488 H 0.36672 0.38363 0.55134 0.0
H489 H 0.44912 0.40556 0.5134 0.0
H490 H 0.30576 0.36569 0.51348 0.0
H491 H 0.41079 0.34026 0.48439 0.0
H492 H 0.31129 0.45669 0.51912 0.0
H493 H 0.42117 0.38333 0.57755 0.0
H494 H 0.50557 0.40609 0.53907 0.0
C495 C 0.42338 0.41123 0.24051 0.0
C496 C 0.41203 0.42764 0.2437 0.0
N497 N 0.37067 0.42861 0.23985 0.0
N498 N 0.38953 0.40182 0.23445 0.0
C499 C 0.35768 0.41272 0.23439 0.0
H500 H 0.45437 0.4064 0.24253 0.0
Co501 Co 0.39098 0.37877 0.22885 0.0
C502 C 0.33803 0.36938 0.19173 0.0
O503 O 0.36806 0.35931 0.18343 0.0
N504 N 0.39237 0.3552 0.22444 0.0
C505 C 0.36838 0.32951 0.22317 0.0
C506 C 0.35786 0.34548 0.22182 0.0
C507 C 0.42324 0.34475 0.22834 0.0
N508 N 0.40956 0.32904 0.22737 0.0
O509 O 0.35383 0.37836 0.25151 0.0
H510 H 0.32621 0.34985 0.22043 0.0
H511 H 0.45409 0.34869 0.23386 0.0
O512 O 0.3429 0.37813 0.20996 0.0
C513 C 0.37143 0.37612 0.26831 0.0
O514 O 0.41239 0.3744 0.26848 0.0
N515 N 0.42945 0.37983 0.20686 0.0
C516 C 0.4902 0.38397 0.17715 0.0
C517 C 0.44975 0.39039 0.17604 0.0
C518 C 0.42021 0.38852 0.19128 0.0
C519 C 0.4694 0.37446 0.20889 0.0
C520 C 0.49999 0.37603 0.19397 0.0
H521 H 0.39021 0.39456 0.19086 0.0
H522 H 0.4785 0.36974 0.22265 0.0
H523 H 0.32572 0.4091 0.23031 0.0
H524 H 0.43255 0.43805 0.24887 0.0
H525 H 0.34691 0.31919 0.22205 0.0
H526 H 0.4414 0.39738 0.16398 0.0
H527 H 0.53123 0.37134 0.19586 0.0
H528 H 0.1088 0.22097 0.48529 0.0
H529 H 0.14513 0.24723 0.4871 0.0
H530 H 0.26411 0.22221 0.48677 0.0
H531 H 0.22767 0.19579 0.48575 0.0
H532 H 0.26334 0.24977 0.5159 0.0
H533 H 0.22754 0.23665 0.4432 0.0
H534 H 0.18084 0.22868 0.41284 0.0
H535 H 0.10665 0.27234 0.43261 0.0
H536 H 0.15258 0.28046 0.46327 0.0
H537 H 0.387 0.31751 0.49786 0.0
H538 H 0.35185 0.29088 0.49498 0.0
H539 H 0.23175 0.31516 0.49604 0.0
H540 H 0.26692 0.34193 0.49824 0.0
H541 H 0.2339 0.2878 0.46619 0.0
H542 H 0.26886 0.30072 0.53906 0.0
H543 H 0.31526 0.30874 0.56954 0.0
H544 H 0.39077 0.26548 0.54948 0.0
H545 H 0.34513 0.25732 0.51871 0.0
C546 C 0.14268 0.22098 0.48572 0.0
C547 C 0.16521 0.20618 0.4855 0.0
C548 C 0.1635 0.23605 0.48651 0.0
C549 C 0.20745 0.23675 0.48685 0.0
C550 C 0.23017 0.222 0.48646 0.0
C551 C 0.20929 0.20686 0.4857 0.0
C552 C 0.22939 0.25295 0.48822 0.0
C553 C 0.25741 0.25796 0.50481 0.0
C554 C 0.22086 0.2639 0.47413 0.0
C555 C 0.1933 0.25909 0.45564 0.0
C556 C 0.20109 0.24449 0.44116 0.0
C557 C 0.17478 0.23995 0.42388 0.0
C558 C 0.14074 0.24997 0.42082 0.0
C559 C 0.133 0.26458 0.43501 0.0
C560 C 0.15919 0.26916 0.45233 0.0
C561 C 0.35312 0.31725 0.49735 0.0
C562 C 0.32988 0.33195 0.49824 0.0
C563 C 0.333 0.30197 0.49591 0.0
C564 C 0.28908 0.30097 0.49552 0.0
C565 C 0.26568 0.3156 0.49639 0.0
C566 C 0.28584 0.33094 0.49783 0.0
C567 C 0.26779 0.28462 0.49387 0.0
C568 C 0.23988 0.27959 0.47724 0.0
C569 C 0.2764 0.27366 0.50793 0.0
C570 C 0.3038 0.2785 0.52647 0.0
C571 C 0.29555 0.29298 0.54106 0.0
C572 C 0.32168 0.29754 0.5584 0.0
C573 C 0.356 0.28765 0.56141 0.0
C574 C 0.3642 0.27315 0.54711 0.0
C575 C 0.33819 0.26854 0.52973 0.0
H576 H 0.3762 0.2912 0.57485 0.0
H577 H 0.12041 0.24644 0.40744 0.0
H578 H 0.96935 0.94596 0.48899 0.0
H579 H 0.00577 0.97108 0.48374 0.0
H580 H 0.90944 1.0009 0.51882 0.0
H581 H 0.87282 0.97581 0.52402 0.0
H582 H 0.92682 1.01247 0.48434 0.0
H583 H 0.00795 0.99639 0.53958 0.0
H584 H 0.04977 0.97746 0.55693 0.0
H585 H 0.14064 0.97258 0.50735 0.0
H586 H 0.09905 0.9913 0.48955 0.0
H587 H 0.03657 0.08941 0.49651 0.0
H588 H -0.00047 0.06458 0.50241 0.0
H589 H 0.09299 0.03397 0.46618 0.0
H590 H 0.13004 0.05872 0.46017 0.0
H591 H 0.07681 0.02305 0.50176 0.0
H592 H 0.99498 0.03902 0.44643 0.0
H593 H 0.95307 0.05805 0.4293 0.0
H594 H 0.86342 0.06331 0.47946 0.0
H595 H 0.90512 0.04448 0.49704 0.0
C596 C 0.95623 0.95785 0.49586 0.0
C597 C 0.91816 0.95885 0.50697 0.0
C598 C 0.97706 0.97223 0.4928 0.0
C599 C 0.96057 0.98794 0.50103 0.0
C600 C 0.92275 0.98896 0.51226 0.0
C601 C 0.90181 0.97459 0.51521 0.0
C602 C 0.98214 1.0033 0.49752 0.0
C603 C 0.95947 0.01488 0.48843 0.0
C604 C 0.025 1.00633 0.50242 0.0
C605 C 0.05017 0.99512 0.51314 0.0
C606 C 0.03669 0.99118 0.5323 0.0
C607 C 0.06038 0.9805 0.54222 0.0
C608 C 0.09778 0.97379 0.53322 0.0
C609 C 0.11163 0.97777 0.51429 0.0
C610 C 0.08803 0.98843 0.50429 0.0
C611 C 0.04893 0.07742 0.48953 0.0
C612 C 0.08635 0.07609 0.47785 0.0
C613 C 0.02775 0.0632 0.49297 0.0
C614 C 0.04333 0.04737 0.48465 0.0
C615 C 0.08045 0.04603 0.47285 0.0
C616 C 0.10165 0.06021 0.46945 0.0
C617 C 0.02151 0.03218 0.48854 0.0
C618 C 0.04414 0.02063 0.4977 0.0
C619 C 0.97861 0.0292 0.48374 0.0
C620 C 0.95339 0.04047 0.47315 0.0
C621 C 0.96649 0.04434 0.45389 0.0
C622 C 0.94275 0.05507 0.44408 0.0
C623 C 0.90566 0.06192 0.45331 0.0
C624 C 0.89219 0.05801 0.47234 0.0
C625 C 0.91584 0.0473 0.48222 0.0
H626 H 0.88732 0.07023 0.4457 0.0
H627 H 0.11608 0.96552 0.54092 0.0
H628 H 0.1103 0.05702 0.74984 0.0
H629 H 0.14821 0.03121 0.74941 0.0
H630 H 0.26561 0.05683 0.74719 0.0
H631 H 0.22766 0.08272 0.74682 0.0
H632 H 0.26595 0.02837 0.71982 0.0
H633 H 0.23134 0.04431 0.79236 0.0
H634 H 0.18515 0.0532 0.82278 0.0
H635 H 0.11329 1.00857 0.80658 0.0
H636 H 0.15872 0.99951 0.77589 0.0
H637 H 0.39561 0.96395 0.74359 0.0
H638 H 0.35813 0.99002 0.7448 0.0
H639 H 0.24018 0.96427 0.74354 0.0
H640 H 0.27765 0.93807 0.74276 0.0
H641 H 0.24061 0.99281 0.77291 0.0
H642 H 0.27542 0.97705 0.70022 0.0
H643 H 0.32215 0.9682 0.67001 0.0
H644 H 0.39437 1.01268 0.68687 0.0
H645 H 0.3484 0.02168 0.71737 0.0
C646 C 0.14416 0.05722 0.74913 0.0
C647 C 0.1658 0.07204 0.74827 0.0
C648 C 0.16588 0.04243 0.74912 0.0
C649 C 0.20986 0.04204 0.7485 0.0
C650 C 0.23167 0.0568 0.74774 0.0
C651 C 0.20991 0.07165 0.74771 0.0
C652 C 0.23283 0.02616 0.74813 0.0
C653 C 0.26088 0.02074 0.73163 0.0
C654 C 0.22551 0.01593 0.76321 0.0
C655 C 0.19822 0.02131 0.78171 0.0
C656 C 0.2055 0.03645 0.79519 0.0
C657 C 0.17948 0.0415 0.8125 0.0
C658 C 0.14624 0.03147 0.81658 0.0
C659 C 0.13902 0.01633 0.80339 0.0
C660 C 0.16492 1.01123 0.78605 0.0
C661 C 0.36171 0.96379 0.74373 0.0
C662 C 0.3397 0.94886 0.74314 0.0
C663 C 0.34028 0.97873 0.74423 0.0
C664 C 0.2963 0.97912 0.74409 0.0
C665 C 0.27413 0.96427 0.74361 0.0
C666 C 0.29559 0.94928 0.74301 0.0
C667 C 0.27365 0.99507 0.74462 0.0
C668 C 0.24568 1.00048 0.76114 0.0
C669 C 0.28111 1.00531 0.72959 0.0
C670 C 0.3087 0.99996 0.7112 0.0
C671 C 0.30147 0.98488 0.69758 0.0
C672 C 0.32778 0.97985 0.68039 0.0
C673 C 0.36128 0.98985 0.67655 0.0
C674 C 0.36845 1.00493 0.68987 0.0
C675 C 0.34225 1.01001 0.70711 0.0
H676 H 0.38162 0.98594 0.66323 0.0
H677 H 0.12613 0.03541 0.82999 0.0
H678 H 0.96051 0.32678 0.72164 0.0
H679 H 0.0011 0.30226 0.72556 0.0
H680 H 0.89095 0.28057 0.74814 0.0
H681 H 0.85074 0.30525 0.7452 0.0
H682 H 0.95605 0.2759 0.77129 0.0
H683 H 0.92871 0.26843 0.69719 0.0
H684 H 0.92911 0.27646 0.66233 0.0
H685 H 0.06341 0.27977 0.66415 0.0
H686 H 0.06377 0.27195 0.69915 0.0
H687 H 0.02923 0.19327 0.76198 0.0
H688 H 0.98977 0.21796 0.75769 0.0
H689 H 0.10106 0.23874 0.73491 0.0
H690 H 0.14019 0.21385 0.73824 0.0
H691 H 0.03635 0.24412 0.71193 0.0
H692 H 0.0642 0.25146 0.78568 0.0
H693 H 0.06441 0.24372 0.82069 0.0
H694 H 0.93001 0.24097 0.81977 0.0
H695 H 0.92903 0.24849 0.78461 0.0
C696 C 0.94494 0.31689 0.72762 0.0
C697 C 0.90214 0.31807 0.73299 0.0
C698 C 0.96814 0.30276 0.72965 0.0
C699 C 0.94899 0.28943 0.73688 0.0
C700 C 0.90644 0.29064 0.74244 0.0
C701 C 0.88331 0.30476 0.74053 0.0
C702 C 0.97313 0.27424 0.73886 0.0
C703 C 0.97317 0.26883 0.75822 0.0
C704 C 0.99637 0.26521 0.72199 0.0
C705 C 0.99623 0.26976 0.70087 0.0
C706 C 0.9583 0.27098 0.69021 0.0
C707 C 0.9584 0.27547 0.67042 0.0
C708 C 0.99626 0.27867 0.66105 0.0
C709 C 0.03411 0.27731 0.67143 0.0
C710 C 0.03418 0.27283 0.69124 0.0
C711 C 0.04528 0.20299 0.75585 0.0
C712 C 0.0881 0.20151 0.75058 0.0
C713 C 0.02273 0.21721 0.75361 0.0
C714 C 0.04255 0.23037 0.74627 0.0
C715 C 0.08506 0.22882 0.74071 0.0
C716 C 0.10756 0.21459 0.74284 0.0
C717 C 0.01909 0.24573 0.74434 0.0
C718 C 0.01923 0.25117 0.725 0.0
C719 C 0.99608 0.25483 0.76124 0.0
C720 C 0.99658 0.25038 0.78243 0.0
C721 C 0.03471 0.24909 0.79288 0.0
C722 C 0.03497 0.24476 0.81276 0.0
C723 C 0.99726 0.24181 0.82243 0.0
C724 C 0.9592 0.24324 0.81225 0.0
C725 C 0.95878 0.24755 0.79235 0.0
H726 H 0.99752 0.23846 0.83782 0.0
H727 H 0.99627 0.28216 0.64573 0.0
H728 H 0.78541 0.84013 0.51029 0.0
H729 H 0.74613 0.81442 0.5076 0.0
H730 H 0.85339 0.78697 0.47966 0.0
H731 H 0.89202 0.81253 0.4811 0.0
H732 H 0.78755 0.77476 0.46009 0.0
H733 H 0.8237 0.789 0.53286 0.0
H734 H 0.82757 0.80693 0.56759 0.0
H735 H 0.6932 0.8095 0.5705 0.0
H736 H 0.68854 0.79172 0.53566 0.0
H737 H 0.71433 0.69515 0.47334 0.0
H738 H 0.75544 0.72057 0.476 0.0
H739 H 0.64763 0.74929 0.50077 0.0
H740 H 0.60704 0.72404 0.49905 0.0
H741 H 0.71502 0.76047 0.52211 0.0
H742 H 0.68028 0.746 0.44859 0.0
H743 H 0.67811 0.72755 0.41417 0.0
H744 H 0.81253 0.72478 0.41325 0.0
H745 H 0.81547 0.74308 0.44779 0.0
C746 C 0.80073 0.82871 0.50337 0.0
C747 C 0.84238 0.82865 0.4961 0.0
C748 C 0.77822 0.81391 0.50206 0.0
C749 C 0.79696 0.79863 0.49378 0.0
C750 C 0.83818 0.79854 0.48622 0.0
C751 C 0.8605 0.8133 0.48729 0.0
C752 C 0.7738 0.78273 0.49287 0.0
C753 C 0.77217 0.77157 0.47375 0.0
C754 C 0.75309 0.77857 0.51055 0.0
C755 C 0.7558 0.78916 0.53157 0.0
C756 C 0.79499 0.79347 0.54085 0.0
C757 C 0.79732 0.80359 0.56056 0.0
C758 C 0.76066 0.80938 0.57122 0.0
C759 C 0.72157 0.80502 0.56221 0.0
C760 C 0.71907 0.7949 0.5425 0.0
C761 C 0.69942 0.70684 0.47953 0.0
C762 C 0.6571 0.70744 0.4858 0.0
C763 C 0.7229 0.72141 0.48085 0.0
C764 C 0.7045 0.73692 0.4883 0.0
C765 C 0.66254 0.73752 0.49487 0.0
C766 C 0.63916 0.723 0.49365 0.0
C767 C 0.72865 0.75258 0.48934 0.0
C768 C 0.73048 0.76368 0.50848 0.0
C769 C 0.74981 0.75663 0.47172 0.0
C770 C 0.74807 0.74578 0.45086 0.0
C771 C 0.70936 0.74138 0.4411 0.0
C772 C 0.70799 0.73096 0.42157 0.0
C773 C 0.74515 0.72496 0.41156 0.0
C774 C 0.78377 0.72942 0.42104 0.0
C775 C 0.78531 0.73983 0.44058 0.0
H776 H 0.74403 0.71689 0.39645 0.0
H777 H 0.76253 0.81722 0.58647 0.0
H778 H 0.79238 0.9337 0.23811 0.0
H779 H 0.75627 0.96027 0.24211 0.0
H780 H 0.87491 0.98566 0.2479 0.0
H781 H 0.91151 0.95932 0.24339 0.0
H782 H 0.8151 1.00007 0.27792 0.0
H783 H 0.82559 0.9812 0.20296 0.0
H784 H 0.81535 0.96099 0.17038 0.0
H785 H 0.68239 0.96202 0.18088 0.0
H786 H 0.69192 0.98209 0.21368 0.0
H787 H 0.74949 0.08018 0.2601 0.0
H788 H 0.78363 0.05363 0.26221 0.0
H789 H 0.66847 0.02799 0.24233 0.0
H790 H 0.63551 0.05436 0.23936 0.0
H791 H 0.72638 1.01322 0.22035 0.0
H792 H 0.71171 0.03146 0.29405 0.0
H793 H 0.71816 0.0496 0.32852 0.0
H794 H 0.85224 0.04854 0.32271 0.0
H795 H 0.8466 0.03051 0.2881 0.0
C796 C 0.81109 0.94483 0.24008 0.0
C797 C 0.85526 0.94408 0.24038 0.0
C798 C 0.79022 0.96009 0.24248 0.0
C799 C 0.8129 0.97497 0.2453 0.0
C800 C 0.85675 0.97434 0.2459 0.0
C801 C 0.87767 0.95914 0.24331 0.0
C802 C 0.79112 0.99119 0.24699 0.0
C803 C 0.79599 1.00307 0.26528 0.0
C804 C 0.76529 0.99489 0.23074 0.0
C805 C 0.75951 0.98302 0.21087 0.0
C806 C 0.7942 0.97704 0.19839 0.0
C807 C 0.78852 0.96562 0.17987 0.0
C808 C 0.74826 0.96019 0.17359 0.0
C809 C 0.71357 0.96622 0.18578 0.0
C810 C 0.71909 0.97763 0.20432 0.0
C811 C 0.73152 0.06885 0.25661 0.0
C812 C 0.69006 0.06921 0.24952 0.0
C813 C 0.75089 0.05367 0.25784 0.0
C814 C 0.7287 0.03867 0.25246 0.0
C815 C 0.68654 0.03927 0.24639 0.0
C816 C 0.6676 0.05433 0.24478 0.0
C817 C 0.74985 0.02229 0.25147 0.0
C818 C 0.74515 1.01034 0.23317 0.0
C819 C 0.77519 0.01845 0.2679 0.0
C820 C 0.7787 0.02974 0.28839 0.0
C821 C 0.74256 0.03522 0.30003 0.0
C822 C 0.74608 0.04541 0.31965 0.0
C823 C 0.78559 0.05015 0.32785 0.0
C824 C 0.82167 0.04479 0.31639 0.0
C825 C 0.81832 0.03458 0.29677 0.0
H826 H 0.78824 0.05807 0.34302 0.0
H827 H 0.74392 0.95134 0.15927 0.0
H828 H 0.8591 0.80196 0.24201 0.0
H829 H 0.89389 0.7762 0.24579 0.0
H830 H 0.00741 0.79283 0.22 0.0
H831 H 0.97231 0.81854 0.21559 0.0
H832 H 0.99142 0.76087 0.20352 0.0
H833 H 0.99741 0.79354 0.27246 0.0
H834 H 0.96909 0.8107 0.30452 0.0
H835 H 0.89112 0.77038 0.31508 0.0
H836 H 0.91855 0.75304 0.2829 0.0
H837 H 0.13229 0.70353 0.23344 0.0
H838 H 0.09496 0.72851 0.22998 0.0
H839 H 0.98434 0.71033 0.25654 0.0
H840 H 0.02195 0.68524 0.26079 0.0
H841 H 0.99697 0.74259 0.27236 0.0
H842 H 0.99307 0.70959 0.20365 0.0
H843 H 0.0239 0.69233 0.1723 0.0
H844 H 0.09922 0.73331 0.16152 0.0
H845 H 0.06937 0.75074 0.19302 0.0
C846 C 0.89134 0.80014 0.23694 0.0
C847 C 0.91284 0.81241 0.22847 0.0
C848 C 0.91136 0.78542 0.23932 0.0
C849 C 0.95346 0.78261 0.2334 0.0
C850 C 0.97495 0.79473 0.22475 0.0
C851 C 0.95494 0.80949 0.2224 0.0
C852 C 0.9749 0.76699 0.23616 0.0
C853 C 0.99306 0.75698 0.21862 0.0
C854 C 0.97621 0.76167 0.25577 0.0
C855 C 0.95971 0.77205 0.27515 0.0
C856 C 0.97396 0.78838 0.28152 0.0
C857 C 0.95812 0.79813 0.29973 0.0
C858 C 0.92824 0.79165 0.3118 0.0
C859 C 0.91422 0.77539 0.3057 0.0
C860 C 0.92992 0.76559 0.28749 0.0
C861 C 0.10015 0.70462 0.23865 0.0
C862 C 0.08044 0.69197 0.24724 0.0
C863 C 0.07862 0.71903 0.2365 0.0
C864 C 0.03655 0.72123 0.24263 0.0
C865 C 0.01675 0.70887 0.25154 0.0
C866 C 0.03837 0.6944 0.2538 0.0
C867 C 0.01358 0.73649 0.23973 0.0
C868 C 0.99513 0.74643 0.25724 0.0
C869 C 0.01205 0.74176 0.2201 0.0
C870 C 0.0292 0.73144 0.2008 0.0
C871 C 0.01635 0.7149 0.19465 0.0
C872 C 0.03367 0.70508 0.17686 0.0
C873 C 0.06357 0.71171 0.16496 0.0
C874 C 0.07608 0.72819 0.17077 0.0
C875 C 0.05895 0.73805 0.18858 0.0
H876 H 0.077 0.70408 0.15121 0.0
H877 H 0.91602 0.79922 0.32589 0.0
H878 H 0.28494 0.84525 0.00201 0.0
H879 H 0.24703 0.81913 0.00091 0.0
H880 H 0.36281 0.79432 0.00973 0.0
H881 H 0.401 0.82024 0.01095 0.0
H882 H 0.31501 0.77718 0.97748 0.0
H883 H 0.29786 0.80209 0.04875 0.0
H884 H 0.27867 0.8222 0.08022 0.0
H885 H 0.14995 0.82005 0.06076 0.0
H886 H 0.16848 0.80024 0.02886 0.0
H887 H 0.21626 0.70192 -0.00486 0.0
H888 H 0.25953 0.72688 -0.00203 0.0
H889 H 0.14863 0.75615 0.99365 0.0
H890 H 0.1055 0.7314 0.99064 0.0
H891 H 0.19751 0.77041 0.02529 0.0
H892 H 0.21705 0.74645 0.9525 0.0
H893 H 0.23642 0.72428 0.92316 0.0
H894 H 0.36157 0.72365 0.9473 0.0
H895 H 0.34277 0.74567 0.97695 0.0
C896 C 0.30234 0.83433 0.00406 0.0
C897 C 0.34619 0.83494 0.00651 0.0
C898 C 0.28055 0.81942 0.00347 0.0
C899 C 0.30196 0.80484 0.0055 0.0
C900 C 0.34559 0.80541 0.00811 0.0
C901 C 0.36741 0.82027 0.00872 0.0
C902 C 0.27897 0.78889 0.00414 0.0
C903 C 0.28965 0.77564 0.98811 0.0
C904 C 0.24548 0.78692 0.01783 0.0
C905 C 0.23469 0.79977 0.03624 0.0
C906 C 0.26558 0.80611 0.05095 0.0
C907 C 0.25476 0.81738 0.06896 0.0
C908 C 0.21307 0.82231 0.07256 0.0
C909 C 0.18218 0.81613 0.05803 0.0
C910 C 0.19286 0.80493 0.03993 0.0
C911 C 0.20114 0.71362 0.99454 0.0
C912 C 0.15725 0.7146 0.99283 0.0
C913 C 0.22593 0.72791 -0.00381 0.0
C914 C 0.20737 0.74344 -0.00399 0.0
C915 C 0.1637 0.74437 0.99401 0.0
C916 C 0.139 0.73016 0.99236 0.0
C917 C 0.23293 0.75886 -0.0016 0.0
C918 C 0.22281 0.772 0.01464 0.0
C919 C 0.26694 0.76072 0.98497 0.0
C920 C 0.27838 0.74758 0.96706 0.0
C921 C 0.24862 0.74149 0.95164 0.0
C922 C 0.2595 0.72897 0.93494 0.0
C923 C 0.30017 0.72252 0.9334 0.0
C924 C 0.33007 0.72863 0.94853 0.0
C925 C 0.31932 0.74115 0.96527 0.0
H926 H 0.30853 0.71282 0.92047 0.0
H927 H 0.20475 0.83101 0.08653 0.0
H928 H 0.95248 0.47735 0.05646 0.0
H929 H 0.97113 0.50423 0.04807 0.0
H930 H 0.94127 0.48646 0.98317 0.0
H931 H 0.92399 0.45929 0.99136 0.0
H932 H 0.01548 0.50126 0.98662 0.0
H933 H 0.87879 0.51519 0.0154 0.0
H934 H 0.82269 0.51725 0.0419 0.0
H935 H 0.90105 0.54808 0.08644 0.0
H936 H 0.95786 0.54603 0.06028 0.0
H937 H 0.03212 0.57661 0.95072 0.0
H938 H 0.00353 0.55183 0.96124 0.0
H939 H 0.03839 0.57043 0.02529 0.0
H940 H 0.06693 0.59554 0.01474 0.0
H941 H 0.96177 0.55556 0.02302 0.0
H942 H 0.09842 0.54139 -0.00504 0.0
H943 H 0.15531 0.53938 0.96889 0.0
H944 H 0.07791 0.5088 0.92361 0.0
H945 H 0.0203 0.51082 0.94934 0.0
C946 C 0.94969 0.47915 0.0404 0.0
C947 C 0.93695 0.46606 0.02458 0.0
C948 C 0.95999 0.49462 0.03566 0.0
C949 C 0.95741 0.49747 0.01499 0.0
C950 C 0.94349 0.48459 -0.00076 0.0
C951 C 0.93322 0.46908 0.00398 0.0
C952 C 0.97181 0.51349 0.00962 0.0
C953 C 0.00315 0.5131 0.99434 0.0
C954 C 0.95691 0.52902 0.0202 0.0
C955 C 0.92272 0.53033 0.03593 0.0
C956 C 0.88418 0.52231 0.03089 0.0
C957 C 0.85223 0.52349 0.04584 0.0
C958 C 0.85833 0.53276 0.06585 0.0
C959 C 0.89637 0.5409 0.07094 0.0
C960 C 0.92845 0.53974 0.05605 0.0
C961 C 0.03393 0.57544 0.96704 0.0
C962 C 0.05255 0.58794 0.98185 0.0
C963 C 0.01744 0.56125 0.97305 0.0
C964 C 0.01955 0.55906 0.99399 0.0
C965 C 0.03659 0.57179 0.00902 0.0
C966 C 0.0529 0.58612 0.003 0.0
C967 C 0.005 0.54326 -0.00014 0.0
C968 C 0.97389 0.54369 0.01527 0.0
C969 C 0.02021 0.52772 0.98949 0.0
C970 C 0.05492 0.52638 0.97403 0.0
C971 C 0.09342 0.53433 0.9794 0.0
C972 C 0.12582 0.53318 0.96469 0.0
C973 C 0.1202 0.524 0.94459 0.0
C974 C 0.0822 0.51592 0.93918 0.0
C975 C 0.04968 0.51705 0.95383 0.0
H976 H 0.14531 0.52313 0.93322 0.0
H977 H 0.83356 0.53366 0.07741 0.0
H978 H 0.11451 0.55174 0.27613 0.0
H979 H 0.15497 0.52629 0.27267 0.0
H980 H 0.26066 0.55065 0.24996 0.0
H981 H 0.21957 0.57606 0.25242 0.0
H982 H 0.24913 0.52177 0.22594 0.0
H983 H 0.26031 0.53952 0.30009 0.0
H984 H 0.23499 0.54949 0.33609 0.0
H985 H 0.1595 0.50586 0.33294 0.0
H986 H 0.18409 0.49571 0.29687 0.0
H987 H 0.39752 0.45856 0.23348 0.0
H988 H 0.35772 0.48436 0.23824 0.0
H989 H 0.24821 0.45876 0.25484 0.0
H990 H 0.28835 0.43282 0.2504 0.0
H991 H 0.26193 0.48813 0.28202 0.0
H992 H 0.25485 0.4701 0.20765 0.0
H993 H 0.28315 0.46044 0.17217 0.0
H994 H 0.35429 0.50525 0.1763 0.0
H995 H 0.32695 0.51507 0.21192 0.0
C996 C 0.14627 0.55177 0.27032 0.0
C997 C 0.16337 0.56605 0.26433 0.0
C998 C 0.16968 0.53717 0.26861 0.0
C999 C 0.21111 0.53649 0.26119 0.0
C1000 C 0.22875 0.55082 0.25571 0.0
C1001 C 0.20523 0.56544 0.25731 0.0
C1002 C 0.23505 0.52059 0.25812 0.0
C1003 C 0.2525 0.51457 0.23834 0.0
C1004 C 0.23864 0.5109 0.27407 0.0
C1005 C 0.22366 0.51697 0.29571 0.0
C1006 C 0.238 0.53214 0.30702 0.0
C1007 C 0.22386 0.5378 0.32744 0.0
C1008 C 0.19551 0.52835 0.33675 0.0
C1009 C 0.18138 0.51318 0.32569 0.0
C1010 C 0.19547 0.50746 0.30528 0.0
C1011 C 0.36501 0.4584 0.23819 0.0
C1012 C 0.34617 0.44361 0.24161 0.0
C1013 C 0.34216 0.47316 0.24075 0.0
C1014 C 0.29985 0.47352 0.24676 0.0
C1015 C 0.2808 0.45878 0.25014 0.0
C1016 C 0.30365 0.44394 0.24744 0.0
C1017 C 0.276 0.48938 0.2499 0.0
C1018 C 0.25855 0.49537 0.26967 0.0
C1019 C 0.27275 0.49911 0.23399 0.0
C1020 C 0.28912 0.49325 0.21253 0.0
C1021 C 0.27678 0.47783 0.20105 0.0
C1022 C 0.2926 0.47234 0.18091 0.0
C1023 C 0.32054 0.48221 0.17201 0.0
C1024 C 0.33267 0.49761 0.18322 0.0
C1025 C 0.317 0.50315 0.20338 0.0
H1026 H 0.33274 0.47793 0.15642 0.0
H1027 H 0.1846 0.53275 0.35256 0.0
H1028 H 0.7126 0.20346 0.96851 0.0
H1029 H 0.75072 0.22959 0.97044 0.0
H1030 H 0.66147 0.25383 0.01575 0.0
H1031 H 0.62342 0.22788 0.01386 0.0
H1032 H 0.67586 0.27244 0.98724 0.0
H1033 H 0.76161 0.24364 0.02986 0.0
H1034 H 0.80366 0.22029 0.03776 0.0
H1035 H 0.88817 0.225 0.98762 0.0
H1036 H 0.84629 0.24825 0.97924 0.0
H1037 H 0.78963 0.34753 0.01773 0.0
H1038 H 0.7555 0.32098 0.01923 0.0
H1039 H 0.84055 0.29624 0.9723 0.0
H1040 H 0.87619 0.32225 0.97151 0.0
H1041 H 0.82807 0.27807 0.00221 0.0
H1042 H 0.74282 0.30744 0.96021 0.0
H1043 H 0.7004 0.33066 0.95231 0.0
H1044 H 0.61347 0.32454 0.0009 0.0
H1045 H 0.65613 0.30163 0.00958 0.0
C1046 C 0.70136 0.21431 0.97903 0.0
C1047 C 0.66476 0.21353 0.99094 0.0
C1048 C 0.72318 0.22927 0.98013 0.0
C1049 C 0.70917 0.24374 0.99335 0.0
C1050 C 0.67285 0.24292 0.00534 0.0
C1051 C 0.65099 0.22803 0.00419 0.0
C1052 C 0.73169 0.25982 0.99447 0.0
C1053 C 0.70902 0.27372 0.99083 0.0
C1054 C 0.77518 0.26147 -0.00131 0.0
C1055 C 0.80059 0.24758 0.0038 0.0
C1056 C 0.789 0.23962 0.02043 0.0
C1057 C 0.81282 0.22641 0.02501 0.0
C1058 C 0.8485 0.22114 0.01317 0.0
C1059 C 0.8605 0.22909 -0.00324 0.0
C1060 C 0.83675 0.24229 0.9921 0.0
C1061 C 0.80141 0.33644 0.0079 0.0
C1062 C 0.83547 0.33723 0.9943 0.0
C1063 C 0.78152 0.3213 0.00861 0.0
C1064 C 0.79479 0.30667 -0.00446 0.0
C1065 C 0.82944 0.30735 0.98243 0.0
C1066 C 0.84953 0.32238 0.98183 0.0
C1067 C 0.77217 0.29071 -0.00493 0.0
C1068 C 0.79485 0.27682 -0.00125 0.0
C1069 C 0.72863 0.28907 0.9909 0.0
C1070 C 0.70305 0.30294 0.98575 0.0
C1071 C 0.71498 0.31118 0.96941 0.0
C1072 C 0.69086 0.32429 0.96478 0.0
C1073 C 0.65435 0.32912 0.97615 0.0
C1074 C 0.64182 0.32081 0.99214 0.0
C1075 C 0.66604 0.3078 -0.00303 0.0
H1076 H 0.6357 0.33926 0.97254 0.0
H1077 H 0.8669 0.21091 0.01673 0.0
H1078 H 0.58803 0.55382 0.73944 0.0
H1079 H 0.62622 0.52797 0.7389 0.0
H1080 H 0.74346 0.55425 0.74053 0.0
H1081 H 0.70529 0.58021 0.74065 0.0
H1082 H 0.7445 0.52521 0.71173 0.0
H1083 H 0.70713 0.54229 0.78404 0.0
H1084 H 0.65901 0.55142 0.8136 0.0
H1085 H 0.58888 0.50635 0.79746 0.0
H1086 H 0.63625 0.49705 0.7676 0.0
H1087 H 0.87667 0.46286 0.73875 0.0
H1088 H 0.83786 0.48835 0.73801 0.0
H1089 H 0.72127 0.46203 0.73938 0.0
H1090 H 0.76002 0.4365 0.74078 0.0
H1091 H 0.71925 0.49096 0.76627 0.0
H1092 H 0.7559 0.4736 0.69424 0.0
H1093 H 0.80289 0.46434 0.66423 0.0
H1094 H 0.87307 0.50948 0.67925 0.0
H1095 H 0.82679 0.51895 0.7095 0.0
C1096 C 0.62193 0.55413 0.73952 0.0
C1097 C 0.64355 0.56914 0.74009 0.0
C1098 C 0.64375 0.53933 0.73939 0.0
C1099 C 0.68774 0.53917 0.73986 0.0
C1100 C 0.70951 0.55408 0.74021 0.0
C1101 C 0.68765 0.56894 0.74045 0.0
C1102 C 0.71084 0.52341 0.74 0.0
C1103 C 0.73943 0.51783 0.72381 0.0
C1104 C 0.70338 0.51353 0.75544 0.0
C1105 C 0.675 0.51905 0.77346 0.0
C1106 C 0.68125 0.53438 0.78669 0.0
C1107 C 0.65415 0.53958 0.80352 0.0
C1108 C 0.62084 0.52949 0.80738 0.0
C1109 C 0.61466 0.51416 0.79444 0.0
C1110 C 0.64165 0.50892 0.77757 0.0
C1111 C 0.8428 0.46246 0.73904 0.0
C1112 C 0.82158 0.44756 0.73987 0.0
C1113 C 0.82058 0.47705 0.73838 0.0
C1114 C 0.77658 0.47711 0.73841 0.0
C1115 C 0.75521 0.46229 0.73927 0.0
C1116 C 0.77745 0.44765 0.7399 0.0
C1117 C 0.75302 0.49274 0.738 0.0
C1118 C 0.72432 0.49831 0.75415 0.0
C1119 C 0.76024 0.50256 0.72247 0.0
C1120 C 0.7881 0.49692 0.70426 0.0
C1121 C 0.78155 0.4815 0.69125 0.0
C1122 C 0.80801 0.47622 0.67417 0.0
C1123 C 0.84101 0.48629 0.66988 0.0
C1124 C 0.84753 0.50168 0.68261 0.0
C1125 C 0.82115 0.50702 0.69971 0.0
H1126 H 0.86146 0.48218 0.65666 0.0
H1127 H 0.59989 0.53354 0.82041 0.0
H1128 H 0.64252 0.07312 0.00118 0.0
H1129 H 0.6055 0.0479 0.00497 0.0
H1130 H 0.49691 0.06445 0.97494 0.0
H1131 H 0.53406 0.08981 0.97091 0.0
H1132 H 0.47496 0.05158 0.00899 0.0
H1133 H 0.56131 0.0346 0.94855 0.0
H1134 H 0.62708 0.0314 0.92824 0.0
H1135 H 0.67988 1.00282 0.97119 0.0
H1136 H 0.61459 1.00604 0.99193 0.0
H1137 H 0.36838 0.97482 0.98992 0.0
H1138 H 0.40546 0.99998 0.98588 0.0
H1139 H 0.51423 0.98349 0.01583 0.0
H1140 H 0.47704 0.95818 0.02007 0.0
H1141 H 0.53604 0.99632 0.98176 0.0
H1142 H 0.44974 1.01335 0.04224 0.0
H1143 H 0.38392 0.01651 0.06251 0.0
H1144 H 0.33102 0.045 0.01948 0.0
H1145 H 0.39635 0.04181 -0.00124 0.0
C1146 C 0.61096 0.07139 -0.00487 0.0
C1147 C 0.59151 0.08352 0.98552 0.0
C1148 C 0.58974 0.05692 -0.00263 0.0
C1149 C 0.54859 0.05411 0.98997 0.0
C1150 C 0.52869 0.0663 0.98074 0.0
C1151 C 0.54994 0.08083 0.97849 0.0
C1152 C 0.52643 0.0385 0.99202 0.0
C1153 C 0.48803 0.0395 0.00275 0.0
C1154 C 0.54392 0.0227 0.98438 0.0
C1155 C 0.58319 0.0207 0.97191 0.0
C1156 C 0.58706 0.02774 0.95376 0.0
C1157 C 0.62424 0.02591 0.94215 0.0
C1158 C 0.65768 0.01695 0.94845 0.0
C1159 C 0.65397 1.00977 0.96634 0.0
C1160 C 0.61687 1.01159 0.97802 0.0
C1161 C 0.40001 0.97655 -0.00412 0.0
C1162 C 0.41949 0.96447 0.00554 0.0
C1163 C 0.42126 0.99099 0.9935 0.0
C1164 C 0.46246 0.9938 0.00083 0.0
C1165 C 0.48241 0.98163 0.01009 0.0
C1166 C 0.46114 0.96713 0.01246 0.0
C1167 C 0.48458 1.00941 -0.00127 0.0
C1168 C 0.52297 1.0084 0.98799 0.0
C1169 C 0.46708 0.02521 0.00637 0.0
C1170 C 0.42781 0.0272 0.01884 0.0
C1171 C 0.42396 0.02018 0.037 0.0
C1172 C 0.38676 0.022 0.04859 0.0
C1173 C 0.35328 0.03091 0.04226 0.0
C1174 C 0.35697 0.03807 0.02435 0.0
C1175 C 0.39409 0.03628 0.01269 0.0
H1176 H 0.3245 0.03231 0.05125 0.0
H1177 H 0.68643 0.01554 0.93944 0.0
H1178 H 0.49239 0.32226 0.22089 0.0
H1179 H 0.53057 0.29799 0.2286 0.0
H1180 H 0.41675 0.28003 0.2526 0.0
H1181 H 0.37899 0.30416 0.24531 0.0
H1182 H 0.4827 0.27762 0.27813 0.0
H1183 H 0.45231 0.26438 0.20369 0.0
H1184 H 0.45578 0.26891 0.16716 0.0
H1185 H 0.59018 0.26658 0.16881 0.0
H1186 H 0.58749 0.26225 0.20547 0.0
H1187 H 0.48845 0.19263 0.27229 0.0
H1188 H 0.47568 0.22041 0.26598 0.0
H1189 H 0.60548 0.22493 0.24945 0.0
H1190 H 0.61914 0.19691 0.25633 0.0
H1191 H 0.54776 0.23664 0.22169 0.0
H1192 H 0.57672 0.24529 0.29464 0.0
H1193 H 0.57205 0.24003 0.33081 0.0
H1194 H 0.4403 0.2509 0.33206 0.0
H1195 H 0.44402 0.25597 0.29577 0.0
C1196 C 0.47571 0.31317 0.22795 0.0
C1197 C 0.43258 0.31507 0.23231 0.0
C1198 C 0.49745 0.29928 0.23222 0.0
C1199 C 0.47644 0.28712 0.24105 0.0
C1200 C 0.43364 0.28921 0.24577 0.0
C1201 C 0.41195 0.30297 0.2414 0.0
C1202 C 0.49829 0.27206 0.24534 0.0
C1203 C 0.49691 0.26866 0.26578 0.0
C1204 C 0.51814 0.26061 0.22939 0.0
C1205 C 0.51973 0.26322 0.20739 0.0
C1206 C 0.48261 0.26499 0.19632 0.0
C1207 C 0.48443 0.26749 0.17559 0.0
C1208 C 0.52318 0.26809 0.1657 0.0
C1209 C 0.56019 0.26615 0.17651 0.0
C1210 C 0.55854 0.26367 0.19726 0.0
C1211 C 0.5147 0.19948 0.26766 0.0
C1212 C 0.55512 0.19248 0.26522 0.0
C1213 C 0.50717 0.21542 0.26391 0.0
C1214 C 0.53971 0.22486 0.25756 0.0
C1215 C 0.57994 0.21787 0.25446 0.0
C1216 C 0.58765 0.20184 0.25835 0.0
C1217 C 0.53076 0.242 0.25432 0.0
C1218 C 0.53451 0.24578 0.23414 0.0
C1219 C 0.51304 0.25385 0.2705 0.0
C1220 C 0.51063 0.25093 0.29242 0.0
C1221 C 0.54668 0.24645 0.30257 0.0
C1222 C 0.54422 0.24352 0.3231 0.0
C1223 C 0.5059 0.24511 0.33371 0.0
C1224 C 0.46997 0.24967 0.32382 0.0
C1225 C 0.47226 0.2526 0.30327 0.0
H1226 H 0.50405 0.24283 0.34961 0.0
H1227 H 0.52452 0.27002 0.14964 0.0
H1228 H 0.45835 0.83089 0.74697 0.0
H1229 H 0.48652 0.80528 0.75556 0.0
H1230 H 0.41262 0.77691 0.70626 0.0
H1231 H 0.38304 0.80243 0.69809 0.0
H1232 H 0.41079 0.76275 0.73998 0.0
H1233 H 0.51788 0.7835 0.69983 0.0
H1234 H 0.56736 0.80414 0.69065 0.0
H1235 H 0.6294 0.80662 0.74981 0.0
H1236 H 0.5799 0.78615 0.75947 0.0
H1237 H 0.52443 0.68674 0.73319 0.0
H1238 H 0.49118 0.71197 0.72592 0.0
H1239 H 0.56151 0.741 0.77615 0.0
H1240 H 0.59463 0.71584 0.78356 0.0
H1241 H 0.56476 0.7546 0.74155 0.0
H1242 H 0.45669 0.73335 0.78128 0.0
H1243 H 0.40748 0.71226 0.78951 0.0
H1244 H 0.34765 0.7102 0.72986 0.0
H1245 H 0.3969 0.73112 0.72115 0.0
C1246 C 0.4476 0.81924 0.73809 0.0
C1247 C 0.41851 0.81882 0.7217 0.0
C1248 C 0.46412 0.80456 0.7429 0.0
C1249 C 0.45223 0.78913 0.73135 0.0
C1250 C 0.42249 0.78864 0.71533 0.0
C1251 C 0.40587 0.8033 0.71055 0.0
C1252 C 0.47108 0.77351 0.73579 0.0
C1253 C 0.44445 0.7609 0.74007 0.0
C1254 C 0.51503 0.77113 0.73624 0.0
C1255 C 0.54491 0.78342 0.73046 0.0
C1256 C 0.54187 0.78854 0.71095 0.0
C1257 C 0.56995 0.8002 0.70565 0.0
C1258 C 0.60143 0.80672 0.71966 0.0
C1259 C 0.60496 0.80157 0.73899 0.0
C1260 C 0.57692 0.78994 0.74438 0.0
C1261 C 0.53237 0.69844 0.74291 0.0
C1262 C 0.56228 0.69923 0.75898 0.0
C1263 C 0.51339 0.71289 0.73869 0.0
C1264 C 0.52365 0.72841 0.75056 0.0
C1265 C 0.5532 0.7292 0.76671 0.0
C1266 C 0.57219 0.71479 0.77091 0.0
C1267 C 0.5045 0.7439 0.74589 0.0
C1268 C 0.53109 0.75647 0.7415 0.0
C1269 C 0.46055 0.74618 0.74522 0.0
C1270 C 0.43074 0.73369 0.75049 0.0
C1271 C 0.43323 0.72831 0.76986 0.0
C1272 C 0.4053 0.7164 0.77462 0.0
C1273 C 0.37453 0.70986 0.7602 0.0
C1274 C 0.37154 0.71526 0.74101 0.0
C1275 C 0.39943 0.72715 0.73616 0.0
H1276 H 0.35294 0.70064 0.76391 0.0
H1277 H 0.62315 0.81574 0.71553 0.0
H1278 H 0.52415 0.58627 0.47975 0.0
H1279 H 0.48543 0.56149 0.48429 0.0
H1280 H 0.5905 0.54527 0.51717 0.0
H1281 H 0.62912 0.5701 0.51316 0.0
H1282 H 0.55846 0.52017 0.48777 0.0
H1283 H 0.50622 0.56136 0.54401 0.0
H1284 H 0.4746 0.58813 0.55967 0.0
H1285 H 0.36381 0.57607 0.5226 0.0
H1286 H 0.39503 0.54931 0.50649 0.0
H1287 H 0.45619 0.45579 0.52859 0.0
H1288 H 0.4951 0.48077 0.52477 0.0
H1289 H 0.38648 0.49944 0.49692 0.0
H1290 H 0.34748 0.47462 0.50085 0.0
H1291 H 0.4207 0.52341 0.52381 0.0
H1292 H 0.47181 0.48259 0.46726 0.0
H1293 H 0.50281 0.45591 0.45078 0.0
H1294 H 0.61477 0.46726 0.48715 0.0
H1295 H 0.58418 0.49393 0.50407 0.0
C1296 C 0.53896 0.57758 0.48818 0.0
C1297 C 0.57993 0.58034 0.49611 0.0
C1298 C 0.51677 0.56335 0.49069 0.0
C1299 C 0.53497 0.55155 0.50118 0.0
C1300 C 0.57587 0.55416 0.50895 0.0
C1301 C 0.598 0.56841 0.50656 0.0
C1302 C 0.51149 0.53645 0.50402 0.0
C1303 C 0.52858 0.52087 0.49589 0.0
C1304 C 0.47204 0.53735 0.51416 0.0
C1305 C 0.45314 0.5534 0.52389 0.0
C1306 C 0.47525 0.56447 0.53907 0.0
C1307 C 0.45738 0.57963 0.54805 0.0
C1308 C 0.41727 0.58382 0.54209 0.0
C1309 C 0.3949 0.57283 0.52718 0.0
C1310 C 0.41266 0.55765 0.51813 0.0
C1311 C 0.4407 0.46518 0.52154 0.0
C1312 C 0.3987 0.46317 0.51502 0.0
C1313 C 0.46298 0.47946 0.51935 0.0
C1314 C 0.44393 0.49196 0.51033 0.0
C1315 C 0.40189 0.49003 0.50398 0.0
C1316 C 0.37955 0.47582 0.50629 0.0
C1317 C 0.4676 0.50706 0.50754 0.0
C1318 C 0.45056 0.52268 0.51568 0.0
C1319 C 0.50699 0.50618 0.49728 0.0
C1320 C 0.52553 0.49018 0.48708 0.0
C1321 C 0.50291 0.47934 0.47186 0.0
C1322 C 0.52043 0.46423 0.46242 0.0
C1323 C 0.56069 0.45988 0.46796 0.0
C1324 C 0.58356 0.47065 0.4829 0.0
C1325 C 0.56616 0.48577 0.49241 0.0
H1326 H 0.5742 0.44817 0.46063 0.0
H1327 H 0.40348 0.59556 0.54907 0.0
H1328 H 0.18711 0.12213 0.3982 0.0
H1329 H 0.2523 0.11716 0.37846 0.0
H1330 H 0.32309 0.12995 0.43571 0.0
H1331 H 0.25743 0.13568 0.4555 0.0
H1332 H 0.36187 0.14109 0.40551 0.0
H1333 H 0.30565 0.0889 0.41274 0.0
H1334 H 0.25168 0.06729 0.41161 0.0
H1335 H 0.24008 0.06413 0.3451 0.0
H1336 H 0.29353 0.08591 0.34586 0.0
H1337 H 0.54201 0.10469 0.34852 0.0
H1338 H 0.48505 0.10631 0.37409 0.0
H1339 H 0.39495 0.10939 0.32551 0.0
H1340 H 0.45118 0.10883 0.30015 0.0
H1341 H 0.37265 0.0878 0.35575 0.0
H1342 H 0.42317 0.1433 0.35115 0.0
H1343 H 0.47876 0.16437 0.35317 0.0
H1344 H 0.50378 0.15977 0.41689 0.0
H1345 H 0.44874 0.13845 0.41511 0.0
C1346 C 0.2166 0.12407 0.40654 0.0
C1347 C 0.21738 0.12914 0.42835 0.0
C1348 C 0.25383 0.1211 0.39528 0.0
C1349 C 0.29257 0.12264 0.40569 0.0
C1350 C 0.29353 0.12851 0.42739 0.0
C1351 C 0.25611 0.13182 0.43866 0.0
C1352 C 0.33168 0.11781 0.39376 0.0
C1353 C 0.36453 0.12929 0.39498 0.0
C1354 C 0.3353 0.10239 0.37998 0.0
C1355 C 0.30347 0.08912 0.37939 0.0
C1356 C 0.29144 0.08366 0.39788 0.0
C1357 C 0.26094 0.07138 0.39731 0.0
C1358 C 0.24243 0.06436 0.3783 0.0
C1359 C 0.25445 0.06958 0.35982 0.0
C1360 C 0.2849 0.08188 0.3603 0.0
C1361 C 0.51011 0.10567 0.3432 0.0
C1362 C 0.50149 0.10681 0.3222 0.0
C1363 C 0.47764 0.10646 0.35783 0.0
C1364 C 0.43601 0.10807 0.35162 0.0
C1365 C 0.42697 0.10806 0.33052 0.0
C1366 C 0.45934 0.1076 0.31599 0.0
C1367 C 0.40191 0.11123 0.36721 0.0
C1368 C 0.37012 0.09942 0.36665 0.0
C1369 C 0.39956 0.12621 0.38179 0.0
C1370 C 0.43226 0.13914 0.38291 0.0
C1371 C 0.4408 0.14667 0.36552 0.0
C1372 C 0.47215 0.15868 0.36663 0.0
C1373 C 0.49489 0.16337 0.38513 0.0
C1374 C 0.48621 0.1561 0.40256 0.0
C1375 C 0.45495 0.14406 0.40151 0.0
H1376 H 0.51914 0.17267 0.38596 0.0
H1377 H 0.2188 0.05485 0.37789 0.0
H1378 H 0.74871 0.13272 0.27693 0.0
H1379 H 0.81271 0.13186 0.29754 0.0
H1380 H 0.75433 0.16369 0.34988 0.0
H1381 H 0.69165 0.16538 0.32896 0.0
H1382 H 0.83052 0.1724 0.34804 0.0
H1383 H 0.76174 0.11934 0.34426 0.0
H1384 H 0.73038 0.09379 0.32456 0.0
H1385 H 0.84868 0.08012 0.29487 0.0
H1386 H 0.88066 0.10573 0.31417 0.0
H1387 H 0.94204 0.1535 0.43454 0.0
H1388 H 0.88708 0.15413 0.4084 0.0
H1389 H 0.97169 0.13183 0.35953 0.0
H1390 H 0.02691 0.13111 0.38566 0.0
H1391 H 0.88856 0.11794 0.3568 0.0
H1392 H 0.9576 0.17072 0.36393 0.0
H1393 H 0.98631 0.19679 0.38357 0.0
H1394 H 0.86406 0.21083 0.40831 0.0
H1395 H 0.83472 0.18471 0.38907 0.0
C1396 C 0.74985 0.13963 0.29278 0.0
C1397 C 0.71532 0.14909 0.3014 0.0
C1398 C 0.78627 0.13906 0.30459 0.0
C1399 C 0.78809 0.14744 0.32544 0.0
C1400 C 0.75378 0.15713 0.33385 0.0
C1401 C 0.7179 0.15806 0.32189 0.0
C1402 C 0.82507 0.14593 0.33885 0.0
C1403 C 0.84288 0.16047 0.35006 0.0
C1404 C 0.84198 0.13037 0.34116 0.0
C1405 C 0.82345 0.11454 0.33048 0.0
C1406 C 0.78106 0.1109 0.33351 0.0
C1407 C 0.76316 0.09643 0.32238 0.0
C1408 C 0.78746 0.08544 0.30834 0.0
C1409 C 0.82988 0.08873 0.30565 0.0
C1410 C 0.84792 0.1032 0.31671 0.0
C1411 C 0.94879 0.14859 0.41825 0.0
C1412 C 0.98871 0.1423 0.41209 0.0
C1413 C 0.91749 0.14902 0.40336 0.0
C1414 C 0.92553 0.14311 0.38208 0.0
C1415 C 0.965 0.13645 0.3759 0.0
C1416 C 0.9965 0.13617 0.39078 0.0
C1417 C 0.89292 0.14439 0.36628 0.0
C1418 C 0.87616 0.12982 0.35462 0.0
C1419 C 0.87653 0.15991 0.36375 0.0
C1420 C 0.89404 0.1757 0.37519 0.0
C1421 C 0.93689 0.17931 0.37369 0.0
C1422 C 0.95327 0.19411 0.38473 0.0
C1423 C 0.92704 0.20544 0.39722 0.0
C1424 C 0.88435 0.20203 0.39865 0.0
C1425 C 0.86782 0.18724 0.38766 0.0
H1426 H 0.93978 0.21689 0.40575 0.0
H1427 H 0.77346 0.07435 0.29961 0.0
H1428 H 0.19104 0.16339 0.83033 0.0
H1429 H 0.25264 0.16195 0.852 0.0
H1430 H 0.31311 0.12945 0.80101 0.0
H1431 H 0.2506 0.13043 0.77928 0.0
H1432 H 0.32699 0.11911 0.83684 0.0
H1433 H 0.34009 0.17062 0.81344 0.0
H1434 H 0.31746 0.19785 0.80646 0.0
H1435 H 0.29829 0.21494 0.87226 0.0
H1436 H 0.32023 0.18774 0.87962 0.0
H1437 H 0.52645 0.13261 0.88932 0.0
H1438 H 0.47038 0.132 0.86332 0.0
H1439 H 0.38831 0.15784 0.91111 0.0
H1440 H 0.44409 0.15846 0.93713 0.0
H1441 H 0.39104 0.17126 0.87381 0.0
H1442 H 0.3744 0.11843 0.8961 0.0
H1443 H 0.39845 0.09114 0.90225 0.0
H1444 H 0.42745 0.07675 0.83691 0.0
H1445 H 0.40413 0.10406 0.83043 0.0
C1446 C 0.21741 0.15594 0.82367 0.0
C1447 C 0.21616 0.14715 0.80303 0.0
C1448 C 0.25271 0.15519 0.83607 0.0
C1449 C 0.28785 0.1459 0.82798 0.0
C1450 C 0.28642 0.13679 0.80751 0.0
C1451 C 0.25077 0.13738 0.79512 0.0
C1452 C 0.3258 0.14576 0.84109 0.0
C1453 C 0.34149 0.13051 0.84461 0.0
C1454 C 0.34448 0.16064 0.85139 0.0
C1455 C 0.33154 0.17708 0.84706 0.0
C1456 C 0.33079 0.18015 0.82641 0.0
C1457 C 0.31812 0.19559 0.82239 0.0
C1458 C 0.30637 0.20811 0.8389 0.0
C1459 C 0.30738 0.20523 0.85948 0.0
C1460 C 0.31998 0.18981 0.86359 0.0
C1461 C 0.49642 0.13816 0.89422 0.0
C1462 C 0.48945 0.14553 0.9152 0.0
C1463 C 0.46447 0.13773 0.87942 0.0
C1464 C 0.42529 0.14481 0.88538 0.0
C1465 C 0.41839 0.15229 0.90627 0.0
C1466 C 0.4501 0.15254 0.92111 0.0
C1467 C 0.39147 0.14468 0.86983 0.0
C1468 C 0.37672 0.15989 0.86583 0.0
C1469 C 0.37405 0.12978 0.85894 0.0
C1470 C 0.38801 0.11336 0.86282 0.0
C1471 C 0.38629 0.10951 0.88308 0.0
C1472 C 0.39971 0.09402 0.88661 0.0
C1473 C 0.4146 0.08224 0.86999 0.0
C1474 C 0.41599 0.0859 0.84978 0.0
C1475 C 0.40266 0.10138 0.84616 0.0
H1476 H 0.42495 0.07026 0.87276 0.0
H1477 H 0.29656 0.22005 0.83576 0.0
H1478 H 0.0259 0.15293 0.84415 0.0
H1479 H 0.97013 0.15535 0.87045 0.0
H1480 H 0.88458 0.1306 0.82365 0.0
H1481 H 0.94002 0.12846 0.79726 0.0
H1482 H 0.84686 0.1558 0.84686 0.0
H1483 H 0.93235 0.1105 0.86028 0.0
H1484 H 0.99789 0.0968 0.86795 0.0
H1485 H 0.01129 0.13149 0.92544 0.0
H1486 H 0.94607 0.14554 0.91796 0.0
H1487 H 0.6952 0.1224 0.906 0.0
H1488 H 0.75513 0.1259 0.8839 0.0
H1489 H 0.81158 0.15965 0.93479 0.0
H1490 H 0.75103 0.15638 0.95716 0.0
H1491 H 0.86607 0.13337 0.91239 0.0
H1492 H 0.77388 0.17654 0.89949 0.0
H1493 H 0.70605 0.18829 0.8913 0.0
H1494 H 0.70327 0.15544 0.83192 0.0
H1495 H 0.77079 0.14329 0.83989 0.0
C1496 C 0.99519 0.14797 0.83954 0.0
C1497 C 0.98726 0.14046 0.81871 0.0
C1498 C 0.9634 0.14935 0.85455 0.0
C1499 C 0.92331 0.14298 0.84908 0.0
C1500 C 0.91524 0.13564 0.82822 0.0
C1501 C 0.9469 0.13442 0.81316 0.0
C1502 C 0.88973 0.1438 0.86504 0.0
C1503 C 0.85103 0.1508 0.86111 0.0
C1504 C 0.89546 0.13764 0.8839 0.0
C1505 C 0.93462 0.12919 0.88844 0.0
C1506 C 0.94946 0.11529 0.87448 0.0
C1507 C 0.98651 0.10745 0.8788 0.0
C1508 C 0.00881 0.1133 0.89714 0.0
C1509 C 0.99403 0.12699 0.91122 0.0
C1510 C 0.95701 0.13489 0.90695 0.0
C1511 C 0.72032 0.13056 0.91257 0.0
C1512 C 0.71844 0.13912 0.93333 0.0
C1513 C 0.75445 0.13258 0.89988 0.0
C1514 C 0.78749 0.1431 0.90772 0.0
C1515 C 0.7862 0.1515 0.92852 0.0
C1516 C 0.75165 0.14965 0.94121 0.0
C1517 C 0.82328 0.14508 0.89395 0.0
C1518 C 0.86228 0.1386 0.89828 0.0
C1519 C 0.8177 0.15151 0.87533 0.0
C1520 C 0.77729 0.15892 0.87036 0.0
C1521 C 0.75867 0.17173 0.88475 0.0
C1522 C 0.72029 0.17848 0.88014 0.0
C1523 C 0.70033 0.1726 0.86112 0.0
C1524 C 0.71876 0.15998 0.84665 0.0
C1525 C 0.75712 0.15317 0.8512 0.0
H1526 H 0.67061 0.17784 0.85758 0.0
H1527 H 0.03749 0.10721 0.90046 0.0
H1528 H 0.46953 0.87867 0.63189 0.0
H1529 H 0.52397 0.88074 0.60566 0.0
H1530 H 0.59876 0.91094 0.65305 0.0
H1531 H 0.54474 0.90886 0.67923 0.0
H1532 H 0.59476 0.92283 0.61489 0.0
H1533 H 0.62004 0.87175 0.64074 0.0
H1534 H 0.6014 0.8441 0.64769 0.0
H1535 H 0.58111 0.82696 0.58201 0.0
H1536 H 0.59894 0.85463 0.57471 0.0
H1537 H 0.8027 0.91961 0.58155 0.0
H1538 H 0.73699 0.91729 0.59988 0.0
H1539 H 0.69143 0.88211 0.54726 0.0
H1540 H 0.75792 0.88406 0.5289 0.0
H1541 H 0.67295 0.87228 0.58304 0.0
H1542 H 0.65555 0.92216 0.55636 0.0
H1543 H 0.67486 0.94963 0.54901 0.0
H1544 H 0.67935 0.96901 0.61493 0.0
H1545 H 0.66067 0.94159 0.62271 0.0
C1546 C 0.49742 0.88589 0.63658 0.0
C1547 C 0.50319 0.89353 0.65755 0.0
C1548 C 0.52845 0.887 0.62167 0.0
C1549 C 0.56538 0.89591 0.62751 0.0
C1550 C 0.57046 0.90401 0.64827 0.0
C1551 C 0.53977 0.90274 0.6632 0.0
C1552 C 0.59967 0.8964 0.61232 0.0
C1553 C 0.612 0.91181 0.60795 0.0
C1554 C 0.62115 0.88192 0.6028 0.0
C1555 C 0.6102 0.86533 0.60722 0.0
C1556 C 0.61112 0.86215 0.6278 0.0
C1557 C 0.6008 0.84646 0.6318 0.0
C1558 C 0.58991 0.8338 0.61531 0.0
C1559 C 0.58942 0.83679 0.59477 0.0
C1560 C 0.59961 0.85248 0.5907 0.0
C1561 C 0.77875 0.91138 0.57382 0.0
C1562 C 0.7854 0.9021 0.55372 0.0
C1563 C 0.74106 0.91014 0.58428 0.0
C1564 C 0.70895 0.8998 0.57475 0.0
C1565 C 0.71571 0.89027 0.55482 0.0
C1566 C 0.75366 0.8914 0.54437 0.0
C1567 C 0.66882 0.8988 0.58597 0.0
C1568 C 0.65532 0.8833 0.58961 0.0
C1569 C 0.64604 0.9132 0.5947 0.0
C1570 C 0.65693 0.92978 0.59011 0.0
C1571 C 0.6609 0.93225 0.5693 0.0
C1572 C 0.67171 0.94782 0.56505 0.0
C1573 C 0.67839 0.96105 0.58149 0.0
C1574 C 0.67417 0.95875 0.60221 0.0
C1575 C 0.66341 0.9432 0.60655 0.0
H1576 H 0.68677 0.97309 0.57817 0.0
H1577 H 0.58198 0.82165 0.61843 0.0
H1578 H 0.24039 0.8528 0.69361 0.0
H1579 H 0.18799 0.85568 0.66704 0.0
H1580 H 0.22483 0.90661 0.66961 0.0
H1581 H 0.27886 0.90346 0.69521 0.0
H1582 H 0.12215 0.87255 0.66523 0.0
H1583 H 0.21362 0.91852 0.62345 0.0
H1584 H 0.28706 0.92569 0.61716 0.0
H1585 H 0.32611 0.87663 0.6229 0.0
H1586 H 0.25286 0.86909 0.62889 0.0
H1587 H 0.98217 0.90489 0.5995 0.0
H1588 H 0.0363 0.90231 0.6254 0.0
H1589 H 0.1157 0.87623 0.57646 0.0
H1590 H 0.06205 0.87926 0.55045 0.0
H1591 H 0.16149 0.8961 0.60259 0.0
H1592 H 0.05814 0.85556 0.60902 0.0
H1593 H 0.98725 0.8447 0.61333 0.0
H1594 H 0.97675 0.87582 0.67373 0.0
H1595 H 0.04739 0.88705 0.66965 0.0
C1596 C 0.23717 0.86462 0.68853 0.0
C1597 C 0.26381 0.87788 0.69634 0.0
C1598 C 0.2072 0.86626 0.67337 0.0
C1599 C 0.20293 0.88127 0.66601 0.0
C1600 C 0.22829 0.89476 0.67457 0.0
C1601 C 0.25895 0.89299 0.68932 0.0
C1602 C 0.17231 0.88273 0.64923 0.0
C1603 C 0.13081 0.8777 0.65154 0.0
C1604 C 0.18375 0.88905 0.63106 0.0
C1605 C 0.22777 0.8933 0.62681 0.0
C1606 C 0.23784 0.90923 0.62323 0.0
C1607 C 0.27944 0.91337 0.61974 0.0
C1608 C 0.31124 0.90164 0.61969 0.0
C1609 C 0.30147 0.88572 0.623 0.0
C1610 C 0.25991 0.88151 0.62644 0.0
C1611 C 0.01128 0.89867 0.59431 0.0
C1612 C 0.01796 0.89221 0.57304 0.0
C1613 C 0.0421 0.89715 0.60909 0.0
C1614 C 0.07976 0.88881 0.60292 0.0
C1615 C 0.0869 0.88271 0.58158 0.0
C1616 C 0.05629 0.88444 0.56675 0.0
C1617 C 0.11128 0.88614 0.61878 0.0
C1618 C 0.15291 0.89095 0.61628 0.0
C1619 C 0.10035 0.87901 0.63637 0.0
C1620 C 0.0579 0.87225 0.63894 0.0
C1621 C 0.04059 0.86017 0.62316 0.0
C1622 C 0.00048 0.85394 0.62556 0.0
C1623 C 0.97747 0.85959 0.64377 0.0
C1624 C 0.99459 0.87147 0.65962 0.0
C1625 C 0.03468 0.87776 0.65728 0.0
H1626 H 0.94641 0.85475 0.6456 0.0
H1627 H 0.34344 0.90488 0.61706 0.0
H1628 H 0.76605 0.89175 0.20482 0.0
H1629 H 0.70735 0.89943 0.18413 0.0
H1630 H 0.75317 0.86606 0.12986 0.0
H1631 H 0.81155 0.85819 0.15037 0.0
H1632 H 0.73208 0.89844 0.12266 0.0
H1633 H 0.67444 0.8541 0.15453 0.0
H1634 H 0.65598 0.84076 0.18448 0.0
H1635 H 0.57845 0.88231 0.20983 0.0
H1636 H 0.59695 0.89601 0.18015 0.0
H1637 H 0.5665 0.88671 0.05052 0.0
H1638 H 0.6235 0.8842 0.07481 0.0
H1639 H 0.54994 0.91073 0.12586 0.0
H1640 H 0.49225 0.91291 0.10156 0.0
H1641 H 0.58459 0.88523 0.13751 0.0
H1642 H 0.63557 0.92886 0.10518 0.0
H1643 H 0.65398 0.94338 0.07627 0.0
H1644 H 0.74401 0.90555 0.05332 0.0
H1645 H 0.72573 0.89068 0.08193 0.0
C1646 C 0.76352 0.88601 0.1885 0.0
C1647 C 0.79332 0.87432 0.17923 0.0
C1648 C 0.73001 0.89041 0.17674 0.0
C1649 C 0.72605 0.88328 0.15552 0.0
C1650 C 0.75584 0.8717 0.14622 0.0
C1651 C 0.78901 0.86716 0.158 0.0
C1652 C 0.6908 0.88778 0.14287 0.0
C1653 C 0.69981 0.89547 0.12576 0.0
C1654 C 0.64873 0.88443 0.14749 0.0
C1655 C 0.63747 0.87616 0.16526 0.0
C1656 C 0.65376 0.86046 0.16659 0.0
C1657 C 0.64323 0.85282 0.1835 0.0
C1658 C 0.61617 0.86071 0.19909 0.0
C1659 C 0.59948 0.87623 0.19777 0.0
C1660 C 0.60995 0.88393 0.1809 0.0
C1661 C 0.56272 0.8922 0.06687 0.0
C1662 C 0.52512 0.90011 0.07416 0.0
C1663 C 0.59534 0.89079 0.08075 0.0
C1664 C 0.59134 0.89754 0.10212 0.0
C1665 C 0.55379 0.90548 0.10943 0.0
C1666 C 0.52091 0.90672 0.09557 0.0
C1667 C 0.62578 0.89563 0.11688 0.0
C1668 C 0.61671 0.88844 0.13446 0.0
C1669 C 0.6678 0.89967 0.11285 0.0
C1670 C 0.67903 0.90859 0.09563 0.0
C1671 C 0.65908 0.92358 0.09388 0.0
C1672 C 0.66953 0.93188 0.07756 0.0
C1673 C 0.70008 0.92537 0.06294 0.0
C1674 C 0.72033 0.91057 0.06465 0.0
C1675 C 0.70997 0.90221 0.08093 0.0
H1676 H 0.70812 0.93182 0.05031 0.0
H1677 H 0.60805 0.85477 0.21216 0.0
H1678 H 0.07216 0.88625 0.18696 0.0
H1679 H 0.12785 0.89126 0.16314 0.0
H1680 H 0.04321 0.87957 0.11081 0.0
H1681 H 0.9877 0.87372 0.13446 0.0
H1682 H 0.11929 0.86747 0.10024 0.0
H1683 H 0.06253 0.91958 0.13281 0.0
H1684 H 0.03969 0.94109 0.16218 0.0
H1685 H 0.16531 0.94518 0.18622 0.0
H1686 H 0.1888 0.9235 0.15714 0.0
H1687 H 0.25135 0.90227 0.03153 0.0
H1688 H 0.18987 0.89773 0.05246 0.0
H1689 H 0.26323 0.91042 0.10894 0.0
H1690 H 0.32357 0.91614 0.08813 0.0
H1691 H 0.18864 0.92237 0.11574 0.0
H1692 H 0.2437 0.86908 0.0802 0.0
H1693 H 0.263 0.85036 0.04746 0.0
H1694 H 0.13515 0.84964 0.02677 0.0
H1695 H 0.11533 0.86883 0.05899 0.0
C1696 C 0.06555 0.88435 0.17034 0.0
C1697 C 0.02534 0.87966 0.16263 0.0
C1698 C 0.09733 0.88742 0.15677 0.0
C1699 C 0.08941 0.88611 0.13526 0.0
C1700 C 0.04989 0.88077 0.12737 0.0
C1701 C 0.01813 0.87757 0.14093 0.0
C1702 C 0.1219 0.89096 0.12119 0.0
C1703 C 0.13426 0.87952 0.10352 0.0
C1704 C 0.1413 0.9067 0.12545 0.0
C1705 C 0.12734 0.91981 0.1429 0.0
C1706 C 0.08523 0.92498 0.14444 0.0
C1707 C 0.07217 0.93721 0.16102 0.0
C1708 C 0.10101 0.94447 0.17608 0.0
C1709 C 0.143 0.93953 0.17456 0.0
C1710 C 0.15621 0.92728 0.15802 0.0
C1711 C 0.254 0.90421 0.04844 0.0
C1712 C 0.29199 0.90943 0.05831 0.0
C1713 C 0.21904 0.90155 0.06037 0.0
C1714 C 0.22221 0.90329 0.08226 0.0
C1715 C 0.26001 0.90892 0.09209 0.0
C1716 C 0.29449 0.91214 0.08022 0.0
C1717 C 0.18693 0.89875 0.09504 0.0
C1718 C 0.17388 0.91029 0.11249 0.0
C1719 C 0.16659 0.88317 0.09039 0.0
C1720 C 0.17813 0.87056 0.0719 0.0
C1721 C 0.21973 0.86497 0.06864 0.0
C1722 C 0.23083 0.85439 0.05009 0.0
C1723 C 0.20035 0.84897 0.03499 0.0
C1724 C 0.15872 0.85396 0.03844 0.0
C1725 C 0.14757 0.86472 0.05681 0.0
H1726 H 0.20881 0.84081 0.02065 0.0
H1727 H 0.09084 0.95394 0.18891 0.0
H1728 H 0.2416 0.61483 0.95416 0.0
H1729 H 0.2945 0.6126 0.92664 0.0
H1730 H 0.25848 0.66062 0.91418 0.0
H1731 H 0.20417 0.66259 0.94116 0.0
H1732 H 0.26729 0.64039 0.87908 0.0
H1733 H 0.35161 0.65356 0.94106 0.0
H1734 H 0.37811 0.65026 0.97577 0.0
H1735 H 0.42255 0.60147 0.95011 0.0
H1736 H 0.39583 0.6044 0.91529 0.0
H1737 H 0.4452 0.65479 0.81946 0.0
H1738 H 0.39226 0.65584 0.8468 0.0
H1739 H 0.4199 0.60524 0.85174 0.0
H1740 H 0.47262 0.60395 0.82403 0.0
H1741 H 0.41563 0.62598 0.89021 0.0
H1742 H 0.33232 0.61366 0.82779 0.0
H1743 H 0.30674 0.61772 0.79322 0.0
H1744 H 0.26152 0.66612 0.82018 0.0
H1745 H 0.28737 0.66244 0.85488 0.0
C1746 C 0.24519 0.62499 0.94569 0.0
C1747 C 0.21888 0.63892 0.94985 0.0
C1748 C 0.27558 0.62372 0.93 0.0
C1749 C 0.28096 0.63655 0.91852 0.0
C1750 C 0.25493 0.65057 0.92282 0.0
C1751 C 0.22403 0.65171 0.93828 0.0
C1752 C 0.31276 0.63513 0.90158 0.0
C1753 C 0.29985 0.63748 0.88163 0.0
C1754 C 0.35506 0.6309 0.90471 0.0
C1755 C 0.37138 0.62915 0.92561 0.0
C1756 C 0.36678 0.64209 0.94285 0.0
C1757 C 0.38188 0.64028 0.96254 0.0
C1758 C 0.40191 0.62565 0.96515 0.0
C1759 C 0.40699 0.61279 0.94806 0.0
C1760 C 0.39192 0.61452 0.92834 0.0
C1761 C 0.43964 0.64378 0.8261 0.0
C1762 C 0.46301 0.62925 0.81946 0.0
C1763 C 0.40947 0.64443 0.84179 0.0
C1764 C 0.40195 0.63057 0.85114 0.0
C1765 C 0.42532 0.61607 0.8447 0.0
C1766 C 0.4555 0.61538 0.82893 0.0
C1767 C 0.37012 0.63139 0.8679 0.0
C1768 C 0.38304 0.62889 0.88775 0.0
C1769 C 0.32793 0.63563 0.86474 0.0
C1770 C 0.31212 0.63782 0.8439 0.0
C1771 C 0.31721 0.62522 0.82632 0.0
C1772 C 0.30261 0.62745 0.80671 0.0
C1773 C 0.28261 0.64218 0.8045 0.0
C1774 C 0.27706 0.65471 0.82191 0.0
C1775 C 0.29164 0.65256 0.84156 0.0
H1776 H 0.27133 0.64388 0.78929 0.0
H1777 H 0.41356 0.62427 0.98041 0.0
H1778 H 0.66271 0.63334 0.83309 0.0
H1779 H 0.72872 0.63418 0.85232 0.0
H1780 H 0.79536 0.64477 0.79825 0.0
H1781 H 0.72951 0.64259 0.77849 0.0
H1782 H 0.84334 0.62735 0.8164 0.0
H1783 H 0.76449 0.67601 0.84143 0.0
H1784 H 0.70287 0.69265 0.85515 0.0
H1785 H 0.70418 0.67065 0.91043 0.0
H1786 H 0.76547 0.65371 0.89691 0.0
H1787 H 0.00651 0.66636 0.89117 0.0
H1788 H 0.95074 0.66335 0.86468 0.0
H1789 H 0.8862 0.62912 0.8968 0.0
H1790 H 0.94223 0.63132 0.92257 0.0
H1791 H 0.84218 0.66147 0.88767 0.0
H1792 H 0.92207 0.61137 0.85824 0.0
H1793 H 0.98663 0.5974 0.84343 0.0
H1794 H 0.98702 0.6268 0.79491 0.0
H1795 H 0.92276 0.64113 0.80966 0.0
C1796 C 0.69164 0.63559 0.82528 0.0
C1797 C 0.6913 0.63804 0.80447 0.0
C1798 C 0.72926 0.63623 0.83629 0.0
C1799 C 0.76691 0.64015 0.827 0.0
C1800 C 0.76676 0.64187 0.80584 0.0
C1801 C 0.72921 0.64064 0.79457 0.0
C1802 C 0.80586 0.64302 0.83966 0.0
C1803 C 0.84308 0.63501 0.83185 0.0
C1804 C 0.80602 0.6532 0.85976 0.0
C1805 C 0.76942 0.66351 0.86808 0.0
C1806 C 0.75151 0.67467 0.85646 0.0
C1807 C 0.71664 0.68415 0.86421 0.0
C1808 C 0.69958 0.68269 0.88363 0.0
C1809 C 0.71742 0.67177 0.89538 0.0
C1810 C 0.75226 0.66223 0.8877 0.0
C1811 C 0.98088 0.65795 0.89235 0.0
C1812 C 0.97852 0.6493 0.90922 0.0
C1813 C 0.94906 0.6563 0.87727 0.0
C1814 C 0.91453 0.64608 0.87897 0.0
C1815 C 0.91262 0.63713 0.89538 0.0
C1816 C 0.94451 0.63856 0.9102 0.0
C1817 C 0.87862 0.64542 0.8646 0.0
C1818 C 0.84217 0.65396 0.8721 0.0
C1819 C 0.87958 0.63617 0.84409 0.0
C1820 C 0.91797 0.62746 0.83521 0.0
C1821 C 0.93618 0.61498 0.84456 0.0
C1822 C 0.97265 0.60696 0.83614 0.0
C1823 C 0.99101 0.61125 0.81828 0.0
C1824 C 0.97283 0.62352 0.80877 0.0
C1825 C 0.93638 0.63158 0.81714 0.0
H1826 H 0.01924 0.60503 0.81178 0.0
H1827 H 0.67256 0.69003 0.88959 0.0
H1828 H 0.24611 0.62587 0.28014 0.0
H1829 H 0.30786 0.62376 0.30186 0.0
H1830 H 0.25517 0.66057 0.35089 0.0
H1831 H 0.19453 0.6633 0.3289 0.0
H1832 H 0.33508 0.66556 0.34839 0.0
H1833 H 0.24848 0.61754 0.3507 0.0
H1834 H 0.20894 0.59314 0.33326 0.0
H1835 H 0.32243 0.57138 0.30522 0.0
H1836 H 0.36261 0.59578 0.32228 0.0
H1837 H 0.43628 0.64977 0.43848 0.0
H1838 H 0.38202 0.6499 0.41197 0.0
H1839 H 0.46023 0.61976 0.36599 0.0
H1840 H 0.51474 0.61942 0.39258 0.0
H1841 H 0.37295 0.61045 0.36434 0.0
H1842 H 0.45976 0.65844 0.36511 0.0
H1843 H 0.49684 0.68368 0.38181 0.0
H1844 H 0.37992 0.70579 0.40474 0.0
H1845 H 0.34218 0.68056 0.38844 0.0
C1846 C 0.24797 0.6336 0.29549 0.0
C1847 C 0.21549 0.64468 0.30291 0.0
C1848 C 0.28312 0.63233 0.30791 0.0
C1849 C 0.28575 0.64176 0.32818 0.0
C1850 C 0.25383 0.65316 0.33532 0.0
C1851 C 0.21913 0.65468 0.32276 0.0
C1852 C 0.32092 0.63948 0.34231 0.0
C1853 C 0.34307 0.65352 0.35199 0.0
C1854 C 0.332 0.62371 0.34667 0.0
C1855 C 0.30847 0.60855 0.3376 0.0
C1856 C 0.26501 0.60754 0.34084 0.0
C1857 C 0.24248 0.59373 0.33099 0.0
C1858 C 0.26313 0.58078 0.31804 0.0
C1859 C 0.30648 0.58146 0.3152 0.0
C1860 C 0.32916 0.59527 0.32498 0.0
C1861 C 0.44165 0.64291 0.42284 0.0
C1862 C 0.47977 0.6346 0.41757 0.0
C1863 C 0.41075 0.64308 0.4077 0.0
C1864 C 0.41737 0.63495 0.38704 0.0
C1865 C 0.45465 0.62611 0.38187 0.0
C1866 C 0.48578 0.62603 0.397 0.0
C1867 C 0.38621 0.63659 0.37069 0.0
C1868 C 0.365 0.62244 0.36059 0.0
C1869 C 0.37562 0.65228 0.36608 0.0
C1870 C 0.39819 0.66755 0.3757 0.0
C1871 C 0.44198 0.66863 0.37384 0.0
C1872 C 0.46312 0.68295 0.38321 0.0
C1873 C 0.44076 0.69632 0.39436 0.0
C1874 C 0.3972 0.69542 0.39611 0.0
C1875 C 0.37592 0.68112 0.38679 0.0
H1876 H 0.45718 0.70739 0.40161 0.0
H1877 H 0.24551 0.57023 0.31018 0.0
H1878 H 0.69778 0.60928 0.41555 0.0
H1879 H 0.75959 0.61205 0.39441 0.0
H1880 H 0.80099 0.65367 0.44012 0.0
H1881 H 0.73821 0.65131 0.4611 0.0
H1882 H 0.81094 0.66028 0.40257 0.0
H1883 H 0.84857 0.61506 0.43538 0.0
H1884 H 0.8401 0.5883 0.44713 0.0
H1885 H 0.83133 0.56343 0.38323 0.0
H1886 H 0.83915 0.59008 0.37108 0.0
H1887 H 0.01478 0.65548 0.35168 0.0
H1888 H 0.95922 0.65563 0.37799 0.0
H1889 H 0.88871 0.62037 0.33424 0.0
H1890 H 0.94377 0.62022 0.30797 0.0
H1891 H 0.89976 0.61176 0.37443 0.0
H1892 H 0.85888 0.65849 0.34268 0.0
H1893 H 0.86817 0.68572 0.33229 0.0
H1894 H 0.8862 0.70826 0.39661 0.0
H1895 H 0.87782 0.68109 0.40736 0.0
C1896 C 0.72012 0.61897 0.4212 0.0
C1897 C 0.71322 0.63002 0.44004 0.0
C1898 C 0.75559 0.62049 0.40913 0.0
C1899 C 0.78536 0.63288 0.41586 0.0
C1900 C 0.77853 0.64398 0.43467 0.0
C1901 C 0.74272 0.64258 0.44665 0.0
C1902 C 0.82285 0.63446 0.40283 0.0
C1903 C 0.83088 0.64975 0.39675 0.0
C1904 C 0.84869 0.62069 0.39511 0.0
C1905 C 0.84416 0.6046 0.40233 0.0
C1906 C 0.84455 0.6039 0.42383 0.0
C1907 C 0.83991 0.58875 0.43057 0.0
C1908 C 0.83511 0.57418 0.41594 0.0
C1909 C 0.83504 0.57473 0.39454 0.0
C1910 C 0.83963 0.58985 0.38772 0.0
C1911 C 0.98728 0.64784 0.34772 0.0
C1912 C 0.98338 0.6379 0.32781 0.0
C1913 C 0.95562 0.64798 0.36268 0.0
C1914 C 0.91994 0.63804 0.35797 0.0
C1915 C 0.91602 0.62814 0.33811 0.0
C1916 C 0.94731 0.62816 0.3231 0.0
C1917 C 0.88708 0.63743 0.37386 0.0
C1918 C 0.88009 0.62232 0.38051 0.0
C1919 C 0.86269 0.65141 0.38232 0.0
C1920 C 0.86838 0.6677 0.37579 0.0
C1921 C 0.86542 0.6692 0.35459 0.0
C1922 C 0.87039 0.68464 0.34864 0.0
C1923 C 0.87795 0.6987 0.36377 0.0
C1924 C 0.88049 0.69735 0.38489 0.0
C1925 C 0.87566 0.68194 0.39092 0.0
H1926 H 0.88169 0.71064 0.35913 0.0
H1927 H 0.83151 0.56246 0.42118 0.0
H1928 H 0.5724 0.39239 0.18459 0.0
H1929 H 0.62507 0.3977 0.15938 0.0
H1930 H 0.53396 0.38775 0.10967 0.0
H1931 H 0.48126 0.38174 0.13475 0.0
H1932 H 0.60807 0.37389 0.09727 0.0
H1933 H 0.56063 0.42721 0.12919 0.0
H1934 H 0.5411 0.44969 0.1581 0.0
H1935 H 0.66735 0.45152 0.18125 0.0
H1936 H 0.68753 0.42887 0.15266 0.0
H1937 H 0.76395 0.40227 0.03192 0.0
H1938 H 0.69703 0.39964 0.04969 0.0
H1939 H 0.75967 0.4104 0.10953 0.0
H1940 H 0.82559 0.41385 0.09201 0.0
H1941 H 0.68929 0.42616 0.11208 0.0
H1942 H 0.73097 0.36876 0.0823 0.0
H1943 H 0.74891 0.34706 0.05212 0.0
H1944 H 0.63071 0.35436 0.02345 0.0
H1945 H 0.61212 0.37608 0.05349 0.0
C1946 C 0.56365 0.39107 0.16826 0.0
C1947 C 0.52261 0.38664 0.16168 0.0
C1948 C 0.59366 0.39432 0.1539 0.0
C1949 C 0.58319 0.39341 0.13272 0.0
C1950 C 0.54256 0.38864 0.12597 0.0
C1951 C 0.51247 0.38532 0.14034 0.0
C1952 C 0.615 0.39744 0.11777 0.0
C1953 C 0.62542 0.38542 0.10032 0.0
C1954 C 0.63741 0.41253 0.12166 0.0
C1955 C 0.62552 0.42626 0.13883 0.0
C1956 C 0.58418 0.43232 0.14052 0.0
C1957 C 0.573 0.44511 0.15684 0.0
C1958 C 0.60295 0.45201 0.17152 0.0
C1959 C 0.64418 0.44616 0.16987 0.0
C1960 C 0.65552 0.43336 0.15359 0.0
C1961 C 0.76322 0.40412 0.04887 0.0
C1962 C 0.7999 0.40827 0.06059 0.0
C1963 C 0.72507 0.40254 0.05901 0.0
C1964 C 0.72336 0.40461 0.08097 0.0
C1965 C 0.76006 0.40881 0.09259 0.0
C1966 C 0.79782 0.41074 0.08254 0.0
C1967 C 0.68392 0.40225 0.09223 0.0
C1968 C 0.67172 0.41468 0.10892 0.0
C1969 C 0.65973 0.3876 0.08755 0.0
C1970 C 0.67035 0.37411 0.07 0.0
C1971 C 0.70885 0.36571 0.06955 0.0
C1972 C 0.71912 0.35342 0.05248 0.0
C1973 C 0.69104 0.34941 0.03583 0.0
C1974 C 0.65243 0.3575 0.03634 0.0
C1975 C 0.64197 0.36976 0.0534 0.0
H1976 H 0.69914 0.34005 0.02251 0.0
H1977 H 0.59423 0.46191 0.18414 0.0
H1978 H 0.06295 0.36356 0.05078 0.0
H1979 H 0.11703 0.36064 0.07651 0.0
H1980 H 0.03715 0.38537 0.12609 0.0
H1981 H 0.98349 0.38883 0.10038 0.0
H1982 H 0.11422 0.39823 0.12918 0.0
H1983 H 0.05554 0.34407 0.1208 0.0
H1984 H 0.02993 0.31733 0.10154 0.0
H1985 H 0.15264 0.30609 0.0756 0.0
H1986 H 0.17887 0.33287 0.09448 0.0
H1987 H 0.26328 0.38347 0.20622 0.0
H1988 H 0.19812 0.38403 0.18639 0.0
H1989 H 0.25987 0.35822 0.13082 0.0
H1990 H 0.32434 0.35717 0.15058 0.0
H1991 H 0.18538 0.34538 0.13447 0.0
H1992 H 0.24147 0.40103 0.14016 0.0
H1993 H 0.26679 0.42774 0.15971 0.0
H1994 H 0.14799 0.43607 0.19098 0.0
H1995 H 0.12216 0.40929 0.17183 0.0
C1996 C 0.05684 0.36832 0.06717 0.0
C1997 C 0.01896 0.37643 0.07354 0.0
C1998 C 0.0876 0.36651 0.08188 0.0
C1999 C 0.08093 0.37268 0.10323 0.0
C2000 C 0.04284 0.38048 0.10969 0.0
C2001 C 0.01207 0.3823 0.095 0.0
C2002 C 0.11473 0.3718 0.11862 0.0
C2003 C 0.12931 0.38663 0.13063 0.0
C2004 C 0.13471 0.35671 0.12028 0.0
C2005 C 0.11909 0.34055 0.10895 0.0
C2006 C 0.077 0.33595 0.11087 0.0
C2007 C 0.06238 0.32077 0.10004 0.0
C2008 C 0.08962 0.31003 0.08732 0.0
C2009 C 0.13157 0.31443 0.08545 0.0
C2010 C 0.14634 0.3296 0.09623 0.0
C2011 C 0.26289 0.37795 0.18976 0.0
C2012 C 0.29888 0.37029 0.17994 0.0
C2013 C 0.22571 0.3783 0.17845 0.0
C2014 C 0.22424 0.37127 0.15708 0.0
C2015 C 0.26021 0.36365 0.14731 0.0
C2016 C 0.29711 0.36312 0.15862 0.0
C2017 C 0.18555 0.37184 0.14462 0.0
C2018 C 0.16999 0.35695 0.13318 0.0
C2019 C 0.16468 0.38688 0.14349 0.0
C2020 C 0.18005 0.40308 0.15474 0.0
C2021 C 0.22085 0.40851 0.1513 0.0
C2022 C 0.23528 0.42367 0.1623 0.0
C2023 C 0.20905 0.43356 0.17663 0.0
C2024 C 0.16829 0.42837 0.17991 0.0
C2025 C 0.15373 0.41321 0.16898 0.0
H2026 H 0.22024 0.44527 0.18516 0.0
H2027 H 0.07824 0.29829 0.07895 0.0
H2028 H 0.79257 0.36383 0.65588 0.0
H2029 H 0.73252 0.3704 0.63549 0.0
H2030 H 0.67349 0.39609 0.69181 0.0
H2031 H 0.73418 0.3899 0.71241 0.0
H2032 H 0.62183 0.37125 0.66186 0.0
H2033 H 0.70582 0.41989 0.66637 0.0
H2034 H 0.77141 0.43539 0.66463 0.0
H2035 H 0.7838 0.41468 0.59932 0.0
H2036 H 0.71861 0.39876 0.60078 0.0
H2037 H 0.46164 0.40305 0.60364 0.0
H2038 H 0.51697 0.40146 0.6293 0.0
H2039 H 0.60468 0.38529 0.57916 0.0
H2040 H 0.54956 0.38682 0.55345 0.0
H2041 H 0.63948 0.40804 0.60947 0.0
H2042 H 0.55927 0.35779 0.6056 0.0
H2043 H 0.495 0.34141 0.60726 0.0
H2044 H 0.47629 0.36464 0.6713 0.0
H2045 H 0.54018 0.38134 0.66992 0.0
C2046 C 0.76676 0.3708 0.66397 0.0
C2047 C 0.76796 0.37634 0.68573 0.0
C2048 C 0.73262 0.37459 0.6523 0.0
C2049 C 0.69887 0.38375 0.66221 0.0
C2050 C 0.69941 0.38901 0.68397 0.0
C2051 C 0.73402 0.3855 0.69565 0.0
C2052 C 0.6633 0.38782 0.64954 0.0
C2053 C 0.62523 0.37955 0.65069 0.0
C2054 C 0.66841 0.39839 0.63477 0.0
C2055 C 0.70752 0.408 0.63374 0.0
C2056 C 0.72273 0.4185 0.65168 0.0
C2057 C 0.75981 0.4274 0.65074 0.0
C2058 C 0.78181 0.42601 0.63188 0.0
C2059 C 0.76674 0.41573 0.61392 0.0
C2060 C 0.7297 0.40677 0.6148 0.0
C2061 C 0.49269 0.39909 0.5981 0.0
C2062 C 0.50122 0.395 0.57654 0.0
C2063 C 0.52426 0.39824 0.61276 0.0
C2064 C 0.5648 0.39312 0.60612 0.0
C2065 C 0.57361 0.38933 0.58461 0.0
C2066 C 0.54211 0.39023 0.56994 0.0
C2067 C 0.59791 0.39129 0.62152 0.0
C2068 C 0.63568 0.39993 0.62084 0.0
C2069 C 0.59253 0.38101 0.6367 0.0
C2070 C 0.55422 0.37094 0.63758 0.0
C2071 C 0.54126 0.3595 0.61998 0.0
C2072 C 0.50493 0.35014 0.62088 0.0
C2073 C 0.4815 0.35202 0.63936 0.0
C2074 C 0.49442 0.36322 0.65699 0.0
C2075 C 0.53069 0.37263 0.65616 0.0
H2076 H 0.45339 0.34476 0.64003 0.0
H2077 H 0.81049 0.43292 0.63118 0.0
H2078 H 0.96466 0.37332 0.64116 0.0
H2079 H 0.02096 0.3759 0.61614 0.0
H2080 H 0.09767 0.40113 0.66657 0.0
H2081 H 0.04165 0.39859 0.6916 0.0
H2082 H 0.09294 0.41711 0.63157 0.0
H2083 H 0.119 0.36266 0.64749 0.0
H2084 H 0.09989 0.33403 0.65025 0.0
H2085 H 0.07371 0.32332 0.58434 0.0
H2086 H 0.09208 0.35199 0.58124 0.0
H2087 H 0.29391 0.41763 0.58959 0.0
H2088 H 0.2327 0.413 0.61015 0.0
H2089 H 0.17791 0.3824 0.55593 0.0
H2090 H 0.2401 0.38661 0.53524 0.0
H2091 H 0.16613 0.36888 0.5898 0.0
H2092 H 0.14365 0.42229 0.5728 0.0
H2093 H 0.16137 0.45091 0.56934 0.0
H2094 H 0.17782 0.4638 0.63591 0.0
H2095 H 0.16078 0.43519 0.63975 0.0
C2096 C 0.99358 0.3794 0.64686 0.0
C2097 C -0.00105 0.3857 0.66829 0.0
C2098 C 0.02568 0.38079 0.63261 0.0
C2099 C 0.06342 0.38864 0.63957 0.0
C2100 C 0.06875 0.395 0.66094 0.0
C2101 C 0.0369 0.39345 0.67521 0.0
C2102 C 0.09725 0.39054 0.6246 0.0
C2103 C 0.10924 0.40659 0.62256 0.0
C2104 C 0.11732 0.37677 0.61235 0.0
C2105 C 0.10643 0.35952 0.61418 0.0
C2106 C 0.10878 0.35425 0.63362 0.0
C2107 C 0.09817 0.33801 0.63524 0.0
C2108 C 0.08546 0.32688 0.6175 0.0
C2109 C 0.08347 0.33197 0.59808 0.0
C2110 C 0.09401 0.3482 0.59638 0.0
C2111 C 0.26886 0.40994 0.58196 0.0
C2112 C 0.27166 0.40261 0.56072 0.0
C2113 C 0.23377 0.40735 0.59375 0.0
C2114 C 0.20031 0.39764 0.58448 0.0
C2115 C 0.20327 0.39002 0.56336 0.0
C2116 C 0.23873 0.39247 0.55156 0.0
C2117 C 0.16252 0.39551 0.59704 0.0
C2118 C 0.14963 0.37943 0.59862 0.0
C2119 C 0.14125 0.40927 0.60874 0.0
C2120 C 0.15121 0.42655 0.60654 0.0
C2121 C 0.15131 0.4312 0.58669 0.0
C2122 C 0.1612 0.44742 0.58466 0.0
C2123 C 0.17079 0.45916 0.60239 0.0
C2124 C 0.1704 0.4547 0.62219 0.0
C2125 C 0.16057 0.43848 0.6243 0.0
H2126 H 0.17845 0.47171 0.60079 0.0
H2127 H 0.07725 0.31431 0.61878 0.0
H2128 H 0.22668 0.12394 0.703 0.0
H2129 H 0.26508 0.12375 0.67 0.0
H2130 H 0.16907 0.15456 0.64998 0.0
H2131 H 0.13095 0.15466 0.68239 0.0
H2132 H 0.2342 0.11088 0.63148 0.0
H2133 H 0.20536 0.18015 0.62226 0.0
H2134 H 0.21402 0.20779 0.6439 0.0
H2135 H 0.30415 0.18832 0.68223 0.0
H2136 H 0.29663 0.16058 0.66063 0.0
H2137 H 0.12158 0.12468 0.54931 0.0
H2138 H 0.15935 0.12261 0.58115 0.0
H2139 H 0.26774 0.14537 0.55836 0.0
H2140 H 0.22959 0.14748 0.52596 0.0
H2141 H 0.24569 0.16031 0.59757 0.0
H2142 H 0.28012 0.10647 0.56684 0.0
H2143 H 0.27175 0.07878 0.54523 0.0
H2144 H 0.17565 0.06725 0.58668 0.0
H2145 H 0.18284 0.09493 0.60836 0.0
C2146 C 0.21434 0.13087 0.69163 0.0
C2147 C 0.17568 0.13916 0.69507 0.0
C2148 C 0.23629 0.13079 0.67288 0.0
C2149 C 0.22028 0.13936 0.6577 0.0
C2150 C 0.18255 0.14817 0.66164 0.0
C2151 C 0.16046 0.14804 0.68008 0.0
C2152 C 0.23855 0.13745 0.63644 0.0
C2153 C 0.23786 0.12162 0.62403 0.0
C2154 C 0.24545 0.15143 0.62691 0.0
C2155 C 0.25054 0.16823 0.63971 0.0
C2156 C 0.22742 0.18176 0.63513 0.0
C2157 C 0.23201 0.19745 0.64745 0.0
C2158 C 0.25963 0.19981 0.66441 0.0
C2159 C 0.28274 0.18647 0.66909 0.0
C2160 C 0.27829 0.17076 0.65682 0.0
C2161 C 0.15359 0.12911 0.55089 0.0
C2162 C 0.17252 0.13637 0.53523 0.0
C2163 C 0.1754 0.12772 0.56902 0.0
C2164 C 0.21667 0.13355 0.57197 0.0
C2165 C 0.2361 0.1406 0.55624 0.0
C2166 C 0.21428 0.14184 0.53784 0.0
C2167 C 0.2363 0.13394 0.5927 0.0
C2168 C 0.24429 0.14948 0.60498 0.0
C2169 C 0.23663 0.11967 0.60212 0.0
C2170 C 0.23225 0.10282 0.58933 0.0
C2171 C 0.25711 0.09806 0.57134 0.0
C2172 C 0.25254 0.08235 0.55905 0.0
C2173 C 0.22324 0.07125 0.5646 0.0
C2174 C 0.19845 0.07584 0.58244 0.0
C2175 C 0.20286 0.09153 0.59478 0.0
H2176 H 0.21973 0.0591 0.55506 0.0
H2177 H 0.2631 0.21197 0.67394 0.0
H2178 H 0.78417 0.88195 0.45689 0.0
H2179 H 0.74623 0.88117 0.42372 0.0
H2180 H 0.84301 0.91105 0.40263 0.0
H2181 H 0.88073 0.91179 0.43529 0.0
H2182 H 0.76218 0.91951 0.39084 0.0
H2183 H 0.85104 0.86906 0.39179 0.0
H2184 H 0.86606 0.84374 0.4061 0.0
H2185 H 0.73961 0.82713 0.39319 0.0
H2186 H 0.72387 0.85246 0.37898 0.0
H2187 H 0.88301 0.90325 0.30522 0.0
H2188 H 0.8435 0.90674 0.33777 0.0
H2189 H 0.74747 0.87395 0.3076 0.0
H2190 H 0.78704 0.8706 0.27447 0.0
H2191 H 0.78135 0.8651 0.34443 0.0
H2192 H 0.71413 0.91104 0.32628 0.0
H2193 H 0.7058 0.93626 0.31099 0.0
H2194 H 0.79292 0.96196 0.35565 0.0
H2195 H 0.8024 0.93685 0.37101 0.0
C2196 C 0.79685 0.88855 0.44524 0.0
C2197 C 0.83566 0.89673 0.44845 0.0
C2198 C 0.77511 0.88815 0.42641 0.0
C2199 C 0.7918 0.89609 0.4108 0.0
C2200 C 0.82937 0.90497 0.41456 0.0
C2201 C 0.85119 0.90521 0.43314 0.0
C2202 C 0.77447 0.89356 0.38937 0.0
C2203 C 0.7653 0.90759 0.38061 0.0
C2204 C 0.77663 0.87788 0.37624 0.0
C2205 C 0.7862 0.86265 0.38456 0.0
C2206 C 0.82646 0.86002 0.3921 0.0
C2207 C 0.83509 0.84568 0.40018 0.0
C2208 C 0.80377 0.83386 0.40061 0.0
C2209 C 0.7638 0.83632 0.39289 0.0
C2210 C 0.755 0.85065 0.38483 0.0
C2211 C 0.85322 0.89695 0.3054 0.0
C2212 C 0.83818 0.88656 0.28745 0.0
C2213 C 0.8304 0.8991 0.32393 0.0
C2214 C 0.79226 0.89079 0.32498 0.0
C2215 C 0.77657 0.88062 0.30697 0.0
C2216 C 0.79918 0.8787 0.28817 0.0
C2217 C 0.77291 0.89131 0.34577 0.0
C2218 C 0.77515 0.87689 0.35449 0.0
C2219 C 0.76455 0.90668 0.35882 0.0
C2220 C 0.75877 0.92201 0.3499 0.0
C2221 C 0.73162 0.92205 0.33283 0.0
C2222 C 0.72672 0.93634 0.32413 0.0
C2223 C 0.74876 0.95071 0.33237 0.0
C2224 C 0.77575 0.95083 0.34933 0.0
C2225 C 0.7808 0.93657 0.35809 0.0
H2226 H 0.74495 0.96176 0.32559 0.0
H2227 H 0.8105 0.82277 0.40688 0.0
H2228 H 0.18896 0.63702 0.02754 0.0
H2229 H 0.2173 0.63036 0.0602 0.0
H2230 H 0.10835 0.6524 0.09357 0.0
H2231 H 0.08021 0.65917 0.06131 0.0
H2232 H 0.17842 0.66024 0.11613 0.0
H2233 H 0.11193 0.6106 0.07651 0.0
H2234 H 0.10372 0.58848 0.04565 0.0
H2235 H 0.23239 0.57433 0.0507 0.0
H2236 H 0.24126 0.59636 0.08169 0.0
H2237 H 0.10224 0.60116 0.18123 0.0
H2238 H 0.12501 0.60529 0.14681 0.0
H2239 H 0.23202 0.63304 0.1744 0.0
H2240 H 0.2086 0.62933 0.20922 0.0
H2241 H 0.18834 0.6006 0.12034 0.0
H2242 H 0.24142 0.66665 0.15002 0.0
H2243 H 0.23643 0.68876 0.18115 0.0
H2244 H 0.11651 0.67029 0.19631 0.0
H2245 H 0.12067 0.64816 0.16513 0.0
C2246 C 0.1714 0.64063 0.04192 0.0
C2247 C 0.1322 0.6485 0.04187 0.0
C2248 C 0.18759 0.6368 0.06052 0.0
C2249 C 0.16482 0.64083 0.07925 0.0
C2250 C 0.12655 0.64926 0.0793 0.0
C2251 C 0.11035 0.65302 0.06081 0.0
C2252 C 0.17851 0.63534 0.09868 0.0
C2253 C 0.1816 0.64721 0.11702 0.0
C2254 C 0.18254 0.61837 0.09981 0.0
C2255 C 0.1774 0.60522 0.08119 0.0
C2256 C 0.13852 0.60283 0.07093 0.0
C2257 C 0.13373 0.5903 0.05345 0.0
C2258 C 0.16758 0.58008 0.04611 0.0
C2259 C 0.20623 0.58229 0.05635 0.0
C2260 C 0.21115 0.59477 0.0739 0.0
C2261 C 0.13114 0.60784 0.17999 0.0
C2262 C 0.15307 0.61526 0.19796 0.0
C2263 C 0.14435 0.61008 0.16024 0.0
C2264 C 0.17977 0.61975 0.15808 0.0
C2265 C 0.20422 0.62575 0.17578 0.0
C2266 C 0.19084 0.62358 0.19565 0.0
C2267 C 0.1864 0.62547 0.13793 0.0
C2268 C 0.18728 0.61366 0.1194 0.0
C2269 C 0.18463 0.64251 0.13666 0.0
C2270 C 0.18169 0.65566 0.15546 0.0
C2271 C 0.21404 0.66732 0.16002 0.0
C2272 C 0.21133 0.67985 0.17764 0.0
C2273 C 0.17626 0.68088 0.19072 0.0
C2274 C 0.14372 0.66942 0.18619 0.0
C2275 C 0.14625 0.65689 0.16856 0.0
H2276 H 0.17431 0.6906 0.20431 0.0
H2277 H 0.16379 0.57039 0.03256 0.0
H2278 H 0.7955 0.40834 0.97141 0.0
H2279 H 0.75694 0.40735 0.93858 0.0
H2280 H 0.87029 0.41969 0.90845 0.0
H2281 H 0.90863 0.42093 0.94106 0.0
H2282 H 0.80212 0.43244 0.89199 0.0
H2283 H 0.84727 0.37889 0.91026 0.0
H2284 H 0.84568 0.35832 0.93372 0.0
H2285 H 0.71163 0.35544 0.92839 0.0
H2286 H 0.71253 0.3761 0.90494 0.0
H2287 H 0.86629 0.36751 0.80699 0.0
H2288 H 0.83929 0.37464 0.84245 0.0
H2289 H 0.74253 0.40449 0.8212 0.0
H2290 H 0.77006 0.39747 0.78533 0.0
H2291 H 0.76846 0.37352 0.8649 0.0
H2292 H 0.73883 0.43981 0.85816 0.0
H2293 H 0.75169 0.45944 0.83407 0.0
H2294 H 0.86893 0.43548 0.81548 0.0
H2295 H 0.85689 0.41586 0.83965 0.0
C2296 C 0.81187 0.41132 0.95793 0.0
C2297 C 0.85528 0.41439 0.95865 0.0
C2298 C 0.78977 0.41076 0.93921 0.0
C2299 C 0.81088 0.41322 0.92103 0.0
C2300 C 0.85332 0.41777 0.9223 0.0
C2301 C 0.87534 0.41832 0.94092 0.0
C2302 C 0.79192 0.40839 0.90002 0.0
C2303 C 0.79335 0.41969 0.88615 0.0
C2304 C 0.78047 0.39176 0.8924 0.0
C2305 C 0.77992 0.37911 0.90606 0.0
C2306 C 0.81749 0.37388 0.91414 0.0
C2307 C 0.8167 0.36222 0.92745 0.0
C2308 C 0.77856 0.35562 0.93263 0.0
C2309 C 0.74114 0.3606 0.92441 0.0
C2310 C 0.74176 0.37227 0.9111 0.0
C2311 C 0.83874 0.37533 0.80974 0.0
C2312 C 0.82078 0.38221 0.79353 0.0
C2313 C 0.823 0.37926 0.83001 0.0
C2314 C 0.78914 0.39023 0.83452 0.0
C2315 C 0.76884 0.39607 0.81804 0.0
C2316 C 0.78459 0.39206 0.79761 0.0
C2317 C 0.78081 0.39738 0.85674 0.0
C2318 C 0.7743 0.38652 0.87088 0.0
C2319 C 0.78856 0.41433 0.86456 0.0
C2320 C 0.79673 0.42632 0.8505 0.0
C2321 C 0.76739 0.43881 0.84898 0.0
C2322 C 0.77453 0.44991 0.83532 0.0
C2323 C 0.81104 0.44867 0.8232 0.0
C2324 C 0.84063 0.4364 0.82484 0.0
C2325 C 0.83369 0.42531 0.83852 0.0
H2326 H 0.81643 0.45723 0.81257 0.0
H2327 H 0.77802 0.34662 0.94297 0.0
H2328 H 0.58763 0.14788 0.1855 0.0
H2329 H 0.62342 0.15406 0.1546 0.0
H2330 H 0.74283 0.15245 0.18523 0.0
H2331 H 0.70722 0.14609 0.21637 0.0
H2332 H 0.69107 0.18001 0.14866 0.0
H2333 H 0.78295 0.13075 0.15816 0.0
H2334 H 0.78895 0.10523 0.17321 0.0
H2335 H 0.67159 0.08799 0.14515 0.0
H2336 H 0.66493 0.11347 0.13007 0.0
H2337 H 0.71577 0.16444 0.03635 0.0
H2338 H 0.74598 0.16617 0.07163 0.0
H2339 H 0.64998 0.13313 0.08661 0.0
H2340 H 0.61984 0.13155 0.05195 0.0
H2341 H 0.72837 0.12691 0.1029 0.0
H2342 H 0.63211 0.17423 0.09736 0.0
H2343 H 0.61559 0.1991 0.08238 0.0
H2344 H 0.73502 0.22009 0.10275 0.0
H2345 H 0.75228 0.19524 0.11769 0.0
C2346 C 0.62145 0.14907 0.18584 0.0
C2347 C 0.64463 0.14627 0.20324 0.0
C2348 C 0.64182 0.15274 0.16824 0.0
C2349 C 0.68567 0.15367 0.1677 0.0
C2350 C 0.70895 0.15175 0.18541 0.0
C2351 C 0.68853 0.14809 0.20312 0.0
C2352 C 0.70596 0.15427 0.14744 0.0
C2353 C 0.7013 0.16863 0.13877 0.0
C2354 C 0.71901 0.13941 0.1346 0.0
C2355 C 0.72347 0.12393 0.14307 0.0
C2356 C 0.75852 0.12148 0.15522 0.0
C2357 C 0.762 0.10705 0.16376 0.0
C2358 C 0.73066 0.095 0.16015 0.0
C2359 C 0.69584 0.09733 0.14793 0.0
C2360 C 0.69223 0.11174 0.13936 0.0
C2361 C 0.70178 0.15735 0.04714 0.0
C2362 C 0.66522 0.14805 0.04166 0.0
C2363 C 0.71906 0.15831 0.06718 0.0
C2364 C 0.70022 0.14974 0.08165 0.0
C2365 C 0.66521 0.13972 0.07562 0.0
C2366 C 0.64772 0.13897 0.05589 0.0
C2367 C 0.71232 0.15255 0.10395 0.0
C2368 C 0.7221 0.1387 0.11295 0.0
C2369 C 0.70425 0.16792 0.11708 0.0
C2370 C 0.69359 0.18289 0.10845 0.0
C2371 C 0.65483 0.18415 0.09858 0.0
C2372 C 0.64535 0.19822 0.0901 0.0
C2373 C 0.67428 0.21115 0.09157 0.0
C2374 C 0.71269 0.21005 0.10159 0.0
C2375 C 0.72233 0.19599 0.11007 0.0
H2376 H 0.66692 0.22203 0.08498 0.0
H2377 H 0.73335 0.08386 0.16681 0.0
H2378 H 0.40466 0.87186 0.80247 0.0
H2379 H 0.36999 0.87059 0.83551 0.0
H2380 H 0.25124 0.88159 0.80926 0.0
H2381 H 0.28608 0.8829 0.77582 0.0
H2382 H 0.26687 0.90199 0.84559 0.0
H2383 H 0.26054 0.84475 0.82479 0.0
H2384 H 0.28317 0.8167 0.8085 0.0
H2385 H 0.38231 0.81855 0.85353 0.0
H2386 H 0.3608 0.84671 0.86991 0.0
H2387 H 0.29328 0.88024 0.95961 0.0
H2388 H 0.25908 0.87399 0.92514 0.0
H2389 H 0.34062 0.9089 0.90258 0.0
H2390 H 0.37474 0.915 0.93656 0.0
H2391 H 0.30079 0.86029 0.88979 0.0
H2392 H 0.29589 0.92677 0.86769 0.0
H2393 H 0.27221 0.95466 0.88398 0.0
H2394 H 0.18976 0.93367 0.92454 0.0
H2395 H 0.21238 0.9056 0.90829 0.0
C2396 C 0.37108 0.87379 0.80358 0.0
C2397 C 0.34814 0.87762 0.78664 0.0
C2398 C 0.35117 0.87287 0.82242 0.0
C2399 C 0.3079 0.87576 0.82475 0.0
C2400 C 0.28458 0.87916 0.80769 0.0
C2401 C 0.30452 0.87993 0.78866 0.0
C2402 C 0.2892 0.87728 0.84588 0.0
C2403 C 0.27332 0.89278 0.85524 0.0
C2404 C 0.29577 0.86495 0.85824 0.0
C2405 C 0.30887 0.84789 0.84864 0.0
C2406 C 0.28727 0.83922 0.83119 0.0
C2407 C 0.29992 0.82328 0.82193 0.0
C2408 C 0.33412 0.81584 0.82999 0.0
C2409 C 0.35573 0.82431 0.84734 0.0
C2410 C 0.34323 0.84026 0.85666 0.0
C2411 C 0.30308 0.88682 0.94737 0.0
C2412 C 0.33685 0.89798 0.95059 0.0
C2413 C 0.28356 0.88325 0.92776 0.0
C2414 C 0.29697 0.89112 0.9114 0.0
C2415 C 0.32916 0.90292 0.91508 0.0
C2416 C 0.34899 0.90627 0.93444 0.0
C2417 C 0.28276 0.88554 0.8896 0.0
C2418 C 0.29237 0.86926 0.88008 0.0
C2419 C 0.26996 0.8971 0.87709 0.0
C2420 C 0.25581 0.91402 0.88669 0.0
C2421 C 0.27237 0.92805 0.87992 0.0
C2422 C 0.25923 0.94392 0.88921 0.0
C2423 C 0.22949 0.94594 0.90528 0.0
C2424 C 0.21282 0.93209 0.9121 0.0
C2425 C 0.22584 0.9162 0.90287 0.0
H2426 H 0.21939 0.95823 0.91245 0.0
H2427 H 0.34389 0.8035 0.82278 0.0
H2428 H 0.61933 0.67523 0.56329 0.0
H2429 H 0.65517 0.67598 0.59641 0.0
H2430 H 0.75049 0.64301 0.56552 0.0
H2431 H 0.7141 0.64203 0.53205 0.0
H2432 H 0.71762 0.63103 0.5967 0.0
H2433 H 0.78013 0.68155 0.59259 0.0
H2434 H 0.78802 0.70963 0.5846 0.0
H2435 H 0.69365 0.72776 0.63016 0.0
H2436 H 0.6846 0.69977 0.6382 0.0
H2437 H 0.70558 0.63093 0.70706 0.0
H2438 H 0.74547 0.63656 0.67658 0.0
H2439 H 0.64356 0.66678 0.66103 0.0
H2440 H 0.60388 0.66113 0.69096 0.0
H2441 H 0.72403 0.6797 0.65411 0.0
H2442 H 0.6443 0.62597 0.64051 0.0
H2443 H 0.63334 0.59776 0.64778 0.0
H2444 H 0.76339 0.58649 0.63526 0.0
H2445 H 0.77506 0.61471 0.6281 0.0
C2446 C 0.64839 0.6684 0.56341 0.0
C2447 C 0.6636 0.65841 0.54515 0.0
C2448 C 0.66926 0.66902 0.58236 0.0
C2449 C 0.70592 0.65971 0.58345 0.0
C2450 C 0.72249 0.65039 0.565 0.0
C2451 C 0.70161 0.64983 0.54593 0.0
C2452 C 0.72165 0.65767 0.60432 0.0
C2453 C 0.72093 0.64167 0.60916 0.0
C2454 C 0.72651 0.67148 0.62063 0.0
C2455 C 0.73184 0.68849 0.61607 0.0
C2456 C 0.76093 0.6915 0.60087 0.0
C2457 C 0.7656 0.70742 0.59632 0.0
C2458 C 0.7414 0.72047 0.60689 0.0
C2459 C 0.71248 0.71764 0.62204 0.0
C2460 C 0.70766 0.70174 0.62664 0.0
C2461 C 0.69216 0.63897 0.69726 0.0
C2462 C 0.65143 0.64538 0.70108 0.0
C2463 C 0.71499 0.64224 0.67999 0.0
C2464 C 0.69745 0.65212 0.66664 0.0
C2465 C 0.65782 0.65925 0.67125 0.0
C2466 C 0.63493 0.65583 0.6882 0.0
C2467 C 0.71629 0.65332 0.64617 0.0
C2468 C 0.72359 0.6691 0.64147 0.0
C2469 C 0.71776 0.63936 0.62995 0.0
C2470 C 0.71061 0.62241 0.63398 0.0
C2471 C 0.67052 0.61746 0.63938 0.0
C2472 C 0.66419 0.6015 0.64349 0.0
C2473 C 0.69767 0.59035 0.64204 0.0
C2474 C 0.73751 0.59514 0.63642 0.0
C2475 C 0.744 0.61111 0.63234 0.0
H2476 H 0.69273 0.578 0.64522 0.0
H2477 H 0.74504 0.73278 0.60333 0.0
H2478 H 0.28796 0.38338 0.27537 0.0
H2479 H 0.25019 0.38551 0.30874 0.0
H2480 H 0.36232 0.37075 0.33777 0.0
H2481 H 0.39968 0.36838 0.30477 0.0
H2482 H 0.29408 0.35745 0.3526 0.0
H2483 H 0.33884 0.4121 0.33775 0.0
H2484 H 0.33579 0.43418 0.31644 0.0
H2485 H 0.20246 0.43782 0.32531 0.0
H2486 H 0.20478 0.41561 0.34647 0.0
H2487 H 0.36322 0.41753 0.4408 0.0
H2488 H 0.33358 0.41292 0.40582 0.0
H2489 H 0.23745 0.38196 0.42537 0.0
H2490 H 0.26769 0.3864 0.46073 0.0
H2491 H 0.26183 0.41559 0.38463 0.0
H2492 H 0.23123 0.34858 0.38633 0.0
H2493 H 0.24492 0.32742 0.40824 0.0
H2494 H 0.36394 0.3498 0.42647 0.0
H2495 H 0.35107 0.37095 0.40448 0.0
C2496 C 0.30424 0.38033 0.28883 0.0
C2497 C 0.34694 0.37594 0.28756 0.0
C2498 C 0.28262 0.38153 0.30783 0.0
C2499 C 0.3035 0.37836 0.32574 0.0
C2500 C 0.34546 0.37315 0.32412 0.0
C2501 C 0.36696 0.37196 0.30526 0.0
C2502 C 0.28442 0.38224 0.34685 0.0
C2503 C 0.28564 0.37005 0.35951 0.0
C2504 C 0.27316 0.39864 0.35585 0.0
C2505 C 0.2719 0.41211 0.34344 0.0
C2506 C 0.30889 0.41758 0.33506 0.0
C2507 C 0.30729 0.4301 0.32302 0.0
C2508 C 0.26894 0.43736 0.31946 0.0
C2509 C 0.23213 0.43215 0.32802 0.0
C2510 C 0.23355 0.4196 0.34003 0.0
C2511 C 0.33527 0.41 0.43782 0.0
C2512 C 0.31834 0.402 0.45331 0.0
C2513 C 0.31799 0.40754 0.41785 0.0
C2514 C 0.28357 0.39695 0.41291 0.0
C2515 C 0.26418 0.3901 0.42885 0.0
C2516 C 0.28152 0.39262 0.44899 0.0
C2517 C 0.27414 0.39101 0.39051 0.0
C2518 C 0.26741 0.40276 0.37757 0.0
C2519 C 0.28137 0.37429 0.38127 0.0
C2520 C 0.28998 0.36138 0.39399 0.0
C2521 C 0.26035 0.34891 0.39497 0.0
C2522 C 0.26797 0.33694 0.40739 0.0
C2523 C 0.30522 0.3373 0.41879 0.0
C2524 C 0.33508 0.34956 0.41767 0.0
C2525 C 0.32767 0.36151 0.40522 0.0
H2526 H 0.31097 0.32806 0.42847 0.0
H2527 H 0.26775 0.44704 0.31012 0.0
loop_
_geom_bond_atom_site_label_1
_geom_bond_atom_site_label_2
_geom_bond_distance
_geom_bond_site_symmetry_2
_ccdc_geom_bond_type
C0 C1 1.351 . S
C0 N3 1.368 . S
C0 H5 0.931 . S
C1 C0 1.351 . S
C1 N2 1.373 . S
C1 H29 0.930 . S
N2 C1 1.373 . S
N2 C4 1.340 . S
N3 C0 1.368 . S
N3 C4 1.321 . S
N3 Co6 2.135 . S
C4 N2 1.340 . S
C4 N3 1.321 . S
C4 H28 0.930 . S
H5 C0 0.931 . S
Co6 N3 2.135 . S
Co6 N9 2.121 . S
Co6 O14 2.055 . S
Co6 O17 2.039 . S
Co6 N20 2.140 . S
C7 O8 1.227 . S
C7 O17 1.265 . S
O8 C7 1.227 . S
N9 Co6 2.121 . S
N9 C11 1.375 . S
N9 C12 1.313 . S
C10 C11 1.338 . S
C10 N13 1.377 . S
C10 H30 0.930 . S
C11 N9 1.375 . S
C11 C10 1.338 . S
C11 H15 0.931 . S
C12 N9 1.313 . S
C12 N13 1.344 . S
C12 H16 0.930 . S
N13 C10 1.377 . S
N13 C12 1.344 . S
O14 Co6 2.055 . S
O14 C18 1.253 . S
H15 C11 0.931 . S
H16 C12 0.930 . S
O17 Co6 2.039 . S
O17 C7 1.265 . S
C18 O14 1.253 . S
C18 O19 1.227 . S
O19 C18 1.227 . S
N20 Co6 2.140 . S
N20 C23 1.346 . S
N20 C24 1.345 . S
C21 C22 1.387 1_655 S
C21 C25 1.391 . S
C22 C21 1.387 1_455 S
C22 C23 1.369 . S
C22 H31 0.929 . S
C23 N20 1.346 . S
C23 C22 1.369 . S
C23 H26 0.928 . S
C24 N20 1.345 . S
C24 C25 1.371 1_455 S
C24 H27 0.931 . S
C25 C21 1.391 . S
C25 C24 1.371 1_655 S
C25 H32 0.930 . S
H26 C23 0.928 . S
H27 C24 0.931 . S
H28 C4 0.930 . S
H29 C1 0.930 . S
H30 C10 0.930 . S
H31 C22 0.929 . S
H32 C25 0.930 . S
C33 C34 1.351 . S
C33 N36 1.368 . S
C33 H38 0.931 . S
C34 C33 1.351 . S
C34 N35 1.373 . S
C34 H62 0.930 . S
N35 C34 1.373 . S
N35 C37 1.340 . S
N36 C33 1.368 . S
N36 C37 1.321 . S
N36 Co39 2.135 . S
C37 N35 1.340 . S
C37 N36 1.321 . S
C37 H61 0.930 . S
H38 C33 0.931 . S
Co39 N36 2.135 . S
Co39 N42 2.121 . S
Co39 O47 2.055 . S
Co39 O50 2.039 . S
Co39 N53 2.140 . S
C40 O41 1.227 . S
C40 O50 1.265 . S
O41 C40 1.227 . S
N42 Co39 2.121 . S
N42 C44 1.375 . S
N42 C45 1.313 . S
C43 C44 1.338 . S
C43 N46 1.377 . S
C43 H63 0.930 . S
C44 N42 1.375 . S
C44 C43 1.338 . S
C44 H48 0.931 . S
C45 N42 1.313 . S
C45 N46 1.344 . S
C45 H49 0.930 . S
N46 C43 1.377 . S
N46 C45 1.344 . S
O47 Co39 2.055 . S
O47 C51 1.253 . S
H48 C44 0.931 . S
H49 C45 0.930 . S
O50 Co39 2.039 . S
O50 C40 1.265 . S
C51 O47 1.253 . S
C51 O52 1.227 . S
O52 C51 1.227 . S
N53 Co39 2.140 . S
N53 C56 1.346 . S
N53 C57 1.345 . S
C54 C55 1.387 1_655 S
C54 C58 1.391 . S
C55 C54 1.387 1_455 S
C55 C56 1.369 . S
C55 H64 0.929 . S
C56 N53 1.346 . S
C56 C55 1.369 . S
C56 H59 0.928 . S
C57 N53 1.345 . S
C57 C58 1.371 1_455 S
C57 H60 0.931 . S
C58 C54 1.391 . S
C58 C57 1.371 1_655 S
C58 H65 0.930 . S
H59 C56 0.928 . S
H60 C57 0.931 . S
H61 C37 0.930 . S
H62 C34 0.930 . S
H63 C43 0.930 . S
H64 C55 0.929 . S
H65 C58 0.930 . S
C66 C67 1.351 . S
C66 N69 1.368 . S
C66 H71 0.931 . S
C67 C66 1.351 . S
C67 N68 1.373 . S
C67 H95 0.930 . S
N68 C67 1.373 . S
N68 C70 1.340 . S
N69 C66 1.368 . S
N69 C70 1.321 . S
N69 Co72 2.135 . S
C70 N68 1.340 . S
C70 N69 1.321 . S
C70 H94 0.930 . S
H71 C66 0.931 . S
Co72 N69 2.135 . S
Co72 N75 2.121 . S
Co72 O80 2.055 . S
Co72 O83 2.039 . S
Co72 N86 2.140 . S
C73 O74 1.227 . S
C73 O83 1.265 . S
O74 C73 1.227 . S
N75 Co72 2.121 . S
N75 C77 1.375 . S
N75 C78 1.313 . S
C76 C77 1.338 . S
C76 N79 1.377 . S
C76 H96 0.930 . S
C77 N75 1.375 . S
C77 C76 1.338 . S
C77 H81 0.931 . S
C78 N75 1.313 . S
C78 N79 1.344 . S
C78 H82 0.930 . S
N79 C76 1.377 . S
N79 C78 1.344 . S
O80 Co72 2.055 . S
O80 C84 1.253 . S
H81 C77 0.931 . S
H82 C78 0.930 . S
O83 Co72 2.039 . S
O83 C73 1.265 . S
C84 O80 1.253 . S
C84 O85 1.227 . S
O85 C84 1.227 . S
N86 Co72 2.140 . S
N86 C89 1.346 . S
N86 C90 1.345 . S
C87 C88 1.387 1_455 S
C87 C91 1.391 . S
C88 C87 1.387 1_655 S
C88 C89 1.369 . S
C88 H97 0.929 . S
C89 N86 1.346 . S
C89 C88 1.369 . S
C89 H92 0.928 . S
C90 N86 1.345 . S
C90 C91 1.371 1_655 S
C90 H93 0.931 . S
C91 C87 1.391 . S
C91 C90 1.371 1_455 S
C91 H98 0.930 . S
H92 C89 0.928 . S
H93 C90 0.931 . S
H94 C70 0.930 . S
H95 C67 0.930 . S
H96 C76 0.930 . S
H97 C88 0.929 . S
H98 C91 0.930 . S
C99 C100 1.351 . S
C99 N102 1.368 . S
C99 H104 0.931 . S
C100 C99 1.351 . S
C100 N101 1.373 . S
C100 H128 0.930 . S
N101 C100 1.373 . S
N101 C103 1.340 . S
N102 C99 1.368 . S
N102 C103 1.321 . S
N102 Co105 2.135 . S
C103 N101 1.340 . S
C103 N102 1.321 . S
C103 H127 0.930 . S
H104 C99 0.931 . S
Co105 N102 2.135 . S
Co105 N108 2.121 . S
Co105 O113 2.055 . S
Co105 O116 2.039 . S
Co105 N119 2.140 . S
C106 O107 1.227 . S
C106 O116 1.265 . S
O107 C106 1.227 . S
N108 Co105 2.121 . S
N108 C110 1.375 . S
N108 C111 1.313 . S
C109 C110 1.338 . S
C109 N112 1.377 . S
C109 H129 0.930 . S
C110 N108 1.375 . S
C110 C109 1.338 . S
C110 H114 0.931 . S
C111 N108 1.313 . S
C111 N112 1.344 . S
C111 H115 0.930 . S
N112 C109 1.377 . S
N112 C111 1.344 . S
O113 Co105 2.055 . S
O113 C117 1.253 . S
H114 C110 0.931 . S
H115 C111 0.930 . S
O116 Co105 2.039 . S
O116 C106 1.265 . S
C117 O113 1.253 . S
C117 O118 1.227 . S
O118 C117 1.227 . S
N119 Co105 2.140 . S
N119 C122 1.346 . S
N119 C123 1.345 . S
C120 C121 1.387 1_455 S
C120 C124 1.391 . S
C121 C120 1.387 1_655 S
C121 C122 1.369 . S
C121 H130 0.929 . S
C122 N119 1.346 . S
C122 C121 1.369 . S
C122 H125 0.928 . S
C123 N119 1.345 . S
C123 C124 1.371 1_655 S
C123 H126 0.931 . S
C124 C120 1.391 . S
C124 C123 1.371 1_455 S
C124 H131 0.930 . S
H125 C122 0.928 . S
H126 C123 0.931 . S
H127 C103 0.930 . S
H128 C100 0.930 . S
H129 C109 0.930 . S
H130 C121 0.929 . S
H131 C124 0.930 . S
C132 C133 1.351 . S
C132 N135 1.368 1_554 S
C132 H137 0.931 . S
C133 C132 1.351 . S
C133 N134 1.373 1_554 S
C133 H161 0.930 . S
N134 C133 1.373 1_556 S
N134 C136 1.340 . S
N135 C132 1.368 1_556 S
N135 C136 1.321 . S
N135 Co138 2.135 . S
C136 N134 1.340 . S
C136 N135 1.321 . S
C136 H160 0.930 . S
H137 C132 0.931 . S
Co138 N135 2.135 . S
Co138 N141 2.121 . S
Co138 O146 2.055 1_556 S
Co138 O149 2.039 . S
Co138 N152 2.140 . S
C139 O140 1.227 . S
C139 O149 1.265 . S
O140 C139 1.227 . S
N141 Co138 2.121 . S
N141 C143 1.375 . S
N141 C144 1.313 . S
C142 C143 1.338 . S
C142 N145 1.377 . S
C142 H162 0.930 . S
C143 N141 1.375 . S
C143 C142 1.338 . S
C143 H147 0.931 . S
C144 N141 1.313 . S
C144 N145 1.344 . S
C144 H148 0.930 1_556 S
N145 C142 1.377 . S
N145 C144 1.344 . S
O146 Co138 2.055 1_554 S
O146 C150 1.253 . S
H147 C143 0.931 . S
H148 C144 0.930 1_554 S
O149 Co138 2.039 . S
O149 C139 1.265 . S
C150 O146 1.253 . S
C150 O151 1.227 . S
O151 C150 1.227 . S
N152 Co138 2.140 . S
N152 C155 1.346 . S
N152 C156 1.345 . S
C153 C154 1.387 1_655 S
C153 C157 1.391 . S
C154 C153 1.387 1_455 S
C154 C155 1.369 . S
C154 H163 0.929 . S
C155 N152 1.346 . S
C155 C154 1.369 . S
C155 H158 0.928 . S
C156 N152 1.345 . S
C156 C157 1.371 1_455 S
C156 H159 0.931 . S
C157 C153 1.391 . S
C157 C156 1.371 1_655 S
C157 H164 0.930 . S
H158 C155 0.928 . S
H159 C156 0.931 . S
H160 C136 0.930 . S
H161 C133 0.930 . S
H162 C142 0.930 . S
H163 C154 0.929 . S
H164 C157 0.930 . S
C165 C166 1.351 . S
C165 N168 1.368 . S
C165 H170 0.931 . S
C166 C165 1.351 . S
C166 N167 1.373 . S
C166 H194 0.930 . S
N167 C166 1.373 . S
N167 C169 1.340 . S
N168 C165 1.368 . S
N168 C169 1.321 . S
N168 Co171 2.135 . S
C169 N167 1.340 . S
C169 N168 1.321 . S
C169 H193 0.930 . S
H170 C165 0.931 . S
Co171 N168 2.135 . S
Co171 N174 2.121 . S
Co171 O179 2.055 . S
Co171 O182 2.039 . S
Co171 N185 2.140 . S
C172 O173 1.227 . S
C172 O182 1.265 . S
O173 C172 1.227 . S
N174 Co171 2.121 . S
N174 C176 1.375 . S
N174 C177 1.313 . S
C175 C176 1.338 . S
C175 N178 1.377 . S
C175 H195 0.930 . S
C176 N174 1.375 . S
C176 C175 1.338 . S
C176 H180 0.931 . S
C177 N174 1.313 . S
C177 N178 1.344 . S
C177 H181 0.930 . S
N178 C175 1.377 . S
N178 C177 1.344 . S
O179 Co171 2.055 . S
O179 C183 1.253 . S
H180 C176 0.931 . S
H181 C177 0.930 . S
O182 Co171 2.039 . S
O182 C172 1.265 . S
C183 O179 1.253 . S
C183 O184 1.227 . S
O184 C183 1.227 . S
N185 Co171 2.140 . S
N185 C188 1.346 . S
N185 C189 1.345 . S
C186 C187 1.387 1_655 S
C186 C190 1.391 . S
C187 C186 1.387 1_455 S
C187 C188 1.369 . S
C187 H196 0.929 . S
C188 N185 1.346 . S
C188 C187 1.369 . S
C188 H191 0.928 . S
C189 N185 1.345 . S
C189 C190 1.371 1_455 S
C189 H192 0.931 . S
C190 C186 1.391 . S
C190 C189 1.371 1_655 S
C190 H197 0.930 . S
H191 C188 0.928 . S
H192 C189 0.931 . S
H193 C169 0.930 . S
H194 C166 0.930 . S
H195 C175 0.930 . S
H196 C187 0.929 . S
H197 C190 0.930 . S
C198 C199 1.351 . S
C198 N201 1.368 1_556 S
C198 H203 0.931 . S
C199 C198 1.351 . S
C199 N200 1.373 1_556 S
C199 H227 0.930 . S
N200 C199 1.373 1_554 S
N200 C202 1.340 . S
N201 C198 1.368 1_554 S
N201 C202 1.321 . S
N201 Co204 2.135 . S
C202 N200 1.340 . S
C202 N201 1.321 . S
C202 H226 0.930 . S
H203 C198 0.931 . S
Co204 N201 2.135 . S
Co204 N207 2.121 . S
Co204 O212 2.055 1_554 S
Co204 O215 2.039 . S
Co204 N218 2.140 . S
C205 O206 1.227 . S
C205 O215 1.265 . S
O206 C205 1.227 . S
N207 Co204 2.121 . S
N207 C209 1.375 . S
N207 C210 1.313 . S
C208 C209 1.338 . S
C208 N211 1.377 . S
C208 H228 0.930 . S
C209 N207 1.375 . S
C209 C208 1.338 . S
C209 H213 0.931 . S
C210 N207 1.313 . S
C210 N211 1.344 . S
C210 H214 0.930 1_554 S
N211 C208 1.377 . S
N211 C210 1.344 . S
O212 Co204 2.055 1_556 S
O212 C216 1.253 . S
H213 C209 0.931 . S
H214 C210 0.930 1_556 S
O215 Co204 2.039 . S
O215 C205 1.265 . S
C216 O212 1.253 . S
C216 O217 1.227 . S
O217 C216 1.227 . S
N218 Co204 2.140 . S
N218 C221 1.346 . S
N218 C222 1.345 . S
C219 C220 1.387 1_455 S
C219 C223 1.391 . S
C220 C219 1.387 1_655 S
C220 C221 1.369 . S
C220 H229 0.929 . S
C221 N218 1.346 . S
C221 C220 1.369 . S
C221 H224 0.928 . S
C222 N218 1.345 . S
C222 C223 1.371 1_655 S
C222 H225 0.931 . S
C223 C219 1.391 . S
C223 C222 1.371 1_455 S
C223 H230 0.930 . S
H224 C221 0.928 . S
H225 C222 0.931 . S
H226 C202 0.930 . S
H227 C199 0.930 . S
H228 C208 0.930 . S
H229 C220 0.929 . S
H230 C223 0.930 . S
C231 C232 1.351 . S
C231 N234 1.368 . S
C231 H236 0.931 . S
C232 C231 1.351 . S
C232 N233 1.373 . S
C232 H260 0.930 . S
N233 C232 1.373 . S
N233 C235 1.340 . S
N234 C231 1.368 . S
N234 C235 1.321 . S
N234 Co237 2.135 . S
C235 N233 1.340 . S
C235 N234 1.321 . S
C235 H259 0.930 . S
H236 C231 0.931 . S
Co237 N234 2.135 . S
Co237 N240 2.121 . S
Co237 O245 2.055 . S
Co237 O248 2.039 . S
Co237 N251 2.140 . S
C238 O239 1.227 . S
C238 O248 1.265 . S
O239 C238 1.227 . S
N240 Co237 2.121 . S
N240 C242 1.375 . S
N240 C243 1.313 . S
C241 C242 1.338 . S
C241 N244 1.377 . S
C241 H261 0.930 . S
C242 N240 1.375 . S
C242 C241 1.338 . S
C242 H246 0.931 . S
C243 N240 1.313 . S
C243 N244 1.344 . S
C243 H247 0.930 . S
N244 C241 1.377 . S
N244 C243 1.344 . S
O245 Co237 2.055 . S
O245 C249 1.253 . S
H246 C242 0.931 . S
H247 C243 0.930 . S
O248 Co237 2.039 . S
O248 C238 1.265 . S
C249 O245 1.253 . S
C249 O250 1.227 . S
O250 C249 1.227 . S
N251 Co237 2.140 . S
N251 C254 1.346 . S
N251 C255 1.345 . S
C252 C253 1.387 1_455 S
C252 C256 1.391 . S
C253 C252 1.387 1_655 S
C253 C254 1.369 . S
C253 H262 0.929 . S
C254 N251 1.346 . S
C254 C253 1.369 . S
C254 H257 0.928 . S
C255 N251 1.345 . S
C255 C256 1.371 1_655 S
C255 H258 0.931 . S
C256 C252 1.391 . S
C256 C255 1.371 1_455 S
C256 H263 0.930 . S
H257 C254 0.928 . S
H258 C255 0.931 . S
H259 C235 0.930 . S
H260 C232 0.930 . S
H261 C241 0.930 . S
H262 C253 0.929 . S
H263 C256 0.930 . S
C264 C265 1.351 . S
C264 N267 1.368 1_554 S
C264 H269 0.931 . S
C265 C264 1.351 . S
C265 N266 1.373 1_554 S
C265 H293 0.930 . S
N266 C265 1.373 1_556 S
N266 C268 1.340 . S
N267 C264 1.368 1_556 S
N267 C268 1.321 . S
N267 Co270 2.135 . S
C268 N266 1.340 . S
C268 N267 1.321 . S
C268 H292 0.930 . S
H269 C264 0.931 . S
Co270 N267 2.135 . S
Co270 N273 2.121 . S
Co270 O278 2.055 1_556 S
Co270 O281 2.039 . S
Co270 N284 2.140 . S
C271 O272 1.227 . S
C271 O281 1.265 . S
O272 C271 1.227 . S
N273 Co270 2.121 . S
N273 C275 1.375 . S
N273 C276 1.313 . S
C274 C275 1.338 . S
C274 N277 1.377 . S
C274 H294 0.930 . S
C275 N273 1.375 . S
C275 C274 1.338 . S
C275 H279 0.931 . S
C276 N273 1.313 . S
C276 N277 1.344 . S
C276 H280 0.930 1_556 S
N277 C274 1.377 . S
N277 C276 1.344 . S
O278 Co270 2.055 1_554 S
O278 C282 1.253 . S
H279 C275 0.931 . S
H280 C276 0.930 1_554 S
O281 Co270 2.039 . S
O281 C271 1.265 . S
C282 O278 1.253 . S
C282 O283 1.227 . S
O283 C282 1.227 . S
N284 Co270 2.140 . S
N284 C287 1.346 . S
N284 C288 1.345 . S
C285 C286 1.387 . S
C285 C289 1.391 . S
C286 C285 1.387 . S
C286 C287 1.369 . S
C286 H295 0.929 . S
C287 N284 1.346 . S
C287 C286 1.369 . S
C287 H290 0.928 . S
C288 N284 1.345 . S
C288 C289 1.371 . S
C288 H291 0.931 . S
C289 C285 1.391 . S
C289 C288 1.371 . S
C289 H296 0.930 . S
H290 C287 0.928 . S
H291 C288 0.931 . S
H292 C268 0.930 . S
H293 C265 0.930 . S
H294 C274 0.930 . S
H295 C286 0.929 . S
H296 C289 0.930 . S
C297 C298 1.351 . S
C297 N300 1.368 . S
C297 H302 0.931 . S
C298 C297 1.351 . S
C298 N299 1.373 . S
C298 H326 0.930 . S
N299 C298 1.373 . S
N299 C301 1.340 . S
N300 C297 1.368 . S
N300 C301 1.321 . S
N300 Co303 2.135 . S
C301 N299 1.340 . S
C301 N300 1.321 . S
C301 H325 0.930 . S
H302 C297 0.931 . S
Co303 N300 2.135 . S
Co303 N306 2.121 . S
Co303 O311 2.055 . S
Co303 O314 2.039 . S
Co303 N317 2.140 . S
C304 O305 1.227 . S
C304 O314 1.265 . S
O305 C304 1.227 . S
N306 Co303 2.121 . S
N306 C308 1.375 . S
N306 C309 1.313 . S
C307 C308 1.338 . S
C307 N310 1.377 . S
C307 H327 0.930 . S
C308 N306 1.375 . S
C308 C307 1.338 . S
C308 H312 0.931 . S
C309 N306 1.313 . S
C309 N310 1.344 . S
C309 H313 0.930 . S
N310 C307 1.377 . S
N310 C309 1.344 . S
O311 Co303 2.055 . S
O311 C315 1.253 . S
H312 C308 0.931 . S
H313 C309 0.930 . S
O314 Co303 2.039 . S
O314 C304 1.265 . S
C315 O311 1.253 . S
C315 O316 1.227 . S
O316 C315 1.227 . S
N317 Co303 2.140 . S
N317 C320 1.346 . S
N317 C321 1.345 . S
C318 C319 1.387 . S
C318 C322 1.391 . S
C319 C318 1.387 . S
C319 C320 1.369 . S
C319 H328 0.929 . S
C320 N317 1.346 . S
C320 C319 1.369 . S
C320 H323 0.928 . S
C321 N317 1.345 . S
C321 C322 1.371 . S
C321 H324 0.931 . S
C322 C318 1.391 . S
C322 C321 1.371 . S
C322 H329 0.930 . S
H323 C320 0.928 . S
H324 C321 0.931 . S
H325 C301 0.930 . S
H326 C298 0.930 . S
H327 C307 0.930 . S
H328 C319 0.929 . S
H329 C322 0.930 . S
C330 C331 1.351 . S
C330 N333 1.368 1_556 S
C330 H335 0.931 . S
C331 C330 1.351 . S
C331 N332 1.373 1_556 S
C331 H359 0.930 . S
N332 C331 1.373 1_554 S
N332 C334 1.340 . S
N333 C330 1.368 1_554 S
N333 C334 1.321 . S
N333 Co336 2.135 . S
C334 N332 1.340 . S
C334 N333 1.321 . S
C334 H358 0.930 . S
H335 C330 0.931 . S
Co336 N333 2.135 . S
Co336 N339 2.121 . S
Co336 O344 2.055 1_554 S
Co336 O347 2.039 . S
Co336 N350 2.140 . S
C337 O338 1.227 . S
C337 O347 1.265 . S
O338 C337 1.227 . S
N339 Co336 2.121 . S
N339 C341 1.375 . S
N339 C342 1.313 . S
C340 C341 1.338 . S
C340 N343 1.377 . S
C340 H360 0.930 . S
C341 N339 1.375 . S
C341 C340 1.338 . S
C341 H345 0.931 . S
C342 N339 1.313 . S
C342 N343 1.344 . S
C342 H346 0.930 1_554 S
N343 C340 1.377 . S
N343 C342 1.344 . S
O344 Co336 2.055 1_556 S
O344 C348 1.253 . S
H345 C341 0.931 . S
H346 C342 0.930 1_556 S
O347 Co336 2.039 . S
O347 C337 1.265 . S
C348 O344 1.253 . S
C348 O349 1.227 . S
O349 C348 1.227 . S
N350 Co336 2.140 . S
N350 C353 1.346 . S
N350 C354 1.345 . S
C351 C352 1.387 . S
C351 C355 1.391 . S
C352 C351 1.387 . S
C352 C353 1.369 . S
C352 H361 0.929 . S
C353 N350 1.346 . S
C353 C352 1.369 . S
C353 H356 0.928 . S
C354 N350 1.345 . S
C354 C355 1.371 . S
C354 H357 0.931 . S
C355 C351 1.391 . S
C355 C354 1.371 . S
C355 H362 0.930 . S
H356 C353 0.928 . S
H357 C354 0.931 . S
H358 C334 0.930 . S
H359 C331 0.930 . S
H360 C340 0.930 . S
H361 C352 0.929 . S
H362 C355 0.930 . S
C363 C364 1.351 . S
C363 N366 1.368 . S
C363 H368 0.931 . S
C364 C363 1.351 . S
C364 N365 1.373 . S
C364 H392 0.930 . S
N365 C364 1.373 . S
N365 C367 1.340 . S
N366 C363 1.368 . S
N366 C367 1.321 . S
N366 Co369 2.135 . S
C367 N365 1.340 . S
C367 N366 1.321 . S
C367 H391 0.930 . S
H368 C363 0.931 . S
Co369 N366 2.135 . S
Co369 N372 2.121 . S
Co369 O377 2.055 . S
Co369 O380 2.039 . S
Co369 N383 2.140 . S
C370 O371 1.227 . S
C370 O380 1.265 . S
O371 C370 1.227 . S
N372 Co369 2.121 . S
N372 C374 1.375 . S
N372 C375 1.313 . S
C373 C374 1.338 . S
C373 N376 1.377 . S
C373 H393 0.930 . S
C374 N372 1.375 . S
C374 C373 1.338 . S
C374 H378 0.931 . S
C375 N372 1.313 . S
C375 N376 1.344 . S
C375 H379 0.930 . S
N376 C373 1.377 . S
N376 C375 1.344 . S
O377 Co369 2.055 . S
O377 C381 1.253 . S
H378 C374 0.931 . S
H379 C375 0.930 . S
O380 Co369 2.039 . S
O380 C370 1.265 . S
C381 O377 1.253 . S
C381 O382 1.227 . S
O382 C381 1.227 . S
N383 Co369 2.140 . S
N383 C386 1.346 . S
N383 C387 1.345 . S
C384 C385 1.387 . S
C384 C388 1.391 . S
C385 C384 1.387 . S
C385 C386 1.369 . S
C385 H394 0.929 . S
C386 N383 1.346 . S
C386 C385 1.369 . S
C386 H389 0.928 . S
C387 N383 1.345 . S
C387 C388 1.371 . S
C387 H390 0.931 . S
C388 C384 1.391 . S
C388 C387 1.371 . S
C388 H395 0.930 . S
H389 C386 0.928 . S
H390 C387 0.931 . S
H391 C367 0.930 . S
H392 C364 0.930 . S
H393 C373 0.930 . S
H394 C385 0.929 . S
H395 C388 0.930 . S
C396 C397 1.351 . S
C396 N399 1.368 . S
C396 H401 0.931 . S
C397 C396 1.351 . S
C397 N398 1.373 . S
C397 H425 0.930 . S
N398 C397 1.373 . S
N398 C400 1.340 . S
N399 C396 1.368 . S
N399 C400 1.321 . S
N399 Co402 2.135 . S
C400 N398 1.340 . S
C400 N399 1.321 . S
C400 H424 0.930 . S
H401 C396 0.931 . S
Co402 N399 2.135 . S
Co402 N405 2.121 . S
Co402 O410 2.055 . S
Co402 O413 2.039 . S
Co402 N416 2.140 . S
C403 O404 1.227 . S
C403 O413 1.265 . S
O404 C403 1.227 . S
N405 Co402 2.121 . S
N405 C407 1.375 . S
N405 C408 1.313 . S
C406 C407 1.338 . S
C406 N409 1.377 . S
C406 H426 0.930 . S
C407 N405 1.375 . S
C407 C406 1.338 . S
C407 H411 0.931 . S
C408 N405 1.313 . S
C408 N409 1.344 . S
C408 H412 0.930 . S
N409 C406 1.377 . S
N409 C408 1.344 . S
O410 Co402 2.055 . S
O410 C414 1.253 . S
H411 C407 0.931 . S
H412 C408 0.930 . S
O413 Co402 2.039 . S
O413 C403 1.265 . S
C414 O410 1.253 . S
C414 O415 1.227 . S
O415 C414 1.227 . S
N416 Co402 2.140 . S
N416 C419 1.346 . S
N416 C420 1.345 . S
C417 C418 1.387 . S
C417 C421 1.391 . S
C418 C417 1.387 . S
C418 C419 1.369 . S
C418 H427 0.929 . S
C419 N416 1.346 . S
C419 C418 1.369 . S
C419 H422 0.928 . S
C420 N416 1.345 . S
C420 C421 1.371 . S
C420 H423 0.931 . S
C421 C417 1.391 . S
C421 C420 1.371 . S
C421 H428 0.930 . S
H422 C419 0.928 . S
H423 C420 0.931 . S
H424 C400 0.930 . S
H425 C397 0.930 . S
H426 C406 0.930 . S
H427 C418 0.929 . S
H428 C421 0.930 . S
C429 C430 1.351 . S
C429 N432 1.368 . S
C429 H434 0.931 . S
C430 C429 1.351 . S
C430 N431 1.373 . S
C430 H458 0.930 . S
N431 C430 1.373 . S
N431 C433 1.340 . S
N432 C429 1.368 . S
N432 C433 1.321 . S
N432 Co435 2.135 . S
C433 N431 1.340 . S
C433 N432 1.321 . S
C433 H457 0.930 . S
H434 C429 0.931 . S
Co435 N432 2.135 . S
Co435 N438 2.121 . S
Co435 O443 2.055 . S
Co435 O446 2.039 . S
Co435 N449 2.140 . S
C436 O437 1.227 . S
C436 O446 1.265 . S
O437 C436 1.227 . S
N438 Co435 2.121 . S
N438 C440 1.375 . S
N438 C441 1.313 . S
C439 C440 1.338 . S
C439 N442 1.377 . S
C439 H459 0.930 . S
C440 N438 1.375 . S
C440 C439 1.338 . S
C440 H444 0.931 . S
C441 N438 1.313 . S
C441 N442 1.344 . S
C441 H445 0.930 . S
N442 C439 1.377 . S
N442 C441 1.344 . S
O443 Co435 2.055 . S
O443 C447 1.253 . S
H444 C440 0.931 . S
H445 C441 0.930 . S
O446 Co435 2.039 . S
O446 C436 1.265 . S
C447 O443 1.253 . S
C447 O448 1.227 . S
O448 C447 1.227 . S
N449 Co435 2.140 . S
N449 C452 1.346 . S
N449 C453 1.345 . S
C450 C451 1.387 . S
C450 C454 1.391 . S
C451 C450 1.387 . S
C451 C452 1.369 . S
C451 H460 0.929 . S
C452 N449 1.346 . S
C452 C451 1.369 . S
C452 H455 0.928 . S
C453 N449 1.345 . S
C453 C454 1.371 . S
C453 H456 0.931 . S
C454 C450 1.391 . S
C454 C453 1.371 . S
C454 H461 0.930 . S
H455 C452 0.928 . S
H456 C453 0.931 . S
H457 C433 0.930 . S
H458 C430 0.930 . S
H459 C439 0.930 . S
H460 C451 0.929 . S
H461 C454 0.930 . S
C462 C463 1.351 . S
C462 N465 1.368 . S
C462 H467 0.931 . S
C463 C462 1.351 . S
C463 N464 1.373 . S
C463 H491 0.930 . S
N464 C463 1.373 . S
N464 C466 1.340 . S
N465 C462 1.368 . S
N465 C466 1.321 . S
N465 Co468 2.135 . S
C466 N464 1.340 . S
C466 N465 1.321 . S
C466 H490 0.930 . S
H467 C462 0.931 . S
Co468 N465 2.135 . S
Co468 N471 2.121 . S
Co468 O476 2.055 . S
Co468 O479 2.039 . S
Co468 N482 2.140 . S
C469 O470 1.227 . S
C469 O479 1.265 . S
O470 C469 1.227 . S
N471 Co468 2.121 . S
N471 C473 1.375 . S
N471 C474 1.313 . S
C472 C473 1.338 . S
C472 N475 1.377 . S
C472 H492 0.930 . S
C473 N471 1.375 . S
C473 C472 1.338 . S
C473 H477 0.931 . S
C474 N471 1.313 . S
C474 N475 1.344 . S
C474 H478 0.930 . S
N475 C472 1.377 . S
N475 C474 1.344 . S
O476 Co468 2.055 . S
O476 C480 1.253 . S
H477 C473 0.931 . S
H478 C474 0.930 . S
O479 Co468 2.039 . S
O479 C469 1.265 . S
C480 O476 1.253 . S
C480 O481 1.227 . S
O481 C480 1.227 . S
N482 Co468 2.140 . S
N482 C485 1.346 . S
N482 C486 1.345 . S
C483 C484 1.387 . S
C483 C487 1.391 . S
C484 C483 1.387 . S
C484 C485 1.369 . S
C484 H493 0.929 . S
C485 N482 1.346 . S
C485 C484 1.369 . S
C485 H488 0.928 . S
C486 N482 1.345 . S
C486 C487 1.371 . S
C486 H489 0.931 . S
C487 C483 1.391 . S
C487 C486 1.371 . S
C487 H494 0.930 . S
H488 C485 0.928 . S
H489 C486 0.931 . S
H490 C466 0.930 . S
H491 C463 0.930 . S
H492 C472 0.930 . S
H493 C484 0.929 . S
H494 C487 0.930 . S
C495 C496 1.351 . S
C495 N498 1.368 . S
C495 H500 0.931 . S
C496 C495 1.351 . S
C496 N497 1.373 . S
C496 H524 0.930 . S
N497 C496 1.373 . S
N497 C499 1.340 . S
N498 C495 1.368 . S
N498 C499 1.321 . S
N498 Co501 2.135 . S
C499 N497 1.340 . S
C499 N498 1.321 . S
C499 H523 0.930 . S
H500 C495 0.931 . S
Co501 N498 2.135 . S
Co501 N504 2.121 . S
Co501 O509 2.055 . S
Co501 O512 2.039 . S
Co501 N515 2.140 . S
C502 O503 1.227 . S
C502 O512 1.265 . S
O503 C502 1.227 . S
N504 Co501 2.121 . S
N504 C506 1.375 . S
N504 C507 1.313 . S
C505 C506 1.338 . S
C505 N508 1.377 . S
C505 H525 0.930 . S
C506 N504 1.375 . S
C506 C505 1.338 . S
C506 H510 0.931 . S
C507 N504 1.313 . S
C507 N508 1.344 . S
C507 H511 0.930 . S
N508 C505 1.377 . S
N508 C507 1.344 . S
O509 Co501 2.055 . S
O509 C513 1.253 . S
H510 C506 0.931 . S
H511 C507 0.930 . S
O512 Co501 2.039 . S
O512 C502 1.265 . S
C513 O509 1.253 . S
C513 O514 1.227 . S
O514 C513 1.227 . S
N515 Co501 2.140 . S
N515 C518 1.346 . S
N515 C519 1.345 . S
C516 C517 1.387 . S
C516 C520 1.391 . S
C517 C516 1.387 . S
C517 C518 1.369 . S
C517 H526 0.929 . S
C518 N515 1.346 . S
C518 C517 1.369 . S
C518 H521 0.928 . S
C519 N515 1.345 . S
C519 C520 1.371 . S
C519 H522 0.931 . S
C520 C516 1.391 . S
C520 C519 1.371 . S
C520 H527 0.930 . S
H521 C518 0.928 . S
H522 C519 0.931 . S
H523 C499 0.930 . S
H524 C496 0.930 . S
H525 C505 0.930 . S
H526 C517 0.929 . S
H527 C520 0.930 . S
H528 C546 0.951 . S
H529 C548 0.951 . S
H530 C550 0.950 . S
H531 C551 0.950 . S
H532 C553 0.950 . S
H533 C556 0.950 . S
H534 C557 0.950 . S
H535 C559 0.950 . S
H536 C560 0.950 . S
H537 C561 0.951 . S
H538 C563 0.951 . S
H539 C565 0.950 . S
H540 C566 0.950 . S
H541 C568 0.950 . S
H542 C571 0.950 . S
H543 C572 0.950 . S
H544 C574 0.950 . S
H545 C575 0.950 . S
C546 H528 0.951 . S
C546 C547 1.366 . S
C546 C548 1.388 . S
C547 C546 1.366 . S
C547 C551 1.385 . S
C548 H529 0.951 . S
C548 C546 1.388 . S
C548 C549 1.366 . S
C549 C548 1.366 . S
C549 C550 1.414 . S
C549 C552 1.499 . S
C550 H530 0.950 . S
C550 C549 1.414 . S
C550 C551 1.374 . S
C551 H531 0.950 . S
C551 C547 1.385 . S
C551 C550 1.374 . S
C552 C549 1.499 . S
C552 C553 1.373 . S
C552 C554 1.389 . S
C553 H532 0.950 . S
C553 C552 1.373 . S
C553 C569 1.377 . S
C554 C552 1.389 . S
C554 C555 1.524 . S
C554 C568 1.377 . S
C555 C554 1.524 . S
C555 C556 1.397 . S
C555 C560 1.363 . S
C556 H533 0.950 . S
C556 C555 1.397 . S
C556 C557 1.334 . S
C557 H534 0.950 . S
C557 C556 1.334 . S
C557 C558 1.287 . S
C558 C557 1.287 . S
C558 C559 1.524 . S
C558 H577 0.913 . S
C559 H535 0.950 . S
C559 C558 1.524 . S
C559 C560 1.415 . S
C560 H536 0.950 . S
C560 C555 1.363 . S
C560 C559 1.415 . S
C561 H537 0.951 . S
C561 C562 1.366 . S
C561 C563 1.388 . S
C562 C561 1.366 . S
C562 C566 1.385 . S
C563 H538 0.951 . S
C563 C561 1.388 . S
C563 C564 1.366 . S
C564 C563 1.366 . S
C564 C565 1.414 . S
C564 C567 1.499 . S
C565 H539 0.950 . S
C565 C564 1.414 . S
C565 C566 1.374 . S
C566 H540 0.950 . S
C566 C562 1.385 . S
C566 C565 1.374 . S
C567 C564 1.499 . S
C567 C568 1.373 . S
C567 C569 1.389 . S
C568 H541 0.950 . S
C568 C554 1.377 . S
C568 C567 1.373 . S
C569 C553 1.377 . S
C569 C567 1.389 . S
C569 C570 1.524 . S
C570 C569 1.524 . S
C570 C571 1.397 . S
C570 C575 1.363 . S
C571 H542 0.950 . S
C571 C570 1.397 . S
C571 C572 1.334 . S
C572 H543 0.950 . S
C572 C571 1.334 . S
C572 C573 1.287 . S
C573 C572 1.287 . S
C573 C574 1.524 . S
C573 H576 0.999 . S
C574 H544 0.950 . S
C574 C573 1.524 . S
C574 C575 1.415 . S
C575 H545 0.950 . S
C575 C570 1.363 . S
C575 C574 1.415 . S
H576 C573 0.999 . S
H577 C558 0.913 . S
H578 C596 0.951 . S
H579 C598 0.951 1_455 S
H580 C600 0.950 . S
H581 C601 0.950 . S
H582 C603 0.950 . S
H583 C606 0.950 . S
H584 C607 0.950 . S
H585 C609 0.950 . S
H586 C610 0.950 . S
H587 C611 0.951 . S
H588 C613 0.951 1_655 S
H589 C615 0.950 . S
H590 C616 0.950 . S
H591 C618 0.950 . S
H592 C621 0.950 . S
H593 C622 0.950 . S
H594 C624 0.950 . S
H595 C625 0.950 . S
C596 H578 0.951 . S
C596 C597 1.366 . S
C596 C598 1.388 . S
C597 C596 1.366 . S
C597 C601 1.385 . S
C598 H579 0.951 1_655 S
C598 C596 1.388 . S
C598 C599 1.366 . S
C599 C598 1.366 . S
C599 C600 1.414 . S
C599 C602 1.499 . S
C600 H580 0.950 . S
C600 C599 1.414 . S
C600 C601 1.374 . S
C601 H581 0.950 . S
C601 C597 1.385 . S
C601 C600 1.374 . S
C602 C599 1.499 . S
C602 C603 1.373 . S
C602 C604 1.389 1_655 S
C603 H582 0.950 . S
C603 C602 1.373 . S
C603 C619 1.377 1_565 S
C604 C602 1.389 1_455 S
C604 C605 1.524 . S
C604 C618 1.377 1_565 S
C605 C604 1.524 . S
C605 C606 1.397 . S
C605 C610 1.363 . S
C606 H583 0.950 . S
C606 C605 1.397 . S
C606 C607 1.334 . S
C607 H584 0.950 . S
C607 C606 1.334 . S
C607 C608 1.287 . S
C608 C607 1.287 . S
C608 C609 1.524 . S
C608 H627 0.913 . S
C609 H585 0.950 . S
C609 C608 1.524 . S
C609 C610 1.415 . S
C610 H586 0.950 . S
C610 C605 1.363 . S
C610 C609 1.415 . S
C611 H587 0.951 . S
C611 C612 1.366 . S
C611 C613 1.388 . S
C612 C611 1.366 . S
C612 C616 1.385 . S
C613 H588 0.951 1_455 S
C613 C611 1.388 . S
C613 C614 1.366 . S
C614 C613 1.366 . S
C614 C615 1.414 . S
C614 C617 1.499 . S
C615 H589 0.950 . S
C615 C614 1.414 . S
C615 C616 1.374 . S
C616 H590 0.950 . S
C616 C612 1.385 . S
C616 C615 1.374 . S
C617 C614 1.499 . S
C617 C618 1.373 . S
C617 C619 1.389 1_455 S
C618 H591 0.950 . S
C618 C604 1.377 1_545 S
C618 C617 1.373 . S
C619 C603 1.377 1_545 S
C619 C617 1.389 1_655 S
C619 C620 1.524 . S
C620 C619 1.524 . S
C620 C621 1.397 . S
C620 C625 1.363 . S
C621 H592 0.950 . S
C621 C620 1.397 . S
C621 C622 1.334 . S
C622 H593 0.950 . S
C622 C621 1.334 . S
C622 C623 1.287 . S
C623 C622 1.287 . S
C623 C624 1.524 . S
C623 H626 0.999 . S
C624 H594 0.950 . S
C624 C623 1.524 . S
C624 C625 1.415 . S
C625 H595 0.950 . S
C625 C620 1.363 . S
C625 C624 1.415 . S
H626 C623 0.999 . S
H627 C608 0.913 . S
H628 C646 0.951 . S
H629 C648 0.951 . S
H630 C650 0.950 . S
H631 C651 0.950 . S
H632 C653 0.950 . S
H633 C656 0.950 . S
H634 C657 0.950 . S
H635 C659 0.950 . S
H636 C660 0.950 . S
H637 C661 0.951 . S
H638 C663 0.951 . S
H639 C665 0.950 . S
H640 C666 0.950 . S
H641 C668 0.950 . S
H642 C671 0.950 . S
H643 C672 0.950 . S
H644 C674 0.950 . S
H645 C675 0.950 . S
C646 H628 0.951 . S
C646 C647 1.366 . S
C646 C648 1.388 . S
C647 C646 1.366 . S
C647 C651 1.385 . S
C648 H629 0.951 . S
C648 C646 1.388 . S
C648 C649 1.366 . S
C649 C648 1.366 . S
C649 C650 1.414 . S
C649 C652 1.499 . S
C650 H630 0.950 . S
C650 C649 1.414 . S
C650 C651 1.374 . S
C651 H631 0.950 . S
C651 C647 1.385 . S
C651 C650 1.374 . S
C652 C649 1.499 . S
C652 C653 1.373 . S
C652 C654 1.389 . S
C653 H632 0.950 . S
C653 C652 1.373 . S
C653 C669 1.377 1_545 S
C654 C652 1.389 . S
C654 C655 1.524 . S
C654 C668 1.377 1_545 S
C655 C654 1.524 . S
C655 C656 1.397 . S
C655 C660 1.363 1_545 S
C656 H633 0.950 . S
C656 C655 1.397 . S
C656 C657 1.334 . S
C657 H634 0.950 . S
C657 C656 1.334 . S
C657 C658 1.287 . S
C658 C657 1.287 . S
C658 C659 1.524 1_545 S
C658 H677 0.913 . S
C659 H635 0.950 . S
C659 C658 1.524 1_565 S
C659 C660 1.415 . S
C660 H636 0.950 . S
C660 C655 1.363 1_565 S
C660 C659 1.415 . S
C661 H637 0.951 . S
C661 C662 1.366 . S
C661 C663 1.388 . S
C662 C661 1.366 . S
C662 C666 1.385 . S
C663 H638 0.951 . S
C663 C661 1.388 . S
C663 C664 1.366 . S
C664 C663 1.366 . S
C664 C665 1.414 . S
C664 C667 1.499 . S
C665 H639 0.950 . S
C665 C664 1.414 . S
C665 C666 1.374 . S
C666 H640 0.950 . S
C666 C662 1.385 . S
C666 C665 1.374 . S
C667 C664 1.499 . S
C667 C668 1.373 . S
C667 C669 1.389 . S
C668 H641 0.950 . S
C668 C654 1.377 1_565 S
C668 C667 1.373 . S
C669 C653 1.377 1_565 S
C669 C667 1.389 . S
C669 C670 1.524 . S
C670 C669 1.524 . S
C670 C671 1.397 . S
C670 C675 1.363 1_565 S
C671 H642 0.950 . S
C671 C670 1.397 . S
C671 C672 1.334 . S
C672 H643 0.950 . S
C672 C671 1.334 . S
C672 C673 1.287 . S
C673 C672 1.287 . S
C673 C674 1.524 1_565 S
C673 H676 0.999 . S
C674 H644 0.950 . S
C674 C673 1.524 1_545 S
C674 C675 1.415 . S
C675 H645 0.950 . S
C675 C670 1.363 1_545 S
C675 C674 1.415 . S
H676 C673 0.999 . S
H677 C658 0.913 . S
H678 C696 0.951 1_455 S
H679 C698 0.952 1_455 S
H680 C700 0.950 . S
H681 C701 0.950 . S
H682 C703 0.950 . S
H683 C706 0.950 1_655 S
H684 C707 0.950 . S
H685 C709 0.950 . S
H686 C710 0.950 . S
H687 C711 0.951 1_655 S
H688 C713 0.952 1_655 S
H689 C715 0.950 . S
H690 C716 0.950 . S
H691 C718 0.950 . S
H692 C721 0.950 1_455 S
H693 C722 0.950 . S
H694 C724 0.950 . S
H695 C725 0.950 . S
C696 H678 0.951 1_655 S
C696 C697 1.366 . S
C696 C698 1.388 . S
C697 C696 1.366 . S
C697 C701 1.385 . S
C698 H679 0.952 1_655 S
C698 C696 1.388 . S
C698 C699 1.365 . S
C699 C698 1.365 . S
C699 C700 1.414 . S
C699 C702 1.499 . S
C700 H680 0.950 . S
C700 C699 1.414 . S
C700 C701 1.374 . S
C701 H681 0.950 . S
C701 C697 1.385 . S
C701 C700 1.374 . S
C702 C699 1.499 . S
C702 C703 1.373 . S
C702 C704 1.389 1_655 S
C703 H682 0.950 . S
C703 C702 1.373 . S
C703 C719 1.377 . S
C704 C702 1.389 1_455 S
C704 C705 1.524 . S
C704 C718 1.377 . S
C705 C704 1.524 . S
C705 C706 1.397 . S
C705 C710 1.363 . S
C706 H683 0.950 1_455 S
C706 C705 1.397 . S
C706 C707 1.334 . S
C707 H684 0.950 . S
C707 C706 1.334 . S
C707 C708 1.287 . S
C708 C707 1.287 . S
C708 C709 1.524 . S
C708 H727 0.913 . S
C709 H685 0.950 . S
C709 C708 1.524 . S
C709 C710 1.415 . S
C710 H686 0.950 . S
C710 C705 1.363 . S
C710 C709 1.415 . S
C711 H687 0.951 1_455 S
C711 C712 1.366 . S
C711 C713 1.387 . S
C712 C711 1.366 . S
C712 C716 1.385 . S
C713 H688 0.952 1_455 S
C713 C711 1.387 . S
C713 C714 1.365 . S
C714 C713 1.365 . S
C714 C715 1.414 . S
C714 C717 1.499 . S
C715 H689 0.950 . S
C715 C714 1.414 . S
C715 C716 1.374 . S
C716 H690 0.950 . S
C716 C712 1.385 . S
C716 C715 1.374 . S
C717 C714 1.499 . S
C717 C718 1.373 . S
C717 C719 1.389 1_455 S
C718 H691 0.950 . S
C718 C704 1.377 . S
C718 C717 1.373 . S
C719 C703 1.377 . S
C719 C717 1.389 1_655 S
C719 C720 1.524 . S
C720 C719 1.524 . S
C720 C721 1.397 . S
C720 C725 1.363 . S
C721 H692 0.950 1_655 S
C721 C720 1.397 . S
C721 C722 1.334 . S
C722 H693 0.950 . S
C722 C721 1.334 . S
C722 C723 1.287 . S
C723 C722 1.287 . S
C723 C724 1.524 . S
C723 H726 0.999 . S
C724 H694 0.950 . S
C724 C723 1.524 . S
C724 C725 1.415 . S
C725 H695 0.950 . S
C725 C720 1.363 . S
C725 C724 1.415 . S
H726 C723 0.999 . S
H727 C708 0.913 . S
H728 C746 0.951 . S
H729 C748 0.951 . S
H730 C750 0.950 . S
H731 C751 0.950 . S
H732 C753 0.950 . S
H733 C756 0.950 . S
H734 C757 0.950 . S
H735 C759 0.950 . S
H736 C760 0.950 . S
H737 C761 0.951 . S
H738 C763 0.951 . S
H739 C765 0.950 . S
H740 C766 0.950 . S
H741 C768 0.950 . S
H742 C771 0.950 . S
H743 C772 0.950 . S
H744 C774 0.950 . S
H745 C775 0.950 . S
C746 H728 0.951 . S
C746 C747 1.366 . S
C746 C748 1.388 . S
C747 C746 1.366 . S
C747 C751 1.385 . S
C748 H729 0.951 . S
C748 C746 1.388 . S
C748 C749 1.366 . S
C749 C748 1.366 . S
C749 C750 1.414 . S
C749 C752 1.499 . S
C750 H730 0.950 . S
C750 C749 1.414 . S
C750 C751 1.374 . S
C751 H731 0.950 . S
C751 C747 1.385 . S
C751 C750 1.374 . S
C752 C749 1.499 . S
C752 C753 1.373 . S
C752 C754 1.389 . S
C753 H732 0.950 . S
C753 C752 1.373 . S
C753 C769 1.377 . S
C754 C752 1.389 . S
C754 C755 1.524 . S
C754 C768 1.377 . S
C755 C754 1.524 . S
C755 C756 1.397 . S
C755 C760 1.363 . S
C756 H733 0.950 . S
C756 C755 1.397 . S
C756 C757 1.334 . S
C757 H734 0.950 . S
C757 C756 1.334 . S
C757 C758 1.287 . S
C758 C757 1.287 . S
C758 C759 1.524 . S
C758 H777 0.913 . S
C759 H735 0.950 . S
C759 C758 1.524 . S
C759 C760 1.415 . S
C760 H736 0.950 . S
C760 C755 1.363 . S
C760 C759 1.415 . S
C761 H737 0.951 . S
C761 C762 1.366 . S
C761 C763 1.388 . S
C762 C761 1.366 . S
C762 C766 1.385 . S
C763 H738 0.951 . S
C763 C761 1.388 . S
C763 C764 1.366 . S
C764 C763 1.366 . S
C764 C765 1.414 . S
C764 C767 1.499 . S
C765 H739 0.950 . S
C765 C764 1.414 . S
C765 C766 1.374 . S
C766 H740 0.950 . S
C766 C762 1.385 . S
C766 C765 1.374 . S
C767 C764 1.499 . S
C767 C768 1.373 . S
C767 C769 1.389 . S
C768 H741 0.950 . S
C768 C754 1.377 . S
C768 C767 1.373 . S
C769 C753 1.377 . S
C769 C767 1.389 . S
C769 C770 1.524 . S
C770 C769 1.524 . S
C770 C771 1.397 . S
C770 C775 1.363 . S
C771 H742 0.950 . S
C771 C770 1.397 . S
C771 C772 1.334 . S
C772 H743 0.950 . S
C772 C771 1.334 . S
C772 C773 1.287 . S
C773 C772 1.287 . S
C773 C774 1.524 . S
C773 H776 0.999 . S
C774 H744 0.950 . S
C774 C773 1.524 . S
C774 C775 1.415 . S
C775 H745 0.950 . S
C775 C770 1.363 . S
C775 C774 1.415 . S
H776 C773 0.999 . S
H777 C758 0.913 . S
H778 C796 0.951 . S
H779 C798 0.951 . S
H780 C800 0.950 . S
H781 C801 0.950 . S
H782 C803 0.951 . S
H783 C806 0.950 . S
H784 C807 0.950 . S
H785 C809 0.950 . S
H786 C810 0.950 . S
H787 C811 0.951 . S
H788 C813 0.951 . S
H789 C815 0.950 . S
H790 C816 0.950 . S
H791 C818 0.951 . S
H792 C821 0.950 . S
H793 C822 0.950 . S
H794 C824 0.950 . S
H795 C825 0.950 . S
C796 H778 0.951 . S
C796 C797 1.366 . S
C796 C798 1.388 . S
C797 C796 1.366 . S
C797 C801 1.385 . S
C798 H779 0.951 . S
C798 C796 1.388 . S
C798 C799 1.366 . S
C799 C798 1.366 . S
C799 C800 1.414 . S
C799 C802 1.499 . S
C800 H780 0.950 . S
C800 C799 1.414 . S
C800 C801 1.374 . S
C801 H781 0.950 . S
C801 C797 1.385 . S
C801 C800 1.374 . S
C802 C799 1.499 . S
C802 C803 1.377 . S
C802 C804 1.389 . S
C803 H782 0.951 . S
C803 C802 1.377 . S
C803 C819 1.373 1_565 S
C804 C802 1.389 . S
C804 C805 1.524 . S
C804 C818 1.373 1_565 S
C805 C804 1.524 . S
C805 C806 1.397 . S
C805 C810 1.363 . S
C806 H783 0.950 . S
C806 C805 1.397 . S
C806 C807 1.334 . S
C807 H784 0.950 . S
C807 C806 1.334 . S
C807 C808 1.287 . S
C808 C807 1.287 . S
C808 C809 1.524 . S
C808 H827 0.913 . S
C809 H785 0.950 . S
C809 C808 1.524 . S
C809 C810 1.415 . S
C810 H786 0.950 . S
C810 C805 1.363 . S
C810 C809 1.415 . S
C811 H787 0.951 . S
C811 C812 1.366 . S
C811 C813 1.388 . S
C812 C811 1.366 . S
C812 C816 1.385 . S
C813 H788 0.951 . S
C813 C811 1.388 . S
C813 C814 1.366 . S
C814 C813 1.366 . S
C814 C815 1.414 . S
C814 C817 1.499 . S
C815 H789 0.950 . S
C815 C814 1.414 . S
C815 C816 1.374 . S
C816 H790 0.950 . S
C816 C812 1.385 . S
C816 C815 1.374 . S
C817 C814 1.499 . S
C817 C818 1.377 . S
C817 C819 1.389 . S
C818 H791 0.951 . S
C818 C804 1.373 1_545 S
C818 C817 1.377 . S
C819 C803 1.373 1_545 S
C819 C817 1.389 . S
C819 C820 1.524 . S
C820 C819 1.524 . S
C820 C821 1.397 . S
C820 C825 1.363 . S
C821 H792 0.950 . S
C821 C820 1.397 . S
C821 C822 1.334 . S
C822 H793 0.950 . S
C822 C821 1.334 . S
C822 C823 1.287 . S
C823 C822 1.287 . S
C823 C824 1.524 . S
C823 H826 0.999 . S
C824 H794 0.950 . S
C824 C823 1.524 . S
C824 C825 1.415 . S
C825 H795 0.950 . S
C825 C820 1.363 . S
C825 C824 1.415 . S
H826 C823 0.999 . S
H827 C808 0.913 . S
H828 C846 0.951 . S
H829 C848 0.951 . S
H830 C850 0.950 . S
H831 C851 0.950 1_455 S
H832 C853 0.950 . S
H833 C856 0.950 . S
H834 C857 0.950 . S
H835 C859 0.950 . S
H836 C860 0.950 . S
H837 C861 0.951 . S
H838 C863 0.951 . S
H839 C865 0.950 . S
H840 C866 0.950 1_655 S
H841 C868 0.950 . S
H842 C871 0.950 . S
H843 C872 0.950 . S
H844 C874 0.950 . S
H845 C875 0.950 . S
C846 H828 0.951 . S
C846 C847 1.366 . S
C846 C848 1.388 . S
C847 C846 1.366 . S
C847 C851 1.385 . S
C848 H829 0.951 . S
C848 C846 1.388 . S
C848 C849 1.366 . S
C849 C848 1.366 . S
C849 C850 1.414 1_655 S
C849 C852 1.499 . S
C850 H830 0.950 . S
C850 C849 1.414 1_455 S
C850 C851 1.374 1_455 S
C851 H831 0.950 1_655 S
C851 C847 1.385 . S
C851 C850 1.374 1_655 S
C852 C849 1.499 . S
C852 C853 1.373 1_655 S
C852 C854 1.389 . S
C853 H832 0.950 . S
C853 C852 1.373 1_455 S
C853 C869 1.377 . S
C854 C852 1.389 . S
C854 C855 1.524 . S
C854 C868 1.377 . S
C855 C854 1.524 . S
C855 C856 1.397 . S
C855 C860 1.363 . S
C856 H833 0.950 . S
C856 C855 1.397 . S
C856 C857 1.334 . S
C857 H834 0.950 . S
C857 C856 1.334 . S
C857 C858 1.287 . S
C858 C857 1.287 . S
C858 C859 1.524 . S
C858 H877 0.913 . S
C859 H835 0.950 . S
C859 C858 1.524 . S
C859 C860 1.415 . S
C860 H836 0.950 . S
C860 C855 1.363 . S
C860 C859 1.415 . S
C861 H837 0.951 . S
C861 C862 1.366 . S
C861 C863 1.388 . S
C862 C861 1.366 . S
C862 C866 1.385 . S
C863 H838 0.951 . S
C863 C861 1.388 . S
C863 C864 1.366 . S
C864 C863 1.366 . S
C864 C865 1.414 1_455 S
C864 C867 1.499 . S
C865 H839 0.950 . S
C865 C864 1.414 1_655 S
C865 C866 1.374 1_655 S
C866 H840 0.950 1_455 S
C866 C862 1.385 . S
C866 C865 1.374 1_455 S
C867 C864 1.499 . S
C867 C868 1.373 1_455 S
C867 C869 1.389 . S
C868 H841 0.950 . S
C868 C854 1.377 . S
C868 C867 1.373 1_655 S
C869 C853 1.377 . S
C869 C867 1.389 . S
C869 C870 1.524 . S
C870 C869 1.524 . S
C870 C871 1.397 . S
C870 C875 1.363 . S
C871 H842 0.950 . S
C871 C870 1.397 . S
C871 C872 1.334 . S
C872 H843 0.950 . S
C872 C871 1.334 . S
C872 C873 1.287 . S
C873 C872 1.287 . S
C873 C874 1.524 . S
C873 H876 0.999 . S
C874 H844 0.950 . S
C874 C873 1.524 . S
C874 C875 1.415 . S
C875 H845 0.950 . S
C875 C870 1.363 . S
C875 C874 1.415 . S
H876 C873 0.999 . S
H877 C858 0.913 . S
H878 C896 0.951 1_556 S
H879 C898 0.951 . S
H880 C900 0.950 . S
H881 C901 0.950 . S
H882 C903 0.950 . S
H883 C906 0.950 . S
H884 C907 0.950 . S
H885 C909 0.950 1_556 S
H886 C910 0.971 . S
H887 C911 0.951 1_554 S
H888 C913 0.951 . S
H889 C915 0.950 . S
H890 C916 0.950 . S
H891 C918 0.950 . S
H892 C921 0.950 . S
H893 C922 0.950 . S
H894 C924 0.950 1_554 S
H895 C925 0.972 . S
C896 H878 0.951 1_554 S
C896 C897 1.366 . S
C896 C898 1.388 1_554 S
C897 C896 1.366 . S
C897 C901 1.385 . S
C898 H879 0.951 . S
C898 C896 1.388 1_556 S
C898 C899 1.366 1_556 S
C899 C898 1.366 1_554 S
C899 C900 1.414 . S
C899 C902 1.499 . S
C900 H880 0.950 . S
C900 C899 1.414 . S
C900 C901 1.374 . S
C901 H881 0.950 . S
C901 C897 1.385 . S
C901 C900 1.374 . S
C902 C899 1.499 . S
C902 C903 1.375 . S
C902 C904 1.389 . S
C903 H882 0.950 . S
C903 C902 1.375 . S
C903 C919 1.374 1_554 S
C904 C902 1.389 . S
C904 C905 1.524 . S
C904 C918 1.374 1_554 S
C905 C904 1.524 . S
C905 C906 1.397 . S
C905 C910 1.346 1_554 S
C906 H883 0.950 . S
C906 C905 1.397 . S
C906 C907 1.334 . S
C907 H884 0.950 . S
C907 C906 1.334 . S
C907 C908 1.287 . S
C908 C907 1.287 . S
C908 C909 1.524 . S
C908 H927 0.913 . S
C909 H885 0.950 1_554 S
C909 C908 1.524 . S
C909 C910 1.411 1_554 S
C910 H886 0.971 . S
C910 C905 1.346 1_556 S
C910 C909 1.411 1_556 S
C911 H887 0.951 1_556 S
C911 C912 1.366 . S
C911 C913 1.388 1_556 S
C912 C911 1.366 . S
C912 C916 1.385 . S
C913 H888 0.951 . S
C913 C911 1.388 1_554 S
C913 C914 1.366 1_554 S
C914 C913 1.366 1_556 S
C914 C915 1.414 . S
C914 C917 1.499 . S
C915 H889 0.950 . S
C915 C914 1.414 . S
C915 C916 1.374 . S
C916 H890 0.950 . S
C916 C912 1.385 . S
C916 C915 1.374 . S
C917 C914 1.499 . S
C917 C918 1.375 . S
C917 C919 1.389 . S
C918 H891 0.950 . S
C918 C904 1.374 1_556 S
C918 C917 1.375 . S
C919 C903 1.374 1_556 S
C919 C917 1.389 . S
C919 C920 1.524 . S
C920 C919 1.524 . S
C920 C921 1.397 . S
C920 C925 1.346 1_556 S
C921 H892 0.950 . S
C921 C920 1.397 . S
C921 C922 1.334 . S
C922 H893 0.950 . S
C922 C921 1.334 . S
C922 C923 1.287 . S
C923 C922 1.287 . S
C923 C924 1.524 . S
C923 H926 0.999 . S
C924 H894 0.950 1_556 S
C924 C923 1.524 . S
C924 C925 1.411 1_556 S
C925 H895 0.972 . S
C925 C920 1.346 1_554 S
C925 C924 1.411 1_554 S
H926 C923 0.999 . S
H927 C908 0.913 . S
H928 C946 0.955 . S
H929 C948 0.951 1_455 S
H930 C950 0.950 1_556 S
H931 C951 0.949 . S
H932 C953 0.950 . S
H933 C956 0.950 . S
H934 C957 0.950 . S
H935 C959 0.950 . S
H936 C960 0.950 . S
H937 C961 0.955 . S
H938 C963 0.951 1_655 S
H939 C965 0.950 1_554 S
H940 C966 0.949 . S
H941 C968 0.950 . S
H942 C971 0.950 . S
H943 C972 0.950 . S
H944 C974 0.950 . S
H945 C975 0.950 . S
C946 H928 0.955 . S
C946 C947 1.366 . S
C946 C948 1.388 . S
C947 C946 1.366 . S
C947 C951 1.385 . S
C948 H929 0.951 1_655 S
C948 C946 1.388 . S
C948 C949 1.366 . S
C949 C948 1.366 . S
C949 C950 1.414 . S
C949 C952 1.499 . S
C950 H930 0.950 1_554 S
C950 C949 1.414 . S
C950 C951 1.374 . S
C951 H931 0.949 . S
C951 C947 1.385 . S
C951 C950 1.374 . S
C952 C949 1.499 . S
C952 C953 1.373 1_554 S
C952 C954 1.388 1_655 S
C953 H932 0.950 . S
C953 C952 1.373 1_556 S
C953 C969 1.378 . S
C954 C952 1.388 1_455 S
C954 C955 1.524 1_455 S
C954 C968 1.378 . S
C955 C954 1.524 1_655 S
C955 C956 1.397 . S
C955 C960 1.363 1_655 S
C956 H933 0.950 . S
C956 C955 1.397 . S
C956 C957 1.334 . S
C957 H934 0.950 . S
C957 C956 1.334 . S
C957 C958 1.287 . S
C958 C957 1.287 . S
C958 C959 1.524 1_655 S
C958 H977 0.913 . S
C959 H935 0.950 . S
C959 C958 1.524 1_455 S
C959 C960 1.415 . S
C960 H936 0.950 . S
C960 C955 1.363 1_455 S
C960 C959 1.415 . S
C961 H937 0.955 . S
C961 C962 1.366 . S
C961 C963 1.388 . S
C962 C961 1.366 . S
C962 C966 1.385 . S
C963 H938 0.951 1_455 S
C963 C961 1.388 . S
C963 C964 1.366 . S
C964 C963 1.366 . S
C964 C965 1.414 . S
C964 C967 1.499 . S
C965 H939 0.950 1_556 S
C965 C964 1.414 . S
C965 C966 1.374 . S
C966 H940 0.949 . S
C966 C962 1.385 . S
C966 C965 1.374 . S
C967 C964 1.499 . S
C967 C968 1.373 1_556 S
C967 C969 1.388 1_455 S
C968 H941 0.950 . S
C968 C954 1.378 . S
C968 C967 1.373 1_554 S
C969 C953 1.378 . S
C969 C967 1.388 1_655 S
C969 C970 1.524 1_655 S
C970 C969 1.524 1_455 S
C970 C971 1.397 . S
C970 C975 1.363 1_455 S
C971 H942 0.950 . S
C971 C970 1.397 . S
C971 C972 1.334 . S
C972 H943 0.950 . S
C972 C971 1.334 . S
C972 C973 1.287 . S
C973 C972 1.287 . S
C973 C974 1.524 1_455 S
C973 H976 0.999 . S
C974 H944 0.950 . S
C974 C973 1.524 1_655 S
C974 C975 1.415 . S
C975 H945 0.950 . S
C975 C970 1.363 1_655 S
C975 C974 1.415 . S
H976 C973 0.999 . S
H977 C958 0.913 . S
H978 C996 0.951 . S
H979 C998 0.951 . S
H980 C1000 0.950 . S
H981 C1001 0.950 . S
H982 C1003 0.950 . S
H983 C1006 0.950 . S
H984 C1007 0.950 . S
H985 C1009 0.950 . S
H986 C1010 0.950 . S
H987 C1011 0.951 . S
H988 C1013 0.951 . S
H989 C1015 0.950 . S
H990 C1016 0.950 . S
H991 C1018 0.950 . S
H992 C1021 0.950 . S
H993 C1022 0.950 . S
H994 C1024 0.950 . S
H995 C1025 0.950 . S
C996 H978 0.951 . S
C996 C997 1.366 . S
C996 C998 1.388 . S
C997 C996 1.366 . S
C997 C1001 1.385 . S
C998 H979 0.951 . S
C998 C996 1.388 . S
C998 C999 1.366 . S
C999 C998 1.366 . S
C999 C1000 1.414 . S
C999 C1002 1.499 . S
C1000 H980 0.950 . S
C1000 C999 1.414 . S
C1000 C1001 1.374 . S
C1001 H981 0.950 . S
C1001 C997 1.385 . S
C1001 C1000 1.374 . S
C1002 C999 1.499 . S
C1002 C1003 1.373 . S
C1002 C1004 1.389 . S
C1003 H982 0.950 . S
C1003 C1002 1.373 . S
C1003 C1019 1.377 . S
C1004 C1002 1.389 . S
C1004 C1005 1.524 . S
C1004 C1018 1.377 . S
C1005 C1004 1.524 . S
C1005 C1006 1.397 . S
C1005 C1010 1.363 . S
C1006 H983 0.950 . S
C1006 C1005 1.397 . S
C1006 C1007 1.334 . S
C1007 H984 0.950 . S
C1007 C1006 1.334 . S
C1007 C1008 1.287 . S
C1008 C1007 1.287 . S
C1008 C1009 1.524 . S
C1008 H1027 0.913 . S
C1009 H985 0.950 . S
C1009 C1008 1.524 . S
C1009 C1010 1.415 . S
C1010 H986 0.950 . S
C1010 C1005 1.363 . S
C1010 C1009 1.415 . S
C1011 H987 0.951 . S
C1011 C1012 1.366 . S
C1011 C1013 1.388 . S
C1012 C1011 1.366 . S
C1012 C1016 1.385 . S
C1013 H988 0.951 . S
C1013 C1011 1.388 . S
C1013 C1014 1.366 . S
C1014 C1013 1.366 . S
C1014 C1015 1.414 . S
C1014 C1017 1.499 . S
C1015 H989 0.950 . S
C1015 C1014 1.414 . S
C1015 C1016 1.374 . S
C1016 H990 0.950 . S
C1016 C1012 1.385 . S
C1016 C1015 1.374 . S
C1017 C1014 1.499 . S
C1017 C1018 1.373 . S
C1017 C1019 1.389 . S
C1018 H991 0.950 . S
C1018 C1004 1.377 . S
C1018 C1017 1.373 . S
C1019 C1003 1.377 . S
C1019 C1017 1.389 . S
C1019 C1020 1.524 . S
C1020 C1019 1.524 . S
C1020 C1021 1.397 . S
C1020 C1025 1.363 . S
C1021 H992 0.950 . S
C1021 C1020 1.397 . S
C1021 C1022 1.334 . S
C1022 H993 0.950 . S
C1022 C1021 1.334 . S
C1022 C1023 1.287 . S
C1023 C1022 1.287 . S
C1023 C1024 1.524 . S
C1023 H1026 0.999 . S
C1024 H994 0.950 . S
C1024 C1023 1.524 . S
C1024 C1025 1.415 . S
C1025 H995 0.950 . S
C1025 C1020 1.363 . S
C1025 C1024 1.415 . S
H1026 C1023 0.999 . S
H1027 C1008 0.913 . S
H1028 C1046 0.951 . S
H1029 C1048 0.951 . S
H1030 C1050 0.950 . S
H1031 C1051 0.950 . S
H1032 C1053 0.950 . S
H1033 C1056 0.950 . S
H1034 C1057 0.950 . S
H1035 C1059 0.950 . S
H1036 C1060 0.950 . S
H1037 C1061 0.951 . S
H1038 C1063 0.951 . S
H1039 C1065 0.950 . S
H1040 C1066 0.950 . S
H1041 C1068 0.950 . S
H1042 C1071 0.950 . S
H1043 C1072 0.950 . S
H1044 C1074 0.950 . S
H1045 C1075 0.950 . S
C1046 H1028 0.951 . S
C1046 C1047 1.366 . S
C1046 C1048 1.388 . S
C1047 C1046 1.366 . S
C1047 C1051 1.385 1_556 S
C1048 H1029 0.951 . S
C1048 C1046 1.388 . S
C1048 C1049 1.366 . S
C1049 C1048 1.366 . S
C1049 C1050 1.414 1_556 S
C1049 C1052 1.499 . S
C1050 H1030 0.950 . S
C1050 C1049 1.414 1_554 S
C1050 C1051 1.374 . S
C1051 H1031 0.950 . S
C1051 C1047 1.385 1_554 S
C1051 C1050 1.374 . S
C1052 C1049 1.499 . S
C1052 C1053 1.373 1_556 S
C1052 C1054 1.389 . S
C1053 H1032 0.950 . S
C1053 C1052 1.373 1_554 S
C1053 C1069 1.377 . S
C1054 C1052 1.389 . S
C1054 C1055 1.524 . S
C1054 C1068 1.377 . S
C1055 C1054 1.524 . S
C1055 C1056 1.397 1_556 S
C1055 C1060 1.363 . S
C1056 H1033 0.950 . S
C1056 C1055 1.397 1_554 S
C1056 C1057 1.334 . S
C1057 H1034 0.950 . S
C1057 C1056 1.334 . S
C1057 C1058 1.287 1_554 S
C1058 C1057 1.287 1_556 S
C1058 C1059 1.524 . S
C1058 H1077 0.913 . S
C1059 H1035 0.950 . S
C1059 C1058 1.524 . S
C1059 C1060 1.415 . S
C1060 H1036 0.950 . S
C1060 C1055 1.363 . S
C1060 C1059 1.415 . S
C1061 H1037 0.951 . S
C1061 C1062 1.366 . S
C1061 C1063 1.388 . S
C1062 C1061 1.366 . S
C1062 C1066 1.385 1_554 S
C1063 H1038 0.951 . S
C1063 C1061 1.388 . S
C1063 C1064 1.366 . S
C1064 C1063 1.366 . S
C1064 C1065 1.414 1_554 S
C1064 C1067 1.499 . S
C1065 H1039 0.950 . S
C1065 C1064 1.414 1_556 S
C1065 C1066 1.374 . S
C1066 H1040 0.950 . S
C1066 C1062 1.385 1_556 S
C1066 C1065 1.374 . S
C1067 C1064 1.499 . S
C1067 C1068 1.373 1_554 S
C1067 C1069 1.389 . S
C1068 H1041 0.950 . S
C1068 C1054 1.377 . S
C1068 C1067 1.373 1_556 S
C1069 C1053 1.377 . S
C1069 C1067 1.389 . S
C1069 C1070 1.524 . S
C1070 C1069 1.524 . S
C1070 C1071 1.397 1_554 S
C1070 C1075 1.363 . S
C1071 H1042 0.950 . S
C1071 C1070 1.397 1_556 S
C1071 C1072 1.334 . S
C1072 H1043 0.950 . S
C1072 C1071 1.334 . S
C1072 C1073 1.287 1_556 S
C1073 C1072 1.287 1_554 S
C1073 C1074 1.524 . S
C1073 H1076 0.999 . S
C1074 H1044 0.950 . S
C1074 C1073 1.524 . S
C1074 C1075 1.415 . S
C1075 H1045 0.950 . S
C1075 C1070 1.363 . S
C1075 C1074 1.415 . S
H1076 C1073 0.999 . S
H1077 C1058 0.913 . S
H1078 C1096 0.951 . S
H1079 C1098 0.951 . S
H1080 C1100 0.950 . S
H1081 C1101 0.950 . S
H1082 C1103 0.950 . S
H1083 C1106 0.950 . S
H1084 C1107 0.950 . S
H1085 C1109 0.950 . S
H1086 C1110 0.950 . S
H1087 C1111 0.951 . S
H1088 C1113 0.951 . S
H1089 C1115 0.950 . S
H1090 C1116 0.950 . S
H1091 C1118 0.950 . S
H1092 C1121 0.950 . S
H1093 C1122 0.950 . S
H1094 C1124 0.950 . S
H1095 C1125 0.950 . S
C1096 H1078 0.951 . S
C1096 C1097 1.366 . S
C1096 C1098 1.388 . S
C1097 C1096 1.366 . S
C1097 C1101 1.385 . S
C1098 H1079 0.951 . S
C1098 C1096 1.388 . S
C1098 C1099 1.366 . S
C1099 C1098 1.366 . S
C1099 C1100 1.414 . S
C1099 C1102 1.499 . S
C1100 H1080 0.950 . S
C1100 C1099 1.414 . S
C1100 C1101 1.374 . S
C1101 H1081 0.950 . S
C1101 C1097 1.385 . S
C1101 C1100 1.374 . S
C1102 C1099 1.499 . S
C1102 C1103 1.373 . S
C1102 C1104 1.389 . S
C1103 H1082 0.950 . S
C1103 C1102 1.373 . S
C1103 C1119 1.377 . S
C1104 C1102 1.389 . S
C1104 C1105 1.524 . S
C1104 C1118 1.377 . S
C1105 C1104 1.524 . S
C1105 C1106 1.397 . S
C1105 C1110 1.363 . S
C1106 H1083 0.950 . S
C1106 C1105 1.397 . S
C1106 C1107 1.334 . S
C1107 H1084 0.950 . S
C1107 C1106 1.334 . S
C1107 C1108 1.287 . S
C1108 C1107 1.287 . S
C1108 C1109 1.524 . S
C1108 H1127 0.913 . S
C1109 H1085 0.950 . S
C1109 C1108 1.524 . S
C1109 C1110 1.415 . S
C1110 H1086 0.950 . S
C1110 C1105 1.363 . S
C1110 C1109 1.415 . S
C1111 H1087 0.951 . S
C1111 C1112 1.366 . S
C1111 C1113 1.388 . S
C1112 C1111 1.366 . S
C1112 C1116 1.385 . S
C1113 H1088 0.951 . S
C1113 C1111 1.388 . S
C1113 C1114 1.366 . S
C1114 C1113 1.366 . S
C1114 C1115 1.414 . S
C1114 C1117 1.499 . S
C1115 H1089 0.950 . S
C1115 C1114 1.414 . S
C1115 C1116 1.374 . S
C1116 H1090 0.950 . S
C1116 C1112 1.385 . S
C1116 C1115 1.374 . S
C1117 C1114 1.499 . S
C1117 C1118 1.373 . S
C1117 C1119 1.389 . S
C1118 H1091 0.950 . S
C1118 C1104 1.377 . S
C1118 C1117 1.373 . S
C1119 C1103 1.377 . S
C1119 C1117 1.389 . S
C1119 C1120 1.524 . S
C1120 C1119 1.524 . S
C1120 C1121 1.397 . S
C1120 C1125 1.363 . S
C1121 H1092 0.950 . S
C1121 C1120 1.397 . S
C1121 C1122 1.334 . S
C1122 H1093 0.950 . S
C1122 C1121 1.334 . S
C1122 C1123 1.287 . S
C1123 C1122 1.287 . S
C1123 C1124 1.524 . S
C1123 H1126 0.999 . S
C1124 H1094 0.950 . S
C1124 C1123 1.524 . S
C1124 C1125 1.415 . S
C1125 H1095 0.950 . S
C1125 C1120 1.363 . S
C1125 C1124 1.415 . S
H1126 C1123 0.999 . S
H1127 C1108 0.913 . S
H1128 C1146 0.951 . S
H1129 C1148 0.949 . S
H1130 C1150 0.950 . S
H1131 C1151 0.950 . S
H1132 C1153 0.950 . S
H1133 C1156 0.950 . S
H1134 C1157 0.950 . S
H1135 C1159 0.950 . S
H1136 C1160 0.950 . S
H1137 C1161 0.951 . S
H1138 C1163 0.949 . S
H1139 C1165 0.950 . S
H1140 C1166 0.950 . S
H1141 C1168 0.950 . S
H1142 C1171 0.950 . S
H1143 C1172 0.950 . S
H1144 C1174 0.950 . S
H1145 C1175 0.950 . S
C1146 H1128 0.951 . S
C1146 C1147 1.366 . S
C1146 C1148 1.388 . S
C1147 C1146 1.366 . S
C1147 C1151 1.385 . S
C1148 H1129 0.949 . S
C1148 C1146 1.388 . S
C1148 C1149 1.366 . S
C1149 C1148 1.366 . S
C1149 C1150 1.414 . S
C1149 C1152 1.499 . S
C1150 H1130 0.950 . S
C1150 C1149 1.414 . S
C1150 C1151 1.374 . S
C1151 H1131 0.950 . S
C1151 C1147 1.385 . S
C1151 C1150 1.374 . S
C1152 C1149 1.499 . S
C1152 C1153 1.373 1_556 S
C1152 C1154 1.406 . S
C1153 H1132 0.950 . S
C1153 C1152 1.373 1_554 S
C1153 C1169 1.358 1_545 S
C1154 C1152 1.406 . S
C1154 C1155 1.530 1_545 S
C1154 C1168 1.358 1_545 S
C1155 C1154 1.530 1_565 S
C1155 C1156 1.372 1_565 S
C1155 C1160 1.389 . S
C1156 H1133 0.950 . S
C1156 C1155 1.372 1_545 S
C1156 C1157 1.334 . S
C1157 H1134 0.950 . S
C1157 C1156 1.334 . S
C1157 C1158 1.287 1_545 S
C1158 C1157 1.287 1_565 S
C1158 C1159 1.524 . S
C1158 H1177 0.913 . S
C1159 H1135 0.950 . S
C1159 C1158 1.524 . S
C1159 C1160 1.415 . S
C1160 H1136 0.950 . S
C1160 C1155 1.389 . S
C1160 C1159 1.415 . S
C1161 H1137 0.951 . S
C1161 C1162 1.366 . S
C1161 C1163 1.388 . S
C1162 C1161 1.366 . S
C1162 C1166 1.385 . S
C1163 H1138 0.949 . S
C1163 C1161 1.388 . S
C1163 C1164 1.366 . S
C1164 C1163 1.366 . S
C1164 C1165 1.414 . S
C1164 C1167 1.499 . S
C1165 H1139 0.950 . S
C1165 C1164 1.414 . S
C1165 C1166 1.374 . S
C1166 H1140 0.950 . S
C1166 C1162 1.385 . S
C1166 C1165 1.374 . S
C1167 C1164 1.499 . S
C1167 C1168 1.373 1_554 S
C1167 C1169 1.406 . S
C1168 H1141 0.950 . S
C1168 C1154 1.358 1_565 S
C1168 C1167 1.373 1_556 S
C1169 C1153 1.358 1_565 S
C1169 C1167 1.406 . S
C1169 C1170 1.530 1_565 S
C1170 C1169 1.530 1_545 S
C1170 C1171 1.372 1_545 S
C1170 C1175 1.389 . S
C1171 H1142 0.950 . S
C1171 C1170 1.372 1_565 S
C1171 C1172 1.334 . S
C1172 H1143 0.950 . S
C1172 C1171 1.334 . S
C1172 C1173 1.287 1_565 S
C1173 C1172 1.287 1_545 S
C1173 C1174 1.524 . S
C1173 H1176 0.999 . S
C1174 H1144 0.950 . S
C1174 C1173 1.524 . S
C1174 C1175 1.415 . S
C1175 H1145 0.950 . S
C1175 C1170 1.389 . S
C1175 C1174 1.415 . S
H1176 C1173 0.999 . S
H1177 C1158 0.913 . S
H1178 C1196 0.951 . S
H1179 C1198 0.951 . S
H1180 C1200 0.950 . S
H1181 C1201 0.950 . S
H1182 C1203 0.950 . S
H1183 C1206 0.950 . S
H1184 C1207 0.950 . S
H1185 C1209 0.950 . S
H1186 C1210 0.950 . S
H1187 C1211 0.951 . S
H1188 C1213 0.951 . S
H1189 C1215 0.950 . S
H1190 C1216 0.950 . S
H1191 C1218 0.950 . S
H1192 C1221 0.950 . S
H1193 C1222 0.950 . S
H1194 C1224 0.950 . S
H1195 C1225 0.950 . S
C1196 H1178 0.951 . S
C1196 C1197 1.366 . S
C1196 C1198 1.388 . S
C1197 C1196 1.366 . S
C1197 C1201 1.385 . S
C1198 H1179 0.951 . S
C1198 C1196 1.388 . S
C1198 C1199 1.366 . S
C1199 C1198 1.366 . S
C1199 C1200 1.414 . S
C1199 C1202 1.499 . S
C1200 H1180 0.950 . S
C1200 C1199 1.414 . S
C1200 C1201 1.374 . S
C1201 H1181 0.950 . S
C1201 C1197 1.385 . S
C1201 C1200 1.374 . S
C1202 C1199 1.499 . S
C1202 C1203 1.373 . S
C1202 C1204 1.389 . S
C1203 H1182 0.950 . S
C1203 C1202 1.373 . S
C1203 C1219 1.377 . S
C1204 C1202 1.389 . S
C1204 C1205 1.524 . S
C1204 C1218 1.377 . S
C1205 C1204 1.524 . S
C1205 C1206 1.397 . S
C1205 C1210 1.363 . S
C1206 H1183 0.950 . S
C1206 C1205 1.397 . S
C1206 C1207 1.334 . S
C1207 H1184 0.950 . S
C1207 C1206 1.334 . S
C1207 C1208 1.287 . S
C1208 C1207 1.287 . S
C1208 C1209 1.524 . S
C1208 H1227 0.913 . S
C1209 H1185 0.950 . S
C1209 C1208 1.524 . S
C1209 C1210 1.415 . S
C1210 H1186 0.950 . S
C1210 C1205 1.363 . S
C1210 C1209 1.415 . S
C1211 H1187 0.951 . S
C1211 C1212 1.366 . S
C1211 C1213 1.388 . S
C1212 C1211 1.366 . S
C1212 C1216 1.385 . S
C1213 H1188 0.951 . S
C1213 C1211 1.388 . S
C1213 C1214 1.366 . S
C1214 C1213 1.366 . S
C1214 C1215 1.414 . S
C1214 C1217 1.499 . S
C1215 H1189 0.950 . S
C1215 C1214 1.414 . S
C1215 C1216 1.374 . S
C1216 H1190 0.950 . S
C1216 C1212 1.385 . S
C1216 C1215 1.374 . S
C1217 C1214 1.499 . S
C1217 C1218 1.373 . S
C1217 C1219 1.389 . S
C1218 H1191 0.950 . S
C1218 C1204 1.377 . S
C1218 C1217 1.373 . S
C1219 C1203 1.377 . S
C1219 C1217 1.389 . S
C1219 C1220 1.524 . S
C1220 C1219 1.524 . S
C1220 C1221 1.397 . S
C1220 C1225 1.363 . S
C1221 H1192 0.950 . S
C1221 C1220 1.397 . S
C1221 C1222 1.334 . S
C1222 H1193 0.950 . S
C1222 C1221 1.334 . S
C1222 C1223 1.287 . S
C1223 C1222 1.287 . S
C1223 C1224 1.524 . S
C1223 H1226 0.999 . S
C1224 H1194 0.950 . S
C1224 C1223 1.524 . S
C1224 C1225 1.415 . S
C1225 H1195 0.950 . S
C1225 C1220 1.363 . S
C1225 C1224 1.415 . S
H1226 C1223 0.999 . S
H1227 C1208 0.913 . S
H1228 C1246 0.951 . S
H1229 C1248 0.951 . S
H1230 C1250 0.950 . S
H1231 C1251 0.950 . S
H1232 C1253 0.950 . S
H1233 C1256 0.950 . S
H1234 C1257 0.950 . S
H1235 C1259 0.950 . S
H1236 C1260 0.950 . S
H1237 C1261 0.951 . S
H1238 C1263 0.951 . S
H1239 C1265 0.950 . S
H1240 C1266 0.950 . S
H1241 C1268 0.950 . S
H1242 C1271 0.950 . S
H1243 C1272 0.950 . S
H1244 C1274 0.950 . S
H1245 C1275 0.950 . S
C1246 H1228 0.951 . S
C1246 C1247 1.366 . S
C1246 C1248 1.388 . S
C1247 C1246 1.366 . S
C1247 C1251 1.385 . S
C1248 H1229 0.951 . S
C1248 C1246 1.388 . S
C1248 C1249 1.366 . S
C1249 C1248 1.366 . S
C1249 C1250 1.414 . S
C1249 C1252 1.499 . S
C1250 H1230 0.950 . S
C1250 C1249 1.414 . S
C1250 C1251 1.374 . S
C1251 H1231 0.950 . S
C1251 C1247 1.385 . S
C1251 C1250 1.374 . S
C1252 C1249 1.499 . S
C1252 C1253 1.373 . S
C1252 C1254 1.389 . S
C1253 H1232 0.950 . S
C1253 C1252 1.373 . S
C1253 C1269 1.377 . S
C1254 C1252 1.389 . S
C1254 C1255 1.524 . S
C1254 C1268 1.377 . S
C1255 C1254 1.524 . S
C1255 C1256 1.397 . S
C1255 C1260 1.363 . S
C1256 H1233 0.950 . S
C1256 C1255 1.397 . S
C1256 C1257 1.334 . S
C1257 H1234 0.950 . S
C1257 C1256 1.334 . S
C1257 C1258 1.287 . S
C1258 C1257 1.287 . S
C1258 C1259 1.524 . S
C1258 H1277 0.913 . S
C1259 H1235 0.950 . S
C1259 C1258 1.524 . S
C1259 C1260 1.415 . S
C1260 H1236 0.950 . S
C1260 C1255 1.363 . S
C1260 C1259 1.415 . S
C1261 H1237 0.951 . S
C1261 C1262 1.366 . S
C1261 C1263 1.388 . S
C1262 C1261 1.366 . S
C1262 C1266 1.385 . S
C1263 H1238 0.951 . S
C1263 C1261 1.388 . S
C1263 C1264 1.366 . S
C1264 C1263 1.366 . S
C1264 C1265 1.414 . S
C1264 C1267 1.499 . S
C1265 H1239 0.950 . S
C1265 C1264 1.414 . S
C1265 C1266 1.374 . S
C1266 H1240 0.950 . S
C1266 C1262 1.385 . S
C1266 C1265 1.374 . S
C1267 C1264 1.499 . S
C1267 C1268 1.373 . S
C1267 C1269 1.389 . S
C1268 H1241 0.950 . S
C1268 C1254 1.377 . S
C1268 C1267 1.373 . S
C1269 C1253 1.377 . S
C1269 C1267 1.389 . S
C1269 C1270 1.524 . S
C1270 C1269 1.524 . S
C1270 C1271 1.397 . S
C1270 C1275 1.363 . S
C1271 H1242 0.950 . S
C1271 C1270 1.397 . S
C1271 C1272 1.334 . S
C1272 H1243 0.950 . S
C1272 C1271 1.334 . S
C1272 C1273 1.287 . S
C1273 C1272 1.287 . S
C1273 C1274 1.524 . S
C1273 H1276 0.999 . S
C1274 H1244 0.950 . S
C1274 C1273 1.524 . S
C1274 C1275 1.415 . S
C1275 H1245 0.950 . S
C1275 C1270 1.363 . S
C1275 C1274 1.415 . S
H1276 C1273 0.999 . S
H1277 C1258 0.913 . S
H1278 C1296 0.951 . S
H1279 C1298 0.951 . S
H1280 C1300 0.950 . S
H1281 C1301 0.950 . S
H1282 C1303 0.950 . S
H1283 C1306 0.950 . S
H1284 C1307 0.950 . S
H1285 C1309 0.950 . S
H1286 C1310 0.950 . S
H1287 C1311 0.951 . S
H1288 C1313 0.951 . S
H1289 C1315 0.950 . S
H1290 C1316 0.950 . S
H1291 C1318 0.950 . S
H1292 C1321 0.950 . S
H1293 C1322 0.950 . S
H1294 C1324 0.950 . S
H1295 C1325 0.950 . S
C1296 H1278 0.951 . S
C1296 C1297 1.366 . S
C1296 C1298 1.388 . S
C1297 C1296 1.366 . S
C1297 C1301 1.385 . S
C1298 H1279 0.951 . S
C1298 C1296 1.388 . S
C1298 C1299 1.366 . S
C1299 C1298 1.366 . S
C1299 C1300 1.414 . S
C1299 C1302 1.499 . S
C1300 H1280 0.950 . S
C1300 C1299 1.414 . S
C1300 C1301 1.374 . S
C1301 H1281 0.950 . S
C1301 C1297 1.385 . S
C1301 C1300 1.374 . S
C1302 C1299 1.499 . S
C1302 C1303 1.373 . S
C1302 C1304 1.389 . S
C1303 H1282 0.950 . S
C1303 C1302 1.373 . S
C1303 C1319 1.377 . S
C1304 C1302 1.389 . S
C1304 C1305 1.524 . S
C1304 C1318 1.377 . S
C1305 C1304 1.524 . S
C1305 C1306 1.397 . S
C1305 C1310 1.363 . S
C1306 H1283 0.950 . S
C1306 C1305 1.397 . S
C1306 C1307 1.334 . S
C1307 H1284 0.950 . S
C1307 C1306 1.334 . S
C1307 C1308 1.287 . S
C1308 C1307 1.287 . S
C1308 C1309 1.524 . S
C1308 H1327 0.913 . S
C1309 H1285 0.950 . S
C1309 C1308 1.524 . S
C1309 C1310 1.415 . S
C1310 H1286 0.950 . S
C1310 C1305 1.363 . S
C1310 C1309 1.415 . S
C1311 H1287 0.951 . S
C1311 C1312 1.366 . S
C1311 C1313 1.388 . S
C1312 C1311 1.366 . S
C1312 C1316 1.385 . S
C1313 H1288 0.951 . S
C1313 C1311 1.388 . S
C1313 C1314 1.366 . S
C1314 C1313 1.366 . S
C1314 C1315 1.414 . S
C1314 C1317 1.499 . S
C1315 H1289 0.950 . S
C1315 C1314 1.414 . S
C1315 C1316 1.374 . S
C1316 H1290 0.950 . S
C1316 C1312 1.385 . S
C1316 C1315 1.374 . S
C1317 C1314 1.499 . S
C1317 C1318 1.373 . S
C1317 C1319 1.389 . S
C1318 H1291 0.950 . S
C1318 C1304 1.377 . S
C1318 C1317 1.373 . S
C1319 C1303 1.377 . S
C1319 C1317 1.389 . S
C1319 C1320 1.524 . S
C1320 C1319 1.524 . S
C1320 C1321 1.397 . S
C1320 C1325 1.363 . S
C1321 H1292 0.950 . S
C1321 C1320 1.397 . S
C1321 C1322 1.334 . S
C1322 H1293 0.950 . S
C1322 C1321 1.334 . S
C1322 C1323 1.287 . S
C1323 C1322 1.287 . S
C1323 C1324 1.524 . S
C1323 H1326 0.999 . S
C1324 H1294 0.950 . S
C1324 C1323 1.524 . S
C1324 C1325 1.415 . S
C1325 H1295 0.950 . S
C1325 C1320 1.363 . S
C1325 C1324 1.415 . S
H1326 C1323 0.999 . S
H1327 C1308 0.913 . S
H1328 C1346 0.951 . S
H1329 C1348 0.951 . S
H1330 C1350 0.950 . S
H1331 C1351 0.950 . S
H1332 C1353 0.950 . S
H1333 C1356 0.950 . S
H1334 C1357 0.950 . S
H1335 C1359 0.950 . S
H1336 C1360 0.950 . S
H1337 C1361 0.951 . S
H1338 C1363 0.951 . S
H1339 C1365 0.950 . S
H1340 C1366 0.950 . S
H1341 C1368 0.950 . S
H1342 C1371 0.950 . S
H1343 C1372 0.950 . S
H1344 C1374 0.950 . S
H1345 C1375 0.950 . S
C1346 H1328 0.951 . S
C1346 C1347 1.366 . S
C1346 C1348 1.388 . S
C1347 C1346 1.366 . S
C1347 C1351 1.385 . S
C1348 H1329 0.951 . S
C1348 C1346 1.388 . S
C1348 C1349 1.366 . S
C1349 C1348 1.366 . S
C1349 C1350 1.414 . S
C1349 C1352 1.499 . S
C1350 H1330 0.950 . S
C1350 C1349 1.414 . S
C1350 C1351 1.374 . S
C1351 H1331 0.950 . S
C1351 C1347 1.385 . S
C1351 C1350 1.374 . S
C1352 C1349 1.499 . S
C1352 C1353 1.373 . S
C1352 C1354 1.389 . S
C1353 H1332 0.950 . S
C1353 C1352 1.373 . S
C1353 C1369 1.377 . S
C1354 C1352 1.389 . S
C1354 C1355 1.524 . S
C1354 C1368 1.377 . S
C1355 C1354 1.524 . S
C1355 C1356 1.397 . S
C1355 C1360 1.363 . S
C1356 H1333 0.950 . S
C1356 C1355 1.397 . S
C1356 C1357 1.334 . S
C1357 H1334 0.950 . S
C1357 C1356 1.334 . S
C1357 C1358 1.287 . S
C1358 C1357 1.287 . S
C1358 C1359 1.524 . S
C1358 H1377 0.913 . S
C1359 H1335 0.950 . S
C1359 C1358 1.524 . S
C1359 C1360 1.415 . S
C1360 H1336 0.950 . S
C1360 C1355 1.363 . S
C1360 C1359 1.415 . S
C1361 H1337 0.951 . S
C1361 C1362 1.366 . S
C1361 C1363 1.388 . S
C1362 C1361 1.366 . S
C1362 C1366 1.385 . S
C1363 H1338 0.951 . S
C1363 C1361 1.388 . S
C1363 C1364 1.366 . S
C1364 C1363 1.366 . S
C1364 C1365 1.414 . S
C1364 C1367 1.499 . S
C1365 H1339 0.950 . S
C1365 C1364 1.414 . S
C1365 C1366 1.374 . S
C1366 H1340 0.950 . S
C1366 C1362 1.385 . S
C1366 C1365 1.374 . S
C1367 C1364 1.499 . S
C1367 C1368 1.373 . S
C1367 C1369 1.389 . S
C1368 H1341 0.950 . S
C1368 C1354 1.377 . S
C1368 C1367 1.373 . S
C1369 C1353 1.377 . S
C1369 C1367 1.389 . S
C1369 C1370 1.524 . S
C1370 C1369 1.524 . S
C1370 C1371 1.397 . S
C1370 C1375 1.363 . S
C1371 H1342 0.950 . S
C1371 C1370 1.397 . S
C1371 C1372 1.334 . S
C1372 H1343 0.950 . S
C1372 C1371 1.334 . S
C1372 C1373 1.287 . S
C1373 C1372 1.287 . S
C1373 C1374 1.524 . S
C1373 H1376 0.999 . S
C1374 H1344 0.950 . S
C1374 C1373 1.524 . S
C1374 C1375 1.415 . S
C1375 H1345 0.950 . S
C1375 C1370 1.363 . S
C1375 C1374 1.415 . S
H1376 C1373 0.999 . S
H1377 C1358 0.913 . S
H1378 C1396 0.951 . S
H1379 C1398 0.951 . S
H1380 C1400 0.950 . S
H1381 C1401 0.950 . S
H1382 C1403 0.950 . S
H1383 C1406 0.950 . S
H1384 C1407 0.950 . S
H1385 C1409 0.950 . S
H1386 C1410 0.950 . S
H1387 C1411 0.951 . S
H1388 C1413 0.951 . S
H1389 C1415 0.950 . S
H1390 C1416 0.950 . S
H1391 C1418 0.950 . S
H1392 C1421 0.950 . S
H1393 C1422 0.950 . S
H1394 C1424 0.950 . S
H1395 C1425 0.950 . S
C1396 H1378 0.951 . S
C1396 C1397 1.366 . S
C1396 C1398 1.388 . S
C1397 C1396 1.366 . S
C1397 C1401 1.385 . S
C1398 H1379 0.951 . S
C1398 C1396 1.388 . S
C1398 C1399 1.366 . S
C1399 C1398 1.366 . S
C1399 C1400 1.414 . S
C1399 C1402 1.499 . S
C1400 H1380 0.950 . S
C1400 C1399 1.414 . S
C1400 C1401 1.374 . S
C1401 H1381 0.950 . S
C1401 C1397 1.385 . S
C1401 C1400 1.374 . S
C1402 C1399 1.499 . S
C1402 C1403 1.373 . S
C1402 C1404 1.389 . S
C1403 H1382 0.950 . S
C1403 C1402 1.373 . S
C1403 C1419 1.377 . S
C1404 C1402 1.389 . S
C1404 C1405 1.524 . S
C1404 C1418 1.377 . S
C1405 C1404 1.524 . S
C1405 C1406 1.397 . S
C1405 C1410 1.363 . S
C1406 H1383 0.950 . S
C1406 C1405 1.397 . S
C1406 C1407 1.334 . S
C1407 H1384 0.950 . S
C1407 C1406 1.334 . S
C1407 C1408 1.287 . S
C1408 C1407 1.287 . S
C1408 C1409 1.524 . S
C1408 H1427 0.913 . S
C1409 H1385 0.950 . S
C1409 C1408 1.524 . S
C1409 C1410 1.415 . S
C1410 H1386 0.950 . S
C1410 C1405 1.363 . S
C1410 C1409 1.415 . S
C1411 H1387 0.951 . S
C1411 C1412 1.366 . S
C1411 C1413 1.388 . S
C1412 C1411 1.366 . S
C1412 C1416 1.385 . S
C1413 H1388 0.951 . S
C1413 C1411 1.388 . S
C1413 C1414 1.366 . S
C1414 C1413 1.366 . S
C1414 C1415 1.414 . S
C1414 C1417 1.499 . S
C1415 H1389 0.950 . S
C1415 C1414 1.414 . S
C1415 C1416 1.374 . S
C1416 H1390 0.950 . S
C1416 C1412 1.385 . S
C1416 C1415 1.374 . S
C1417 C1414 1.499 . S
C1417 C1418 1.373 . S
C1417 C1419 1.389 . S
C1418 H1391 0.950 . S
C1418 C1404 1.377 . S
C1418 C1417 1.373 . S
C1419 C1403 1.377 . S
C1419 C1417 1.389 . S
C1419 C1420 1.524 . S
C1420 C1419 1.524 . S
C1420 C1421 1.397 . S
C1420 C1425 1.363 . S
C1421 H1392 0.950 . S
C1421 C1420 1.397 . S
C1421 C1422 1.334 . S
C1422 H1393 0.950 . S
C1422 C1421 1.334 . S
C1422 C1423 1.287 . S
C1423 C1422 1.287 . S
C1423 C1424 1.524 . S
C1423 H1426 0.999 . S
C1424 H1394 0.950 . S
C1424 C1423 1.524 . S
C1424 C1425 1.415 . S
C1425 H1395 0.950 . S
C1425 C1420 1.363 . S
C1425 C1424 1.415 . S
H1426 C1423 0.999 . S
H1427 C1408 0.913 . S
H1428 C1446 0.951 . S
H1429 C1448 0.951 . S
H1430 C1450 0.950 . S
H1431 C1451 0.950 . S
H1432 C1453 0.950 . S
H1433 C1456 0.950 . S
H1434 C1457 0.950 . S
H1435 C1459 0.950 . S
H1436 C1460 0.950 . S
H1437 C1461 0.951 . S
H1438 C1463 0.951 . S
H1439 C1465 0.950 . S
H1440 C1466 0.950 . S
H1441 C1468 0.950 . S
H1442 C1471 0.950 . S
H1443 C1472 0.950 . S
H1444 C1474 0.950 . S
H1445 C1475 0.950 . S
C1446 H1428 0.951 . S
C1446 C1447 1.366 . S
C1446 C1448 1.388 . S
C1447 C1446 1.366 . S
C1447 C1451 1.385 . S
C1448 H1429 0.951 . S
C1448 C1446 1.388 . S
C1448 C1449 1.366 . S
C1449 C1448 1.366 . S
C1449 C1450 1.414 . S
C1449 C1452 1.499 . S
C1450 H1430 0.950 . S
C1450 C1449 1.414 . S
C1450 C1451 1.374 . S
C1451 H1431 0.950 . S
C1451 C1447 1.385 . S
C1451 C1450 1.374 . S
C1452 C1449 1.499 . S
C1452 C1453 1.373 . S
C1452 C1454 1.389 . S
C1453 H1432 0.950 . S
C1453 C1452 1.373 . S
C1453 C1469 1.377 . S
C1454 C1452 1.389 . S
C1454 C1455 1.524 . S
C1454 C1468 1.377 . S
C1455 C1454 1.524 . S
C1455 C1456 1.397 . S
C1455 C1460 1.363 . S
C1456 H1433 0.950 . S
C1456 C1455 1.397 . S
C1456 C1457 1.334 . S
C1457 H1434 0.950 . S
C1457 C1456 1.334 . S
C1457 C1458 1.287 . S
C1458 C1457 1.287 . S
C1458 C1459 1.524 . S
C1458 H1477 0.913 . S
C1459 H1435 0.950 . S
C1459 C1458 1.524 . S
C1459 C1460 1.415 . S
C1460 H1436 0.950 . S
C1460 C1455 1.363 . S
C1460 C1459 1.415 . S
C1461 H1437 0.951 . S
C1461 C1462 1.366 . S
C1461 C1463 1.388 . S
C1462 C1461 1.366 . S
C1462 C1466 1.385 . S
C1463 H1438 0.951 . S
C1463 C1461 1.388 . S
C1463 C1464 1.366 . S
C1464 C1463 1.366 . S
C1464 C1465 1.414 . S
C1464 C1467 1.499 . S
C1465 H1439 0.950 . S
C1465 C1464 1.414 . S
C1465 C1466 1.374 . S
C1466 H1440 0.950 . S
C1466 C1462 1.385 . S
C1466 C1465 1.374 . S
C1467 C1464 1.499 . S
C1467 C1468 1.373 . S
C1467 C1469 1.389 . S
C1468 H1441 0.950 . S
C1468 C1454 1.377 . S
C1468 C1467 1.373 . S
C1469 C1453 1.377 . S
C1469 C1467 1.389 . S
C1469 C1470 1.524 . S
C1470 C1469 1.524 . S
C1470 C1471 1.397 . S
C1470 C1475 1.363 . S
C1471 H1442 0.950 . S
C1471 C1470 1.397 . S
C1471 C1472 1.334 . S
C1472 H1443 0.950 . S
C1472 C1471 1.334 . S
C1472 C1473 1.287 . S
C1473 C1472 1.287 . S
C1473 C1474 1.524 . S
C1473 H1476 0.999 . S
C1474 H1444 0.950 . S
C1474 C1473 1.524 . S
C1474 C1475 1.415 . S
C1475 H1445 0.950 . S
C1475 C1470 1.363 . S
C1475 C1474 1.415 . S
H1476 C1473 0.999 . S
H1477 C1458 0.913 . S
H1478 C1496 0.951 . S
H1479 C1498 0.951 . S
H1480 C1500 0.950 . S
H1481 C1501 0.950 . S
H1482 C1503 0.950 . S
H1483 C1506 0.950 . S
H1484 C1507 0.950 . S
H1485 C1509 0.950 . S
H1486 C1510 0.950 . S
H1487 C1511 0.951 . S
H1488 C1513 0.951 . S
H1489 C1515 0.950 . S
H1490 C1516 0.950 . S
H1491 C1518 0.950 . S
H1492 C1521 0.950 . S
H1493 C1522 0.950 . S
H1494 C1524 0.950 . S
H1495 C1525 0.950 . S
C1496 H1478 0.951 . S
C1496 C1497 1.366 . S
C1496 C1498 1.388 . S
C1497 C1496 1.366 . S
C1497 C1501 1.385 . S
C1498 H1479 0.951 . S
C1498 C1496 1.388 . S
C1498 C1499 1.366 . S
C1499 C1498 1.366 . S
C1499 C1500 1.414 . S
C1499 C1502 1.499 . S
C1500 H1480 0.950 . S
C1500 C1499 1.414 . S
C1500 C1501 1.374 . S
C1501 H1481 0.950 . S
C1501 C1497 1.385 . S
C1501 C1500 1.374 . S
C1502 C1499 1.499 . S
C1502 C1503 1.373 . S
C1502 C1504 1.389 . S
C1503 H1482 0.950 . S
C1503 C1502 1.373 . S
C1503 C1519 1.377 . S
C1504 C1502 1.389 . S
C1504 C1505 1.524 . S
C1504 C1518 1.377 . S
C1505 C1504 1.524 . S
C1505 C1506 1.397 . S
C1505 C1510 1.363 . S
C1506 H1483 0.950 . S
C1506 C1505 1.397 . S
C1506 C1507 1.334 . S
C1507 H1484 0.950 . S
C1507 C1506 1.334 . S
C1507 C1508 1.287 . S
C1508 C1507 1.287 . S
C1508 C1509 1.524 . S
C1508 H1527 0.913 . S
C1509 H1485 0.950 . S
C1509 C1508 1.524 . S
C1509 C1510 1.415 . S
C1510 H1486 0.950 . S
C1510 C1505 1.363 . S
C1510 C1509 1.415 . S
C1511 H1487 0.951 . S
C1511 C1512 1.366 . S
C1511 C1513 1.388 . S
C1512 C1511 1.366 . S
C1512 C1516 1.385 . S
C1513 H1488 0.951 . S
C1513 C1511 1.388 . S
C1513 C1514 1.366 . S
C1514 C1513 1.366 . S
C1514 C1515 1.414 . S
C1514 C1517 1.499 . S
C1515 H1489 0.950 . S
C1515 C1514 1.414 . S
C1515 C1516 1.374 . S
C1516 H1490 0.950 . S
C1516 C1512 1.385 . S
C1516 C1515 1.374 . S
C1517 C1514 1.499 . S
C1517 C1518 1.373 . S
C1517 C1519 1.389 . S
C1518 H1491 0.950 . S
C1518 C1504 1.377 . S
C1518 C1517 1.373 . S
C1519 C1503 1.377 . S
C1519 C1517 1.389 . S
C1519 C1520 1.524 . S
C1520 C1519 1.524 . S
C1520 C1521 1.397 . S
C1520 C1525 1.363 . S
C1521 H1492 0.950 . S
C1521 C1520 1.397 . S
C1521 C1522 1.334 . S
C1522 H1493 0.950 . S
C1522 C1521 1.334 . S
C1522 C1523 1.287 . S
C1523 C1522 1.287 . S
C1523 C1524 1.524 . S
C1523 H1526 0.999 . S
C1524 H1494 0.950 . S
C1524 C1523 1.524 . S
C1524 C1525 1.415 . S
C1525 H1495 0.950 . S
C1525 C1520 1.363 . S
C1525 C1524 1.415 . S
H1526 C1523 0.999 . S
H1527 C1508 0.913 . S
H1528 C1546 0.951 . S
H1529 C1548 0.951 . S
H1530 C1550 0.950 . S
H1531 C1551 0.950 . S
H1532 C1553 0.950 . S
H1533 C1556 0.950 . S
H1534 C1557 0.950 . S
H1535 C1559 0.950 . S
H1536 C1560 0.950 . S
H1537 C1561 0.951 . S
H1538 C1563 0.951 . S
H1539 C1565 0.950 . S
H1540 C1566 0.950 . S
H1541 C1568 0.950 . S
H1542 C1571 0.950 . S
H1543 C1572 0.950 . S
H1544 C1574 0.950 . S
H1545 C1575 0.950 . S
C1546 H1528 0.951 . S
C1546 C1547 1.366 . S
C1546 C1548 1.388 . S
C1547 C1546 1.366 . S
C1547 C1551 1.385 . S
C1548 H1529 0.951 . S
C1548 C1546 1.388 . S
C1548 C1549 1.366 . S
C1549 C1548 1.366 . S
C1549 C1550 1.414 . S
C1549 C1552 1.499 . S
C1550 H1530 0.950 . S
C1550 C1549 1.414 . S
C1550 C1551 1.374 . S
C1551 H1531 0.950 . S
C1551 C1547 1.385 . S
C1551 C1550 1.374 . S
C1552 C1549 1.499 . S
C1552 C1553 1.373 . S
C1552 C1554 1.389 . S
C1553 H1532 0.950 . S
C1553 C1552 1.373 . S
C1553 C1569 1.377 . S
C1554 C1552 1.389 . S
C1554 C1555 1.524 . S
C1554 C1568 1.377 . S
C1555 C1554 1.524 . S
C1555 C1556 1.397 . S
C1555 C1560 1.363 . S
C1556 H1533 0.950 . S
C1556 C1555 1.397 . S
C1556 C1557 1.334 . S
C1557 H1534 0.950 . S
C1557 C1556 1.334 . S
C1557 C1558 1.287 . S
C1558 C1557 1.287 . S
C1558 C1559 1.524 . S
C1558 H1577 0.913 . S
C1559 H1535 0.950 . S
C1559 C1558 1.524 . S
C1559 C1560 1.415 . S
C1560 H1536 0.950 . S
C1560 C1555 1.363 . S
C1560 C1559 1.415 . S
C1561 H1537 0.951 . S
C1561 C1562 1.366 . S
C1561 C1563 1.388 . S
C1562 C1561 1.366 . S
C1562 C1566 1.385 . S
C1563 H1538 0.951 . S
C1563 C1561 1.388 . S
C1563 C1564 1.366 . S
C1564 C1563 1.366 . S
C1564 C1565 1.414 . S
C1564 C1567 1.499 . S
C1565 H1539 0.950 . S
C1565 C1564 1.414 . S
C1565 C1566 1.374 . S
C1566 H1540 0.950 . S
C1566 C1562 1.385 . S
C1566 C1565 1.374 . S
C1567 C1564 1.499 . S
C1567 C1568 1.373 . S
C1567 C1569 1.389 . S
C1568 H1541 0.950 . S
C1568 C1554 1.377 . S
C1568 C1567 1.373 . S
C1569 C1553 1.377 . S
C1569 C1567 1.389 . S
C1569 C1570 1.524 . S
C1570 C1569 1.524 . S
C1570 C1571 1.397 . S
C1570 C1575 1.363 . S
C1571 H1542 0.950 . S
C1571 C1570 1.397 . S
C1571 C1572 1.334 . S
C1572 H1543 0.950 . S
C1572 C1571 1.334 . S
C1572 C1573 1.287 . S
C1573 C1572 1.287 . S
C1573 C1574 1.524 . S
C1573 H1576 0.999 . S
C1574 H1544 0.950 . S
C1574 C1573 1.524 . S
C1574 C1575 1.415 . S
C1575 H1545 0.950 . S
C1575 C1570 1.363 . S
C1575 C1574 1.415 . S
H1576 C1573 0.999 . S
H1577 C1558 0.913 . S
H1578 C1596 0.951 . S
H1579 C1598 0.951 . S
H1580 C1600 0.950 . S
H1581 C1601 0.950 . S
H1582 C1603 0.950 . S
H1583 C1606 0.950 . S
H1584 C1607 0.950 . S
H1585 C1609 0.950 . S
H1586 C1610 0.950 . S
H1587 C1611 0.951 . S
H1588 C1613 0.951 . S
H1589 C1615 0.950 . S
H1590 C1616 0.950 . S
H1591 C1618 0.950 . S
H1592 C1621 0.950 . S
H1593 C1622 0.950 . S
H1594 C1624 0.950 . S
H1595 C1625 0.950 . S
C1596 H1578 0.951 . S
C1596 C1597 1.366 . S
C1596 C1598 1.388 . S
C1597 C1596 1.366 . S
C1597 C1601 1.385 . S
C1598 H1579 0.951 . S
C1598 C1596 1.388 . S
C1598 C1599 1.366 . S
C1599 C1598 1.366 . S
C1599 C1600 1.414 . S
C1599 C1602 1.499 . S
C1600 H1580 0.950 . S
C1600 C1599 1.414 . S
C1600 C1601 1.374 . S
C1601 H1581 0.950 . S
C1601 C1597 1.385 . S
C1601 C1600 1.374 . S
C1602 C1599 1.499 . S
C1602 C1603 1.373 . S
C1602 C1604 1.389 . S
C1603 H1582 0.950 . S
C1603 C1602 1.373 . S
C1603 C1619 1.377 . S
C1604 C1602 1.389 . S
C1604 C1605 1.524 . S
C1604 C1618 1.377 . S
C1605 C1604 1.524 . S
C1605 C1606 1.397 . S
C1605 C1610 1.363 . S
C1606 H1583 0.950 . S
C1606 C1605 1.397 . S
C1606 C1607 1.334 . S
C1607 H1584 0.950 . S
C1607 C1606 1.334 . S
C1607 C1608 1.287 . S
C1608 C1607 1.287 . S
C1608 C1609 1.524 . S
C1608 H1627 0.913 . S
C1609 H1585 0.950 . S
C1609 C1608 1.524 . S
C1609 C1610 1.415 . S
C1610 H1586 0.950 . S
C1610 C1605 1.363 . S
C1610 C1609 1.415 . S
C1611 H1587 0.951 . S
C1611 C1612 1.366 . S
C1611 C1613 1.388 . S
C1612 C1611 1.366 . S
C1612 C1616 1.385 . S
C1613 H1588 0.951 . S
C1613 C1611 1.388 . S
C1613 C1614 1.366 . S
C1614 C1613 1.366 . S
C1614 C1615 1.414 . S
C1614 C1617 1.499 . S
C1615 H1589 0.950 . S
C1615 C1614 1.414 . S
C1615 C1616 1.374 . S
C1616 H1590 0.950 . S
C1616 C1612 1.385 . S
C1616 C1615 1.374 . S
C1617 C1614 1.499 . S
C1617 C1618 1.373 . S
C1617 C1619 1.389 . S
C1618 H1591 0.950 . S
C1618 C1604 1.377 . S
C1618 C1617 1.373 . S
C1619 C1603 1.377 . S
C1619 C1617 1.389 . S
C1619 C1620 1.524 . S
C1620 C1619 1.524 . S
C1620 C1621 1.397 . S
C1620 C1625 1.363 . S
C1621 H1592 0.950 . S
C1621 C1620 1.397 . S
C1621 C1622 1.334 . S
C1622 H1593 0.950 . S
C1622 C1621 1.334 . S
C1622 C1623 1.287 . S
C1623 C1622 1.287 . S
C1623 C1624 1.524 . S
C1623 H1626 0.999 . S
C1624 H1594 0.950 . S
C1624 C1623 1.524 . S
C1624 C1625 1.415 . S
C1625 H1595 0.950 . S
C1625 C1620 1.363 . S
C1625 C1624 1.415 . S
H1626 C1623 0.999 . S
H1627 C1608 0.913 . S
H1628 C1646 0.951 . S
H1629 C1648 0.951 . S
H1630 C1650 0.950 . S
H1631 C1651 0.950 . S
H1632 C1653 0.950 . S
H1633 C1656 0.950 . S
H1634 C1657 0.950 . S
H1635 C1659 0.950 . S
H1636 C1660 0.950 . S
H1637 C1661 0.951 . S
H1638 C1663 0.951 . S
H1639 C1665 0.950 . S
H1640 C1666 0.950 . S
H1641 C1668 0.950 . S
H1642 C1671 0.950 . S
H1643 C1672 0.950 . S
H1644 C1674 0.950 . S
H1645 C1675 0.950 . S
C1646 H1628 0.951 . S
C1646 C1647 1.366 . S
C1646 C1648 1.388 . S
C1647 C1646 1.366 . S
C1647 C1651 1.385 . S
C1648 H1629 0.951 . S
C1648 C1646 1.388 . S
C1648 C1649 1.366 . S
C1649 C1648 1.366 . S
C1649 C1650 1.414 . S
C1649 C1652 1.499 . S
C1650 H1630 0.950 . S
C1650 C1649 1.414 . S
C1650 C1651 1.374 . S
C1651 H1631 0.950 . S
C1651 C1647 1.385 . S
C1651 C1650 1.374 . S
C1652 C1649 1.499 . S
C1652 C1653 1.373 . S
C1652 C1654 1.389 . S
C1653 H1632 0.950 . S
C1653 C1652 1.373 . S
C1653 C1669 1.377 . S
C1654 C1652 1.389 . S
C1654 C1655 1.524 . S
C1654 C1668 1.377 . S
C1655 C1654 1.524 . S
C1655 C1656 1.397 . S
C1655 C1660 1.363 . S
C1656 H1633 0.950 . S
C1656 C1655 1.397 . S
C1656 C1657 1.334 . S
C1657 H1634 0.950 . S
C1657 C1656 1.334 . S
C1657 C1658 1.287 . S
C1658 C1657 1.287 . S
C1658 C1659 1.524 . S
C1658 H1677 0.913 . S
C1659 H1635 0.950 . S
C1659 C1658 1.524 . S
C1659 C1660 1.415 . S
C1660 H1636 0.950 . S
C1660 C1655 1.363 . S
C1660 C1659 1.415 . S
C1661 H1637 0.951 . S
C1661 C1662 1.366 . S
C1661 C1663 1.388 . S
C1662 C1661 1.366 . S
C1662 C1666 1.385 . S
C1663 H1638 0.951 . S
C1663 C1661 1.388 . S
C1663 C1664 1.366 . S
C1664 C1663 1.366 . S
C1664 C1665 1.414 . S
C1664 C1667 1.499 . S
C1665 H1639 0.950 . S
C1665 C1664 1.414 . S
C1665 C1666 1.374 . S
C1666 H1640 0.950 . S
C1666 C1662 1.385 . S
C1666 C1665 1.374 . S
C1667 C1664 1.499 . S
C1667 C1668 1.373 . S
C1667 C1669 1.389 . S
C1668 H1641 0.950 . S
C1668 C1654 1.377 . S
C1668 C1667 1.373 . S
C1669 C1653 1.377 . S
C1669 C1667 1.389 . S
C1669 C1670 1.524 . S
C1670 C1669 1.524 . S
C1670 C1671 1.397 . S
C1670 C1675 1.363 . S
C1671 H1642 0.950 . S
C1671 C1670 1.397 . S
C1671 C1672 1.334 . S
C1672 H1643 0.950 . S
C1672 C1671 1.334 . S
C1672 C1673 1.287 . S
C1673 C1672 1.287 . S
C1673 C1674 1.524 . S
C1673 H1676 0.999 . S
C1674 H1644 0.950 . S
C1674 C1673 1.524 . S
C1674 C1675 1.415 . S
C1675 H1645 0.950 . S
C1675 C1670 1.363 . S
C1675 C1674 1.415 . S
H1676 C1673 0.999 . S
H1677 C1658 0.913 . S
H1678 C1696 0.951 . S
H1679 C1698 0.951 . S
H1680 C1700 0.950 . S
H1681 C1701 0.950 . S
H1682 C1703 0.950 . S
H1683 C1706 0.950 . S
H1684 C1707 0.950 . S
H1685 C1709 0.950 . S
H1686 C1710 0.950 . S
H1687 C1711 0.951 . S
H1688 C1713 0.951 . S
H1689 C1715 0.950 . S
H1690 C1716 0.950 . S
H1691 C1718 0.950 . S
H1692 C1721 0.950 . S
H1693 C1722 0.950 . S
H1694 C1724 0.950 . S
H1695 C1725 0.950 . S
C1696 H1678 0.951 . S
C1696 C1697 1.366 . S
C1696 C1698 1.388 . S
C1697 C1696 1.366 . S
C1697 C1701 1.385 . S
C1698 H1679 0.951 . S
C1698 C1696 1.388 . S
C1698 C1699 1.366 . S
C1699 C1698 1.366 . S
C1699 C1700 1.414 . S
C1699 C1702 1.499 . S
C1700 H1680 0.950 . S
C1700 C1699 1.414 . S
C1700 C1701 1.374 . S
C1701 H1681 0.950 . S
C1701 C1697 1.385 . S
C1701 C1700 1.374 . S
C1702 C1699 1.499 . S
C1702 C1703 1.373 . S
C1702 C1704 1.389 . S
C1703 H1682 0.950 . S
C1703 C1702 1.373 . S
C1703 C1719 1.377 . S
C1704 C1702 1.389 . S
C1704 C1705 1.524 . S
C1704 C1718 1.377 . S
C1705 C1704 1.524 . S
C1705 C1706 1.397 . S
C1705 C1710 1.363 . S
C1706 H1683 0.950 . S
C1706 C1705 1.397 . S
C1706 C1707 1.334 . S
C1707 H1684 0.950 . S
C1707 C1706 1.334 . S
C1707 C1708 1.287 . S
C1708 C1707 1.287 . S
C1708 C1709 1.524 . S
C1708 H1727 0.913 . S
C1709 H1685 0.950 . S
C1709 C1708 1.524 . S
C1709 C1710 1.415 . S
C1710 H1686 0.950 . S
C1710 C1705 1.363 . S
C1710 C1709 1.415 . S
C1711 H1687 0.951 . S
C1711 C1712 1.366 . S
C1711 C1713 1.388 . S
C1712 C1711 1.366 . S
C1712 C1716 1.385 . S
C1713 H1688 0.951 . S
C1713 C1711 1.388 . S
C1713 C1714 1.366 . S
C1714 C1713 1.366 . S
C1714 C1715 1.414 . S
C1714 C1717 1.499 . S
C1715 H1689 0.950 . S
C1715 C1714 1.414 . S
C1715 C1716 1.374 . S
C1716 H1690 0.950 . S
C1716 C1712 1.385 . S
C1716 C1715 1.374 . S
C1717 C1714 1.499 . S
C1717 C1718 1.373 . S
C1717 C1719 1.389 . S
C1718 H1691 0.950 . S
C1718 C1704 1.377 . S
C1718 C1717 1.373 . S
C1719 C1703 1.377 . S
C1719 C1717 1.389 . S
C1719 C1720 1.524 . S
C1720 C1719 1.524 . S
C1720 C1721 1.397 . S
C1720 C1725 1.363 . S
C1721 H1692 0.950 . S
C1721 C1720 1.397 . S
C1721 C1722 1.334 . S
C1722 H1693 0.950 . S
C1722 C1721 1.334 . S
C1722 C1723 1.287 . S
C1723 C1722 1.287 . S
C1723 C1724 1.524 . S
C1723 H1726 0.999 . S
C1724 H1694 0.950 . S
C1724 C1723 1.524 . S
C1724 C1725 1.415 . S
C1725 H1695 0.950 . S
C1725 C1720 1.363 . S
C1725 C1724 1.415 . S
H1726 C1723 0.999 . S
H1727 C1708 0.913 . S
H1728 C1746 0.951 . S
H1729 C1748 0.951 . S
H1730 C1750 0.950 . S
H1731 C1751 0.950 . S
H1732 C1753 0.950 . S
H1733 C1756 0.950 . S
H1734 C1757 0.950 . S
H1735 C1759 0.950 . S
H1736 C1760 0.950 . S
H1737 C1761 0.951 . S
H1738 C1763 0.951 . S
H1739 C1765 0.950 . S
H1740 C1766 0.950 . S
H1741 C1768 0.950 . S
H1742 C1771 0.950 . S
H1743 C1772 0.950 . S
H1744 C1774 0.950 . S
H1745 C1775 0.950 . S
C1746 H1728 0.951 . S
C1746 C1747 1.366 . S
C1746 C1748 1.388 . S
C1747 C1746 1.366 . S
C1747 C1751 1.385 . S
C1748 H1729 0.951 . S
C1748 C1746 1.388 . S
C1748 C1749 1.366 . S
C1749 C1748 1.366 . S
C1749 C1750 1.414 . S
C1749 C1752 1.499 . S
C1750 H1730 0.950 . S
C1750 C1749 1.414 . S
C1750 C1751 1.374 . S
C1751 H1731 0.950 . S
C1751 C1747 1.385 . S
C1751 C1750 1.374 . S
C1752 C1749 1.499 . S
C1752 C1753 1.373 . S
C1752 C1754 1.389 . S
C1753 H1732 0.950 . S
C1753 C1752 1.373 . S
C1753 C1769 1.377 . S
C1754 C1752 1.389 . S
C1754 C1755 1.524 . S
C1754 C1768 1.377 . S
C1755 C1754 1.524 . S
C1755 C1756 1.397 . S
C1755 C1760 1.363 . S
C1756 H1733 0.950 . S
C1756 C1755 1.397 . S
C1756 C1757 1.334 . S
C1757 H1734 0.950 . S
C1757 C1756 1.334 . S
C1757 C1758 1.287 . S
C1758 C1757 1.287 . S
C1758 C1759 1.524 . S
C1758 H1777 0.913 . S
C1759 H1735 0.950 . S
C1759 C1758 1.524 . S
C1759 C1760 1.415 . S
C1760 H1736 0.950 . S
C1760 C1755 1.363 . S
C1760 C1759 1.415 . S
C1761 H1737 0.951 . S
C1761 C1762 1.366 . S
C1761 C1763 1.388 . S
C1762 C1761 1.366 . S
C1762 C1766 1.385 . S
C1763 H1738 0.951 . S
C1763 C1761 1.388 . S
C1763 C1764 1.366 . S
C1764 C1763 1.366 . S
C1764 C1765 1.414 . S
C1764 C1767 1.499 . S
C1765 H1739 0.950 . S
C1765 C1764 1.414 . S
C1765 C1766 1.374 . S
C1766 H1740 0.950 . S
C1766 C1762 1.385 . S
C1766 C1765 1.374 . S
C1767 C1764 1.499 . S
C1767 C1768 1.373 . S
C1767 C1769 1.389 . S
C1768 H1741 0.950 . S
C1768 C1754 1.377 . S
C1768 C1767 1.373 . S
C1769 C1753 1.377 . S
C1769 C1767 1.389 . S
C1769 C1770 1.524 . S
C1770 C1769 1.524 . S
C1770 C1771 1.397 . S
C1770 C1775 1.363 . S
C1771 H1742 0.950 . S
C1771 C1770 1.397 . S
C1771 C1772 1.334 . S
C1772 H1743 0.950 . S
C1772 C1771 1.334 . S
C1772 C1773 1.287 . S
C1773 C1772 1.287 . S
C1773 C1774 1.524 . S
C1773 H1776 0.999 . S
C1774 H1744 0.950 . S
C1774 C1773 1.524 . S
C1774 C1775 1.415 . S
C1775 H1745 0.950 . S
C1775 C1770 1.363 . S
C1775 C1774 1.415 . S
H1776 C1773 0.999 . S
H1777 C1758 0.913 . S
H1778 C1796 0.951 . S
H1779 C1798 0.951 . S
H1780 C1800 0.950 . S
H1781 C1801 0.950 . S
H1782 C1803 0.950 . S
H1783 C1806 0.950 . S
H1784 C1807 0.950 . S
H1785 C1809 0.950 . S
H1786 C1810 0.950 . S
H1787 C1811 0.951 . S
H1788 C1813 0.951 . S
H1789 C1815 0.950 . S
H1790 C1816 0.950 . S
H1791 C1818 0.950 . S
H1792 C1821 0.950 . S
H1793 C1822 0.950 . S
H1794 C1824 0.950 . S
H1795 C1825 0.950 . S
C1796 H1778 0.951 . S
C1796 C1797 1.366 . S
C1796 C1798 1.388 . S
C1797 C1796 1.366 . S
C1797 C1801 1.385 . S
C1798 H1779 0.951 . S
C1798 C1796 1.388 . S
C1798 C1799 1.366 . S
C1799 C1798 1.366 . S
C1799 C1800 1.414 . S
C1799 C1802 1.499 . S
C1800 H1780 0.950 . S
C1800 C1799 1.414 . S
C1800 C1801 1.374 . S
C1801 H1781 0.950 . S
C1801 C1797 1.385 . S
C1801 C1800 1.374 . S
C1802 C1799 1.499 . S
C1802 C1803 1.373 . S
C1802 C1804 1.389 . S
C1803 H1782 0.950 . S
C1803 C1802 1.373 . S
C1803 C1819 1.377 . S
C1804 C1802 1.389 . S
C1804 C1805 1.524 . S
C1804 C1818 1.377 . S
C1805 C1804 1.524 . S
C1805 C1806 1.397 . S
C1805 C1810 1.363 . S
C1806 H1783 0.950 . S
C1806 C1805 1.397 . S
C1806 C1807 1.334 . S
C1807 H1784 0.950 . S
C1807 C1806 1.334 . S
C1807 C1808 1.287 . S
C1808 C1807 1.287 . S
C1808 C1809 1.524 . S
C1808 H1827 0.913 . S
C1809 H1785 0.950 . S
C1809 C1808 1.524 . S
C1809 C1810 1.415 . S
C1810 H1786 0.950 . S
C1810 C1805 1.363 . S
C1810 C1809 1.415 . S
C1811 H1787 0.951 . S
C1811 C1812 1.366 . S
C1811 C1813 1.388 . S
C1812 C1811 1.366 . S
C1812 C1816 1.385 . S
C1813 H1788 0.951 . S
C1813 C1811 1.388 . S
C1813 C1814 1.366 . S
C1814 C1813 1.366 . S
C1814 C1815 1.414 . S
C1814 C1817 1.499 . S
C1815 H1789 0.950 . S
C1815 C1814 1.414 . S
C1815 C1816 1.374 . S
C1816 H1790 0.950 . S
C1816 C1812 1.385 . S
C1816 C1815 1.374 . S
C1817 C1814 1.499 . S
C1817 C1818 1.373 . S
C1817 C1819 1.389 . S
C1818 H1791 0.950 . S
C1818 C1804 1.377 . S
C1818 C1817 1.373 . S
C1819 C1803 1.377 . S
C1819 C1817 1.389 . S
C1819 C1820 1.524 . S
C1820 C1819 1.524 . S
C1820 C1821 1.397 . S
C1820 C1825 1.363 . S
C1821 H1792 0.950 . S
C1821 C1820 1.397 . S
C1821 C1822 1.334 . S
C1822 H1793 0.950 . S
C1822 C1821 1.334 . S
C1822 C1823 1.287 . S
C1823 C1822 1.287 . S
C1823 C1824 1.524 . S
C1823 H1826 0.999 1_655 S
C1824 H1794 0.950 . S
C1824 C1823 1.524 . S
C1824 C1825 1.415 . S
C1825 H1795 0.950 . S
C1825 C1820 1.363 . S
C1825 C1824 1.415 . S
H1826 C1823 0.999 1_455 S
H1827 C1808 0.913 . S
H1828 C1846 0.951 . S
H1829 C1848 0.951 . S
H1830 C1850 0.950 . S
H1831 C1851 0.950 . S
H1832 C1853 0.950 . S
H1833 C1856 0.950 . S
H1834 C1857 0.950 . S
H1835 C1859 0.950 . S
H1836 C1860 0.950 . S
H1837 C1861 0.951 . S
H1838 C1863 0.951 . S
H1839 C1865 0.950 . S
H1840 C1866 0.950 . S
H1841 C1868 0.950 . S
H1842 C1871 0.950 . S
H1843 C1872 0.950 . S
H1844 C1874 0.950 . S
H1845 C1875 0.950 . S
C1846 H1828 0.951 . S
C1846 C1847 1.366 . S
C1846 C1848 1.388 . S
C1847 C1846 1.366 . S
C1847 C1851 1.385 . S
C1848 H1829 0.951 . S
C1848 C1846 1.388 . S
C1848 C1849 1.366 . S
C1849 C1848 1.366 . S
C1849 C1850 1.414 . S
C1849 C1852 1.499 . S
C1850 H1830 0.950 . S
C1850 C1849 1.414 . S
C1850 C1851 1.374 . S
C1851 H1831 0.950 . S
C1851 C1847 1.385 . S
C1851 C1850 1.374 . S
C1852 C1849 1.499 . S
C1852 C1853 1.373 . S
C1852 C1854 1.389 . S
C1853 H1832 0.950 . S
C1853 C1852 1.373 . S
C1853 C1869 1.377 . S
C1854 C1852 1.389 . S
C1854 C1855 1.524 . S
C1854 C1868 1.377 . S
C1855 C1854 1.524 . S
C1855 C1856 1.397 . S
C1855 C1860 1.363 . S
C1856 H1833 0.950 . S
C1856 C1855 1.397 . S
C1856 C1857 1.334 . S
C1857 H1834 0.950 . S
C1857 C1856 1.334 . S
C1857 C1858 1.287 . S
C1858 C1857 1.287 . S
C1858 C1859 1.524 . S
C1858 H1877 0.913 . S
C1859 H1835 0.950 . S
C1859 C1858 1.524 . S
C1859 C1860 1.415 . S
C1860 H1836 0.950 . S
C1860 C1855 1.363 . S
C1860 C1859 1.415 . S
C1861 H1837 0.951 . S
C1861 C1862 1.366 . S
C1861 C1863 1.388 . S
C1862 C1861 1.366 . S
C1862 C1866 1.385 . S
C1863 H1838 0.951 . S
C1863 C1861 1.388 . S
C1863 C1864 1.366 . S
C1864 C1863 1.366 . S
C1864 C1865 1.414 . S
C1864 C1867 1.499 . S
C1865 H1839 0.950 . S
C1865 C1864 1.414 . S
C1865 C1866 1.374 . S
C1866 H1840 0.950 . S
C1866 C1862 1.385 . S
C1866 C1865 1.374 . S
C1867 C1864 1.499 . S
C1867 C1868 1.373 . S
C1867 C1869 1.389 . S
C1868 H1841 0.950 . S
C1868 C1854 1.377 . S
C1868 C1867 1.373 . S
C1869 C1853 1.377 . S
C1869 C1867 1.389 . S
C1869 C1870 1.524 . S
C1870 C1869 1.524 . S
C1870 C1871 1.397 . S
C1870 C1875 1.363 . S
C1871 H1842 0.950 . S
C1871 C1870 1.397 . S
C1871 C1872 1.334 . S
C1872 H1843 0.950 . S
C1872 C1871 1.334 . S
C1872 C1873 1.287 . S
C1873 C1872 1.287 . S
C1873 C1874 1.524 . S
C1873 H1876 0.999 . S
C1874 H1844 0.950 . S
C1874 C1873 1.524 . S
C1874 C1875 1.415 . S
C1875 H1845 0.950 . S
C1875 C1870 1.363 . S
C1875 C1874 1.415 . S
H1876 C1873 0.999 . S
H1877 C1858 0.913 . S
H1878 C1896 0.951 . S
H1879 C1898 0.951 . S
H1880 C1900 0.950 . S
H1881 C1901 0.950 . S
H1882 C1903 0.950 . S
H1883 C1906 0.950 . S
H1884 C1907 0.950 . S
H1885 C1909 0.950 . S
H1886 C1910 0.950 . S
H1887 C1911 0.951 . S
H1888 C1913 0.951 . S
H1889 C1915 0.950 . S
H1890 C1916 0.950 . S
H1891 C1918 0.950 . S
H1892 C1921 0.950 . S
H1893 C1922 0.950 . S
H1894 C1924 0.950 . S
H1895 C1925 0.950 . S
C1896 H1878 0.951 . S
C1896 C1897 1.366 . S
C1896 C1898 1.388 . S
C1897 C1896 1.366 . S
C1897 C1901 1.385 . S
C1898 H1879 0.951 . S
C1898 C1896 1.388 . S
C1898 C1899 1.366 . S
C1899 C1898 1.366 . S
C1899 C1900 1.414 . S
C1899 C1902 1.499 . S
C1900 H1880 0.950 . S
C1900 C1899 1.414 . S
C1900 C1901 1.374 . S
C1901 H1881 0.950 . S
C1901 C1897 1.385 . S
C1901 C1900 1.374 . S
C1902 C1899 1.499 . S
C1902 C1903 1.373 . S
C1902 C1904 1.389 . S
C1903 H1882 0.950 . S
C1903 C1902 1.373 . S
C1903 C1919 1.377 . S
C1904 C1902 1.389 . S
C1904 C1905 1.524 . S
C1904 C1918 1.377 . S
C1905 C1904 1.524 . S
C1905 C1906 1.397 . S
C1905 C1910 1.363 . S
C1906 H1883 0.950 . S
C1906 C1905 1.397 . S
C1906 C1907 1.334 . S
C1907 H1884 0.950 . S
C1907 C1906 1.334 . S
C1907 C1908 1.287 . S
C1908 C1907 1.287 . S
C1908 C1909 1.524 . S
C1908 H1927 0.913 . S
C1909 H1885 0.950 . S
C1909 C1908 1.524 . S
C1909 C1910 1.415 . S
C1910 H1886 0.950 . S
C1910 C1905 1.363 . S
C1910 C1909 1.415 . S
C1911 H1887 0.951 . S
C1911 C1912 1.366 . S
C1911 C1913 1.388 . S
C1912 C1911 1.366 . S
C1912 C1916 1.385 . S
C1913 H1888 0.951 . S
C1913 C1911 1.388 . S
C1913 C1914 1.366 . S
C1914 C1913 1.366 . S
C1914 C1915 1.414 . S
C1914 C1917 1.499 . S
C1915 H1889 0.950 . S
C1915 C1914 1.414 . S
C1915 C1916 1.374 . S
C1916 H1890 0.950 . S
C1916 C1912 1.385 . S
C1916 C1915 1.374 . S
C1917 C1914 1.499 . S
C1917 C1918 1.373 . S
C1917 C1919 1.389 . S
C1918 H1891 0.950 . S
C1918 C1904 1.377 . S
C1918 C1917 1.373 . S
C1919 C1903 1.377 . S
C1919 C1917 1.389 . S
C1919 C1920 1.524 . S
C1920 C1919 1.524 . S
C1920 C1921 1.397 . S
C1920 C1925 1.363 . S
C1921 H1892 0.950 . S
C1921 C1920 1.397 . S
C1921 C1922 1.334 . S
C1922 H1893 0.950 . S
C1922 C1921 1.334 . S
C1922 C1923 1.287 . S
C1923 C1922 1.287 . S
C1923 C1924 1.524 . S
C1923 H1926 0.999 . S
C1924 H1894 0.950 . S
C1924 C1923 1.524 . S
C1924 C1925 1.415 . S
C1925 H1895 0.950 . S
C1925 C1920 1.363 . S
C1925 C1924 1.415 . S
H1926 C1923 0.999 . S
H1927 C1908 0.913 . S
H1928 C1946 0.951 . S
H1929 C1948 0.951 . S
H1930 C1950 0.950 . S
H1931 C1951 0.950 . S
H1932 C1953 0.950 . S
H1933 C1956 0.950 . S
H1934 C1957 0.950 . S
H1935 C1959 0.950 . S
H1936 C1960 0.950 . S
H1937 C1961 0.951 . S
H1938 C1963 0.951 . S
H1939 C1965 0.950 . S
H1940 C1966 0.950 . S
H1941 C1968 0.950 . S
H1942 C1971 0.950 . S
H1943 C1972 0.950 . S
H1944 C1974 0.950 . S
H1945 C1975 0.950 . S
C1946 H1928 0.951 . S
C1946 C1947 1.366 . S
C1946 C1948 1.388 . S
C1947 C1946 1.366 . S
C1947 C1951 1.385 . S
C1948 H1929 0.951 . S
C1948 C1946 1.388 . S
C1948 C1949 1.366 . S
C1949 C1948 1.366 . S
C1949 C1950 1.414 . S
C1949 C1952 1.499 . S
C1950 H1930 0.950 . S
C1950 C1949 1.414 . S
C1950 C1951 1.374 . S
C1951 H1931 0.950 . S
C1951 C1947 1.385 . S
C1951 C1950 1.374 . S
C1952 C1949 1.499 . S
C1952 C1953 1.373 . S
C1952 C1954 1.389 . S
C1953 H1932 0.950 . S
C1953 C1952 1.373 . S
C1953 C1969 1.377 . S
C1954 C1952 1.389 . S
C1954 C1955 1.524 . S
C1954 C1968 1.377 . S
C1955 C1954 1.524 . S
C1955 C1956 1.397 . S
C1955 C1960 1.363 . S
C1956 H1933 0.950 . S
C1956 C1955 1.397 . S
C1956 C1957 1.334 . S
C1957 H1934 0.950 . S
C1957 C1956 1.334 . S
C1957 C1958 1.287 . S
C1958 C1957 1.287 . S
C1958 C1959 1.524 . S
C1958 H1977 0.913 . S
C1959 H1935 0.950 . S
C1959 C1958 1.524 . S
C1959 C1960 1.415 . S
C1960 H1936 0.950 . S
C1960 C1955 1.363 . S
C1960 C1959 1.415 . S
C1961 H1937 0.951 . S
C1961 C1962 1.366 . S
C1961 C1963 1.388 . S
C1962 C1961 1.366 . S
C1962 C1966 1.385 . S
C1963 H1938 0.951 . S
C1963 C1961 1.388 . S
C1963 C1964 1.366 . S
C1964 C1963 1.366 . S
C1964 C1965 1.414 . S
C1964 C1967 1.499 . S
C1965 H1939 0.950 . S
C1965 C1964 1.414 . S
C1965 C1966 1.374 . S
C1966 H1940 0.950 . S
C1966 C1962 1.385 . S
C1966 C1965 1.374 . S
C1967 C1964 1.499 . S
C1967 C1968 1.373 . S
C1967 C1969 1.389 . S
C1968 H1941 0.950 . S
C1968 C1954 1.377 . S
C1968 C1967 1.373 . S
C1969 C1953 1.377 . S
C1969 C1967 1.389 . S
C1969 C1970 1.524 . S
C1970 C1969 1.524 . S
C1970 C1971 1.397 . S
C1970 C1975 1.363 . S
C1971 H1942 0.950 . S
C1971 C1970 1.397 . S
C1971 C1972 1.334 . S
C1972 H1943 0.950 . S
C1972 C1971 1.334 . S
C1972 C1973 1.287 . S
C1973 C1972 1.287 . S
C1973 C1974 1.524 . S
C1973 H1976 0.999 . S
C1974 H1944 0.950 . S
C1974 C1973 1.524 . S
C1974 C1975 1.415 . S
C1975 H1945 0.950 . S
C1975 C1970 1.363 . S
C1975 C1974 1.415 . S
H1976 C1973 0.999 . S
H1977 C1958 0.913 . S
H1978 C1996 0.951 . S
H1979 C1998 0.951 . S
H1980 C2000 0.950 . S
H1981 C2001 0.950 . S
H1982 C2003 0.950 . S
H1983 C2006 0.950 . S
H1984 C2007 0.950 . S
H1985 C2009 0.950 . S
H1986 C2010 0.950 . S
H1987 C2011 0.951 . S
H1988 C2013 0.951 . S
H1989 C2015 0.950 . S
H1990 C2016 0.950 . S
H1991 C2018 0.950 . S
H1992 C2021 0.950 . S
H1993 C2022 0.950 . S
H1994 C2024 0.950 . S
H1995 C2025 0.950 . S
C1996 H1978 0.951 . S
C1996 C1997 1.366 . S
C1996 C1998 1.388 . S
C1997 C1996 1.366 . S
C1997 C2001 1.385 . S
C1998 H1979 0.951 . S
C1998 C1996 1.388 . S
C1998 C1999 1.366 . S
C1999 C1998 1.366 . S
C1999 C2000 1.414 . S
C1999 C2002 1.499 . S
C2000 H1980 0.950 . S
C2000 C1999 1.414 . S
C2000 C2001 1.374 . S
C2001 H1981 0.950 . S
C2001 C1997 1.385 . S
C2001 C2000 1.374 . S
C2002 C1999 1.499 . S
C2002 C2003 1.373 . S
C2002 C2004 1.389 . S
C2003 H1982 0.950 . S
C2003 C2002 1.373 . S
C2003 C2019 1.377 . S
C2004 C2002 1.389 . S
C2004 C2005 1.524 . S
C2004 C2018 1.377 . S
C2005 C2004 1.524 . S
C2005 C2006 1.397 . S
C2005 C2010 1.363 . S
C2006 H1983 0.950 . S
C2006 C2005 1.397 . S
C2006 C2007 1.334 . S
C2007 H1984 0.950 . S
C2007 C2006 1.334 . S
C2007 C2008 1.287 . S
C2008 C2007 1.287 . S
C2008 C2009 1.524 . S
C2008 H2027 0.913 . S
C2009 H1985 0.950 . S
C2009 C2008 1.524 . S
C2009 C2010 1.415 . S
C2010 H1986 0.950 . S
C2010 C2005 1.363 . S
C2010 C2009 1.415 . S
C2011 H1987 0.951 . S
C2011 C2012 1.366 . S
C2011 C2013 1.388 . S
C2012 C2011 1.366 . S
C2012 C2016 1.385 . S
C2013 H1988 0.951 . S
C2013 C2011 1.388 . S
C2013 C2014 1.366 . S
C2014 C2013 1.366 . S
C2014 C2015 1.414 . S
C2014 C2017 1.499 . S
C2015 H1989 0.950 . S
C2015 C2014 1.414 . S
C2015 C2016 1.374 . S
C2016 H1990 0.950 . S
C2016 C2012 1.385 . S
C2016 C2015 1.374 . S
C2017 C2014 1.499 . S
C2017 C2018 1.373 . S
C2017 C2019 1.389 . S
C2018 H1991 0.950 . S
C2018 C2004 1.377 . S
C2018 C2017 1.373 . S
C2019 C2003 1.377 . S
C2019 C2017 1.389 . S
C2019 C2020 1.524 . S
C2020 C2019 1.524 . S
C2020 C2021 1.397 . S
C2020 C2025 1.363 . S
C2021 H1992 0.950 . S
C2021 C2020 1.397 . S
C2021 C2022 1.334 . S
C2022 H1993 0.950 . S
C2022 C2021 1.334 . S
C2022 C2023 1.287 . S
C2023 C2022 1.287 . S
C2023 C2024 1.524 . S
C2023 H2026 0.999 . S
C2024 H1994 0.950 . S
C2024 C2023 1.524 . S
C2024 C2025 1.415 . S
C2025 H1995 0.950 . S
C2025 C2020 1.363 . S
C2025 C2024 1.415 . S
H2026 C2023 0.999 . S
H2027 C2008 0.913 . S
H2028 C2046 0.951 . S
H2029 C2048 0.951 . S
H2030 C2050 0.950 . S
H2031 C2051 0.950 . S
H2032 C2053 0.950 . S
H2033 C2056 0.950 . S
H2034 C2057 0.950 . S
H2035 C2059 0.950 . S
H2036 C2060 0.950 . S
H2037 C2061 0.951 . S
H2038 C2063 0.951 . S
H2039 C2065 0.950 . S
H2040 C2066 0.950 . S
H2041 C2068 0.950 . S
H2042 C2071 0.950 . S
H2043 C2072 0.950 . S
H2044 C2074 0.950 . S
H2045 C2075 0.950 . S
C2046 H2028 0.951 . S
C2046 C2047 1.366 . S
C2046 C2048 1.388 . S
C2047 C2046 1.366 . S
C2047 C2051 1.385 . S
C2048 H2029 0.951 . S
C2048 C2046 1.388 . S
C2048 C2049 1.366 . S
C2049 C2048 1.366 . S
C2049 C2050 1.414 . S
C2049 C2052 1.499 . S
C2050 H2030 0.950 . S
C2050 C2049 1.414 . S
C2050 C2051 1.374 . S
C2051 H2031 0.950 . S
C2051 C2047 1.385 . S
C2051 C2050 1.374 . S
C2052 C2049 1.499 . S
C2052 C2053 1.373 . S
C2052 C2054 1.389 . S
C2053 H2032 0.950 . S
C2053 C2052 1.373 . S
C2053 C2069 1.377 . S
C2054 C2052 1.389 . S
C2054 C2055 1.524 . S
C2054 C2068 1.377 . S
C2055 C2054 1.524 . S
C2055 C2056 1.397 . S
C2055 C2060 1.363 . S
C2056 H2033 0.950 . S
C2056 C2055 1.397 . S
C2056 C2057 1.334 . S
C2057 H2034 0.950 . S
C2057 C2056 1.334 . S
C2057 C2058 1.287 . S
C2058 C2057 1.287 . S
C2058 C2059 1.524 . S
C2058 H2077 0.913 . S
C2059 H2035 0.950 . S
C2059 C2058 1.524 . S
C2059 C2060 1.415 . S
C2060 H2036 0.950 . S
C2060 C2055 1.363 . S
C2060 C2059 1.415 . S
C2061 H2037 0.951 . S
C2061 C2062 1.366 . S
C2061 C2063 1.388 . S
C2062 C2061 1.366 . S
C2062 C2066 1.385 . S
C2063 H2038 0.951 . S
C2063 C2061 1.388 . S
C2063 C2064 1.366 . S
C2064 C2063 1.366 . S
C2064 C2065 1.414 . S
C2064 C2067 1.499 . S
C2065 H2039 0.950 . S
C2065 C2064 1.414 . S
C2065 C2066 1.374 . S
C2066 H2040 0.950 . S
C2066 C2062 1.385 . S
C2066 C2065 1.374 . S
C2067 C2064 1.499 . S
C2067 C2068 1.373 . S
C2067 C2069 1.389 . S
C2068 H2041 0.950 . S
C2068 C2054 1.377 . S
C2068 C2067 1.373 . S
C2069 C2053 1.377 . S
C2069 C2067 1.389 . S
C2069 C2070 1.524 . S
C2070 C2069 1.524 . S
C2070 C2071 1.397 . S
C2070 C2075 1.363 . S
C2071 H2042 0.950 . S
C2071 C2070 1.397 . S
C2071 C2072 1.334 . S
C2072 H2043 0.950 . S
C2072 C2071 1.334 . S
C2072 C2073 1.287 . S
C2073 C2072 1.287 . S
C2073 C2074 1.524 . S
C2073 H2076 0.999 . S
C2074 H2044 0.950 . S
C2074 C2073 1.524 . S
C2074 C2075 1.415 . S
C2075 H2045 0.950 . S
C2075 C2070 1.363 . S
C2075 C2074 1.415 . S
H2076 C2073 0.999 . S
H2077 C2058 0.913 . S
H2078 C2096 0.951 . S
H2079 C2098 0.951 . S
H2080 C2100 0.950 . S
H2081 C2101 0.950 . S
H2082 C2103 0.950 . S
H2083 C2106 0.950 . S
H2084 C2107 0.950 . S
H2085 C2109 0.950 . S
H2086 C2110 0.950 . S
H2087 C2111 0.951 . S
H2088 C2113 0.951 . S
H2089 C2115 0.950 . S
H2090 C2116 0.950 . S
H2091 C2118 0.950 . S
H2092 C2121 0.950 . S
H2093 C2122 0.950 . S
H2094 C2124 0.950 . S
H2095 C2125 0.950 . S
C2096 H2078 0.951 . S
C2096 C2097 1.366 . S
C2096 C2098 1.388 . S
C2097 C2096 1.366 . S
C2097 C2101 1.385 . S
C2098 H2079 0.951 . S
C2098 C2096 1.388 . S
C2098 C2099 1.366 . S
C2099 C2098 1.366 . S
C2099 C2100 1.414 . S
C2099 C2102 1.499 . S
C2100 H2080 0.950 . S
C2100 C2099 1.414 . S
C2100 C2101 1.374 . S
C2101 H2081 0.950 . S
C2101 C2097 1.385 . S
C2101 C2100 1.374 . S
C2102 C2099 1.499 . S
C2102 C2103 1.373 . S
C2102 C2104 1.389 . S
C2103 H2082 0.950 . S
C2103 C2102 1.373 . S
C2103 C2119 1.377 . S
C2104 C2102 1.389 . S
C2104 C2105 1.524 . S
C2104 C2118 1.377 . S
C2105 C2104 1.524 . S
C2105 C2106 1.397 . S
C2105 C2110 1.363 . S
C2106 H2083 0.950 . S
C2106 C2105 1.397 . S
C2106 C2107 1.334 . S
C2107 H2084 0.950 . S
C2107 C2106 1.334 . S
C2107 C2108 1.287 . S
C2108 C2107 1.287 . S
C2108 C2109 1.524 . S
C2108 H2127 0.913 . S
C2109 H2085 0.950 . S
C2109 C2108 1.524 . S
C2109 C2110 1.415 . S
C2110 H2086 0.950 . S
C2110 C2105 1.363 . S
C2110 C2109 1.415 . S
C2111 H2087 0.951 . S
C2111 C2112 1.366 . S
C2111 C2113 1.388 . S
C2112 C2111 1.366 . S
C2112 C2116 1.385 . S
C2113 H2088 0.951 . S
C2113 C2111 1.388 . S
C2113 C2114 1.366 . S
C2114 C2113 1.366 . S
C2114 C2115 1.414 . S
C2114 C2117 1.499 . S
C2115 H2089 0.950 . S
C2115 C2114 1.414 . S
C2115 C2116 1.374 . S
C2116 H2090 0.950 . S
C2116 C2112 1.385 . S
C2116 C2115 1.374 . S
C2117 C2114 1.499 . S
C2117 C2118 1.373 . S
C2117 C2119 1.389 . S
C2118 H2091 0.950 . S
C2118 C2104 1.377 . S
C2118 C2117 1.373 . S
C2119 C2103 1.377 . S
C2119 C2117 1.389 . S
C2119 C2120 1.524 . S
C2120 C2119 1.524 . S
C2120 C2121 1.397 . S
C2120 C2125 1.363 . S
C2121 H2092 0.950 . S
C2121 C2120 1.397 . S
C2121 C2122 1.334 . S
C2122 H2093 0.950 . S
C2122 C2121 1.334 . S
C2122 C2123 1.287 . S
C2123 C2122 1.287 . S
C2123 C2124 1.524 . S
C2123 H2126 0.999 . S
C2124 H2094 0.950 . S
C2124 C2123 1.524 . S
C2124 C2125 1.415 . S
C2125 H2095 0.950 . S
C2125 C2120 1.363 . S
C2125 C2124 1.415 . S
H2126 C2123 0.999 . S
H2127 C2108 0.913 . S
H2128 C2146 0.951 . S
H2129 C2148 0.951 . S
H2130 C2150 0.950 . S
H2131 C2151 0.950 . S
H2132 C2153 0.950 . S
H2133 C2156 0.950 . S
H2134 C2157 0.950 . S
H2135 C2159 0.950 . S
H2136 C2160 0.950 . S
H2137 C2161 0.951 . S
H2138 C2163 0.951 . S
H2139 C2165 0.950 . S
H2140 C2166 0.950 . S
H2141 C2168 0.950 . S
H2142 C2171 0.950 1_455 S
H2143 C2172 0.950 . S
H2144 C2174 0.950 . S
H2145 C2175 0.950 . S
C2146 H2128 0.951 . S
C2146 C2147 1.366 . S
C2146 C2148 1.388 . S
C2147 C2146 1.366 . S
C2147 C2151 1.385 . S
C2148 H2129 0.951 . S
C2148 C2146 1.388 . S
C2148 C2149 1.366 . S
C2149 C2148 1.366 . S
C2149 C2150 1.414 . S
C2149 C2152 1.499 . S
C2150 H2130 0.950 . S
C2150 C2149 1.414 . S
C2150 C2151 1.374 . S
C2151 H2131 0.950 . S
C2151 C2147 1.385 . S
C2151 C2150 1.374 . S
C2152 C2149 1.499 . S
C2152 C2153 1.373 . S
C2152 C2154 1.389 . S
C2153 H2132 0.950 . S
C2153 C2152 1.373 . S
C2153 C2169 1.377 . S
C2154 C2152 1.389 . S
C2154 C2155 1.524 . S
C2154 C2168 1.377 . S
C2155 C2154 1.524 . S
C2155 C2156 1.397 . S
C2155 C2160 1.363 . S
C2156 H2133 0.950 . S
C2156 C2155 1.397 . S
C2156 C2157 1.334 . S
C2157 H2134 0.950 . S
C2157 C2156 1.334 . S
C2157 C2158 1.287 . S
C2158 C2157 1.287 . S
C2158 C2159 1.524 . S
C2158 H2177 0.913 . S
C2159 H2135 0.950 . S
C2159 C2158 1.524 . S
C2159 C2160 1.415 . S
C2160 H2136 0.950 . S
C2160 C2155 1.363 . S
C2160 C2159 1.415 . S
C2161 H2137 0.951 . S
C2161 C2162 1.366 . S
C2161 C2163 1.388 . S
C2162 C2161 1.366 . S
C2162 C2166 1.385 . S
C2163 H2138 0.951 . S
C2163 C2161 1.388 . S
C2163 C2164 1.366 . S
C2164 C2163 1.366 . S
C2164 C2165 1.414 . S
C2164 C2167 1.499 . S
C2165 H2139 0.950 . S
C2165 C2164 1.414 . S
C2165 C2166 1.374 . S
C2166 H2140 0.950 . S
C2166 C2162 1.385 . S
C2166 C2165 1.374 . S
C2167 C2164 1.499 . S
C2167 C2168 1.373 . S
C2167 C2169 1.389 . S
C2168 H2141 0.950 . S
C2168 C2154 1.377 . S
C2168 C2167 1.373 . S
C2169 C2153 1.377 . S
C2169 C2167 1.389 . S
C2169 C2170 1.528 . S
C2170 C2169 1.528 . S
C2170 C2171 1.396 1_455 S
C2170 C2175 1.360 1_455 S
C2171 H2142 0.950 1_655 S
C2171 C2170 1.396 1_655 S
C2171 C2172 1.334 . S
C2172 H2143 0.950 . S
C2172 C2171 1.334 . S
C2172 C2173 1.287 . S
C2173 C2172 1.287 . S
C2173 C2174 1.524 . S
C2173 H2176 0.999 . S
C2174 H2144 0.950 . S
C2174 C2173 1.524 . S
C2174 C2175 1.415 . S
C2175 H2145 0.950 . S
C2175 C2170 1.360 1_655 S
C2175 C2174 1.415 . S
H2176 C2173 0.999 . S
H2177 C2158 0.913 . S
H2178 C2196 0.951 . S
H2179 C2198 0.951 . S
H2180 C2200 0.950 . S
H2181 C2201 0.950 . S
H2182 C2203 0.950 . S
H2183 C2206 0.950 . S
H2184 C2207 0.950 . S
H2185 C2209 0.950 . S
H2186 C2210 0.950 . S
H2187 C2211 0.951 . S
H2188 C2213 0.951 . S
H2189 C2215 0.950 . S
H2190 C2216 0.950 . S
H2191 C2218 0.950 . S
H2192 C2221 0.950 . S
H2193 C2222 0.950 . S
H2194 C2224 0.950 1_455 S
H2195 C2225 0.950 1_455 S
C2196 H2178 0.951 . S
C2196 C2197 1.366 . S
C2196 C2198 1.388 . S
C2197 C2196 1.366 . S
C2197 C2201 1.385 . S
C2198 H2179 0.951 . S
C2198 C2196 1.388 . S
C2198 C2199 1.366 . S
C2199 C2198 1.366 . S
C2199 C2200 1.414 . S
C2199 C2202 1.499 . S
C2200 H2180 0.950 . S
C2200 C2199 1.414 . S
C2200 C2201 1.374 . S
C2201 H2181 0.950 . S
C2201 C2197 1.385 . S
C2201 C2200 1.374 . S
C2202 C2199 1.499 . S
C2202 C2203 1.373 . S
C2202 C2204 1.389 . S
C2203 H2182 0.950 . S
C2203 C2202 1.373 . S
C2203 C2219 1.377 . S
C2204 C2202 1.389 . S
C2204 C2205 1.524 . S
C2204 C2218 1.377 . S
C2205 C2204 1.524 . S
C2205 C2206 1.397 . S
C2205 C2210 1.363 . S
C2206 H2183 0.950 . S
C2206 C2205 1.397 . S
C2206 C2207 1.334 . S
C2207 H2184 0.950 . S
C2207 C2206 1.334 . S
C2207 C2208 1.287 . S
C2208 C2207 1.287 . S
C2208 C2209 1.524 . S
C2208 H2227 0.913 . S
C2209 H2185 0.950 . S
C2209 C2208 1.524 . S
C2209 C2210 1.415 . S
C2210 H2186 0.950 . S
C2210 C2205 1.363 . S
C2210 C2209 1.415 . S
C2211 H2187 0.951 . S
C2211 C2212 1.366 . S
C2211 C2213 1.388 . S
C2212 C2211 1.366 . S
C2212 C2216 1.385 . S
C2213 H2188 0.951 . S
C2213 C2211 1.388 . S
C2213 C2214 1.366 . S
C2214 C2213 1.366 . S
C2214 C2215 1.414 . S
C2214 C2217 1.499 . S
C2215 H2189 0.950 . S
C2215 C2214 1.414 . S
C2215 C2216 1.374 . S
C2216 H2190 0.950 . S
C2216 C2212 1.385 . S
C2216 C2215 1.374 . S
C2217 C2214 1.499 . S
C2217 C2218 1.373 . S
C2217 C2219 1.389 . S
C2218 H2191 0.950 . S
C2218 C2204 1.377 . S
C2218 C2217 1.373 . S
C2219 C2203 1.377 . S
C2219 C2217 1.389 . S
C2219 C2220 1.524 . S
C2220 C2219 1.524 . S
C2220 C2221 1.397 . S
C2220 C2225 1.363 . S
C2221 H2192 0.950 . S
C2221 C2220 1.397 . S
C2221 C2222 1.334 . S
C2222 H2193 0.950 . S
C2222 C2221 1.334 . S
C2222 C2223 1.287 . S
C2223 C2222 1.287 . S
C2223 C2224 1.524 . S
C2223 H2226 0.999 . S
C2224 H2194 0.950 1_655 S
C2224 C2223 1.524 . S
C2224 C2225 1.415 . S
C2225 H2195 0.950 1_655 S
C2225 C2220 1.363 . S
C2225 C2224 1.415 . S
H2226 C2223 0.999 . S
H2227 C2208 0.913 . S
H2228 C2246 0.951 . S
H2229 C2248 0.951 . S
H2230 C2250 0.950 . S
H2231 C2251 0.950 . S
H2232 C2253 0.950 . S
H2233 C2256 0.950 . S
H2234 C2257 0.950 . S
H2235 C2259 0.950 . S
H2236 C2260 0.950 . S
H2237 C2261 0.951 . S
H2238 C2263 0.951 . S
H2239 C2265 0.950 . S
H2240 C2266 0.950 . S
H2241 C2268 0.950 . S
H2242 C2271 0.950 . S
H2243 C2272 0.950 . S
H2244 C2274 0.950 . S
H2245 C2275 0.950 . S
C2246 H2228 0.951 . S
C2246 C2247 1.366 . S
C2246 C2248 1.388 . S
C2247 C2246 1.366 . S
C2247 C2251 1.385 . S
C2248 H2229 0.951 . S
C2248 C2246 1.388 . S
C2248 C2249 1.366 . S
C2249 C2248 1.366 . S
C2249 C2250 1.414 . S
C2249 C2252 1.499 . S
C2250 H2230 0.950 . S
C2250 C2249 1.414 . S
C2250 C2251 1.374 . S
C2251 H2231 0.950 . S
C2251 C2247 1.385 . S
C2251 C2250 1.374 . S
C2252 C2249 1.499 . S
C2252 C2253 1.373 . S
C2252 C2254 1.389 . S
C2253 H2232 0.950 . S
C2253 C2252 1.373 . S
C2253 C2269 1.377 . S
C2254 C2252 1.389 . S
C2254 C2255 1.524 . S
C2254 C2268 1.377 . S
C2255 C2254 1.524 . S
C2255 C2256 1.397 . S
C2255 C2260 1.363 . S
C2256 H2233 0.950 . S
C2256 C2255 1.397 . S
C2256 C2257 1.334 . S
C2257 H2234 0.950 . S
C2257 C2256 1.334 . S
C2257 C2258 1.287 . S
C2258 C2257 1.287 . S
C2258 C2259 1.524 . S
C2258 H2277 0.913 . S
C2259 H2235 0.950 . S
C2259 C2258 1.524 . S
C2259 C2260 1.415 . S
C2260 H2236 0.950 . S
C2260 C2255 1.363 . S
C2260 C2259 1.415 . S
C2261 H2237 0.951 . S
C2261 C2262 1.366 . S
C2261 C2263 1.388 . S
C2262 C2261 1.366 . S
C2262 C2266 1.385 . S
C2263 H2238 0.951 . S
C2263 C2261 1.388 . S
C2263 C2264 1.366 . S
C2264 C2263 1.366 . S
C2264 C2265 1.414 . S
C2264 C2267 1.499 . S
C2265 H2239 0.950 . S
C2265 C2264 1.414 . S
C2265 C2266 1.374 . S
C2266 H2240 0.950 . S
C2266 C2262 1.385 . S
C2266 C2265 1.374 . S
C2267 C2264 1.499 . S
C2267 C2268 1.373 . S
C2267 C2269 1.389 . S
C2268 H2241 0.950 . S
C2268 C2254 1.377 . S
C2268 C2267 1.373 . S
C2269 C2253 1.377 . S
C2269 C2267 1.389 . S
C2269 C2270 1.524 . S
C2270 C2269 1.524 . S
C2270 C2271 1.397 . S
C2270 C2275 1.363 . S
C2271 H2242 0.950 . S
C2271 C2270 1.397 . S
C2271 C2272 1.334 . S
C2272 H2243 0.950 . S
C2272 C2271 1.334 . S
C2272 C2273 1.287 . S
C2273 C2272 1.287 . S
C2273 C2274 1.524 . S
C2273 H2276 0.999 . S
C2274 H2244 0.950 . S
C2274 C2273 1.524 . S
C2274 C2275 1.415 . S
C2275 H2245 0.950 . S
C2275 C2270 1.363 . S
C2275 C2274 1.415 . S
H2276 C2273 0.999 . S
H2277 C2258 0.913 . S
H2278 C2296 0.951 . S
H2279 C2298 0.951 . S
H2280 C2300 0.950 . S
H2281 C2301 0.950 . S
H2282 C2303 0.950 . S
H2283 C2306 0.950 . S
H2284 C2307 0.950 . S
H2285 C2309 0.950 . S
H2286 C2310 0.950 . S
H2287 C2311 0.951 . S
H2288 C2313 0.951 . S
H2289 C2315 0.950 . S
H2290 C2316 0.950 . S
H2291 C2318 0.950 . S
H2292 C2321 0.950 . S
H2293 C2322 0.944 1_655 S
H2294 C2324 0.950 . S
H2295 C2325 0.950 . S
C2296 H2278 0.951 . S
C2296 C2297 1.366 . S
C2296 C2298 1.388 . S
C2297 C2296 1.366 . S
C2297 C2301 1.385 . S
C2298 H2279 0.951 . S
C2298 C2296 1.388 . S
C2298 C2299 1.366 . S
C2299 C2298 1.366 . S
C2299 C2300 1.414 . S
C2299 C2302 1.499 . S
C2300 H2280 0.950 . S
C2300 C2299 1.414 . S
C2300 C2301 1.374 . S
C2301 H2281 0.950 . S
C2301 C2297 1.385 . S
C2301 C2300 1.374 . S
C2302 C2299 1.499 . S
C2302 C2303 1.373 . S
C2302 C2304 1.389 . S
C2303 H2282 0.950 . S
C2303 C2302 1.373 . S
C2303 C2319 1.377 . S
C2304 C2302 1.389 . S
C2304 C2305 1.524 . S
C2304 C2318 1.377 . S
C2305 C2304 1.524 . S
C2305 C2306 1.397 . S
C2305 C2310 1.363 . S
C2306 H2283 0.950 . S
C2306 C2305 1.397 . S
C2306 C2307 1.334 . S
C2307 H2284 0.950 . S
C2307 C2306 1.334 . S
C2307 C2308 1.287 . S
C2308 C2307 1.287 . S
C2308 C2309 1.524 . S
C2308 H2327 0.913 . S
C2309 H2285 0.950 . S
C2309 C2308 1.524 . S
C2309 C2310 1.415 . S
C2310 H2286 0.950 . S
C2310 C2305 1.363 . S
C2310 C2309 1.415 . S
C2311 H2287 0.951 . S
C2311 C2312 1.366 . S
C2311 C2313 1.388 . S
C2312 C2311 1.366 . S
C2312 C2316 1.385 . S
C2313 H2288 0.951 . S
C2313 C2311 1.388 . S
C2313 C2314 1.366 . S
C2314 C2313 1.366 . S
C2314 C2315 1.414 . S
C2314 C2317 1.499 . S
C2315 H2289 0.950 . S
C2315 C2314 1.414 . S
C2315 C2316 1.374 . S
C2316 H2290 0.950 . S
C2316 C2312 1.385 . S
C2316 C2315 1.374 . S
C2317 C2314 1.499 . S
C2317 C2318 1.373 . S
C2317 C2319 1.389 . S
C2318 H2291 0.950 . S
C2318 C2304 1.377 . S
C2318 C2317 1.373 . S
C2319 C2303 1.377 . S
C2319 C2317 1.389 . S
C2319 C2320 1.524 . S
C2320 C2319 1.524 . S
C2320 C2321 1.397 . S
C2320 C2325 1.363 1_655 S
C2321 H2292 0.950 . S
C2321 C2320 1.397 . S
C2321 C2322 1.334 1_655 S
C2322 H2293 0.944 1_455 S
C2322 C2321 1.334 1_455 S
C2322 C2323 1.287 . S
C2323 C2322 1.287 . S
C2323 C2324 1.524 . S
C2323 H2326 0.999 . S
C2324 H2294 0.950 . S
C2324 C2323 1.524 . S
C2324 C2325 1.415 . S
C2325 H2295 0.950 . S
C2325 C2320 1.363 1_455 S
C2325 C2324 1.415 . S
H2326 C2323 0.999 . S
H2327 C2308 0.913 . S
H2328 C2346 0.951 . S
H2329 C2348 0.951 . S
H2330 C2350 0.950 . S
H2331 C2351 0.950 . S
H2332 C2353 0.950 . S
H2333 C2356 0.950 . S
H2334 C2357 0.950 . S
H2335 C2359 0.950 . S
H2336 C2360 0.950 . S
H2337 C2361 0.951 . S
H2338 C2363 0.951 . S
H2339 C2365 0.950 . S
H2340 C2366 0.950 . S
H2341 C2368 0.950 . S
H2342 C2371 0.950 . S
H2343 C2372 0.950 . S
H2344 C2374 0.950 . S
H2345 C2375 0.950 . S
C2346 H2328 0.951 . S
C2346 C2347 1.366 . S
C2346 C2348 1.388 . S
C2347 C2346 1.366 . S
C2347 C2351 1.385 . S
C2348 H2329 0.951 . S
C2348 C2346 1.388 . S
C2348 C2349 1.366 . S
C2349 C2348 1.366 . S
C2349 C2350 1.414 . S
C2349 C2352 1.499 . S
C2350 H2330 0.950 . S
C2350 C2349 1.414 . S
C2350 C2351 1.374 . S
C2351 H2331 0.950 . S
C2351 C2347 1.385 . S
C2351 C2350 1.374 . S
C2352 C2349 1.499 . S
C2352 C2353 1.373 . S
C2352 C2354 1.389 . S
C2353 H2332 0.950 . S
C2353 C2352 1.373 . S
C2353 C2369 1.377 . S
C2354 C2352 1.389 . S
C2354 C2355 1.524 . S
C2354 C2368 1.377 . S
C2355 C2354 1.524 . S
C2355 C2356 1.397 . S
C2355 C2360 1.363 . S
C2356 H2333 0.950 . S
C2356 C2355 1.397 . S
C2356 C2357 1.334 . S
C2357 H2334 0.950 . S
C2357 C2356 1.334 . S
C2357 C2358 1.287 . S
C2358 C2357 1.287 . S
C2358 C2359 1.524 . S
C2358 H2377 0.913 . S
C2359 H2335 0.950 . S
C2359 C2358 1.524 . S
C2359 C2360 1.415 . S
C2360 H2336 0.950 . S
C2360 C2355 1.363 . S
C2360 C2359 1.415 . S
C2361 H2337 0.951 . S
C2361 C2362 1.366 . S
C2361 C2363 1.388 . S
C2362 C2361 1.366 . S
C2362 C2366 1.385 . S
C2363 H2338 0.951 . S
C2363 C2361 1.388 . S
C2363 C2364 1.366 . S
C2364 C2363 1.366 . S
C2364 C2365 1.414 . S
C2364 C2367 1.499 . S
C2365 H2339 0.950 . S
C2365 C2364 1.414 . S
C2365 C2366 1.374 . S
C2366 H2340 0.950 . S
C2366 C2362 1.385 . S
C2366 C2365 1.374 . S
C2367 C2364 1.499 . S
C2367 C2368 1.373 . S
C2367 C2369 1.389 . S
C2368 H2341 0.950 . S
C2368 C2354 1.377 . S
C2368 C2367 1.373 . S
C2369 C2353 1.377 . S
C2369 C2367 1.389 . S
C2369 C2370 1.524 . S
C2370 C2369 1.524 . S
C2370 C2371 1.397 . S
C2370 C2375 1.363 . S
C2371 H2342 0.950 . S
C2371 C2370 1.397 . S
C2371 C2372 1.334 . S
C2372 H2343 0.950 . S
C2372 C2371 1.334 . S
C2372 C2373 1.287 . S
C2373 C2372 1.287 . S
C2373 C2374 1.524 . S
C2373 H2376 0.999 . S
C2374 H2344 0.950 . S
C2374 C2373 1.524 . S
C2374 C2375 1.415 . S
C2375 H2345 0.950 . S
C2375 C2370 1.363 . S
C2375 C2374 1.415 . S
H2376 C2373 0.999 . S
H2377 C2358 0.913 . S
H2378 C2396 0.951 . S
H2379 C2398 0.951 . S
H2380 C2400 0.950 . S
H2381 C2401 0.950 . S
H2382 C2403 0.950 . S
H2383 C2406 0.950 . S
H2384 C2407 0.950 . S
H2385 C2409 0.950 . S
H2386 C2410 0.950 . S
H2387 C2411 0.951 . S
H2388 C2413 0.951 . S
H2389 C2415 0.950 . S
H2390 C2416 0.950 . S
H2391 C2418 0.950 . S
H2392 C2421 0.950 . S
H2393 C2422 0.950 . S
H2394 C2424 0.950 . S
H2395 C2425 0.950 . S
C2396 H2378 0.951 . S
C2396 C2397 1.366 . S
C2396 C2398 1.388 . S
C2397 C2396 1.366 . S
C2397 C2401 1.385 . S
C2398 H2379 0.951 . S
C2398 C2396 1.388 . S
C2398 C2399 1.366 . S
C2399 C2398 1.366 . S
C2399 C2400 1.414 . S
C2399 C2402 1.499 . S
C2400 H2380 0.950 . S
C2400 C2399 1.414 . S
C2400 C2401 1.374 . S
C2401 H2381 0.950 . S
C2401 C2397 1.385 . S
C2401 C2400 1.374 . S
C2402 C2399 1.499 . S
C2402 C2403 1.373 . S
C2402 C2404 1.389 . S
C2403 H2382 0.950 . S
C2403 C2402 1.373 . S
C2403 C2419 1.377 . S
C2404 C2402 1.389 . S
C2404 C2405 1.524 . S
C2404 C2418 1.377 . S
C2405 C2404 1.524 . S
C2405 C2406 1.397 . S
C2405 C2410 1.363 . S
C2406 H2383 0.950 . S
C2406 C2405 1.397 . S
C2406 C2407 1.334 . S
C2407 H2384 0.950 . S
C2407 C2406 1.334 . S
C2407 C2408 1.287 . S
C2408 C2407 1.287 . S
C2408 C2409 1.524 . S
C2408 H2427 0.913 . S
C2409 H2385 0.950 . S
C2409 C2408 1.524 . S
C2409 C2410 1.415 . S
C2410 H2386 0.950 . S
C2410 C2405 1.363 . S
C2410 C2409 1.415 . S
C2411 H2387 0.951 . S
C2411 C2412 1.366 . S
C2411 C2413 1.388 . S
C2412 C2411 1.366 . S
C2412 C2416 1.385 . S
C2413 H2388 0.951 . S
C2413 C2411 1.388 . S
C2413 C2414 1.366 . S
C2414 C2413 1.366 . S
C2414 C2415 1.414 . S
C2414 C2417 1.499 . S
C2415 H2389 0.950 . S
C2415 C2414 1.414 . S
C2415 C2416 1.374 . S
C2416 H2390 0.950 . S
C2416 C2412 1.385 . S
C2416 C2415 1.374 . S
C2417 C2414 1.499 . S
C2417 C2418 1.373 . S
C2417 C2419 1.389 . S
C2418 H2391 0.950 . S
C2418 C2404 1.377 . S
C2418 C2417 1.373 . S
C2419 C2403 1.377 . S
C2419 C2417 1.389 . S
C2419 C2420 1.524 . S
C2420 C2419 1.524 . S
C2420 C2421 1.397 . S
C2420 C2425 1.363 . S
C2421 H2392 0.950 . S
C2421 C2420 1.397 . S
C2421 C2422 1.334 . S
C2422 H2393 0.950 . S
C2422 C2421 1.334 . S
C2422 C2423 1.287 . S
C2423 C2422 1.287 . S
C2423 C2424 1.524 . S
C2423 H2426 0.999 . S
C2424 H2394 0.950 . S
C2424 C2423 1.524 . S
C2424 C2425 1.415 . S
C2425 H2395 0.950 . S
C2425 C2420 1.363 . S
C2425 C2424 1.415 . S
H2426 C2423 0.999 . S
H2427 C2408 0.913 . S
H2428 C2446 0.951 . S
H2429 C2448 0.951 . S
H2430 C2450 0.950 . S
H2431 C2451 0.950 . S
H2432 C2453 0.950 . S
H2433 C2456 0.950 . S
H2434 C2457 0.950 . S
H2435 C2459 0.950 . S
H2436 C2460 0.950 . S
H2437 C2461 0.951 . S
H2438 C2463 0.951 . S
H2439 C2465 0.950 . S
H2440 C2466 0.950 . S
H2441 C2468 0.950 . S
H2442 C2471 0.950 . S
H2443 C2472 0.950 . S
H2444 C2474 0.950 . S
H2445 C2475 0.950 . S
C2446 H2428 0.951 . S
C2446 C2447 1.366 . S
C2446 C2448 1.388 . S
C2447 C2446 1.366 . S
C2447 C2451 1.385 . S
C2448 H2429 0.951 . S
C2448 C2446 1.388 . S
C2448 C2449 1.366 . S
C2449 C2448 1.366 . S
C2449 C2450 1.414 . S
C2449 C2452 1.499 . S
C2450 H2430 0.950 . S
C2450 C2449 1.414 . S
C2450 C2451 1.374 . S
C2451 H2431 0.950 . S
C2451 C2447 1.385 . S
C2451 C2450 1.374 . S
C2452 C2449 1.499 . S
C2452 C2453 1.373 . S
C2452 C2454 1.389 . S
C2453 H2432 0.950 . S
C2453 C2452 1.373 . S
C2453 C2469 1.377 . S
C2454 C2452 1.389 . S
C2454 C2455 1.524 . S
C2454 C2468 1.377 . S
C2455 C2454 1.524 . S
C2455 C2456 1.397 . S
C2455 C2460 1.363 . S
C2456 H2433 0.950 . S
C2456 C2455 1.397 . S
C2456 C2457 1.334 . S
C2457 H2434 0.950 . S
C2457 C2456 1.334 . S
C2457 C2458 1.287 . S
C2458 C2457 1.287 . S
C2458 C2459 1.524 . S
C2458 H2477 0.913 . S
C2459 H2435 0.950 . S
C2459 C2458 1.524 . S
C2459 C2460 1.415 . S
C2460 H2436 0.950 . S
C2460 C2455 1.363 . S
C2460 C2459 1.415 . S
C2461 H2437 0.951 . S
C2461 C2462 1.366 . S
C2461 C2463 1.388 . S
C2462 C2461 1.366 . S
C2462 C2466 1.385 . S
C2463 H2438 0.951 . S
C2463 C2461 1.388 . S
C2463 C2464 1.366 . S
C2464 C2463 1.366 . S
C2464 C2465 1.414 . S
C2464 C2467 1.499 . S
C2465 H2439 0.950 . S
C2465 C2464 1.414 . S
C2465 C2466 1.374 . S
C2466 H2440 0.950 . S
C2466 C2462 1.385 . S
C2466 C2465 1.374 . S
C2467 C2464 1.499 . S
C2467 C2468 1.373 . S
C2467 C2469 1.389 . S
C2468 H2441 0.950 . S
C2468 C2454 1.377 . S
C2468 C2467 1.373 . S
C2469 C2453 1.377 . S
C2469 C2467 1.389 . S
C2469 C2470 1.524 . S
C2470 C2469 1.524 . S
C2470 C2471 1.397 . S
C2470 C2475 1.363 . S
C2471 H2442 0.950 . S
C2471 C2470 1.397 . S
C2471 C2472 1.334 . S
C2472 H2443 0.950 . S
C2472 C2471 1.334 . S
C2472 C2473 1.287 . S
C2473 C2472 1.287 . S
C2473 C2474 1.524 . S
C2473 H2476 0.999 . S
C2474 H2444 0.950 . S
C2474 C2473 1.524 . S
C2474 C2475 1.415 . S
C2475 H2445 0.950 . S
C2475 C2470 1.363 . S
C2475 C2474 1.415 . S
H2476 C2473 0.999 . S
H2477 C2458 0.913 . S
H2478 C2496 0.951 . S
H2479 C2498 0.951 . S
H2480 C2500 0.950 . S
H2481 C2501 0.950 . S
H2482 C2503 0.950 . S
H2483 C2506 0.950 . S
H2484 C2507 0.950 . S
H2485 C2509 0.950 . S
H2486 C2510 0.950 . S
H2487 C2511 0.951 . S
H2488 C2513 0.951 . S
H2489 C2515 0.950 . S
H2490 C2516 0.950 . S
H2491 C2518 0.950 . S
H2492 C2521 0.950 . S
H2493 C2522 0.950 . S
H2494 C2524 0.950 . S
H2495 C2525 0.950 . S
C2496 H2478 0.951 . S
C2496 C2497 1.366 . S
C2496 C2498 1.388 . S
C2497 C2496 1.366 . S
C2497 C2501 1.385 . S
C2498 H2479 0.951 . S
C2498 C2496 1.388 . S
C2498 C2499 1.366 . S
C2499 C2498 1.366 . S
C2499 C2500 1.414 . S
C2499 C2502 1.499 . S
C2500 H2480 0.950 . S
C2500 C2499 1.414 . S
C2500 C2501 1.374 . S
C2501 H2481 0.950 . S
C2501 C2497 1.385 . S
C2501 C2500 1.374 . S
C2502 C2499 1.499 . S
C2502 C2503 1.373 . S
C2502 C2504 1.389 . S
C2503 H2482 0.950 . S
C2503 C2502 1.373 . S
C2503 C2519 1.377 . S
C2504 C2502 1.389 . S
C2504 C2505 1.524 . S
C2504 C2518 1.377 . S
C2505 C2504 1.524 . S
C2505 C2506 1.397 . S
C2505 C2510 1.363 . S
C2506 H2483 0.950 . S
C2506 C2505 1.397 . S
C2506 C2507 1.334 . S
C2507 H2484 0.950 . S
C2507 C2506 1.334 . S
C2507 C2508 1.287 . S
C2508 C2507 1.287 . S
C2508 C2509 1.524 . S
C2508 H2527 0.913 . S
C2509 H2485 0.950 . S
C2509 C2508 1.524 . S
C2509 C2510 1.415 . S
C2510 H2486 0.950 . S
C2510 C2505 1.363 . S
C2510 C2509 1.415 . S
C2511 H2487 0.951 . S
C2511 C2512 1.366 . S
C2511 C2513 1.388 . S
C2512 C2511 1.366 . S
C2512 C2516 1.385 . S
C2513 H2488 0.951 . S
C2513 C2511 1.388 . S
C2513 C2514 1.366 . S
C2514 C2513 1.366 . S
C2514 C2515 1.414 . S
C2514 C2517 1.499 . S
C2515 H2489 0.950 . S
C2515 C2514 1.414 . S
C2515 C2516 1.374 . S
C2516 H2490 0.950 . S
C2516 C2512 1.385 . S
C2516 C2515 1.374 . S
C2517 C2514 1.499 . S
C2517 C2518 1.373 . S
C2517 C2519 1.389 . S
C2518 H2491 0.950 . S
C2518 C2504 1.377 . S
C2518 C2517 1.373 . S
C2519 C2503 1.377 . S
C2519 C2517 1.389 . S
C2519 C2520 1.524 . S
C2520 C2519 1.524 . S
C2520 C2521 1.397 . S
C2520 C2525 1.363 . S
C2521 H2492 0.950 . S
C2521 C2520 1.397 . S
C2521 C2522 1.334 . S
C2522 H2493 0.950 . S
C2522 C2521 1.334 . S
C2522 C2523 1.287 . S
C2523 C2522 1.287 . S
C2523 C2524 1.524 . S
C2523 H2526 0.999 . S
C2524 H2494 0.950 . S
C2524 C2523 1.524 . S
C2524 C2525 1.415 . S
C2525 H2495 0.950 . S
C2525 C2520 1.363 . S
C2525 C2524 1.415 . S
H2526 C2523 0.999 . S
H2527 C2508 0.913 . S
C547 N2 1.597 . S
C562 N464 1.597 . S
C597 N79 1.610 . S
C612 N13 1.610 . S
C647 N35 1.597 . S
C662 N365 1.597 . S
C697 N244 1.610 . S
C712 N46 1.610 . S
C747 N68 1.597 . S
C762 N398 1.597 . S
C797 N101 1.597 . S
C812 N299 1.597 . S
C847 N112 1.609 . S
C862 N178 1.609 . S
C897 N332 1.597 . S
C912 N134 1.597 . S
C947 N211 1.610 . S
C962 N145 1.610 . S
C997 N167 1.597 . S
C1012 N497 1.597 . S
C1047 N266 1.598 . S
C1062 N200 1.598 . S
C1097 N431 1.597 . S
C1112 N233 1.597 . S
C1147 N277 1.610 . S
C1162 N343 1.610 . S
C1197 N508 1.610 . S
C1212 N310 1.610 . S
C1247 N376 1.610 . S
C1262 N442 1.610 . S
C1297 N409 1.609 . S
C1312 N475 1.609 . S
C1347 C7 1.017 . S
C1362 C318 1.025 . S
C1397 C304 1.018 . S
C1412 C21 1.025 . S
C1447 C40 1.017 . S
C1462 C285 1.026 . S
C1497 C54 1.025 . S
C1512 C271 1.017 . S
C1547 C384 1.025 . S
C1562 C73 1.016 . S
C1597 C370 1.018 . S
C1612 C87 1.025 . S
C1647 C106 1.017 . S
C1662 C351 1.026 . S
C1697 C120 1.025 . S
C1712 C337 1.017 . S
C1747 C139 1.016 . S
C1762 C450 1.025 . S
C1797 C436 1.018 . S
C1812 C153 1.026 . S
C1847 C172 1.018 . S
C1862 C417 1.025 . S
C1897 C403 1.017 . S
C1912 C186 1.026 . S
C1947 C516 1.025 . S
C1962 C205 1.017 . S
C1997 C219 1.025 . S
C2012 C502 1.017 . S
C2047 C238 1.018 . S
C2062 C483 1.025 . S
C2097 C252 1.026 . S
C2112 C469 1.017 . S
C2147 C51 0.965 . S
C2162 C18 0.965 . S
C2197 C84 0.965 . S
C2212 C117 0.965 . S
C2247 C150 0.965 . S
C2262 C183 0.965 . S
C2297 C216 0.965 . S
C2312 C249 0.965 . S
C2347 C315 0.965 . S
C2362 C282 0.965 . S
C2397 C381 0.966 . S
C2412 C348 0.966 . S
C2447 C414 0.965 . S
C2462 C447 0.965 . S
C2497 C513 0.966 . S
C2512 C480 0.966 . S
