# Generated by pormake.
# Topology oof, (8)-cn, num edge types: 1
# Building blocks:
#     Node 0, Type 0, BuildingBlock: EBIMEJ_clean_sbu_0, # of connection points: 8
#     Node 1, Type 0, BuildingBlock: EBIMEJ_clean_sbu_0, # of connection points: 8
#     Node 2, Type 0, BuildingBlock: EBIMEJ_clean_sbu_0, # of connection points: 8
#     Node 3, Type 0, BuildingBlock: EBIMEJ_clean_sbu_0, # of connection points: 8
#     Edge 4, Type (0, 0), BuildingBlock: FUNLAD_clean_linker_0, # of connection points: 2
#     Edge 5, Type (0, 0), BuildingBlock: FUNLAD_clean_linker_0, # of connection points: 2
#     Edge 6, Type (0, 0), BuildingBlock: FUNLAD_clean_linker_0, # of connection points: 2
#     Edge 7, Type (0, 0), BuildingBlock: FUNLAD_clean_linker_0, # of connection points: 2
#     Edge 8, Type (0, 0), BuildingBlock: FUNLAD_clean_linker_0, # of connection points: 2
#     Edge 9, Type (0, 0), BuildingBlock: FUNLAD_clean_linker_0, # of connection points: 2
#     Edge 10, Type (0, 0), BuildingBlock: FUNLAD_clean_linker_0, # of connection points: 2
#     Edge 11, Type (0, 0), BuildingBlock: FUNLAD_clean_linker_0, # of connection points: 2
#     Edge 12, Type (0, 0), BuildingBlock: FUNLAD_clean_linker_0, # of connection points: 2
#     Edge 13, Type (0, 0), BuildingBlock: FUNLAD_clean_linker_0, # of connection points: 2
#     Edge 14, Type (0, 0), BuildingBlock: FUNLAD_clean_linker_0, # of connection points: 2
#     Edge 15, Type (0, 0), BuildingBlock: FUNLAD_clean_linker_0, # of connection points: 2
#     Edge 16, Type (0, 0), BuildingBlock: FUNLAD_clean_linker_0, # of connection points: 2
#     Edge 17, Type (0, 0), BuildingBlock: FUNLAD_clean_linker_0, # of connection points: 2
#     Edge 18, Type (0, 0), BuildingBlock: FUNLAD_clean_linker_0, # of connection points: 2
#     Edge 19, Type (0, 0), BuildingBlock: FUNLAD_clean_linker_0, # of connection points: 2
# Relax obj value: 0.055
# Max RMSD: 0.156
# Mean RMSD: 0.156
data_MOF--net-oof--node1-EBIMEJ_clean_sbu_0--edge1-FUNLAD_clean_linker_0
_symmetry_space_group_name_H-M    P1
_symmetry_Int_Tables_number       1
_symmetry_cell_setting            triclinic
loop_
_symmetry_equiv_pos_as_xyz
'x, y, z'
_cell_length_a     17.223626
_cell_length_b     76.748431
_cell_length_c     20.088556
_cell_angle_alpha  79.231185
_cell_angle_beta   123.41319
_cell_angle_gamma 96.494286
loop_
_atom_site_label
_atom_site_type_symbol
_atom_site_fract_x
_atom_site_fract_y
_atom_site_fract_z
_atom_type_partial_charge
Co0 Co 0.95983 0.17245 0.30057 0.0
Co1 Co 0.96599 0.15638 0.16597 0.0
Co2 Co 0.00858 0.13264 0.32044 0.0
H3 H 0.99912 0.1533 0.30057 0.0
O4 O 0.03103 0.15835 0.28102 0.0
H5 H 0.98468 0.13544 0.1873 0.0
O6 O 0.95305 0.13009 0.20654 0.0
Co7 Co 0.02877 0.11612 0.18972 0.0
O8 O 0.9878 0.12818 0.07617 0.0
O9 O 0.90987 0.1528 0.05146 0.0
O10 O 0.04465 0.0962 0.27933 0.0
O11 O 0.00286 0.10658 0.35289 0.0
O12 O 0.97291 0.19087 0.36922 0.0
O13 O 0.06522 0.19115 0.33315 0.0
O14 O 0.13408 0.13157 0.26042 0.0
O15 O 0.08915 0.15661 0.17931 0.0
C16 C 0.01158 0.14649 0.44905 0.0
C17 C 0.91611 0.19367 0.14386 0.0
C18 C 0.03229 0.08957 0.13495 0.0
C19 C 0.81497 0.14526 0.23811 0.0
C20 C 0.93706 0.14149 0.02881 0.0
C21 C 0.02679 0.09393 0.33445 0.0
C22 C 0.04238 0.19843 0.37074 0.0
C23 C 0.1517 0.14503 0.22352 0.0
O24 O 0.96128 0.15949 0.39844 0.0
O25 O 0.0523 0.13646 0.433 0.0
O26 O 0.95912 0.18304 0.13244 0.0
O27 O 0.8956 0.18966 0.19697 0.0
O28 O 0.06184 0.10474 0.12232 0.0
O29 O 1.00074 0.08953 0.17825 0.0
O30 O 0.8357 0.16152 0.22767 0.0
O31 O 0.87674 0.1337 0.28683 0.0
Co32 Co 0.03022 0.92208 0.84727 0.0
Co33 Co 0.03895 0.90452 0.71451 0.0
Co34 Co 0.06431 0.88091 0.86461 0.0
H35 H 0.06333 0.90199 0.84765 0.0
O36 O 0.09906 0.90612 0.83064 0.0
H37 H 0.03473 0.88349 0.72914 0.0
O38 O 1.00157 0.87969 0.74878 0.0
Co39 Co 0.049 0.86265 0.7192 0.0
O40 O 0.01438 0.87378 0.60713 0.0
O41 O 0.98287 0.90205 0.59779 0.0
O42 O 0.11293 0.84687 0.82762 0.0
O43 O 0.05218 0.85448 0.89237 0.0
O44 O 0.9847 0.93451 0.90287 0.0
O45 O 0.07717 0.94744 0.87449 0.0
O46 O 0.15535 0.87271 0.71092 0.0
O47 O 0.1645 0.90015 0.73744 0.0
C48 C 0.09266 0.89596 1.00216 0.0
C49 C 0.04462 0.9436 0.70859 0.0
C50 C 0.97445 0.83401 0.67237 0.0
C51 C 0.88161 0.89654 0.7757 0.0
C52 C 0.9873 0.88923 0.56703 0.0
C53 C 0.08989 0.84312 0.87912 0.0
C54 C 0.03065 0.94853 0.90443 0.0
C55 C 0.19369 0.88792 0.72168 0.0
O56 O 0.0541 0.91034 0.95573 0.0
O57 O 0.11432 0.88375 0.97945 0.0
O58 O 0.06014 0.93032 0.68738 0.0
O59 O 0.0274 0.94198 0.76373 0.0
O60 O 0.06011 0.83727 0.70621 0.0
O61 O 0.93122 0.84688 0.6669 0.0
O62 O 0.91365 0.91148 0.76147 0.0
O63 O 0.93499 0.8848 0.83357 0.0
Co64 Co 0.46064 0.67416 0.2946 0.0
Co65 Co 0.4522 0.65575 0.15723 0.0
Co66 Co 0.48258 0.63305 0.30978 0.0
H67 H 0.48654 0.65375 0.29235 0.0
O68 O 0.51961 0.65777 0.27271 0.0
H69 H 0.46723 0.63484 0.1811 0.0
O70 O 0.43223 0.63004 0.19783 0.0
Co71 Co 0.50913 0.6151 0.18731 0.0
O72 O 0.47981 0.62727 0.07768 0.0
O73 O 0.39603 0.65152 0.04385 0.0
O74 O 0.50498 0.59577 0.27045 0.0
O75 O 0.46112 0.60746 0.3394 0.0
O76 O 0.46522 0.69358 0.35514 0.0
O77 O 0.57668 0.69035 0.34575 0.0
O78 O 0.6315 0.62816 0.23842 0.0
O79 O 0.57644 0.65508 0.17316 0.0
C80 C 0.49073 0.64879 0.43722 0.0
C81 C 0.42177 0.69483 0.13783 0.0
C82 C 0.50402 0.58711 0.13789 0.0
C83 C 0.30154 0.65065 0.21328 0.0
C84 C 0.42988 0.6403 0.02654 0.0
C85 C 0.48056 0.59416 0.32105 0.0
C86 C 0.54447 0.69915 0.37179 0.0
C87 C 0.64241 0.64399 0.2117 0.0
O88 O 0.45131 0.66276 0.38797 0.0
O89 O 0.52332 0.63717 0.42084 0.0
O90 O 0.44947 0.68246 0.12026 0.0
O91 O 0.41122 0.69261 0.19674 0.0
O92 O 0.56979 0.59824 0.15932 0.0
O93 O 0.44213 0.59179 0.14558 0.0
O94 O 0.33731 0.66578 0.20735 0.0
O95 O 0.35043 0.63788 0.2671 0.0
Co96 Co 0.50482 0.422 0.8381 0.0
Co97 Co 0.51593 0.40434 0.70408 0.0
Co98 Co 0.55418 0.38126 0.85954 0.0
H99 H 0.54184 0.4023 0.83811 0.0
O100 O 0.57461 0.40698 0.81872 0.0
H101 H 0.51156 0.38346 0.72097 0.0
O102 O 0.48108 0.3796 0.74309 0.0
Co103 Co 0.53311 0.36259 0.71742 0.0
O104 O 0.52407 0.37366 0.61416 0.0
O105 O 0.46538 0.40048 0.58981 0.0
O106 O 0.59748 0.34507 0.81925 0.0
O107 O 0.55532 0.35455 0.89438 0.0
O108 O 0.44511 0.43907 0.86596 0.0
O109 O 0.5721 0.44544 0.87813 0.0
O110 O 0.64748 0.37354 0.80416 0.0
O111 O 0.64126 0.39879 0.73118 0.0
C112 C 0.58882 0.39654 0.99808 0.0
C113 C 0.52417 0.44307 0.69803 0.0
C114 C 0.45053 0.33664 0.64676 0.0
C115 C 0.36901 0.39315 0.81734 0.0
C116 C 0.48854 0.38825 0.56808 0.0
C117 C 0.58757 0.34263 0.87865 0.0
C118 C 0.51076 0.45021 0.88635 0.0
C119 C 0.6874 0.38532 0.77998 0.0
O120 O 0.54163 0.41016 0.95039 0.0
O121 O 0.61347 0.38486 0.97498 0.0
O122 O 0.53722 0.42989 0.67456 0.0
O123 O 0.50712 0.44126 0.75348 0.0
O124 O 0.51817 0.34458 0.64629 0.0
O125 O 0.42936 0.34357 0.68638 0.0
O126 O 0.38205 0.40972 0.80429 0.0
O127 O 0.43126 0.38173 0.84427 0.0
C128 C 0.98346 0.15503 0.9334 0.0
C129 C 0.92033 0.14447 0.94746 0.0
C130 C 0.98572 0.15419 0.86536 0.0
C131 C 0.92489 0.14265 0.81025 0.0
C132 C 0.85883 0.13278 0.82273 0.0
C133 C 0.85752 0.13347 0.89126 0.0
C134 C 0.92703 0.14064 0.73877 0.0
C135 C 0.00335 0.14363 0.73458 0.0
C136 C 0.00515 0.14197 0.6622 0.0
C137 C 0.09115 0.14302 0.6683 0.0
C138 C 0.09506 0.14317 0.60009 0.0
C139 C 0.0128 0.14239 0.5244 0.0
H140 H 0.85524 0.13984 0.57713 0.0
C141 C 0.9274 0.1407 0.51862 0.0
C142 C 0.92335 0.14045 0.58632 0.0
H143 H 0.86289 0.14027 0.46053 0.0
H144 H 0.03439 0.16324 0.97731 0.0
H145 H 0.03592 0.16238 0.85691 0.0
H146 H 0.81054 0.12392 0.78105 0.0
H147 H 0.8102 0.12481 0.90219 0.0
H148 H 0.86368 0.13561 0.68977 0.0
H149 H 0.06827 0.14733 0.78681 0.0
H150 H 0.15545 0.1443 0.72556 0.0
H151 H 0.16164 0.14488 0.60572 0.0
C152 C 0.969 0.87819 0.44951 0.0
C153 C 0.9781 0.89264 0.48761 0.0
C154 C 0.98215 0.88041 0.38566 0.0
C155 C 0.00504 0.89717 0.35808 0.0
C156 C 0.00778 0.91183 0.39234 0.0
C157 C 0.99492 0.9096 0.45667 0.0
C158 C 0.02552 0.89984 0.29354 0.0
C159 C 0.05926 0.88701 0.27825 0.0
C160 C 0.07899 0.88949 0.21314 0.0
C161 C 0.0842 0.8745 0.18457 0.0
C162 C 0.09547 0.87635 0.11939 0.0
C163 C 0.1021 0.89329 0.08158 0.0
H164 H 0.09308 0.91825 0.20061 0.0
C165 C 0.10316 0.9082 0.11374 0.0
C166 C 0.09219 0.90635 0.17867 0.0
H167 H 0.10936 0.92147 0.0868 0.0
H168 H 0.95522 0.86494 0.47118 0.0
H169 H 0.97517 0.86889 0.35879 0.0
H170 H 0.02373 0.92497 0.37148 0.0
H171 H 0.00331 0.921 0.48491 0.0
H172 H 0.01371 0.91301 0.2589 0.0
H173 H 0.0714 0.87391 0.31365 0.0
H174 H 0.07585 0.8613 0.2107 0.0
H175 H 0.0938 0.86461 0.09594 0.0
C176 C 0.50081 0.63767 0.95046 0.0
C177 C 0.42555 0.64335 0.94986 0.0
C178 C 0.49933 0.6393 0.87983 0.0
C179 C 0.42176 0.64646 0.8059 0.0
C180 C 0.34769 0.65282 0.80532 0.0
C181 C 0.34956 0.65131 0.87697 0.0
C182 C 0.41933 0.64825 0.72986 0.0
C183 C 0.47068 0.63809 0.72019 0.0
C184 C 0.47734 0.64102 0.6483 0.0
C185 C 0.50757 0.62719 0.63095 0.0
C186 C 0.51497 0.62966 0.56371 0.0
C187 C 0.49287 0.64609 0.51311 0.0
H188 H 0.43955 0.66885 0.61234 0.0
C189 C 0.46624 0.66007 0.53264 0.0
C190 C 0.45882 0.6576 0.59929 0.0
H191 H 0.4501 0.67303 0.49591 0.0
H192 H 0.56203 0.632 0.00618 0.0
H193 H 0.56012 0.63516 0.88414 0.0
H194 H 0.28793 0.65876 0.74927 0.0
H195 H 0.29121 0.65595 0.8751 0.0
H196 H 0.37315 0.65814 0.68054 0.0
H197 H 0.5091 0.627 0.76627 0.0
H198 H 0.52427 0.61437 0.66887 0.0
H199 H 0.536 0.61865 0.55052 0.0
C200 C 0.60165 0.40856 0.11108 0.0
C201 C 0.6033 0.39378 0.07949 0.0
C202 C 0.59314 0.40643 0.17747 0.0
C203 C 0.58525 0.3894 0.21406 0.0
C204 C 0.59341 0.3746 0.18605 0.0
C205 C 0.60209 0.37674 0.11933 0.0
C206 C 0.56821 0.38657 0.2809 0.0
C207 C 0.52967 0.39878 0.29491 0.0
C208 C 0.51101 0.39584 0.36079 0.0
C209 C 0.50189 0.41057 0.38863 0.0
C210 C 0.48886 0.4083 0.45297 0.0
C211 C 0.4841 0.3912 0.49061 0.0
H212 H 0.5031 0.36704 0.37415 0.0
C213 C 0.48791 0.37651 0.45962 0.0
C214 C 0.50084 0.37877 0.39563 0.0
H215 H 0.48321 0.36311 0.4863 0.0
H216 H 0.60338 0.42191 0.08235 0.0
H217 H 0.59153 0.41822 0.19888 0.0
H218 H 0.58912 0.36129 0.21374 0.0
H219 H 0.60227 0.36508 0.09621 0.0
H220 H 0.58635 0.37368 0.31846 0.0
H221 H 0.51157 0.41167 0.25743 0.0
H222 H 0.50788 0.42391 0.36223 0.0
H223 H 0.48684 0.4199 0.4755 0.0
C224 C 0.64633 0.15242 0.15228 0.0
C225 C 0.71664 0.13975 0.19817 0.0
C226 C 0.55428 0.14754 0.12447 0.0
C227 C 0.53087 0.12981 0.14173 0.0
C228 C 0.60024 0.11693 0.18146 0.0
C229 C 0.69237 0.12183 0.20939 0.0
C230 C 0.44223 0.12513 0.13647 0.0
C231 C 0.36926 0.13607 0.09535 0.0
C232 C 0.3093 0.13751 0.12544 0.0
C233 C 0.27321 0.1542 0.11189 0.0
C234 C 0.2268 0.15694 0.14788 0.0
C235 C 0.21488 0.14296 0.19778 0.0
H236 H 0.32065 0.11022 0.18472 0.0
C237 C 0.251 0.12622 0.21139 0.0
C238 C 0.29641 0.12343 0.17459 0.0
H239 H 0.24117 0.11505 0.248 0.0
H240 H 0.6628 0.1663 0.14173 0.0
H241 H 0.50395 0.15805 0.09546 0.0
H242 H 0.58419 0.10322 0.1957 0.0
H243 H 0.74497 0.11167 0.24323 0.0
H244 H 0.44556 0.11413 0.18055 0.0
H245 H 0.36477 0.14664 0.04917 0.0
H246 H 0.2827 0.1653 0.07472 0.0
H247 H 0.19869 0.16994 0.13534 0.0
C248 C 0.74151 0.87734 0.74233 0.0
C249 C 0.78103 0.89321 0.72573 0.0
C250 C 0.64517 0.87541 0.70189 0.0
C251 C 0.58778 0.88938 0.64537 0.0
C252 C 0.62685 0.9045 0.62301 0.0
C253 C 0.72294 0.9064 0.66295 0.0
C254 C 0.49074 0.88916 0.62224 0.0
C255 C 0.45658 0.90325 0.62867 0.0
C256 C 0.38108 0.90106 0.6434 0.0
C257 C 0.38629 0.91045 0.6995 0.0
C258 C 0.32562 0.90626 0.72597 0.0
C259 C 0.2599 0.89255 0.69688 0.0
H260 H 0.30248 0.8814 0.56407 0.0
C261 C 0.25118 0.88399 0.63694 0.0
C262 C 0.31051 0.88833 0.60981 0.0
H263 H 0.19788 0.87396 0.61032 0.0
H264 H 0.78467 0.86681 0.78923 0.0
H265 H 0.61586 0.8636 0.71946 0.0
H266 H 0.58335 0.91526 0.57813 0.0
H267 H 0.75143 0.9186 0.64721 0.0
H268 H 0.45671 0.87625 0.61953 0.0
H269 H 0.4965 0.91559 0.64037 0.0
H270 H 0.43991 0.92046 0.72553 0.0
H271 H 0.33155 0.91339 0.77034 0.0
C272 C 0.77454 0.6343 0.21096 0.0
C273 C 0.723 0.64816 0.20441 0.0
C274 C 0.83348 0.63755 0.18291 0.0
C275 C 0.84219 0.65473 0.14815 0.0
C276 C 0.79715 0.66883 0.14795 0.0
C277 C 0.73729 0.66557 0.17531 0.0
C278 C 0.90403 0.65831 0.11799 0.0
C279 C 0.91895 0.64616 0.08603 0.0
C280 C 0.00819 0.6463 0.09271 0.0
C281 C 0.06176 0.63093 0.13189 0.0
C282 C 0.15761 0.63205 0.16715 0.0
C283 C 0.20012 0.64854 0.16228 0.0
H284 H 0.0078 0.67419 0.04656 0.0
C285 C 0.14437 0.66338 0.11305 0.0
C286 C 0.04872 0.66226 0.07845 0.0
H287 H 0.17499 0.67616 0.10604 0.0
H288 H 0.76553 0.62076 0.23339 0.0
H289 H 0.87159 0.62655 0.18804 0.0
H290 H 0.8057 0.68226 0.12396 0.0
H291 H 0.69891 0.67654 0.1701 0.0
H292 H 0.94585 0.67041 0.13121 0.0
H293 H 0.87722 0.63404 0.07353 0.0
H294 H 0.0312 0.61845 0.14265 0.0
H295 H 0.19874 0.62029 0.20268 0.0
C296 C 0.8182 0.36506 0.83432 0.0
C297 C 0.76436 0.37953 0.77849 0.0
C298 C 0.8848 0.35817 0.82808 0.0
C299 C 0.89828 0.36568 0.76591 0.0
C300 C 0.84205 0.37961 0.70821 0.0
C301 C 0.77599 0.38663 0.71479 0.0
C302 C 0.98113 0.36168 0.76861 0.0
C303 C 0.06419 0.36299 0.83671 0.0
C304 C 0.14312 0.37024 0.83164 0.0
C305 C 0.18557 0.38585 0.86409 0.0
C306 C 0.25508 0.39417 0.85393 0.0
C307 C 0.28418 0.38663 0.81306 0.0
H308 H 0.13765 0.35092 0.76312 0.0
C309 C 0.24198 0.37096 0.78077 0.0
C310 C 0.17058 0.36291 0.78901 0.0
H311 H 0.26532 0.36485 0.75037 0.0
H312 H 0.80881 0.35909 0.88281 0.0
H313 H 0.92774 0.34737 0.8731 0.0
H314 H 0.85234 0.38565 0.66029 0.0
H315 H 0.73339 0.39742 0.66943 0.0
H316 H 0.97633 0.36301 0.71155 0.0
H317 H 0.0683 0.36377 0.8921 0.0
H318 H 0.16382 0.39176 0.89619 0.0
H319 H 0.28888 0.40599 0.88104 0.0
C320 C 0.33325 0.31195 0.61757 0.0
C321 C 0.40348 0.32072 0.60811 0.0
C322 C 0.28964 0.29669 0.58256 0.0
C323 C 0.31576 0.28976 0.5375 0.0
C324 C 0.38516 0.29874 0.52724 0.0
C325 C 0.42885 0.314 0.56239 0.0
C326 C 0.27102 0.27359 0.4984 0.0
C327 C 0.22359 0.26124 0.52038 0.0
C328 C 0.17846 0.24514 0.48094 0.0
C329 C 0.10709 0.23649 0.48918 0.0
C330 C 0.06289 0.22131 0.45358 0.0
C331 C 0.08979 0.21432 0.40955 0.0
H332 H 0.26257 0.24378 0.43166 0.0
C333 C 0.16202 0.22275 0.40216 0.0
C334 C 0.20608 0.23796 0.43754 0.0
H335 H 0.18461 0.21759 0.36892 0.0
H336 H 0.31189 0.31688 0.65218 0.0
H337 H 0.2347 0.29063 0.59015 0.0
H338 H 0.40626 0.29386 0.49231 0.0
H339 H 0.48253 0.32052 0.55381 0.0
H340 H 0.2786 0.27188 0.44987 0.0
H341 H 0.21581 0.26293 0.56881 0.0
H342 H 0.08482 0.24159 0.52281 0.0
H343 H 0.00766 0.21506 0.46056 0.0
C344 C 0.70774 0.32135 0.98744 0.0
C345 C 0.61379 0.32487 0.92753 0.0
C346 C 0.7405 0.30388 0.01482 0.0
C347 C 0.67988 0.28954 0.98184 0.0
C348 C 0.58483 0.29309 0.92549 0.0
C349 C 0.55236 0.31055 0.89796 0.0
C350 C 0.71239 0.27084 1.0028 0.0
C351 C 0.80064 0.26629 0.03221 0.0
C352 C 0.83172 0.24754 0.05159 0.0
C353 C 0.92536 0.2434 0.11097 0.0
C354 C 0.95557 0.22579 0.13559 0.0
C355 C 0.89328 0.21194 0.10014 0.0
H356 H 0.69875 0.23634 0.96524 0.0
C357 C 0.801 0.2161 0.03771 0.0
C358 C 0.77059 0.23371 0.01311 0.0
H359 H 0.75107 0.20561 0.01092 0.0
H360 H 0.75703 0.3322 0.00943 0.0
H361 H 0.81363 0.30178 0.06012 0.0
H362 H 0.53617 0.2824 0.89922 0.0
H363 H 0.48032 0.31293 0.84953 0.0
H364 H 0.65999 0.26044 0.99076 0.0
H365 H 0.85357 0.27659 0.04492 0.0
H366 H 0.97432 0.25371 0.14146 0.0
H367 H 0.02618 0.22288 0.18598 0.0
C368 C 0.67686 0.72102 0.42294 0.0
C369 C 0.59132 0.71486 0.41224 0.0
C370 C 0.71908 0.73639 0.45759 0.0
C371 C 0.67691 0.74589 0.48309 0.0
C372 C 0.59137 0.73961 0.47234 0.0
C373 C 0.54913 0.72428 0.43751 0.0
C374 C 0.71716 0.76268 0.518 0.0
C375 C 0.80609 0.76815 0.54696 0.0
C376 C 0.84644 0.78508 0.58058 0.0
C377 C 0.94346 0.78757 0.62207 0.0
C378 C 0.98495 0.80336 0.65258 0.0
C379 C 0.93034 0.81712 0.64216 0.0
H380 H 0.71677 0.79794 0.5374 0.0
C381 C 0.83344 0.81473 0.60118 0.0
C382 C 0.79174 0.79894 0.57034 0.0
H383 H 0.78959 0.82517 0.59192 0.0
H384 H 0.71055 0.71413 0.40326 0.0
H385 H 0.78341 0.74088 0.46221 0.0
H386 H 0.55663 0.74666 0.49059 0.0
H387 H 0.48287 0.71991 0.42958 0.0
H388 H 0.67133 0.7705 0.5216 0.0
H389 H 0.85345 0.75968 0.54841 0.0
H390 H 0.98762 0.77727 0.63065 0.0
H391 H 0.05988 0.80482 0.68389 0.0
C392 C 0.43352 0.72746 0.13158 0.0
C393 C 0.39745 0.71278 0.08979 0.0
C394 C 0.38997 0.74394 0.09675 0.0
C395 C 0.30819 0.74616 0.01916 0.0
C396 C 0.27669 0.73186 0.97479 0.0
C397 C 0.32049 0.71528 0.0099 0.0
C398 C 0.25359 0.76298 0.98344 0.0
C399 C 0.25528 0.77454 0.02784 0.0
C400 C 0.20146 0.79144 0.99274 0.0
C401 C 0.23303 0.80546 0.03861 0.0
C402 C 0.18999 0.82211 1.00483 0.0
C403 C 0.11342 0.82496 0.92488 0.0
H404 H 0.09112 0.78345 0.87826 0.0
C405 C 0.07734 0.81056 0.88141 0.0
C406 C 0.12044 0.794 0.91473 0.0
H407 H 0.01845 0.81238 0.81961 0.0
H408 H 0.49227 0.72586 0.19368 0.0
H409 H 0.41932 0.75471 0.13196 0.0
H410 H 0.21474 0.73321 0.91439 0.0
H411 H 0.28976 0.70413 0.97699 0.0
H412 H 0.20877 0.76556 0.91817 0.0
H413 H 0.2999 0.77188 0.09311 0.0
H414 H 0.2944 0.80385 0.09932 0.0
H415 H 0.22075 0.83305 0.0391 0.0
C416 C 0.00488 0.05704 0.12547 0.0
C417 C 0.03477 0.07367 0.10375 0.0
C418 C 0.00738 0.04194 0.09669 0.0
C419 C 0.03969 0.04309 0.04486 0.0
C420 C 0.06935 0.05982 0.02327 0.0
C421 C 0.0671 0.0749 0.05234 0.0
C422 C 0.04418 0.02745 0.01179 0.0
C423 C 0.01848 1.0106 0.02741 0.0
C424 C 0.02301 0.99501 0.99423 0.0
C425 C 0.97785 0.9791 1.00296 0.0
C426 C 0.98041 0.96404 0.97403 0.0
C427 C 0.02879 0.96444 0.93589 0.0
H428 H 0.10976 1.00702 0.94942 0.0
C429 C 0.07474 0.98023 0.92752 0.0
C430 C 0.07211 0.99533 0.95634 0.0
H431 H 0.1128 0.98095 0.89849 0.0
H432 H 0.97962 0.05565 0.1651 0.0
H433 H 0.98376 0.02955 0.11574 0.0
H434 H 0.09462 0.06129 0.98362 0.0
H435 H 0.09057 0.08752 0.0344 0.0
H436 H 0.06917 0.03021 0.97175 0.0
H437 H 0.99086 1.00782 0.06543 0.0
H438 H 0.93998 0.97828 0.03222 0.0
H439 H 0.94458 0.95206 0.98175 0.0
C440 C 0.0142 0.0718 0.4382 0.0
C441 C 0.03411 0.07561 0.37784 0.0
C442 C 0.0217 0.05447 0.4786 0.0
C443 C 0.04866 0.04049 0.45905 0.0
C444 C 0.06929 0.04438 0.39933 0.0
C445 C 0.06205 0.06165 0.35922 0.0
C446 C 0.05897 0.02181 0.50052 0.0
C447 C 0.01956 1.01534 0.54245 0.0
C448 C 0.0309 0.9968 0.58507 0.0
C449 C 0.01666 0.99343 0.64859 0.0
C450 C 0.02315 0.97628 0.68918 0.0
C451 C 0.04323 0.96187 0.66693 0.0
H452 H 0.06082 0.98442 0.51268 0.0
C453 C 0.05785 0.96518 0.60334 0.0
C454 C 0.0517 0.98247 0.56271 0.0
H455 H 0.07257 0.9544 0.58409 0.0
H456 H 0.99334 0.08221 0.45471 0.0
H457 H 0.00788 0.05229 0.52589 0.0
H458 H 0.09093 0.03399 0.38329 0.0
H459 H 0.07888 0.06398 0.31369 0.0
H460 H 0.10037 1.01311 0.49546 0.0
H461 H 0.97814 0.02398 0.54773 0.0
H462 H 1.00017 1.00414 0.667 0.0
H463 H 0.01098 0.97438 0.73752 0.0
C464 C 0.5698 0.56625 0.09845 0.0
C465 C 0.50009 0.57038 0.10893 0.0
C466 C 0.56551 0.55038 0.07122 0.0
C467 C 0.49096 0.53824 0.05361 0.0
C468 C 0.42186 0.54243 0.0648 0.0
C469 C 0.42612 0.55828 0.09178 0.0
C470 C 0.48298 0.52091 0.02582 0.0
C471 C 0.53223 0.51662 0.99715 0.0
C472 C 0.52414 0.49927 0.96941 0.0
C473 C 0.59294 0.49505 0.9579 0.0
C474 C 0.58863 0.47915 0.93125 0.0
C475 C 0.51491 0.46702 0.91479 0.0
H476 H 0.39374 0.48983 0.95815 0.0
C477 C 0.44546 0.47119 0.92551 0.0
C478 C 0.44977 0.48712 0.95233 0.0
H479 H 0.38747 0.46215 0.91291 0.0
H480 H 0.62797 0.57528 0.11156 0.0
H481 H 0.62168 0.54768 0.06557 0.0
H482 H 0.36385 0.53341 0.05241 0.0
H483 H 0.37144 0.56101 0.09953 0.0
H484 H 0.43324 0.51138 0.02905 0.0
H485 H 0.58198 0.52615 0.99392 0.0
H486 H 0.65077 0.50409 0.96982 0.0
H487 H 0.64306 0.47638 0.92325 0.0
C488 C 0.52225 0.46514 0.58643 0.0
C489 C 0.52723 0.46153 0.65994 0.0
C490 C 0.51958 0.48271 0.54953 0.0
C491 C 0.52213 0.49706 0.58564 0.0
C492 C 0.52998 0.4934 0.66012 0.0
C493 C 0.53187 0.47594 0.69646 0.0
C494 C 0.51894 0.51602 0.54928 0.0
C495 C 0.48096 0.52148 0.46976 0.0
C496 C 0.47852 0.5404 0.43333 0.0
C497 C 0.47156 0.54392 0.35923 0.0
C498 C 0.4709 0.56132 0.32292 0.0
C499 C 0.47571 0.57581 0.35902 0.0
H500 H 0.48377 0.55272 0.52495 0.0
C501 C 0.47952 0.57238 0.43201 0.0
C502 C 0.48122 0.55484 0.46902 0.0
H503 H 0.48297 0.58321 0.46126 0.0
H504 H 0.51902 0.4544 0.5568 0.0
H505 H 0.51652 0.48493 0.49337 0.0
H506 H 0.53321 0.5041 0.68995 0.0
H507 H 0.53657 0.47379 0.75338 0.0
H508 H 0.54756 0.5258 0.59003 0.0
H509 H 0.45226 0.5117 0.42903 0.0
H510 H 0.46825 0.53314 0.32973 0.0
H511 H 0.46693 0.56337 0.26633 0.0
loop_
_geom_bond_atom_site_label_1
_geom_bond_atom_site_label_2
_geom_bond_distance
_geom_bond_site_symmetry_2
_ccdc_geom_bond_type
Co0 H3 2.400 1_655 S
Co0 O4 2.009 1_655 S
Co0 O12 2.115 . S
Co0 O13 2.315 1_655 S
Co0 O24 2.053 . S
Co0 O27 2.094 . S
Co0 O30 2.122 . S
Co1 O4 2.126 1_655 S
Co1 H5 2.388 . S
Co1 O6 2.053 . S
Co1 O9 2.047 . S
Co1 O15 2.113 1_655 S
Co1 O26 2.063 1_655 S
Co2 H3 2.388 . S
Co2 O4 2.053 . S
Co2 O6 2.126 1_455 S
Co2 O11 2.063 1_455 S
Co2 O25 2.047 . S
Co2 O31 2.113 1_455 S
H3 Co0 2.400 1_455 S
H3 Co2 2.388 . S
H3 O4 0.760 . S
O4 Co0 2.009 1_455 S
O4 Co1 2.126 1_455 S
O4 Co2 2.053 . S
O4 H3 0.760 . S
H5 Co1 2.388 . S
H5 O6 0.760 . S
H5 Co7 2.400 1_655 S
O6 Co1 2.053 . S
O6 Co2 2.126 1_655 S
O6 H5 0.760 . S
O6 Co7 2.009 1_655 S
Co7 H5 2.400 1_455 S
Co7 O6 2.009 1_455 S
Co7 O8 2.053 . S
Co7 O10 2.094 . S
Co7 O14 2.122 . S
Co7 O28 2.115 . S
Co7 O29 2.315 1_455 S
O8 Co7 2.053 . S
O8 C20 1.259 1_455 S
O9 Co1 2.047 . S
O9 C20 1.257 . S
O10 Co7 2.094 . S
O10 C21 1.253 . S
O11 Co2 2.063 1_655 S
O11 C21 1.268 1_655 S
O12 Co0 2.115 . S
O12 C22 1.281 1_655 S
O13 Co0 2.315 1_455 S
O13 C22 1.252 . S
O14 Co7 2.122 . S
O14 C23 1.272 . S
O15 Co1 2.113 1_455 S
O15 C23 1.245 . S
C16 O24 1.259 1_455 S
C16 O25 1.257 . S
C17 O26 1.268 1_655 S
C17 O27 1.253 . S
C18 O28 1.281 1_655 S
C18 O29 1.252 . S
C19 O30 1.272 . S
C19 O31 1.245 . S
C20 O8 1.259 1_655 S
C20 O9 1.257 . S
C21 O10 1.253 . S
C21 O11 1.268 1_455 S
C22 O12 1.281 1_455 S
C22 O13 1.252 . S
C23 O14 1.272 . S
C23 O15 1.245 . S
O24 Co0 2.053 . S
O24 C16 1.259 1_655 S
O25 Co2 2.047 . S
O25 C16 1.257 . S
O26 Co1 2.063 1_455 S
O26 C17 1.268 1_455 S
O27 Co0 2.094 . S
O27 C17 1.253 . S
O28 Co7 2.115 . S
O28 C18 1.281 1_455 S
O29 Co7 2.315 1_655 S
O29 C18 1.252 . S
O30 Co0 2.122 . S
O30 C19 1.272 . S
O31 Co2 2.113 1_655 S
O31 C19 1.245 . S
Co32 H35 2.400 1_655 S
Co32 O36 2.009 1_655 S
Co32 O44 2.115 . S
Co32 O45 2.315 1_655 S
Co32 O56 2.053 1_655 S
Co32 O59 2.094 . S
Co32 O62 2.122 . S
Co33 O36 2.126 . S
Co33 H37 2.388 1_455 S
Co33 O38 2.053 1_455 S
Co33 O41 2.047 1_455 S
Co33 O47 2.113 . S
Co33 O58 2.063 . S
Co34 H35 2.388 . S
Co34 O36 2.053 . S
Co34 O38 2.126 1_455 S
Co34 O43 2.063 . S
Co34 O57 2.047 . S
Co34 O63 2.113 1_455 S
H35 Co32 2.400 1_455 S
H35 Co34 2.388 . S
H35 O36 0.760 . S
O36 Co32 2.009 1_455 S
O36 Co33 2.126 . S
O36 Co34 2.053 . S
O36 H35 0.760 . S
H37 Co33 2.388 1_655 S
H37 O38 0.760 . S
H37 Co39 2.400 1_655 S
O38 Co33 2.053 1_655 S
O38 Co34 2.126 1_655 S
O38 H37 0.760 . S
O38 Co39 2.009 1_655 S
Co39 H37 2.400 1_455 S
Co39 O38 2.009 1_455 S
Co39 O40 2.053 . S
Co39 O42 2.094 . S
Co39 O46 2.122 . S
Co39 O60 2.115 . S
Co39 O61 2.315 1_455 S
O40 Co39 2.053 . S
O40 C52 1.259 1_455 S
O41 Co33 2.047 1_655 S
O41 C52 1.257 . S
O42 Co39 2.094 . S
O42 C53 1.253 . S
O43 Co34 2.063 . S
O43 C53 1.268 . S
O44 Co32 2.115 . S
O44 C54 1.281 1_655 S
O45 Co32 2.315 1_455 S
O45 C54 1.252 . S
O46 Co39 2.122 . S
O46 C55 1.272 . S
O47 Co33 2.113 . S
O47 C55 1.245 . S
C48 O56 1.259 . S
C48 O57 1.257 . S
C49 O58 1.268 1_655 S
C49 O59 1.253 . S
C50 O60 1.281 1_655 S
C50 O61 1.252 . S
C51 O62 1.272 . S
C51 O63 1.245 . S
C52 O40 1.259 1_655 S
C52 O41 1.257 . S
C53 O42 1.253 . S
C53 O43 1.268 . S
C54 O44 1.281 1_455 S
C54 O45 1.252 . S
C55 O46 1.272 . S
C55 O47 1.245 . S
O56 Co32 2.053 1_455 S
O56 C48 1.259 . S
O57 Co34 2.047 . S
O57 C48 1.257 . S
O58 Co33 2.063 . S
O58 C49 1.268 1_455 S
O59 Co32 2.094 . S
O59 C49 1.253 . S
O60 Co39 2.115 . S
O60 C50 1.281 1_455 S
O61 Co39 2.315 1_655 S
O61 C50 1.252 . S
O62 Co32 2.122 . S
O62 C51 1.272 . S
O63 Co34 2.113 1_655 S
O63 C51 1.245 . S
Co64 H67 2.400 . S
Co64 O68 2.009 . S
Co64 O76 2.115 . S
Co64 O77 2.315 . S
Co64 O88 2.053 . S
Co64 O91 2.094 . S
Co64 O94 2.122 . S
Co65 O68 2.126 . S
Co65 H69 2.388 . S
Co65 O70 2.053 . S
Co65 O73 2.047 . S
Co65 O79 2.113 . S
Co65 O90 2.063 . S
Co66 H67 2.388 . S
Co66 O68 2.053 . S
Co66 O70 2.126 . S
Co66 O75 2.063 . S
Co66 O89 2.047 . S
Co66 O95 2.113 . S
H67 Co64 2.400 . S
H67 Co66 2.388 . S
H67 O68 0.760 . S
O68 Co64 2.009 . S
O68 Co65 2.126 . S
O68 Co66 2.053 . S
O68 H67 0.760 . S
H69 Co65 2.388 . S
H69 O70 0.760 . S
H69 Co71 2.400 . S
O70 Co65 2.053 . S
O70 Co66 2.126 . S
O70 H69 0.760 . S
O70 Co71 2.009 . S
Co71 H69 2.400 . S
Co71 O70 2.009 . S
Co71 O72 2.053 . S
Co71 O74 2.094 . S
Co71 O78 2.122 . S
Co71 O92 2.115 . S
Co71 O93 2.315 . S
O72 Co71 2.053 . S
O72 C84 1.259 . S
O73 Co65 2.047 . S
O73 C84 1.257 . S
O74 Co71 2.094 . S
O74 C85 1.253 . S
O75 Co66 2.063 . S
O75 C85 1.268 . S
O76 Co64 2.115 . S
O76 C86 1.281 . S
O77 Co64 2.315 . S
O77 C86 1.252 . S
O78 Co71 2.122 . S
O78 C87 1.272 . S
O79 Co65 2.113 . S
O79 C87 1.245 . S
C80 O88 1.259 . S
C80 O89 1.257 . S
C81 O90 1.268 . S
C81 O91 1.253 . S
C82 O92 1.281 . S
C82 O93 1.252 . S
C83 O94 1.272 . S
C83 O95 1.245 . S
C84 O72 1.259 . S
C84 O73 1.257 . S
C85 O74 1.253 . S
C85 O75 1.268 . S
C86 O76 1.281 . S
C86 O77 1.252 . S
C87 O78 1.272 . S
C87 O79 1.245 . S
O88 Co64 2.053 . S
O88 C80 1.259 . S
O89 Co66 2.047 . S
O89 C80 1.257 . S
O90 Co65 2.063 . S
O90 C81 1.268 . S
O91 Co64 2.094 . S
O91 C81 1.253 . S
O92 Co71 2.115 . S
O92 C82 1.281 . S
O93 Co71 2.315 . S
O93 C82 1.252 . S
O94 Co64 2.122 . S
O94 C83 1.272 . S
O95 Co66 2.113 . S
O95 C83 1.245 . S
Co96 H99 2.400 . S
Co96 O100 2.009 . S
Co96 O108 2.115 . S
Co96 O109 2.315 . S
Co96 O120 2.053 . S
Co96 O123 2.094 . S
Co96 O126 2.122 . S
Co97 O100 2.126 . S
Co97 H101 2.388 . S
Co97 O102 2.053 . S
Co97 O105 2.047 . S
Co97 O111 2.113 . S
Co97 O122 2.063 . S
Co98 H99 2.388 . S
Co98 O100 2.053 . S
Co98 O102 2.126 . S
Co98 O107 2.063 . S
Co98 O121 2.047 . S
Co98 O127 2.113 . S
H99 Co96 2.400 . S
H99 Co98 2.388 . S
H99 O100 0.760 . S
O100 Co96 2.009 . S
O100 Co97 2.126 . S
O100 Co98 2.053 . S
O100 H99 0.760 . S
H101 Co97 2.388 . S
H101 O102 0.760 . S
H101 Co103 2.400 . S
O102 Co97 2.053 . S
O102 Co98 2.126 . S
O102 H101 0.760 . S
O102 Co103 2.009 . S
Co103 H101 2.400 . S
Co103 O102 2.009 . S
Co103 O104 2.053 . S
Co103 O106 2.094 . S
Co103 O110 2.122 . S
Co103 O124 2.115 . S
Co103 O125 2.315 . S
O104 Co103 2.053 . S
O104 C116 1.259 . S
O105 Co97 2.047 . S
O105 C116 1.257 . S
O106 Co103 2.094 . S
O106 C117 1.253 . S
O107 Co98 2.063 . S
O107 C117 1.268 . S
O108 Co96 2.115 . S
O108 C118 1.281 . S
O109 Co96 2.315 . S
O109 C118 1.252 . S
O110 Co103 2.122 . S
O110 C119 1.272 . S
O111 Co97 2.113 . S
O111 C119 1.245 . S
C112 O120 1.259 . S
C112 O121 1.257 . S
C113 O122 1.268 . S
C113 O123 1.253 . S
C114 O124 1.281 . S
C114 O125 1.252 . S
C115 O126 1.272 . S
C115 O127 1.245 . S
C116 O104 1.259 . S
C116 O105 1.257 . S
C117 O106 1.253 . S
C117 O107 1.268 . S
C118 O108 1.281 . S
C118 O109 1.252 . S
C119 O110 1.272 . S
C119 O111 1.245 . S
O120 Co96 2.053 . S
O120 C112 1.259 . S
O121 Co98 2.047 . S
O121 C112 1.257 . S
O122 Co97 2.063 . S
O122 C113 1.268 . S
O123 Co96 2.094 . S
O123 C113 1.253 . S
O124 Co103 2.115 . S
O124 C114 1.281 . S
O125 Co103 2.315 . S
O125 C114 1.252 . S
O126 Co96 2.122 . S
O126 C115 1.272 . S
O127 Co98 2.113 . S
O127 C115 1.245 . S
C128 C129 1.386 1_455 S
C128 C130 1.383 . S
C128 H144 0.951 . S
C129 C128 1.386 1_655 S
C129 C133 1.383 . S
C130 C128 1.383 . S
C130 C131 1.402 1_455 S
C130 H145 0.951 . S
C131 C130 1.402 1_655 S
C131 C132 1.375 . S
C131 C134 1.481 . S
C132 C131 1.375 . S
C132 C133 1.367 . S
C132 H146 0.951 . S
C133 C129 1.383 . S
C133 C132 1.367 . S
C133 H147 0.950 . S
C134 C131 1.481 . S
C134 C135 1.297 1_655 S
C134 H148 0.950 . S
C135 C134 1.297 1_455 S
C135 C136 1.479 . S
C135 H149 0.950 . S
C136 C135 1.479 . S
C136 C137 1.375 . S
C136 C142 1.404 1_455 S
C137 C136 1.375 . S
C137 C138 1.369 . S
C137 H150 0.950 . S
C138 C137 1.369 . S
C138 C139 1.392 . S
C138 H151 0.951 . S
C139 C138 1.392 . S
C139 C141 1.384 1_455 S
H140 C142 0.949 . S
C141 C139 1.384 1_655 S
C141 C142 1.385 . S
C141 H143 0.950 . S
C142 C136 1.404 1_655 S
C142 H140 0.949 . S
C142 C141 1.385 . S
H143 C141 0.950 . S
H144 C128 0.951 . S
H145 C130 0.951 . S
H146 C132 0.951 . S
H147 C133 0.950 . S
H148 C134 0.950 . S
H149 C135 0.950 . S
H150 C137 0.950 . S
H151 C138 0.951 . S
C152 C153 1.386 . S
C152 C154 1.383 . S
C152 H168 0.951 . S
C153 C152 1.386 . S
C153 C157 1.383 1_655 S
C154 C152 1.383 . S
C154 C155 1.402 . S
C154 H169 0.951 . S
C155 C154 1.402 . S
C155 C156 1.375 1_655 S
C155 C158 1.481 1_655 S
C156 C155 1.375 1_455 S
C156 C157 1.367 . S
C156 H170 0.951 . S
C157 C153 1.383 1_455 S
C157 C156 1.367 . S
C157 H171 0.950 . S
C158 C155 1.481 1_455 S
C158 C159 1.297 1_455 S
C158 H172 0.950 . S
C159 C158 1.297 1_655 S
C159 C160 1.479 . S
C159 H173 0.950 . S
C160 C159 1.479 . S
C160 C161 1.375 . S
C160 C166 1.404 1_655 S
C161 C160 1.375 . S
C161 C162 1.369 . S
C161 H174 0.950 . S
C162 C161 1.369 . S
C162 C163 1.392 1_655 S
C162 H175 0.951 . S
C163 C162 1.392 1_455 S
C163 C165 1.384 . S
H164 C166 0.949 . S
C165 C163 1.384 . S
C165 C166 1.385 . S
C165 H167 0.950 . S
C166 C160 1.404 1_455 S
C166 H164 0.949 . S
C166 C165 1.385 . S
H167 C165 0.950 . S
H168 C152 0.951 . S
H169 C154 0.951 . S
H170 C156 0.951 . S
H171 C157 0.950 . S
H172 C158 0.950 . S
H173 C159 0.950 . S
H174 C161 0.950 . S
H175 C162 0.951 . S
C176 C177 1.386 . S
C176 C178 1.383 . S
C176 H192 0.951 1_556 S
C177 C176 1.386 . S
C177 C181 1.383 . S
C178 C176 1.383 . S
C178 C179 1.402 . S
C178 H193 0.951 . S
C179 C178 1.402 . S
C179 C180 1.375 . S
C179 C182 1.481 . S
C180 C179 1.375 . S
C180 C181 1.367 . S
C180 H194 0.951 . S
C181 C177 1.383 . S
C181 C180 1.367 . S
C181 H195 0.950 . S
C182 C179 1.481 . S
C182 C183 1.297 . S
C182 H196 0.950 . S
C183 C182 1.297 . S
C183 C184 1.479 . S
C183 H197 0.950 . S
C184 C183 1.479 . S
C184 C185 1.375 . S
C184 C190 1.404 . S
C185 C184 1.375 . S
C185 C186 1.369 . S
C185 H198 0.950 . S
C186 C185 1.369 . S
C186 C187 1.392 . S
C186 H199 0.951 . S
C187 C186 1.392 . S
C187 C189 1.384 . S
H188 C190 0.949 . S
C189 C187 1.384 . S
C189 C190 1.385 . S
C189 H191 0.950 . S
C190 C184 1.404 . S
C190 H188 0.949 . S
C190 C189 1.385 . S
H191 C189 0.950 . S
H192 C176 0.951 1_554 S
H193 C178 0.951 . S
H194 C180 0.951 . S
H195 C181 0.950 . S
H196 C182 0.950 . S
H197 C183 0.950 . S
H198 C185 0.950 . S
H199 C186 0.951 . S
C200 C201 1.386 . S
C200 C202 1.383 . S
C200 H216 0.951 . S
C201 C200 1.386 . S
C201 C205 1.383 . S
C202 C200 1.383 . S
C202 C203 1.402 . S
C202 H217 0.951 . S
C203 C202 1.402 . S
C203 C204 1.375 . S
C203 C206 1.481 . S
C204 C203 1.375 . S
C204 C205 1.367 . S
C204 H218 0.951 . S
C205 C201 1.383 . S
C205 C204 1.367 . S
C205 H219 0.950 . S
C206 C203 1.481 . S
C206 C207 1.297 . S
C206 H220 0.950 . S
C207 C206 1.297 . S
C207 C208 1.479 . S
C207 H221 0.950 . S
C208 C207 1.479 . S
C208 C209 1.375 . S
C208 C214 1.404 . S
C209 C208 1.375 . S
C209 C210 1.369 . S
C209 H222 0.950 . S
C210 C209 1.369 . S
C210 C211 1.392 . S
C210 H223 0.951 . S
C211 C210 1.392 . S
C211 C213 1.384 . S
H212 C214 0.949 . S
C213 C211 1.384 . S
C213 C214 1.385 . S
C213 H215 0.950 . S
C214 C208 1.404 . S
C214 H212 0.949 . S
C214 C213 1.385 . S
H215 C213 0.950 . S
H216 C200 0.951 . S
H217 C202 0.951 . S
H218 C204 0.951 . S
H219 C205 0.950 . S
H220 C206 0.950 . S
H221 C207 0.950 . S
H222 C209 0.950 . S
H223 C210 0.951 . S
C224 C225 1.386 . S
C224 C226 1.383 . S
C224 H240 0.951 . S
C225 C224 1.386 . S
C225 C229 1.383 . S
C226 C224 1.383 . S
C226 C227 1.402 . S
C226 H241 0.951 . S
C227 C226 1.402 . S
C227 C228 1.375 . S
C227 C230 1.481 . S
C228 C227 1.375 . S
C228 C229 1.367 . S
C228 H242 0.951 . S
C229 C225 1.383 . S
C229 C228 1.367 . S
C229 H243 0.950 . S
C230 C227 1.481 . S
C230 C231 1.297 . S
C230 H244 0.950 . S
C231 C230 1.297 . S
C231 C232 1.479 . S
C231 H245 0.950 . S
C232 C231 1.479 . S
C232 C233 1.375 . S
C232 C238 1.404 . S
C233 C232 1.375 . S
C233 C234 1.369 . S
C233 H246 0.950 . S
C234 C233 1.369 . S
C234 C235 1.392 . S
C234 H247 0.951 . S
C235 C234 1.392 . S
C235 C237 1.384 . S
H236 C238 0.949 . S
C237 C235 1.384 . S
C237 C238 1.385 . S
C237 H239 0.950 . S
C238 C232 1.404 . S
C238 H236 0.949 . S
C238 C237 1.385 . S
H239 C237 0.950 . S
H240 C224 0.951 . S
H241 C226 0.951 . S
H242 C228 0.951 . S
H243 C229 0.950 . S
H244 C230 0.950 . S
H245 C231 0.950 . S
H246 C233 0.950 . S
H247 C234 0.951 . S
C248 C249 1.386 . S
C248 C250 1.383 . S
C248 H264 0.951 . S
C249 C248 1.386 . S
C249 C253 1.383 . S
C250 C248 1.383 . S
C250 C251 1.402 . S
C250 H265 0.951 . S
C251 C250 1.402 . S
C251 C252 1.375 . S
C251 C254 1.481 . S
C252 C251 1.375 . S
C252 C253 1.367 . S
C252 H266 0.951 . S
C253 C249 1.383 . S
C253 C252 1.367 . S
C253 H267 0.950 . S
C254 C251 1.481 . S
C254 C255 1.297 . S
C254 H268 0.950 . S
C255 C254 1.297 . S
C255 C256 1.479 . S
C255 H269 0.950 . S
C256 C255 1.479 . S
C256 C257 1.375 . S
C256 C262 1.404 . S
C257 C256 1.375 . S
C257 C258 1.369 . S
C257 H270 0.950 . S
C258 C257 1.369 . S
C258 C259 1.392 . S
C258 H271 0.951 . S
C259 C258 1.392 . S
C259 C261 1.384 . S
H260 C262 0.949 . S
C261 C259 1.384 . S
C261 C262 1.385 . S
C261 H263 0.950 . S
C262 C256 1.404 . S
C262 H260 0.949 . S
C262 C261 1.385 . S
H263 C261 0.950 . S
H264 C248 0.951 . S
H265 C250 0.951 . S
H266 C252 0.951 . S
H267 C253 0.950 . S
H268 C254 0.950 . S
H269 C255 0.950 . S
H270 C257 0.950 . S
H271 C258 0.951 . S
C272 C273 1.386 . S
C272 C274 1.383 . S
C272 H288 0.951 . S
C273 C272 1.386 . S
C273 C277 1.383 . S
C274 C272 1.383 . S
C274 C275 1.402 . S
C274 H289 0.951 . S
C275 C274 1.402 . S
C275 C276 1.375 . S
C275 C278 1.481 . S
C276 C275 1.375 . S
C276 C277 1.367 . S
C276 H290 0.951 . S
C277 C273 1.383 . S
C277 C276 1.367 . S
C277 H291 0.950 . S
C278 C275 1.481 . S
C278 C279 1.297 1_655 S
C278 H292 0.950 . S
C279 C278 1.297 1_455 S
C279 C280 1.479 . S
C279 H293 0.950 1_455 S
C280 C279 1.479 . S
C280 C281 1.375 . S
C280 C286 1.404 . S
C281 C280 1.375 . S
C281 C282 1.369 . S
C281 H294 0.950 . S
C282 C281 1.369 . S
C282 C283 1.392 . S
C282 H295 0.951 . S
C283 C282 1.392 . S
C283 C285 1.384 . S
H284 C286 0.949 . S
C285 C283 1.384 . S
C285 C286 1.385 . S
C285 H287 0.950 . S
C286 C280 1.404 . S
C286 H284 0.949 . S
C286 C285 1.385 . S
H287 C285 0.950 . S
H288 C272 0.951 . S
H289 C274 0.951 . S
H290 C276 0.951 . S
H291 C277 0.950 . S
H292 C278 0.950 . S
H293 C279 0.950 1_655 S
H294 C281 0.950 . S
H295 C282 0.951 . S
C296 C297 1.386 . S
C296 C298 1.383 . S
C296 H312 0.951 . S
C297 C296 1.386 . S
C297 C301 1.383 . S
C298 C296 1.383 . S
C298 C299 1.402 . S
C298 H313 0.951 . S
C299 C298 1.402 . S
C299 C300 1.375 . S
C299 C302 1.481 . S
C300 C299 1.375 . S
C300 C301 1.367 . S
C300 H314 0.951 . S
C301 C297 1.383 . S
C301 C300 1.367 . S
C301 H315 0.950 . S
C302 C299 1.481 . S
C302 C303 1.297 1_655 S
C302 H316 0.950 . S
C303 C302 1.297 1_455 S
C303 C304 1.479 . S
C303 H317 0.950 . S
C304 C303 1.479 . S
C304 C305 1.375 . S
C304 C310 1.404 . S
C305 C304 1.375 . S
C305 C306 1.369 . S
C305 H318 0.950 . S
C306 C305 1.369 . S
C306 C307 1.392 . S
C306 H319 0.951 . S
C307 C306 1.392 . S
C307 C309 1.384 . S
H308 C310 0.949 . S
C309 C307 1.384 . S
C309 C310 1.385 . S
C309 H311 0.950 . S
C310 C304 1.404 . S
C310 H308 0.949 . S
C310 C309 1.385 . S
H311 C309 0.950 . S
H312 C296 0.951 . S
H313 C298 0.951 . S
H314 C300 0.951 . S
H315 C301 0.950 . S
H316 C302 0.950 . S
H317 C303 0.950 . S
H318 C305 0.950 . S
H319 C306 0.951 . S
C320 C321 1.386 . S
C320 C322 1.383 . S
C320 H336 0.951 . S
C321 C320 1.386 . S
C321 C325 1.383 . S
C322 C320 1.383 . S
C322 C323 1.402 . S
C322 H337 0.951 . S
C323 C322 1.402 . S
C323 C324 1.375 . S
C323 C326 1.481 . S
C324 C323 1.375 . S
C324 C325 1.367 . S
C324 H338 0.951 . S
C325 C321 1.383 . S
C325 C324 1.367 . S
C325 H339 0.950 . S
C326 C323 1.481 . S
C326 C327 1.297 . S
C326 H340 0.950 . S
C327 C326 1.297 . S
C327 C328 1.479 . S
C327 H341 0.950 . S
C328 C327 1.479 . S
C328 C329 1.375 . S
C328 C334 1.404 . S
C329 C328 1.375 . S
C329 C330 1.369 . S
C329 H342 0.950 . S
C330 C329 1.369 . S
C330 C331 1.392 . S
C330 H343 0.951 . S
C331 C330 1.392 . S
C331 C333 1.384 . S
H332 C334 0.949 . S
C333 C331 1.384 . S
C333 C334 1.385 . S
C333 H335 0.950 . S
C334 C328 1.404 . S
C334 H332 0.949 . S
C334 C333 1.385 . S
H335 C333 0.950 . S
H336 C320 0.951 . S
H337 C322 0.951 . S
H338 C324 0.951 . S
H339 C325 0.950 . S
H340 C326 0.950 . S
H341 C327 0.950 . S
H342 C329 0.950 . S
H343 C330 0.951 . S
C344 C345 1.386 . S
C344 C346 1.383 . S
C344 H360 0.951 . S
C345 C344 1.386 . S
C345 C349 1.383 . S
C346 C344 1.383 . S
C346 C347 1.402 . S
C346 H361 0.951 1_556 S
C347 C346 1.402 . S
C347 C348 1.375 . S
C347 C350 1.481 . S
C348 C347 1.375 . S
C348 C349 1.367 . S
C348 H362 0.951 . S
C349 C345 1.383 . S
C349 C348 1.367 . S
C349 H363 0.950 . S
C350 C347 1.481 . S
C350 C351 1.297 1_556 S
C350 H364 0.950 . S
C351 C350 1.297 1_554 S
C351 C352 1.479 . S
C351 H365 0.950 . S
C352 C351 1.479 . S
C352 C353 1.375 . S
C352 C358 1.404 1_554 S
C353 C352 1.375 . S
C353 C354 1.369 . S
C353 H366 0.950 . S
C354 C353 1.369 . S
C354 C355 1.392 . S
C354 H367 0.951 . S
C355 C354 1.392 . S
C355 C357 1.384 . S
H356 C358 0.949 . S
C357 C355 1.384 . S
C357 C358 1.385 1_554 S
C357 H359 0.950 1_554 S
C358 C352 1.404 1_556 S
C358 H356 0.949 . S
C358 C357 1.385 1_556 S
H359 C357 0.950 1_556 S
H360 C344 0.951 . S
H361 C346 0.951 1_554 S
H362 C348 0.951 . S
H363 C349 0.950 . S
H364 C350 0.950 . S
H365 C351 0.950 . S
H366 C353 0.950 . S
H367 C354 0.951 . S
C368 C369 1.386 . S
C368 C370 1.383 . S
C368 H384 0.951 . S
C369 C368 1.386 . S
C369 C373 1.383 . S
C370 C368 1.383 . S
C370 C371 1.402 . S
C370 H385 0.951 . S
C371 C370 1.402 . S
C371 C372 1.375 . S
C371 C374 1.481 . S
C372 C371 1.375 . S
C372 C373 1.367 . S
C372 H386 0.951 . S
C373 C369 1.383 . S
C373 C372 1.367 . S
C373 H387 0.950 . S
C374 C371 1.481 . S
C374 C375 1.297 . S
C374 H388 0.950 . S
C375 C374 1.297 . S
C375 C376 1.479 . S
C375 H389 0.950 . S
C376 C375 1.479 . S
C376 C377 1.375 . S
C376 C382 1.404 . S
C377 C376 1.375 . S
C377 C378 1.369 . S
C377 H390 0.950 . S
C378 C377 1.369 . S
C378 C379 1.392 . S
C378 H391 0.951 1_655 S
C379 C378 1.392 . S
C379 C381 1.384 . S
H380 C382 0.949 . S
C381 C379 1.384 . S
C381 C382 1.385 . S
C381 H383 0.950 . S
C382 C376 1.404 . S
C382 H380 0.949 . S
C382 C381 1.385 . S
H383 C381 0.950 . S
H384 C368 0.951 . S
H385 C370 0.951 . S
H386 C372 0.951 . S
H387 C373 0.950 . S
H388 C374 0.950 . S
H389 C375 0.950 . S
H390 C377 0.950 . S
H391 C378 0.951 1_455 S
C392 C393 1.386 . S
C392 C394 1.383 . S
C392 H408 0.951 . S
C393 C392 1.386 . S
C393 C397 1.383 . S
C394 C392 1.383 . S
C394 C395 1.402 . S
C394 H409 0.951 1_554 S
C395 C394 1.402 . S
C395 C396 1.375 . S
C395 C398 1.481 . S
C396 C395 1.375 . S
C396 C397 1.367 . S
C396 H410 0.951 . S
C397 C393 1.383 . S
C397 C396 1.367 . S
C397 H411 0.950 . S
C398 C395 1.481 . S
C398 C399 1.297 1_554 S
C398 H412 0.950 . S
C399 C398 1.297 1_556 S
C399 C400 1.479 . S
C399 H413 0.950 . S
C400 C399 1.479 . S
C400 C401 1.375 . S
C400 C406 1.404 . S
C401 C400 1.375 . S
C401 C402 1.369 . S
C401 H414 0.950 . S
C402 C401 1.369 . S
C402 C403 1.392 . S
C402 H415 0.951 . S
C403 C402 1.392 . S
C403 C405 1.384 . S
H404 C406 0.949 . S
C405 C403 1.384 . S
C405 C406 1.385 . S
C405 H407 0.950 . S
C406 C400 1.404 . S
C406 H404 0.949 . S
C406 C405 1.385 . S
H407 C405 0.950 . S
H408 C392 0.951 . S
H409 C394 0.951 1_556 S
H410 C396 0.951 . S
H411 C397 0.950 . S
H412 C398 0.950 . S
H413 C399 0.950 . S
H414 C401 0.950 . S
H415 C402 0.951 . S
C416 C417 1.386 . S
C416 C418 1.383 . S
C416 H432 0.951 . S
C417 C416 1.386 . S
C417 C421 1.383 1_655 S
C418 C416 1.383 . S
C418 C419 1.402 . S
C418 H433 0.951 . S
C419 C418 1.402 . S
C419 C420 1.375 1_655 S
C419 C422 1.481 1_554 S
C420 C419 1.375 1_455 S
C420 C421 1.367 . S
C420 H434 0.951 1_554 S
C421 C417 1.383 1_455 S
C421 C420 1.367 . S
C421 H435 0.950 . S
C422 C419 1.481 1_556 S
C422 C423 1.297 1_545 S
C422 H436 0.950 1_655 S
C423 C422 1.297 1_565 S
C423 C424 1.479 . S
C423 H437 0.950 . S
C424 C423 1.479 . S
C424 C425 1.375 . S
C424 C430 1.404 1_655 S
C425 C424 1.375 . S
C425 C426 1.369 . S
C425 H438 0.950 . S
C426 C425 1.369 . S
C426 C427 1.392 1_655 S
C426 H439 0.951 . S
C427 C426 1.392 1_455 S
C427 C429 1.384 . S
H428 C430 0.949 . S
C429 C427 1.384 . S
C429 C430 1.385 . S
C429 H431 0.950 . S
C430 C424 1.404 1_455 S
C430 H428 0.949 . S
C430 C429 1.385 . S
H431 C429 0.950 . S
H432 C416 0.951 . S
H433 C418 0.951 . S
H434 C420 0.951 1_556 S
H435 C421 0.950 . S
H436 C422 0.950 1_455 S
H437 C423 0.950 . S
H438 C425 0.950 . S
H439 C426 0.951 . S
C440 C441 1.386 1_655 S
C440 C442 1.383 . S
C440 H456 0.951 . S
C441 C440 1.386 1_455 S
C441 C445 1.383 . S
C442 C440 1.383 . S
C442 C443 1.402 1_655 S
C442 H457 0.951 . S
C443 C442 1.402 1_455 S
C443 C444 1.375 . S
C443 C446 1.481 . S
C444 C443 1.375 . S
C444 C445 1.367 . S
C444 H458 0.951 . S
C445 C441 1.383 . S
C445 C444 1.367 . S
C445 H459 0.950 . S
C446 C443 1.481 . S
C446 C447 1.297 1_445 S
C446 H460 0.950 1_545 S
C447 C446 1.297 1_665 S
C447 C448 1.479 . S
C447 H461 0.983 . S
C448 C447 1.479 . S
C448 C449 1.375 . S
C448 C454 1.404 1_655 S
C449 C448 1.375 . S
C449 C450 1.369 . S
C449 H462 0.950 . S
C450 C449 1.369 . S
C450 C451 1.392 . S
C450 H463 0.951 . S
C451 C450 1.392 . S
C451 C453 1.384 1_655 S
H452 C454 0.949 . S
C453 C451 1.384 1_455 S
C453 C454 1.385 . S
C453 H455 0.950 . S
C454 C448 1.404 1_455 S
C454 H452 0.949 . S
C454 C453 1.385 . S
H455 C453 0.950 . S
H456 C440 0.951 . S
H457 C442 0.951 . S
H458 C444 0.951 . S
H459 C445 0.950 . S
H460 C446 0.950 1_565 S
H461 C447 0.983 . S
H462 C449 0.950 . S
H463 C450 0.951 . S
C464 C465 1.386 . S
C464 C466 1.383 . S
C464 H480 0.951 . S
C465 C464 1.386 . S
C465 C469 1.383 . S
C466 C464 1.383 . S
C466 C467 1.402 . S
C466 H481 0.951 . S
C467 C466 1.402 . S
C467 C468 1.375 . S
C467 C470 1.481 . S
C468 C467 1.375 . S
C468 C469 1.367 . S
C468 H482 0.951 . S
C469 C465 1.383 . S
C469 C468 1.367 . S
C469 H483 0.950 . S
C470 C467 1.481 . S
C470 C471 1.297 . S
C470 H484 0.950 . S
C471 C470 1.297 . S
C471 C472 1.479 1_554 S
C471 H485 0.950 . S
C472 C471 1.479 1_556 S
C472 C473 1.375 . S
C472 C478 1.404 . S
C473 C472 1.375 . S
C473 C474 1.369 . S
C473 H486 0.950 . S
C474 C473 1.369 . S
C474 C475 1.392 . S
C474 H487 0.951 . S
C475 C474 1.392 . S
C475 C477 1.384 . S
H476 C478 0.949 . S
C477 C475 1.384 . S
C477 C478 1.385 . S
C477 H479 0.950 . S
C478 C472 1.404 . S
C478 H476 0.949 . S
C478 C477 1.385 . S
H479 C477 0.950 . S
H480 C464 0.951 . S
H481 C466 0.951 . S
H482 C468 0.951 . S
H483 C469 0.950 . S
H484 C470 0.950 . S
H485 C471 0.950 . S
H486 C473 0.950 . S
H487 C474 0.951 . S
C488 C489 1.386 . S
C488 C490 1.383 . S
C488 H504 0.951 . S
C489 C488 1.386 . S
C489 C493 1.383 . S
C490 C488 1.383 . S
C490 C491 1.402 . S
C490 H505 0.951 . S
C491 C490 1.402 . S
C491 C492 1.375 . S
C491 C494 1.481 . S
C492 C491 1.375 . S
C492 C493 1.367 . S
C492 H506 0.951 . S
C493 C489 1.383 . S
C493 C492 1.367 . S
C493 H507 0.950 . S
C494 C491 1.481 . S
C494 C495 1.297 . S
C494 H508 0.950 . S
C495 C494 1.297 . S
C495 C496 1.479 . S
C495 H509 0.950 . S
C496 C495 1.479 . S
C496 C497 1.375 . S
C496 C502 1.404 . S
C497 C496 1.375 . S
C497 C498 1.369 . S
C497 H510 0.950 . S
C498 C497 1.369 . S
C498 C499 1.392 . S
C498 H511 0.951 . S
C499 C498 1.392 . S
C499 C501 1.384 . S
H500 C502 0.949 . S
C501 C499 1.384 . S
C501 C502 1.385 . S
C501 H503 0.950 . S
C502 C496 1.404 . S
C502 H500 0.949 . S
C502 C501 1.385 . S
H503 C501 0.950 . S
H504 C488 0.951 . S
H505 C490 0.951 . S
H506 C492 0.951 . S
H507 C493 0.950 . S
H508 C494 0.950 . S
H509 C495 0.950 . S
H510 C497 0.950 . S
H511 C498 0.951 . S
C129 C20 1.505 1_556 S
C139 C16 1.527 . S
C153 C52 1.524 . S
C163 C48 1.482 1_554 S
C177 C84 1.514 1_556 S
C187 C80 1.521 . S
C201 C112 1.519 1_554 S
C211 C116 1.512 . S
C225 C19 0.568 . S
C235 C23 0.409 . S
C249 C51 0.575 . S
C259 C55 0.575 . S
C273 C87 0.520 . S
C283 C83 0.640 . S
C297 C119 0.459 . S
C307 C115 0.582 . S
C321 C114 1.830 . S
C331 C22 1.862 . S
C345 C117 2.095 . S
C355 C17 2.060 . S
C369 C86 1.856 . S
C379 C50 1.817 . S
C393 C81 2.077 . S
C403 C53 2.100 . S
C417 C18 1.954 . S
C427 C54 1.954 . S
C441 C21 1.732 . S
C451 C49 1.718 . S
C465 C82 1.986 . S
C475 C118 1.945 . S
C489 C113 1.731 . S
C499 C85 1.711 . S
