# Generated by pormake.
# Topology uoz, (4)-cn, num edge types: 1
# Building blocks:
#     Node 0, Type 0, BuildingBlock: QUQFOY_clean_sbu_3, # of connection points: 4
#     Node 1, Type 0, BuildingBlock: QUQFOY_clean_sbu_3, # of connection points: 4
#     Node 2, Type 0, BuildingBlock: QUQFOY_clean_sbu_3, # of connection points: 4
#     Node 3, Type 0, BuildingBlock: QUQFOY_clean_sbu_3, # of connection points: 4
#     Node 4, Type 0, BuildingBlock: QUQFOY_clean_sbu_3, # of connection points: 4
#     Node 5, Type 0, BuildingBlock: QUQFOY_clean_sbu_3, # of connection points: 4
#     Node 6, Type 0, BuildingBlock: QUQFOY_clean_sbu_3, # of connection points: 4
#     Node 7, Type 0, BuildingBlock: QUQFOY_clean_sbu_3, # of connection points: 4
#     Node 8, Type 0, BuildingBlock: QUQFOY_clean_sbu_3, # of connection points: 4
#     Node 9, Type 0, BuildingBlock: QUQFOY_clean_sbu_3, # of connection points: 4
#     Node 10, Type 0, BuildingBlock: QUQFOY_clean_sbu_3, # of connection points: 4
#     Node 11, Type 0, BuildingBlock: QUQFOY_clean_sbu_3, # of connection points: 4
#     Node 12, Type 0, BuildingBlock: QUQFOY_clean_sbu_3, # of connection points: 4
#     Node 13, Type 0, BuildingBlock: QUQFOY_clean_sbu_3, # of connection points: 4
#     Node 14, Type 0, BuildingBlock: QUQFOY_clean_sbu_3, # of connection points: 4
#     Node 15, Type 0, BuildingBlock: QUQFOY_clean_sbu_3, # of connection points: 4
#     Edge 16, Type (0, 0), BuildingBlock: XIVTED_clean_linker_0, # of connection points: 2
#     Edge 17, Type (0, 0), BuildingBlock: XIVTED_clean_linker_0, # of connection points: 2
#     Edge 18, Type (0, 0), BuildingBlock: XIVTED_clean_linker_0, # of connection points: 2
#     Edge 19, Type (0, 0), BuildingBlock: XIVTED_clean_linker_0, # of connection points: 2
#     Edge 20, Type (0, 0), BuildingBlock: XIVTED_clean_linker_0, # of connection points: 2
#     Edge 21, Type (0, 0), BuildingBlock: XIVTED_clean_linker_0, # of connection points: 2
#     Edge 22, Type (0, 0), BuildingBlock: XIVTED_clean_linker_0, # of connection points: 2
#     Edge 23, Type (0, 0), BuildingBlock: XIVTED_clean_linker_0, # of connection points: 2
#     Edge 24, Type (0, 0), BuildingBlock: XIVTED_clean_linker_0, # of connection points: 2
#     Edge 25, Type (0, 0), BuildingBlock: XIVTED_clean_linker_0, # of connection points: 2
#     Edge 26, Type (0, 0), BuildingBlock: XIVTED_clean_linker_0, # of connection points: 2
#     Edge 27, Type (0, 0), BuildingBlock: XIVTED_clean_linker_0, # of connection points: 2
#     Edge 28, Type (0, 0), BuildingBlock: XIVTED_clean_linker_0, # of connection points: 2
#     Edge 29, Type (0, 0), BuildingBlock: XIVTED_clean_linker_0, # of connection points: 2
#     Edge 30, Type (0, 0), BuildingBlock: XIVTED_clean_linker_0, # of connection points: 2
#     Edge 31, Type (0, 0), BuildingBlock: XIVTED_clean_linker_0, # of connection points: 2
#     Edge 32, Type (0, 0), BuildingBlock: XIVTED_clean_linker_0, # of connection points: 2
#     Edge 33, Type (0, 0), BuildingBlock: XIVTED_clean_linker_0, # of connection points: 2
#     Edge 34, Type (0, 0), BuildingBlock: XIVTED_clean_linker_0, # of connection points: 2
#     Edge 35, Type (0, 0), BuildingBlock: XIVTED_clean_linker_0, # of connection points: 2
#     Edge 36, Type (0, 0), BuildingBlock: XIVTED_clean_linker_0, # of connection points: 2
#     Edge 37, Type (0, 0), BuildingBlock: XIVTED_clean_linker_0, # of connection points: 2
#     Edge 38, Type (0, 0), BuildingBlock: XIVTED_clean_linker_0, # of connection points: 2
#     Edge 39, Type (0, 0), BuildingBlock: XIVTED_clean_linker_0, # of connection points: 2
#     Edge 40, Type (0, 0), BuildingBlock: XIVTED_clean_linker_0, # of connection points: 2
#     Edge 41, Type (0, 0), BuildingBlock: XIVTED_clean_linker_0, # of connection points: 2
#     Edge 42, Type (0, 0), BuildingBlock: XIVTED_clean_linker_0, # of connection points: 2
#     Edge 43, Type (0, 0), BuildingBlock: XIVTED_clean_linker_0, # of connection points: 2
#     Edge 44, Type (0, 0), BuildingBlock: XIVTED_clean_linker_0, # of connection points: 2
#     Edge 45, Type (0, 0), BuildingBlock: XIVTED_clean_linker_0, # of connection points: 2
#     Edge 46, Type (0, 0), BuildingBlock: XIVTED_clean_linker_0, # of connection points: 2
#     Edge 47, Type (0, 0), BuildingBlock: XIVTED_clean_linker_0, # of connection points: 2
# Relax obj value: 0.179
# Max RMSD: 0.165
# Mean RMSD: 0.165
data_MOF--net-uoz--node1-QUQFOY_clean_sbu_3--edge1-XIVTED_clean_linker_0
_symmetry_space_group_name_H-M    P1
_symmetry_Int_Tables_number       1
_symmetry_cell_setting            triclinic
loop_
_symmetry_equiv_pos_as_xyz
'x, y, z'
_cell_length_a     61.80253
_cell_length_b     61.81042
_cell_length_c     22.182434
_cell_angle_alpha  89.850968
_cell_angle_beta   89.927802
_cell_angle_gamma 90.00765
loop_
_atom_site_label
_atom_site_type_symbol
_atom_site_fract_x
_atom_site_fract_y
_atom_site_fract_z
_atom_type_partial_charge
C0 C 0.96148 0.58626 0.20792 0.0
O1 O 0.96969 0.58029 0.15821 0.0
Cd2 Cd 0.00621 0.56945 0.1456 0.0
O3 O 0.97222 0.58474 0.25694 0.0
Cd4 Cd 0.00783 0.57026 0.29347 0.0
C5 C 0.03067 0.61242 0.22204 0.0
O6 O 0.013 0.54295 0.21952 0.0
O7 O 0.04219 0.55231 0.26549 0.0
O8 O 0.98665 0.54867 0.36293 0.0
C9 C 0.03299 0.5399 0.22816 0.0
O10 O 0.02615 0.60181 0.17448 0.0
C11 C -0.00055 0.55046 0.40728 0.0
O12 O 0.02507 0.60548 0.27412 0.0
O13 O 0.01558 0.56305 0.40059 0.0
C14 C 0.66668 0.69553 0.45329 0.0
O15 O 0.67486 0.70371 0.40595 0.0
Cd16 Cd 0.68585 0.74051 0.39966 0.0
O17 O 0.66627 0.70626 0.50237 0.0
Cd18 Cd 0.67973 0.74157 0.5422 0.0
C19 C 0.64009 0.76455 0.46295 0.0
O20 O 0.71037 0.74857 0.47841 0.0
O21 O 0.69547 0.77684 0.51702 0.0
O22 O 0.70007 0.72101 0.61546 0.0
C23 C 0.711 0.76879 0.48736 0.0
O24 O 0.65249 0.76044 0.41846 0.0
C25 C 0.69669 0.73368 0.65934 0.0
O26 O 0.64502 0.75849 0.51632 0.0
O27 O 0.68361 0.74927 0.65045 0.0
C28 C 0.55183 0.40249 0.69401 0.0
O29 O 0.54334 0.4082 0.64439 0.0
Cd30 Cd 0.50663 0.41889 0.63319 0.0
O31 O 0.54139 0.4044 0.74344 0.0
Cd32 Cd 0.50609 0.41934 0.78012 0.0
C33 C 0.48265 0.37667 0.71405 0.0
O34 O 0.49939 0.44614 0.7046 0.0
O35 O 0.47109 0.43576 0.75358 0.0
O36 O 0.52676 0.44219 0.84731 0.0
C37 C 0.47936 0.44838 0.71492 0.0
O38 O 0.48675 0.38683 0.66524 0.0
C39 C 0.51426 0.44002 0.89231 0.0
O40 O 0.48879 0.38403 0.76502 0.0
O41 O 0.49868 0.42669 0.88698 0.0
C42 C 0.83899 0.28382 0.93964 0.0
O43 O 0.83293 0.27532 0.89046 0.0
Cd44 Cd 0.82429 0.23802 0.88096 0.0
O45 O 0.83839 0.27302 0.98878 0.0
Cd46 Cd 0.82599 0.23696 0.02716 0.0
C47 C 0.86941 0.21709 0.95611 0.0
O48 O 0.7984 0.22907 0.95534 0.0
O49 O 0.81144 0.2011 0.00067 0.0
O50 O 0.80313 0.25697 0.09575 0.0
C51 C 0.7975 0.20889 0.96492 0.0
O52 O 0.85824 0.22063 0.9088 0.0
C53 C 0.80596 0.24463 0.14081 0.0
O54 O 0.86232 0.2223 0.00824 0.0
O55 O 0.81965 0.22939 0.13481 0.0
C56 C 0.94672 0.40051 0.92192 0.0
O57 O 0.95419 0.40726 0.97167 0.0
Cd58 Cd 0.99058 0.41878 0.98351 0.0
O59 O 0.95803 0.40187 0.87387 0.0
Cd60 Cd 0.99381 0.41726 0.8428 0.0
C61 C 0.01683 0.37579 0.91378 0.0
O62 O -0.00132 0.4466 0.91299 0.0
O63 O 0.02805 0.43252 0.87759 0.0
O64 O 0.9753 0.43924 0.76829 0.0
C65 C 0.01903 0.44771 0.90641 0.0
O66 O 0.01202 0.38662 0.96077 0.0
C67 C 0.98934 0.43689 0.72709 0.0
O68 O 0.01107 0.38229 0.86154 0.0
O69 O 0.00468 0.42369 0.73756 0.0
C70 C 0.8446 0.69421 0.18367 0.0
O71 O 0.83751 0.7024 0.23222 0.0
Cd72 Cd 0.82524 0.73878 0.23924 0.0
O73 O 0.84332 0.70466 0.1341 0.0
Cd74 Cd 0.82797 0.73952 0.09628 0.0
C75 C 0.8687 0.7639 0.1673 0.0
O76 O 0.79848 0.74546 0.16499 0.0
O77 O 0.81207 0.77422 0.12451 0.0
O78 O 0.80677 0.71892 0.0249 0.0
C79 C 0.79715 0.76565 0.15559 0.0
O80 O 0.85745 0.7599 0.21426 0.0
C81 C 0.80907 0.73203 0.98129 0.0
O82 O 0.86273 0.75719 0.11551 0.0
O83 O 0.82192 0.74785 0.98921 0.0
C84 C 0.55451 0.58334 0.42121 0.0
O85 O 0.54593 0.5759 0.46893 0.0
Cd86 Cd 0.5093 0.56441 0.47399 0.0
O87 O 0.54419 0.58301 0.3714 0.0
Cd88 Cd 0.50889 0.56907 0.33249 0.0
C89 C 0.48503 0.60923 0.40718 0.0
O90 O 0.50299 0.53846 0.39732 0.0
O91 O 0.47407 0.55274 0.35998 0.0
O92 O 0.52904 0.54898 0.25749 0.0
C93 C 0.4828 0.53717 0.38806 0.0
O94 O 0.48863 0.59729 0.45304 0.0
C95 C 0.51577 0.55213 0.21479 0.0
O96 O 0.49183 0.6038 0.35499 0.0
O97 O 0.50011 0.56496 0.22507 0.0
C98 C 0.66327 0.28941 0.67046 0.0
O99 O 0.67016 0.28105 0.71907 0.0
Cd100 Cd 0.68115 0.24422 0.72615 0.0
O101 O 0.66385 0.27874 0.62132 0.0
Cd102 Cd 0.67722 0.24298 0.58474 0.0
C103 C 0.63615 0.22048 0.65988 0.0
O104 O 0.70744 0.23678 0.65072 0.0
O105 O 0.69274 0.20804 0.61371 0.0
O106 O 0.69772 0.26268 0.50935 0.0
C107 C 0.70835 0.21654 0.64197 0.0
O108 O 0.64801 0.22394 0.70584 0.0
C109 C 0.69478 0.2492 0.46717 0.0
O110 O 0.64191 0.22701 0.60761 0.0
O111 O 0.68192 0.23357 0.47782 0.0
C112 C 0.33198 0.20481 0.70055 0.0
O113 O 0.32567 0.21396 0.74858 0.0
Cd114 Cd 0.31641 0.25137 0.75066 0.0
O115 O 0.33161 0.21493 0.65035 0.0
Cd116 Cd 0.32005 0.25038 0.60732 0.0
C117 C 0.36255 0.27129 0.6789 0.0
O118 O 0.29074 0.25919 0.67379 0.0
O119 O 0.30616 0.2865 0.63069 0.0
O120 O 0.2988 0.22966 0.53628 0.0
C121 C 0.29066 0.27928 0.66223 0.0
O122 O 0.3507 0.26889 0.72554 0.0
C123 C 0.30221 0.24197 0.49145 0.0
O124 O 0.35618 0.26481 0.62726 0.0
O125 O 0.31545 0.25749 0.49897 0.0
C126 C 0.164 0.7986 0.16625 0.0
O127 O 0.17164 0.79078 0.21468 0.0
Cd128 Cd 0.18422 0.75451 0.22288 0.0
O129 O 0.16477 0.78779 0.11735 0.0
Cd130 Cd 0.1798 0.75266 0.08087 0.0
C131 C 0.14019 0.72838 0.15773 0.0
O132 O 0.21029 0.74745 0.14682 0.0
O133 O 0.19634 0.71832 0.10986 0.0
O134 O 0.19993 0.77271 0.00535 0.0
C135 C 0.21163 0.7272 0.13857 0.0
O136 O 0.15199 0.73281 0.20317 0.0
C137 C 0.19717 0.75917 0.9632 0.0
O138 O 0.14543 0.73484 0.10493 0.0
O139 O 0.18453 0.74337 0.97391 0.0
C140 C 0.16742 0.20366 0.94459 0.0
O141 O 0.17467 0.2132 0.89806 0.0
Cd142 Cd 0.18318 0.25076 0.89659 0.0
O143 O 0.16668 0.21343 -0.00482 0.0
Cd144 Cd 0.17782 0.24887 0.03949 0.0
C145 C 0.136 0.26985 0.96474 0.0
O146 O 0.20762 0.2589 0.9757 0.0
O147 O 0.19099 0.28548 0.0184 0.0
O148 O 0.19945 0.22885 0.11137 0.0
C149 C 0.207 0.27893 0.98781 0.0
O150 O 0.14839 0.26769 0.91912 0.0
C151 C 0.19496 0.24069 0.15629 0.0
O152 O 0.14183 0.26324 0.01685 0.0
O153 O 0.18088 0.25544 0.14831 0.0
C154 C 0.34591 0.79001 0.4352 0.0
O155 O 0.33916 0.78107 0.38735 0.0
Cd156 Cd 0.32815 0.74443 0.38127 0.0
O157 O 0.34468 0.78018 0.48585 0.0
Cd158 Cd 0.32952 0.74546 0.52722 0.0
C159 C 0.37153 0.72152 0.45983 0.0
O160 O 0.30161 0.73838 0.45569 0.0
O161 O 0.31325 0.71013 0.50232 0.0
O162 O 0.30719 0.76658 0.59501 0.0
C163 C 0.29968 0.71835 0.46625 0.0
O164 O 0.36073 0.72507 0.41185 0.0
C165 C 0.30965 0.75431 0.64043 0.0
O166 O 0.36474 0.72809 0.51104 0.0
O167 O 0.32299 0.73876 0.63499 0.0
C168 C 0.44208 0.09234 0.68621 0.0
O169 O 0.44879 0.09062 0.63231 0.0
Cd170 Cd 0.48393 0.08145 0.5989 0.0
O171 O 0.45421 0.08731 0.7308 0.0
Cd172 Cd 0.49102 0.07061 0.74669 0.0
C173 C 0.51388 0.11628 0.69047 0.0
O174 O 0.49208 0.05062 0.6553 0.0
O175 O 0.52267 0.05213 0.70131 0.0
O176 O 0.47408 0.04384 0.81212 0.0
C177 C 0.51192 0.04567 0.6563 0.0
O178 O 0.50671 0.1099 0.63965 0.0
C179 C 0.4885 0.04443 0.85278 0.0
O180 O 0.50991 0.10572 0.7389 0.0
O181 O 0.50342 0.05845 0.84645 0.0
C182 C 0.04781 0.90722 0.18105 0.0
O183 O 0.03924 0.91264 0.13129 0.0
Cd184 Cd 0.00241 0.9225 0.11949 0.0
O185 O 0.03731 0.90899 0.23045 0.0
Cd186 Cd 0.00169 0.92338 0.26737 0.0
C187 C 0.97935 0.87996 0.20169 0.0
O188 O -0.0048 0.94964 0.19093 0.0
O189 O 0.96663 0.9399 0.23961 0.0
O190 O 0.02253 0.94646 0.33353 0.0
C191 C 0.97517 0.95211 0.20036 0.0
O192 O 0.98336 0.89007 0.15275 0.0
C193 C 0.01014 0.94456 0.37886 0.0
O194 O 0.98509 0.88765 0.25267 0.0
O195 O 0.99446 0.93132 0.37424 0.0
C196 C 0.4598 0.90044 0.38167 0.0
O197 O 0.46805 0.90916 0.42796 0.0
Cd198 Cd 0.50382 0.9229 0.42933 0.0
O199 O 0.47002 0.90037 0.33156 0.0
Cd200 Cd 0.50469 0.91508 0.28881 0.0
C201 C 0.53033 0.87785 0.37099 0.0
O202 O 0.50716 0.94738 0.34726 0.0
O203 O 0.53773 0.93573 0.31318 0.0
O204 O 0.48243 0.93097 0.21034 0.0
C205 C 0.52698 0.95093 0.3369 0.0
O206 O 0.52588 0.8906 0.41435 0.0
C207 C 0.49632 0.92926 0.16853 0.0
O208 O 0.52373 0.88186 0.31761 0.0
O209 O 0.5135 0.91881 0.18086 0.0
C210 C 0.05969 0.08786 0.90496 0.0
O211 O 0.05175 0.07975 0.9527 0.0
Cd212 Cd 0.01529 0.06783 0.9606 0.0
O213 O 0.04885 0.08786 0.85601 0.0
Cd214 Cd 0.01338 0.07337 0.81951 0.0
C215 C 0.9895 0.1126 0.89795 0.0
O216 O 0.00774 0.04234 0.88374 0.0
O217 O 0.97881 0.05722 0.84826 0.0
O218 O 0.0327 0.05333 0.74262 0.0
C219 C 0.98745 0.04145 0.87564 0.0
O220 O 0.9939 0.10045 0.94284 0.0
C221 C 0.01903 0.05664 0.70101 0.0
O222 O -0.00416 0.10767 0.8449 0.0
O223 O 0.00359 0.06959 0.71264 0.0
H224 H 0.11266 0.71164 0.0724 0.0
H225 H 0.04982 0.63697 0.3107 0.0
H226 H 0.12363 0.71367 0.26457 0.0
H227 H 0.04061 0.63384 0.11795 0.0
H228 H 0.07377 0.66813 0.29598 0.0
H229 H 0.08303 0.68612 0.08941 0.0
C230 C 0.10873 0.7069 0.11816 0.0
C231 C 0.12084 0.71463 0.167 0.0
C232 C 0.06635 0.6607 0.257 0.0
C233 C 0.08702 0.68535 0.18685 0.0
C234 C 0.05264 0.64295 0.26542 0.0
C235 C 0.0434 0.63259 0.2155 0.0
C236 C 0.07081 0.66812 0.19826 0.0
C237 C 0.04758 0.6411 0.15781 0.0
C238 C 0.09182 0.69229 0.12789 0.0
C239 C 0.11492 0.70797 0.2254 0.0
N240 N 0.06107 0.65823 0.15079 0.0
N241 N 0.09857 0.6936 0.23363 0.0
H242 H 0.54749 0.84863 0.29065 0.0
H243 H 0.61354 0.78456 0.54546 0.0
H244 H 0.54341 0.86276 0.48092 0.0
H245 H 0.62203 0.77462 0.35427 0.0
H246 H 0.58399 0.80976 0.52346 0.0
H247 H 0.5713 0.8181 0.31389 0.0
C248 C 0.55147 0.84525 0.33727 0.0
C249 C 0.54362 0.85845 0.38377 0.0
C250 C 0.59222 0.8019 0.48638 0.0
C251 C 0.57083 0.82355 0.41074 0.0
C252 C 0.60903 0.78745 0.49896 0.0
C253 C 0.62047 0.77768 0.45167 0.0
C254 C 0.58682 0.80654 0.42612 0.0
C255 C 0.61388 0.782 0.39222 0.0
C256 C 0.56507 0.82782 0.35055 0.0
C257 C 0.54925 0.8532 0.44345 0.0
N258 N 0.59763 0.79621 0.38116 0.0
N259 N 0.56258 0.83627 0.45514 0.0
H260 H 0.47203 0.35372 0.61337 0.0
H261 H 0.3824 0.28373 0.78322 0.0
H262 H 0.46245 0.35465 0.80622 0.0
H263 H 0.39049 0.2848 0.58981 0.0
H264 H 0.41494 0.30561 0.79356 0.0
H265 H 0.44585 0.32445 0.60551 0.0
C266 C 0.46458 0.34763 0.65425 0.0
C267 C 0.46922 0.35691 0.71053 0.0
C268 C 0.40973 0.30092 0.74888 0.0
C269 C 0.43903 0.32339 0.70161 0.0
C270 C 0.3911 0.28842 0.74283 0.0
C271 C 0.38349 0.28265 0.68541 0.0
C272 C 0.42085 0.30782 0.69715 0.0
C273 C 0.39564 0.289 0.63491 0.0
C274 C 0.44961 0.33088 0.64965 0.0
C275 C 0.45926 0.3481 0.7619 0.0
N276 N 0.4136 0.30145 0.64195 0.0
N277 N 0.44442 0.332 0.75611 0.0
H278 H 0.89187 0.21004 0.85209 0.0
H279 H 0.97591 0.12922 0.00565 0.0
H280 H 0.89485 0.19849 0.04397 0.0
H281 H 0.97136 0.1397 0.81351 0.0
H282 H 0.94968 0.15807 0.02165 0.0
H283 H 0.92416 0.18807 0.83876 0.0
C284 C 0.8994 0.203 0.89161 0.0
C285 C 0.89042 0.20587 0.94925 0.0
C286 C 0.95456 0.15421 0.97602 0.0
C287 C 0.9275 0.18052 0.93404 0.0
C288 C 0.96956 0.13772 0.96674 0.0
C289 C 0.97566 0.1318 0.90799 0.0
C290 C 0.94547 0.16487 0.92624 0.0
C291 C 0.96703 0.14358 0.85953 0.0
C292 C 0.9179 0.19046 0.88387 0.0
C293 C 0.90112 0.1966 -0.00129 0.0
N294 N 0.9522 0.1594 0.86973 0.0
N295 N 0.91897 0.18412 0.98988 0.0
H296 H 0.02795 0.35514 0.0183 0.0
H297 H 0.11662 0.28126 0.85874 0.0
H298 H 0.0369 0.35195 0.82542 0.0
H299 H 0.10784 0.2845 0.05168 0.0
H300 H 0.08447 0.3035 0.84532 0.0
H301 H 0.05392 0.32583 0.03063 0.0
C302 C 0.03523 0.34815 0.9784 0.0
C303 C 0.03044 0.35625 0.9207 0.0
C304 C 0.08944 0.29921 0.8906 0.0
C305 C 0.06035 0.32267 0.93471 0.0
C306 C 0.10784 0.2865 0.89839 0.0
C307 C 0.11515 0.28123 0.95655 0.0
C308 C 0.07826 0.30687 0.9413 0.0
C309 C 0.10291 0.28829 0.00605 0.0
C310 C 0.05007 0.33138 0.98556 0.0
C311 C 0.0402 0.34634 0.87075 0.0
N312 N 0.08519 0.30095 -0.00269 0.0
N313 N 0.05488 0.33023 0.87898 0.0
H314 H 0.96974 0.85667 0.10089 0.0
H315 H 0.88725 0.77839 0.27148 0.0
H316 H 0.96036 0.85679 0.29386 0.0
H317 H 0.89483 0.78047 0.07796 0.0
H318 H 0.91722 0.8037 0.28151 0.0
H319 H 0.94583 0.82553 0.09316 0.0
C320 C 0.96278 0.85005 0.14183 0.0
C321 C 0.96686 0.85958 0.19813 0.0
C322 C 0.91246 0.7985 0.23687 0.0
C323 C 0.93929 0.82384 0.18934 0.0
C324 C 0.89531 0.78403 0.231 0.0
C325 C 0.8883 0.77747 0.17363 0.0
C326 C 0.92269 0.80659 0.18505 0.0
C327 C 0.89956 0.78518 0.12302 0.0
C328 C 0.94911 0.83223 0.13728 0.0
C329 C 0.95758 0.85008 0.24952 0.0
N330 N 0.91608 0.79949 0.12991 0.0
N331 N 0.94403 0.83285 0.24382 0.0
H332 H 0.39558 0.70308 0.55086 0.0
H333 H 0.47022 0.63724 0.3201 0.0
H334 H 0.39333 0.71061 0.35736 0.0
H335 H 0.46977 0.62637 0.51252 0.0
H336 H 0.44563 0.66777 0.33437 0.0
H337 H 0.42642 0.67856 0.53919 0.0
C338 C 0.40171 0.6998 0.50605 0.0
C339 C 0.39165 0.70868 0.45501 0.0
C340 C 0.45106 0.6588 0.37352 0.0
C341 C 0.42681 0.68062 0.44128 0.0
C342 C 0.46513 0.64137 0.36536 0.0
C343 C 0.47187 0.62903 0.41505 0.0
C344 C 0.44365 0.6639 0.43175 0.0
C345 C 0.46481 0.63524 0.47275 0.0
C346 C 0.41927 0.68575 0.49937 0.0
C347 C 0.40034 0.7039 0.398 0.0
N348 N 0.45097 0.65212 0.47944 0.0
N349 N 0.41728 0.69009 0.39269 0.0
H350 H 0.62011 0.20281 0.76399 0.0
H351 H 0.52096 0.14514 0.59935 0.0
H352 H 0.60575 0.20997 0.57446 0.0
H353 H 0.54006 0.13079 0.78234 0.0
H354 H 0.54848 0.17322 0.59469 0.0
H355 H 0.58782 0.18052 0.77572 0.0
C356 C 0.61011 0.19982 0.72481 0.0
C357 C 0.61581 0.20814 0.66791 0.0
C358 C 0.54657 0.16407 0.63606 0.0
C359 C 0.57872 0.18259 0.68133 0.0
C360 C 0.53081 0.14802 0.63888 0.0
C361 C 0.52837 0.13533 0.69112 0.0
C362 C 0.56013 0.16751 0.68574 0.0
C363 C 0.54144 0.14007 0.74106 0.0
C364 C 0.59166 0.18707 0.73166 0.0
C365 C 0.60211 0.20379 0.61904 0.0
N366 N 0.55694 0.15565 0.73691 0.0
N367 N 0.58427 0.19122 0.62683 0.0
H368 H 0.92525 0.38294 0.82532 0.0
H369 H 0.85318 0.30821 0.03503 0.0
H370 H 0.92066 0.39105 0.01824 0.0
H371 H 0.84804 0.30888 0.84088 0.0
H372 H 0.87496 0.34114 0.02977 0.0
H373 H 0.89417 0.35855 0.82921 0.0
C374 C 0.91753 0.37987 0.86835 0.0
C375 C 0.92583 0.38879 0.92163 0.0
C376 C 0.86879 0.33426 0.98836 0.0
C377 C 0.89041 0.36068 0.92654 0.0
C378 C 0.85635 0.31544 0.99136 0.0
C379 C 0.84905 0.30555 0.93829 0.0
C380 C 0.8742 0.3431 0.93186 0.0
C381 C 0.85352 0.31577 0.88299 0.0
C382 C 0.89976 0.36593 0.87057 0.0
C383 C 0.91502 0.38435 0.97606 0.0
N384 N 0.86609 0.33378 0.88116 0.0
N385 N 0.8981 0.37035 0.97722 0.0
H386 H 0.40931 0.09598 0.60501 0.0
H387 H 0.3456 0.18298 0.8013 0.0
H388 H 0.42597 0.11153 0.7888 0.0
H389 H 0.3417 0.17745 0.60761 0.0
H390 H 0.36784 0.15025 0.80407 0.0
H391 H 0.37727 0.11865 0.61346 0.0
C392 C 0.40606 0.10393 0.64755 0.0
C393 C 0.42061 0.10226 0.69589 0.0
C394 C 0.36181 0.15604 0.76114 0.0
C395 C 0.38397 0.12843 0.70556 0.0
C396 C 0.34905 0.17467 0.75945 0.0
C397 C 0.34208 0.18316 0.70395 0.0
C398 C 0.36746 0.14577 0.70704 0.0
C399 C 0.34699 0.17167 0.65128 0.0
C400 C 0.38775 0.11689 0.65226 0.0
C401 C 0.41531 0.11257 0.75022 0.0
N402 N 0.35955 0.15369 0.65409 0.0
N403 N 0.39756 0.12556 0.7533 0.0
H404 H 0.57881 0.59062 0.5222 0.0
H405 H 0.65985 0.67086 0.35275 0.0
H406 H 0.57836 0.6017 0.32986 0.0
H407 H 0.64786 0.67206 0.5446 0.0
H408 H 0.6366 0.63911 0.34443 0.0
H409 H 0.61055 0.61385 0.53067 0.0
C410 C 0.58555 0.59766 0.48155 0.0
C411 C 0.57565 0.59448 0.42527 0.0
C412 C 0.63928 0.64617 0.38842 0.0
C413 C 0.612 0.62114 0.43493 0.0
C414 C 0.65261 0.66428 0.39334 0.0
C415 C 0.65554 0.67439 0.4494 0.0
C416 C 0.62888 0.63803 0.43992 0.0
C417 C 0.64585 0.66498 0.50037 0.0
C418 C 0.60366 0.61098 0.48655 0.0
C419 C 0.58528 0.60391 0.37423 0.0
N420 N 0.63277 0.64745 0.49431 0.0
N421 N 0.6028 0.617 0.38037 0.0
H422 H 0.15442 0.82309 0.2655 0.0
H423 H 0.0739 0.90001 0.08346 0.0
H424 H 0.14616 0.82136 0.07225 0.0
H425 H 0.07082 0.89031 0.2762 0.0
H426 H 0.10642 0.87779 0.07986 0.0
H427 H 0.13 0.85406 0.27022 0.0
C428 C 0.14775 0.8294 0.22389 0.0
C429 C 0.15209 0.81936 0.16841 0.0
C430 C 0.09877 0.88073 0.12302 0.0
C431 C 0.12409 0.85481 0.17376 0.0
C432 C 0.0802 0.89346 0.12524 0.0
C433 C 0.06935 0.89674 0.18016 0.0
C434 C 0.10663 0.87119 0.17607 0.0
C435 C 0.07848 0.88802 0.23278 0.0
C436 C 0.13375 0.84706 0.22675 0.0
C437 C 0.14307 0.82839 0.11606 0.0
N438 N 0.09648 0.87543 0.22934 0.0
N439 N 0.12933 0.84548 0.1201 0.0
H440 H 0.9386 0.60294 0.30352 0.0
H441 H 0.86112 0.67058 0.0897 0.0
H442 H 0.93548 0.59409 0.11063 0.0
H443 H 0.85578 0.67082 0.28384 0.0
H444 H 0.88579 0.63984 0.09672 0.0
H445 H 0.90587 0.62507 0.29825 0.0
C446 C 0.9309 0.60539 0.26021 0.0
C447 C 0.94004 0.59692 0.20735 0.0
C448 C 0.87898 0.64642 0.13776 0.0
C449 C 0.9027 0.62238 0.2009 0.0
C450 C 0.86488 0.66399 0.13375 0.0
C451 C 0.85661 0.67353 0.18627 0.0
C452 C 0.88508 0.63849 0.19473 0.0
C453 C 0.86193 0.66415 0.24212 0.0
C454 C 0.91219 0.61802 0.25721 0.0
C455 C 0.92922 0.60051 0.15252 0.0
N456 N 0.87608 0.64738 0.24492 0.0
N457 N 0.91132 0.6132 0.15064 0.0
H458 H 0.08532 0.09365 0.00413 0.0
H459 H 0.16062 0.18078 0.84073 0.0
H460 H 0.08169 0.10882 0.81422 0.0
H461 H 0.15117 0.17724 0.03346 0.0
H462 H 0.13877 0.14816 0.82918 0.0
H463 H 0.11634 0.11778 0.01315 0.0
C464 C 0.09122 0.10179 0.96405 0.0
C465 C 0.0806 0.09948 0.90846 0.0
C466 C 0.14173 0.15437 0.87403 0.0
C467 C 0.11615 0.12719 0.91877 0.0
C468 C 0.15427 0.17297 0.88078 0.0
C469 C 0.15745 0.182 0.93817 0.0
C470 C 0.13239 0.14466 0.925 0.0
C471 C 0.14892 0.17104 0.98832 0.0
C472 C 0.10892 0.11561 0.96938 0.0
C473 C 0.08918 0.1103 0.85811 0.0
N474 N 0.13659 0.15306 0.9805 0.0
N475 N 0.10632 0.12389 0.86461 0.0
H476 H 0.64766 0.31348 0.57595 0.0
H477 H 0.57497 0.38607 0.78947 0.0
H478 H 0.65383 0.31384 0.76985 0.0
H479 H 0.57701 0.39333 0.59583 0.0
H480 H 0.60677 0.36266 0.7839 0.0
H481 H 0.62482 0.34562 0.58228 0.0
C482 C 0.64447 0.32048 0.61979 0.0
C483 C 0.6524 0.31072 0.67249 0.0
C484 C 0.60045 0.36964 0.74272 0.0
C485 C 0.62604 0.34738 0.68016 0.0
C486 C 0.58227 0.38303 0.74589 0.0
C487 C 0.57305 0.39138 0.69296 0.0
C488 C 0.6093 0.36442 0.68619 0.0
C489 C 0.58335 0.38702 0.6378 0.0
C490 C 0.63142 0.33885 0.6234 0.0
C491 C 0.64788 0.32065 0.72803 0.0
N492 N 0.6007 0.37359 0.63579 0.0
N493 N 0.63473 0.33822 0.73048 0.0
H494 H 0.36512 0.81372 0.52523 0.0
H495 H 0.43543 0.88152 0.29278 0.0
H496 H 0.35368 0.81368 0.33317 0.0
H497 H 0.43689 0.89249 0.48495 0.0
H498 H 0.40362 0.85853 0.30654 0.0
H499 H 0.38939 0.84463 0.51215 0.0
C500 C 0.36742 0.8204 0.48048 0.0
C501 C 0.35759 0.81085 0.43015 0.0
C502 C 0.41074 0.8662 0.34561 0.0
C503 C 0.38555 0.84601 0.41476 0.0
C504 C 0.42894 0.8793 0.33776 0.0
C505 C 0.43903 0.88873 0.38782 0.0
C506 C 0.40276 0.86228 0.40401 0.0
C507 C 0.42978 0.88541 0.44503 0.0
C508 C 0.38131 0.83804 0.47301 0.0
C509 C 0.3611 0.8203 0.37326 0.0
N510 N 0.41236 0.87222 0.45165 0.0
N511 N 0.37503 0.83713 0.36702 0.0
H512 H 0.04706 0.49835 0.23327 0.0
H513 H 0.05511 0.43928 0.97324 0.0
H514 H 0.04519 0.55483 0.11936 0.0
H515 H 0.01115 0.49026 0.92212 0.0
H516 H 0.07089 0.46333 0.04983 0.0
H517 H 0.05513 0.47613 0.14477 0.0
C518 C 0.04942 0.50613 0.18993 0.0
C519 C 0.04538 0.52823 0.18279 0.0
C520 C 0.05816 0.46932 0.02071 0.0
C521 C 0.05396 0.50321 0.08206 0.0
C522 C 0.04925 0.45574 0.9771 0.0
C523 C 0.03163 0.46287 0.94261 0.0
C524 C 0.04948 0.49011 0.02849 0.0
C525 C 0.02451 0.48419 0.94883 0.0
C526 C 0.05407 0.49352 0.13948 0.0
C527 C 0.04812 0.53772 0.126 0.0
N528 N 0.0334 0.49707 0.99141 0.0
N529 N 0.05158 0.52502 0.07723 0.0
H530 H 0.80968 0.79754 0.23187 0.0
H531 H 0.75444 0.77447 0.48769 0.0
H532 H 0.7538 0.76257 0.16889 0.0
H533 H 0.69621 0.79187 0.39281 0.0
H534 H 0.77584 0.78697 0.40148 0.0
H535 H 0.78813 0.81129 0.31688 0.0
C536 C 0.79264 0.79352 0.23474 0.0
C537 C 0.78337 0.77876 0.19446 0.0
C538 C 0.75844 0.78908 0.40061 0.0
C539 C 0.75901 0.79426 0.29001 0.0
C540 C 0.7463 0.78183 0.44958 0.0
C541 C 0.72373 0.78225 0.44665 0.0
C542 C 0.74773 0.7958 0.34794 0.0
C543 C 0.71369 0.79148 0.39626 0.0
C544 C 0.78047 0.80126 0.28309 0.0
C545 C 0.76142 0.77375 0.1998 0.0
N546 N 0.72577 0.7972 0.34767 0.0
N547 N 0.74996 0.78135 0.24735 0.0
H548 H 0.44806 0.54585 0.45979 0.0
H549 H 0.46421 0.48956 0.71775 0.0
H550 H 0.48906 0.49412 0.39737 0.0
H551 H 0.46539 0.43172 0.61006 0.0
H552 H 0.45218 0.51012 0.62954 0.0
H553 H 0.43419 0.52189 0.53967 0.0
C554 C 0.45352 0.5292 0.46171 0.0
C555 C 0.46994 0.52186 0.42324 0.0
C556 C 0.45399 0.49275 0.62572 0.0
C557 C 0.45452 0.49482 0.51355 0.0
C558 C 0.46098 0.48111 0.67599 0.0
C559 C 0.46588 0.45916 0.67023 0.0
C560 C 0.45258 0.48228 0.56961 0.0
C561 C 0.46184 0.44876 0.6155 0.0
C562 C 0.44576 0.51567 0.50737 0.0
C563 C 0.47663 0.50033 0.42712 0.0
N564 N 0.45601 0.46056 0.56658 0.0
N565 N 0.46904 0.48757 0.47213 0.0
H566 H 0.75606 0.19461 0.96875 0.0
H567 H 0.69944 0.18098 0.71057 0.0
H568 H 0.81398 0.19402 0.8607 0.0
H569 H 0.75135 0.22288 0.65335 0.0
H570 H 0.72327 0.16578 0.78872 0.0
H571 H 0.73513 0.18359 0.88049 0.0
C572 C 0.76443 0.19111 0.92695 0.0
C573 C 0.78657 0.19521 0.92118 0.0
C574 C 0.72955 0.17784 0.75781 0.0
C575 C 0.76298 0.18329 0.82037 0.0
C576 C 0.71608 0.1864 0.71324 0.0
C577 C 0.72352 0.20342 0.67682 0.0
C578 C 0.75046 0.18634 0.76484 0.0
C579 C 0.74506 0.21001 0.68159 0.0
C580 C 0.75256 0.18473 0.87663 0.0
C581 C 0.79683 0.19095 0.86626 0.0
N582 N 0.75777 0.20158 0.72542 0.0
N583 N 0.78481 0.18587 0.81721 0.0
H584 H 0.25031 0.28515 0.98892 0.0
H585 H 0.30494 0.31029 0.73895 0.0
H586 H 0.19169 0.30509 0.89997 0.0
H587 H 0.24709 0.27985 0.67182 0.0
H588 H 0.28405 0.32466 0.82431 0.0
H589 H 0.27134 0.30016 0.90544 0.0
C590 C 0.242 0.2936 0.95288 0.0
C591 C 0.21943 0.29392 0.95056 0.0
C592 C 0.27583 0.31557 0.78951 0.0
C593 C 0.24306 0.31037 0.85451 0.0
C594 C 0.28764 0.30748 0.74089 0.0
C595 C 0.2776 0.29366 0.69952 0.0
C596 C 0.25399 0.30972 0.79583 0.0
C597 C 0.25531 0.29025 0.70366 0.0
C598 C 0.25395 0.3023 0.90542 0.0
C599 C 0.20918 0.30466 0.90287 0.0
N600 N 0.24424 0.29799 0.75172 0.0
N601 N 0.22108 0.31178 0.85532 0.0
H602 H 0.25775 0.70546 0.46858 0.0
H603 H 0.20246 0.69158 0.20654 0.0
H604 H 0.31616 0.70276 0.36288 0.0
H605 H 0.25439 0.73428 0.15417 0.0
H606 H 0.22569 0.67648 0.28624 0.0
H607 H 0.2369 0.69517 0.37937 0.0
C608 C 0.26621 0.70165 0.42713 0.0
C609 C 0.2885 0.70496 0.42227 0.0
C610 C 0.23211 0.68868 0.25601 0.0
C611 C 0.26504 0.69393 0.32049 0.0
C612 C 0.219 0.69721 0.21061 0.0
C613 C 0.22659 0.71438 0.17499 0.0
C614 C 0.25288 0.69732 0.26456 0.0
C615 C 0.24798 0.72126 0.18167 0.0
C616 C 0.25438 0.69572 0.3763 0.0
C617 C 0.29889 0.70034 0.36775 0.0
N618 N 0.26038 0.71281 0.22617 0.0
N619 N 0.28696 0.69575 0.31817 0.0
H620 H 0.52037 0.99303 0.31235 0.0
H621 H 0.54877 0.02102 0.65051 0.0
H622 H 0.55571 0.95008 0.42944 0.0
H623 H 0.49921 0.05024 0.54033 0.0
H624 H 0.5631 0.00281 0.56023 0.0
H625 H 0.52641 0.02252 0.38335 0.0
C626 C 0.53013 0.99011 0.3521 0.0
C627 C 0.53738 0.96929 0.36594 0.0
C628 C 0.54941 0.01363 0.55591 0.0
C629 C 0.54327 0.00231 0.44852 0.0
C630 C 0.54119 0.02389 0.6072 0.0
C631 C 0.52249 0.03662 0.60277 0.0
C632 C 0.53896 0.01659 0.50026 0.0
C633 C 0.51335 0.04013 0.5459 0.0
C634 C 0.53345 0.00683 0.3928 0.0
C635 C 0.54986 0.96607 0.41779 0.0
N636 N 0.52158 0.03002 0.49701 0.0
N637 N 0.5519 0.98233 0.45847 0.0
H638 H 0.95067 0.04965 0.93974 0.0
H639 H 0.95952 0.99311 0.20203 0.0
H640 H 0.99505 -0.00123 0.8912 0.0
H641 H 0.96292 0.93549 0.09377 0.0
H642 H 0.95031 0.01402 0.11179 0.0
H643 H 0.93466 0.02569 0.0165 0.0
C644 C 0.95654 0.03321 0.94406 0.0
C645 C 0.97441 0.02612 0.91044 0.0
C646 C 0.95195 -0.00336 0.10812 0.0
C647 C 0.95636 -0.00099 -0.00318 0.0
C648 C 0.95726 0.98477 0.15959 0.0
C649 C 0.9621 0.96278 0.15447 0.0
C650 C 0.95222 0.98634 0.05165 0.0
C651 C 0.95942 0.95256 0.09881 0.0
C652 C 0.94751 0.01967 0.98784 0.0
C653 C 0.98153 0.00482 0.91728 0.0
N654 N 0.95532 0.96458 0.04894 0.0
N655 N 0.97258 0.99202 0.9602 0.0
H656 H 0.95538 0.45939 0.67924 0.0
H657 H 0.03076 0.53798 0.48713 0.0
H658 H 0.02388 0.44846 0.65713 0.0
H659 H 0.96309 0.52946 0.44586 0.0
H660 H 0.02792 0.50919 0.563 0.0
H661 H 0.95729 0.48822 0.60333 0.0
C662 C 0.97075 0.46283 0.65768 0.0
C663 C 0.98948 0.45145 0.67418 0.0
C664 C 0.01368 0.51377 0.53757 0.0
C665 C 0.99189 0.48482 0.58912 0.0
C666 C 0.01521 0.53037 0.49491 0.0
C667 C -0.00288 0.5361 0.46023 0.0
C668 C 0.99384 0.5031 0.54621 0.0
C669 C 0.97743 0.5255 0.47161 0.0
C670 C 0.97183 0.47933 0.61469 0.0
C671 C 0.00901 0.45668 0.64526 0.0
N672 N 0.9763 0.50952 0.51369 0.0
N673 N 0.00977 0.47319 0.60467 0.0
H674 H 0.78786 0.6965 0.93831 0.0
H675 H 0.70678 0.76598 0.73826 0.0
H676 H 0.79654 0.76485 0.90655 0.0
H677 H 0.71843 0.6984 0.70227 0.0
H678 H 0.73522 0.76506 0.81513 0.0
H679 H 0.75898 0.69613 0.8626 0.0
C680 C 0.78392 0.71134 0.91466 0.0
C681 C 0.79468 0.73071 0.92837 0.0
C682 C 0.73137 0.75041 0.79073 0.0
C683 C 0.76123 0.73053 0.84373 0.0
C684 C 0.71495 0.75083 0.74755 0.0
C685 C 0.71026 0.73223 0.71392 0.0
C686 C 0.7429 0.73117 0.80094 0.0
C687 C 0.72158 0.7131 0.7272 0.0
C688 C 0.76739 0.71113 0.87183 0.0
C689 C 0.78882 0.74952 0.89685 0.0
N690 N 0.7374 0.71305 0.76971 0.0
N691 N 0.77228 0.74903 0.85654 0.0
H692 H 0.48268 0.54207 0.13842 0.0
H693 H 0.55004 0.46198 0.93065 0.0
H694 H 0.55064 0.53048 0.16896 0.0
H695 H 0.48232 0.4524 0.96998 0.0
H696 H 0.55117 0.4908 0.00638 0.0
H697 H 0.48285 0.51387 0.06098 0.0
C698 C 0.49774 0.53396 0.12784 0.0
C699 C 0.51668 0.5386 0.16009 0.0
C700 C 0.53614 0.48222 -0.00126 0.0
C701 C 0.5169 0.50626 0.07231 0.0
C702 C 0.5355 0.46573 0.95587 0.0
C703 C 0.51608 0.45472 0.94439 0.0
C704 C 0.51711 0.48807 0.02911 0.0
C705 C 0.49767 0.46033 0.97792 0.0
C706 C 0.49775 0.51768 0.0843 0.0
C707 C 0.53569 0.52737 0.14512 0.0
N708 N 0.49856 0.47683 0.01826 0.0
N709 N 0.53533 0.51169 0.10225 0.0
H710 H 0.79552 0.21292 0.22188 0.0
H711 H 0.71529 0.28425 0.41827 0.0
H712 H 0.7831 0.27988 0.17868 0.0
H713 H 0.7065 0.21555 0.39468 0.0
H714 H 0.74329 0.28379 0.33989 0.0
H715 H 0.76698 0.21442 0.29867 0.0
C716 C 0.7871 0.22805 0.22941 0.0
C717 C 0.79168 0.24632 0.194 0.0
C718 C 0.73503 0.26888 0.35144 0.0
C719 C 0.75899 0.24806 0.28103 0.0
C720 C 0.719 0.26915 0.39582 0.0
C721 C 0.70849 0.24993 0.41266 0.0
C722 C 0.74096 0.24917 0.3249 0.0
C723 C 0.71404 0.23076 0.38258 0.0
C724 C 0.77065 0.2288 0.27259 0.0
C725 C 0.78006 0.26543 0.20505 0.0
N726 N 0.73014 0.23081 0.34072 0.0
N727 N 0.76426 0.26583 0.24771 0.0
H728 H 0.28203 0.20592 0.44801 0.0
H729 H 0.20262 0.2727 0.23798 0.0
H730 H 0.29083 0.27405 0.41305 0.0
H731 H 0.21818 0.20619 0.19828 0.0
H732 H 0.23001 0.27242 0.31779 0.0
H733 H 0.25469 0.20467 0.36793 0.0
C734 C 0.27844 0.22052 0.4228 0.0
C735 C 0.28877 0.24009 0.43679 0.0
C736 C 0.22725 0.25785 0.29188 0.0
C737 C 0.25707 0.23892 0.34727 0.0
C738 C 0.21144 0.2579 0.24699 0.0
C739 C 0.20814 0.23942 0.21161 0.0
C740 C 0.23951 0.23909 0.30212 0.0
C741 C 0.22025 0.22076 0.22461 0.0
C742 C 0.26281 0.2198 0.37747 0.0
C743 C 0.28342 0.25859 0.4032 0.0
N744 N 0.23541 0.22104 0.26897 0.0
N745 N 0.26768 0.25763 0.36054 0.0
H746 H 0.29906 0.72303 0.72251 0.0
H747 H 0.21759 0.79434 0.91444 0.0
H748 H 0.28643 0.78969 0.67622 0.0
H749 H 0.20918 0.72559 0.89089 0.0
H750 H 0.24587 0.79396 0.83676 0.0
H751 H 0.27017 0.72471 0.79809 0.0
C752 C 0.29052 0.73815 0.72911 0.0
C753 C 0.29515 0.75627 0.69314 0.0
C754 C 0.23762 0.77903 0.84816 0.0
C755 C 0.26202 0.7582 0.77886 0.0
C756 C 0.22143 0.77925 0.89213 0.0
C757 C 0.21096 0.75999 0.90883 0.0
C758 C 0.24375 0.75932 0.82194 0.0
C759 C 0.21668 0.74084 0.87892 0.0
C760 C 0.27386 0.739 0.77161 0.0
C761 C 0.28336 0.77536 0.70305 0.0
N762 N 0.23293 0.74093 0.83754 0.0
N763 N 0.26734 0.77585 0.7451 0.0
H764 H 0.45933 0.94576 0.11912 0.0
H765 H 0.52274 0.0331 0.92426 0.0
H766 H 0.52852 0.94356 0.09387 0.0
H767 H 0.45579 0.01767 0.88988 0.0
H768 H 0.5245 0.00283 -0.0044 0.0
H769 H 0.45699 0.97365 0.04075 0.0
C770 C 0.47397 0.95083 0.09618 0.0
C771 C 0.49415 0.94229 0.11289 0.0
C772 C 0.50942 0.00612 0.97248 0.0
C773 C 0.49165 0.97468 0.02485 0.0
C774 C 0.50833 0.02353 0.93234 0.0
C775 C 0.48906 0.02795 0.90125 0.0
C776 C 0.49103 0.99322 0.98231 0.0
C777 C 0.47096 0.01485 0.91295 0.0
C778 C 0.47263 0.96682 0.05175 0.0
C779 C 0.51262 0.94957 0.08205 0.0
N780 N 0.47235 -0.00187 0.95275 0.0
N781 N 0.51098 0.9656 0.04018 0.0
H782 H 0.05339 0.03548 0.65066 0.0
H783 H 0.97906 0.95644 0.46006 0.0
H784 H 0.98477 0.04582 0.62964 0.0
H785 H 0.04608 0.96696 0.41384 0.0
H786 H 0.98165 0.98536 0.53516 0.0
H787 H 0.05184 0.00746 0.57274 0.0
C788 C 0.03808 0.03213 0.62883 0.0
C789 C 0.0192 0.04306 0.64633 0.0
C790 C -0.0042 0.98121 0.50875 0.0
C791 C 0.0172 0.01056 0.55912 0.0
C792 C 0.99442 0.96455 0.46653 0.0
C793 C 0.0124 0.9593 0.4308 0.0
C794 C 0.01539 0.99243 0.51595 0.0
C795 C 0.03184 0.97052 0.44049 0.0
C796 C 0.0372 0.01608 0.58471 0.0
C797 C -0.00025 0.03794 0.61704 0.0
N798 N 0.03285 0.98654 0.48228 0.0
N799 N -0.00082 0.02182 0.57547 0.0
loop_
_geom_bond_atom_site_label_1
_geom_bond_atom_site_label_2
_geom_bond_distance
_geom_bond_site_symmetry_2
_ccdc_geom_bond_type
C0 O1 1.306 . S
C0 O3 1.160 . S
O1 C0 1.306 . S
O1 Cd2 2.228 . S
Cd2 O1 2.228 . S
Cd2 O6 2.273 . S
Cd2 O10 2.277 1_655 S
O3 C0 1.160 . S
O3 Cd4 2.203 1_655 S
Cd4 O3 2.203 1_455 S
Cd4 O6 2.411 1_455 S
Cd4 O7 2.333 . S
Cd4 O8 2.352 1_455 S
Cd4 O12 2.277 . S
Cd4 O13 2.356 . S
C5 O10 1.209 . S
C5 O12 1.226 . S
O6 Cd2 2.273 . S
O6 Cd4 2.411 1_655 S
O6 C9 1.320 1_655 S
O7 Cd4 2.333 . S
O7 C9 1.214 . S
O8 Cd4 2.352 1_655 S
O8 C11 1.258 1_655 S
C9 O6 1.320 1_455 S
C9 O7 1.214 . S
O10 Cd2 2.277 1_455 S
O10 C5 1.209 . S
C11 O8 1.258 1_455 S
C11 O13 1.282 . S
O12 Cd4 2.277 . S
O12 C5 1.226 . S
O13 Cd4 2.356 . S
O13 C11 1.282 . S
C14 O15 1.306 . S
C14 O17 1.160 . S
O15 C14 1.306 . S
O15 Cd16 2.228 . S
Cd16 O15 2.228 . S
Cd16 O20 2.273 . S
Cd16 O24 2.277 . S
O17 C14 1.160 . S
O17 Cd18 2.203 . S
Cd18 O17 2.203 . S
Cd18 O20 2.411 . S
Cd18 O21 2.333 . S
Cd18 O22 2.352 . S
Cd18 O26 2.277 . S
Cd18 O27 2.356 . S
C19 O24 1.209 . S
C19 O26 1.226 . S
O20 Cd16 2.273 . S
O20 Cd18 2.411 . S
O20 C23 1.320 . S
O21 Cd18 2.333 . S
O21 C23 1.214 . S
O22 Cd18 2.352 . S
O22 C25 1.258 . S
C23 O20 1.320 . S
C23 O21 1.214 . S
O24 Cd16 2.277 . S
O24 C19 1.209 . S
C25 O22 1.258 . S
C25 O27 1.282 . S
O26 Cd18 2.277 . S
O26 C19 1.226 . S
O27 Cd18 2.356 . S
O27 C25 1.282 . S
C28 O29 1.306 . S
C28 O31 1.160 . S
O29 C28 1.306 . S
O29 Cd30 2.228 . S
Cd30 O29 2.228 . S
Cd30 O34 2.273 . S
Cd30 O38 2.277 . S
O31 C28 1.160 . S
O31 Cd32 2.203 . S
Cd32 O31 2.203 . S
Cd32 O34 2.411 . S
Cd32 O35 2.333 . S
Cd32 O36 2.352 . S
Cd32 O40 2.277 . S
Cd32 O41 2.356 . S
C33 O38 1.209 . S
C33 O40 1.226 . S
O34 Cd30 2.273 . S
O34 Cd32 2.411 . S
O34 C37 1.320 . S
O35 Cd32 2.333 . S
O35 C37 1.214 . S
O36 Cd32 2.352 . S
O36 C39 1.258 . S
C37 O34 1.320 . S
C37 O35 1.214 . S
O38 Cd30 2.277 . S
O38 C33 1.209 . S
C39 O36 1.258 . S
C39 O41 1.282 . S
O40 Cd32 2.277 . S
O40 C33 1.226 . S
O41 Cd32 2.356 . S
O41 C39 1.282 . S
C42 O43 1.306 1_554 S
C42 O45 1.160 . S
O43 C42 1.306 1_556 S
O43 Cd44 2.228 . S
Cd44 O43 2.228 . S
Cd44 O48 2.273 . S
Cd44 O52 2.277 . S
O45 C42 1.160 . S
O45 Cd46 2.203 . S
Cd46 O45 2.203 . S
Cd46 O48 2.411 1_554 S
Cd46 O49 2.333 1_554 S
Cd46 O50 2.352 . S
Cd46 O54 2.277 . S
Cd46 O55 2.356 . S
C47 O52 1.209 . S
C47 O54 1.226 1_556 S
O48 Cd44 2.273 . S
O48 Cd46 2.411 1_556 S
O48 C51 1.320 . S
O49 Cd46 2.333 1_556 S
O49 C51 1.214 . S
O50 Cd46 2.352 . S
O50 C53 1.258 . S
C51 O48 1.320 . S
C51 O49 1.214 . S
O52 Cd44 2.277 . S
O52 C47 1.209 . S
C53 O50 1.258 . S
C53 O55 1.282 . S
O54 Cd46 2.277 . S
O54 C47 1.226 1_554 S
O55 Cd46 2.356 . S
O55 C53 1.282 . S
C56 O57 1.306 . S
C56 O59 1.160 . S
O57 C56 1.306 . S
O57 Cd58 2.228 . S
Cd58 O57 2.228 . S
Cd58 O62 2.273 . S
Cd58 O66 2.277 1_655 S
O59 C56 1.160 . S
O59 Cd60 2.203 1_655 S
Cd60 O59 2.203 1_455 S
Cd60 O62 2.411 1_455 S
Cd60 O63 2.333 . S
Cd60 O64 2.352 1_455 S
Cd60 O68 2.277 . S
Cd60 O69 2.356 . S
C61 O66 1.209 . S
C61 O68 1.226 . S
O62 Cd58 2.273 . S
O62 Cd60 2.411 1_655 S
O62 C65 1.320 1_655 S
O63 Cd60 2.333 . S
O63 C65 1.214 . S
O64 Cd60 2.352 1_655 S
O64 C67 1.258 1_655 S
C65 O62 1.320 1_455 S
C65 O63 1.214 . S
O66 Cd58 2.277 1_455 S
O66 C61 1.209 . S
C67 O64 1.258 1_455 S
C67 O69 1.282 . S
O68 Cd60 2.277 . S
O68 C61 1.226 . S
O69 Cd60 2.356 . S
O69 C67 1.282 . S
C70 O71 1.306 . S
C70 O73 1.160 . S
O71 C70 1.306 . S
O71 Cd72 2.228 . S
Cd72 O71 2.228 . S
Cd72 O76 2.273 . S
Cd72 O80 2.277 . S
O73 C70 1.160 . S
O73 Cd74 2.203 . S
Cd74 O73 2.203 . S
Cd74 O76 2.411 . S
Cd74 O77 2.333 . S
Cd74 O78 2.352 . S
Cd74 O82 2.277 . S
Cd74 O83 2.356 1_554 S
C75 O80 1.209 . S
C75 O82 1.226 . S
O76 Cd72 2.273 . S
O76 Cd74 2.411 . S
O76 C79 1.320 . S
O77 Cd74 2.333 . S
O77 C79 1.214 . S
O78 Cd74 2.352 . S
O78 C81 1.258 1_554 S
C79 O76 1.320 . S
C79 O77 1.214 . S
O80 Cd72 2.277 . S
O80 C75 1.209 . S
C81 O78 1.258 1_556 S
C81 O83 1.282 . S
O82 Cd74 2.277 . S
O82 C75 1.226 . S
O83 Cd74 2.356 1_556 S
O83 C81 1.282 . S
C84 O85 1.306 . S
C84 O87 1.160 . S
O85 C84 1.306 . S
O85 Cd86 2.228 . S
Cd86 O85 2.228 . S
Cd86 O90 2.273 . S
Cd86 O94 2.277 . S
O87 C84 1.160 . S
O87 Cd88 2.203 . S
Cd88 O87 2.203 . S
Cd88 O90 2.411 . S
Cd88 O91 2.333 . S
Cd88 O92 2.352 . S
Cd88 O96 2.277 . S
Cd88 O97 2.356 . S
C89 O94 1.209 . S
C89 O96 1.226 . S
O90 Cd86 2.273 . S
O90 Cd88 2.411 . S
O90 C93 1.320 . S
O91 Cd88 2.333 . S
O91 C93 1.214 . S
O92 Cd88 2.352 . S
O92 C95 1.258 . S
C93 O90 1.320 . S
C93 O91 1.214 . S
O94 Cd86 2.277 . S
O94 C89 1.209 . S
C95 O92 1.258 . S
C95 O97 1.282 . S
O96 Cd88 2.277 . S
O96 C89 1.226 . S
O97 Cd88 2.356 . S
O97 C95 1.282 . S
C98 O99 1.306 . S
C98 O101 1.160 . S
O99 C98 1.306 . S
O99 Cd100 2.228 . S
Cd100 O99 2.228 . S
Cd100 O104 2.273 . S
Cd100 O108 2.277 . S
O101 C98 1.160 . S
O101 Cd102 2.203 . S
Cd102 O101 2.203 . S
Cd102 O104 2.411 . S
Cd102 O105 2.333 . S
Cd102 O106 2.352 . S
Cd102 O110 2.277 . S
Cd102 O111 2.356 . S
C103 O108 1.209 . S
C103 O110 1.226 . S
O104 Cd100 2.273 . S
O104 Cd102 2.411 . S
O104 C107 1.320 . S
O105 Cd102 2.333 . S
O105 C107 1.214 . S
O106 Cd102 2.352 . S
O106 C109 1.258 . S
C107 O104 1.320 . S
C107 O105 1.214 . S
O108 Cd100 2.277 . S
O108 C103 1.209 . S
C109 O106 1.258 . S
C109 O111 1.282 . S
O110 Cd102 2.277 . S
O110 C103 1.226 . S
O111 Cd102 2.356 . S
O111 C109 1.282 . S
C112 O113 1.306 . S
C112 O115 1.160 . S
O113 C112 1.306 . S
O113 Cd114 2.228 . S
Cd114 O113 2.228 . S
Cd114 O118 2.273 . S
Cd114 O122 2.277 . S
O115 C112 1.160 . S
O115 Cd116 2.203 . S
Cd116 O115 2.203 . S
Cd116 O118 2.411 . S
Cd116 O119 2.333 . S
Cd116 O120 2.352 . S
Cd116 O124 2.277 . S
Cd116 O125 2.356 . S
C117 O122 1.209 . S
C117 O124 1.226 . S
O118 Cd114 2.273 . S
O118 Cd116 2.411 . S
O118 C121 1.320 . S
O119 Cd116 2.333 . S
O119 C121 1.214 . S
O120 Cd116 2.352 . S
O120 C123 1.258 . S
C121 O118 1.320 . S
C121 O119 1.214 . S
O122 Cd114 2.277 . S
O122 C117 1.209 . S
C123 O120 1.258 . S
C123 O125 1.282 . S
O124 Cd116 2.277 . S
O124 C117 1.226 . S
O125 Cd116 2.356 . S
O125 C123 1.282 . S
C126 O127 1.306 . S
C126 O129 1.160 . S
O127 C126 1.306 . S
O127 Cd128 2.228 . S
Cd128 O127 2.228 . S
Cd128 O132 2.273 . S
Cd128 O136 2.277 . S
O129 C126 1.160 . S
O129 Cd130 2.203 . S
Cd130 O129 2.203 . S
Cd130 O132 2.411 . S
Cd130 O133 2.333 . S
Cd130 O134 2.352 . S
Cd130 O138 2.277 . S
Cd130 O139 2.356 1_554 S
C131 O136 1.209 . S
C131 O138 1.226 . S
O132 Cd128 2.273 . S
O132 Cd130 2.411 . S
O132 C135 1.320 . S
O133 Cd130 2.333 . S
O133 C135 1.214 . S
O134 Cd130 2.352 . S
O134 C137 1.258 1_554 S
C135 O132 1.320 . S
C135 O133 1.214 . S
O136 Cd128 2.277 . S
O136 C131 1.209 . S
C137 O134 1.258 1_556 S
C137 O139 1.282 . S
O138 Cd130 2.277 . S
O138 C131 1.226 . S
O139 Cd130 2.356 1_556 S
O139 C137 1.282 . S
C140 O141 1.306 1_554 S
C140 O143 1.160 . S
O141 C140 1.306 1_556 S
O141 Cd142 2.228 . S
Cd142 O141 2.228 . S
Cd142 O146 2.273 . S
Cd142 O150 2.277 . S
O143 C140 1.160 . S
O143 Cd144 2.203 . S
Cd144 O143 2.203 . S
Cd144 O146 2.411 1_554 S
Cd144 O147 2.333 1_554 S
Cd144 O148 2.352 . S
Cd144 O152 2.277 . S
Cd144 O153 2.356 . S
C145 O150 1.209 . S
C145 O152 1.226 1_556 S
O146 Cd142 2.273 . S
O146 Cd144 2.411 1_556 S
O146 C149 1.320 . S
O147 Cd144 2.333 1_556 S
O147 C149 1.214 . S
O148 Cd144 2.352 . S
O148 C151 1.258 . S
C149 O146 1.320 . S
C149 O147 1.214 . S
O150 Cd142 2.277 . S
O150 C145 1.209 . S
C151 O148 1.258 . S
C151 O153 1.282 . S
O152 Cd144 2.277 . S
O152 C145 1.226 1_554 S
O153 Cd144 2.356 . S
O153 C151 1.282 . S
C154 O155 1.306 . S
C154 O157 1.160 . S
O155 C154 1.306 . S
O155 Cd156 2.228 . S
Cd156 O155 2.228 . S
Cd156 O160 2.273 . S
Cd156 O164 2.277 . S
O157 C154 1.160 . S
O157 Cd158 2.203 . S
Cd158 O157 2.203 . S
Cd158 O160 2.411 . S
Cd158 O161 2.333 . S
Cd158 O162 2.352 . S
Cd158 O166 2.277 . S
Cd158 O167 2.356 . S
C159 O164 1.209 . S
C159 O166 1.226 . S
O160 Cd156 2.273 . S
O160 Cd158 2.411 . S
O160 C163 1.320 . S
O161 Cd158 2.333 . S
O161 C163 1.214 . S
O162 Cd158 2.352 . S
O162 C165 1.258 . S
C163 O160 1.320 . S
C163 O161 1.214 . S
O164 Cd156 2.277 . S
O164 C159 1.209 . S
C165 O162 1.258 . S
C165 O167 1.282 . S
O166 Cd158 2.277 . S
O166 C159 1.226 . S
O167 Cd158 2.356 . S
O167 C165 1.282 . S
C168 O169 1.306 . S
C168 O171 1.160 . S
O169 C168 1.306 . S
O169 Cd170 2.228 . S
Cd170 O169 2.228 . S
Cd170 O174 2.273 . S
Cd170 O178 2.277 . S
O171 C168 1.160 . S
O171 Cd172 2.203 . S
Cd172 O171 2.203 . S
Cd172 O174 2.411 . S
Cd172 O175 2.333 . S
Cd172 O176 2.352 . S
Cd172 O180 2.277 . S
Cd172 O181 2.356 . S
C173 O178 1.209 . S
C173 O180 1.226 . S
O174 Cd170 2.273 . S
O174 Cd172 2.411 . S
O174 C177 1.320 . S
O175 Cd172 2.333 . S
O175 C177 1.214 . S
O176 Cd172 2.352 . S
O176 C179 1.258 . S
C177 O174 1.320 . S
C177 O175 1.214 . S
O178 Cd170 2.277 . S
O178 C173 1.209 . S
C179 O176 1.258 . S
C179 O181 1.282 . S
O180 Cd172 2.277 . S
O180 C173 1.226 . S
O181 Cd172 2.356 . S
O181 C179 1.282 . S
C182 O183 1.306 . S
C182 O185 1.160 . S
O183 C182 1.306 . S
O183 Cd184 2.228 . S
Cd184 O183 2.228 . S
Cd184 O188 2.273 . S
Cd184 O192 2.277 1_455 S
O185 C182 1.160 . S
O185 Cd186 2.203 . S
Cd186 O185 2.203 . S
Cd186 O188 2.411 . S
Cd186 O189 2.333 1_455 S
Cd186 O190 2.352 . S
Cd186 O194 2.277 1_455 S
Cd186 O195 2.356 1_455 S
C187 O192 1.209 . S
C187 O194 1.226 . S
O188 Cd184 2.273 . S
O188 Cd186 2.411 . S
O188 C191 1.320 . S
O189 Cd186 2.333 1_655 S
O189 C191 1.214 1_655 S
O190 Cd186 2.352 . S
O190 C193 1.258 . S
C191 O188 1.320 . S
C191 O189 1.214 1_455 S
O192 Cd184 2.277 1_655 S
O192 C187 1.209 . S
C193 O190 1.258 . S
C193 O195 1.282 1_455 S
O194 Cd186 2.277 1_655 S
O194 C187 1.226 . S
O195 Cd186 2.356 1_655 S
O195 C193 1.282 1_655 S
C196 O197 1.306 . S
C196 O199 1.160 . S
O197 C196 1.306 . S
O197 Cd198 2.228 . S
Cd198 O197 2.228 . S
Cd198 O202 2.273 . S
Cd198 O206 2.277 . S
O199 C196 1.160 . S
O199 Cd200 2.203 . S
Cd200 O199 2.203 . S
Cd200 O202 2.411 . S
Cd200 O203 2.333 . S
Cd200 O204 2.352 . S
Cd200 O208 2.277 . S
Cd200 O209 2.356 . S
C201 O206 1.209 . S
C201 O208 1.226 . S
O202 Cd198 2.273 . S
O202 Cd200 2.411 . S
O202 C205 1.320 . S
O203 Cd200 2.333 . S
O203 C205 1.214 . S
O204 Cd200 2.352 . S
O204 C207 1.258 . S
C205 O202 1.320 . S
C205 O203 1.214 . S
O206 Cd198 2.277 . S
O206 C201 1.209 . S
C207 O204 1.258 . S
C207 O209 1.282 . S
O208 Cd200 2.277 . S
O208 C201 1.226 . S
O209 Cd200 2.356 . S
O209 C207 1.282 . S
C210 O211 1.306 . S
C210 O213 1.160 . S
O211 C210 1.306 . S
O211 Cd212 2.228 . S
Cd212 O211 2.228 . S
Cd212 O216 2.273 . S
Cd212 O220 2.277 1_455 S
O213 C210 1.160 . S
O213 Cd214 2.203 . S
Cd214 O213 2.203 . S
Cd214 O216 2.411 . S
Cd214 O217 2.333 1_455 S
Cd214 O218 2.352 . S
Cd214 O222 2.277 1_455 S
Cd214 O223 2.356 1_455 S
C215 O220 1.209 . S
C215 O222 1.226 . S
O216 Cd212 2.273 . S
O216 Cd214 2.411 . S
O216 C219 1.320 . S
O217 Cd214 2.333 1_655 S
O217 C219 1.214 1_655 S
O218 Cd214 2.352 . S
O218 C221 1.258 . S
C219 O216 1.320 . S
C219 O217 1.214 1_455 S
O220 Cd212 2.277 1_655 S
O220 C215 1.209 . S
C221 O218 1.258 . S
C221 O223 1.282 1_455 S
O222 Cd214 2.277 1_655 S
O222 C215 1.226 . S
O223 Cd214 2.356 1_655 S
O223 C221 1.282 1_655 S
H224 C230 0.930 . S
H225 C234 0.930 . S
H226 C239 0.929 . S
H227 C237 0.929 . S
H228 C232 0.929 . S
H229 C238 0.929 . S
C230 H224 0.930 . S
C230 C231 1.367 . S
C230 C238 1.378 . S
C231 C230 1.367 . S
C231 C239 1.433 . S
C232 H228 0.929 . S
C232 C234 1.378 . S
C232 C236 1.350 . S
C233 C236 1.463 . S
C233 C238 1.350 . S
C233 N241 1.427 . S
C234 H225 0.930 . S
C234 C232 1.378 . S
C234 C235 1.367 . S
C235 C234 1.367 . S
C235 C237 1.433 . S
C236 C232 1.350 . S
C236 C233 1.463 . S
C236 N240 1.427 . S
C237 H227 0.929 . S
C237 C235 1.433 . S
C237 N240 1.384 . S
C238 H229 0.929 . S
C238 C230 1.378 . S
C238 C233 1.350 . S
C239 H226 0.929 . S
C239 C231 1.433 . S
C239 N241 1.384 . S
N240 C236 1.427 . S
N240 C237 1.384 . S
N241 C233 1.427 . S
N241 C239 1.384 . S
H242 C248 0.930 . S
H243 C252 0.930 . S
H244 C257 0.929 . S
H245 C255 0.929 . S
H246 C250 0.929 . S
H247 C256 0.929 . S
C248 H242 0.930 . S
C248 C249 1.367 . S
C248 C256 1.378 . S
C249 C248 1.367 . S
C249 C257 1.433 . S
C250 H246 0.929 . S
C250 C252 1.378 . S
C250 C254 1.350 . S
C251 C254 1.463 . S
C251 C256 1.350 . S
C251 N259 1.427 . S
C252 H243 0.930 . S
C252 C250 1.378 . S
C252 C253 1.367 . S
C253 C252 1.367 . S
C253 C255 1.433 . S
C254 C250 1.350 . S
C254 C251 1.463 . S
C254 N258 1.427 . S
C255 H245 0.929 . S
C255 C253 1.433 . S
C255 N258 1.384 . S
C256 H247 0.929 . S
C256 C248 1.378 . S
C256 C251 1.350 . S
C257 H244 0.929 . S
C257 C249 1.433 . S
C257 N259 1.384 . S
N258 C254 1.427 . S
N258 C255 1.384 . S
N259 C251 1.427 . S
N259 C257 1.384 . S
H260 C266 0.930 . S
H261 C270 0.930 . S
H262 C275 0.929 . S
H263 C273 0.929 . S
H264 C268 0.929 . S
H265 C274 0.929 . S
C266 H260 0.930 . S
C266 C267 1.367 . S
C266 C274 1.378 . S
C267 C266 1.367 . S
C267 C275 1.433 . S
C268 H264 0.929 . S
C268 C270 1.378 . S
C268 C272 1.350 . S
C269 C272 1.463 . S
C269 C274 1.350 . S
C269 N277 1.427 . S
C270 H261 0.930 . S
C270 C268 1.378 . S
C270 C271 1.367 . S
C271 C270 1.367 . S
C271 C273 1.433 . S
C272 C268 1.350 . S
C272 C269 1.463 . S
C272 N276 1.427 . S
C273 H263 0.929 . S
C273 C271 1.433 . S
C273 N276 1.384 . S
C274 H265 0.929 . S
C274 C266 1.378 . S
C274 C269 1.350 . S
C275 H262 0.929 . S
C275 C267 1.433 . S
C275 N277 1.384 . S
N276 C272 1.427 . S
N276 C273 1.384 . S
N277 C269 1.427 . S
N277 C275 1.384 . S
H278 C284 0.930 . S
H279 C288 0.930 . S
H280 C293 0.929 . S
H281 C291 0.929 . S
H282 C286 0.929 1_554 S
H283 C292 0.929 . S
C284 H278 0.930 . S
C284 C285 1.367 . S
C284 C292 1.378 . S
C285 C284 1.367 . S
C285 C293 1.433 1_556 S
C286 H282 0.929 1_556 S
C286 C288 1.378 . S
C286 C290 1.350 . S
C287 C290 1.463 . S
C287 C292 1.350 . S
C287 N295 1.427 . S
C288 H279 0.930 . S
C288 C286 1.378 . S
C288 C289 1.367 . S
C289 C288 1.367 . S
C289 C291 1.433 . S
C290 C286 1.350 . S
C290 C287 1.463 . S
C290 N294 1.427 . S
C291 H281 0.929 . S
C291 C289 1.433 . S
C291 N294 1.384 . S
C292 H283 0.929 . S
C292 C284 1.378 . S
C292 C287 1.350 . S
C293 H280 0.929 . S
C293 C285 1.433 1_554 S
C293 N295 1.384 1_554 S
N294 C290 1.427 . S
N294 C291 1.384 . S
N295 C287 1.427 . S
N295 C293 1.384 1_556 S
H296 C302 0.917 1_554 S
H297 C306 0.930 . S
H298 C311 0.929 . S
H299 C309 0.929 . S
H300 C304 0.929 . S
H301 C310 0.929 1_554 S
C302 H296 0.917 1_556 S
C302 C303 1.367 . S
C302 C310 1.378 . S
C303 C302 1.367 . S
C303 C311 1.433 . S
C304 H300 0.929 . S
C304 C306 1.378 . S
C304 C308 1.350 . S
C305 C308 1.463 . S
C305 C310 1.350 . S
C305 N313 1.427 . S
C306 H297 0.930 . S
C306 C304 1.378 . S
C306 C307 1.367 . S
C307 C306 1.367 . S
C307 C309 1.433 1_556 S
C308 C304 1.350 . S
C308 C305 1.463 . S
C308 N312 1.427 1_556 S
C309 H299 0.929 . S
C309 C307 1.433 1_554 S
C309 N312 1.384 . S
C310 H301 0.929 1_556 S
C310 C302 1.378 . S
C310 C305 1.350 . S
C311 H298 0.929 . S
C311 C303 1.433 . S
C311 N313 1.384 . S
N312 C308 1.427 1_554 S
N312 C309 1.384 . S
N313 C305 1.427 . S
N313 C311 1.384 . S
H314 C320 0.930 . S
H315 C324 0.930 . S
H316 C329 0.929 . S
H317 C327 0.929 . S
H318 C322 0.929 . S
H319 C328 0.929 . S
C320 H314 0.930 . S
C320 C321 1.367 . S
C320 C328 1.378 . S
C321 C320 1.367 . S
C321 C329 1.433 . S
C322 H318 0.929 . S
C322 C324 1.378 . S
C322 C326 1.350 . S
C323 C326 1.463 . S
C323 C328 1.350 . S
C323 N331 1.427 . S
C324 H315 0.930 . S
C324 C322 1.378 . S
C324 C325 1.367 . S
C325 C324 1.367 . S
C325 C327 1.433 . S
C326 C322 1.350 . S
C326 C323 1.463 . S
C326 N330 1.427 . S
C327 H317 0.929 . S
C327 C325 1.433 . S
C327 N330 1.384 . S
C328 H319 0.929 . S
C328 C320 1.378 . S
C328 C323 1.350 . S
C329 H316 0.929 . S
C329 C321 1.433 . S
C329 N331 1.384 . S
N330 C326 1.427 . S
N330 C327 1.384 . S
N331 C323 1.427 . S
N331 C329 1.384 . S
H332 C338 0.930 . S
H333 C342 0.930 . S
H334 C347 0.929 . S
H335 C345 0.929 . S
H336 C340 0.929 . S
H337 C346 0.929 . S
C338 H332 0.930 . S
C338 C339 1.367 . S
C338 C346 1.378 . S
C339 C338 1.367 . S
C339 C347 1.433 . S
C340 H336 0.929 . S
C340 C342 1.378 . S
C340 C344 1.350 . S
C341 C344 1.463 . S
C341 C346 1.350 . S
C341 N349 1.427 . S
C342 H333 0.930 . S
C342 C340 1.378 . S
C342 C343 1.367 . S
C343 C342 1.367 . S
C343 C345 1.433 . S
C344 C340 1.350 . S
C344 C341 1.463 . S
C344 N348 1.427 . S
C345 H335 0.929 . S
C345 C343 1.433 . S
C345 N348 1.384 . S
C346 H337 0.929 . S
C346 C338 1.378 . S
C346 C341 1.350 . S
C347 H334 0.929 . S
C347 C339 1.433 . S
C347 N349 1.384 . S
N348 C344 1.427 . S
N348 C345 1.384 . S
N349 C341 1.427 . S
N349 C347 1.384 . S
H350 C356 0.930 . S
H351 C360 0.930 . S
H352 C365 0.929 . S
H353 C363 0.929 . S
H354 C358 0.929 . S
H355 C364 0.929 . S
C356 H350 0.930 . S
C356 C357 1.367 . S
C356 C364 1.378 . S
C357 C356 1.367 . S
C357 C365 1.433 . S
C358 H354 0.929 . S
C358 C360 1.378 . S
C358 C362 1.350 . S
C359 C362 1.463 . S
C359 C364 1.350 . S
C359 N367 1.427 . S
C360 H351 0.930 . S
C360 C358 1.378 . S
C360 C361 1.367 . S
C361 C360 1.367 . S
C361 C363 1.433 . S
C362 C358 1.350 . S
C362 C359 1.463 . S
C362 N366 1.427 . S
C363 H353 0.929 . S
C363 C361 1.433 . S
C363 N366 1.384 . S
C364 H355 0.929 . S
C364 C356 1.378 . S
C364 C359 1.350 . S
C365 H352 0.929 . S
C365 C357 1.433 . S
C365 N367 1.384 . S
N366 C362 1.427 . S
N366 C363 1.384 . S
N367 C359 1.427 . S
N367 C365 1.384 . S
H368 C374 0.930 . S
H369 C378 0.930 . S
H370 C383 0.929 . S
H371 C381 0.929 . S
H372 C376 0.932 . S
H373 C382 0.929 . S
C374 H368 0.930 . S
C374 C375 1.367 . S
C374 C382 1.378 . S
C375 C374 1.367 . S
C375 C383 1.433 . S
C376 H372 0.932 . S
C376 C378 1.382 . S
C376 C380 1.342 1_554 S
C377 C380 1.463 . S
C377 C382 1.350 . S
C377 N385 1.427 . S
C378 H369 0.930 . S
C378 C376 1.382 . S
C378 C379 1.358 1_554 S
C379 C378 1.358 1_556 S
C379 C381 1.449 . S
C380 C376 1.342 1_556 S
C380 C377 1.463 . S
C380 N384 1.427 . S
C381 H371 0.929 . S
C381 C379 1.449 . S
C381 N384 1.384 . S
C382 H373 0.929 . S
C382 C374 1.378 . S
C382 C377 1.350 . S
C383 H370 0.929 . S
C383 C375 1.433 . S
C383 N385 1.384 . S
N384 C380 1.427 . S
N384 C381 1.384 . S
N385 C377 1.427 . S
N385 C383 1.384 . S
H386 C392 0.930 . S
H387 C396 0.930 . S
H388 C401 0.929 . S
H389 C399 0.929 . S
H390 C394 0.929 . S
H391 C400 0.929 . S
C392 H386 0.930 . S
C392 C393 1.367 . S
C392 C400 1.378 . S
C393 C392 1.367 . S
C393 C401 1.433 . S
C394 H390 0.929 . S
C394 C396 1.378 . S
C394 C398 1.350 . S
C395 C398 1.463 . S
C395 C400 1.350 . S
C395 N403 1.427 . S
C396 H387 0.930 . S
C396 C394 1.378 . S
C396 C397 1.367 . S
C397 C396 1.367 . S
C397 C399 1.433 . S
C398 C394 1.350 . S
C398 C395 1.463 . S
C398 N402 1.427 . S
C399 H389 0.929 . S
C399 C397 1.433 . S
C399 N402 1.384 . S
C400 H391 0.929 . S
C400 C392 1.378 . S
C400 C395 1.350 . S
C401 H388 0.929 . S
C401 C393 1.433 . S
C401 N403 1.384 . S
N402 C398 1.427 . S
N402 C399 1.384 . S
N403 C395 1.427 . S
N403 C401 1.384 . S
H404 C410 0.930 . S
H405 C414 0.930 . S
H406 C419 0.929 . S
H407 C417 0.929 . S
H408 C412 0.929 . S
H409 C418 0.929 . S
C410 H404 0.930 . S
C410 C411 1.367 . S
C410 C418 1.378 . S
C411 C410 1.367 . S
C411 C419 1.433 . S
C412 H408 0.929 . S
C412 C414 1.378 . S
C412 C416 1.350 . S
C413 C416 1.463 . S
C413 C418 1.350 . S
C413 N421 1.427 . S
C414 H405 0.930 . S
C414 C412 1.378 . S
C414 C415 1.367 . S
C415 C414 1.367 . S
C415 C417 1.433 . S
C416 C412 1.350 . S
C416 C413 1.463 . S
C416 N420 1.427 . S
C417 H407 0.929 . S
C417 C415 1.433 . S
C417 N420 1.384 . S
C418 H409 0.929 . S
C418 C410 1.378 . S
C418 C413 1.350 . S
C419 H406 0.929 . S
C419 C411 1.433 . S
C419 N421 1.384 . S
N420 C416 1.427 . S
N420 C417 1.384 . S
N421 C413 1.427 . S
N421 C419 1.384 . S
H422 C428 0.930 . S
H423 C432 0.930 . S
H424 C437 0.929 . S
H425 C435 0.929 . S
H426 C430 0.929 . S
H427 C436 0.929 . S
C428 H422 0.930 . S
C428 C429 1.367 . S
C428 C436 1.378 . S
C429 C428 1.367 . S
C429 C437 1.433 . S
C430 H426 0.929 . S
C430 C432 1.378 . S
C430 C434 1.350 . S
C431 C434 1.463 . S
C431 C436 1.350 . S
C431 N439 1.427 . S
C432 H423 0.930 . S
C432 C430 1.378 . S
C432 C433 1.367 . S
C433 C432 1.367 . S
C433 C435 1.433 . S
C434 C430 1.350 . S
C434 C431 1.463 . S
C434 N438 1.427 . S
C435 H425 0.929 . S
C435 C433 1.433 . S
C435 N438 1.384 . S
C436 H427 0.929 . S
C436 C428 1.378 . S
C436 C431 1.350 . S
C437 H424 0.929 . S
C437 C429 1.433 . S
C437 N439 1.384 . S
N438 C434 1.427 . S
N438 C435 1.384 . S
N439 C431 1.427 . S
N439 C437 1.384 . S
H440 C446 0.930 . S
H441 C450 0.930 . S
H442 C455 0.929 . S
H443 C453 0.929 . S
H444 C448 0.929 . S
H445 C454 0.929 . S
C446 H440 0.930 . S
C446 C447 1.367 . S
C446 C454 1.378 . S
C447 C446 1.367 . S
C447 C455 1.433 . S
C448 H444 0.929 . S
C448 C450 1.378 . S
C448 C452 1.350 . S
C449 C452 1.463 . S
C449 C454 1.350 . S
C449 N457 1.427 . S
C450 H441 0.930 . S
C450 C448 1.378 . S
C450 C451 1.367 . S
C451 C450 1.367 . S
C451 C453 1.433 . S
C452 C448 1.350 . S
C452 C449 1.463 . S
C452 N456 1.427 . S
C453 H443 0.929 . S
C453 C451 1.433 . S
C453 N456 1.384 . S
C454 H445 0.929 . S
C454 C446 1.378 . S
C454 C449 1.350 . S
C455 H442 0.929 . S
C455 C447 1.433 . S
C455 N457 1.384 . S
N456 C452 1.427 . S
N456 C453 1.384 . S
N457 C449 1.427 . S
N457 C455 1.384 . S
H458 C464 0.930 . S
H459 C468 0.930 . S
H460 C473 0.929 . S
H461 C471 0.929 . S
H462 C466 0.929 . S
H463 C472 0.914 1_554 S
C464 H458 0.930 . S
C464 C465 1.367 . S
C464 C472 1.378 . S
C465 C464 1.367 . S
C465 C473 1.433 . S
C466 H462 0.929 . S
C466 C468 1.378 . S
C466 C470 1.350 . S
C467 C470 1.463 . S
C467 C472 1.350 . S
C467 N475 1.427 . S
C468 H459 0.930 . S
C468 C466 1.378 . S
C468 C469 1.367 . S
C469 C468 1.367 . S
C469 C471 1.433 1_556 S
C470 C466 1.350 . S
C470 C467 1.463 . S
C470 N474 1.427 1_556 S
C471 H461 0.929 . S
C471 C469 1.433 1_554 S
C471 N474 1.384 . S
C472 H463 0.914 1_556 S
C472 C464 1.378 . S
C472 C467 1.350 . S
C473 H460 0.929 . S
C473 C465 1.433 . S
C473 N475 1.384 . S
N474 C470 1.427 1_554 S
N474 C471 1.384 . S
N475 C467 1.427 . S
N475 C473 1.384 . S
H476 C482 0.930 . S
H477 C486 0.930 . S
H478 C491 0.929 . S
H479 C489 0.929 . S
H480 C484 0.929 . S
H481 C490 0.929 . S
C482 H476 0.930 . S
C482 C483 1.367 . S
C482 C490 1.378 . S
C483 C482 1.367 . S
C483 C491 1.433 . S
C484 H480 0.929 . S
C484 C486 1.378 . S
C484 C488 1.350 . S
C485 C488 1.463 . S
C485 C490 1.350 . S
C485 N493 1.427 . S
C486 H477 0.930 . S
C486 C484 1.378 . S
C486 C487 1.367 . S
C487 C486 1.367 . S
C487 C489 1.433 . S
C488 C484 1.350 . S
C488 C485 1.463 . S
C488 N492 1.427 . S
C489 H479 0.929 . S
C489 C487 1.433 . S
C489 N492 1.384 . S
C490 H481 0.929 . S
C490 C482 1.378 . S
C490 C485 1.350 . S
C491 H478 0.929 . S
C491 C483 1.433 . S
C491 N493 1.384 . S
N492 C488 1.427 . S
N492 C489 1.384 . S
N493 C485 1.427 . S
N493 C491 1.384 . S
H494 C500 0.930 . S
H495 C504 0.930 . S
H496 C509 0.929 . S
H497 C507 0.929 . S
H498 C502 0.929 . S
H499 C508 0.929 . S
C500 H494 0.930 . S
C500 C501 1.367 . S
C500 C508 1.378 . S
C501 C500 1.367 . S
C501 C509 1.433 . S
C502 H498 0.929 . S
C502 C504 1.378 . S
C502 C506 1.350 . S
C503 C506 1.463 . S
C503 C508 1.350 . S
C503 N511 1.427 . S
C504 H495 0.930 . S
C504 C502 1.378 . S
C504 C505 1.367 . S
C505 C504 1.367 . S
C505 C507 1.433 . S
C506 C502 1.350 . S
C506 C503 1.463 . S
C506 N510 1.427 . S
C507 H497 0.929 . S
C507 C505 1.433 . S
C507 N510 1.384 . S
C508 H499 0.929 . S
C508 C500 1.378 . S
C508 C503 1.350 . S
C509 H496 0.929 . S
C509 C501 1.433 . S
C509 N511 1.384 . S
N510 C506 1.427 . S
N510 C507 1.384 . S
N511 C503 1.427 . S
N511 C509 1.384 . S
H512 C518 0.930 1_655 S
H513 C522 0.930 . S
H514 C527 0.929 . S
H515 C525 0.929 1_655 S
H516 C520 0.929 . S
H517 C526 0.929 1_655 S
C518 H512 0.930 1_455 S
C518 C519 1.367 . S
C518 C526 1.378 . S
C519 C518 1.367 . S
C519 C527 1.433 . S
C520 H516 0.929 . S
C520 C522 1.378 . S
C520 C524 1.350 1_556 S
C521 C524 1.463 . S
C521 C526 1.350 . S
C521 N529 1.427 . S
C522 H513 0.930 . S
C522 C520 1.378 . S
C522 C523 1.367 . S
C523 C522 1.367 . S
C523 C525 1.433 1_556 S
C524 C520 1.350 1_554 S
C524 C521 1.463 . S
C524 N528 1.427 . S
C525 H515 0.929 1_455 S
C525 C523 1.433 1_554 S
C525 N528 1.384 . S
C526 H517 0.929 1_455 S
C526 C518 1.378 . S
C526 C521 1.350 . S
C527 H514 0.929 . S
C527 C519 1.433 . S
C527 N529 1.384 . S
N528 C524 1.427 . S
N528 C525 1.384 . S
N529 C521 1.427 . S
N529 C527 1.384 . S
H530 C536 0.930 . S
H531 C540 0.930 . S
H532 C545 0.929 . S
H533 C543 0.929 . S
H534 C538 0.929 . S
H535 C544 0.929 . S
C536 H530 0.930 . S
C536 C537 1.367 . S
C536 C544 1.378 . S
C537 C536 1.367 . S
C537 C545 1.433 . S
C538 H534 0.929 . S
C538 C540 1.378 . S
C538 C542 1.350 . S
C539 C542 1.463 . S
C539 C544 1.350 . S
C539 N547 1.427 . S
C540 H531 0.930 . S
C540 C538 1.378 . S
C540 C541 1.367 . S
C541 C540 1.367 . S
C541 C543 1.433 . S
C542 C538 1.350 . S
C542 C539 1.463 . S
C542 N546 1.427 . S
C543 H533 0.929 . S
C543 C541 1.433 . S
C543 N546 1.384 . S
C544 H535 0.929 . S
C544 C536 1.378 . S
C544 C539 1.350 . S
C545 H532 0.929 . S
C545 C537 1.433 . S
C545 N547 1.384 . S
N546 C542 1.427 . S
N546 C543 1.384 . S
N547 C539 1.427 . S
N547 C545 1.384 . S
H548 C554 0.930 . S
H549 C558 0.930 . S
H550 C563 0.929 . S
H551 C561 0.929 . S
H552 C556 0.929 . S
H553 C562 0.929 . S
C554 H548 0.930 . S
C554 C555 1.367 . S
C554 C562 1.378 . S
C555 C554 1.367 . S
C555 C563 1.433 . S
C556 H552 0.929 . S
C556 C558 1.378 . S
C556 C560 1.350 . S
C557 C560 1.463 . S
C557 C562 1.350 . S
C557 N565 1.427 . S
C558 H549 0.930 . S
C558 C556 1.378 . S
C558 C559 1.367 . S
C559 C558 1.367 . S
C559 C561 1.433 . S
C560 C556 1.350 . S
C560 C557 1.463 . S
C560 N564 1.427 . S
C561 H551 0.929 . S
C561 C559 1.433 . S
C561 N564 1.384 . S
C562 H553 0.929 . S
C562 C554 1.378 . S
C562 C557 1.350 . S
C563 H550 0.929 . S
C563 C555 1.433 . S
C563 N565 1.384 . S
N564 C560 1.427 . S
N564 C561 1.384 . S
N565 C557 1.427 . S
N565 C563 1.384 . S
H566 C572 0.930 . S
H567 C576 0.930 . S
H568 C581 0.929 . S
H569 C579 0.929 . S
H570 C574 0.929 . S
H571 C580 0.929 . S
C572 H566 0.930 . S
C572 C573 1.367 . S
C572 C580 1.378 . S
C573 C572 1.367 . S
C573 C581 1.433 . S
C574 H570 0.929 . S
C574 C576 1.378 . S
C574 C578 1.350 . S
C575 C578 1.463 . S
C575 C580 1.350 . S
C575 N583 1.427 . S
C576 H567 0.930 . S
C576 C574 1.378 . S
C576 C577 1.367 . S
C577 C576 1.367 . S
C577 C579 1.433 . S
C578 C574 1.350 . S
C578 C575 1.463 . S
C578 N582 1.427 . S
C579 H569 0.929 . S
C579 C577 1.433 . S
C579 N582 1.384 . S
C580 H571 0.929 . S
C580 C572 1.378 . S
C580 C575 1.350 . S
C581 H568 0.929 . S
C581 C573 1.433 . S
C581 N583 1.384 . S
N582 C578 1.427 . S
N582 C579 1.384 . S
N583 C575 1.427 . S
N583 C581 1.384 . S
H584 C590 0.930 . S
H585 C594 0.930 . S
H586 C599 0.929 . S
H587 C597 0.929 . S
H588 C592 0.929 . S
H589 C598 0.929 . S
C590 H584 0.930 . S
C590 C591 1.367 . S
C590 C598 1.378 . S
C591 C590 1.367 . S
C591 C599 1.433 . S
C592 H588 0.929 . S
C592 C594 1.378 . S
C592 C596 1.350 . S
C593 C596 1.463 . S
C593 C598 1.350 . S
C593 N601 1.427 . S
C594 H585 0.930 . S
C594 C592 1.378 . S
C594 C595 1.367 . S
C595 C594 1.367 . S
C595 C597 1.433 . S
C596 C592 1.350 . S
C596 C593 1.463 . S
C596 N600 1.427 . S
C597 H587 0.929 . S
C597 C595 1.433 . S
C597 N600 1.384 . S
C598 H589 0.929 . S
C598 C590 1.378 . S
C598 C593 1.350 . S
C599 H586 0.929 . S
C599 C591 1.433 . S
C599 N601 1.384 . S
N600 C596 1.427 . S
N600 C597 1.384 . S
N601 C593 1.427 . S
N601 C599 1.384 . S
H602 C608 0.930 . S
H603 C612 0.930 . S
H604 C617 0.929 . S
H605 C615 0.929 . S
H606 C610 0.929 . S
H607 C616 0.929 . S
C608 H602 0.930 . S
C608 C609 1.367 . S
C608 C616 1.378 . S
C609 C608 1.367 . S
C609 C617 1.433 . S
C610 H606 0.929 . S
C610 C612 1.378 . S
C610 C614 1.350 . S
C611 C614 1.463 . S
C611 C616 1.350 . S
C611 N619 1.427 . S
C612 H603 0.930 . S
C612 C610 1.378 . S
C612 C613 1.367 . S
C613 C612 1.367 . S
C613 C615 1.433 . S
C614 C610 1.350 . S
C614 C611 1.463 . S
C614 N618 1.427 . S
C615 H605 0.929 . S
C615 C613 1.433 . S
C615 N618 1.384 . S
C616 H607 0.929 . S
C616 C608 1.378 . S
C616 C611 1.350 . S
C617 H604 0.929 . S
C617 C609 1.433 . S
C617 N619 1.384 . S
N618 C614 1.427 . S
N618 C615 1.384 . S
N619 C611 1.427 . S
N619 C617 1.384 . S
H620 C626 0.930 . S
H621 C630 0.930 . S
H622 C635 0.929 . S
H623 C633 0.929 . S
H624 C628 0.929 1_565 S
H625 C634 0.929 1_545 S
C626 H620 0.930 . S
C626 C627 1.367 . S
C626 C634 1.378 . S
C627 C626 1.367 . S
C627 C635 1.433 . S
C628 H624 0.929 1_545 S
C628 C630 1.378 . S
C628 C632 1.350 . S
C629 C632 1.463 1_565 S
C629 C634 1.350 . S
C629 N637 1.427 . S
C630 H621 0.930 . S
C630 C628 1.378 . S
C630 C631 1.367 . S
C631 C630 1.367 . S
C631 C633 1.433 . S
C632 C628 1.350 . S
C632 C629 1.463 1_545 S
C632 N636 1.427 . S
C633 H623 0.929 . S
C633 C631 1.433 . S
C633 N636 1.384 . S
C634 H625 0.929 1_565 S
C634 C626 1.378 . S
C634 C629 1.350 . S
C635 H622 0.929 . S
C635 C627 1.433 . S
C635 N637 1.384 . S
N636 C632 1.427 . S
N636 C633 1.384 . S
N637 C629 1.427 . S
N637 C635 1.384 . S
H638 C644 0.930 . S
H639 C648 0.930 . S
H640 C653 0.929 . S
H641 C651 0.929 . S
H642 C646 0.929 . S
H643 C652 0.929 . S
C644 H638 0.930 . S
C644 C645 1.380 . S
C644 C652 1.378 1_556 S
C645 C644 1.380 . S
C645 C653 1.420 1_655 S
C646 H642 0.929 . S
C646 C648 1.378 . S
C646 C650 1.373 . S
C647 C650 1.461 1_645 S
C647 C652 1.372 . S
C647 N655 1.406 1_654 S
C648 H639 0.930 . S
C648 C646 1.378 . S
C648 C649 1.381 . S
C649 C648 1.381 . S
C649 C651 1.418 1_455 S
C650 C646 1.373 . S
C650 C647 1.461 1_465 S
C650 N654 1.404 1_455 S
C651 H641 0.929 . S
C651 C649 1.418 1_655 S
C651 N654 1.384 . S
C652 H643 0.929 . S
C652 C644 1.378 1_554 S
C652 C647 1.372 . S
C653 H640 0.929 . S
C653 C645 1.420 1_455 S
C653 N655 1.384 . S
N654 C650 1.404 1_655 S
N654 C651 1.384 . S
N655 C647 1.406 1_456 S
N655 C653 1.384 . S
H656 C662 0.930 . S
H657 C666 0.930 . S
H658 C671 0.929 . S
H659 C669 0.929 . S
H660 C664 0.929 . S
H661 C670 0.929 . S
C662 H656 0.930 . S
C662 C663 1.367 . S
C662 C670 1.378 . S
C663 C662 1.367 . S
C663 C671 1.433 1_655 S
C664 H660 0.929 . S
C664 C666 1.378 . S
C664 C668 1.350 1_455 S
C665 C668 1.463 . S
C665 C670 1.350 . S
C665 N673 1.427 1_655 S
C666 H657 0.930 . S
C666 C664 1.378 . S
C666 C667 1.367 1_455 S
C667 C666 1.367 1_655 S
C667 C669 1.433 . S
C668 C664 1.350 1_655 S
C668 C665 1.463 . S
C668 N672 1.427 . S
C669 H659 0.929 . S
C669 C667 1.433 . S
C669 N672 1.384 . S
C670 H661 0.929 . S
C670 C662 1.378 . S
C670 C665 1.350 . S
C671 H658 0.929 . S
C671 C663 1.433 1_455 S
C671 N673 1.384 . S
N672 C668 1.427 . S
N672 C669 1.384 . S
N673 C665 1.427 1_455 S
N673 C671 1.384 . S
H674 C680 0.930 . S
H675 C684 0.930 . S
H676 C689 0.929 . S
H677 C687 0.929 . S
H678 C682 0.929 . S
H679 C688 0.929 . S
C680 H674 0.930 . S
C680 C681 1.367 . S
C680 C688 1.378 . S
C681 C680 1.367 . S
C681 C689 1.433 . S
C682 H678 0.929 . S
C682 C684 1.378 . S
C682 C686 1.350 . S
C683 C686 1.463 . S
C683 C688 1.350 . S
C683 N691 1.427 . S
C684 H675 0.930 . S
C684 C682 1.378 . S
C684 C685 1.367 . S
C685 C684 1.367 . S
C685 C687 1.433 . S
C686 C682 1.350 . S
C686 C683 1.463 . S
C686 N690 1.427 . S
C687 H677 0.929 . S
C687 C685 1.433 . S
C687 N690 1.384 . S
C688 H679 0.929 . S
C688 C680 1.378 . S
C688 C683 1.350 . S
C689 H676 0.929 . S
C689 C681 1.433 . S
C689 N691 1.384 . S
N690 C686 1.427 . S
N690 C687 1.384 . S
N691 C683 1.427 . S
N691 C689 1.384 . S
H692 C698 0.930 . S
H693 C702 0.930 . S
H694 C707 0.929 . S
H695 C705 0.929 . S
H696 C700 0.929 . S
H697 C706 0.929 . S
C698 H692 0.930 . S
C698 C699 1.367 . S
C698 C706 1.378 . S
C699 C698 1.367 . S
C699 C707 1.433 . S
C700 H696 0.929 . S
C700 C702 1.378 . S
C700 C704 1.350 1_556 S
C701 C704 1.463 . S
C701 C706 1.350 . S
C701 N709 1.427 . S
C702 H693 0.930 . S
C702 C700 1.378 . S
C702 C703 1.367 . S
C703 C702 1.367 . S
C703 C705 1.433 . S
C704 C700 1.350 1_554 S
C704 C701 1.463 . S
C704 N708 1.427 . S
C705 H695 0.929 . S
C705 C703 1.433 . S
C705 N708 1.384 1_556 S
C706 H697 0.929 . S
C706 C698 1.378 . S
C706 C701 1.350 . S
C707 H694 0.929 . S
C707 C699 1.433 . S
C707 N709 1.384 . S
N708 C704 1.427 . S
N708 C705 1.384 1_554 S
N709 C701 1.427 . S
N709 C707 1.384 . S
H710 C716 0.930 . S
H711 C720 0.930 . S
H712 C725 0.929 . S
H713 C723 0.929 . S
H714 C718 0.929 . S
H715 C724 0.929 . S
C716 H710 0.930 . S
C716 C717 1.367 . S
C716 C724 1.378 . S
C717 C716 1.367 . S
C717 C725 1.433 . S
C718 H714 0.929 . S
C718 C720 1.378 . S
C718 C722 1.350 . S
C719 C722 1.463 . S
C719 C724 1.350 . S
C719 N727 1.427 . S
C720 H711 0.930 . S
C720 C718 1.378 . S
C720 C721 1.367 . S
C721 C720 1.367 . S
C721 C723 1.433 . S
C722 C718 1.350 . S
C722 C719 1.463 . S
C722 N726 1.427 . S
C723 H713 0.929 . S
C723 C721 1.433 . S
C723 N726 1.384 . S
C724 H715 0.929 . S
C724 C716 1.378 . S
C724 C719 1.350 . S
C725 H712 0.929 . S
C725 C717 1.433 . S
C725 N727 1.384 . S
N726 C722 1.427 . S
N726 C723 1.384 . S
N727 C719 1.427 . S
N727 C725 1.384 . S
H728 C734 0.930 . S
H729 C738 0.930 . S
H730 C743 0.929 . S
H731 C741 0.929 . S
H732 C736 0.929 . S
H733 C742 0.929 . S
C734 H728 0.930 . S
C734 C735 1.367 . S
C734 C742 1.378 . S
C735 C734 1.367 . S
C735 C743 1.433 . S
C736 H732 0.929 . S
C736 C738 1.378 . S
C736 C740 1.350 . S
C737 C740 1.463 . S
C737 C742 1.350 . S
C737 N745 1.427 . S
C738 H729 0.930 . S
C738 C736 1.378 . S
C738 C739 1.367 . S
C739 C738 1.367 . S
C739 C741 1.433 . S
C740 C736 1.350 . S
C740 C737 1.463 . S
C740 N744 1.427 . S
C741 H731 0.929 . S
C741 C739 1.433 . S
C741 N744 1.384 . S
C742 H733 0.929 . S
C742 C734 1.378 . S
C742 C737 1.350 . S
C743 H730 0.929 . S
C743 C735 1.433 . S
C743 N745 1.384 . S
N744 C740 1.427 . S
N744 C741 1.384 . S
N745 C737 1.427 . S
N745 C743 1.384 . S
H746 C752 0.930 . S
H747 C756 0.930 . S
H748 C761 0.929 . S
H749 C759 0.929 . S
H750 C754 0.929 . S
H751 C760 0.929 . S
C752 H746 0.930 . S
C752 C753 1.367 . S
C752 C760 1.378 . S
C753 C752 1.367 . S
C753 C761 1.433 . S
C754 H750 0.929 . S
C754 C756 1.378 . S
C754 C758 1.350 . S
C755 C758 1.463 . S
C755 C760 1.350 . S
C755 N763 1.427 . S
C756 H747 0.930 . S
C756 C754 1.378 . S
C756 C757 1.367 . S
C757 C756 1.367 . S
C757 C759 1.433 . S
C758 C754 1.350 . S
C758 C755 1.463 . S
C758 N762 1.427 . S
C759 H749 0.929 . S
C759 C757 1.433 . S
C759 N762 1.384 . S
C760 H751 0.929 . S
C760 C752 1.378 . S
C760 C755 1.350 . S
C761 H748 0.929 . S
C761 C753 1.433 . S
C761 N763 1.384 . S
N762 C758 1.427 . S
N762 C759 1.384 . S
N763 C755 1.427 . S
N763 C761 1.384 . S
H764 C770 0.930 . S
H765 C774 0.930 . S
H766 C779 0.929 . S
H767 C777 0.929 . S
H768 C772 0.929 . S
H769 C778 0.929 . S
C770 H764 0.930 . S
C770 C771 1.367 . S
C770 C778 1.378 . S
C771 C770 1.367 . S
C771 C779 1.433 . S
C772 H768 0.929 . S
C772 C774 1.378 1_554 S
C772 C776 1.350 . S
C773 C776 1.463 1_565 S
C773 C778 1.350 . S
C773 N781 1.427 . S
C774 H765 0.930 . S
C774 C772 1.378 1_556 S
C774 C775 1.367 . S
C775 C774 1.367 . S
C775 C777 1.433 . S
C776 C772 1.350 . S
C776 C773 1.463 1_545 S
C776 N780 1.427 1_554 S
C777 H767 0.929 . S
C777 C775 1.433 . S
C777 N780 1.384 . S
C778 H769 0.929 . S
C778 C770 1.378 . S
C778 C773 1.350 . S
C779 H766 0.929 . S
C779 C771 1.433 . S
C779 N781 1.384 . S
N780 C776 1.427 1_556 S
N780 C777 1.384 . S
N781 C773 1.427 . S
N781 C779 1.384 . S
H782 C788 0.930 . S
H783 C792 0.930 1_655 S
H784 C797 0.894 1_655 S
H785 C795 0.929 . S
H786 C790 0.929 1_655 S
H787 C796 0.929 . S
C788 H782 0.930 . S
C788 C789 1.367 . S
C788 C796 1.378 . S
C789 C788 1.367 . S
C789 C797 1.470 . S
C790 H786 0.929 1_455 S
C790 C792 1.378 . S
C790 C794 1.350 . S
C791 C794 1.463 1_545 S
C791 C796 1.350 . S
C791 N799 1.427 . S
C792 H783 0.930 1_455 S
C792 C790 1.378 . S
C792 C793 1.367 . S
C793 C792 1.367 . S
C793 C795 1.433 . S
C794 C790 1.350 . S
C794 C791 1.463 1_565 S
C794 N798 1.427 . S
C795 H785 0.929 . S
C795 C793 1.433 . S
C795 N798 1.384 . S
C796 H787 0.929 . S
C796 C788 1.378 . S
C796 C791 1.350 . S
C797 H784 0.894 1_455 S
C797 C789 1.470 . S
C797 N799 1.385 . S
N798 C794 1.427 . S
N798 C795 1.384 . S
N799 C791 1.427 . S
N799 C797 1.385 . S
C231 C131 1.454 . S
C235 C5 1.452 . S
C249 C201 1.454 . S
C253 C19 1.452 . S
C267 C33 1.453 . S
C271 C117 1.456 . S
C285 C47 1.454 . S
C289 C215 1.456 . S
C303 C61 1.455 . S
C307 C145 1.455 . S
C321 C187 1.453 . S
C325 C75 1.455 . S
C339 C159 1.455 . S
C343 C89 1.452 . S
C357 C103 1.456 . S
C361 C173 1.453 . S
C375 C56 1.543 . S
C379 C42 1.539 1_556 S
C393 C168 1.528 . S
C397 C112 1.528 . S
C411 C84 1.534 . S
C415 C14 1.531 . S
C429 C126 1.531 . S
C433 C182 1.529 . S
C447 C0 1.541 . S
C451 C70 1.543 . S
C465 C210 1.528 . S
C469 C140 1.528 1_556 S
C483 C98 1.543 . S
C487 C28 1.541 . S
C501 C154 1.538 . S
C505 C196 1.535 . S
C519 C9 0.586 . S
C523 C65 0.589 . S
C537 C79 0.592 . S
C541 C23 0.587 . S
C555 C93 0.595 . S
C559 C37 0.590 . S
C573 C51 0.590 . S
C577 C107 0.595 . S
C591 C149 0.589 . S
C595 C121 0.595 . S
C609 C163 0.588 . S
C613 C135 0.594 . S
C627 C205 0.586 . S
C631 C177 0.590 . S
C645 C219 0.593 1_655 S
C649 C191 0.591 . S
C663 C67 1.741 1_655 S
C667 C11 1.738 1_655 S
C681 C81 1.739 . S
C685 C25 1.734 . S
C699 C95 1.734 . S
C703 C39 1.738 . S
C717 C53 1.737 . S
C721 C109 1.742 . S
C735 C123 1.737 . S
C739 C151 1.735 . S
C753 C165 1.736 . S
C757 C137 1.741 . S
C771 C207 1.741 . S
C775 C179 1.737 . S
C789 C221 1.741 . S
C793 C193 1.736 . S
