# Generated by pormake.
# Topology loh, (5)-cn, num edge types: 1
# Building blocks:
#     Node 0, Type 0, BuildingBlock: XOMCOT_clean_sbu_1, # of connection points: 5
#     Node 1, Type 0, BuildingBlock: XOMCOT_clean_sbu_1, # of connection points: 5
#     Node 2, Type 0, BuildingBlock: XOMCOT_clean_sbu_1, # of connection points: 5
#     Node 3, Type 0, BuildingBlock: XOMCOT_clean_sbu_1, # of connection points: 5
#     Node 4, Type 0, BuildingBlock: XOMCOT_clean_sbu_1, # of connection points: 5
#     Node 5, Type 0, BuildingBlock: XOMCOT_clean_sbu_1, # of connection points: 5
#     Node 6, Type 0, BuildingBlock: XOMCOT_clean_sbu_1, # of connection points: 5
#     Node 7, Type 0, BuildingBlock: XOMCOT_clean_sbu_1, # of connection points: 5
#     Edge 8, Type (0, 0), BuildingBlock: EZIPEK_clean_linker_0, # of connection points: 2
#     Edge 9, Type (0, 0), BuildingBlock: EZIPEK_clean_linker_0, # of connection points: 2
#     Edge 10, Type (0, 0), BuildingBlock: EZIPEK_clean_linker_0, # of connection points: 2
#     Edge 11, Type (0, 0), BuildingBlock: EZIPEK_clean_linker_0, # of connection points: 2
#     Edge 12, Type (0, 0), BuildingBlock: EZIPEK_clean_linker_0, # of connection points: 2
#     Edge 13, Type (0, 0), BuildingBlock: EZIPEK_clean_linker_0, # of connection points: 2
#     Edge 14, Type (0, 0), BuildingBlock: EZIPEK_clean_linker_0, # of connection points: 2
#     Edge 15, Type (0, 0), BuildingBlock: EZIPEK_clean_linker_0, # of connection points: 2
#     Edge 16, Type (0, 0), BuildingBlock: EZIPEK_clean_linker_0, # of connection points: 2
#     Edge 17, Type (0, 0), BuildingBlock: EZIPEK_clean_linker_0, # of connection points: 2
#     Edge 18, Type (0, 0), BuildingBlock: EZIPEK_clean_linker_0, # of connection points: 2
#     Edge 19, Type (0, 0), BuildingBlock: EZIPEK_clean_linker_0, # of connection points: 2
#     Edge 20, Type (0, 0), BuildingBlock: EZIPEK_clean_linker_0, # of connection points: 2
#     Edge 21, Type (0, 0), BuildingBlock: EZIPEK_clean_linker_0, # of connection points: 2
#     Edge 22, Type (0, 0), BuildingBlock: EZIPEK_clean_linker_0, # of connection points: 2
#     Edge 23, Type (0, 0), BuildingBlock: EZIPEK_clean_linker_0, # of connection points: 2
#     Edge 24, Type (0, 0), BuildingBlock: EZIPEK_clean_linker_0, # of connection points: 2
#     Edge 25, Type (0, 0), BuildingBlock: EZIPEK_clean_linker_0, # of connection points: 2
#     Edge 26, Type (0, 0), BuildingBlock: EZIPEK_clean_linker_0, # of connection points: 2
#     Edge 27, Type (0, 0), BuildingBlock: EZIPEK_clean_linker_0, # of connection points: 2
# Relax obj value: 0.223
# Max RMSD: 0.136
# Mean RMSD: 0.136
data_MOF--net-loh--node1-XOMCOT_clean_sbu_1--edge1-EZIPEK_clean_linker_0
_symmetry_space_group_name_H-M    P1
_symmetry_Int_Tables_number       1
_symmetry_cell_setting            triclinic
loop_
_symmetry_equiv_pos_as_xyz
'x, y, z'
_cell_length_a     19.792444
_cell_length_b     18.660927
_cell_length_c     31.339022
_cell_angle_alpha  90.307503
_cell_angle_beta   90.015393
_cell_angle_gamma 89.316431
loop_
_atom_site_label
_atom_site_type_symbol
_atom_site_fract_x
_atom_site_fract_y
_atom_site_fract_z
_atom_type_partial_charge
C0 C 0.91049 0.11891 0.15636 0.0
C1 C 0.92464 0.05533 0.17612 0.0
N2 N 0.96519 0.06844 0.2094 0.0
N3 N 0.94198 0.17365 0.17662 0.0
C4 C 0.97511 0.14047 0.20928 0.0
H5 H 0.88012 0.12293 0.12791 0.0
Co6 Co 0.94019 0.27205 0.15821 0.0
C7 C 0.96268 0.34476 0.23521 0.0
O8 O 0.89633 0.3457 0.23585 0.0
N9 N 0.93766 0.36615 0.13919 0.0
C10 C 0.90113 0.47522 0.12145 0.0
C11 C 0.8911 0.41759 0.14801 0.0
C12 C 0.97511 0.39356 0.10739 0.0
N13 N 0.95425 0.45933 0.09627 0.0
O14 O 1.02621 0.25707 0.1281 0.0
H15 H 0.85008 0.41182 0.17035 0.0
H16 H 1.01393 0.36464 0.09005 0.0
O17 O 0.99268 0.30419 0.20781 0.0
C18 C 1.06133 0.21018 0.10792 0.0
O19 O 1.03305 0.14878 0.09854 0.0
N20 N 0.88411 0.24963 0.1111 0.0
C21 C 0.78216 0.26767 0.04993 0.0
C22 C 0.76621 0.26291 0.09332 0.0
C23 C 0.81801 0.2538 0.12329 0.0
C24 C 0.90051 0.24899 0.06873 0.0
C25 C 0.84977 0.25671 0.03752 0.0
H26 H 0.80617 0.25513 0.15691 0.0
H27 H 0.95267 0.24885 0.05878 0.0
H28 H 1.00697 0.168 0.23196 0.0
H29 H 0.90731 1.00287 0.16642 0.0
H30 H 0.86968 0.52276 0.11901 0.0
H31 H 0.71466 0.27075 0.10414 0.0
H32 H 0.86387 0.26007 1.00421 0.0
C33 C 0.59368 0.95056 0.64921 0.0
C34 C 0.57506 1.01225 0.67003 0.0
N35 N 0.55311 0.99489 0.70896 0.0
N36 N 0.58288 0.89259 0.67424 0.0
C37 C 0.55836 0.92216 0.71109 0.0
H38 H 0.61302 0.94951 0.6171 0.0
Co39 Co 0.60919 0.79567 0.65906 0.0
C40 C 0.58301 0.72253 0.73701 0.0
O41 O 0.64728 0.7335 0.74467 0.0
N42 N 0.63878 0.70333 0.64413 0.0
C43 C 0.71159 0.61298 0.63471 0.0
C44 C 0.69402 0.67024 0.66033 0.0
C45 C 0.62385 0.66509 0.60866 0.0
N46 N 0.66775 0.6104 0.60194 0.0
O47 O 0.52749 0.78214 0.62267 0.0
H48 H 0.72392 0.69051 0.68647 0.0
H49 H 0.58704 0.6818 0.58526 0.0
O50 O 0.55523 0.75454 0.70537 0.0
C51 C 0.47698 0.81997 0.61008 0.0
O52 O 0.47968 0.88991 0.61361 0.0
N53 N 0.66574 0.82952 0.61491 0.0
C54 C 0.77004 0.82782 0.55503 0.0
C55 C 0.78442 0.83371 0.59867 0.0
C56 C 0.73123 0.83466 0.62814 0.0
C57 C 0.65044 0.83384 0.57248 0.0
C58 C 0.7024 0.83527 0.54189 0.0
H59 H 0.74257 0.83156 0.66185 0.0
H60 H 0.59873 0.83012 0.56183 0.0
H61 H 0.54573 0.89144 0.73911 0.0
H62 H 0.57762 0.06619 0.6576 0.0
H63 H 0.75619 0.57927 0.63795 0.0
H64 H 0.83604 0.82992 0.60999 0.0
H65 H 0.68953 0.8327 0.50833 0.0
C66 C 1.03231 0.94279 0.88396 0.0
C67 C 1.05015 1.00511 0.8645 0.0
N68 N 0.09502 0.98923 0.83388 0.0
N69 N 1.06579 0.88609 0.86619 0.0
C70 C 0.10402 0.9169 0.83526 0.0
H71 H 0.99687 0.94092 0.91 0.0
Co72 Co 1.05339 0.78764 0.88274 0.0
C73 C 0.08638 0.71265 0.80728 0.0
O74 O 1.02038 0.71275 0.80308 0.0
N75 N 1.03825 0.69378 0.89899 0.0
C76 C 0.96862 0.60967 0.92056 0.0
C77 C 0.97901 0.66172 0.8908 0.0
C78 C 1.06502 0.65711 0.93216 0.0
N79 N 1.02215 0.60768 0.94713 0.0
O80 O 0.13402 0.79012 0.91954 0.0
H81 H 0.94185 0.68086 0.86816 0.0
H82 H 0.11266 0.66966 0.94702 0.0
O83 O 0.11242 0.75139 0.83679 0.0
C84 C 0.16959 0.83663 0.93907 0.0
O85 O 0.14532 0.90217 0.94238 0.0
N86 N 0.99141 0.81534 0.92668 0.0
C87 C 0.88391 0.80666 0.98477 0.0
C88 C 0.87194 0.8093 0.94072 0.0
C89 C 0.92624 0.8148 0.91234 0.0
C90 C 1.00395 0.81864 0.96953 0.0
C91 C 0.95071 0.81512 0.99912 0.0
H92 H 0.91673 0.81201 0.87838 0.0
H93 H 1.05493 0.81876 0.98145 0.0
H94 H 0.13745 0.88726 0.81411 0.0
H95 H 1.03168 0.05847 0.87226 0.0
H96 H 0.92281 0.57922 0.92444 0.0
H97 H 0.82132 0.80306 0.92819 0.0
H98 H 0.96207 0.81382 0.03292 0.0
C99 C 0.78812 0.11051 0.37096 0.0
C100 C 0.77115 0.04762 0.35115 0.0
N101 N 0.71242 0.05782 0.33067 0.0
N102 N 0.7401 0.16146 0.36379 0.0
C103 C 0.69426 0.12711 0.33872 0.0
H104 H 0.83307 0.11694 0.38989 0.0
Co105 Co 0.74087 0.25728 0.38683 0.0
C106 C 0.71323 0.33385 0.31339 0.0
O107 O 0.77956 0.33428 0.31257 0.0
N108 N 0.74288 0.34907 0.4098 0.0
C109 C 0.7855 0.45153 0.43328 0.0
C110 C 0.79223 0.3972 0.4037 0.0
C111 C 0.70627 0.37569 0.44275 0.0
N112 N 0.73169 0.43708 0.45785 0.0
O113 O 0.65905 0.23876 0.41945 0.0
H114 H 0.83291 0.39088 0.38102 0.0
H115 H 0.66438 0.34909 0.45761 0.0
O116 O 0.68392 0.29371 0.34059 0.0
C117 C 0.6278 0.18857 0.4382 0.0
O118 O 0.65877 0.12634 0.44213 0.0
N119 N 0.80141 0.23056 0.43092 0.0
C120 C 0.90595 0.24986 0.49013 0.0
C121 C 0.9185 0.25291 0.44624 0.0
C122 C 0.86569 0.24309 0.41734 0.0
C123 C 0.78838 0.22409 0.47357 0.0
C124 C 0.84048 0.23255 0.50376 0.0
H125 H 0.87484 0.25069 0.38366 0.0
H126 H 0.73734 0.21868 0.48496 0.0
H127 H 0.64829 0.15199 0.32694 0.0
H128 H 0.79954 0.99771 0.35202 0.0
H129 H 0.81855 0.49681 0.43738 0.0
H130 H 0.96822 0.26613 0.43441 0.0
H131 H 0.82888 0.23007 0.53749 0.0
C132 C 0.53786 0.60144 0.15477 0.0
C133 C 0.55742 0.53949 0.17459 0.0
N134 N 0.60108 0.55604 0.20565 0.0
N135 N 0.56889 0.65872 0.1727 0.0
C136 C 0.60744 0.62855 0.20411 0.0
H137 H 0.50149 0.60284 0.12923 0.0
Co138 Co 0.54846 0.75763 0.15922 0.0
C139 C 0.58872 0.82863 0.2345 0.0
O140 O 0.52426 0.82363 0.24373 0.0
N141 N 0.52481 0.85272 0.14719 0.0
C142 C 0.4529 0.94348 0.13759 0.0
C143 C 0.46844 0.88525 0.16243 0.0
C144 C 0.54465 0.89461 0.11463 0.0
N145 N 0.50021 0.94824 0.107 0.0
O146 O 0.62386 0.76284 0.11706 0.0
H147 H 0.43642 0.8637 0.18703 0.0
H148 H 0.58691 0.88264 0.09415 0.0
O149 O 0.61181 0.79322 0.20243 0.0
C150 C 0.6632 0.71892 0.09726 0.0
O151 O 0.65444 0.64965 0.10131 0.0
N152 N 0.48265 0.72952 0.11761 0.0
C153 C 0.37621 0.73937 0.05919 0.0
C154 C 0.36352 0.74205 0.10317 0.0
C155 C 0.41765 0.73628 0.1319 0.0
C156 C 0.4942 0.71538 0.07536 0.0
C157 C 0.4414 0.71986 0.04557 0.0
H158 H 0.40831 0.74389 0.16561 0.0
H159 H 0.54426 0.70467 0.06372 0.0
H160 H 0.63801 0.65897 0.22618 0.0
H161 H 0.54015 0.486 0.16718 0.0
H162 H 0.4072 0.97584 0.13938 0.0
H163 H 0.31332 0.75449 0.11503 0.0
H164 H 0.45267 0.71454 1.01187 0.0
C165 C 0.28274 0.43363 0.66167 0.0
C166 C 0.26515 0.49818 0.68 0.0
N167 N 0.21132 0.48806 0.70509 0.0
N168 N 0.24014 0.38175 0.67472 0.0
C169 C 0.19695 0.41725 0.70157 0.0
H170 H 0.32525 0.42608 0.64052 0.0
Co171 Co 0.2466 0.28179 0.65969 0.0
C172 C 0.21078 0.21429 0.73353 0.0
O173 O 0.27697 0.20884 0.73551 0.0
N174 N 0.25392 0.18435 0.6452 0.0
C175 C 0.29731 0.0785 0.62573 0.0
C176 C 0.30786 0.13978 0.64951 0.0
C177 C 0.21021 0.14728 0.62095 0.0
N178 N 0.23613 0.08474 0.6073 0.0
O179 O 0.16797 0.2902 0.62054 0.0
H180 H 0.35404 0.15309 0.66601 0.0
H181 H 0.16142 0.16684 0.61079 0.0
O182 O 0.185 0.25542 0.70519 0.0
C183 C 0.13273 0.33487 0.59886 0.0
O184 O 0.14899 0.40293 0.59902 0.0
N185 N 0.3118 0.30042 0.61641 0.0
C186 C 0.41566 0.276 0.55723 0.0
C187 C 0.42922 0.27587 0.60114 0.0
C188 C 0.37635 0.28779 0.63018 0.0
C189 C 0.29986 0.3105 0.57394 0.0
C190 C 0.35078 0.29696 0.54376 0.0
H191 H 0.38585 0.28147 0.66396 0.0
H192 H 0.25088 0.32642 0.56266 0.0
H193 H 0.15632 0.39181 0.71864 0.0
H194 H 0.29065 0.54869 0.67583 0.0
H195 H 0.334 0.03644 0.61909 0.0
H196 H 0.47913 0.26187 0.61284 0.0
H197 H 0.33896 0.30041 0.51007 0.0
C198 C 0.39052 0.44148 0.8756 0.0
C199 C 0.40743 0.50375 0.8555 0.0
N200 N 0.46721 0.49358 0.83629 0.0
N201 N 0.4396 0.39106 0.86985 0.0
C202 C 0.48596 0.42491 0.84519 0.0
H203 H 0.3443 0.43474 0.89314 0.0
Co204 Co 0.43694 0.2955 0.89237 0.0
C205 C 0.45645 0.23339 0.81211 0.0
O206 O 0.39603 0.26006 0.80419 0.0
N207 N 0.43303 0.20393 0.9141 0.0
C208 C 0.38882 0.10072 0.93425 0.0
C209 C 0.38284 0.15743 0.9066 0.0
C210 C 0.46932 0.17446 0.9461 0.0
N211 N 0.44299 0.11233 0.95912 0.0
O212 O 0.52273 0.30936 0.92272 0.0
H213 H 0.34148 0.16745 0.88509 0.0
H214 H 0.51072 0.20019 0.96232 0.0
O215 O 0.48801 0.2561 0.84501 0.0
C216 C 0.5584 0.35764 0.94046 0.0
O217 O 0.53095 0.42146 0.94582 0.0
N218 N 0.38059 0.32501 0.93817 0.0
C219 C 0.28101 0.30619 1.00042 0.0
C220 C 0.26442 0.30465 0.95706 0.0
C221 C 0.31501 0.31364 0.92658 0.0
C222 C 0.39699 0.33243 0.98031 0.0
C223 C 0.3473 0.32436 1.01204 0.0
H224 H 0.30305 0.30524 0.89325 0.0
H225 H 0.44895 0.33725 0.99008 0.0
H226 H 0.53228 0.39989 0.83394 0.0
H227 H 0.37771 0.55283 0.85457 0.0
H228 H 0.35393 0.05692 0.93772 0.0
H229 H 0.21392 0.29081 0.94684 0.0
H230 H 0.3619 0.3256 0.04534 0.0
C231 C 0.14934 0.63564 0.37119 0.0
C232 C 0.13346 0.57162 0.3524 0.0
N233 N 0.07134 0.57759 0.33571 0.0
N234 N 0.09711 0.68282 0.36754 0.0
C235 C 1.05029 0.6457 0.34472 0.0
H236 H 0.19762 0.64686 0.38555 0.0
Co237 Co 0.10195 0.77924 0.38901 0.0
C238 C 1.06869 0.82677 0.30586 0.0
O239 O 0.12287 0.7913 0.29321 0.0
N240 N 0.1079 0.87294 0.40994 0.0
C241 C 0.12625 0.98972 0.41753 0.0
C242 C 0.11455 0.93526 0.38873 0.0
C243 C 0.11399 0.89132 0.45145 0.0
N244 N 0.12733 0.96106 0.45681 0.0
O245 O 1.02036 0.77105 0.42379 0.0
H246 H 0.11492 0.94064 0.3546 0.0
H247 H 0.11304 0.85372 0.4775 0.0
O248 O 1.04603 0.81582 0.34337 0.0
C249 C 0.97898 0.72436 0.43715 0.0
O250 O 0.99542 0.65652 0.43251 0.0
N251 N 0.16195 0.74917 0.43288 0.0
C252 C 0.26118 0.74297 0.49614 0.0
C253 C 0.27542 0.77214 0.45623 0.0
C254 C 0.22526 0.77419 0.42496 0.0
C255 C 0.14828 0.71566 0.47054 0.0
C256 C 0.19758 0.71217 0.50282 0.0
H257 H 0.2354 0.80024 0.39492 0.0
H258 H 0.09855 0.69563 0.477 0.0
H259 H 1.00241 0.66826 0.33442 0.0
H260 H 0.1661 0.52484 0.34966 0.0
H261 H 0.13876 0.04457 0.41006 0.0
H262 H 0.32385 0.79644 0.45003 0.0
H263 H 0.18503 0.68937 0.53348 0.0
C264 C 0.21698 0.20489 0.0348 0.0
C265 C 0.23156 0.27947 0.03277 0.0
C266 C 0.15414 0.30103 0.09276 0.0
C267 C 0.12924 0.23006 0.0889 0.0
N268 N 0.16363 0.10843 0.07359 0.0
N269 N 0.21019 0.39973 0.0583 0.0
C270 C 0.16805 0.17982 0.06463 0.0
C271 C 0.19944 0.32779 0.06155 0.0
N272 N 0.24934 0.15804 1.00779 0.0
N273 N 0.14088 0.34009 0.12876 0.0
H274 H 0.2434 0.42153 0.03617 0.0
H275 H 0.18185 0.43784 0.07519 0.0
H276 H 0.1191 0.31709 0.1556 0.0
H277 H 0.1614 0.39035 0.13467 0.0
H278 H 0.23485 0.10512 1.00323 0.0
H279 H 0.28911 0.17297 0.9881 0.0
H280 H 0.19359 0.06882 0.05939 0.0
H281 H 0.13714 0.08963 0.09991 0.0
C282 C 0.35285 0.82705 0.59097 0.0
C283 C 0.41448 0.7873 0.59038 0.0
C284 C 0.36654 0.70602 0.53658 0.0
C285 C 0.31023 0.75305 0.53187 0.0
N286 N 0.2478 0.85757 0.55538 0.0
N287 N 0.45634 0.66609 0.58329 0.0
C288 C 0.30226 0.81267 0.55983 0.0
C289 C 0.41527 0.71989 0.56903 0.0
N290 N 0.3406 0.87421 0.6237 0.0
N291 N 0.3741 0.64866 0.50968 0.0
H292 H 0.48064 0.66962 0.61262 0.0
H293 H 0.45654 0.61437 0.57062 0.0
H294 H 0.33782 0.63497 0.48698 0.0
H295 H 0.4181 0.61752 0.50826 0.0
H296 H 0.29463 0.90063 0.62859 0.0
H297 H 0.37352 0.87949 0.64951 0.0
H298 H 0.2432 0.90592 0.57161 0.0
H299 H 0.20885 0.8487 0.53367 0.0
C300 C 0.29597 0.71537 0.99799 0.0
C301 C 0.32453 0.76455 0.02737 0.0
C302 C 0.26803 0.86401 0.98936 0.0
C303 C 0.23228 0.81394 0.96379 0.0
N304 N 0.24519 0.69941 0.92851 0.0
N305 N 0.33442 0.8867 0.05273 0.0
C306 C 0.25517 0.74129 0.96374 0.0
C307 C 0.3095 0.83914 0.02355 0.0
N308 N 0.30601 0.64345 1.00351 0.0
N309 N 0.26947 0.93448 0.97772 0.0
H310 H 0.36832 0.87238 0.07665 0.0
H311 H 0.31797 0.93982 0.055 0.0
H312 H 0.25061 0.95241 0.94858 0.0
H313 H 0.29893 0.97277 0.99294 0.0
H314 H 0.28024 0.60474 0.98605 0.0
H315 H 0.33535 0.62244 0.02824 0.0
H316 H 0.26493 0.6477 0.92517 0.0
H317 H 0.22698 0.72045 0.89994 0.0
C318 C 0.53203 0.15449 0.48922 0.0
C319 C 0.5629 0.20569 0.46222 0.0
C320 C 0.49284 0.30101 0.49499 0.0
C321 C 0.46769 0.2517 0.52523 0.0
N322 N 0.46518 0.13068 0.55238 0.0
N323 N 0.54007 0.31599 0.42465 0.0
C324 C 0.48778 0.17814 0.52267 0.0
C325 C 0.53406 0.27586 0.46075 0.0
N326 N 0.53833 0.08315 0.47974 0.0
N327 N 0.47977 0.37266 0.49984 0.0
H328 H 0.56027 0.29511 0.39642 0.0
H329 H 0.51587 0.36537 0.42057 0.0
H330 H 0.45088 0.39363 0.52489 0.0
H331 H 0.50327 0.4116 0.48152 0.0
H332 H 0.51327 0.04295 0.49605 0.0
H333 H 0.55971 0.06466 0.45131 0.0
H334 H 0.48512 0.07918 0.55594 0.0
H335 H 0.42935 0.14383 0.57553 0.0
C336 C 0.78466 0.71178 0.07255 0.0
C337 C 0.72003 0.74525 0.06976 0.0
C338 C 0.76706 0.82833 1.01684 0.0
C339 C 0.82795 0.78744 1.01505 0.0
N340 N 0.88267 0.67497 0.03229 0.0
N341 N 0.64679 0.82332 0.02869 0.0
C342 C 0.83359 0.72495 0.04052 0.0
C343 C 0.7103 0.80069 0.03918 0.0
N344 N 0.80071 0.66885 0.10629 0.0
N345 N 0.76322 0.89374 0.99766 0.0
H346 H 0.60387 0.79985 0.04122 0.0
H347 H 0.63694 0.85909 1.00395 0.0
H348 H 0.80419 0.91641 0.98198 0.0
H349 H 0.72165 0.92812 1.00122 0.0
H350 H 0.84966 0.64927 0.11119 0.0
H351 H 0.76794 0.66034 0.13177 0.0
H352 H 0.88395 0.62536 0.04743 0.0
H353 H 0.9157 0.67916 1.00657 0.0
C354 C 1.01021 0.34723 0.57579 0.0
C355 C 0.07319 0.30983 0.57286 0.0
C356 C 1.02048 0.22494 0.5225 0.0
C357 C 0.96126 0.26821 0.521 0.0
N358 N 0.90617 0.3801 0.53972 0.0
N359 N 0.14057 0.22073 0.53488 0.0
C360 C 0.95773 0.33198 0.54596 0.0
C361 C 0.07893 0.25044 0.54406 0.0
N362 N 0.99933 0.3958 0.60792 0.0
N363 N 1.02083 0.15877 0.50361 0.0
H364 H 0.18498 0.23721 0.54914 0.0
H365 H 0.14841 0.1837 0.51032 0.0
H366 H 0.97865 0.13759 0.48831 0.0
H367 H 1.06072 0.12237 0.50669 0.0
H368 H 0.95228 0.4195 0.6138 0.0
H369 H 1.03504 0.40647 0.63151 0.0
H370 H 0.90472 0.43067 0.55398 0.0
H371 H 0.86863 0.37263 0.51687 0.0
C372 C 0.6992 0.24198 0.99025 0.0
C373 C 0.72966 0.29195 1.01834 0.0
C374 C 0.66327 0.38933 0.98477 0.0
C375 C 0.62596 0.33798 0.96095 0.0
N376 N 0.638 0.22424 0.92431 0.0
N377 N 0.7393 0.41376 0.04375 0.0
C378 C 0.65211 0.26645 0.95886 0.0
C379 C 0.71142 0.36584 1.01586 0.0
N380 N 0.71344 0.17053 0.99444 0.0
N381 N 0.65866 0.46021 0.97428 0.0
H382 H 0.77733 0.40003 0.06534 0.0
H383 H 0.72154 0.46617 0.04757 0.0
H384 H 0.63387 0.47792 0.94689 0.0
H385 H 0.68804 0.49992 0.98817 0.0
H386 H 0.68655 0.13077 0.9786 0.0
H387 H 0.74837 0.15066 1.01647 0.0
H388 H 0.65938 0.17359 0.91946 0.0
H389 H 0.61386 0.24402 0.89719 0.0
C390 C 0.84218 0.72812 0.52343 0.0
C391 C 0.82302 0.8019 0.52404 0.0
C392 C 0.89356 0.82105 0.46038 0.0
C393 C 0.91657 0.74821 0.46192 0.0
N394 N 0.87993 0.62876 0.47992 0.0
N395 N 0.83557 0.92054 0.49587 0.0
C396 C 0.88196 0.70034 0.48924 0.0
C397 C 0.84985 0.84883 0.49305 0.0
N398 N 0.82311 0.68387 0.55576 0.0
N399 N 0.90743 0.86137 0.42522 0.0
H400 H 0.80357 0.94228 0.51914 0.0
H401 H 0.85964 0.95914 0.47767 0.0
H402 H 0.92986 0.83967 0.39789 0.0
H403 H 0.88829 0.91284 0.4203 0.0
H404 H 0.84289 0.63227 0.55957 0.0
H405 H 0.79155 0.69994 0.58063 0.0
H406 H 0.85103 0.59258 0.49709 0.0
H407 H 0.89589 0.60748 0.45083 0.0
C408 C 0.98273 0.40661 0.30585 0.0
C409 C 0.99902 0.40008 0.26173 0.0
C410 C 1.06222 0.51359 0.26683 0.0
C411 C 1.04052 0.52272 0.30954 0.0
N412 N 0.97779 0.48175 0.36972 0.0
N413 N 1.05405 0.44977 0.19975 0.0
C414 C 0.99993 0.47019 0.32896 0.0
C415 C 1.03933 0.45393 0.2422 0.0
N416 N 0.95363 0.35014 0.32611 0.0
N417 N 0.10637 0.56187 0.25023 0.0
H418 H 1.04339 0.4055 0.18112 0.0
H419 H 0.07589 0.49071 0.18237 0.0
H420 H 0.12003 0.60847 0.26645 0.0
H421 H 0.13223 0.55462 0.2216 0.0
H422 H 0.94708 0.34769 0.35898 0.0
H423 H 0.94225 0.30226 0.31047 0.0
H424 H 0.9433 0.44935 0.38524 0.0
H425 H 0.99081 0.5273 0.38717 0.0
C426 C 0.51622 0.60602 0.74142 0.0
C427 C 0.54747 0.66552 0.76216 0.0
C428 C 0.53543 0.60323 0.83105 0.0
C429 C 0.50027 0.54706 0.81063 0.0
N430 N 0.44565 0.50094 0.74816 0.0
N431 N 0.57419 0.72607 0.8281 0.0
C432 C 0.48735 0.55032 0.76631 0.0
C433 C 0.55368 0.66539 0.80745 0.0
N434 N 0.51706 0.60007 0.698 0.0
N435 N 0.55161 0.59651 0.8732 0.0
H436 H 0.58495 0.77345 0.81207 0.0
H437 H 0.57404 0.73195 0.86115 0.0
H438 H 0.53811 0.55176 0.89098 0.0
H439 H 0.58291 0.63182 0.88948 0.0
H440 H 0.50287 0.55389 0.68165 0.0
H441 H 0.53675 0.63879 0.67815 0.0
H442 H 0.42699 0.5052 0.71718 0.0
H443 H 0.42567 0.45833 0.76529 0.0
C444 C 0.13808 0.59603 0.71202 0.0
C445 C 0.17957 0.54307 0.73134 0.0
C446 C 0.16587 0.60396 0.80073 0.0
C447 C 0.12694 0.65966 0.78102 0.0
N448 N 0.08806 0.7154 0.7162 0.0
N449 N 0.24399 0.50336 0.79172 0.0
C450 C 0.11658 0.65746 0.73608 0.0
C451 C 0.19669 0.54916 0.77503 0.0
N452 N 0.11811 0.58642 0.6707 0.0
N453 N 0.1707 0.60076 0.84411 0.0
H454 H 0.26653 0.46225 0.77385 0.0
H455 H 0.26452 0.50934 0.82209 0.0
H456 H 0.15074 0.63982 0.86425 0.0
H457 H 0.19061 0.55684 0.86041 0.0
H458 H 0.08246 0.61891 0.65555 0.0
H459 H 0.13326 0.5419 0.65264 0.0
H460 H 0.0845 0.72029 0.6832 0.0
H461 H 0.07388 0.76197 0.73266 0.0
C462 C 0.69069 0.38764 0.24136 0.0
C463 C 0.6758 0.38657 0.28568 0.0
C464 C 0.60913 0.49851 0.27697 0.0
C465 C 0.63135 0.50367 0.23412 0.0
N466 N 0.6985 0.45753 0.17631 0.0
N467 N 0.62401 0.44519 0.34669 0.0
C468 C 0.67367 0.44925 0.21664 0.0
C469 C 0.63551 0.44297 0.30376 0.0
N470 N 0.71884 0.32827 0.22254 0.0
N471 N 0.56026 0.54481 0.29148 0.0
H472 H 0.63825 0.40417 0.36714 0.0
H473 H 0.60299 0.48941 0.36241 0.0
H474 H 0.54023 0.58593 0.27278 0.0
H475 H 0.53578 0.53913 0.32065 0.0
H476 H 0.72277 0.32215 0.18964 0.0
H477 H 0.73093 0.28187 0.2395 0.0
H478 H 0.73258 0.42212 0.16191 0.0
H479 H 0.68885 0.50342 0.15831 0.0
C480 C 0.65993 0.94223 0.23689 0.0
C481 C 0.62962 0.88338 0.25844 0.0
C482 C 0.64637 0.94631 0.32709 0.0
C483 C 0.67864 1.00319 0.30579 0.0
N484 N 0.72553 0.05153 0.24179 0.0
N485 N 0.60732 0.82339 0.32468 0.0
C486 C 0.68788 1.00003 0.26103 0.0
C487 C 0.62667 0.88392 0.30381 0.0
N488 N 0.65989 0.94482 0.19336 0.0
N489 N 0.6335 0.95303 0.36974 0.0
H490 H 0.59513 0.77613 0.30863 0.0
H491 H 0.60969 0.81745 0.35765 0.0
H492 H 0.64738 0.99829 0.38723 0.0
H493 H 0.60439 0.9172 0.38696 0.0
H494 H 0.67128 0.99062 0.17609 0.0
H495 H 0.64613 0.90208 0.17408 0.0
H496 H 0.74205 0.04834 0.21029 0.0
H497 H 0.74443 0.09553 0.25842 0.0
C498 C 0.17374 0.08896 0.82477 0.0
C499 C 0.12552 0.0424 0.80682 0.0
C500 C 0.12155 0.11652 0.74194 0.0
C501 C 0.17012 0.1638 0.76029 0.0
N502 N 0.22464 0.20644 0.82401 0.0
N503 N 1.04362 1.01793 0.75259 0.0
C504 C 0.19097 0.15316 0.8032 0.0
C505 C 0.0967 0.05795 0.76651 0.0
N506 N 0.20358 0.07088 0.86256 0.0
N507 N 0.09986 0.1261 0.70098 0.0
H508 H 1.02619 0.97367 0.76935 0.0
H509 H 1.0141 0.03075 0.72617 0.0
H510 H 0.1102 0.17114 0.68301 0.0
H511 H 0.07155 0.08874 0.68421 0.0
H512 H 0.24346 0.09898 0.87595 0.0
H513 H 0.19199 1.02383 0.87872 0.0
H514 H 0.23441 0.20569 0.85664 0.0
H515 H 0.23579 0.25519 0.80959 0.0
C516 C 0.45995 0.05684 0.74757 0.0
C517 C 0.5298 0.047 0.74023 0.0
C518 C 0.55183 0.16181 0.77661 0.0
C519 C 0.48216 0.1689 0.78741 0.0
N520 N 0.37369 0.10939 0.79238 0.0
N521 N 0.64365 0.08218 0.75447 0.0
C522 C 0.43718 0.11257 0.77549 0.0
C523 C 0.57611 0.097 0.75719 0.0
N524 N 0.41485 1.01462 0.7265 0.0
N525 N 0.59422 0.21833 0.78232 0.0
H526 H 0.66217 0.03499 0.74048 0.0
H527 H 0.68036 0.11278 0.76958 0.0
H528 H 0.57802 0.26812 0.79385 0.0
H529 H 0.64389 0.21843 0.77136 0.0
H530 H 0.36297 1.02501 0.72638 0.0
H531 H 0.42987 0.97286 0.70626 0.0
H532 H 0.34194 0.06586 0.78779 0.0
H533 H 0.35512 0.14563 0.81479 0.0
C534 C 0.94795 0.96924 0.26011 0.0
C535 C 0.99274 1.01333 0.23703 0.0
C536 C 0.08811 0.93967 0.26208 0.0
C537 C 1.04249 0.88976 0.28073 0.0
N538 N 0.92716 0.85201 0.29013 0.0
N539 N 0.10389 0.03091 0.20835 0.0
C540 C 0.97175 0.90331 0.27781 0.0
C541 C 1.06241 0.99585 0.23585 0.0
N542 N 0.88248 0.99124 0.26533 0.0
N543 N 0.15566 0.93678 0.27117 0.0
H544 H 0.08679 0.0717 0.18833 0.0
H545 H 0.15369 1.01485 0.20257 0.0
H546 H 0.17738 0.90075 0.29252 0.0
H547 H 0.18918 0.97621 0.26159 0.0
H548 H 0.84765 0.96412 0.28391 0.0
H549 H 0.86504 0.04065 0.25413 0.0
H550 H 0.87524 0.85615 0.28516 0.0
H551 H 0.94243 0.8018 0.30124 0.0
C552 C 1.00213 0.49545 0.98342 0.0
C553 C 1.0245 0.56679 0.98609 0.0
C554 C 1.0134 0.56101 0.06413 0.0
C555 C 0.97713 0.49694 0.05937 0.0
N556 N 0.92609 0.40962 1.01342 0.0
N557 N 1.05018 0.66983 0.03122 0.0
C558 C 0.96911 0.46537 1.01871 0.0
C559 C 1.0316 0.60002 0.02712 0.0
N560 N 1.01069 0.45772 0.94639 0.0
N561 N 1.03 0.58462 0.10402 0.0
H562 H 1.06589 0.70126 1.00622 0.0
H563 H 1.04601 0.69853 0.05972 0.0
H564 H 1.01434 0.55853 0.13156 0.0
H565 H 1.06324 0.62654 0.1096 0.0
H566 H 0.99913 0.40355 0.94348 0.0
H567 H 1.03614 0.47924 0.92031 0.0
H568 H 0.91412 0.388 0.98367 0.0
H569 H 0.89622 0.39159 0.0384 0.0
C570 C 0.68103 0.49042 0.56965 0.0
C571 C 0.67441 0.56537 0.56448 0.0
C572 C 0.68721 0.54979 0.48721 0.0
C573 C 0.70729 0.4781 0.49365 0.0
N574 N 0.72958 0.38037 0.542 0.0
N575 N 0.68178 0.66753 0.51768 0.0
C576 C 0.70527 0.44797 0.53512 0.0
C577 C 0.67924 0.59544 0.52295 0.0
N578 N 0.66286 0.45993 0.60737 0.0
N579 N 0.67558 0.57406 0.44681 0.0
H580 H 0.68293 0.70197 0.54347 0.0
H581 H 0.692 0.69197 0.48861 0.0
H582 H 0.68012 0.54095 0.42001 0.0
H583 H 0.65462 0.62437 0.44042 0.0
H584 H 0.66102 0.4047 0.61185 0.0
H585 H 0.64261 0.48996 0.63259 0.0
H586 H 0.73576 0.3586 0.57232 0.0
H587 H 0.74945 0.34851 0.51769 0.0
C588 C 0.45944 0.10412 0.03721 0.0
C589 C 0.46272 0.07226 0.99609 0.0
C590 C 0.49068 0.95733 0.02787 0.0
C591 C 0.49395 0.99054 0.06885 0.0
N592 N 0.49741 0.09884 0.11055 0.0
N593 N 0.49741 0.97361 0.95147 0.0
C594 C 0.48369 0.06526 0.0728 0.0
C595 C 0.48387 1.00046 0.99119 0.0
N596 N 0.42911 0.16941 0.0426 0.0
N597 N 0.48809 0.8848 0.02398 0.0
H598 H 0.49316 1.0047 0.924 0.0
H599 H 0.51914 0.92311 0.94642 0.0
H600 H 0.48621 0.85167 0.05027 0.0
H601 H 0.47913 0.85848 0.99515 0.0
H602 H 0.41995 0.19252 0.07241 0.0
H603 H 0.40619 0.19616 1.01739 0.0
H604 H 0.49596 0.15439 0.1142 0.0
H605 H 0.51695 0.07134 0.1368 0.0
C606 C 0.22243 1.01671 0.49495 0.0
C607 C 0.15521 0.99156 0.495 0.0
C608 C 0.14824 1.01414 0.5718 0.0
C609 C 0.21152 0.04842 0.57009 0.0
N610 N 0.29927 0.10027 0.52699 0.0
N611 N 1.05055 0.97328 0.53219 0.0
C612 C 0.24619 0.05476 0.53083 0.0
C613 C 0.11703 0.9919 0.53323 0.0
N614 N 0.26474 1.00132 0.46167 0.0
N615 N 0.11935 1.00145 0.61049 0.0
H616 H 1.02615 0.95874 0.50398 0.0
H617 H 1.01837 0.97846 0.55834 0.0
H618 H 0.14317 1.01534 0.63902 0.0
H619 H 0.07572 0.97152 0.61436 0.0
H620 H 0.31596 1.01373 0.46217 0.0
H621 H 0.2509 0.96861 0.43615 0.0
H622 H 0.32232 0.11095 0.49783 0.0
H623 H 0.31478 0.13374 0.5517 0.0
loop_
_geom_bond_atom_site_label_1
_geom_bond_atom_site_label_2
_geom_bond_distance
_geom_bond_site_symmetry_2
_ccdc_geom_bond_type
C0 C1 1.351 . S
C0 N3 1.368 . S
C0 H5 0.931 . S
C1 C0 1.351 . S
C1 N2 1.373 . S
C1 H29 0.930 . S
N2 C1 1.373 . S
N2 C4 1.340 . S
N3 C0 1.368 . S
N3 C4 1.321 . S
N3 Co6 2.135 . S
C4 N2 1.340 . S
C4 N3 1.321 . S
C4 H28 0.930 . S
H5 C0 0.931 . S
Co6 N3 2.135 . S
Co6 N9 2.121 . S
Co6 O14 2.055 . S
Co6 O17 2.039 . S
Co6 N20 2.140 1_455 S
C7 O8 1.227 1_455 S
C7 O17 1.265 . S
O8 C7 1.227 1_655 S
N9 Co6 2.121 . S
N9 C11 1.375 . S
N9 C12 1.313 . S
C10 C11 1.338 . S
C10 N13 1.377 . S
C10 H30 0.930 1_455 S
C11 N9 1.375 . S
C11 C10 1.338 . S
C11 H15 0.931 1_455 S
C12 N9 1.313 . S
C12 N13 1.344 . S
C12 H16 0.930 . S
N13 C10 1.377 . S
N13 C12 1.344 . S
O14 Co6 2.055 . S
O14 C18 1.253 . S
H15 C11 0.931 1_655 S
H16 C12 0.930 . S
O17 Co6 2.039 . S
O17 C7 1.265 . S
C18 O14 1.253 . S
C18 O19 1.227 . S
O19 C18 1.227 . S
N20 Co6 2.140 1_655 S
N20 C23 1.346 . S
N20 C24 1.345 . S
C21 C22 1.387 . S
C21 C25 1.391 . S
C22 C21 1.387 . S
C22 C23 1.369 . S
C22 H31 0.929 . S
C23 N20 1.346 . S
C23 C22 1.369 . S
C23 H26 0.928 . S
C24 N20 1.345 . S
C24 C25 1.371 . S
C24 H27 0.931 . S
C25 C21 1.391 . S
C25 C24 1.371 . S
C25 H32 0.930 . S
H26 C23 0.928 . S
H27 C24 0.931 . S
H28 C4 0.930 . S
H29 C1 0.930 . S
H30 C10 0.930 1_655 S
H31 C22 0.929 . S
H32 C25 0.930 . S
C33 C34 1.351 . S
C33 N36 1.368 . S
C33 H38 0.931 . S
C34 C33 1.351 . S
C34 N35 1.373 . S
C34 H62 0.930 . S
N35 C34 1.373 . S
N35 C37 1.340 . S
N36 C33 1.368 . S
N36 C37 1.321 . S
N36 Co39 2.135 . S
C37 N35 1.340 . S
C37 N36 1.321 . S
C37 H61 0.930 . S
H38 C33 0.931 . S
Co39 N36 2.135 . S
Co39 N42 2.121 . S
Co39 O47 2.055 . S
Co39 O50 2.039 . S
Co39 N53 2.140 . S
C40 O41 1.227 . S
C40 O50 1.265 . S
O41 C40 1.227 . S
N42 Co39 2.121 . S
N42 C44 1.375 . S
N42 C45 1.313 . S
C43 C44 1.338 . S
C43 N46 1.377 . S
C43 H63 0.930 . S
C44 N42 1.375 . S
C44 C43 1.338 . S
C44 H48 0.931 . S
C45 N42 1.313 . S
C45 N46 1.344 . S
C45 H49 0.930 . S
N46 C43 1.377 . S
N46 C45 1.344 . S
O47 Co39 2.055 . S
O47 C51 1.253 . S
H48 C44 0.931 . S
H49 C45 0.930 . S
O50 Co39 2.039 . S
O50 C40 1.265 . S
C51 O47 1.253 . S
C51 O52 1.227 . S
O52 C51 1.227 . S
N53 Co39 2.140 . S
N53 C56 1.346 . S
N53 C57 1.345 . S
C54 C55 1.387 . S
C54 C58 1.391 . S
C55 C54 1.387 . S
C55 C56 1.369 . S
C55 H64 0.929 . S
C56 N53 1.346 . S
C56 C55 1.369 . S
C56 H59 0.928 . S
C57 N53 1.345 . S
C57 C58 1.371 . S
C57 H60 0.931 . S
C58 C54 1.391 . S
C58 C57 1.371 . S
C58 H65 0.930 . S
H59 C56 0.928 . S
H60 C57 0.931 . S
H61 C37 0.930 . S
H62 C34 0.930 . S
H63 C43 0.930 . S
H64 C55 0.929 . S
H65 C58 0.930 . S
C66 C67 1.351 . S
C66 N69 1.368 . S
C66 H71 0.931 . S
C67 C66 1.351 . S
C67 N68 1.373 . S
C67 H95 0.930 . S
N68 C67 1.373 . S
N68 C70 1.340 . S
N69 C66 1.368 . S
N69 C70 1.321 . S
N69 Co72 2.135 . S
C70 N68 1.340 . S
C70 N69 1.321 . S
C70 H94 0.930 . S
H71 C66 0.931 . S
Co72 N69 2.135 . S
Co72 N75 2.121 . S
Co72 O80 2.055 . S
Co72 O83 2.039 . S
Co72 N86 2.140 1_455 S
C73 O74 1.227 1_455 S
C73 O83 1.265 . S
O74 C73 1.227 1_655 S
N75 Co72 2.121 . S
N75 C77 1.375 . S
N75 C78 1.313 . S
C76 C77 1.338 . S
C76 N79 1.377 . S
C76 H96 0.930 1_455 S
C77 N75 1.375 . S
C77 C76 1.338 . S
C77 H81 0.931 1_455 S
C78 N75 1.313 . S
C78 N79 1.344 . S
C78 H82 0.930 . S
N79 C76 1.377 . S
N79 C78 1.344 . S
O80 Co72 2.055 . S
O80 C84 1.253 . S
H81 C77 0.931 1_655 S
H82 C78 0.930 . S
O83 Co72 2.039 . S
O83 C73 1.265 . S
C84 O80 1.253 . S
C84 O85 1.227 . S
O85 C84 1.227 . S
N86 Co72 2.140 1_655 S
N86 C89 1.346 . S
N86 C90 1.345 . S
C87 C88 1.387 . S
C87 C91 1.391 . S
C88 C87 1.387 . S
C88 C89 1.369 . S
C88 H97 0.929 . S
C89 N86 1.346 . S
C89 C88 1.369 . S
C89 H92 0.928 . S
C90 N86 1.345 . S
C90 C91 1.371 . S
C90 H93 0.931 . S
C91 C87 1.391 . S
C91 C90 1.371 . S
C91 H98 0.930 . S
H92 C89 0.928 . S
H93 C90 0.931 . S
H94 C70 0.930 . S
H95 C67 0.930 . S
H96 C76 0.930 1_655 S
H97 C88 0.929 . S
H98 C91 0.930 . S
C99 C100 1.351 . S
C99 N102 1.368 . S
C99 H104 0.931 . S
C100 C99 1.351 . S
C100 N101 1.373 . S
C100 H128 0.930 . S
N101 C100 1.373 . S
N101 C103 1.340 . S
N102 C99 1.368 . S
N102 C103 1.321 . S
N102 Co105 2.135 . S
C103 N101 1.340 . S
C103 N102 1.321 . S
C103 H127 0.930 . S
H104 C99 0.931 . S
Co105 N102 2.135 . S
Co105 N108 2.121 . S
Co105 O113 2.055 . S
Co105 O116 2.039 . S
Co105 N119 2.140 . S
C106 O107 1.227 . S
C106 O116 1.265 . S
O107 C106 1.227 . S
N108 Co105 2.121 . S
N108 C110 1.375 . S
N108 C111 1.313 . S
C109 C110 1.338 . S
C109 N112 1.377 . S
C109 H129 0.930 . S
C110 N108 1.375 . S
C110 C109 1.338 . S
C110 H114 0.931 . S
C111 N108 1.313 . S
C111 N112 1.344 . S
C111 H115 0.930 . S
N112 C109 1.377 . S
N112 C111 1.344 . S
O113 Co105 2.055 . S
O113 C117 1.253 . S
H114 C110 0.931 . S
H115 C111 0.930 . S
O116 Co105 2.039 . S
O116 C106 1.265 . S
C117 O113 1.253 . S
C117 O118 1.227 . S
O118 C117 1.227 . S
N119 Co105 2.140 . S
N119 C122 1.346 . S
N119 C123 1.345 . S
C120 C121 1.387 . S
C120 C124 1.391 . S
C121 C120 1.387 . S
C121 C122 1.369 . S
C121 H130 0.929 . S
C122 N119 1.346 . S
C122 C121 1.369 . S
C122 H125 0.928 . S
C123 N119 1.345 . S
C123 C124 1.371 . S
C123 H126 0.931 . S
C124 C120 1.391 . S
C124 C123 1.371 . S
C124 H131 0.930 . S
H125 C122 0.928 . S
H126 C123 0.931 . S
H127 C103 0.930 . S
H128 C100 0.930 . S
H129 C109 0.930 . S
H130 C121 0.929 . S
H131 C124 0.930 . S
C132 C133 1.351 . S
C132 N135 1.368 . S
C132 H137 0.931 . S
C133 C132 1.351 . S
C133 N134 1.373 . S
C133 H161 0.930 . S
N134 C133 1.373 . S
N134 C136 1.340 . S
N135 C132 1.368 . S
N135 C136 1.321 . S
N135 Co138 2.135 . S
C136 N134 1.340 . S
C136 N135 1.321 . S
C136 H160 0.930 . S
H137 C132 0.931 . S
Co138 N135 2.135 . S
Co138 N141 2.121 . S
Co138 O146 2.055 . S
Co138 O149 2.039 . S
Co138 N152 2.140 . S
C139 O140 1.227 . S
C139 O149 1.265 . S
O140 C139 1.227 . S
N141 Co138 2.121 . S
N141 C143 1.375 . S
N141 C144 1.313 . S
C142 C143 1.338 . S
C142 N145 1.377 . S
C142 H162 0.930 1_565 S
C143 N141 1.375 . S
C143 C142 1.338 . S
C143 H147 0.931 . S
C144 N141 1.313 . S
C144 N145 1.344 . S
C144 H148 0.930 . S
N145 C142 1.377 . S
N145 C144 1.344 . S
O146 Co138 2.055 . S
O146 C150 1.253 . S
H147 C143 0.931 . S
H148 C144 0.930 . S
O149 Co138 2.039 . S
O149 C139 1.265 . S
C150 O146 1.253 . S
C150 O151 1.227 . S
O151 C150 1.227 . S
N152 Co138 2.140 . S
N152 C155 1.346 . S
N152 C156 1.345 . S
C153 C154 1.387 . S
C153 C157 1.391 . S
C154 C153 1.387 . S
C154 C155 1.369 . S
C154 H163 0.929 . S
C155 N152 1.346 . S
C155 C154 1.369 . S
C155 H158 0.928 . S
C156 N152 1.345 . S
C156 C157 1.371 . S
C156 H159 0.931 . S
C157 C153 1.391 . S
C157 C156 1.371 . S
C157 H164 0.930 . S
H158 C155 0.928 . S
H159 C156 0.931 . S
H160 C136 0.930 . S
H161 C133 0.930 . S
H162 C142 0.930 1_545 S
H163 C154 0.929 . S
H164 C157 0.930 . S
C165 C166 1.351 . S
C165 N168 1.368 . S
C165 H170 0.931 . S
C166 C165 1.351 . S
C166 N167 1.373 . S
C166 H194 0.930 . S
N167 C166 1.373 . S
N167 C169 1.340 . S
N168 C165 1.368 . S
N168 C169 1.321 . S
N168 Co171 2.135 . S
C169 N167 1.340 . S
C169 N168 1.321 . S
C169 H193 0.930 . S
H170 C165 0.931 . S
Co171 N168 2.135 . S
Co171 N174 2.121 . S
Co171 O179 2.055 . S
Co171 O182 2.039 . S
Co171 N185 2.140 1_655 S
C172 O173 1.227 . S
C172 O182 1.265 1_455 S
O173 C172 1.227 . S
N174 Co171 2.121 . S
N174 C176 1.375 1_655 S
N174 C177 1.313 . S
C175 C176 1.338 . S
C175 N178 1.377 1_455 S
C175 H195 0.930 1_545 S
C176 N174 1.375 1_455 S
C176 C175 1.338 . S
C176 H180 0.931 . S
C177 N174 1.313 . S
C177 N178 1.344 . S
C177 H181 0.930 . S
N178 C175 1.377 1_655 S
N178 C177 1.344 . S
O179 Co171 2.055 . S
O179 C183 1.253 . S
H180 C176 0.931 . S
H181 C177 0.930 . S
O182 Co171 2.039 . S
O182 C172 1.265 1_655 S
C183 O179 1.253 . S
C183 O184 1.227 . S
O184 C183 1.227 . S
N185 Co171 2.140 1_455 S
N185 C188 1.346 . S
N185 C189 1.345 . S
C186 C187 1.387 . S
C186 C190 1.391 . S
C187 C186 1.387 . S
C187 C188 1.369 . S
C187 H196 0.929 . S
C188 N185 1.346 . S
C188 C187 1.369 . S
C188 H191 0.928 . S
C189 N185 1.345 . S
C189 C190 1.371 . S
C189 H192 0.931 . S
C190 C186 1.391 . S
C190 C189 1.371 . S
C190 H197 0.930 . S
H191 C188 0.928 . S
H192 C189 0.931 . S
H193 C169 0.930 . S
H194 C166 0.930 . S
H195 C175 0.930 1_565 S
H196 C187 0.929 . S
H197 C190 0.930 . S
C198 C199 1.351 . S
C198 N201 1.368 . S
C198 H203 0.931 . S
C199 C198 1.351 . S
C199 N200 1.373 . S
C199 H227 0.930 . S
N200 C199 1.373 . S
N200 C202 1.340 . S
N201 C198 1.368 . S
N201 C202 1.321 . S
N201 Co204 2.135 . S
C202 N200 1.340 . S
C202 N201 1.321 . S
C202 H226 0.930 . S
H203 C198 0.931 . S
Co204 N201 2.135 . S
Co204 N207 2.121 . S
Co204 O212 2.055 . S
Co204 O215 2.039 . S
Co204 N218 2.140 . S
C205 O206 1.227 . S
C205 O215 1.265 . S
O206 C205 1.227 . S
N207 Co204 2.121 . S
N207 C209 1.375 . S
N207 C210 1.313 . S
C208 C209 1.338 . S
C208 N211 1.377 . S
C208 H228 0.930 1_545 S
C209 N207 1.375 . S
C209 C208 1.338 . S
C209 H213 0.931 . S
C210 N207 1.313 . S
C210 N211 1.344 . S
C210 H214 0.930 . S
N211 C208 1.377 . S
N211 C210 1.344 . S
O212 Co204 2.055 . S
O212 C216 1.253 . S
H213 C209 0.931 . S
H214 C210 0.930 . S
O215 Co204 2.039 . S
O215 C205 1.265 . S
C216 O212 1.253 . S
C216 O217 1.227 . S
O217 C216 1.227 . S
N218 Co204 2.140 . S
N218 C221 1.346 . S
N218 C222 1.345 . S
C219 C220 1.387 . S
C219 C223 1.391 . S
C220 C219 1.387 . S
C220 C221 1.369 . S
C220 H229 0.929 . S
C221 N218 1.346 . S
C221 C220 1.369 . S
C221 H224 0.928 . S
C222 N218 1.345 . S
C222 C223 1.371 . S
C222 H225 0.931 . S
C223 C219 1.391 . S
C223 C222 1.371 . S
C223 H230 0.930 . S
H224 C221 0.928 . S
H225 C222 0.931 . S
H226 C202 0.930 . S
H227 C199 0.930 . S
H228 C208 0.930 1_565 S
H229 C220 0.929 . S
H230 C223 0.930 . S
C231 C232 1.351 . S
C231 N234 1.368 . S
C231 H236 0.931 . S
C232 C231 1.351 . S
C232 N233 1.373 . S
C232 H260 0.930 . S
N233 C232 1.373 . S
N233 C235 1.340 . S
N234 C231 1.368 . S
N234 C235 1.321 . S
N234 Co237 2.135 . S
C235 N233 1.340 . S
C235 N234 1.321 . S
C235 H259 0.930 . S
H236 C231 0.931 . S
Co237 N234 2.135 . S
Co237 N240 2.121 . S
Co237 O245 2.055 . S
Co237 O248 2.039 . S
Co237 N251 2.140 1_655 S
C238 O239 1.227 . S
C238 O248 1.265 1_455 S
O239 C238 1.227 . S
N240 Co237 2.121 . S
N240 C242 1.375 1_655 S
N240 C243 1.313 . S
C241 C242 1.338 . S
C241 N244 1.377 1_455 S
C241 H261 0.930 1_565 S
C242 N240 1.375 1_455 S
C242 C241 1.338 . S
C242 H246 0.931 . S
C243 N240 1.313 . S
C243 N244 1.344 . S
C243 H247 0.930 . S
N244 C241 1.377 1_655 S
N244 C243 1.344 . S
O245 Co237 2.055 . S
O245 C249 1.253 . S
H246 C242 0.931 . S
H247 C243 0.930 . S
O248 Co237 2.039 . S
O248 C238 1.265 1_655 S
C249 O245 1.253 . S
C249 O250 1.227 . S
O250 C249 1.227 . S
N251 Co237 2.140 1_455 S
N251 C254 1.346 . S
N251 C255 1.345 . S
C252 C253 1.387 . S
C252 C256 1.391 . S
C253 C252 1.387 . S
C253 C254 1.369 . S
C253 H262 0.929 . S
C254 N251 1.346 . S
C254 C253 1.369 . S
C254 H257 0.928 . S
C255 N251 1.345 . S
C255 C256 1.371 . S
C255 H258 0.931 . S
C256 C252 1.391 . S
C256 C255 1.371 . S
C256 H263 0.930 . S
H257 C254 0.928 . S
H258 C255 0.931 . S
H259 C235 0.930 . S
H260 C232 0.930 . S
H261 C241 0.930 1_545 S
H262 C253 0.929 . S
H263 C256 0.930 . S
C264 C265 1.363 . S
C264 C270 1.379 1_556 S
C264 N272 1.356 . S
C265 C264 1.363 . S
C265 C271 1.363 . S
C266 C267 1.363 . S
C266 C271 1.379 1_554 S
C266 N273 1.356 . S
C267 C266 1.363 . S
C267 C270 1.363 . S
N268 C270 1.356 . S
N268 H280 0.984 . S
N268 H281 0.985 . S
N269 C271 1.356 . S
N269 H274 0.984 . S
N269 H275 0.985 . S
C270 C264 1.379 1_554 S
C270 C267 1.363 . S
C270 N268 1.356 . S
C271 C265 1.363 . S
C271 C266 1.379 1_556 S
C271 N269 1.356 . S
N272 C264 1.356 . S
N272 H278 0.984 . S
N272 H279 0.984 . S
N273 C266 1.356 . S
N273 H276 0.984 . S
N273 H277 0.985 . S
H274 N269 0.984 . S
H275 N269 0.985 . S
H276 N273 0.984 . S
H277 N273 0.985 . S
H278 N272 0.984 . S
H279 N272 0.984 . S
H280 N268 0.984 . S
H281 N268 0.985 . S
C282 C283 1.363 . S
C282 C288 1.379 . S
C282 N290 1.356 . S
C283 C282 1.363 . S
C283 C289 1.363 . S
C284 C285 1.363 . S
C284 C289 1.379 . S
C284 N291 1.356 . S
C285 C284 1.363 . S
C285 C288 1.363 . S
N286 C288 1.356 . S
N286 H298 0.984 . S
N286 H299 0.985 . S
N287 C289 1.356 . S
N287 H292 0.984 . S
N287 H293 0.985 . S
C288 C282 1.379 . S
C288 C285 1.363 . S
C288 N286 1.356 . S
C289 C283 1.363 . S
C289 C284 1.379 . S
C289 N287 1.356 . S
N290 C282 1.356 . S
N290 H296 0.984 . S
N290 H297 0.984 . S
N291 C284 1.356 . S
N291 H294 0.984 . S
N291 H295 0.985 . S
H292 N287 0.984 . S
H293 N287 0.985 . S
H294 N291 0.984 . S
H295 N291 0.985 . S
H296 N290 0.984 . S
H297 N290 0.984 . S
H298 N286 0.984 . S
H299 N286 0.985 . S
C300 C301 1.363 1_556 S
C300 C306 1.379 . S
C300 N308 1.356 . S
C301 C300 1.363 1_554 S
C301 C307 1.363 . S
C302 C303 1.363 1_554 S
C302 C307 1.379 . S
C302 N309 1.356 . S
C303 C302 1.363 1_556 S
C303 C306 1.363 . S
N304 C306 1.356 . S
N304 H316 0.984 . S
N304 H317 0.985 . S
N305 C307 1.356 . S
N305 H310 0.984 . S
N305 H311 0.985 . S
C306 C300 1.379 . S
C306 C303 1.363 . S
C306 N304 1.356 . S
C307 C301 1.363 . S
C307 C302 1.379 . S
C307 N305 1.356 . S
N308 C300 1.356 . S
N308 H314 0.984 . S
N308 H315 0.984 1_556 S
N309 C302 1.356 . S
N309 H312 0.984 1_554 S
N309 H313 0.985 . S
H310 N305 0.984 . S
H311 N305 0.985 . S
H312 N309 0.984 1_556 S
H313 N309 0.985 . S
H314 N308 0.984 . S
H315 N308 0.984 1_554 S
H316 N304 0.984 . S
H317 N304 0.985 . S
C318 C319 1.363 . S
C318 C324 1.379 . S
C318 N326 1.356 . S
C319 C318 1.363 . S
C319 C325 1.363 . S
C320 C321 1.363 . S
C320 C325 1.379 . S
C320 N327 1.356 . S
C321 C320 1.363 . S
C321 C324 1.363 . S
N322 C324 1.356 . S
N322 H334 0.984 . S
N322 H335 0.985 . S
N323 C325 1.356 . S
N323 H328 0.984 . S
N323 H329 0.985 . S
C324 C318 1.379 . S
C324 C321 1.363 . S
C324 N322 1.356 . S
C325 C319 1.363 . S
C325 C320 1.379 . S
C325 N323 1.356 . S
N326 C318 1.356 . S
N326 H332 0.984 . S
N326 H333 0.984 . S
N327 C320 1.356 . S
N327 H330 0.984 . S
N327 H331 0.985 . S
H328 N323 0.984 . S
H329 N323 0.985 . S
H330 N327 0.984 . S
H331 N327 0.985 . S
H332 N326 0.984 . S
H333 N326 0.984 . S
H334 N322 0.984 . S
H335 N322 0.985 . S
C336 C337 1.363 . S
C336 C342 1.379 1_554 S
C336 N344 1.356 . S
C337 C336 1.363 . S
C337 C343 1.363 . S
C338 C339 1.363 . S
C338 C343 1.379 1_556 S
C338 N345 1.356 . S
C339 C338 1.363 . S
C339 C342 1.363 . S
N340 C342 1.356 . S
N340 H352 0.984 . S
N340 H353 0.985 . S
N341 C343 1.356 . S
N341 H346 0.984 . S
N341 H347 0.985 . S
C342 C336 1.379 1_556 S
C342 C339 1.363 . S
C342 N340 1.356 . S
C343 C337 1.363 . S
C343 C338 1.379 1_554 S
C343 N341 1.356 . S
N344 C336 1.356 . S
N344 H350 0.984 . S
N344 H351 0.984 . S
N345 C338 1.356 . S
N345 H348 0.984 . S
N345 H349 0.985 . S
H346 N341 0.984 . S
H347 N341 0.985 . S
H348 N345 0.984 . S
H349 N345 0.985 . S
H350 N344 0.984 . S
H351 N344 0.984 . S
H352 N340 0.984 . S
H353 N340 0.985 . S
C354 C355 1.363 . S
C354 C360 1.379 . S
C354 N362 1.356 . S
C355 C354 1.363 . S
C355 C361 1.363 . S
C356 C357 1.363 . S
C356 C361 1.379 . S
C356 N363 1.356 . S
C357 C356 1.363 . S
C357 C360 1.363 . S
N358 C360 1.356 . S
N358 H370 0.984 . S
N358 H371 0.985 . S
N359 C361 1.356 . S
N359 H364 0.984 . S
N359 H365 0.985 . S
C360 C354 1.379 . S
C360 C357 1.363 . S
C360 N358 1.356 . S
C361 C355 1.363 . S
C361 C356 1.379 . S
C361 N359 1.356 . S
N362 C354 1.356 . S
N362 H368 0.984 . S
N362 H369 0.984 . S
N363 C356 1.356 . S
N363 H366 0.984 . S
N363 H367 0.985 . S
H364 N359 0.984 . S
H365 N359 0.985 . S
H366 N363 0.984 . S
H367 N363 0.985 . S
H368 N362 0.984 . S
H369 N362 0.984 . S
H370 N358 0.984 . S
H371 N358 0.985 . S
C372 C373 1.363 1_556 S
C372 C378 1.379 . S
C372 N380 1.356 . S
C373 C372 1.363 1_554 S
C373 C379 1.363 . S
C374 C375 1.363 1_554 S
C374 C379 1.379 . S
C374 N381 1.356 . S
C375 C374 1.363 1_556 S
C375 C378 1.363 . S
N376 C378 1.356 . S
N376 H388 0.984 . S
N376 H389 0.985 . S
N377 C379 1.356 . S
N377 H382 0.984 . S
N377 H383 0.985 . S
C378 C372 1.379 . S
C378 C375 1.363 . S
C378 N376 1.356 . S
C379 C373 1.363 . S
C379 C374 1.379 . S
C379 N377 1.356 . S
N380 C372 1.356 . S
N380 H386 0.984 . S
N380 H387 0.984 1_556 S
N381 C374 1.356 . S
N381 H384 0.984 1_554 S
N381 H385 0.985 . S
H382 N377 0.984 . S
H383 N377 0.985 . S
H384 N381 0.984 1_556 S
H385 N381 0.985 . S
H386 N380 0.984 . S
H387 N380 0.984 1_554 S
H388 N376 0.984 . S
H389 N376 0.985 . S
C390 C391 1.363 . S
C390 C396 1.379 . S
C390 N398 1.356 . S
C391 C390 1.363 . S
C391 C397 1.363 . S
C392 C393 1.363 . S
C392 C397 1.379 . S
C392 N399 1.356 . S
C393 C392 1.363 . S
C393 C396 1.363 . S
N394 C396 1.356 . S
N394 H406 0.984 . S
N394 H407 0.985 . S
N395 C397 1.356 . S
N395 H400 0.984 . S
N395 H401 0.985 . S
C396 C390 1.379 . S
C396 C393 1.363 . S
C396 N394 1.356 . S
C397 C391 1.363 . S
C397 C392 1.379 . S
C397 N395 1.356 . S
N398 C390 1.356 . S
N398 H404 0.984 . S
N398 H405 0.984 . S
N399 C392 1.356 . S
N399 H402 0.984 . S
N399 H403 0.985 . S
H400 N395 0.984 . S
H401 N395 0.985 . S
H402 N399 0.984 . S
H403 N399 0.985 . S
H404 N398 0.984 . S
H405 N398 0.984 . S
H406 N394 0.984 . S
H407 N394 0.985 . S
C408 C409 1.363 1_655 S
C408 C414 1.379 . S
C408 N416 1.356 . S
C409 C408 1.363 1_455 S
C409 C415 1.363 . S
C410 C411 1.363 1_455 S
C410 C415 1.379 . S
C410 N417 1.356 . S
C411 C410 1.363 1_655 S
C411 C414 1.363 . S
N412 C414 1.356 . S
N412 H424 0.984 . S
N412 H425 0.985 . S
N413 C415 1.356 . S
N413 H418 0.984 . S
N413 H419 0.985 . S
C414 C408 1.379 . S
C414 C411 1.363 . S
C414 N412 1.356 . S
C415 C409 1.363 . S
C415 C410 1.379 . S
C415 N413 1.356 . S
N416 C408 1.356 . S
N416 H422 0.984 . S
N416 H423 0.984 . S
N417 C410 1.356 . S
N417 H420 0.984 . S
N417 H421 0.985 . S
H418 N413 0.984 . S
H419 N413 0.985 . S
H420 N417 0.984 . S
H421 N417 0.985 . S
H422 N416 0.984 . S
H423 N416 0.984 . S
H424 N412 0.984 . S
H425 N412 0.985 . S
C426 C427 1.363 . S
C426 C432 1.379 . S
C426 N434 1.356 . S
C427 C426 1.363 . S
C427 C433 1.363 . S
C428 C429 1.363 . S
C428 C433 1.379 . S
C428 N435 1.356 . S
C429 C428 1.363 . S
C429 C432 1.363 . S
N430 C432 1.356 . S
N430 H442 0.984 . S
N430 H443 0.985 . S
N431 C433 1.356 . S
N431 H436 0.984 . S
N431 H437 0.985 . S
C432 C426 1.379 . S
C432 C429 1.363 . S
C432 N430 1.356 . S
C433 C427 1.363 . S
C433 C428 1.379 . S
C433 N431 1.356 . S
N434 C426 1.356 . S
N434 H440 0.984 . S
N434 H441 0.984 . S
N435 C428 1.356 . S
N435 H438 0.984 . S
N435 H439 0.985 . S
H436 N431 0.984 . S
H437 N431 0.985 . S
H438 N435 0.984 . S
H439 N435 0.985 . S
H440 N434 0.984 . S
H441 N434 0.984 . S
H442 N430 0.984 . S
H443 N430 0.985 . S
C444 C445 1.363 . S
C444 C450 1.379 . S
C444 N452 1.356 . S
C445 C444 1.363 . S
C445 C451 1.363 1_655 S
C446 C447 1.363 . S
C446 C451 1.379 . S
C446 N453 1.356 . S
C447 C446 1.363 . S
C447 C450 1.363 1_455 S
N448 C450 1.356 . S
N448 H460 0.984 . S
N448 H461 0.985 . S
N449 C451 1.356 . S
N449 H454 0.984 . S
N449 H455 0.985 . S
C450 C444 1.379 . S
C450 C447 1.363 1_655 S
C450 N448 1.356 . S
C451 C445 1.363 1_455 S
C451 C446 1.379 . S
C451 N449 1.356 . S
N452 C444 1.356 . S
N452 H458 0.984 . S
N452 H459 0.984 . S
N453 C446 1.356 . S
N453 H456 0.984 . S
N453 H457 0.985 . S
H454 N449 0.984 . S
H455 N449 0.985 . S
H456 N453 0.984 . S
H457 N453 0.985 . S
H458 N452 0.984 . S
H459 N452 0.984 . S
H460 N448 0.984 . S
H461 N448 0.985 . S
C462 C463 1.363 . S
C462 C468 1.379 . S
C462 N470 1.356 . S
C463 C462 1.363 . S
C463 C469 1.363 . S
C464 C465 1.363 . S
C464 C469 1.379 . S
C464 N471 1.356 . S
C465 C464 1.363 . S
C465 C468 1.363 . S
N466 C468 1.356 . S
N466 H478 0.984 . S
N466 H479 0.985 . S
N467 C469 1.356 . S
N467 H472 0.984 . S
N467 H473 0.985 . S
C468 C462 1.379 . S
C468 C465 1.363 . S
C468 N466 1.356 . S
C469 C463 1.363 . S
C469 C464 1.379 . S
C469 N467 1.356 . S
N470 C462 1.356 . S
N470 H476 0.984 . S
N470 H477 0.984 . S
N471 C464 1.356 . S
N471 H474 0.984 . S
N471 H475 0.985 . S
H472 N467 0.984 . S
H473 N467 0.985 . S
H474 N471 0.984 . S
H475 N471 0.985 . S
H476 N470 0.984 . S
H477 N470 0.984 . S
H478 N466 0.984 . S
H479 N466 0.985 . S
C480 C481 1.363 . S
C480 C486 1.379 1_565 S
C480 N488 1.356 . S
C481 C480 1.363 . S
C481 C487 1.363 . S
C482 C483 1.363 1_565 S
C482 C487 1.379 . S
C482 N489 1.356 1_565 S
C483 C482 1.363 1_545 S
C483 C486 1.363 . S
N484 C486 1.356 . S
N484 H496 0.984 . S
N484 H497 0.985 . S
N485 C487 1.356 . S
N485 H490 0.984 . S
N485 H491 0.985 . S
C486 C480 1.379 1_545 S
C486 C483 1.363 . S
C486 N484 1.356 . S
C487 C481 1.363 . S
C487 C482 1.379 . S
C487 N485 1.356 . S
N488 C480 1.356 . S
N488 H494 0.984 1_565 S
N488 H495 0.984 . S
N489 C482 1.356 1_545 S
N489 H492 0.984 . S
N489 H493 0.985 1_545 S
H490 N485 0.984 . S
H491 N485 0.985 . S
H492 N489 0.984 . S
H493 N489 0.985 1_565 S
H494 N488 0.984 1_545 S
H495 N488 0.984 . S
H496 N484 0.984 . S
H497 N484 0.985 . S
C498 C499 1.363 1_545 S
C498 C504 1.379 . S
C498 N506 1.356 1_545 S
C499 C498 1.363 1_565 S
C499 C505 1.363 1_455 S
C500 C501 1.363 1_655 S
C500 C505 1.379 1_545 S
C500 N507 1.356 . S
C501 C500 1.363 1_455 S
C501 C504 1.363 . S
N502 C504 1.356 . S
N502 H514 0.984 . S
N502 H515 0.985 . S
N503 C505 1.356 . S
N503 H508 0.984 . S
N503 H509 0.985 . S
C504 C498 1.379 . S
C504 C501 1.363 . S
C504 N502 1.356 . S
C505 C499 1.363 1_655 S
C505 C500 1.379 1_565 S
C505 N503 1.356 . S
N506 C498 1.356 1_565 S
N506 H512 0.984 1_565 S
N506 H513 0.984 . S
N507 C500 1.356 . S
N507 H510 0.984 . S
N507 H511 0.985 . S
H508 N503 0.984 . S
H509 N503 0.985 . S
H510 N507 0.984 . S
H511 N507 0.985 . S
H512 N506 0.984 1_545 S
H513 N506 0.984 . S
H514 N502 0.984 . S
H515 N502 0.985 . S
C516 C517 1.363 . S
C516 C522 1.379 1_565 S
C516 N524 1.356 . S
C517 C516 1.363 . S
C517 C523 1.363 1_565 S
C518 C519 1.363 . S
C518 C523 1.379 . S
C518 N525 1.356 . S
C519 C518 1.363 . S
C519 C522 1.363 . S
N520 C522 1.356 . S
N520 H532 0.984 . S
N520 H533 0.985 . S
N521 C523 1.356 1_565 S
N521 H526 0.984 . S
N521 H527 0.985 . S
C522 C516 1.379 1_545 S
C522 C519 1.363 . S
C522 N520 1.356 . S
C523 C517 1.363 1_545 S
C523 C518 1.379 . S
C523 N521 1.356 1_545 S
N524 C516 1.356 . S
N524 H530 0.984 . S
N524 H531 0.984 . S
N525 C518 1.356 . S
N525 H528 0.984 . S
N525 H529 0.985 . S
H526 N521 0.984 . S
H527 N521 0.985 . S
H528 N525 0.984 . S
H529 N525 0.985 . S
H530 N524 0.984 . S
H531 N524 0.984 . S
H532 N520 0.984 . S
H533 N520 0.985 . S
C534 C535 1.363 1_665 S
C534 C540 1.379 . S
C534 N542 1.356 1_565 S
C535 C534 1.363 1_445 S
C535 C541 1.363 . S
C536 C537 1.363 . S
C536 C541 1.379 1_565 S
C536 N543 1.356 . S
C537 C536 1.363 . S
C537 C540 1.363 1_455 S
N538 C540 1.356 . S
N538 H550 0.984 . S
N538 H551 0.985 . S
N539 C541 1.356 . S
N539 H544 0.984 . S
N539 H545 0.985 . S
C540 C534 1.379 . S
C540 C537 1.363 1_655 S
C540 N538 1.356 . S
C541 C535 1.363 . S
C541 C536 1.379 1_545 S
C541 N539 1.356 . S
N542 C534 1.356 1_545 S
N542 H548 0.984 1_545 S
N542 H549 0.984 . S
N543 C536 1.356 . S
N543 H546 0.984 . S
N543 H547 0.985 . S
H544 N539 0.984 . S
H545 N539 0.985 . S
H546 N543 0.984 . S
H547 N543 0.985 . S
H548 N542 0.984 1_565 S
H549 N542 0.984 . S
H550 N538 0.984 . S
H551 N538 0.985 . S
C552 C553 1.363 . S
C552 C558 1.379 . S
C552 N560 1.356 . S
C553 C552 1.363 . S
C553 C559 1.363 1_556 S
C554 C555 1.363 . S
C554 C559 1.379 . S
C554 N561 1.356 . S
C555 C554 1.363 . S
C555 C558 1.363 1_554 S
N556 C558 1.356 . S
N556 H568 0.984 . S
N556 H569 0.985 1_556 S
N557 C559 1.356 . S
N557 H562 0.984 1_554 S
N557 H563 0.985 . S
C558 C552 1.379 . S
C558 C555 1.363 1_556 S
C558 N556 1.356 . S
C559 C553 1.363 1_554 S
C559 C554 1.379 . S
C559 N557 1.356 . S
N560 C552 1.356 . S
N560 H566 0.984 . S
N560 H567 0.984 . S
N561 C554 1.356 . S
N561 H564 0.984 . S
N561 H565 0.985 . S
H562 N557 0.984 1_556 S
H563 N557 0.985 . S
H564 N561 0.984 . S
H565 N561 0.985 . S
H566 N560 0.984 . S
H567 N560 0.984 . S
H568 N556 0.984 . S
H569 N556 0.985 1_554 S
C570 C571 1.363 . S
C570 C576 1.379 . S
C570 N578 1.356 . S
C571 C570 1.363 . S
C571 C577 1.363 . S
C572 C573 1.363 . S
C572 C577 1.379 . S
C572 N579 1.356 . S
C573 C572 1.363 . S
C573 C576 1.363 . S
N574 C576 1.356 . S
N574 H586 0.984 . S
N574 H587 0.985 . S
N575 C577 1.356 . S
N575 H580 0.984 . S
N575 H581 0.985 . S
C576 C570 1.379 . S
C576 C573 1.363 . S
C576 N574 1.356 . S
C577 C571 1.363 . S
C577 C572 1.379 . S
C577 N575 1.356 . S
N578 C570 1.356 . S
N578 H584 0.984 . S
N578 H585 0.984 . S
N579 C572 1.356 . S
N579 H582 0.984 . S
N579 H583 0.985 . S
H580 N575 0.984 . S
H581 N575 0.985 . S
H582 N579 0.984 . S
H583 N579 0.985 . S
H584 N578 0.984 . S
H585 N578 0.984 . S
H586 N574 0.984 . S
H587 N574 0.985 . S
C588 C589 1.363 1_554 S
C588 C594 1.380 . S
C588 N596 1.356 . S
C589 C588 1.363 1_556 S
C589 C595 1.362 1_545 S
C590 C591 1.363 1_556 S
C590 C595 1.380 . S
C590 N597 1.356 . S
C591 C590 1.363 1_554 S
C591 C594 1.362 1_565 S
N592 C594 1.356 1_565 S
N592 H604 0.984 1_565 S
N592 H605 0.985 . S
N593 C595 1.356 1_545 S
N593 H598 0.984 . S
N593 H599 0.985 1_545 S
C594 C588 1.380 . S
C594 C591 1.362 1_545 S
C594 N592 1.356 1_545 S
C595 C589 1.362 1_565 S
C595 C590 1.380 . S
C595 N593 1.356 1_565 S
N596 C588 1.356 . S
N596 H602 0.984 . S
N596 H603 0.984 1_554 S
N597 C590 1.356 . S
N597 H600 0.984 1_556 S
N597 H601 0.985 . S
H598 N593 0.984 . S
H599 N593 0.985 1_565 S
H600 N597 0.984 1_554 S
H601 N597 0.985 . S
H602 N596 0.984 . S
H603 N596 0.984 1_556 S
H604 N592 0.984 1_545 S
H605 N592 0.985 . S
C606 C607 1.363 1_455 S
C606 C612 1.379 1_565 S
C606 N614 1.356 . S
C607 C606 1.363 1_655 S
C607 C613 1.363 . S
C608 C609 1.363 . S
C608 C613 1.379 1_545 S
C608 N615 1.356 . S
C609 C608 1.363 . S
C609 C612 1.363 1_655 S
N610 C612 1.356 . S
N610 H622 0.984 . S
N610 H623 0.985 . S
N611 C613 1.356 . S
N611 H616 0.984 . S
N611 H617 0.985 . S
C612 C606 1.379 1_545 S
C612 C609 1.363 1_455 S
C612 N610 1.356 . S
C613 C607 1.363 . S
C613 C608 1.379 1_565 S
C613 N611 1.356 . S
N614 C606 1.356 . S
N614 H620 0.984 . S
N614 H621 0.984 . S
N615 C608 1.356 . S
N615 H618 0.984 . S
N615 H619 0.985 . S
H616 N611 0.984 . S
H617 N611 0.985 . S
H618 N615 0.984 . S
H619 N615 0.985 . S
H620 N614 0.984 . S
H621 N614 0.984 . S
H622 N610 0.984 . S
H623 N610 0.985 . S
C265 C219 1.816 . S
C267 C18 1.829 . S
C283 C51 1.829 . S
C285 C252 1.816 . S
C301 C153 1.816 . S
C303 C84 1.829 . S
C319 C117 1.829 . S
C321 C186 1.816 . S
C337 C150 1.829 . S
C339 C87 1.816 . S
C355 C183 1.829 . S
C357 C120 1.816 . S
C373 C21 1.816 . S
C375 C216 1.829 . S
C391 C54 1.816 . S
C393 C249 1.829 . S
C409 C7 1.914 . S
C411 N233 1.871 . S
C427 C40 1.914 . S
C429 N200 1.871 . S
C445 N167 1.871 . S
C447 C73 1.914 . S
C463 C106 1.914 . S
C465 N134 1.871 . S
C481 C139 1.914 . S
C483 N101 1.871 . S
C499 N68 1.871 . S
C501 C172 1.914 . S
C517 N35 1.871 . S
C519 C205 1.914 . S
C535 N2 1.871 . S
C537 C238 1.914 . S
C553 N79 0.409 . S
C555 N13 0.409 . S
C571 N46 0.409 . S
C573 N112 0.409 . S
C589 N211 0.409 . S
C591 N145 0.409 . S
C607 N244 0.409 . S
C609 N178 0.409 . S
