# Generated by pormake.
# Topology ukg, (4)-cn, num edge types: 1
# Building blocks:
#     Node 0, Type 0, BuildingBlock: CEKHIL_clean_sbu_0, # of connection points: 4
#     Node 1, Type 0, BuildingBlock: CEKHIL_clean_sbu_0, # of connection points: 4
#     Node 2, Type 0, BuildingBlock: CEKHIL_clean_sbu_0, # of connection points: 4
#     Node 3, Type 0, BuildingBlock: CEKHIL_clean_sbu_0, # of connection points: 4
#     Node 4, Type 0, BuildingBlock: CEKHIL_clean_sbu_0, # of connection points: 4
#     Node 5, Type 0, BuildingBlock: CEKHIL_clean_sbu_0, # of connection points: 4
#     Node 6, Type 0, BuildingBlock: CEKHIL_clean_sbu_0, # of connection points: 4
#     Node 7, Type 0, BuildingBlock: CEKHIL_clean_sbu_0, # of connection points: 4
#     Edge 8, Type (0, 0), BuildingBlock: TEMPAE_clean_linker_10, # of connection points: 2
#     Edge 9, Type (0, 0), BuildingBlock: TEMPAE_clean_linker_10, # of connection points: 2
#     Edge 10, Type (0, 0), BuildingBlock: TEMPAE_clean_linker_10, # of connection points: 2
#     Edge 11, Type (0, 0), BuildingBlock: TEMPAE_clean_linker_10, # of connection points: 2
#     Edge 12, Type (0, 0), BuildingBlock: TEMPAE_clean_linker_10, # of connection points: 2
#     Edge 13, Type (0, 0), BuildingBlock: TEMPAE_clean_linker_10, # of connection points: 2
#     Edge 14, Type (0, 0), BuildingBlock: TEMPAE_clean_linker_10, # of connection points: 2
#     Edge 15, Type (0, 0), BuildingBlock: TEMPAE_clean_linker_10, # of connection points: 2
#     Edge 16, Type (0, 0), BuildingBlock: TEMPAE_clean_linker_10, # of connection points: 2
#     Edge 17, Type (0, 0), BuildingBlock: TEMPAE_clean_linker_10, # of connection points: 2
#     Edge 18, Type (0, 0), BuildingBlock: TEMPAE_clean_linker_10, # of connection points: 2
#     Edge 19, Type (0, 0), BuildingBlock: TEMPAE_clean_linker_10, # of connection points: 2
#     Edge 20, Type (0, 0), BuildingBlock: TEMPAE_clean_linker_10, # of connection points: 2
#     Edge 21, Type (0, 0), BuildingBlock: TEMPAE_clean_linker_10, # of connection points: 2
#     Edge 22, Type (0, 0), BuildingBlock: TEMPAE_clean_linker_10, # of connection points: 2
#     Edge 23, Type (0, 0), BuildingBlock: TEMPAE_clean_linker_10, # of connection points: 2
# Relax obj value: 0.122
# Max RMSD: 0.207
# Mean RMSD: 0.202
data_MOF--net-ukg--node1-CEKHIL_clean_sbu_0--edge1-TEMPAE_clean_linker_10
_symmetry_space_group_name_H-M    P1
_symmetry_Int_Tables_number       1
_symmetry_cell_setting            triclinic
loop_
_symmetry_equiv_pos_as_xyz
'x, y, z'
_cell_length_a     30.601752
_cell_length_b     30.097155
_cell_length_c     37.981834
_cell_angle_alpha  90.000869
_cell_angle_beta   90.008574
_cell_angle_gamma 89.663439
loop_
_atom_site_label
_atom_site_type_symbol
_atom_site_fract_x
_atom_site_fract_y
_atom_site_fract_z
_atom_type_partial_charge
Co0 Co 0.02535 0.62238 0.15759 0.0
O1 O 0.05234 0.56597 0.14728 0.0
O2 O 0.03639 0.61715 0.10748 0.0
C3 C 0.97172 0.59412 0.19184 0.0
O4 O 0.99553 0.68332 0.15811 0.0
Co5 Co 0.01919 0.65854 0.23395 0.0
O6 O 0.9708 0.69377 0.21313 0.0
C7 C 0.10004 0.67335 0.19225 0.0
C8 C 0.05026 0.5771 0.11432 0.0
C9 C 0.97136 0.70393 0.18061 0.0
O10 O 0.08412 0.6516 0.16596 0.0
O11 O 0.07984 0.67837 0.22156 0.0
O12 O 0.96847 0.59376 0.15782 0.0
O13 O 0.00868 0.60788 0.20413 0.0
Co14 Co 0.32041 0.49593 0.63283 0.0
O15 O 0.37722 0.50597 0.61313 0.0
O16 O 0.32033 0.48233 0.5826 0.0
C17 C 0.34504 0.45757 0.67984 0.0
O18 O 0.25759 0.47888 0.64612 0.0
Co19 Co 0.29973 0.53625 0.7068 0.0
O20 O 0.2473 0.49879 0.7029 0.0
C21 C 0.29335 0.59288 0.64354 0.0
C22 C 0.36179 0.49196 0.58347 0.0
C23 C 0.2346 0.48005 0.67465 0.0
O24 O 0.30246 0.55979 0.62327 0.0
O25 O 0.2932 0.59058 0.67717 0.0
O26 O 0.33968 0.43798 0.64974 0.0
O27 O 0.3396 0.50013 0.67968 0.0
Co28 Co 0.47115 0.86972 0.1574 0.0
O29 O 0.44719 0.92569 0.14223 0.0
O30 O 0.4618 0.86916 0.10689 0.0
C31 C 0.52527 0.89945 0.19038 0.0
O32 O 0.49778 0.80784 0.16342 0.0
Co33 Co 0.47298 0.84345 0.23633 0.0
O34 O 0.51973 0.80275 0.2197 0.0
C35 C 0.39283 0.82728 0.19406 0.0
C36 C 0.4495 0.91041 0.11035 0.0
C37 C 0.51967 0.78864 0.1881 0.0
O38 O 0.41086 0.84454 0.16659 0.0
O39 O 0.41165 0.82539 0.22418 0.0
O40 O 0.52938 0.89527 0.15658 0.0
O41 O 0.48727 0.88934 0.2029 0.0
Co42 Co 0.1728 0.99503 0.62651 0.0
O43 O 0.12327 0.97728 0.59887 0.0
O44 O 0.18125 0.01177 0.57756 0.0
C45 C 0.13435 0.02772 0.67002 0.0
O46 O 0.229 0.01997 0.64847 0.0
Co47 Co 0.18436 0.95579 0.70209 0.0
O48 O 0.22299 0.00777 0.70683 0.0
C49 C 0.21135 0.90283 0.64004 0.0
C50 C 0.14247 0.99546 0.57219 0.0
C51 C 0.24103 0.02673 0.68064 0.0
O52 O 0.20119 0.93477 0.61893 0.0
O53 O 0.2053 0.90429 0.67337 0.0
O54 O 0.14227 0.04884 0.64099 0.0
O55 O 0.14542 0.98622 0.67019 0.0
Co56 Co 0.98183 0.28174 0.88005 0.0
O57 O 0.93913 0.25733 0.91157 0.0
O58 O 0.92633 0.3127 0.87472 0.0
C59 C 0.00528 0.21608 0.85853 0.0
O60 O 0.01815 0.31342 0.8422 0.0
Co61 Co 0.08013 0.2595 0.89271 0.0
O62 O 0.08689 0.28614 0.84551 0.0
C63 C 0.0381 0.33057 0.93455 0.0
C64 C 0.91111 0.28456 0.89765 0.0
C65 C 0.05771 0.30991 0.83056 0.0
O66 O 0.00215 0.32519 0.91737 0.0
O67 O 0.07199 0.3061 0.92993 0.0
O68 O 0.96994 0.23465 0.84664 0.0
O69 O 0.02256 0.23509 0.8857 0.0
Co70 Co 0.61364 0.46696 0.33473 0.0
O71 O 0.56225 0.44197 0.35609 0.0
O72 O 0.61763 0.47088 0.38558 0.0
C73 C 0.578 0.50993 0.2953 0.0
O74 O 0.67113 0.49677 0.32113 0.0
Co75 Co 0.63292 0.44807 0.25531 0.0
O76 O 0.67506 0.49727 0.26182 0.0
C77 C 0.65451 0.38023 0.30899 0.0
C78 C 0.57867 0.45373 0.38611 0.0
C79 C 0.6889 0.50921 0.29199 0.0
O80 O 0.64402 0.40721 0.33396 0.0
O81 O 0.64876 0.38882 0.27627 0.0
O82 O 0.58268 0.52275 0.32764 0.0
O83 O 0.59059 0.4697 0.28876 0.0
Co84 Co 0.52328 0.20256 0.87381 0.0
O85 O 0.56371 0.22588 0.90787 0.0
O86 O 0.58034 0.17528 0.86779 0.0
C87 C 0.49658 0.269 0.85647 0.0
O88 O 0.49064 0.17287 0.83292 0.0
Co89 Co 0.42318 0.21703 0.88177 0.0
O90 O 0.4246 0.20592 0.83036 0.0
C91 C 0.4668 0.14496 0.92197 0.0
C92 C 0.59349 0.20173 0.89273 0.0
C93 C 0.45481 0.18242 0.81658 0.0
O94 O 0.50385 0.15441 0.90764 0.0
O95 O 0.43166 0.16711 0.91613 0.0
O96 O 0.53334 0.25404 0.84413 0.0
O97 O 0.47951 0.24561 0.88145 0.0
Co98 Co 0.88908 0.02884 0.32347 0.0
O99 O 0.94544 0.04852 0.33908 0.0
O100 O 0.89215 0.02775 0.37467 0.0
C101 C 0.91474 0.98136 0.28239 0.0
O102 O 0.82748 0.00452 0.31565 0.0
Co103 Co 0.86159 0.04865 0.24578 0.0
O104 O 0.81602 0.00419 0.25689 0.0
C105 C 0.85255 0.11873 0.29973 0.0
C106 C 0.93261 0.04012 0.37086 0.0
C107 C 0.80514 0.99369 0.28818 0.0
O108 O 0.86467 0.0913 0.3239 0.0
O109 O 0.8528 0.1093 0.26684 0.0
O110 O 0.91319 0.96994 0.31528 0.0
O111 O 0.90537 0.02248 0.27591 0.0
C112 C 0.00416 0.38705 0.97515 0.0
C113 C 0.04154 0.36808 0.95981 0.0
C114 C 0.00756 0.42242 -0.00079 0.0
C115 C 0.04924 0.43987 0.00756 0.0
C116 C 0.08696 0.42154 0.9915 0.0
C117 C 0.0827 0.38566 0.96814 0.0
C118 C 0.9666 0.44056 0.01623 0.0
C119 C 0.13189 0.43967 -0.00086 0.0
C120 C 0.05144 0.55431 0.05065 0.0
C121 C 0.05622 0.5432 0.08632 0.0
C122 C 0.05041 0.52114 0.02453 0.0
C123 C 0.05357 0.47581 0.0344 0.0
C124 C 0.05986 0.46457 0.07023 0.0
C125 C 0.06147 0.49835 0.09565 0.0
C126 C 0.04463 0.53451 0.98651 0.0
C127 C 0.06312 0.4167 0.08196 0.0
H128 H 0.97228 0.3737 0.96886 0.0
H129 H 0.11176 0.3717 0.95602 0.0
H130 H 0.96858 0.43625 0.0452 0.0
H131 H 0.96353 0.4767 0.01099 0.0
H132 H 0.93664 0.42383 0.00656 0.0
H133 H 0.15765 0.42341 0.98296 0.0
H134 H 0.13253 0.47596 0.99402 0.0
H135 H 0.13998 0.4347 0.02734 0.0
H136 H 0.0473 0.58885 0.04322 0.0
H137 H 0.065 0.48934 0.12314 0.0
H138 H 0.01258 0.52268 0.97674 0.0
H139 H 0.07025 0.51869 0.96999 0.0
H140 H 0.04613 0.57109 0.98286 0.0
H141 H 0.0324 0.39912 0.07537 0.0
H142 H 0.069 0.41356 0.11072 0.0
H143 H 0.09002 0.39953 0.06778 0.0
C144 C 0.38226 0.49543 0.51944 0.0
C145 C 0.39198 0.48277 0.55401 0.0
C146 C 0.41328 0.48949 0.49237 0.0
C147 C 0.4541 0.46891 0.49999 0.0
C148 C 0.46307 0.45451 0.53471 0.0
C149 C 0.43228 0.46239 0.56135 0.0
C150 C 0.40298 0.50645 0.4559 0.0
C151 C 0.50533 0.43099 0.54382 0.0
C152 C 0.51857 0.42194 0.42252 0.0
C153 C 0.55096 0.45417 0.41798 0.0
C154 C 0.48761 0.42561 0.44973 0.0
C155 C 0.48797 0.46338 0.472 0.0
C156 C 0.52098 0.49579 0.4677 0.0
C157 C 0.55255 0.49037 0.44111 0.0
C158 C 0.45418 0.38939 0.45433 0.0
C159 C 0.52195 0.53707 0.49027 0.0
H160 H 0.3512 0.51146 0.51388 0.0
H161 H 0.4396 0.45221 0.58812 0.0
H162 H 0.42767 0.53139 0.44794 0.0
H163 H 0.40474 0.47885 0.4366 0.0
H164 H 0.37002 0.522 0.45432 0.0
H165 H 0.50582 0.41893 0.57146 0.0
H166 H 0.51048 0.40221 0.526 0.0
H167 H 0.53325 0.4538 0.54001 0.0
H168 H 0.51719 0.39405 0.4045 0.0
H169 H 0.57702 0.5158 0.43718 0.0
H170 H 0.42101 0.40274 0.44889 0.0
H171 H 0.45436 0.37734 0.48195 0.0
H172 H 0.46031 0.36072 0.43654 0.0
H173 H 0.4907 0.55563 0.4874 0.0
H174 H 0.54928 0.55949 0.48316 0.0
H175 H 0.52524 0.5279 0.51842 0.0
C176 C 0.4541 0.92628 0.04547 0.0
C177 C 0.44516 0.94088 0.07982 0.0
C178 C 0.45666 0.95664 0.01734 0.0
C179 C 0.45055 0.00263 0.02385 0.0
C180 C 0.43998 0.01726 0.05824 0.0
C181 C 0.43717 0.98624 0.08569 0.0
C182 C 0.4672 0.93968 0.98091 0.0
C183 C 0.43317 0.06595 0.06637 0.0
C184 C 0.5007 0.09035 0.96418 0.0
C185 C 0.46383 0.10634 0.94618 0.0
C186 C 0.49713 0.05561 0.9888 0.0
C187 C 0.45586 0.03592 0.99509 0.0
C188 C 0.41897 0.05063 0.97582 0.0
C189 C 0.42331 0.08583 0.95187 0.0
C190 C 0.53719 0.04115 0.00907 0.0
C191 C 0.37457 0.03005 0.98122 0.0
H192 H 0.46044 0.89132 0.04072 0.0
H193 H 0.43028 -0.00209 0.11212 0.0
H194 H 0.44291 0.95243 0.96165 0.0
H195 H 0.49968 0.95208 0.97264 0.0
H196 H 0.46764 0.90281 0.97967 0.0
H197 H 0.42439 0.0718 0.09438 0.0
H198 H 0.46346 0.08459 0.06039 0.0
H199 H 0.40685 0.07989 0.04952 0.0
H200 H 0.53209 0.10595 0.9599 0.0
H201 H 0.39473 0.09746 0.93766 0.0
H202 H 0.54191 0.0047 0.00678 0.0
H203 H 0.53267 0.04881 0.03743 0.0
H204 H 0.56726 0.05793 -0.00028 0.0
H205 H 0.37684 0.99334 0.97908 0.0
H206 H 0.35014 0.04233 0.96183 0.0
H207 H 0.36253 0.03787 0.00807 0.0
C208 C 0.00868 0.02861 0.39212 0.0
C209 C 0.96483 0.03834 0.39996 0.0
C210 C 0.0397 0.02226 0.41887 0.0
C211 C 0.027 0.02727 0.45446 0.0
C212 C 0.98307 0.03878 0.46255 0.0
C213 C 0.95225 0.04333 0.43519 0.0
C214 C 0.08564 0.00844 0.40905 0.0
C215 C 0.96854 0.04574 0.50012 0.0
C216 C 0.09062 0.96807 0.52682 0.0
C217 C 0.11819 0.00173 0.53898 0.0
C218 C 0.06183 0.97556 0.49861 0.0
C219 C 0.05924 0.01835 0.48316 0.0
C220 C 0.08748 0.05236 0.49513 0.0
C221 C 0.11719 0.04338 0.52255 0.0
C222 C 0.03362 0.93787 0.48579 0.0
C223 C 0.08493 0.09871 0.48006 0.0
H224 H 0.0185 0.02406 0.36492 0.0
H225 H 0.91842 0.05088 0.44132 0.0
H226 H 0.1096 0.03222 0.42002 0.0
H227 H 0.09314 0.97539 0.42062 0.0
H228 H 0.09041 0.0065 0.3801 0.0
H229 H 0.93448 0.05854 0.5018 0.0
H230 H 0.97052 0.01389 0.51473 0.0
H231 H 0.99057 0.06953 0.51353 0.0
H232 H 0.09122 0.93594 0.53974 0.0
H233 H 0.13783 0.0697 0.53253 0.0
H234 H 0.03724 0.93381 0.4569 0.0
H235 H 0.99875 0.94551 0.49111 0.0
H236 H 0.04203 0.90584 0.49875 0.0
H237 H 0.09015 0.09786 0.45118 0.0
H238 H 0.10942 0.12129 0.49199 0.0
H239 H 0.05181 0.11278 0.48466 0.0
C240 C 0.17567 0.67984 0.16632 0.0
C241 C 0.14259 0.69638 0.18835 0.0
C242 C 0.21646 0.70125 0.16409 0.0
C243 C 0.22385 0.74069 0.18364 0.0
C244 C 0.18982 0.75841 0.2047 0.0
C245 C 0.14995 0.73585 0.20709 0.0
C246 C 0.25214 0.68084 0.14183 0.0
C247 C 0.19582 0.80078 0.22544 0.0
C248 C 0.33768 0.77203 0.21451 0.0
C249 C 0.34947 0.8055 0.1906 0.0
C250 C 0.29769 0.74976 0.21166 0.0
C251 C 0.26802 0.76165 0.18462 0.0
C252 C 0.27967 0.79525 0.16023 0.0
C253 C 0.32048 0.81645 0.16326 0.0
C254 C 0.28703 0.71372 0.23793 0.0
C255 C 0.24862 0.80947 0.13144 0.0
H256 H 0.17014 0.64945 0.1517 0.0
H257 H 0.12426 0.74938 0.22365 0.0
H258 H 0.26536 0.7058 0.12324 0.0
H259 H 0.27952 0.66994 0.159 0.0
H260 H 0.24048 0.65174 0.12656 0.0
H261 H 0.16496 0.8123 0.23795 0.0
H262 H 0.22054 0.79541 0.24639 0.0
H263 H 0.20813 0.82755 0.20805 0.0
H264 H 0.36008 0.76268 0.23536 0.0
H265 H 0.32935 0.84213 0.14461 0.0
H266 H 0.2779 0.68274 0.22398 0.0
H267 H 0.25855 0.72402 0.25413 0.0
H268 H 0.31483 0.70629 0.25584 0.0
H269 H 0.23887 0.78036 0.11542 0.0
H270 H 0.26313 0.83483 0.11377 0.0
H271 H 0.21839 0.82349 0.14329 0.0
C272 C 0.30414 0.6574 0.60259 0.0
C273 C 0.27936 0.6356 0.62825 0.0
C274 C 0.29503 0.70202 0.59386 0.0
C275 C 0.26031 0.72462 0.61112 0.0
C276 C 0.23278 0.70098 0.63442 0.0
C277 C 0.2429 0.65693 0.64285 0.0
C278 C 0.32466 0.72579 0.56847 0.0
C279 C 0.19494 0.72329 0.65306 0.0
C280 C 0.26467 0.84127 0.64548 0.0
C281 C 0.23131 0.86177 0.62608 0.0
C282 C 0.2781 0.7978 0.63802 0.0
C283 C 0.25707 0.77396 0.61077 0.0
C284 C 0.22645 0.79606 0.58877 0.0
C285 C 0.21393 0.84007 0.59665 0.0
C286 C 0.3115 0.77601 0.66179 0.0
C287 C 0.20395 0.7721 0.55907 0.0
H288 H 0.33226 0.6407 0.59118 0.0
H289 H 0.22332 0.63964 0.66226 0.0
H290 H 0.30612 0.75005 0.55222 0.0
H291 H 0.34967 0.74443 0.5835 0.0
H292 H 0.34187 0.70204 0.55079 0.0
H293 H 0.17383 0.69902 0.66695 0.0
H294 H 0.20764 0.74722 0.67275 0.0
H295 H 0.17451 0.7422 0.6341 0.0
H296 H 0.27868 0.85848 0.66786 0.0
H297 H 0.18828 0.8561 0.58149 0.0
H298 H 0.33583 0.75705 0.64612 0.0
H299 H 0.29487 0.75221 0.67957 0.0
H300 H 0.32908 0.80064 0.67826 0.0
H301 H 0.22679 0.74904 0.54547 0.0
H302 H 0.19013 0.79578 0.53953 0.0
H303 H 0.17674 0.75207 0.56987 0.0
C304 C 0.67284 0.18961 0.87893 0.0
C305 C 0.64051 0.20982 0.89972 0.0
C306 C 0.7168 0.20265 0.88144 0.0
C307 C 0.72872 0.23677 0.90526 0.0
C308 C 0.69651 0.25594 0.92736 0.0
C309 C 0.65287 0.24219 0.92437 0.0
C310 C 0.75026 0.18098 0.85769 0.0
C311 C 0.70783 0.2922 0.95322 0.0
C312 C 0.84951 0.24555 0.92742 0.0
C313 C 0.86361 0.27814 0.90358 0.0
C314 C 0.80551 0.23273 0.92903 0.0
C315 C 0.77468 0.25307 0.90635 0.0
C316 C 0.78824 0.28768 0.88355 0.0
C317 C 0.83258 0.29979 0.88241 0.0
C318 C 0.79247 0.19591 0.95385 0.0
C319 C 0.75625 0.31057 0.85923 0.0
H320 H 0.6636 0.1647 0.85975 0.0
H321 H 0.62814 0.25808 0.94055 0.0
H322 H 0.76395 0.20611 0.83945 0.0
H323 H 0.7778 0.1676 0.87355 0.0
H324 H 0.73619 0.15352 0.84187 0.0
H325 H 0.67958 0.30175 0.97002 0.0
H326 H 0.73513 0.28136 0.97048 0.0
H327 H 0.71899 0.32206 0.93873 0.0
H328 H 0.8732 0.22864 0.94396 0.0
H329 H 0.84317 0.32487 0.86385 0.0
H330 H 0.78227 0.16641 0.93844 0.0
H331 H 0.7641 0.20637 0.97009 0.0
H332 H 0.81958 0.1859 0.97167 0.0
H333 H 0.74382 0.28641 0.83963 0.0
H334 H 0.77126 0.33883 0.84493 0.0
H335 H 0.7277 0.32311 0.87434 0.0
C336 C 0.6734 0.3008 0.29825 0.0
C337 C 0.67981 0.33979 0.31761 0.0
C338 C 0.70252 0.26483 0.30123 0.0
C339 C 0.73979 0.26861 0.32318 0.0
C340 C 0.74536 0.30722 0.34397 0.0
C341 C 0.71489 0.3422 0.34127 0.0
C342 C 0.6946 0.22369 0.27944 0.0
C343 C 0.78504 0.31299 0.36709 0.0
C344 C 0.80221 0.16102 0.33909 0.0
C345 C 0.83094 0.16068 0.31031 0.0
C346 C 0.77354 0.19695 0.34476 0.0
C347 C 0.77452 0.23379 0.3216 0.0
C348 C 0.80604 0.23511 0.29429 0.0
C349 C 0.83339 0.19821 0.28862 0.0
C350 C 0.73997 0.19383 0.37376 0.0
C351 C 0.80914 0.27438 0.2697 0.0
H352 H 0.64626 0.29898 0.27995 0.0
H353 H 0.72027 0.37268 0.35583 0.0
H354 H 0.71945 0.2214 0.25824 0.0
H355 H 0.6979 0.19345 0.29596 0.0
H356 H 0.66167 0.22387 0.2671 0.0
H357 H 0.78179 0.34215 0.38485 0.0
H358 H 0.79093 0.28287 0.38327 0.0
H359 H 0.81428 0.31775 0.35025 0.0
H360 H 0.79982 0.13179 0.35566 0.0
H361 H 0.85567 0.19804 0.26642 0.0
H362 H 0.70729 0.18813 0.36196 0.0
H363 H 0.73808 0.22532 0.38884 0.0
H364 H 0.74724 0.16618 0.39228 0.0
H365 H 0.78013 0.27521 0.25218 0.0
H366 H 0.83894 0.27287 0.25303 0.0
H367 H 0.80937 0.30591 0.28485 0.0
C368 C 0.76792 0.51061 0.30574 0.0
C369 C 0.73099 0.53247 0.29238 0.0
C370 C 0.81012 0.52387 0.29579 0.0
C371 C 0.81516 0.56043 0.27263 0.0
C372 C 0.77795 0.58559 0.26249 0.0
C373 C 0.73617 0.57074 0.27191 0.0
C374 C 0.84868 0.49563 0.30679 0.0
C375 C 0.78186 0.62564 0.2388 0.0
C376 C 0.92862 0.60212 0.24783 0.0
C377 C 0.93386 0.58321 0.21433 0.0
C378 C 0.89028 0.59493 0.26749 0.0
C379 C 0.85729 0.56705 0.2537 0.0
C380 C 0.86356 0.5463 0.22058 0.0
C381 C 0.9014 0.5552 0.20113 0.0
C382 C 0.88432 0.61854 0.30221 0.0
C383 C 0.82986 0.5153 0.20523 0.0
H384 H 0.76376 0.48052 0.32107 0.0
H385 H 0.70745 0.5874 0.26142 0.0
H386 H 0.85878 0.47429 0.28435 0.0
H387 H 0.87701 0.51656 0.31396 0.0
H388 H 0.84061 0.47379 0.32944 0.0
H389 H 0.75155 0.64616 0.23895 0.0
H390 H 0.80975 0.64667 0.24695 0.0
H391 H 0.78805 0.61451 0.21139 0.0
H392 H 0.95366 0.62384 0.25812 0.0
H393 H 0.90557 0.54019 0.17538 0.0
H394 H 0.87445 0.59478 0.32302 0.0
H395 H 0.85768 0.64352 0.29973 0.0
H396 H 0.91451 0.63578 0.31077 0.0
H397 H 0.82154 0.48901 0.22455 0.0
H398 H 0.84134 0.49915 0.18059 0.0
H399 H 0.79941 0.53405 0.19934 0.0
C400 C 0.36045 0.38642 0.71078 0.0
C401 C 0.35876 0.43291 0.71152 0.0
C402 C 0.37845 0.36238 0.73886 0.0
C403 C 0.39548 0.38551 0.76821 0.0
C404 C 0.39134 0.43231 0.77011 0.0
C405 C 0.37287 0.45554 0.74166 0.0
C406 C 0.38178 0.31244 0.73596 0.0
C407 C 0.40878 0.45802 0.80114 0.0
C408 C 0.42801 0.31268 0.84553 0.0
C409 C 0.47201 0.304 0.83764 0.0
C410 C 0.40285 0.34095 0.82409 0.0
C411 C 0.4224 0.36105 0.79437 0.0
C412 C 0.46746 0.35449 0.78763 0.0
C413 C 0.4917 0.32604 0.80936 0.0
C414 C 0.3549 0.34726 0.83208 0.0
C415 C 0.48962 0.37558 0.7563 0.0
H416 H 0.349 0.36876 0.6877 0.0
H417 H 0.37127 0.49152 0.74243 0.0
H418 H 0.41628 0.30281 0.73094 0.0
H419 H 0.37161 0.29631 0.76088 0.0
H420 H 0.36134 0.29929 0.7142 0.0
H421 H 0.39745 0.49316 0.801 0.0
H422 H 0.39866 0.44232 0.82625 0.0
H423 H 0.44503 0.45765 0.80042 0.0
H424 H 0.41271 0.29593 0.86753 0.0
H425 H 0.52582 0.31981 0.80334 0.0
H426 H 0.33521 0.32923 0.81221 0.0
H427 H 0.34566 0.3829 0.83044 0.0
H428 H 0.34615 0.33456 0.85861 0.0
H429 H 0.47612 0.36144 0.73163 0.0
H430 H 0.52554 0.37002 0.75643 0.0
H431 H 0.48315 0.41188 0.75585 0.0
C432 C 0.56437 0.90185 0.24864 0.0
C433 C 0.56291 0.91205 0.21262 0.0
C434 C 0.60167 0.91161 0.26893 0.0
C435 C 0.63775 0.93287 0.25288 0.0
C436 C 0.63572 0.94425 0.21671 0.0
C437 C 0.5986 0.9333 0.19704 0.0
C438 C 0.60296 0.89823 0.30719 0.0
C439 C 0.67302 0.96769 0.19855 0.0
C440 C 0.72567 -0.00045 0.29812 0.0
C441 C 0.76226 0.9726 0.29187 0.0
C442 C 0.68363 0.98529 0.28868 0.0
C443 C 0.67834 0.9429 0.27302 0.0
C444 C 0.71478 0.91379 0.27043 0.0
C445 C 0.75653 0.92932 0.27934 0.0
C446 C 0.64595 0.01766 0.29158 0.0
C447 C 0.71054 0.86798 0.25467 0.0
H448 H 0.5369 0.88522 0.26076 0.0
H449 H 0.59751 0.94155 0.16926 0.0
H450 H 0.62914 0.87309 0.31128 0.0
H451 H 0.61096 0.92726 0.32393 0.0
H452 H 0.57145 0.88404 0.3162 0.0
H453 H 0.66533 0.97616 0.17076 0.0
H454 H 0.68111 -0.00123 0.21278 0.0
H455 H 0.70262 0.94623 0.19887 0.0
H456 H 0.73039 0.0334 0.30711 0.0
H457 H 0.78505 0.90882 0.274 0.0
H458 H 0.6159 0.00076 0.30066 0.0
H459 H 0.63902 0.03196 0.26521 0.0
H460 H 0.65339 0.04537 0.30992 0.0
H461 H 0.68057 0.8514 0.26434 0.0
H462 H 0.73931 0.84669 0.26092 0.0
H463 H 0.70791 0.87078 0.22562 0.0
C464 C 0.07145 0.17186 0.84105 0.0
C465 C 0.02641 0.17985 0.83864 0.0
C466 C 0.09229 0.1427 0.81741 0.0
C467 C 0.06722 0.121 0.79124 0.0
C468 C 0.02131 0.12654 0.79057 0.0
C469 C 0.00152 0.15603 0.8142 0.0
C470 C 0.14133 0.1375 0.81891 0.0
C471 C 0.99331 0.10374 0.76331 0.0
C472 C 0.11385 0.09755 0.70102 0.0
C473 C 0.11926 0.05131 0.70186 0.0
C474 C 0.09889 0.12081 0.73059 0.0
C475 C 0.08886 0.09718 0.76176 0.0
C476 C 0.09553 0.05064 0.76318 0.0
C477 C 0.11072 0.02817 0.73312 0.0
C478 C 0.09235 0.17053 0.72804 0.0
C479 C 0.08524 0.02446 0.79601 0.0
H480 H 0.09073 0.19012 0.86004 0.0
H481 H 0.96655 0.16171 0.81262 0.0
H482 H 0.15092 0.10205 0.81632 0.0
H483 H 0.15624 0.15566 0.79654 0.0
H484 H 0.15511 0.15084 0.84379 0.0
H485 H 0.95785 0.1077 0.76882 0.0
H486 H 1.00017 0.118 0.73695 0.0
H487 H 0.0012 0.06775 0.76211 0.0
H488 H 0.12088 0.11569 0.67704 0.0
H489 H 0.11523 0.99244 0.73395 0.0
H490 H 0.10923 0.18746 0.75008 0.0
H491 H 0.05703 0.17864 0.7302 0.0
H492 H 0.10475 0.18427 0.70283 0.0
H493 H 0.10073 0.04002 0.81933 0.0
H494 H 0.09651 0.98939 0.79409 0.0
H495 H 0.04943 0.0247 0.80057 0.0
C496 C 0.11413 0.35597 0.80217 0.0
C497 C 0.07255 0.33692 0.80038 0.0
C498 C 0.13194 0.37872 0.77356 0.0
C499 C 0.10787 0.38218 0.74179 0.0
C500 C 0.06544 0.36353 0.73981 0.0
C501 C 0.04805 0.34127 0.76937 0.0
C502 C 0.17691 0.3988 0.77744 0.0
C503 C 0.0391 0.36566 0.7063 0.0
C504 C 0.15757 0.47771 0.69374 0.0
C505 C 0.19278 0.45621 0.67722 0.0
C506 C 0.1249 0.45336 0.71081 0.0
C507 C 0.12799 0.40644 0.71166 0.0
C508 C 0.1597 0.38469 0.69042 0.0
C509 C 0.19202 0.40996 0.67342 0.0
C510 C 0.09119 0.47809 0.73232 0.0
C511 C 0.16323 0.33471 0.68964 0.0
H512 H 0.133 0.35291 0.82624 0.0
H513 H 0.01611 0.32599 0.76781 0.0
H514 H 0.19969 0.38359 0.75812 0.0
H515 H 0.17549 0.43499 0.77199 0.0
H516 H 0.19073 0.39389 0.80422 0.0
H517 H 0.0042 0.35752 0.71091 0.0
H518 H 0.04111 0.39903 0.69402 0.0
H519 H 0.05265 0.34135 0.68718 0.0
H520 H 0.15808 0.51358 0.6965 0.0
H521 H 0.21929 0.39326 0.66073 0.0
H522 H 0.10193 0.47904 0.76023 0.0
H523 H 0.05913 0.46114 0.73137 0.0
H524 H 0.08695 0.51284 0.723 0.0
H525 H 0.18029 0.32306 0.71375 0.0
H526 H 0.18208 0.32298 0.66639 0.0
H527 H 0.13036 0.31936 0.68922 0.0
C528 C 0.58174 0.53878 0.23336 0.0
C529 C 0.5657 0.54224 0.26783 0.0
C530 C 0.57689 0.57426 0.20951 0.0
C531 C 0.55468 0.61332 0.22041 0.0
C532 C 0.53525 0.61511 0.25426 0.0
C533 C 0.54142 0.57975 0.2776 0.0
C534 C 0.59819 0.57094 0.1738 0.0
C535 C 0.5102 0.65557 0.2668 0.0
C536 C 0.57684 0.73204 0.19928 0.0
C537 C 0.53761 0.74377 0.18267 0.0
C538 C 0.58637 0.68754 0.20704 0.0
C539 C 0.55516 0.65453 0.19888 0.0
C540 C 0.51863 0.6656 0.17768 0.0
C541 C 0.51036 0.7104 0.16956 0.0
C542 C 0.62673 0.67686 0.22836 0.0
C543 C 0.48508 0.63127 0.16781 0.0
H544 H 0.6002 0.50959 0.22559 0.0
H545 H 0.5284 0.58213 0.3041 0.0
H546 H 0.57893 0.58871 0.15339 0.0
H547 H 0.63097 0.58644 0.17502 0.0
H548 H 0.60257 0.53576 0.16562 0.0
H549 H 0.49381 0.64986 0.29249 0.0
H550 H 0.53288 0.68396 0.26982 0.0
H551 H 0.48501 0.66528 0.24721 0.0
H552 H 0.59809 0.75798 0.2091 0.0
H553 H 0.47996 0.71952 0.1567 0.0
H554 H 0.64173 0.64511 0.21957 0.0
H555 H 0.61755 0.67312 0.25647 0.0
H556 H 0.65148 0.70361 0.22636 0.0
H557 H 0.50084 0.59894 0.16154 0.0
H558 H 0.46518 0.64221 0.1449 0.0
H559 H 0.46275 0.62599 0.19044 0.0
C560 C 0.44263 0.11444 0.78094 0.0
C561 C 0.44389 0.16082 0.78294 0.0
C562 C 0.41697 0.09339 0.75522 0.0
C563 C 0.39272 0.11954 0.73092 0.0
C564 C 0.3995 0.16599 0.72974 0.0
C565 C 0.42442 0.1862 0.75622 0.0
C566 C 0.4112 0.04372 0.75722 0.0
C567 C 0.37614 0.19522 0.70345 0.0
C568 C 0.3161 0.05738 0.66872 0.0
C569 C 0.27788 0.05646 0.68906 0.0
C570 C 0.35371 0.07938 0.6811 0.0
C571 C 0.35271 0.10055 0.71447 0.0
C572 C 0.31315 0.10197 0.73381 0.0
C573 C 0.27641 0.08004 0.72083 0.0
C574 C 0.39483 0.07831 0.65925 0.0
C575 C 0.30996 0.12501 0.76912 0.0
H576 H 0.4576 0.09484 0.80169 0.0
H577 H 0.42576 0.22216 0.75764 0.0
H578 H 0.37962 0.03632 0.77028 0.0
H579 H 0.41027 0.0289 0.7305 0.0
H580 H 0.43781 0.02755 0.77255 0.0
H581 H 0.39651 0.22436 0.69653 0.0
H582 H 0.36794 0.17701 0.67896 0.0
H583 H 0.34533 0.2078 0.71535 0.0
H584 H 0.31733 0.03911 0.64414 0.0
H585 H 0.24663 0.07999 0.73633 0.0
H586 H 0.418 0.05369 0.67056 0.0
H587 H 0.41115 0.11114 0.65954 0.0
H588 H 0.38806 0.06878 0.63153 0.0
H589 H 0.33311 0.10946 0.78801 0.0
H590 H 0.27656 0.12339 0.78051 0.0
H591 H 0.31904 0.16047 0.76642 0.0
C592 C 0.91097 0.75809 0.18678 0.0
C593 C 0.95121 0.74688 0.17155 0.0
C594 C 0.89995 0.80261 0.19316 0.0
C595 C 0.93055 0.83611 0.18487 0.0
C596 C 0.9675 0.82533 0.16404 0.0
C597 C 0.97743 0.78046 0.15745 0.0
C598 C 0.85905 0.81289 0.21387 0.0
C599 C 1.0001 0.86028 0.15356 0.0
C600 C 0.90553 0.95166 0.22101 0.0
C601 C 0.9233 0.94788 0.25492 0.0
C602 C 0.90894 0.91628 0.19688 0.0
C603 C 0.93113 0.87684 0.207 0.0
C604 C 0.95146 0.87436 0.2405 0.0
C605 C 0.94693 0.90972 0.26404 0.0
C606 C 0.88666 0.9204 0.16161 0.0
C607 C 0.97636 0.83343 0.25235 0.0
H608 H 0.89041 0.73198 0.19723 0.0
H609 H 0.00849 0.77179 0.14545 0.0
H610 H 0.86761 0.8168 0.24211 0.0
H611 H 0.84388 0.84444 0.20481 0.0
H612 H 0.8347 0.7858 0.21158 0.0
H613 H 0.02007 0.8493 0.1307 0.0
H614 H 0.98349 0.89206 0.14693 0.0
H615 H 0.02249 0.86657 0.17599 0.0
H616 H 0.88726 0.98127 0.21389 0.0
H617 H 0.96121 0.90706 0.2901 0.0
H618 H 0.85318 0.90671 0.16363 0.0
H619 H 0.90432 0.90159 0.14085 0.0
H620 H 0.88377 0.95573 0.15339 0.0
H621 H 0.95367 0.80495 0.25468 0.0
H622 H 0.99261 0.83823 0.27822 0.0
H623 H 0.00171 0.82439 0.2327 0.0
loop_
_geom_bond_atom_site_label_1
_geom_bond_atom_site_label_2
_geom_bond_distance
_geom_bond_site_symmetry_2
_ccdc_geom_bond_type
Co0 O1 2.216 . S
Co0 O2 2.091 . S
Co0 O4 2.004 1_455 S
Co0 O10 2.021 . S
Co0 O12 2.137 1_455 S
Co0 O13 2.244 . S
O1 Co0 2.216 . S
O1 C8 1.247 . S
O2 Co0 2.091 . S
O2 C8 1.261 . S
C3 O12 1.247 . S
C3 O13 1.272 1_655 S
O4 Co0 2.004 1_655 S
O4 C9 1.259 . S
Co5 O6 2.061 . S
Co5 O11 2.052 . S
Co5 O13 2.135 . S
O6 Co5 2.061 . S
O6 C9 1.235 1_455 S
C7 O10 1.238 . S
C7 O11 1.241 . S
C8 O1 1.247 . S
C8 O2 1.261 . S
C9 O4 1.259 . S
C9 O6 1.235 1_655 S
O10 Co0 2.021 . S
O10 C7 1.238 . S
O11 Co5 2.052 . S
O11 C7 1.241 . S
O12 Co0 2.137 1_655 S
O12 C3 1.247 . S
O13 Co0 2.244 . S
O13 C3 1.272 1_455 S
O13 Co5 2.135 . S
Co14 O15 2.216 . S
Co14 O16 2.091 . S
Co14 O18 2.004 . S
Co14 O24 2.021 . S
Co14 O26 2.137 . S
Co14 O27 2.244 . S
O15 Co14 2.216 . S
O15 C22 1.247 . S
O16 Co14 2.091 . S
O16 C22 1.261 . S
C17 O26 1.247 . S
C17 O27 1.272 . S
O18 Co14 2.004 . S
O18 C23 1.259 . S
Co19 O20 2.061 . S
Co19 O25 2.052 . S
Co19 O27 2.135 . S
O20 Co19 2.061 . S
O20 C23 1.235 . S
C21 O24 1.238 . S
C21 O25 1.241 . S
C22 O15 1.247 . S
C22 O16 1.261 . S
C23 O18 1.259 . S
C23 O20 1.235 . S
O24 Co14 2.021 . S
O24 C21 1.238 . S
O25 Co19 2.052 . S
O25 C21 1.241 . S
O26 Co14 2.137 . S
O26 C17 1.247 . S
O27 Co14 2.244 . S
O27 C17 1.272 . S
O27 Co19 2.135 . S
Co28 O29 2.216 . S
Co28 O30 2.091 . S
Co28 O32 2.004 . S
Co28 O38 2.021 . S
Co28 O40 2.137 . S
Co28 O41 2.244 . S
O29 Co28 2.216 . S
O29 C36 1.247 . S
O30 Co28 2.091 . S
O30 C36 1.261 . S
C31 O40 1.247 . S
C31 O41 1.272 . S
O32 Co28 2.004 . S
O32 C37 1.259 . S
Co33 O34 2.061 . S
Co33 O39 2.052 . S
Co33 O41 2.135 . S
O34 Co33 2.061 . S
O34 C37 1.235 . S
C35 O38 1.238 . S
C35 O39 1.241 . S
C36 O29 1.247 . S
C36 O30 1.261 . S
C37 O32 1.259 . S
C37 O34 1.235 . S
O38 Co28 2.021 . S
O38 C35 1.238 . S
O39 Co33 2.052 . S
O39 C35 1.241 . S
O40 Co28 2.137 . S
O40 C31 1.247 . S
O41 Co28 2.244 . S
O41 C31 1.272 . S
O41 Co33 2.135 . S
Co42 O43 2.216 . S
Co42 O44 2.092 . S
Co42 O46 2.004 1_565 S
Co42 O52 2.021 . S
Co42 O54 2.137 1_565 S
Co42 O55 2.244 . S
O43 Co42 2.216 . S
O43 C50 1.247 . S
O44 Co42 2.092 . S
O44 C50 1.265 . S
C45 O54 1.247 . S
C45 O55 1.272 1_545 S
O46 Co42 2.004 1_545 S
O46 C51 1.259 . S
Co47 O48 2.061 . S
Co47 O53 2.052 . S
Co47 O55 2.135 . S
O48 Co47 2.061 . S
O48 C51 1.235 1_565 S
C49 O52 1.238 . S
C49 O53 1.241 . S
C50 O43 1.247 . S
C50 O44 1.265 . S
C51 O46 1.259 . S
C51 O48 1.235 1_545 S
O52 Co42 2.021 . S
O52 C49 1.238 . S
O53 Co47 2.052 . S
O53 C49 1.241 . S
O54 Co42 2.137 1_545 S
O54 C45 1.247 . S
O55 Co42 2.244 . S
O55 C45 1.272 1_565 S
O55 Co47 2.135 . S
Co56 O57 2.216 . S
Co56 O58 2.091 . S
Co56 O60 2.004 1_655 S
Co56 O66 2.021 . S
Co56 O68 2.137 . S
Co56 O69 2.244 1_655 S
O57 Co56 2.216 . S
O57 C64 1.247 . S
O58 Co56 2.091 . S
O58 C64 1.261 . S
C59 O68 1.247 1_455 S
C59 O69 1.272 . S
O60 Co56 2.004 1_455 S
O60 C65 1.259 . S
Co61 O62 2.061 . S
Co61 O67 2.052 . S
Co61 O69 2.135 . S
O62 Co61 2.061 . S
O62 C65 1.235 . S
C63 O66 1.238 . S
C63 O67 1.241 1_655 S
C64 O57 1.247 . S
C64 O58 1.261 . S
C65 O60 1.259 . S
C65 O62 1.235 . S
O66 Co56 2.021 . S
O66 C63 1.238 . S
O67 Co61 2.052 . S
O67 C63 1.241 1_455 S
O68 Co56 2.137 . S
O68 C59 1.247 1_655 S
O69 Co56 2.244 1_455 S
O69 C59 1.272 . S
O69 Co61 2.135 . S
Co70 O71 2.216 . S
Co70 O72 2.091 . S
Co70 O74 2.004 . S
Co70 O80 2.021 . S
Co70 O82 2.137 . S
Co70 O83 2.244 . S
O71 Co70 2.216 . S
O71 C78 1.247 . S
O72 Co70 2.091 . S
O72 C78 1.261 . S
C73 O82 1.247 . S
C73 O83 1.272 . S
O74 Co70 2.004 . S
O74 C79 1.259 . S
Co75 O76 2.061 . S
Co75 O81 2.052 . S
Co75 O83 2.135 . S
O76 Co75 2.061 . S
O76 C79 1.235 . S
C77 O80 1.238 . S
C77 O81 1.241 . S
C78 O71 1.247 . S
C78 O72 1.261 . S
C79 O74 1.259 . S
C79 O76 1.235 . S
O80 Co70 2.021 . S
O80 C77 1.238 . S
O81 Co75 2.052 . S
O81 C77 1.241 . S
O82 Co70 2.137 . S
O82 C73 1.247 . S
O83 Co70 2.244 . S
O83 C73 1.272 . S
O83 Co75 2.135 . S
Co84 O85 2.216 . S
Co84 O86 2.091 . S
Co84 O88 2.004 . S
Co84 O94 2.021 . S
Co84 O96 2.137 . S
Co84 O97 2.244 . S
O85 Co84 2.216 . S
O85 C92 1.247 . S
O86 Co84 2.091 . S
O86 C92 1.261 . S
C87 O96 1.247 . S
C87 O97 1.272 . S
O88 Co84 2.004 . S
O88 C93 1.259 . S
Co89 O90 2.061 . S
Co89 O95 2.052 . S
Co89 O97 2.135 . S
O90 Co89 2.061 . S
O90 C93 1.235 . S
C91 O94 1.238 . S
C91 O95 1.241 . S
C92 O85 1.247 . S
C92 O86 1.261 . S
C93 O88 1.259 . S
C93 O90 1.235 . S
O94 Co84 2.021 . S
O94 C91 1.238 . S
O95 Co89 2.052 . S
O95 C91 1.241 . S
O96 Co84 2.137 . S
O96 C87 1.247 . S
O97 Co84 2.244 . S
O97 C87 1.272 . S
O97 Co89 2.135 . S
Co98 O99 2.216 . S
Co98 O100 2.091 1_545 S
Co98 O102 2.004 1_545 S
Co98 O108 2.021 . S
Co98 O110 2.137 1_545 S
Co98 O111 2.244 . S
O99 Co98 2.216 . S
O99 C106 1.247 . S
O100 Co98 2.091 1_565 S
O100 C106 1.261 1_565 S
C101 O110 1.247 . S
C101 O111 1.272 1_565 S
O102 Co98 2.004 1_565 S
O102 C107 1.259 . S
Co103 O104 2.061 . S
Co103 O109 2.052 . S
Co103 O111 2.135 . S
O104 Co103 2.061 . S
O104 C107 1.235 1_545 S
C105 O108 1.238 . S
C105 O109 1.241 . S
C106 O99 1.247 . S
C106 O100 1.261 1_545 S
C107 O102 1.259 . S
C107 O104 1.235 1_565 S
O108 Co98 2.021 . S
O108 C105 1.238 . S
O109 Co103 2.052 . S
O109 C105 1.241 . S
O110 Co98 2.137 1_565 S
O110 C101 1.247 . S
O111 Co98 2.244 . S
O111 C101 1.272 1_545 S
O111 Co103 2.135 . S
C112 C113 1.391 . S
C112 C114 1.394 . S
C112 H128 0.931 . S
C113 C112 1.391 . S
C113 C117 1.376 1_655 S
C114 C112 1.394 . S
C114 C115 1.369 1_655 S
C114 C118 1.531 1_556 S
C115 C114 1.369 1_455 S
C115 C116 1.410 . S
C115 C123 1.503 1_556 S
C116 C115 1.410 . S
C116 C117 1.392 . S
C116 C119 1.511 . S
C117 C113 1.376 1_455 S
C117 C116 1.392 . S
C117 H129 0.929 . S
C118 C114 1.531 1_554 S
C118 H130 0.960 . S
C118 H131 0.962 1_554 S
C118 H132 0.960 . S
C119 C116 1.511 . S
C119 H133 0.961 . S
C119 H134 0.961 . S
C119 H135 0.961 . S
C120 C121 1.370 . S
C120 C122 1.363 . S
C120 H136 0.935 . S
C121 C120 1.370 . S
C121 C125 1.408 . S
C122 C120 1.363 . S
C122 C123 1.370 . S
C122 C126 1.524 1_454 S
C123 C115 1.503 1_554 S
C123 C122 1.370 . S
C123 C124 1.403 . S
C124 C123 1.403 . S
C124 C125 1.404 . S
C124 C127 1.539 . S
C125 C121 1.408 . S
C125 C124 1.404 . S
C125 H137 0.930 . S
C126 C122 1.524 1_656 S
C126 H138 0.956 . S
C126 H139 0.961 1_655 S
C126 H140 0.961 . S
C127 C124 1.539 . S
C127 H141 0.958 . S
C127 H142 0.961 . S
C127 H143 0.960 . S
H128 C112 0.931 . S
H129 C117 0.929 . S
H130 C118 0.960 . S
H131 C118 0.962 1_556 S
H132 C118 0.960 . S
H133 C119 0.961 . S
H134 C119 0.961 . S
H135 C119 0.961 . S
H136 C120 0.935 . S
H137 C125 0.930 . S
H138 C126 0.956 . S
H139 C126 0.961 1_455 S
H140 C126 0.961 . S
H141 C127 0.958 . S
H142 C127 0.961 . S
H143 C127 0.960 . S
C144 C145 1.391 . S
C144 C146 1.394 . S
C144 H160 0.931 . S
C145 C144 1.391 . S
C145 C149 1.376 . S
C146 C144 1.394 . S
C146 C147 1.369 . S
C146 C150 1.531 . S
C147 C146 1.369 . S
C147 C148 1.410 . S
C147 C155 1.503 . S
C148 C147 1.410 . S
C148 C149 1.392 . S
C148 C151 1.511 . S
C149 C145 1.376 . S
C149 C148 1.392 . S
C149 H161 0.929 . S
C150 C146 1.531 . S
C150 H162 0.960 . S
C150 H163 0.962 . S
C150 H164 0.960 . S
C151 C148 1.511 . S
C151 H165 0.961 . S
C151 H166 0.961 . S
C151 H167 0.961 . S
C152 C153 1.370 . S
C152 C154 1.363 . S
C152 H168 0.931 . S
C153 C152 1.370 . S
C153 C157 1.408 . S
C154 C152 1.363 . S
C154 C155 1.370 . S
C154 C158 1.524 . S
C155 C147 1.503 . S
C155 C154 1.370 . S
C155 C156 1.403 . S
C156 C155 1.403 . S
C156 C157 1.404 . S
C156 C159 1.539 . S
C157 C153 1.408 . S
C157 C156 1.404 . S
C157 H169 0.930 . S
C158 C154 1.524 . S
C158 H170 0.956 . S
C158 H171 0.961 . S
C158 H172 0.961 . S
C159 C156 1.539 . S
C159 H173 0.958 . S
C159 H174 0.961 . S
C159 H175 0.960 . S
H160 C144 0.931 . S
H161 C149 0.929 . S
H162 C150 0.960 . S
H163 C150 0.962 . S
H164 C150 0.960 . S
H165 C151 0.961 . S
H166 C151 0.961 . S
H167 C151 0.961 . S
H168 C152 0.931 . S
H169 C157 0.930 . S
H170 C158 0.956 . S
H171 C158 0.961 . S
H172 C158 0.961 . S
H173 C159 0.958 . S
H174 C159 0.961 . S
H175 C159 0.960 . S
C176 C177 1.391 . S
C176 C178 1.394 . S
C176 H192 0.931 . S
C177 C176 1.391 . S
C177 C181 1.376 . S
C178 C176 1.394 . S
C178 C179 1.369 . S
C178 C182 1.531 1_554 S
C179 C178 1.369 . S
C179 C180 1.410 . S
C179 C187 1.503 1_564 S
C180 C179 1.410 . S
C180 C181 1.392 . S
C180 C183 1.511 1_565 S
C181 C177 1.376 . S
C181 C180 1.392 . S
C181 H193 0.929 . S
C182 C178 1.531 1_556 S
C182 H194 0.960 . S
C182 H195 0.963 1_556 S
C182 H196 0.960 . S
C183 C180 1.511 1_545 S
C183 H197 0.961 . S
C183 H198 0.961 . S
C183 H199 0.961 1_554 S
C184 C185 1.370 . S
C184 C186 1.363 . S
C184 H200 0.931 . S
C185 C184 1.370 . S
C185 C189 1.408 . S
C186 C184 1.363 . S
C186 C187 1.370 . S
C186 C190 1.524 1_556 S
C187 C179 1.503 1_546 S
C187 C186 1.370 . S
C187 C188 1.403 . S
C188 C187 1.403 . S
C188 C189 1.404 . S
C188 C191 1.539 1_545 S
C189 C185 1.408 . S
C189 C188 1.404 . S
C189 H201 0.930 . S
C190 C186 1.524 1_554 S
C190 H202 0.956 . S
C190 H203 0.961 . S
C190 H204 0.961 . S
C191 C188 1.539 1_565 S
C191 H205 0.958 . S
C191 H206 0.961 . S
C191 H207 0.960 . S
H192 C176 0.931 . S
H193 C181 0.929 . S
H194 C182 0.960 . S
H195 C182 0.963 1_554 S
H196 C182 0.960 . S
H197 C183 0.961 . S
H198 C183 0.961 . S
H199 C183 0.961 1_556 S
H200 C184 0.931 . S
H201 C189 0.930 . S
H202 C190 0.956 . S
H203 C190 0.961 . S
H204 C190 0.961 . S
H205 C191 0.958 . S
H206 C191 0.961 . S
H207 C191 0.960 . S
C208 C209 1.391 . S
C208 C210 1.394 . S
C208 H224 0.931 . S
C209 C208 1.391 . S
C209 C213 1.376 . S
C210 C208 1.394 . S
C210 C211 1.369 . S
C210 C214 1.531 1_645 S
C211 C210 1.369 . S
C211 C212 1.410 . S
C211 C219 1.503 1_655 S
C212 C211 1.410 . S
C212 C213 1.392 . S
C212 C215 1.511 . S
C213 C209 1.376 . S
C213 C212 1.392 . S
C213 H225 0.929 . S
C214 C210 1.531 1_465 S
C214 H226 0.960 1_565 S
C214 H227 0.962 . S
C214 H228 0.960 1_565 S
C215 C212 1.511 . S
C215 H229 0.961 . S
C215 H230 0.961 . S
C215 H231 0.961 . S
C216 C217 1.370 . S
C216 C218 1.363 . S
C216 H232 0.931 . S
C217 C216 1.370 . S
C217 C221 1.408 1_565 S
C218 C216 1.363 . S
C218 C219 1.370 1_565 S
C218 C222 1.524 1_455 S
C219 C211 1.503 1_455 S
C219 C218 1.370 1_545 S
C219 C220 1.403 . S
C220 C219 1.403 . S
C220 C221 1.404 . S
C220 C223 1.539 . S
C221 C217 1.408 1_545 S
C221 C220 1.404 . S
C221 H233 0.930 . S
C222 C218 1.524 1_655 S
C222 H234 0.956 . S
C222 H235 0.961 . S
C222 H236 0.961 . S
C223 C220 1.539 . S
C223 H237 0.958 . S
C223 H238 0.961 . S
C223 H239 0.960 . S
H224 C208 0.931 . S
H225 C213 0.929 . S
H226 C214 0.960 1_545 S
H227 C214 0.962 . S
H228 C214 0.960 1_545 S
H229 C215 0.961 . S
H230 C215 0.961 . S
H231 C215 0.961 . S
H232 C216 0.931 . S
H233 C221 0.930 . S
H234 C222 0.956 . S
H235 C222 0.961 . S
H236 C222 0.961 . S
H237 C223 0.958 . S
H238 C223 0.961 . S
H239 C223 0.960 . S
C240 C241 1.391 . S
C240 C242 1.394 . S
C240 H256 0.931 . S
C241 C240 1.391 . S
C241 C245 1.376 . S
C242 C240 1.394 . S
C242 C243 1.369 . S
C242 C246 1.531 . S
C243 C242 1.369 . S
C243 C244 1.410 . S
C243 C251 1.503 . S
C244 C243 1.410 . S
C244 C245 1.392 . S
C244 C247 1.511 . S
C245 C241 1.376 . S
C245 C244 1.392 . S
C245 H257 0.929 . S
C246 C242 1.531 . S
C246 H258 0.960 . S
C246 H259 0.962 . S
C246 H260 0.960 . S
C247 C244 1.511 . S
C247 H261 0.961 . S
C247 H262 0.961 . S
C247 H263 0.961 . S
C248 C249 1.370 . S
C248 C250 1.363 . S
C248 H264 0.931 . S
C249 C248 1.370 . S
C249 C253 1.408 . S
C250 C248 1.363 . S
C250 C251 1.370 . S
C250 C254 1.524 . S
C251 C243 1.503 . S
C251 C250 1.370 . S
C251 C252 1.403 . S
C252 C251 1.403 . S
C252 C253 1.404 . S
C252 C255 1.539 . S
C253 C249 1.408 . S
C253 C252 1.404 . S
C253 H265 0.930 . S
C254 C250 1.524 . S
C254 H266 0.956 . S
C254 H267 0.961 . S
C254 H268 0.961 . S
C255 C252 1.539 . S
C255 H269 0.958 . S
C255 H270 0.961 . S
C255 H271 0.960 . S
H256 C240 0.931 . S
H257 C245 0.929 . S
H258 C246 0.960 . S
H259 C246 0.962 . S
H260 C246 0.960 . S
H261 C247 0.961 . S
H262 C247 0.961 . S
H263 C247 0.961 . S
H264 C248 0.931 . S
H265 C253 0.930 . S
H266 C254 0.956 . S
H267 C254 0.961 . S
H268 C254 0.961 . S
H269 C255 0.958 . S
H270 C255 0.961 . S
H271 C255 0.960 . S
C272 C273 1.391 . S
C272 C274 1.394 . S
C272 H288 0.931 . S
C273 C272 1.391 . S
C273 C277 1.376 . S
C274 C272 1.394 . S
C274 C275 1.369 . S
C274 C278 1.531 . S
C275 C274 1.369 . S
C275 C276 1.410 . S
C275 C283 1.503 . S
C276 C275 1.410 . S
C276 C277 1.392 . S
C276 C279 1.511 . S
C277 C273 1.376 . S
C277 C276 1.392 . S
C277 H289 0.929 . S
C278 C274 1.531 . S
C278 H290 0.960 . S
C278 H291 0.962 . S
C278 H292 0.960 . S
C279 C276 1.511 . S
C279 H293 0.961 . S
C279 H294 0.961 . S
C279 H295 0.961 . S
C280 C281 1.370 . S
C280 C282 1.363 . S
C280 H296 0.931 . S
C281 C280 1.370 . S
C281 C285 1.408 . S
C282 C280 1.363 . S
C282 C283 1.370 . S
C282 C286 1.524 . S
C283 C275 1.503 . S
C283 C282 1.370 . S
C283 C284 1.403 . S
C284 C283 1.403 . S
C284 C285 1.404 . S
C284 C287 1.539 . S
C285 C281 1.408 . S
C285 C284 1.404 . S
C285 H297 0.930 . S
C286 C282 1.524 . S
C286 H298 0.956 . S
C286 H299 0.961 . S
C286 H300 0.961 . S
C287 C284 1.539 . S
C287 H301 0.958 . S
C287 H302 0.961 . S
C287 H303 0.960 . S
H288 C272 0.931 . S
H289 C277 0.929 . S
H290 C278 0.960 . S
H291 C278 0.962 . S
H292 C278 0.960 . S
H293 C279 0.961 . S
H294 C279 0.961 . S
H295 C279 0.961 . S
H296 C280 0.931 . S
H297 C285 0.930 . S
H298 C286 0.956 . S
H299 C286 0.961 . S
H300 C286 0.961 . S
H301 C287 0.958 . S
H302 C287 0.961 . S
H303 C287 0.960 . S
C304 C305 1.391 . S
C304 C306 1.394 . S
C304 H320 0.931 . S
C305 C304 1.391 . S
C305 C309 1.376 . S
C306 C304 1.394 . S
C306 C307 1.369 . S
C306 C310 1.531 . S
C307 C306 1.369 . S
C307 C308 1.410 . S
C307 C315 1.503 . S
C308 C307 1.410 . S
C308 C309 1.392 . S
C308 C311 1.511 . S
C309 C305 1.376 . S
C309 C308 1.392 . S
C309 H321 0.929 . S
C310 C306 1.531 . S
C310 H322 0.960 . S
C310 H323 0.962 . S
C310 H324 0.960 . S
C311 C308 1.511 . S
C311 H325 0.961 . S
C311 H326 0.961 . S
C311 H327 0.961 . S
C312 C313 1.370 . S
C312 C314 1.363 . S
C312 H328 0.931 . S
C313 C312 1.370 . S
C313 C317 1.408 . S
C314 C312 1.363 . S
C314 C315 1.370 . S
C314 C318 1.524 . S
C315 C307 1.503 . S
C315 C314 1.370 . S
C315 C316 1.403 . S
C316 C315 1.403 . S
C316 C317 1.404 . S
C316 C319 1.539 . S
C317 C313 1.408 . S
C317 C316 1.404 . S
C317 H329 0.930 . S
C318 C314 1.524 . S
C318 H330 0.956 . S
C318 H331 0.961 . S
C318 H332 0.961 . S
C319 C316 1.539 . S
C319 H333 0.958 . S
C319 H334 0.961 . S
C319 H335 0.960 . S
H320 C304 0.931 . S
H321 C309 0.929 . S
H322 C310 0.960 . S
H323 C310 0.962 . S
H324 C310 0.960 . S
H325 C311 0.961 . S
H326 C311 0.961 . S
H327 C311 0.961 . S
H328 C312 0.931 . S
H329 C317 0.930 . S
H330 C318 0.956 . S
H331 C318 0.961 . S
H332 C318 0.961 . S
H333 C319 0.958 . S
H334 C319 0.961 . S
H335 C319 0.960 . S
C336 C337 1.391 . S
C336 C338 1.394 . S
C336 H352 0.931 . S
C337 C336 1.391 . S
C337 C341 1.376 . S
C338 C336 1.394 . S
C338 C339 1.369 . S
C338 C342 1.531 . S
C339 C338 1.369 . S
C339 C340 1.410 . S
C339 C347 1.503 . S
C340 C339 1.410 . S
C340 C341 1.392 . S
C340 C343 1.511 . S
C341 C337 1.376 . S
C341 C340 1.392 . S
C341 H353 0.929 . S
C342 C338 1.531 . S
C342 H354 0.960 . S
C342 H355 0.962 . S
C342 H356 0.960 . S
C343 C340 1.511 . S
C343 H357 0.961 . S
C343 H358 0.961 . S
C343 H359 0.961 . S
C344 C345 1.370 . S
C344 C346 1.363 . S
C344 H360 0.931 . S
C345 C344 1.370 . S
C345 C349 1.408 . S
C346 C344 1.363 . S
C346 C347 1.370 . S
C346 C350 1.524 . S
C347 C339 1.503 . S
C347 C346 1.370 . S
C347 C348 1.403 . S
C348 C347 1.403 . S
C348 C349 1.404 . S
C348 C351 1.539 . S
C349 C345 1.408 . S
C349 C348 1.404 . S
C349 H361 0.930 . S
C350 C346 1.524 . S
C350 H362 0.956 . S
C350 H363 0.961 . S
C350 H364 0.961 . S
C351 C348 1.539 . S
C351 H365 0.958 . S
C351 H366 0.961 . S
C351 H367 0.960 . S
H352 C336 0.931 . S
H353 C341 0.929 . S
H354 C342 0.960 . S
H355 C342 0.962 . S
H356 C342 0.960 . S
H357 C343 0.961 . S
H358 C343 0.961 . S
H359 C343 0.961 . S
H360 C344 0.931 . S
H361 C349 0.930 . S
H362 C350 0.956 . S
H363 C350 0.961 . S
H364 C350 0.961 . S
H365 C351 0.958 . S
H366 C351 0.961 . S
H367 C351 0.960 . S
C368 C369 1.391 . S
C368 C370 1.394 . S
C368 H384 0.931 . S
C369 C368 1.391 . S
C369 C373 1.376 . S
C370 C368 1.394 . S
C370 C371 1.369 . S
C370 C374 1.531 . S
C371 C370 1.369 . S
C371 C372 1.410 . S
C371 C379 1.503 . S
C372 C371 1.410 . S
C372 C373 1.392 . S
C372 C375 1.511 . S
C373 C369 1.376 . S
C373 C372 1.392 . S
C373 H385 0.929 . S
C374 C370 1.531 . S
C374 H386 0.960 . S
C374 H387 0.962 . S
C374 H388 0.960 . S
C375 C372 1.511 . S
C375 H389 0.961 . S
C375 H390 0.961 . S
C375 H391 0.961 . S
C376 C377 1.370 . S
C376 C378 1.363 . S
C376 H392 0.931 . S
C377 C376 1.370 . S
C377 C381 1.408 . S
C378 C376 1.363 . S
C378 C379 1.370 . S
C378 C382 1.524 . S
C379 C371 1.503 . S
C379 C378 1.370 . S
C379 C380 1.403 . S
C380 C379 1.403 . S
C380 C381 1.404 . S
C380 C383 1.539 . S
C381 C377 1.408 . S
C381 C380 1.404 . S
C381 H393 0.930 . S
C382 C378 1.524 . S
C382 H394 0.956 . S
C382 H395 0.961 . S
C382 H396 0.961 . S
C383 C380 1.539 . S
C383 H397 0.958 . S
C383 H398 0.961 . S
C383 H399 0.960 . S
H384 C368 0.931 . S
H385 C373 0.929 . S
H386 C374 0.960 . S
H387 C374 0.962 . S
H388 C374 0.960 . S
H389 C375 0.961 . S
H390 C375 0.961 . S
H391 C375 0.961 . S
H392 C376 0.931 . S
H393 C381 0.930 . S
H394 C382 0.956 . S
H395 C382 0.961 . S
H396 C382 0.961 . S
H397 C383 0.958 . S
H398 C383 0.961 . S
H399 C383 0.960 . S
C400 C401 1.391 . S
C400 C402 1.394 . S
C400 H416 0.931 . S
C401 C400 1.391 . S
C401 C405 1.376 . S
C402 C400 1.394 . S
C402 C403 1.369 . S
C402 C406 1.531 . S
C403 C402 1.369 . S
C403 C404 1.410 . S
C403 C411 1.503 . S
C404 C403 1.410 . S
C404 C405 1.392 . S
C404 C407 1.511 . S
C405 C401 1.376 . S
C405 C404 1.392 . S
C405 H417 0.929 . S
C406 C402 1.531 . S
C406 H418 0.960 . S
C406 H419 0.962 . S
C406 H420 0.960 . S
C407 C404 1.511 . S
C407 H421 0.961 . S
C407 H422 0.961 . S
C407 H423 0.961 . S
C408 C409 1.370 . S
C408 C410 1.363 . S
C408 H424 0.931 . S
C409 C408 1.370 . S
C409 C413 1.408 . S
C410 C408 1.363 . S
C410 C411 1.370 . S
C410 C414 1.524 . S
C411 C403 1.503 . S
C411 C410 1.370 . S
C411 C412 1.403 . S
C412 C411 1.403 . S
C412 C413 1.404 . S
C412 C415 1.539 . S
C413 C409 1.408 . S
C413 C412 1.404 . S
C413 H425 0.930 . S
C414 C410 1.524 . S
C414 H426 0.956 . S
C414 H427 0.961 . S
C414 H428 0.961 . S
C415 C412 1.539 . S
C415 H429 0.958 . S
C415 H430 0.961 . S
C415 H431 0.960 . S
H416 C400 0.931 . S
H417 C405 0.929 . S
H418 C406 0.960 . S
H419 C406 0.962 . S
H420 C406 0.960 . S
H421 C407 0.961 . S
H422 C407 0.961 . S
H423 C407 0.961 . S
H424 C408 0.931 . S
H425 C413 0.930 . S
H426 C414 0.956 . S
H427 C414 0.961 . S
H428 C414 0.961 . S
H429 C415 0.958 . S
H430 C415 0.961 . S
H431 C415 0.960 . S
C432 C433 1.391 . S
C432 C434 1.394 . S
C432 H448 0.931 . S
C433 C432 1.391 . S
C433 C437 1.376 . S
C434 C432 1.394 . S
C434 C435 1.369 . S
C434 C438 1.531 . S
C435 C434 1.369 . S
C435 C436 1.410 . S
C435 C443 1.503 . S
C436 C435 1.410 . S
C436 C437 1.392 . S
C436 C439 1.511 . S
C437 C433 1.376 . S
C437 C436 1.392 . S
C437 H449 0.929 . S
C438 C434 1.531 . S
C438 H450 0.960 . S
C438 H451 0.962 . S
C438 H452 0.960 . S
C439 C436 1.511 . S
C439 H453 0.961 . S
C439 H454 0.961 . S
C439 H455 0.961 . S
C440 C441 1.370 1_545 S
C440 C442 1.363 1_545 S
C440 H456 0.931 . S
C441 C440 1.370 1_565 S
C441 C445 1.408 . S
C442 C440 1.363 1_565 S
C442 C443 1.370 . S
C442 C446 1.524 1_565 S
C443 C435 1.503 . S
C443 C442 1.370 . S
C443 C444 1.403 . S
C444 C443 1.403 . S
C444 C445 1.404 . S
C444 C447 1.539 . S
C445 C441 1.408 . S
C445 C444 1.404 . S
C445 H457 0.930 . S
C446 C442 1.524 1_545 S
C446 H458 0.956 . S
C446 H459 0.961 . S
C446 H460 0.961 . S
C447 C444 1.539 . S
C447 H461 0.958 . S
C447 H462 0.961 . S
C447 H463 0.960 . S
H448 C432 0.931 . S
H449 C437 0.929 . S
H450 C438 0.960 . S
H451 C438 0.962 . S
H452 C438 0.960 . S
H453 C439 0.961 . S
H454 C439 0.961 . S
H455 C439 0.961 . S
H456 C440 0.931 . S
H457 C445 0.930 . S
H458 C446 0.956 . S
H459 C446 0.961 . S
H460 C446 0.961 . S
H461 C447 0.958 . S
H462 C447 0.961 . S
H463 C447 0.960 . S
C464 C465 1.391 . S
C464 C466 1.394 . S
C464 H480 0.931 . S
C465 C464 1.391 . S
C465 C469 1.376 . S
C466 C464 1.394 . S
C466 C467 1.369 . S
C466 C470 1.531 . S
C467 C466 1.369 . S
C467 C468 1.410 . S
C467 C475 1.503 . S
C468 C467 1.410 . S
C468 C469 1.392 . S
C468 C471 1.511 1_455 S
C469 C465 1.376 . S
C469 C468 1.392 . S
C469 H481 0.929 1_455 S
C470 C466 1.531 . S
C470 H482 0.960 . S
C470 H483 0.962 . S
C470 H484 0.960 . S
C471 C468 1.511 1_655 S
C471 H485 0.961 . S
C471 H486 0.961 1_655 S
C471 H487 0.961 . S
C472 C473 1.370 . S
C472 C474 1.363 . S
C472 H488 0.931 . S
C473 C472 1.370 . S
C473 C477 1.408 . S
C474 C472 1.363 . S
C474 C475 1.370 . S
C474 C478 1.524 . S
C475 C467 1.503 . S
C475 C474 1.370 . S
C475 C476 1.403 . S
C476 C475 1.403 . S
C476 C477 1.404 . S
C476 C479 1.539 . S
C477 C473 1.408 . S
C477 C476 1.404 . S
C477 H489 0.930 . S
C478 C474 1.524 . S
C478 H490 0.956 . S
C478 H491 0.961 . S
C478 H492 0.961 . S
C479 C476 1.539 . S
C479 H493 0.958 . S
C479 H494 0.961 1_455 S
C479 H495 0.960 1_455 S
H480 C464 0.931 . S
H481 C469 0.929 1_655 S
H482 C470 0.960 . S
H483 C470 0.962 . S
H484 C470 0.960 . S
H485 C471 0.961 . S
H486 C471 0.961 1_455 S
H487 C471 0.961 . S
H488 C472 0.931 . S
H489 C477 0.930 . S
H490 C478 0.956 . S
H491 C478 0.961 . S
H492 C478 0.961 . S
H493 C479 0.958 . S
H494 C479 0.961 1_655 S
H495 C479 0.960 1_655 S
C496 C497 1.391 . S
C496 C498 1.394 . S
C496 H512 0.931 . S
C497 C496 1.391 . S
C497 C501 1.376 . S
C498 C496 1.394 . S
C498 C499 1.369 . S
C498 C502 1.531 . S
C499 C498 1.369 . S
C499 C500 1.410 . S
C499 C507 1.503 . S
C500 C499 1.410 . S
C500 C501 1.392 . S
C500 C503 1.511 . S
C501 C497 1.376 . S
C501 C500 1.392 . S
C501 H513 0.929 . S
C502 C498 1.531 . S
C502 H514 0.960 . S
C502 H515 0.962 . S
C502 H516 0.960 . S
C503 C500 1.511 . S
C503 H517 0.961 . S
C503 H518 0.961 . S
C503 H519 0.961 . S
C504 C505 1.370 . S
C504 C506 1.363 . S
C504 H520 0.931 . S
C505 C504 1.370 . S
C505 C509 1.408 . S
C506 C504 1.363 . S
C506 C507 1.370 . S
C506 C510 1.524 . S
C507 C499 1.503 . S
C507 C506 1.370 . S
C507 C508 1.403 . S
C508 C507 1.403 . S
C508 C509 1.404 . S
C508 C511 1.539 . S
C509 C505 1.408 . S
C509 C508 1.404 . S
C509 H521 0.930 . S
C510 C506 1.524 . S
C510 H522 0.956 . S
C510 H523 0.961 . S
C510 H524 0.961 . S
C511 C508 1.539 . S
C511 H525 0.958 . S
C511 H526 0.961 . S
C511 H527 0.960 . S
H512 C496 0.931 . S
H513 C501 0.929 . S
H514 C502 0.960 . S
H515 C502 0.962 . S
H516 C502 0.960 . S
H517 C503 0.961 . S
H518 C503 0.961 . S
H519 C503 0.961 . S
H520 C504 0.931 . S
H521 C509 0.930 . S
H522 C510 0.956 . S
H523 C510 0.961 . S
H524 C510 0.961 . S
H525 C511 0.958 . S
H526 C511 0.961 . S
H527 C511 0.960 . S
C528 C529 1.391 . S
C528 C530 1.394 . S
C528 H544 0.931 . S
C529 C528 1.391 . S
C529 C533 1.376 . S
C530 C528 1.394 . S
C530 C531 1.369 . S
C530 C534 1.531 . S
C531 C530 1.369 . S
C531 C532 1.410 . S
C531 C539 1.503 . S
C532 C531 1.410 . S
C532 C533 1.392 . S
C532 C535 1.511 . S
C533 C529 1.376 . S
C533 C532 1.392 . S
C533 H545 0.929 . S
C534 C530 1.531 . S
C534 H546 0.960 . S
C534 H547 0.962 . S
C534 H548 0.960 . S
C535 C532 1.511 . S
C535 H549 0.961 . S
C535 H550 0.961 . S
C535 H551 0.961 . S
C536 C537 1.370 . S
C536 C538 1.363 . S
C536 H552 0.931 . S
C537 C536 1.370 . S
C537 C541 1.408 . S
C538 C536 1.363 . S
C538 C539 1.370 . S
C538 C542 1.524 . S
C539 C531 1.503 . S
C539 C538 1.370 . S
C539 C540 1.403 . S
C540 C539 1.403 . S
C540 C541 1.404 . S
C540 C543 1.539 . S
C541 C537 1.408 . S
C541 C540 1.404 . S
C541 H553 0.930 . S
C542 C538 1.524 . S
C542 H554 0.956 . S
C542 H555 0.961 . S
C542 H556 0.961 . S
C543 C540 1.539 . S
C543 H557 0.958 . S
C543 H558 0.961 . S
C543 H559 0.960 . S
H544 C528 0.931 . S
H545 C533 0.929 . S
H546 C534 0.960 . S
H547 C534 0.962 . S
H548 C534 0.960 . S
H549 C535 0.961 . S
H550 C535 0.961 . S
H551 C535 0.961 . S
H552 C536 0.931 . S
H553 C541 0.930 . S
H554 C542 0.956 . S
H555 C542 0.961 . S
H556 C542 0.961 . S
H557 C543 0.958 . S
H558 C543 0.961 . S
H559 C543 0.960 . S
C560 C561 1.391 . S
C560 C562 1.394 . S
C560 H576 0.931 . S
C561 C560 1.391 . S
C561 C565 1.376 . S
C562 C560 1.394 . S
C562 C563 1.369 . S
C562 C566 1.531 . S
C563 C562 1.369 . S
C563 C564 1.410 . S
C563 C571 1.503 . S
C564 C563 1.410 . S
C564 C565 1.392 . S
C564 C567 1.511 . S
C565 C561 1.376 . S
C565 C564 1.392 . S
C565 H577 0.929 . S
C566 C562 1.531 . S
C566 H578 0.960 . S
C566 H579 0.962 1_545 S
C566 H580 0.960 . S
C567 C564 1.511 . S
C567 H581 0.961 . S
C567 H582 0.961 . S
C567 H583 0.961 . S
C568 C569 1.370 . S
C568 C570 1.363 . S
C568 H584 0.931 1_545 S
C569 C568 1.370 . S
C569 C573 1.408 . S
C570 C568 1.363 . S
C570 C571 1.370 . S
C570 C574 1.524 . S
C571 C563 1.503 . S
C571 C570 1.370 . S
C571 C572 1.403 . S
C572 C571 1.403 . S
C572 C573 1.404 . S
C572 C575 1.539 . S
C573 C569 1.408 . S
C573 C572 1.404 . S
C573 H585 0.930 . S
C574 C570 1.524 . S
C574 H586 0.956 1_545 S
C574 H587 0.961 . S
C574 H588 0.961 1_545 S
C575 C572 1.539 . S
C575 H589 0.958 . S
C575 H590 0.961 . S
C575 H591 0.960 . S
H576 C560 0.931 . S
H577 C565 0.929 . S
H578 C566 0.960 . S
H579 C566 0.962 1_565 S
H580 C566 0.960 . S
H581 C567 0.961 . S
H582 C567 0.961 . S
H583 C567 0.961 . S
H584 C568 0.931 1_565 S
H585 C573 0.930 . S
H586 C574 0.956 1_565 S
H587 C574 0.961 . S
H588 C574 0.961 1_565 S
H589 C575 0.958 . S
H590 C575 0.961 . S
H591 C575 0.960 . S
C592 C593 1.391 . S
C592 C594 1.394 . S
C592 H608 0.931 . S
C593 C592 1.391 . S
C593 C597 1.376 1_655 S
C594 C592 1.394 . S
C594 C595 1.369 . S
C594 C598 1.531 . S
C595 C594 1.369 . S
C595 C596 1.410 . S
C595 C603 1.503 . S
C596 C595 1.410 . S
C596 C597 1.392 1_655 S
C596 C599 1.511 1_655 S
C597 C593 1.376 1_455 S
C597 C596 1.392 1_455 S
C597 H609 0.929 . S
C598 C594 1.531 . S
C598 H610 0.960 . S
C598 H611 0.962 . S
C598 H612 0.960 . S
C599 C596 1.511 1_455 S
C599 H613 0.961 . S
C599 H614 0.961 1_455 S
C599 H615 0.961 . S
C600 C601 1.370 . S
C600 C602 1.363 . S
C600 H616 0.931 . S
C601 C600 1.370 . S
C601 C605 1.408 . S
C602 C600 1.363 . S
C602 C603 1.370 . S
C602 C606 1.524 . S
C603 C595 1.503 . S
C603 C602 1.370 . S
C603 C604 1.403 . S
C604 C603 1.403 . S
C604 C605 1.404 . S
C604 C607 1.539 . S
C605 C601 1.408 . S
C605 C604 1.404 . S
C605 H617 0.930 . S
C606 C602 1.524 . S
C606 H618 0.956 . S
C606 H619 0.961 . S
C606 H620 0.961 . S
C607 C604 1.539 . S
C607 H621 0.958 . S
C607 H622 0.961 1_655 S
C607 H623 0.960 1_655 S
H608 C592 0.931 . S
H609 C597 0.929 . S
H610 C598 0.960 . S
H611 C598 0.962 . S
H612 C598 0.960 . S
H613 C599 0.961 . S
H614 C599 0.961 1_655 S
H615 C599 0.961 . S
H616 C600 0.931 . S
H617 C605 0.930 . S
H618 C606 0.956 . S
H619 C606 0.961 . S
H620 C606 0.961 . S
H621 C607 0.958 . S
H622 C607 0.961 1_455 S
H623 C607 0.960 1_455 S
C113 C63 1.581 . S
C121 C8 1.605 . S
C145 C22 1.609 . S
C153 C78 1.616 . S
C177 C36 1.623 . S
C185 C91 1.567 . S
C209 C106 1.617 . S
C217 C50 1.610 . S
C241 C7 1.502 . S
C249 C35 1.509 . S
C273 C21 1.414 . S
C281 C49 1.438 . S
C305 C92 1.360 . S
C313 C64 1.391 . S
C337 C77 1.348 . S
C345 C105 1.385 . S
C369 C79 1.017 . S
C377 C3 1.063 . S
C401 C17 0.959 . S
C409 C87 0.960 . S
C433 C31 1.028 . S
C441 C107 1.050 . S
C465 C59 0.984 . S
C473 C45 0.990 . S
C497 C65 0.916 . S
C505 C23 0.966 . S
C529 C73 1.045 . S
C537 C37 1.009 . S
C561 C93 0.911 . S
C569 C51 0.950 . S
C593 C9 0.955 . S
C601 C101 1.015 . S
