# Generated by pormake.
# Topology mmt, (4)-cn, num edge types: 1
# Building blocks:
#     Node 0, Type 0, BuildingBlock: TATPOV_clean_sbu_0, # of connection points: 4
#     Node 1, Type 0, BuildingBlock: TATPOV_clean_sbu_0, # of connection points: 4
#     Node 2, Type 0, BuildingBlock: TATPOV_clean_sbu_0, # of connection points: 4
#     Node 3, Type 0, BuildingBlock: TATPOV_clean_sbu_0, # of connection points: 4
#     Node 4, Type 0, BuildingBlock: TATPOV_clean_sbu_0, # of connection points: 4
#     Node 5, Type 0, BuildingBlock: TATPOV_clean_sbu_0, # of connection points: 4
#     Node 6, Type 0, BuildingBlock: TATPOV_clean_sbu_0, # of connection points: 4
#     Node 7, Type 0, BuildingBlock: TATPOV_clean_sbu_0, # of connection points: 4
#     Edge 8, Type (0, 0), BuildingBlock: FUNLAD_clean_linker_0, # of connection points: 2
#     Edge 9, Type (0, 0), BuildingBlock: FUNLAD_clean_linker_0, # of connection points: 2
#     Edge 10, Type (0, 0), BuildingBlock: FUNLAD_clean_linker_0, # of connection points: 2
#     Edge 11, Type (0, 0), BuildingBlock: FUNLAD_clean_linker_0, # of connection points: 2
#     Edge 12, Type (0, 0), BuildingBlock: FUNLAD_clean_linker_0, # of connection points: 2
#     Edge 13, Type (0, 0), BuildingBlock: FUNLAD_clean_linker_0, # of connection points: 2
#     Edge 14, Type (0, 0), BuildingBlock: FUNLAD_clean_linker_0, # of connection points: 2
#     Edge 15, Type (0, 0), BuildingBlock: FUNLAD_clean_linker_0, # of connection points: 2
#     Edge 16, Type (0, 0), BuildingBlock: FUNLAD_clean_linker_0, # of connection points: 2
#     Edge 17, Type (0, 0), BuildingBlock: FUNLAD_clean_linker_0, # of connection points: 2
#     Edge 18, Type (0, 0), BuildingBlock: FUNLAD_clean_linker_0, # of connection points: 2
#     Edge 19, Type (0, 0), BuildingBlock: FUNLAD_clean_linker_0, # of connection points: 2
#     Edge 20, Type (0, 0), BuildingBlock: FUNLAD_clean_linker_0, # of connection points: 2
#     Edge 21, Type (0, 0), BuildingBlock: FUNLAD_clean_linker_0, # of connection points: 2
#     Edge 22, Type (0, 0), BuildingBlock: FUNLAD_clean_linker_0, # of connection points: 2
#     Edge 23, Type (0, 0), BuildingBlock: FUNLAD_clean_linker_0, # of connection points: 2
# Relax obj value: 0.065
# Max RMSD: 0.111
# Mean RMSD: 0.111
data_MOF--net-mmt--node1-TATPOV_clean_sbu_0--edge1-FUNLAD_clean_linker_0
_symmetry_space_group_name_H-M    P1
_symmetry_Int_Tables_number       1
_symmetry_cell_setting            triclinic
loop_
_symmetry_equiv_pos_as_xyz
'x, y, z'
_cell_length_a     25.365327
_cell_length_b     45.326565
_cell_length_c     46.960537
_cell_angle_alpha  89.77123
_cell_angle_beta   89.862484
_cell_angle_gamma 90.041092
loop_
_atom_site_label
_atom_site_type_symbol
_atom_site_fract_x
_atom_site_fract_y
_atom_site_fract_z
_atom_type_partial_charge
Zn0 Zn 0.22048 0.51991 0.36272 0.0
Zn1 Zn 0.20762 0.57863 0.36055 0.0
O2 O 0.1679 0.56543 0.39742 0.0
O3 O 0.18179 0.51749 0.39977 0.0
O4 O 0.20147 0.62352 0.3596 0.0
O5 O 0.29896 0.52352 0.36171 0.0
O6 O 0.28818 0.57145 0.35687 0.0
C7 C 0.16139 0.54061 0.40998 0.0
C8 C 0.16212 0.54003 0.31339 0.0
O9 O 0.16897 0.56539 0.32446 0.0
O10 O 0.18031 0.51721 0.32556 0.0
C11 C 0.23142 0.64008 0.37431 0.0
O12 O 0.26636 0.62783 0.39123 0.0
C13 C 0.31834 0.54893 0.35783 0.0
Zn14 Zn 0.26243 0.03554 0.36142 0.0
Zn15 Zn 0.27193 0.97678 0.36524 0.0
O16 O 0.31144 0.99344 0.40066 0.0
O17 O 0.30009 0.04158 0.39827 0.0
O18 O 0.27548 0.93208 0.37034 0.0
O19 O 0.18384 0.03331 0.36032 0.0
O20 O 0.19184 0.98496 0.36058 0.0
C21 C 0.31892 1.01923 0.41082 0.0
C22 C 0.32061 1.00913 0.31461 0.0
O23 O 0.31203 0.98507 0.32802 0.0
O24 O 0.30365 0.03334 0.32449 0.0
C25 C 0.24959 0.91484 0.35419 0.0
O26 O 0.22075 0.92629 0.33374 0.0
C27 C 0.16302 1.00799 0.35907 0.0
Zn28 Zn 0.72081 0.52621 0.1408 0.0
Zn29 Zn 0.71123 0.4674 0.143 0.0
O30 O 0.66984 0.47929 0.10639 0.0
O31 O 0.68075 0.5275 0.1042 0.0
O32 O 0.71365 0.42242 0.14369 0.0
O33 O 0.79944 0.52525 0.14077 0.0
O34 O 0.79094 0.47725 0.14582 0.0
C35 C 0.66165 0.50403 0.09402 0.0
C36 C 0.66423 0.5046 0.1906 0.0
O37 O 0.67128 0.47932 0.17935 0.0
O38 O 0.68198 0.5276 0.17849 0.0
C39 C 0.67959 0.40474 0.13354 0.0
O40 O 0.63701 0.41549 0.12147 0.0
C41 C 0.8201 0.50017 0.14449 0.0
Zn42 Zn 0.76646 1.01509 0.14076 0.0
Zn43 Zn 0.76877 0.07421 0.13978 0.0
O44 O 0.81178 0.06192 0.10393 0.0
O45 O 0.80919 1.01335 0.10485 0.0
O46 O 0.76242 0.11901 0.1371 0.0
O47 O 0.68767 1.01342 0.14004 0.0
O48 O 0.69032 0.0618 0.14294 0.0
C49 C 0.82467 0.03706 0.09321 0.0
C50 C 0.81795 0.04123 0.18977 0.0
O51 O 0.80893 0.06559 0.17698 0.0
O52 O 0.80309 1.01708 0.17889 0.0
C53 C 0.79706 0.13729 0.14556 0.0
O54 O 0.84123 0.12722 0.15645 0.0
C55 C 0.66398 0.0378 0.1426 0.0
Zn56 Zn 0.75289 0.53585 0.63086 0.0
Zn57 Zn 0.76071 0.47799 0.63847 0.0
O58 O 0.79767 0.48648 0.59941 0.0
O59 O 0.78374 0.53383 0.59187 0.0
O60 O 0.75659 0.43305 0.64163 0.0
O61 O 0.67513 0.53715 0.63679 0.0
O62 O 0.68217 0.48948 0.64463 0.0
C63 C 0.80278 0.50948 0.5838 0.0
C64 C 0.81847 0.51856 0.67905 0.0
O65 O 0.80639 0.49224 0.67198 0.0
O66 O 0.80114 0.54025 0.66476 0.0
C67 C 0.79299 0.41501 0.63497 0.0
O68 O 0.8383 0.42539 0.6257 0.0
C69 C 0.6541 0.51283 0.64356 0.0
Zn70 Zn 0.72907 0.02766 0.63025 0.0
Zn71 Zn 0.71412 0.08439 0.64063 0.0
O72 O 0.67724 0.07644 0.60155 0.0
O73 O 0.69611 0.03012 0.59193 0.0
O74 O 0.71374 0.12928 0.64525 0.0
O75 O 0.80706 0.02901 0.63471 0.0
O76 O 0.79395 0.07549 0.64581 0.0
C77 C 0.67407 0.05412 0.58508 0.0
C78 C 0.66305 0.03956 0.67999 0.0
O79 O 0.67095 0.06671 0.67393 0.0
O80 O 0.68321 1.01955 0.66465 0.0
C81 C 0.6808 0.147 0.63399 0.0
O82 O 0.64151 0.13624 0.61909 0.0
C83 C 0.82501 0.05355 0.64292 0.0
Zn84 Zn 0.25078 0.5115 0.87402 0.0
Zn85 Zn 0.26137 0.56935 0.86795 0.0
O86 O 0.29762 0.55884 0.90663 0.0
O87 O 0.28215 0.51144 0.91286 0.0
O88 O 0.26159 0.61441 0.86649 0.0
O89 O 0.17294 0.51191 0.8685 0.0
O90 O 0.18213 0.55961 0.86136 0.0
C91 C 0.3021 0.53532 0.92155 0.0
C92 C 0.31683 0.52922 0.82601 0.0
O93 O 0.30624 0.55545 0.83397 0.0
O94 O 0.29838 0.50734 0.83968 0.0
C95 C 0.30257 0.63012 0.87033 0.0
O96 O 0.34783 0.61692 0.87506 0.0
C97 C 0.15303 0.53661 0.8621 0.0
Zn98 Zn 0.22321 1.02275 0.86254 0.0
Zn99 Zn 0.21783 0.96444 0.85824 0.0
O100 O 0.17752 0.97419 0.89588 0.0
O101 O 0.18244 1.02256 0.89892 0.0
O102 O 0.21787 0.91939 0.8564 0.0
O103 O 0.30178 1.02316 0.86235 0.0
O104 O 0.29728 0.97547 0.85419 0.0
C105 C 0.16634 0.99817 0.9088 0.0
C106 C 0.16794 1.00315 0.81232 0.0
O107 O 0.17615 0.97754 0.82277 0.0
O108 O 0.18485 0.02585 0.82503 0.0
C109 C 0.24732 0.90407 0.87267 0.0
O110 O 0.27747 0.91774 0.89112 0.0
C111 C 0.32445 0.99908 0.85656 0.0
C112 C 0.40823 0.52703 0.35344 0.0
C113 C 0.37446 0.55129 0.34951 0.0
C114 C 0.45668 0.52574 0.33934 0.0
C115 C 0.47201 0.54857 0.32071 0.0
C116 C 0.44082 0.57414 0.31918 0.0
C117 C 0.3924 0.57551 0.33343 0.0
C118 C 0.51748 0.54554 0.30088 0.0
C119 C 0.53363 0.51914 0.29083 0.0
C120 C 0.57116 0.51543 0.26666 0.0
C121 C 0.57269 0.4881 0.25258 0.0
C122 C 0.6039 0.48421 0.2283 0.0
C123 C 0.63425 0.50764 0.21752 0.0
H124 H 0.6055 0.55949 0.26727 0.0
C125 C 0.63451 0.53459 0.23225 0.0
C126 C 0.60369 0.53841 0.25664 0.0
H127 H 0.65828 0.55295 0.22481 0.0
H128 H 0.396 0.50827 0.36621 0.0
H129 H 0.48088 0.50632 0.34225 0.0
H130 H 0.45219 0.59232 0.30541 0.0
H131 H 0.36747 0.59461 0.33013 0.0
H132 H 0.53305 0.56575 0.29176 0.0
H133 H 0.51462 0.4992 0.29859 0.0
H134 H 0.54849 0.46987 0.25993 0.0
H135 H 0.60306 0.46311 0.21756 0.0
C136 C 0.84674 1.01479 0.23385 0.0
C137 C 0.84703 0.04053 0.21703 0.0
C138 C 0.87724 1.01291 0.25849 0.0
C139 C 0.90958 0.03664 0.26668 0.0
C140 C 0.90788 0.06286 0.25055 0.0
C141 C 0.87689 0.06484 0.22602 0.0
C142 C 0.94731 0.03471 0.29089 0.0
C143 C 0.96327 1.00912 0.30296 0.0
C144 C 0.00903 1.00733 0.32264 0.0
C145 C 0.03906 0.98129 0.32332 0.0
C146 C 0.08758 0.98051 0.33739 0.0
C147 C 0.10681 1.00581 0.35106 0.0
H148 H 0.00246 0.05151 0.3402 0.0
C149 C 0.07428 0.03084 0.35285 0.0
C150 C 0.02571 0.03155 0.33895 0.0
H151 H 0.08755 0.0505 0.36376 0.0
H152 H 0.82326 0.99585 0.22781 0.0
H153 H 0.87543 0.99269 0.2707 0.0
H154 H 0.93188 0.08164 0.25645 0.0
H155 H 0.87769 0.08504 0.21363 0.0
H156 H 0.96666 0.05512 0.29688 0.0
H157 H 0.94719 0.98833 0.29567 0.0
H158 H 0.02666 0.96209 0.31139 0.0
H159 H 0.11156 0.96081 0.33577 0.0
C160 C 0.90845 0.52381 0.14996 0.0
C161 C 0.87664 0.49846 0.15199 0.0
C162 C 0.95747 0.52476 0.16336 0.0
C163 C 0.97544 0.50042 0.17923 0.0
C164 C 0.9463 0.47408 0.17866 0.0
C165 C 0.89719 0.47309 0.16522 0.0
C166 C 0.02136 0.50262 0.19866 0.0
C167 C 0.03245 0.52775 0.2128 0.0
C168 C 0.07011 0.53019 0.23698 0.0
C169 C 0.07927 0.55827 0.24861 0.0
C170 C 0.10989 0.56162 0.27308 0.0
C171 C 0.13208 0.5369 0.28657 0.0
H172 H 0.0876 0.48338 0.24233 0.0
C173 C 0.12424 0.50888 0.27455 0.0
C174 C 0.09362 0.50551 0.25009 0.0
H175 H 0.14093 0.48934 0.28434 0.0
H176 H 0.89428 0.54353 0.13937 0.0
H177 H 0.9801 0.54499 0.16224 0.0
H178 H 0.95977 0.45484 0.19031 0.0
H179 H 0.8739 0.45312 0.16693 0.0
H180 H 0.04196 0.48232 0.2036 0.0
H181 H 0.00989 0.54747 0.2079 0.0
H182 H 0.06169 0.57772 0.23909 0.0
H183 H 0.11532 0.58355 0.28169 0.0
C184 C 0.57945 1.01094 0.15176 0.0
C185 C 0.60719 0.03778 0.15001 0.0
C186 C 0.53029 1.0096 0.16514 0.0
C187 C 0.50796 0.03509 0.17709 0.0
C188 C 0.53307 0.06236 0.17272 0.0
C189 C 0.5824 0.06371 0.15941 0.0
C190 C 0.46142 0.03371 0.19628 0.0
C191 C 0.45298 1.01065 0.21401 0.0
C192 C 0.41451 1.01063 0.23801 0.0
C193 C 0.40385 0.98384 0.25209 0.0
C194 C 0.37251 0.98312 0.27663 0.0
C195 C 0.35129 1.00928 0.28773 0.0
H196 H 0.40004 0.05801 0.2393 0.0
C197 C 0.36087 0.03599 0.2733 0.0
C198 C 0.39218 0.03673 0.24882 0.0
H199 H 0.34516 0.0566 0.28125 0.0
H200 H 0.59692 0.99061 0.14423 0.0
H201 H 0.51088 0.9884 0.16703 0.0
H202 H 0.51622 0.08241 0.18132 0.0
H203 H 0.60241 0.08479 0.15814 0.0
H204 H 0.43752 0.05345 0.19786 0.0
H205 H 0.47798 0.99129 0.21226 0.0
H206 H 0.42075 0.9634 0.24441 0.0
H207 H 0.36581 0.96215 0.28717 0.0
C208 C 0.36692 0.54674 0.7828 0.0
C209 C 0.35106 0.5237 0.80101 0.0
C210 C 0.39988 0.54105 0.75948 0.0
C211 C 0.41769 0.51216 0.75405 0.0
C212 C 0.40177 0.48926 0.77227 0.0
C213 C 0.36857 0.49487 0.79531 0.0
C214 C 0.45631 0.50536 0.73124 0.0
C215 C 0.46134 0.52124 0.70709 0.0
C216 C 0.50541 0.51667 0.68664 0.0
C217 C 0.52332 0.54089 0.67066 0.0
C218 C 0.56987 0.53899 0.65485 0.0
C219 C 0.59934 0.51271 0.65456 0.0
H220 H 0.51817 0.46996 0.69504 0.0
C221 C 0.57874 0.48763 0.66832 0.0
C222 C 0.53211 0.48955 0.68415 0.0
H223 H 0.59999 0.46692 0.66815 0.0
H224 H 0.35424 0.56919 0.78666 0.0
H225 H 0.4126 0.55943 0.7464 0.0
H226 H 0.41536 0.4669 0.76877 0.0
H227 H 0.35733 0.47656 0.80892 0.0
H228 H 0.48247 0.48686 0.73518 0.0
H229 H 0.43516 0.53979 0.70329 0.0
H230 H 0.50301 0.56188 0.67173 0.0
H231 H 0.58419 0.55865 0.64415 0.0
C232 C 0.91427 0.03114 0.64903 0.0
C233 C 0.87991 0.05505 0.65338 0.0
C234 C 0.96158 0.02915 0.66405 0.0
C235 C 0.97521 0.05094 0.68398 0.0
C236 C 0.94334 0.07615 0.68627 0.0
C237 C 0.89605 0.0782 0.67116 0.0
C238 C 0.01999 0.04724 0.70404 0.0
C239 C 0.03712 1.02053 0.71287 0.0
C240 C 0.07454 1.01608 0.73689 0.0
C241 C 0.07629 0.98832 0.75035 0.0
C242 C 0.10761 0.98374 0.77444 0.0
C243 C 0.13779 1.00692 0.78562 0.0
H244 H 0.10863 0.0602 0.73705 0.0
C245 C 0.13781 0.03432 0.77147 0.0
C246 C 0.10693 0.03882 0.74728 0.0
H247 H 0.16149 0.05249 0.77921 0.0
H248 H 0.9035 1.0132 0.63502 0.0
H249 H 0.98636 1.01007 0.66064 0.0
H250 H 0.95341 0.09354 0.70107 0.0
H251 H 0.87069 0.09704 0.67482 0.0
H252 H 0.03439 0.06708 0.71425 0.0
H253 H 0.01916 1.00079 0.70416 0.0
H254 H 0.05222 0.97028 0.74267 0.0
H255 H 0.107 0.96231 0.78473 0.0
C256 C 0.07999 0.56225 0.83601 0.0
C257 C 0.09845 0.53746 0.85101 0.0
C258 C 0.03373 0.56051 0.81994 0.0
C259 C 0.00524 0.53385 0.81849 0.0
C260 C 0.02096 0.51012 0.8357 0.0
C261 C 0.06716 0.51182 0.85171 0.0
C262 C 0.96151 0.52917 0.79796 0.0
C263 C 0.95838 0.54384 0.77303 0.0
C264 C 0.91983 0.53674 0.75033 0.0
C265 C 0.90604 0.55905 0.73101 0.0
C266 C 0.87277 0.55307 0.70816 0.0
C267 C 0.85306 0.52443 0.70377 0.0
H268 H 0.91098 0.49007 0.76015 0.0
C269 C 0.86691 0.50196 0.72304 0.0
C270 C 0.89993 0.50805 0.74617 0.0
H271 H 0.85251 0.47967 0.72019 0.0
H272 H 0.10274 0.58248 0.83535 0.0
H273 H 0.02151 0.5798 0.80804 0.0
H274 H -0.00077 0.48952 0.83545 0.0
H275 H 0.07981 0.49243 0.86338 0.0
H276 H 0.93386 0.51144 0.80246 0.0
H277 H 0.98604 0.5615 0.76838 0.0
H278 H 0.92128 0.58123 0.73352 0.0
H279 H 0.86315 0.57093 0.6937 0.0
C280 C 0.40229 0.97665 0.83178 0.0
C281 C 0.38041 0.99995 0.84751 0.0
C282 C 0.44966 0.98064 0.81691 0.0
C283 C 0.47583 1.00808 0.81743 0.0
C284 C 0.45683 0.03014 0.83561 0.0
C285 C 0.40956 0.02618 0.85042 0.0
C286 C 0.5201 1.0155 0.79781 0.0
C287 C 0.52621 1.00254 0.77226 0.0
C288 C 0.56446 1.01264 0.75031 0.0
C289 C 0.58205 0.99217 0.73015 0.0
C290 C 0.61457 1.00098 0.70771 0.0
C291 C 0.62972 0.03069 0.70455 0.0
H292 H 0.56596 0.05895 0.76218 0.0
C293 C 0.61228 0.05131 0.72476 0.0
C294 C 0.58001 0.04237 0.7475 0.0
H295 H 0.62315 0.07435 0.72288 0.0
H296 H 0.38125 0.956 0.82944 0.0
H297 H 0.46441 0.96253 0.80426 0.0
H298 H 0.47672 0.05125 0.83692 0.0
H299 H 0.39426 0.04444 0.86274 0.0
H300 H 0.54527 0.03396 0.80346 0.0
H301 H 0.50114 0.98413 0.76643 0.0
H302 H 0.57021 0.96923 0.73162 0.0
H303 H 0.62706 0.98446 0.69253 0.0
C304 C 0.08398 0.55745 0.43907 0.0
C305 C 0.12573 0.53759 0.43481 0.0
C306 C 0.04525 0.55155 0.45964 0.0
C307 C 0.04791 0.52579 0.47647 0.0
C308 C 0.09143 0.50702 0.47339 0.0
C309 C 0.12961 0.51266 0.45261 0.0
C310 C 0.0063 0.51781 0.49747 0.0
C311 C 0.95509 0.5247 0.49383 0.0
C312 C 0.91333 0.51765 0.51509 0.0
C313 C 0.86898 0.53603 0.51645 0.0
C314 C 0.83126 0.53215 0.53782 0.0
C315 C 0.83653 0.50942 0.55806 0.0
H316 H 0.94957 0.47834 0.53314 0.0
C317 C 0.87874 0.48956 0.55546 0.0
C318 C 0.91697 0.49367 0.5342 0.0
H319 H 0.88378 0.4718 0.57072 0.0
H320 H 0.07998 0.57685 0.4257 0.0
H321 H 0.01319 0.56708 0.46216 0.0
H322 H 0.09491 0.48732 0.4864 0.0
H323 H 0.16154 0.49704 0.44998 0.0
H324 H 0.01839 0.50516 0.51602 0.0
H325 H 0.94335 0.53725 0.47514 0.0
H326 H 0.86466 0.55434 0.50172 0.0
H327 H 0.79892 0.54769 0.53913 0.0
C328 C 0.39362 1.0037 0.44243 0.0
C329 C 0.35358 0.02393 0.4357 0.0
C330 C 0.43129 1.01056 0.46313 0.0
C331 C 0.42922 0.03767 0.47766 0.0
C332 C 0.38735 0.057 0.47213 0.0
C333 C 0.35028 0.05039 0.45115 0.0
C334 C 0.4699 0.04638 0.49873 0.0
C335 C 0.52105 0.03895 0.49584 0.0
C336 C 0.56255 0.04616 0.51706 0.0
C337 C 0.60788 0.02849 0.51778 0.0
C338 C 0.64573 0.03235 0.53893 0.0
C339 C 0.63958 0.05433 0.55971 0.0
H340 H 0.52459 0.0843 0.53627 0.0
C341 C 0.59624 0.07351 0.55785 0.0
C342 C 0.55793 0.06945 0.53674 0.0
H343 H 0.59052 0.0907 0.57352 0.0
H344 H 0.39713 0.98313 0.43092 0.0
H345 H 0.4621 0.9947 0.4676 0.0
H346 H 0.38438 0.07779 0.48334 0.0
H347 H 0.31962 0.06634 0.44659 0.0
H348 H 0.45718 0.05984 0.51651 0.0
H349 H 0.53294 0.02579 0.47763 0.0
H350 H 0.61301 1.01073 0.50264 0.0
H351 H 0.67895 1.01735 0.53962 0.0
C352 C 0.58454 0.48626 0.06535 0.0
C353 C 0.62583 0.50649 0.06931 0.0
C354 C 0.5456 0.4917 0.04487 0.0
C355 C 0.54767 0.51736 0.02784 0.0
C356 C 0.5908 0.53647 0.03063 0.0
C357 C 0.62914 0.53129 0.05132 0.0
C358 C 0.50585 0.52501 0.00697 0.0
C359 C 0.45483 0.51758 0.01059 0.0
C360 C 0.41302 0.52495 0.98958 0.0
C361 C 0.36931 0.50615 0.98748 0.0
C362 C 0.33153 0.51061 0.96634 0.0
C363 C 0.3361 0.53433 0.94709 0.0
H364 H 0.44804 0.56543 0.9732 0.0
C365 C 0.37772 0.55447 0.95047 0.0
C366 C 0.41598 0.54979 0.97149 0.0
H367 H 0.38223 0.57298 0.93602 0.0
H368 H 0.58102 0.46695 0.07889 0.0
H369 H 0.51387 0.47592 0.04259 0.0
H370 H 0.59383 0.55611 0.01749 0.0
H371 H 0.66073 0.54718 0.05371 0.0
H372 H 0.51756 0.53804 0.98856 0.0
H373 H 0.44327 0.50457 0.02905 0.0
H374 H 0.36552 0.48717 0.00145 0.0
H375 H 0.29965 0.49482 0.96443 0.0
C376 C 0.12127 0.025 0.94836 0.0
C377 C 0.13056 0.9984 0.93383 0.0
C378 C 0.08288 0.02668 0.96962 0.0
C379 C 0.05244 1.0018 0.97681 0.0
C380 C 0.06358 0.97483 0.96339 0.0
C381 C 0.1021 0.97313 0.94201 0.0
C382 C 0.00936 1.00322 0.99834 0.0
C383 C 0.98207 0.02813 0.00401 0.0
C384 C 0.93923 0.03006 0.02568 0.0
C385 C 0.92618 0.05779 0.03702 0.0
C386 C 0.88768 0.06041 0.05829 0.0
C387 C 0.86116 0.03529 0.06855 0.0
H388 H 0.918 0.98355 0.02614 0.0
C389 C 0.87259 1.00774 0.05628 0.0
C390 C 0.91095 1.00514 0.03506 0.0
H391 H 0.85242 0.98795 0.06336 0.0
H392 H 0.143 0.04483 0.94295 0.0
H393 H 0.0773 0.04755 0.9803 0.0
H394 H 0.04133 0.95519 0.96887 0.0
H395 H 0.10836 0.95229 0.93133 0.0
H396 H -0.00042 0.98284 0.00932 0.0
H397 H 0.99192 0.04836 0.99275 0.0
H398 H 0.94677 0.07745 0.02992 0.0
H399 H 0.87978 0.08197 0.06721 0.0
C400 C 0.26138 0.69095 0.38811 0.0
C401 C 0.22832 0.67277 0.37174 0.0
C402 C 0.25954 0.72172 0.38531 0.0
C403 C 0.22467 0.73518 0.36587 0.0
C404 C 0.19113 0.71695 0.34987 0.0
C405 C 0.19296 0.68618 0.35268 0.0
C406 C 0.22104 0.76792 0.36185 0.0
C407 C 0.25755 0.78751 0.3709 0.0
C408 C 0.25386 0.82014 0.36633 0.0
C409 C 0.28384 0.83893 0.38372 0.0
C410 C 0.28244 0.8696 0.37992 0.0
C411 C 0.25131 0.8823 0.3584 0.0
H412 H 0.20056 0.81938 0.33008 0.0
C413 C 0.22169 0.86353 0.34078 0.0
C414 C 0.223 0.83287 0.34461 0.0
H415 H 0.19755 0.87248 0.32384 0.0
H416 H 0.28885 0.68141 0.40317 0.0
H417 H 0.28516 0.73463 0.39874 0.0
H418 H 0.16355 0.72652 0.33487 0.0
H419 H 0.16681 0.67293 0.33977 0.0
H420 H 0.18659 0.77597 0.35061 0.0
H421 H 0.29182 0.77972 0.38241 0.0
H422 H 0.30836 0.82985 0.40046 0.0
H423 H 0.3059 0.88333 0.39383 0.0
C424 C 0.73935 0.18064 0.13302 0.0
C425 C 0.78722 0.16961 0.14376 0.0
C426 C 0.7299 0.2111 0.13173 0.0
C427 C 0.76813 0.23135 0.14128 0.0
C428 C 0.81615 0.22023 0.15165 0.0
C429 C 0.82555 0.18982 0.15298 0.0
C430 C 0.76057 0.26409 0.14024 0.0
C431 C 0.7134 0.27766 0.13741 0.0
C432 C 0.7063 0.31043 0.13662 0.0
C433 C 0.65968 0.32204 0.12495 0.0
C434 C 0.65097 0.35255 0.12395 0.0
C435 C 0.68853 0.37231 0.13484 0.0
H436 H 0.77936 0.32242 0.1579 0.0
C437 C 0.73489 0.36074 0.1469 0.0
C438 C 0.74367 0.33023 0.14786 0.0
H439 H 0.76454 0.37526 0.15571 0.0
H440 H 0.70904 0.16574 0.12555 0.0
H441 H 0.69291 0.21845 0.12281 0.0
H442 H 0.84659 0.23515 0.15898 0.0
H443 H 0.86294 0.1822 0.1613 0.0
H444 H 0.7959 0.27742 0.14219 0.0
H445 H 0.67798 0.26447 0.13525 0.0
H446 H 0.6299 0.30744 0.11636 0.0
H447 H 0.61471 0.3606 0.1146 0.0
C448 C 0.73353 0.19136 0.64931 0.0
C449 C 0.68839 0.1795 0.63623 0.0
C450 C 0.74166 0.22196 0.65023 0.0
C451 C 0.7048 0.2415 0.63805 0.0
C452 C 0.65915 0.22962 0.62563 0.0
C453 C 0.65116 0.19906 0.62458 0.0
C454 C 0.71172 0.27429 0.63831 0.0
C455 C 0.75895 0.28793 0.64042 0.0
C456 C 0.76619 0.32069 0.63935 0.0
C457 C 0.81581 0.33212 0.63174 0.0
C458 C 0.82452 0.36262 0.63039 0.0
C459 C 0.78389 0.38259 0.63691 0.0
H460 H 0.68725 0.33294 0.65308 0.0
C461 C 0.7344 0.37121 0.64503 0.0
C462 C 0.72563 0.34067 0.64628 0.0
H463 H 0.70227 0.3859 0.65041 0.0
H464 H 0.76291 0.17699 0.65867 0.0
H465 H 0.77658 0.23011 0.6608 0.0
H466 H 0.62975 0.24403 0.61632 0.0
H467 H 0.61582 0.1908 0.61445 0.0
H468 H 0.67662 0.28749 0.63488 0.0
H469 H 0.79449 0.27464 0.64134 0.0
H470 H 0.848 0.31738 0.62653 0.0
H471 H 0.8632 0.37051 0.62417 0.0
C472 C 0.25068 0.67743 0.86631 0.0
C473 C 0.29919 0.66293 0.87024 0.0
C474 C 0.24757 0.70833 0.86702 0.0
C475 C 0.2931 0.72555 0.87154 0.0
C476 C 0.34146 0.71094 0.87541 0.0
C477 C 0.34454 0.68013 0.8747 0.0
C478 C 0.29205 0.75849 0.87363 0.0
C479 C 0.25217 0.77582 0.86439 0.0
C480 C 0.25203 0.80875 0.86687 0.0
C481 C 0.219 0.82537 0.84893 0.0
C482 C 0.21732 0.85623 0.85073 0.0
C483 C 0.24842 0.87129 0.87073 0.0
H484 H 0.30726 0.81205 0.9021 0.0
C485 C 0.28092 0.85467 0.88896 0.0
C486 C 0.2826 0.82384 0.88716 0.0
H487 H 0.30506 0.86545 0.90482 0.0
H488 H 0.21486 0.66489 0.863 0.0
H489 H 0.20922 0.71842 0.86463 0.0
H490 H 0.3772 0.72345 0.8791 0.0
H491 H 0.38258 0.6698 0.87786 0.0
H492 H 0.32699 0.76885 0.88239 0.0
H493 H 0.21902 0.76586 0.85349 0.0
H494 H 0.19456 0.81445 0.83328 0.0
H495 H 0.19167 0.86827 0.83641 0.0
loop_
_geom_bond_atom_site_label_1
_geom_bond_atom_site_label_2
_geom_bond_distance
_geom_bond_site_symmetry_2
_ccdc_geom_bond_type
Zn0 O3 2.031 . S
Zn0 O5 2.049 . S
Zn0 O10 2.067 . S
Zn1 O2 1.962 . S
Zn1 O4 1.986 . S
Zn1 O6 1.996 . S
Zn1 O9 1.943 . S
O2 Zn1 1.962 . S
O2 C7 1.254 . S
O3 Zn0 2.031 . S
O3 C7 1.269 . S
O4 Zn1 1.986 . S
O4 C11 1.262 . S
O5 Zn0 2.049 . S
O5 C13 1.260 . S
O6 Zn1 1.996 . S
O6 C13 1.257 . S
C7 O2 1.254 . S
C7 O3 1.269 . S
C8 O9 1.249 . S
C8 O10 1.270 . S
O9 Zn1 1.943 . S
O9 C8 1.249 . S
O10 Zn0 2.067 . S
O10 C8 1.270 . S
C11 O4 1.262 . S
C11 O12 1.232 . S
O12 C11 1.232 . S
C13 O5 1.260 . S
C13 O6 1.257 . S
Zn14 O17 2.031 . S
Zn14 O19 2.049 . S
Zn14 O24 2.067 . S
Zn15 O16 1.962 . S
Zn15 O18 1.986 . S
Zn15 O20 1.996 . S
Zn15 O23 1.943 . S
O16 Zn15 1.962 . S
O16 C21 1.254 . S
O17 Zn14 2.031 . S
O17 C21 1.269 . S
O18 Zn15 1.986 . S
O18 C25 1.262 . S
O19 Zn14 2.049 . S
O19 C27 1.260 . S
O20 Zn15 1.996 . S
O20 C27 1.257 . S
C21 O16 1.254 . S
C21 O17 1.269 . S
C22 O23 1.249 . S
C22 O24 1.270 . S
O23 Zn15 1.943 . S
O23 C22 1.249 . S
O24 Zn14 2.067 . S
O24 C22 1.270 . S
C25 O18 1.262 . S
C25 O26 1.232 . S
O26 C25 1.232 . S
C27 O19 1.260 . S
C27 O20 1.257 . S
Zn28 O31 2.031 . S
Zn28 O33 2.049 . S
Zn28 O38 2.067 . S
Zn29 O30 1.962 . S
Zn29 O32 1.986 . S
Zn29 O34 1.996 . S
Zn29 O37 1.943 . S
O30 Zn29 1.962 . S
O30 C35 1.254 . S
O31 Zn28 2.031 . S
O31 C35 1.269 . S
O32 Zn29 1.986 . S
O32 C39 1.262 . S
O33 Zn28 2.049 . S
O33 C41 1.260 . S
O34 Zn29 1.996 . S
O34 C41 1.257 . S
C35 O30 1.254 . S
C35 O31 1.269 . S
C36 O37 1.249 . S
C36 O38 1.270 . S
O37 Zn29 1.943 . S
O37 C36 1.249 . S
O38 Zn28 2.067 . S
O38 C36 1.270 . S
C39 O32 1.262 . S
C39 O40 1.232 . S
O40 C39 1.232 . S
C41 O33 1.260 . S
C41 O34 1.257 . S
Zn42 O45 2.031 . S
Zn42 O47 2.049 . S
Zn42 O52 2.067 . S
Zn43 O44 1.962 . S
Zn43 O46 1.986 . S
Zn43 O48 1.996 . S
Zn43 O51 1.943 . S
O44 Zn43 1.962 . S
O44 C49 1.254 . S
O45 Zn42 2.031 . S
O45 C49 1.269 . S
O46 Zn43 1.986 . S
O46 C53 1.262 . S
O47 Zn42 2.049 . S
O47 C55 1.260 . S
O48 Zn43 1.996 . S
O48 C55 1.257 . S
C49 O44 1.254 . S
C49 O45 1.269 . S
C50 O51 1.249 . S
C50 O52 1.270 . S
O51 Zn43 1.943 . S
O51 C50 1.249 . S
O52 Zn42 2.067 . S
O52 C50 1.270 . S
C53 O46 1.262 . S
C53 O54 1.232 . S
O54 C53 1.232 . S
C55 O47 1.260 . S
C55 O48 1.257 . S
Zn56 O59 2.031 . S
Zn56 O61 2.049 . S
Zn56 O66 2.067 . S
Zn57 O58 1.962 . S
Zn57 O60 1.986 . S
Zn57 O62 1.996 . S
Zn57 O65 1.943 . S
O58 Zn57 1.962 . S
O58 C63 1.254 . S
O59 Zn56 2.031 . S
O59 C63 1.269 . S
O60 Zn57 1.986 . S
O60 C67 1.262 . S
O61 Zn56 2.049 . S
O61 C69 1.260 . S
O62 Zn57 1.996 . S
O62 C69 1.257 . S
C63 O58 1.254 . S
C63 O59 1.269 . S
C64 O65 1.249 . S
C64 O66 1.270 . S
O65 Zn57 1.943 . S
O65 C64 1.249 . S
O66 Zn56 2.067 . S
O66 C64 1.270 . S
C67 O60 1.262 . S
C67 O68 1.232 . S
O68 C67 1.232 . S
C69 O61 1.260 . S
C69 O62 1.257 . S
Zn70 O73 2.031 . S
Zn70 O75 2.049 . S
Zn70 O80 2.067 . S
Zn71 O72 1.962 . S
Zn71 O74 1.986 . S
Zn71 O76 1.996 . S
Zn71 O79 1.943 . S
O72 Zn71 1.962 . S
O72 C77 1.254 . S
O73 Zn70 2.031 . S
O73 C77 1.269 . S
O74 Zn71 1.986 . S
O74 C81 1.262 . S
O75 Zn70 2.049 . S
O75 C83 1.260 . S
O76 Zn71 1.996 . S
O76 C83 1.257 . S
C77 O72 1.254 . S
C77 O73 1.269 . S
C78 O79 1.249 . S
C78 O80 1.270 . S
O79 Zn71 1.943 . S
O79 C78 1.249 . S
O80 Zn70 2.067 . S
O80 C78 1.270 . S
C81 O74 1.262 . S
C81 O82 1.232 . S
O82 C81 1.232 . S
C83 O75 1.260 . S
C83 O76 1.257 . S
Zn84 O87 2.031 . S
Zn84 O89 2.049 . S
Zn84 O94 2.067 . S
Zn85 O86 1.962 . S
Zn85 O88 1.986 . S
Zn85 O90 1.996 . S
Zn85 O93 1.943 . S
O86 Zn85 1.962 . S
O86 C91 1.254 . S
O87 Zn84 2.031 . S
O87 C91 1.269 . S
O88 Zn85 1.986 . S
O88 C95 1.262 . S
O89 Zn84 2.049 . S
O89 C97 1.260 . S
O90 Zn85 1.996 . S
O90 C97 1.257 . S
C91 O86 1.254 . S
C91 O87 1.269 . S
C92 O93 1.249 . S
C92 O94 1.270 . S
O93 Zn85 1.943 . S
O93 C92 1.249 . S
O94 Zn84 2.067 . S
O94 C92 1.270 . S
C95 O88 1.262 . S
C95 O96 1.232 . S
O96 C95 1.232 . S
C97 O89 1.260 . S
C97 O90 1.257 . S
Zn98 O101 2.031 . S
Zn98 O103 2.049 . S
Zn98 O108 2.067 . S
Zn99 O100 1.962 . S
Zn99 O102 1.986 . S
Zn99 O104 1.996 . S
Zn99 O107 1.943 . S
O100 Zn99 1.962 . S
O100 C105 1.254 . S
O101 Zn98 2.031 . S
O101 C105 1.269 . S
O102 Zn99 1.986 . S
O102 C109 1.262 . S
O103 Zn98 2.049 . S
O103 C111 1.260 . S
O104 Zn99 1.996 . S
O104 C111 1.257 . S
C105 O100 1.254 . S
C105 O101 1.269 . S
C106 O107 1.249 . S
C106 O108 1.270 . S
O107 Zn99 1.943 . S
O107 C106 1.249 . S
O108 Zn98 2.067 . S
O108 C106 1.270 . S
C109 O102 1.262 . S
C109 O110 1.232 . S
O110 C109 1.232 . S
C111 O103 1.260 . S
C111 O104 1.257 . S
C112 C113 1.386 . S
C112 C114 1.383 . S
C112 H128 0.951 . S
C113 C112 1.386 . S
C113 C117 1.383 . S
C114 C112 1.383 . S
C114 C115 1.402 . S
C114 H129 0.951 . S
C115 C114 1.402 . S
C115 C116 1.375 . S
C115 C118 1.481 . S
C116 C115 1.375 . S
C116 C117 1.367 . S
C116 H130 0.951 . S
C117 C113 1.383 . S
C117 C116 1.367 . S
C117 H131 0.950 . S
C118 C115 1.481 . S
C118 C119 1.297 . S
C118 H132 0.950 . S
C119 C118 1.297 . S
C119 C120 1.479 . S
C119 H133 0.950 . S
C120 C119 1.479 . S
C120 C121 1.375 . S
C120 C126 1.404 . S
C121 C120 1.375 . S
C121 C122 1.369 . S
C121 H134 0.950 . S
C122 C121 1.369 . S
C122 C123 1.392 . S
C122 H135 0.951 . S
C123 C122 1.392 . S
C123 C125 1.384 . S
H124 C126 0.949 . S
C125 C123 1.384 . S
C125 C126 1.385 . S
C125 H127 0.950 . S
C126 C120 1.404 . S
C126 H124 0.949 . S
C126 C125 1.385 . S
H127 C125 0.950 . S
H128 C112 0.951 . S
H129 C114 0.951 . S
H130 C116 0.951 . S
H131 C117 0.950 . S
H132 C118 0.950 . S
H133 C119 0.950 . S
H134 C121 0.950 . S
H135 C122 0.951 . S
C136 C137 1.386 . S
C136 C138 1.383 1_655 S
C136 H152 0.951 . S
C137 C136 1.386 . S
C137 C141 1.383 1_655 S
C138 C136 1.383 1_455 S
C138 C139 1.402 . S
C138 H153 0.952 1_545 S
C139 C138 1.402 . S
C139 C140 1.375 . S
C139 C142 1.481 . S
C140 C139 1.375 . S
C140 C141 1.367 . S
C140 H154 0.951 . S
C141 C137 1.383 1_455 S
C141 C140 1.367 . S
C141 H155 0.950 . S
C142 C139 1.481 . S
C142 C143 1.297 1_545 S
C142 H156 0.950 . S
C143 C142 1.297 1_565 S
C143 C144 1.479 . S
C143 H157 0.950 . S
C144 C143 1.479 . S
C144 C145 1.375 . S
C144 C150 1.404 . S
C145 C144 1.375 . S
C145 C146 1.369 . S
C145 H158 0.950 . S
C146 C145 1.369 . S
C146 C147 1.392 . S
C146 H159 0.951 . S
C147 C146 1.392 . S
C147 C149 1.384 . S
H148 C150 0.949 1_545 S
C149 C147 1.384 . S
C149 C150 1.385 . S
C149 H151 0.950 . S
C150 C144 1.404 . S
C150 H148 0.949 1_565 S
C150 C149 1.385 . S
H151 C149 0.950 . S
H152 C136 0.951 . S
H153 C138 0.952 1_565 S
H154 C140 0.951 . S
H155 C141 0.950 . S
H156 C142 0.950 . S
H157 C143 0.950 . S
H158 C145 0.950 . S
H159 C146 0.951 . S
C160 C161 1.386 . S
C160 C162 1.383 . S
C160 H176 0.951 . S
C161 C160 1.386 . S
C161 C165 1.383 . S
C162 C160 1.383 . S
C162 C163 1.402 . S
C162 H177 0.951 . S
C163 C162 1.402 . S
C163 C164 1.375 . S
C163 C166 1.481 . S
C164 C163 1.375 . S
C164 C165 1.367 . S
C164 H178 0.951 . S
C165 C161 1.383 . S
C165 C164 1.367 . S
C165 H179 0.950 . S
C166 C163 1.481 . S
C166 C167 1.297 . S
C166 H180 0.950 . S
C167 C166 1.297 . S
C167 C168 1.479 . S
C167 H181 0.950 . S
C168 C167 1.479 . S
C168 C169 1.375 . S
C168 C174 1.404 . S
C169 C168 1.375 . S
C169 C170 1.369 1_655 S
C169 H182 0.950 . S
C170 C169 1.369 1_455 S
C170 C171 1.392 . S
C170 H183 0.951 . S
C171 C170 1.392 . S
C171 C173 1.384 1_455 S
H172 C174 0.949 . S
C173 C171 1.384 1_655 S
C173 C174 1.385 . S
C173 H175 0.950 1_655 S
C174 C168 1.404 . S
C174 H172 0.949 . S
C174 C173 1.385 . S
H175 C173 0.950 1_455 S
H176 C160 0.951 . S
H177 C162 0.951 . S
H178 C164 0.951 . S
H179 C165 0.950 . S
H180 C166 0.950 . S
H181 C167 0.950 . S
H182 C169 0.950 . S
H183 C170 0.951 . S
C184 C185 1.386 . S
C184 C186 1.383 1_545 S
C184 H200 0.951 1_545 S
C185 C184 1.386 . S
C185 C189 1.383 . S
C186 C184 1.383 1_565 S
C186 C187 1.402 1_565 S
C186 H201 0.951 . S
C187 C186 1.402 1_545 S
C187 C188 1.375 . S
C187 C190 1.481 . S
C188 C187 1.375 . S
C188 C189 1.367 . S
C188 H202 0.951 . S
C189 C185 1.383 . S
C189 C188 1.367 . S
C189 H203 0.950 . S
C190 C187 1.481 . S
C190 C191 1.297 1_545 S
C190 H204 0.950 . S
C191 C190 1.297 1_565 S
C191 C192 1.479 . S
C191 H205 0.950 . S
C192 C191 1.479 . S
C192 C193 1.375 . S
C192 C198 1.404 . S
C193 C192 1.375 . S
C193 C194 1.369 . S
C193 H206 0.950 . S
C194 C193 1.369 . S
C194 C195 1.392 . S
C194 H207 0.951 . S
C195 C194 1.392 . S
C195 C197 1.384 . S
H196 C198 0.949 1_545 S
C197 C195 1.384 . S
C197 C198 1.385 . S
C197 H199 0.950 . S
C198 C192 1.404 . S
C198 H196 0.949 1_565 S
C198 C197 1.385 . S
H199 C197 0.950 . S
H200 C184 0.951 1_565 S
H201 C186 0.951 . S
H202 C188 0.951 . S
H203 C189 0.950 . S
H204 C190 0.950 . S
H205 C191 0.950 . S
H206 C193 0.950 . S
H207 C194 0.951 . S
C208 C209 1.386 . S
C208 C210 1.383 . S
C208 H224 0.951 . S
C209 C208 1.386 . S
C209 C213 1.383 . S
C210 C208 1.383 . S
C210 C211 1.402 . S
C210 H225 0.951 . S
C211 C210 1.402 . S
C211 C212 1.375 . S
C211 C214 1.481 . S
C212 C211 1.375 . S
C212 C213 1.367 . S
C212 H226 0.951 . S
C213 C209 1.383 . S
C213 C212 1.367 . S
C213 H227 0.950 . S
C214 C211 1.481 . S
C214 C215 1.297 . S
C214 H228 0.950 . S
C215 C214 1.297 . S
C215 C216 1.479 . S
C215 H229 0.950 . S
C216 C215 1.479 . S
C216 C217 1.375 . S
C216 C222 1.404 . S
C217 C216 1.375 . S
C217 C218 1.369 . S
C217 H230 0.950 . S
C218 C217 1.369 . S
C218 C219 1.392 . S
C218 H231 0.951 . S
C219 C218 1.392 . S
C219 C221 1.384 . S
H220 C222 0.949 . S
C221 C219 1.384 . S
C221 C222 1.385 . S
C221 H223 0.950 . S
C222 C216 1.404 . S
C222 H220 0.949 . S
C222 C221 1.385 . S
H223 C221 0.950 . S
H224 C208 0.951 . S
H225 C210 0.951 . S
H226 C212 0.951 . S
H227 C213 0.950 . S
H228 C214 0.950 . S
H229 C215 0.950 . S
H230 C217 0.950 . S
H231 C218 0.951 . S
C232 C233 1.386 . S
C232 C234 1.383 . S
C232 H248 0.951 1_545 S
C233 C232 1.386 . S
C233 C237 1.383 . S
C234 C232 1.383 . S
C234 C235 1.402 . S
C234 H249 0.951 1_545 S
C235 C234 1.402 . S
C235 C236 1.375 . S
C235 C238 1.481 . S
C236 C235 1.375 . S
C236 C237 1.367 . S
C236 H250 0.951 . S
C237 C233 1.383 . S
C237 C236 1.367 . S
C237 H251 0.950 . S
C238 C235 1.481 . S
C238 C239 1.297 1_545 S
C238 H252 0.950 . S
C239 C238 1.297 1_565 S
C239 C240 1.479 . S
C239 H253 0.950 . S
C240 C239 1.479 . S
C240 C241 1.375 . S
C240 C246 1.404 . S
C241 C240 1.375 . S
C241 C242 1.369 1_655 S
C241 H254 0.950 . S
C242 C241 1.369 1_455 S
C242 C243 1.392 . S
C242 H255 0.951 . S
C243 C242 1.392 . S
C243 C245 1.384 . S
H244 C246 0.949 1_545 S
C245 C243 1.384 . S
C245 C246 1.385 1_455 S
C245 H247 0.950 . S
C246 C240 1.404 . S
C246 H244 0.949 1_565 S
C246 C245 1.385 1_655 S
H247 C245 0.950 . S
H248 C232 0.951 1_565 S
H249 C234 0.951 1_565 S
H250 C236 0.951 . S
H251 C237 0.950 . S
H252 C238 0.950 . S
H253 C239 0.950 . S
H254 C241 0.950 . S
H255 C242 0.951 . S
C256 C257 1.386 . S
C256 C258 1.383 . S
C256 H272 0.951 . S
C257 C256 1.386 . S
C257 C261 1.383 . S
C258 C256 1.383 . S
C258 C259 1.402 . S
C258 H273 0.951 . S
C259 C258 1.402 . S
C259 C260 1.375 . S
C259 C262 1.481 . S
C260 C259 1.375 . S
C260 C261 1.367 . S
C260 H274 0.951 . S
C261 C257 1.383 . S
C261 C260 1.367 . S
C261 H275 0.950 . S
C262 C259 1.481 . S
C262 C263 1.297 . S
C262 H276 0.950 . S
C263 C262 1.297 . S
C263 C264 1.479 . S
C263 H277 0.950 . S
C264 C263 1.479 . S
C264 C265 1.375 . S
C264 C270 1.404 1_455 S
C265 C264 1.375 . S
C265 C266 1.369 . S
C265 H278 0.950 . S
C266 C265 1.369 . S
C266 C267 1.392 1_455 S
C266 H279 0.951 . S
C267 C266 1.392 1_655 S
C267 C269 1.384 . S
H268 C270 0.949 . S
C269 C267 1.384 . S
C269 C270 1.385 . S
C269 H271 0.950 . S
C270 C264 1.404 1_655 S
C270 H268 0.949 . S
C270 C269 1.385 . S
H271 C269 0.950 . S
H272 C256 0.951 . S
H273 C258 0.951 . S
H274 C260 0.951 . S
H275 C261 0.950 . S
H276 C262 0.950 . S
H277 C263 0.950 . S
H278 C265 0.950 . S
H279 C266 0.951 . S
C280 C281 1.386 . S
C280 C282 1.383 . S
C280 H296 0.951 . S
C281 C280 1.386 . S
C281 C285 1.383 . S
C282 C280 1.383 . S
C282 C283 1.402 1_565 S
C282 H297 0.951 . S
C283 C282 1.402 1_545 S
C283 C284 1.375 . S
C283 C286 1.481 . S
C284 C283 1.375 . S
C284 C285 1.367 1_545 S
C284 H298 0.951 . S
C285 C281 1.383 . S
C285 C284 1.367 1_565 S
C285 H299 0.950 1_565 S
C286 C283 1.481 . S
C286 C287 1.297 . S
C286 H300 0.950 . S
C287 C286 1.297 . S
C287 C288 1.479 . S
C287 H301 0.950 1_545 S
C288 C287 1.479 . S
C288 C289 1.375 . S
C288 C294 1.404 . S
C289 C288 1.375 . S
C289 C290 1.369 . S
C289 H302 0.950 1_545 S
C290 C289 1.369 . S
C290 C291 1.392 . S
C290 H303 0.951 . S
C291 C290 1.392 . S
C291 C293 1.384 . S
H292 C294 0.949 . S
C293 C291 1.384 . S
C293 C294 1.385 . S
C293 H295 0.950 . S
C294 C288 1.404 . S
C294 H292 0.949 . S
C294 C293 1.385 . S
H295 C293 0.950 . S
H296 C280 0.951 . S
H297 C282 0.951 . S
H298 C284 0.951 . S
H299 C285 0.950 1_545 S
H300 C286 0.950 . S
H301 C287 0.950 1_565 S
H302 C289 0.950 1_565 S
H303 C290 0.951 . S
C304 C305 1.386 . S
C304 C306 1.383 . S
C304 H320 0.951 . S
C305 C304 1.386 . S
C305 C309 1.383 . S
C306 C304 1.383 . S
C306 C307 1.402 . S
C306 H321 0.951 1_455 S
C307 C306 1.402 . S
C307 C308 1.375 . S
C307 C310 1.481 . S
C308 C307 1.375 . S
C308 C309 1.367 . S
C308 H322 0.951 . S
C309 C305 1.383 . S
C309 C308 1.367 . S
C309 H323 0.950 . S
C310 C307 1.481 . S
C310 C311 1.297 1_455 S
C310 H324 0.950 . S
C311 C310 1.297 1_655 S
C311 C312 1.479 . S
C311 H325 0.950 . S
C312 C311 1.479 . S
C312 C313 1.375 . S
C312 C318 1.404 . S
C313 C312 1.375 . S
C313 C314 1.369 . S
C313 H326 0.950 . S
C314 C313 1.369 . S
C314 C315 1.392 . S
C314 H327 0.951 . S
C315 C314 1.392 . S
C315 C317 1.384 . S
H316 C318 0.949 . S
C317 C315 1.384 . S
C317 C318 1.385 . S
C317 H319 0.950 . S
C318 C312 1.404 . S
C318 H316 0.949 . S
C318 C317 1.385 . S
H319 C317 0.950 . S
H320 C304 0.951 . S
H321 C306 0.951 1_655 S
H322 C308 0.951 . S
H323 C309 0.950 . S
H324 C310 0.950 . S
H325 C311 0.950 . S
H326 C313 0.950 . S
H327 C314 0.951 . S
C328 C329 1.386 . S
C328 C330 1.383 . S
C328 H344 0.951 . S
C329 C328 1.386 . S
C329 C333 1.383 . S
C330 C328 1.383 . S
C330 C331 1.402 . S
C330 H345 0.951 . S
C331 C330 1.402 . S
C331 C332 1.375 . S
C331 C334 1.481 1_565 S
C332 C331 1.375 . S
C332 C333 1.367 . S
C332 H346 0.951 1_565 S
C333 C329 1.383 . S
C333 C332 1.367 . S
C333 H347 0.950 . S
C334 C331 1.481 1_545 S
C334 C335 1.297 . S
C334 H348 0.950 . S
C335 C334 1.297 . S
C335 C336 1.479 . S
C335 H349 0.950 . S
C336 C335 1.479 . S
C336 C337 1.375 . S
C336 C342 1.404 . S
C337 C336 1.375 . S
C337 C338 1.369 . S
C337 H350 0.950 . S
C338 C337 1.369 . S
C338 C339 1.392 . S
C338 H351 0.951 . S
C339 C338 1.392 . S
C339 C341 1.384 . S
H340 C342 0.949 . S
C341 C339 1.384 . S
C341 C342 1.385 . S
C341 H343 0.950 . S
C342 C336 1.404 . S
C342 H340 0.949 . S
C342 C341 1.385 . S
H343 C341 0.950 . S
H344 C328 0.951 . S
H345 C330 0.951 . S
H346 C332 0.951 1_545 S
H347 C333 0.950 . S
H348 C334 0.950 . S
H349 C335 0.950 . S
H350 C337 0.950 . S
H351 C338 0.951 . S
C352 C353 1.386 . S
C352 C354 1.383 . S
C352 H368 0.951 . S
C353 C352 1.386 . S
C353 C357 1.383 . S
C354 C352 1.383 . S
C354 C355 1.402 . S
C354 H369 0.951 . S
C355 C354 1.402 . S
C355 C356 1.375 . S
C355 C358 1.481 . S
C356 C355 1.375 . S
C356 C357 1.367 . S
C356 H370 0.951 . S
C357 C353 1.383 . S
C357 C356 1.367 . S
C357 H371 0.950 . S
C358 C355 1.481 . S
C358 C359 1.297 1_554 S
C358 H372 0.950 . S
C359 C358 1.297 1_556 S
C359 C360 1.479 . S
C359 H373 0.950 . S
C360 C359 1.479 . S
C360 C361 1.375 . S
C360 C366 1.404 . S
C361 C360 1.375 . S
C361 C362 1.369 . S
C361 H374 0.950 . S
C362 C361 1.369 . S
C362 C363 1.392 . S
C362 H375 0.951 . S
C363 C362 1.392 . S
C363 C365 1.384 . S
H364 C366 0.949 . S
C365 C363 1.384 . S
C365 C366 1.385 . S
C365 H367 0.950 . S
C366 C360 1.404 . S
C366 H364 0.949 . S
C366 C365 1.385 . S
H367 C365 0.950 . S
H368 C352 0.951 . S
H369 C354 0.951 . S
H370 C356 0.951 . S
H371 C357 0.950 . S
H372 C358 0.950 . S
H373 C359 0.950 . S
H374 C361 0.950 . S
H375 C362 0.951 . S
C376 C377 1.386 . S
C376 C378 1.383 . S
C376 H392 0.959 . S
C377 C376 1.386 . S
C377 C381 1.383 . S
C378 C376 1.383 . S
C378 C379 1.402 . S
C378 H393 0.951 1_565 S
C379 C378 1.402 . S
C379 C380 1.375 . S
C379 C382 1.481 1_455 S
C380 C379 1.375 . S
C380 C381 1.367 . S
C380 H394 0.951 1_455 S
C381 C377 1.383 . S
C381 C380 1.367 . S
C381 H395 0.950 . S
C382 C379 1.481 1_655 S
C382 C383 1.289 1_566 S
C382 H396 0.950 . S
C383 C382 1.289 1_544 S
C383 C384 1.491 . S
C383 H397 0.946 1_654 S
C384 C383 1.491 . S
C384 C385 1.375 . S
C384 C390 1.404 . S
C385 C384 1.375 . S
C385 C386 1.369 . S
C385 H398 0.950 1_655 S
C386 C385 1.369 . S
C386 C387 1.392 . S
C386 H399 0.951 . S
C387 C386 1.392 . S
C387 C389 1.384 . S
H388 C390 0.949 1_565 S
C389 C387 1.384 . S
C389 C390 1.385 . S
C389 H391 0.950 . S
C390 C384 1.404 . S
C390 H388 0.949 1_545 S
C390 C389 1.385 . S
H391 C389 0.950 . S
H392 C376 0.959 . S
H393 C378 0.951 1_545 S
H394 C380 0.951 1_655 S
H395 C381 0.950 . S
H396 C382 0.950 . S
H397 C383 0.946 1_456 S
H398 C385 0.950 1_455 S
H399 C386 0.951 . S
C400 C401 1.386 . S
C400 C402 1.383 . S
C400 H416 0.951 . S
C401 C400 1.386 . S
C401 C405 1.383 . S
C402 C400 1.383 . S
C402 C403 1.402 . S
C402 H417 0.951 . S
C403 C402 1.402 . S
C403 C404 1.375 . S
C403 C406 1.481 . S
C404 C403 1.375 . S
C404 C405 1.367 . S
C404 H418 0.951 . S
C405 C401 1.383 . S
C405 C404 1.367 . S
C405 H419 0.950 . S
C406 C403 1.481 . S
C406 C407 1.297 . S
C406 H420 0.950 . S
C407 C406 1.297 . S
C407 C408 1.479 . S
C407 H421 0.950 . S
C408 C407 1.479 . S
C408 C409 1.375 . S
C408 C414 1.404 . S
C409 C408 1.375 . S
C409 C410 1.369 . S
C409 H422 0.950 . S
C410 C409 1.369 . S
C410 C411 1.392 . S
C410 H423 0.951 . S
C411 C410 1.392 . S
C411 C413 1.384 . S
H412 C414 0.949 . S
C413 C411 1.384 . S
C413 C414 1.385 . S
C413 H415 0.950 . S
C414 C408 1.404 . S
C414 H412 0.949 . S
C414 C413 1.385 . S
H415 C413 0.950 . S
H416 C400 0.951 . S
H417 C402 0.951 . S
H418 C404 0.951 . S
H419 C405 0.950 . S
H420 C406 0.950 . S
H421 C407 0.950 . S
H422 C409 0.950 . S
H423 C410 0.951 . S
C424 C425 1.386 . S
C424 C426 1.383 . S
C424 H440 0.951 . S
C425 C424 1.386 . S
C425 C429 1.383 . S
C426 C424 1.383 . S
C426 C427 1.402 . S
C426 H441 0.951 . S
C427 C426 1.402 . S
C427 C428 1.375 . S
C427 C430 1.481 . S
C428 C427 1.375 . S
C428 C429 1.367 . S
C428 H442 0.951 . S
C429 C425 1.383 . S
C429 C428 1.367 . S
C429 H443 0.950 . S
C430 C427 1.481 . S
C430 C431 1.297 . S
C430 H444 0.950 . S
C431 C430 1.297 . S
C431 C432 1.479 . S
C431 H445 0.950 . S
C432 C431 1.479 . S
C432 C433 1.375 . S
C432 C438 1.404 . S
C433 C432 1.375 . S
C433 C434 1.369 . S
C433 H446 0.950 . S
C434 C433 1.369 . S
C434 C435 1.392 . S
C434 H447 0.951 . S
C435 C434 1.392 . S
C435 C437 1.384 . S
H436 C438 0.949 . S
C437 C435 1.384 . S
C437 C438 1.385 . S
C437 H439 0.950 . S
C438 C432 1.404 . S
C438 H436 0.949 . S
C438 C437 1.385 . S
H439 C437 0.950 . S
H440 C424 0.951 . S
H441 C426 0.951 . S
H442 C428 0.951 . S
H443 C429 0.950 . S
H444 C430 0.950 . S
H445 C431 0.950 . S
H446 C433 0.950 . S
H447 C434 0.951 . S
C448 C449 1.386 . S
C448 C450 1.383 . S
C448 H464 0.951 . S
C449 C448 1.386 . S
C449 C453 1.383 . S
C450 C448 1.383 . S
C450 C451 1.402 . S
C450 H465 0.951 . S
C451 C450 1.402 . S
C451 C452 1.375 . S
C451 C454 1.481 . S
C452 C451 1.375 . S
C452 C453 1.367 . S
C452 H466 0.951 . S
C453 C449 1.383 . S
C453 C452 1.367 . S
C453 H467 0.950 . S
C454 C451 1.481 . S
C454 C455 1.297 . S
C454 H468 0.950 . S
C455 C454 1.297 . S
C455 C456 1.479 . S
C455 H469 0.950 . S
C456 C455 1.479 . S
C456 C457 1.375 . S
C456 C462 1.404 . S
C457 C456 1.375 . S
C457 C458 1.369 . S
C457 H470 0.950 . S
C458 C457 1.369 . S
C458 C459 1.392 . S
C458 H471 0.951 . S
C459 C458 1.392 . S
C459 C461 1.384 . S
H460 C462 0.949 . S
C461 C459 1.384 . S
C461 C462 1.385 . S
C461 H463 0.950 . S
C462 C456 1.404 . S
C462 H460 0.949 . S
C462 C461 1.385 . S
H463 C461 0.950 . S
H464 C448 0.951 . S
H465 C450 0.951 . S
H466 C452 0.951 . S
H467 C453 0.950 . S
H468 C454 0.950 . S
H469 C455 0.950 . S
H470 C457 0.950 . S
H471 C458 0.951 . S
C472 C473 1.386 . S
C472 C474 1.383 . S
C472 H488 0.951 . S
C473 C472 1.386 . S
C473 C477 1.383 . S
C474 C472 1.383 . S
C474 C475 1.402 . S
C474 H489 0.951 . S
C475 C474 1.402 . S
C475 C476 1.375 . S
C475 C478 1.481 . S
C476 C475 1.375 . S
C476 C477 1.367 . S
C476 H490 0.951 . S
C477 C473 1.383 . S
C477 C476 1.367 . S
C477 H491 0.950 . S
C478 C475 1.481 . S
C478 C479 1.297 . S
C478 H492 0.950 . S
C479 C478 1.297 . S
C479 C480 1.479 . S
C479 H493 0.950 . S
C480 C479 1.479 . S
C480 C481 1.375 . S
C480 C486 1.404 . S
C481 C480 1.375 . S
C481 C482 1.369 . S
C481 H494 0.950 . S
C482 C481 1.369 . S
C482 C483 1.392 . S
C482 H495 0.951 . S
C483 C482 1.392 . S
C483 C485 1.384 . S
H484 C486 0.949 . S
C485 C483 1.384 . S
C485 C486 1.385 . S
C485 H487 0.950 . S
C486 C480 1.404 . S
C486 H484 0.949 . S
C486 C485 1.385 . S
H487 C485 0.950 . S
H488 C472 0.951 . S
H489 C474 0.951 . S
H490 C476 0.951 . S
H491 C477 0.950 . S
H492 C478 0.950 . S
H493 C479 0.950 . S
H494 C481 0.950 . S
H495 C482 0.951 . S
C113 C13 1.117 . S
C123 C36 1.171 . S
C137 C50 1.144 . S
C147 C27 1.146 . S
C161 C41 1.097 . S
C171 C8 1.179 . S
C185 C55 1.120 . S
C195 C22 1.170 . S
C209 C92 1.126 . S
C219 C69 1.042 . S
C233 C83 1.148 . S
C243 C106 1.053 . S
C257 C97 1.092 . S
C267 C64 1.164 . S
C281 C111 1.057 . S
C291 C78 1.171 . S
C305 C7 1.492 . S
C315 C63 1.519 . S
C329 C21 1.500 . S
C339 C77 1.520 . S
C353 C35 1.489 . S
C363 C91 1.506 . S
C377 C105 1.497 . S
C387 C49 1.521 . S
C401 C11 1.495 . S
C411 C25 1.483 . S
C425 C53 1.513 . S
C435 C39 1.508 . S
C449 C81 1.502 . S
C459 C67 1.488 . S
C473 C95 1.495 . S
C483 C109 1.506 . S
