# Generated by pormake.
# Topology zfk, (5)-cn, num edge types: 1
# Building blocks:
#     Node 0, Type 0, BuildingBlock: XOMCOT_clean_sbu_0, # of connection points: 5
#     Node 1, Type 0, BuildingBlock: XOMCOT_clean_sbu_0, # of connection points: 5
#     Node 2, Type 0, BuildingBlock: XOMCOT_clean_sbu_0, # of connection points: 5
#     Node 3, Type 0, BuildingBlock: XOMCOT_clean_sbu_0, # of connection points: 5
#     Node 4, Type 0, BuildingBlock: XOMCOT_clean_sbu_0, # of connection points: 5
#     Node 5, Type 0, BuildingBlock: XOMCOT_clean_sbu_0, # of connection points: 5
#     Node 6, Type 0, BuildingBlock: XOMCOT_clean_sbu_0, # of connection points: 5
#     Node 7, Type 0, BuildingBlock: XOMCOT_clean_sbu_0, # of connection points: 5
#     Node 8, Type 0, BuildingBlock: XOMCOT_clean_sbu_0, # of connection points: 5
#     Node 9, Type 0, BuildingBlock: XOMCOT_clean_sbu_0, # of connection points: 5
#     Node 10, Type 0, BuildingBlock: XOMCOT_clean_sbu_0, # of connection points: 5
#     Node 11, Type 0, BuildingBlock: XOMCOT_clean_sbu_0, # of connection points: 5
#     Node 12, Type 0, BuildingBlock: XOMCOT_clean_sbu_0, # of connection points: 5
#     Node 13, Type 0, BuildingBlock: XOMCOT_clean_sbu_0, # of connection points: 5
#     Node 14, Type 0, BuildingBlock: XOMCOT_clean_sbu_0, # of connection points: 5
#     Node 15, Type 0, BuildingBlock: XOMCOT_clean_sbu_0, # of connection points: 5
#     Edge 16, Type (0, 0), BuildingBlock: UVAHIK_clean_linker_0, # of connection points: 2
#     Edge 17, Type (0, 0), BuildingBlock: UVAHIK_clean_linker_0, # of connection points: 2
#     Edge 18, Type (0, 0), BuildingBlock: UVAHIK_clean_linker_0, # of connection points: 2
#     Edge 19, Type (0, 0), BuildingBlock: UVAHIK_clean_linker_0, # of connection points: 2
#     Edge 20, Type (0, 0), BuildingBlock: UVAHIK_clean_linker_0, # of connection points: 2
#     Edge 21, Type (0, 0), BuildingBlock: UVAHIK_clean_linker_0, # of connection points: 2
#     Edge 22, Type (0, 0), BuildingBlock: UVAHIK_clean_linker_0, # of connection points: 2
#     Edge 23, Type (0, 0), BuildingBlock: UVAHIK_clean_linker_0, # of connection points: 2
#     Edge 24, Type (0, 0), BuildingBlock: UVAHIK_clean_linker_0, # of connection points: 2
#     Edge 25, Type (0, 0), BuildingBlock: UVAHIK_clean_linker_0, # of connection points: 2
#     Edge 26, Type (0, 0), BuildingBlock: UVAHIK_clean_linker_0, # of connection points: 2
#     Edge 27, Type (0, 0), BuildingBlock: UVAHIK_clean_linker_0, # of connection points: 2
#     Edge 28, Type (0, 0), BuildingBlock: UVAHIK_clean_linker_0, # of connection points: 2
#     Edge 29, Type (0, 0), BuildingBlock: UVAHIK_clean_linker_0, # of connection points: 2
#     Edge 30, Type (0, 0), BuildingBlock: UVAHIK_clean_linker_0, # of connection points: 2
#     Edge 31, Type (0, 0), BuildingBlock: UVAHIK_clean_linker_0, # of connection points: 2
#     Edge 32, Type (0, 0), BuildingBlock: UVAHIK_clean_linker_0, # of connection points: 2
#     Edge 33, Type (0, 0), BuildingBlock: UVAHIK_clean_linker_0, # of connection points: 2
#     Edge 34, Type (0, 0), BuildingBlock: UVAHIK_clean_linker_0, # of connection points: 2
#     Edge 35, Type (0, 0), BuildingBlock: UVAHIK_clean_linker_0, # of connection points: 2
#     Edge 36, Type (0, 0), BuildingBlock: UVAHIK_clean_linker_0, # of connection points: 2
#     Edge 37, Type (0, 0), BuildingBlock: UVAHIK_clean_linker_0, # of connection points: 2
#     Edge 38, Type (0, 0), BuildingBlock: UVAHIK_clean_linker_0, # of connection points: 2
#     Edge 39, Type (0, 0), BuildingBlock: UVAHIK_clean_linker_0, # of connection points: 2
#     Edge 40, Type (0, 0), BuildingBlock: UVAHIK_clean_linker_0, # of connection points: 2
#     Edge 41, Type (0, 0), BuildingBlock: UVAHIK_clean_linker_0, # of connection points: 2
#     Edge 42, Type (0, 0), BuildingBlock: UVAHIK_clean_linker_0, # of connection points: 2
#     Edge 43, Type (0, 0), BuildingBlock: UVAHIK_clean_linker_0, # of connection points: 2
#     Edge 44, Type (0, 0), BuildingBlock: UVAHIK_clean_linker_0, # of connection points: 2
#     Edge 45, Type (0, 0), BuildingBlock: UVAHIK_clean_linker_0, # of connection points: 2
#     Edge 46, Type (0, 0), BuildingBlock: UVAHIK_clean_linker_0, # of connection points: 2
#     Edge 47, Type (0, 0), BuildingBlock: UVAHIK_clean_linker_0, # of connection points: 2
#     Edge 48, Type (0, 0), BuildingBlock: UVAHIK_clean_linker_0, # of connection points: 2
#     Edge 49, Type (0, 0), BuildingBlock: UVAHIK_clean_linker_0, # of connection points: 2
#     Edge 50, Type (0, 0), BuildingBlock: UVAHIK_clean_linker_0, # of connection points: 2
#     Edge 51, Type (0, 0), BuildingBlock: UVAHIK_clean_linker_0, # of connection points: 2
#     Edge 52, Type (0, 0), BuildingBlock: UVAHIK_clean_linker_0, # of connection points: 2
#     Edge 53, Type (0, 0), BuildingBlock: UVAHIK_clean_linker_0, # of connection points: 2
#     Edge 54, Type (0, 0), BuildingBlock: UVAHIK_clean_linker_0, # of connection points: 2
#     Edge 55, Type (0, 0), BuildingBlock: UVAHIK_clean_linker_0, # of connection points: 2
# Relax obj value: 0.323
# Max RMSD: 0.195
# Mean RMSD: 0.195
data_MOF--net-zfk--node1-XOMCOT_clean_sbu_0--edge1-UVAHIK_clean_linker_0
_symmetry_space_group_name_H-M    P1
_symmetry_Int_Tables_number       1
_symmetry_cell_setting            triclinic
loop_
_symmetry_equiv_pos_as_xyz
'x, y, z'
_cell_length_a     38.476273
_cell_length_b     38.438604
_cell_length_c     83.260814
_cell_angle_alpha  89.982192
_cell_angle_beta   90.004344
_cell_angle_gamma 90.086618
loop_
_atom_site_label
_atom_site_type_symbol
_atom_site_fract_x
_atom_site_fract_y
_atom_site_fract_z
_atom_type_partial_charge
Co0 Co 0.01253 0.38239 0.14343 0.0
C1 C 0.01886 0.39459 0.17979 0.0
C2 C 0.97039 0.37283 0.17211 0.0
C3 C 0.96921 0.37735 0.18848 0.0
N4 N 1.00156 0.38331 0.1665 0.0
N5 N 0.99968 0.39104 0.19338 0.0
H6 H 0.04484 0.40482 0.17987 0.0
H7 H 0.94965 0.36268 0.16469 0.0
C8 C 0.00941 0.30787 0.15295 0.0
O9 O 0.02705 0.31831 0.16558 0.0
N10 N 0.02165 0.38121 0.12038 0.0
C11 C 0.04553 0.40051 0.11257 0.0
C12 C 0.04891 0.3881 0.09712 0.0
C13 C 0.01045 0.35755 0.10944 0.0
N14 N 0.02696 0.36102 0.09514 0.0
C15 C 0.08175 0.39616 0.15334 0.0
C16 C 0.11179 0.34204 0.13663 0.0
C17 C 0.1328 0.36842 0.14294 0.0
C18 C 0.11764 0.39499 0.15186 0.0
C19 C 0.07588 0.34371 0.13873 0.0
N20 N 0.06108 0.37083 0.14688 0.0
H21 H 0.07077 0.41951 0.15831 0.0
H22 H 0.06001 0.32502 0.13242 0.0
H23 H 0.06088 0.42097 0.118 0.0
H24 H 0.99219 0.33692 0.11212 0.0
O25 O 0.01889 0.43191 0.14368 0.0
O26 O 0.96814 0.40698 0.13937 0.0
O27 O 0.99913 0.33064 0.14266 0.0
C28 C 0.98618 0.43567 0.14104 0.0
H29 H 0.94717 0.37164 0.19612 0.0
H30 H 0.06693 0.39764 0.08815 0.0
H31 H 0.12286 0.3213 0.12946 0.0
H32 H 0.13315 0.41629 0.15651 0.0
Co33 Co 0.1887 0.01919 0.64839 0.0
C34 C 0.17145 0.04782 0.68179 0.0
C35 C 0.19632 0.99792 0.68153 0.0
C36 C 0.18924 1.00651 0.69715 0.0
N37 N 0.18588 0.02385 0.67178 0.0
N38 N 0.17368 0.0379 0.69746 0.0
H39 H 0.15943 0.0717 0.67787 0.0
H40 H 0.20792 0.97388 0.67745 0.0
C41 C 0.26172 0.01916 0.6599 0.0
O42 O 0.25129 0.0451 0.66896 0.0
N43 N 0.19112 0.0131 0.62498 0.0
C44 C 0.16581 0.02158 0.61448 0.0
C45 C 0.1784 0.01879 0.59908 0.0
C46 C 0.21904 1.00539 0.61561 0.0
N47 N 0.21196 0.00883 0.5997 0.0
C48 C 0.17604 0.09136 0.64502 0.0
C49 C 0.23222 0.10122 0.62494 0.0
C50 C 0.20298 0.1223 0.62308 0.0
C51 C 0.17567 0.11891 0.63406 0.0
C52 C 0.2314 0.07394 0.63584 0.0
N53 N 0.20228 0.06739 0.64482 0.0
H54 H 0.15281 0.0868 0.65193 0.0
H55 H 0.2522 0.05545 0.6349 0.0
H56 H 0.14026 0.03093 0.61766 0.0
H57 H 0.24438 0.99869 0.62028 0.0
O58 O 0.13925 0.02616 0.6472 0.0
O59 O 0.1637 0.97465 0.65042 0.0
O60 O 0.23957 1.00399 0.65064 0.0
C61 C 0.13533 0.99309 0.64909 0.0
H62 H 0.19423 0.99022 0.7075 0.0
H63 H 0.16432 0.02549 0.58826 0.0
H64 H 0.25449 0.10389 0.61706 0.0
H65 H 0.15283 0.13525 0.63324 0.0
Co66 Co 0.49825 0.12025 0.14325 0.0
C67 C 0.49581 0.10971 0.17879 0.0
C68 C 0.54592 0.12721 0.17078 0.0
C69 C 0.54699 0.12253 0.1872 0.0
N70 N 0.5138 0.11943 0.16552 0.0
N71 N 0.51548 0.11153 0.1923 0.0
H72 H 0.46883 0.10176 0.17852 0.0
H73 H 0.56723 0.13537 0.16318 0.0
C74 C 0.51662 0.19084 0.13139 0.0
O75 O 0.48539 0.18994 0.12501 0.0
N76 N 0.48405 0.11907 0.12038 0.0
C77 C 0.45719 0.10143 0.11378 0.0
C78 C 0.45678 0.10688 0.09741 0.0
C79 C 0.50125 0.13232 0.10747 0.0
N80 N 0.48423 0.12691 0.09344 0.0
C81 C 0.42866 0.14879 0.14305 0.0
C82 C 0.4478 0.20905 0.15897 0.0
C83 C 0.41803 0.20892 0.14942 0.0
C84 C 0.40697 0.17773 0.1424 0.0
C85 C 0.46892 0.17973 0.15903 0.0
N86 N 0.46101 0.15168 0.14955 0.0
H87 H 0.42042 0.12518 0.13732 0.0
H88 H 0.49389 0.18172 0.16489 0.0
H89 H 0.43904 0.08526 0.1203 0.0
H90 H 0.52581 0.14589 0.10822 0.0
O91 O 0.47467 0.07691 0.14698 0.0
O92 O 0.52909 0.08105 0.13853 0.0
O93 O 0.52842 0.16376 0.13884 0.0
C94 C 0.50296 0.06119 0.14272 0.0
H95 H 0.56964 0.12623 0.19471 0.0
H96 H 0.43719 0.09751 0.08914 0.0
H97 H 0.45663 0.23262 0.16484 0.0
H98 H 0.38303 0.17648 0.13557 0.0
Co99 Co 0.32279 0.48027 0.64619 0.0
C100 C 0.3436 0.45284 0.67927 0.0
C101 C 0.32102 0.50385 0.6791 0.0
C102 C 0.33185 0.49666 0.69441 0.0
N103 N 0.3279 0.47648 0.6695 0.0
N104 N 0.34621 0.46474 0.6946 0.0
H105 H 0.35454 0.42851 0.67524 0.0
H106 H 0.30985 0.52812 0.67505 0.0
C107 C 0.25087 0.48741 0.65942 0.0
O108 O 0.26047 0.46267 0.66936 0.0
N109 N 0.31836 0.4855 0.62281 0.0
C110 C 0.34213 0.47566 0.61178 0.0
C111 C 0.3281 0.47884 0.59666 0.0
C112 C 0.28993 0.49432 0.61403 0.0
N113 N 0.29518 0.4903 0.59804 0.0
C114 C 0.32869 0.40717 0.64317 0.0
C115 C 0.26906 0.40138 0.62497 0.0
C116 C 0.29621 0.37805 0.62231 0.0
C117 C 0.32528 0.37947 0.6324 0.0
C118 C 0.27376 0.42884 0.63556 0.0
N119 N 0.3046 0.43329 0.64352 0.0
H120 H 0.35308 0.40989 0.6494 0.0
H121 H 0.2544 0.44885 0.63503 0.0
H122 H 0.36751 0.46516 0.6144 0.0
H123 H 0.26548 0.50235 0.61917 0.0
O124 O 0.37128 0.46891 0.64378 0.0
O125 O 0.35247 0.52243 0.64719 0.0
O126 O 0.27325 0.49961 0.64933 0.0
C127 C 0.37886 0.50146 0.64514 0.0
H128 H 0.32999 0.514 0.70462 0.0
H129 H 0.3406 0.47143 0.58552 0.0
H130 H 0.24547 0.40032 0.61787 0.0
H131 H 0.34659 0.36136 0.631 0.0
Co132 Co 0.03396 0.15288 0.89973 0.0
C133 C 0.04898 0.14662 0.86476 0.0
C134 C 0.99798 0.16707 0.86915 0.0
C135 C 1.00266 0.16371 0.8528 0.0
N136 N 0.02705 0.15649 0.87664 0.0
N137 N 0.03478 0.15082 0.84995 0.0
H138 H 0.07472 0.13646 0.86701 0.0
H139 H 0.97471 0.17589 0.87517 0.0
C140 C 0.01728 0.22401 0.91175 0.0
O141 O 0.04527 0.22033 0.92063 0.0
N142 N 0.03988 0.14742 0.9233 0.0
C143 C 0.06268 0.12602 0.93069 0.0
C144 C 0.06167 0.13157 0.947 0.0
C145 C 0.02266 0.16283 0.93572 0.0
N146 N 0.03699 0.15538 0.95019 0.0
C147 C 0.105 0.17242 0.90628 0.0
C148 C 0.09659 0.23875 0.89409 0.0
C149 C 0.12012 0.23315 0.90665 0.0
C150 C 0.12695 0.19891 0.91148 0.0
C151 C 0.07507 0.21137 0.88938 0.0
N152 N 0.07626 0.18043 0.89751 0.0
H153 H 0.10927 0.14642 0.91055 0.0
H154 H 0.05371 0.21712 0.88138 0.0
H155 H 0.0797 0.10783 0.92471 0.0
H156 H 1.00109 0.1805 0.93428 0.0
O157 O 0.05361 0.10751 0.89639 0.0
O158 O 0.99766 0.11743 0.9008 0.0
O159 O 1.0067 0.19842 0.90298 0.0
C160 C 0.02248 0.09503 0.89802 0.0
H161 H 0.98327 0.16945 0.84378 0.0
H162 H 0.0785 0.11958 0.95582 0.0
H163 H 0.09148 0.26467 0.88957 0.0
H164 H 0.14686 0.19323 0.9203 0.0
Co165 Co 0.43068 0.02198 0.40545 0.0
C166 C 0.44283 0.02711 0.36998 0.0
C167 C 0.41554 0.98052 0.37662 0.0
C168 C 0.41887 0.98137 0.36014 0.0
N169 N 0.43026 0.00928 0.3828 0.0
N170 N 0.43581 0.0108 0.35588 0.0
H171 H 0.45571 0.05207 0.37096 0.0
H172 H 0.40286 0.96047 0.38362 0.0
C173 C 0.35583 0.02437 0.4142 0.0
O174 O 0.3641 0.05449 0.42065 0.0
N175 N 0.43147 0.03302 0.42862 0.0
C176 C 0.45383 0.05366 0.43675 0.0
C177 C 0.44565 0.05303 0.45288 0.0
C178 C 0.41164 0.01832 0.44034 0.0
N179 N 0.41873 0.03108 0.45516 0.0
C180 C 0.43573 0.0963 0.40322 0.0
C181 C 0.37847 0.10505 0.38365 0.0
C182 C 0.39743 0.13429 0.38855 0.0
C183 C 0.42675 0.12965 0.39821 0.0
C184 C 0.38826 0.07225 0.389 0.0
N185 N 0.41559 0.0683 0.39933 0.0
H186 H 0.45942 0.09312 0.40984 0.0
H187 H 0.37378 0.0499 0.38482 0.0
H188 H 0.47557 0.06746 0.43161 0.0
H189 H 0.3926 0.99819 0.43815 0.0
O190 O 0.47948 0.03097 0.40383 0.0
O191 O 0.45714 0.97965 0.41031 0.0
O192 O 0.37985 1.00586 0.40762 0.0
C193 C 0.48467 0.9988 0.40758 0.0
H194 H 0.40945 0.96163 0.35197 0.0
H195 H 0.45854 0.06789 0.46218 0.0
H196 H 0.35558 0.10751 0.37616 0.0
H197 H 0.44254 0.15162 0.40189 0.0
Co198 Co 0.49257 0.34703 0.89756 0.0
C199 C 0.47008 0.3558 0.86235 0.0
C200 C 0.52394 0.34408 0.86574 0.0
C201 C 0.51779 0.34758 0.84956 0.0
N202 N 0.49424 0.34941 0.87395 0.0
N203 N 0.48388 0.35494 0.84734 0.0
H204 H 0.44282 0.35974 0.86453 0.0
H205 H 0.54871 0.33797 0.87118 0.0
C206 C 0.48937 0.27297 0.88686 0.0
O207 O 0.46677 0.28437 0.87629 0.0
N208 N 0.49239 0.34446 0.92105 0.0
C209 C 0.47867 0.36834 0.93107 0.0
C210 C 0.4806 0.35616 0.9466 0.0
C211 C 0.50212 0.31775 0.93074 0.0
N212 N 0.49515 0.32427 0.94643 0.0
C213 C 0.42222 0.36524 0.89412 0.0
C214 C 0.39753 0.31476 0.91476 0.0
C215 C 0.37743 0.34444 0.91179 0.0
C216 C 0.3893 0.36885 0.90066 0.0
C217 C 0.43031 0.3118 0.90769 0.0
N218 N 0.44304 0.33783 0.89813 0.0
H219 H 0.43228 0.38688 0.8873 0.0
H220 H 0.44683 0.29073 0.91154 0.0
H221 H 0.46678 0.3925 0.92736 0.0
H222 H 0.51346 0.29378 0.92646 0.0
O223 O 0.48857 0.39697 0.89867 0.0
O224 O 0.5389 0.37001 0.89829 0.0
O225 O 0.50401 0.29485 0.89642 0.0
C226 C 0.52187 0.39944 0.89898 0.0
H227 H 0.53715 0.34538 0.8402 0.0
H228 H 0.47063 0.36918 0.95716 0.0
H229 H 0.38893 0.29512 0.92321 0.0
H230 H 0.37472 0.39232 0.89815 0.0
Co231 Co 0.0725 0.48137 0.40652 0.0
C232 C 0.06177 0.47818 0.37108 0.0
C233 C 0.0815 0.52784 0.37863 0.0
C234 C 0.07838 0.52787 0.36213 0.0
N235 N 0.07138 0.49662 0.38423 0.0
N236 N 0.06615 0.49656 0.35731 0.0
H237 H 0.05298 0.45145 0.3716 0.0
H238 H 0.09091 0.54897 0.38603 0.0
C239 C 0.14548 0.49098 0.41682 0.0
O240 O 0.1418 0.45965 0.42292 0.0
N241 N 0.07238 0.46752 0.42935 0.0
C242 C 0.05441 0.44164 0.43655 0.0
C243 C 0.06154 0.44173 0.4528 0.0
C244 C 0.08785 0.48458 0.44175 0.0
N245 N 0.0831 0.4685 0.45606 0.0
C246 C 0.08576 0.40755 0.40326 0.0
C247 C 0.14443 0.41566 0.38443 0.0
C248 C 0.13498 0.38245 0.38962 0.0
C249 C 0.10481 0.37826 0.39881 0.0
C250 C 0.12508 0.44409 0.38938 0.0
N251 N 0.09729 0.44009 0.39947 0.0
H252 H 0.06182 0.40388 0.40964 0.0
H253 H 0.13315 0.46963 0.38543 0.0
H254 H 0.03639 0.42429 0.43068 0.0
H255 H 0.10245 0.50842 0.44034 0.0
O256 O 0.02627 0.46373 0.40401 0.0
O257 O 0.03853 0.5173 0.41202 0.0
O258 O 0.11949 0.50587 0.40985 0.0
C259 C 0.01497 0.49395 0.40845 0.0
H260 H 0.08466 0.54946 0.35431 0.0
H261 H 0.05193 0.42306 0.46146 0.0
H262 H 0.16755 0.41987 0.37725 0.0
H263 H 0.09632 0.35268 0.40263 0.0
Co264 Co 0.97721 0.65065 0.89813 0.0
C265 C 0.95915 0.64256 0.86345 0.0
C266 C 0.00847 0.66768 0.86691 0.0
C267 C 1.00261 0.66412 0.85067 0.0
N268 N 0.9812 0.65436 0.87492 0.0
N269 N 0.97156 0.64833 0.84842 0.0
H270 H 0.93462 0.63004 0.86612 0.0
H271 H 0.03139 0.67863 0.87249 0.0
C272 C 0.98962 0.72349 0.90927 0.0
O273 O 0.96258 0.71811 0.9186 0.0
N274 N 0.97475 0.64564 0.92182 0.0
C275 C 0.9552 0.62288 0.93032 0.0
C276 C 0.95896 0.62946 0.94652 0.0
C277 C 0.99269 0.66328 0.93331 0.0
N278 N 0.982 0.65553 0.94838 0.0
C279 C 0.90547 0.66233 0.906 0.0
C280 C 0.9053 0.72946 0.89423 0.0
C281 C 0.88343 0.72075 0.90709 0.0
C282 C 0.88084 0.68575 0.91168 0.0
C283 C 0.9295 0.705 0.88898 0.0
N284 N 0.93249 0.67403 0.89694 0.0
H285 H 0.9048 0.63593 0.91023 0.0
H286 H 0.94938 0.71329 0.88063 0.0
H287 H 0.93869 0.603 0.92523 0.0
H288 H 0.01283 0.68213 0.93085 0.0
O289 O 0.96067 0.6039 0.89551 0.0
O290 O 0.01622 0.61814 0.8984 0.0
O291 O 1.00125 0.69839 0.90051 0.0
C292 C 0.99275 0.59389 0.89637 0.0
H293 H 0.02049 0.67177 0.84128 0.0
H294 H 0.94449 0.61715 0.95612 0.0
H295 H 0.90677 0.7559 0.88977 0.0
H296 H 0.86296 0.67735 0.92095 0.0
Co297 Co 0.92386 0.97788 0.40093 0.0
C298 C 0.94069 0.98116 0.36623 0.0
C299 C 0.92564 0.0313 0.37517 0.0
C300 C 0.93122 0.03372 0.3588 0.0
N301 N 0.93123 0.99824 0.37977 0.0
N302 N 0.94049 1.00208 0.35313 0.0
H303 H 0.94583 0.9535 0.36592 0.0
H304 H 0.91722 0.05197 0.38307 0.0
C305 C 0.85145 0.99423 0.40995 0.0
O306 O 0.85032 0.96126 0.41409 0.0
N307 N 0.91823 0.95813 0.42267 0.0
C308 C 0.93077 0.92772 0.42832 0.0
C309 C 0.92088 0.92369 0.44413 0.0
C310 C 0.90346 0.97337 0.43577 0.0
N311 N 0.90316 0.9522 0.44879 0.0
C312 C 0.8972 0.90826 0.39302 0.0
C313 C 0.84497 0.93373 0.37343 0.0
C314 C 0.84492 0.89857 0.37746 0.0
C315 C 0.87228 0.88532 0.38676 0.0
C316 C 0.8698 0.95546 0.38 0.0
N317 N 0.89417 0.94324 0.39058 0.0
H318 H 0.91828 0.89783 0.39994 0.0
H319 H 0.86812 0.98281 0.3772 0.0
H320 H 0.94692 0.90986 0.42169 0.0
H321 H 0.8921 0.99907 0.43567 0.0
O322 O 0.96813 0.95496 0.39878 0.0
O323 O 0.96101 1.00716 0.40949 0.0
O324 O 0.87998 0.00754 0.40452 0.0
C325 C 0.98225 0.98231 0.40522 0.0
H326 H 0.92829 0.05703 0.35165 0.0
H327 H 0.92667 0.90149 0.45166 0.0
H328 H 0.82493 0.94473 0.36583 0.0
H329 H 0.87355 0.85793 0.38974 0.0
Co330 Co 0.54307 0.84859 0.89986 0.0
C331 C 0.56438 0.86393 0.86482 0.0
C332 C 0.51784 0.83404 0.86778 0.0
C333 C 0.52317 0.83925 0.85167 0.0
N334 N 0.54367 0.84907 0.87622 0.0
N335 N 0.55236 0.85823 0.84967 0.0
H336 H 0.58718 0.8792 0.86728 0.0
H337 H 0.49624 0.82011 0.87307 0.0
C338 C 0.55107 0.7742 0.89036 0.0
O339 O 0.57514 0.78629 0.88064 0.0
N340 N 0.54063 0.84756 0.92343 0.0
C341 C 0.54928 0.87381 0.93343 0.0
C342 C 0.54731 0.8623 0.94908 0.0
C343 C 0.53394 0.82016 0.93331 0.0
N344 N 0.53791 0.82851 0.94904 0.0
C345 C 0.61314 0.86993 0.89817 0.0
C346 C 0.63649 0.82194 0.9203 0.0
C347 C 0.65549 0.85255 0.91778 0.0
C348 C 0.64461 0.87563 0.90589 0.0
C349 C 0.60534 0.81683 0.91203 0.0
N350 N 0.5929 0.84177 0.90181 0.0
H351 H 0.60323 0.891 0.89105 0.0
H352 H 0.58944 0.79494 0.91548 0.0
H353 H 0.55786 0.89934 0.92969 0.0
H354 H 0.52717 0.79438 0.92916 0.0
O355 O 0.54477 0.89867 0.90019 0.0
O356 O 0.4958 0.86914 0.89897 0.0
O357 O 0.53398 0.79577 0.89917 0.0
C358 C 0.51141 0.89942 0.89951 0.0
H359 H 0.50667 0.82943 0.84217 0.0
H360 H 0.55387 0.87726 0.95967 0.0
H361 H 0.64456 0.80315 0.92925 0.0
H362 H 0.65853 0.89968 0.90366 0.0
Co363 Co 0.56906 0.53426 0.40731 0.0
C364 C 0.55697 0.53212 0.37199 0.0
C365 C 0.58582 0.48779 0.38022 0.0
C366 C 0.5826 0.48591 0.36373 0.0
N367 N 0.56997 0.51686 0.38538 0.0
N368 N 0.56459 0.5139 0.3585 0.0
H369 H 0.54332 0.5567 0.37209 0.0
H370 H 0.59928 0.46951 0.38788 0.0
C371 C 0.64266 0.53689 0.41774 0.0
O372 O 0.63437 0.56797 0.42309 0.0
N373 N 0.568 0.55053 0.42972 0.0
C374 C 0.55487 0.58019 0.43588 0.0
C375 C 0.56442 0.58281 0.4518 0.0
C376 C 0.58368 0.53468 0.44241 0.0
N377 N 0.58305 0.55445 0.45588 0.0
C378 C 0.56213 0.60595 0.39847 0.0
C379 C 0.62452 0.61121 0.38234 0.0
C380 C 0.60218 0.64003 0.38253 0.0
C381 C 0.57024 0.63673 0.39046 0.0
C382 C 0.61481 0.58058 0.39001 0.0
N383 N 0.58493 0.57877 0.39885 0.0
H384 H 0.53656 0.60358 0.40358 0.0
H385 H 0.63106 0.55801 0.38838 0.0
H386 H 0.53997 0.59931 0.42946 0.0
H387 H 0.59766 0.51036 0.44146 0.0
O388 O 0.52038 0.54293 0.40501 0.0
O389 O 0.54205 0.49334 0.41406 0.0
O390 O 0.61929 0.51813 0.41082 0.0
C391 C 0.51476 0.51176 0.41015 0.0
H392 H 0.59286 0.46542 0.3562 0.0
H393 H 0.55877 0.60448 0.45967 0.0
H394 H 0.64945 0.61196 0.37634 0.0
H395 H 0.55117 0.65739 0.39028 0.0
Co396 Co 0.9829 0.88464 0.14 0.0
C397 C 0.98372 0.90168 0.17509 0.0
C398 C 0.02643 0.86921 0.16802 0.0
C399 C 0.02839 0.87488 0.18433 0.0
N400 N 0.99835 0.88577 0.16223 0.0
N401 N 1.00144 0.89515 0.18887 0.0
H402 H 0.96013 0.91688 0.17443 0.0
H403 H 0.04415 0.85385 0.16087 0.0
C404 C 0.97361 0.80946 0.13218 0.0
O405 O 0.94414 0.81977 0.12578 0.0
N406 N 0.9692 0.88334 0.11729 0.0
C407 C 0.94411 0.90087 0.10936 0.0
C408 C 0.94402 0.89054 0.09346 0.0
C409 C 0.98489 0.86384 0.1058 0.0
N410 N 0.96937 0.86682 0.09129 0.0
C411 C 0.9124 0.90118 0.14692 0.0
C412 C 0.89947 0.84522 0.16674 0.0
C413 C 0.87524 0.8726 0.16639 0.0
C414 C 0.88233 0.9008 0.15618 0.0
C415 C 0.93022 0.84763 0.15797 0.0
N416 N 0.93621 0.87499 0.14785 0.0
H417 H 0.91769 0.92439 0.14014 0.0
H418 H 0.95001 0.8284 0.16021 0.0
H419 H 0.92687 0.91987 0.11451 0.0
H420 H 1.00687 0.84704 0.10811 0.0
O421 O 0.97879 0.93446 0.1402 0.0
O422 O 0.02691 0.90706 0.13338 0.0
O423 O 0.99395 0.83213 0.13874 0.0
C424 C 0.01059 0.93656 0.13553 0.0
H425 H 0.04839 0.86488 0.1922 0.0
H426 H 0.92589 0.89902 0.08432 0.0
H427 H 0.89569 0.82229 0.17404 0.0
H428 H 0.8659 0.92353 0.15571 0.0
Co429 Co 0.6915 0.96647 0.64433 0.0
C430 C 0.67866 0.94963 0.67901 0.0
C431 C 0.71326 0.993 0.67594 0.0
C432 C 0.70857 0.98737 0.69212 0.0
N433 N 0.69479 0.96922 0.66766 0.0
N434 N 0.68677 0.96016 0.69413 0.0
H435 H 0.66142 0.92817 0.67626 0.0
H436 H 0.72869 0.0135 0.6706 0.0
C437 C 0.76556 0.97721 0.6338 0.0
O438 O 0.76015 0.95124 0.62384 0.0
N439 N 0.68704 0.96479 0.62053 0.0
C440 C 0.66381 0.94548 0.61221 0.0
C441 C 0.67126 0.94714 0.59609 0.0
C442 C 0.70595 0.98087 0.60882 0.0
N443 N 0.69841 0.96873 0.59392 0.0
C444 C 0.698 0.89419 0.63672 0.0
C445 C 0.76666 0.89021 0.6461 0.0
C446 C 0.75457 0.86873 0.63367 0.0
C447 C 0.71885 0.86815 0.63037 0.0
C448 C 0.74442 0.91567 0.65223 0.0
N449 N 0.71274 0.92064 0.64517 0.0
H450 H 0.671 0.895 0.63345 0.0
H451 H 0.75481 0.93478 0.66047 0.0
H452 H 0.64303 0.93026 0.61737 0.0
H453 H 0.72614 0.99979 0.61105 0.0
O454 O 0.64404 0.95164 0.64623 0.0
O455 O 0.66015 1.00677 0.6444 0.0
O456 O 0.74029 0.98871 0.6425 0.0
C457 C 0.63494 0.98398 0.64548 0.0
H458 H 0.71963 1.00287 0.70171 0.0
H459 H 0.65835 0.93252 0.58671 0.0
H460 H 0.79375 0.89008 0.64965 0.0
H461 H 0.70782 0.85063 0.62155 0.0
Co462 Co 0.52745 0.62077 0.14617 0.0
C463 C 0.51739 0.60091 0.18022 0.0
C464 C 0.46901 0.61596 0.16943 0.0
C465 C 0.46333 0.60832 0.18545 0.0
N466 N 0.50299 0.61159 0.16622 0.0
N467 N 0.49382 0.59894 0.19227 0.0
H468 H 0.54491 0.59605 0.18164 0.0
H469 H 0.44985 0.62467 0.16082 0.0
C470 C 0.50958 0.69217 0.13636 0.0
O471 O 0.54324 0.69452 0.1339 0.0
N472 N 0.55127 0.6281 0.12544 0.0
C473 C 0.58343 0.61812 0.1209 0.0
C474 C 0.58837 0.62643 0.1049 0.0
C475 C 0.53655 0.64023 0.11168 0.0
N476 N 0.55895 0.64079 0.09912 0.0
C477 C 0.59283 0.64896 0.15861 0.0
C478 C 0.56054 0.6975 0.1781 0.0
C479 C 0.59677 0.6968 0.17758 0.0
C480 C 0.61307 0.67163 0.16792 0.0
C481 C 0.54159 0.6752 0.16843 0.0
N482 N 0.55754 0.65205 0.15835 0.0
H483 H 0.60559 0.62891 0.15185 0.0
H484 H 0.51362 0.67665 0.16913 0.0
H485 H 0.60185 0.60448 0.12835 0.0
H486 H 0.50971 0.64835 0.11081 0.0
O487 O 0.55267 0.57818 0.14943 0.0
O488 O 0.50295 0.58164 0.13618 0.0
O489 O 0.49629 0.66305 0.14117 0.0
C490 C 0.52807 0.56218 0.14176 0.0
H491 H 0.43856 0.60964 0.19157 0.0
H492 H 0.61199 0.62235 0.09812 0.0
H493 H 0.5467 0.71542 0.18583 0.0
H494 H 0.64111 0.66981 0.1673 0.0
Co495 Co 0.82769 0.52692 0.64463 0.0
C496 C 0.8417 0.54768 0.67974 0.0
C497 C 0.82059 0.49665 0.67639 0.0
C498 C 0.82645 0.50157 0.6925 0.0
N499 N 0.83011 0.52538 0.66821 0.0
N500 N 0.83977 0.53367 0.6947 0.0
H501 H 0.85077 0.57372 0.67759 0.0
H502 H 0.81038 0.47327 0.67091 0.0
C503 C 0.75427 0.53213 0.65538 0.0
O504 O 0.76654 0.55539 0.66546 0.0
N505 N 0.82501 0.52683 0.62112 0.0
C506 C 0.84775 0.54301 0.61129 0.0
C507 C 0.83387 0.54468 0.59608 0.0
C508 C 0.79763 0.51844 0.61154 0.0
N509 N 0.8023 0.52942 0.59621 0.0
C510 C 0.84759 0.59703 0.6472 0.0
C511 C 0.79973 0.61943 0.6248 0.0
C512 C 0.83103 0.63762 0.62665 0.0
C513 C 0.85379 0.62762 0.63885 0.0
C514 C 0.79402 0.58924 0.6338 0.0
N515 N 0.81935 0.57674 0.64381 0.0
H516 H 0.86882 0.5872 0.65427 0.0
H517 H 0.77187 0.5734 0.63067 0.0
H518 H 0.87173 0.55514 0.61511 0.0
H519 H 0.77367 0.50709 0.61589 0.0
O520 O 0.87752 0.53015 0.64346 0.0
O521 O 0.8495 0.48019 0.64422 0.0
O522 O 0.77551 0.51624 0.64599 0.0
C523 C 0.8792 0.49677 0.64352 0.0
H524 H 0.82202 0.48243 0.70181 0.0
H525 H 0.84549 0.55758 0.58583 0.0
H526 H 0.78117 0.62685 0.61564 0.0
H527 H 0.87835 0.6409 0.64063 0.0
C528 C 0.06141 0.1802 0.97521 0.0
C529 C 0.03257 0.174 0.96522 0.0
C530 C 0.05811 0.19909 0.98949 0.0
C531 C 0.99855 0.25952 1.01195 0.0
H532 H 0.06219 0.23875 0.04675 0.0
C533 C 0.99312 0.32437 0.07602 0.0
C534 C 0.025 0.33839 0.08124 0.0
C535 C 0.99148 0.3034 0.06217 0.0
C536 C 0.04424 0.24494 0.03714 0.0
H537 H 0.97745 0.18325 0.96253 0.0
H538 H 0.97115 0.21522 0.98785 0.0
H539 H 0.06321 0.20349 1.02253 0.0
H540 H 0.08019 0.34038 0.07624 0.0
H541 H 0.0775 0.30325 0.05247 0.0
H542 H 0.97911 0.30056 0.02706 0.0
C543 C 0.99669 0.20603 0.98447 0.0
C544 C 0.04496 0.22485 0.0231 0.0
C545 C 1.00017 0.18747 0.96995 0.0
C546 C 0.0552 0.33034 0.07247 0.0
C547 C 0.05368 0.30885 0.0589 0.0
C548 C 0.99743 0.27927 0.02618 0.0
C549 C 0.02567 0.21213 0.99453 0.0
C550 C 0.02268 0.23219 1.01006 0.0
C551 C 0.02181 0.29525 0.05348 0.0
C552 C 0.02073 0.27263 0.03884 0.0
H553 H 0.08699 0.17119 0.97177 0.0
H554 H 0.08141 0.20399 0.99641 0.0
H555 H 0.98113 0.26647 1.00226 0.0
H556 H 0.96943 0.33019 0.08249 0.0
H557 H 0.96655 0.29319 0.05836 0.0
C558 C 0.36514 0.01368 0.46998 0.0
C559 C 0.40011 0.02462 0.47008 0.0
C560 C 0.3465 0.00957 0.48437 0.0
C561 C 0.34696 0.03646 0.52755 0.0
H562 H 0.27829 0.96325 0.53196 0.0
C563 C 0.27098 0.01386 0.58744 0.0
C564 C 0.23531 1.0062 0.58604 0.0
C565 C 0.29265 0.0141 0.5738 0.0
C566 C 0.29713 0.98409 0.53093 0.0
H567 H 0.44288 0.03873 0.48576 0.0
H568 H 0.41063 0.03142 0.51071 0.0
H569 H 0.31246 0.9675 0.5074 0.0
H570 H 0.19502 0.99158 0.56915 0.0
H571 H 0.23227 0.99235 0.54558 0.0
H572 H 0.3314 0.05319 0.55106 0.0
C573 C 0.39732 0.02663 0.49947 0.0
C574 C 0.31679 0.98655 0.51676 0.0
C575 C 0.41594 0.03076 0.48508 0.0
C576 C 0.22222 0.99793 0.57071 0.0
C577 C 0.24379 0.99802 0.55715 0.0
C578 C 0.32728 0.03399 0.54174 0.0
C579 C 0.36218 0.01624 0.49937 0.0
C580 C 0.34188 0.01294 0.51477 0.0
C581 C 0.27931 1.00643 0.5584 0.0
C582 C 0.3018 0.00795 0.54361 0.0
H583 H 0.35174 0.00924 0.45873 0.0
H584 H 0.31942 1.00204 0.48369 0.0
H585 H 0.36559 0.05747 0.52647 0.0
H586 H 0.28198 0.02064 0.59898 0.0
H587 H 0.3199 0.02035 0.57533 0.0
C588 C 0.50669 0.176 0.07699 0.0
C589 C 0.49092 0.14302 0.07796 0.0
C590 C 0.50997 0.1933 0.06221 0.0
C591 C 0.47455 0.19295 1.02009 0.0
H592 H 0.54948 0.25858 1.01281 0.0
C593 C 0.49413 0.26546 0.95899 0.0
C594 C 0.49946 0.3016 0.9602 0.0
C595 C 0.49529 0.24418 0.97275 0.0
C596 C 0.52831 0.24042 1.01466 0.0
H597 H 0.46765 0.10184 0.06384 0.0
H598 H 0.47441 0.1312 0.03806 0.0
H599 H 0.54808 0.22482 0.03758 0.0
H600 H 0.51145 0.34335 0.97675 0.0
H601 H 0.5141 0.3064 1.00058 0.0
H602 H 0.45522 0.20842 0.99697 0.0
C603 C 0.48325 0.14444 0.04878 0.0
C604 C 0.52733 0.22109 0.02897 0.0
C605 C 0.47954 0.12736 0.06361 0.0
C606 C 0.50703 0.31569 0.97541 0.0
C607 C 0.50876 0.29442 0.98906 0.0
C608 C 0.47582 0.21197 1.00568 0.0
C609 C 0.49804 0.178 0.04782 0.0
C610 C 0.50017 0.19731 0.03207 0.0
C611 C 0.50247 0.25843 0.988 0.0
C612 C 0.50246 0.23632 1.00285 0.0
H613 H 0.51533 0.18911 0.08776 0.0
H614 H 0.52095 0.21924 0.06222 0.0
H615 H 0.45282 0.17553 1.02197 0.0
H616 H 0.48797 0.25382 0.9475 0.0
H617 H 0.49053 0.21655 0.97145 0.0
C618 C 0.13255 0.49341 0.47154 0.0
C619 C 0.10045 0.4758 0.47121 0.0
C620 C 0.15097 0.49769 0.48595 0.0
C621 C 0.15754 0.46166 0.52766 0.0
H622 H 0.2168 0.54202 0.53426 0.0
C623 C 0.23539 0.4839 0.58702 0.0
C624 C 0.27043 0.49349 0.58501 0.0
C625 C 0.21243 0.48386 0.57386 0.0
C626 C 0.2005 0.51931 0.5326 0.0
H627 H 0.06198 0.45041 0.48622 0.0
H628 H 0.09353 0.45851 0.51131 0.0
H629 H 0.18078 0.53848 0.51024 0.0
H630 H 0.3084 0.51163 0.56775 0.0
H631 H 0.26854 0.51201 0.54495 0.0
H632 H 0.17729 0.44271 0.55014 0.0
C633 C 0.10511 0.46814 0.50033 0.0
C634 C 0.17986 0.51716 0.51873 0.0
C635 C 0.08683 0.4636 0.48587 0.0
C636 C 0.28163 0.50399 0.56968 0.0
C637 C 0.25867 0.50441 0.55662 0.0
C638 C 0.17797 0.46398 0.54161 0.0
C639 C 0.13776 0.48484 0.50059 0.0
C640 C 0.15835 0.48808 0.5159 0.0
C641 C 0.22384 0.49394 0.55845 0.0
C642 C 0.2001 0.49262 0.54417 0.0
H643 H 0.14413 0.50298 0.46057 0.0
H644 H 0.17617 0.51022 0.48546 0.0
H645 H 0.14188 0.43855 0.52592 0.0
H646 H 0.22603 0.47531 0.59863 0.0
H647 H 0.18574 0.47586 0.57575 0.0
C648 C 0.96982 0.85983 0.06161 0.0
C649 C 0.97558 0.84605 0.07704 0.0
C650 C 0.97398 0.83909 0.04786 0.0
C651 C 0.96984 0.74841 0.03413 0.0
H652 H 0.02119 0.78097 0.99702 0.0
C653 C 0.98644 0.66004 0.97809 0.0
C654 C 0.98759 0.67576 0.96286 0.0
C655 C 0.98811 0.68021 0.99215 0.0
C656 C 1.00622 0.77149 1.00711 0.0
H657 H 0.99015 0.79945 0.09002 0.0
H658 H 0.99666 0.76308 0.06607 0.0
H659 H 0.01727 0.81746 1.02089 0.0
H660 H 0.99139 0.72522 0.95056 0.0
H661 H 0.99299 0.76038 0.97477 0.0
H662 H 0.95733 0.70322 1.02033 0.0
C663 C 0.98925 0.79007 0.06462 0.0
C664 C 1.00419 0.79249 1.02088 0.0
C665 C 0.98579 0.811 0.07834 0.0
C666 C 0.99104 0.71216 0.96206 0.0
C667 C 0.99203 0.73239 0.97608 0.0
C668 C 0.97129 0.72767 1.02027 0.0
C669 C 0.9833 0.8038 0.04919 0.0
C670 C 0.98598 0.78124 0.03458 0.0
C671 C 0.99024 0.71686 0.99142 0.0
C672 C 0.9895 0.73878 1.00646 0.0
H673 H 0.96207 0.88671 0.06018 0.0
H674 H 0.96903 0.85046 0.03618 0.0
H675 H 0.95524 0.73911 0.04439 0.0
H676 H 0.984 0.63207 0.97913 0.0
H677 H 0.98755 0.66687 1.00359 0.0
C678 C 0.87234 0.928 0.47248 0.0
C679 C 0.88475 0.95698 0.46387 0.0
C680 C 0.85378 0.93208 0.48683 0.0
C681 C 0.80477 0.9974 0.5116 0.0
H682 H 0.81249 0.92501 0.54382 0.0
C683 C 0.73796 1.00154 0.57549 0.0
C684 C 0.71967 0.97101 0.57954 0.0
C685 C 0.75922 1.0027 0.56169 0.0
C686 C 0.80995 0.94546 0.53494 0.0
H687 H 0.88704 0.01328 0.46386 0.0
H688 H 0.85542 0.02051 0.48915 0.0
H689 H 0.84785 0.92198 0.51967 0.0
H690 H 0.71049 0.91752 0.57241 0.0
H691 H 0.74747 0.91943 0.54875 0.0
H692 H 0.7671 0.02102 0.52729 0.0
C693 C 0.85951 0.99445 0.48462 0.0
C694 C 0.83012 0.94363 0.52095 0.0
C695 C 0.87785 0.99033 0.4701 0.0
C696 C 0.72355 0.9417 0.56956 0.0
C697 C 0.74514 0.94265 0.55604 0.0
C698 C 0.78488 0.99945 0.52577 0.0
C699 C 0.8472 0.96533 0.49328 0.0
C700 C 0.82738 0.96912 0.50882 0.0
C701 C 0.76333 0.97308 0.55189 0.0
C702 C 0.7867 0.97311 0.53748 0.0
H703 H 0.87624 0.90193 0.46793 0.0
H704 H 0.84403 0.90891 0.49269 0.0
H705 H 0.80152 0.01747 0.50261 0.0
H706 H 0.73566 0.0245 0.58294 0.0
H707 H 0.773 0.02652 0.55887 0.0
C708 C 0.52298 0.8191 0.97768 0.0
C709 C 0.5358 0.80611 0.96303 0.0
C710 C 0.52319 0.7986 0.99163 0.0
C711 C 0.56957 0.72661 1.01112 0.0
H712 H 0.4894 0.72223 0.0392 0.0
C713 C 0.57292 0.6444 0.06991 0.0
C714 C 0.55357 0.65578 0.08326 0.0
C715 C 0.56918 0.66034 0.0548 0.0
C716 C 0.51237 0.72349 0.03173 0.0
H717 H 0.55894 0.76117 0.95164 0.0
H718 H 0.56003 0.72543 0.97615 0.0
H719 H 0.48591 0.75436 1.01404 0.0
H720 H 0.51477 0.69293 0.09088 0.0
H721 H 0.50927 0.72163 0.06502 0.0
H722 H 0.5967 0.69723 0.02897 0.0
C723 C 0.54946 0.7515 0.97676 0.0
C724 C 0.51019 0.74182 1.01716 0.0
C725 C 0.54857 0.77182 0.96268 0.0
C726 C 0.53001 0.68329 0.08094 0.0
C727 C 0.52671 0.69967 0.06593 0.0
C728 C 0.572 0.70879 0.02584 0.0
C729 C 0.53688 0.76468 0.99145 0.0
C730 C 0.53877 0.74375 1.00666 0.0
C731 C 0.54635 0.68866 0.05254 0.0
C732 C 0.54347 0.70696 0.03649 0.0
H733 H 0.51291 0.84535 0.97835 0.0
H734 H 0.51349 0.80972 1.00271 0.0
H735 H 0.59225 0.72789 1.00344 0.0
H736 H 0.59092 0.62295 0.07109 0.0
H737 H 0.58422 0.65019 0.04488 0.0
C738 C 0.6165 0.57844 0.47882 0.0
C739 C 0.60283 0.54957 0.47057 0.0
C740 C 0.63624 0.57423 0.49282 0.0
C741 C 0.68516 0.50776 0.51719 0.0
H742 H 0.68357 0.58163 0.54887 0.0
C743 C 0.75614 0.501 0.5798 0.0
C744 C 0.77728 0.52997 0.58319 0.0
C745 C 0.73328 0.50134 0.56657 0.0
C746 C 0.68438 0.56076 0.54014 0.0
H747 H 0.59947 0.4934 0.47073 0.0
H748 H 0.63289 0.48586 0.49553 0.0
H749 H 0.64646 0.58549 0.5253 0.0
H750 H 0.79 0.58241 0.57569 0.0
H751 H 0.74973 0.58338 0.55301 0.0
H752 H 0.72267 0.4828 0.53251 0.0
C753 C 0.62903 0.51194 0.49098 0.0
C754 C 0.66322 0.56305 0.52646 0.0
C755 C 0.60963 0.5162 0.47676 0.0
C756 C 0.77436 0.55954 0.57331 0.0
C757 C 0.7511 0.56017 0.56037 0.0
C758 C 0.70593 0.50521 0.53106 0.0
C759 C 0.64267 0.54095 0.49931 0.0
C760 C 0.6637 0.53697 0.51453 0.0
C761 C 0.73043 0.53102 0.5567 0.0
C762 C 0.70627 0.532 0.54258 0.0
H763 H 0.61264 0.60449 0.47423 0.0
H764 H 0.64697 0.59731 0.49838 0.0
H765 H 0.68681 0.4872 0.50834 0.0
H766 H 0.75789 0.47785 0.58717 0.0
H767 H 0.7176 0.47852 0.56413 0.0
C768 C 0.99837 0.25553 0.1348 0.0
C769 C 0.00713 0.26952 0.1499 0.0
C770 C 1.00041 0.21935 0.13199 0.0
C771 C 0.00757 0.13381 0.15395 0.0
H772 H 0.04006 0.09844 0.11305 0.0
C773 C 0.04042 0.98842 0.14686 0.0
C774 C 0.02572 0.97172 0.13348 0.0
C775 C 0.04195 0.02492 0.14766 0.0
C776 C 0.03086 0.10787 0.12454 0.0
H777 H 0.0244 0.25583 0.1739 0.0
H778 H 0.02848 0.19408 0.16902 0.0
H779 H 0.0323 0.16116 0.11676 0.0
H780 H 1.00181 0.98022 0.11032 0.0
H781 H 1.00553 0.04376 0.1114 0.0
H782 H 1.0064 0.08077 0.1618 0.0
C783 C 0.01938 0.21047 0.15932 0.0
C784 C 0.02616 0.14394 0.12665 0.0
C785 C 0.01724 0.24629 0.16212 0.0
C786 C 0.01452 0.9923 0.12051 0.0
C787 C 0.01629 0.02881 0.12123 0.0
C788 C 0.01258 0.09796 0.15189 0.0
C789 C 0.01122 0.19622 0.14422 0.0
C790 C 0.01464 0.15757 0.14145 0.0
C791 C 0.02863 0.0457 0.13512 0.0
C792 C 0.0245 0.08435 0.1372 0.0
H793 H 0.99075 0.27255 0.12505 0.0
H794 H 0.99352 0.20955 0.12022 0.0
H795 H 0.99777 0.1428 0.1654 0.0
H796 H 0.04807 0.97335 0.15727 0.0
H797 H 0.05204 0.03689 0.15847 0.0
C798 C 0.32282 0.03299 0.66798 0.0
C799 C 0.29993 0.01299 0.65854 0.0
C800 C 0.35879 0.03059 0.66606 0.0
C801 C 0.42718 1.00011 0.63743 0.0
H802 H 0.48746 0.01574 0.6741 0.0
C803 C 0.57431 0.96873 0.63792 0.0
C804 C 0.59736 0.99268 0.64501 0.0
C805 C 0.53838 0.97367 0.63862 0.0
C806 C 0.47101 0.01181 0.66369 0.0
H807 H 0.29748 0.97398 0.63982 0.0
H808 H 0.36064 0.96864 0.63683 0.0
H809 H 0.42468 0.01595 0.6777 0.0
H810 H 0.6007 0.04101 0.65822 0.0
H811 H 0.53723 0.0494 0.65983 0.0
H812 H 0.47397 0.99455 0.62363 0.0
C813 C 0.35056 0.987 0.64551 0.0
C814 C 0.43483 0.01192 0.66572 0.0
C815 C 0.31425 0.98971 0.64733 0.0
C816 C 0.58358 0.02229 0.65256 0.0
C817 C 0.54731 0.02689 0.65357 0.0
C818 C 0.46341 0.99948 0.63547 0.0
C819 C 0.37343 0.00769 0.65477 0.0
C820 C 0.41223 1.00622 0.65262 0.0
C821 C 0.52431 1.0024 0.64671 0.0
C822 C 0.48579 1.00539 0.64857 0.0
H823 H 0.31301 0.05141 0.67671 0.0
H824 H 0.37505 0.04758 0.67321 0.0
H825 H 0.41096 0.99625 0.62696 0.0
H826 H 0.58409 0.94564 0.632 0.0
H827 H 0.52154 0.95418 0.63334 0.0
C828 C 0.51135 0.50559 0.12816 0.0
C829 C 0.5287 0.52358 0.14048 0.0
C830 C 0.51399 0.46914 0.12698 0.0
C831 C 0.53103 0.39008 0.15069 0.0
H832 H 0.5585 0.34824 0.11035 0.0
C833 C 0.54698 0.24026 0.14555 0.0
C834 C 0.53386 0.22538 0.13139 0.0
C835 C 0.55205 0.27653 0.1466 0.0
C836 C 0.55034 0.35924 0.1217 0.0
H837 H 0.5615 0.51729 0.16148 0.0
H838 H 0.56516 0.45413 0.15967 0.0
H839 H 0.55169 0.41114 0.11215 0.0
H840 H 0.5177 0.23651 0.10703 0.0
H841 H 0.52611 0.29854 0.10875 0.0
H842 H 0.52817 0.33839 0.16017 0.0
C843 C 0.54995 0.46803 0.1508 0.0
C844 C 0.54649 0.39546 0.12269 0.0
C845 C 0.54795 0.5043 0.15177 0.0
C846 C 0.52839 0.24705 0.11804 0.0
C847 C 0.53322 0.28297 0.11907 0.0
C848 C 0.53421 0.35378 0.14964 0.0
C849 C 0.53331 0.44996 0.13833 0.0
C850 C 0.53667 0.41133 0.13718 0.0
C851 C 0.54395 0.29861 0.13352 0.0
C852 C 0.54371 0.33764 0.13509 0.0
H853 H 0.49638 0.51969 0.11928 0.0
H854 H 0.50072 0.45589 0.11727 0.0
H855 H 0.52334 0.40153 0.16203 0.0
H856 H 0.55075 0.22437 0.15615 0.0
H857 H 0.56103 0.28733 0.15786 0.0
C858 C 0.19731 0.50475 0.64335 0.0
C859 C 0.21263 0.49387 0.65786 0.0
C860 C 0.16091 0.50384 0.64133 0.0
C861 C 0.07693 0.49618 0.66422 0.0
H862 H 0.04022 0.46242 0.62378 0.0
C863 C 0.92961 0.46819 0.65712 0.0
C864 C 0.91419 0.48074 0.64298 0.0
C865 C 0.96605 0.46591 0.65846 0.0
C866 C 0.04991 0.47209 0.63514 0.0
H867 H 0.20112 0.47524 0.68186 0.0
H868 H 0.13855 0.47388 0.67844 0.0
H869 H 0.10283 0.47019 0.62702 0.0
H870 H 0.92481 0.49987 0.61906 0.0
H871 H 0.98777 0.49515 0.62113 0.0
H872 H 0.02414 0.49826 0.67234 0.0
C873 C 0.15429 0.48316 0.66854 0.0
C874 C 0.08598 0.47675 0.63697 0.0
C875 C 0.19044 0.48387 0.6705 0.0
C876 C 0.93586 0.48896 0.62992 0.0
C877 C 0.97214 0.48654 0.63119 0.0
C878 C 0.04093 0.49151 0.66239 0.0
C879 C 0.13884 0.4924 0.65383 0.0
C880 C 0.10013 0.48884 0.65156 0.0
C881 C 0.98795 0.4763 0.64569 0.0
C882 C 0.02674 0.47936 0.64783 0.0
H883 H 0.21339 0.5125 0.63331 0.0
H884 H 0.15011 0.51171 0.62989 0.0
H885 H 0.08652 0.50607 0.67556 0.0
H886 H 0.91372 0.46283 0.66757 0.0
H887 H 0.97708 0.45741 0.66975 0.0
C888 C 0.02187 0.5401 0.90688 0.0
C889 C 1.00065 0.55635 0.89542 0.0
C890 C 0.02299 0.50363 0.90786 0.0
C891 C 0.00704 0.42188 0.8862 0.0
H892 H 0.98066 0.38464 0.9277 0.0
C893 C 0.99048 0.2729 0.89571 0.0
C894 C 1.00346 0.25985 0.91028 0.0
C895 C 0.98633 0.30899 0.89353 0.0
C896 C 0.98861 0.39434 0.91606 0.0
H897 H 0.96549 0.54761 0.87551 0.0
H898 H 0.96872 0.48411 0.87675 0.0
H899 H 0.98673 0.44721 0.92424 0.0
H900 H 0.02024 0.27413 0.93424 0.0
H901 H 0.01395 0.33594 0.93045 0.0
H902 H 0.01026 0.36912 0.87809 0.0
C903 C 0.98407 0.49935 0.8851 0.0
C904 C 0.99204 0.43034 0.91411 0.0
C905 C 0.98226 0.53565 0.88439 0.0
C906 C 0.01005 0.2833 0.92287 0.0
C907 C 1.00625 0.31903 0.92068 0.0
C908 C 1.00434 0.38572 0.88822 0.0
C909 C 1.00358 0.48292 0.89714 0.0
C910 C 1.00143 0.44452 0.8992 0.0
C911 C 0.99521 0.33268 0.90586 0.0
C912 C 0.99529 0.37132 0.90323 0.0
H913 H 0.03583 0.5555 0.91567 0.0
H914 H 0.03833 0.49158 0.91724 0.0
H915 H 0.01417 0.43216 0.87454 0.0
H916 H 0.9856 0.25553 0.88572 0.0
H917 H 0.97712 0.31833 0.88203 0.0
C918 C 0.03666 0.01226 0.41529 0.0
C919 C 0.02072 0.98485 0.40687 0.0
C920 C 0.07306 0.01415 0.4165 0.0
C921 C 0.15422 0.98418 0.3968 0.0
H922 H 0.19722 1.00723 0.43749 0.0
C923 C 0.30519 0.98681 0.40485 0.0
C924 C 0.31843 0.01408 0.4143 0.0
C925 C 0.26914 0.98019 0.40432 0.0
C926 C 0.18577 1.00113 0.42595 0.0
H927 H 0.03075 0.93805 0.39306 0.0
H928 H 0.09378 0.94154 0.39508 0.0
H929 H 0.13416 1.00376 0.43559 0.0
H930 H 0.30389 0.05511 0.43094 0.0
H931 H 0.24226 0.04424 0.42977 0.0
H932 H 0.20577 0.98236 0.38703 0.0
C933 C 0.0783 0.96163 0.40073 0.0
C934 C 0.14947 0.99914 0.42489 0.0
C935 C 0.04205 0.95953 0.39967 0.0
C936 C 0.29489 0.03387 0.42347 0.0
C937 C 0.25923 0.02739 0.42292 0.0
C938 C 0.19059 0.98651 0.39781 0.0
C939 C 0.09437 0.98892 0.40916 0.0
C940 C 0.13315 0.99086 0.41028 0.0
C941 C 0.2456 1.00065 0.41328 0.0
C942 C 0.20695 0.99537 0.41238 0.0
H943 H 0.02103 0.03221 0.42095 0.0
H944 H 0.08457 0.0357 0.42299 0.0
H945 H 0.14255 0.97797 0.38531 0.0
H946 H 0.32252 0.97112 0.39761 0.0
H947 H 0.25975 0.95911 0.39687 0.0
C948 C 0.5051 0.21858 0.90281 0.0
C949 C 0.4938 0.23437 0.88847 0.0
C950 C 0.50487 0.18201 0.90448 0.0
C951 C 0.5008 0.09927 0.88053 0.0
H952 H 0.46906 0.05799 0.92037 0.0
C953 C 0.48252 0.94958 0.88562 0.0
C954 C 0.49423 0.934 0.89988 0.0
C955 C 0.47843 0.98598 0.8846 0.0
C956 C 0.47828 0.06891 0.90916 0.0
H957 H 0.4743 0.22358 0.86454 0.0
H958 H 0.47414 0.16074 0.86738 0.0
H959 H 0.47336 0.12117 0.91804 0.0
H960 H 0.51012 0.94439 0.92432 0.0
H961 H 0.50267 1.00713 0.92274 0.0
H962 H 0.5062 0.04724 0.87168 0.0
C963 C 0.48333 0.17625 0.87737 0.0
C964 C 0.48086 0.10536 0.90785 0.0
C965 C 0.48328 0.21255 0.87577 0.0
C966 C 0.5 0.95545 0.9133 0.0
C967 C 0.49592 0.99167 0.91233 0.0
C968 C 0.49835 0.06289 0.88185 0.0
C969 C 0.49371 0.16025 0.8918 0.0
C970 C 0.49211 0.12119 0.8935 0.0
C971 C 0.48627 0.00779 0.8978 0.0
C972 C 0.48704 0.04696 0.89619 0.0
H973 H 0.51309 0.23444 0.9129 0.0
H974 H 0.5134 0.17079 0.91573 0.0
H975 H 0.51009 0.11021 0.86934 0.0
H976 H 0.47899 0.93396 0.87491 0.0
H977 H 0.47038 0.99709 0.87325 0.0
C978 C 0.45825 0.50427 0.39664 0.0
C979 C 0.47858 0.49905 0.41043 0.0
C980 C 0.42205 0.50229 0.39735 0.0
C981 C 0.3507 0.51514 0.42622 0.0
H982 H 0.29317 0.48194 0.39117 0.0
C983 C 0.20166 0.50022 0.43059 0.0
C984 C 0.18109 0.50543 0.41686 0.0
C985 C 0.23778 0.50324 0.42988 0.0
C986 C 0.30886 0.49191 0.40094 0.0
H987 H 0.47719 0.4866 0.43573 0.0
H988 H 0.41344 0.48246 0.43706 0.0
H989 H 0.35598 0.47384 0.3901 0.0
H990 H 0.18215 0.51927 0.39168 0.0
H991 H 0.24574 0.52499 0.39037 0.0
H992 H 0.30353 0.53307 0.43709 0.0
C993 C 0.42561 0.48824 0.42564 0.0
C994 C 0.34493 0.48702 0.40039 0.0
C995 C 0.4621 0.48996 0.42486 0.0
C996 C 0.1973 0.51586 0.40253 0.0
C997 C 0.23374 0.51849 0.40175 0.0
C998 C 0.31463 0.52 0.42678 0.0
C999 C 0.40509 0.49544 0.41197 0.0
C1000 C 0.3664 0.49856 0.41303 0.0
C1001 C 0.25448 0.51108 0.41531 0.0
C1002 C 0.29318 0.50842 0.41416 0.0
H1003 H 0.47037 0.51195 0.38542 0.0
H1004 H 0.40734 0.50835 0.38662 0.0
H1005 H 0.36637 0.52508 0.43601 0.0
H1006 H 0.18995 0.49142 0.4417 0.0
H1007 H 0.2527 0.49701 0.44052 0.0
C1008 C 0.99361 0.78318 0.92048 0.0
C1009 C 1.00267 0.75982 0.90819 0.0
C1010 C 0.99882 0.81883 0.91874 0.0
C1011 C 0.01185 0.88696 0.88747 0.0
H1012 H 0.02283 0.94547 0.92511 0.0
C1013 C 0.03848 0.03677 0.88719 0.0
C1014 C 0.01681 0.05698 0.89708 0.0
C1015 C 0.03657 1.00043 0.88746 0.0
C1016 C 0.01948 0.92945 0.91451 0.0
H1017 H 0.02622 0.75569 0.88466 0.0
H1018 H 0.03708 0.81842 0.88184 0.0
H1019 H 0.02558 0.88254 0.9279 0.0
H1020 H 0.97579 0.05508 0.91483 0.0
H1021 H 0.97317 0.99113 0.91571 0.0
H1022 H 0.00736 0.93461 0.87409 0.0
C1023 C 0.02483 0.80902 0.89271 0.0
C1024 C 0.02095 0.89325 0.91607 0.0
C1025 C 0.01917 0.77296 0.8944 0.0
C1026 C 0.99255 0.04013 0.90699 0.0
C1027 C 0.99125 1.00363 0.90757 0.0
C1028 C 0.01118 0.92333 0.88588 0.0
C1029 C 0.01397 0.83258 0.90474 0.0
C1030 C 0.0164 0.87131 0.90264 0.0
C1031 C 0.01354 0.98344 0.89792 0.0
C1032 C 0.01435 0.94489 0.89944 0.0
H1033 H 0.98077 0.77412 0.93128 0.0
H1034 H 0.98934 0.83565 0.92819 0.0
H1035 H 0.0078 0.87123 0.87686 0.0
H1036 H 0.05744 0.04912 0.87942 0.0
H1037 H 0.05412 0.98556 0.87996 0.0
C1038 C 0.79844 0.01257 0.42415 0.0
C1039 C 0.81768 0.01227 0.40982 0.0
C1040 C 0.76209 0.01392 0.42386 0.0
C1041 C 0.69059 0.98634 0.39731 0.0
H1042 H 0.6319 0.0289 0.42961 0.0
C1043 C 0.54011 0.98673 0.39379 0.0
C1044 C 0.52081 0.98623 0.40809 0.0
C1045 C 0.57648 0.98723 0.39413 0.0
C1046 C 0.64793 0.01633 0.42064 0.0
H1047 H 0.81399 0.01519 0.38394 0.0
H1048 H 0.75047 0.01845 0.38334 0.0
H1049 H 0.69413 0.04111 0.42944 0.0
H1050 H 0.52425 0.98521 0.43398 0.0
H1051 H 0.58801 0.98501 0.43471 0.0
H1052 H 0.64448 0.96141 0.38856 0.0
C1053 C 0.76347 0.01736 0.39487 0.0
C1054 C 0.68367 0.02358 0.42047 0.0
C1055 C 0.79995 0.01631 0.3952 0.0
C1056 C 0.53856 0.98445 0.42278 0.0
C1057 C 0.57506 0.98512 0.42316 0.0
C1058 C 0.65487 0.97906 0.39749 0.0
C1059 C 0.74403 0.01455 0.40917 0.0
C1060 C 0.70553 0.00873 0.40879 0.0
C1061 C 0.5945 0.98778 0.40884 0.0
C1062 C 0.63297 0.99394 0.40916 0.0
H1063 H 0.81139 0.00839 0.43556 0.0
H1064 H 0.74818 0.0115 0.43511 0.0
H1065 H 0.70665 0.9737 0.38837 0.0
H1066 H 0.52699 0.98929 0.38232 0.0
H1067 H 0.59031 0.98965 0.38286 0.0
C1068 C 0.55655 0.45019 0.88823 0.0
C1069 C 0.53735 0.43475 0.90069 0.0
C1070 C 0.5614 0.48661 0.88776 0.0
C1071 C 0.55074 0.569 0.91213 0.0
H1072 H 0.53957 0.6121 0.87041 0.0
C1073 C 0.52975 0.71932 0.9046 0.0
C1074 C 0.5469 0.73546 0.89165 0.0
C1075 C 0.52908 0.68268 0.90602 0.0
C1076 C 0.54312 0.60067 0.88218 0.0
H1077 H 0.50902 0.44531 0.92259 0.0
H1078 H 0.51783 0.50792 0.922 0.0
H1079 H 0.54143 0.54897 0.87253 0.0
H1080 H 0.57617 0.72513 0.86988 0.0
H1081 H 0.57507 0.66235 0.87235 0.0
H1082 H 0.55211 0.62082 0.92176 0.0
C1083 C 0.52966 0.49241 0.91264 0.0
C1084 C 0.54436 0.5642 0.88339 0.0
C1085 C 0.52469 0.45629 0.91302 0.0
C1086 C 0.56263 0.71391 0.88005 0.0
C1087 C 0.56182 0.67758 0.88141 0.0
C1088 C 0.54947 0.60552 0.91092 0.0
C1089 C 0.54713 0.50845 0.89975 0.0
C1090 C 0.54811 0.54764 0.89839 0.0
C1091 C 0.54529 0.6612 0.89445 0.0
C1092 C 0.54562 0.62203 0.89591 0.0
H1093 H 0.56576 0.43448 0.87831 0.0
H1094 H 0.57541 0.49775 0.87772 0.0
H1095 H 0.55407 0.55753 0.9239 0.0
H1096 H 0.5175 0.73493 0.91382 0.0
H1097 H 0.51575 0.6712 0.91618 0.0
C1098 C 0.70263 0.54604 0.42816 0.0
C1099 C 0.67993 0.52692 0.41826 0.0
C1100 C 0.73849 0.54121 0.42735 0.0
C1101 C 0.80787 0.48172 0.41462 0.0
H1102 H 0.8632 0.56612 0.41251 0.0
C1103 C 0.95455 0.47686 0.40123 0.0
C1104 C 0.97694 0.5002 0.40913 0.0
C1105 C 0.91854 0.48039 0.40229 0.0
C1106 C 0.8483 0.54227 0.41333 0.0
H1107 H 0.67725 0.48637 0.40024 0.0
H1108 H 0.7405 0.47747 0.39896 0.0
H1109 H 0.80013 0.56998 0.41457 0.0
H1110 H 0.97895 0.54604 0.42418 0.0
H1111 H 0.91562 0.55198 0.42638 0.0
H1112 H 0.85593 0.45392 0.41369 0.0
C1113 C 0.73019 0.49642 0.40731 0.0
C1114 C 0.81205 0.54448 0.41444 0.0
C1115 C 0.694 0.50141 0.40806 0.0
C1116 C 0.96238 0.52773 0.41792 0.0
C1117 C 0.92606 0.53111 0.41912 0.0
C1118 C 0.84416 0.47948 0.41365 0.0
C1119 C 0.75286 0.51697 0.41667 0.0
C1120 C 0.79138 0.51424 0.41511 0.0
C1121 C 0.90364 0.50719 0.41145 0.0
C1122 C 0.86494 0.50973 0.41292 0.0
H1123 H 0.69275 0.56559 0.43634 0.0
H1124 H 0.75508 0.55686 0.435 0.0
H1125 H 0.79276 0.45796 0.41533 0.0
H1126 H 0.96484 0.45557 0.39416 0.0
H1127 H 0.90239 0.46203 0.39583 0.0
C1128 C 0.99562 0.7545 0.14567 0.0
C1129 C 0.98035 0.77127 0.13243 0.0
C1130 C 0.99552 0.71786 0.14675 0.0
C1131 C 0.98344 0.63668 0.12248 0.0
H1132 H 0.95552 0.59538 0.16291 0.0
C1133 C 0.95906 0.48763 0.12748 0.0
C1134 C 0.97201 0.47152 0.14138 0.0
C1135 C 0.95663 0.52421 0.12661 0.0
C1136 C 0.96371 0.60628 0.15153 0.0
H1137 H 0.95437 0.7626 0.10968 0.0
H1138 H 0.95496 0.6995 0.11134 0.0
H1139 H 0.96282 0.65827 0.16096 0.0
H1140 H 0.99156 0.48089 0.16534 0.0
H1141 H 0.9872 0.54379 0.16398 0.0
H1142 H 0.9849 0.58483 0.11307 0.0
C1143 C 0.96692 0.71424 0.12096 0.0
C1144 C 0.96801 0.64252 0.15045 0.0
C1145 C 0.96656 0.75058 0.12002 0.0
C1146 C 0.98066 0.49253 0.15461 0.0
C1147 C 0.97826 0.52882 0.15377 0.0
C1148 C 0.97941 0.60042 0.12359 0.0
C1149 C 0.98066 0.69722 0.13448 0.0
C1150 C 0.97791 0.65832 0.1359 0.0
C1151 C 0.96729 0.54545 0.13959 0.0
C1152 C 0.96948 0.58452 0.13814 0.0
H1153 H 1.00604 0.76965 0.15553 0.0
H1154 H 1.00665 0.70568 0.15728 0.0
H1155 H 0.99139 0.64776 0.11109 0.0
H1156 H 0.95311 0.4722 0.11694 0.0
H1157 H 0.94752 0.53584 0.11554 0.0
C1158 C 0.82551 0.98409 0.62323 0.0
C1159 C 0.80231 0.98794 0.63615 0.0
C1160 C 0.86141 0.98564 0.62558 0.0
C1161 C 0.92845 0.97281 0.65706 0.0
H1162 H 0.98973 0.00758 0.62375 0.0
C1163 C 0.07938 0.9851 0.66343 0.0
C1164 C 0.09967 0.97898 0.64969 0.0
C1165 C 0.04297 0.98348 0.66267 0.0
C1166 C 0.97305 0.99727 0.63309 0.0
H1167 H 0.7988 0.99762 0.6617 0.0
H1168 H 0.862 1.00128 0.66585 0.0
H1169 H 0.92727 0.01505 0.62107 0.0
H1170 H 0.09795 0.96601 0.62446 0.0
H1171 H 0.03445 0.9623 0.62312 0.0
H1172 H 0.97465 0.95547 0.66914 0.0
C1173 C 0.85221 0.99662 0.65385 0.0
C1174 C 0.93707 1.00168 0.63159 0.0
C1175 C 0.81596 0.99517 0.65145 0.0
C1176 C 0.08297 0.9697 0.63534 0.0
C1177 C 0.04655 0.96829 0.63454 0.0
C1178 C 0.96459 0.96861 0.65862 0.0
C1179 C 0.87547 0.99109 0.64097 0.0
C1180 C 0.9141 0.98913 0.64343 0.0
C1181 C 0.026 0.9764 0.64805 0.0
C1182 C 0.98738 0.98039 0.64654 0.0
H1183 H 0.81587 0.97814 0.61131 0.0
H1184 H 0.87813 0.98076 0.61537 0.0
H1185 H 0.91172 0.96236 0.66634 0.0
H1186 H 0.09162 0.99354 0.67449 0.0
H1187 H 0.02813 0.99017 0.67328 0.0
C1188 C 0.49748 0.74634 0.12165 0.0
C1189 C 0.49018 0.72522 0.135 0.0
C1190 C 0.49274 0.78231 0.12227 0.0
C1191 C 0.4907 0.85322 0.15266 0.0
H1192 H 0.48052 0.91101 0.11476 0.0
C1193 C 0.48335 1.00434 0.15391 0.0
C1194 C 0.50401 0.0226 0.14279 0.0
C1195 C 0.48061 0.96808 0.15329 0.0
C1196 C 0.4837 0.89518 0.12542 0.0
H1197 H 0.46996 0.72514 0.15922 0.0
H1198 H 0.45986 0.78811 0.16017 0.0
H1199 H 0.47079 0.84847 0.11282 0.0
H1200 H 0.53827 0.01706 0.12235 0.0
H1201 H 0.53284 0.95325 0.12099 0.0
H1202 H 0.50258 0.90049 0.16528 0.0
C1203 C 0.47012 0.77688 0.14923 0.0
C1204 C 0.47811 0.85919 0.12435 0.0
C1205 C 0.47504 0.7406 0.14859 0.0
C1206 C 0.52244 1.00366 0.13116 0.0
C1207 C 0.51905 0.96724 0.13031 0.0
C1208 C 0.49563 0.88932 0.15377 0.0
C1209 C 0.48048 0.79848 0.13633 0.0
C1210 C 0.4821 0.83745 0.13789 0.0
C1211 C 0.49786 0.94909 0.14131 0.0
C1212 C 0.49271 0.91067 0.14012 0.0
H1213 H 0.51011 0.73543 0.11119 0.0
H1214 H 0.50153 0.79753 0.11211 0.0
H1215 H 0.49477 0.83766 0.16333 0.0
H1216 H 0.46881 0.01824 0.16302 0.0
H1217 H 0.46399 0.95498 0.16189 0.0
C1218 C 0.43043 0.53855 0.65374 0.0
C1219 C 0.41607 0.51217 0.64411 0.0
C1220 C 0.4668 0.54343 0.65438 0.0
C1221 C 0.54986 0.52189 0.63296 0.0
H1222 H 0.59199 0.53036 0.67501 0.0
C1223 C 0.69978 0.50707 0.64232 0.0
C1224 C 0.71561 0.52818 0.65404 0.0
C1225 C 0.66325 0.50574 0.64086 0.0
C1226 C 0.58086 0.52851 0.6631 0.0
H1227 H 0.42859 0.4713 0.62714 0.0
H1228 H 0.49102 0.4802 0.62798 0.0
H1229 H 0.52891 0.53062 0.67247 0.0
H1230 H 0.70483 0.56436 0.67344 0.0
H1231 H 0.64231 0.56262 0.67071 0.0
H1232 H 0.60169 0.51994 0.62354 0.0
C1233 C 0.47467 0.49717 0.63509 0.0
C1234 C 0.54446 0.52872 0.66167 0.0
C1235 C 0.43869 0.492 0.63465 0.0
C1236 C 0.69387 0.54757 0.66429 0.0
C1237 C 0.65765 0.5464 0.6628 0.0
C1238 C 0.58627 0.52194 0.63438 0.0
C1239 C 0.48947 0.52243 0.64519 0.0
C1240 C 0.52835 0.52515 0.64659 0.0
C1241 C 0.64155 0.52556 0.65106 0.0
C1242 C 0.60247 0.52508 0.64948 0.0
H1243 H 0.41378 0.55422 0.66132 0.0
H1244 H 0.47722 0.56333 0.66224 0.0
H1245 H 0.53851 0.51942 0.62111 0.0
H1246 H 0.71556 0.49184 0.63417 0.0
H1247 H 0.65207 0.48899 0.63178 0.0
C1248 C 0.07776 0.5014 0.32799 0.0
C1249 C 0.06052 0.48504 0.34089 0.0
C1250 C 0.07225 0.49067 0.3121 0.0
C1251 C 0.03896 0.4167 0.28746 0.0
H1252 H 0.03444 0.48627 0.25379 0.0
C1253 C 0.99289 0.3836 0.22286 0.0
C1254 C 0.00896 0.40029 0.20975 0.0
C1255 C 1.00049 0.39332 0.2387 0.0
C1256 C 0.0361 0.46639 0.26297 0.0
H1257 H 0.02373 0.44428 0.34686 0.0
H1258 H 0.01404 0.42564 0.31919 0.0
H1259 H 0.04439 0.50421 0.28148 0.0
H1260 H 0.04611 0.44034 0.20327 0.0
H1261 H 0.05978 0.457 0.2309 0.0
H1262 H 0.03049 0.3789 0.26894 0.0
C1263 C 0.03225 0.44659 0.32142 0.0
C1264 C 0.0418 0.47671 0.27893 0.0
C1265 C 0.03778 0.45734 0.33735 0.0
C1266 C 0.03335 0.42671 0.213 0.0
C1267 C 0.04089 0.43654 0.22889 0.0
C1268 C 0.03324 0.40638 0.2715 0.0
C1269 C 0.04932 0.46318 0.30852 0.0
C1270 C 0.04326 0.45205 0.29145 0.0
C1271 C 0.02443 0.4201 0.242 0.0
C1272 C 0.03161 0.43106 0.259 0.0
H1273 H 0.09601 0.52231 0.33014 0.0
H1274 H 0.08646 0.50369 0.30261 0.0
H1275 H 0.04051 0.39683 0.29664 0.0
H1276 H 0.97433 0.36286 0.22092 0.0
H1277 H 0.98697 0.38022 0.24838 0.0
C1278 C 0.17823 0.049 0.72664 0.0
C1279 C 0.16143 0.05515 0.71189 0.0
C1280 C 0.16462 0.06167 0.74106 0.0
C1281 C 0.10438 0.1256 0.75927 0.0
H1282 H 0.10452 0.0602 0.79475 0.0
C1283 C 0.0351 0.15512 0.82004 0.0
C1284 C 0.04976 0.1422 0.83438 0.0
C1285 C 0.04863 0.14588 0.80498 0.0
C1286 C 0.10469 0.07912 0.78511 0.0
H1287 H 0.1177 0.08116 0.7008 0.0
H1288 H 0.09388 0.10385 0.72615 0.0
H1289 H 0.12779 0.04276 0.76884 0.0
H1290 H 0.09102 0.10948 0.8437 0.0
H1291 H 0.1151 0.09436 0.81765 0.0
H1292 H 0.08164 0.16215 0.77563 0.0
C1293 C 0.11771 0.08891 0.72645 0.0
C1294 C 0.11799 0.069 0.77015 0.0
C1295 C 0.13138 0.076 0.71191 0.0
C1296 C 0.07889 0.12021 0.83309 0.0
C1297 C 0.09253 0.11111 0.81802 0.0
C1298 C 0.09125 0.13585 0.77431 0.0
C1299 C 0.13375 0.08115 0.74128 0.0
C1300 C 0.11827 0.09211 0.75702 0.0
C1301 C 0.07745 0.12354 0.80368 0.0
C1302 C 0.09135 0.11281 0.78752 0.0
H1303 H 0.2019 0.03384 0.72709 0.0
H1304 H 0.17829 0.05594 0.75212 0.0
H1305 H 0.10441 0.1442 0.7495 0.0
H1306 H 0.01304 0.17248 0.82033 0.0
H1307 H 0.03594 0.15583 0.79432 0.0
C1308 C 0.46993 0.04657 0.33638 0.0
C1309 C 0.44317 0.02251 0.33961 0.0
C1310 C 0.47724 0.05713 0.32055 0.0
C1311 C 0.46365 0.0303 0.27779 0.0
H1312 H 0.48957 0.12555 0.26831 0.0
C1313 C 0.47812 0.08004 0.21206 0.0
C1314 C 0.5057 0.10306 0.20872 0.0
C1315 C 0.46975 0.07097 0.22797 0.0
C1316 C 0.48274 0.09871 0.27072 0.0
H1317 H 0.40234 0.99193 0.32841 0.0
H1318 H 0.41498 0.01013 0.30113 0.0
H1319 H 0.47725 0.10851 0.29596 0.0
H1320 H 0.54531 0.13527 0.21984 0.0
H1321 H 0.53127 0.11909 0.2473 0.0
H1322 H 0.46923 0.02043 0.25259 0.0
C1323 C 0.43097 0.02031 0.31076 0.0
C1324 C 0.47567 0.08891 0.28665 0.0
C1325 C 0.42368 0.0098 0.32652 0.0
C1326 C 0.52423 0.11712 0.22181 0.0
C1327 C 0.51584 0.10813 0.23767 0.0
C1328 C 0.47072 0.04009 0.26188 0.0
C1329 C 0.458 0.04396 0.30746 0.0
C1330 C 0.46597 0.05453 0.29046 0.0
C1331 C 0.48861 0.08474 0.24104 0.0
C1332 C 0.4804 0.07446 0.25806 0.0
H1333 H 0.48571 0.0568 0.34605 0.0
H1334 H 0.49849 0.07511 0.31854 0.0
H1335 H 0.45689 1.00344 0.28019 0.0
H1336 H 0.46332 0.06848 0.20238 0.0
H1337 H 0.44832 0.05323 0.23001 0.0
C1338 C 0.43612 0.38103 0.83103 0.0
C1339 C 0.46684 0.36128 0.83202 0.0
C1340 C 0.42121 0.38904 0.81607 0.0
C1341 C 0.42343 0.36549 0.77218 0.0
H1342 H 0.38581 0.45816 0.76688 0.0
C1343 C 0.358 0.41401 0.71244 0.0
C1344 C 0.36286 0.44923 0.70846 0.0
C1345 C 0.37016 0.40085 0.72722 0.0
C1346 C 0.39646 0.43223 0.76804 0.0
H1347 H 0.50476 0.33319 0.81774 0.0
H1348 H 0.47958 0.34788 0.79191 0.0
H1349 H 0.40692 0.43992 0.79302 0.0
H1350 H 0.38644 0.49747 0.71631 0.0
H1351 H 0.40822 0.47471 0.74159 0.0
H1352 H 0.41395 0.35838 0.74697 0.0
C1353 C 0.46669 0.35702 0.80267 0.0
C1354 C 0.40813 0.42151 0.7832 0.0
C1355 C 0.48151 0.34896 0.81759 0.0
C1356 C 0.38167 0.4704 0.71915 0.0
C1357 C 0.39396 0.45733 0.73375 0.0
C1358 C 0.41179 0.37627 0.75696 0.0
C1359 C 0.43653 0.37756 0.80161 0.0
C1360 C 0.42214 0.38809 0.78553 0.0
C1361 C 0.38761 0.42263 0.73827 0.0
C1362 C 0.39856 0.41002 0.75461 0.0
H1363 H 0.42402 0.39112 0.84179 0.0
H1364 H 0.39768 0.40445 0.81585 0.0
H1365 H 0.43352 0.33936 0.77346 0.0
H1366 H 0.34344 0.39715 0.70448 0.0
H1367 H 0.36472 0.37399 0.73023 0.0
C1368 C 0.93061 0.61263 0.83197 0.0
C1369 C 0.95605 0.63891 0.83309 0.0
C1370 C 0.91681 0.60282 0.817 0.0
C1371 C 0.93643 0.60533 0.77323 0.0
H1372 H 0.83849 0.58434 0.76834 0.0
C1373 C 0.87608 0.57497 0.71066 0.0
C1374 C 0.85066 0.54862 0.70993 0.0
C1375 C 0.88795 0.58765 0.72553 0.0
C1376 C 0.86601 0.58969 0.76948 0.0
H1377 H 0.98567 0.67625 0.81906 0.0
H1378 H 0.96201 0.65903 0.79322 0.0
H1379 H 0.86087 0.60219 0.79448 0.0
H1380 H 0.81703 0.51612 0.72455 0.0
H1381 H 0.83818 0.53731 0.75017 0.0
H1382 H 0.94177 0.59239 0.74833 0.0
C1383 C 0.95313 0.64551 0.80387 0.0
C1384 C 0.87886 0.59998 0.78453 0.0
C1385 C 0.96678 0.65541 0.8188 0.0
C1386 C 0.83697 0.53598 0.72451 0.0
C1387 C 0.84884 0.54856 0.73932 0.0
C1388 C 0.92363 0.59487 0.7582 0.0
C1389 C 0.92812 0.61891 0.80271 0.0
C1390 C 0.91427 0.60792 0.78664 0.0
C1391 C 0.87473 0.57441 0.74011 0.0
C1392 C 0.88822 0.58677 0.75607 0.0
H1393 H 0.92184 0.59903 0.8426 0.0
H1394 H 0.89783 0.58201 0.8166 0.0
H1395 H 0.96395 0.61072 0.7744 0.0
H1396 H 0.88744 0.58529 0.69977 0.0
H1397 H 0.90753 0.6079 0.72556 0.0
C1398 C 1.00567 0.88724 0.21844 0.0
C1399 C 0.99322 0.90616 0.20513 0.0
C1400 C 0.99863 0.89797 0.23418 0.0
C1401 C 0.97243 0.9749 0.25844 0.0
H1402 H 0.9553 0.90551 0.29131 0.0
C1403 C 0.9328 0.01209 0.32376 0.0
C1404 C 0.94638 0.99214 0.3365 0.0
C1405 C 0.93778 1.00206 0.30771 0.0
C1406 C 0.96045 0.9253 0.28236 0.0
H1407 H 0.96315 0.95141 0.19825 0.0
H1408 H 0.95045 0.96993 0.22575 0.0
H1409 H 0.96426 0.88737 0.26361 0.0
H1410 H 0.97663 0.94611 0.34201 0.0
H1411 H 0.98535 0.92874 0.31417 0.0
H1412 H 0.9687 0.01283 0.27725 0.0
C1413 C 0.9661 0.94687 0.22394 0.0
C1414 C 0.96557 0.91486 0.26639 0.0
C1415 C 0.97309 0.93604 0.20812 0.0
C1416 C 0.96529 0.96194 0.33264 0.0
C1417 C 0.97026 0.9519 0.31658 0.0
C1418 C 0.9673 0.98536 0.27444 0.0
C1419 C 0.97881 0.92799 0.23722 0.0
C1420 C 0.9719 0.93945 0.25418 0.0
C1421 C 0.95648 0.97173 0.30385 0.0
C1422 C 0.96144 0.9607 0.28668 0.0
H1423 H 0.0208 0.86384 0.21675 0.0
H1424 H 0.00928 0.88289 0.24399 0.0
H1425 H 0.97766 0.99464 0.24948 0.0
H1426 H 0.91764 0.03519 0.32613 0.0
H1427 H 0.92628 0.01778 0.29832 0.0
C1428 C 0.54547 0.87112 0.82054 0.0
C1429 C 0.56661 0.8699 0.83437 0.0
C1430 C 0.55905 0.88067 0.80557 0.0
C1431 C 0.64264 0.89042 0.78298 0.0
H1432 H 0.584 0.93945 0.75262 0.0
C1433 C 0.6951 0.9493 0.72326 0.0
C1434 C 0.67427 0.94684 0.70939 0.0
C1435 C 0.68251 0.9388 0.73831 0.0
C1436 C 0.60064 0.92539 0.76086 0.0
H1437 H 0.61906 0.87871 0.84297 0.0
H1438 H 0.64258 0.89643 0.81693 0.0
H1439 H 0.5618 0.92555 0.77924 0.0
H1440 H 0.62378 0.93082 0.7006 0.0
H1441 H 0.60165 0.91248 0.72691 0.0
H1442 H 0.6817 0.89098 0.76457 0.0
C1443 C 0.61543 0.88917 0.81766 0.0
C1444 C 0.58788 0.91733 0.77621 0.0
C1445 C 0.60181 0.87937 0.83271 0.0
C1446 C 0.6406 0.9329 0.71098 0.0
C1447 C 0.62782 0.92273 0.72611 0.0
C1448 C 0.6555 0.89877 0.76765 0.0
C1449 C 0.59427 0.8898 0.8038 0.0
C1450 C 0.60856 0.89951 0.78754 0.0
C1451 C 0.64853 0.92576 0.74003 0.0
C1452 C 0.63465 0.91626 0.75632 0.0
H1453 H 0.51815 0.8647 0.82118 0.0
H1454 H 0.54181 0.88024 0.7953 0.0
H1455 H 0.6593 0.87622 0.79114 0.0
H1456 H 0.72126 0.95955 0.7225 0.0
H1457 H 0.69919 0.94179 0.74869 0.0
C1458 C 0.47796 0.60223 0.22123 0.0
C1459 C 0.5002 0.59022 0.209 0.0
C1460 C 0.48437 0.5942 0.23742 0.0
C1461 C 0.53194 0.53185 0.26368 0.0
H1462 H 0.5178 0.60186 0.29653 0.0
C1463 C 0.57739 0.51008 0.32927 0.0
C1464 C 0.55683 0.52297 0.34194 0.0
C1465 C 0.56996 0.5185 0.31325 0.0
C1466 C 0.52147 0.58178 0.28758 0.0
H1467 H 0.54656 0.55979 0.20445 0.0
H1468 H 0.55789 0.54611 0.23257 0.0
H1469 H 0.50593 0.61584 0.26847 0.0
H1470 H 0.51205 0.55498 0.34739 0.0
H1471 H 0.4989 0.56945 0.31948 0.0
H1472 H 0.54729 0.49771 0.28272 0.0
C1473 C 0.53529 0.56162 0.22965 0.0
C1474 C 0.51468 0.58984 0.27142 0.0
C1475 C 0.52898 0.5698 0.21347 0.0
C1476 C 0.5287 0.5448 0.33804 0.0
C1477 C 0.52118 0.55316 0.32197 0.0
C1478 C 0.53862 0.52375 0.27982 0.0
C1479 C 0.51312 0.57373 0.24189 0.0
C1480 C 0.51995 0.56505 0.2592 0.0
C1481 C 0.54165 0.54003 0.30929 0.0
C1482 C 0.53369 0.54862 0.29205 0.0
H1483 H 0.45575 0.61829 0.21837 0.0
H1484 H 0.46648 0.60375 0.24643 0.0
H1485 H 0.53573 0.51182 0.25471 0.0
H1486 H 0.59969 0.49382 0.33171 0.0
H1487 H 0.58688 0.50844 0.30396 0.0
C1488 C 0.40041 0.25084 0.12841 0.0
C1489 C 0.40193 0.24193 0.14473 0.0
C1490 C 0.38383 0.28124 0.12358 0.0
C1491 C 0.33636 0.35921 0.13882 0.0
H1492 H 0.26551 0.32506 0.10973 0.0
C1493 C 0.19459 0.37401 0.15123 0.0
C1494 C 0.16993 0.37033 0.13899 0.0
C1495 C 0.22987 0.37449 0.14753 0.0
C1496 C 0.28536 0.33602 0.11745 0.0
H1497 H 0.39052 0.25863 0.16895 0.0
H1498 H 0.35954 0.31098 0.16057 0.0
H1499 H 0.32027 0.29546 0.11127 0.0
H1500 H 0.16191 0.36778 0.11328 0.0
H1501 H 0.22378 0.36912 0.10668 0.0
H1502 H 0.29991 0.39836 0.14581 0.0
C1503 C 0.37181 0.2951 0.15145 0.0
C1504 C 0.31704 0.31887 0.11834 0.0
C1505 C 0.38892 0.26489 0.15628 0.0
C1506 C 0.18075 0.36957 0.12292 0.0
C1507 C 0.21604 0.37065 0.11917 0.0
C1508 C 0.3046 0.37658 0.13785 0.0
C1509 C 0.36798 0.30287 0.13501 0.0
C1510 C 0.34172 0.32864 0.12993 0.0
C1511 C 0.24105 0.37179 0.13148 0.0
C1512 C 0.27784 0.36333 0.12809 0.0
H1513 H 0.41148 0.23387 0.11936 0.0
H1514 H 0.38179 0.28686 0.11087 0.0
H1515 H 0.35542 0.36787 0.14753 0.0
H1516 H 0.18661 0.37504 0.16371 0.0
H1517 H 0.24828 0.37476 0.15737 0.0
C1518 C 0.30522 0.31965 0.60973 0.0
C1519 C 0.29475 0.35437 0.60833 0.0
C1520 C 0.29881 0.29635 0.59725 0.0
C1521 C 0.27999 0.24873 0.57053 0.0
H1522 H 0.17968 0.25497 0.57317 0.0
C1523 C 0.21215 0.13451 0.5939 0.0
C1524 C 0.20057 0.14578 0.60907 0.0
C1525 C 0.21583 0.15813 0.58129 0.0
C1526 C 0.20758 0.25279 0.57172 0.0
H1527 H 0.27399 0.39321 0.59197 0.0
H1528 H 0.26142 0.35201 0.57042 0.0
H1529 H 0.2142 0.3077 0.57323 0.0
H1530 H 0.17949 0.18925 0.62237 0.0
H1531 H 0.18633 0.23062 0.60062 0.0
H1532 H 0.27362 0.19378 0.5714 0.0
C1533 C 0.27441 0.3428 0.58116 0.0
C1534 C 0.22752 0.28313 0.57168 0.0
C1535 C 0.28107 0.36616 0.5936 0.0
C1536 C 0.18887 0.18001 0.61087 0.0
C1537 C 0.19244 0.2036 0.59827 0.0
C1538 C 0.26007 0.2184 0.57065 0.0
C1539 C 0.28166 0.30735 0.58317 0.0
C1540 C 0.26386 0.28092 0.5732 0.0
C1541 C 0.2079 0.19336 0.58365 0.0
C1542 C 0.22404 0.22043 0.57341 0.0
H1543 H 0.31608 0.30991 0.62086 0.0
H1544 H 0.30434 0.26909 0.59933 0.0
H1545 H 0.30804 0.2465 0.57106 0.0
H1546 H 0.2201 0.10778 0.59202 0.0
H1547 H 0.22741 0.14943 0.57013 0.0
C1548 C 0.1299 0.26092 0.93328 0.0
C1549 C 0.13261 0.26256 0.91645 0.0
C1550 C 0.14304 0.28768 0.94281 0.0
C1551 C 0.19009 0.37272 0.94043 0.0
H1552 H 0.2626 0.31755 0.96011 0.0
C1553 C 0.3163 0.36521 0.9135 0.0
C1554 C 0.34581 0.35194 0.92119 0.0
C1555 C 0.28645 0.37254 0.92225 0.0
C1556 C 0.2425 0.33427 0.9553 0.0
H1557 H 0.14767 0.29478 0.89631 0.0
H1558 H 0.17204 0.34092 0.91283 0.0
H1559 H 0.2047 0.29457 0.95856 0.0
H1560 H 0.36839 0.33851 0.94423 0.0
H1561 H 0.31552 0.35049 0.95961 0.0
H1562 H 0.22925 0.41085 0.93569 0.0
C1563 C 0.15924 0.31937 0.91878 0.0
C1564 C 0.20891 0.32093 0.95438 0.0
C1565 C 0.14592 0.29267 0.90926 0.0
C1566 C 0.34552 0.34774 0.93796 0.0
C1567 C 0.31554 0.35518 0.94678 0.0
C1568 C 0.22369 0.38625 0.9415 0.0
C1569 C 0.15929 0.31647 0.93567 0.0
C1570 C 0.18384 0.33812 0.94502 0.0
C1571 C 0.28531 0.36674 0.93894 0.0
C1572 C 0.25092 0.36485 0.94691 0.0
H1573 H 0.11831 0.23851 0.93911 0.0
H1574 H 0.14243 0.28487 0.95575 0.0
H1575 H 0.17066 0.38717 0.93379 0.0
H1576 H 0.31587 0.36878 0.90059 0.0
H1577 H 0.26353 0.38048 0.91565 0.0
C1578 C 0.1736 0.34772 0.37175 0.0
C1579 C 0.15895 0.35337 0.38696 0.0
C1580 C 0.20124 0.32464 0.36996 0.0
C1581 C 0.2498 0.25547 0.39131 0.0
H1582 H 0.32658 0.28557 0.36435 0.0
C1583 C 0.37978 0.19287 0.39788 0.0
C1584 C 0.38398 0.16935 0.38514 0.0
C1585 C 0.35779 0.22131 0.39615 0.0
C1586 C 0.30524 0.27715 0.37191 0.0
H1587 H 0.16066 0.3391 0.4121 0.0
H1588 H 0.20923 0.29944 0.40915 0.0
H1589 H 0.27288 0.31987 0.3651 0.0
H1590 H 0.37287 0.15951 0.36001 0.0
H1591 H 0.33409 0.20956 0.35704 0.0
H1592 H 0.28262 0.21353 0.39852 0.0
C1593 C 0.19904 0.31193 0.39848 0.0
C1594 C 0.27445 0.29636 0.37222 0.0
C1595 C 0.17118 0.33459 0.40021 0.0
C1596 C 0.36951 0.17709 0.37006 0.0
C1597 C 0.34768 0.20576 0.36831 0.0
C1598 C 0.28063 0.23679 0.39121 0.0
C1599 C 0.21486 0.30727 0.38341 0.0
C1600 C 0.24653 0.28579 0.38204 0.0
C1601 C 0.34017 0.22664 0.38163 0.0
C1602 C 0.30855 0.24768 0.38164 0.0
H1603 H 0.1644 0.36202 0.36138 0.0
H1604 H 0.21245 0.32105 0.35815 0.0
H1605 H 0.22857 0.24618 0.3987 0.0
H1606 H 0.39057 0.18746 0.40963 0.0
H1607 H 0.35209 0.23727 0.40654 0.0
C1608 C 0.83701 0.74444 0.92493 0.0
C1609 C 0.86982 0.748 0.91787 0.0
C1610 C 0.82614 0.76785 0.93664 0.0
C1611 C 0.83619 0.85782 0.94724 0.0
H1612 H 0.75679 0.82581 0.97157 0.0
C1613 C 0.68278 0.85873 0.94492 0.0
C1614 C 0.68518 0.86174 0.92815 0.0
C1615 C 0.71179 0.86521 0.95458 0.0
C1616 C 0.77925 0.83626 0.9654 0.0
H1617 H 0.9175 0.7783 0.91786 0.0
H1618 H 0.89818 0.81968 0.93816 0.0
H1619 H 0.80616 0.78813 0.96829 0.0
H1620 H 0.71831 0.8772 0.9084 0.0
H1621 H 0.76894 0.88669 0.92473 0.0
H1622 H 0.80866 0.90542 0.94389 0.0
C1623 C 0.88089 0.79876 0.93465 0.0
C1624 C 0.80763 0.81421 0.96338 0.0
C1625 C 0.89168 0.77538 0.92284 0.0
C1626 C 0.71598 0.87414 0.9213 0.0
C1627 C 0.74499 0.8802 0.93085 0.0
C1628 C 0.80834 0.88036 0.94985 0.0
C1629 C 0.84794 0.79529 0.94169 0.0
C1630 C 0.83337 0.82291 0.95211 0.0
C1631 C 0.74395 0.87393 0.94757 0.0
C1632 C 0.77717 0.86693 0.95619 0.0
H1633 H 0.81968 0.7236 0.92135 0.0
H1634 H 0.80001 0.76501 0.9413 0.0
H1635 H 0.85671 0.8662 0.93922 0.0
H1636 H 0.65871 0.85052 0.95053 0.0
H1637 H 0.70959 0.86107 0.9674 0.0
C1638 C 0.6368 0.67431 0.36235 0.0
C1639 C 0.61299 0.6736 0.37517 0.0
C1640 C 0.65328 0.70524 0.35806 0.0
C1641 C 0.67698 0.7857 0.37907 0.0
H1642 H 0.73141 0.80128 0.34052 0.0
C1643 C 0.78102 0.89073 0.37637 0.0
C1644 C 0.81434 0.87735 0.37329 0.0
C1645 C 0.75162 0.87099 0.37309 0.0
C1646 C 0.7161 0.79724 0.35128 0.0
H1647 H 0.58391 0.70624 0.39175 0.0
H1648 H 0.61008 0.76019 0.38321 0.0
H1649 H 0.68317 0.75968 0.33996 0.0
H1650 H 0.84322 0.83344 0.364 0.0
H1651 H 0.79115 0.79836 0.35829 0.0
H1652 H 0.70987 0.82315 0.39035 0.0
C1653 C 0.61793 0.73644 0.37725 0.0
C1654 C 0.68861 0.77344 0.35102 0.0
C1655 C 0.6024 0.70534 0.38198 0.0
C1656 C 0.81777 0.84412 0.36652 0.0
C1657 C 0.78814 0.82439 0.36308 0.0
C1658 C 0.70381 0.80987 0.37921 0.0
C1659 C 0.64541 0.73637 0.36612 0.0
C1660 C 0.66945 0.76654 0.36509 0.0
C1661 C 0.75496 0.83756 0.36661 0.0
C1662 C 0.72417 0.81507 0.36548 0.0
H1663 H 0.64434 0.6507 0.3562 0.0
H1664 H 0.67399 0.70398 0.34929 0.0
H1665 H 0.66368 0.7807 0.39029 0.0
H1666 H 0.7777 0.91617 0.38177 0.0
H1667 H 0.72626 0.88149 0.37598 0.0
C1668 C 0.84056 0.84945 0.18993 0.0
C1669 C 0.84306 0.87169 0.17652 0.0
C1670 C 0.80874 0.84387 0.19751 0.0
C1671 C 0.71661 0.85001 0.18536 0.0
H1672 H 0.70658 0.78976 0.22241 0.0
C1673 C 0.60442 0.75822 0.18676 0.0
C1674 C 0.61689 0.72381 0.18625 0.0
C1675 C 0.6249 0.78483 0.19297 0.0
C1676 C 0.70882 0.80709 0.2122 0.0
H1677 H 0.81385 0.90991 0.16257 0.0
H1678 H 0.7607 0.90365 0.17708 0.0
H1679 H 0.75745 0.82752 0.22024 0.0
H1680 H 0.6593 0.68998 0.19329 0.0
H1681 H 0.69598 0.73701 0.20342 0.0
H1682 H 0.66853 0.82928 0.1772 0.0
C1683 C 0.78254 0.88784 0.18076 0.0
C1684 C 0.73812 0.82847 0.21081 0.0
C1685 C 0.8138 0.89197 0.17255 0.0
C1686 C 0.64931 0.7163 0.19318 0.0
C1687 C 0.66999 0.74311 0.19929 0.0
C1688 C 0.68713 0.82949 0.18698 0.0
C1689 C 0.77876 0.86165 0.19243 0.0
C1690 C 0.74355 0.84838 0.19679 0.0
C1691 C 0.65851 0.77777 0.19856 0.0
C1692 C 0.68397 0.80633 0.19989 0.0
H1693 H 0.86266 0.83496 0.1943 0.0
H1694 H 0.80757 0.82379 0.20659 0.0
H1695 H 0.71929 0.86438 0.17427 0.0
H1696 H 0.57971 0.76514 0.18143 0.0
H1697 H 0.6155 0.81135 0.1923 0.0
C1698 C 0.77132 0.81994 0.61563 0.0
C1699 C 0.77881 0.85266 0.62211 0.0
C1700 C 0.79065 0.80717 0.60284 0.0
C1701 C 0.87621 0.80534 0.58856 0.0
H1702 H 0.82487 0.73245 0.5671 0.0
C1703 C 0.83975 0.65792 0.59831 0.0
C1704 C 0.84233 0.66413 0.61492 0.0
C1705 C 0.85188 0.68262 0.58729 0.0
C1706 C 0.84079 0.75275 0.57233 0.0
H1707 H 0.81245 0.89795 0.62025 0.0
H1708 H 0.84751 0.87462 0.59818 0.0
H1709 H 0.80028 0.78992 0.56899 0.0
H1710 H 0.861 0.69991 0.63303 0.0
H1711 H 0.88078 0.74314 0.61425 0.0
H1712 H 0.91557 0.76743 0.59284 0.0
C1713 C 0.82611 0.85931 0.60284 0.0
C1714 C 0.82643 0.78597 0.57347 0.0
C1715 C 0.80653 0.87223 0.61568 0.0
C1716 C 0.8585 0.69458 0.6203 0.0
C1717 C 0.87052 0.71912 0.60939 0.0
C1718 C 0.89121 0.77249 0.58674 0.0
C1719 C 0.81805 0.8268 0.59615 0.0
C1720 C 0.84119 0.80985 0.58429 0.0
C1721 C 0.86663 0.71403 0.59269 0.0
C1722 C 0.86991 0.74464 0.58183 0.0
H1723 H 0.75027 0.80427 0.62038 0.0
H1724 H 0.78465 0.78127 0.59851 0.0
H1725 H 0.88939 0.82418 0.59608 0.0
H1726 H 0.82835 0.634 0.59386 0.0
H1727 H 0.84847 0.67775 0.57458 0.0
loop_
_geom_bond_atom_site_label_1
_geom_bond_atom_site_label_2
_geom_bond_distance
_geom_bond_site_symmetry_2
_ccdc_geom_bond_type
Co0 N4 2.148 . S
Co0 N10 2.128 . S
Co0 N20 2.194 . S
Co0 O25 2.351 . S
Co0 O26 2.155 1_455 S
Co0 O27 2.096 1_455 S
C1 N4 1.301 . S
C1 N5 1.328 . S
C1 H6 0.930 . S
C2 C3 1.333 . S
C2 N4 1.317 . S
C2 H7 0.930 . S
C3 C2 1.333 . S
C3 N5 1.350 . S
C3 H29 0.931 . S
N4 Co0 2.148 . S
N4 C1 1.301 . S
N4 C2 1.317 . S
N5 C1 1.328 . S
N5 C3 1.350 . S
H6 C1 0.930 . S
H7 C2 0.930 . S
C8 O9 1.224 1_655 S
C8 O27 1.247 . S
O9 C8 1.224 1_455 S
N10 Co0 2.128 . S
N10 C11 1.355 . S
N10 C13 1.311 . S
C11 N10 1.355 . S
C11 C12 1.363 . S
C11 H23 0.929 . S
C12 C11 1.363 . S
C12 N14 1.375 . S
C12 H30 0.931 . S
C13 N10 1.311 . S
C13 N14 1.347 . S
C13 H24 0.929 1_455 S
N14 C12 1.375 . S
N14 C13 1.347 . S
C15 C18 1.365 . S
C15 N20 1.328 . S
C15 H21 0.929 . S
C16 C17 1.362 . S
C16 C19 1.378 . S
C16 H31 0.929 . S
C17 C16 1.362 . S
C17 C18 1.366 . S
C18 C15 1.365 . S
C18 C17 1.366 . S
C18 H32 0.930 . S
C19 C16 1.378 . S
C19 N20 1.315 . S
C19 H22 0.930 . S
N20 Co0 2.194 . S
N20 C15 1.328 . S
N20 C19 1.315 . S
H21 C15 0.929 . S
H22 C19 0.930 . S
H23 C11 0.929 . S
H24 C13 0.929 1_655 S
O25 Co0 2.351 . S
O25 C28 1.244 . S
O26 Co0 2.155 1_655 S
O26 C28 1.240 1_655 S
O27 Co0 2.096 1_655 S
O27 C8 1.247 . S
C28 O25 1.244 . S
C28 O26 1.240 1_455 S
H29 C3 0.931 . S
H30 C12 0.931 . S
H31 C16 0.929 . S
H32 C18 0.930 . S
Co33 N37 2.148 . S
Co33 N43 2.128 . S
Co33 N53 2.194 . S
Co33 O58 2.351 . S
Co33 O59 2.155 1_545 S
Co33 O60 2.096 1_545 S
C34 N37 1.301 . S
C34 N38 1.328 . S
C34 H39 0.930 . S
C35 C36 1.333 . S
C35 N37 1.317 . S
C35 H40 0.930 . S
C36 C35 1.333 . S
C36 N38 1.350 . S
C36 H62 0.931 . S
N37 Co33 2.148 . S
N37 C34 1.301 . S
N37 C35 1.317 . S
N38 C34 1.328 . S
N38 C36 1.350 . S
H39 C34 0.930 . S
H40 C35 0.930 . S
C41 O42 1.224 1_565 S
C41 O60 1.247 . S
O42 C41 1.224 1_545 S
N43 Co33 2.128 . S
N43 C44 1.355 . S
N43 C46 1.311 . S
C44 N43 1.355 . S
C44 C45 1.363 . S
C44 H56 0.929 . S
C45 C44 1.363 . S
C45 N47 1.375 . S
C45 H63 0.931 . S
C46 N43 1.311 . S
C46 N47 1.347 . S
C46 H57 0.929 1_545 S
N47 C45 1.375 . S
N47 C46 1.347 . S
C48 C51 1.365 . S
C48 N53 1.328 . S
C48 H54 0.929 . S
C49 C50 1.362 . S
C49 C52 1.378 . S
C49 H64 0.929 . S
C50 C49 1.362 . S
C50 C51 1.366 . S
C51 C48 1.365 . S
C51 C50 1.366 . S
C51 H65 0.930 . S
C52 C49 1.378 . S
C52 N53 1.315 . S
C52 H55 0.930 . S
N53 Co33 2.194 . S
N53 C48 1.328 . S
N53 C52 1.315 . S
H54 C48 0.929 . S
H55 C52 0.930 . S
H56 C44 0.929 . S
H57 C46 0.929 1_565 S
O58 Co33 2.351 . S
O58 C61 1.244 . S
O59 Co33 2.155 1_565 S
O59 C61 1.240 1_565 S
O60 Co33 2.096 1_565 S
O60 C41 1.247 . S
C61 O58 1.244 . S
C61 O59 1.240 1_545 S
H62 C36 0.931 . S
H63 C45 0.931 . S
H64 C49 0.929 . S
H65 C51 0.930 . S
Co66 N70 2.148 . S
Co66 N76 2.128 . S
Co66 N86 2.194 . S
Co66 O91 2.351 . S
Co66 O92 2.155 . S
Co66 O93 2.096 . S
C67 N70 1.301 . S
C67 N71 1.328 . S
C67 H72 0.930 . S
C68 C69 1.333 . S
C68 N70 1.317 . S
C68 H73 0.930 . S
C69 C68 1.333 . S
C69 N71 1.350 . S
C69 H95 0.931 . S
N70 Co66 2.148 . S
N70 C67 1.301 . S
N70 C68 1.317 . S
N71 C67 1.328 . S
N71 C69 1.350 . S
H72 C67 0.930 . S
H73 C68 0.930 . S
C74 O75 1.224 . S
C74 O93 1.247 . S
O75 C74 1.224 . S
N76 Co66 2.128 . S
N76 C77 1.355 . S
N76 C79 1.311 . S
C77 N76 1.355 . S
C77 C78 1.363 . S
C77 H89 0.929 . S
C78 C77 1.363 . S
C78 N80 1.375 . S
C78 H96 0.931 . S
C79 N76 1.311 . S
C79 N80 1.347 . S
C79 H90 0.929 . S
N80 C78 1.375 . S
N80 C79 1.347 . S
C81 C84 1.365 . S
C81 N86 1.328 . S
C81 H87 0.929 . S
C82 C83 1.362 . S
C82 C85 1.378 . S
C82 H97 0.929 . S
C83 C82 1.362 . S
C83 C84 1.366 . S
C84 C81 1.365 . S
C84 C83 1.366 . S
C84 H98 0.930 . S
C85 C82 1.378 . S
C85 N86 1.315 . S
C85 H88 0.930 . S
N86 Co66 2.194 . S
N86 C81 1.328 . S
N86 C85 1.315 . S
H87 C81 0.929 . S
H88 C85 0.930 . S
H89 C77 0.929 . S
H90 C79 0.929 . S
O91 Co66 2.351 . S
O91 C94 1.244 . S
O92 Co66 2.155 . S
O92 C94 1.240 . S
O93 Co66 2.096 . S
O93 C74 1.247 . S
C94 O91 1.244 . S
C94 O92 1.240 . S
H95 C69 0.931 . S
H96 C78 0.931 . S
H97 C82 0.929 . S
H98 C84 0.930 . S
Co99 N103 2.148 . S
Co99 N109 2.128 . S
Co99 N119 2.194 . S
Co99 O124 2.351 . S
Co99 O125 2.155 . S
Co99 O126 2.096 . S
C100 N103 1.301 . S
C100 N104 1.328 . S
C100 H105 0.930 . S
C101 C102 1.333 . S
C101 N103 1.317 . S
C101 H106 0.930 . S
C102 C101 1.333 . S
C102 N104 1.350 . S
C102 H128 0.931 . S
N103 Co99 2.148 . S
N103 C100 1.301 . S
N103 C101 1.317 . S
N104 C100 1.328 . S
N104 C102 1.350 . S
H105 C100 0.930 . S
H106 C101 0.930 . S
C107 O108 1.224 . S
C107 O126 1.247 . S
O108 C107 1.224 . S
N109 Co99 2.128 . S
N109 C110 1.355 . S
N109 C112 1.311 . S
C110 N109 1.355 . S
C110 C111 1.363 . S
C110 H122 0.929 . S
C111 C110 1.363 . S
C111 N113 1.375 . S
C111 H129 0.931 . S
C112 N109 1.311 . S
C112 N113 1.347 . S
C112 H123 0.929 . S
N113 C111 1.375 . S
N113 C112 1.347 . S
C114 C117 1.365 . S
C114 N119 1.328 . S
C114 H120 0.929 . S
C115 C116 1.362 . S
C115 C118 1.378 . S
C115 H130 0.929 . S
C116 C115 1.362 . S
C116 C117 1.366 . S
C117 C114 1.365 . S
C117 C116 1.366 . S
C117 H131 0.930 . S
C118 C115 1.378 . S
C118 N119 1.315 . S
C118 H121 0.930 . S
N119 Co99 2.194 . S
N119 C114 1.328 . S
N119 C118 1.315 . S
H120 C114 0.929 . S
H121 C118 0.930 . S
H122 C110 0.929 . S
H123 C112 0.929 . S
O124 Co99 2.351 . S
O124 C127 1.244 . S
O125 Co99 2.155 . S
O125 C127 1.240 . S
O126 Co99 2.096 . S
O126 C107 1.247 . S
C127 O124 1.244 . S
C127 O125 1.240 . S
H128 C102 0.931 . S
H129 C111 0.931 . S
H130 C115 0.929 . S
H131 C117 0.930 . S
Co132 N136 2.148 . S
Co132 N142 2.128 . S
Co132 N152 2.194 . S
Co132 O157 2.351 . S
Co132 O158 2.155 1_455 S
Co132 O159 2.096 1_455 S
C133 N136 1.301 . S
C133 N137 1.328 . S
C133 H138 0.930 . S
C134 C135 1.333 . S
C134 N136 1.317 . S
C134 H139 0.930 . S
C135 C134 1.333 . S
C135 N137 1.350 . S
C135 H161 0.931 . S
N136 Co132 2.148 . S
N136 C133 1.301 . S
N136 C134 1.317 . S
N137 C133 1.328 . S
N137 C135 1.350 . S
H138 C133 0.930 . S
H139 C134 0.930 . S
C140 O141 1.224 1_655 S
C140 O159 1.247 . S
O141 C140 1.224 1_455 S
N142 Co132 2.128 . S
N142 C143 1.355 . S
N142 C145 1.311 . S
C143 N142 1.355 . S
C143 C144 1.363 . S
C143 H155 0.929 . S
C144 C143 1.363 . S
C144 N146 1.375 . S
C144 H162 0.931 . S
C145 N142 1.311 . S
C145 N146 1.347 . S
C145 H156 0.929 1_455 S
N146 C144 1.375 . S
N146 C145 1.347 . S
C147 C150 1.365 . S
C147 N152 1.328 . S
C147 H153 0.929 . S
C148 C149 1.362 . S
C148 C151 1.378 . S
C148 H163 0.929 . S
C149 C148 1.362 . S
C149 C150 1.366 . S
C150 C147 1.365 . S
C150 C149 1.366 . S
C150 H164 0.930 . S
C151 C148 1.378 . S
C151 N152 1.315 . S
C151 H154 0.930 . S
N152 Co132 2.194 . S
N152 C147 1.328 . S
N152 C151 1.315 . S
H153 C147 0.929 . S
H154 C151 0.930 . S
H155 C143 0.929 . S
H156 C145 0.929 1_655 S
O157 Co132 2.351 . S
O157 C160 1.244 . S
O158 Co132 2.155 1_655 S
O158 C160 1.240 1_655 S
O159 Co132 2.096 1_655 S
O159 C140 1.247 . S
C160 O157 1.244 . S
C160 O158 1.240 1_455 S
H161 C135 0.931 . S
H162 C144 0.931 . S
H163 C148 0.929 . S
H164 C150 0.930 . S
Co165 N169 2.148 . S
Co165 N175 2.128 . S
Co165 N185 2.194 . S
Co165 O190 2.351 . S
Co165 O191 2.155 1_545 S
Co165 O192 2.096 1_545 S
C166 N169 1.301 . S
C166 N170 1.328 . S
C166 H171 0.930 . S
C167 C168 1.333 . S
C167 N169 1.317 . S
C167 H172 0.930 . S
C168 C167 1.333 . S
C168 N170 1.350 . S
C168 H194 0.931 . S
N169 Co165 2.148 . S
N169 C166 1.301 . S
N169 C167 1.317 . S
N170 C166 1.328 . S
N170 C168 1.350 . S
H171 C166 0.930 . S
H172 C167 0.930 . S
C173 O174 1.224 1_565 S
C173 O192 1.247 . S
O174 C173 1.224 1_545 S
N175 Co165 2.128 . S
N175 C176 1.355 . S
N175 C178 1.311 . S
C176 N175 1.355 . S
C176 C177 1.363 . S
C176 H188 0.929 . S
C177 C176 1.363 . S
C177 N179 1.375 . S
C177 H195 0.931 . S
C178 N175 1.311 . S
C178 N179 1.347 . S
C178 H189 0.929 1_545 S
N179 C177 1.375 . S
N179 C178 1.347 . S
C180 C183 1.365 . S
C180 N185 1.328 . S
C180 H186 0.929 . S
C181 C182 1.362 . S
C181 C184 1.378 . S
C181 H196 0.929 . S
C182 C181 1.362 . S
C182 C183 1.366 . S
C183 C180 1.365 . S
C183 C182 1.366 . S
C183 H197 0.930 . S
C184 C181 1.378 . S
C184 N185 1.315 . S
C184 H187 0.930 . S
N185 Co165 2.194 . S
N185 C180 1.328 . S
N185 C184 1.315 . S
H186 C180 0.929 . S
H187 C184 0.930 . S
H188 C176 0.929 . S
H189 C178 0.929 1_565 S
O190 Co165 2.351 . S
O190 C193 1.244 . S
O191 Co165 2.155 1_565 S
O191 C193 1.240 1_565 S
O192 Co165 2.096 1_565 S
O192 C173 1.247 . S
C193 O190 1.244 . S
C193 O191 1.240 1_545 S
H194 C168 0.931 . S
H195 C177 0.931 . S
H196 C181 0.929 . S
H197 C183 0.930 . S
Co198 N202 2.148 . S
Co198 N208 2.128 . S
Co198 N218 2.194 . S
Co198 O223 2.351 . S
Co198 O224 2.155 . S
Co198 O225 2.096 . S
C199 N202 1.301 . S
C199 N203 1.328 . S
C199 H204 0.930 . S
C200 C201 1.333 . S
C200 N202 1.317 . S
C200 H205 0.930 . S
C201 C200 1.333 . S
C201 N203 1.350 . S
C201 H227 0.931 . S
N202 Co198 2.148 . S
N202 C199 1.301 . S
N202 C200 1.317 . S
N203 C199 1.328 . S
N203 C201 1.350 . S
H204 C199 0.930 . S
H205 C200 0.930 . S
C206 O207 1.224 . S
C206 O225 1.247 . S
O207 C206 1.224 . S
N208 Co198 2.128 . S
N208 C209 1.355 . S
N208 C211 1.311 . S
C209 N208 1.355 . S
C209 C210 1.363 . S
C209 H221 0.929 . S
C210 C209 1.363 . S
C210 N212 1.375 . S
C210 H228 0.931 . S
C211 N208 1.311 . S
C211 N212 1.347 . S
C211 H222 0.929 . S
N212 C210 1.375 . S
N212 C211 1.347 . S
C213 C216 1.365 . S
C213 N218 1.328 . S
C213 H219 0.929 . S
C214 C215 1.362 . S
C214 C217 1.378 . S
C214 H229 0.929 . S
C215 C214 1.362 . S
C215 C216 1.366 . S
C216 C213 1.365 . S
C216 C215 1.366 . S
C216 H230 0.930 . S
C217 C214 1.378 . S
C217 N218 1.315 . S
C217 H220 0.930 . S
N218 Co198 2.194 . S
N218 C213 1.328 . S
N218 C217 1.315 . S
H219 C213 0.929 . S
H220 C217 0.930 . S
H221 C209 0.929 . S
H222 C211 0.929 . S
O223 Co198 2.351 . S
O223 C226 1.244 . S
O224 Co198 2.155 . S
O224 C226 1.240 . S
O225 Co198 2.096 . S
O225 C206 1.247 . S
C226 O223 1.244 . S
C226 O224 1.240 . S
H227 C201 0.931 . S
H228 C210 0.931 . S
H229 C214 0.929 . S
H230 C216 0.930 . S
Co231 N235 2.148 . S
Co231 N241 2.128 . S
Co231 N251 2.194 . S
Co231 O256 2.351 . S
Co231 O257 2.155 . S
Co231 O258 2.096 . S
C232 N235 1.301 . S
C232 N236 1.328 . S
C232 H237 0.930 . S
C233 C234 1.333 . S
C233 N235 1.317 . S
C233 H238 0.930 . S
C234 C233 1.333 . S
C234 N236 1.350 . S
C234 H260 0.931 . S
N235 Co231 2.148 . S
N235 C232 1.301 . S
N235 C233 1.317 . S
N236 C232 1.328 . S
N236 C234 1.350 . S
H237 C232 0.930 . S
H238 C233 0.930 . S
C239 O240 1.224 . S
C239 O258 1.247 . S
O240 C239 1.224 . S
N241 Co231 2.128 . S
N241 C242 1.355 . S
N241 C244 1.311 . S
C242 N241 1.355 . S
C242 C243 1.363 . S
C242 H254 0.929 . S
C243 C242 1.363 . S
C243 N245 1.375 . S
C243 H261 0.931 . S
C244 N241 1.311 . S
C244 N245 1.347 . S
C244 H255 0.929 . S
N245 C243 1.375 . S
N245 C244 1.347 . S
C246 C249 1.365 . S
C246 N251 1.328 . S
C246 H252 0.929 . S
C247 C248 1.362 . S
C247 C250 1.378 . S
C247 H262 0.929 . S
C248 C247 1.362 . S
C248 C249 1.366 . S
C249 C246 1.365 . S
C249 C248 1.366 . S
C249 H263 0.930 . S
C250 C247 1.378 . S
C250 N251 1.315 . S
C250 H253 0.930 . S
N251 Co231 2.194 . S
N251 C246 1.328 . S
N251 C250 1.315 . S
H252 C246 0.929 . S
H253 C250 0.930 . S
H254 C242 0.929 . S
H255 C244 0.929 . S
O256 Co231 2.351 . S
O256 C259 1.244 . S
O257 Co231 2.155 . S
O257 C259 1.240 . S
O258 Co231 2.096 . S
O258 C239 1.247 . S
C259 O256 1.244 . S
C259 O257 1.240 . S
H260 C234 0.931 . S
H261 C243 0.931 . S
H262 C247 0.929 . S
H263 C249 0.930 . S
Co264 N268 2.148 . S
Co264 N274 2.128 . S
Co264 N284 2.194 . S
Co264 O289 2.351 . S
Co264 O290 2.155 1_655 S
Co264 O291 2.096 1_655 S
C265 N268 1.301 . S
C265 N269 1.328 . S
C265 H270 0.930 . S
C266 C267 1.333 . S
C266 N268 1.317 . S
C266 H271 0.930 . S
C267 C266 1.333 . S
C267 N269 1.350 . S
C267 H293 0.931 . S
N268 Co264 2.148 . S
N268 C265 1.301 . S
N268 C266 1.317 . S
N269 C265 1.328 . S
N269 C267 1.350 . S
H270 C265 0.930 . S
H271 C266 0.930 . S
C272 O273 1.224 1_455 S
C272 O291 1.247 . S
O273 C272 1.224 1_655 S
N274 Co264 2.128 . S
N274 C275 1.355 . S
N274 C277 1.311 . S
C275 N274 1.355 . S
C275 C276 1.363 . S
C275 H287 0.929 . S
C276 C275 1.363 . S
C276 N278 1.375 . S
C276 H294 0.931 . S
C277 N274 1.311 . S
C277 N278 1.347 . S
C277 H288 0.929 1_655 S
N278 C276 1.375 . S
N278 C277 1.347 . S
C279 C282 1.365 . S
C279 N284 1.328 . S
C279 H285 0.929 . S
C280 C281 1.362 . S
C280 C283 1.378 . S
C280 H295 0.929 . S
C281 C280 1.362 . S
C281 C282 1.366 . S
C282 C279 1.365 . S
C282 C281 1.366 . S
C282 H296 0.930 . S
C283 C280 1.378 . S
C283 N284 1.315 . S
C283 H286 0.930 . S
N284 Co264 2.194 . S
N284 C279 1.328 . S
N284 C283 1.315 . S
H285 C279 0.929 . S
H286 C283 0.930 . S
H287 C275 0.929 . S
H288 C277 0.929 1_455 S
O289 Co264 2.351 . S
O289 C292 1.244 . S
O290 Co264 2.155 1_455 S
O290 C292 1.240 1_455 S
O291 Co264 2.096 1_455 S
O291 C272 1.247 . S
C292 O289 1.244 . S
C292 O290 1.240 1_655 S
H293 C267 0.931 . S
H294 C276 0.931 . S
H295 C280 0.929 . S
H296 C282 0.930 . S
Co297 N301 2.148 . S
Co297 N307 2.128 . S
Co297 N317 2.194 . S
Co297 O322 2.351 . S
Co297 O323 2.155 1_565 S
Co297 O324 2.096 1_565 S
C298 N301 1.301 . S
C298 N302 1.328 . S
C298 H303 0.930 . S
C299 C300 1.333 . S
C299 N301 1.317 . S
C299 H304 0.930 . S
C300 C299 1.333 . S
C300 N302 1.350 . S
C300 H326 0.931 . S
N301 Co297 2.148 . S
N301 C298 1.301 . S
N301 C299 1.317 . S
N302 C298 1.328 . S
N302 C300 1.350 . S
H303 C298 0.930 . S
H304 C299 0.930 . S
C305 O306 1.224 1_545 S
C305 O324 1.247 . S
O306 C305 1.224 1_565 S
N307 Co297 2.128 . S
N307 C308 1.355 . S
N307 C310 1.311 . S
C308 N307 1.355 . S
C308 C309 1.363 . S
C308 H320 0.929 . S
C309 C308 1.363 . S
C309 N311 1.375 . S
C309 H327 0.931 . S
C310 N307 1.311 . S
C310 N311 1.347 . S
C310 H321 0.929 1_565 S
N311 C309 1.375 . S
N311 C310 1.347 . S
C312 C315 1.365 . S
C312 N317 1.328 . S
C312 H318 0.929 . S
C313 C314 1.362 . S
C313 C316 1.378 . S
C313 H328 0.929 . S
C314 C313 1.362 . S
C314 C315 1.366 . S
C315 C312 1.365 . S
C315 C314 1.366 . S
C315 H329 0.930 . S
C316 C313 1.378 . S
C316 N317 1.315 . S
C316 H319 0.930 . S
N317 Co297 2.194 . S
N317 C312 1.328 . S
N317 C316 1.315 . S
H318 C312 0.929 . S
H319 C316 0.930 . S
H320 C308 0.929 . S
H321 C310 0.929 1_545 S
O322 Co297 2.351 . S
O322 C325 1.244 . S
O323 Co297 2.155 1_545 S
O323 C325 1.240 1_545 S
O324 Co297 2.096 1_545 S
O324 C305 1.247 . S
C325 O322 1.244 . S
C325 O323 1.240 1_565 S
H326 C300 0.931 . S
H327 C309 0.931 . S
H328 C313 0.929 . S
H329 C315 0.930 . S
Co330 N334 2.148 . S
Co330 N340 2.128 . S
Co330 N350 2.194 . S
Co330 O355 2.351 . S
Co330 O356 2.155 . S
Co330 O357 2.096 . S
C331 N334 1.301 . S
C331 N335 1.328 . S
C331 H336 0.930 . S
C332 C333 1.333 . S
C332 N334 1.317 . S
C332 H337 0.930 . S
C333 C332 1.333 . S
C333 N335 1.350 . S
C333 H359 0.931 . S
N334 Co330 2.148 . S
N334 C331 1.301 . S
N334 C332 1.317 . S
N335 C331 1.328 . S
N335 C333 1.350 . S
H336 C331 0.930 . S
H337 C332 0.930 . S
C338 O339 1.224 . S
C338 O357 1.247 . S
O339 C338 1.224 . S
N340 Co330 2.128 . S
N340 C341 1.355 . S
N340 C343 1.311 . S
C341 N340 1.355 . S
C341 C342 1.363 . S
C341 H353 0.929 . S
C342 C341 1.363 . S
C342 N344 1.375 . S
C342 H360 0.931 . S
C343 N340 1.311 . S
C343 N344 1.347 . S
C343 H354 0.929 . S
N344 C342 1.375 . S
N344 C343 1.347 . S
C345 C348 1.365 . S
C345 N350 1.328 . S
C345 H351 0.929 . S
C346 C347 1.362 . S
C346 C349 1.378 . S
C346 H361 0.929 . S
C347 C346 1.362 . S
C347 C348 1.366 . S
C348 C345 1.365 . S
C348 C347 1.366 . S
C348 H362 0.930 . S
C349 C346 1.378 . S
C349 N350 1.315 . S
C349 H352 0.930 . S
N350 Co330 2.194 . S
N350 C345 1.328 . S
N350 C349 1.315 . S
H351 C345 0.929 . S
H352 C349 0.930 . S
H353 C341 0.929 . S
H354 C343 0.929 . S
O355 Co330 2.351 . S
O355 C358 1.244 . S
O356 Co330 2.155 . S
O356 C358 1.240 . S
O357 Co330 2.096 . S
O357 C338 1.247 . S
C358 O355 1.244 . S
C358 O356 1.240 . S
H359 C333 0.931 . S
H360 C342 0.931 . S
H361 C346 0.929 . S
H362 C348 0.930 . S
Co363 N367 2.148 . S
Co363 N373 2.128 . S
Co363 N383 2.194 . S
Co363 O388 2.351 . S
Co363 O389 2.155 . S
Co363 O390 2.096 . S
C364 N367 1.301 . S
C364 N368 1.328 . S
C364 H369 0.930 . S
C365 C366 1.333 . S
C365 N367 1.317 . S
C365 H370 0.930 . S
C366 C365 1.333 . S
C366 N368 1.350 . S
C366 H392 0.931 . S
N367 Co363 2.148 . S
N367 C364 1.301 . S
N367 C365 1.317 . S
N368 C364 1.328 . S
N368 C366 1.350 . S
H369 C364 0.930 . S
H370 C365 0.930 . S
C371 O372 1.224 . S
C371 O390 1.247 . S
O372 C371 1.224 . S
N373 Co363 2.128 . S
N373 C374 1.355 . S
N373 C376 1.311 . S
C374 N373 1.355 . S
C374 C375 1.363 . S
C374 H386 0.929 . S
C375 C374 1.363 . S
C375 N377 1.375 . S
C375 H393 0.931 . S
C376 N373 1.311 . S
C376 N377 1.347 . S
C376 H387 0.929 . S
N377 C375 1.375 . S
N377 C376 1.347 . S
C378 C381 1.365 . S
C378 N383 1.328 . S
C378 H384 0.929 . S
C379 C380 1.362 . S
C379 C382 1.378 . S
C379 H394 0.929 . S
C380 C379 1.362 . S
C380 C381 1.366 . S
C381 C378 1.365 . S
C381 C380 1.366 . S
C381 H395 0.930 . S
C382 C379 1.378 . S
C382 N383 1.315 . S
C382 H385 0.930 . S
N383 Co363 2.194 . S
N383 C378 1.328 . S
N383 C382 1.315 . S
H384 C378 0.929 . S
H385 C382 0.930 . S
H386 C374 0.929 . S
H387 C376 0.929 . S
O388 Co363 2.351 . S
O388 C391 1.244 . S
O389 Co363 2.155 . S
O389 C391 1.240 . S
O390 Co363 2.096 . S
O390 C371 1.247 . S
C391 O388 1.244 . S
C391 O389 1.240 . S
H392 C366 0.931 . S
H393 C375 0.931 . S
H394 C379 0.929 . S
H395 C381 0.930 . S
Co396 N400 2.148 . S
Co396 N406 2.128 . S
Co396 N416 2.194 . S
Co396 O421 2.351 . S
Co396 O422 2.155 1_655 S
Co396 O423 2.096 1_655 S
C397 N400 1.301 . S
C397 N401 1.328 . S
C397 H402 0.930 . S
C398 C399 1.333 . S
C398 N400 1.317 . S
C398 H403 0.930 . S
C399 C398 1.333 . S
C399 N401 1.350 . S
C399 H425 0.931 . S
N400 Co396 2.148 . S
N400 C397 1.301 . S
N400 C398 1.317 . S
N401 C397 1.328 . S
N401 C399 1.350 . S
H402 C397 0.930 . S
H403 C398 0.930 . S
C404 O405 1.224 1_455 S
C404 O423 1.247 . S
O405 C404 1.224 1_655 S
N406 Co396 2.128 . S
N406 C407 1.355 . S
N406 C409 1.311 . S
C407 N406 1.355 . S
C407 C408 1.363 . S
C407 H419 0.929 . S
C408 C407 1.363 . S
C408 N410 1.375 . S
C408 H426 0.931 . S
C409 N406 1.311 . S
C409 N410 1.347 . S
C409 H420 0.929 1_655 S
N410 C408 1.375 . S
N410 C409 1.347 . S
C411 C414 1.365 . S
C411 N416 1.328 . S
C411 H417 0.929 . S
C412 C413 1.362 . S
C412 C415 1.378 . S
C412 H427 0.929 . S
C413 C412 1.362 . S
C413 C414 1.366 . S
C414 C411 1.365 . S
C414 C413 1.366 . S
C414 H428 0.930 . S
C415 C412 1.378 . S
C415 N416 1.315 . S
C415 H418 0.930 . S
N416 Co396 2.194 . S
N416 C411 1.328 . S
N416 C415 1.315 . S
H417 C411 0.929 . S
H418 C415 0.930 . S
H419 C407 0.929 . S
H420 C409 0.929 1_455 S
O421 Co396 2.351 . S
O421 C424 1.244 . S
O422 Co396 2.155 1_455 S
O422 C424 1.240 1_455 S
O423 Co396 2.096 1_455 S
O423 C404 1.247 . S
C424 O421 1.244 . S
C424 O422 1.240 1_655 S
H425 C399 0.931 . S
H426 C408 0.931 . S
H427 C412 0.929 . S
H428 C414 0.930 . S
Co429 N433 2.148 . S
Co429 N439 2.128 . S
Co429 N449 2.194 . S
Co429 O454 2.351 . S
Co429 O455 2.155 1_565 S
Co429 O456 2.096 1_565 S
C430 N433 1.301 . S
C430 N434 1.328 . S
C430 H435 0.930 . S
C431 C432 1.333 . S
C431 N433 1.317 . S
C431 H436 0.930 . S
C432 C431 1.333 . S
C432 N434 1.350 . S
C432 H458 0.931 . S
N433 Co429 2.148 . S
N433 C430 1.301 . S
N433 C431 1.317 . S
N434 C430 1.328 . S
N434 C432 1.350 . S
H435 C430 0.930 . S
H436 C431 0.930 . S
C437 O438 1.224 1_545 S
C437 O456 1.247 . S
O438 C437 1.224 1_565 S
N439 Co429 2.128 . S
N439 C440 1.355 . S
N439 C442 1.311 . S
C440 N439 1.355 . S
C440 C441 1.363 . S
C440 H452 0.929 . S
C441 C440 1.363 . S
C441 N443 1.375 . S
C441 H459 0.931 . S
C442 N439 1.311 . S
C442 N443 1.347 . S
C442 H453 0.929 1_565 S
N443 C441 1.375 . S
N443 C442 1.347 . S
C444 C447 1.365 . S
C444 N449 1.328 . S
C444 H450 0.929 . S
C445 C446 1.362 . S
C445 C448 1.378 . S
C445 H460 0.929 . S
C446 C445 1.362 . S
C446 C447 1.366 . S
C447 C444 1.365 . S
C447 C446 1.366 . S
C447 H461 0.930 . S
C448 C445 1.378 . S
C448 N449 1.315 . S
C448 H451 0.930 . S
N449 Co429 2.194 . S
N449 C444 1.328 . S
N449 C448 1.315 . S
H450 C444 0.929 . S
H451 C448 0.930 . S
H452 C440 0.929 . S
H453 C442 0.929 1_545 S
O454 Co429 2.351 . S
O454 C457 1.244 . S
O455 Co429 2.155 1_545 S
O455 C457 1.240 1_545 S
O456 Co429 2.096 1_545 S
O456 C437 1.247 . S
C457 O454 1.244 . S
C457 O455 1.240 1_565 S
H458 C432 0.931 . S
H459 C441 0.931 . S
H460 C445 0.929 . S
H461 C447 0.930 . S
Co462 N466 2.148 . S
Co462 N472 2.128 . S
Co462 N482 2.194 . S
Co462 O487 2.351 . S
Co462 O488 2.155 . S
Co462 O489 2.096 . S
C463 N466 1.301 . S
C463 N467 1.328 . S
C463 H468 0.930 . S
C464 C465 1.333 . S
C464 N466 1.317 . S
C464 H469 0.930 . S
C465 C464 1.333 . S
C465 N467 1.350 . S
C465 H491 0.931 . S
N466 Co462 2.148 . S
N466 C463 1.301 . S
N466 C464 1.317 . S
N467 C463 1.328 . S
N467 C465 1.350 . S
H468 C463 0.930 . S
H469 C464 0.930 . S
C470 O471 1.224 . S
C470 O489 1.247 . S
O471 C470 1.224 . S
N472 Co462 2.128 . S
N472 C473 1.355 . S
N472 C475 1.311 . S
C473 N472 1.355 . S
C473 C474 1.363 . S
C473 H485 0.929 . S
C474 C473 1.363 . S
C474 N476 1.375 . S
C474 H492 0.931 . S
C475 N472 1.311 . S
C475 N476 1.347 . S
C475 H486 0.929 . S
N476 C474 1.375 . S
N476 C475 1.347 . S
C477 C480 1.365 . S
C477 N482 1.328 . S
C477 H483 0.929 . S
C478 C479 1.362 . S
C478 C481 1.378 . S
C478 H493 0.929 . S
C479 C478 1.362 . S
C479 C480 1.366 . S
C480 C477 1.365 . S
C480 C479 1.366 . S
C480 H494 0.930 . S
C481 C478 1.378 . S
C481 N482 1.315 . S
C481 H484 0.930 . S
N482 Co462 2.194 . S
N482 C477 1.328 . S
N482 C481 1.315 . S
H483 C477 0.929 . S
H484 C481 0.930 . S
H485 C473 0.929 . S
H486 C475 0.929 . S
O487 Co462 2.351 . S
O487 C490 1.244 . S
O488 Co462 2.155 . S
O488 C490 1.240 . S
O489 Co462 2.096 . S
O489 C470 1.247 . S
C490 O487 1.244 . S
C490 O488 1.240 . S
H491 C465 0.931 . S
H492 C474 0.931 . S
H493 C478 0.929 . S
H494 C480 0.930 . S
Co495 N499 2.148 . S
Co495 N505 2.128 . S
Co495 N515 2.194 . S
Co495 O520 2.351 . S
Co495 O521 2.155 . S
Co495 O522 2.096 . S
C496 N499 1.301 . S
C496 N500 1.328 . S
C496 H501 0.930 . S
C497 C498 1.333 . S
C497 N499 1.317 . S
C497 H502 0.930 . S
C498 C497 1.333 . S
C498 N500 1.350 . S
C498 H524 0.931 . S
N499 Co495 2.148 . S
N499 C496 1.301 . S
N499 C497 1.317 . S
N500 C496 1.328 . S
N500 C498 1.350 . S
H501 C496 0.930 . S
H502 C497 0.930 . S
C503 O504 1.224 . S
C503 O522 1.247 . S
O504 C503 1.224 . S
N505 Co495 2.128 . S
N505 C506 1.355 . S
N505 C508 1.311 . S
C506 N505 1.355 . S
C506 C507 1.363 . S
C506 H518 0.929 . S
C507 C506 1.363 . S
C507 N509 1.375 . S
C507 H525 0.931 . S
C508 N505 1.311 . S
C508 N509 1.347 . S
C508 H519 0.929 . S
N509 C507 1.375 . S
N509 C508 1.347 . S
C510 C513 1.365 . S
C510 N515 1.328 . S
C510 H516 0.929 . S
C511 C512 1.362 . S
C511 C514 1.378 . S
C511 H526 0.929 . S
C512 C511 1.362 . S
C512 C513 1.366 . S
C513 C510 1.365 . S
C513 C512 1.366 . S
C513 H527 0.930 . S
C514 C511 1.378 . S
C514 N515 1.315 . S
C514 H517 0.930 . S
N515 Co495 2.194 . S
N515 C510 1.328 . S
N515 C514 1.315 . S
H516 C510 0.929 . S
H517 C514 0.930 . S
H518 C506 0.929 . S
H519 C508 0.929 . S
O520 Co495 2.351 . S
O520 C523 1.244 . S
O521 Co495 2.155 . S
O521 C523 1.240 . S
O522 Co495 2.096 . S
O522 C503 1.247 . S
C523 O520 1.244 . S
C523 O521 1.240 . S
H524 C498 0.931 . S
H525 C507 0.931 . S
H526 C511 0.929 . S
H527 C513 0.930 . S
C528 C529 1.349 . S
C528 C530 1.327 . S
C528 H553 0.950 . S
C529 C528 1.349 . S
C529 C545 1.349 1_455 S
C530 C528 1.327 . S
C530 C549 1.429 . S
C530 H554 0.950 . S
C531 C548 1.574 1_556 S
C531 C550 1.368 1_655 S
C531 H555 0.949 . S
H532 C536 0.949 . S
C533 C534 1.349 1_655 S
C533 C535 1.327 . S
C533 H556 0.950 . S
C534 C533 1.349 1_455 S
C534 C546 1.349 . S
C535 C533 1.327 . S
C535 C551 1.429 1_655 S
C535 H557 0.950 . S
C536 H532 0.949 . S
C536 C544 1.574 1_554 S
C536 C552 1.368 . S
H537 C545 0.950 . S
H538 C543 0.950 . S
H539 C544 0.949 . S
H540 C546 0.950 . S
H541 C547 0.950 . S
H542 C548 0.949 . S
C543 H538 0.950 . S
C543 C545 1.327 . S
C543 C549 1.429 1_655 S
C544 C536 1.574 1_556 S
C544 H539 0.949 . S
C544 C550 1.368 . S
C545 C529 1.349 1_655 S
C545 H537 0.950 . S
C545 C543 1.327 . S
C546 C534 1.349 . S
C546 H540 0.950 . S
C546 C547 1.327 . S
C547 H541 0.950 . S
C547 C546 1.327 . S
C547 C551 1.429 . S
C548 C531 1.574 1_554 S
C548 H542 0.949 . S
C548 C552 1.368 1_655 S
C549 C530 1.429 . S
C549 C543 1.429 1_455 S
C549 C550 1.523 . S
C550 C531 1.368 1_455 S
C550 C544 1.368 . S
C550 C549 1.523 . S
C551 C535 1.429 1_455 S
C551 C547 1.429 . S
C551 C552 1.523 . S
C552 C536 1.368 . S
C552 C548 1.368 1_455 S
C552 C551 1.523 . S
H553 C528 0.950 . S
H554 C530 0.950 . S
H555 C531 0.949 . S
H556 C533 0.950 . S
H557 C535 0.950 . S
C558 C559 1.349 1_565 S
C558 C560 1.327 . S
C558 H583 0.950 . S
C559 C558 1.349 1_545 S
C559 C575 1.349 . S
C560 C558 1.327 . S
C560 C579 1.429 1_565 S
C560 H584 0.950 . S
C561 C578 1.574 . S
C561 C580 1.368 . S
C561 H585 0.949 . S
H562 C566 0.949 . S
C563 C564 1.349 . S
C563 C565 1.327 . S
C563 H586 0.950 . S
C564 C563 1.349 . S
C564 C576 1.349 1_545 S
C565 C563 1.327 . S
C565 C581 1.429 . S
C565 H587 0.950 . S
C566 H562 0.949 . S
C566 C574 1.574 . S
C566 C582 1.368 1_565 S
H567 C575 0.950 . S
H568 C573 0.950 . S
H569 C574 0.949 . S
H570 C576 0.950 . S
H571 C577 0.950 . S
H572 C578 0.949 . S
C573 H568 0.950 . S
C573 C575 1.327 . S
C573 C579 1.429 . S
C574 C566 1.574 . S
C574 H569 0.949 . S
C574 C580 1.368 1_565 S
C575 C559 1.349 . S
C575 H567 0.950 . S
C575 C573 1.327 . S
C576 C564 1.349 1_565 S
C576 H570 0.950 . S
C576 C577 1.327 . S
C577 H571 0.950 . S
C577 C576 1.327 . S
C577 C581 1.429 1_565 S
C578 C561 1.574 . S
C578 H572 0.949 . S
C578 C582 1.368 . S
C579 C560 1.429 1_545 S
C579 C573 1.429 . S
C579 C580 1.523 . S
C580 C561 1.368 . S
C580 C574 1.368 1_545 S
C580 C579 1.523 . S
C581 C565 1.429 . S
C581 C577 1.429 1_545 S
C581 C582 1.523 . S
C582 C566 1.368 1_545 S
C582 C578 1.368 . S
C582 C581 1.523 . S
H583 C558 0.950 . S
H584 C560 0.950 . S
H585 C561 0.949 . S
H586 C563 0.950 . S
H587 C565 0.950 . S
C588 C589 1.349 . S
C588 C590 1.327 . S
C588 H613 0.950 . S
C589 C588 1.349 . S
C589 C605 1.349 . S
C590 C588 1.327 . S
C590 C609 1.429 . S
C590 H614 0.950 . S
C591 C608 1.574 1_554 S
C591 C610 1.368 . S
C591 H615 0.949 . S
H592 C596 0.949 . S
C593 C594 1.349 . S
C593 C595 1.327 . S
C593 H616 0.950 . S
C594 C593 1.349 . S
C594 C606 1.349 . S
C595 C593 1.327 . S
C595 C611 1.429 . S
C595 H617 0.950 . S
C596 H592 0.949 . S
C596 C604 1.574 1_556 S
C596 C612 1.368 . S
H597 C605 0.950 . S
H598 C603 0.950 . S
H599 C604 0.949 . S
H600 C606 0.950 . S
H601 C607 0.950 . S
H602 C608 0.949 . S
C603 H598 0.950 . S
C603 C605 1.327 . S
C603 C609 1.429 . S
C604 C596 1.574 1_554 S
C604 H599 0.949 . S
C604 C610 1.368 . S
C605 C589 1.349 . S
C605 H597 0.950 . S
C605 C603 1.327 . S
C606 C594 1.349 . S
C606 H600 0.950 . S
C606 C607 1.327 . S
C607 H601 0.950 . S
C607 C606 1.327 . S
C607 C611 1.429 . S
C608 C591 1.574 1_556 S
C608 H602 0.949 . S
C608 C612 1.368 . S
C609 C590 1.429 . S
C609 C603 1.429 . S
C609 C610 1.523 . S
C610 C591 1.368 . S
C610 C604 1.368 . S
C610 C609 1.523 . S
C611 C595 1.429 . S
C611 C607 1.429 . S
C611 C612 1.523 . S
C612 C596 1.368 . S
C612 C608 1.368 . S
C612 C611 1.523 . S
H613 C588 0.950 . S
H614 C590 0.950 . S
H615 C591 0.949 . S
H616 C593 0.950 . S
H617 C595 0.950 . S
C618 C619 1.349 . S
C618 C620 1.327 . S
C618 H643 0.950 . S
C619 C618 1.349 . S
C619 C635 1.349 . S
C620 C618 1.327 . S
C620 C639 1.429 . S
C620 H644 0.950 . S
C621 C638 1.574 . S
C621 C640 1.368 . S
C621 H645 0.949 . S
H622 C626 0.949 . S
C623 C624 1.349 . S
C623 C625 1.327 . S
C623 H646 0.950 . S
C624 C623 1.349 . S
C624 C636 1.349 . S
C625 C623 1.327 . S
C625 C641 1.429 . S
C625 H647 0.950 . S
C626 H622 0.949 . S
C626 C634 1.574 . S
C626 C642 1.368 . S
H627 C635 0.950 . S
H628 C633 0.950 . S
H629 C634 0.949 . S
H630 C636 0.950 . S
H631 C637 0.950 . S
H632 C638 0.949 . S
C633 H628 0.950 . S
C633 C635 1.327 . S
C633 C639 1.429 . S
C634 C626 1.574 . S
C634 H629 0.949 . S
C634 C640 1.368 . S
C635 C619 1.349 . S
C635 H627 0.950 . S
C635 C633 1.327 . S
C636 C624 1.349 . S
C636 H630 0.950 . S
C636 C637 1.327 . S
C637 H631 0.950 . S
C637 C636 1.327 . S
C637 C641 1.429 . S
C638 C621 1.574 . S
C638 H632 0.949 . S
C638 C642 1.368 . S
C639 C620 1.429 . S
C639 C633 1.429 . S
C639 C640 1.523 . S
C640 C621 1.368 . S
C640 C634 1.368 . S
C640 C639 1.523 . S
C641 C625 1.429 . S
C641 C637 1.429 . S
C641 C642 1.523 . S
C642 C626 1.368 . S
C642 C638 1.368 . S
C642 C641 1.523 . S
H643 C618 0.950 . S
H644 C620 0.950 . S
H645 C621 0.949 . S
H646 C623 0.950 . S
H647 C625 0.950 . S
C648 C649 1.349 1_455 S
C648 C650 1.327 . S
C648 H673 0.950 . S
C649 C648 1.349 1_655 S
C649 C665 1.349 . S
C650 C648 1.327 . S
C650 C669 1.429 1_455 S
C650 H674 0.950 . S
C651 C668 1.574 1_554 S
C651 C670 1.368 . S
C651 H675 0.949 . S
H652 C656 0.949 . S
C653 C654 1.349 . S
C653 C655 1.327 . S
C653 H676 0.950 . S
C654 C653 1.349 . S
C654 C666 1.349 1_655 S
C655 C653 1.327 . S
C655 C671 1.429 . S
C655 H677 0.950 . S
C656 H652 0.949 . S
C656 C664 1.574 1_556 S
C656 C672 1.368 1_455 S
H657 C665 0.950 . S
H658 C663 0.950 . S
H659 C664 0.949 . S
H660 C666 0.950 . S
H661 C667 0.950 . S
H662 C668 0.949 . S
C663 H658 0.950 . S
C663 C665 1.327 . S
C663 C669 1.429 . S
C664 C656 1.574 1_554 S
C664 H659 0.949 . S
C664 C670 1.368 1_455 S
C665 C649 1.349 . S
C665 H657 0.950 . S
C665 C663 1.327 . S
C666 C654 1.349 1_455 S
C666 H660 0.950 . S
C666 C667 1.327 . S
C667 H661 0.950 . S
C667 C666 1.327 . S
C667 C671 1.429 1_455 S
C668 C651 1.574 1_556 S
C668 H662 0.949 . S
C668 C672 1.368 . S
C669 C650 1.429 1_655 S
C669 C663 1.429 . S
C669 C670 1.523 . S
C670 C651 1.368 . S
C670 C664 1.368 1_655 S
C670 C669 1.523 . S
C671 C655 1.429 . S
C671 C667 1.429 1_655 S
C671 C672 1.523 . S
C672 C656 1.368 1_655 S
C672 C668 1.368 . S
C672 C671 1.523 . S
H673 C648 0.950 . S
H674 C650 0.950 . S
H675 C651 0.949 . S
H676 C653 0.950 . S
H677 C655 0.950 . S
C678 C679 1.349 . S
C678 C680 1.327 . S
C678 H703 0.950 . S
C679 C678 1.349 . S
C679 C695 1.349 1_565 S
C680 C678 1.327 . S
C680 C699 1.429 . S
C680 H704 0.950 . S
C681 C698 1.574 . S
C681 C700 1.368 1_545 S
C681 H705 0.949 . S
H682 C686 0.949 . S
C683 C684 1.349 1_545 S
C683 C685 1.327 . S
C683 H706 0.950 . S
C684 C683 1.349 1_565 S
C684 C696 1.349 . S
C685 C683 1.327 . S
C685 C701 1.429 1_545 S
C685 H707 0.950 . S
C686 H682 0.949 . S
C686 C694 1.574 . S
C686 C702 1.368 . S
H687 C695 0.950 . S
H688 C693 0.950 . S
H689 C694 0.949 . S
H690 C696 0.950 . S
H691 C697 0.950 . S
H692 C698 0.949 . S
C693 H688 0.950 . S
C693 C695 1.327 . S
C693 C699 1.429 1_545 S
C694 C686 1.574 . S
C694 H689 0.949 . S
C694 C700 1.368 . S
C695 C679 1.349 1_545 S
C695 H687 0.950 . S
C695 C693 1.327 . S
C696 C684 1.349 . S
C696 H690 0.950 . S
C696 C697 1.327 . S
C697 H691 0.950 . S
C697 C696 1.327 . S
C697 C701 1.429 . S
C698 C681 1.574 . S
C698 H692 0.949 . S
C698 C702 1.368 1_545 S
C699 C680 1.429 . S
C699 C693 1.429 1_565 S
C699 C700 1.523 . S
C700 C681 1.368 1_565 S
C700 C694 1.368 . S
C700 C699 1.523 . S
C701 C685 1.429 1_565 S
C701 C697 1.429 . S
C701 C702 1.523 . S
C702 C686 1.368 . S
C702 C698 1.368 1_565 S
C702 C701 1.523 . S
H703 C678 0.950 . S
H704 C680 0.950 . S
H705 C681 0.949 . S
H706 C683 0.950 . S
H707 C685 0.950 . S
C708 C709 1.349 . S
C708 C710 1.327 . S
C708 H733 0.950 . S
C709 C708 1.349 . S
C709 C725 1.349 . S
C710 C708 1.327 . S
C710 C729 1.429 . S
C710 H734 0.950 . S
C711 C728 1.574 1_556 S
C711 C730 1.368 . S
C711 H735 0.949 . S
H712 C716 0.949 . S
C713 C714 1.349 . S
C713 C715 1.327 . S
C713 H736 0.950 . S
C714 C713 1.349 . S
C714 C726 1.349 . S
C715 C713 1.327 . S
C715 C731 1.429 . S
C715 H737 0.950 . S
C716 H712 0.949 . S
C716 C724 1.574 1_554 S
C716 C732 1.368 . S
H717 C725 0.950 . S
H718 C723 0.950 . S
H719 C724 0.949 . S
H720 C726 0.950 . S
H721 C727 0.950 . S
H722 C728 0.949 . S
C723 H718 0.950 . S
C723 C725 1.327 . S
C723 C729 1.429 . S
C724 C716 1.574 1_556 S
C724 H719 0.949 . S
C724 C730 1.368 . S
C725 C709 1.349 . S
C725 H717 0.950 . S
C725 C723 1.327 . S
C726 C714 1.349 . S
C726 H720 0.950 . S
C726 C727 1.327 . S
C727 H721 0.950 . S
C727 C726 1.327 . S
C727 C731 1.429 . S
C728 C711 1.574 1_554 S
C728 H722 0.949 . S
C728 C732 1.368 . S
C729 C710 1.429 . S
C729 C723 1.429 . S
C729 C730 1.523 . S
C730 C711 1.368 . S
C730 C724 1.368 . S
C730 C729 1.523 . S
C731 C715 1.429 . S
C731 C727 1.429 . S
C731 C732 1.523 . S
C732 C716 1.368 . S
C732 C728 1.368 . S
C732 C731 1.523 . S
H733 C708 0.950 . S
H734 C710 0.950 . S
H735 C711 0.949 . S
H736 C713 0.950 . S
H737 C715 0.950 . S
C738 C739 1.349 . S
C738 C740 1.327 . S
C738 H763 0.950 . S
C739 C738 1.349 . S
C739 C755 1.349 . S
C740 C738 1.327 . S
C740 C759 1.429 . S
C740 H764 0.950 . S
C741 C758 1.574 . S
C741 C760 1.368 . S
C741 H765 0.949 . S
H742 C746 0.949 . S
C743 C744 1.349 . S
C743 C745 1.327 . S
C743 H766 0.950 . S
C744 C743 1.349 . S
C744 C756 1.349 . S
C745 C743 1.327 . S
C745 C761 1.429 . S
C745 H767 0.950 . S
C746 H742 0.949 . S
C746 C754 1.574 . S
C746 C762 1.368 . S
H747 C755 0.950 . S
H748 C753 0.950 . S
H749 C754 0.949 . S
H750 C756 0.950 . S
H751 C757 0.950 . S
H752 C758 0.949 . S
C753 H748 0.950 . S
C753 C755 1.327 . S
C753 C759 1.429 . S
C754 C746 1.574 . S
C754 H749 0.949 . S
C754 C760 1.368 . S
C755 C739 1.349 . S
C755 H747 0.950 . S
C755 C753 1.327 . S
C756 C744 1.349 . S
C756 H750 0.950 . S
C756 C757 1.327 . S
C757 H751 0.950 . S
C757 C756 1.327 . S
C757 C761 1.429 . S
C758 C741 1.574 . S
C758 H752 0.949 . S
C758 C762 1.368 . S
C759 C740 1.429 . S
C759 C753 1.429 . S
C759 C760 1.523 . S
C760 C741 1.368 . S
C760 C754 1.368 . S
C760 C759 1.523 . S
C761 C745 1.429 . S
C761 C757 1.429 . S
C761 C762 1.523 . S
C762 C746 1.368 . S
C762 C758 1.368 . S
C762 C761 1.523 . S
H763 C738 0.950 . S
H764 C740 0.950 . S
H765 C741 0.949 . S
H766 C743 0.950 . S
H767 C745 0.950 . S
C768 C769 1.349 1_455 S
C768 C770 1.327 . S
C768 H793 0.950 . S
C769 C768 1.349 1_655 S
C769 C785 1.349 . S
C770 C768 1.327 . S
C770 C789 1.429 1_455 S
C770 H794 0.950 . S
C771 C788 1.574 . S
C771 C790 1.368 . S
C771 H795 0.949 . S
H772 C776 0.949 . S
C773 C774 1.349 . S
C773 C775 1.327 . S
C773 H796 0.950 . S
C774 C773 1.349 . S
C774 C786 1.349 1_655 S
C775 C773 1.327 . S
C775 C791 1.429 . S
C775 H797 0.950 . S
C776 H772 0.949 . S
C776 C784 1.574 . S
C776 C792 1.368 1_455 S
H777 C785 0.950 . S
H778 C783 0.950 . S
H779 C784 0.949 . S
H780 C786 0.950 . S
H781 C787 0.950 . S
H782 C788 0.949 . S
C783 H778 0.950 . S
C783 C785 1.327 . S
C783 C789 1.429 . S
C784 C776 1.574 . S
C784 H779 0.949 . S
C784 C790 1.368 1_455 S
C785 C769 1.349 . S
C785 H777 0.950 . S
C785 C783 1.327 . S
C786 C774 1.349 1_455 S
C786 H780 0.950 . S
C786 C787 1.327 . S
C787 H781 0.950 . S
C787 C786 1.327 . S
C787 C791 1.429 1_455 S
C788 C771 1.574 . S
C788 H782 0.949 . S
C788 C792 1.368 . S
C789 C770 1.429 1_655 S
C789 C783 1.429 . S
C789 C790 1.523 . S
C790 C771 1.368 . S
C790 C784 1.368 1_655 S
C790 C789 1.523 . S
C791 C775 1.429 . S
C791 C787 1.429 1_655 S
C791 C792 1.523 1_565 S
C792 C776 1.368 1_655 S
C792 C788 1.368 . S
C792 C791 1.523 1_545 S
H793 C768 0.950 . S
H794 C770 0.950 . S
H795 C771 0.949 . S
H796 C773 0.950 . S
H797 C775 0.950 . S
C798 C799 1.349 . S
C798 C800 1.327 . S
C798 H823 0.950 . S
C799 C798 1.349 . S
C799 C815 1.349 1_565 S
C800 C798 1.327 . S
C800 C819 1.429 . S
C800 H824 0.950 . S
C801 C818 1.574 . S
C801 C820 1.368 1_545 S
C801 H825 0.949 . S
H802 C806 0.949 . S
C803 C804 1.349 1_545 S
C803 C805 1.327 . S
C803 H826 0.950 . S
C804 C803 1.349 1_565 S
C804 C816 1.349 . S
C805 C803 1.327 . S
C805 C821 1.429 1_545 S
C805 H827 0.950 . S
C806 H802 0.949 . S
C806 C814 1.574 . S
C806 C822 1.368 . S
H807 C815 0.950 . S
H808 C813 0.950 . S
H809 C814 0.949 . S
H810 C816 0.950 . S
H811 C817 0.950 . S
H812 C818 0.949 . S
C813 H808 0.950 . S
C813 C815 1.327 . S
C813 C819 1.429 1_545 S
C814 C806 1.574 . S
C814 H809 0.949 . S
C814 C820 1.368 . S
C815 C799 1.349 1_545 S
C815 H807 0.950 . S
C815 C813 1.327 . S
C816 C804 1.349 . S
C816 H810 0.950 . S
C816 C817 1.327 . S
C817 H811 0.950 . S
C817 C816 1.327 . S
C817 C821 1.429 . S
C818 C801 1.574 . S
C818 H812 0.949 . S
C818 C822 1.368 1_545 S
C819 C800 1.429 . S
C819 C813 1.429 1_565 S
C819 C820 1.523 . S
C820 C801 1.368 1_565 S
C820 C814 1.368 . S
C820 C819 1.523 . S
C821 C805 1.429 1_565 S
C821 C817 1.429 . S
C821 C822 1.523 . S
C822 C806 1.368 . S
C822 C818 1.368 1_565 S
C822 C821 1.523 . S
H823 C798 0.950 . S
H824 C800 0.950 . S
H825 C801 0.949 . S
H826 C803 0.950 . S
H827 C805 0.950 . S
C828 C829 1.349 . S
C828 C830 1.327 . S
C828 H853 0.950 . S
C829 C828 1.349 . S
C829 C845 1.349 . S
C830 C828 1.327 . S
C830 C849 1.429 . S
C830 H854 0.950 . S
C831 C848 1.574 . S
C831 C850 1.368 . S
C831 H855 0.949 . S
H832 C836 0.949 . S
C833 C834 1.349 . S
C833 C835 1.327 . S
C833 H856 0.950 . S
C834 C833 1.349 . S
C834 C846 1.349 . S
C835 C833 1.327 . S
C835 C851 1.429 . S
C835 H857 0.950 . S
C836 H832 0.949 . S
C836 C844 1.574 . S
C836 C852 1.368 . S
H837 C845 0.950 . S
H838 C843 0.950 . S
H839 C844 0.949 . S
H840 C846 0.950 . S
H841 C847 0.950 . S
H842 C848 0.949 . S
C843 H838 0.950 . S
C843 C845 1.327 . S
C843 C849 1.429 . S
C844 C836 1.574 . S
C844 H839 0.949 . S
C844 C850 1.368 . S
C845 C829 1.349 . S
C845 H837 0.950 . S
C845 C843 1.327 . S
C846 C834 1.349 . S
C846 H840 0.950 . S
C846 C847 1.327 . S
C847 H841 0.950 . S
C847 C846 1.327 . S
C847 C851 1.429 . S
C848 C831 1.574 . S
C848 H842 0.949 . S
C848 C852 1.368 . S
C849 C830 1.429 . S
C849 C843 1.429 . S
C849 C850 1.523 . S
C850 C831 1.368 . S
C850 C844 1.368 . S
C850 C849 1.523 . S
C851 C835 1.429 . S
C851 C847 1.429 . S
C851 C852 1.523 . S
C852 C836 1.368 . S
C852 C848 1.368 . S
C852 C851 1.523 . S
H853 C828 0.950 . S
H854 C830 0.950 . S
H855 C831 0.949 . S
H856 C833 0.950 . S
H857 C835 0.950 . S
C858 C859 1.349 . S
C858 C860 1.327 . S
C858 H883 0.950 . S
C859 C858 1.349 . S
C859 C875 1.349 . S
C860 C858 1.327 . S
C860 C879 1.429 . S
C860 H884 0.950 . S
C861 C878 1.574 . S
C861 C880 1.368 . S
C861 H885 0.949 . S
H862 C866 0.949 . S
C863 C864 1.349 . S
C863 C865 1.327 . S
C863 H886 0.950 . S
C864 C863 1.349 . S
C864 C876 1.349 . S
C865 C863 1.327 . S
C865 C881 1.429 . S
C865 H887 0.950 . S
C866 H862 0.949 . S
C866 C874 1.574 . S
C866 C882 1.368 . S
H867 C875 0.950 . S
H868 C873 0.950 . S
H869 C874 0.949 . S
H870 C876 0.950 . S
H871 C877 0.950 . S
H872 C878 0.949 . S
C873 H868 0.950 . S
C873 C875 1.327 . S
C873 C879 1.429 . S
C874 C866 1.574 . S
C874 H869 0.949 . S
C874 C880 1.368 . S
C875 C859 1.349 . S
C875 H867 0.950 . S
C875 C873 1.327 . S
C876 C864 1.349 . S
C876 H870 0.950 . S
C876 C877 1.327 . S
C877 H871 0.950 . S
C877 C876 1.327 . S
C877 C881 1.429 . S
C878 C861 1.574 . S
C878 H872 0.949 . S
C878 C882 1.368 . S
C879 C860 1.429 . S
C879 C873 1.429 . S
C879 C880 1.523 . S
C880 C861 1.368 . S
C880 C874 1.368 . S
C880 C879 1.523 . S
C881 C865 1.429 . S
C881 C877 1.429 . S
C881 C882 1.523 1_655 S
C882 C866 1.368 . S
C882 C878 1.368 . S
C882 C881 1.523 1_455 S
H883 C858 0.950 . S
H884 C860 0.950 . S
H885 C861 0.949 . S
H886 C863 0.950 . S
H887 C865 0.950 . S
C888 C889 1.349 . S
C888 C890 1.327 . S
C888 H913 0.950 . S
C889 C888 1.349 . S
C889 C905 1.349 1_655 S
C890 C888 1.327 . S
C890 C909 1.429 . S
C890 H914 0.950 . S
C891 C908 1.574 . S
C891 C910 1.368 1_455 S
C891 H915 0.949 . S
H892 C896 0.949 . S
C893 C894 1.349 1_455 S
C893 C895 1.327 . S
C893 H916 0.950 . S
C894 C893 1.349 1_655 S
C894 C906 1.349 . S
C895 C893 1.327 . S
C895 C911 1.429 1_455 S
C895 H917 0.950 . S
C896 H892 0.949 . S
C896 C904 1.574 . S
C896 C912 1.368 . S
H897 C905 0.950 . S
H898 C903 0.950 . S
H899 C904 0.949 . S
H900 C906 0.950 . S
H901 C907 0.950 . S
H902 C908 0.949 . S
C903 H898 0.950 . S
C903 C905 1.327 . S
C903 C909 1.429 1_455 S
C904 C896 1.574 . S
C904 H899 0.949 . S
C904 C910 1.368 . S
C905 C889 1.349 1_455 S
C905 H897 0.950 . S
C905 C903 1.327 . S
C906 C894 1.349 . S
C906 H900 0.950 . S
C906 C907 1.327 . S
C907 H901 0.950 . S
C907 C906 1.327 . S
C907 C911 1.429 . S
C908 C891 1.574 . S
C908 H902 0.949 . S
C908 C912 1.368 1_455 S
C909 C890 1.429 . S
C909 C903 1.429 1_655 S
C909 C910 1.523 . S
C910 C891 1.368 1_655 S
C910 C904 1.368 . S
C910 C909 1.523 . S
C911 C895 1.429 1_655 S
C911 C907 1.429 . S
C911 C912 1.523 . S
C912 C896 1.368 . S
C912 C908 1.368 1_655 S
C912 C911 1.523 . S
H913 C888 0.950 . S
H914 C890 0.950 . S
H915 C891 0.949 . S
H916 C893 0.950 . S
H917 C895 0.950 . S
C918 C919 1.349 . S
C918 C920 1.327 . S
C918 H943 0.950 . S
C919 C918 1.349 . S
C919 C935 1.349 1_565 S
C920 C918 1.327 . S
C920 C939 1.429 . S
C920 H944 0.950 . S
C921 C938 1.574 . S
C921 C940 1.368 1_545 S
C921 H945 0.949 . S
H922 C926 0.949 . S
C923 C924 1.349 1_545 S
C923 C925 1.327 . S
C923 H946 0.950 . S
C924 C923 1.349 1_565 S
C924 C936 1.349 . S
C925 C923 1.327 . S
C925 C941 1.429 1_545 S
C925 H947 0.950 . S
C926 H922 0.949 . S
C926 C934 1.574 . S
C926 C942 1.368 . S
H927 C935 0.950 . S
H928 C933 0.950 . S
H929 C934 0.949 . S
H930 C936 0.950 . S
H931 C937 0.950 . S
H932 C938 0.949 . S
C933 H928 0.950 . S
C933 C935 1.327 . S
C933 C939 1.429 1_545 S
C934 C926 1.574 . S
C934 H929 0.949 . S
C934 C940 1.368 . S
C935 C919 1.349 1_545 S
C935 H927 0.950 . S
C935 C933 1.327 . S
C936 C924 1.349 . S
C936 H930 0.950 . S
C936 C937 1.327 . S
C937 H931 0.950 . S
C937 C936 1.327 . S
C937 C941 1.429 . S
C938 C921 1.574 . S
C938 H932 0.949 . S
C938 C942 1.368 1_545 S
C939 C920 1.429 . S
C939 C933 1.429 1_565 S
C939 C940 1.523 1_655 S
C940 C921 1.368 1_565 S
C940 C934 1.368 . S
C940 C939 1.523 1_455 S
C941 C925 1.429 1_565 S
C941 C937 1.429 . S
C941 C942 1.523 . S
C942 C926 1.368 . S
C942 C938 1.368 1_565 S
C942 C941 1.523 . S
H943 C918 0.950 . S
H944 C920 0.950 . S
H945 C921 0.949 . S
H946 C923 0.950 . S
H947 C925 0.950 . S
C948 C949 1.349 . S
C948 C950 1.327 . S
C948 H973 0.950 . S
C949 C948 1.349 . S
C949 C965 1.349 . S
C950 C948 1.327 . S
C950 C969 1.429 . S
C950 H974 0.950 . S
C951 C968 1.574 . S
C951 C970 1.368 . S
C951 H975 0.949 . S
H952 C956 0.949 . S
C953 C954 1.349 . S
C953 C955 1.327 . S
C953 H976 0.950 . S
C954 C953 1.349 . S
C954 C966 1.349 . S
C955 C953 1.327 . S
C955 C971 1.429 . S
C955 H977 0.950 . S
C956 H952 0.949 . S
C956 C964 1.574 . S
C956 C972 1.368 . S
H957 C965 0.950 . S
H958 C963 0.950 . S
H959 C964 0.949 . S
H960 C966 0.950 . S
H961 C967 0.950 . S
H962 C968 0.949 . S
C963 H958 0.950 . S
C963 C965 1.327 . S
C963 C969 1.429 . S
C964 C956 1.574 . S
C964 H959 0.949 . S
C964 C970 1.368 . S
C965 C949 1.349 . S
C965 H957 0.950 . S
C965 C963 1.327 . S
C966 C954 1.349 . S
C966 H960 0.950 . S
C966 C967 1.327 . S
C967 H961 0.950 . S
C967 C966 1.327 . S
C967 C971 1.429 . S
C968 C951 1.574 . S
C968 H962 0.949 . S
C968 C972 1.368 . S
C969 C950 1.429 . S
C969 C963 1.429 . S
C969 C970 1.523 . S
C970 C951 1.368 . S
C970 C964 1.368 . S
C970 C969 1.523 . S
C971 C955 1.429 . S
C971 C967 1.429 . S
C971 C972 1.523 1_565 S
C972 C956 1.368 . S
C972 C968 1.368 . S
C972 C971 1.523 1_545 S
H973 C948 0.950 . S
H974 C950 0.950 . S
H975 C951 0.949 . S
H976 C953 0.950 . S
H977 C955 0.950 . S
C978 C979 1.349 . S
C978 C980 1.327 . S
C978 H1003 0.950 . S
C979 C978 1.349 . S
C979 C995 1.349 . S
C980 C978 1.327 . S
C980 C999 1.429 . S
C980 H1004 0.950 . S
C981 C998 1.574 . S
C981 C1000 1.368 . S
C981 H1005 0.949 . S
H982 C986 0.949 . S
C983 C984 1.349 . S
C983 C985 1.327 . S
C983 H1006 0.950 . S
C984 C983 1.349 . S
C984 C996 1.349 . S
C985 C983 1.327 . S
C985 C1001 1.429 . S
C985 H1007 0.950 . S
C986 H982 0.949 . S
C986 C994 1.574 . S
C986 C1002 1.368 . S
H987 C995 0.950 . S
H988 C993 0.950 . S
H989 C994 0.949 . S
H990 C996 0.950 . S
H991 C997 0.950 . S
H992 C998 0.949 . S
C993 H988 0.950 . S
C993 C995 1.327 . S
C993 C999 1.429 . S
C994 C986 1.574 . S
C994 H989 0.949 . S
C994 C1000 1.368 . S
C995 C979 1.349 . S
C995 H987 0.950 . S
C995 C993 1.327 . S
C996 C984 1.349 . S
C996 H990 0.950 . S
C996 C997 1.327 . S
C997 H991 0.950 . S
C997 C996 1.327 . S
C997 C1001 1.429 . S
C998 C981 1.574 . S
C998 H992 0.949 . S
C998 C1002 1.368 . S
C999 C980 1.429 . S
C999 C993 1.429 . S
C999 C1000 1.523 . S
C1000 C981 1.368 . S
C1000 C994 1.368 . S
C1000 C999 1.523 . S
C1001 C985 1.429 . S
C1001 C997 1.429 . S
C1001 C1002 1.523 . S
C1002 C986 1.368 . S
C1002 C998 1.368 . S
C1002 C1001 1.523 . S
H1003 C978 0.950 . S
H1004 C980 0.950 . S
H1005 C981 0.949 . S
H1006 C983 0.950 . S
H1007 C985 0.950 . S
C1008 C1009 1.349 . S
C1008 C1010 1.327 . S
C1008 H1033 0.950 . S
C1009 C1008 1.349 . S
C1009 C1025 1.349 1_455 S
C1010 C1008 1.327 . S
C1010 C1029 1.429 . S
C1010 H1034 0.950 . S
C1011 C1028 1.574 . S
C1011 C1030 1.368 1_655 S
C1011 H1035 0.949 . S
H1012 C1016 0.949 . S
C1013 C1014 1.349 1_655 S
C1013 C1015 1.327 . S
C1013 H1036 0.950 . S
C1014 C1013 1.349 1_455 S
C1014 C1026 1.349 . S
C1015 C1013 1.327 . S
C1015 C1031 1.429 1_655 S
C1015 H1037 0.950 . S
C1016 H1012 0.949 . S
C1016 C1024 1.574 . S
C1016 C1032 1.368 . S
H1017 C1025 0.950 . S
H1018 C1023 0.950 . S
H1019 C1024 0.949 . S
H1020 C1026 0.950 . S
H1021 C1027 0.950 . S
H1022 C1028 0.949 . S
C1023 H1018 0.950 . S
C1023 C1025 1.327 . S
C1023 C1029 1.429 1_655 S
C1024 C1016 1.574 . S
C1024 H1019 0.949 . S
C1024 C1030 1.368 . S
C1025 C1009 1.349 1_655 S
C1025 H1017 0.950 . S
C1025 C1023 1.327 . S
C1026 C1014 1.349 . S
C1026 H1020 0.950 . S
C1026 C1027 1.327 . S
C1027 H1021 0.950 . S
C1027 C1026 1.327 . S
C1027 C1031 1.429 . S
C1028 C1011 1.574 . S
C1028 H1022 0.949 . S
C1028 C1032 1.368 1_655 S
C1029 C1010 1.429 . S
C1029 C1023 1.429 1_455 S
C1029 C1030 1.523 . S
C1030 C1011 1.368 1_455 S
C1030 C1024 1.368 . S
C1030 C1029 1.523 . S
C1031 C1015 1.429 1_455 S
C1031 C1027 1.429 . S
C1031 C1032 1.523 1_545 S
C1032 C1016 1.368 . S
C1032 C1028 1.368 1_455 S
C1032 C1031 1.523 1_565 S
H1033 C1008 0.950 . S
H1034 C1010 0.950 . S
H1035 C1011 0.949 . S
H1036 C1013 0.950 . S
H1037 C1015 0.950 . S
C1038 C1039 1.349 . S
C1038 C1040 1.327 . S
C1038 H1063 0.950 . S
C1039 C1038 1.349 . S
C1039 C1055 1.349 1_545 S
C1040 C1038 1.327 . S
C1040 C1059 1.429 . S
C1040 H1064 0.950 . S
C1041 C1058 1.574 . S
C1041 C1060 1.368 1_565 S
C1041 H1065 0.949 . S
H1042 C1046 0.949 . S
C1043 C1044 1.349 1_565 S
C1043 C1045 1.327 . S
C1043 H1066 0.950 . S
C1044 C1043 1.349 1_545 S
C1044 C1056 1.349 . S
C1045 C1043 1.327 . S
C1045 C1061 1.429 1_565 S
C1045 H1067 0.950 . S
C1046 H1042 0.949 . S
C1046 C1054 1.574 . S
C1046 C1062 1.368 . S
H1047 C1055 0.950 . S
H1048 C1053 0.950 . S
H1049 C1054 0.949 . S
H1050 C1056 0.950 . S
H1051 C1057 0.950 . S
H1052 C1058 0.949 . S
C1053 H1048 0.950 . S
C1053 C1055 1.327 . S
C1053 C1059 1.429 1_565 S
C1054 C1046 1.574 . S
C1054 H1049 0.949 . S
C1054 C1060 1.368 . S
C1055 C1039 1.349 1_565 S
C1055 H1047 0.950 . S
C1055 C1053 1.327 . S
C1056 C1044 1.349 . S
C1056 H1050 0.950 . S
C1056 C1057 1.327 . S
C1057 H1051 0.950 . S
C1057 C1056 1.327 . S
C1057 C1061 1.429 . S
C1058 C1041 1.574 . S
C1058 H1052 0.949 . S
C1058 C1062 1.368 1_565 S
C1059 C1040 1.429 . S
C1059 C1053 1.429 1_545 S
C1059 C1060 1.523 . S
C1060 C1041 1.368 1_545 S
C1060 C1054 1.368 . S
C1060 C1059 1.523 . S
C1061 C1045 1.429 1_545 S
C1061 C1057 1.429 . S
C1061 C1062 1.523 . S
C1062 C1046 1.368 . S
C1062 C1058 1.368 1_545 S
C1062 C1061 1.523 . S
H1063 C1038 0.950 . S
H1064 C1040 0.950 . S
H1065 C1041 0.949 . S
H1066 C1043 0.950 . S
H1067 C1045 0.950 . S
C1068 C1069 1.349 . S
C1068 C1070 1.327 . S
C1068 H1093 0.950 . S
C1069 C1068 1.349 . S
C1069 C1085 1.349 . S
C1070 C1068 1.327 . S
C1070 C1089 1.429 . S
C1070 H1094 0.950 . S
C1071 C1088 1.574 . S
C1071 C1090 1.368 . S
C1071 H1095 0.949 . S
H1072 C1076 0.949 . S
C1073 C1074 1.349 . S
C1073 C1075 1.327 . S
C1073 H1096 0.950 . S
C1074 C1073 1.349 . S
C1074 C1086 1.349 . S
C1075 C1073 1.327 . S
C1075 C1091 1.429 . S
C1075 H1097 0.950 . S
C1076 H1072 0.949 . S
C1076 C1084 1.574 . S
C1076 C1092 1.368 . S
H1077 C1085 0.950 . S
H1078 C1083 0.950 . S
H1079 C1084 0.949 . S
H1080 C1086 0.950 . S
H1081 C1087 0.950 . S
H1082 C1088 0.949 . S
C1083 H1078 0.950 . S
C1083 C1085 1.327 . S
C1083 C1089 1.429 . S
C1084 C1076 1.574 . S
C1084 H1079 0.949 . S
C1084 C1090 1.368 . S
C1085 C1069 1.349 . S
C1085 H1077 0.950 . S
C1085 C1083 1.327 . S
C1086 C1074 1.349 . S
C1086 H1080 0.950 . S
C1086 C1087 1.327 . S
C1087 H1081 0.950 . S
C1087 C1086 1.327 . S
C1087 C1091 1.429 . S
C1088 C1071 1.574 . S
C1088 H1082 0.949 . S
C1088 C1092 1.368 . S
C1089 C1070 1.429 . S
C1089 C1083 1.429 . S
C1089 C1090 1.523 . S
C1090 C1071 1.368 . S
C1090 C1084 1.368 . S
C1090 C1089 1.523 . S
C1091 C1075 1.429 . S
C1091 C1087 1.429 . S
C1091 C1092 1.523 . S
C1092 C1076 1.368 . S
C1092 C1088 1.368 . S
C1092 C1091 1.523 . S
H1093 C1068 0.950 . S
H1094 C1070 0.950 . S
H1095 C1071 0.949 . S
H1096 C1073 0.950 . S
H1097 C1075 0.950 . S
C1098 C1099 1.349 . S
C1098 C1100 1.327 . S
C1098 H1123 0.950 . S
C1099 C1098 1.349 . S
C1099 C1115 1.349 . S
C1100 C1098 1.327 . S
C1100 C1119 1.429 . S
C1100 H1124 0.950 . S
C1101 C1118 1.574 . S
C1101 C1120 1.368 . S
C1101 H1125 0.949 . S
H1102 C1106 0.949 . S
C1103 C1104 1.349 . S
C1103 C1105 1.327 . S
C1103 H1126 0.950 . S
C1104 C1103 1.349 . S
C1104 C1116 1.349 . S
C1105 C1103 1.327 . S
C1105 C1121 1.429 . S
C1105 H1127 0.950 . S
C1106 H1102 0.949 . S
C1106 C1114 1.574 . S
C1106 C1122 1.368 . S
H1107 C1115 0.950 . S
H1108 C1113 0.950 . S
H1109 C1114 0.949 . S
H1110 C1116 0.950 . S
H1111 C1117 0.950 . S
H1112 C1118 0.949 . S
C1113 H1108 0.950 . S
C1113 C1115 1.327 . S
C1113 C1119 1.429 . S
C1114 C1106 1.574 . S
C1114 H1109 0.949 . S
C1114 C1120 1.368 . S
C1115 C1099 1.349 . S
C1115 H1107 0.950 . S
C1115 C1113 1.327 . S
C1116 C1104 1.349 . S
C1116 H1110 0.950 . S
C1116 C1117 1.327 . S
C1117 H1111 0.950 . S
C1117 C1116 1.327 . S
C1117 C1121 1.429 . S
C1118 C1101 1.574 . S
C1118 H1112 0.949 . S
C1118 C1122 1.368 . S
C1119 C1100 1.429 . S
C1119 C1113 1.429 . S
C1119 C1120 1.523 . S
C1120 C1101 1.368 . S
C1120 C1114 1.368 . S
C1120 C1119 1.523 . S
C1121 C1105 1.429 . S
C1121 C1117 1.429 . S
C1121 C1122 1.523 1_455 S
C1122 C1106 1.368 . S
C1122 C1118 1.368 . S
C1122 C1121 1.523 1_655 S
H1123 C1098 0.950 . S
H1124 C1100 0.950 . S
H1125 C1101 0.949 . S
H1126 C1103 0.950 . S
H1127 C1105 0.950 . S
C1128 C1129 1.349 1_655 S
C1128 C1130 1.327 . S
C1128 H1153 0.950 . S
C1129 C1128 1.349 1_455 S
C1129 C1145 1.349 . S
C1130 C1128 1.327 . S
C1130 C1149 1.429 1_655 S
C1130 H1154 0.950 . S
C1131 C1148 1.574 . S
C1131 C1150 1.368 . S
C1131 H1155 0.949 . S
H1132 C1136 0.949 . S
C1133 C1134 1.349 . S
C1133 C1135 1.327 . S
C1133 H1156 0.950 . S
C1134 C1133 1.349 . S
C1134 C1146 1.349 1_455 S
C1135 C1133 1.327 . S
C1135 C1151 1.429 . S
C1135 H1157 0.950 . S
C1136 H1132 0.949 . S
C1136 C1144 1.574 . S
C1136 C1152 1.368 1_655 S
H1137 C1145 0.950 . S
H1138 C1143 0.950 . S
H1139 C1144 0.949 . S
H1140 C1146 0.950 . S
H1141 C1147 0.950 . S
H1142 C1148 0.949 . S
C1143 H1138 0.950 . S
C1143 C1145 1.327 . S
C1143 C1149 1.429 . S
C1144 C1136 1.574 . S
C1144 H1139 0.949 . S
C1144 C1150 1.368 1_655 S
C1145 C1129 1.349 . S
C1145 H1137 0.950 . S
C1145 C1143 1.327 . S
C1146 C1134 1.349 1_655 S
C1146 H1140 0.950 . S
C1146 C1147 1.327 . S
C1147 H1141 0.950 . S
C1147 C1146 1.327 . S
C1147 C1151 1.429 1_655 S
C1148 C1131 1.574 . S
C1148 H1142 0.949 . S
C1148 C1152 1.368 . S
C1149 C1130 1.429 1_455 S
C1149 C1143 1.429 . S
C1149 C1150 1.523 . S
C1150 C1131 1.368 . S
C1150 C1144 1.368 1_455 S
C1150 C1149 1.523 . S
C1151 C1135 1.429 . S
C1151 C1147 1.429 1_455 S
C1151 C1152 1.523 . S
C1152 C1136 1.368 1_455 S
C1152 C1148 1.368 . S
C1152 C1151 1.523 . S
H1153 C1128 0.950 . S
H1154 C1130 0.950 . S
H1155 C1131 0.949 . S
H1156 C1133 0.950 . S
H1157 C1135 0.950 . S
C1158 C1159 1.349 . S
C1158 C1160 1.327 . S
C1158 H1183 0.950 . S
C1159 C1158 1.349 . S
C1159 C1175 1.349 1_545 S
C1160 C1158 1.327 . S
C1160 C1179 1.429 . S
C1160 H1184 0.950 . S
C1161 C1178 1.574 . S
C1161 C1180 1.368 1_565 S
C1161 H1185 0.949 . S
H1162 C1166 0.949 . S
C1163 C1164 1.349 1_565 S
C1163 C1165 1.327 . S
C1163 H1186 0.950 . S
C1164 C1163 1.349 1_545 S
C1164 C1176 1.349 . S
C1165 C1163 1.327 . S
C1165 C1181 1.429 1_565 S
C1165 H1187 0.950 . S
C1166 H1162 0.949 . S
C1166 C1174 1.574 . S
C1166 C1182 1.368 . S
H1167 C1175 0.950 . S
H1168 C1173 0.950 . S
H1169 C1174 0.949 . S
H1170 C1176 0.950 . S
H1171 C1177 0.950 . S
H1172 C1178 0.949 . S
C1173 H1168 0.950 . S
C1173 C1175 1.327 . S
C1173 C1179 1.429 1_565 S
C1174 C1166 1.574 . S
C1174 H1169 0.949 . S
C1174 C1180 1.368 . S
C1175 C1159 1.349 1_565 S
C1175 H1167 0.950 . S
C1175 C1173 1.327 . S
C1176 C1164 1.349 . S
C1176 H1170 0.950 . S
C1176 C1177 1.327 . S
C1177 H1171 0.950 . S
C1177 C1176 1.327 . S
C1177 C1181 1.429 . S
C1178 C1161 1.574 . S
C1178 H1172 0.949 . S
C1178 C1182 1.368 1_565 S
C1179 C1160 1.429 . S
C1179 C1173 1.429 1_545 S
C1179 C1180 1.523 . S
C1180 C1161 1.368 1_545 S
C1180 C1174 1.368 . S
C1180 C1179 1.523 . S
C1181 C1165 1.429 1_545 S
C1181 C1177 1.429 . S
C1181 C1182 1.523 1_455 S
C1182 C1166 1.368 . S
C1182 C1178 1.368 1_545 S
C1182 C1181 1.523 1_655 S
H1183 C1158 0.950 . S
H1184 C1160 0.950 . S
H1185 C1161 0.949 . S
H1186 C1163 0.950 . S
H1187 C1165 0.950 . S
C1188 C1189 1.349 . S
C1188 C1190 1.327 . S
C1188 H1213 0.950 . S
C1189 C1188 1.349 . S
C1189 C1205 1.349 . S
C1190 C1188 1.327 . S
C1190 C1209 1.429 . S
C1190 H1214 0.950 . S
C1191 C1208 1.574 . S
C1191 C1210 1.368 . S
C1191 H1215 0.949 . S
H1192 C1196 0.949 . S
C1193 C1194 1.349 . S
C1193 C1195 1.327 . S
C1193 H1216 0.950 . S
C1194 C1193 1.349 . S
C1194 C1206 1.349 . S
C1195 C1193 1.327 . S
C1195 C1211 1.429 . S
C1195 H1217 0.950 . S
C1196 H1192 0.949 . S
C1196 C1204 1.574 . S
C1196 C1212 1.368 . S
H1197 C1205 0.950 . S
H1198 C1203 0.950 . S
H1199 C1204 0.949 . S
H1200 C1206 0.950 . S
H1201 C1207 0.950 . S
H1202 C1208 0.949 . S
C1203 H1198 0.950 . S
C1203 C1205 1.327 . S
C1203 C1209 1.429 . S
C1204 C1196 1.574 . S
C1204 H1199 0.949 . S
C1204 C1210 1.368 . S
C1205 C1189 1.349 . S
C1205 H1197 0.950 . S
C1205 C1203 1.327 . S
C1206 C1194 1.349 . S
C1206 H1200 0.950 . S
C1206 C1207 1.327 . S
C1207 H1201 0.950 . S
C1207 C1206 1.327 . S
C1207 C1211 1.429 . S
C1208 C1191 1.574 . S
C1208 H1202 0.949 . S
C1208 C1212 1.368 . S
C1209 C1190 1.429 . S
C1209 C1203 1.429 . S
C1209 C1210 1.523 . S
C1210 C1191 1.368 . S
C1210 C1204 1.368 . S
C1210 C1209 1.523 . S
C1211 C1195 1.429 . S
C1211 C1207 1.429 . S
C1211 C1212 1.523 1_545 S
C1212 C1196 1.368 . S
C1212 C1208 1.368 . S
C1212 C1211 1.523 1_565 S
H1213 C1188 0.950 . S
H1214 C1190 0.950 . S
H1215 C1191 0.949 . S
H1216 C1193 0.950 . S
H1217 C1195 0.950 . S
C1218 C1219 1.349 . S
C1218 C1220 1.327 . S
C1218 H1243 0.950 . S
C1219 C1218 1.349 . S
C1219 C1235 1.349 . S
C1220 C1218 1.327 . S
C1220 C1239 1.429 . S
C1220 H1244 0.950 . S
C1221 C1238 1.574 . S
C1221 C1240 1.368 . S
C1221 H1245 0.949 . S
H1222 C1226 0.949 . S
C1223 C1224 1.349 . S
C1223 C1225 1.327 . S
C1223 H1246 0.950 . S
C1224 C1223 1.349 . S
C1224 C1236 1.349 . S
C1225 C1223 1.327 . S
C1225 C1241 1.429 . S
C1225 H1247 0.950 . S
C1226 H1222 0.949 . S
C1226 C1234 1.574 . S
C1226 C1242 1.368 . S
H1227 C1235 0.950 . S
H1228 C1233 0.950 . S
H1229 C1234 0.949 . S
H1230 C1236 0.950 . S
H1231 C1237 0.950 . S
H1232 C1238 0.949 . S
C1233 H1228 0.950 . S
C1233 C1235 1.327 . S
C1233 C1239 1.429 . S
C1234 C1226 1.574 . S
C1234 H1229 0.949 . S
C1234 C1240 1.368 . S
C1235 C1219 1.349 . S
C1235 H1227 0.950 . S
C1235 C1233 1.327 . S
C1236 C1224 1.349 . S
C1236 H1230 0.950 . S
C1236 C1237 1.327 . S
C1237 H1231 0.950 . S
C1237 C1236 1.327 . S
C1237 C1241 1.429 . S
C1238 C1221 1.574 . S
C1238 H1232 0.949 . S
C1238 C1242 1.368 . S
C1239 C1220 1.429 . S
C1239 C1233 1.429 . S
C1239 C1240 1.523 . S
C1240 C1221 1.368 . S
C1240 C1234 1.368 . S
C1240 C1239 1.523 . S
C1241 C1225 1.429 . S
C1241 C1237 1.429 . S
C1241 C1242 1.523 . S
C1242 C1226 1.368 . S
C1242 C1238 1.368 . S
C1242 C1241 1.523 . S
H1243 C1218 0.950 . S
H1244 C1220 0.950 . S
H1245 C1221 0.949 . S
H1246 C1223 0.950 . S
H1247 C1225 0.950 . S
C1248 C1249 1.349 . S
C1248 C1250 1.327 . S
C1248 H1273 0.950 . S
C1249 C1248 1.349 . S
C1249 C1265 1.349 . S
C1250 C1248 1.327 . S
C1250 C1269 1.429 . S
C1250 H1274 0.950 . S
C1251 C1268 1.574 . S
C1251 C1270 1.368 . S
C1251 H1275 0.949 . S
H1252 C1256 0.949 . S
C1253 C1254 1.349 . S
C1253 C1255 1.327 . S
C1253 H1276 0.950 . S
C1254 C1253 1.349 . S
C1254 C1266 1.349 . S
C1255 C1253 1.327 . S
C1255 C1271 1.429 . S
C1255 H1277 0.950 . S
C1256 H1252 0.949 . S
C1256 C1264 1.574 . S
C1256 C1272 1.368 . S
H1257 C1265 0.950 . S
H1258 C1263 0.950 . S
H1259 C1264 0.949 . S
H1260 C1266 0.950 . S
H1261 C1267 0.950 . S
H1262 C1268 0.949 . S
C1263 H1258 0.950 . S
C1263 C1265 1.327 . S
C1263 C1269 1.429 . S
C1264 C1256 1.574 . S
C1264 H1259 0.949 . S
C1264 C1270 1.368 . S
C1265 C1249 1.349 . S
C1265 H1257 0.950 . S
C1265 C1263 1.327 . S
C1266 C1254 1.349 . S
C1266 H1260 0.950 . S
C1266 C1267 1.327 . S
C1267 H1261 0.950 . S
C1267 C1266 1.327 . S
C1267 C1271 1.429 . S
C1268 C1251 1.574 . S
C1268 H1262 0.949 . S
C1268 C1272 1.368 . S
C1269 C1250 1.429 . S
C1269 C1263 1.429 . S
C1269 C1270 1.523 . S
C1270 C1251 1.368 . S
C1270 C1264 1.368 . S
C1270 C1269 1.523 . S
C1271 C1255 1.429 . S
C1271 C1267 1.429 . S
C1271 C1272 1.523 . S
C1272 C1256 1.368 . S
C1272 C1268 1.368 . S
C1272 C1271 1.523 . S
H1273 C1248 0.950 . S
H1274 C1250 0.950 . S
H1275 C1251 0.949 . S
H1276 C1253 0.950 . S
H1277 C1255 0.950 . S
C1278 C1279 1.349 . S
C1278 C1280 1.327 . S
C1278 H1303 0.950 . S
C1279 C1278 1.349 . S
C1279 C1295 1.349 . S
C1280 C1278 1.327 . S
C1280 C1299 1.429 . S
C1280 H1304 0.950 . S
C1281 C1298 1.574 . S
C1281 C1300 1.368 . S
C1281 H1305 0.949 . S
H1282 C1286 0.949 . S
C1283 C1284 1.349 . S
C1283 C1285 1.327 . S
C1283 H1306 0.950 . S
C1284 C1283 1.349 . S
C1284 C1296 1.349 . S
C1285 C1283 1.327 . S
C1285 C1301 1.429 . S
C1285 H1307 0.950 . S
C1286 H1282 0.949 . S
C1286 C1294 1.574 . S
C1286 C1302 1.368 . S
H1287 C1295 0.950 . S
H1288 C1293 0.950 . S
H1289 C1294 0.949 . S
H1290 C1296 0.950 . S
H1291 C1297 0.950 . S
H1292 C1298 0.949 . S
C1293 H1288 0.950 . S
C1293 C1295 1.327 . S
C1293 C1299 1.429 . S
C1294 C1286 1.574 . S
C1294 H1289 0.949 . S
C1294 C1300 1.368 . S
C1295 C1279 1.349 . S
C1295 H1287 0.950 . S
C1295 C1293 1.327 . S
C1296 C1284 1.349 . S
C1296 H1290 0.950 . S
C1296 C1297 1.327 . S
C1297 H1291 0.950 . S
C1297 C1296 1.327 . S
C1297 C1301 1.429 . S
C1298 C1281 1.574 . S
C1298 H1292 0.949 . S
C1298 C1302 1.368 . S
C1299 C1280 1.429 . S
C1299 C1293 1.429 . S
C1299 C1300 1.523 . S
C1300 C1281 1.368 . S
C1300 C1294 1.368 . S
C1300 C1299 1.523 . S
C1301 C1285 1.429 . S
C1301 C1297 1.429 . S
C1301 C1302 1.523 . S
C1302 C1286 1.368 . S
C1302 C1298 1.368 . S
C1302 C1301 1.523 . S
H1303 C1278 0.950 . S
H1304 C1280 0.950 . S
H1305 C1281 0.949 . S
H1306 C1283 0.950 . S
H1307 C1285 0.950 . S
C1308 C1309 1.349 . S
C1308 C1310 1.327 . S
C1308 H1333 0.950 . S
C1309 C1308 1.349 . S
C1309 C1325 1.349 . S
C1310 C1308 1.327 . S
C1310 C1329 1.429 . S
C1310 H1334 0.950 . S
C1311 C1328 1.574 . S
C1311 C1330 1.368 . S
C1311 H1335 0.949 . S
H1312 C1316 0.949 . S
C1313 C1314 1.349 . S
C1313 C1315 1.327 . S
C1313 H1336 0.950 . S
C1314 C1313 1.349 . S
C1314 C1326 1.349 . S
C1315 C1313 1.327 . S
C1315 C1331 1.429 . S
C1315 H1337 0.950 . S
C1316 H1312 0.949 . S
C1316 C1324 1.574 . S
C1316 C1332 1.368 . S
H1317 C1325 0.950 . S
H1318 C1323 0.950 . S
H1319 C1324 0.949 . S
H1320 C1326 0.950 . S
H1321 C1327 0.950 . S
H1322 C1328 0.949 . S
C1323 H1318 0.950 . S
C1323 C1325 1.327 . S
C1323 C1329 1.429 . S
C1324 C1316 1.574 . S
C1324 H1319 0.949 . S
C1324 C1330 1.368 . S
C1325 C1309 1.349 . S
C1325 H1317 0.950 . S
C1325 C1323 1.327 . S
C1326 C1314 1.349 . S
C1326 H1320 0.950 . S
C1326 C1327 1.327 . S
C1327 H1321 0.950 . S
C1327 C1326 1.327 . S
C1327 C1331 1.429 . S
C1328 C1311 1.574 . S
C1328 H1322 0.949 . S
C1328 C1332 1.368 . S
C1329 C1310 1.429 . S
C1329 C1323 1.429 . S
C1329 C1330 1.523 . S
C1330 C1311 1.368 . S
C1330 C1324 1.368 . S
C1330 C1329 1.523 . S
C1331 C1315 1.429 . S
C1331 C1327 1.429 . S
C1331 C1332 1.523 . S
C1332 C1316 1.368 . S
C1332 C1328 1.368 . S
C1332 C1331 1.523 . S
H1333 C1308 0.950 . S
H1334 C1310 0.950 . S
H1335 C1311 0.949 . S
H1336 C1313 0.950 . S
H1337 C1315 0.950 . S
C1338 C1339 1.349 . S
C1338 C1340 1.327 . S
C1338 H1363 0.950 . S
C1339 C1338 1.349 . S
C1339 C1355 1.349 . S
C1340 C1338 1.327 . S
C1340 C1359 1.429 . S
C1340 H1364 0.950 . S
C1341 C1358 1.574 . S
C1341 C1360 1.368 . S
C1341 H1365 0.949 . S
H1342 C1346 0.949 . S
C1343 C1344 1.349 . S
C1343 C1345 1.327 . S
C1343 H1366 0.950 . S
C1344 C1343 1.349 . S
C1344 C1356 1.349 . S
C1345 C1343 1.327 . S
C1345 C1361 1.429 . S
C1345 H1367 0.950 . S
C1346 H1342 0.949 . S
C1346 C1354 1.574 . S
C1346 C1362 1.368 . S
H1347 C1355 0.950 . S
H1348 C1353 0.950 . S
H1349 C1354 0.949 . S
H1350 C1356 0.950 . S
H1351 C1357 0.950 . S
H1352 C1358 0.949 . S
C1353 H1348 0.950 . S
C1353 C1355 1.327 . S
C1353 C1359 1.429 . S
C1354 C1346 1.574 . S
C1354 H1349 0.949 . S
C1354 C1360 1.368 . S
C1355 C1339 1.349 . S
C1355 H1347 0.950 . S
C1355 C1353 1.327 . S
C1356 C1344 1.349 . S
C1356 H1350 0.950 . S
C1356 C1357 1.327 . S
C1357 H1351 0.950 . S
C1357 C1356 1.327 . S
C1357 C1361 1.429 . S
C1358 C1341 1.574 . S
C1358 H1352 0.949 . S
C1358 C1362 1.368 . S
C1359 C1340 1.429 . S
C1359 C1353 1.429 . S
C1359 C1360 1.523 . S
C1360 C1341 1.368 . S
C1360 C1354 1.368 . S
C1360 C1359 1.523 . S
C1361 C1345 1.429 . S
C1361 C1357 1.429 . S
C1361 C1362 1.523 . S
C1362 C1346 1.368 . S
C1362 C1358 1.368 . S
C1362 C1361 1.523 . S
H1363 C1338 0.950 . S
H1364 C1340 0.950 . S
H1365 C1341 0.949 . S
H1366 C1343 0.950 . S
H1367 C1345 0.950 . S
C1368 C1369 1.349 . S
C1368 C1370 1.327 . S
C1368 H1393 0.950 . S
C1369 C1368 1.349 . S
C1369 C1385 1.349 . S
C1370 C1368 1.327 . S
C1370 C1389 1.429 . S
C1370 H1394 0.950 . S
C1371 C1388 1.574 . S
C1371 C1390 1.368 . S
C1371 H1395 0.949 . S
H1372 C1376 0.949 . S
C1373 C1374 1.349 . S
C1373 C1375 1.327 . S
C1373 H1396 0.950 . S
C1374 C1373 1.349 . S
C1374 C1386 1.349 . S
C1375 C1373 1.327 . S
C1375 C1391 1.429 . S
C1375 H1397 0.950 . S
C1376 H1372 0.949 . S
C1376 C1384 1.574 . S
C1376 C1392 1.368 . S
H1377 C1385 0.950 . S
H1378 C1383 0.950 . S
H1379 C1384 0.949 . S
H1380 C1386 0.950 . S
H1381 C1387 0.950 . S
H1382 C1388 0.949 . S
C1383 H1378 0.950 . S
C1383 C1385 1.327 . S
C1383 C1389 1.429 . S
C1384 C1376 1.574 . S
C1384 H1379 0.949 . S
C1384 C1390 1.368 . S
C1385 C1369 1.349 . S
C1385 H1377 0.950 . S
C1385 C1383 1.327 . S
C1386 C1374 1.349 . S
C1386 H1380 0.950 . S
C1386 C1387 1.327 . S
C1387 H1381 0.950 . S
C1387 C1386 1.327 . S
C1387 C1391 1.429 . S
C1388 C1371 1.574 . S
C1388 H1382 0.949 . S
C1388 C1392 1.368 . S
C1389 C1370 1.429 . S
C1389 C1383 1.429 . S
C1389 C1390 1.523 . S
C1390 C1371 1.368 . S
C1390 C1384 1.368 . S
C1390 C1389 1.523 . S
C1391 C1375 1.429 . S
C1391 C1387 1.429 . S
C1391 C1392 1.523 . S
C1392 C1376 1.368 . S
C1392 C1388 1.368 . S
C1392 C1391 1.523 . S
H1393 C1368 0.950 . S
H1394 C1370 0.950 . S
H1395 C1371 0.949 . S
H1396 C1373 0.950 . S
H1397 C1375 0.950 . S
C1398 C1399 1.349 . S
C1398 C1400 1.327 . S
C1398 H1423 0.950 . S
C1399 C1398 1.349 . S
C1399 C1415 1.349 . S
C1400 C1398 1.327 . S
C1400 C1419 1.429 . S
C1400 H1424 0.950 . S
C1401 C1418 1.574 . S
C1401 C1420 1.368 . S
C1401 H1425 0.949 . S
H1402 C1406 0.949 . S
C1403 C1404 1.349 . S
C1403 C1405 1.327 . S
C1403 H1426 0.950 . S
C1404 C1403 1.349 . S
C1404 C1416 1.349 . S
C1405 C1403 1.327 . S
C1405 C1421 1.429 . S
C1405 H1427 0.950 . S
C1406 H1402 0.949 . S
C1406 C1414 1.574 . S
C1406 C1422 1.368 . S
H1407 C1415 0.950 . S
H1408 C1413 0.950 . S
H1409 C1414 0.949 . S
H1410 C1416 0.950 . S
H1411 C1417 0.950 . S
H1412 C1418 0.949 . S
C1413 H1408 0.950 . S
C1413 C1415 1.327 . S
C1413 C1419 1.429 . S
C1414 C1406 1.574 . S
C1414 H1409 0.949 . S
C1414 C1420 1.368 . S
C1415 C1399 1.349 . S
C1415 H1407 0.950 . S
C1415 C1413 1.327 . S
C1416 C1404 1.349 . S
C1416 H1410 0.950 . S
C1416 C1417 1.327 . S
C1417 H1411 0.950 . S
C1417 C1416 1.327 . S
C1417 C1421 1.429 . S
C1418 C1401 1.574 . S
C1418 H1412 0.949 . S
C1418 C1422 1.368 . S
C1419 C1400 1.429 . S
C1419 C1413 1.429 . S
C1419 C1420 1.523 . S
C1420 C1401 1.368 . S
C1420 C1414 1.368 . S
C1420 C1419 1.523 . S
C1421 C1405 1.429 . S
C1421 C1417 1.429 . S
C1421 C1422 1.523 . S
C1422 C1406 1.368 . S
C1422 C1418 1.368 . S
C1422 C1421 1.523 . S
H1423 C1398 0.950 . S
H1424 C1400 0.950 . S
H1425 C1401 0.949 . S
H1426 C1403 0.950 . S
H1427 C1405 0.950 . S
C1428 C1429 1.349 . S
C1428 C1430 1.327 . S
C1428 H1453 0.950 . S
C1429 C1428 1.349 . S
C1429 C1445 1.349 . S
C1430 C1428 1.327 . S
C1430 C1449 1.429 . S
C1430 H1454 0.950 . S
C1431 C1448 1.574 . S
C1431 C1450 1.368 . S
C1431 H1455 0.949 . S
H1432 C1436 0.949 . S
C1433 C1434 1.349 . S
C1433 C1435 1.327 . S
C1433 H1456 0.950 . S
C1434 C1433 1.349 . S
C1434 C1446 1.349 . S
C1435 C1433 1.327 . S
C1435 C1451 1.429 . S
C1435 H1457 0.950 . S
C1436 H1432 0.949 . S
C1436 C1444 1.574 . S
C1436 C1452 1.368 . S
H1437 C1445 0.950 . S
H1438 C1443 0.950 . S
H1439 C1444 0.949 . S
H1440 C1446 0.950 . S
H1441 C1447 0.950 . S
H1442 C1448 0.949 . S
C1443 H1438 0.950 . S
C1443 C1445 1.327 . S
C1443 C1449 1.429 . S
C1444 C1436 1.574 . S
C1444 H1439 0.949 . S
C1444 C1450 1.368 . S
C1445 C1429 1.349 . S
C1445 H1437 0.950 . S
C1445 C1443 1.327 . S
C1446 C1434 1.349 . S
C1446 H1440 0.950 . S
C1446 C1447 1.327 . S
C1447 H1441 0.950 . S
C1447 C1446 1.327 . S
C1447 C1451 1.429 . S
C1448 C1431 1.574 . S
C1448 H1442 0.949 . S
C1448 C1452 1.368 . S
C1449 C1430 1.429 . S
C1449 C1443 1.429 . S
C1449 C1450 1.523 . S
C1450 C1431 1.368 . S
C1450 C1444 1.368 . S
C1450 C1449 1.523 . S
C1451 C1435 1.429 . S
C1451 C1447 1.429 . S
C1451 C1452 1.523 . S
C1452 C1436 1.368 . S
C1452 C1448 1.368 . S
C1452 C1451 1.523 . S
H1453 C1428 0.950 . S
H1454 C1430 0.950 . S
H1455 C1431 0.949 . S
H1456 C1433 0.950 . S
H1457 C1435 0.950 . S
C1458 C1459 1.349 . S
C1458 C1460 1.327 . S
C1458 H1483 0.950 . S
C1459 C1458 1.349 . S
C1459 C1475 1.349 . S
C1460 C1458 1.327 . S
C1460 C1479 1.429 . S
C1460 H1484 0.950 . S
C1461 C1478 1.574 . S
C1461 C1480 1.368 . S
C1461 H1485 0.949 . S
H1462 C1466 0.949 . S
C1463 C1464 1.349 . S
C1463 C1465 1.327 . S
C1463 H1486 0.950 . S
C1464 C1463 1.349 . S
C1464 C1476 1.349 . S
C1465 C1463 1.327 . S
C1465 C1481 1.429 . S
C1465 H1487 0.950 . S
C1466 H1462 0.949 . S
C1466 C1474 1.574 . S
C1466 C1482 1.368 . S
H1467 C1475 0.950 . S
H1468 C1473 0.950 . S
H1469 C1474 0.949 . S
H1470 C1476 0.950 . S
H1471 C1477 0.950 . S
H1472 C1478 0.949 . S
C1473 H1468 0.950 . S
C1473 C1475 1.327 . S
C1473 C1479 1.429 . S
C1474 C1466 1.574 . S
C1474 H1469 0.949 . S
C1474 C1480 1.368 . S
C1475 C1459 1.349 . S
C1475 H1467 0.950 . S
C1475 C1473 1.327 . S
C1476 C1464 1.349 . S
C1476 H1470 0.950 . S
C1476 C1477 1.327 . S
C1477 H1471 0.950 . S
C1477 C1476 1.327 . S
C1477 C1481 1.429 . S
C1478 C1461 1.574 . S
C1478 H1472 0.949 . S
C1478 C1482 1.368 . S
C1479 C1460 1.429 . S
C1479 C1473 1.429 . S
C1479 C1480 1.523 . S
C1480 C1461 1.368 . S
C1480 C1474 1.368 . S
C1480 C1479 1.523 . S
C1481 C1465 1.429 . S
C1481 C1477 1.429 . S
C1481 C1482 1.523 . S
C1482 C1466 1.368 . S
C1482 C1478 1.368 . S
C1482 C1481 1.523 . S
H1483 C1458 0.950 . S
H1484 C1460 0.950 . S
H1485 C1461 0.949 . S
H1486 C1463 0.950 . S
H1487 C1465 0.950 . S
C1488 C1489 1.349 . S
C1488 C1490 1.327 . S
C1488 H1513 0.950 . S
C1489 C1488 1.349 . S
C1489 C1505 1.349 . S
C1490 C1488 1.327 . S
C1490 C1509 1.429 . S
C1490 H1514 0.950 . S
C1491 C1508 1.574 . S
C1491 C1510 1.368 . S
C1491 H1515 0.949 . S
H1492 C1496 0.949 . S
C1493 C1494 1.349 . S
C1493 C1495 1.327 . S
C1493 H1516 0.950 . S
C1494 C1493 1.349 . S
C1494 C1506 1.349 . S
C1495 C1493 1.327 . S
C1495 C1511 1.429 . S
C1495 H1517 0.950 . S
C1496 H1492 0.949 . S
C1496 C1504 1.574 . S
C1496 C1512 1.368 . S
H1497 C1505 0.950 . S
H1498 C1503 0.950 . S
H1499 C1504 0.949 . S
H1500 C1506 0.950 . S
H1501 C1507 0.950 . S
H1502 C1508 0.949 . S
C1503 H1498 0.950 . S
C1503 C1505 1.327 . S
C1503 C1509 1.429 . S
C1504 C1496 1.574 . S
C1504 H1499 0.949 . S
C1504 C1510 1.368 . S
C1505 C1489 1.349 . S
C1505 H1497 0.950 . S
C1505 C1503 1.327 . S
C1506 C1494 1.349 . S
C1506 H1500 0.950 . S
C1506 C1507 1.327 . S
C1507 H1501 0.950 . S
C1507 C1506 1.327 . S
C1507 C1511 1.429 . S
C1508 C1491 1.574 . S
C1508 H1502 0.949 . S
C1508 C1512 1.368 . S
C1509 C1490 1.429 . S
C1509 C1503 1.429 . S
C1509 C1510 1.523 . S
C1510 C1491 1.368 . S
C1510 C1504 1.368 . S
C1510 C1509 1.523 . S
C1511 C1495 1.429 . S
C1511 C1507 1.429 . S
C1511 C1512 1.523 . S
C1512 C1496 1.368 . S
C1512 C1508 1.368 . S
C1512 C1511 1.523 . S
H1513 C1488 0.950 . S
H1514 C1490 0.950 . S
H1515 C1491 0.949 . S
H1516 C1493 0.950 . S
H1517 C1495 0.950 . S
C1518 C1519 1.349 . S
C1518 C1520 1.327 . S
C1518 H1543 0.950 . S
C1519 C1518 1.349 . S
C1519 C1535 1.349 . S
C1520 C1518 1.327 . S
C1520 C1539 1.429 . S
C1520 H1544 0.950 . S
C1521 C1538 1.574 . S
C1521 C1540 1.368 . S
C1521 H1545 0.949 . S
H1522 C1526 0.949 . S
C1523 C1524 1.349 . S
C1523 C1525 1.327 . S
C1523 H1546 0.950 . S
C1524 C1523 1.349 . S
C1524 C1536 1.349 . S
C1525 C1523 1.327 . S
C1525 C1541 1.429 . S
C1525 H1547 0.950 . S
C1526 H1522 0.949 . S
C1526 C1534 1.574 . S
C1526 C1542 1.368 . S
H1527 C1535 0.950 . S
H1528 C1533 0.950 . S
H1529 C1534 0.949 . S
H1530 C1536 0.950 . S
H1531 C1537 0.950 . S
H1532 C1538 0.949 . S
C1533 H1528 0.950 . S
C1533 C1535 1.327 . S
C1533 C1539 1.429 . S
C1534 C1526 1.574 . S
C1534 H1529 0.949 . S
C1534 C1540 1.368 . S
C1535 C1519 1.349 . S
C1535 H1527 0.950 . S
C1535 C1533 1.327 . S
C1536 C1524 1.349 . S
C1536 H1530 0.950 . S
C1536 C1537 1.327 . S
C1537 H1531 0.950 . S
C1537 C1536 1.327 . S
C1537 C1541 1.429 . S
C1538 C1521 1.574 . S
C1538 H1532 0.949 . S
C1538 C1542 1.368 . S
C1539 C1520 1.429 . S
C1539 C1533 1.429 . S
C1539 C1540 1.523 . S
C1540 C1521 1.368 . S
C1540 C1534 1.368 . S
C1540 C1539 1.523 . S
C1541 C1525 1.429 . S
C1541 C1537 1.429 . S
C1541 C1542 1.523 . S
C1542 C1526 1.368 . S
C1542 C1538 1.368 . S
C1542 C1541 1.523 . S
H1543 C1518 0.950 . S
H1544 C1520 0.950 . S
H1545 C1521 0.949 . S
H1546 C1523 0.950 . S
H1547 C1525 0.950 . S
C1548 C1549 1.349 . S
C1548 C1550 1.327 . S
C1548 H1573 0.950 . S
C1549 C1548 1.349 . S
C1549 C1565 1.349 . S
C1550 C1548 1.327 . S
C1550 C1569 1.429 . S
C1550 H1574 0.950 . S
C1551 C1568 1.574 . S
C1551 C1570 1.368 . S
C1551 H1575 0.949 . S
H1552 C1556 0.949 . S
C1553 C1554 1.349 . S
C1553 C1555 1.327 . S
C1553 H1576 0.950 . S
C1554 C1553 1.349 . S
C1554 C1566 1.349 . S
C1555 C1553 1.327 . S
C1555 C1571 1.429 . S
C1555 H1577 0.950 . S
C1556 H1552 0.949 . S
C1556 C1564 1.574 . S
C1556 C1572 1.368 . S
H1557 C1565 0.950 . S
H1558 C1563 0.950 . S
H1559 C1564 0.949 . S
H1560 C1566 0.950 . S
H1561 C1567 0.950 . S
H1562 C1568 0.949 . S
C1563 H1558 0.950 . S
C1563 C1565 1.327 . S
C1563 C1569 1.429 . S
C1564 C1556 1.574 . S
C1564 H1559 0.949 . S
C1564 C1570 1.368 . S
C1565 C1549 1.349 . S
C1565 H1557 0.950 . S
C1565 C1563 1.327 . S
C1566 C1554 1.349 . S
C1566 H1560 0.950 . S
C1566 C1567 1.327 . S
C1567 H1561 0.950 . S
C1567 C1566 1.327 . S
C1567 C1571 1.429 . S
C1568 C1551 1.574 . S
C1568 H1562 0.949 . S
C1568 C1572 1.368 . S
C1569 C1550 1.429 . S
C1569 C1563 1.429 . S
C1569 C1570 1.523 . S
C1570 C1551 1.368 . S
C1570 C1564 1.368 . S
C1570 C1569 1.523 . S
C1571 C1555 1.429 . S
C1571 C1567 1.429 . S
C1571 C1572 1.523 . S
C1572 C1556 1.368 . S
C1572 C1568 1.368 . S
C1572 C1571 1.523 . S
H1573 C1548 0.950 . S
H1574 C1550 0.950 . S
H1575 C1551 0.949 . S
H1576 C1553 0.950 . S
H1577 C1555 0.950 . S
C1578 C1579 1.349 . S
C1578 C1580 1.327 . S
C1578 H1603 0.950 . S
C1579 C1578 1.349 . S
C1579 C1595 1.349 . S
C1580 C1578 1.327 . S
C1580 C1599 1.429 . S
C1580 H1604 0.950 . S
C1581 C1598 1.574 . S
C1581 C1600 1.368 . S
C1581 H1605 0.949 . S
H1582 C1586 0.949 . S
C1583 C1584 1.349 . S
C1583 C1585 1.327 . S
C1583 H1606 0.950 . S
C1584 C1583 1.349 . S
C1584 C1596 1.349 . S
C1585 C1583 1.327 . S
C1585 C1601 1.429 . S
C1585 H1607 0.950 . S
C1586 H1582 0.949 . S
C1586 C1594 1.574 . S
C1586 C1602 1.368 . S
H1587 C1595 0.950 . S
H1588 C1593 0.950 . S
H1589 C1594 0.949 . S
H1590 C1596 0.950 . S
H1591 C1597 0.950 . S
H1592 C1598 0.949 . S
C1593 H1588 0.950 . S
C1593 C1595 1.327 . S
C1593 C1599 1.429 . S
C1594 C1586 1.574 . S
C1594 H1589 0.949 . S
C1594 C1600 1.368 . S
C1595 C1579 1.349 . S
C1595 H1587 0.950 . S
C1595 C1593 1.327 . S
C1596 C1584 1.349 . S
C1596 H1590 0.950 . S
C1596 C1597 1.327 . S
C1597 H1591 0.950 . S
C1597 C1596 1.327 . S
C1597 C1601 1.429 . S
C1598 C1581 1.574 . S
C1598 H1592 0.949 . S
C1598 C1602 1.368 . S
C1599 C1580 1.429 . S
C1599 C1593 1.429 . S
C1599 C1600 1.523 . S
C1600 C1581 1.368 . S
C1600 C1594 1.368 . S
C1600 C1599 1.523 . S
C1601 C1585 1.429 . S
C1601 C1597 1.429 . S
C1601 C1602 1.523 . S
C1602 C1586 1.368 . S
C1602 C1598 1.368 . S
C1602 C1601 1.523 . S
H1603 C1578 0.950 . S
H1604 C1580 0.950 . S
H1605 C1581 0.949 . S
H1606 C1583 0.950 . S
H1607 C1585 0.950 . S
C1608 C1609 1.349 . S
C1608 C1610 1.327 . S
C1608 H1633 0.950 . S
C1609 C1608 1.349 . S
C1609 C1625 1.349 . S
C1610 C1608 1.327 . S
C1610 C1629 1.429 . S
C1610 H1634 0.950 . S
C1611 C1628 1.574 . S
C1611 C1630 1.368 . S
C1611 H1635 0.949 . S
H1612 C1616 0.949 . S
C1613 C1614 1.349 . S
C1613 C1615 1.327 . S
C1613 H1636 0.950 . S
C1614 C1613 1.349 . S
C1614 C1626 1.349 . S
C1615 C1613 1.327 . S
C1615 C1631 1.429 . S
C1615 H1637 0.950 . S
C1616 H1612 0.949 . S
C1616 C1624 1.574 . S
C1616 C1632 1.368 . S
H1617 C1625 0.950 . S
H1618 C1623 0.950 . S
H1619 C1624 0.949 . S
H1620 C1626 0.950 . S
H1621 C1627 0.950 . S
H1622 C1628 0.949 . S
C1623 H1618 0.950 . S
C1623 C1625 1.327 . S
C1623 C1629 1.429 . S
C1624 C1616 1.574 . S
C1624 H1619 0.949 . S
C1624 C1630 1.368 . S
C1625 C1609 1.349 . S
C1625 H1617 0.950 . S
C1625 C1623 1.327 . S
C1626 C1614 1.349 . S
C1626 H1620 0.950 . S
C1626 C1627 1.327 . S
C1627 H1621 0.950 . S
C1627 C1626 1.327 . S
C1627 C1631 1.429 . S
C1628 C1611 1.574 . S
C1628 H1622 0.949 . S
C1628 C1632 1.368 . S
C1629 C1610 1.429 . S
C1629 C1623 1.429 . S
C1629 C1630 1.523 . S
C1630 C1611 1.368 . S
C1630 C1624 1.368 . S
C1630 C1629 1.523 . S
C1631 C1615 1.429 . S
C1631 C1627 1.429 . S
C1631 C1632 1.523 . S
C1632 C1616 1.368 . S
C1632 C1628 1.368 . S
C1632 C1631 1.523 . S
H1633 C1608 0.950 . S
H1634 C1610 0.950 . S
H1635 C1611 0.949 . S
H1636 C1613 0.950 . S
H1637 C1615 0.950 . S
C1638 C1639 1.349 . S
C1638 C1640 1.327 . S
C1638 H1663 0.950 . S
C1639 C1638 1.349 . S
C1639 C1655 1.349 . S
C1640 C1638 1.327 . S
C1640 C1659 1.429 . S
C1640 H1664 0.950 . S
C1641 C1658 1.574 . S
C1641 C1660 1.368 . S
C1641 H1665 0.949 . S
H1642 C1646 0.949 . S
C1643 C1644 1.349 . S
C1643 C1645 1.327 . S
C1643 H1666 0.950 . S
C1644 C1643 1.349 . S
C1644 C1656 1.349 . S
C1645 C1643 1.327 . S
C1645 C1661 1.429 . S
C1645 H1667 0.950 . S
C1646 H1642 0.949 . S
C1646 C1654 1.574 . S
C1646 C1662 1.368 . S
H1647 C1655 0.950 . S
H1648 C1653 0.950 . S
H1649 C1654 0.949 . S
H1650 C1656 0.950 . S
H1651 C1657 0.950 . S
H1652 C1658 0.949 . S
C1653 H1648 0.950 . S
C1653 C1655 1.327 . S
C1653 C1659 1.429 . S
C1654 C1646 1.574 . S
C1654 H1649 0.949 . S
C1654 C1660 1.368 . S
C1655 C1639 1.349 . S
C1655 H1647 0.950 . S
C1655 C1653 1.327 . S
C1656 C1644 1.349 . S
C1656 H1650 0.950 . S
C1656 C1657 1.327 . S
C1657 H1651 0.950 . S
C1657 C1656 1.327 . S
C1657 C1661 1.429 . S
C1658 C1641 1.574 . S
C1658 H1652 0.949 . S
C1658 C1662 1.368 . S
C1659 C1640 1.429 . S
C1659 C1653 1.429 . S
C1659 C1660 1.523 . S
C1660 C1641 1.368 . S
C1660 C1654 1.368 . S
C1660 C1659 1.523 . S
C1661 C1645 1.429 . S
C1661 C1657 1.429 . S
C1661 C1662 1.523 . S
C1662 C1646 1.368 . S
C1662 C1658 1.368 . S
C1662 C1661 1.523 . S
H1663 C1638 0.950 . S
H1664 C1640 0.950 . S
H1665 C1641 0.949 . S
H1666 C1643 0.950 . S
H1667 C1645 0.950 . S
C1668 C1669 1.349 . S
C1668 C1670 1.327 . S
C1668 H1693 0.950 . S
C1669 C1668 1.349 . S
C1669 C1685 1.349 . S
C1670 C1668 1.327 . S
C1670 C1689 1.429 . S
C1670 H1694 0.950 . S
C1671 C1688 1.574 . S
C1671 C1690 1.368 . S
C1671 H1695 0.949 . S
H1672 C1676 0.949 . S
C1673 C1674 1.349 . S
C1673 C1675 1.327 . S
C1673 H1696 0.950 . S
C1674 C1673 1.349 . S
C1674 C1686 1.349 . S
C1675 C1673 1.327 . S
C1675 C1691 1.429 . S
C1675 H1697 0.950 . S
C1676 H1672 0.949 . S
C1676 C1684 1.574 . S
C1676 C1692 1.368 . S
H1677 C1685 0.950 . S
H1678 C1683 0.950 . S
H1679 C1684 0.949 . S
H1680 C1686 0.950 . S
H1681 C1687 0.950 . S
H1682 C1688 0.949 . S
C1683 H1678 0.950 . S
C1683 C1685 1.327 . S
C1683 C1689 1.429 . S
C1684 C1676 1.574 . S
C1684 H1679 0.949 . S
C1684 C1690 1.368 . S
C1685 C1669 1.349 . S
C1685 H1677 0.950 . S
C1685 C1683 1.327 . S
C1686 C1674 1.349 . S
C1686 H1680 0.950 . S
C1686 C1687 1.327 . S
C1687 H1681 0.950 . S
C1687 C1686 1.327 . S
C1687 C1691 1.429 . S
C1688 C1671 1.574 . S
C1688 H1682 0.949 . S
C1688 C1692 1.368 . S
C1689 C1670 1.429 . S
C1689 C1683 1.429 . S
C1689 C1690 1.523 . S
C1690 C1671 1.368 . S
C1690 C1684 1.368 . S
C1690 C1689 1.523 . S
C1691 C1675 1.429 . S
C1691 C1687 1.429 . S
C1691 C1692 1.523 . S
C1692 C1676 1.368 . S
C1692 C1688 1.368 . S
C1692 C1691 1.523 . S
H1693 C1668 0.950 . S
H1694 C1670 0.950 . S
H1695 C1671 0.949 . S
H1696 C1673 0.950 . S
H1697 C1675 0.950 . S
C1698 C1699 1.349 . S
C1698 C1700 1.327 . S
C1698 H1723 0.950 . S
C1699 C1698 1.349 . S
C1699 C1715 1.349 . S
C1700 C1698 1.327 . S
C1700 C1719 1.429 . S
C1700 H1724 0.950 . S
C1701 C1718 1.574 . S
C1701 C1720 1.368 . S
C1701 H1725 0.949 . S
H1702 C1706 0.949 . S
C1703 C1704 1.349 . S
C1703 C1705 1.327 . S
C1703 H1726 0.950 . S
C1704 C1703 1.349 . S
C1704 C1716 1.349 . S
C1705 C1703 1.327 . S
C1705 C1721 1.429 . S
C1705 H1727 0.950 . S
C1706 H1702 0.949 . S
C1706 C1714 1.574 . S
C1706 C1722 1.368 . S
H1707 C1715 0.950 . S
H1708 C1713 0.950 . S
H1709 C1714 0.949 . S
H1710 C1716 0.950 . S
H1711 C1717 0.950 . S
H1712 C1718 0.949 . S
C1713 H1708 0.950 . S
C1713 C1715 1.327 . S
C1713 C1719 1.429 . S
C1714 C1706 1.574 . S
C1714 H1709 0.949 . S
C1714 C1720 1.368 . S
C1715 C1699 1.349 . S
C1715 H1707 0.950 . S
C1715 C1713 1.327 . S
C1716 C1704 1.349 . S
C1716 H1710 0.950 . S
C1716 C1717 1.327 . S
C1717 H1711 0.950 . S
C1717 C1716 1.327 . S
C1717 C1721 1.429 . S
C1718 C1701 1.574 . S
C1718 H1712 0.949 . S
C1718 C1722 1.368 . S
C1719 C1700 1.429 . S
C1719 C1713 1.429 . S
C1719 C1720 1.523 . S
C1720 C1701 1.368 . S
C1720 C1714 1.368 . S
C1720 C1719 1.523 . S
C1721 C1705 1.429 . S
C1721 C1717 1.429 . S
C1721 C1722 1.523 . S
C1722 C1706 1.368 . S
C1722 C1718 1.368 . S
C1722 C1721 1.523 . S
H1723 C1698 0.950 . S
H1724 C1700 0.950 . S
H1725 C1701 0.949 . S
H1726 C1703 0.950 . S
H1727 C1705 0.950 . S
C529 N146 1.575 . S
C534 N14 1.575 . S
C559 N179 1.575 . S
C564 N47 1.575 . S
C589 N80 1.575 . S
C594 N212 1.575 . S
C619 N245 1.575 . S
C624 N113 1.575 . S
C649 N410 1.575 . S
C654 N278 1.575 . S
C679 N311 1.575 . S
C684 N443 1.575 . S
C709 N344 1.575 . S
C714 N476 1.575 . S
C739 N377 1.575 . S
C744 N509 1.575 . S
C769 C8 1.630 . S
C774 C424 1.707 . S
C799 C41 1.630 . S
C804 C457 1.707 . S
C829 C490 1.707 . S
C834 C74 1.630 . S
C859 C107 1.630 . S
C864 C523 1.707 . S
C889 C292 1.707 . S
C894 C140 1.630 . S
C919 C325 1.707 . S
C924 C173 1.630 . S
C949 C206 1.630 . S
C954 C358 1.707 . S
C979 C391 1.707 . S
C984 C239 1.630 . S
C1009 C272 1.630 . S
C1014 C160 1.707 . S
C1039 C305 1.630 . S
C1044 C193 1.707 . S
C1069 C226 1.707 . S
C1074 C338 1.630 . S
C1099 C371 1.630 . S
C1104 C259 1.707 . S
C1129 C404 1.630 . S
C1134 C28 1.707 . S
C1159 C437 1.630 . S
C1164 C61 1.707 . S
C1189 C470 1.630 . S
C1194 C94 1.707 . S
C1219 C127 1.707 . S
C1224 C503 1.630 . S
C1249 N236 1.771 . S
C1254 N5 1.771 . S
C1279 N38 1.771 . S
C1284 N137 1.771 . S
C1309 N170 1.771 . S
C1314 N71 1.771 . S
C1339 N203 1.771 . S
C1344 N104 1.771 . S
C1369 N269 1.771 . S
C1374 N500 1.771 . S
C1399 N401 1.771 . S
C1404 N302 1.771 . S
C1429 N335 1.771 . S
C1434 N434 1.771 . S
C1459 N467 1.771 . S
C1464 N368 1.771 . S
C1489 C83 1.476 . S
C1494 C17 1.476 . S
C1519 C116 1.476 . S
C1524 C50 1.476 . S
C1549 C149 1.476 . S
C1554 C215 1.476 . S
C1579 C248 1.476 . S
C1584 C182 1.476 . S
C1609 C281 1.476 . S
C1614 C347 1.476 . S
C1639 C380 1.476 . S
C1644 C314 1.476 . S
C1669 C413 1.476 . S
C1674 C479 1.476 . S
C1699 C446 1.476 . S
C1704 C512 1.476 . S
