# Generated by pormake.
# Topology kag, (6)-cn, num edge types: 1
# Building blocks:
#     Node 0, Type 0, BuildingBlock: LEVNOQ01_clean_sbu_1, # of connection points: 6
#     Node 1, Type 0, BuildingBlock: LEVNOQ01_clean_sbu_1, # of connection points: 6
#     Node 2, Type 0, BuildingBlock: LEVNOQ01_clean_sbu_1, # of connection points: 6
#     Edge 3, Type (0, 0), BuildingBlock: FUNLAD_clean_linker_0, # of connection points: 2
#     Edge 4, Type (0, 0), BuildingBlock: FUNLAD_clean_linker_0, # of connection points: 2
#     Edge 5, Type (0, 0), BuildingBlock: FUNLAD_clean_linker_0, # of connection points: 2
#     Edge 6, Type (0, 0), BuildingBlock: FUNLAD_clean_linker_0, # of connection points: 2
#     Edge 7, Type (0, 0), BuildingBlock: FUNLAD_clean_linker_0, # of connection points: 2
#     Edge 8, Type (0, 0), BuildingBlock: FUNLAD_clean_linker_0, # of connection points: 2
#     Edge 9, Type (0, 0), BuildingBlock: FUNLAD_clean_linker_0, # of connection points: 2
#     Edge 10, Type (0, 0), BuildingBlock: FUNLAD_clean_linker_0, # of connection points: 2
#     Edge 11, Type (0, 0), BuildingBlock: FUNLAD_clean_linker_0, # of connection points: 2
# Relax obj value: 0.109
# Max RMSD: 0.157
# Mean RMSD: 0.150
data_MOF--net-kag--node1-LEVNOQ01_clean_sbu_1--edge1-FUNLAD_clean_linker_0
_symmetry_space_group_name_H-M    P1
_symmetry_Int_Tables_number       1
_symmetry_cell_setting            triclinic
loop_
_symmetry_equiv_pos_as_xyz
'x, y, z'
_cell_length_a     35.88721
_cell_length_b     35.940064
_cell_length_c     18.265697
_cell_angle_alpha  90.031364
_cell_angle_beta   101.16889
_cell_angle_gamma 119.90276
loop_
_atom_site_label
_atom_site_type_symbol
_atom_site_fract_x
_atom_site_fract_y
_atom_site_fract_z
_atom_type_partial_charge
O0 O 0.89928 0.3999 0.91377 0.0
Mg1 Mg 0.9262 0.45179 0.84988 0.0
O2 O 0.95843 0.42302 0.00709 0.0
Mg3 Mg 0.00988 0.49241 0.9825 0.0
O4 O -0.00944 0.47214 0.85513 0.0
O5 O 0.9388 0.44239 0.74896 0.0
O6 O 0.05892 0.56016 0.94004 0.0
O7 O 0.05866 0.46849 0.9841 0.0
Mg8 Mg 0.07085 0.54798 0.0658 0.0
O9 O 0.02727 0.50415 0.12017 0.0
O10 O 0.06265 0.60018 0.03248 0.0
O11 O 0.1152 0.5328 0.02757 0.0
O12 O 0.09371 0.56005 0.17691 0.0
C13 C 0.93374 0.52445 0.93604 0.0
C14 C 0.9188 0.39457 0.97499 0.0
C15 C -0.02026 0.46074 0.78336 0.0
C16 C 0.06882 0.59731 0.96788 0.0
C17 C 0.10016 0.49411 0.00126 0.0
C18 C 0.05722 0.52611 0.18116 0.0
O19 O 0.91895 0.50459 0.87052 0.0
O20 O 0.9616 0.51957 0.98433 0.0
O21 O 0.55701 0.9281 0.94425 0.0
Mg22 Mg 0.49763 0.92818 0.92561 0.0
O23 O 0.54121 0.93824 0.0485 0.0
Mg24 Mg 0.51819 -0.01025 0.011 0.0
O25 O 0.49661 0.97795 0.87575 0.0
O26 O 0.46889 0.9118 0.81576 0.0
O27 O 0.50019 0.04276 0.98789 0.0
O28 O 0.58935 0.0343 0.98047 0.0
Mg29 Mg 0.57744 0.04648 0.09739 0.0
O30 O 0.52962 0.00334 0.14682 0.0
O31 O 0.56784 0.09363 0.03814 0.0
O32 O 0.62975 0.03693 0.08698 0.0
O33 O 0.58903 0.06544 0.20612 0.0
C34 C 0.42775 0.90229 0.00904 0.0
C35 C 0.56014 0.92437 0.01328 0.0
C36 C 0.47774 0.95116 0.81436 0.0
C37 C 0.52964 0.08263 0.00032 0.0
C38 C 0.62709 0.04343 0.01909 0.0
C39 C 0.55325 0.03002 0.20791 0.0
O40 O 0.44684 0.88676 0.9794 0.0
O41 O 0.44615 0.94313 0.02253 0.0
O42 O 0.40915 0.43569 0.94963 0.0
Mg43 Mg 0.46689 0.49641 0.95584 0.0
O44 O 0.44561 0.46532 0.06272 0.0
Mg45 Mg 0.51897 0.49026 0.04296 0.0
O46 O 0.51663 0.50291 0.90989 0.0
O47 O 0.46235 0.51421 0.85269 0.0
O48 O 0.5931 0.5135 0.04352 0.0
O49 O 0.49547 0.41751 0.00145 0.0
Mg50 Mg 0.55231 0.44306 0.16268 0.0
O51 O 0.52932 0.48372 0.16929 0.0
O52 O 0.61288 0.47917 0.12996 0.0
O53 O 0.5033 0.38436 0.10052 0.0
O54 O 0.5489 0.45667 0.26933 0.0
C55 C 0.51362 0.57484 0.06461 0.0
C56 C 0.40869 0.44091 0.01748 0.0
C57 C 0.49777 0.51358 0.85188 0.0
C58 C 0.62213 0.50599 0.08158 0.0
C59 C 0.48875 0.38306 0.0312 0.0
C60 C 0.5347 0.48134 0.24096 0.0
O61 O 0.47631 0.55079 0.02127 0.0
O62 O 0.54059 0.56126 0.07945 0.0
C63 C 0.00306 0.43354 0.68799 0.0
C64 C 0.01224 0.46771 0.73916 0.0
C65 C 0.02337 0.44176 0.6274 0.0
C66 C 0.05238 0.4845 0.61609 0.0
C67 C 0.06571 0.51806 0.67256 0.0
C68 C 0.04565 0.50971 0.73396 0.0
C69 C 0.06477 0.49533 0.54266 0.0
C70 C 0.03634 0.47279 0.47714 0.0
C71 C 0.04289 0.48622 0.40136 0.0
C72 C 0.084 0.51775 0.38903 0.0
C73 C 0.08806 0.5306 0.31761 0.0
C74 C 0.05142 0.51196 0.25628 0.0
H75 H 0.9743 0.4424 0.34741 0.0
C76 C 0.01056 0.47966 0.26788 0.0
C77 C 0.00638 0.46701 0.33977 0.0
H78 H -0.01819 0.46446 0.22175 0.0
H79 H 0.97767 0.4008 0.6917 0.0
H80 H 0.01406 0.4149 0.58691 0.0
H81 H 0.08871 0.55121 0.66587 0.0
H82 H 0.05303 0.53653 0.7728 0.0
H83 H 0.09497 0.52543 0.54274 0.0
H84 H 0.00462 0.44483 0.47886 0.0
H85 H 0.11335 0.53253 0.43377 0.0
H86 H 0.12033 0.55504 0.3105 0.0
C87 C 0.4961 -0.00542 0.28565 0.0
C88 C 0.54022 0.02116 0.28077 0.0
C89 C 0.48465 -0.00945 0.35576 0.0
C90 C 0.51737 0.0129 0.42193 0.0
C91 C 0.56143 0.03808 0.4165 0.0
C92 C 0.57269 0.04232 0.34708 0.0
C93 C 0.50835 0.01015 0.49841 0.0
C94 C 0.46827 -0.00692 0.51431 0.0
C95 C 0.46369 -0.01337 0.59287 0.0
C96 C 0.43296 0.94579 0.60834 0.0
C97 C 0.43571 0.93515 0.68186 0.0
C98 C 0.4686 0.96559 0.74111 0.0
H99 H 0.51694 0.05068 0.64239 0.0
C100 C 0.49589 0.00806 0.72682 0.0
C101 C 0.49362 0.01849 0.65296 0.0
H102 H 0.52114 0.03223 0.77169 0.0
H103 H 0.47043 0.97787 0.23535 0.0
H104 H 0.4504 0.9699 0.35749 0.0
H105 H 0.58746 0.0551 0.46632 0.0
H106 H 0.6071 0.06265 0.34546 0.0
H107 H 0.53692 0.02208 0.54508 0.0
H108 H 0.43858 0.97912 0.46995 0.0
H109 H 0.40924 0.92097 0.56302 0.0
H110 H 0.41364 0.90236 0.69177 0.0
C111 C 0.50387 0.55048 0.73597 0.0
C112 C 0.51591 0.52569 0.7838 0.0
C113 C 0.516 0.55858 0.66713 0.0
C114 C 0.54013 0.54166 0.64388 0.0
C115 C 0.55472 0.51929 0.69369 0.0
C116 C 0.54271 0.51131 0.76322 0.0
C117 C 0.54885 0.54514 0.56712 0.0
C118 C 0.52148 0.54704 0.50685 0.0
C119 C 0.52518 0.54032 0.42907 0.0
C120 C 0.48666 0.5139 0.3739 0.0
C121 C 0.48936 0.49812 0.30618 0.0
C122 C 0.53068 0.50946 0.29283 0.0
H123 H 0.59665 0.5771 0.45182 0.0
C124 C 0.56908 0.54002 0.34381 0.0
C125 C 0.56643 0.55553 0.41143 0.0
H126 H 0.60127 0.54898 0.33429 0.0
H127 H 0.48426 0.56314 0.75114 0.0
H128 H 0.5058 0.57757 0.63192 0.0
H129 H 0.57394 0.50642 0.6775 0.0
H130 H 0.5528 0.49249 0.7992 0.0
H131 H 0.57562 0.54074 0.55861 0.0
H132 H 0.49197 0.5468 0.51361 0.0
H133 H 0.45448 0.50228 0.38593 0.0
H134 H 0.45939 0.47412 0.26781 0.0
C135 C 0.1756 0.50378 0.03325 0.0
C136 C 0.13082 0.47833 -0.00272 0.0
C137 C 0.20424 0.48801 0.03494 0.0
C138 C 0.1888 0.44643 0.00034 0.0
C139 C 0.14442 0.42152 0.9622 0.0
C140 C 0.11553 0.4371 0.96133 0.0
C141 C 0.21916 0.42977 -0.00077 0.0
C142 C 0.25397 0.44005 0.05648 0.0
C143 C 0.29008 0.43125 0.05282 0.0
C144 C 0.32893 0.45208 0.10962 0.0
C145 C 0.36682 0.45178 0.10196 0.0
C146 C 0.36663 0.43062 0.03706 0.0
H147 H 0.25929 0.38822 0.94793 0.0
C148 C 0.32659 0.40604 0.98408 0.0
C149 C 0.28869 0.40624 -0.00819 0.0
H150 H 0.32515 0.38878 0.934 0.0
H151 H 0.18853 0.53576 0.06123 0.0
H152 H 0.23861 0.50877 0.06239 0.0
H153 H 0.13194 0.38971 0.93391 0.0
H154 H 0.08125 0.4168 0.93282 0.0
H155 H 0.2127 0.40956 0.94899 0.0
H156 H 0.25803 0.45884 0.10711 0.0
H157 H 0.33091 0.471 0.15797 0.0
H158 H 0.39703 0.47083 0.14416 0.0
C159 C 0.66629 0.09481 0.93102 0.0
C160 C 0.66806 0.07331 -0.00541 0.0
C161 C 0.70411 0.13206 0.92082 0.0
C162 C 0.74435 0.14865 0.9739 0.0
C163 C 0.74714 0.1243 0.03278 0.0
C164 C 0.70935 0.08697 0.04283 0.0
C165 C 0.78027 0.19331 0.96981 0.0
C166 C 0.81614 0.21774 0.02551 0.0
C167 C 0.84364 0.26498 0.02361 0.0
C168 C 0.88993 0.28619 0.04375 0.0
C169 C 0.91541 0.33001 0.03396 0.0
C170 C 0.89463 0.35288 0.00461 0.0
H171 H 0.78773 0.27408 0.98816 0.0
C172 C 0.84851 0.33247 -0.00874 0.0
C173 C 0.82331 0.2891 0.00081 0.0
H174 H 0.83168 0.34959 0.9699 0.0
H175 H 0.63514 0.085 0.89236 0.0
H176 H 0.70105 0.14965 0.87406 0.0
H177 H 0.77766 0.13482 0.07352 0.0
H178 H 0.71199 0.07061 0.09166 0.0
H179 H 0.7746 0.20864 0.92092 0.0
H180 H 0.8248 0.20406 0.07416 0.0
H181 H 0.90627 0.26836 0.06307 0.0
H182 H 0.95095 0.34504 0.04455 0.0
C183 C 0.55941 0.87215 0.1052 0.0
C184 C 0.57488 0.89471 0.04466 0.0
C185 C 0.56297 0.83566 0.12054 0.0
C186 C 0.58216 0.82141 0.07552 0.0
C187 C 0.60106 0.84633 0.01972 0.0
C188 C 0.59776 0.88272 0.00477 0.0
C189 C 0.57601 0.77745 0.07528 0.0
C190 C 0.56983 0.7542 0.13403 0.0
C191 C 0.55434 0.70758 0.12194 0.0
C192 C 0.57761 0.68968 0.16313 0.0
C193 C 0.5642 0.64608 0.14604 0.0
C194 C 0.52665 0.61976 0.08895 0.0
H195 H 0.49755 0.69403 0.03458 0.0
C196 C 0.50244 0.63759 0.05058 0.0
C197 C 0.51631 0.681 0.06645 0.0
H198 H 0.47343 0.61839 0.00618 0.0
H199 H 0.5414 0.88046 0.13667 0.0
H200 H 0.54751 0.81683 0.16335 0.0
H201 H 0.61605 0.83609 0.98431 0.0
H202 H 0.61038 0.89964 0.95818 0.0
H203 H 0.57414 0.76236 0.02193 0.0
H204 H 0.57469 0.7687 0.18977 0.0
H205 H 0.60695 0.70972 0.20642 0.0
H206 H 0.58341 0.63316 0.17663 0.0
C207 C 0.9053 0.54908 0.02915 0.0
C208 C 0.91315 0.54849 0.95696 0.0
C209 C 0.87499 0.56071 0.04207 0.0
C210 C 0.85245 0.57239 0.98296 0.0
C211 C 0.86378 0.5757 0.91302 0.0
C212 C 0.89382 0.56401 0.90017 0.0
C213 C 0.81225 0.57394 0.98776 0.0
C214 C 0.80212 0.57881 0.05291 0.0
C215 C 0.75667 0.56634 0.05933 0.0
C216 C 0.74537 0.55371 0.12807 0.0
C217 C 0.70189 0.53538 0.13498 0.0
C218 C 0.66844 0.52976 0.07361 0.0
H219 H 0.73133 0.57394 0.9454 0.0
C220 C 0.67992 0.54524 0.00602 0.0
C221 C 0.72374 0.56326 -0.00128 0.0
H222 H 0.6549 0.54189 0.95814 0.0
H223 H 0.91953 0.53702 0.07381 0.0
H224 H 0.86694 0.55703 0.09665 0.0
H225 H 0.84722 0.58472 0.86659 0.0
H226 H 0.89966 0.56434 0.84408 0.0
H227 H 0.7883 0.56636 0.93534 0.0
H228 H 0.82652 0.58705 0.10501 0.0
H229 H 0.76992 0.55609 0.17596 0.0
H230 H 0.69433 0.52471 0.18846 0.0
C231 C 0.10829 0.67748 0.97151 0.0
C232 C 0.099 0.63739 0.93923 0.0
C233 C 0.14601 0.71562 0.96411 0.0
C234 C 0.17527 0.71432 0.92433 0.0
C235 C 0.16302 0.67493 0.88454 0.0
C236 C 0.12523 0.63673 0.89193 0.0
C237 C 0.22055 0.75154 0.92906 0.0
C238 C 0.24196 0.78522 0.98373 0.0
C239 C 0.29023 0.81535 -0.00341 0.0
C240 C 0.30863 0.85958 0.01867 0.0
C241 C 0.35409 0.88821 0.02731 0.0
C242 C 0.38175 0.87271 0.01531 0.0
H243 H 0.30549 0.76553 0.97585 0.0
C244 C 0.36349 0.82797 -0.00108 0.0
C245 C 0.31836 0.79971 0.9894 0.0
H246 H 0.38385 0.81472 -0.00944 0.0
H247 H 0.08807 0.67907 0.00702 0.0
H248 H 0.15294 0.74546 -0.00729 0.0
H249 H 0.18446 0.67307 0.85214 0.0
H250 H 0.11882 0.60642 0.86585 0.0
H251 H 0.23885 0.74876 0.89047 0.0
H252 H 0.22492 0.79011 0.02228 0.0
H253 H 0.28763 0.87217 0.02639 0.0
H254 H 0.36717 0.92248 0.04024 0.0
C255 C 0.48991 0.33821 0.92878 0.0
C256 C 0.4699 0.34144 0.98539 0.0
C257 C 0.48388 0.29814 0.90475 0.0
C258 C 0.45755 0.26084 0.93692 0.0
C259 C 0.43359 0.26357 0.98681 0.0
C260 C 0.44012 0.30358 0.01155 0.0
C261 C 0.45837 0.22014 0.92752 0.0
C262 C 0.49537 0.22043 0.9215 0.0
C263 C 0.50234 0.18323 0.93462 0.0
C264 C 0.54583 0.19205 0.95833 0.0
C265 C 0.55448 0.15919 0.97806 0.0
C266 C 0.51981 0.1164 0.97379 0.0
H267 H 0.43355 0.13172 0.90765 0.0
C268 C 0.47623 0.10699 0.94687 0.0
C269 C 0.4675 0.1401 0.92755 0.0
H270 H 0.44882 0.07425 0.94239 0.0
H271 H 0.51335 0.36704 0.90832 0.0
H272 H 0.50176 0.2969 0.8643 0.0
H273 H 0.4127 0.23534 0.01179 0.0
H274 H 0.42452 0.30538 0.05557 0.0
H275 H 0.43068 0.19076 0.93877 0.0
H276 H 0.52415 0.25093 0.91689 0.0
H277 H 0.57336 0.22483 0.96393 0.0
H278 H 0.58849 0.16755 -0.00221 0.0
loop_
_geom_bond_atom_site_label_1
_geom_bond_atom_site_label_2
_geom_bond_distance
_geom_bond_site_symmetry_2
_ccdc_geom_bond_type
O0 Mg1 1.990 . S
O0 C14 1.253 . S
Mg1 O0 1.990 . S
Mg1 O4 2.180 1_655 S
Mg1 O5 2.117 . S
Mg1 O19 2.030 . S
O2 Mg3 2.072 1_655 S
O2 C14 1.260 1_554 S
Mg3 O2 2.072 1_455 S
Mg3 O4 2.099 1_554 S
Mg3 O6 2.079 . S
Mg3 O7 2.072 1_554 S
Mg3 O9 2.099 . S
Mg3 O20 2.079 1_455 S
O4 Mg1 2.180 1_455 S
O4 Mg3 2.099 1_556 S
O4 C15 1.279 . S
O5 Mg1 2.117 . S
O5 C15 1.250 1_655 S
O6 Mg3 2.079 . S
O6 C16 1.264 . S
O7 Mg3 2.072 1_556 S
O7 C17 1.260 1_556 S
Mg8 O9 2.180 . S
Mg8 O10 2.030 . S
Mg8 O11 1.990 . S
Mg8 O12 2.117 . S
O9 Mg3 2.099 . S
O9 Mg8 2.180 . S
O9 C18 1.279 . S
O10 Mg8 2.030 . S
O10 C16 1.248 . S
O11 Mg8 1.990 . S
O11 C17 1.253 . S
O12 Mg8 2.117 . S
O12 C18 1.250 . S
C13 O19 1.248 . S
C13 O20 1.264 1_556 S
C14 O0 1.253 . S
C14 O2 1.260 1_556 S
C15 O4 1.279 . S
C15 O5 1.250 1_455 S
C16 O6 1.264 . S
C16 O10 1.248 . S
C17 O7 1.260 1_554 S
C17 O11 1.253 . S
C18 O9 1.279 . S
C18 O12 1.250 . S
O19 Mg1 2.030 . S
O19 C13 1.248 . S
O20 Mg3 2.079 1_655 S
O20 C13 1.264 1_554 S
O21 Mg22 1.990 . S
O21 C35 1.253 1_556 S
Mg22 O21 1.990 . S
Mg22 O25 2.180 . S
Mg22 O26 2.117 . S
Mg22 O40 2.030 . S
O23 Mg24 2.072 1_565 S
O23 C35 1.260 . S
Mg24 O23 2.072 1_545 S
Mg24 O25 2.099 1_544 S
Mg24 O27 2.079 1_554 S
Mg24 O28 2.072 . S
Mg24 O30 2.099 . S
Mg24 O41 2.079 1_545 S
O25 Mg22 2.180 . S
O25 Mg24 2.099 1_566 S
O25 C36 1.276 . S
O26 Mg22 2.117 . S
O26 C36 1.276 . S
O27 Mg24 2.079 1_556 S
O27 C37 1.264 1_556 S
O28 Mg24 2.072 . S
O28 C38 1.260 . S
Mg29 O30 2.180 . S
Mg29 O31 2.030 . S
Mg29 O32 1.990 . S
Mg29 O33 2.117 . S
O30 Mg24 2.099 . S
O30 Mg29 2.180 . S
O30 C39 1.279 . S
O31 Mg29 2.030 . S
O31 C37 1.248 . S
O32 Mg29 1.990 . S
O32 C38 1.253 . S
O33 Mg29 2.117 . S
O33 C39 1.250 . S
C34 O40 1.248 . S
C34 O41 1.264 1_556 S
C35 O21 1.253 1_554 S
C35 O23 1.260 . S
C36 O25 1.276 . S
C36 O26 1.276 . S
C37 O27 1.264 1_554 S
C37 O31 1.248 . S
C38 O28 1.260 . S
C38 O32 1.253 . S
C39 O30 1.279 . S
C39 O33 1.250 . S
O40 Mg22 2.030 . S
O40 C34 1.248 . S
O41 Mg24 2.079 1_565 S
O41 C34 1.264 1_554 S
O42 Mg43 1.990 . S
O42 C56 1.253 . S
Mg43 O42 1.990 . S
Mg43 O46 2.180 . S
Mg43 O47 2.117 . S
Mg43 O61 2.030 . S
O44 Mg45 2.072 . S
O44 C56 1.260 1_554 S
Mg45 O44 2.072 . S
Mg45 O46 2.099 1_554 S
Mg45 O48 2.079 . S
Mg45 O49 2.072 1_554 S
Mg45 O51 2.099 . S
Mg45 O62 2.079 . S
O46 Mg43 2.180 . S
O46 Mg45 2.099 1_556 S
O46 C57 1.279 . S
O47 Mg43 2.117 . S
O47 C57 1.250 . S
O48 Mg45 2.079 . S
O48 C58 1.264 . S
O49 Mg45 2.072 1_556 S
O49 C59 1.260 1_556 S
Mg50 O51 2.180 . S
Mg50 O52 2.030 . S
Mg50 O53 1.990 . S
Mg50 O54 2.117 . S
O51 Mg45 2.099 . S
O51 Mg50 2.180 . S
O51 C60 1.279 . S
O52 Mg50 2.030 . S
O52 C58 1.248 . S
O53 Mg50 1.990 . S
O53 C59 1.253 . S
O54 Mg50 2.117 . S
O54 C60 1.250 . S
C55 O61 1.248 1_554 S
C55 O62 1.264 . S
C56 O42 1.253 . S
C56 O44 1.260 1_556 S
C57 O46 1.279 . S
C57 O47 1.250 . S
C58 O48 1.264 . S
C58 O52 1.248 . S
C59 O49 1.260 1_554 S
C59 O53 1.253 . S
C60 O51 1.279 . S
C60 O54 1.250 . S
O61 Mg43 2.030 . S
O61 C55 1.248 1_556 S
O62 Mg45 2.079 . S
O62 C55 1.264 . S
C63 C64 1.386 . S
C63 C65 1.383 . S
C63 H79 0.951 . S
C64 C63 1.386 . S
C64 C68 1.383 1_455 S
C65 C63 1.383 . S
C65 C66 1.402 . S
C65 H80 0.951 . S
C66 C65 1.402 . S
C66 C67 1.375 1_455 S
C66 C69 1.481 . S
C67 C66 1.375 1_655 S
C67 C68 1.367 . S
C67 H81 0.951 . S
C68 C64 1.383 1_655 S
C68 C67 1.367 . S
C68 H82 0.950 . S
C69 C66 1.481 . S
C69 C70 1.297 . S
C69 H83 0.950 1_455 S
C70 C69 1.297 . S
C70 C71 1.479 . S
C70 H84 0.950 . S
C71 C70 1.479 . S
C71 C72 1.375 . S
C71 C77 1.404 1_455 S
C72 C71 1.375 . S
C72 C73 1.369 . S
C72 H85 0.950 . S
C73 C72 1.369 . S
C73 C74 1.392 . S
C73 H86 0.951 . S
C74 C73 1.392 . S
C74 C76 1.384 1_455 S
H75 C77 0.948 . S
C76 C74 1.384 1_655 S
C76 C77 1.385 . S
C76 H78 0.950 . S
C77 C71 1.404 1_655 S
C77 H75 0.948 . S
C77 C76 1.385 . S
H78 C76 0.950 . S
H79 C63 0.951 . S
H80 C65 0.951 . S
H81 C67 0.951 . S
H82 C68 0.950 . S
H83 C69 0.950 1_655 S
H84 C70 0.950 . S
H85 C72 0.950 . S
H86 C73 0.951 . S
C87 C88 1.386 1_565 S
C87 C89 1.383 . S
C87 H103 0.951 . S
C88 C87 1.386 1_545 S
C88 C92 1.383 . S
C89 C87 1.383 . S
C89 C90 1.402 1_565 S
C89 H104 0.951 . S
C90 C89 1.402 1_545 S
C90 C91 1.375 . S
C90 C93 1.481 . S
C91 C90 1.375 . S
C91 C92 1.367 . S
C91 H105 0.951 . S
C92 C88 1.383 . S
C92 C91 1.367 . S
C92 H106 0.950 . S
C93 C90 1.481 . S
C93 C94 1.297 1_545 S
C93 H107 0.950 . S
C94 C93 1.297 1_565 S
C94 C95 1.479 . S
C94 H108 0.950 . S
C95 C94 1.479 . S
C95 C96 1.375 . S
C95 C101 1.404 1_565 S
C96 C95 1.375 . S
C96 C97 1.369 . S
C96 H109 0.950 . S
C97 C96 1.369 . S
C97 C98 1.392 1_565 S
C97 H110 0.951 . S
C98 C97 1.392 1_545 S
C98 C100 1.384 . S
H99 C101 0.949 . S
C100 C98 1.384 . S
C100 C101 1.385 . S
C100 H102 0.950 . S
C101 C95 1.404 1_545 S
C101 H99 0.949 . S
C101 C100 1.385 . S
H102 C100 0.950 . S
H103 C87 0.951 . S
H104 C89 0.951 . S
H105 C91 0.951 . S
H106 C92 0.950 . S
H107 C93 0.950 . S
H108 C94 0.950 . S
H109 C96 0.950 . S
H110 C97 0.951 . S
C111 C112 1.386 . S
C111 C113 1.383 . S
C111 H127 0.951 . S
C112 C111 1.386 . S
C112 C116 1.383 . S
C113 C111 1.383 . S
C113 C114 1.402 . S
C113 H128 0.951 . S
C114 C113 1.402 . S
C114 C115 1.375 . S
C114 C117 1.481 . S
C115 C114 1.375 . S
C115 C116 1.367 . S
C115 H129 0.951 . S
C116 C112 1.383 . S
C116 C115 1.367 . S
C116 H130 0.950 . S
C117 C114 1.481 . S
C117 C118 1.297 . S
C117 H131 0.950 . S
C118 C117 1.297 . S
C118 C119 1.479 . S
C118 H132 0.950 . S
C119 C118 1.479 . S
C119 C120 1.375 . S
C119 C125 1.404 . S
C120 C119 1.375 . S
C120 C121 1.369 . S
C120 H133 0.950 . S
C121 C120 1.369 . S
C121 C122 1.392 . S
C121 H134 0.951 . S
C122 C121 1.392 . S
C122 C124 1.384 . S
H123 C125 0.949 . S
C124 C122 1.384 . S
C124 C125 1.385 . S
C124 H126 0.950 . S
C125 C119 1.404 . S
C125 H123 0.949 . S
C125 C124 1.385 . S
H126 C124 0.950 . S
H127 C111 0.951 . S
H128 C113 0.951 . S
H129 C115 0.951 . S
H130 C116 0.950 . S
H131 C117 0.950 . S
H132 C118 0.950 . S
H133 C120 0.950 . S
H134 C121 0.951 . S
C135 C136 1.386 . S
C135 C137 1.383 . S
C135 H151 0.951 . S
C136 C135 1.386 . S
C136 C140 1.383 . S
C137 C135 1.383 . S
C137 C138 1.402 . S
C137 H152 0.951 . S
C138 C137 1.402 . S
C138 C139 1.375 . S
C138 C141 1.481 . S
C139 C138 1.375 . S
C139 C140 1.367 . S
C139 H153 0.951 . S
C140 C136 1.383 . S
C140 C139 1.367 . S
C140 H154 0.950 . S
C141 C138 1.481 . S
C141 C142 1.297 . S
C141 H155 0.950 . S
C142 C141 1.297 . S
C142 C143 1.479 . S
C142 H156 0.950 . S
C143 C142 1.479 . S
C143 C144 1.375 . S
C143 C149 1.404 . S
C144 C143 1.375 . S
C144 C145 1.369 . S
C144 H157 0.950 . S
C145 C144 1.369 . S
C145 C146 1.392 . S
C145 H158 0.951 . S
C146 C145 1.392 . S
C146 C148 1.384 . S
H147 C149 0.949 . S
C148 C146 1.384 . S
C148 C149 1.385 . S
C148 H150 0.950 . S
C149 C143 1.404 . S
C149 H147 0.949 . S
C149 C148 1.385 . S
H150 C148 0.950 . S
H151 C135 0.951 . S
H152 C137 0.951 . S
H153 C139 0.951 . S
H154 C140 0.950 . S
H155 C141 0.950 . S
H156 C142 0.950 . S
H157 C144 0.950 . S
H158 C145 0.951 . S
C159 C160 1.386 1_556 S
C159 C161 1.383 . S
C159 H175 0.951 . S
C160 C159 1.386 1_554 S
C160 C164 1.383 . S
C161 C159 1.383 . S
C161 C162 1.402 1_556 S
C161 H176 0.951 . S
C162 C161 1.402 1_554 S
C162 C163 1.375 . S
C162 C165 1.481 . S
C163 C162 1.375 . S
C163 C164 1.367 . S
C163 H177 0.951 . S
C164 C160 1.383 . S
C164 C163 1.367 . S
C164 H178 0.950 . S
C165 C162 1.481 . S
C165 C166 1.297 1_554 S
C165 H179 0.950 . S
C166 C165 1.297 1_556 S
C166 C167 1.479 1_556 S
C166 H180 0.950 . S
C167 C166 1.479 1_554 S
C167 C168 1.375 1_554 S
C167 C173 1.404 . S
C168 C167 1.375 1_556 S
C168 C169 1.369 . S
C168 H181 0.950 . S
C169 C168 1.369 . S
C169 C170 1.392 1_556 S
C169 H182 0.951 . S
C170 C169 1.392 1_554 S
C170 C172 1.384 . S
H171 C173 0.949 . S
C172 C170 1.384 . S
C172 C173 1.385 . S
C172 H174 0.950 . S
C173 C167 1.404 . S
C173 H171 0.949 . S
C173 C172 1.385 . S
H174 C172 0.950 . S
H175 C159 0.951 . S
H176 C161 0.951 . S
H177 C163 0.951 . S
H178 C164 0.950 . S
H179 C165 0.950 . S
H180 C166 0.950 . S
H181 C168 0.950 . S
H182 C169 0.951 . S
C183 C184 1.386 . S
C183 C185 1.383 . S
C183 H199 0.951 . S
C184 C183 1.386 . S
C184 C188 1.383 1_554 S
C185 C183 1.383 . S
C185 C186 1.402 . S
C185 H200 0.951 . S
C186 C185 1.402 . S
C186 C187 1.375 1_554 S
C186 C189 1.481 . S
C187 C186 1.375 1_556 S
C187 C188 1.367 . S
C187 H201 0.951 . S
C188 C184 1.383 1_556 S
C188 C187 1.367 . S
C188 H202 0.950 . S
C189 C186 1.481 . S
C189 C190 1.297 . S
C189 H203 0.950 1_554 S
C190 C189 1.297 . S
C190 C191 1.479 . S
C190 H204 0.950 . S
C191 C190 1.479 . S
C191 C192 1.375 . S
C191 C197 1.404 1_554 S
C192 C191 1.375 . S
C192 C193 1.369 . S
C192 H205 0.950 . S
C193 C192 1.369 . S
C193 C194 1.392 . S
C193 H206 0.951 . S
C194 C193 1.392 . S
C194 C196 1.384 1_554 S
H195 C197 0.949 . S
C196 C194 1.384 1_556 S
C196 C197 1.385 . S
C196 H198 0.950 . S
C197 C191 1.404 1_556 S
C197 H195 0.949 . S
C197 C196 1.385 . S
H198 C196 0.950 . S
H199 C183 0.951 . S
H200 C185 0.951 . S
H201 C187 0.951 . S
H202 C188 0.950 . S
H203 C189 0.950 1_556 S
H204 C190 0.950 . S
H205 C192 0.950 . S
H206 C193 0.951 . S
C207 C208 1.386 . S
C207 C209 1.383 . S
C207 H223 0.951 . S
C208 C207 1.386 . S
C208 C212 1.383 1_554 S
C209 C207 1.383 . S
C209 C210 1.402 1_554 S
C209 H224 0.951 . S
C210 C209 1.402 1_556 S
C210 C211 1.375 . S
C210 C213 1.481 . S
C211 C210 1.375 . S
C211 C212 1.367 . S
C211 H225 0.951 . S
C212 C208 1.383 1_556 S
C212 C211 1.367 . S
C212 H226 0.950 . S
C213 C210 1.481 . S
C213 C214 1.297 1_556 S
C213 H227 0.950 . S
C214 C213 1.297 1_554 S
C214 C215 1.479 . S
C214 H228 0.950 . S
C215 C214 1.479 . S
C215 C216 1.375 . S
C215 C221 1.404 1_554 S
C216 C215 1.375 . S
C216 C217 1.369 . S
C216 H229 0.950 . S
C217 C216 1.369 . S
C217 C218 1.392 . S
C217 H230 0.951 . S
C218 C217 1.392 . S
C218 C220 1.384 1_554 S
H219 C221 0.949 . S
C220 C218 1.384 1_556 S
C220 C221 1.385 . S
C220 H222 0.950 . S
C221 C215 1.404 1_556 S
C221 H219 0.949 . S
C221 C220 1.385 . S
H222 C220 0.950 . S
H223 C207 0.951 . S
H224 C209 0.951 . S
H225 C211 0.951 . S
H226 C212 0.950 . S
H227 C213 0.950 . S
H228 C214 0.950 . S
H229 C216 0.950 . S
H230 C217 0.951 . S
C231 C232 1.386 . S
C231 C233 1.383 . S
C231 H247 0.951 . S
C232 C231 1.386 . S
C232 C236 1.383 . S
C233 C231 1.383 . S
C233 C234 1.402 . S
C233 H248 0.951 . S
C234 C233 1.402 . S
C234 C235 1.375 . S
C234 C237 1.481 . S
C235 C234 1.375 . S
C235 C236 1.367 . S
C235 H249 0.951 1_554 S
C236 C232 1.383 . S
C236 C235 1.367 . S
C236 H250 0.950 1_554 S
C237 C234 1.481 . S
C237 C238 1.297 . S
C237 H251 0.950 . S
C238 C237 1.297 . S
C238 C239 1.479 . S
C238 H252 0.950 . S
C239 C238 1.479 . S
C239 C240 1.375 . S
C239 C245 1.404 . S
C240 C239 1.375 . S
C240 C241 1.369 . S
C240 H253 0.950 . S
C241 C240 1.369 . S
C241 C242 1.392 . S
C241 H254 0.951 . S
C242 C241 1.392 . S
C242 C244 1.384 . S
H243 C245 0.949 . S
C244 C242 1.384 . S
C244 C245 1.385 . S
C244 H246 0.950 . S
C245 C239 1.404 . S
C245 H243 0.949 . S
C245 C244 1.385 . S
H246 C244 0.950 . S
H247 C231 0.951 . S
H248 C233 0.951 . S
H249 C235 0.951 1_556 S
H250 C236 0.950 1_556 S
H251 C237 0.950 . S
H252 C238 0.950 . S
H253 C240 0.950 . S
H254 C241 0.951 . S
C255 C256 1.386 . S
C255 C257 1.383 . S
C255 H271 0.951 . S
C256 C255 1.386 . S
C256 C260 1.383 1_556 S
C257 C255 1.383 . S
C257 C258 1.402 1_556 S
C257 H272 0.951 . S
C258 C257 1.402 1_554 S
C258 C259 1.375 . S
C258 C261 1.481 . S
C259 C258 1.375 . S
C259 C260 1.367 . S
C259 H273 0.951 . S
C260 C256 1.383 1_554 S
C260 C259 1.367 . S
C260 H274 0.950 . S
C261 C258 1.481 . S
C261 C262 1.297 . S
C261 H275 0.950 . S
C262 C261 1.297 . S
C262 C263 1.479 . S
C262 H276 0.950 . S
C263 C262 1.479 . S
C263 C264 1.375 1_554 S
C263 C269 1.404 . S
C264 C263 1.375 1_556 S
C264 C265 1.369 . S
C264 H277 0.950 . S
C265 C264 1.369 . S
C265 C266 1.392 1_556 S
C265 H278 0.951 . S
C266 C265 1.392 1_554 S
C266 C268 1.384 . S
H267 C269 0.949 . S
C268 C266 1.384 . S
C268 C269 1.385 . S
C268 H270 0.950 . S
C269 C263 1.404 . S
C269 H267 0.949 . S
C269 C268 1.385 . S
H270 C268 0.950 . S
H271 C255 0.951 . S
H272 C257 0.951 . S
H273 C259 0.951 . S
H274 C260 0.950 . S
H275 C261 0.950 . S
H276 C262 0.950 . S
H277 C264 0.950 . S
H278 C265 0.951 . S
C64 C15 1.246 . S
C74 C18 1.287 . S
C88 C39 1.279 . S
C98 C36 1.175 1_545 S
C112 C57 1.317 . S
C122 C60 1.290 . S
C136 C17 1.121 . S
C146 C56 1.181 1_554 S
C160 C38 1.094 . S
C170 C14 1.078 1_554 S
C184 C35 1.064 . S
C194 C55 1.082 . S
C208 C13 1.095 1_554 S
C218 C58 1.126 . S
C232 C16 1.047 . S
C242 C34 1.117 1_554 S
C256 C59 1.072 1_556 S
C266 C37 1.028 . S
