# Generated by pormake.
# Topology sxc, (6)-cn, num edge types: 1
# Building blocks:
#     Node 0, Type 0, BuildingBlock: UKALOJ_clean_sbu_0, # of connection points: 6
#     Node 1, Type 0, BuildingBlock: UKALOJ_clean_sbu_0, # of connection points: 6
#     Node 2, Type 0, BuildingBlock: UKALOJ_clean_sbu_0, # of connection points: 6
#     Edge 3, Type (0, 0), BuildingBlock: ZUJKAS_clean_linker_0, # of connection points: 2
#     Edge 4, Type (0, 0), BuildingBlock: ZUJKAS_clean_linker_0, # of connection points: 2
#     Edge 5, Type (0, 0), BuildingBlock: ZUJKAS_clean_linker_0, # of connection points: 2
#     Edge 6, Type (0, 0), BuildingBlock: ZUJKAS_clean_linker_0, # of connection points: 2
#     Edge 7, Type (0, 0), BuildingBlock: ZUJKAS_clean_linker_0, # of connection points: 2
#     Edge 8, Type (0, 0), BuildingBlock: ZUJKAS_clean_linker_0, # of connection points: 2
#     Edge 9, Type (0, 0), BuildingBlock: ZUJKAS_clean_linker_0, # of connection points: 2
#     Edge 10, Type (0, 0), BuildingBlock: ZUJKAS_clean_linker_0, # of connection points: 2
#     Edge 11, Type (0, 0), BuildingBlock: ZUJKAS_clean_linker_0, # of connection points: 2
# Relax obj value: 0.125
# Max RMSD: 0.182
# Mean RMSD: 0.182
data_MOF--net-sxc--node1-UKALOJ_clean_sbu_0--edge1-ZUJKAS_clean_linker_0
_symmetry_space_group_name_H-M    P1
_symmetry_Int_Tables_number       1
_symmetry_cell_setting            triclinic
loop_
_symmetry_equiv_pos_as_xyz
'x, y, z'
_cell_length_a     19.172616
_cell_length_b     19.130618
_cell_length_c     74.136326
_cell_angle_alpha  90.109011
_cell_angle_beta   89.904832
_cell_angle_gamma 119.94365
loop_
_atom_site_label
_atom_site_type_symbol
_atom_site_fract_x
_atom_site_fract_y
_atom_site_fract_z
_atom_type_partial_charge
Zn0 Zn 0.02255 0.07553 1.0057 0.0
O1 O 0.05501 -0.01249 1.00165 0.0
C2 C 0.86583 0.95778 0.01946 0.0
Zn3 Zn 0.02537 0.06934 0.03574 0.0
C4 C 0.06655 0.95768 0.01584 0.0
O5 O 0.05785 0.98162 0.03121 0.0
C6 C -0.0185 0.18723 0.02564 0.0
O7 O 0.14641 0.15649 0.03671 0.0
O8 O 0.14405 0.16333 1.00715 0.0
N9 N 0.02342 0.04821 0.06282 0.0
C10 C 0.04295 0.09553 0.0776 0.0
C11 C 0.00516 0.97598 0.08654 0.0
N12 N -0.0001 0.97404 0.06844 0.0
N13 N 0.03176 0.05143 0.09268 0.0
C14 C 0.00616 0.04935 0.96385 0.0
C15 C 0.03984 0.16782 0.95482 0.0
N16 N 0.0239 0.09657 0.97861 0.0
N17 N 0.04474 0.17005 0.97293 0.0
N18 N 0.01593 0.09282 0.94875 0.0
H19 H 0.94152 0.93361 0.97699 0.0
H20 H 0.02707 0.94975 0.96383 0.0
H21 H 0.93566 0.92987 0.95263 0.0
C22 C -0.02474 0.96035 0.96436 0.0
C23 C 0.07675 0.18502 0.07715 0.0
H24 H 0.10849 0.21087 0.06428 0.0
H25 H 0.11883 0.21455 0.08856 0.0
H26 H 0.02662 0.19798 0.07837 0.0
O27 O -0.00673 0.15751 0.03982 0.0
O28 O -0.01014 0.16309 1.01026 0.0
C29 C 0.18231 0.18658 0.02193 0.0
O30 O 0.90179 -0.01193 1.0047 0.0
O31 O 0.90381 0.98149 0.03427 0.0
Zn32 Zn 0.08807 0.10432 0.33937 0.0
O33 O 0.96702 0.07035 0.33789 0.0
C34 C 0.13074 0.26608 0.34944 0.0
Zn35 Zn 0.08853 0.11321 0.36941 0.0
C36 C 0.92996 0.06463 0.35249 0.0
O37 O 0.96697 0.07937 0.36744 0.0
C38 C 0.24652 0.15253 0.3563 0.0
O39 O 0.05599 -0.00723 0.3735 0.0
O40 O 0.05543 -0.01604 0.34395 0.0
N41 N 0.08506 0.13282 0.39644 0.0
C42 C 0.1036 0.10502 0.41134 0.0
C43 C 0.06732 0.18841 0.42002 0.0
N44 N 0.06249 0.1845 0.40191 0.0
N45 N 0.09277 0.13897 0.42631 0.0
C46 C 0.07355 0.11305 0.29744 0.0
C47 C 0.11239 0.03168 0.28875 0.0
N48 N 0.09212 0.0853 0.31234 0.0
N49 N 0.11631 0.0349 0.30687 0.0
N50 N 0.08602 0.08038 0.28245 0.0
H51 H -0.00209 0.1556 0.28615 0.0
H52 H 0.08946 0.23164 0.29653 0.0
H53 H 0.00698 0.16266 0.31046 0.0
C54 C 0.03943 0.16848 0.29769 0.0
C55 C 0.13619 0.04829 0.41109 0.0
H56 H 0.16875 0.05382 0.39835 0.0
H57 H 0.08533 -0.01449 0.41215 0.0
H58 H 0.17725 0.06014 0.42267 0.0
O59 O 0.20948 0.14678 0.3709 0.0
O60 O 0.20961 0.13827 0.34135 0.0
C61 C 0.0457 0.95138 0.35934 0.0
O62 O 0.12029 0.22465 0.33528 0.0
O63 O 0.12134 0.23356 0.36482 0.0
Zn64 Zn 0.06568 0.02081 0.70258 0.0
O65 O -0.0219 0.05426 0.70542 0.0
C66 C 0.94868 0.86135 0.69068 0.0
Zn67 Zn 0.05945 0.01812 0.6725 0.0
C68 C 0.94809 0.06298 0.69093 0.0
O69 O 0.97163 0.05114 0.6758 0.0
C70 C 0.17755 0.97671 0.68401 0.0
O71 O 0.14642 0.13926 0.66997 0.0
O72 O 0.15305 0.14187 0.69959 0.0
N73 N 0.03693 0.00626 0.64538 0.0
C74 C 0.08326 0.03814 0.6306 0.0
C75 C 0.96381 0.95779 0.62154 0.0
N76 N 0.96283 0.95649 0.63969 0.0
N77 N 0.0386 0.00869 0.61546 0.0
C78 C 0.04218 0.01463 0.74454 0.0
C79 C 0.16168 0.05265 0.75337 0.0
N80 N 0.08831 0.03023 0.72968 0.0
N81 N 0.16245 0.05396 0.73524 0.0
N82 N 0.087 0.02835 0.75959 0.0
H83 H 0.94138 0.03329 0.74475 0.0
H84 H 0.92396 0.94293 0.75613 0.0
H85 H 0.92603 0.94745 0.73173 0.0
C86 C 0.95309 0.98209 0.74425 0.0
C87 C 0.17241 0.09444 0.63105 0.0
H88 H 0.1844 0.15747 0.63088 0.0
H89 H 0.20167 0.08513 0.61908 0.0
H90 H 0.19917 0.08583 0.64348 0.0
O91 O 0.14741 -0.01442 0.66958 0.0
O92 O 0.15334 -0.01263 0.69916 0.0
C93 C 0.17655 0.17762 0.68452 0.0
O94 O -0.0216 0.90003 0.70519 0.0
O95 O 0.97257 0.89681 0.6756 0.0
H96 H 0.01194 0.28911 0.05406 0.0
H97 H 0.02135 0.42122 0.05274 0.0
H98 H 0.93227 0.37328 0.99809 0.0
H99 H 0.92343 0.24169 0.9992 0.0
H100 H 0.08784 0.50983 1.00275 0.0
H101 H 0.86289 0.5088 0.0504 0.0
H102 H 0.92315 0.46881 0.0592 0.0
H103 H 0.85401 0.41731 0.0411 0.0
C104 C -0.00821 0.30564 0.042 0.0
C105 C 0.96808 0.25604 0.02664 0.0
C106 C -0.00291 0.38092 0.04128 0.0
C107 C -0.02234 0.4064 0.0253 0.0
C108 C 0.94761 0.3542 1.01049 0.0
H109 H 0.03644 0.85568 0.98745 0.0
H110 H 0.02773 0.72389 0.98881 0.0
C111 C 0.94269 0.27931 1.01116 0.0
C112 C -0.00043 0.49102 0.02309 0.0
H113 H 0.96158 0.63572 0.03883 0.0
C114 C 0.06006 0.53752 1.01054 0.0
C115 C 0.96338 0.52619 0.03343 0.0
C116 C 0.89677 0.47772 0.0467 0.0
C117 C 0.08606 0.61936 1.00816 0.0
C118 C 0.04984 0.65452 0.01849 0.0
C119 C -0.01062 0.60803 0.03105 0.0
C120 C 0.07155 0.73908 0.01625 0.0
C121 C 0.15264 0.66782 0.99488 0.0
C122 C 0.10144 0.79139 0.03103 0.0
C123 C 0.10595 0.86609 0.03034 0.0
C124 C 0.08031 0.88907 0.01486 0.0
C125 C 0.05678 0.83939 0.99951 0.0
C126 C 0.05189 0.76429 1.00026 0.0
H127 H 0.18659 0.6368 0.9912 0.0
H128 H 0.12621 0.67659 0.98237 0.0
H129 H 0.19533 0.72829 1.00046 0.0
H130 H 0.11694 0.7725 0.04344 0.0
H131 H 0.1251 0.90378 0.0423 0.0
H132 H 0.33095 0.15168 0.38574 0.0
H133 H 0.45359 0.14255 0.38545 0.0
H134 H 0.46784 0.17029 0.32759 0.0
H135 H 0.34588 0.18008 0.3277 0.0
H136 H 0.44875 0.01258 0.36501 0.0
H137 H 0.70306 0.31203 0.34501 0.0
H138 H 0.61107 0.2994 0.35479 0.0
H139 H 0.614 0.27589 0.33143 0.0
C140 C 0.36157 0.15835 0.37303 0.0
C141 C 0.32851 0.16543 0.35671 0.0
C142 C 0.43134 0.153 0.3729 0.0
C143 C 0.46906 0.15579 0.35651 0.0
C144 C 0.4397 0.16902 0.34037 0.0
H145 H 0.84471 0.06348 0.32301 0.0
H146 H 0.72101 0.07066 0.32324 0.0
C147 C 0.36987 0.17409 0.34046 0.0
C148 C 0.53159 0.13325 0.35589 0.0
H149 H 0.72589 0.20091 0.34365 0.0
C150 C 0.50965 0.05376 0.36049 0.0
C151 C 0.61005 0.18718 0.34974 0.0
C152 C 0.63642 0.27364 0.34508 0.0
C153 C 0.56461 0.02631 0.35893 0.0
C154 C 0.64306 0.08025 0.35278 0.0
C155 C 0.66498 0.15972 0.34816 0.0
C156 C 0.70574 0.0579 0.35219 0.0
C157 C 0.53835 0.93991 0.36361 0.0
C158 C 0.73556 0.04554 0.36836 0.0
C159 C 0.80606 0.04169 0.36831 0.0
C160 C 0.84758 0.05067 0.35207 0.0
C161 C 0.81401 0.05668 0.33572 0.0
C162 C 0.74359 0.06083 0.33581 0.0
H163 H 0.47171 0.9015 0.36375 0.0
H164 H 0.56353 0.91408 0.35388 0.0
H165 H 0.56108 0.9378 0.37724 0.0
H166 H 0.70731 0.04419 0.38112 0.0
H167 H 0.83038 0.03642 0.38109 0.0
H168 H 0.88494 0.75742 0.66252 0.0
H169 H 0.75238 0.6363 0.66165 0.0
H170 H 0.72285 0.65992 0.71861 0.0
H171 H 0.85573 0.78131 0.71972 0.0
H172 H 0.6616 0.49225 0.70295 0.0
H173 H 0.55988 0.68504 0.66878 0.0
H174 H 0.64671 0.68568 0.65935 0.0
H175 H 0.65252 0.72661 0.68145 0.0
C176 C 0.85111 0.73577 0.67496 0.0
C177 C 0.87959 0.77938 0.69113 0.0
C178 C 0.77566 0.66684 0.67441 0.0
C179 C 0.72822 0.64114 0.68998 0.0
C180 C 0.7592 0.67995 0.70648 0.0
H181 H 0.24059 0.2811 0.71274 0.0
H182 H 0.37308 0.40231 0.71362 0.0
C183 C 0.83491 0.74894 0.70708 0.0
C184 C 0.64336 0.57946 0.68862 0.0
H185 H 0.46354 0.5469 0.67223 0.0
C186 C 0.61805 0.50386 0.6963 0.0
C187 C 0.58764 0.59607 0.67994 0.0
C188 C 0.61256 0.67788 0.672 0.0
C189 C 0.53751 0.44306 0.69524 0.0
C190 C 0.48176 0.45969 0.68657 0.0
C191 C 0.50708 0.53528 0.67889 0.0
C192 C 0.39687 0.39805 0.68524 0.0
C193 C 0.51266 0.36121 0.70314 0.0
C194 C 0.36565 0.35956 0.66872 0.0
C195 C 0.28998 0.29052 0.66813 0.0
C196 C 0.24557 0.25968 0.68409 0.0
C197 C 0.27423 0.30301 0.70029 0.0
C198 C 0.34964 0.372 0.70084 0.0
H199 H 0.56537 0.35394 0.70625 0.0
H200 H 0.4789 0.35347 0.71585 0.0
H201 H 0.4724 0.3125 0.69372 0.0
H202 H 0.40181 0.37986 0.65656 0.0
H203 H 0.26904 0.25845 0.65546 0.0
H204 H 0.88841 0.10854 0.66302 0.0
H205 H 0.75856 0.10287 0.66206 0.0
H206 H 0.72324 0.04257 0.71864 0.0
H207 H 0.85355 0.04872 0.71981 0.0
H208 H 0.62191 0.95138 0.67088 0.0
H209 H 0.63967 0.20355 0.71188 0.0
H210 H 0.72756 0.2057 0.70236 0.0
H211 H 0.68115 0.14747 0.72227 0.0
C212 C 0.854 0.09622 0.67538 0.0
C213 C 0.88016 0.07777 0.69143 0.0
C214 C 0.78014 0.09321 0.67479 0.0
C215 C 0.73194 0.07218 0.69026 0.0
C216 C 0.76051 0.0599 0.70664 0.0
H217 H 0.24188 0.93602 0.71188 0.0
H218 H 0.37439 0.9475 0.71256 0.0
C219 C 0.8347 0.06318 0.70727 0.0
C220 C 0.64753 0.05095 0.68858 0.0
H221 H 0.50926 0.09976 0.70334 0.0
C222 C 0.59711 -0.01598 0.67785 0.0
C223 C 0.6162 0.09357 0.69786 0.0
C224 C 0.66893 0.16701 0.70915 0.0
C225 C 0.51505 0.95767 0.67633 0.0
C226 C 0.48365 0.00012 0.68566 0.0
C227 C 0.53411 0.06725 0.69634 0.0
C228 C 0.39877 0.97755 0.68428 0.0
C229 C 0.46235 0.88404 0.66509 0.0
C230 C 0.36824 -0.01235 0.66794 0.0
C231 C 0.29248 0.98084 0.66746 0.0
C232 C 0.24734 0.96492 0.6834 0.0
C233 C 0.27585 0.94906 0.69943 0.0
C234 C 0.35131 0.95558 0.69987 0.0
H235 H 0.49189 0.84784 0.66227 0.0
H236 H 0.404 0.84506 0.67196 0.0
H237 H 0.44953 0.90335 0.652 0.0
H238 H 0.40488 0.00561 0.65584 0.0
H239 H 0.27192 -0.00647 0.65494 0.0
H240 H 0.77793 0.87368 0.99023 0.0
H241 H 0.65643 0.7414 0.99072 0.0
H242 H 0.64815 0.75246 0.04876 0.0
H243 H 0.77015 0.88446 0.0485 0.0
H244 H 0.66016 0.62088 0.03448 0.0
H245 H 0.41591 0.6527 1.00218 0.0
H246 H 0.50973 0.69862 0.99009 0.0
H247 H 0.50435 0.73716 1.01185 0.0
C248 C 0.74894 0.84908 1.00306 0.0
C249 C 0.78395 0.88853 0.01936 0.0
C250 C 0.67949 0.77376 1.00329 0.0
C251 C 0.64407 0.73789 0.01978 0.0
C252 C 0.67525 0.77979 0.03595 0.0
H253 H 0.27163 0.27035 0.05105 0.0
H254 H 0.39547 0.40074 0.05036 0.0
C255 C 0.74476 0.85495 0.03575 0.0
C256 C 0.58185 0.65271 0.02029 0.0
H257 H 0.39198 0.51953 1.00641 0.0
C258 C 0.60121 0.59847 0.02847 0.0
C259 C 0.50596 0.6246 1.01222 0.0
C260 C 0.48222 0.68126 1.00371 0.0
C261 C 0.54617 0.51576 0.02866 0.0
C262 C 0.47026 0.48768 0.02061 0.0
C263 C 0.45098 0.54191 1.01241 0.0
C264 C 0.40755 0.40272 0.02131 0.0
C265 C 0.56973 0.45905 0.03722 0.0
C266 C 0.37547 0.36049 1.00521 0.0
C267 C 0.30461 0.2865 1.00553 0.0
C268 C 0.26497 0.25444 0.02196 0.0
C269 C 0.30088 0.29389 0.03819 0.0
C270 C 0.37172 0.36806 0.03785 0.0
H271 H 0.63604 0.4875 0.03875 0.0
H272 H 0.5422 0.44186 0.05083 0.0
H273 H 0.54745 0.40306 0.0291 0.0
H274 H 0.40283 0.38692 0.99235 0.0
H275 H 0.2786 0.25684 0.99283 0.0
H276 H 0.10359 0.33786 0.32065 0.0
H277 H 0.09493 0.46121 0.32155 0.0
H278 H 0.17517 0.50031 0.37689 0.0
H279 H 0.18471 0.3781 0.37609 0.0
H280 H -0.0132 0.46646 0.34713 0.0
H281 H 0.29622 0.72732 0.35465 0.0
H282 H 0.27626 0.63136 0.34556 0.0
H283 H 0.27329 0.64449 0.3695 0.0
C284 C 0.12206 0.37431 0.33278 0.0
C285 C 0.14388 0.34824 0.34837 0.0
C286 C 0.11683 0.44438 0.33329 0.0
C287 C 0.13455 0.48934 0.34927 0.0
C288 C 0.16236 0.46676 0.36437 0.0
H289 H 0.07192 0.87914 0.38818 0.0
H290 H 0.07971 0.75531 0.38733 0.0
C291 C 0.16723 0.39672 0.36392 0.0
C292 C 0.11261 0.55224 0.35118 0.0
H293 H 0.18802 0.75015 0.36175 0.0
C294 C 0.03071 0.52876 0.35015 0.0
C295 C 0.17022 0.63264 0.35541 0.0
C296 C 0.25903 0.66082 0.35621 0.0
C297 C 0.0046 0.58398 0.35347 0.0
C298 C 0.06221 0.66439 0.3577 0.0
C299 C 0.1441 0.68785 0.35873 0.0
C300 C 0.04034 0.72734 0.35959 0.0
C301 C 0.9158 0.55585 0.35265 0.0
C302 C 0.01294 0.75017 0.34446 0.0
C303 C 0.00863 0.82052 0.34488 0.0
C304 C 0.0321 0.86904 0.36043 0.0
C305 C 0.05341 0.8427 0.37604 0.0
C306 C 0.0581 0.77232 0.37557 0.0
H307 H 0.87857 0.48933 0.35417 0.0
H308 H 0.89855 0.58522 0.36332 0.0
H309 H 0.90163 0.57236 0.33937 0.0
H310 H 0.00011 0.7166 0.33195 0.0
H311 H -0.00851 0.83933 0.33269 0.0
H312 H 0.01909 0.96402 0.25744 0.0
H313 H 0.00989 0.98132 0.22497 0.0
H314 H 0.11907 0.23842 0.23253 0.0
H315 H 0.12981 0.22122 0.26506 0.0
H316 H 0.93396 0.05532 0.20552 0.0
H317 H 0.266 0.20976 0.19541 0.0
H318 H 0.21815 0.1541 0.21567 0.0
H319 H 0.2291 0.25181 0.21208 0.0
C320 C 0.04038 0.02407 0.25215 0.0
C321 C 0.07419 0.09112 0.26373 0.0
C322 C 0.03494 0.03391 0.23366 0.0
C323 C 0.06417 0.11115 0.22636 0.0
C324 C 0.09654 0.17834 0.23791 0.0
H325 H -0.01167 0.14901 0.11006 0.0
H326 H -4e-05 0.17813 0.14256 0.0
C327 C 0.10173 0.16841 0.25649 0.0
C328 C 0.06336 0.12042 0.20654 0.0
H329 H 0.18584 0.18175 0.16952 0.0
C330 C -0.01108 0.08407 0.19762 0.0
C331 C 0.13534 0.1573 0.19634 0.0
C332 C 0.21687 0.19512 0.20526 0.0
C333 C -0.01555 0.08142 0.17871 0.0
C334 C 0.05643 0.11681 0.1685 0.0
C335 C 0.13087 0.15532 0.17743 0.0
C336 C 0.05561 0.10653 0.14868 0.0
C337 C 0.90292 0.0372 0.16979 0.0
C338 C 0.08509 0.05868 0.14136 0.0
C339 C 0.07915 0.04273 0.12288 0.0
C340 C 0.04457 0.07514 0.11134 0.0
C341 C 0.01698 0.12491 0.1186 0.0
C342 C 0.02267 0.14069 0.13716 0.0
H343 H 0.85388 0.00251 0.17964 0.0
H344 H 0.89033 0.08139 0.16301 0.0
H345 H 0.90191 -0.00501 0.15935 0.0
H346 H 0.11059 0.03165 0.15003 0.0
H347 H 0.10051 0.00398 0.11759 0.0
H348 H 0.16286 0.25508 0.45134 0.0
H349 H 0.1714 0.23698 0.48382 0.0
H350 H 0.05202 0.97914 0.47616 0.0
H351 H 0.04411 -0.00253 0.44366 0.0
H352 H 0.04419 0.1571 0.50619 0.0
H353 H 0.23661 0.01688 0.5091 0.0
H354 H 0.22899 0.06665 0.48915 0.0
H355 H 0.15175 0.96524 0.49431 0.0
C356 C 0.13983 0.19474 0.45661 0.0
C357 C 0.10429 0.12779 0.44501 0.0
C358 C 0.14469 0.18441 0.47512 0.0
C359 C 0.11363 0.10681 0.48239 0.0
C360 C 0.07859 0.03972 0.4708 0.0
H361 H -0.00912 0.90022 0.58861 0.0
H362 H 0.01653 0.92797 0.55627 0.0
C363 C 0.07416 0.05015 0.45224 0.0
C364 C 0.11175 0.09601 0.50224 0.0
H365 H 0.16614 0.01203 0.53612 0.0
C366 C 0.07167 0.1262 0.51276 0.0
C367 C 0.14739 0.05541 0.51076 0.0
C368 C 0.19428 0.02483 0.50028 0.0
C369 C 0.0644 0.11511 0.5315 0.0
C370 C 0.0991 0.07364 0.53999 0.0
C371 C 0.13985 0.04403 0.52954 0.0
C372 C 0.09008 0.05717 0.55961 0.0
C373 C 0.0174 0.14557 0.54201 0.0
C374 C 0.1243 0.12053 0.57219 0.0
C375 C 0.10969 0.1047 0.59065 0.0
C376 C 0.06114 0.02522 0.59678 0.0
C377 C 0.02874 0.96189 0.58418 0.0
C378 C 0.04353 0.97764 0.56577 0.0
H379 H -0.01892 0.16158 0.53306 0.0
H380 H -0.02351 0.09956 0.55185 0.0
H381 H 0.05986 0.20038 0.54967 0.0
H382 H 0.16075 0.18232 0.56768 0.0
H383 H 0.13365 0.15475 0.60002 0.0
H384 H -0.00459 0.08064 0.77625 0.0
H385 H 0.97096 0.07864 0.80884 0.0
H386 H 0.10585 0.95662 0.81771 0.0
H387 H 0.13086 0.95941 0.78523 0.0
H388 H 0.90042 0.95431 0.83461 0.0
H389 H 0.2249 0.15916 0.84856 0.0
H390 H 0.18351 0.1421 0.8261 0.0
H391 H 0.20455 0.06964 0.83645 0.0
C392 C 0.01817 0.05189 0.78515 0.0
C393 C 0.06452 0.01965 0.7783 0.0
C394 C 0.00469 0.05121 0.80374 0.0
C395 C 0.03776 0.01868 0.8157 0.0
C396 C 0.0812 -0.01649 0.80876 0.0
H397 H 0.07001 0.00224 0.93236 0.0
H398 H 0.06684 0.97506 0.89993 0.0
C399 C 0.09513 -0.01525 0.79025 0.0
C400 C 0.02983 0.02429 0.83547 0.0
H401 H 0.14003 0.10116 0.87394 0.0
C402 C 0.9527 -0.01345 0.84323 0.0
C403 C 0.09823 0.06675 0.84666 0.0
C404 C 0.18243 0.1124 0.83903 0.0
C405 C 0.94228 -0.01107 0.86195 0.0
C406 C 0.01074 0.0307 0.8731 0.0
C407 C 0.08773 0.06846 0.86534 0.0
C408 C 0.0043 0.03902 0.89281 0.0
C409 C 0.85833 0.94594 0.8697 0.0
C410 C 0.97002 0.0837 0.8995 0.0
C411 C 0.97161 0.09894 0.91798 0.0
C412 C 0.00701 0.06938 0.93008 0.0
C413 C 0.04015 0.02352 0.9234 0.0
C414 C 0.03898 0.00864 0.90489 0.0
H415 H 0.8142 0.90106 0.86009 0.0
H416 H 0.85653 0.91471 0.88245 0.0
H417 H 0.83934 -0.00922 0.87277 0.0
H418 H 0.94457 0.10919 0.89038 0.0
H419 H 0.94658 0.13522 0.92283 0.0
loop_
_geom_bond_atom_site_label_1
_geom_bond_atom_site_label_2
_geom_bond_distance
_geom_bond_site_symmetry_2
_ccdc_geom_bond_type
Zn0 O1 2.055 1_545 S
Zn0 O8 2.046 . S
Zn0 N16 2.036 . S
Zn0 O28 2.053 1_455 S
Zn0 O30 2.066 1_455 S
O1 Zn0 2.055 1_565 S
O1 C4 1.259 1_556 S
C2 O30 1.256 1_564 S
C2 O31 1.244 . S
Zn3 O5 2.046 1_545 S
Zn3 O7 2.055 . S
Zn3 N9 2.036 . S
Zn3 O27 2.066 1_455 S
Zn3 O31 2.053 1_445 S
C4 O1 1.259 1_554 S
C4 O5 1.254 . S
O5 Zn3 2.046 1_565 S
O5 C4 1.254 . S
C6 O27 1.256 . S
C6 O28 1.244 1_554 S
O7 Zn3 2.055 . S
O7 C29 1.259 . S
O8 Zn0 2.046 . S
O8 C29 1.254 1_556 S
N9 Zn3 2.036 . S
N9 C10 1.298 . S
N9 N12 1.398 1_455 S
C10 N9 1.298 . S
C10 N13 1.370 . S
C10 C23 1.481 . S
C11 N12 1.299 . S
C11 N13 1.377 1_655 S
N12 N9 1.398 1_655 S
N12 C11 1.299 . S
N13 C10 1.370 . S
N13 C11 1.377 1_455 S
C14 N16 1.298 1_655 S
C14 N18 1.367 . S
C14 C22 1.481 1_545 S
C15 N17 1.299 1_655 S
C15 N18 1.379 . S
N16 Zn0 2.036 . S
N16 C14 1.298 1_455 S
N16 N17 1.398 . S
N17 C15 1.299 1_455 S
N17 N16 1.398 . S
N18 C14 1.367 . S
N18 C15 1.379 . S
H19 C22 0.980 1_455 S
H20 C22 0.981 1_455 S
H21 C22 0.981 . S
C22 C14 1.481 1_565 S
C22 H19 0.980 1_655 S
C22 H20 0.981 1_655 S
C22 H21 0.981 . S
C23 C10 1.481 . S
C23 H24 0.980 . S
C23 H25 0.981 . S
C23 H26 0.981 . S
H24 C23 0.980 . S
H25 C23 0.981 . S
H26 C23 0.981 . S
O27 Zn3 2.066 1_655 S
O27 C6 1.256 . S
O28 Zn0 2.053 1_655 S
O28 C6 1.244 1_556 S
C29 O7 1.259 . S
C29 O8 1.254 1_554 S
O30 Zn0 2.066 1_655 S
O30 C2 1.256 1_546 S
O31 C2 1.244 . S
O31 Zn3 2.053 1_665 S
Zn32 O33 2.055 . S
Zn32 O40 2.046 . S
Zn32 N48 2.036 . S
Zn32 O60 2.053 . S
Zn32 O62 2.066 . S
O33 Zn32 2.055 . S
O33 C36 1.259 . S
C34 O62 1.256 . S
C34 O63 1.244 . S
Zn35 O37 2.046 . S
Zn35 O39 2.055 . S
Zn35 N41 2.036 . S
Zn35 O59 2.066 . S
Zn35 O63 2.053 . S
C36 O33 1.259 . S
C36 O37 1.254 . S
O37 Zn35 2.046 . S
O37 C36 1.254 . S
C38 O59 1.256 . S
C38 O60 1.244 . S
O39 Zn35 2.055 . S
O39 C61 1.259 . S
O40 Zn32 2.046 . S
O40 C61 1.254 . S
N41 Zn35 2.036 . S
N41 C42 1.298 . S
N41 N44 1.398 . S
C42 N41 1.298 . S
C42 N45 1.367 . S
C42 C55 1.481 . S
C43 N44 1.299 . S
C43 N45 1.379 . S
N44 N41 1.398 . S
N44 C43 1.299 . S
N45 C42 1.367 . S
N45 C43 1.379 . S
C46 N48 1.298 . S
C46 N50 1.367 . S
C46 C54 1.481 . S
C47 N49 1.299 . S
C47 N50 1.379 . S
N48 Zn32 2.036 . S
N48 C46 1.298 . S
N48 N49 1.398 . S
N49 C47 1.299 . S
N49 N48 1.398 . S
N50 C46 1.367 . S
N50 C47 1.379 . S
H51 C54 0.980 . S
H52 C54 0.981 . S
H53 C54 0.981 . S
C54 C46 1.481 . S
C54 H51 0.980 . S
C54 H52 0.981 . S
C54 H53 0.981 . S
C55 C42 1.481 . S
C55 H56 0.980 . S
C55 H57 0.981 . S
C55 H58 0.981 . S
H56 C55 0.980 . S
H57 C55 0.981 . S
H58 C55 0.981 . S
O59 Zn35 2.066 . S
O59 C38 1.256 . S
O60 Zn32 2.053 . S
O60 C38 1.244 . S
C61 O39 1.259 . S
C61 O40 1.254 . S
O62 Zn32 2.066 . S
O62 C34 1.256 . S
O63 C34 1.244 . S
O63 Zn35 2.053 . S
Zn64 O65 2.055 1_455 S
Zn64 O72 2.046 . S
Zn64 N80 2.036 . S
Zn64 O92 2.053 1_545 S
Zn64 O94 2.066 1_545 S
O65 Zn64 2.055 1_655 S
O65 C68 1.259 . S
C66 O94 1.256 1_655 S
C66 O95 1.244 . S
Zn67 O69 2.046 1_455 S
Zn67 O71 2.055 . S
Zn67 N73 2.036 . S
Zn67 O91 2.066 1_545 S
Zn67 O95 2.053 1_445 S
C68 O65 1.259 . S
C68 O69 1.254 . S
O69 Zn67 2.046 1_655 S
O69 C68 1.254 . S
C70 O91 1.256 . S
C70 O92 1.244 . S
O71 Zn67 2.055 . S
O71 C93 1.259 . S
O72 Zn64 2.046 . S
O72 C93 1.254 . S
N73 Zn67 2.036 . S
N73 C74 1.298 . S
N73 N76 1.398 1_545 S
C74 N73 1.298 . S
C74 N77 1.370 . S
C74 C87 1.481 . S
C75 N76 1.299 . S
C75 N77 1.377 1_565 S
N76 N73 1.398 1_565 S
N76 C75 1.299 . S
N77 C74 1.370 . S
N77 C75 1.377 1_545 S
C78 N80 1.298 1_565 S
C78 N82 1.367 . S
C78 C86 1.481 1_455 S
C79 N81 1.299 1_565 S
C79 N82 1.379 . S
N80 Zn64 2.036 . S
N80 C78 1.298 1_545 S
N80 N81 1.398 . S
N81 C79 1.299 1_545 S
N81 N80 1.398 . S
N82 C78 1.367 . S
N82 C79 1.379 . S
H83 C86 0.980 1_545 S
H84 C86 0.981 1_545 S
H85 C86 0.981 . S
C86 C78 1.481 1_655 S
C86 H83 0.980 1_565 S
C86 H84 0.981 1_565 S
C86 H85 0.981 . S
C87 C74 1.481 . S
C87 H88 0.980 . S
C87 H89 0.981 . S
C87 H90 0.981 . S
H88 C87 0.980 . S
H89 C87 0.981 . S
H90 C87 0.981 . S
O91 Zn67 2.066 1_565 S
O91 C70 1.256 . S
O92 Zn64 2.053 1_565 S
O92 C70 1.244 . S
C93 O71 1.259 . S
C93 O72 1.254 . S
O94 Zn64 2.066 1_565 S
O94 C66 1.256 1_455 S
O95 C66 1.244 . S
O95 Zn67 2.053 1_665 S
H96 C104 0.929 . S
H97 C106 0.930 . S
H98 C108 0.943 . S
H99 C111 0.942 . S
H100 C114 0.952 . S
H101 C116 0.960 . S
H102 C116 0.960 . S
H103 C116 0.960 . S
C104 H96 0.929 . S
C104 C105 1.377 1_455 S
C104 C106 1.384 . S
C105 C104 1.377 1_655 S
C105 C111 1.390 . S
C106 H97 0.930 . S
C106 C104 1.384 . S
C106 C107 1.372 . S
C107 C106 1.372 . S
C107 C108 1.400 1_455 S
C107 C112 1.490 . S
C108 H98 0.943 . S
C108 C107 1.400 1_655 S
C108 C111 1.386 . S
H109 C125 0.930 . S
H110 C126 0.931 . S
C111 H99 0.942 . S
C111 C105 1.390 . S
C111 C108 1.386 . S
C112 C107 1.490 . S
C112 C114 1.370 1_554 S
C112 C115 1.403 1_455 S
H113 C119 0.930 . S
C114 H100 0.952 . S
C114 C112 1.370 1_556 S
C114 C117 1.408 . S
C115 C112 1.403 1_655 S
C115 C116 1.524 . S
C115 C119 1.400 . S
C116 H101 0.960 . S
C116 H102 0.960 . S
C116 H103 0.960 . S
C116 C115 1.524 . S
C117 C114 1.408 . S
C117 C118 1.392 1_556 S
C117 C121 1.495 . S
C118 C117 1.392 1_554 S
C118 C119 1.385 1_455 S
C118 C120 1.478 . S
C119 H113 0.930 . S
C119 C115 1.400 . S
C119 C118 1.385 1_655 S
C120 C118 1.478 . S
C120 C122 1.381 . S
C120 C126 1.383 1_454 S
C121 C117 1.495 . S
C121 H127 0.959 . S
C121 H128 0.961 . S
C121 H129 0.960 . S
C122 C120 1.381 . S
C122 C123 1.394 . S
C122 H130 0.930 . S
C123 C122 1.394 . S
C123 C124 1.383 . S
C123 H131 0.929 . S
C124 C123 1.383 . S
C124 C125 1.377 1_454 S
C125 H109 0.930 . S
C125 C124 1.377 1_656 S
C125 C126 1.379 . S
C126 H110 0.931 . S
C126 C120 1.383 1_656 S
C126 C125 1.379 . S
H127 C121 0.959 . S
H128 C121 0.961 . S
H129 C121 0.960 . S
H130 C122 0.930 . S
H131 C123 0.929 . S
H132 C140 0.929 . S
H133 C142 0.930 . S
H134 C144 0.930 . S
H135 C147 0.929 . S
H136 C150 0.930 . S
H137 C152 0.960 . S
H138 C152 0.960 . S
H139 C152 0.960 . S
C140 H132 0.929 . S
C140 C141 1.377 . S
C140 C142 1.384 . S
C141 C140 1.377 . S
C141 C147 1.390 . S
C142 H133 0.930 . S
C142 C140 1.384 . S
C142 C143 1.372 . S
C143 C142 1.372 . S
C143 C144 1.400 . S
C143 C148 1.490 . S
C144 H134 0.930 . S
C144 C143 1.400 . S
C144 C147 1.386 . S
H145 C161 0.930 . S
H146 C162 0.931 . S
C147 H135 0.929 . S
C147 C141 1.390 . S
C147 C144 1.386 . S
C148 C143 1.490 . S
C148 C150 1.395 . S
C148 C151 1.403 . S
H149 C155 0.930 . S
C150 H136 0.930 . S
C150 C148 1.395 . S
C150 C153 1.403 . S
C151 C148 1.403 . S
C151 C152 1.524 . S
C151 C155 1.400 . S
C152 H137 0.960 . S
C152 H138 0.960 . S
C152 H139 0.960 . S
C152 C151 1.524 . S
C153 C150 1.403 . S
C153 C154 1.392 . S
C153 C157 1.495 1_545 S
C154 C153 1.392 . S
C154 C155 1.385 . S
C154 C156 1.478 . S
C155 H149 0.930 . S
C155 C151 1.400 . S
C155 C154 1.385 . S
C156 C154 1.478 . S
C156 C158 1.381 . S
C156 C162 1.383 . S
C157 C153 1.495 1_565 S
C157 H163 0.959 . S
C157 H164 0.961 . S
C157 H165 0.960 . S
C158 C156 1.381 . S
C158 C159 1.394 . S
C158 H166 0.930 . S
C159 C158 1.394 . S
C159 C160 1.383 . S
C159 H167 0.929 . S
C160 C159 1.383 . S
C160 C161 1.377 . S
C161 H145 0.930 . S
C161 C160 1.377 . S
C161 C162 1.379 . S
C162 H146 0.931 . S
C162 C156 1.383 . S
C162 C161 1.379 . S
H163 C157 0.959 . S
H164 C157 0.961 . S
H165 C157 0.960 . S
H166 C158 0.930 . S
H167 C159 0.929 . S
H168 C176 0.929 . S
H169 C178 0.930 . S
H170 C180 0.930 . S
H171 C183 0.929 . S
H172 C186 0.930 . S
H173 C188 0.960 . S
H174 C188 0.960 . S
H175 C188 0.960 . S
C176 H168 0.929 . S
C176 C177 1.377 . S
C176 C178 1.384 . S
C177 C176 1.377 . S
C177 C183 1.390 . S
C178 H169 0.930 . S
C178 C176 1.384 . S
C178 C179 1.372 . S
C179 C178 1.372 . S
C179 C180 1.400 . S
C179 C184 1.490 . S
C180 H170 0.930 . S
C180 C179 1.400 . S
C180 C183 1.386 . S
H181 C197 0.930 . S
H182 C198 0.931 . S
C183 H171 0.929 . S
C183 C177 1.390 . S
C183 C180 1.386 . S
C184 C179 1.490 . S
C184 C186 1.395 . S
C184 C187 1.403 . S
H185 C191 0.930 . S
C186 H172 0.930 . S
C186 C184 1.395 . S
C186 C189 1.403 . S
C187 C184 1.403 . S
C187 C188 1.524 . S
C187 C191 1.400 . S
C188 H173 0.960 . S
C188 H174 0.960 . S
C188 H175 0.960 . S
C188 C187 1.524 . S
C189 C186 1.403 . S
C189 C190 1.392 . S
C189 C193 1.495 . S
C190 C189 1.392 . S
C190 C191 1.385 . S
C190 C192 1.478 . S
C191 H185 0.930 . S
C191 C187 1.400 . S
C191 C190 1.385 . S
C192 C190 1.478 . S
C192 C194 1.381 . S
C192 C198 1.383 . S
C193 C189 1.495 . S
C193 H199 0.959 . S
C193 H200 0.961 . S
C193 H201 0.960 . S
C194 C192 1.381 . S
C194 C195 1.394 . S
C194 H202 0.930 . S
C195 C194 1.394 . S
C195 C196 1.383 . S
C195 H203 0.929 . S
C196 C195 1.383 . S
C196 C197 1.377 . S
C197 H181 0.930 . S
C197 C196 1.377 . S
C197 C198 1.379 . S
C198 H182 0.931 . S
C198 C192 1.383 . S
C198 C197 1.379 . S
H199 C193 0.959 . S
H200 C193 0.961 . S
H201 C193 0.960 . S
H202 C194 0.930 . S
H203 C195 0.929 . S
H204 C212 0.929 . S
H205 C214 0.930 . S
H206 C216 0.930 . S
H207 C219 0.929 . S
H208 C222 0.930 . S
H209 C224 0.960 . S
H210 C224 0.960 . S
H211 C224 0.960 . S
C212 H204 0.929 . S
C212 C213 1.377 . S
C212 C214 1.384 . S
C213 C212 1.377 . S
C213 C219 1.390 . S
C214 H205 0.930 . S
C214 C212 1.384 . S
C214 C215 1.372 . S
C215 C214 1.372 . S
C215 C216 1.400 . S
C215 C220 1.490 . S
C216 H206 0.930 . S
C216 C215 1.400 . S
C216 C219 1.386 . S
H217 C233 0.930 . S
H218 C234 0.931 . S
C219 H207 0.929 . S
C219 C213 1.390 . S
C219 C216 1.386 . S
C220 C215 1.490 . S
C220 C222 1.395 1_545 S
C220 C223 1.403 . S
H221 C227 0.930 . S
C222 H208 0.930 . S
C222 C220 1.395 1_565 S
C222 C225 1.403 . S
C223 C220 1.403 . S
C223 C224 1.524 . S
C223 C227 1.400 . S
C224 H209 0.960 . S
C224 H210 0.960 . S
C224 H211 0.960 . S
C224 C223 1.524 . S
C225 C222 1.403 . S
C225 C226 1.392 . S
C225 C229 1.495 . S
C226 C225 1.392 . S
C226 C227 1.385 1_565 S
C226 C228 1.478 . S
C227 H221 0.930 . S
C227 C223 1.400 . S
C227 C226 1.385 1_545 S
C228 C226 1.478 . S
C228 C230 1.381 1_565 S
C228 C234 1.383 . S
C229 C225 1.495 . S
C229 H235 0.959 . S
C229 H236 0.961 . S
C229 H237 0.960 . S
C230 C228 1.381 1_545 S
C230 C231 1.394 . S
C230 H238 0.930 . S
C231 C230 1.394 . S
C231 C232 1.383 1_545 S
C231 H239 0.929 . S
C232 C231 1.383 1_565 S
C232 C233 1.377 . S
C233 H217 0.930 . S
C233 C232 1.377 . S
C233 C234 1.379 . S
C234 H218 0.931 . S
C234 C228 1.383 . S
C234 C233 1.379 . S
H235 C229 0.959 . S
H236 C229 0.961 . S
H237 C229 0.960 . S
H238 C230 0.930 . S
H239 C231 0.929 . S
H240 C248 0.929 . S
H241 C250 0.930 . S
H242 C252 0.930 . S
H243 C255 0.929 . S
H244 C258 0.930 . S
H245 C260 0.960 . S
H246 C260 0.960 . S
H247 C260 0.960 . S
C248 H240 0.929 . S
C248 C249 1.377 . S
C248 C250 1.384 . S
C249 C248 1.377 . S
C249 C255 1.390 . S
C250 H241 0.930 . S
C250 C248 1.384 . S
C250 C251 1.372 . S
C251 C250 1.372 . S
C251 C252 1.400 . S
C251 C256 1.490 . S
C252 H242 0.930 . S
C252 C251 1.400 . S
C252 C255 1.386 . S
H253 C269 0.930 . S
H254 C270 0.931 . S
C255 H243 0.929 . S
C255 C249 1.390 . S
C255 C252 1.386 . S
C256 C251 1.490 . S
C256 C258 1.395 . S
C256 C259 1.403 1_554 S
H257 C263 0.930 . S
C258 H244 0.930 . S
C258 C256 1.395 . S
C258 C261 1.403 . S
C259 C256 1.403 1_556 S
C259 C260 1.524 . S
C259 C263 1.400 . S
C260 H245 0.960 . S
C260 H246 0.960 . S
C260 H247 0.960 . S
C260 C259 1.524 . S
C261 C258 1.403 . S
C261 C262 1.392 . S
C261 C265 1.495 . S
C262 C261 1.392 . S
C262 C263 1.385 1_554 S
C262 C264 1.478 . S
C263 H257 0.930 . S
C263 C259 1.400 . S
C263 C262 1.385 1_556 S
C264 C262 1.478 . S
C264 C266 1.381 . S
C264 C270 1.383 . S
C265 C261 1.495 . S
C265 H271 0.959 . S
C265 H272 0.961 . S
C265 H273 0.960 . S
C266 C264 1.381 . S
C266 C267 1.394 . S
C266 H274 0.930 . S
C267 C266 1.394 . S
C267 C268 1.383 . S
C267 H275 0.929 . S
C268 C267 1.383 . S
C268 C269 1.377 . S
C269 H253 0.930 . S
C269 C268 1.377 . S
C269 C270 1.379 . S
C270 H254 0.931 . S
C270 C264 1.383 . S
C270 C269 1.379 . S
H271 C265 0.959 . S
H272 C265 0.961 . S
H273 C265 0.960 . S
H274 C266 0.930 . S
H275 C267 0.929 . S
H276 C284 0.929 . S
H277 C286 0.930 . S
H278 C288 0.930 . S
H279 C291 0.929 . S
H280 C294 0.930 . S
H281 C296 0.960 . S
H282 C296 0.960 . S
H283 C296 0.960 . S
C284 H276 0.929 . S
C284 C285 1.377 . S
C284 C286 1.384 . S
C285 C284 1.377 . S
C285 C291 1.390 . S
C286 H277 0.930 . S
C286 C284 1.384 . S
C286 C287 1.372 . S
C287 C286 1.372 . S
C287 C288 1.400 . S
C287 C292 1.490 . S
C288 H278 0.930 . S
C288 C287 1.400 . S
C288 C291 1.386 . S
H289 C305 0.930 . S
H290 C306 0.931 . S
C291 H279 0.929 . S
C291 C285 1.390 . S
C291 C288 1.386 . S
C292 C287 1.490 . S
C292 C294 1.395 . S
C292 C295 1.403 . S
H293 C299 0.930 . S
C294 H280 0.930 . S
C294 C292 1.395 . S
C294 C297 1.403 . S
C295 C292 1.403 . S
C295 C296 1.524 . S
C295 C299 1.400 . S
C296 H281 0.960 . S
C296 H282 0.960 . S
C296 H283 0.960 . S
C296 C295 1.524 . S
C297 C294 1.403 . S
C297 C298 1.392 . S
C297 C301 1.495 1_455 S
C298 C297 1.392 . S
C298 C299 1.385 . S
C298 C300 1.478 . S
C299 H293 0.930 . S
C299 C295 1.400 . S
C299 C298 1.385 . S
C300 C298 1.478 . S
C300 C302 1.381 . S
C300 C306 1.383 . S
C301 C297 1.495 1_655 S
C301 H307 0.959 . S
C301 H308 0.961 . S
C301 H309 0.960 . S
C302 C300 1.381 . S
C302 C303 1.394 . S
C302 H310 0.930 . S
C303 C302 1.394 . S
C303 C304 1.383 . S
C303 H311 0.929 . S
C304 C303 1.383 . S
C304 C305 1.377 . S
C305 H289 0.930 . S
C305 C304 1.377 . S
C305 C306 1.379 . S
C306 H290 0.931 . S
C306 C300 1.383 . S
C306 C305 1.379 . S
H307 C301 0.959 . S
H308 C301 0.961 . S
H309 C301 0.960 . S
H310 C302 0.930 . S
H311 C303 0.929 . S
H312 C320 0.929 . S
H313 C322 0.930 . S
H314 C324 0.930 . S
H315 C327 0.929 . S
H316 C330 0.930 1_655 S
H317 C332 0.960 . S
H318 C332 0.960 . S
H319 C332 0.960 . S
C320 H312 0.929 . S
C320 C321 1.377 . S
C320 C322 1.384 . S
C321 C320 1.377 . S
C321 C327 1.390 . S
C322 H313 0.930 . S
C322 C320 1.384 . S
C322 C323 1.372 . S
C323 C322 1.372 . S
C323 C324 1.400 . S
C323 C328 1.490 . S
C324 H314 0.930 . S
C324 C323 1.400 . S
C324 C327 1.386 . S
H325 C341 0.930 . S
H326 C342 0.931 . S
C327 H315 0.929 . S
C327 C321 1.390 . S
C327 C324 1.386 . S
C328 C323 1.490 . S
C328 C330 1.395 . S
C328 C331 1.403 . S
H329 C335 0.930 . S
C330 H316 0.930 1_455 S
C330 C328 1.395 . S
C330 C333 1.403 1_455 S
C331 C328 1.403 . S
C331 C332 1.524 . S
C331 C335 1.400 . S
C332 H317 0.960 . S
C332 H318 0.960 . S
C332 H319 0.960 . S
C332 C331 1.524 . S
C333 C330 1.403 1_655 S
C333 C334 1.392 1_655 S
C333 C337 1.495 . S
C334 C333 1.392 1_455 S
C334 C335 1.385 . S
C334 C336 1.478 . S
C335 H329 0.930 . S
C335 C331 1.400 . S
C335 C334 1.385 . S
C336 C334 1.478 . S
C336 C338 1.381 . S
C336 C342 1.383 . S
C337 C333 1.495 . S
C337 H343 0.959 . S
C337 H344 0.961 . S
C337 H345 0.960 . S
C338 C336 1.381 . S
C338 C339 1.394 . S
C338 H346 0.930 . S
C339 C338 1.394 . S
C339 C340 1.383 . S
C339 H347 0.929 1_455 S
C340 C339 1.383 . S
C340 C341 1.377 . S
C341 H325 0.930 . S
C341 C340 1.377 . S
C341 C342 1.379 . S
C342 H326 0.931 . S
C342 C336 1.383 . S
C342 C341 1.379 . S
H343 C337 0.959 . S
H344 C337 0.961 . S
H345 C337 0.960 . S
H346 C338 0.930 . S
H347 C339 0.929 1_655 S
H348 C356 0.929 . S
H349 C358 0.930 . S
H350 C360 0.930 . S
H351 C363 0.929 . S
H352 C366 0.930 . S
H353 C368 0.960 . S
H354 C368 0.960 . S
H355 C368 0.960 . S
C356 H348 0.929 . S
C356 C357 1.377 . S
C356 C358 1.384 . S
C357 C356 1.377 . S
C357 C363 1.390 . S
C358 H349 0.930 . S
C358 C356 1.384 . S
C358 C359 1.372 . S
C359 C358 1.372 . S
C359 C360 1.400 . S
C359 C364 1.490 . S
C360 H350 0.930 . S
C360 C359 1.400 . S
C360 C363 1.386 . S
H361 C377 0.930 . S
H362 C378 0.931 . S
C363 H351 0.929 . S
C363 C357 1.390 . S
C363 C360 1.386 . S
C364 C359 1.490 . S
C364 C366 1.395 . S
C364 C367 1.403 . S
H365 C371 0.930 . S
C366 H352 0.930 . S
C366 C364 1.395 . S
C366 C369 1.403 . S
C367 C364 1.403 . S
C367 C368 1.524 . S
C367 C371 1.400 . S
C368 H353 0.960 . S
C368 H354 0.960 . S
C368 H355 0.960 . S
C368 C367 1.524 . S
C369 C366 1.403 . S
C369 C370 1.392 . S
C369 C373 1.495 . S
C370 C369 1.392 . S
C370 C371 1.385 . S
C370 C372 1.478 . S
C371 H365 0.930 . S
C371 C367 1.400 . S
C371 C370 1.385 . S
C372 C370 1.478 . S
C372 C374 1.381 . S
C372 C378 1.383 1_545 S
C373 C369 1.495 . S
C373 H379 0.959 . S
C373 H380 0.961 1_455 S
C373 H381 0.960 . S
C374 C372 1.381 . S
C374 C375 1.394 . S
C374 H382 0.930 . S
C375 C374 1.394 . S
C375 C376 1.383 . S
C375 H383 0.929 . S
C376 C375 1.383 . S
C376 C377 1.377 1_545 S
C377 H361 0.930 . S
C377 C376 1.377 1_565 S
C377 C378 1.379 . S
C378 H362 0.931 . S
C378 C372 1.383 1_565 S
C378 C377 1.379 . S
H379 C373 0.959 . S
H380 C373 0.961 1_655 S
H381 C373 0.960 . S
H382 C374 0.930 . S
H383 C375 0.929 . S
H384 C392 0.929 . S
H385 C394 0.930 . S
H386 C396 0.930 . S
H387 C399 0.929 . S
H388 C402 0.930 . S
H389 C404 0.960 . S
H390 C404 0.960 . S
H391 C404 0.960 1_565 S
C392 H384 0.929 . S
C392 C393 1.377 1_545 S
C392 C394 1.384 . S
C393 C392 1.377 1_565 S
C393 C399 1.390 . S
C394 H385 0.930 . S
C394 C392 1.384 . S
C394 C395 1.372 1_545 S
C395 C394 1.372 1_565 S
C395 C396 1.400 . S
C395 C400 1.491 . S
C396 H386 0.930 . S
C396 C395 1.400 . S
C396 C399 1.386 . S
H397 C413 0.930 . S
H398 C414 0.931 . S
C399 H387 0.929 . S
C399 C393 1.390 . S
C399 C396 1.386 . S
C400 C395 1.491 . S
C400 C402 1.391 1_465 S
C400 C403 1.405 1_565 S
H401 C407 0.930 . S
C402 H388 0.930 . S
C402 C400 1.391 1_645 S
C402 C405 1.403 . S
C403 C400 1.405 1_545 S
C403 C404 1.524 . S
C403 C407 1.400 . S
C404 H389 0.960 . S
C404 H390 0.960 . S
C404 H391 0.960 1_545 S
C404 C403 1.524 . S
C405 C402 1.403 . S
C405 C406 1.392 . S
C405 C409 1.495 . S
C406 C405 1.392 . S
C406 C407 1.385 1_655 S
C406 C408 1.478 . S
C407 H401 0.930 . S
C407 C403 1.400 . S
C407 C406 1.385 1_455 S
C408 C406 1.478 . S
C408 C410 1.381 . S
C408 C414 1.383 1_545 S
C409 C405 1.495 . S
C409 H415 0.959 . S
C409 H416 0.961 1_545 S
C409 H417 0.960 . S
C410 C408 1.381 . S
C410 C411 1.394 . S
C410 H418 0.930 . S
C411 C410 1.394 . S
C411 C412 1.383 . S
C411 H419 0.929 . S
C412 C411 1.383 . S
C412 C413 1.377 1_545 S
C413 H397 0.930 . S
C413 C412 1.377 1_565 S
C413 C414 1.379 . S
C414 H398 0.931 . S
C414 C408 1.383 1_565 S
C414 C413 1.379 . S
H415 C409 0.959 . S
H416 C409 0.961 1_565 S
H417 C409 0.960 . S
H418 C410 0.930 . S
H419 C411 0.929 . S
C105 C6 1.095 . S
C124 C4 1.106 . S
C141 C38 1.096 . S
C160 C36 1.107 1_655 S
C177 C66 1.095 . S
C196 C93 1.087 . S
C213 C68 1.101 . S
C232 C70 1.107 . S
C249 C2 1.093 . S
C268 C29 1.104 . S
C285 C34 1.098 . S
C304 C61 1.106 1_565 S
C321 N50 1.565 . S
C340 N13 1.563 . S
C357 N45 1.572 . S
C376 N77 1.542 . S
C393 N82 1.564 . S
C412 N18 1.579 . S
