# Generated by pormake.
# Topology sxb, (6)-cn, num edge types: 1
# Building blocks:
#     Node 0, Type 0, BuildingBlock: VOLQOD_clean_sbu_1, # of connection points: 6
#     Node 1, Type 0, BuildingBlock: VOLQOD_clean_sbu_1, # of connection points: 6
#     Node 2, Type 0, BuildingBlock: VOLQOD_clean_sbu_1, # of connection points: 6
#     Node 3, Type 0, BuildingBlock: VOLQOD_clean_sbu_1, # of connection points: 6
#     Edge 4, Type (0, 0), BuildingBlock: ZUJKAS_clean_linker_0, # of connection points: 2
#     Edge 5, Type (0, 0), BuildingBlock: ZUJKAS_clean_linker_0, # of connection points: 2
#     Edge 6, Type (0, 0), BuildingBlock: ZUJKAS_clean_linker_0, # of connection points: 2
#     Edge 7, Type (0, 0), BuildingBlock: ZUJKAS_clean_linker_0, # of connection points: 2
#     Edge 8, Type (0, 0), BuildingBlock: ZUJKAS_clean_linker_0, # of connection points: 2
#     Edge 9, Type (0, 0), BuildingBlock: ZUJKAS_clean_linker_0, # of connection points: 2
#     Edge 10, Type (0, 0), BuildingBlock: ZUJKAS_clean_linker_0, # of connection points: 2
#     Edge 11, Type (0, 0), BuildingBlock: ZUJKAS_clean_linker_0, # of connection points: 2
#     Edge 12, Type (0, 0), BuildingBlock: ZUJKAS_clean_linker_0, # of connection points: 2
#     Edge 13, Type (0, 0), BuildingBlock: ZUJKAS_clean_linker_0, # of connection points: 2
#     Edge 14, Type (0, 0), BuildingBlock: ZUJKAS_clean_linker_0, # of connection points: 2
#     Edge 15, Type (0, 0), BuildingBlock: ZUJKAS_clean_linker_0, # of connection points: 2
# Relax obj value: 0.285
# Max RMSD: 0.223
# Mean RMSD: 0.222
data_MOF--net-sxb--node1-VOLQOD_clean_sbu_1--edge1-ZUJKAS_clean_linker_0
_symmetry_space_group_name_H-M    P1
_symmetry_Int_Tables_number       1
_symmetry_cell_setting            triclinic
loop_
_symmetry_equiv_pos_as_xyz
'x, y, z'
_cell_length_a     19.587488
_cell_length_b     38.597323
_cell_length_c     43.585884
_cell_angle_alpha  90.608581
_cell_angle_beta   90.161874
_cell_angle_gamma 89.347695
loop_
_atom_site_label
_atom_site_type_symbol
_atom_site_fract_x
_atom_site_fract_y
_atom_site_fract_z
_atom_type_partial_charge
O0 O -0.01493 0.9734 0.92508 0.0
Zn1 Zn 0.96121 0.96373 0.96901 0.0
O2 O -0.02173 0.00336 -0.00457 0.0
Zn3 Zn 0.0545 -0.0054 0.02228 0.0
Zn4 Zn -0.00403 0.04202 0.96877 0.0
Zn5 Zn 0.90133 0.01312 0.02152 0.0
O6 O 0.03376 0.00552 0.06657 0.0
O7 O 0.92065 0.00332 0.06595 0.0
O8 O 0.01338 0.92196 0.98351 0.0
O9 O 0.07845 0.944 0.02057 0.0
O10 O 0.1357 0.02042 0.00773 0.0
O11 O 0.09617 0.05161 0.96877 0.0
O12 O 0.94324 0.08428 0.98234 0.0
O13 O 0.86093 0.95418 0.96816 0.0
O14 O 0.87755 0.06367 0.01928 0.0
O15 O 0.82061 0.98681 0.00654 0.0
C16 C -0.02014 0.00175 0.91052 0.0
C17 C -0.0231 0.00453 0.08063 0.0
C18 C 0.14512 0.04127 0.98573 0.0
C19 C 0.05849 0.91838 0.00439 0.0
C20 C 0.89777 0.08866 0.0029 0.0
C21 C 0.81166 0.96515 0.98469 0.0
O22 O -0.02605 0.03066 0.92468 0.0
O23 O -0.02265 0.9727 0.4244 0.0
Zn24 Zn -0.00045 0.96172 0.46835 0.0
O25 O -0.02087 0.00083 0.49547 0.0
Zn26 Zn 0.05623 0.01109 0.5217 0.0
Zn27 Zn 0.95833 0.04057 0.46985 0.0
Zn28 Zn 0.90262 0.98993 0.52147 0.0
O29 O 0.03644 0.00235 0.5662 0.0
O30 O 0.92366 -0.00265 0.56629 0.0
O31 O 0.10009 0.95205 0.46844 0.0
O32 O 0.13745 0.98364 0.50786 0.0
O33 O 0.0817 0.06136 0.51831 0.0
O34 O 0.01148 0.08246 0.48287 0.0
O35 O 0.85836 0.05129 0.47145 0.0
O36 O 0.94866 0.91911 0.48066 0.0
O37 O 0.82103 0.01787 0.50896 0.0
O38 O 0.87779 0.93969 0.51631 0.0
C39 C -0.02353 0.00157 0.41051 0.0
C40 C -0.01972 -0.00039 0.58058 0.0
C41 C 0.05964 0.0865 0.50223 0.0
C42 C 0.14814 0.96234 0.48585 0.0
C43 C 0.81043 0.04041 0.4883 0.0
C44 C 0.90057 0.91472 0.4998 0.0
O45 O -0.02319 0.03019 0.4253 0.0
O46 O 0.47592 0.47543 0.93422 0.0
Zn47 Zn 0.45794 0.46452 0.97832 0.0
O48 O 0.47676 0.50369 0.00531 0.0
Zn49 Zn 0.55291 0.49298 0.03193 0.0
Zn50 Zn 0.49723 0.54304 0.9795 0.0
Zn51 Zn 0.39935 0.51412 0.03138 0.0
O52 O 0.53155 0.50048 0.07651 0.0
O53 O 0.41868 0.5055 0.07601 0.0
O54 O 0.51271 0.42256 0.99013 0.0
O55 O 0.57889 0.44282 0.02752 0.0
O56 O 0.63402 0.52024 0.0197 0.0
O57 O 0.59709 0.55303 0.98132 0.0
O58 O 0.44322 0.58508 0.99247 0.0
O59 O 0.35868 0.4537 0.9793 0.0
O60 O 0.37449 0.56449 0.02825 0.0
O61 O 0.31871 0.4869 0.01737 0.0
C62 C 0.47731 0.50418 0.92022 0.0
C63 C 0.47484 0.50276 0.0906 0.0
C64 C 0.64479 0.5422 -0.00128 0.0
C65 C 0.55912 0.41808 0.01025 0.0
C66 C 0.39589 0.58945 0.01216 0.0
C67 C 0.30981 0.4645 -0.00389 0.0
O68 O 0.47891 0.53284 0.93491 0.0
O69 O 0.4838 0.47205 0.43451 0.0
Zn70 Zn 0.50035 0.46174 0.47904 0.0
O71 O 0.47671 0.50154 0.50521 0.0
Zn72 Zn 0.55275 0.51342 0.53175 0.0
Zn73 Zn 0.4544 0.54096 0.47911 0.0
Zn74 Zn 0.39988 0.49006 0.53104 0.0
O75 O 0.531 0.50836 0.57642 0.0
O76 O 0.42073 0.49602 0.57598 0.0
O77 O 0.60049 0.45127 0.48176 0.0
O78 O 0.63372 0.48427 0.521 0.0
O79 O 0.5813 0.56273 0.52542 0.0
O80 O 0.51181 0.58247 0.48914 0.0
O81 O 0.35575 0.55378 0.48296 0.0
O82 O 0.44651 0.41956 0.49009 0.0
O83 O 0.31928 0.5195 0.52002 0.0
O84 O 0.37302 0.44033 0.52454 0.0
C85 C 0.47462 0.50031 0.42022 0.0
C86 C 0.47569 0.50234 0.59054 0.0
C87 C 0.56085 0.58697 0.50794 0.0
C88 C 0.6465 0.46187 0.50011 0.0
C89 C 0.30863 0.54313 0.50036 0.0
C90 C 0.39634 0.41539 0.50817 0.0
O91 O 0.46679 0.52897 0.43456 0.0
H92 H 0.41113 0.64596 0.9757 0.0
H93 H 0.35398 0.7022 0.9808 0.0
H94 H 0.25233 0.6678 0.06251 0.0
H95 H 0.30797 0.61108 0.0572 0.0
H96 H 0.16489 0.69812 0.02323 0.0
H97 H 0.39041 0.78136 0.03962 0.0
H98 H 0.39745 0.75496 0.00565 0.0
H99 H 0.39506 0.73479 0.0427 0.0
C100 C 0.37715 0.65042 -0.00507 0.0
C101 C 0.36409 0.62406 0.01605 0.0
C102 C 0.3449 0.68267 -0.00207 0.0
C103 C 0.29993 0.68931 0.02234 0.0
C104 C 0.28722 0.66319 0.04361 0.0
H105 H 0.13921 0.89853 0.05243 0.0
H106 H 0.19348 0.84202 0.06028 0.0
C107 C 0.31901 0.63082 0.04051 0.0
C108 C 0.26302 0.72282 0.02448 0.0
H109 H 0.28643 0.81017 0.02452 0.0
C110 C 0.19139 0.72265 0.02391 0.0
C111 C 0.2977 0.75471 0.02594 0.0
C112 C 0.37438 0.75652 0.02886 0.0
C113 C 0.15347 0.75363 0.02344 0.0
C114 C 0.18833 0.78547 0.02273 0.0
C115 C 0.25986 0.78567 0.02464 0.0
C116 C 0.15193 0.81887 0.01893 0.0
C117 C 0.07654 0.75189 0.02372 0.0
C118 C 0.11077 0.82453 0.99303 0.0
C119 C 0.07926 0.85668 0.98857 0.0
C120 C 0.08933 0.8839 0.00971 0.0
C121 C 0.13057 0.87811 0.03567 0.0
C122 C 0.16156 0.84586 0.04023 0.0
H123 H 0.0588 0.72749 0.03424 0.0
H124 H 0.05374 0.77417 0.03652 0.0
H125 H 0.05723 0.75246 -0.00023 0.0
H126 H 0.10417 0.80431 0.9759 0.0
H127 H 0.04827 0.8604 0.96822 0.0
H128 H 0.54608 0.36195 0.97204 0.0
H129 H 0.60381 0.30582 0.97618 0.0
H130 H 0.7027 0.33984 0.05959 0.0
H131 H 0.64646 0.3964 0.05531 0.0
H132 H 0.79149 0.30959 0.02002 0.0
H133 H 0.56494 0.22671 0.03346 0.0
H134 H 0.55924 0.25325 -1e-05 0.0
H135 H 0.56067 0.27328 0.03748 0.0
C136 C 0.57964 0.35743 0.99143 0.0
C137 C 0.59163 0.38362 0.01337 0.0
C138 C 0.61223 0.32526 -0.00615 0.0
C139 C 0.65651 0.31854 0.01848 0.0
C140 C 0.66835 0.34452 0.04051 0.0
H141 H 0.81536 0.11024 0.04997 0.0
H142 H 0.76097 0.16703 0.0568 0.0
C143 C 0.63619 0.3768 0.038 0.0
C144 C 0.69324 0.28502 0.02029 0.0
H145 H 0.66941 0.19769 0.01962 0.0
C146 C 0.76488 0.2851 0.02029 0.0
C147 C 0.65834 0.25319 0.02117 0.0
C148 C 0.58157 0.25154 0.02336 0.0
C149 C 0.80266 0.25407 0.01998 0.0
C150 C 0.76767 0.22224 0.01889 0.0
C151 C 0.69608 0.22217 0.02006 0.0
C152 C 0.80405 0.1887 0.01566 0.0
C153 C 0.87958 0.25571 0.02093 0.0
C154 C 0.84611 0.18212 0.99022 0.0
C155 C 0.87769 0.1498 0.98634 0.0
C156 C 0.86681 0.12334 0.00762 0.0
C157 C 0.82466 0.13005 0.03312 0.0
C158 C 0.79358 0.16247 0.03709 0.0
H159 H 0.89718 0.28042 0.03142 0.0
H160 H 0.9018 0.23381 0.03409 0.0
H161 H 0.89966 0.25428 -0.00283 0.0
H162 H 0.8534 0.20175 0.973 0.0
H163 H 0.9094 0.14536 0.96633 0.0
H164 H 0.17921 0.10214 0.53156 0.0
H165 H 0.23527 0.15827 0.53453 0.0
H166 H 0.06943 0.20468 0.48355 0.0
H167 H 0.01383 0.14844 0.47973 0.0
H168 H 0.19111 0.2229 0.46121 0.0
H169 H 0.19057 0.24182 0.58743 0.0
H170 H 0.23022 0.20174 0.57564 0.0
H171 H 0.14064 0.20886 0.5685 0.0
C172 C 0.15428 0.12434 0.52123 0.0
C173 C 0.09193 0.12082 0.50545 0.0
C174 C 0.18625 0.15647 0.52311 0.0
C175 C 0.15599 0.18578 0.50971 0.0
C176 C 0.09353 0.1824 0.49416 0.0
H177 H 0.27748 0.3992 0.53723 0.0
H178 H 0.21985 0.34343 0.53743 0.0
C179 C 0.06182 0.15024 0.49201 0.0
C180 C 0.19097 0.21962 0.51051 0.0
H181 H 0.25947 0.2803 0.55873 0.0
C182 C 0.20576 0.23554 0.48254 0.0
C183 C 0.20934 0.23625 0.53837 0.0
C184 C 0.19129 0.22148 0.56919 0.0
C185 C 0.23913 0.26746 0.48162 0.0
C186 C 0.25988 0.28343 0.50943 0.0
C187 C 0.24428 0.26776 0.53743 0.0
C188 C 0.29634 0.31684 0.50995 0.0
C189 C 0.25051 0.28407 0.45088 0.0
C190 C 0.35915 0.3202 0.49492 0.0
C191 C 0.39202 0.35213 0.49453 0.0
C192 C 0.3631 0.38118 0.50955 0.0
C193 C 0.30116 0.37741 0.52538 0.0
C194 C 0.26812 0.34554 0.52555 0.0
H195 H 0.21538 0.27364 0.43307 0.0
H196 H 0.24319 0.31261 0.45235 0.0
H197 H 0.30358 0.27858 0.44326 0.0
H198 H 0.38266 0.29815 0.48338 0.0
H199 H 0.43998 0.35404 0.48239 0.0
H200 H 0.7823 0.8982 0.52909 0.0
H201 H 0.72887 0.84152 0.53191 0.0
H202 H 0.895 0.79613 0.47998 0.0
H203 H 0.94797 0.85299 0.47627 0.0
H204 H 0.77418 0.77537 0.45841 0.0
H205 H 0.77918 0.76002 0.58454 0.0
H206 H 0.73721 0.79941 0.57321 0.0
H207 H 0.82675 0.79316 0.56538 0.0
C208 C 0.80785 0.87613 0.51847 0.0
C209 C 0.86955 0.88011 0.50252 0.0
C210 C 0.7774 0.84368 0.52029 0.0
C211 C 0.80859 0.81447 0.50667 0.0
C212 C 0.87026 0.81832 0.4908 0.0
H213 H 0.68102 0.60236 0.53686 0.0
H214 H 0.7426 0.65702 0.53605 0.0
C215 C 0.90045 0.85083 0.48871 0.0
C216 C 0.77521 0.78024 0.50769 0.0
H217 H 0.70771 0.72111 0.5564 0.0
C218 C 0.76009 0.76338 0.47985 0.0
C219 C 0.75777 0.76438 0.53568 0.0
C220 C 0.7767 0.78 0.56639 0.0
C221 C 0.72663 0.73145 0.47918 0.0
C222 C 0.70606 0.71647 0.50711 0.0
C223 C 0.72263 0.7329 0.53499 0.0
C224 C 0.66784 0.6836 0.50791 0.0
C225 C 0.71464 0.71387 0.44857 0.0
C226 C 0.60473 0.68062 0.49284 0.0
C227 C 0.56963 0.64932 0.49303 0.0
C228 C 0.5965 0.62057 0.50873 0.0
C229 C 0.65883 0.62398 0.52455 0.0
C230 C 0.69415 0.65519 0.52411 0.0
H231 H 0.75049 0.7232 0.43084 0.0
H232 H 0.72046 0.6853 0.45032 0.0
H233 H 0.66195 0.71982 0.44065 0.0
H234 H 0.58261 0.7025 0.48088 0.0
H235 H 0.52145 0.64768 0.48087 0.0
H236 H 0.19049 0.05118 0.92752 0.0
H237 H 0.30721 0.03966 0.90981 0.0
H238 H 0.37507 0.03141 0.00364 0.0
H239 H 0.25871 0.04224 0.02157 0.0
H240 H 0.46623 0.06647 0.94528 0.0
H241 H 0.37005 0.93106 0.94101 0.0
H242 H 0.31842 0.96747 0.92874 0.0
H243 H 0.3339 0.96087 0.96882 0.0
C244 C 0.23084 0.04845 0.94441 0.0
C245 C 0.21571 0.04709 0.97593 0.0
C246 C 0.29725 0.04173 0.9342 0.0
C247 C 0.3488 0.03433 0.9555 0.0
C248 C 0.33537 0.03703 0.98699 0.0
H249 H 0.6986 0.96304 0.02039 0.0
H250 H 0.58174 0.973 0.00264 0.0
C251 C 0.26907 0.04324 -0.00281 0.0
C252 C 0.41329 0.01801 0.9458 0.0
H253 H 0.48966 0.93818 0.94562 0.0
C254 C 0.47152 0.03848 0.94406 0.0
C255 C 0.41923 0.98149 0.94433 0.0
C256 C 0.35721 0.95873 0.94568 0.0
C257 C 0.53661 0.02312 0.94351 0.0
C258 C 0.54267 0.98663 0.94515 0.0
C259 C 0.48431 0.96613 0.94424 0.0
C260 C 0.60766 0.97063 0.95445 0.0
C261 C 0.59868 0.04592 0.94407 0.0
C262 C 0.65926 0.96382 0.93301 0.0
C263 C 0.72596 0.95756 0.94312 0.0
C264 C 0.74127 0.95881 0.97468 0.0
C265 C 0.68801 0.96209 -0.00402 0.0
C266 C 0.62144 0.9678 0.98589 0.0
H267 H 0.58538 0.07357 0.94011 0.0
H268 H 0.62454 0.04381 0.96669 0.0
H269 H 0.63555 0.03714 0.92624 0.0
H270 H 0.64904 0.96602 0.90867 0.0
H271 H 0.76628 0.95531 0.92623 0.0
H272 H 0.26012 0.95987 0.52257 0.0
H273 H 0.37602 0.97279 0.50609 0.0
H274 H 0.31212 0.96755 0.41145 0.0
H275 H 0.19597 0.95393 0.42769 0.0
H276 H 0.47056 0.94238 0.44177 0.0
H277 H 0.36303 0.076 0.45421 0.0
H278 H 0.33448 0.04398 0.48093 0.0
H279 H 0.3124 0.03985 0.44111 0.0
C280 C 0.27148 0.95983 0.49825 0.0
C281 C 0.21919 0.95641 0.47641 0.0
C282 C 0.33748 0.96727 0.48888 0.0
C283 C 0.35156 0.9716 0.45767 0.0
C284 C 0.3016 0.96426 0.43562 0.0
H285 H 0.76166 0.05517 0.43133 0.0
H286 H 0.644 0.04608 0.4142 0.0
C287 C 0.23553 0.95631 0.44498 0.0
C288 C 0.41405 0.98973 0.4493 0.0
H289 H 0.48388 0.06982 0.45739 0.0
C290 C 0.47358 0.97034 0.44395 0.0
C291 C 0.41694 0.02621 0.45216 0.0
C292 C 0.35334 0.04793 0.45724 0.0
C293 C 0.53731 0.98641 0.44408 0.0
C294 C 0.54063 0.02247 0.44999 0.0
C295 C 0.48066 0.04222 0.45274 0.0
C296 C 0.60517 0.03797 0.45988 0.0
C297 C 0.60114 0.96445 0.44073 0.0
C298 C 0.62042 0.03843 0.4913 0.0
C299 C 0.6873 0.04322 0.50115 0.0
C300 C 0.73936 0.0479 0.47961 0.0
C301 C 0.72234 0.0517 0.44842 0.0
C302 C 0.65538 0.04639 0.43854 0.0
H303 H 0.58957 0.93707 0.43478 0.0
H304 H 0.63416 0.97517 0.42257 0.0
H305 H 0.63053 0.96499 0.46255 0.0
H306 H 0.58179 0.032 0.508 0.0
H307 H 0.69914 0.04038 0.5253 0.0
H308 H 0.75552 0.54248 0.03628 0.0
H309 H 0.87218 0.52958 0.01986 0.0
H310 H 0.81118 0.53964 0.92523 0.0
H311 H 0.69435 0.55329 0.94146 0.0
H312 H 0.86812 0.46541 0.97347 0.0
H313 H 0.0194 0.58024 0.93936 0.0
H314 H 0.95758 0.58466 0.96986 0.0
H315 H 0.92904 0.57733 0.93127 0.0
C316 C 0.76766 0.54361 0.01207 0.0
C317 C 0.71599 0.54833 0.99012 0.0
C318 C 0.83409 0.53615 0.00273 0.0
C319 C 0.84935 0.53325 0.97141 0.0
C320 C 0.79989 0.54191 0.9495 0.0
H321 H 0.26194 0.45477 0.93823 0.0
H322 H 0.1428 0.46213 0.9222 0.0
C323 C 0.73337 0.54986 0.95886 0.0
C324 C 0.912 0.5147 0.9624 0.0
H325 H 0.08005 0.52776 0.94795 0.0
C326 C 0.91429 0.47878 0.96704 0.0
C327 C -0.02884 0.53231 0.95357 0.0
C328 C 0.9698 0.57079 0.94807 0.0
C329 C -0.02379 0.46047 0.96592 0.0
C330 C 0.03654 0.4787 0.96006 0.0
C331 C 0.03323 0.51395 0.95237 0.0
C332 C 0.10355 0.46426 0.96848 0.0
C333 C -0.02242 0.42236 0.97316 0.0
C334 C 0.11975 0.46162 -0.00026 0.0
C335 C 0.1875 0.4581 0.00897 0.0
C336 C 0.23954 0.45671 0.98698 0.0
C337 C 0.2225 0.4555 0.95562 0.0
C338 C 0.1547 0.45982 0.94639 0.0
H339 H 0.92725 0.4103 0.96867 0.0
H340 H 0.01728 0.40853 0.95944 0.0
H341 H -0.00992 0.41902 -0.00218 0.0
H342 H 0.08069 0.46541 0.01705 0.0
H343 H 0.19958 0.45912 0.03324 0.0
H344 H 0.25407 0.5583 0.44469 0.0
H345 H 0.13341 0.55271 0.43105 0.0
H346 H 0.0829 0.54246 0.52677 0.0
H347 H 0.20317 0.54729 0.54047 0.0
H348 H 0.07899 0.48683 0.44982 0.0
H349 H 0.91852 0.59709 0.48998 0.0
H350 H 0.00774 0.60157 0.48028 0.0
H351 H -0.01644 0.58522 0.51715 0.0
C352 C 0.21679 0.55654 0.46291 0.0
C353 C 0.23759 0.55275 0.49361 0.0
C354 C 0.14806 0.55324 0.45504 0.0
C355 C 0.09971 0.54715 0.47791 0.0
C356 C 0.11957 0.54758 0.50885 0.0
H357 H 0.75333 0.45878 0.53973 0.0
H358 H 0.86995 0.47429 0.5265 0.0
C359 C 0.18822 0.55021 0.51667 0.0
C360 C 0.03283 0.53266 0.46997 0.0
H361 H 0.86581 0.5405 0.49003 0.0
C362 C 0.03174 0.49888 0.45761 0.0
C363 C -0.02813 0.54855 0.48023 0.0
C364 C 0.97023 0.58527 0.49239 0.0
C365 C -0.02807 0.47931 0.45807 0.0
C366 C 0.91258 0.49424 0.47096 0.0
C367 C 0.91223 0.52904 0.48067 0.0
C368 C 0.8517 0.47378 0.47752 0.0
C369 C -0.02648 0.44215 0.44707 0.0
C370 C 0.80519 0.46575 0.45414 0.0
C371 C 0.7388 0.45623 0.46165 0.0
C372 C 0.71853 0.45559 0.49258 0.0
C373 C 0.76779 0.4593 0.51576 0.0
C374 C 0.83416 0.46834 0.50823 0.0
H375 H 0.02461 0.43415 0.43834 0.0
H376 H 0.95921 0.42483 0.46613 0.0
H377 H 0.93543 0.43859 0.42843 0.0
H378 H 0.81812 0.46998 0.43033 0.0
H379 H 0.7016 0.45366 0.44335 0.0
H380 H -0.00549 0.05692 0.37281 0.0
H381 H -0.00691 0.05714 0.31678 0.0
H382 H 0.95257 0.94752 0.31532 0.0
H383 H 0.95567 0.94682 0.37135 0.0
H384 H 0.05082 0.96407 0.27509 0.0
H385 H 0.82853 0.05263 0.2609 0.0
H386 H 0.89502 0.07098 0.2841 0.0
H387 H 0.85045 0.03344 0.29724 0.0
C388 C -0.01501 0.03286 0.3606 0.0
C389 C -0.02507 0.00186 0.37657 0.0
C390 C -0.01623 0.03309 0.32856 0.0
C391 C -0.02857 0.00249 0.3119 0.0
C392 C 0.96182 0.97147 0.32775 0.0
H393 H 0.86891 -0.00854 0.11824 0.0
H394 H 0.86848 0.98999 0.17426 0.0
C395 C 0.96361 0.97114 0.35978 0.0
C396 C 0.97051 0.00254 0.27792 0.0
H397 H 0.89384 0.04011 0.21603 0.0
C398 C 0.01628 0.98056 0.26215 0.0
C399 C 0.92472 0.02372 0.26111 0.0
C400 C 0.87142 0.04626 0.27668 0.0
C401 C 0.01825 0.97955 0.22998 0.0
C402 C -0.02555 0.0018 0.21319 0.0
C403 C 0.92793 0.02338 0.22896 0.0
C404 C -0.02472 0.00274 0.17923 0.0
C405 C 0.06629 0.95415 0.21436 0.0
C406 C 0.03527 0.01085 0.16345 0.0
C407 C 0.03589 0.01138 0.13141 0.0
C408 C -0.02382 0.00436 0.11457 0.0
C409 C 0.9158 -0.00303 0.13049 0.0
C410 C 0.91542 -0.00387 0.16252 0.0
H411 H 0.08093 0.93254 0.22978 0.0
H412 H 0.04302 0.94307 0.19323 0.0
H413 H 0.11366 0.96772 0.20787 0.0
H414 H 0.08159 0.01694 0.17591 0.0
H415 H 0.08307 0.01752 0.11987 0.0
H416 H 0.01464 0.94744 0.87268 0.0
H417 H 0.01784 0.94671 0.81663 0.0
H418 H 0.94853 0.05318 0.81551 0.0
H419 H 0.94703 0.05448 0.87154 0.0
H420 H 0.91738 0.95618 0.77543 0.0
H421 H 0.11347 0.05693 0.76061 0.0
H422 H 0.09615 0.03767 0.79726 0.0
H423 H 0.04207 0.07192 0.78296 0.0
C424 C 0.00034 0.97077 0.86052 0.0
C425 C -0.01897 0.00111 0.87658 0.0
C426 C 0.00219 0.97029 0.82849 0.0
C427 C -0.01539 7e-05 0.81191 0.0
C428 C 0.96409 0.03019 0.82785 0.0
H429 H 0.87113 0.00507 0.61945 0.0
H430 H 0.87265 0.00449 0.67548 0.0
C431 C 0.96286 0.03081 0.85989 0.0
C432 C -0.01388 -0.0007 0.77793 0.0
H433 H 0.05232 0.03983 0.71568 0.0
C434 C 0.94718 0.97434 0.76235 0.0
C435 C 0.02587 0.02266 0.76092 0.0
C436 C 0.0723 0.04857 0.77628 0.0
C437 C 0.94592 0.97249 0.73019 0.0
C438 C -0.01678 -0.00313 0.71318 0.0
C439 C 0.02313 0.02142 0.72876 0.0
C440 C -0.01789 -0.00276 0.6792 0.0
C441 C 0.90567 0.94403 0.71482 0.0
C442 C 0.04336 -0.00554 0.66269 0.0
C443 C 0.04281 -0.00467 0.63066 0.0
C444 C -0.01911 -0.00108 0.61452 0.0
C445 C 0.91963 0.00192 0.63115 0.0
C446 C 0.92033 0.00137 0.66319 0.0
H447 H 0.89754 0.92195 0.7305 0.0
H448 H 0.85475 0.95436 0.7081 0.0
H449 H 0.93186 0.93419 0.69386 0.0
H450 H 0.09165 -0.00857 0.6746 0.0
H451 H 0.09091 -0.00706 0.61858 0.0
H452 H 0.50572 0.44612 0.38152 0.0
H453 H 0.50657 0.44619 0.32543 0.0
H454 H 0.4405 0.55317 0.32603 0.0
H455 H 0.44077 0.55364 0.38205 0.0
H456 H 0.40266 0.45875 0.28454 0.0
H457 H 0.60839 0.55503 0.27146 0.0
H458 H 0.5904 0.5346 0.30755 0.0
H459 H 0.53855 0.57038 0.29466 0.0
C460 C 0.49148 0.46971 0.36975 0.0
C461 C 0.47368 0.49996 0.38628 0.0
C462 C 0.49197 0.46968 0.33771 0.0
C463 C 0.47475 0.49985 0.32164 0.0
C464 C 0.45555 0.52986 0.33802 0.0
H465 H 0.36591 0.51328 0.12896 0.0
H466 H 0.36567 0.5119 0.185 0.0
C467 C 0.45542 0.53 0.37005 0.0
C468 C 0.47602 0.49978 0.28771 0.0
H469 H 0.54725 0.53955 0.22623 0.0
C470 C 0.43444 0.4763 0.27175 0.0
C471 C 0.51828 0.5224 0.27116 0.0
C472 C 0.56695 0.5468 0.28705 0.0
C473 C 0.43313 0.4752 0.23958 0.0
C474 C 0.47347 0.49871 0.22304 0.0
C475 C 0.51585 0.52181 0.23901 0.0
C476 C 0.47332 0.4995 0.18912 0.0
C477 C 0.38954 0.44848 0.22363 0.0
C478 C 0.5343 0.49392 0.17293 0.0
C479 C 0.53483 0.49507 0.14094 0.0
C480 C 0.47429 0.50187 0.12453 0.0
C481 C 0.41332 0.50771 0.14086 0.0
C482 C 0.41296 0.50673 0.17289 0.0
H483 H 0.37705 0.42674 0.23907 0.0
H484 H 0.34081 0.46081 0.21628 0.0
H485 H 0.4155 0.43776 0.20293 0.0
H486 H 0.58149 0.48847 0.18508 0.0
H487 H 0.58267 0.49045 0.1291 0.0
H488 H 0.57863 0.52188 0.62934 0.0
H489 H 0.57801 0.52212 0.68536 0.0
H490 H 0.37242 0.48327 0.68469 0.0
H491 H 0.3719 0.48358 0.62862 0.0
H492 H 0.38937 0.53699 0.72555 0.0
H493 H 0.5939 0.43791 0.74026 0.0
H494 H 0.61897 0.47382 0.7172 0.0
H495 H 0.55259 0.44553 0.70386 0.0
C496 C 0.5333 0.51327 0.64106 0.0
C497 C 0.47541 0.50254 0.62448 0.0
C498 C 0.53321 0.51326 0.67309 0.0
C499 C 0.47562 0.50213 0.68912 0.0
C500 C 0.4175 0.49178 0.6727 0.0
H501 H 0.46146 0.44872 0.88141 0.0
H502 H 0.45901 0.44883 0.8254 0.0
C503 C 0.41736 0.49197 0.64067 0.0
C504 C 0.47546 0.50188 0.72306 0.0
H505 H 0.55833 0.46845 0.78522 0.0
C506 C 0.42612 0.52192 0.73863 0.0
C507 C 0.52294 0.48182 0.73999 0.0
C508 C 0.57469 0.45828 0.72451 0.0
C509 C 0.42355 0.52285 0.77078 0.0
C510 C 0.47256 0.50377 0.78771 0.0
C511 C 0.52128 0.48334 0.77214 0.0
C512 C 0.47352 0.50411 0.82165 0.0
C513 C 0.36766 0.54374 0.78629 0.0
C514 C 0.48324 0.53513 0.83805 0.0
C515 C 0.48434 0.53523 0.8701 0.0
C516 C 0.47647 0.50419 0.88628 0.0
C517 C 0.46765 0.47309 0.8697 0.0
C518 C 0.46625 0.47307 0.83769 0.0
H519 H 0.32428 0.54897 0.77046 0.0
H520 H 0.34805 0.53015 0.80674 0.0
H521 H 0.38838 0.56903 0.79396 0.0
H522 H 0.49049 0.55925 0.82607 0.0
H523 H 0.49177 0.55959 0.88214 0.0
loop_
_geom_bond_atom_site_label_1
_geom_bond_atom_site_label_2
_geom_bond_distance
_geom_bond_site_symmetry_2
_ccdc_geom_bond_type
O0 Zn1 1.953 . S
O0 C16 1.225 1_665 S
Zn1 O0 1.953 . S
Zn1 O2 1.949 1_666 S
Zn1 O8 1.919 1_655 S
Zn1 O13 1.924 . S
O2 Zn1 1.949 1_444 S
O2 Zn3 1.923 1_545 S
O2 Zn4 1.950 1_554 S
O2 Zn5 1.945 1_455 S
Zn3 O2 1.923 1_565 S
Zn3 O6 1.933 1_565 S
Zn3 O9 1.941 . S
Zn3 O10 1.965 1_565 S
Zn4 O2 1.950 1_556 S
Zn4 O11 1.938 . S
Zn4 O12 1.906 . S
Zn4 O22 1.953 . S
Zn5 O2 1.945 1_655 S
Zn5 O7 1.932 . S
Zn5 O14 1.977 . S
Zn5 O15 1.910 . S
O6 Zn3 1.933 1_545 S
O6 C17 1.226 . S
O7 Zn5 1.932 . S
O7 C17 1.307 1_655 S
O8 Zn1 1.919 1_455 S
O8 C19 1.253 1_556 S
O9 Zn3 1.941 . S
O9 C19 1.283 . S
O10 Zn3 1.965 1_545 S
O10 C18 1.303 1_554 S
O11 Zn4 1.938 . S
O11 C18 1.247 . S
O12 Zn4 1.906 . S
O12 C20 1.304 1_456 S
O13 Zn1 1.924 . S
O13 C21 1.311 . S
O14 Zn5 1.977 . S
O14 C20 1.272 . S
O15 Zn5 1.910 . S
O15 C21 1.231 1_544 S
C16 O0 1.225 1_445 S
C16 O22 1.298 . S
C17 O6 1.226 . S
C17 O7 1.307 1_455 S
C18 O10 1.303 1_556 S
C18 O11 1.247 . S
C19 O8 1.253 1_554 S
C19 O9 1.283 . S
C20 O12 1.304 1_654 S
C20 O14 1.272 . S
C21 O13 1.311 . S
C21 O15 1.231 1_566 S
O22 Zn4 1.953 . S
O22 C16 1.298 . S
O23 Zn24 1.953 . S
O23 C39 1.225 1_565 S
Zn24 O23 1.953 . S
Zn24 O25 1.949 1_565 S
Zn24 O31 1.919 . S
Zn24 O36 1.924 . S
O25 Zn24 1.949 1_545 S
O25 Zn26 1.923 . S
O25 Zn27 1.950 1_455 S
O25 Zn28 1.945 1_445 S
Zn26 O25 1.923 . S
Zn26 O29 1.933 . S
Zn26 O32 1.941 . S
Zn26 O33 1.965 . S
Zn27 O25 1.950 1_655 S
Zn27 O34 1.938 . S
Zn27 O35 1.906 . S
Zn27 O45 1.953 . S
Zn28 O25 1.945 1_665 S
Zn28 O30 1.932 . S
Zn28 O37 1.965 1_565 S
Zn28 O38 1.910 . S
O29 Zn26 1.933 . S
O29 C40 1.226 . S
O30 Zn28 1.932 . S
O30 C40 1.307 1_665 S
O31 Zn24 1.919 . S
O31 C42 1.253 . S
O32 Zn26 1.941 . S
O32 C42 1.283 1_545 S
O33 Zn26 1.965 . S
O33 C41 1.303 . S
O34 Zn27 1.938 . S
O34 C41 1.247 1_655 S
O35 Zn27 1.906 . S
O35 C43 1.304 . S
O36 Zn24 1.924 . S
O36 C44 1.311 1_455 S
O37 Zn28 1.965 1_545 S
O37 C43 1.299 . S
O38 Zn28 1.910 . S
O38 C44 1.231 . S
C39 O23 1.225 1_545 S
C39 O45 1.298 1_455 S
C40 O29 1.226 . S
C40 O30 1.307 1_445 S
C41 O33 1.303 . S
C41 O34 1.247 1_455 S
C42 O31 1.253 . S
C42 O32 1.283 1_565 S
C43 O35 1.304 . S
C43 O37 1.299 . S
C44 O36 1.311 1_655 S
C44 O38 1.231 . S
O45 Zn27 1.953 . S
O45 C39 1.298 1_655 S
O46 Zn47 1.953 . S
O46 C62 1.225 . S
Zn47 O46 1.953 . S
Zn47 O48 1.949 1_556 S
Zn47 O54 1.919 . S
Zn47 O59 1.924 . S
O48 Zn47 1.949 1_554 S
O48 Zn49 1.923 . S
O48 Zn50 1.950 1_554 S
O48 Zn51 1.945 . S
Zn49 O48 1.923 . S
Zn49 O52 1.933 . S
Zn49 O55 1.941 . S
Zn49 O56 1.965 . S
Zn50 O48 1.950 1_556 S
Zn50 O57 1.938 . S
Zn50 O58 1.906 . S
Zn50 O68 1.953 . S
Zn51 O48 1.945 . S
Zn51 O53 1.932 . S
Zn51 O60 1.977 . S
Zn51 O61 1.910 . S
O52 Zn49 1.933 . S
O52 C63 1.226 . S
O53 Zn51 1.932 . S
O53 C63 1.307 . S
O54 Zn47 1.919 . S
O54 C65 1.253 1_556 S
O55 Zn49 1.941 . S
O55 C65 1.283 . S
O56 Zn49 1.965 . S
O56 C64 1.303 1_554 S
O57 Zn50 1.938 . S
O57 C64 1.247 . S
O58 Zn50 1.906 . S
O58 C66 1.304 1_556 S
O59 Zn47 1.924 . S
O59 C67 1.311 . S
O60 Zn51 1.977 . S
O60 C66 1.272 . S
O61 Zn51 1.910 . S
O61 C67 1.231 1_554 S
C62 O46 1.225 . S
C62 O68 1.298 . S
C63 O52 1.226 . S
C63 O53 1.307 . S
C64 O56 1.303 1_556 S
C64 O57 1.247 . S
C65 O54 1.253 1_554 S
C65 O55 1.283 . S
C66 O58 1.304 1_554 S
C66 O60 1.272 . S
C67 O59 1.311 . S
C67 O61 1.231 1_556 S
O68 Zn50 1.953 . S
O68 C62 1.298 . S
O69 Zn70 1.953 . S
O69 C85 1.225 . S
Zn70 O69 1.953 . S
Zn70 O71 1.949 . S
Zn70 O77 1.919 . S
Zn70 O82 1.924 . S
O71 Zn70 1.949 . S
O71 Zn72 1.923 . S
O71 Zn73 1.950 . S
O71 Zn74 1.945 . S
Zn72 O71 1.923 . S
Zn72 O75 1.933 . S
Zn72 O78 1.941 . S
Zn72 O79 1.965 . S
Zn73 O71 1.950 . S
Zn73 O80 1.938 . S
Zn73 O81 1.906 . S
Zn73 O91 1.953 . S
Zn74 O71 1.945 . S
Zn74 O76 1.932 . S
Zn74 O83 1.977 . S
Zn74 O84 1.910 . S
O75 Zn72 1.933 . S
O75 C86 1.226 . S
O76 Zn74 1.932 . S
O76 C86 1.307 . S
O77 Zn70 1.919 . S
O77 C88 1.253 . S
O78 Zn72 1.941 . S
O78 C88 1.283 . S
O79 Zn72 1.965 . S
O79 C87 1.303 . S
O80 Zn73 1.938 . S
O80 C87 1.247 . S
O81 Zn73 1.906 . S
O81 C89 1.304 . S
O82 Zn70 1.924 . S
O82 C90 1.311 . S
O83 Zn74 1.977 . S
O83 C89 1.272 . S
O84 Zn74 1.910 . S
O84 C90 1.231 . S
C85 O69 1.225 . S
C85 O91 1.298 . S
C86 O75 1.226 . S
C86 O76 1.307 . S
C87 O79 1.303 . S
C87 O80 1.247 . S
C88 O77 1.253 . S
C88 O78 1.283 . S
C89 O81 1.304 . S
C89 O83 1.272 . S
C90 O82 1.311 . S
C90 O84 1.231 . S
O91 Zn73 1.953 . S
O91 C85 1.298 . S
H92 C100 0.929 . S
H93 C102 0.930 . S
H94 C104 0.930 . S
H95 C107 0.929 . S
H96 C110 0.930 . S
H97 C112 0.960 . S
H98 C112 0.960 . S
H99 C112 0.960 . S
C100 H92 0.929 . S
C100 C101 1.377 1_556 S
C100 C102 1.384 . S
C101 C100 1.377 1_554 S
C101 C107 1.390 . S
C102 H93 0.930 . S
C102 C100 1.384 . S
C102 C103 1.372 1_556 S
C103 C102 1.372 1_554 S
C103 C104 1.400 . S
C103 C108 1.490 . S
C104 H94 0.930 . S
C104 C103 1.400 . S
C104 C107 1.386 . S
H105 C121 0.930 . S
H106 C122 0.931 . S
C107 H95 0.929 . S
C107 C101 1.390 . S
C107 C104 1.386 . S
C108 C103 1.490 . S
C108 C110 1.395 . S
C108 C111 1.403 . S
H109 C115 0.930 . S
C110 H96 0.930 . S
C110 C108 1.395 . S
C110 C113 1.403 . S
C111 C108 1.403 . S
C111 C112 1.524 . S
C111 C115 1.400 . S
C112 H97 0.960 . S
C112 H98 0.960 . S
C112 H99 0.960 . S
C112 C111 1.524 . S
C113 C110 1.403 . S
C113 C114 1.392 . S
C113 C117 1.495 1_554 S
C114 C113 1.392 . S
C114 C115 1.385 . S
C114 C116 1.478 . S
C115 H109 0.930 . S
C115 C111 1.400 . S
C115 C114 1.385 . S
C116 C114 1.478 . S
C116 C118 1.381 1_554 S
C116 C122 1.383 . S
C117 C113 1.495 1_556 S
C117 H123 0.959 . S
C117 H124 0.961 1_556 S
C117 H125 0.960 . S
C118 C116 1.381 1_556 S
C118 C119 1.394 . S
C118 H126 0.930 . S
C119 C118 1.394 . S
C119 C120 1.383 1_556 S
C119 H127 0.929 . S
C120 C119 1.383 1_554 S
C120 C121 1.377 . S
C121 H105 0.930 . S
C121 C120 1.377 . S
C121 C122 1.379 . S
C122 H106 0.931 . S
C122 C116 1.383 . S
C122 C121 1.379 . S
H123 C117 0.959 . S
H124 C117 0.961 1_554 S
H125 C117 0.960 . S
H126 C118 0.930 . S
H127 C119 0.929 . S
H128 C136 0.917 1_556 S
H129 C138 0.920 1_556 S
H130 C140 0.930 . S
H131 C143 0.929 . S
H132 C146 0.930 . S
H133 C148 0.960 . S
H134 C148 0.960 . S
H135 C148 0.960 1_554 S
C136 H128 0.917 1_554 S
C136 C137 1.390 . S
C136 C138 1.384 . S
C137 C136 1.390 . S
C137 C143 1.390 . S
C138 H129 0.920 1_554 S
C138 C136 1.384 . S
C138 C139 1.381 . S
C139 C138 1.381 . S
C139 C140 1.400 . S
C139 C144 1.490 . S
C140 H130 0.930 . S
C140 C139 1.400 . S
C140 C143 1.386 . S
H141 C157 0.930 . S
H142 C158 0.931 . S
C143 H131 0.929 . S
C143 C137 1.390 . S
C143 C140 1.386 . S
C144 C139 1.490 . S
C144 C146 1.395 . S
C144 C147 1.403 . S
H145 C151 0.930 . S
C146 H132 0.930 . S
C146 C144 1.395 . S
C146 C149 1.403 . S
C147 C144 1.403 . S
C147 C148 1.524 1_554 S
C147 C151 1.400 . S
C148 H133 0.960 . S
C148 H134 0.960 . S
C148 H135 0.960 1_556 S
C148 C147 1.524 1_556 S
C149 C146 1.403 . S
C149 C150 1.392 . S
C149 C153 1.495 . S
C150 C149 1.392 . S
C150 C151 1.385 . S
C150 C152 1.478 . S
C151 H145 0.930 . S
C151 C147 1.400 . S
C151 C150 1.385 . S
C152 C150 1.478 . S
C152 C154 1.381 . S
C152 C158 1.383 . S
C153 C149 1.495 . S
C153 H159 0.959 . S
C153 H160 0.961 . S
C153 H161 0.960 . S
C154 C152 1.381 . S
C154 C155 1.396 . S
C154 H162 0.930 1_554 S
C155 C154 1.396 . S
C155 C156 1.407 . S
C155 H163 0.906 1_554 S
C156 C155 1.407 . S
C156 C157 1.377 . S
C157 H141 0.930 . S
C157 C156 1.377 . S
C157 C158 1.379 . S
C158 H142 0.931 . S
C158 C152 1.383 . S
C158 C157 1.379 . S
H159 C153 0.959 . S
H160 C153 0.961 . S
H161 C153 0.960 . S
H162 C154 0.930 1_556 S
H163 C155 0.906 1_556 S
H164 C172 0.929 . S
H165 C174 0.930 . S
H166 C176 0.930 . S
H167 C179 0.929 . S
H168 C182 0.930 . S
H169 C184 0.960 . S
H170 C184 0.960 . S
H171 C184 0.960 . S
C172 H164 0.929 . S
C172 C173 1.377 . S
C172 C174 1.384 . S
C173 C172 1.377 . S
C173 C179 1.390 . S
C174 H165 0.930 . S
C174 C172 1.384 . S
C174 C175 1.372 . S
C175 C174 1.372 . S
C175 C176 1.400 . S
C175 C180 1.490 . S
C176 H166 0.930 . S
C176 C175 1.400 . S
C176 C179 1.386 . S
H177 C193 0.930 . S
H178 C194 0.931 . S
C179 H167 0.929 . S
C179 C173 1.390 . S
C179 C176 1.386 . S
C180 C175 1.490 . S
C180 C182 1.395 . S
C180 C183 1.403 . S
H181 C187 0.930 . S
C182 H168 0.930 . S
C182 C180 1.395 . S
C182 C185 1.403 . S
C183 C180 1.403 . S
C183 C184 1.524 . S
C183 C187 1.400 . S
C184 H169 0.960 . S
C184 H170 0.960 . S
C184 H171 0.960 . S
C184 C183 1.524 . S
C185 C182 1.403 . S
C185 C186 1.392 . S
C185 C189 1.495 . S
C186 C185 1.392 . S
C186 C187 1.385 . S
C186 C188 1.478 . S
C187 H181 0.930 . S
C187 C183 1.400 . S
C187 C186 1.385 . S
C188 C186 1.478 . S
C188 C190 1.381 . S
C188 C194 1.383 . S
C189 C185 1.495 . S
C189 H195 0.959 . S
C189 H196 0.961 . S
C189 H197 0.960 . S
C190 C188 1.381 . S
C190 C191 1.394 . S
C190 H198 0.930 . S
C191 C190 1.394 . S
C191 C192 1.383 . S
C191 H199 0.929 . S
C192 C191 1.383 . S
C192 C193 1.377 . S
C193 H177 0.930 . S
C193 C192 1.377 . S
C193 C194 1.379 . S
C194 H178 0.931 . S
C194 C188 1.383 . S
C194 C193 1.379 . S
H195 C189 0.959 . S
H196 C189 0.961 . S
H197 C189 0.960 . S
H198 C190 0.930 . S
H199 C191 0.929 . S
H200 C208 0.929 . S
H201 C210 0.930 . S
H202 C212 0.930 . S
H203 C215 0.929 . S
H204 C218 0.930 . S
H205 C220 0.960 . S
H206 C220 0.960 . S
H207 C220 0.960 . S
C208 H200 0.929 . S
C208 C209 1.377 . S
C208 C210 1.384 . S
C209 C208 1.377 . S
C209 C215 1.390 . S
C210 H201 0.930 . S
C210 C208 1.384 . S
C210 C211 1.372 . S
C211 C210 1.372 . S
C211 C212 1.400 . S
C211 C216 1.490 . S
C212 H202 0.930 . S
C212 C211 1.400 . S
C212 C215 1.386 . S
H213 C229 0.930 . S
H214 C230 0.931 . S
C215 H203 0.929 . S
C215 C209 1.390 . S
C215 C212 1.386 . S
C216 C211 1.490 . S
C216 C218 1.395 . S
C216 C219 1.403 . S
H217 C223 0.930 . S
C218 H204 0.930 . S
C218 C216 1.395 . S
C218 C221 1.403 . S
C219 C216 1.403 . S
C219 C220 1.524 . S
C219 C223 1.400 . S
C220 H205 0.960 . S
C220 H206 0.960 . S
C220 H207 0.960 . S
C220 C219 1.524 . S
C221 C218 1.403 . S
C221 C222 1.392 . S
C221 C225 1.495 . S
C222 C221 1.392 . S
C222 C223 1.385 . S
C222 C224 1.478 . S
C223 H217 0.930 . S
C223 C219 1.400 . S
C223 C222 1.385 . S
C224 C222 1.478 . S
C224 C226 1.381 . S
C224 C230 1.383 . S
C225 C221 1.495 . S
C225 H231 0.959 . S
C225 H232 0.961 . S
C225 H233 0.960 . S
C226 C224 1.381 . S
C226 C227 1.394 . S
C226 H234 0.930 . S
C227 C226 1.394 . S
C227 C228 1.383 . S
C227 H235 0.929 . S
C228 C227 1.383 . S
C228 C229 1.377 . S
C229 H213 0.930 . S
C229 C228 1.377 . S
C229 C230 1.379 . S
C230 H214 0.931 . S
C230 C224 1.383 . S
C230 C229 1.379 . S
H231 C225 0.959 . S
H232 C225 0.961 . S
H233 C225 0.960 . S
H234 C226 0.930 . S
H235 C227 0.929 . S
H236 C244 0.929 . S
H237 C246 0.930 . S
H238 C248 0.930 . S
H239 C251 0.929 . S
H240 C254 0.930 . S
H241 C256 0.960 . S
H242 C256 0.960 . S
H243 C256 0.960 . S
C244 H236 0.929 . S
C244 C245 1.377 . S
C244 C246 1.384 . S
C245 C244 1.377 . S
C245 C251 1.390 1_556 S
C246 H237 0.930 . S
C246 C244 1.384 . S
C246 C247 1.372 . S
C247 C246 1.372 . S
C247 C248 1.400 1_556 S
C247 C252 1.490 . S
C248 H238 0.930 . S
C248 C247 1.400 1_554 S
C248 C251 1.386 . S
H249 C265 0.930 . S
H250 C266 0.931 . S
C251 H239 0.929 . S
C251 C245 1.390 1_554 S
C251 C248 1.386 . S
C252 C247 1.490 . S
C252 C254 1.395 . S
C252 C255 1.403 1_546 S
H253 C259 0.939 . S
C254 H240 0.930 . S
C254 C252 1.395 . S
C254 C257 1.403 . S
C255 C252 1.403 1_564 S
C255 C256 1.524 . S
C255 C259 1.401 . S
C256 H241 0.960 . S
C256 H242 0.960 . S
C256 H243 0.960 . S
C256 C255 1.524 . S
C257 C254 1.403 . S
C257 C258 1.392 . S
C257 C261 1.495 . S
C258 C257 1.392 . S
C258 C259 1.376 1_546 S
C258 C260 1.478 . S
C259 H253 0.939 . S
C259 C255 1.401 . S
C259 C258 1.376 1_564 S
C260 C258 1.478 . S
C260 C262 1.381 1_545 S
C260 C266 1.383 1_556 S
C261 C257 1.495 . S
C261 H267 0.959 . S
C261 H268 0.961 . S
C261 H269 0.960 . S
C262 C260 1.381 1_565 S
C262 C263 1.394 . S
C262 H270 0.930 . S
C263 C262 1.394 . S
C263 C264 1.383 . S
C263 H271 0.929 . S
C264 C263 1.383 . S
C264 C265 1.377 1_566 S
C265 H249 0.930 . S
C265 C264 1.377 1_544 S
C265 C266 1.379 . S
C266 H250 0.931 . S
C266 C260 1.383 1_554 S
C266 C265 1.379 . S
H267 C261 0.959 . S
H268 C261 0.961 . S
H269 C261 0.960 . S
H270 C262 0.930 . S
H271 C263 0.929 . S
H272 C280 0.929 . S
H273 C282 0.930 . S
H274 C284 0.930 . S
H275 C287 0.929 . S
H276 C290 0.930 . S
H277 C292 0.960 . S
H278 C292 0.960 . S
H279 C292 0.960 . S
C280 H272 0.929 . S
C280 C281 1.377 . S
C280 C282 1.384 . S
C281 C280 1.377 . S
C281 C287 1.390 1_565 S
C282 H273 0.930 . S
C282 C280 1.384 . S
C282 C283 1.366 1_565 S
C283 C282 1.366 1_545 S
C283 C284 1.404 . S
C283 C288 1.491 . S
C284 H274 0.930 . S
C284 C283 1.404 . S
C284 C287 1.386 . S
H285 C301 0.930 . S
H286 C302 0.931 . S
C287 H275 0.929 . S
C287 C281 1.390 1_545 S
C287 C284 1.386 . S
C288 C283 1.491 . S
C288 C290 1.395 1_545 S
C288 C291 1.403 . S
H289 C295 0.930 . S
C290 H276 0.930 . S
C290 C288 1.395 1_565 S
C290 C293 1.403 . S
C291 C288 1.403 . S
C291 C292 1.524 . S
C291 C295 1.400 . S
C292 H277 0.960 . S
C292 H278 0.960 . S
C292 H279 0.960 . S
C292 C291 1.524 . S
C293 C290 1.403 . S
C293 C294 1.392 1_565 S
C293 C297 1.495 . S
C294 C293 1.392 1_545 S
C294 C295 1.385 . S
C294 C296 1.478 . S
C295 H289 0.930 . S
C295 C291 1.400 . S
C295 C294 1.385 . S
C296 C294 1.478 . S
C296 C298 1.381 . S
C296 C302 1.383 . S
C297 C293 1.495 . S
C297 H303 0.959 . S
C297 H304 0.961 . S
C297 H305 0.960 . S
C298 C296 1.381 . S
C298 C299 1.394 . S
C298 H306 0.930 1_545 S
C299 C298 1.394 . S
C299 C300 1.383 . S
C299 H307 0.929 . S
C300 C299 1.383 . S
C300 C301 1.377 . S
C301 H285 0.930 . S
C301 C300 1.377 . S
C301 C302 1.379 . S
C302 H286 0.931 . S
C302 C296 1.383 . S
C302 C301 1.379 . S
H303 C297 0.959 . S
H304 C297 0.961 . S
H305 C297 0.960 . S
H306 C298 0.930 1_565 S
H307 C299 0.929 . S
H308 C316 0.929 . S
H309 C318 0.930 . S
H310 C320 0.930 . S
H311 C323 0.929 . S
H312 C326 0.930 . S
H313 C328 0.960 1_455 S
H314 C328 0.960 1_554 S
H315 C328 0.960 . S
C316 H308 0.929 . S
C316 C317 1.377 1_554 S
C316 C318 1.384 . S
C317 C316 1.377 1_556 S
C317 C323 1.390 . S
C318 H309 0.930 . S
C318 C316 1.384 . S
C318 C319 1.372 1_554 S
C319 C318 1.372 1_556 S
C319 C320 1.400 . S
C319 C324 1.490 . S
C320 H310 0.930 . S
C320 C319 1.400 . S
C320 C323 1.386 . S
H321 C337 0.930 . S
H322 C338 0.931 . S
C323 H311 0.929 . S
C323 C317 1.390 . S
C323 C320 1.386 . S
C324 C319 1.490 . S
C324 C326 1.395 . S
C324 C327 1.403 . S
H325 C331 0.930 . S
C326 H312 0.930 . S
C326 C324 1.395 . S
C326 C329 1.403 1_655 S
C327 C324 1.403 . S
C327 C328 1.524 . S
C327 C331 1.400 1_655 S
C328 H313 0.960 1_655 S
C328 H314 0.960 1_556 S
C328 H315 0.960 . S
C328 C327 1.524 . S
C329 C326 1.403 1_455 S
C329 C330 1.392 . S
C329 C333 1.495 . S
C330 C329 1.392 . S
C330 C331 1.385 . S
C330 C332 1.478 . S
C331 H325 0.930 . S
C331 C327 1.400 1_455 S
C331 C330 1.385 . S
C332 C330 1.478 . S
C332 C334 1.381 1_556 S
C332 C338 1.383 . S
C333 C329 1.495 . S
C333 H339 0.959 . S
C333 H340 0.961 . S
C333 H341 0.960 1_556 S
C334 C332 1.381 1_554 S
C334 C335 1.394 . S
C334 H342 0.930 . S
C335 C334 1.394 . S
C335 C336 1.383 1_554 S
C335 H343 0.929 . S
C336 C335 1.383 1_556 S
C336 C337 1.377 . S
C337 H321 0.930 . S
C337 C336 1.377 . S
C337 C338 1.379 . S
C338 H322 0.931 . S
C338 C332 1.383 . S
C338 C337 1.379 . S
H339 C333 0.959 . S
H340 C333 0.961 . S
H341 C333 0.960 1_554 S
H342 C334 0.930 . S
H343 C335 0.929 . S
H344 C352 0.929 . S
H345 C354 0.930 . S
H346 C356 0.930 . S
H347 C359 0.929 . S
H348 C362 0.930 . S
H349 C364 0.960 . S
H350 C364 0.960 . S
H351 C364 0.960 . S
C352 H344 0.929 . S
C352 C353 1.377 . S
C352 C354 1.384 . S
C353 C352 1.377 . S
C353 C359 1.390 . S
C354 H345 0.930 . S
C354 C352 1.384 . S
C354 C355 1.372 . S
C355 C354 1.372 . S
C355 C356 1.400 . S
C355 C360 1.490 . S
C356 H346 0.930 . S
C356 C355 1.400 . S
C356 C359 1.386 . S
H357 C373 0.930 . S
H358 C374 0.931 . S
C359 H347 0.929 . S
C359 C353 1.390 . S
C359 C356 1.386 . S
C360 C355 1.490 . S
C360 C362 1.395 . S
C360 C363 1.403 . S
H361 C367 0.930 . S
C362 H348 0.930 . S
C362 C360 1.395 . S
C362 C365 1.403 1_455 S
C363 C360 1.403 . S
C363 C364 1.524 . S
C363 C367 1.400 1_455 S
C364 H349 0.960 . S
C364 H350 0.960 . S
C364 H351 0.960 . S
C364 C363 1.524 . S
C365 C362 1.403 1_655 S
C365 C366 1.392 . S
C365 C369 1.495 . S
C366 C365 1.392 . S
C366 C367 1.385 . S
C366 C368 1.478 . S
C367 H361 0.930 . S
C367 C363 1.400 1_655 S
C367 C366 1.385 . S
C368 C366 1.478 . S
C368 C370 1.381 . S
C368 C374 1.383 . S
C369 C365 1.495 . S
C369 H375 0.959 . S
C369 H376 0.961 . S
C369 H377 0.960 . S
C370 C368 1.381 . S
C370 C371 1.394 . S
C370 H378 0.930 . S
C371 C370 1.394 . S
C371 C372 1.383 . S
C371 H379 0.929 . S
C372 C371 1.383 . S
C372 C373 1.377 . S
C373 H357 0.930 . S
C373 C372 1.377 . S
C373 C374 1.379 . S
C374 H358 0.931 . S
C374 C368 1.383 . S
C374 C373 1.379 . S
H375 C369 0.959 . S
H376 C369 0.961 . S
H377 C369 0.960 . S
H378 C370 0.930 . S
H379 C371 0.929 . S
H380 C388 0.929 . S
H381 C390 0.930 . S
H382 C392 0.930 . S
H383 C395 0.929 . S
H384 C398 0.930 . S
H385 C400 0.960 . S
H386 C400 0.960 . S
H387 C400 0.960 . S
C388 H380 0.929 . S
C388 C389 1.377 . S
C388 C390 1.384 . S
C389 C388 1.377 . S
C389 C395 1.390 1_445 S
C390 H381 0.930 . S
C390 C388 1.384 . S
C390 C391 1.372 . S
C391 C390 1.372 . S
C391 C392 1.400 1_445 S
C391 C396 1.490 . S
C392 H382 0.930 . S
C392 C391 1.400 1_665 S
C392 C395 1.386 . S
H393 C409 0.930 . S
H394 C410 0.931 . S
C395 H383 0.929 . S
C395 C389 1.390 1_665 S
C395 C392 1.386 . S
C396 C391 1.490 . S
C396 C398 1.395 . S
C396 C399 1.403 1_455 S
H397 C403 0.930 . S
C398 H384 0.930 . S
C398 C396 1.395 . S
C398 C401 1.403 . S
C399 C396 1.403 1_655 S
C399 C400 1.524 . S
C399 C403 1.400 . S
C400 H385 0.960 . S
C400 H386 0.960 . S
C400 H387 0.960 . S
C400 C399 1.524 . S
C401 C398 1.403 . S
C401 C402 1.392 . S
C401 C405 1.495 1_545 S
C402 C401 1.392 . S
C402 C403 1.385 1_455 S
C402 C404 1.478 . S
C403 H397 0.930 . S
C403 C399 1.400 . S
C403 C402 1.385 1_655 S
C404 C402 1.478 . S
C404 C406 1.381 . S
C404 C410 1.383 1_445 S
C405 C401 1.495 1_565 S
C405 H411 0.959 . S
C405 H412 0.961 . S
C405 H413 0.960 1_565 S
C406 C404 1.381 . S
C406 C407 1.394 . S
C406 H414 0.930 . S
C407 C406 1.394 . S
C407 C408 1.383 . S
C407 H415 0.929 . S
C408 C407 1.383 . S
C408 C409 1.377 1_445 S
C409 H393 0.930 . S
C409 C408 1.377 1_665 S
C409 C410 1.379 . S
C410 H394 0.931 . S
C410 C404 1.383 1_665 S
C410 C409 1.379 . S
H411 C405 0.959 . S
H412 C405 0.961 . S
H413 C405 0.960 1_545 S
H414 C406 0.930 . S
H415 C407 0.929 . S
H416 C424 0.929 . S
H417 C426 0.930 . S
H418 C428 0.930 . S
H419 C431 0.929 . S
H420 C434 0.930 . S
H421 C436 0.960 . S
H422 C436 0.960 . S
H423 C436 0.960 . S
C424 H416 0.929 . S
C424 C425 1.377 . S
C424 C426 1.384 . S
C425 C424 1.377 . S
C425 C431 1.390 1_455 S
C426 H417 0.930 . S
C426 C424 1.384 . S
C426 C427 1.372 . S
C427 C426 1.372 . S
C427 C428 1.400 1_455 S
C427 C432 1.490 . S
C428 H418 0.930 . S
C428 C427 1.400 1_655 S
C428 C431 1.386 . S
H429 C445 0.930 . S
H430 C446 0.931 . S
C431 H419 0.929 . S
C431 C425 1.390 1_655 S
C431 C428 1.386 . S
C432 C427 1.490 . S
C432 C434 1.395 1_545 S
C432 C435 1.403 1_455 S
H433 C439 0.930 . S
C434 H420 0.930 . S
C434 C432 1.395 1_565 S
C434 C437 1.403 . S
C435 C432 1.403 1_655 S
C435 C436 1.524 . S
C435 C439 1.400 . S
C436 H421 0.960 . S
C436 H422 0.960 . S
C436 H423 0.960 . S
C436 C435 1.524 . S
C437 C434 1.403 . S
C437 C438 1.392 1_565 S
C437 C441 1.495 . S
C438 C437 1.392 1_545 S
C438 C439 1.385 1_455 S
C438 C440 1.478 . S
C439 H433 0.930 . S
C439 C435 1.400 . S
C439 C438 1.385 1_655 S
C440 C438 1.478 . S
C440 C442 1.381 . S
C440 C446 1.383 1_455 S
C441 C437 1.495 . S
C441 H447 0.959 . S
C441 H448 0.961 . S
C441 H449 0.960 . S
C442 C440 1.381 . S
C442 C443 1.394 . S
C442 H450 0.930 . S
C443 C442 1.394 . S
C443 C444 1.383 . S
C443 H451 0.929 . S
C444 C443 1.383 . S
C444 C445 1.377 1_455 S
C445 H429 0.930 . S
C445 C444 1.377 1_655 S
C445 C446 1.379 . S
C446 H430 0.931 . S
C446 C440 1.383 1_655 S
C446 C445 1.379 . S
H447 C441 0.959 . S
H448 C441 0.961 . S
H449 C441 0.960 . S
H450 C442 0.930 . S
H451 C443 0.929 . S
H452 C460 0.929 . S
H453 C462 0.930 . S
H454 C464 0.930 . S
H455 C467 0.929 . S
H456 C470 0.930 . S
H457 C472 0.960 . S
H458 C472 0.960 . S
H459 C472 0.960 . S
C460 H452 0.929 . S
C460 C461 1.377 . S
C460 C462 1.384 . S
C461 C460 1.377 . S
C461 C467 1.390 . S
C462 H453 0.930 . S
C462 C460 1.384 . S
C462 C463 1.372 . S
C463 C462 1.372 . S
C463 C464 1.400 . S
C463 C468 1.490 . S
C464 H454 0.930 . S
C464 C463 1.400 . S
C464 C467 1.386 . S
H465 C481 0.930 . S
H466 C482 0.931 . S
C467 H455 0.929 . S
C467 C461 1.390 . S
C467 C464 1.386 . S
C468 C463 1.490 . S
C468 C470 1.395 . S
C468 C471 1.403 . S
H469 C475 0.930 . S
C470 H456 0.930 . S
C470 C468 1.395 . S
C470 C473 1.403 . S
C471 C468 1.403 . S
C471 C472 1.524 . S
C471 C475 1.400 . S
C472 H457 0.960 . S
C472 H458 0.960 . S
C472 H459 0.960 . S
C472 C471 1.524 . S
C473 C470 1.403 . S
C473 C474 1.392 . S
C473 C477 1.495 . S
C474 C473 1.392 . S
C474 C475 1.385 . S
C474 C476 1.478 . S
C475 H469 0.930 . S
C475 C471 1.400 . S
C475 C474 1.385 . S
C476 C474 1.478 . S
C476 C478 1.381 . S
C476 C482 1.383 . S
C477 C473 1.495 . S
C477 H483 0.959 . S
C477 H484 0.961 . S
C477 H485 0.960 . S
C478 C476 1.381 . S
C478 C479 1.394 . S
C478 H486 0.930 . S
C479 C478 1.394 . S
C479 C480 1.383 . S
C479 H487 0.929 . S
C480 C479 1.383 . S
C480 C481 1.377 . S
C481 H465 0.930 . S
C481 C480 1.377 . S
C481 C482 1.379 . S
C482 H466 0.931 . S
C482 C476 1.383 . S
C482 C481 1.379 . S
H483 C477 0.959 . S
H484 C477 0.961 . S
H485 C477 0.960 . S
H486 C478 0.930 . S
H487 C479 0.929 . S
H488 C496 0.929 . S
H489 C498 0.930 . S
H490 C500 0.930 . S
H491 C503 0.929 . S
H492 C506 0.930 . S
H493 C508 0.960 . S
H494 C508 0.960 . S
H495 C508 0.960 . S
C496 H488 0.929 . S
C496 C497 1.377 . S
C496 C498 1.384 . S
C497 C496 1.377 . S
C497 C503 1.390 . S
C498 H489 0.930 . S
C498 C496 1.384 . S
C498 C499 1.372 . S
C499 C498 1.372 . S
C499 C500 1.400 . S
C499 C504 1.490 . S
C500 H490 0.930 . S
C500 C499 1.400 . S
C500 C503 1.386 . S
H501 C517 0.930 . S
H502 C518 0.931 . S
C503 H491 0.929 . S
C503 C497 1.390 . S
C503 C500 1.386 . S
C504 C499 1.490 . S
C504 C506 1.395 . S
C504 C507 1.403 . S
H505 C511 0.930 . S
C506 H492 0.930 . S
C506 C504 1.395 . S
C506 C509 1.403 . S
C507 C504 1.403 . S
C507 C508 1.524 . S
C507 C511 1.400 . S
C508 H493 0.960 . S
C508 H494 0.960 . S
C508 H495 0.960 . S
C508 C507 1.524 . S
C509 C506 1.403 . S
C509 C510 1.392 . S
C509 C513 1.495 . S
C510 C509 1.392 . S
C510 C511 1.385 . S
C510 C512 1.478 . S
C511 H505 0.930 . S
C511 C507 1.400 . S
C511 C510 1.385 . S
C512 C510 1.478 . S
C512 C514 1.381 . S
C512 C518 1.383 . S
C513 C509 1.495 . S
C513 H519 0.959 . S
C513 H520 0.961 . S
C513 H521 0.960 . S
C514 C512 1.381 . S
C514 C515 1.394 . S
C514 H522 0.930 . S
C515 C514 1.394 . S
C515 C516 1.383 . S
C515 H523 0.929 . S
C516 C515 1.383 . S
C516 C517 1.377 . S
C517 H501 0.930 . S
C517 C516 1.377 . S
C517 C518 1.379 . S
C518 H502 0.931 . S
C518 C512 1.383 . S
C518 C517 1.379 . S
H519 C513 0.959 . S
H520 C513 0.961 . S
H521 C513 0.960 . S
H522 C514 0.930 . S
H523 C515 0.929 . S
C101 C66 1.516 . S
C120 C19 1.526 . S
C137 C65 1.508 . S
C156 C20 1.542 . S
C173 C41 1.581 . S
C192 C90 1.584 . S
C209 C44 1.564 . S
C228 C87 1.598 . S
C245 C18 0.387 . S
C264 C21 0.448 . S
C281 C42 0.509 . S
C300 C43 0.389 . S
C317 C64 0.371 . S
C336 C67 0.469 . S
C353 C89 0.501 . S
C372 C88 0.493 . S
C389 C39 1.499 . S
C408 C17 1.494 . S
C425 C16 1.500 . S
C444 C40 1.499 . S
C461 C85 1.499 . S
C480 C63 1.499 . S
C497 C86 1.499 . S
C516 C62 1.497 . S
