# Generated by pormake.
# Topology gis, (4)-cn, num edge types: 1
# Building blocks:
#     Node 0, Type 0, BuildingBlock: QUQFOY_clean_sbu_3, # of connection points: 4
#     Node 1, Type 0, BuildingBlock: QUQFOY_clean_sbu_3, # of connection points: 4
#     Node 2, Type 0, BuildingBlock: QUQFOY_clean_sbu_3, # of connection points: 4
#     Node 3, Type 0, BuildingBlock: QUQFOY_clean_sbu_3, # of connection points: 4
#     Node 4, Type 0, BuildingBlock: QUQFOY_clean_sbu_3, # of connection points: 4
#     Node 5, Type 0, BuildingBlock: QUQFOY_clean_sbu_3, # of connection points: 4
#     Node 6, Type 0, BuildingBlock: QUQFOY_clean_sbu_3, # of connection points: 4
#     Node 7, Type 0, BuildingBlock: QUQFOY_clean_sbu_3, # of connection points: 4
#     Node 8, Type 0, BuildingBlock: QUQFOY_clean_sbu_3, # of connection points: 4
#     Node 9, Type 0, BuildingBlock: QUQFOY_clean_sbu_3, # of connection points: 4
#     Node 10, Type 0, BuildingBlock: QUQFOY_clean_sbu_3, # of connection points: 4
#     Node 11, Type 0, BuildingBlock: QUQFOY_clean_sbu_3, # of connection points: 4
#     Node 12, Type 0, BuildingBlock: QUQFOY_clean_sbu_3, # of connection points: 4
#     Node 13, Type 0, BuildingBlock: QUQFOY_clean_sbu_3, # of connection points: 4
#     Node 14, Type 0, BuildingBlock: QUQFOY_clean_sbu_3, # of connection points: 4
#     Node 15, Type 0, BuildingBlock: QUQFOY_clean_sbu_3, # of connection points: 4
#     Edge 16, Type (0, 0), BuildingBlock: ZUJKAS_clean_linker_0, # of connection points: 2
#     Edge 17, Type (0, 0), BuildingBlock: ZUJKAS_clean_linker_0, # of connection points: 2
#     Edge 18, Type (0, 0), BuildingBlock: ZUJKAS_clean_linker_0, # of connection points: 2
#     Edge 19, Type (0, 0), BuildingBlock: ZUJKAS_clean_linker_0, # of connection points: 2
#     Edge 20, Type (0, 0), BuildingBlock: ZUJKAS_clean_linker_0, # of connection points: 2
#     Edge 21, Type (0, 0), BuildingBlock: ZUJKAS_clean_linker_0, # of connection points: 2
#     Edge 22, Type (0, 0), BuildingBlock: ZUJKAS_clean_linker_0, # of connection points: 2
#     Edge 23, Type (0, 0), BuildingBlock: ZUJKAS_clean_linker_0, # of connection points: 2
#     Edge 24, Type (0, 0), BuildingBlock: ZUJKAS_clean_linker_0, # of connection points: 2
#     Edge 25, Type (0, 0), BuildingBlock: ZUJKAS_clean_linker_0, # of connection points: 2
#     Edge 26, Type (0, 0), BuildingBlock: ZUJKAS_clean_linker_0, # of connection points: 2
#     Edge 27, Type (0, 0), BuildingBlock: ZUJKAS_clean_linker_0, # of connection points: 2
#     Edge 28, Type (0, 0), BuildingBlock: ZUJKAS_clean_linker_0, # of connection points: 2
#     Edge 29, Type (0, 0), BuildingBlock: ZUJKAS_clean_linker_0, # of connection points: 2
#     Edge 30, Type (0, 0), BuildingBlock: ZUJKAS_clean_linker_0, # of connection points: 2
#     Edge 31, Type (0, 0), BuildingBlock: ZUJKAS_clean_linker_0, # of connection points: 2
#     Edge 32, Type (0, 0), BuildingBlock: ZUJKAS_clean_linker_0, # of connection points: 2
#     Edge 33, Type (0, 0), BuildingBlock: ZUJKAS_clean_linker_0, # of connection points: 2
#     Edge 34, Type (0, 0), BuildingBlock: ZUJKAS_clean_linker_0, # of connection points: 2
#     Edge 35, Type (0, 0), BuildingBlock: ZUJKAS_clean_linker_0, # of connection points: 2
#     Edge 36, Type (0, 0), BuildingBlock: ZUJKAS_clean_linker_0, # of connection points: 2
#     Edge 37, Type (0, 0), BuildingBlock: ZUJKAS_clean_linker_0, # of connection points: 2
#     Edge 38, Type (0, 0), BuildingBlock: ZUJKAS_clean_linker_0, # of connection points: 2
#     Edge 39, Type (0, 0), BuildingBlock: ZUJKAS_clean_linker_0, # of connection points: 2
#     Edge 40, Type (0, 0), BuildingBlock: ZUJKAS_clean_linker_0, # of connection points: 2
#     Edge 41, Type (0, 0), BuildingBlock: ZUJKAS_clean_linker_0, # of connection points: 2
#     Edge 42, Type (0, 0), BuildingBlock: ZUJKAS_clean_linker_0, # of connection points: 2
#     Edge 43, Type (0, 0), BuildingBlock: ZUJKAS_clean_linker_0, # of connection points: 2
#     Edge 44, Type (0, 0), BuildingBlock: ZUJKAS_clean_linker_0, # of connection points: 2
#     Edge 45, Type (0, 0), BuildingBlock: ZUJKAS_clean_linker_0, # of connection points: 2
#     Edge 46, Type (0, 0), BuildingBlock: ZUJKAS_clean_linker_0, # of connection points: 2
#     Edge 47, Type (0, 0), BuildingBlock: ZUJKAS_clean_linker_0, # of connection points: 2
# Relax obj value: 0.062
# Max RMSD: 0.131
# Mean RMSD: 0.123
data_MOF--net-gis--node1-QUQFOY_clean_sbu_3--edge1-ZUJKAS_clean_linker_0
_symmetry_space_group_name_H-M    P1
_symmetry_Int_Tables_number       1
_symmetry_cell_setting            triclinic
loop_
_symmetry_equiv_pos_as_xyz
'x, y, z'
_cell_length_a     68.348197
_cell_length_b     72.323657
_cell_length_c     48.035765
_cell_angle_alpha  90.518355
_cell_angle_beta   90.449882
_cell_angle_gamma 89.893757
loop_
_atom_site_label
_atom_site_type_symbol
_atom_site_fract_x
_atom_site_fract_y
_atom_site_fract_z
_atom_type_partial_charge
C0 C 0.15327 0.60776 0.16681 0.0
O1 O 0.13812 0.6149 0.1777 0.0
Cd2 Cd 0.1082 0.61847 0.15098 0.0
O3 O 0.15271 0.60166 0.14193 0.0
Cd4 Cd 0.1308 0.59746 0.10202 0.0
C5 C 0.12606 0.64357 0.09614 0.0
O6 O 0.10105 0.58987 0.12736 0.0
O7 O 0.0978 0.59494 0.08331 0.0
O8 O 0.14562 0.56726 0.09647 0.0
C9 C 0.08994 0.59042 0.10608 0.0
O10 O 0.11502 0.64274 0.11736 0.0
C11 C 0.15092 0.56964 0.07149 0.0
O12 O 0.13488 0.62925 0.08707 0.0
O13 O 0.14665 0.58505 0.06047 0.0
C14 C 0.657 0.86645 0.32771 0.0
O15 O 0.64221 0.85916 0.31583 0.0
Cd16 Cd 0.61202 0.85407 0.34009 0.0
O17 O 0.65605 0.8721 0.35282 0.0
Cd18 Cd 0.63328 0.87513 0.39178 0.0
C19 C 0.6303 0.82869 0.39526 0.0
O20 O 0.60414 0.88206 0.3642 0.0
O21 O 0.59961 0.87684 0.40787 0.0
O22 O 0.64672 0.90581 0.39804 0.0
C23 C 0.59237 0.88116 0.38442 0.0
O24 O 0.6198 0.82979 0.37329 0.0
C25 C 0.65078 0.90408 0.42371 0.0
O26 O 0.63829 0.84302 0.40593 0.0
O27 O 0.64687 0.88861 0.43472 0.0
C28 C 0.33365 0.37274 0.66396 0.0
O29 O 0.35022 0.3665 0.67153 0.0
Cd30 Cd 0.3769 0.36486 0.63912 0.0
O31 O 0.33115 0.37899 0.63953 0.0
Cd32 Cd 0.34787 0.38518 0.59574 0.0
C33 C 0.35388 0.33929 0.5873 0.0
O34 O 0.37875 0.39435 0.61692 0.0
O35 O 0.3789 0.39104 0.57229 0.0
O36 O 0.32826 0.41303 0.59755 0.0
C37 C 0.38819 0.39529 0.59438 0.0
O38 O 0.3668 0.3405 0.6065 0.0
C39 C 0.32279 0.41234 0.57227 0.0
O40 O 0.34396 0.35337 0.58 0.0
O41 O 0.32905 0.39889 0.55762 0.0
C42 C 0.83097 0.11054 0.82188 0.0
O43 O 0.84679 0.1171 0.81247 0.0
Cd44 Cd 0.87424 0.12244 0.8431 0.0
O45 O 0.82995 0.10537 0.84708 0.0
Cd46 Cd 0.84912 0.10151 0.89007 0.0
C47 C 0.85051 0.14779 0.89467 0.0
O48 O 0.88048 0.09462 0.8684 0.0
O49 O 0.88102 0.10008 0.91267 0.0
O50 O 0.83355 0.07155 0.89068 0.0
C51 C 0.89036 0.09582 0.89082 0.0
O52 O 0.86217 0.14681 0.87412 0.0
C53 C 0.82829 0.07244 0.91593 0.0
O54 O 0.84283 0.1333 0.90468 0.0
O55 O 0.8328 0.08702 0.92949 0.0
C56 C 0.16162 0.36585 0.83221 0.0
O57 O 0.14578 0.35928 0.82231 0.0
Cd58 Cd 0.11709 0.35698 0.85095 0.0
O59 O 0.1623 0.37218 0.85698 0.0
Cd60 Cd 0.14215 0.37797 0.898 0.0
C61 C 0.13717 0.33212 0.90527 0.0
O62 O 0.11228 0.3864 0.87314 0.0
O63 O 0.1096 0.3821 0.91737 0.0
O64 O 0.15964 0.40696 0.89926 0.0
C65 C 0.1016 0.38683 0.89461 0.0
O66 O 0.12531 0.33304 0.88472 0.0
C67 C 0.16336 0.40673 0.92517 0.0
O68 O 0.14649 0.34635 0.91373 0.0
O69 O 0.1574 0.39281 0.93867 0.0
C70 C 0.83152 0.88052 0.16725 0.0
O71 O 0.84822 0.87447 0.17463 0.0
Cd72 Cd 0.87522 0.87168 0.14281 0.0
O73 O 0.82845 0.88571 0.14236 0.0
Cd74 Cd 0.84519 0.88876 0.09775 0.0
C75 C 0.85306 0.84285 0.09482 0.0
O76 O 0.87638 0.89936 0.11634 0.0
O77 O 0.87612 0.89148 0.07294 0.0
O78 O 0.82798 0.91778 0.09217 0.0
C79 C 0.88558 0.89798 0.09361 0.0
O80 O 0.8669 0.84561 0.11227 0.0
C81 C 0.82145 0.91419 0.06791 0.0
O82 O 0.84154 0.85585 0.08763 0.0
O83 O 0.82566 0.89845 0.05762 0.0
C84 C 0.33034 0.59892 0.32746 0.0
O85 O 0.34693 0.60471 0.31966 0.0
Cd86 Cd 0.37407 0.60811 0.35196 0.0
O87 O 0.32765 0.59429 0.35261 0.0
Cd88 Cd 0.34431 0.5918 0.39758 0.0
C89 C 0.35184 0.63779 0.39836 0.0
O90 O 0.37564 0.58105 0.38013 0.0
O91 O 0.37492 0.5888 0.42361 0.0
O92 O 0.32659 0.56322 0.4033 0.0
C93 C 0.38465 0.58251 0.40323 0.0
O94 O 0.36539 0.63485 0.38079 0.0
C95 C 0.31938 0.5675 0.42678 0.0
O96 O 0.34082 0.62477 0.40647 0.0
O97 O 0.3238 0.58328 0.43683 0.0
C98 C 0.65196 0.11265 0.66417 0.0
O99 O 0.63674 0.12004 0.67445 0.0
Cd100 Cd 0.6068 0.12295 0.64811 0.0
O101 O 0.6516 0.10584 0.63966 0.0
Cd102 Cd 0.62959 0.10033 0.5999 0.0
C103 C 0.6248 0.14626 0.59119 0.0
O104 O 0.60052 0.0936 0.62694 0.0
O105 O 0.59603 0.0966 0.58276 0.0
O106 O 0.64552 0.07047 0.59844 0.0
C107 C 0.5888 0.09318 0.60639 0.0
O108 O 0.61389 0.14577 0.61256 0.0
C109 C 0.6486 0.07035 0.57243 0.0
O110 O 0.63377 0.13185 0.58267 0.0
O111 O 0.64304 0.08448 0.55892 0.0
C112 C 0.83027 0.36447 0.835 0.0
O113 O 0.84548 0.35689 0.82503 0.0
Cd114 Cd 0.87499 0.35413 0.8526 0.0
O115 O 0.8306 0.37146 0.85938 0.0
Cd116 Cd 0.85275 0.37691 0.89889 0.0
C117 C 0.85653 0.33132 0.90936 0.0
O118 O 0.8825 0.3836 0.87306 0.0
O119 O 0.88595 0.37898 0.91721 0.0
O120 O 0.8393 0.40771 0.89992 0.0
C121 C 0.89361 0.38358 0.89434 0.0
O122 O 0.86778 0.33142 0.88833 0.0
C123 C 0.83472 0.40768 0.92545 0.0
O124 O 0.84758 0.34592 0.91708 0.0
O125 O 0.83825 0.39297 0.93892 0.0
C126 C 0.33907 0.08537 0.53635 0.0
O127 O 0.34508 0.09792 0.5202 0.0
Cd128 Cd 0.3516 0.12868 0.53789 0.0
O129 O 0.33564 0.08901 0.56178 0.0
Cd130 Cd 0.33534 0.11371 0.59654 0.0
C131 C 0.38436 0.11695 0.58998 0.0
O132 O 0.32397 0.13792 0.56524 0.0
O133 O 0.33306 0.14646 0.60655 0.0
O134 O 0.30601 0.09771 0.61094 0.0
C135 C 0.32611 0.15088 0.58298 0.0
O136 O 0.38095 0.12477 0.56677 0.0
C137 C 0.30968 0.09894 0.63683 0.0
O138 O 0.37044 0.11063 0.60457 0.0
O139 O 0.32541 0.10707 0.64409 0.0
C140 C 0.65062 0.59644 0.331 0.0
O141 O 0.63521 0.60434 0.32216 0.0
Cd142 Cd 0.60846 0.61179 0.35249 0.0
O143 O 0.65255 0.59235 0.35657 0.0
Cd144 Cd 0.63487 0.59438 0.40081 0.0
C145 C 0.63226 0.64093 0.39868 0.0
O146 O 0.60305 0.58564 0.38168 0.0
O147 O 0.60345 0.59462 0.42468 0.0
O148 O 0.64861 0.56413 0.40851 0.0
C149 C 0.59377 0.5882 0.40416 0.0
O150 O 0.61945 0.63838 0.37965 0.0
C151 C 0.65573 0.56763 0.43244 0.0
O152 O 0.64145 0.62731 0.40922 0.0
O153 O 0.65329 0.58392 0.44195 0.0
C154 C 0.15499 0.87535 0.15945 0.0
O155 O 0.13963 0.8691 0.17064 0.0
Cd156 Cd 0.11228 0.85973 0.14237 0.0
O157 O 0.15558 0.87788 0.1333 0.0
Cd158 Cd 0.13497 0.87641 0.09112 0.0
C159 C 0.1349 0.83031 0.09516 0.0
O160 O 0.10438 0.88542 0.1131 0.0
O161 O 0.10226 0.87581 0.07046 0.0
O162 O 0.14861 0.90648 0.08415 0.0
C163 C 0.09386 0.88269 0.09161 0.0
O164 O 0.12395 0.83282 0.11621 0.0
C165 C 0.15361 0.90391 0.05906 0.0
O166 O 0.14176 0.84395 0.0819 0.0
O167 O 0.15005 0.8881 0.04839 0.0
C168 C 0.82976 0.58541 0.04383 0.0
O169 O 0.83616 0.59786 0.02778 0.0
Cd170 Cd 0.84884 0.62661 0.04605 0.0
O171 O 0.82923 0.58814 0.07 0.0
Cd172 Cd 0.83559 0.61111 0.10666 0.0
C173 C 0.88388 0.60969 0.09184 0.0
O174 O 0.82485 0.63722 0.07856 0.0
O175 O 0.83572 0.64363 0.11985 0.0
O176 O 0.80664 0.596 0.12395 0.0
C177 C 0.82874 0.64936 0.09697 0.0
O178 O 0.87939 0.61791 0.06931 0.0
C179 C 0.81146 0.5971 0.14945 0.0
O180 O 0.87072 0.60497 0.109 0.0
O181 O 0.82779 0.60462 0.15532 0.0
C182 C 0.15524 0.07821 0.94493 0.0
O183 O 0.15063 0.08996 0.96358 0.0
Cd184 Cd 0.13853 0.1201 0.95123 0.0
O185 O 0.15402 0.08233 0.9193 0.0
Cd186 Cd 0.14623 0.10737 0.88721 0.0
C187 C 0.09927 0.10799 0.90881 0.0
O188 O 0.16113 0.13095 0.91716 0.0
O189 O 0.1474 0.14046 0.87928 0.0
O190 O 0.17231 0.09101 0.86381 0.0
C191 C 0.15678 0.14434 0.90141 0.0
O192 O 0.10579 0.11476 0.93164 0.0
C193 C 0.16593 0.09377 0.83935 0.0
O194 O 0.1109 0.10333 0.88937 0.0
O195 O 0.15018 0.103 0.83688 0.0
C196 C 0.65362 0.36865 0.67222 0.0
O197 O 0.6372 0.36301 0.68092 0.0
Cd198 Cd 0.60983 0.36003 0.64928 0.0
O199 O 0.65549 0.37376 0.64713 0.0
Cd200 Cd 0.63728 0.37846 0.60363 0.0
C201 C 0.63114 0.33253 0.59828 0.0
O202 O 0.60635 0.38834 0.62421 0.0
O203 O 0.60598 0.38239 0.58005 0.0
O204 O 0.65495 0.4073 0.60405 0.0
C205 C 0.59685 0.38803 0.60139 0.0
O206 O 0.61895 0.33473 0.61798 0.0
C207 C 0.66022 0.40654 0.57881 0.0
O208 O 0.64109 0.34611 0.58941 0.0
O209 O 0.65504 0.39234 0.56479 0.0
C210 C 0.34095 0.89554 0.45167 0.0
O211 O 0.34789 0.88278 0.46688 0.0
Cd212 Cd 0.3547 0.85212 0.4488 0.0
O213 O 0.33716 0.89254 0.42608 0.0
Cd214 Cd 0.33812 0.8685 0.39037 0.0
C215 C 0.38735 0.86393 0.39788 0.0
O216 O 0.32725 0.84349 0.42033 0.0
O217 O 0.3348 0.83622 0.37792 0.0
O218 O 0.30765 0.88164 0.37391 0.0
C219 C 0.3286 0.83119 0.40145 0.0
O220 O 0.38397 0.8558 0.42075 0.0
C221 C 0.31291 0.88309 0.34874 0.0
O222 O 0.37346 0.87081 0.38346 0.0
O223 O 0.33026 0.8781 0.34294 0.0
H224 H 0.13265 0.79929 0.12632 0.0
H225 H 0.13847 0.76746 0.11152 0.0
H226 H 0.1531 0.78598 0.02921 0.0
H227 H 0.14751 0.81821 0.04401 0.0
H228 H 0.12246 0.75677 0.0342 0.0
H229 H 0.19109 0.74033 0.09073 0.0
H230 H 0.17392 0.75307 0.1116 0.0
H231 H 0.18425 0.76365 0.08132 0.0
C232 C 0.13729 0.79667 0.10513 0.0
C233 C 0.13957 0.81123 0.08629 0.0
C234 C 0.14075 0.77849 0.09678 0.0
C235 C 0.14645 0.77447 0.06942 0.0
C236 C 0.14892 0.78891 0.0505 0.0
H237 H 0.15612 0.65366 0.06207 0.0
H238 H 0.16325 0.68482 0.04508 0.0
C239 C 0.14572 0.80724 0.05899 0.0
C240 C 0.14798 0.75494 0.06065 0.0
H241 H 0.16886 0.71473 0.08229 0.0
C242 C 0.13299 0.74755 0.04388 0.0
C243 C 0.16189 0.74303 0.07296 0.0
C244 C 0.17883 0.75043 0.08995 0.0
C245 C 0.13029 0.72838 0.0417 0.0
C246 C 0.14282 0.71651 0.05683 0.0
C247 C 0.15912 0.72387 0.07093 0.0
C248 C 0.13729 0.69722 0.06277 0.0
C249 C 0.11332 0.72102 0.02472 0.0
C250 C 0.12034 0.69396 0.07821 0.0
C251 C 0.11637 0.67635 0.08821 0.0
C252 C 0.12929 0.66164 0.08291 0.0
C253 C 0.14587 0.66474 0.0664 0.0
C254 C 0.14995 0.68248 0.05665 0.0
H255 H 0.10965 0.73045 0.0073 0.0
H256 H 0.11655 0.70705 0.01612 0.0
H257 H 0.10026 0.72004 0.0382 0.0
H258 H 0.11061 0.70524 0.0837 0.0
H259 H 0.10345 0.6744 0.10075 0.0
H260 H 0.40172 0.88727 0.35829 0.0
H261 H 0.43615 0.8923 0.34643 0.0
H262 H 0.45356 0.85058 0.40523 0.0
H263 H 0.4194 0.8455 0.41729 0.0
H264 H 0.4659 0.90303 0.38727 0.0
H265 H 0.48377 0.83738 0.33253 0.0
H266 H 0.45899 0.8458 0.33621 0.0
H267 H 0.47097 0.83431 0.36469 0.0
C268 C 0.41287 0.87899 0.36839 0.0
C269 C 0.40784 0.86601 0.38878 0.0
C270 C 0.43249 0.8819 0.36162 0.0
C271 C 0.44729 0.87166 0.37475 0.0
C272 C 0.44229 0.85841 0.39457 0.0
H273 H 0.56443 0.88342 0.42442 0.0
H274 H 0.52896 0.88378 0.4178 0.0
C275 C 0.42276 0.85562 0.40155 0.0
C276 C 0.46813 0.87563 0.36962 0.0
H277 H 0.5109 0.85477 0.35093 0.0
C278 C 0.47572 0.89264 0.37881 0.0
C279 C 0.48082 0.8621 0.35836 0.0
C280 C 0.47323 0.84392 0.34713 0.0
C281 C 0.49592 0.89603 0.37866 0.0
C282 C 0.50872 0.88199 0.36922 0.0
C283 C 0.50102 0.86545 0.35836 0.0
C284 C 0.53014 0.88348 0.37279 0.0
C285 C 0.50347 0.91437 0.38933 0.0
C286 C 0.54251 0.88312 0.34964 0.0
C287 C 0.56282 0.88297 0.35336 0.0
C288 C 0.57102 0.88286 0.38031 0.0
C289 C 0.55855 0.8835 0.40342 0.0
C290 C 0.53829 0.88382 0.39968 0.0
H291 H 0.49197 0.92524 0.38849 0.0
H292 H 0.5082 0.91288 0.41135 0.0
H293 H 0.51627 0.91898 0.37711 0.0
H294 H 0.53643 0.8827 0.32875 0.0
H295 H 0.57207 0.8824 0.33516 0.0
H296 H 0.32394 0.32998 0.55138 0.0
H297 H 0.31417 0.29876 0.53669 0.0
H298 H 0.36338 0.27601 0.58157 0.0
H299 H 0.3734 0.30694 0.59596 0.0
H300 H 0.35602 0.2589 0.52908 0.0
H301 H 0.28936 0.2644 0.59492 0.0
H302 H 0.29276 0.28143 0.56834 0.0
H303 H 0.30908 0.28086 0.59776 0.0
C304 C 0.33286 0.31834 0.55773 0.0
C305 C 0.34931 0.32092 0.57517 0.0
C306 C 0.3272 0.30054 0.5494 0.0
C307 C 0.3379 0.28512 0.55842 0.0
C308 C 0.35491 0.28776 0.57444 0.0
H309 H 0.32825 0.18059 0.61779 0.0
H310 H 0.32708 0.21316 0.60539 0.0
C311 C 0.36057 0.30546 0.58276 0.0
C312 C 0.33084 0.26607 0.5535 0.0
H313 H 0.29795 0.23503 0.57842 0.0
C314 C 0.34305 0.25367 0.5392 0.0
C315 C 0.31393 0.25941 0.56689 0.0
C316 C 0.30051 0.27212 0.583 0.0
C317 C 0.33959 0.23457 0.53964 0.0
C318 C 0.32334 0.22783 0.55448 0.0
C319 C 0.31033 0.24034 0.567 0.0
C320 C 0.32169 0.20807 0.56154 0.0
C321 C 0.35419 0.22167 0.52619 0.0
C322 C 0.31855 0.19444 0.54102 0.0
C323 C 0.31928 0.17572 0.54806 0.0
C324 C 0.32315 0.17045 0.57569 0.0
C325 C 0.32538 0.1842 0.5963 0.0
C326 C 0.32464 0.20282 0.58927 0.0
H327 H 0.36712 0.22913 0.51809 0.0
H328 H 0.35932 0.2112 0.54137 0.0
H329 H 0.34706 0.21422 0.50856 0.0
H330 H 0.31602 0.19828 0.51955 0.0
H331 H 0.31741 0.1654 0.53177 0.0
H332 H 0.07054 0.11451 0.94689 0.0
H333 H 0.03533 0.11065 0.94067 0.0
H334 H 0.0442 0.0924 0.85599 0.0
H335 H 0.07958 0.09592 0.8621 0.0
H336 H 0.0114 0.12841 0.90246 0.0
H337 H 0.00875 0.05213 0.88729 0.0
H338 H 0.03005 0.06386 0.90112 0.0
H339 H 0.02489 0.0642 0.8644 0.0
C340 C 0.06507 0.10958 0.92695 0.0
C341 C 0.07792 0.10549 0.905 0.0
C342 C 0.04492 0.10738 0.92346 0.0
C343 C 0.03719 0.10102 0.898 0.0
C344 C 0.04991 0.09697 0.87598 0.0
H345 H 0.91464 0.08877 0.84686 0.0
H346 H 0.95054 0.08949 0.84704 0.0
C347 C 0.07012 0.09911 0.87947 0.0
C348 C 0.01574 0.09935 0.89443 0.0
H349 H 0.97884 0.0684 0.88254 0.0
C350 C 0.00428 0.11529 0.89807 0.0
C351 C 0.00654 0.08222 0.88856 0.0
C352 C 0.01813 0.06457 0.88532 0.0
C353 C 0.98383 0.11456 0.89624 0.0
C354 C 0.97463 0.09739 0.89095 0.0
C355 C 0.98604 0.08151 0.88663 0.0
C356 C 0.95311 0.09567 0.89105 0.0
C357 C 0.97219 0.13214 0.90003 0.0
C358 C 0.94283 0.09845 0.91587 0.0
C359 C 0.92243 0.098 0.91588 0.0
C360 C 0.91195 0.09475 0.89103 0.0
C361 C 0.92232 0.09137 0.86631 0.0
C362 C 0.94278 0.09176 0.86636 0.0
H363 H 0.98142 0.14464 0.89756 0.0
H364 H 0.95988 0.13274 0.88483 0.0
H365 H 0.96594 0.13248 0.92128 0.0
H366 H 0.95062 0.10126 0.93518 0.0
H367 H 0.91489 0.10056 0.93529 0.0
H368 H 0.11507 0.30099 0.90063 0.0
H369 H 0.12391 0.26988 0.91508 0.0
H370 H 0.17731 0.2906 0.9521 0.0
H371 H 0.16855 0.322 0.93762 0.0
H372 H 0.18285 0.26236 0.91302 0.0
H373 H 0.12669 0.24199 0.98876 0.0
H374 H 0.11585 0.25261 0.95876 0.0
H375 H 0.13194 0.26589 0.98105 0.0
C376 C 0.12851 0.29903 0.91235 0.0
C377 C 0.14118 0.31392 0.91781 0.0
C378 C 0.13345 0.28125 0.92085 0.0
C379 C 0.15114 0.27799 0.93498 0.0
C380 C 0.16349 0.29291 0.94148 0.0
H381 H 0.16771 0.15784 0.95265 0.0
H382 H 0.1713 0.19047 0.9664 0.0
C383 C 0.15846 0.3108 0.93319 0.0
C384 C 0.15765 0.25872 0.93911 0.0
H385 H 0.14052 0.21701 0.96053 0.0
C386 C 0.17397 0.25249 0.92413 0.0
C387 C 0.14624 0.2459 0.95391 0.0
C388 C 0.12932 0.25198 0.97177 0.0
C389 C 0.17797 0.23356 0.92127 0.0
C390 C 0.16523 0.22067 0.93353 0.0
C391 C 0.15013 0.22695 0.95083 0.0
C392 C 0.16537 0.20098 0.92517 0.0
C393 C 0.19513 0.22747 0.90388 0.0
C394 C 0.16085 0.19621 0.89751 0.0
C395 C 0.1586 0.17774 0.88969 0.0
C396 C 0.16087 0.16368 0.90941 0.0
C397 C 0.16597 0.16842 0.93699 0.0
C398 C 0.16802 0.18699 0.94488 0.0
H399 H 0.20674 0.23821 0.90376 0.0
H400 H 0.20148 0.21434 0.91166 0.0
H401 H 0.19014 0.22522 0.88207 0.0
H402 H 0.15835 0.20684 0.88212 0.0
H403 H 0.15467 0.17451 0.8683 0.0
H404 H 0.90978 0.89149 0.04958 0.0
H405 H 0.94556 0.89205 0.04978 0.0
H406 H 0.9456 0.91059 0.13537 0.0
H407 H 0.90982 0.9098 0.13553 0.0
H408 H 0.97312 0.92036 0.06201 0.0
H409 H 0.97757 0.86234 0.137 0.0
H410 H 0.95519 0.86839 0.11906 0.0
H411 H 0.9634 0.88187 0.1485 0.0
C412 C 0.91739 0.89584 0.06838 0.0
C413 C 0.90701 0.90037 0.09266 0.0
C414 C 0.93782 0.89618 0.06843 0.0
C415 C 0.94816 0.90103 0.09274 0.0
C416 C 0.93784 0.90645 0.11658 0.0
H417 H 0.07196 0.89612 0.13457 0.0
H418 H 0.03673 0.90222 0.13465 0.0
C419 C 0.91742 0.90607 0.11658 0.0
C420 C 0.96972 0.89959 0.09343 0.0
H421 H 0.00738 0.87593 0.12371 0.0
C422 C 0.98065 0.91068 0.0755 0.0
C423 C 0.97942 0.88689 0.11104 0.0
C424 C 0.96833 0.87406 0.12984 0.0
C425 C 0.00114 0.9095 0.07486 0.0
C426 C 0.0108 0.8967 0.09233 0.0
C427 C -0.00012 0.88576 0.11044 0.0
C428 C 0.03222 0.89401 0.09166 0.0
C429 C 0.01228 0.92204 0.05575 0.0
C430 C 0.04126 0.88726 0.0675 0.0
C431 C 0.06135 0.88373 0.06738 0.0
C432 C 0.0727 0.8868 0.09151 0.0
C433 C 0.0636 0.89364 0.11565 0.0
C434 C 0.04351 0.89715 0.11574 0.0
H435 H 0.00336 0.93416 0.04935 0.0
H436 H 0.02595 0.92708 0.06589 0.0
H437 H 0.01635 0.91422 0.03667 0.0
H438 H 0.0327 0.8844 0.04888 0.0
H439 H 0.06793 0.87842 0.04849 0.0
H440 H 0.31677 0.65295 0.41287 0.0
H441 H 0.30957 0.68589 0.41956 0.0
H442 H 0.37099 0.69846 0.4122 0.0
H443 H 0.37813 0.66573 0.40416 0.0
H444 H 0.32021 0.71425 0.45417 0.0
H445 H 0.34762 0.72619 0.34765 0.0
H446 H 0.34411 0.70332 0.36128 0.0
H447 H 0.36594 0.71618 0.36978 0.0
C448 C 0.32875 0.66274 0.41312 0.0
C449 C 0.34795 0.65692 0.40746 0.0
C450 C 0.32462 0.68152 0.41697 0.0
C451 C 0.33969 0.69462 0.41557 0.0
C452 C 0.35909 0.6886 0.41248 0.0
H453 H 0.33716 0.81225 0.44871 0.0
H454 H 0.33681 0.77862 0.45417 0.0
C455 C 0.36316 0.66993 0.408 0.0
C456 C 0.33503 0.71458 0.41476 0.0
H457 H 0.34144 0.75288 0.37521 0.0
C458 C 0.3247 0.72274 0.43686 0.0
C459 C 0.34042 0.72548 0.39177 0.0
C460 C 0.34994 0.71732 0.36615 0.0
C461 C 0.32011 0.74169 0.4369 0.0
C462 C 0.32656 0.75277 0.41463 0.0
C463 C 0.33654 0.74445 0.39236 0.0
C464 C 0.32364 0.77307 0.41374 0.0
C465 C 0.30817 0.74951 0.46052 0.0
C466 C 0.31636 0.78118 0.38929 0.0
C467 C 0.31728 0.80025 0.38578 0.0
C468 C 0.32498 0.81159 0.40697 0.0
C469 C 0.33098 0.80371 0.43222 0.0
C470 C 0.33062 0.78452 0.43543 0.0
H471 H 0.29884 0.73871 0.46996 0.0
H472 H 0.31818 0.75482 0.47702 0.0
H473 H 0.29864 0.76104 0.45348 0.0
H474 H 0.31086 0.77265 0.3723 0.0
H475 H 0.31247 0.80611 0.36619 0.0
H476 H 0.56857 0.0936 0.65529 0.0
H477 H 0.53297 0.09428 0.66099 0.0
H478 H 0.52535 0.09047 0.57193 0.0
H479 H 0.5608 0.08978 0.56601 0.0
H480 H 0.50866 0.12209 0.63716 0.0
H481 H 0.48659 0.05181 0.60243 0.0
H482 H 0.51126 0.05733 0.61347 0.0
H483 H 0.50301 0.063 0.57895 0.0
C484 C 0.5593 0.0926 0.63695 0.0
C485 C 0.56745 0.09168 0.61018 0.0
C486 C 0.539 0.093 0.64026 0.0
C487 C 0.52659 0.09222 0.61689 0.0
C488 C 0.53469 0.09075 0.59023 0.0
H489 H 0.41686 0.13386 0.5698 0.0
H490 H 0.45095 0.12767 0.582 0.0
C491 C 0.55495 0.09048 0.58689 0.0
C492 C 0.50525 0.09467 0.61992 0.0
H493 H 0.46148 0.07514 0.60205 0.0
C494 C 0.4983 0.11171 0.62999 0.0
C495 C 0.49182 0.08102 0.61081 0.0
C496 C 0.49851 0.06219 0.60105 0.0
C497 C 0.47826 0.11588 0.62956 0.0
C498 C 0.46496 0.10271 0.61865 0.0
C499 C 0.47178 0.08525 0.61021 0.0
C500 C 0.44424 0.1074 0.61333 0.0
C501 C 0.4715 0.13453 0.64002 0.0
C502 C 0.42921 0.098 0.62694 0.0
C503 C 0.40964 0.10157 0.6201 0.0
C504 C 0.40487 0.11435 0.59919 0.0
C505 C 0.42002 0.12392 0.58596 0.0
C506 C 0.43951 0.12048 0.593 0.0
H507 H 0.48243 0.14094 0.65435 0.0
H508 H 0.46941 0.14389 0.62205 0.0
H509 H 0.45732 0.13339 0.65099 0.0
H510 H 0.43264 0.08775 0.64256 0.0
H511 H 0.39831 0.0939 0.63058 0.0
H512 H 0.83471 0.15614 0.94577 0.0
H513 H 0.82785 0.18715 0.96496 0.0
H514 H 0.8483 0.21158 0.88901 0.0
H515 H 0.85537 0.18103 0.86995 0.0
H516 H 0.85855 0.21779 0.96841 0.0
H517 H 0.79272 0.2355 0.90631 0.0
H518 H 0.79968 0.21192 0.91397 0.0
H519 H 0.81136 0.22414 0.88622 0.0
C520 C 0.83759 0.16815 0.93315 0.0
C521 C 0.84564 0.16617 0.90639 0.0
C522 C 0.83367 0.18578 0.94413 0.0
C523 C 0.83735 0.20153 0.92819 0.0
C524 C 0.84512 0.19953 0.90143 0.0
H525 H 0.88024 0.30121 0.90972 0.0
H526 H 0.87252 0.27042 0.92629 0.0
C527 C 0.84928 0.18206 0.89066 0.0
C528 C 0.8345 0.22037 0.93945 0.0
H529 H 0.81382 0.26108 0.91972 0.0
C530 C 0.84831 0.22723 0.95862 0.0
C531 C 0.82092 0.23256 0.92704 0.0
C532 C 0.80518 0.22564 0.90743 0.0
C533 C 0.8504 0.24633 0.96305 0.0
C534 C 0.83852 0.25865 0.94767 0.0
C535 C 0.8231 0.25164 0.93128 0.0
C536 C 0.84436 0.27808 0.9433 0.0
C537 C 0.86622 0.25317 0.98258 0.0
C538 C 0.83113 0.29269 0.94748 0.0
C539 C 0.83555 0.31044 0.93795 0.0
C540 C 0.85306 0.31363 0.92357 0.0
C541 C 0.8666 0.29915 0.92059 0.0
C542 C 0.8623 0.28157 0.93038 0.0
H543 H 0.86854 0.24335 -5e-05 0.0
H544 H 0.88018 0.25419 0.97107 0.0
H545 H 0.8626 0.26701 0.99134 0.0
H546 H 0.8171 0.2902 0.95706 0.0
H547 H 0.82481 0.32135 0.94043 0.0
H548 H 0.66088 0.65312 0.43524 0.0
H549 H 0.66703 0.68522 0.45038 0.0
H550 H 0.61881 0.70371 0.39934 0.0
H551 H 0.61264 0.67213 0.38403 0.0
H552 H 0.67205 0.71823 0.40834 0.0
H553 H 0.61092 0.72474 0.48293 0.0
H554 H 0.62277 0.70293 0.47507 0.0
H555 H 0.60488 0.7123 0.45145 0.0
C556 C 0.65157 0.66404 0.42734 0.0
C557 C 0.63625 0.66005 0.40844 0.0
C558 C 0.65512 0.68231 0.43601 0.0
C559 C 0.64321 0.69668 0.42617 0.0
C560 C 0.62799 0.69271 0.40739 0.0
H561 H 0.60941 0.7974 0.3854 0.0
H562 H 0.61635 0.76634 0.40186 0.0
C563 C 0.62454 0.67463 0.39859 0.0
C564 C 0.64661 0.71615 0.43418 0.0
H565 H 0.62102 0.75279 0.46022 0.0
C566 C 0.66143 0.72585 0.42061 0.0
C567 C 0.63272 0.7259 0.45024 0.0
C568 C 0.617 0.71594 0.466 0.0
C569 C 0.66139 0.74526 0.42018 0.0
C570 C 0.64619 0.75499 0.4338 0.0
C571 C 0.63262 0.74526 0.44976 0.0
C572 C 0.64159 0.77432 0.42659 0.0
C573 C 0.67633 0.7552 0.4029 0.0
C574 C 0.65333 0.78915 0.43552 0.0
C575 C 0.64935 0.80708 0.42615 0.0
C576 C 0.63369 0.81029 0.40756 0.0
C577 C 0.62168 0.79541 0.39948 0.0
C578 C 0.62556 0.77765 0.40897 0.0
H579 H 0.68707 0.74555 0.39333 0.0
H580 H 0.66886 0.763 0.38607 0.0
H581 H 0.68439 0.76533 0.41612 0.0
H582 H 0.66572 0.78681 0.44924 0.0
H583 H 0.65885 0.81829 0.43273 0.0
H584 H 0.83151 0.66649 0.0467 0.0
H585 H 0.83459 0.69986 0.03888 0.0
H586 H 0.82546 0.71021 0.12644 0.0
H587 H 0.82335 0.677 0.13449 0.0
H588 H 0.8128 0.73058 0.04689 0.0
H589 H 0.87819 0.73312 0.11526 0.0
H590 H 0.86711 0.71162 0.10436 0.0
H591 H 0.8574 0.72447 0.13349 0.0
C592 C 0.82994 0.67597 0.06418 0.0
C593 C 0.82752 0.66926 0.0913 0.0
C594 C 0.83171 0.69497 0.05969 0.0
C595 C 0.83083 0.70745 0.08222 0.0
C596 C 0.82684 0.70078 0.10892 0.0
H597 H 0.81812 0.82545 0.08802 0.0
H598 H 0.81296 0.79243 0.07959 0.0
C599 C 0.82552 0.68183 0.11351 0.0
C600 C 0.83516 0.72729 0.07832 0.0
H601 H 0.86351 0.76214 0.10429 0.0
C602 C 0.82403 0.73751 0.05917 0.0
C603 C 0.85023 0.73617 0.09371 0.0
C604 C 0.86405 0.72572 0.1126 0.0
C605 C 0.82701 0.75659 0.05592 0.0
C606 C 0.84105 0.76571 0.07296 0.0
C607 C 0.85262 0.75528 0.09132 0.0
C608 C 0.84364 0.7861 0.07335 0.0
C609 C 0.81522 0.76663 0.03409 0.0
C610 C 0.86258 0.79363 0.0728 0.0
C611 C 0.86558 0.81233 0.07872 0.0
C612 C 0.84964 0.82393 0.08453 0.0
C613 C 0.8306 0.81675 0.08325 0.0
C614 C 0.82764 0.7979 0.07818 0.0
H615 H 0.81119 0.75722 0.01656 0.0
H616 H 0.80142 0.77174 0.04347 0.0
H617 H 0.82334 0.77859 0.02565 0.0
H618 H 0.87517 0.78485 0.06908 0.0
H619 H 0.88039 0.81762 0.0795 0.0
H620 H 0.61039 0.30156 0.61014 0.0
H621 H 0.61532 0.27036 0.59225 0.0
H622 H 0.66286 0.28928 0.54148 0.0
H623 H 0.65804 0.32095 0.55935 0.0
H624 H 0.61748 0.25891 0.52887 0.0
H625 H 0.68273 0.2447 0.59586 0.0
H626 H 0.66512 0.26187 0.60674 0.0
H627 H 0.68025 0.26615 0.5772 0.0
C628 C 0.62187 0.29923 0.59508 0.0
C629 C 0.63387 0.31378 0.58626 0.0
C630 C 0.62461 0.28137 0.58482 0.0
C631 C 0.63942 0.27761 0.56561 0.0
C632 C 0.65134 0.29202 0.55634 0.0
H633 H 0.6558 0.15728 0.55933 0.0
H634 H 0.66221 0.18869 0.54251 0.0
C635 C 0.64856 0.31004 0.56656 0.0
C636 C 0.6424 0.25827 0.55655 0.0
H637 H 0.66496 0.21901 0.5789 0.0
C638 C 0.62828 0.25019 0.539 0.0
C639 C 0.65661 0.24703 0.56959 0.0
C640 C 0.67213 0.25525 0.58841 0.0
C641 C 0.62689 0.23092 0.53622 0.0
C642 C 0.63968 0.21959 0.55186 0.0
C643 C 0.6551 0.22774 0.56703 0.0
C644 C 0.63491 0.20005 0.55752 0.0
C645 C 0.61093 0.22286 0.51801 0.0
C646 C 0.61743 0.19607 0.57134 0.0
C647 C 0.61386 0.17836 0.58116 0.0
C648 C 0.62769 0.1642 0.57737 0.0
C649 C 0.64483 0.16792 0.56241 0.0
C650 C 0.64852 0.18582 0.55281 0.0
H651 H 0.60763 0.23207 0.50019 0.0
H652 H 0.61503 0.20897 0.50987 0.0
H653 H 0.59737 0.22152 0.53037 0.0
H654 H 0.60693 0.20692 0.5758 0.0
H655 H 0.6005 0.17591 0.59253 0.0
H656 H 0.07997 0.3945 0.84799 0.0
H657 H 0.04446 0.39869 0.84478 0.0
H658 H 0.03991 0.39157 0.93355 0.0
H659 H 0.07532 0.3876 0.93702 0.0
H660 H 0.01722 0.37241 0.85995 0.0
H661 H 0.0061 0.43725 0.92005 0.0
H662 H 0.02973 0.4303 0.90696 0.0
H663 H 0.02046 0.42049 0.9385 0.0
C664 C 0.07143 0.39409 0.86688 0.0
C665 C 0.08042 0.39069 0.89276 0.0
C666 C 0.05117 0.39649 0.865 0.0
C667 C 0.03963 0.3957 0.88897 0.0
C668 C 0.04861 0.39265 0.91488 0.0
H669 H 0.92077 0.38303 0.9362 0.0
H670 H 0.95607 0.38757 0.93244 0.0
C671 C 0.06883 0.39024 0.91679 0.0
C672 C 0.01805 0.39642 0.88675 0.0
H673 H 0.97773 0.41828 0.91262 0.0
C674 C 0.00855 0.38261 0.87107 0.0
C675 C 0.00686 0.40974 0.90135 0.0
C676 C 0.0163 0.42539 0.91745 0.0
C677 C 0.98809 0.38122 0.87066 0.0
C678 C 0.97691 0.39419 0.88598 0.0
C679 C 0.98639 0.40835 0.90096 0.0
C680 C 0.95543 0.39255 0.8881 0.0
C681 C 0.97866 0.36538 0.8549 0.0
C682 C 0.9434 0.39418 0.86445 0.0
C683 C 0.92322 0.39151 0.8665 0.0
C684 C 0.91478 0.38727 0.89227 0.0
C685 C 0.92684 0.38619 0.91603 0.0
C686 C 0.94699 0.38883 0.91395 0.0
H687 H 0.98946 0.35457 0.84895 0.0
H688 H 0.96704 0.3589 0.86753 0.0
H689 H 0.97178 0.3707 0.83555 0.0
H690 H 0.94964 0.39734 0.8444 0.0
H691 H 0.91427 0.39257 0.84786 0.0
H692 H 0.57018 0.59312 0.44926 0.0
H693 H 0.53467 0.58923 0.45125 0.0
H694 H 0.53364 0.57294 0.36466 0.0
H695 H 0.56916 0.57656 0.36254 0.0
H696 H 0.50726 0.60827 0.41948 0.0
H697 H 0.50103 0.53263 0.40131 0.0
H698 H 0.5238 0.54362 0.41115 0.0
H699 H 0.51524 0.5444 0.37568 0.0
C700 C 0.56242 0.58854 0.43071 0.0
C701 C 0.57246 0.58513 0.40574 0.0
C702 C 0.54215 0.58632 0.4319 0.0
C703 C 0.5316 0.58055 0.40822 0.0
C704 C 0.54158 0.57701 0.38333 0.0
H705 H 0.40983 0.57286 0.36162 0.0
H706 H 0.44559 0.57151 0.36422 0.0
C707 C 0.56185 0.57921 0.38211 0.0
C708 C 0.51001 0.57937 0.40909 0.0
H709 H 0.47147 0.55009 0.39853 0.0
C710 C 0.49942 0.59552 0.41517 0.0
C711 C 0.49988 0.56272 0.40332 0.0
C712 C 0.51055 0.5448 0.39774 0.0
C713 C 0.47891 0.5956 0.41497 0.0
C714 C 0.46878 0.57898 0.409 0.0
C715 C 0.47934 0.56278 0.40312 0.0
C716 C 0.44717 0.57835 0.40812 0.0
C717 C 0.46827 0.61357 0.42036 0.0
C718 C 0.43628 0.58214 0.43213 0.0
C719 C 0.41588 0.58295 0.43072 0.0
C720 C 0.40605 0.5799 0.40527 0.0
C721 C 0.41699 0.57534 0.3815 0.0
C722 C 0.43739 0.57455 0.38294 0.0
H723 H 0.47806 0.62572 0.4183 0.0
H724 H 0.45572 0.61517 0.40573 0.0
H725 H 0.46245 0.61359 0.44186 0.0
H726 H 0.44359 0.58478 0.45185 0.0
H727 H 0.40786 0.58636 0.44944 0.0
H728 H 0.57336 0.38858 0.55529 0.0
H729 H 0.53803 0.39364 0.55333 0.0
H730 H 0.53714 0.40182 0.64236 0.0
H731 H 0.57258 0.397 0.6445 0.0
H732 H 0.51089 0.37188 0.58016 0.0
H733 H 0.5042 0.44522 0.61392 0.0
H734 H 0.52703 0.43526 0.60239 0.0
H735 H 0.51842 0.43104 0.63701 0.0
C736 C 0.5657 0.39168 0.57443 0.0
C737 C 0.57574 0.39236 0.60007 0.0
C738 C 0.54552 0.39458 0.57325 0.0
C739 C 0.53503 0.39831 0.59764 0.0
C740 C 0.54504 0.39934 0.62323 0.0
H741 H 0.41238 0.40119 0.63913 0.0
H742 H 0.44813 0.40322 0.63908 0.0
C743 C 0.56526 0.39646 0.62443 0.0
C744 C 0.51343 0.3996 0.5965 0.0
H745 H 0.47468 0.42782 0.61118 0.0
C746 C 0.50297 0.38416 0.58671 0.0
C747 C 0.50319 0.41561 0.60524 0.0
C748 C 0.51376 0.4328 0.61501 0.0
C749 C 0.48248 0.38416 0.58588 0.0
C750 C 0.47222 0.40015 0.59464 0.0
C751 C 0.48265 0.41562 0.60441 0.0
C752 C 0.45061 0.40078 0.59432 0.0
C753 C 0.47196 0.36687 0.57631 0.0
C754 C 0.44024 0.39929 0.5691 0.0
C755 C 0.41985 0.39808 0.56906 0.0
C756 C 0.40953 0.39843 0.59425 0.0
C757 C 0.41993 0.40079 0.6194 0.0
C758 C 0.44033 0.40198 0.61941 0.0
H759 H 0.48175 0.35458 0.57638 0.0
H760 H 0.4592 0.36401 0.58977 0.0
H761 H 0.46649 0.36881 0.55472 0.0
H762 H 0.44795 0.39864 0.54951 0.0
H763 H 0.41224 0.39643 0.54933 0.0
H764 H 0.0684 0.58372 0.15279 0.0
H765 H 0.03266 0.58197 0.15615 0.0
H766 H 0.02756 0.59062 0.06766 0.0
H767 H 0.06306 0.59207 0.06405 0.0
H768 H 0.00664 0.60946 0.14291 0.0
H769 H 0.99098 0.54736 0.07873 0.0
H770 H 0.0152 0.55259 0.09186 0.0
H771 H 0.00618 0.56339 0.06064 0.0
C772 C 0.05965 0.58496 0.13401 0.0
C773 C 0.06854 0.58801 0.10814 0.0
C774 C 0.03926 0.58397 0.13597 0.0
C775 C 0.02748 0.58585 0.11209 0.0
C776 C 0.03637 0.58865 0.08625 0.0
H777 H 0.9149 0.61423 0.0572 0.0
H778 H 0.94915 0.60668 0.06614 0.0
C779 C 0.05668 0.58963 0.08426 0.0
C780 C 0.00589 0.58642 0.11419 0.0
H781 H 0.9643 0.56911 0.08412 0.0
C782 C -0.00268 0.60037 0.13058 0.0
C783 C -0.00622 0.57449 0.09817 0.0
C784 C 0.00201 0.55849 0.0816 0.0
C785 C 0.97705 0.60349 0.12991 0.0
C786 C 0.96515 0.59229 0.11253 0.0
C787 C 0.97356 0.57773 0.09728 0.0
C788 C 0.94428 0.59661 0.10775 0.0
C789 C 0.96856 0.61934 0.14651 0.0
C790 C 0.93025 0.59337 0.12826 0.0
C791 C 0.91055 0.59763 0.12322 0.0
C792 C 0.90467 0.60525 0.09761 0.0
C793 C 0.91889 0.60845 0.07719 0.0
C794 C 0.93847 0.6041 0.08219 0.0
H795 H 0.98004 0.62766 0.15726 0.0
H796 H 0.95995 0.62854 0.13265 0.0
H797 H 0.95845 0.61387 0.1624 0.0
H798 H 0.93452 0.58749 0.14806 0.0
H799 H 0.89998 0.59497 0.13936 0.0
H800 H 0.15917 0.53476 0.08899 0.0
H801 H 0.17203 0.50916 0.06139 0.0
H802 H 0.17836 0.54525 0.991 0.0
H803 H 0.16501 0.57096 0.01841 0.0
H804 H 0.1569 0.5156 0.97876 0.0
H805 H 0.22416 0.49218 0.03219 0.0
H806 H 0.20429 0.49432 0.05615 0.0
H807 H 0.21332 0.51457 0.03888 0.0
C808 C 0.16363 0.53736 0.0678 0.0
C809 C 0.16089 0.55482 0.05575 0.0
C810 C 0.17123 0.52274 0.05214 0.0
C811 C 0.17648 0.52536 0.02428 0.0
C812 C 0.17457 0.54299 0.01257 0.0
H813 H 0.18155 0.43588 0.9009 0.0
H814 H 0.19043 0.46526 0.92317 0.0
C815 C 0.16686 0.55763 0.02819 0.0
C816 C 0.18083 0.50912 0.00645 0.0
H817 H 0.20701 0.46889 0.00433 0.0
C818 C 0.16821 0.50561 0.98387 0.0
C819 C 0.19552 0.49608 0.01327 0.0
C820 C 0.21021 0.49959 0.03629 0.0
C821 C 0.16895 0.48887 0.96911 0.0
C822 C 0.18297 0.47541 0.97686 0.0
C823 C 0.19628 0.47926 -0.00148 0.0
C824 C 0.18242 0.45666 0.96454 0.0
C825 C 0.15387 0.48525 0.94656 0.0
C826 C 0.17619 0.4418 0.9808 0.0
C827 C 0.17125 0.42496 0.96821 0.0
C828 C 0.17239 0.42284 0.93917 0.0
C829 C 0.18024 0.43723 0.92329 0.0
C830 C 0.18534 0.454 0.93594 0.0
H831 H 0.142 0.49578 0.94657 0.0
H832 H 0.16105 0.48556 0.92593 0.0
H833 H 0.14717 0.4714 0.94908 0.0
H834 H 0.1739 0.44362 0.00295 0.0
H835 H 0.16536 0.41406 0.98098 0.0
H836 H 0.66528 0.85531 0.27436 0.0
H837 H 0.69648 0.85812 0.2501 0.0
H838 H 0.72209 0.88424 0.32271 0.0
H839 H 0.69103 0.88173 0.34703 0.0
H840 H 0.72973 0.90263 0.27308 0.0
H841 H 0.74644 0.82764 0.26478 0.0
H842 H 0.72271 0.83397 0.25158 0.0
H843 H 0.72811 0.83679 0.28805 0.0
C844 C 0.67755 0.86163 0.28518 0.0
C845 C 0.67567 0.86824 0.31265 0.0
C846 C 0.69538 0.86311 0.27136 0.0
C847 C 0.71161 0.87112 0.28483 0.0
C848 C 0.70974 0.87792 0.31207 0.0
H849 H 0.83066 0.86643 0.22007 0.0
H850 H 0.80248 0.86519 0.25125 0.0
C851 C 0.69196 0.87645 0.3259 0.0
C852 C 0.73045 0.87289 0.27028 0.0
H853 H 0.76641 0.8479 0.2385 0.0
C854 C 0.73784 0.89068 0.26567 0.0
C855 C 0.7411 0.85725 0.26111 0.0
C856 C 0.73432 0.83781 0.26683 0.0
C857 C 0.75535 0.89326 0.25124 0.0
C858 C 0.76552 0.87764 0.24092 0.0
C859 C 0.75848 0.85984 0.24634 0.0
C860 C 0.78289 0.87949 0.22312 0.0
C861 C 0.76279 0.91266 0.24711 0.0
C862 C 0.7811 0.88794 0.19709 0.0
C863 C 0.79707 0.88866 0.17929 0.0
C864 C 0.81514 0.88084 0.18713 0.0
C865 C 0.81697 0.87263 0.21346 0.0
C866 C 0.80091 0.87187 0.23126 0.0
H867 H 0.7566 0.92245 0.2627 0.0
H868 H 0.77901 0.91315 0.24856 0.0
H869 H 0.75835 0.91747 0.22612 0.0
H870 H 0.7672 0.89358 0.19025 0.0
H871 H 0.79513 0.89506 0.15916 0.0
H872 H 0.31688 0.4197 0.51724 0.0
H873 H 0.30289 0.4479 0.49769 0.0
H874 H 0.28758 0.46687 0.58009 0.0
H875 H 0.3021 0.43893 0.59992 0.0
H876 H 0.26716 0.46847 0.49968 0.0
H877 H 0.3289 0.50383 0.55496 0.0
H878 H 0.32744 0.47901 0.55227 0.0
H879 H 0.31196 0.49138 0.57613 0.0
C880 C 0.31017 0.42969 0.53115 0.0
C881 C 0.31099 0.42737 0.56012 0.0
C882 C 0.30209 0.44575 0.51995 0.0
C883 C 0.29458 0.45959 0.53754 0.0
C884 C 0.29366 0.45648 0.56626 0.0
H885 H 0.30268 0.57226 0.47796 0.0
H886 H 0.28864 0.54816 0.50711 0.0
C887 C 0.30198 0.44054 0.57752 0.0
C888 C 0.29069 0.47813 0.52609 0.0
H889 H 0.31143 0.52081 0.52244 0.0
C890 C 0.27653 0.48008 0.50501 0.0
C891 C 0.30288 0.49327 0.53326 0.0
C892 C 0.31875 0.49186 0.55524 0.0
C893 C 0.27499 0.4965 0.48978 0.0
C894 C 0.2882 0.5111 0.49556 0.0
C895 C 0.30128 0.50962 0.51807 0.0
C896 C 0.29135 0.52648 0.47601 0.0
C897 C 0.25972 0.4978 0.46707 0.0
C898 C 0.29697 0.52241 0.44859 0.0
C899 C 0.30496 0.5361 0.43195 0.0
C900 C 0.30773 0.55408 0.44256 0.0
C901 C 0.30086 0.55848 0.46931 0.0
C902 C 0.29274 0.54476 0.48593 0.0
H903 H 0.24644 0.48983 0.47257 0.0
H904 H 0.25545 0.51237 0.46306 0.0
H905 H 0.26564 0.4917 0.44759 0.0
H906 H 0.29656 0.50834 0.44068 0.0
H907 H 0.31003 0.5323 0.41136 0.0
H908 H 0.6868 0.09759 0.64823 0.0
H909 H 0.71737 0.09662 0.67468 0.0
H910 H 0.68965 0.12489 0.7433 0.0
H911 H 0.6589 0.12614 0.71685 0.0
H912 H 0.7264 0.13956 0.72815 0.0
H913 H 0.72944 0.06344 0.74185 0.0
H914 H 0.72614 0.07069 0.70645 0.0
H915 H 0.70737 0.0754 0.73153 0.0
C916 C 0.68712 0.10356 0.66899 0.0
C917 C 0.67037 0.1119 0.68049 0.0
C918 C 0.7046 0.1029 0.6841 0.0
C919 C 0.70563 0.11044 0.71103 0.0
C920 C 0.68904 0.1189 0.72256 0.0
H921 H 0.7955 0.0961 0.83535 0.0
H922 H 0.76556 0.09614 0.80744 0.0
C923 C 0.67151 0.11958 0.70744 0.0
C924 C 0.72422 0.10988 0.72687 0.0
H925 H 0.75785 0.08036 0.7549 0.0
C926 C 0.73328 0.12664 0.73408 0.0
C927 C 0.73301 0.09297 0.73469 0.0
C928 C 0.72343 0.07459 0.72849 0.0
C929 C 0.7511 0.12696 0.74875 0.0
C930 C 0.76013 0.11005 0.75596 0.0
C931 C 0.75096 0.09328 0.74899 0.0
C932 C 0.77862 0.10947 0.77202 0.0
C933 C 0.7599 0.14537 0.75691 0.0
C934 C 0.79597 0.11662 0.76104 0.0
C935 C 0.81318 0.11666 0.77696 0.0
C936 C 0.81327 0.10947 0.80407 0.0
C937 C 0.79594 0.10184 0.81461 0.0
C938 C 0.77881 0.10181 0.7987 0.0
H939 H 0.74911 0.15682 0.7552 0.0
H940 H 0.76566 0.14504 0.77858 0.0
H941 H 0.77228 0.14844 0.74288 0.0
H942 H 0.79615 0.12229 0.74025 0.0
H943 H 0.82629 0.12256 0.7682 0.0
H944 H 0.8297 0.44151 0.90223 0.0
H945 H 0.82159 0.4704 0.92591 0.0
H946 H 0.81371 0.44104 0.00279 0.0
H947 H 0.82247 0.41197 0.97933 0.0
H948 H 0.7905 0.48384 0.9559 0.0
H949 H 0.85723 0.47708 0.02233 0.0
H950 H 0.85255 0.46204 0.99292 0.0
H951 H 0.83989 0.45859 0.02511 0.0
C952 C 0.82604 0.44112 0.92412 0.0
C953 C 0.82706 0.42452 0.93906 0.0
C954 C 0.82132 0.45765 0.93759 0.0
C955 C 0.81744 0.45788 0.96619 0.0
C956 C 0.81711 0.44117 0.98081 0.0
H957 H 0.81617 0.5559 0.07284 0.0
H958 H 0.80928 0.52487 0.05511 0.0
C959 C 0.82203 0.42459 0.96738 0.0
C960 C 0.81545 0.47586 0.98077 0.0
H961 H 0.83877 0.50418 0.02745 0.0
C962 C 0.8009 0.48824 0.97178 0.0
C963 C 0.82915 0.48157 0.00135 0.0
C964 C 0.8457 0.46923 0.0109 0.0
C965 C 0.79996 0.50635 0.98243 0.0
C966 C 0.81398 0.51214 0.00238 0.0
C967 C 0.82803 0.49958 0.01215 0.0
C968 C 0.81532 0.53147 0.01223 0.0
C969 C 0.78419 0.51922 0.97203 0.0
C970 C 0.82083 0.54547 0.99385 0.0
C971 C 0.82493 0.56324 0.0039 0.0
C972 C 0.82365 0.56723 0.03252 0.0
C973 C 0.8174 0.5533 0.05068 0.0
C974 C 0.81338 0.53556 0.04062 0.0
H975 H 0.7718 0.5115 0.96238 0.0
H976 H 0.77852 0.52802 0.98924 0.0
H977 H 0.79043 0.52844 0.95604 0.0
H978 H 0.82275 0.54245 0.97191 0.0
H979 H 0.82969 0.57366 0.98939 0.0
H980 H 0.16899 0.11076 0.78942 0.0
H981 H 0.19199 0.10329 0.75241 0.0
H982 H 0.21066 0.05473 0.79718 0.0
H983 H 0.18863 0.06304 0.8352 0.0
H984 H 0.24058 0.07161 0.78343 0.0
H985 H 0.19512 0.06932 0.68881 0.0
H986 H 0.19064 0.09098 0.70588 0.0
H987 H 0.18438 0.06966 0.72299 0.0
C988 C 0.17771 0.09829 0.79101 0.0
C989 C 0.17716 0.0875 0.81507 0.0
C990 C 0.19074 0.09389 0.76971 0.0
C991 C 0.20289 0.07822 0.77165 0.0
C992 C 0.20147 0.06687 0.79513 0.0
H993 H 0.28254 0.07174 0.62963 0.0
H994 H 0.25787 0.06179 0.66297 0.0
C995 C 0.18888 0.07159 0.8168 0.0
C996 C 0.21875 0.07521 0.75115 0.0
H997 H 0.22909 0.07943 0.68223 0.0
C998 C 0.23795 0.07285 0.76123 0.0
C999 C 0.2155 0.07624 0.72207 0.0
C1000 C 0.19523 0.07645 0.7094 0.0
C1001 C 0.254 0.07293 0.74329 0.0
C1002 C 0.25088 0.0764 0.71466 0.0
C1003 C 0.23162 0.07727 0.70428 0.0
C1004 C 0.2672 0.08073 0.69563 0.0
C1005 C 0.27411 0.06948 0.7554 0.0
C1006 C 0.28078 0.09456 0.70292 0.0
C1007 C 0.29515 0.0999 0.68419 0.0
C1008 C 0.29579 0.09198 0.65747 0.0
C1009 C 0.28231 0.07809 0.65014 0.0
C1010 C 0.26822 0.07241 0.66915 0.0
H1011 H 0.27335 0.05977 0.77315 0.0
H1012 H 0.28427 0.06367 0.73966 0.0
H1013 H 0.28019 0.08269 0.76356 0.0
H1014 H 0.27989 0.10172 0.72276 0.0
H1015 H 0.30521 0.11081 0.69021 0.0
H1016 H 0.66054 0.53157 0.41753 0.0
H1017 H 0.67184 0.50632 0.44676 0.0
H1018 H 0.68422 0.54496 0.51349 0.0
H1019 H 0.67236 0.57044 0.48447 0.0
H1020 H 0.70586 0.49748 0.47623 0.0
H1021 H 0.64291 0.5113 0.5466 0.0
H1022 H 0.64514 0.52235 0.5133 0.0
H1023 H 0.65992 0.52994 0.54232 0.0
C1024 C 0.66587 0.53478 0.43831 0.0
C1025 C 0.66521 0.55295 0.44892 0.0
C1026 C 0.67244 0.52033 0.45493 0.0
C1027 C 0.67854 0.52375 0.48241 0.0
C1028 C 0.67922 0.54203 0.49247 0.0
H1029 H 0.67647 0.43627 0.60528 0.0
H1030 H 0.68725 0.46504 0.58412 0.0
C1031 C 0.67248 0.55654 0.47588 0.0
C1032 C 0.68203 0.50787 0.50099 0.0
H1033 H 0.66106 0.48455 0.55435 0.0
C1034 C 0.69632 0.49476 0.49365 0.0
C1035 C 0.66952 0.50438 0.52367 0.0
C1036 C 0.6534 0.51762 0.53193 0.0
C1037 C 0.69789 0.47788 0.50771 0.0
C1038 C 0.6847 0.47403 0.52939 0.0
C1039 C 0.6712 0.48759 0.53774 0.0
C1040 C 0.68287 0.45546 0.54174 0.0
C1041 C 0.71333 0.46419 0.49883 0.0
C1042 C 0.67743 0.44032 0.52488 0.0
C1043 C 0.67129 0.42382 0.53692 0.0
C1044 C 0.67026 0.42233 0.566 0.0
C1045 C 0.67695 0.43707 0.58279 0.0
C1046 C 0.68319 0.4535 0.57075 0.0
H1047 H 0.72605 0.47128 0.48944 0.0
H1048 H 0.71855 0.45579 0.51666 0.0
H1049 H 0.70705 0.45471 0.48283 0.0
H1050 H 0.67664 0.44166 0.50246 0.0
H1051 H 0.66619 0.41271 0.52347 0.0
H1052 H 0.31955 0.88686 0.29297 0.0
H1053 H 0.29503 0.89211 0.25643 0.0
H1054 H 0.25013 0.89664 0.31878 0.0
H1055 H 0.27449 0.8919 0.35526 0.0
H1056 H 0.26558 0.86874 0.24653 0.0
H1057 H 0.23446 0.93789 0.26784 0.0
H1058 H 0.25737 0.93035 0.28295 0.0
H1059 H 0.23447 0.92403 0.29857 0.0
C1060 C 0.30453 0.88944 0.29889 0.0
C1061 C 0.29891 0.88887 0.32695 0.0
C1062 C 0.29056 0.89244 0.27801 0.0
C1063 C 0.2708 0.89499 0.2849 0.0
C1064 C 0.26535 0.89519 0.31299 0.0
H1065 H 0.1584 0.87451 0.21626 0.0
H1066 H 0.1876 0.8812 0.2444 0.0
C1067 C 0.27928 0.8923 0.33384 0.0
C1068 C 0.25551 0.89488 0.26294 0.0
H1069 H 0.21348 0.91651 0.24225 0.0
C1070 C 0.25444 0.8794 0.24515 0.0
C1071 C 0.24097 0.90878 0.26122 0.0
C1072 C 0.24199 0.92628 0.2785 0.0
C1073 C 0.23863 0.87694 0.22678 0.0
C1074 C 0.2236 0.89035 0.22618 0.0
C1075 C 0.22501 0.9062 0.24306 0.0
C1076 C 0.20583 0.88753 0.20916 0.0
C1077 C 0.23758 0.85965 0.20901 0.0
C1078 C 0.20653 0.88909 0.18016 0.0
C1079 C 0.18992 0.8853 0.16404 0.0
C1080 C 0.17238 0.87982 0.1767 0.0
C1081 C 0.1717 0.87859 0.20587 0.0
C1082 C 0.18831 0.88248 0.22197 0.0
H1083 H 0.24941 0.84966 0.21415 0.0
H1084 H 0.22322 0.85274 0.21169 0.0
H1085 H 0.23887 0.8634 0.18675 0.0
H1086 H 0.21998 0.89303 0.17003 0.0
H1087 H 0.19094 0.88644 0.14163 0.0
H1088 H 0.65128 0.06345 0.51649 0.0
H1089 H 0.65998 0.03405 0.49407 0.0
H1090 H 0.67331 0.01068 0.57428 0.0
H1091 H 0.66442 0.03988 0.59692 0.0
H1092 H 0.69421 0.00924 0.49618 0.0
H1093 H 0.62669 0.97995 0.54261 0.0
H1094 H 0.63125 0.00449 0.54155 0.0
H1095 H 0.64386 -0.00963 0.5665 0.0
C1096 C 0.6564 0.05216 0.52931 0.0
C1097 C 0.65684 0.05385 0.55848 0.0
C1098 C 0.66142 0.03541 0.51647 0.0
C1099 C 0.66698 0.02019 0.53262 0.0
C1100 C 0.66879 0.02224 0.56156 0.0
H1101 H 0.66074 0.90482 0.47902 0.0
H1102 H 0.66952 0.932 0.50716 0.0
C1103 C 0.6637 0.03892 0.57441 0.0
C1104 C 0.6687 0.00173 0.51948 0.0
H1105 H 0.64495 0.96047 0.5136 0.0
C1106 C 0.68359 -0.00154 0.50013 0.0
C1107 C 0.65482 0.98775 0.52482 0.0
C1108 C 0.63814 -0.00925 0.54483 0.0
C1109 C 0.68478 0.98158 0.48557 0.0
C1110 C 0.67045 0.96786 0.49016 0.0
C1111 C 0.65599 0.97096 0.51023 0.0
C1112 C 0.66877 0.95101 0.47261 0.0
C1113 C 0.70128 0.97864 0.46533 0.0
C1114 C 0.66574 0.95264 0.44383 0.0
C1115 C 0.66078 0.93717 0.42774 0.0
C1116 C 0.6585 0.91981 0.44021 0.0
C1117 C 0.66232 0.91803 0.46885 0.0
C1118 C 0.66739 0.93352 0.48493 0.0
H1119 H 0.71431 0.98698 0.47135 0.0
H1120 H 0.70562 0.96386 0.46402 0.0
H1121 H 0.69648 0.98317 0.44434 0.0
H1122 H 0.66619 0.96604 0.43398 0.0
H1123 H 0.65791 0.93901 0.40573 0.0
H1124 H 0.29735 0.38723 0.655 0.0
H1125 H 0.26909 0.38594 0.68548 0.0
H1126 H 0.30324 0.35649 0.74661 0.0
H1127 H 0.33178 0.35755 0.71604 0.0
H1128 H 0.26579 0.34062 0.7335 0.0
H1129 H 0.26087 0.41558 0.75836 0.0
H1130 H 0.2623 0.41035 0.7218 0.0
H1131 H 0.28266 0.40503 0.74426 0.0
C1132 C 0.29896 0.38055 0.67498 0.0
C1133 C 0.31685 0.37252 0.68313 0.0
C1134 C 0.28279 0.37991 0.69241 0.0
C1135 C 0.2842 0.37132 0.71835 0.0
C1136 C 0.30197 0.36326 0.72665 0.0
H1137 H 0.19757 0.37862 0.84788 0.0
H1138 H 0.22739 0.37905 0.82048 0.0
C1139 C 0.31824 0.36393 0.70922 0.0
C1140 C 0.26684 0.37033 0.73632 0.0
H1141 H 0.23349 0.39713 0.77044 0.0
C1142 C 0.25877 0.35293 0.74178 0.0
C1143 C 0.25787 0.38644 0.74715 0.0
C1144 C 0.26644 0.40541 0.74285 0.0
C1145 C 0.24162 0.35125 0.7574 0.0
C1146 C 0.23228 0.36742 0.7674 0.0
C1147 C 0.2406 0.38478 0.76242 0.0
C1148 C 0.21413 0.36666 0.78381 0.0
C1149 C 0.23376 0.33222 0.76331 0.0
C1150 C 0.19675 0.35968 0.7721 0.0
C1151 C 0.17958 0.35937 0.78774 0.0
C1152 C 0.17957 0.36616 0.81526 0.0
C1153 C 0.19703 0.37326 0.82676 0.0
C1154 C 0.21412 0.37353 0.81116 0.0
H1155 H 0.24499 0.32132 0.75992 0.0
H1156 H 0.22846 0.33134 0.78506 0.0
H1157 H 0.22122 0.3293 0.74912 0.0
H1158 H 0.19642 0.35463 0.7508 0.0
H1159 H 0.16636 0.35389 0.77825 0.0
H1160 H 0.82279 0.06668 0.97145 0.0
H1161 H 0.81109 0.03832 0.99317 0.0
H1162 H 0.79948 0.01454 0.91207 0.0
H1163 H 0.8116 0.04263 0.89017 0.0
H1164 H 0.77638 0.01597 0.99016 0.0
H1165 H 0.84191 0.98102 0.94552 0.0
H1166 H 0.83904 0.0058 0.94549 0.0
H1167 H 0.82566 -0.00826 0.92092 0.0
C1168 C 0.81745 0.05552 0.95827 0.0
C1169 C 0.81847 0.05669 0.92914 0.0
C1170 C 0.8107 0.03938 0.97069 0.0
C1171 C 0.80477 0.02427 0.95417 0.0
C1172 C 0.80433 0.02596 0.92512 0.0
H1173 H 0.80755 0.91132 0.01449 0.0
H1174 H 0.79683 0.93674 0.98473 0.0
C1175 C 0.81127 0.042 0.91268 0.0
C1176 C 0.80137 0.00618 0.96727 0.0
H1177 H 0.8223 0.96373 0.97498 0.0
C1178 C 0.78622 0.00442 0.98661 0.0
C1179 C 0.81423 -0.00885 0.96248 0.0
C1180 C 0.83122 -0.00754 0.94266 0.0
C1181 C 0.78396 0.98814 0.00197 0.0
C1182 C 0.79741 0.97347 -0.00189 0.0
C1183 C 0.81192 0.97494 0.97776 0.0
C1184 C 0.7987 0.95759 0.01724 0.0
C1185 C 0.76746 0.98695 0.02251 0.0
C1186 C 0.80267 0.9608 0.04557 0.0
C1187 C 0.80877 0.94633 0.06258 0.0
C1188 C 0.81123 0.92845 0.05147 0.0
C1189 C 0.8059 0.92499 0.02359 0.0
C1190 C 0.79971 0.93947 0.00659 0.0
H1191 H 0.75479 -0.00449 0.01579 0.0
H1192 H 0.7625 0.97246 0.02517 0.0
H1193 H 0.77253 -0.00764 0.04301 0.0
H1194 H 0.80246 0.9747 0.05412 0.0
H1195 H 0.81271 0.94943 0.08401 0.0
H1196 H 0.16102 0.61986 0.22016 0.0
H1197 H 0.19231 0.61822 0.24531 0.0
H1198 H 0.21888 0.59188 0.1741 0.0
H1199 H 0.18782 0.5932 0.149 0.0
H1200 H 0.22713 0.57427 0.22385 0.0
H1201 H 0.24131 0.64975 0.23149 0.0
H1202 H 0.21791 0.64273 0.24448 0.0
H1203 H 0.22319 0.63999 0.20809 0.0
C1204 C 0.17352 0.61373 0.20987 0.0
C1205 C 0.17191 0.6067 0.18256 0.0
C1206 C 0.1914 0.61293 0.22418 0.0
C1207 C 0.20793 0.60518 0.21135 0.0
C1208 C 0.2063 0.598 0.18427 0.0
H1209 H 0.32802 0.61278 0.27448 0.0
H1210 H 0.29907 0.6135 0.24397 0.0
C1211 C 0.18851 0.59878 0.16998 0.0
C1212 C 0.22685 0.60403 0.22632 0.0
H1213 H 0.26251 0.63013 0.25741 0.0
C1214 C 0.23493 0.58648 0.23109 0.0
C1215 C 0.23711 0.62 0.23525 0.0
C1216 C 0.22957 0.6392 0.22938 0.0
C1217 C 0.25278 0.58444 0.24528 0.0
C1218 C 0.26262 0.60037 0.25524 0.0
C1219 C 0.25484 0.61795 0.24981 0.0
C1220 C 0.28043 0.59904 0.27271 0.0
C1221 C 0.26098 0.56527 0.24947 0.0
C1222 C 0.27943 0.59068 0.29884 0.0
C1223 C 0.29583 0.59025 0.31622 0.0
C1224 C 0.31356 0.59826 0.30787 0.0
C1225 C 0.31461 0.60641 0.28145 0.0
C1226 C 0.29811 0.60689 0.26406 0.0
H1227 H 0.25477 0.55523 0.23415 0.0
H1228 H 0.27716 0.56521 0.24764 0.0
H1229 H 0.25718 0.56047 0.27062 0.0
H1230 H 0.26582 0.58484 0.30607 0.0
H1231 H 0.29448 0.58388 0.33644 0.0
H1232 H 0.32456 0.0563 0.56519 0.0
H1233 H 0.32335 0.02397 0.55079 0.0
H1234 H 0.34697 0.03819 0.47081 0.0
H1235 H 0.34854 0.07078 0.48519 0.0
H1236 H 0.30421 0.00677 0.50569 0.0
H1237 H 0.38507 -0.00133 0.50122 0.0
H1238 H 0.37345 0.01827 0.5178 0.0
H1239 H 0.37513 0.01706 0.48052 0.0
C1240 C 0.32945 0.05264 0.54446 0.0
C1241 C 0.33684 0.0661 0.5264 0.0
C1242 C 0.32869 0.03414 0.53629 0.0
C1243 C 0.33535 0.02872 0.50997 0.0
C1244 C 0.34209 0.04214 0.49143 0.0
H1245 H 0.32134 0.92389 0.42711 0.0
H1246 H 0.31896 0.95583 0.44324 0.0
C1247 C 0.34286 0.06073 0.4996 0.0
C1248 C 0.33553 0.00892 0.50239 0.0
H1249 H 0.36602 0.97294 0.48696 0.0
C1250 C 0.3177 -0.00065 0.50157 0.0
C1251 C 0.35322 -0.00071 0.49758 0.0
C1252 C 0.37285 0.00876 0.49953 0.0
C1253 C 0.31706 0.98036 0.49557 0.0
C1254 C 0.33469 0.97085 0.49001 0.0
C1255 C 0.35254 0.98035 0.49124 0.0
C1256 C 0.3349 0.9512 0.48162 0.0
C1257 C 0.29758 0.97058 0.49549 0.0
C1258 C 0.34472 0.93807 0.49792 0.0
C1259 C 0.34615 0.91972 0.48876 0.0
C1260 C 0.33799 0.91437 0.46298 0.0
C1261 C 0.32783 0.92755 0.44704 0.0
C1262 C 0.32633 0.9458 0.45627 0.0
H1263 H 0.28633 0.97859 0.50706 0.0
H1264 H 0.29238 0.96883 0.47368 0.0
H1265 H 0.29892 0.95665 0.50485 0.0
H1266 H 0.35151 0.94209 0.51751 0.0
H1267 H 0.35413 0.9099 0.50142 0.0
H1268 H 0.80648 0.6124 0.20074 0.0
H1269 H 0.7801 0.60603 0.23318 0.0
H1270 H 0.7599 0.56147 0.17987 0.0
H1271 H 0.78549 0.56878 0.14642 0.0
H1272 H 0.73106 0.58121 0.19147 0.0
H1273 H 0.76906 0.56988 0.29122 0.0
H1274 H 0.77658 0.59169 0.27771 0.0
H1275 H 0.78213 0.57066 0.25878 0.0
C1276 C 0.79665 0.60099 0.19631 0.0
C1277 C 0.7979 0.5911 0.17116 0.0
C1278 C 0.78166 0.59723 0.21499 0.0
C1279 C 0.76812 0.58304 0.20929 0.0
C1280 C 0.77012 0.57248 0.18478 0.0
H1281 H 0.67756 0.56885 0.3354 0.0
H1282 H 0.70507 0.56246 0.30451 0.0
C1283 C 0.78474 0.57662 0.16572 0.0
C1284 C 0.7506 0.58082 0.22701 0.0
H1285 H 0.73554 0.58129 0.2945 0.0
C1286 C 0.7321 0.58082 0.214 0.0
C1287 C 0.75178 0.5799 0.25639 0.0
C1288 C 0.771 0.57781 0.27173 0.0
C1289 C 0.71485 0.58091 0.22954 0.0
C1290 C 0.71609 0.58197 0.25892 0.0
C1291 C 0.73453 0.58092 0.27195 0.0
C1292 C 0.69859 0.58498 0.27646 0.0
C1293 C 0.69553 0.57984 0.21416 0.0
C1294 C 0.68575 0.59974 0.271 0.0
C1295 C 0.66976 0.60312 0.28821 0.0
C1296 C 0.66671 0.59218 0.31175 0.0
C1297 C 0.67962 0.57752 0.31738 0.0
C1298 C 0.69534 0.57387 0.29978 0.0
H1299 H 0.69705 0.57206 0.19423 0.0
H1300 H 0.68412 0.57303 0.22678 0.0
H1301 H 0.69055 0.59402 0.20898 0.0
H1302 H 0.68833 0.60895 0.25377 0.0
H1303 H 0.66018 0.61467 0.28365 0.0
H1304 H 0.16253 0.93833 0.07796 0.0
H1305 H 0.1713 0.9651 0.05056 0.0
H1306 H 0.17278 0.93113 0.9763 0.0
H1307 H 0.16337 0.9041 0.00369 0.0
H1308 H 0.20134 0.97473 0.01549 0.0
H1309 H 0.13009 0.96864 0.95867 0.0
H1310 H 0.13567 0.95492 0.98885 0.0
H1311 H 0.14659 0.94936 0.95591 0.0
C1312 C 0.16492 0.93644 0.05585 0.0
C1313 C 0.16188 0.91919 0.04286 0.0
C1314 C 0.17007 0.95175 0.04025 0.0
C1315 C 0.17234 0.95014 0.01137 0.0
C1316 C 0.17071 0.93268 -0.00147 0.0
H1317 H 0.16466 0.04971 0.90987 0.0
H1318 H 0.17321 0.01805 0.92229 0.0
C1319 C 0.16541 0.91728 0.01418 0.0
C1320 C 0.17431 0.96721 0.99498 0.0
H1321 H 0.14783 -0.00419 0.953 0.0
C1322 C 0.18986 0.97923 0.00136 0.0
C1323 C 0.15927 0.97301 0.9766 0.0
C1324 C 0.14187 0.96092 0.96965 0.0
C1325 C 0.1902 -0.00271 0.99102 0.0
C1326 C 0.17456 0.0034 0.97408 0.0
C1327 C 0.15975 -0.00899 0.96612 0.0
C1328 C 0.17203 0.02301 0.96669 0.0
C1329 C 0.20693 0.00987 -0.00097 0.0
C1330 C 0.16856 0.03623 0.98764 0.0
C1331 C 0.1635 0.05433 0.98068 0.0
C1332 C 0.16177 0.05944 0.95262 0.0
C1333 C 0.1658 0.04623 0.93171 0.0
C1334 C 0.17078 0.02815 0.93871 0.0
H1335 H 0.22021 0.00186 0.00483 0.0
H1336 H 0.21059 0.01933 0.98176 0.0
H1337 H 0.20264 0.0184 0.01732 0.0
H1338 H 0.16905 0.03238 0.00938 0.0
H1339 H 0.16051 0.06417 -0.00275 0.0
H1340 H 0.6565 0.35657 0.72614 0.0
H1341 H 0.68576 0.35665 0.75603 0.0
H1342 H 0.71896 0.3815 0.69025 0.0
H1343 H 0.68998 0.38168 0.66044 0.0
H1344 H 0.72198 0.33902 0.74452 0.0
H1345 H 0.73059 0.41484 0.7582 0.0
H1346 H 0.70808 0.4044 0.74601 0.0
H1347 H 0.72814 0.40751 0.72253 0.0
C1348 C 0.66999 0.3622 0.71814 0.0
C1349 C 0.67089 0.36915 0.69093 0.0
C1350 C 0.68666 0.3622 0.73521 0.0
C1351 C 0.70439 0.3693 0.7254 0.0
C1352 C 0.70531 0.37628 0.69835 0.0
H1353 H 0.82313 0.35018 0.78277 0.0
H1354 H 0.79227 0.35108 0.75652 0.0
C1355 C 0.68873 0.37626 0.6813 0.0
C1356 C 0.72223 0.36876 0.74291 0.0
H1357 H 0.75774 0.39613 0.77167 0.0
C1358 C 0.72975 0.35149 0.75067 0.0
C1359 C 0.73219 0.38508 0.75099 0.0
C1360 C 0.72427 0.40403 0.74425 0.0
C1361 C 0.74731 0.35008 0.76582 0.0
C1362 C 0.75765 0.36637 0.77298 0.0
C1363 C 0.74987 0.38366 0.7658 0.0
C1364 C 0.77635 0.36583 0.78857 0.0
C1365 C 0.75455 0.33121 0.77426 0.0
C1366 C 0.77766 0.37421 0.81491 0.0
C1367 C 0.79522 0.37382 0.82984 0.0
C1368 C 0.81186 0.36511 0.81864 0.0
C1369 C 0.81057 0.35693 0.79202 0.0
C1370 C 0.79294 0.35732 0.77708 0.0
H1371 H 0.74275 0.32067 0.77302 0.0
H1372 H 0.76643 0.3268 0.76005 0.0
H1373 H 0.76055 0.33152 0.79581 0.0
H1374 H 0.76503 0.38092 0.82403 0.0
H1375 H 0.79569 0.38031 0.85025 0.0
loop_
_geom_bond_atom_site_label_1
_geom_bond_atom_site_label_2
_geom_bond_distance
_geom_bond_site_symmetry_2
_ccdc_geom_bond_type
C0 O1 1.306 . S
C0 O3 1.160 . S
O1 C0 1.306 . S
O1 Cd2 2.228 . S
Cd2 O1 2.228 . S
Cd2 O6 2.273 . S
Cd2 O10 2.277 . S
O3 C0 1.160 . S
O3 Cd4 2.203 . S
Cd4 O3 2.203 . S
Cd4 O6 2.411 . S
Cd4 O7 2.333 . S
Cd4 O8 2.352 . S
Cd4 O12 2.277 . S
Cd4 O13 2.356 . S
C5 O10 1.209 . S
C5 O12 1.226 . S
O6 Cd2 2.273 . S
O6 Cd4 2.411 . S
O6 C9 1.320 . S
O7 Cd4 2.333 . S
O7 C9 1.214 . S
O8 Cd4 2.352 . S
O8 C11 1.258 . S
C9 O6 1.320 . S
C9 O7 1.214 . S
O10 Cd2 2.277 . S
O10 C5 1.209 . S
C11 O8 1.258 . S
C11 O13 1.282 . S
O12 Cd4 2.277 . S
O12 C5 1.226 . S
O13 Cd4 2.356 . S
O13 C11 1.282 . S
C14 O15 1.306 . S
C14 O17 1.160 . S
O15 C14 1.306 . S
O15 Cd16 2.228 . S
Cd16 O15 2.228 . S
Cd16 O20 2.273 . S
Cd16 O24 2.277 . S
O17 C14 1.160 . S
O17 Cd18 2.203 . S
Cd18 O17 2.203 . S
Cd18 O20 2.411 . S
Cd18 O21 2.333 . S
Cd18 O22 2.352 . S
Cd18 O26 2.277 . S
Cd18 O27 2.356 . S
C19 O24 1.209 . S
C19 O26 1.226 . S
O20 Cd16 2.273 . S
O20 Cd18 2.411 . S
O20 C23 1.320 . S
O21 Cd18 2.333 . S
O21 C23 1.214 . S
O22 Cd18 2.352 . S
O22 C25 1.258 . S
C23 O20 1.320 . S
C23 O21 1.214 . S
O24 Cd16 2.277 . S
O24 C19 1.209 . S
C25 O22 1.258 . S
C25 O27 1.282 . S
O26 Cd18 2.277 . S
O26 C19 1.226 . S
O27 Cd18 2.356 . S
O27 C25 1.282 . S
C28 O29 1.306 . S
C28 O31 1.160 . S
O29 C28 1.306 . S
O29 Cd30 2.228 . S
Cd30 O29 2.228 . S
Cd30 O34 2.273 . S
Cd30 O38 2.277 . S
O31 C28 1.160 . S
O31 Cd32 2.203 . S
Cd32 O31 2.203 . S
Cd32 O34 2.411 . S
Cd32 O35 2.333 . S
Cd32 O36 2.352 . S
Cd32 O40 2.277 . S
Cd32 O41 2.356 . S
C33 O38 1.209 . S
C33 O40 1.226 . S
O34 Cd30 2.273 . S
O34 Cd32 2.411 . S
O34 C37 1.320 . S
O35 Cd32 2.333 . S
O35 C37 1.214 . S
O36 Cd32 2.352 . S
O36 C39 1.258 . S
C37 O34 1.320 . S
C37 O35 1.214 . S
O38 Cd30 2.277 . S
O38 C33 1.209 . S
C39 O36 1.258 . S
C39 O41 1.282 . S
O40 Cd32 2.277 . S
O40 C33 1.226 . S
O41 Cd32 2.356 . S
O41 C39 1.282 . S
C42 O43 1.306 . S
C42 O45 1.160 . S
O43 C42 1.306 . S
O43 Cd44 2.228 . S
Cd44 O43 2.228 . S
Cd44 O48 2.273 . S
Cd44 O52 2.277 . S
O45 C42 1.160 . S
O45 Cd46 2.203 . S
Cd46 O45 2.203 . S
Cd46 O48 2.411 . S
Cd46 O49 2.333 . S
Cd46 O50 2.352 . S
Cd46 O54 2.277 . S
Cd46 O55 2.356 . S
C47 O52 1.209 . S
C47 O54 1.226 . S
O48 Cd44 2.273 . S
O48 Cd46 2.411 . S
O48 C51 1.320 . S
O49 Cd46 2.333 . S
O49 C51 1.214 . S
O50 Cd46 2.352 . S
O50 C53 1.258 . S
C51 O48 1.320 . S
C51 O49 1.214 . S
O52 Cd44 2.277 . S
O52 C47 1.209 . S
C53 O50 1.258 . S
C53 O55 1.282 . S
O54 Cd46 2.277 . S
O54 C47 1.226 . S
O55 Cd46 2.356 . S
O55 C53 1.282 . S
C56 O57 1.306 . S
C56 O59 1.160 . S
O57 C56 1.306 . S
O57 Cd58 2.228 . S
Cd58 O57 2.228 . S
Cd58 O62 2.273 . S
Cd58 O66 2.277 . S
O59 C56 1.160 . S
O59 Cd60 2.203 . S
Cd60 O59 2.203 . S
Cd60 O62 2.411 . S
Cd60 O63 2.333 . S
Cd60 O64 2.352 . S
Cd60 O68 2.277 . S
Cd60 O69 2.356 . S
C61 O66 1.209 . S
C61 O68 1.226 . S
O62 Cd58 2.273 . S
O62 Cd60 2.411 . S
O62 C65 1.320 . S
O63 Cd60 2.333 . S
O63 C65 1.214 . S
O64 Cd60 2.352 . S
O64 C67 1.258 . S
C65 O62 1.320 . S
C65 O63 1.214 . S
O66 Cd58 2.277 . S
O66 C61 1.209 . S
C67 O64 1.258 . S
C67 O69 1.282 . S
O68 Cd60 2.277 . S
O68 C61 1.226 . S
O69 Cd60 2.356 . S
O69 C67 1.282 . S
C70 O71 1.306 . S
C70 O73 1.160 . S
O71 C70 1.306 . S
O71 Cd72 2.228 . S
Cd72 O71 2.228 . S
Cd72 O76 2.273 . S
Cd72 O80 2.277 . S
O73 C70 1.160 . S
O73 Cd74 2.203 . S
Cd74 O73 2.203 . S
Cd74 O76 2.411 . S
Cd74 O77 2.333 . S
Cd74 O78 2.352 . S
Cd74 O82 2.277 . S
Cd74 O83 2.356 . S
C75 O80 1.209 . S
C75 O82 1.226 . S
O76 Cd72 2.273 . S
O76 Cd74 2.411 . S
O76 C79 1.320 . S
O77 Cd74 2.333 . S
O77 C79 1.214 . S
O78 Cd74 2.352 . S
O78 C81 1.258 . S
C79 O76 1.320 . S
C79 O77 1.214 . S
O80 Cd72 2.277 . S
O80 C75 1.209 . S
C81 O78 1.258 . S
C81 O83 1.282 . S
O82 Cd74 2.277 . S
O82 C75 1.226 . S
O83 Cd74 2.356 . S
O83 C81 1.282 . S
C84 O85 1.306 . S
C84 O87 1.160 . S
O85 C84 1.306 . S
O85 Cd86 2.228 . S
Cd86 O85 2.228 . S
Cd86 O90 2.273 . S
Cd86 O94 2.277 . S
O87 C84 1.160 . S
O87 Cd88 2.203 . S
Cd88 O87 2.203 . S
Cd88 O90 2.411 . S
Cd88 O91 2.333 . S
Cd88 O92 2.352 . S
Cd88 O96 2.277 . S
Cd88 O97 2.356 . S
C89 O94 1.209 . S
C89 O96 1.226 . S
O90 Cd86 2.273 . S
O90 Cd88 2.411 . S
O90 C93 1.320 . S
O91 Cd88 2.333 . S
O91 C93 1.214 . S
O92 Cd88 2.352 . S
O92 C95 1.258 . S
C93 O90 1.320 . S
C93 O91 1.214 . S
O94 Cd86 2.277 . S
O94 C89 1.209 . S
C95 O92 1.258 . S
C95 O97 1.282 . S
O96 Cd88 2.277 . S
O96 C89 1.226 . S
O97 Cd88 2.356 . S
O97 C95 1.282 . S
C98 O99 1.306 . S
C98 O101 1.160 . S
O99 C98 1.306 . S
O99 Cd100 2.228 . S
Cd100 O99 2.228 . S
Cd100 O104 2.273 . S
Cd100 O108 2.277 . S
O101 C98 1.160 . S
O101 Cd102 2.203 . S
Cd102 O101 2.203 . S
Cd102 O104 2.411 . S
Cd102 O105 2.333 . S
Cd102 O106 2.352 . S
Cd102 O110 2.277 . S
Cd102 O111 2.356 . S
C103 O108 1.209 . S
C103 O110 1.226 . S
O104 Cd100 2.273 . S
O104 Cd102 2.411 . S
O104 C107 1.320 . S
O105 Cd102 2.333 . S
O105 C107 1.214 . S
O106 Cd102 2.352 . S
O106 C109 1.258 . S
C107 O104 1.320 . S
C107 O105 1.214 . S
O108 Cd100 2.277 . S
O108 C103 1.209 . S
C109 O106 1.258 . S
C109 O111 1.282 . S
O110 Cd102 2.277 . S
O110 C103 1.226 . S
O111 Cd102 2.356 . S
O111 C109 1.282 . S
C112 O113 1.306 . S
C112 O115 1.160 . S
O113 C112 1.306 . S
O113 Cd114 2.228 . S
Cd114 O113 2.228 . S
Cd114 O118 2.273 . S
Cd114 O122 2.277 . S
O115 C112 1.160 . S
O115 Cd116 2.203 . S
Cd116 O115 2.203 . S
Cd116 O118 2.411 . S
Cd116 O119 2.333 . S
Cd116 O120 2.352 . S
Cd116 O124 2.277 . S
Cd116 O125 2.356 . S
C117 O122 1.209 . S
C117 O124 1.226 . S
O118 Cd114 2.273 . S
O118 Cd116 2.411 . S
O118 C121 1.320 . S
O119 Cd116 2.333 . S
O119 C121 1.214 . S
O120 Cd116 2.352 . S
O120 C123 1.258 . S
C121 O118 1.320 . S
C121 O119 1.214 . S
O122 Cd114 2.277 . S
O122 C117 1.209 . S
C123 O120 1.258 . S
C123 O125 1.282 . S
O124 Cd116 2.277 . S
O124 C117 1.226 . S
O125 Cd116 2.356 . S
O125 C123 1.282 . S
C126 O127 1.306 . S
C126 O129 1.160 . S
O127 C126 1.306 . S
O127 Cd128 2.228 . S
Cd128 O127 2.228 . S
Cd128 O132 2.273 . S
Cd128 O136 2.277 . S
O129 C126 1.160 . S
O129 Cd130 2.203 . S
Cd130 O129 2.203 . S
Cd130 O132 2.411 . S
Cd130 O133 2.333 . S
Cd130 O134 2.352 . S
Cd130 O138 2.277 . S
Cd130 O139 2.356 . S
C131 O136 1.209 . S
C131 O138 1.226 . S
O132 Cd128 2.273 . S
O132 Cd130 2.411 . S
O132 C135 1.320 . S
O133 Cd130 2.333 . S
O133 C135 1.214 . S
O134 Cd130 2.352 . S
O134 C137 1.258 . S
C135 O132 1.320 . S
C135 O133 1.214 . S
O136 Cd128 2.277 . S
O136 C131 1.209 . S
C137 O134 1.258 . S
C137 O139 1.282 . S
O138 Cd130 2.277 . S
O138 C131 1.226 . S
O139 Cd130 2.356 . S
O139 C137 1.282 . S
C140 O141 1.306 . S
C140 O143 1.160 . S
O141 C140 1.306 . S
O141 Cd142 2.228 . S
Cd142 O141 2.228 . S
Cd142 O146 2.273 . S
Cd142 O150 2.277 . S
O143 C140 1.160 . S
O143 Cd144 2.203 . S
Cd144 O143 2.203 . S
Cd144 O146 2.411 . S
Cd144 O147 2.333 . S
Cd144 O148 2.352 . S
Cd144 O152 2.277 . S
Cd144 O153 2.356 . S
C145 O150 1.209 . S
C145 O152 1.226 . S
O146 Cd142 2.273 . S
O146 Cd144 2.411 . S
O146 C149 1.320 . S
O147 Cd144 2.333 . S
O147 C149 1.214 . S
O148 Cd144 2.352 . S
O148 C151 1.258 . S
C149 O146 1.320 . S
C149 O147 1.214 . S
O150 Cd142 2.277 . S
O150 C145 1.209 . S
C151 O148 1.258 . S
C151 O153 1.282 . S
O152 Cd144 2.277 . S
O152 C145 1.226 . S
O153 Cd144 2.356 . S
O153 C151 1.282 . S
C154 O155 1.306 . S
C154 O157 1.160 . S
O155 C154 1.306 . S
O155 Cd156 2.228 . S
Cd156 O155 2.228 . S
Cd156 O160 2.273 . S
Cd156 O164 2.277 . S
O157 C154 1.160 . S
O157 Cd158 2.203 . S
Cd158 O157 2.203 . S
Cd158 O160 2.411 . S
Cd158 O161 2.333 . S
Cd158 O162 2.352 . S
Cd158 O166 2.277 . S
Cd158 O167 2.356 . S
C159 O164 1.209 . S
C159 O166 1.226 . S
O160 Cd156 2.273 . S
O160 Cd158 2.411 . S
O160 C163 1.320 . S
O161 Cd158 2.333 . S
O161 C163 1.214 . S
O162 Cd158 2.352 . S
O162 C165 1.258 . S
C163 O160 1.320 . S
C163 O161 1.214 . S
O164 Cd156 2.277 . S
O164 C159 1.209 . S
C165 O162 1.258 . S
C165 O167 1.282 . S
O166 Cd158 2.277 . S
O166 C159 1.226 . S
O167 Cd158 2.356 . S
O167 C165 1.282 . S
C168 O169 1.306 . S
C168 O171 1.160 . S
O169 C168 1.306 . S
O169 Cd170 2.228 . S
Cd170 O169 2.228 . S
Cd170 O174 2.273 . S
Cd170 O178 2.277 . S
O171 C168 1.160 . S
O171 Cd172 2.203 . S
Cd172 O171 2.203 . S
Cd172 O174 2.411 . S
Cd172 O175 2.333 . S
Cd172 O176 2.352 . S
Cd172 O180 2.277 . S
Cd172 O181 2.356 . S
C173 O178 1.209 . S
C173 O180 1.226 . S
O174 Cd170 2.273 . S
O174 Cd172 2.411 . S
O174 C177 1.320 . S
O175 Cd172 2.333 . S
O175 C177 1.214 . S
O176 Cd172 2.352 . S
O176 C179 1.258 . S
C177 O174 1.320 . S
C177 O175 1.214 . S
O178 Cd170 2.277 . S
O178 C173 1.209 . S
C179 O176 1.258 . S
C179 O181 1.282 . S
O180 Cd172 2.277 . S
O180 C173 1.226 . S
O181 Cd172 2.356 . S
O181 C179 1.282 . S
C182 O183 1.306 . S
C182 O185 1.160 . S
O183 C182 1.306 . S
O183 Cd184 2.228 . S
Cd184 O183 2.228 . S
Cd184 O188 2.273 . S
Cd184 O192 2.277 . S
O185 C182 1.160 . S
O185 Cd186 2.203 . S
Cd186 O185 2.203 . S
Cd186 O188 2.411 . S
Cd186 O189 2.333 . S
Cd186 O190 2.352 . S
Cd186 O194 2.277 . S
Cd186 O195 2.356 . S
C187 O192 1.209 . S
C187 O194 1.226 . S
O188 Cd184 2.273 . S
O188 Cd186 2.411 . S
O188 C191 1.320 . S
O189 Cd186 2.333 . S
O189 C191 1.214 . S
O190 Cd186 2.352 . S
O190 C193 1.258 . S
C191 O188 1.320 . S
C191 O189 1.214 . S
O192 Cd184 2.277 . S
O192 C187 1.209 . S
C193 O190 1.258 . S
C193 O195 1.282 . S
O194 Cd186 2.277 . S
O194 C187 1.226 . S
O195 Cd186 2.356 . S
O195 C193 1.282 . S
C196 O197 1.306 . S
C196 O199 1.160 . S
O197 C196 1.306 . S
O197 Cd198 2.228 . S
Cd198 O197 2.228 . S
Cd198 O202 2.273 . S
Cd198 O206 2.277 . S
O199 C196 1.160 . S
O199 Cd200 2.203 . S
Cd200 O199 2.203 . S
Cd200 O202 2.411 . S
Cd200 O203 2.333 . S
Cd200 O204 2.352 . S
Cd200 O208 2.277 . S
Cd200 O209 2.356 . S
C201 O206 1.209 . S
C201 O208 1.226 . S
O202 Cd198 2.273 . S
O202 Cd200 2.411 . S
O202 C205 1.320 . S
O203 Cd200 2.333 . S
O203 C205 1.214 . S
O204 Cd200 2.352 . S
O204 C207 1.258 . S
C205 O202 1.320 . S
C205 O203 1.214 . S
O206 Cd198 2.277 . S
O206 C201 1.209 . S
C207 O204 1.258 . S
C207 O209 1.282 . S
O208 Cd200 2.277 . S
O208 C201 1.226 . S
O209 Cd200 2.356 . S
O209 C207 1.282 . S
C210 O211 1.306 . S
C210 O213 1.160 . S
O211 C210 1.306 . S
O211 Cd212 2.228 . S
Cd212 O211 2.228 . S
Cd212 O216 2.273 . S
Cd212 O220 2.277 . S
O213 C210 1.160 . S
O213 Cd214 2.203 . S
Cd214 O213 2.203 . S
Cd214 O216 2.411 . S
Cd214 O217 2.333 . S
Cd214 O218 2.352 . S
Cd214 O222 2.277 . S
Cd214 O223 2.356 . S
C215 O220 1.209 . S
C215 O222 1.226 . S
O216 Cd212 2.273 . S
O216 Cd214 2.411 . S
O216 C219 1.320 . S
O217 Cd214 2.333 . S
O217 C219 1.214 . S
O218 Cd214 2.352 . S
O218 C221 1.258 . S
C219 O216 1.320 . S
C219 O217 1.214 . S
O220 Cd212 2.277 . S
O220 C215 1.209 . S
C221 O218 1.258 . S
C221 O223 1.282 . S
O222 Cd214 2.277 . S
O222 C215 1.226 . S
O223 Cd214 2.356 . S
O223 C221 1.282 . S
H224 C232 0.929 . S
H225 C234 0.930 . S
H226 C236 0.930 . S
H227 C239 0.929 . S
H228 C242 0.930 . S
H229 C244 0.960 . S
H230 C244 0.960 . S
H231 C244 0.960 . S
C232 H224 0.929 . S
C232 C233 1.377 . S
C232 C234 1.384 . S
C233 C232 1.377 . S
C233 C239 1.390 . S
C234 H225 0.930 . S
C234 C232 1.384 . S
C234 C235 1.372 . S
C235 C234 1.372 . S
C235 C236 1.400 . S
C235 C240 1.490 . S
C236 H226 0.930 . S
C236 C235 1.400 . S
C236 C239 1.386 . S
H237 C253 0.930 . S
H238 C254 0.931 . S
C239 H227 0.929 . S
C239 C233 1.390 . S
C239 C236 1.386 . S
C240 C235 1.490 . S
C240 C242 1.395 . S
C240 C243 1.403 . S
H241 C247 0.930 . S
C242 H228 0.930 . S
C242 C240 1.395 . S
C242 C245 1.403 . S
C243 C240 1.403 . S
C243 C244 1.524 . S
C243 C247 1.400 . S
C244 H229 0.960 . S
C244 H230 0.960 . S
C244 H231 0.960 . S
C244 C243 1.524 . S
C245 C242 1.403 . S
C245 C246 1.392 . S
C245 C249 1.495 . S
C246 C245 1.392 . S
C246 C247 1.385 . S
C246 C248 1.478 . S
C247 H241 0.930 . S
C247 C243 1.400 . S
C247 C246 1.385 . S
C248 C246 1.478 . S
C248 C250 1.381 . S
C248 C254 1.383 . S
C249 C245 1.495 . S
C249 H255 0.959 . S
C249 H256 0.961 . S
C249 H257 0.960 . S
C250 C248 1.381 . S
C250 C251 1.394 . S
C250 H258 0.930 . S
C251 C250 1.394 . S
C251 C252 1.383 . S
C251 H259 0.929 . S
C252 C251 1.383 . S
C252 C253 1.377 . S
C253 H237 0.930 . S
C253 C252 1.377 . S
C253 C254 1.379 . S
C254 H238 0.931 . S
C254 C248 1.383 . S
C254 C253 1.379 . S
H255 C249 0.959 . S
H256 C249 0.961 . S
H257 C249 0.960 . S
H258 C250 0.930 . S
H259 C251 0.929 . S
H260 C268 0.929 . S
H261 C270 0.930 . S
H262 C272 0.930 . S
H263 C275 0.929 . S
H264 C278 0.930 . S
H265 C280 0.960 . S
H266 C280 0.960 . S
H267 C280 0.960 . S
C268 H260 0.929 . S
C268 C269 1.377 . S
C268 C270 1.384 . S
C269 C268 1.377 . S
C269 C275 1.390 . S
C270 H261 0.930 . S
C270 C268 1.384 . S
C270 C271 1.372 . S
C271 C270 1.372 . S
C271 C272 1.400 . S
C271 C276 1.490 . S
C272 H262 0.930 . S
C272 C271 1.400 . S
C272 C275 1.386 . S
H273 C289 0.930 . S
H274 C290 0.931 . S
C275 H263 0.929 . S
C275 C269 1.390 . S
C275 C272 1.386 . S
C276 C271 1.490 . S
C276 C278 1.395 . S
C276 C279 1.403 . S
H277 C283 0.930 . S
C278 H264 0.930 . S
C278 C276 1.395 . S
C278 C281 1.403 . S
C279 C276 1.403 . S
C279 C280 1.524 . S
C279 C283 1.400 . S
C280 H265 0.960 . S
C280 H266 0.960 . S
C280 H267 0.960 . S
C280 C279 1.524 . S
C281 C278 1.403 . S
C281 C282 1.392 . S
C281 C285 1.495 . S
C282 C281 1.392 . S
C282 C283 1.385 . S
C282 C284 1.478 . S
C283 H277 0.930 . S
C283 C279 1.400 . S
C283 C282 1.385 . S
C284 C282 1.478 . S
C284 C286 1.381 . S
C284 C290 1.383 . S
C285 C281 1.495 . S
C285 H291 0.959 . S
C285 H292 0.961 . S
C285 H293 0.960 . S
C286 C284 1.381 . S
C286 C287 1.394 . S
C286 H294 0.930 . S
C287 C286 1.394 . S
C287 C288 1.383 . S
C287 H295 0.929 . S
C288 C287 1.383 . S
C288 C289 1.377 . S
C289 H273 0.930 . S
C289 C288 1.377 . S
C289 C290 1.379 . S
C290 H274 0.931 . S
C290 C284 1.383 . S
C290 C289 1.379 . S
H291 C285 0.959 . S
H292 C285 0.961 . S
H293 C285 0.960 . S
H294 C286 0.930 . S
H295 C287 0.929 . S
H296 C304 0.929 . S
H297 C306 0.930 . S
H298 C308 0.930 . S
H299 C311 0.929 . S
H300 C314 0.930 . S
H301 C316 0.960 . S
H302 C316 0.960 . S
H303 C316 0.960 . S
C304 H296 0.929 . S
C304 C305 1.377 . S
C304 C306 1.384 . S
C305 C304 1.377 . S
C305 C311 1.390 . S
C306 H297 0.930 . S
C306 C304 1.384 . S
C306 C307 1.372 . S
C307 C306 1.372 . S
C307 C308 1.400 . S
C307 C312 1.490 . S
C308 H298 0.930 . S
C308 C307 1.400 . S
C308 C311 1.386 . S
H309 C325 0.930 . S
H310 C326 0.931 . S
C311 H299 0.929 . S
C311 C305 1.390 . S
C311 C308 1.386 . S
C312 C307 1.490 . S
C312 C314 1.395 . S
C312 C315 1.403 . S
H313 C319 0.930 . S
C314 H300 0.930 . S
C314 C312 1.395 . S
C314 C317 1.403 . S
C315 C312 1.403 . S
C315 C316 1.524 . S
C315 C319 1.400 . S
C316 H301 0.960 . S
C316 H302 0.960 . S
C316 H303 0.960 . S
C316 C315 1.524 . S
C317 C314 1.403 . S
C317 C318 1.392 . S
C317 C321 1.495 . S
C318 C317 1.392 . S
C318 C319 1.385 . S
C318 C320 1.478 . S
C319 H313 0.930 . S
C319 C315 1.400 . S
C319 C318 1.385 . S
C320 C318 1.478 . S
C320 C322 1.381 . S
C320 C326 1.383 . S
C321 C317 1.495 . S
C321 H327 0.959 . S
C321 H328 0.961 . S
C321 H329 0.960 . S
C322 C320 1.381 . S
C322 C323 1.394 . S
C322 H330 0.930 . S
C323 C322 1.394 . S
C323 C324 1.383 . S
C323 H331 0.929 . S
C324 C323 1.383 . S
C324 C325 1.377 . S
C325 H309 0.930 . S
C325 C324 1.377 . S
C325 C326 1.379 . S
C326 H310 0.931 . S
C326 C320 1.383 . S
C326 C325 1.379 . S
H327 C321 0.959 . S
H328 C321 0.961 . S
H329 C321 0.960 . S
H330 C322 0.930 . S
H331 C323 0.929 . S
H332 C340 0.929 . S
H333 C342 0.930 . S
H334 C344 0.930 . S
H335 C347 0.929 . S
H336 C350 0.930 . S
H337 C352 0.960 . S
H338 C352 0.960 . S
H339 C352 0.960 . S
C340 H332 0.929 . S
C340 C341 1.377 . S
C340 C342 1.384 . S
C341 C340 1.377 . S
C341 C347 1.390 . S
C342 H333 0.930 . S
C342 C340 1.384 . S
C342 C343 1.372 . S
C343 C342 1.372 . S
C343 C344 1.400 . S
C343 C348 1.490 . S
C344 H334 0.930 . S
C344 C343 1.400 . S
C344 C347 1.386 . S
H345 C361 0.930 . S
H346 C362 0.931 . S
C347 H335 0.929 . S
C347 C341 1.390 . S
C347 C344 1.386 . S
C348 C343 1.490 . S
C348 C350 1.395 . S
C348 C351 1.403 . S
H349 C355 0.930 . S
C350 H336 0.930 . S
C350 C348 1.395 . S
C350 C353 1.403 1_455 S
C351 C348 1.403 . S
C351 C352 1.524 . S
C351 C355 1.400 1_455 S
C352 H337 0.960 . S
C352 H338 0.960 . S
C352 H339 0.960 . S
C352 C351 1.524 . S
C353 C350 1.403 1_655 S
C353 C354 1.392 . S
C353 C357 1.495 . S
C354 C353 1.392 . S
C354 C355 1.385 . S
C354 C356 1.478 . S
C355 H349 0.930 . S
C355 C351 1.400 1_655 S
C355 C354 1.385 . S
C356 C354 1.478 . S
C356 C358 1.381 . S
C356 C362 1.383 . S
C357 C353 1.495 . S
C357 H363 0.959 . S
C357 H364 0.961 . S
C357 H365 0.960 . S
C358 C356 1.381 . S
C358 C359 1.394 . S
C358 H366 0.930 . S
C359 C358 1.394 . S
C359 C360 1.383 . S
C359 H367 0.929 . S
C360 C359 1.383 . S
C360 C361 1.377 . S
C361 H345 0.930 . S
C361 C360 1.377 . S
C361 C362 1.379 . S
C362 H346 0.931 . S
C362 C356 1.383 . S
C362 C361 1.379 . S
H363 C357 0.959 . S
H364 C357 0.961 . S
H365 C357 0.960 . S
H366 C358 0.930 . S
H367 C359 0.929 . S
H368 C376 0.929 . S
H369 C378 0.930 . S
H370 C380 0.930 . S
H371 C383 0.929 . S
H372 C386 0.930 . S
H373 C388 0.960 . S
H374 C388 0.960 . S
H375 C388 0.960 . S
C376 H368 0.929 . S
C376 C377 1.377 . S
C376 C378 1.384 . S
C377 C376 1.377 . S
C377 C383 1.390 . S
C378 H369 0.930 . S
C378 C376 1.384 . S
C378 C379 1.372 . S
C379 C378 1.372 . S
C379 C380 1.400 . S
C379 C384 1.490 . S
C380 H370 0.930 . S
C380 C379 1.400 . S
C380 C383 1.386 . S
H381 C397 0.930 . S
H382 C398 0.931 . S
C383 H371 0.929 . S
C383 C377 1.390 . S
C383 C380 1.386 . S
C384 C379 1.490 . S
C384 C386 1.395 . S
C384 C387 1.403 . S
H385 C391 0.930 . S
C386 H372 0.930 . S
C386 C384 1.395 . S
C386 C389 1.403 . S
C387 C384 1.403 . S
C387 C388 1.524 . S
C387 C391 1.400 . S
C388 H373 0.960 . S
C388 H374 0.960 . S
C388 H375 0.960 . S
C388 C387 1.524 . S
C389 C386 1.403 . S
C389 C390 1.392 . S
C389 C393 1.495 . S
C390 C389 1.392 . S
C390 C391 1.385 . S
C390 C392 1.478 . S
C391 H385 0.930 . S
C391 C387 1.400 . S
C391 C390 1.385 . S
C392 C390 1.478 . S
C392 C394 1.381 . S
C392 C398 1.383 . S
C393 C389 1.495 . S
C393 H399 0.959 . S
C393 H400 0.961 . S
C393 H401 0.960 . S
C394 C392 1.381 . S
C394 C395 1.394 . S
C394 H402 0.930 . S
C395 C394 1.394 . S
C395 C396 1.383 . S
C395 H403 0.929 . S
C396 C395 1.383 . S
C396 C397 1.377 . S
C397 H381 0.930 . S
C397 C396 1.377 . S
C397 C398 1.379 . S
C398 H382 0.931 . S
C398 C392 1.383 . S
C398 C397 1.379 . S
H399 C393 0.959 . S
H400 C393 0.961 . S
H401 C393 0.960 . S
H402 C394 0.930 . S
H403 C395 0.929 . S
H404 C412 0.929 . S
H405 C414 0.930 . S
H406 C416 0.930 . S
H407 C419 0.929 . S
H408 C422 0.930 . S
H409 C424 0.960 . S
H410 C424 0.960 . S
H411 C424 0.960 . S
C412 H404 0.929 . S
C412 C413 1.377 . S
C412 C414 1.384 . S
C413 C412 1.377 . S
C413 C419 1.390 . S
C414 H405 0.930 . S
C414 C412 1.384 . S
C414 C415 1.372 . S
C415 C414 1.372 . S
C415 C416 1.400 . S
C415 C420 1.490 . S
C416 H406 0.930 . S
C416 C415 1.400 . S
C416 C419 1.386 . S
H417 C433 0.930 . S
H418 C434 0.931 . S
C419 H407 0.929 . S
C419 C413 1.390 . S
C419 C416 1.386 . S
C420 C415 1.490 . S
C420 C422 1.395 . S
C420 C423 1.403 . S
H421 C427 0.930 . S
C422 H408 0.930 . S
C422 C420 1.395 . S
C422 C425 1.403 1_655 S
C423 C420 1.403 . S
C423 C424 1.524 . S
C423 C427 1.400 1_655 S
C424 H409 0.960 . S
C424 H410 0.960 . S
C424 H411 0.960 . S
C424 C423 1.524 . S
C425 C422 1.403 1_455 S
C425 C426 1.392 . S
C425 C429 1.495 . S
C426 C425 1.392 . S
C426 C427 1.385 . S
C426 C428 1.478 . S
C427 H421 0.930 . S
C427 C423 1.400 1_455 S
C427 C426 1.385 . S
C428 C426 1.478 . S
C428 C430 1.381 . S
C428 C434 1.383 . S
C429 C425 1.495 . S
C429 H435 0.959 . S
C429 H436 0.961 . S
C429 H437 0.960 . S
C430 C428 1.381 . S
C430 C431 1.394 . S
C430 H438 0.930 . S
C431 C430 1.394 . S
C431 C432 1.383 . S
C431 H439 0.929 . S
C432 C431 1.383 . S
C432 C433 1.377 . S
C433 H417 0.930 . S
C433 C432 1.377 . S
C433 C434 1.379 . S
C434 H418 0.931 . S
C434 C428 1.383 . S
C434 C433 1.379 . S
H435 C429 0.959 . S
H436 C429 0.961 . S
H437 C429 0.960 . S
H438 C430 0.930 . S
H439 C431 0.929 . S
H440 C448 0.929 . S
H441 C450 0.930 . S
H442 C452 0.930 . S
H443 C455 0.929 . S
H444 C458 0.930 . S
H445 C460 0.960 . S
H446 C460 0.960 . S
H447 C460 0.960 . S
C448 H440 0.929 . S
C448 C449 1.377 . S
C448 C450 1.384 . S
C449 C448 1.377 . S
C449 C455 1.390 . S
C450 H441 0.930 . S
C450 C448 1.384 . S
C450 C451 1.372 . S
C451 C450 1.372 . S
C451 C452 1.400 . S
C451 C456 1.490 . S
C452 H442 0.930 . S
C452 C451 1.400 . S
C452 C455 1.386 . S
H453 C469 0.930 . S
H454 C470 0.931 . S
C455 H443 0.929 . S
C455 C449 1.390 . S
C455 C452 1.386 . S
C456 C451 1.490 . S
C456 C458 1.395 . S
C456 C459 1.403 . S
H457 C463 0.930 . S
C458 H444 0.930 . S
C458 C456 1.395 . S
C458 C461 1.403 . S
C459 C456 1.403 . S
C459 C460 1.524 . S
C459 C463 1.400 . S
C460 H445 0.960 . S
C460 H446 0.960 . S
C460 H447 0.960 . S
C460 C459 1.524 . S
C461 C458 1.403 . S
C461 C462 1.392 . S
C461 C465 1.495 . S
C462 C461 1.392 . S
C462 C463 1.385 . S
C462 C464 1.478 . S
C463 H457 0.930 . S
C463 C459 1.400 . S
C463 C462 1.385 . S
C464 C462 1.478 . S
C464 C466 1.381 . S
C464 C470 1.383 . S
C465 C461 1.495 . S
C465 H471 0.959 . S
C465 H472 0.961 . S
C465 H473 0.960 . S
C466 C464 1.381 . S
C466 C467 1.394 . S
C466 H474 0.930 . S
C467 C466 1.394 . S
C467 C468 1.383 . S
C467 H475 0.929 . S
C468 C467 1.383 . S
C468 C469 1.377 . S
C469 H453 0.930 . S
C469 C468 1.377 . S
C469 C470 1.379 . S
C470 H454 0.931 . S
C470 C464 1.383 . S
C470 C469 1.379 . S
H471 C465 0.959 . S
H472 C465 0.961 . S
H473 C465 0.960 . S
H474 C466 0.930 . S
H475 C467 0.929 . S
H476 C484 0.929 . S
H477 C486 0.930 . S
H478 C488 0.930 . S
H479 C491 0.929 . S
H480 C494 0.930 . S
H481 C496 0.960 . S
H482 C496 0.960 . S
H483 C496 0.960 . S
C484 H476 0.929 . S
C484 C485 1.377 . S
C484 C486 1.384 . S
C485 C484 1.377 . S
C485 C491 1.390 . S
C486 H477 0.930 . S
C486 C484 1.384 . S
C486 C487 1.372 . S
C487 C486 1.372 . S
C487 C488 1.400 . S
C487 C492 1.490 . S
C488 H478 0.930 . S
C488 C487 1.400 . S
C488 C491 1.386 . S
H489 C505 0.930 . S
H490 C506 0.931 . S
C491 H479 0.929 . S
C491 C485 1.390 . S
C491 C488 1.386 . S
C492 C487 1.490 . S
C492 C494 1.395 . S
C492 C495 1.403 . S
H493 C499 0.930 . S
C494 H480 0.930 . S
C494 C492 1.395 . S
C494 C497 1.403 . S
C495 C492 1.403 . S
C495 C496 1.524 . S
C495 C499 1.400 . S
C496 H481 0.960 . S
C496 H482 0.960 . S
C496 H483 0.960 . S
C496 C495 1.524 . S
C497 C494 1.403 . S
C497 C498 1.392 . S
C497 C501 1.495 . S
C498 C497 1.392 . S
C498 C499 1.385 . S
C498 C500 1.478 . S
C499 H493 0.930 . S
C499 C495 1.400 . S
C499 C498 1.385 . S
C500 C498 1.478 . S
C500 C502 1.381 . S
C500 C506 1.383 . S
C501 C497 1.495 . S
C501 H507 0.959 . S
C501 H508 0.961 . S
C501 H509 0.960 . S
C502 C500 1.381 . S
C502 C503 1.394 . S
C502 H510 0.930 . S
C503 C502 1.394 . S
C503 C504 1.383 . S
C503 H511 0.929 . S
C504 C503 1.383 . S
C504 C505 1.377 . S
C505 H489 0.930 . S
C505 C504 1.377 . S
C505 C506 1.379 . S
C506 H490 0.931 . S
C506 C500 1.383 . S
C506 C505 1.379 . S
H507 C501 0.959 . S
H508 C501 0.961 . S
H509 C501 0.960 . S
H510 C502 0.930 . S
H511 C503 0.929 . S
H512 C520 0.929 . S
H513 C522 0.930 . S
H514 C524 0.930 . S
H515 C527 0.929 . S
H516 C530 0.930 . S
H517 C532 0.960 . S
H518 C532 0.960 . S
H519 C532 0.960 . S
C520 H512 0.929 . S
C520 C521 1.377 . S
C520 C522 1.384 . S
C521 C520 1.377 . S
C521 C527 1.390 . S
C522 H513 0.930 . S
C522 C520 1.384 . S
C522 C523 1.372 . S
C523 C522 1.372 . S
C523 C524 1.400 . S
C523 C528 1.490 . S
C524 H514 0.930 . S
C524 C523 1.400 . S
C524 C527 1.386 . S
H525 C541 0.930 . S
H526 C542 0.931 . S
C527 H515 0.929 . S
C527 C521 1.390 . S
C527 C524 1.386 . S
C528 C523 1.490 . S
C528 C530 1.395 . S
C528 C531 1.403 . S
H529 C535 0.930 . S
C530 H516 0.930 . S
C530 C528 1.395 . S
C530 C533 1.403 . S
C531 C528 1.403 . S
C531 C532 1.524 . S
C531 C535 1.400 . S
C532 H517 0.960 . S
C532 H518 0.960 . S
C532 H519 0.960 . S
C532 C531 1.524 . S
C533 C530 1.403 . S
C533 C534 1.392 . S
C533 C537 1.495 . S
C534 C533 1.392 . S
C534 C535 1.385 . S
C534 C536 1.478 . S
C535 H529 0.930 . S
C535 C531 1.400 . S
C535 C534 1.385 . S
C536 C534 1.478 . S
C536 C538 1.381 . S
C536 C542 1.383 . S
C537 C533 1.495 . S
C537 H543 0.959 . S
C537 H544 0.961 . S
C537 H545 0.960 . S
C538 C536 1.381 . S
C538 C539 1.394 . S
C538 H546 0.930 . S
C539 C538 1.394 . S
C539 C540 1.383 . S
C539 H547 0.929 . S
C540 C539 1.383 . S
C540 C541 1.377 . S
C541 H525 0.930 . S
C541 C540 1.377 . S
C541 C542 1.379 . S
C542 H526 0.931 . S
C542 C536 1.383 . S
C542 C541 1.379 . S
H543 C537 0.959 . S
H544 C537 0.961 . S
H545 C537 0.960 . S
H546 C538 0.930 . S
H547 C539 0.929 . S
H548 C556 0.929 . S
H549 C558 0.930 . S
H550 C560 0.930 . S
H551 C563 0.929 . S
H552 C566 0.930 . S
H553 C568 0.960 . S
H554 C568 0.960 . S
H555 C568 0.960 . S
C556 H548 0.929 . S
C556 C557 1.377 . S
C556 C558 1.384 . S
C557 C556 1.377 . S
C557 C563 1.390 . S
C558 H549 0.930 . S
C558 C556 1.384 . S
C558 C559 1.372 . S
C559 C558 1.372 . S
C559 C560 1.400 . S
C559 C564 1.490 . S
C560 H550 0.930 . S
C560 C559 1.400 . S
C560 C563 1.386 . S
H561 C577 0.930 . S
H562 C578 0.931 . S
C563 H551 0.929 . S
C563 C557 1.390 . S
C563 C560 1.386 . S
C564 C559 1.490 . S
C564 C566 1.395 . S
C564 C567 1.403 . S
H565 C571 0.930 . S
C566 H552 0.930 . S
C566 C564 1.395 . S
C566 C569 1.403 . S
C567 C564 1.403 . S
C567 C568 1.524 . S
C567 C571 1.400 . S
C568 H553 0.960 . S
C568 H554 0.960 . S
C568 H555 0.960 . S
C568 C567 1.524 . S
C569 C566 1.403 . S
C569 C570 1.392 . S
C569 C573 1.495 . S
C570 C569 1.392 . S
C570 C571 1.385 . S
C570 C572 1.478 . S
C571 H565 0.930 . S
C571 C567 1.400 . S
C571 C570 1.385 . S
C572 C570 1.478 . S
C572 C574 1.381 . S
C572 C578 1.383 . S
C573 C569 1.495 . S
C573 H579 0.959 . S
C573 H580 0.961 . S
C573 H581 0.960 . S
C574 C572 1.381 . S
C574 C575 1.394 . S
C574 H582 0.930 . S
C575 C574 1.394 . S
C575 C576 1.383 . S
C575 H583 0.929 . S
C576 C575 1.383 . S
C576 C577 1.377 . S
C577 H561 0.930 . S
C577 C576 1.377 . S
C577 C578 1.379 . S
C578 H562 0.931 . S
C578 C572 1.383 . S
C578 C577 1.379 . S
H579 C573 0.959 . S
H580 C573 0.961 . S
H581 C573 0.960 . S
H582 C574 0.930 . S
H583 C575 0.929 . S
H584 C592 0.929 . S
H585 C594 0.930 . S
H586 C596 0.930 . S
H587 C599 0.929 . S
H588 C602 0.930 . S
H589 C604 0.960 . S
H590 C604 0.960 . S
H591 C604 0.960 . S
C592 H584 0.929 . S
C592 C593 1.377 . S
C592 C594 1.384 . S
C593 C592 1.377 . S
C593 C599 1.390 . S
C594 H585 0.930 . S
C594 C592 1.384 . S
C594 C595 1.372 . S
C595 C594 1.372 . S
C595 C596 1.400 . S
C595 C600 1.490 . S
C596 H586 0.930 . S
C596 C595 1.400 . S
C596 C599 1.386 . S
H597 C613 0.930 . S
H598 C614 0.931 . S
C599 H587 0.929 . S
C599 C593 1.390 . S
C599 C596 1.386 . S
C600 C595 1.490 . S
C600 C602 1.395 . S
C600 C603 1.403 . S
H601 C607 0.930 . S
C602 H588 0.930 . S
C602 C600 1.395 . S
C602 C605 1.403 . S
C603 C600 1.403 . S
C603 C604 1.524 . S
C603 C607 1.400 . S
C604 H589 0.960 . S
C604 H590 0.960 . S
C604 H591 0.960 . S
C604 C603 1.524 . S
C605 C602 1.403 . S
C605 C606 1.392 . S
C605 C609 1.495 . S
C606 C605 1.392 . S
C606 C607 1.385 . S
C606 C608 1.478 . S
C607 H601 0.930 . S
C607 C603 1.400 . S
C607 C606 1.385 . S
C608 C606 1.478 . S
C608 C610 1.381 . S
C608 C614 1.383 . S
C609 C605 1.495 . S
C609 H615 0.959 . S
C609 H616 0.961 . S
C609 H617 0.960 . S
C610 C608 1.381 . S
C610 C611 1.394 . S
C610 H618 0.930 . S
C611 C610 1.394 . S
C611 C612 1.383 . S
C611 H619 0.929 . S
C612 C611 1.383 . S
C612 C613 1.377 . S
C613 H597 0.930 . S
C613 C612 1.377 . S
C613 C614 1.379 . S
C614 H598 0.931 . S
C614 C608 1.383 . S
C614 C613 1.379 . S
H615 C609 0.959 . S
H616 C609 0.961 . S
H617 C609 0.960 . S
H618 C610 0.930 . S
H619 C611 0.929 . S
H620 C628 0.929 . S
H621 C630 0.930 . S
H622 C632 0.930 . S
H623 C635 0.929 . S
H624 C638 0.930 . S
H625 C640 0.960 . S
H626 C640 0.960 . S
H627 C640 0.960 . S
C628 H620 0.929 . S
C628 C629 1.377 . S
C628 C630 1.384 . S
C629 C628 1.377 . S
C629 C635 1.390 . S
C630 H621 0.930 . S
C630 C628 1.384 . S
C630 C631 1.372 . S
C631 C630 1.372 . S
C631 C632 1.400 . S
C631 C636 1.490 . S
C632 H622 0.930 . S
C632 C631 1.400 . S
C632 C635 1.386 . S
H633 C649 0.930 . S
H634 C650 0.931 . S
C635 H623 0.929 . S
C635 C629 1.390 . S
C635 C632 1.386 . S
C636 C631 1.490 . S
C636 C638 1.395 . S
C636 C639 1.403 . S
H637 C643 0.930 . S
C638 H624 0.930 . S
C638 C636 1.395 . S
C638 C641 1.403 . S
C639 C636 1.403 . S
C639 C640 1.524 . S
C639 C643 1.400 . S
C640 H625 0.960 . S
C640 H626 0.960 . S
C640 H627 0.960 . S
C640 C639 1.524 . S
C641 C638 1.403 . S
C641 C642 1.392 . S
C641 C645 1.495 . S
C642 C641 1.392 . S
C642 C643 1.385 . S
C642 C644 1.478 . S
C643 H637 0.930 . S
C643 C639 1.400 . S
C643 C642 1.385 . S
C644 C642 1.478 . S
C644 C646 1.381 . S
C644 C650 1.383 . S
C645 C641 1.495 . S
C645 H651 0.959 . S
C645 H652 0.961 . S
C645 H653 0.960 . S
C646 C644 1.381 . S
C646 C647 1.394 . S
C646 H654 0.930 . S
C647 C646 1.394 . S
C647 C648 1.383 . S
C647 H655 0.929 . S
C648 C647 1.383 . S
C648 C649 1.377 . S
C649 H633 0.930 . S
C649 C648 1.377 . S
C649 C650 1.379 . S
C650 H634 0.931 . S
C650 C644 1.383 . S
C650 C649 1.379 . S
H651 C645 0.959 . S
H652 C645 0.961 . S
H653 C645 0.960 . S
H654 C646 0.930 . S
H655 C647 0.929 . S
H656 C664 0.929 . S
H657 C666 0.930 . S
H658 C668 0.930 . S
H659 C671 0.929 . S
H660 C674 0.930 . S
H661 C676 0.960 . S
H662 C676 0.960 . S
H663 C676 0.960 . S
C664 H656 0.929 . S
C664 C665 1.377 . S
C664 C666 1.384 . S
C665 C664 1.377 . S
C665 C671 1.390 . S
C666 H657 0.930 . S
C666 C664 1.384 . S
C666 C667 1.372 . S
C667 C666 1.372 . S
C667 C668 1.400 . S
C667 C672 1.490 . S
C668 H658 0.930 . S
C668 C667 1.400 . S
C668 C671 1.386 . S
H669 C685 0.930 . S
H670 C686 0.931 . S
C671 H659 0.929 . S
C671 C665 1.390 . S
C671 C668 1.386 . S
C672 C667 1.490 . S
C672 C674 1.395 . S
C672 C675 1.403 . S
H673 C679 0.930 . S
C674 H660 0.930 . S
C674 C672 1.395 . S
C674 C677 1.403 1_455 S
C675 C672 1.403 . S
C675 C676 1.524 . S
C675 C679 1.400 1_455 S
C676 H661 0.960 . S
C676 H662 0.960 . S
C676 H663 0.960 . S
C676 C675 1.524 . S
C677 C674 1.403 1_655 S
C677 C678 1.392 . S
C677 C681 1.495 . S
C678 C677 1.392 . S
C678 C679 1.385 . S
C678 C680 1.478 . S
C679 H673 0.930 . S
C679 C675 1.400 1_655 S
C679 C678 1.385 . S
C680 C678 1.478 . S
C680 C682 1.381 . S
C680 C686 1.383 . S
C681 C677 1.495 . S
C681 H687 0.959 . S
C681 H688 0.961 . S
C681 H689 0.960 . S
C682 C680 1.381 . S
C682 C683 1.394 . S
C682 H690 0.930 . S
C683 C682 1.394 . S
C683 C684 1.383 . S
C683 H691 0.929 . S
C684 C683 1.383 . S
C684 C685 1.377 . S
C685 H669 0.930 . S
C685 C684 1.377 . S
C685 C686 1.379 . S
C686 H670 0.931 . S
C686 C680 1.383 . S
C686 C685 1.379 . S
H687 C681 0.959 . S
H688 C681 0.961 . S
H689 C681 0.960 . S
H690 C682 0.930 . S
H691 C683 0.929 . S
H692 C700 0.929 . S
H693 C702 0.930 . S
H694 C704 0.930 . S
H695 C707 0.929 . S
H696 C710 0.930 . S
H697 C712 0.960 . S
H698 C712 0.960 . S
H699 C712 0.960 . S
C700 H692 0.929 . S
C700 C701 1.377 . S
C700 C702 1.384 . S
C701 C700 1.377 . S
C701 C707 1.390 . S
C702 H693 0.930 . S
C702 C700 1.384 . S
C702 C703 1.372 . S
C703 C702 1.372 . S
C703 C704 1.400 . S
C703 C708 1.490 . S
C704 H694 0.930 . S
C704 C703 1.400 . S
C704 C707 1.386 . S
H705 C721 0.930 . S
H706 C722 0.931 . S
C707 H695 0.929 . S
C707 C701 1.390 . S
C707 C704 1.386 . S
C708 C703 1.490 . S
C708 C710 1.395 . S
C708 C711 1.403 . S
H709 C715 0.930 . S
C710 H696 0.930 . S
C710 C708 1.395 . S
C710 C713 1.403 . S
C711 C708 1.403 . S
C711 C712 1.524 . S
C711 C715 1.400 . S
C712 H697 0.960 . S
C712 H698 0.960 . S
C712 H699 0.960 . S
C712 C711 1.524 . S
C713 C710 1.403 . S
C713 C714 1.392 . S
C713 C717 1.495 . S
C714 C713 1.392 . S
C714 C715 1.385 . S
C714 C716 1.478 . S
C715 H709 0.930 . S
C715 C711 1.400 . S
C715 C714 1.385 . S
C716 C714 1.478 . S
C716 C718 1.381 . S
C716 C722 1.383 . S
C717 C713 1.495 . S
C717 H723 0.959 . S
C717 H724 0.961 . S
C717 H725 0.960 . S
C718 C716 1.381 . S
C718 C719 1.394 . S
C718 H726 0.930 . S
C719 C718 1.394 . S
C719 C720 1.383 . S
C719 H727 0.929 . S
C720 C719 1.383 . S
C720 C721 1.377 . S
C721 H705 0.930 . S
C721 C720 1.377 . S
C721 C722 1.379 . S
C722 H706 0.931 . S
C722 C716 1.383 . S
C722 C721 1.379 . S
H723 C717 0.959 . S
H724 C717 0.961 . S
H725 C717 0.960 . S
H726 C718 0.930 . S
H727 C719 0.929 . S
H728 C736 0.929 . S
H729 C738 0.930 . S
H730 C740 0.930 . S
H731 C743 0.929 . S
H732 C746 0.930 . S
H733 C748 0.960 . S
H734 C748 0.960 . S
H735 C748 0.960 . S
C736 H728 0.929 . S
C736 C737 1.377 . S
C736 C738 1.384 . S
C737 C736 1.377 . S
C737 C743 1.390 . S
C738 H729 0.930 . S
C738 C736 1.384 . S
C738 C739 1.372 . S
C739 C738 1.372 . S
C739 C740 1.400 . S
C739 C744 1.490 . S
C740 H730 0.930 . S
C740 C739 1.400 . S
C740 C743 1.386 . S
H741 C757 0.930 . S
H742 C758 0.931 . S
C743 H731 0.929 . S
C743 C737 1.390 . S
C743 C740 1.386 . S
C744 C739 1.490 . S
C744 C746 1.395 . S
C744 C747 1.403 . S
H745 C751 0.930 . S
C746 H732 0.930 . S
C746 C744 1.395 . S
C746 C749 1.403 . S
C747 C744 1.403 . S
C747 C748 1.524 . S
C747 C751 1.400 . S
C748 H733 0.960 . S
C748 H734 0.960 . S
C748 H735 0.960 . S
C748 C747 1.524 . S
C749 C746 1.403 . S
C749 C750 1.392 . S
C749 C753 1.495 . S
C750 C749 1.392 . S
C750 C751 1.385 . S
C750 C752 1.478 . S
C751 H745 0.930 . S
C751 C747 1.400 . S
C751 C750 1.385 . S
C752 C750 1.478 . S
C752 C754 1.381 . S
C752 C758 1.383 . S
C753 C749 1.495 . S
C753 H759 0.959 . S
C753 H760 0.961 . S
C753 H761 0.960 . S
C754 C752 1.381 . S
C754 C755 1.394 . S
C754 H762 0.930 . S
C755 C754 1.394 . S
C755 C756 1.383 . S
C755 H763 0.929 . S
C756 C755 1.383 . S
C756 C757 1.377 . S
C757 H741 0.930 . S
C757 C756 1.377 . S
C757 C758 1.379 . S
C758 H742 0.931 . S
C758 C752 1.383 . S
C758 C757 1.379 . S
H759 C753 0.959 . S
H760 C753 0.961 . S
H761 C753 0.960 . S
H762 C754 0.930 . S
H763 C755 0.929 . S
H764 C772 0.929 . S
H765 C774 0.930 . S
H766 C776 0.930 . S
H767 C779 0.929 . S
H768 C782 0.930 . S
H769 C784 0.960 . S
H770 C784 0.960 . S
H771 C784 0.960 . S
C772 H764 0.929 . S
C772 C773 1.377 . S
C772 C774 1.384 . S
C773 C772 1.377 . S
C773 C779 1.390 . S
C774 H765 0.930 . S
C774 C772 1.384 . S
C774 C775 1.372 . S
C775 C774 1.372 . S
C775 C776 1.400 . S
C775 C780 1.490 . S
C776 H766 0.930 . S
C776 C775 1.400 . S
C776 C779 1.386 . S
H777 C793 0.930 . S
H778 C794 0.931 . S
C779 H767 0.929 . S
C779 C773 1.390 . S
C779 C776 1.386 . S
C780 C775 1.490 . S
C780 C782 1.395 . S
C780 C783 1.403 . S
H781 C787 0.930 . S
C782 H768 0.930 . S
C782 C780 1.395 . S
C782 C785 1.403 1_455 S
C783 C780 1.403 . S
C783 C784 1.524 . S
C783 C787 1.400 1_455 S
C784 H769 0.960 . S
C784 H770 0.960 . S
C784 H771 0.960 . S
C784 C783 1.524 . S
C785 C782 1.403 1_655 S
C785 C786 1.392 . S
C785 C789 1.495 . S
C786 C785 1.392 . S
C786 C787 1.385 . S
C786 C788 1.478 . S
C787 H781 0.930 . S
C787 C783 1.400 1_655 S
C787 C786 1.385 . S
C788 C786 1.478 . S
C788 C790 1.381 . S
C788 C794 1.383 . S
C789 C785 1.495 . S
C789 H795 0.959 . S
C789 H796 0.961 . S
C789 H797 0.960 . S
C790 C788 1.381 . S
C790 C791 1.394 . S
C790 H798 0.930 . S
C791 C790 1.394 . S
C791 C792 1.383 . S
C791 H799 0.929 . S
C792 C791 1.383 . S
C792 C793 1.377 . S
C793 H777 0.930 . S
C793 C792 1.377 . S
C793 C794 1.379 . S
C794 H778 0.931 . S
C794 C788 1.383 . S
C794 C793 1.379 . S
H795 C789 0.959 . S
H796 C789 0.961 . S
H797 C789 0.960 . S
H798 C790 0.930 . S
H799 C791 0.929 . S
H800 C808 0.929 . S
H801 C810 0.930 . S
H802 C812 0.930 . S
H803 C815 0.929 . S
H804 C818 0.930 . S
H805 C820 0.960 . S
H806 C820 0.960 . S
H807 C820 0.960 . S
C808 H800 0.929 . S
C808 C809 1.377 . S
C808 C810 1.384 . S
C809 C808 1.377 . S
C809 C815 1.390 . S
C810 H801 0.930 . S
C810 C808 1.384 . S
C810 C811 1.372 . S
C811 C810 1.372 . S
C811 C812 1.400 . S
C811 C816 1.490 . S
C812 H802 0.930 . S
C812 C811 1.400 . S
C812 C815 1.386 . S
H813 C829 0.930 . S
H814 C830 0.931 . S
C815 H803 0.929 . S
C815 C809 1.390 . S
C815 C812 1.386 . S
C816 C811 1.490 . S
C816 C818 1.395 1_554 S
C816 C819 1.403 . S
H817 C823 0.930 . S
C818 H804 0.930 . S
C818 C816 1.395 1_556 S
C818 C821 1.403 . S
C819 C816 1.403 . S
C819 C820 1.524 . S
C819 C823 1.400 . S
C820 H805 0.960 . S
C820 H806 0.960 . S
C820 H807 0.960 . S
C820 C819 1.524 . S
C821 C818 1.403 . S
C821 C822 1.392 . S
C821 C825 1.495 . S
C822 C821 1.392 . S
C822 C823 1.385 1_556 S
C822 C824 1.478 . S
C823 H817 0.930 . S
C823 C819 1.400 . S
C823 C822 1.385 1_554 S
C824 C822 1.478 . S
C824 C826 1.381 . S
C824 C830 1.383 . S
C825 C821 1.495 . S
C825 H831 0.959 . S
C825 H832 0.961 . S
C825 H833 0.960 . S
C826 C824 1.381 . S
C826 C827 1.394 . S
C826 H834 0.930 . S
C827 C826 1.394 . S
C827 C828 1.383 . S
C827 H835 0.929 . S
C828 C827 1.383 . S
C828 C829 1.377 . S
C829 H813 0.930 . S
C829 C828 1.377 . S
C829 C830 1.379 . S
C830 H814 0.931 . S
C830 C824 1.383 . S
C830 C829 1.379 . S
H831 C825 0.959 . S
H832 C825 0.961 . S
H833 C825 0.960 . S
H834 C826 0.930 . S
H835 C827 0.929 . S
H836 C844 0.929 . S
H837 C846 0.930 . S
H838 C848 0.930 . S
H839 C851 0.929 . S
H840 C854 0.930 . S
H841 C856 0.960 . S
H842 C856 0.960 . S
H843 C856 0.960 . S
C844 H836 0.929 . S
C844 C845 1.377 . S
C844 C846 1.384 . S
C845 C844 1.377 . S
C845 C851 1.390 . S
C846 H837 0.930 . S
C846 C844 1.384 . S
C846 C847 1.372 . S
C847 C846 1.372 . S
C847 C848 1.400 . S
C847 C852 1.490 . S
C848 H838 0.930 . S
C848 C847 1.400 . S
C848 C851 1.386 . S
H849 C865 0.930 . S
H850 C866 0.931 . S
C851 H839 0.929 . S
C851 C845 1.390 . S
C851 C848 1.386 . S
C852 C847 1.490 . S
C852 C854 1.395 . S
C852 C855 1.403 . S
H853 C859 0.930 . S
C854 H840 0.930 . S
C854 C852 1.395 . S
C854 C857 1.403 . S
C855 C852 1.403 . S
C855 C856 1.524 . S
C855 C859 1.400 . S
C856 H841 0.960 . S
C856 H842 0.960 . S
C856 H843 0.960 . S
C856 C855 1.524 . S
C857 C854 1.403 . S
C857 C858 1.392 . S
C857 C861 1.495 . S
C858 C857 1.392 . S
C858 C859 1.385 . S
C858 C860 1.478 . S
C859 H853 0.930 . S
C859 C855 1.400 . S
C859 C858 1.385 . S
C860 C858 1.478 . S
C860 C862 1.381 . S
C860 C866 1.383 . S
C861 C857 1.495 . S
C861 H867 0.959 . S
C861 H868 0.961 . S
C861 H869 0.960 . S
C862 C860 1.381 . S
C862 C863 1.394 . S
C862 H870 0.930 . S
C863 C862 1.394 . S
C863 C864 1.383 . S
C863 H871 0.929 . S
C864 C863 1.383 . S
C864 C865 1.377 . S
C865 H849 0.930 . S
C865 C864 1.377 . S
C865 C866 1.379 . S
C866 H850 0.931 . S
C866 C860 1.383 . S
C866 C865 1.379 . S
H867 C861 0.959 . S
H868 C861 0.961 . S
H869 C861 0.960 . S
H870 C862 0.930 . S
H871 C863 0.929 . S
H872 C880 0.929 . S
H873 C882 0.930 . S
H874 C884 0.930 . S
H875 C887 0.929 . S
H876 C890 0.930 . S
H877 C892 0.960 . S
H878 C892 0.960 . S
H879 C892 0.960 . S
C880 H872 0.929 . S
C880 C881 1.377 . S
C880 C882 1.384 . S
C881 C880 1.377 . S
C881 C887 1.390 . S
C882 H873 0.930 . S
C882 C880 1.384 . S
C882 C883 1.372 . S
C883 C882 1.372 . S
C883 C884 1.400 . S
C883 C888 1.490 . S
C884 H874 0.930 . S
C884 C883 1.400 . S
C884 C887 1.386 . S
H885 C901 0.930 . S
H886 C902 0.931 . S
C887 H875 0.929 . S
C887 C881 1.390 . S
C887 C884 1.386 . S
C888 C883 1.490 . S
C888 C890 1.395 . S
C888 C891 1.403 . S
H889 C895 0.930 . S
C890 H876 0.930 . S
C890 C888 1.395 . S
C890 C893 1.403 . S
C891 C888 1.403 . S
C891 C892 1.524 . S
C891 C895 1.400 . S
C892 H877 0.960 . S
C892 H878 0.960 . S
C892 H879 0.960 . S
C892 C891 1.524 . S
C893 C890 1.403 . S
C893 C894 1.392 . S
C893 C897 1.495 . S
C894 C893 1.392 . S
C894 C895 1.385 . S
C894 C896 1.478 . S
C895 H889 0.930 . S
C895 C891 1.400 . S
C895 C894 1.385 . S
C896 C894 1.478 . S
C896 C898 1.381 . S
C896 C902 1.383 . S
C897 C893 1.495 . S
C897 H903 0.959 . S
C897 H904 0.961 . S
C897 H905 0.960 . S
C898 C896 1.381 . S
C898 C899 1.394 . S
C898 H906 0.930 . S
C899 C898 1.394 . S
C899 C900 1.383 . S
C899 H907 0.929 . S
C900 C899 1.383 . S
C900 C901 1.377 . S
C901 H885 0.930 . S
C901 C900 1.377 . S
C901 C902 1.379 . S
C902 H886 0.931 . S
C902 C896 1.383 . S
C902 C901 1.379 . S
H903 C897 0.959 . S
H904 C897 0.961 . S
H905 C897 0.960 . S
H906 C898 0.930 . S
H907 C899 0.929 . S
H908 C916 0.929 . S
H909 C918 0.930 . S
H910 C920 0.930 . S
H911 C923 0.929 . S
H912 C926 0.930 . S
H913 C928 0.960 . S
H914 C928 0.960 . S
H915 C928 0.960 . S
C916 H908 0.929 . S
C916 C917 1.377 . S
C916 C918 1.384 . S
C917 C916 1.377 . S
C917 C923 1.390 . S
C918 H909 0.930 . S
C918 C916 1.384 . S
C918 C919 1.372 . S
C919 C918 1.372 . S
C919 C920 1.400 . S
C919 C924 1.490 . S
C920 H910 0.930 . S
C920 C919 1.400 . S
C920 C923 1.386 . S
H921 C937 0.930 . S
H922 C938 0.931 . S
C923 H911 0.929 . S
C923 C917 1.390 . S
C923 C920 1.386 . S
C924 C919 1.490 . S
C924 C926 1.395 . S
C924 C927 1.403 . S
H925 C931 0.930 . S
C926 H912 0.930 . S
C926 C924 1.395 . S
C926 C929 1.403 . S
C927 C924 1.403 . S
C927 C928 1.524 . S
C927 C931 1.400 . S
C928 H913 0.960 . S
C928 H914 0.960 . S
C928 H915 0.960 . S
C928 C927 1.524 . S
C929 C926 1.403 . S
C929 C930 1.392 . S
C929 C933 1.495 . S
C930 C929 1.392 . S
C930 C931 1.385 . S
C930 C932 1.478 . S
C931 H925 0.930 . S
C931 C927 1.400 . S
C931 C930 1.385 . S
C932 C930 1.478 . S
C932 C934 1.381 . S
C932 C938 1.383 . S
C933 C929 1.495 . S
C933 H939 0.959 . S
C933 H940 0.961 . S
C933 H941 0.960 . S
C934 C932 1.381 . S
C934 C935 1.394 . S
C934 H942 0.930 . S
C935 C934 1.394 . S
C935 C936 1.383 . S
C935 H943 0.929 . S
C936 C935 1.383 . S
C936 C937 1.377 . S
C937 H921 0.930 . S
C937 C936 1.377 . S
C937 C938 1.379 . S
C938 H922 0.931 . S
C938 C932 1.383 . S
C938 C937 1.379 . S
H939 C933 0.959 . S
H940 C933 0.961 . S
H941 C933 0.960 . S
H942 C934 0.930 . S
H943 C935 0.929 . S
H944 C952 0.929 . S
H945 C954 0.930 . S
H946 C956 0.930 . S
H947 C959 0.929 . S
H948 C962 0.930 . S
H949 C964 0.960 . S
H950 C964 0.960 . S
H951 C964 0.960 . S
C952 H944 0.929 . S
C952 C953 1.377 . S
C952 C954 1.384 . S
C953 C952 1.377 . S
C953 C959 1.390 . S
C954 H945 0.930 . S
C954 C952 1.384 . S
C954 C955 1.372 . S
C955 C954 1.372 . S
C955 C956 1.400 . S
C955 C960 1.490 . S
C956 H946 0.930 . S
C956 C955 1.400 . S
C956 C959 1.386 . S
H957 C973 0.930 . S
H958 C974 0.931 . S
C959 H947 0.929 . S
C959 C953 1.390 . S
C959 C956 1.386 . S
C960 C955 1.490 . S
C960 C962 1.395 . S
C960 C963 1.403 1_556 S
H961 C967 0.930 . S
C962 H948 0.930 . S
C962 C960 1.395 . S
C962 C965 1.403 . S
C963 C960 1.403 1_554 S
C963 C964 1.524 . S
C963 C967 1.400 . S
C964 H949 0.960 . S
C964 H950 0.960 . S
C964 H951 0.960 . S
C964 C963 1.524 . S
C965 C962 1.403 . S
C965 C966 1.392 1_556 S
C965 C969 1.495 . S
C966 C965 1.392 1_554 S
C966 C967 1.385 . S
C966 C968 1.478 . S
C967 H961 0.930 . S
C967 C963 1.400 . S
C967 C966 1.385 . S
C968 C966 1.478 . S
C968 C970 1.381 . S
C968 C974 1.383 . S
C969 C965 1.495 . S
C969 H975 0.959 . S
C969 H976 0.961 . S
C969 H977 0.960 . S
C970 C968 1.381 . S
C970 C971 1.394 . S
C970 H978 0.930 . S
C971 C970 1.394 . S
C971 C972 1.383 . S
C971 H979 0.929 . S
C972 C971 1.383 . S
C972 C973 1.377 . S
C973 H957 0.930 . S
C973 C972 1.377 . S
C973 C974 1.379 . S
C974 H958 0.931 . S
C974 C968 1.383 . S
C974 C973 1.379 . S
H975 C969 0.959 . S
H976 C969 0.961 . S
H977 C969 0.960 . S
H978 C970 0.930 . S
H979 C971 0.929 . S
H980 C988 0.929 . S
H981 C990 0.930 . S
H982 C992 0.930 . S
H983 C995 0.929 . S
H984 C998 0.930 . S
H985 C1000 0.960 . S
H986 C1000 0.960 . S
H987 C1000 0.960 . S
C988 H980 0.929 . S
C988 C989 1.377 . S
C988 C990 1.384 . S
C989 C988 1.377 . S
C989 C995 1.390 . S
C990 H981 0.930 . S
C990 C988 1.384 . S
C990 C991 1.372 . S
C991 C990 1.372 . S
C991 C992 1.400 . S
C991 C996 1.490 . S
C992 H982 0.930 . S
C992 C991 1.400 . S
C992 C995 1.386 . S
H993 C1009 0.930 . S
H994 C1010 0.931 . S
C995 H983 0.929 . S
C995 C989 1.390 . S
C995 C992 1.386 . S
C996 C991 1.490 . S
C996 C998 1.395 . S
C996 C999 1.403 . S
H997 C1003 0.930 . S
C998 H984 0.930 . S
C998 C996 1.395 . S
C998 C1001 1.403 . S
C999 C996 1.403 . S
C999 C1000 1.524 . S
C999 C1003 1.400 . S
C1000 H985 0.960 . S
C1000 H986 0.960 . S
C1000 H987 0.960 . S
C1000 C999 1.524 . S
C1001 C998 1.403 . S
C1001 C1002 1.392 . S
C1001 C1005 1.495 . S
C1002 C1001 1.392 . S
C1002 C1003 1.385 . S
C1002 C1004 1.478 . S
C1003 H997 0.930 . S
C1003 C999 1.400 . S
C1003 C1002 1.385 . S
C1004 C1002 1.478 . S
C1004 C1006 1.381 . S
C1004 C1010 1.383 . S
C1005 C1001 1.495 . S
C1005 H1011 0.959 . S
C1005 H1012 0.961 . S
C1005 H1013 0.960 . S
C1006 C1004 1.381 . S
C1006 C1007 1.394 . S
C1006 H1014 0.930 . S
C1007 C1006 1.394 . S
C1007 C1008 1.383 . S
C1007 H1015 0.929 . S
C1008 C1007 1.383 . S
C1008 C1009 1.377 . S
C1009 H993 0.930 . S
C1009 C1008 1.377 . S
C1009 C1010 1.379 . S
C1010 H994 0.931 . S
C1010 C1004 1.383 . S
C1010 C1009 1.379 . S
H1011 C1005 0.959 . S
H1012 C1005 0.961 . S
H1013 C1005 0.960 . S
H1014 C1006 0.930 . S
H1015 C1007 0.929 . S
H1016 C1024 0.929 . S
H1017 C1026 0.930 . S
H1018 C1028 0.930 . S
H1019 C1031 0.929 . S
H1020 C1034 0.930 . S
H1021 C1036 0.960 . S
H1022 C1036 0.960 . S
H1023 C1036 0.960 . S
C1024 H1016 0.929 . S
C1024 C1025 1.377 . S
C1024 C1026 1.384 . S
C1025 C1024 1.377 . S
C1025 C1031 1.390 . S
C1026 H1017 0.930 . S
C1026 C1024 1.384 . S
C1026 C1027 1.372 . S
C1027 C1026 1.372 . S
C1027 C1028 1.400 . S
C1027 C1032 1.490 . S
C1028 H1018 0.930 . S
C1028 C1027 1.400 . S
C1028 C1031 1.386 . S
H1029 C1045 0.930 . S
H1030 C1046 0.931 . S
C1031 H1019 0.929 . S
C1031 C1025 1.390 . S
C1031 C1028 1.386 . S
C1032 C1027 1.490 . S
C1032 C1034 1.395 . S
C1032 C1035 1.403 . S
H1033 C1039 0.930 . S
C1034 H1020 0.930 . S
C1034 C1032 1.395 . S
C1034 C1037 1.403 . S
C1035 C1032 1.403 . S
C1035 C1036 1.524 . S
C1035 C1039 1.400 . S
C1036 H1021 0.960 . S
C1036 H1022 0.960 . S
C1036 H1023 0.960 . S
C1036 C1035 1.524 . S
C1037 C1034 1.403 . S
C1037 C1038 1.392 . S
C1037 C1041 1.495 . S
C1038 C1037 1.392 . S
C1038 C1039 1.385 . S
C1038 C1040 1.478 . S
C1039 H1033 0.930 . S
C1039 C1035 1.400 . S
C1039 C1038 1.385 . S
C1040 C1038 1.478 . S
C1040 C1042 1.381 . S
C1040 C1046 1.383 . S
C1041 C1037 1.495 . S
C1041 H1047 0.959 . S
C1041 H1048 0.961 . S
C1041 H1049 0.960 . S
C1042 C1040 1.381 . S
C1042 C1043 1.394 . S
C1042 H1050 0.930 . S
C1043 C1042 1.394 . S
C1043 C1044 1.383 . S
C1043 H1051 0.929 . S
C1044 C1043 1.383 . S
C1044 C1045 1.377 . S
C1045 H1029 0.930 . S
C1045 C1044 1.377 . S
C1045 C1046 1.379 . S
C1046 H1030 0.931 . S
C1046 C1040 1.383 . S
C1046 C1045 1.379 . S
H1047 C1041 0.959 . S
H1048 C1041 0.961 . S
H1049 C1041 0.960 . S
H1050 C1042 0.930 . S
H1051 C1043 0.929 . S
H1052 C1060 0.929 . S
H1053 C1062 0.930 . S
H1054 C1064 0.930 . S
H1055 C1067 0.929 . S
H1056 C1070 0.930 . S
H1057 C1072 0.960 . S
H1058 C1072 0.960 . S
H1059 C1072 0.960 . S
C1060 H1052 0.929 . S
C1060 C1061 1.377 . S
C1060 C1062 1.384 . S
C1061 C1060 1.377 . S
C1061 C1067 1.390 . S
C1062 H1053 0.930 . S
C1062 C1060 1.384 . S
C1062 C1063 1.372 . S
C1063 C1062 1.372 . S
C1063 C1064 1.400 . S
C1063 C1068 1.490 . S
C1064 H1054 0.930 . S
C1064 C1063 1.400 . S
C1064 C1067 1.386 . S
H1065 C1081 0.930 . S
H1066 C1082 0.931 . S
C1067 H1055 0.929 . S
C1067 C1061 1.390 . S
C1067 C1064 1.386 . S
C1068 C1063 1.490 . S
C1068 C1070 1.395 . S
C1068 C1071 1.403 . S
H1069 C1075 0.930 . S
C1070 H1056 0.930 . S
C1070 C1068 1.395 . S
C1070 C1073 1.403 . S
C1071 C1068 1.403 . S
C1071 C1072 1.524 . S
C1071 C1075 1.400 . S
C1072 H1057 0.960 . S
C1072 H1058 0.960 . S
C1072 H1059 0.960 . S
C1072 C1071 1.524 . S
C1073 C1070 1.403 . S
C1073 C1074 1.392 . S
C1073 C1077 1.495 . S
C1074 C1073 1.392 . S
C1074 C1075 1.385 . S
C1074 C1076 1.478 . S
C1075 H1069 0.930 . S
C1075 C1071 1.400 . S
C1075 C1074 1.385 . S
C1076 C1074 1.478 . S
C1076 C1078 1.381 . S
C1076 C1082 1.383 . S
C1077 C1073 1.495 . S
C1077 H1083 0.959 . S
C1077 H1084 0.961 . S
C1077 H1085 0.960 . S
C1078 C1076 1.381 . S
C1078 C1079 1.394 . S
C1078 H1086 0.930 . S
C1079 C1078 1.394 . S
C1079 C1080 1.383 . S
C1079 H1087 0.929 . S
C1080 C1079 1.383 . S
C1080 C1081 1.377 . S
C1081 H1065 0.930 . S
C1081 C1080 1.377 . S
C1081 C1082 1.379 . S
C1082 H1066 0.931 . S
C1082 C1076 1.383 . S
C1082 C1081 1.379 . S
H1083 C1077 0.959 . S
H1084 C1077 0.961 . S
H1085 C1077 0.960 . S
H1086 C1078 0.930 . S
H1087 C1079 0.929 . S
H1088 C1096 0.929 . S
H1089 C1098 0.930 . S
H1090 C1100 0.930 . S
H1091 C1103 0.929 . S
H1092 C1106 0.930 . S
H1093 C1108 0.960 1_565 S
H1094 C1108 0.960 . S
H1095 C1108 0.960 . S
C1096 H1088 0.929 . S
C1096 C1097 1.377 . S
C1096 C1098 1.384 . S
C1097 C1096 1.377 . S
C1097 C1103 1.390 . S
C1098 H1089 0.930 . S
C1098 C1096 1.384 . S
C1098 C1099 1.372 . S
C1099 C1098 1.372 . S
C1099 C1100 1.400 . S
C1099 C1104 1.490 . S
C1100 H1090 0.930 . S
C1100 C1099 1.400 . S
C1100 C1103 1.386 . S
H1101 C1117 0.930 . S
H1102 C1118 0.931 . S
C1103 H1091 0.929 . S
C1103 C1097 1.390 . S
C1103 C1100 1.386 . S
C1104 C1099 1.490 . S
C1104 C1106 1.395 . S
C1104 C1107 1.403 . S
H1105 C1111 0.930 . S
C1106 H1092 0.930 . S
C1106 C1104 1.395 . S
C1106 C1109 1.419 . S
C1107 C1104 1.403 . S
C1107 C1108 1.524 . S
C1107 C1111 1.400 1_545 S
C1108 H1093 0.960 1_545 S
C1108 H1094 0.960 . S
C1108 H1095 0.960 . S
C1108 C1107 1.524 . S
C1109 C1106 1.419 . S
C1109 C1110 1.377 1_545 S
C1109 C1113 1.495 1_545 S
C1110 C1109 1.377 1_565 S
C1110 C1111 1.385 . S
C1110 C1112 1.478 . S
C1111 H1105 0.930 . S
C1111 C1107 1.400 1_565 S
C1111 C1110 1.385 . S
C1112 C1110 1.478 . S
C1112 C1114 1.381 . S
C1112 C1118 1.383 . S
C1113 C1109 1.495 1_565 S
C1113 H1119 0.963 1_565 S
C1113 H1120 0.958 . S
C1113 H1121 0.959 . S
C1114 C1112 1.381 . S
C1114 C1115 1.394 . S
C1114 H1122 0.930 . S
C1115 C1114 1.394 . S
C1115 C1116 1.383 . S
C1115 H1123 0.929 . S
C1116 C1115 1.383 . S
C1116 C1117 1.377 . S
C1117 H1101 0.930 . S
C1117 C1116 1.377 . S
C1117 C1118 1.379 . S
C1118 H1102 0.931 . S
C1118 C1112 1.383 . S
C1118 C1117 1.379 . S
H1119 C1113 0.963 1_545 S
H1120 C1113 0.958 . S
H1121 C1113 0.959 . S
H1122 C1114 0.930 . S
H1123 C1115 0.929 . S
H1124 C1132 0.929 . S
H1125 C1134 0.930 . S
H1126 C1136 0.930 . S
H1127 C1139 0.929 . S
H1128 C1142 0.930 . S
H1129 C1144 0.960 . S
H1130 C1144 0.960 . S
H1131 C1144 0.960 . S
C1132 H1124 0.929 . S
C1132 C1133 1.377 . S
C1132 C1134 1.384 . S
C1133 C1132 1.377 . S
C1133 C1139 1.390 . S
C1134 H1125 0.930 . S
C1134 C1132 1.384 . S
C1134 C1135 1.372 . S
C1135 C1134 1.372 . S
C1135 C1136 1.400 . S
C1135 C1140 1.490 . S
C1136 H1126 0.930 . S
C1136 C1135 1.400 . S
C1136 C1139 1.386 . S
H1137 C1153 0.930 . S
H1138 C1154 0.931 . S
C1139 H1127 0.929 . S
C1139 C1133 1.390 . S
C1139 C1136 1.386 . S
C1140 C1135 1.490 . S
C1140 C1142 1.395 . S
C1140 C1143 1.403 . S
H1141 C1147 0.930 . S
C1142 H1128 0.930 . S
C1142 C1140 1.395 . S
C1142 C1145 1.403 . S
C1143 C1140 1.403 . S
C1143 C1144 1.524 . S
C1143 C1147 1.400 . S
C1144 H1129 0.960 . S
C1144 H1130 0.960 . S
C1144 H1131 0.960 . S
C1144 C1143 1.524 . S
C1145 C1142 1.403 . S
C1145 C1146 1.392 . S
C1145 C1149 1.495 . S
C1146 C1145 1.392 . S
C1146 C1147 1.385 . S
C1146 C1148 1.478 . S
C1147 H1141 0.930 . S
C1147 C1143 1.400 . S
C1147 C1146 1.385 . S
C1148 C1146 1.478 . S
C1148 C1150 1.381 . S
C1148 C1154 1.383 . S
C1149 C1145 1.495 . S
C1149 H1155 0.959 . S
C1149 H1156 0.961 . S
C1149 H1157 0.960 . S
C1150 C1148 1.381 . S
C1150 C1151 1.394 . S
C1150 H1158 0.930 . S
C1151 C1150 1.394 . S
C1151 C1152 1.383 . S
C1151 H1159 0.929 . S
C1152 C1151 1.383 . S
C1152 C1153 1.377 . S
C1153 H1137 0.930 . S
C1153 C1152 1.377 . S
C1153 C1154 1.379 . S
C1154 H1138 0.931 . S
C1154 C1148 1.383 . S
C1154 C1153 1.379 . S
H1155 C1149 0.959 . S
H1156 C1149 0.961 . S
H1157 C1149 0.960 . S
H1158 C1150 0.930 . S
H1159 C1151 0.929 . S
H1160 C1168 0.929 . S
H1161 C1170 0.930 1_554 S
H1162 C1172 0.930 . S
H1163 C1175 0.929 . S
H1164 C1178 0.930 . S
H1165 C1180 0.960 1_565 S
H1166 C1180 0.960 . S
H1167 C1180 0.960 . S
C1168 H1160 0.929 . S
C1168 C1169 1.377 . S
C1168 C1170 1.384 . S
C1169 C1168 1.377 . S
C1169 C1175 1.390 . S
C1170 H1161 0.930 1_556 S
C1170 C1168 1.384 . S
C1170 C1171 1.372 . S
C1171 C1170 1.372 . S
C1171 C1172 1.400 . S
C1171 C1176 1.490 . S
C1172 H1162 0.930 . S
C1172 C1171 1.400 . S
C1172 C1175 1.386 . S
H1173 C1189 0.930 . S
H1174 C1190 0.931 1_556 S
C1175 H1163 0.929 . S
C1175 C1169 1.390 . S
C1175 C1172 1.386 . S
C1176 C1171 1.490 . S
C1176 C1178 1.395 1_556 S
C1176 C1179 1.403 . S
H1177 C1183 0.936 . S
C1178 H1164 0.930 . S
C1178 C1176 1.395 1_554 S
C1178 C1181 1.403 1_545 S
C1179 C1176 1.403 . S
C1179 C1180 1.524 . S
C1179 C1183 1.420 1_545 S
C1180 H1165 0.960 1_545 S
C1180 H1166 0.960 . S
C1180 H1167 0.960 . S
C1180 C1179 1.524 . S
C1181 C1178 1.403 1_565 S
C1181 C1182 1.392 . S
C1181 C1185 1.495 . S
C1182 C1181 1.392 . S
C1182 C1183 1.361 1_554 S
C1182 C1184 1.478 . S
C1183 H1177 0.936 . S
C1183 C1179 1.420 1_565 S
C1183 C1182 1.361 1_556 S
C1184 C1182 1.478 . S
C1184 C1186 1.381 . S
C1184 C1190 1.383 . S
C1185 C1181 1.495 . S
C1185 H1191 0.959 1_565 S
C1185 H1192 0.961 . S
C1185 H1193 0.960 . S
C1186 C1184 1.381 . S
C1186 C1187 1.394 . S
C1186 H1194 0.930 . S
C1187 C1186 1.394 . S
C1187 C1188 1.383 . S
C1187 H1195 0.929 . S
C1188 C1187 1.383 . S
C1188 C1189 1.377 . S
C1189 H1173 0.930 . S
C1189 C1188 1.377 . S
C1189 C1190 1.379 . S
C1190 H1174 0.931 1_554 S
C1190 C1184 1.383 . S
C1190 C1189 1.379 . S
H1191 C1185 0.959 1_545 S
H1192 C1185 0.961 . S
H1193 C1185 0.960 . S
H1194 C1186 0.930 . S
H1195 C1187 0.929 . S
H1196 C1204 0.929 . S
H1197 C1206 0.930 . S
H1198 C1208 0.930 . S
H1199 C1211 0.929 . S
H1200 C1214 0.930 . S
H1201 C1216 0.960 . S
H1202 C1216 0.960 . S
H1203 C1216 0.960 . S
C1204 H1196 0.929 . S
C1204 C1205 1.377 . S
C1204 C1206 1.384 . S
C1205 C1204 1.377 . S
C1205 C1211 1.390 . S
C1206 H1197 0.930 . S
C1206 C1204 1.384 . S
C1206 C1207 1.372 . S
C1207 C1206 1.372 . S
C1207 C1208 1.400 . S
C1207 C1212 1.490 . S
C1208 H1198 0.930 . S
C1208 C1207 1.400 . S
C1208 C1211 1.386 . S
H1209 C1225 0.930 . S
H1210 C1226 0.931 . S
C1211 H1199 0.929 . S
C1211 C1205 1.390 . S
C1211 C1208 1.386 . S
C1212 C1207 1.490 . S
C1212 C1214 1.395 . S
C1212 C1215 1.403 . S
H1213 C1219 0.930 . S
C1214 H1200 0.930 . S
C1214 C1212 1.395 . S
C1214 C1217 1.403 . S
C1215 C1212 1.403 . S
C1215 C1216 1.524 . S
C1215 C1219 1.400 . S
C1216 H1201 0.960 . S
C1216 H1202 0.960 . S
C1216 H1203 0.960 . S
C1216 C1215 1.524 . S
C1217 C1214 1.403 . S
C1217 C1218 1.392 . S
C1217 C1221 1.495 . S
C1218 C1217 1.392 . S
C1218 C1219 1.385 . S
C1218 C1220 1.478 . S
C1219 H1213 0.930 . S
C1219 C1215 1.400 . S
C1219 C1218 1.385 . S
C1220 C1218 1.478 . S
C1220 C1222 1.381 . S
C1220 C1226 1.383 . S
C1221 C1217 1.495 . S
C1221 H1227 0.959 . S
C1221 H1228 0.961 . S
C1221 H1229 0.960 . S
C1222 C1220 1.381 . S
C1222 C1223 1.394 . S
C1222 H1230 0.930 . S
C1223 C1222 1.394 . S
C1223 C1224 1.383 . S
C1223 H1231 0.929 . S
C1224 C1223 1.383 . S
C1224 C1225 1.377 . S
C1225 H1209 0.930 . S
C1225 C1224 1.377 . S
C1225 C1226 1.379 . S
C1226 H1210 0.931 . S
C1226 C1220 1.383 . S
C1226 C1225 1.379 . S
H1227 C1221 0.959 . S
H1228 C1221 0.961 . S
H1229 C1221 0.960 . S
H1230 C1222 0.930 . S
H1231 C1223 0.929 . S
H1232 C1240 0.929 . S
H1233 C1242 0.930 . S
H1234 C1244 0.930 . S
H1235 C1247 0.929 . S
H1236 C1250 0.929 1_545 S
H1237 C1252 0.960 . S
H1238 C1252 0.960 . S
H1239 C1252 0.960 . S
C1240 H1232 0.929 . S
C1240 C1241 1.377 . S
C1240 C1242 1.384 . S
C1241 C1240 1.377 . S
C1241 C1247 1.390 . S
C1242 H1233 0.930 . S
C1242 C1240 1.384 . S
C1242 C1243 1.372 . S
C1243 C1242 1.372 . S
C1243 C1244 1.400 . S
C1243 C1248 1.490 . S
C1244 H1234 0.930 . S
C1244 C1243 1.400 . S
C1244 C1247 1.386 . S
H1245 C1261 0.930 . S
H1246 C1262 0.931 . S
C1247 H1235 0.929 . S
C1247 C1241 1.390 . S
C1247 C1244 1.386 . S
C1248 C1243 1.490 . S
C1248 C1250 1.371 1_545 S
C1248 C1251 1.403 . S
H1249 C1255 0.930 . S
C1250 H1236 0.929 1_565 S
C1250 C1248 1.371 1_565 S
C1250 C1253 1.428 . S
C1251 C1248 1.403 . S
C1251 C1252 1.524 . S
C1251 C1255 1.400 1_545 S
C1252 H1237 0.960 . S
C1252 H1238 0.960 . S
C1252 H1239 0.960 . S
C1252 C1251 1.524 . S
C1253 C1250 1.428 . S
C1253 C1254 1.392 . S
C1253 C1257 1.495 . S
C1254 C1253 1.392 . S
C1254 C1255 1.385 . S
C1254 C1256 1.478 . S
C1255 H1249 0.930 . S
C1255 C1251 1.400 1_565 S
C1255 C1254 1.385 . S
C1256 C1254 1.478 . S
C1256 C1258 1.381 . S
C1256 C1262 1.383 . S
C1257 C1253 1.495 . S
C1257 H1263 0.959 . S
C1257 H1264 0.961 . S
C1257 H1265 0.960 . S
C1258 C1256 1.381 . S
C1258 C1259 1.394 . S
C1258 H1266 0.930 . S
C1259 C1258 1.394 . S
C1259 C1260 1.383 . S
C1259 H1267 0.929 . S
C1260 C1259 1.383 . S
C1260 C1261 1.377 . S
C1261 H1245 0.930 . S
C1261 C1260 1.377 . S
C1261 C1262 1.379 . S
C1262 H1246 0.931 . S
C1262 C1256 1.383 . S
C1262 C1261 1.379 . S
H1263 C1257 0.959 . S
H1264 C1257 0.961 . S
H1265 C1257 0.960 . S
H1266 C1258 0.930 . S
H1267 C1259 0.929 . S
H1268 C1276 0.929 . S
H1269 C1278 0.930 . S
H1270 C1280 0.930 . S
H1271 C1283 0.929 . S
H1272 C1286 0.930 . S
H1273 C1288 0.960 . S
H1274 C1288 0.960 . S
H1275 C1288 0.960 . S
C1276 H1268 0.929 . S
C1276 C1277 1.377 . S
C1276 C1278 1.384 . S
C1277 C1276 1.377 . S
C1277 C1283 1.390 . S
C1278 H1269 0.930 . S
C1278 C1276 1.384 . S
C1278 C1279 1.372 . S
C1279 C1278 1.372 . S
C1279 C1280 1.400 . S
C1279 C1284 1.490 . S
C1280 H1270 0.930 . S
C1280 C1279 1.400 . S
C1280 C1283 1.386 . S
H1281 C1297 0.930 . S
H1282 C1298 0.931 . S
C1283 H1271 0.929 . S
C1283 C1277 1.390 . S
C1283 C1280 1.386 . S
C1284 C1279 1.490 . S
C1284 C1286 1.395 . S
C1284 C1287 1.403 . S
H1285 C1291 0.930 . S
C1286 H1272 0.930 . S
C1286 C1284 1.395 . S
C1286 C1289 1.403 . S
C1287 C1284 1.403 . S
C1287 C1288 1.524 . S
C1287 C1291 1.400 . S
C1288 H1273 0.960 . S
C1288 H1274 0.960 . S
C1288 H1275 0.960 . S
C1288 C1287 1.524 . S
C1289 C1286 1.403 . S
C1289 C1290 1.392 . S
C1289 C1293 1.495 . S
C1290 C1289 1.392 . S
C1290 C1291 1.385 . S
C1290 C1292 1.478 . S
C1291 H1285 0.930 . S
C1291 C1287 1.400 . S
C1291 C1290 1.385 . S
C1292 C1290 1.478 . S
C1292 C1294 1.381 . S
C1292 C1298 1.383 . S
C1293 C1289 1.495 . S
C1293 H1299 0.959 . S
C1293 H1300 0.961 . S
C1293 H1301 0.960 . S
C1294 C1292 1.381 . S
C1294 C1295 1.394 . S
C1294 H1302 0.930 . S
C1295 C1294 1.394 . S
C1295 C1296 1.383 . S
C1295 H1303 0.929 . S
C1296 C1295 1.383 . S
C1296 C1297 1.377 . S
C1297 H1281 0.930 . S
C1297 C1296 1.377 . S
C1297 C1298 1.379 . S
C1298 H1282 0.931 . S
C1298 C1292 1.383 . S
C1298 C1297 1.379 . S
H1299 C1293 0.959 . S
H1300 C1293 0.961 . S
H1301 C1293 0.960 . S
H1302 C1294 0.930 . S
H1303 C1295 0.929 . S
H1304 C1312 0.929 . S
H1305 C1314 0.930 . S
H1306 C1316 0.930 1_556 S
H1307 C1319 0.929 . S
H1308 C1322 0.930 . S
H1309 C1324 0.960 . S
H1310 C1324 0.960 1_554 S
H1311 C1324 0.960 . S
C1312 H1304 0.929 . S
C1312 C1313 1.377 . S
C1312 C1314 1.384 . S
C1313 C1312 1.377 . S
C1313 C1319 1.390 . S
C1314 H1305 0.930 . S
C1314 C1312 1.384 . S
C1314 C1315 1.372 . S
C1315 C1314 1.372 . S
C1315 C1316 1.400 . S
C1315 C1320 1.490 . S
C1316 H1306 0.930 1_554 S
C1316 C1315 1.400 . S
C1316 C1319 1.386 . S
H1317 C1333 0.930 . S
H1318 C1334 0.931 . S
C1319 H1307 0.929 . S
C1319 C1313 1.390 . S
C1319 C1316 1.386 . S
C1320 C1315 1.490 . S
C1320 C1322 1.395 . S
C1320 C1323 1.403 1_554 S
H1321 C1327 0.930 . S
C1322 H1308 0.930 . S
C1322 C1320 1.395 . S
C1322 C1325 1.403 1_564 S
C1323 C1320 1.403 1_556 S
C1323 C1324 1.524 . S
C1323 C1327 1.400 1_565 S
C1324 H1309 0.960 . S
C1324 H1310 0.960 1_556 S
C1324 H1311 0.960 . S
C1324 C1323 1.524 . S
C1325 C1322 1.403 1_546 S
C1325 C1326 1.392 . S
C1325 C1329 1.495 1_556 S
C1326 C1325 1.392 . S
C1326 C1327 1.385 . S
C1326 C1328 1.478 . S
C1327 H1321 0.930 . S
C1327 C1323 1.400 1_545 S
C1327 C1326 1.385 . S
C1328 C1326 1.478 . S
C1328 C1330 1.381 . S
C1328 C1334 1.383 . S
C1329 C1325 1.495 1_554 S
C1329 H1335 0.959 . S
C1329 H1336 0.961 1_554 S
C1329 H1337 0.960 . S
C1330 C1328 1.381 . S
C1330 C1331 1.394 . S
C1330 H1338 0.930 . S
C1331 C1330 1.394 . S
C1331 C1332 1.383 . S
C1331 H1339 0.929 . S
C1332 C1331 1.383 . S
C1332 C1333 1.377 . S
C1333 H1317 0.930 . S
C1333 C1332 1.377 . S
C1333 C1334 1.379 . S
C1334 H1318 0.931 . S
C1334 C1328 1.383 . S
C1334 C1333 1.379 . S
H1335 C1329 0.959 . S
H1336 C1329 0.961 1_556 S
H1337 C1329 0.960 . S
H1338 C1330 0.930 . S
H1339 C1331 0.929 . S
H1340 C1348 0.929 . S
H1341 C1350 0.930 . S
H1342 C1352 0.930 . S
H1343 C1355 0.929 . S
H1344 C1358 0.930 . S
H1345 C1360 0.960 . S
H1346 C1360 0.960 . S
H1347 C1360 0.960 . S
C1348 H1340 0.929 . S
C1348 C1349 1.377 . S
C1348 C1350 1.384 . S
C1349 C1348 1.377 . S
C1349 C1355 1.390 . S
C1350 H1341 0.930 . S
C1350 C1348 1.384 . S
C1350 C1351 1.372 . S
C1351 C1350 1.372 . S
C1351 C1352 1.400 . S
C1351 C1356 1.490 . S
C1352 H1342 0.930 . S
C1352 C1351 1.400 . S
C1352 C1355 1.386 . S
H1353 C1369 0.930 . S
H1354 C1370 0.931 . S
C1355 H1343 0.929 . S
C1355 C1349 1.390 . S
C1355 C1352 1.386 . S
C1356 C1351 1.490 . S
C1356 C1358 1.395 . S
C1356 C1359 1.403 . S
H1357 C1363 0.930 . S
C1358 H1344 0.930 . S
C1358 C1356 1.395 . S
C1358 C1361 1.403 . S
C1359 C1356 1.403 . S
C1359 C1360 1.524 . S
C1359 C1363 1.400 . S
C1360 H1345 0.960 . S
C1360 H1346 0.960 . S
C1360 H1347 0.960 . S
C1360 C1359 1.524 . S
C1361 C1358 1.403 . S
C1361 C1362 1.392 . S
C1361 C1365 1.495 . S
C1362 C1361 1.392 . S
C1362 C1363 1.385 . S
C1362 C1364 1.478 . S
C1363 H1357 0.930 . S
C1363 C1359 1.400 . S
C1363 C1362 1.385 . S
C1364 C1362 1.478 . S
C1364 C1366 1.381 . S
C1364 C1370 1.383 . S
C1365 C1361 1.495 . S
C1365 H1371 0.959 . S
C1365 H1372 0.961 . S
C1365 H1373 0.960 . S
C1366 C1364 1.381 . S
C1366 C1367 1.394 . S
C1366 H1374 0.930 . S
C1367 C1366 1.394 . S
C1367 C1368 1.383 . S
C1367 H1375 0.929 . S
C1368 C1367 1.383 . S
C1368 C1369 1.377 . S
C1369 H1353 0.930 . S
C1369 C1368 1.377 . S
C1369 C1370 1.379 . S
C1370 H1354 0.931 . S
C1370 C1364 1.383 . S
C1370 C1369 1.379 . S
H1371 C1365 0.959 . S
H1372 C1365 0.961 . S
H1373 C1365 0.960 . S
H1374 C1366 0.930 . S
H1375 C1367 0.929 . S
C233 C159 1.296 . S
C252 C5 1.295 . S
C269 C215 1.377 . S
C288 C23 1.373 . S
C305 C33 1.321 . S
C324 C135 1.328 . S
C341 C187 1.348 . S
C360 C51 1.333 . S
C377 C61 1.281 . S
C396 C191 1.271 . S
C413 C79 1.361 . S
C432 C163 1.344 . S
C449 C89 1.318 . S
C468 C219 1.325 . S
C485 C107 1.343 . S
C504 C131 1.344 . S
C521 C47 1.283 . S
C540 C117 1.286 . S
C557 C145 1.246 . S
C576 C19 1.253 . S
C593 C177 1.261 . S
C612 C75 1.278 . S
C629 C201 1.244 . S
C648 C103 1.238 . S
C665 C65 1.401 . S
C684 C121 1.413 . S
C701 C149 1.372 . S
C720 C93 1.365 . S
C737 C205 1.400 . S
C756 C37 1.406 . S
C773 C9 1.384 . S
C792 C173 1.394 . S
C809 C11 1.171 . S
C828 C67 1.158 . S
C845 C14 1.296 . S
C864 C70 1.296 . S
C881 C39 1.254 . S
C900 C95 1.251 . S
C917 C98 1.228 . S
C936 C42 1.219 . S
C953 C123 1.231 . S
C972 C168 1.225 . S
C989 C193 1.175 . S
C1008 C137 1.167 . S
C1025 C151 1.160 . S
C1044 C207 1.169 . S
C1061 C221 1.239 . S
C1080 C154 1.216 . S
C1097 C109 1.070 . S
C1116 C25 1.080 . S
C1133 C28 1.388 . S
C1152 C56 1.370 . S
C1169 C53 1.155 . S
C1188 C81 1.164 . S
C1205 C0 1.312 . S
C1224 C84 1.320 . S
C1241 C126 1.267 . S
C1260 C210 1.271 . S
C1277 C179 1.213 . S
C1296 C140 1.201 . S
C1313 C165 1.203 . S
C1332 C182 1.212 . S
C1349 C196 1.273 . S
C1368 C112 1.272 . S
