# Generated by pormake.
# Topology smm, (6)-cn, num edge types: 1
# Building blocks:
#     Node 0, Type 0, BuildingBlock: GEDQOX_clean_sbu_0, # of connection points: 6
#     Node 1, Type 0, BuildingBlock: GEDQOX_clean_sbu_0, # of connection points: 6
#     Node 2, Type 0, BuildingBlock: GEDQOX_clean_sbu_0, # of connection points: 6
#     Node 3, Type 0, BuildingBlock: GEDQOX_clean_sbu_0, # of connection points: 6
#     Node 4, Type 0, BuildingBlock: GEDQOX_clean_sbu_0, # of connection points: 6
#     Node 5, Type 0, BuildingBlock: GEDQOX_clean_sbu_0, # of connection points: 6
#     Node 6, Type 0, BuildingBlock: GEDQOX_clean_sbu_0, # of connection points: 6
#     Node 7, Type 0, BuildingBlock: GEDQOX_clean_sbu_0, # of connection points: 6
#     Node 8, Type 0, BuildingBlock: GEDQOX_clean_sbu_0, # of connection points: 6
#     Edge 9, Type (0, 0), BuildingBlock: TEMPAE_clean_linker_10, # of connection points: 2
#     Edge 10, Type (0, 0), BuildingBlock: TEMPAE_clean_linker_10, # of connection points: 2
#     Edge 11, Type (0, 0), BuildingBlock: TEMPAE_clean_linker_10, # of connection points: 2
#     Edge 12, Type (0, 0), BuildingBlock: TEMPAE_clean_linker_10, # of connection points: 2
#     Edge 13, Type (0, 0), BuildingBlock: TEMPAE_clean_linker_10, # of connection points: 2
#     Edge 14, Type (0, 0), BuildingBlock: TEMPAE_clean_linker_10, # of connection points: 2
#     Edge 15, Type (0, 0), BuildingBlock: TEMPAE_clean_linker_10, # of connection points: 2
#     Edge 16, Type (0, 0), BuildingBlock: TEMPAE_clean_linker_10, # of connection points: 2
#     Edge 17, Type (0, 0), BuildingBlock: TEMPAE_clean_linker_10, # of connection points: 2
#     Edge 18, Type (0, 0), BuildingBlock: TEMPAE_clean_linker_10, # of connection points: 2
#     Edge 19, Type (0, 0), BuildingBlock: TEMPAE_clean_linker_10, # of connection points: 2
#     Edge 20, Type (0, 0), BuildingBlock: TEMPAE_clean_linker_10, # of connection points: 2
#     Edge 21, Type (0, 0), BuildingBlock: TEMPAE_clean_linker_10, # of connection points: 2
#     Edge 22, Type (0, 0), BuildingBlock: TEMPAE_clean_linker_10, # of connection points: 2
#     Edge 23, Type (0, 0), BuildingBlock: TEMPAE_clean_linker_10, # of connection points: 2
#     Edge 24, Type (0, 0), BuildingBlock: TEMPAE_clean_linker_10, # of connection points: 2
#     Edge 25, Type (0, 0), BuildingBlock: TEMPAE_clean_linker_10, # of connection points: 2
#     Edge 26, Type (0, 0), BuildingBlock: TEMPAE_clean_linker_10, # of connection points: 2
#     Edge 27, Type (0, 0), BuildingBlock: TEMPAE_clean_linker_10, # of connection points: 2
#     Edge 28, Type (0, 0), BuildingBlock: TEMPAE_clean_linker_10, # of connection points: 2
#     Edge 29, Type (0, 0), BuildingBlock: TEMPAE_clean_linker_10, # of connection points: 2
#     Edge 30, Type (0, 0), BuildingBlock: TEMPAE_clean_linker_10, # of connection points: 2
#     Edge 31, Type (0, 0), BuildingBlock: TEMPAE_clean_linker_10, # of connection points: 2
#     Edge 32, Type (0, 0), BuildingBlock: TEMPAE_clean_linker_10, # of connection points: 2
#     Edge 33, Type (0, 0), BuildingBlock: TEMPAE_clean_linker_10, # of connection points: 2
#     Edge 34, Type (0, 0), BuildingBlock: TEMPAE_clean_linker_10, # of connection points: 2
#     Edge 35, Type (0, 0), BuildingBlock: TEMPAE_clean_linker_10, # of connection points: 2
# Relax obj value: 0.052
# Max RMSD: 0.132
# Mean RMSD: 0.132
data_MOF--net-smm--node1-GEDQOX_clean_sbu_0--edge1-TEMPAE_clean_linker_10
_symmetry_space_group_name_H-M    P1
_symmetry_Int_Tables_number       1
_symmetry_cell_setting            triclinic
loop_
_symmetry_equiv_pos_as_xyz
'x, y, z'
_cell_length_a     71.196724
_cell_length_b     71.080932
_cell_length_c     14.543624
_cell_angle_alpha  90.1056
_cell_angle_beta   89.967066
_cell_angle_gamma 119.99493
loop_
_atom_site_label
_atom_site_type_symbol
_atom_site_fract_x
_atom_site_fract_y
_atom_site_fract_z
_atom_type_partial_charge
Nd0 Nd 0.0723 0.23177 0.02913 0.0
Nd1 Nd 1.03119 0.18871 -0.01148 0.0
C2 C 0.10374 0.27157 0.07299 0.0
C3 C 0.11357 0.29361 0.03184 0.0
C4 C 0.10105 0.30042 -0.01747 0.0
C5 C 0.1108 0.32115 0.94232 0.0
C6 C 0.13333 0.33556 0.94997 0.0
C7 C 0.14575 0.32855 -0.0007 0.0
C8 C 0.13598 0.30787 0.03964 0.0
C9 C 0.06313 0.22225 0.84683 0.0
C10 C 1.02488 0.22942 0.03425 0.0
C11 C 1.00105 0.15076 0.91997 0.0
C12 C 0.99219 0.12704 0.93227 0.0
C13 C 0.98593 0.1134 0.85491 0.0
C14 C 0.97593 0.09078 0.8649 0.0
C15 C 0.97184 0.08117 0.95275 0.0
C16 C 0.97859 0.09497 0.03022 0.0
C17 C 0.98866 0.11761 0.02012 0.0
C18 C 0.03902 0.19697 0.17173 0.0
C19 C 0.07825 0.19011 0.01377 0.0
O20 O 0.08391 0.26295 0.1043 0.0
O21 O 0.10711 0.25748 0.02928 0.0
O22 O 0.08241 0.23101 0.88065 0.0
O23 O 0.04935 0.21946 0.90707 0.0
O24 O 0.04472 0.23838 0.06837 0.0
O25 O 1.01691 0.21154 -0.01628 0.0
O26 O 1.0204 0.16218 0.884 0.0
O27 O 0.99753 0.16106 -0.01376 0.0
O28 O 1.01981 0.18545 0.13725 0.0
O29 O 0.05352 0.20135 0.11251 0.0
O30 O 0.0591 0.18087 0.97232 0.0
O31 O 0.08547 0.20871 0.05856 0.0
H32 H 0.08373 0.28972 0.97491 0.0
H33 H 0.10059 0.32596 0.90612 0.0
H34 H 0.16314 0.33893 0.00571 0.0
H35 H 0.14602 0.30293 0.07655 0.0
H36 H 0.98847 0.12023 0.78643 0.0
H37 H 0.9714 0.08082 0.80349 0.0
H38 H 0.9756 0.08829 0.09899 0.0
H39 H 0.9933 0.1277 0.08118 0.0
Nd40 Nd 0.85939 0.86742 0.02546 0.0
Nd41 Nd 0.90515 0.87397 -0.00711 0.0
C42 C 0.81764 0.85275 0.05892 0.0
C43 C 0.79733 0.85002 0.01849 0.0
C44 C 0.77865 0.8415 0.07331 0.0
C45 C 0.75819 0.83409 0.0336 0.0
C46 C 0.75587 0.835 0.93771 0.0
C47 C 0.77484 0.84464 0.88347 0.0
C48 C 0.79533 0.85199 0.92337 0.0
C49 C 0.87267 0.87361 0.84597 0.0
C50 C 0.86694 0.82561 0.05268 0.0
C51 C 0.9422 0.87726 0.93745 0.0
C52 C 0.96586 0.89217 0.94545 0.0
C53 C 0.98014 0.88555 0.91231 0.0
C54 C 1.00262 0.89907 0.92123 0.0
C55 C 1.0114 0.9196 0.96362 0.0
C56 C 0.99694 0.92619 -0.00331 0.0
C57 C 0.9744 0.91261 -0.0123 0.0
C58 C 0.89819 0.88362 0.16814 0.0
C59 C 0.89885 0.91641 0.00287 0.0
O60 O 0.83293 0.87204 0.08601 0.0
O61 O 0.82528 0.84151 0.01896 0.0
O62 O 0.86121 0.88115 0.88205 0.0
O63 O 0.87582 0.86205 0.90234 0.0
O64 O 0.85565 0.83505 0.07513 0.0
O65 O 0.88586 0.83656 0.01038 0.0
O66 O 0.93115 0.88384 0.88821 0.0
O67 O 0.93209 0.8672 0.01267 0.0
O68 O 0.91667 0.89414 0.12608 0.0
O69 O 0.88471 0.86806 0.11963 0.0
O70 O 0.90886 0.9074 0.9601 0.0
O71 O 0.88063 0.9044 0.04956 0.0
H72 H 0.77973 0.83944 0.14657 0.0
H73 H 0.74409 0.82656 0.07785 0.0
H74 H 0.77384 0.84599 0.80972 0.0
H75 H 0.80948 0.85828 0.87941 0.0
H76 H 0.97389 0.86978 0.88007 0.0
H77 H 1.01311 0.89322 0.89624 0.0
H78 H 1.00304 0.94194 0.0288 0.0
H79 H 0.96364 0.91802 0.01394 0.0
Nd80 Nd 0.22328 1.01914 0.03961 0.0
Nd81 Nd 0.22102 0.06019 0.00165 0.0
C82 C 0.23203 0.98825 0.08769 0.0
C83 C 0.24283 0.9772 0.0444 0.0
C84 C 0.25471 0.97054 0.09877 0.0
C85 C 0.26483 0.95988 0.05916 0.0
C86 C 0.26327 0.95553 0.96395 0.0
C87 C 0.2514 0.96237 0.90961 0.0
C88 C 0.24137 0.97312 0.94927 0.0
C89 C 0.224 0.02848 0.85677 0.0
C90 C 0.26795 0.06686 0.04659 0.0
C91 C 0.21289 0.09066 0.94021 0.0
C92 C 0.19718 0.09854 0.95107 0.0
C93 C 0.18862 0.10303 0.87265 0.0
C94 C 0.1751 0.11206 0.88075 0.0
C95 C 0.16983 0.11694 0.96768 0.0
C96 C 0.17809 0.11198 0.04631 0.0
C97 C 0.19157 0.10288 0.03815 0.0
C98 C 0.22203 0.05167 0.18342 0.0
C99 C 0.17547 1.01279 0.02193 0.0
O100 O 0.24438 1.00868 0.10994 0.0
O101 O 0.21359 0.98435 0.052 0.0
O102 O 0.21512 1.00905 0.88938 0.0
O103 O 0.23384 0.04243 0.91831 0.0
O104 O 0.25699 0.04715 0.08219 0.0
O105 O 0.25809 0.07458 -0.0055 0.0
O106 O 0.20628 0.07213 0.89797 0.0
O107 O 0.22564 0.09337 0.00967 0.0
O108 O 0.23133 0.0711 0.14985 0.0
O109 O 0.21118 0.0375 0.12389 0.0
O110 O 0.18533 0.03242 -0.0152 0.0
O111 O 0.18676 1.00511 0.06347 0.0
H112 H 0.2562 0.97362 0.17215 0.0
H113 H 0.27413 0.9553 0.10324 0.0
H114 H 0.24958 0.95917 0.83639 0.0
H115 H 0.23238 0.97816 0.90548 0.0
H116 H 0.19266 0.09986 0.80471 0.0
H117 H 0.16879 0.11523 0.81859 0.0
H118 H 0.17465 0.11566 0.1144 0.0
H119 H 0.1979 0.09964 0.10007 0.0
Nd120 Nd 0.73946 0.56619 0.35193 0.0
Nd121 Nd 0.69898 0.52282 0.31103 0.0
C122 C 0.77005 0.60575 0.40362 0.0
C123 C 0.78051 0.62801 0.36476 0.0
C124 C 0.76962 0.6342 0.3018 0.0
C125 C 0.77994 0.65524 0.2646 0.0
C126 C 0.80145 0.6706 0.28906 0.0
C127 C 0.81228 0.6642 0.35186 0.0
C128 C 0.80192 0.64319 0.38915 0.0
C129 C 0.73035 0.55818 0.1683 0.0
C130 C 0.69143 0.56238 0.3583 0.0
C131 C 0.66871 0.48434 0.24748 0.0
C132 C 0.6605 0.46073 0.25949 0.0
C133 C 0.6556 0.44736 0.18172 0.0
C134 C 0.64625 0.4248 0.19097 0.0
C135 C 0.64144 0.41497 0.27844 0.0
C136 C 0.64681 0.42851 0.35641 0.0
C137 C 0.65624 0.45109 0.34709 0.0
C138 C 0.70728 0.53165 0.49379 0.0
C139 C 0.74648 0.52504 0.32988 0.0
O140 O 0.74971 0.59697 0.42825 0.0
O141 O 0.77416 0.59194 0.36185 0.0
O142 O 0.7497 0.56878 0.20149 0.0
O143 O 0.71635 0.55369 0.22981 0.0
O144 O 0.711 0.57122 0.39528 0.0
O145 O 0.68437 0.54528 0.30344 0.0
O146 O 0.68756 0.496 0.20772 0.0
O147 O 0.66566 0.49459 0.31537 0.0
O148 O 0.68794 0.52154 0.45956 0.0
O149 O 0.72153 0.53538 0.43419 0.0
O150 O 0.72697 0.51533 0.29174 0.0
O151 O 0.75385 0.54381 0.37336 0.0
H152 H 0.75313 0.62275 0.28138 0.0
H153 H 0.77092 0.65954 0.21754 0.0
H154 H 0.82891 0.67533 0.37144 0.0
H155 H 0.81072 0.63874 0.43689 0.0
H156 H 0.65872 0.45436 0.11343 0.0
H157 H 0.64278 0.41504 0.1293 0.0
H158 H 0.64321 0.42162 0.42486 0.0
H159 H 0.65981 0.46095 0.4085 0.0
Nd160 Nd 0.52835 0.20204 0.34053 0.0
Nd161 Nd 0.57222 0.20565 0.29945 0.0
C162 C 0.48847 0.19269 0.388 0.0
C163 C 0.46612 0.17972 0.351 0.0
C164 C 0.45085 0.18623 0.36933 0.0
C165 C 0.42981 0.17466 0.33298 0.0
C166 C 0.42343 0.1562 0.27717 0.0
C167 C 0.43885 0.14972 0.25897 0.0
C168 C 0.45995 0.16136 0.29529 0.0
C169 C 0.53797 0.20288 0.15815 0.0
C170 C 0.53266 0.15783 0.34142 0.0
C171 C 0.61059 0.21505 0.23107 0.0
C172 C 0.63409 0.23075 0.24378 0.0
C173 C 0.64726 0.24053 0.16666 0.0
C174 C 0.66975 0.25405 0.17624 0.0
C175 C 0.67972 0.25808 0.26338 0.0
C176 C 0.66637 0.2486 0.34082 0.0
C177 C 0.64386 0.23515 0.33119 0.0
C178 C 0.56376 0.20485 0.48277 0.0
C179 C 0.56905 0.25032 0.32474 0.0
O180 O 0.49783 0.18214 0.41904 0.0
O181 O 0.50177 0.20988 0.34095 0.0
O182 O 0.52843 0.21267 0.19221 0.0
O183 O 0.54135 0.19224 0.21812 0.0
O184 O 0.52266 0.16783 0.37473 0.0
O185 O 0.55077 0.16849 0.29326 0.0
O186 O 0.5985 0.22221 0.19501 0.0
O187 O 0.60071 0.20099 0.29685 0.0
O188 O 0.57585 0.19781 0.44829 0.0
O189 O 0.55891 0.21459 0.42352 0.0
O190 O 0.57874 0.24088 0.28307 0.0
O191 O 0.55059 0.23854 0.36959 0.0
H192 H 0.45528 0.20045 0.41138 0.0
H193 H 0.41863 0.18043 0.34754 0.0
H194 H 0.43458 0.13548 0.21738 0.0
H195 H 0.47145 0.15605 0.27965 0.0
H196 H 0.64017 0.23744 0.09851 0.0
H197 H 0.67934 0.26133 0.11509 0.0
H198 H 0.67335 0.25107 0.40894 0.0
H199 H 0.63418 0.22786 0.39214 0.0
Nd200 Nd 0.8919 0.35557 0.34332 0.0
Nd201 Nd 0.88969 0.39649 0.30433 0.0
C202 C 0.90083 0.32477 0.39128 0.0
C203 C 0.91316 0.315 0.35082 0.0
C204 C 0.90719 0.29344 0.37145 0.0
C205 C 0.91843 0.28381 0.33278 0.0
C206 C 0.93599 0.29551 0.27236 0.0
C207 C 0.94185 0.31715 0.25162 0.0
C208 C 0.93055 0.32675 0.29017 0.0
C209 C 0.89373 0.36534 0.16022 0.0
C210 C 0.93623 0.4033 0.35667 0.0
C211 C 0.88247 0.42743 0.24051 0.0
C212 C 0.86739 0.43601 0.24968 0.0
C213 C 0.84658 0.42363 0.28777 0.0
C214 C 0.83294 0.43256 0.2974 0.0
C215 C 0.83983 0.45404 0.26912 0.0
C216 C 0.86075 0.46626 0.23111 0.0
C217 C 0.8743 0.45735 0.22157 0.0
C218 C 0.88959 0.38774 0.48671 0.0
C219 C 0.84412 0.34905 0.32116 0.0
O220 O 0.91201 0.3449 0.41957 0.0
O221 O 0.88311 0.32081 0.34844 0.0
O222 O 0.88444 0.34587 0.19242 0.0
O223 O 0.90324 0.37917 0.22259 0.0
O224 O 0.92504 0.38354 0.39132 0.0
O225 O 0.9268 0.41087 0.30116 0.0
O226 O 0.87531 0.40858 0.20031 0.0
O227 O 0.89478 0.42995 0.31131 0.0
O228 O 0.899 0.40718 0.45335 0.0
O229 O 0.87916 0.37358 0.42639 0.0
O230 O 0.85416 0.36865 0.28363 0.0
O231 O 0.85526 0.34145 0.36471 0.0
H232 H 0.89372 0.28398 0.41733 0.0
H233 H 0.91312 0.26704 0.34944 0.0
H234 H 0.9554 0.32684 0.20648 0.0
H235 H 0.93542 0.34338 0.27263 0.0
H236 H 0.8409 0.40713 0.31022 0.0
H237 H 0.8169 0.42254 0.32613 0.0
H238 H 0.86685 0.48292 0.20999 0.0
H239 H 0.89035 0.46726 0.19266 0.0
Nd240 Nd 0.40107 0.89896 0.68011 0.0
Nd241 Nd 0.36246 0.85277 0.64924 0.0
C242 C 0.42768 0.94117 0.70745 0.0
C243 C 0.44294 0.9612 0.65631 0.0
C244 C 0.46189 0.97733 0.69889 0.0
C245 C 0.47434 0.99785 0.658 0.0
C246 C 0.46796 1.0029 0.57392 0.0
C247 C 0.44943 0.98629 0.52977 0.0
C248 C 0.43722 0.96575 0.56996 0.0
C249 C 0.39353 0.88546 0.50071 0.0
C250 C 0.35158 0.8902 0.71394 0.0
C251 C 0.32937 0.8151 0.59435 0.0
C252 C 0.32149 0.79155 0.60295 0.0
C253 C 0.30445 0.77678 0.5468 0.0
C254 C 0.2961 0.75436 0.55624 0.0
C255 C 0.30459 0.74614 0.6223 0.0
C256 C 0.32187 0.76109 0.678 0.0
C257 C 0.33025 0.78355 0.66834 0.0
C258 C 0.3795 0.85996 0.82366 0.0
C259 C 0.4116 0.8603 0.65947 0.0
O260 O 0.40732 0.93248 0.68399 0.0
O261 O 0.43326 0.92659 0.72667 0.0
O262 O 0.41254 0.89727 0.53567 0.0
O263 O 0.37894 0.88207 0.55807 0.0
O264 O 0.37234 0.90174 0.73524 0.0
O265 O 0.34379 0.87144 0.66992 0.0
O266 O 0.34677 0.82657 0.54434 0.0
O267 O 0.32916 0.82518 0.66945 0.0
O268 O 0.37163 0.84149 0.7813 0.0
O269 O 0.37713 0.87334 0.77585 0.0
O270 O 0.39268 0.84999 0.61607 0.0
O271 O 0.41739 0.87845 0.70634 0.0
H272 H 0.46666 0.97433 0.76552 0.0
H273 H 0.48873 1.00988 0.69351 0.0
H274 H 0.44364 0.98935 0.4659 0.0
H275 H 0.42267 0.95372 0.53514 0.0
H276 H 0.29738 0.78258 0.4962 0.0
H277 H 0.28264 0.74343 0.51294 0.0
H278 H 0.32904 0.75544 0.72876 0.0
H279 H 0.34345 0.79467 0.71233 0.0
Nd280 Nd 0.19334 0.53256 0.68558 0.0
Nd281 Nd 0.23829 0.537 0.66 0.0
C282 C 0.15563 0.53084 0.71096 0.0
C283 C 0.13339 0.51766 0.67236 0.0
C284 C 0.11517 0.51061 0.72928 0.0
C285 C 0.09411 0.49875 0.69285 0.0
C286 C 0.09071 0.4937 0.59825 0.0
C287 C 0.10909 0.50069 0.54165 0.0
C288 C 0.13011 0.51241 0.57821 0.0
C289 C 0.20072 0.52133 0.51405 0.0
C290 C 0.19723 0.48947 0.70342 0.0
C291 C 0.27749 0.54522 0.60583 0.0
C292 C 0.30105 0.56152 0.61248 0.0
C293 C 0.31376 0.56839 0.53242 0.0
C294 C 0.33639 0.58172 0.53767 0.0
C295 C 0.34699 0.58845 0.62335 0.0
C296 C 0.33411 0.58199 0.70342 0.0
C297 C 0.31148 0.56874 0.69809 0.0
C298 C 0.22484 0.53175 0.83811 0.0
C299 C 0.23629 0.58204 0.68025 0.0
O300 O 0.16266 0.52095 0.76521 0.0
O301 O 0.17058 0.54432 0.65422 0.0
O302 O 0.18243 0.51104 0.55664 0.0
O303 O 0.21417 0.53718 0.56116 0.0
O304 O 0.18814 0.5001 0.73923 0.0
O305 O 0.21472 0.49965 0.65018 0.0
O306 O 0.26501 0.54969 0.55542 0.0
O307 O 0.26783 0.53465 0.68044 0.0
O308 O 0.23637 0.52399 0.80404 0.0
O309 O 0.22196 0.54342 0.78082 0.0
O310 O 0.24878 0.57321 0.67406 0.0
O311 O 0.2149 0.56999 0.6867 0.0
H312 H 0.11721 0.51434 0.8021 0.0
H313 H 0.08048 0.49338 0.73924 0.0
H314 H 0.10731 0.49746 0.46847 0.0
H315 H 0.14381 0.51755 0.53236 0.0
H316 H 0.30622 0.56304 0.46554 0.0
H317 H 0.34559 0.58663 0.47429 0.0
H318 H 0.34154 0.58658 0.77075 0.0
H319 H 0.30223 0.56369 0.76134 0.0
Nd320 Nd 0.56132 0.6929 0.67218 0.0
Nd321 Nd 0.55328 0.73125 0.63931 0.0
C322 C 0.57778 0.66718 0.70338 0.0
C323 C 0.58164 0.65031 0.662 0.0
C324 C 0.5891 0.63937 0.71812 0.0
C325 C 0.59755 0.62705 0.67938 0.0
C326 C 0.59882 0.6254 0.5832 0.0
C327 C 0.59026 0.63551 0.52721 0.0
C328 C 0.58182 0.64785 0.56612 0.0
C329 C 0.55467 0.69957 0.49266 0.0
C330 C 0.60182 0.74286 0.70063 0.0
C331 C 0.5494 0.76472 0.58424 0.0
C332 C 0.5349 0.77394 0.59312 0.0
C333 C 0.51322 0.76129 0.62137 0.0
C334 C 0.5 0.77068 0.63052 0.0
C335 C 0.50821 0.79291 0.61172 0.0
C336 C 0.53 0.80544 0.58383 0.0
C337 C 0.54314 0.79605 0.57467 0.0
C338 C 0.54423 0.71486 0.81485 0.0
C339 C 0.51183 0.68195 0.65094 0.0
O340 O 0.55823 0.66221 0.73064 0.0
O341 O 0.58829 0.68627 0.66468 0.0
O342 O 0.54759 0.68066 0.52884 0.0
O343 O 0.56597 0.71444 0.54902 0.0
O344 O 0.59273 0.72231 0.7258 0.0
O345 O 0.59065 0.75003 0.65457 0.0
O346 O 0.54238 0.74679 0.53621 0.0
O347 O 0.56 0.76503 0.65828 0.0
O348 O 0.53335 0.72245 0.77304 0.0
O349 O 0.55986 0.71729 0.76613 0.0
O350 O 0.52028 0.70087 0.60751 0.0
O351 O 0.52432 0.67624 0.69714 0.0
H352 H 0.5895 0.64131 0.79214 0.0
H353 H 0.60414 0.61979 0.72503 0.0
H354 H 0.59058 0.63436 0.45304 0.0
H355 H 0.57636 0.65629 0.52116 0.0
H356 H 0.50653 0.74419 0.63633 0.0
H357 H 0.48327 0.76044 0.65124 0.0
H358 H 0.53706 0.82263 0.57024 0.0
H359 H 0.55987 0.80616 0.55351 0.0
C360 C 0.1606 0.37582 0.95287 0.0
C361 C 0.14379 0.35778 0.90734 0.0
C362 C 0.17019 0.39684 0.91492 0.0
C363 C 0.16283 0.40014 0.82914 0.0
C364 C 0.14616 0.382 0.78198 0.0
C365 C 0.13689 0.36113 0.82141 0.0
C366 C 0.18782 0.41566 0.96802 0.0
C367 C 0.13775 0.3847 0.69059 0.0
C368 C 0.16967 0.45615 0.78674 0.0
C369 C 0.1881 0.46617 0.72984 0.0
C370 C 0.16127 0.43475 0.81827 0.0
C371 C 0.17139 0.42274 0.79254 0.0
C372 C 0.18979 0.43253 0.73387 0.0
C373 C 0.19793 0.45412 0.7033 0.0
C374 C 0.14167 0.42511 0.8806 0.0
C375 C 0.20107 0.42032 0.70467 0.0
H376 H 0.16595 0.37362 0.01969 0.0
H377 H 0.12422 0.34737 0.78454 0.0
H378 H 0.20229 0.42496 0.92385 0.0
H379 H 0.18208 0.42694 -0.01081 0.0
H380 H 0.19277 0.41027 0.03054 0.0
H381 H 0.12563 0.36889 0.66004 0.0
H382 H 0.13009 0.39486 0.6995 0.0
H383 H 0.15136 0.39325 0.64145 0.0
H384 H 0.16182 0.46515 0.80808 0.0
H385 H 0.21218 0.46162 0.65974 0.0
H386 H 0.14591 0.42096 0.94804 0.0
H387 H 0.12851 0.40984 0.8504 0.0
H388 H 0.13535 0.43638 0.89257 0.0
H389 H 0.20756 0.41621 0.76602 0.0
H390 H 0.21466 0.42984 0.65631 0.0
H391 H 0.18934 0.40479 0.67114 0.0
C392 C 0.72949 0.81272 0.81206 0.0
C393 C 0.73371 0.8245 0.89461 0.0
C394 C 0.70839 0.80104 0.77523 0.0
C395 C 0.69085 0.80089 0.82207 0.0
C396 C 0.69506 0.81332 0.90365 0.0
C397 C 0.71636 0.82498 0.93861 0.0
C398 C 0.70473 0.78811 0.68801 0.0
C399 C 0.67692 0.81365 0.95607 0.0
C400 C 0.63622 0.7796 0.69914 0.0
C401 C 0.62462 0.75804 0.73045 0.0
C402 C 0.65777 0.79375 0.72796 0.0
C403 C 0.66795 0.78628 0.79023 0.0
C404 C 0.65625 0.7646 0.82234 0.0
C405 C 0.63489 0.75082 0.79197 0.0
C406 C 0.66969 0.81667 0.69147 0.0
C407 C 0.66627 0.7559 0.88923 0.0
H408 H 0.74256 0.81187 0.77773 0.0
H409 H 0.71936 0.83428 0.00143 0.0
H410 H 0.6952 0.7705 0.70371 0.0
H411 H 0.6952 0.79173 0.63809 0.0
H412 H 0.72021 0.79154 0.65505 0.0
H413 H 0.68301 0.82529 0.0145 0.0
H414 H 0.66736 0.81804 0.90965 0.0
H415 H 0.66572 0.79719 -0.01659 0.0
H416 H 0.62853 0.78539 0.65164 0.0
H417 H 0.62618 0.73428 0.81734 0.0
H418 H 0.68457 0.81956 0.65483 0.0
H419 H 0.67489 0.82841 0.7493 0.0
H420 H 0.65958 0.82004 0.64361 0.0
H421 H 0.68103 0.75693 0.85865 0.0
H422 H 0.65495 0.73875 0.90857 0.0
H423 H 0.67134 0.76594 0.95269 0.0
C424 C 0.28412 0.95031 0.83495 0.0
C425 C 0.27415 0.94414 0.92171 0.0
C426 C 0.29512 0.94033 0.79625 0.0
C427 C 0.29643 0.92383 0.8454 0.0
C428 C 0.286 0.91716 0.93192 0.0
C429 C 0.27498 0.9273 0.96873 0.0
C430 C 0.30597 0.94799 0.70388 0.0
C431 C 0.28702 0.89971 -0.01298 0.0
C432 C 0.31495 0.88806 0.72238 0.0
C433 C 0.33704 0.89845 0.74582 0.0
C434 C 0.30151 0.89612 0.75369 0.0
C435 C 0.31028 0.91493 0.81027 0.0
C436 C 0.33252 0.9254 0.83413 0.0
C437 C 0.34554 0.91712 0.80162 0.0
C438 C 0.27792 0.88454 0.72621 0.0
C439 C 0.34263 0.94538 0.89461 0.0
H440 H 0.28388 0.96342 0.7981 0.0
H441 H 0.26702 0.92202 0.03482 0.0
H442 H 0.32383 0.95615 0.71238 0.0
H443 H 0.30113 0.93395 0.65717 0.0
H444 H 0.30188 0.95956 0.6707 0.0
H445 H 0.27698 0.8954 0.05036 0.0
H446 H 0.28141 0.88484 0.9447 0.0
H447 H 0.30405 0.90534 0.00708 0.0
H448 H 0.30817 0.87367 0.67939 0.0
H449 H 0.36252 0.92535 0.82083 0.0
H450 H 0.27415 0.89589 0.68917 0.0
H451 H 0.26753 0.87899 0.78845 0.0
H452 H 0.27357 0.87026 0.68141 0.0
H453 H 0.34077 0.95848 0.8623 0.0
H454 H 0.36016 0.9516 0.90715 0.0
H455 H 0.33417 0.94165 0.96189 0.0
C456 C 0.3971 0.13512 0.14903 0.0
C457 C 0.40085 0.14382 0.23845 0.0
C458 C 0.37595 0.12331 0.11241 0.0
C459 C 0.35794 0.12006 0.16606 0.0
C460 C 0.36161 0.129 0.25589 0.0
C461 C 0.38289 0.14067 0.29089 0.0
C462 C 0.37287 0.11406 0.01651 0.0
C463 C 0.34295 0.12591 0.31585 0.0
C464 C 0.3031 0.10288 0.05192 0.0
C465 C 0.29142 0.08052 0.07091 0.0
C466 C 0.32481 0.11591 0.08126 0.0
C467 C 0.33521 0.10641 0.13038 0.0
C468 C 0.32362 0.08379 0.14783 0.0
C469 C 0.30199 0.07121 0.11827 0.0
C470 C 0.33649 0.13996 0.06145 0.0
C471 C 0.33396 0.07286 0.19931 0.0
H472 H 0.41075 0.13768 0.10704 0.0
H473 H 0.38541 0.14697 0.36041 0.0
H474 H 0.36289 0.09608 0.01913 0.0
H475 H 0.36397 0.11993 0.97359 0.0
H476 H 0.38852 0.11854 -0.01754 0.0
H477 H 0.34852 0.1347 0.38237 0.0
H478 H 0.33312 0.13172 0.2795 0.0
H479 H 0.33215 0.10838 0.33024 0.0
H480 H 0.29515 0.1103 0.01588 0.0
H481 H 0.29326 0.05398 0.1333 0.0
H482 H 0.35186 0.14478 0.02437 0.0
H483 H 0.3408 0.14918 0.12705 0.0
H484 H 0.32653 0.14477 0.01963 0.0
H485 H 0.34918 0.07611 0.16466 0.0
H486 H 0.32308 0.055 0.20433 0.0
H487 H 0.33832 0.07963 0.26989 0.0
C488 C 0.95588 0.28961 0.14087 0.0
C489 C 0.94818 0.28524 0.23187 0.0
C490 C 0.96767 0.28038 0.10284 0.0
C491 C 0.9719 0.26629 0.15661 0.0
C492 C 0.96395 0.26157 0.24798 0.0
C493 C 0.9523 0.2711 0.28439 0.0
C494 C 0.97584 0.28592 0.0053 0.0
C495 C 0.96808 0.24671 0.30809 0.0
C496 C 0.98881 0.22829 0.04281 0.0
C497 C 1.0113 0.23936 0.05826 0.0
C498 C 0.97582 0.23697 0.0729 0.0
C499 C 0.9855 0.25729 0.11919 0.0
C500 C 1.00826 0.26877 0.13259 0.0
C501 C 1.02079 0.25969 0.10233 0.0
C502 C 0.95165 0.22413 0.05725 0.0
C503 C 1.01938 0.29052 0.1808 0.0
H504 H 0.95257 0.30018 0.0988 0.0
H505 H 0.94679 0.26778 0.35507 0.0
H506 H 0.99382 0.29425 0.00468 0.0
H507 H 0.96982 0.27085 0.96401 0.0
H508 H 0.97068 0.29661 0.9715 0.0
H509 H 0.95996 0.24383 0.37603 0.0
H510 H 0.96224 0.23084 0.27336 0.0
H511 H 0.98576 0.25389 0.31949 0.0
H512 H 0.98124 0.21256 0.00926 0.0
H513 H 0.03814 0.26853 0.11442 0.0
H514 H 0.94617 0.23424 0.0208 0.0
H515 H 0.94313 0.21951 0.12441 0.0
H516 H 0.94669 0.20913 0.01655 0.0
H517 H 1.01541 0.30197 0.14603 0.0
H518 H 1.0373 0.29784 0.18233 0.0
H519 H 1.01343 0.28862 0.25259 0.0
C520 C 0.87012 0.79177 0.06899 0.0
C521 C 0.8582 0.80247 0.08103 0.0
C522 C 0.86193 0.77016 0.09929 0.0
C523 C 0.84132 0.75893 0.14259 0.0
C524 C 0.82917 0.76959 0.15381 0.0
C525 C 0.83771 0.79108 0.12311 0.0
C526 C 0.87543 0.75944 0.08596 0.0
C527 C 0.80714 0.75835 0.19925 0.0
C528 C 0.80914 0.69691 0.15808 0.0
C529 C 0.81247 0.69319 0.25001 0.0
C530 C 0.81889 0.71809 0.12152 0.0
C531 C 0.83243 0.73617 0.17782 0.0
C532 C 0.83623 0.73253 0.27 0.0
C533 C 0.82622 0.7112 0.30489 0.0
C534 C 0.81433 0.72114 0.02298 0.0
C535 C 0.85046 0.75126 0.33277 0.0
H536 H 0.88595 0.80032 0.0368 0.0
H537 H 0.82821 0.799 0.13282 0.0
H538 H 0.8793 0.75507 0.15376 0.0
H539 H 0.86613 0.74413 0.0464 0.0
H540 H 0.89085 0.77009 0.0492 0.0
H541 H 0.79956 0.76873 0.20142 0.0
H542 H 0.79613 0.74314 0.16182 0.0
H543 H 0.80862 0.75378 0.27067 0.0
H544 H 0.79891 0.68321 0.11427 0.0
H545 H 0.82877 0.70871 0.37622 0.0
H546 H 0.82977 0.73078 -0.015 0.0
H547 H 0.80558 0.73038 0.02091 0.0
H548 H 0.8044 0.70543 -0.01329 0.0
H549 H 0.86649 0.76171 0.30031 0.0
H550 H 0.853 0.74571 0.40058 0.0
H551 H 0.84294 0.76149 0.34424 0.0
C552 C 0.05145 0.4845 0.59191 0.0
C553 C 0.06818 0.48126 0.55875 0.0
C554 C 1.0302 0.47271 0.55642 0.0
C555 C 1.0254 0.45732 0.48517 0.0
C556 C 0.04224 0.4542 0.45031 0.0
C557 C 0.06329 0.46606 0.4876 0.0
C558 C 1.01278 0.47651 0.59619 0.0
C559 C 1.03793 0.43797 0.37456 0.0
C560 C 0.96724 0.41054 0.46058 0.0
C561 C 0.95924 0.41727 0.38686 0.0
C562 C 0.98856 0.42343 0.49317 0.0
C563 C 1.00256 0.44362 0.45081 0.0
C564 C 0.99468 0.45053 0.37609 0.0
C565 C 0.9731 0.43736 0.34536 0.0
C566 C 0.99604 0.41543 0.57364 0.0
C567 C 1.00906 0.47187 0.32858 0.0
H568 H 0.05495 0.49641 0.64553 0.0
H569 H 0.07585 0.46306 0.46198 0.0
H570 H 1.00517 0.48116 0.54088 0.0
H571 H 0.99982 0.46128 0.62732 0.0
H572 H 1.01919 0.48943 0.64961 0.0
H573 H 0.05296 0.43835 0.35107 0.0
H574 H 1.02636 0.42134 0.3991 0.0
H575 H 1.03032 0.44127 0.31482 0.0
H576 H 0.95672 0.39519 0.49419 0.0
H577 H 0.96713 0.44277 0.28863 0.0
H578 H 1.00134 0.42738 0.63076 0.0
H579 H 1.01021 0.41386 0.5533 0.0
H580 H 0.98311 0.39947 0.59962 0.0
H581 H 1.01469 0.48541 0.37869 0.0
H582 H 1.00064 0.4749 0.27117 0.0
H583 H 1.0237 0.47207 0.30103 0.0
C584 C 0.60869 0.59573 0.58212 0.0
C585 C 0.61033 0.6145 0.54212 0.0
C586 C 0.62079 0.5864 0.5485 0.0
C587 C 0.63494 0.59595 0.47265 0.0
C588 C 0.63622 0.6145 0.4303 0.0
C589 C 0.62399 0.62353 0.46544 0.0
C590 C 0.61883 0.56662 0.59583 0.0
C591 C 0.65109 0.62529 0.34953 0.0
C592 C 0.68374 0.58753 0.45187 0.0
C593 C 0.67701 0.57125 0.38427 0.0
C594 C 0.67025 0.59562 0.48089 0.0
C595 C 0.64941 0.5874 0.44138 0.0
C596 C 0.64253 0.57108 0.37259 0.0
C597 C 0.65635 0.56317 0.34509 0.0
C598 C 0.67831 0.6129 0.5547 0.0
C599 C 0.62049 0.56189 0.32837 0.0
H600 H 0.59801 0.58836 0.64041 0.0
H601 H 0.62575 0.63818 0.43451 0.0
H602 H 0.6147 0.55344 0.54507 0.0
H603 H 0.63464 0.57065 0.62701 0.0
H604 H 0.6063 0.56043 0.65069 0.0
H605 H 0.64914 0.63863 0.32015 0.0
H606 H 0.6682 0.63209 0.37148 0.0
H607 H 0.64792 0.61319 0.29468 0.0
H608 H 0.69956 0.59387 0.48339 0.0
H609 H 0.65091 0.55058 0.29308 0.0
H610 H 0.66725 0.60693 0.61482 0.0
H611 H 0.67832 0.62756 0.5286 0.0
H612 H 0.69495 0.61768 0.57827 0.0
H613 H 0.60765 0.55435 0.3815 0.0
H614 H 0.6176 0.54948 0.27519 0.0
H615 H 0.61887 0.57512 0.296 0.0
C616 C 0.50185 0.12151 0.3888 0.0
C617 C 0.52373 0.13443 0.36383 0.0
C618 C 0.49343 0.0999 0.41801 0.0
C619 C 0.50727 0.09096 0.42457 0.0
C620 C 0.52931 0.10381 0.39809 0.0
C621 C 0.53721 0.12529 0.36719 0.0
C622 C 0.46974 0.08674 0.44349 0.0
C623 C 0.54475 0.09514 0.40549 0.0
C624 C 0.48882 0.04382 0.59337 0.0
C625 C 0.47967 1.02557 0.53497 0.0
C626 C 0.49849 0.06511 0.55822 0.0
C627 C 0.49874 0.06847 0.4621 0.0
C628 C 0.48991 0.05023 0.40254 0.0
C629 C 0.48076 0.02913 0.43942 0.0
C630 C 0.50799 0.08404 0.62442 0.0
C631 C 0.48957 0.05297 0.29975 0.0
H632 H 0.49126 0.12837 0.38606 0.0
H633 H 0.55418 0.13519 0.349 0.0
H634 H 0.46188 0.07118 0.40489 0.0
H635 H 0.46813 0.0827 0.51776 0.0
H636 H 0.46083 0.09554 0.42905 0.0
H637 H 0.56117 0.10681 0.379 0.0
H638 H 0.54622 0.09155 0.47851 0.0
H639 H 0.53836 0.07968 0.36676 0.0
H640 H 0.48788 0.04155 0.66718 0.0
H641 H 0.47427 1.01538 0.3929 0.0
H642 H 0.49837 0.0924 0.62225 0.0
H643 H 0.52482 0.09606 0.60399 0.0
H644 H 0.50818 0.07888 0.69632 0.0
H645 H 0.47978 0.06071 0.28306 0.0
H646 H 0.48266 0.03725 0.26242 0.0
H647 H 0.50623 0.0639 0.27397 0.0
C648 C 0.14091 0.12185 0.04717 0.0
C649 C 0.15621 0.12756 0.9761 0.0
C650 C 0.1282 0.13188 0.05609 0.0
C651 C 0.13067 0.14802 -0.0077 0.0
C652 C 0.14604 0.15386 0.92044 0.0
C653 C 0.1586 0.14366 0.9134 0.0
C654 C 0.11202 0.12511 0.1337 0.0
C655 C 0.14925 0.17094 0.8508 0.0
C656 C 0.0843 0.15987 0.95993 0.0
C657 C 0.09151 0.17915 0.01046 0.0
C658 C 0.09677 0.14955 0.95402 0.0
C659 C 0.11701 0.15861 -0.00013 0.0
C660 C 0.12431 0.17796 0.05166 0.0
C661 C 0.11153 0.188 0.05621 0.0
C662 C 0.08833 0.12901 0.8978 0.0
C663 C 0.14572 0.18817 0.1019 0.0
H664 H 0.13863 0.10929 0.09542 0.0
H665 H 0.17058 0.14855 0.85916 0.0
H666 H 0.11545 0.13944 0.17635 0.0
H667 H 0.09541 0.11846 0.10544 0.0
H668 H 0.11231 0.11264 0.17867 0.0
H669 H 0.16179 0.17363 0.79885 0.0
H670 H 0.13376 0.16607 0.81461 0.0
H671 H 0.15412 0.18657 0.88614 0.0
H672 H 0.06891 0.15284 0.92407 0.0
H673 H 0.11731 0.20285 0.09549 0.0
H674 H 0.08713 0.11565 0.94131 0.0
H675 H 0.09983 0.13153 0.8413 0.0
H676 H 0.07214 0.12382 0.86747 0.0
H677 H 0.14598 0.17633 0.15076 0.0
H678 H 0.14894 0.20297 0.14062 0.0
H679 H 0.15912 0.1926 0.05219 0.0
C680 C 0.92712 0.95285 0.94283 0.0
C681 C 0.90866 0.94053 -0.00247 0.0
C682 C 0.93696 0.97559 0.93708 0.0
C683 C 0.92828 0.98656 -0.01258 0.0
C684 C 0.90963 0.97428 0.04276 0.0
C685 C 0.90004 0.95146 0.04704 0.0
C686 C 0.95672 0.98789 0.87688 0.0
C687 C 0.89987 0.98529 0.09777 0.0
C688 C 0.96641 0.04713 0.03227 0.0
C689 C 0.96033 0.05689 0.96333 0.0
C690 C 0.95584 1.02437 0.04215 0.0
C691 C 0.93876 1.01084 -0.0185 0.0
C692 C 0.93239 1.02056 0.91244 0.0
C693 C 0.94315 0.04335 0.90438 0.0
C694 C 0.96323 1.01477 0.11667 0.0
C695 C 0.91432 1.00684 0.84614 0.0
H696 H 0.934 0.94472 0.90398 0.0
H697 H 0.88585 0.94221 0.08968 0.0
H698 H 0.95353 0.99714 0.82376 0.0
H699 H 0.97061 0.99985 0.91879 0.0
H700 H 0.96148 0.97699 0.84194 0.0
H701 H 0.88539 0.97353 0.13746 0.0
H702 H 0.91209 0.99713 0.14637 0.0
H703 H 0.89509 0.99454 0.05124 0.0
H704 H 0.97977 0.05728 0.07765 0.0
H705 H 0.93796 0.05059 0.85197 0.0
H706 H 0.96975 1.00498 0.08523 0.0
H707 H 0.94928 1.00368 0.16042 0.0
H708 H 0.97598 0.02744 0.16114 0.0
H709 H 0.91868 0.99635 0.80549 0.0
H710 H 0.91087 1.01683 0.79787 0.0
H711 H 0.89927 0.99595 0.88455 0.0
C712 C 0.04953 0.93522 0.90267 0.0
C713 C 1.03548 0.93387 0.97358 0.0
C714 C 0.0722 0.94809 0.91171 0.0
C715 C 0.08125 0.96008 -0.00639 0.0
C716 C 0.0672 0.95896 0.06521 0.0
C717 C 0.04457 0.94591 0.05441 0.0
C718 C 0.08649 0.94883 0.83342 0.0
C719 C 0.07611 0.97146 0.15362 0.0
C720 C 0.14037 0.97781 0.04807 0.0
C721 C 0.15131 0.99945 0.01769 0.0
C722 C 0.11763 0.9649 0.04145 0.0
C723 C 0.10539 0.97381 0.00396 0.0
C724 C 0.1163 0.99573 0.97442 0.0
C725 C 0.13905 1.00822 -0.01863 0.0
C726 C 0.10671 0.9416 0.07346 0.0
C727 C 0.10396 1.00597 0.93454 0.0
H728 H 0.04278 0.92633 0.83931 0.0
H729 H 1.03398 0.94483 0.11021 0.0
H730 H 0.09657 0.96578 0.80885 0.0
H731 H 0.09774 0.94333 0.85757 0.0
H732 H 0.07698 0.93848 0.77452 0.0
H733 H 0.06308 0.96912 0.20227 0.0
H734 H 0.08667 0.96623 0.18774 0.0
H735 H 0.08629 0.98906 0.13872 0.0
H736 H 0.1496 0.9708 0.07608 0.0
H737 H 0.14722 1.02492 0.95788 0.0
H738 H 0.09816 0.93056 0.01498 0.0
H739 H 0.09433 0.93874 0.12637 0.0
H740 H 0.11841 0.93722 0.10279 0.0
H741 H 0.09531 0.99715 0.87129 0.0
H742 H 0.11473 1.02337 0.91719 0.0
H743 H 0.09151 1.00466 -0.01589 0.0
C744 C 0.75155 0.49367 0.28412 0.0
C745 C 0.75991 0.51427 0.32494 0.0
C746 C 0.76405 0.48341 0.27685 0.0
C747 C 0.78559 0.49395 0.31084 0.0
C748 C 0.79409 0.51466 0.35284 0.0
C749 C 0.78118 0.52453 0.3595 0.0
C750 C 0.75424 0.46133 0.23187 0.0
C751 C 0.81696 0.52653 0.38982 0.0
C752 C 0.81263 0.45996 0.35813 0.0
C753 C 0.8255 0.46383 0.27935 0.0
C754 C 0.79961 0.46961 0.36935 0.0
C755 C 0.79937 0.48354 0.30026 0.0
C756 C 0.81219 0.48739 0.22036 0.0
C757 C 0.825 0.47751 0.21086 0.0
C758 C 0.78621 0.465 0.45558 0.0
C759 C 0.81239 0.50199 0.14464 0.0
H760 H 0.73515 0.48549 0.25729 0.0
H761 H 0.78788 0.54042 0.3911 0.0
H762 H 0.76374 0.46223 0.16988 0.0
H763 H 0.75494 0.44954 0.27961 0.0
H764 H 0.7371 0.45502 0.21119 0.0
H765 H 0.82104 0.54227 0.42241 0.0
H766 H 0.81919 0.51632 0.44134 0.0
H767 H 0.82863 0.52968 0.33324 0.0
H768 H 0.81302 0.44967 0.4121 0.0
H769 H 0.83454 0.48039 0.14897 0.0
H770 H 0.76883 0.45785 0.43742 0.0
H771 H 0.7911 0.48039 0.493 0.0
H772 H 0.78799 0.45368 0.50251 0.0
H773 H 0.79577 0.49555 0.11689 0.0
H774 H 0.82335 0.5035 0.08719 0.0
H775 H 0.81767 0.51844 0.17247 0.0
C776 C 0.6142 0.37701 0.2262 0.0
C777 C 0.63053 0.39073 0.28806 0.0
C778 C 0.60386 0.35424 0.23386 0.0
C779 C 0.60981 0.34475 0.3055 0.0
C780 C 0.6261 0.35846 0.36877 0.0
C781 C 0.63626 0.3812 0.35921 0.0
C782 C 0.58662 0.3403 0.16475 0.0
C783 C 0.63298 0.34909 0.44613 0.0
C784 C 0.57048 0.28544 0.36833 0.0
C785 C 0.57951 0.2745 0.3218 0.0
C786 C 0.58023 0.30826 0.36438 0.0
C787 C 0.59945 0.32052 0.31239 0.0
C788 C 0.60866 0.30957 0.26565 0.0
C789 C 0.59864 0.2868 0.27099 0.0
C790 C 0.5699 0.31926 0.41555 0.0
C791 C 0.62906 0.3219 0.20916 0.0
H792 H 0.60928 0.38407 0.17198 0.0
H793 H 0.649 0.39152 0.40684 0.0
H794 H 0.59153 0.32982 0.1274 0.0
H795 H 0.57117 0.32941 0.20061 0.0
H796 H 0.58365 0.35013 0.11371 0.0
H797 H 0.64531 0.36188 0.49155 0.0
H798 H 0.6187 0.33802 0.48837 0.0
H799 H 0.63983 0.33932 0.41753 0.0
H800 H 0.55575 0.27618 0.40783 0.0
H801 H 0.60582 0.27863 0.23453 0.0
H802 H 0.5653 0.3282 0.36648 0.0
H803 H 0.5817 0.33136 0.46463 0.0
H804 H 0.55521 0.30752 0.45417 0.0
H805 H 0.62635 0.3309 0.15336 0.0
H806 H 0.63435 0.31104 0.17786 0.0
H807 H 0.64241 0.33407 0.25277 0.0
C808 C 0.71776 0.2703 0.20783 0.0
C809 C 0.70392 0.27166 0.27316 0.0
C810 C 0.74048 0.28278 0.21628 0.0
C811 C 0.74981 0.29698 0.29229 0.0
C812 C 0.73599 0.29841 0.35868 0.0
C813 C 0.7133 0.28583 0.34825 0.0
C814 C 0.75453 0.28072 0.14374 0.0
C815 C 0.74518 0.31332 0.44074 0.0
C816 C 0.80862 0.31505 0.35535 0.0
C817 C 0.81996 0.3358 0.31563 0.0
C818 C 0.78585 0.30234 0.349 0.0
C819 C 0.774 0.31049 0.30161 0.0
C820 C 0.78534 0.33147 0.26194 0.0
C821 C 0.80808 0.34383 0.26945 0.0
C822 C 0.77445 0.28012 0.39264 0.0
C823 C 0.77345 0.34083 0.2107 0.0
H824 H 0.71083 0.25919 0.15038 0.0
H825 H 0.7029 0.28732 0.39862 0.0
H826 H 0.76527 0.2968 0.11203 0.0
H827 H 0.76513 0.27526 0.17567 0.0
H828 H 0.74482 0.26906 0.08858 0.0
H829 H 0.73231 0.31232 0.48715 0.0
H830 H 0.75591 0.30918 0.48059 0.0
H831 H 0.75526 0.33037 0.41734 0.0
H832 H 0.81754 0.30864 0.39126 0.0
H833 H 0.81656 0.35982 0.23847 0.0
H834 H 0.76562 0.26756 0.33932 0.0
H835 H 0.76225 0.27908 0.44297 0.0
H836 H 0.78589 0.27625 0.42842 0.0
H837 H 0.76466 0.33029 0.15121 0.0
H838 H 0.78456 0.35753 0.18514 0.0
H839 H 0.76117 0.34129 0.25614 0.0
C840 C 0.4958 0.81861 0.55689 0.0
C841 C 0.49423 0.80309 0.62089 0.0
C842 C 0.48296 0.82848 0.56475 0.0
C843 C 0.46802 0.82272 0.63828 0.0
C844 C 0.46636 0.80712 0.70328 0.0
C845 C 0.47944 0.79752 0.69385 0.0
C846 C 0.48521 0.84491 0.49355 0.0
C847 C 0.45066 0.80047 0.78266 0.0
C848 C 0.44647 0.86093 0.69927 0.0
C849 C 0.42625 0.85092 0.65485 0.0
C850 C 0.46019 0.85193 0.69491 0.0
C851 C 0.45358 0.83243 0.64504 0.0
C852 C 0.43317 0.82226 0.60034 0.0
C853 C 0.41983 0.83158 0.60573 0.0
C854 C 0.48182 0.86332 0.74347 0.0
C855 C 0.42541 0.80148 0.54643 0.0
H856 H 0.50688 0.82284 0.49942 0.0
H857 H 0.47826 0.78582 0.74449 0.0
H858 H 0.46961 0.83897 0.45665 0.0
H859 H 0.48908 0.86044 0.52745 0.0
H860 H 0.49806 0.84818 0.44231 0.0
H861 H 0.45158 0.78846 0.82836 0.0
H862 H 0.454 0.81495 0.82408 0.0
H863 H 0.43384 0.79329 0.75624 0.0
H864 H 0.45163 0.87582 0.7375 0.0
H865 H 0.40427 0.82361 0.57111 0.0
H866 H 0.4951 0.86788 0.69304 0.0
H867 H 0.48285 0.8522 0.79398 0.0
H868 H 0.48454 0.87822 0.78006 0.0
H869 H 0.43694 0.8041 0.48993 0.0
H870 H 0.40904 0.79546 0.51632 0.0
H871 H 0.42487 0.78865 0.59161 0.0
C872 C 0.26926 0.61948 0.67256 0.0
C873 C 0.2466 0.60625 0.67852 0.0
C874 C 0.27915 0.64226 0.66611 0.0
C875 C 0.26617 0.65221 0.66533 0.0
C876 C 0.24334 0.63899 0.67268 0.0
C877 C 0.23386 0.61626 0.67924 0.0
C878 C 0.30354 0.65566 0.65873 0.0
C879 C 0.22885 0.64886 0.67209 0.0
C880 C 0.29217 0.71277 0.72128 0.0
C881 C 0.29524 0.7221 0.63349 0.0
C882 C 0.28286 0.69015 0.73268 0.0
C883 C 0.27641 0.67637 0.65452 0.0
C884 C 0.27962 0.68568 0.56574 0.0
C885 C 0.28897 0.70834 0.55634 0.0
C886 C 0.27972 0.68097 0.82858 0.0
C887 C 0.27311 0.67168 0.48042 0.0
H888 H 0.27934 0.61205 0.67194 0.0
H889 H 0.21637 0.6063 0.68364 0.0
H890 H 0.3081 0.66453 0.5924 0.0
H891 H 0.31008 0.668 0.71437 0.0
H892 H 0.3114 0.64557 0.66308 0.0
H893 H 0.21147 0.63647 0.68102 0.0
H894 H 0.23366 0.66107 0.72791 0.0
H895 H 0.23074 0.65745 0.60613 0.0
H896 H 0.29666 0.72313 0.78151 0.0
H897 H 0.29153 0.71531 0.48812 0.0
H898 H 0.28816 0.67149 0.8357 0.0
H899 H 0.26223 0.66965 0.84138 0.0
H900 H 0.28593 0.69384 0.88221 0.0
H901 H 0.28173 0.6623 0.47801 0.0
H902 H 0.27677 0.68139 0.41636 0.0
H903 H 0.25548 0.65977 0.48225 0.0
C904 C 0.47494 0.67296 0.59369 0.0
C905 C 0.48775 0.6673 0.64763 0.0
C906 C 0.45221 0.65987 0.59059 0.0
C907 C 0.44175 0.6405 0.64286 0.0
C908 C 0.45453 0.63458 0.69725 0.0
C909 C 0.47733 0.648 0.69888 0.0
C910 C 0.43937 0.66685 0.53132 0.0
C911 C 0.44409 0.61413 0.75427 0.0
C912 C 0.38159 0.61806 0.69594 0.0
C913 C 0.37132 0.60166 0.62927 0.0
C914 C 0.40439 0.63047 0.70233 0.0
C915 C 0.41746 0.62658 0.64032 0.0
C916 C 0.40725 0.61 0.57327 0.0
C917 C 0.38443 0.59776 0.56875 0.0
C918 C 0.4145 0.64797 0.77484 0.0
C919 C 0.42046 0.60528 0.50556 0.0
H920 H 0.48266 0.68777 0.55352 0.0
H921 H 0.48696 0.64343 0.74101 0.0
H922 H 0.42974 0.65403 0.48001 0.0
H923 H 0.42776 0.66907 0.57441 0.0
H924 H 0.44991 0.68227 0.49425 0.0
H925 H 0.45621 0.61169 0.79245 0.0
H926 H 0.43269 0.6148 0.8044 0.0
H927 H 0.43449 0.59982 0.70942 0.0
H928 H 0.3718 0.62151 0.74247 0.0
H929 H 0.37684 0.58491 0.51806 0.0
H930 H 0.424 0.66408 0.74149 0.0
H931 H 0.42593 0.64541 0.81762 0.0
H932 H 0.40219 0.64835 0.82055 0.0
H933 H 0.43059 0.61992 0.46331 0.0
H934 H 0.41014 0.59157 0.45884 0.0
H935 H 0.43164 0.60134 0.54284 0.0
C936 C 0.0426 0.21987 0.70563 0.0
C937 C 0.0584 0.21697 0.74969 0.0
C938 C 0.03947 0.21666 0.61059 0.0
C939 C 0.05188 0.20959 0.56046 0.0
C940 C 0.06723 0.20581 0.60588 0.0
C941 C 0.07062 0.20999 0.70008 0.0
C942 C 1.0234 0.22141 0.56352 0.0
C943 C 0.0801 0.19744 0.55505 0.0
C944 C 1.02943 0.18334 0.33045 0.0
C945 C 0.04303 0.19992 0.2703 0.0
C946 C 1.03247 0.18609 0.42547 0.0
C947 C 0.04891 0.20624 0.46025 0.0
C948 C 0.06258 0.22313 0.39939 0.0
C949 C 0.05974 0.21956 0.30445 0.0
C950 C 1.0182 0.16746 0.48846 0.0
C951 C 0.07984 0.24504 0.4345 0.0
H952 H 1.03335 0.22545 0.74483 0.0
H953 H 0.08271 0.20763 0.73529 0.0
H954 H 1.03176 0.23396 0.50977 0.0
H955 H 1.0107 0.20661 0.52863 0.0
H956 H 1.01541 0.22724 0.6124 0.0
H957 H 0.09035 0.19403 0.60197 0.0
H958 H 0.06897 0.1823 0.51736 0.0
H959 H 0.09076 0.20953 0.50334 0.0
H960 H 1.01659 0.1681 0.30302 0.0
H961 H 0.07003 0.23235 0.25697 0.0
H962 H 1.00849 0.17205 0.53309 0.0
H963 H 1.02837 0.16372 0.53426 0.0
H964 H 1.00693 0.15251 0.44983 0.0
H965 H 0.07239 0.25207 0.47997 0.0
H966 H 0.08851 0.25665 0.37781 0.0
H967 H 0.09187 0.24324 0.47624 0.0
C968 C 0.88862 0.8658 0.70829 0.0
C969 C 0.8797 0.87734 0.74967 0.0
C970 C 0.89355 0.86823 0.61412 0.0
C971 C 0.88952 0.88259 0.56136 0.0
C972 C 0.8815 0.89501 0.60414 0.0
C973 C 0.87664 0.89219 0.69791 0.0
C974 C 0.90217 0.85478 0.57036 0.0
C975 C 0.87715 0.91059 0.5502 0.0
C976 C 0.91336 0.89896 0.32233 0.0
C977 C 0.89574 0.88456 0.26795 0.0
C978 C 0.91166 0.89849 0.41843 0.0
C979 C 0.89187 0.88329 0.46022 0.0
C980 C 0.87391 0.86902 0.40532 0.0
C981 C 0.87606 0.86988 0.30964 0.0
C982 C 0.93104 0.91403 0.47521 0.0
C983 C 0.85248 0.85271 0.44763 0.0
H984 H 0.89111 0.85444 0.74876 0.0
H985 H 0.86999 0.90134 0.73034 0.0
H986 H 0.88985 0.8428 0.52244 0.0
H987 H 0.9169 0.86527 0.5294 0.0
H988 H 0.90618 0.84586 0.62217 0.0
H989 H 0.8727 0.92038 0.59535 0.0
H990 H 0.89162 0.9218 0.50931 0.0
H991 H 0.86366 0.90136 0.50109 0.0
H992 H 0.92859 0.91032 0.2899 0.0
H993 H 0.86242 0.85876 0.26744 0.0
H994 H 0.93581 0.9048 0.52185 0.0
H995 H 0.9268 0.92415 0.51905 0.0
H996 H 0.94522 0.92493 0.43192 0.0
H997 H 0.85484 0.84175 0.49445 0.0
H998 H 0.8402 0.84266 0.39502 0.0
H999 H 0.84598 0.86124 0.48944 0.0
C1000 C 0.22905 1.01874 0.69933 0.0
C1001 C 0.22676 0.03301 0.75841 0.0
C1002 C 0.23022 1.02191 0.60422 0.0
C1003 C 0.22796 0.03913 0.56812 0.0
C1004 C 0.22593 0.05376 0.6279 0.0
C1005 C 0.22592 0.05081 0.72299 0.0
C1006 C 0.23348 1.00666 0.5425 0.0
C1007 C 0.2228 0.0719 0.59152 0.0
C1008 C 0.24369 0.05884 0.32435 0.0
C1009 C 0.22372 0.04715 0.2796 0.0
C1010 C 0.24554 0.05569 0.41799 0.0
C1011 C 0.22672 0.04126 0.4678 0.0
C1012 C 0.20651 0.02929 0.42228 0.0
C1013 C 0.20536 0.03206 0.32762 0.0
C1014 C 0.26751 0.06793 0.46358 0.0
C1015 C 0.18601 1.01424 0.47402 0.0
H1016 H 0.23 1.00513 0.7276 0.0
H1017 H 0.22426 0.0618 0.76939 0.0
H1018 H 0.21856 0.99656 0.50186 0.0
H1019 H 0.24681 1.01604 0.49299 0.0
H1020 H 0.23736 0.99568 0.58209 0.0
H1021 H 0.22122 0.08167 0.64754 0.0
H1022 H 0.23668 0.08287 0.54727 0.0
H1023 H 0.20798 0.06502 0.54824 0.0
H1024 H 0.25787 0.07033 0.28581 0.0
H1025 H 0.18996 1.02319 0.29197 0.0
H1026 H 0.27087 0.05656 0.50285 0.0
H1027 H 0.26771 0.07989 0.51324 0.0
H1028 H 0.28077 0.07675 0.413 0.0
H1029 H 0.18776 1.00131 0.50857 0.0
H1030 H 0.17158 1.00644 0.42831 0.0
H1031 H 0.18307 1.02343 0.52843 0.0
C1032 C 0.70048 0.54667 0.63435 0.0
C1033 C 0.71166 0.53771 0.59037 0.0
C1034 C 0.70355 0.55165 0.72814 0.0
C1035 C 0.71733 0.54653 0.77901 0.0
C1036 C 0.72869 0.53748 0.73435 0.0
C1037 C 0.72607 0.53361 0.63951 0.0
C1038 C 0.69199 0.56225 0.77266 0.0
C1039 C 0.74302 0.53124 0.78713 0.0
C1040 C 0.74049 0.57198 0.00963 0.0
C1041 C 0.72584 0.55601 0.06968 0.0
C1042 C 0.7373 0.56958 0.91452 0.0
C1043 C 0.71963 0.55029 0.87931 0.0
C1044 C 0.70464 0.53421 0.93999 0.0
C1045 C 0.70766 0.53756 0.03502 0.0
C1046 C 0.753 0.5875 0.85184 0.0
C1047 C 0.68599 0.51313 0.90468 0.0
H1048 H 0.6895 0.54996 0.59502 0.0
H1049 H 0.73452 0.52653 0.60451 0.0
H1050 H 0.67981 0.5509 0.82246 0.0
H1051 H 0.70371 0.57691 0.8116 0.0
H1052 H 0.68358 0.56705 0.72146 0.0
H1053 H 0.75021 0.52383 0.74223 0.0
H1054 H 0.75637 0.54574 0.8211 0.0
H1055 H 0.73347 0.51949 0.84207 0.0
H1056 H 0.75441 0.58639 0.03716 0.0
H1057 H 0.69638 0.52536 0.08207 0.0
H1058 H 0.74402 0.59183 0.80174 0.0
H1059 H 0.76253 0.58186 0.81191 0.0
H1060 H 0.76446 0.60235 0.8906 0.0
H1061 H 0.67538 0.5164 0.85976 0.0
H1062 H 0.67601 0.50222 0.96127 0.0
H1063 H 0.69232 0.50451 0.86234 0.0
C1064 C 0.57733 0.20917 0.64193 0.0
C1065 C 0.56067 0.20579 0.5814 0.0
C1066 C 0.57449 0.20943 0.73693 0.0
C1067 C 0.55419 0.20526 0.77136 0.0
C1068 C 0.53723 0.20164 0.71014 0.0
C1069 C 0.54087 0.20241 0.61524 0.0
C1070 C 0.59319 0.21424 0.80026 0.0
C1071 C 0.51516 0.19648 0.74481 0.0
C1072 C 0.54088 0.18512 0.01641 0.0
C1073 C 0.54324 0.20361 0.06089 0.0
C1074 C 0.54413 0.18532 0.92135 0.0
C1075 C 0.55073 0.20475 0.87159 0.0
C1076 C 0.55395 0.2237 0.91743 0.0
C1077 C 0.54971 0.22276 0.01164 0.0
C1078 C 0.53994 0.16466 0.87387 0.0
C1079 C 0.56183 0.24491 0.86708 0.0
H1080 H 0.5927 0.21193 0.61481 0.0
H1081 H 0.52802 0.19963 0.56755 0.0
H1082 H 0.59651 0.22803 0.84634 0.0
H1083 H 0.58895 0.19999 0.84459 0.0
H1084 H 0.60825 0.21833 0.76191 0.0
H1085 H 0.50353 0.19329 0.68789 0.0
H1086 H 0.50841 0.18198 0.79002 0.0
H1087 H 0.51657 0.21017 0.78671 0.0
H1088 H 0.53569 0.17032 0.0553 0.0
H1089 H 0.55166 0.23706 0.04717 0.0
H1090 H 0.55491 0.16714 0.83943 0.0
H1091 H 0.52744 0.16025 0.81972 0.0
H1092 H 0.53436 0.15083 0.92241 0.0
H1093 H 0.57708 0.24932 0.82971 0.0
H1094 H 0.56483 0.25845 0.91428 0.0
H1095 H 0.54967 0.24319 0.81515 0.0
C1096 C 0.87326 0.36887 0.6329 0.0
C1097 C 0.89158 0.38318 0.58263 0.0
C1098 C 0.87484 0.36639 0.72759 0.0
C1099 C 0.8954 0.37781 0.7709 0.0
C1100 C 0.91413 0.39139 0.71872 0.0
C1101 C 0.91189 0.39432 0.62519 0.0
C1102 C 0.85445 0.35221 0.78174 0.0
C1103 C 0.93644 0.40299 0.76164 0.0
C1104 C 0.89648 0.38819 0.0266 0.0
C1105 C 0.89656 0.36997 0.06175 0.0
C1106 C 0.89623 0.39107 0.93144 0.0
C1107 C 0.89715 0.37586 0.87121 0.0
C1108 C 0.89871 0.35822 0.90696 0.0
C1109 C 0.89789 0.3552 0.00214 0.0
C1110 C 0.89394 0.40974 0.89552 0.0
C1111 C 0.90077 0.3423 0.84479 0.0
H1112 H 0.8576 0.36045 0.599 0.0
H1113 H 0.92603 0.40525 0.58502 0.0
H1114 H 0.85571 0.33898 0.81617 0.0
H1115 H 0.85243 0.36198 0.83639 0.0
H1116 H 0.83972 0.34484 0.73772 0.0
H1117 H 0.94947 0.41085 0.70929 0.0
H1118 H 0.93767 0.41566 0.80983 0.0
H1119 H 0.93929 0.39141 0.80202 0.0
H1120 H 0.89555 0.39957 0.07331 0.0
H1121 H 0.89824 0.34124 0.03005 0.0
H1122 H 0.87883 0.40336 0.85438 0.0
H1123 H 0.90766 0.42006 0.84931 0.0
H1124 H 0.89339 0.42006 0.95175 0.0
H1125 H 0.88548 0.33254 0.80599 0.0
H1126 H 0.90432 0.33101 0.88384 0.0
H1127 H 0.91388 0.35111 0.79369 0.0
C1128 C 0.40802 0.88088 0.35363 0.0
C1129 C 0.39014 0.87803 0.40496 0.0
C1130 C 0.40604 0.87586 0.26006 0.0
C1131 C 0.38566 0.86788 0.21704 0.0
C1132 C 0.36727 0.86397 0.26944 0.0
C1133 C 0.36973 0.86906 0.36352 0.0
C1134 C 0.42598 0.8801 0.20649 0.0
C1135 C 0.34529 0.85539 0.22534 0.0
C1136 C 0.38735 0.88184 0.96583 0.0
C1137 C 0.38254 0.86222 0.92359 0.0
C1138 C 0.38818 0.88377 0.06156 0.0
C1139 C 0.3842 0.86566 0.11592 0.0
C1140 C 0.37974 0.84591 0.07362 0.0
C1141 C 0.379 0.84443 0.97746 0.0
C1142 C 0.3932 0.90517 0.10449 0.0
C1143 C 0.37559 0.82637 0.12989 0.0
H1144 H 0.42378 0.88755 0.38619 0.0
H1145 H 0.3559 0.86673 0.40373 0.0
H1146 H 0.42266 0.86561 0.16529 0.0
H1147 H 0.43043 0.89367 0.15773 0.0
H1148 H 0.4401 0.8844 0.25195 0.0
H1149 H 0.3323 0.85125 0.27702 0.0
H1150 H 0.34569 0.86781 0.17802 0.0
H1151 H 0.3411 0.84071 0.18369 0.0
H1152 H 0.3901 0.8956 0.92399 0.0
H1153 H 0.37524 0.82924 0.94457 0.0
H1154 H 0.40814 0.91165 0.1467 0.0
H1155 H 0.37982 0.90273 0.15105 0.0
H1156 H 0.39553 0.91753 0.05223 0.0
H1157 H 0.38982 0.83043 0.17407 0.0
H1158 H 0.37225 0.81219 0.08622 0.0
H1159 H 0.36154 0.82165 0.17618 0.0
C1160 C 0.21822 0.51136 -0.01756 0.0
C1161 C 0.21706 0.52765 0.93309 0.0
C1162 C 0.21321 0.50833 0.0759 0.0
C1163 C 0.20699 0.52201 0.12067 0.0
C1164 C 0.20454 0.53766 0.06998 0.0
C1165 C 0.20959 0.54028 0.97597 0.0
C1166 C 0.21582 0.49134 0.12758 0.0
C1167 C 0.19771 0.55235 0.11593 0.0
C1168 C 0.18423 0.5067 0.36125 0.0
C1169 C 0.20259 0.52013 0.41417 0.0
C1170 C 0.18531 0.50723 0.2651 0.0
C1171 C 0.20526 0.52136 0.22182 0.0
C1172 C 0.22396 0.53455 0.27515 0.0
C1173 C 0.22237 0.5338 0.37097 0.0
C1174 C 0.16511 0.49296 0.20991 0.0
C1175 C 0.2456 0.54959 0.23101 0.0
H1176 H 0.22362 0.5013 0.9485 0.0
H1177 H 0.20853 0.55272 0.93712 0.0
H1178 H 0.22992 0.49946 0.17474 0.0
H1179 H 0.2013 0.4812 0.17028 0.0
H1180 H 0.21845 0.48052 0.08066 0.0
H1181 H 0.19427 0.56192 0.06529 0.0
H1182 H 0.18304 0.5427 0.15857 0.0
H1183 H 0.21081 0.5638 0.16254 0.0
H1184 H 0.16889 0.49618 0.39487 0.0
H1185 H 0.23653 0.54419 0.4121 0.0
H1186 H 0.1679 0.4821 0.1641 0.0
H1187 H 0.16117 0.50316 0.16527 0.0
H1188 H 0.15089 0.48281 0.25436 0.0
H1189 H 0.25065 0.54013 0.18693 0.0
H1190 H 0.25855 0.55872 0.28261 0.0
H1191 H 0.24419 0.56142 0.18609 0.0
C1192 C 0.53651 0.68454 0.344 0.0
C1193 C 0.55085 0.70267 0.39624 0.0
C1194 C 0.53363 0.68647 0.25019 0.0
C1195 C 0.54548 0.70702 0.20785 0.0
C1196 C 0.55933 0.72558 0.26105 0.0
C1197 C 0.56182 0.72319 0.35525 0.0
C1198 C 0.51862 0.66634 0.19574 0.0
C1199 C 0.57216 0.74776 0.21779 0.0
C1200 C 0.55852 0.70702 0.95608 0.0
C1201 C 0.5434 0.71142 0.91457 0.0
C1202 C 0.5594 0.70566 0.05171 0.0
C1203 C 0.54471 0.70867 0.10675 0.0
C1204 C 0.52908 0.71265 0.06512 0.0
C1205 C 0.5286 0.71397 0.96906 0.0
C1206 C 0.5762 0.70122 0.09384 0.0
C1207 C 0.51308 0.71575 0.12203 0.0
H1208 H 0.52781 0.66868 0.37611 0.0
H1209 H 0.57279 0.7372 0.39607 0.0
H1210 H 0.50707 0.66911 0.15492 0.0
H1211 H 0.52821 0.66258 0.14655 0.0
H1212 H 0.50923 0.65197 0.24054 0.0
H1213 H 0.58075 0.76076 0.26987 0.0
H1214 H 0.58434 0.74789 0.16974 0.0
H1215 H 0.56132 0.75157 0.17705 0.0
H1216 H 0.56995 0.70501 0.91381 0.0
H1217 H 0.5169 0.71737 0.93677 0.0
H1218 H 0.5681 0.6861 0.13517 0.0
H1219 H 0.5868 0.71465 0.14111 0.0
H1220 H 0.58653 0.69947 0.04116 0.0
H1221 H 0.50335 0.70123 0.16543 0.0
H1222 H 0.50186 0.71858 0.07886 0.0
H1223 H 0.5219 0.7298 0.16911 0.0
loop_
_geom_bond_atom_site_label_1
_geom_bond_atom_site_label_2
_geom_bond_distance
_geom_bond_site_symmetry_2
_ccdc_geom_bond_type
Nd0 C2 2.836 . S
Nd0 O20 2.500 1_556 S
Nd0 O21 2.492 . S
Nd0 O22 2.487 . S
Nd0 O23 2.682 . S
Nd0 O24 2.410 . S
Nd0 O29 2.414 1_556 S
Nd0 O31 2.424 . S
Nd1 C11 2.836 . S
Nd1 O23 2.414 1_654 S
Nd1 O25 2.424 . S
Nd1 O26 2.500 1_554 S
Nd1 O27 2.492 . S
Nd1 O28 2.487 . S
Nd1 O29 2.682 1_655 S
Nd1 O30 2.410 1_655 S
C2 Nd0 2.836 . S
C2 C3 1.498 1_556 S
C2 O20 1.258 1_556 S
C2 O21 1.239 . S
C3 C2 1.498 1_554 S
C3 C4 1.367 . S
C3 C8 1.406 1_554 S
C4 C3 1.367 . S
C4 C5 1.392 . S
C4 H32 0.930 . S
C5 C4 1.392 . S
C5 C6 1.398 . S
C5 H33 0.929 . S
C6 C5 1.398 . S
C6 C7 1.352 1_554 S
C7 C6 1.352 1_556 S
C7 C8 1.384 . S
C7 H34 0.930 . S
C8 C3 1.406 1_556 S
C8 C7 1.384 . S
C8 H35 0.929 . S
C9 O22 1.241 . S
C9 O23 1.273 . S
C10 O24 1.251 1_654 S
C10 O25 1.268 . S
C11 Nd1 2.836 . S
C11 C12 1.498 . S
C11 O26 1.258 1_554 S
C11 O27 1.239 . S
C12 C11 1.498 . S
C12 C13 1.366 1_554 S
C12 C17 1.407 . S
C13 C12 1.366 1_556 S
C13 C14 1.392 . S
C13 H36 0.930 . S
C14 C13 1.392 . S
C14 C15 1.398 1_556 S
C14 H37 0.929 . S
C15 C14 1.398 1_554 S
C15 C16 1.352 . S
C16 C15 1.352 . S
C16 C17 1.384 . S
C16 H38 0.930 . S
C17 C12 1.407 . S
C17 C16 1.384 . S
C17 H39 0.929 . S
C18 O28 1.241 1_455 S
C18 O29 1.273 . S
C19 O30 1.246 1_556 S
C19 O31 1.271 . S
O20 Nd0 2.500 1_554 S
O20 C2 1.258 1_554 S
O21 Nd0 2.492 . S
O21 C2 1.239 . S
O22 Nd0 2.487 . S
O22 C9 1.241 . S
O23 Nd0 2.682 . S
O23 Nd1 2.414 1_456 S
O23 C9 1.273 . S
O24 Nd0 2.410 . S
O24 C10 1.251 1_456 S
O25 Nd1 2.424 . S
O25 C10 1.268 . S
O26 Nd1 2.500 1_556 S
O26 C11 1.258 1_556 S
O27 Nd1 2.492 . S
O27 C11 1.239 . S
O28 Nd1 2.487 . S
O28 C18 1.241 1_655 S
O29 Nd0 2.414 1_554 S
O29 Nd1 2.682 1_455 S
O29 C18 1.273 . S
O30 Nd1 2.410 1_455 S
O30 C19 1.246 1_554 S
O31 Nd0 2.424 . S
O31 C19 1.271 . S
H32 C4 0.930 . S
H33 C5 0.929 . S
H34 C7 0.930 . S
H35 C8 0.929 . S
H36 C13 0.930 . S
H37 C14 0.929 . S
H38 C16 0.930 . S
H39 C17 0.929 . S
Nd40 C42 2.836 . S
Nd40 O60 2.500 1_556 S
Nd40 O61 2.492 . S
Nd40 O62 2.487 . S
Nd40 O63 2.682 . S
Nd40 O64 2.410 . S
Nd40 O69 2.414 1_556 S
Nd40 O71 2.424 . S
Nd41 C51 2.836 . S
Nd41 O63 2.414 1_554 S
Nd41 O65 2.424 . S
Nd41 O66 2.500 1_554 S
Nd41 O67 2.492 . S
Nd41 O68 2.487 . S
Nd41 O69 2.682 . S
Nd41 O70 2.410 . S
C42 Nd40 2.836 . S
C42 C43 1.498 . S
C42 O60 1.258 1_556 S
C42 O61 1.239 . S
C43 C42 1.498 . S
C43 C44 1.367 1_556 S
C43 C48 1.406 . S
C44 C43 1.367 1_554 S
C44 C45 1.392 . S
C44 H72 0.930 . S
C45 C44 1.392 . S
C45 C46 1.398 . S
C45 H73 0.929 . S
C46 C45 1.398 . S
C46 C47 1.352 1_554 S
C47 C46 1.352 1_556 S
C47 C48 1.384 . S
C47 H74 0.930 . S
C48 C43 1.406 . S
C48 C47 1.384 . S
C48 H75 0.929 . S
C49 O62 1.241 . S
C49 O63 1.273 . S
C50 O64 1.251 1_554 S
C50 O65 1.268 . S
C51 Nd41 2.836 . S
C51 C52 1.498 . S
C51 O66 1.258 1_554 S
C51 O67 1.239 . S
C52 C51 1.498 . S
C52 C53 1.366 1_554 S
C52 C57 1.407 . S
C53 C52 1.366 1_556 S
C53 C54 1.392 . S
C53 H76 0.930 . S
C54 C53 1.392 . S
C54 C55 1.398 1_556 S
C54 H77 0.929 . S
C55 C54 1.398 1_554 S
C55 C56 1.352 . S
C56 C55 1.352 . S
C56 C57 1.384 . S
C56 H78 0.930 . S
C57 C52 1.407 . S
C57 C56 1.384 . S
C57 H79 0.929 . S
C58 O68 1.241 . S
C58 O69 1.273 . S
C59 O70 1.251 1_556 S
C59 O71 1.268 . S
O60 Nd40 2.500 1_554 S
O60 C42 1.258 1_554 S
O61 Nd40 2.492 . S
O61 C42 1.239 . S
O62 Nd40 2.487 . S
O62 C49 1.241 . S
O63 Nd40 2.682 . S
O63 Nd41 2.414 1_556 S
O63 C49 1.273 . S
O64 Nd40 2.410 . S
O64 C50 1.251 1_556 S
O65 Nd41 2.424 . S
O65 C50 1.268 . S
O66 Nd41 2.500 1_556 S
O66 C51 1.258 1_556 S
O67 Nd41 2.492 . S
O67 C51 1.239 . S
O68 Nd41 2.487 . S
O68 C58 1.241 . S
O69 Nd40 2.414 1_554 S
O69 Nd41 2.682 . S
O69 C58 1.273 . S
O70 Nd41 2.410 . S
O70 C59 1.251 1_554 S
O71 Nd40 2.424 . S
O71 C59 1.268 . S
H72 C44 0.930 . S
H73 C45 0.929 . S
H74 C47 0.930 . S
H75 C48 0.929 . S
H76 C53 0.930 . S
H77 C54 0.929 . S
H78 C56 0.930 . S
H79 C57 0.929 . S
Nd80 C82 2.836 . S
Nd80 O100 2.500 1_556 S
Nd80 O101 2.492 . S
Nd80 O102 2.487 . S
Nd80 O103 2.682 1_565 S
Nd80 O104 2.410 1_565 S
Nd80 O109 2.414 1_566 S
Nd80 O111 2.424 . S
Nd81 C91 2.836 . S
Nd81 O103 2.414 1_554 S
Nd81 O105 2.424 . S
Nd81 O106 2.500 1_554 S
Nd81 O107 2.492 . S
Nd81 O108 2.487 . S
Nd81 O109 2.682 . S
Nd81 O110 2.410 . S
C82 Nd80 2.836 . S
C82 C83 1.498 1_556 S
C82 O100 1.258 1_556 S
C82 O101 1.239 . S
C83 C82 1.498 1_554 S
C83 C84 1.365 . S
C83 C88 1.408 1_554 S
C84 C83 1.365 . S
C84 C85 1.392 . S
C84 H112 0.930 . S
C85 C84 1.392 . S
C85 C86 1.398 . S
C85 H113 0.929 . S
C86 C85 1.398 . S
C86 C87 1.352 1_554 S
C87 C86 1.352 1_556 S
C87 C88 1.384 . S
C87 H114 0.930 . S
C88 C83 1.408 1_556 S
C88 C87 1.384 . S
C88 H115 0.929 . S
C89 O102 1.241 1_545 S
C89 O103 1.273 . S
C90 O104 1.251 1_554 S
C90 O105 1.268 . S
C91 Nd81 2.836 . S
C91 C92 1.498 . S
C91 O106 1.258 1_554 S
C91 O107 1.239 . S
C92 C91 1.498 . S
C92 C93 1.366 1_554 S
C92 C97 1.407 . S
C93 C92 1.366 1_556 S
C93 C94 1.392 . S
C93 H116 0.930 . S
C94 C93 1.392 . S
C94 C95 1.398 1_556 S
C94 H117 0.929 . S
C95 C94 1.398 1_554 S
C95 C96 1.352 . S
C96 C95 1.352 . S
C96 C97 1.384 . S
C96 H118 0.930 . S
C97 C92 1.407 . S
C97 C96 1.384 . S
C97 H119 0.929 . S
C98 O108 1.241 . S
C98 O109 1.273 . S
C99 O110 1.251 1_566 S
C99 O111 1.268 . S
O100 Nd80 2.500 1_554 S
O100 C82 1.258 1_554 S
O101 Nd80 2.492 . S
O101 C82 1.239 . S
O102 Nd80 2.487 . S
O102 C89 1.241 1_565 S
O103 Nd80 2.682 1_545 S
O103 Nd81 2.414 1_556 S
O103 C89 1.273 . S
O104 Nd80 2.410 1_545 S
O104 C90 1.251 1_556 S
O105 Nd81 2.424 . S
O105 C90 1.268 . S
O106 Nd81 2.500 1_556 S
O106 C91 1.258 1_556 S
O107 Nd81 2.492 . S
O107 C91 1.239 . S
O108 Nd81 2.487 . S
O108 C98 1.241 . S
O109 Nd80 2.414 1_544 S
O109 Nd81 2.682 . S
O109 C98 1.273 . S
O110 Nd81 2.410 . S
O110 C99 1.251 1_544 S
O111 Nd80 2.424 . S
O111 C99 1.268 . S
H112 C84 0.930 . S
H113 C85 0.929 . S
H114 C87 0.930 . S
H115 C88 0.929 . S
H116 C93 0.930 . S
H117 C94 0.929 . S
H118 C96 0.930 . S
H119 C97 0.929 . S
Nd120 C122 2.836 . S
Nd120 O140 2.500 . S
Nd120 O141 2.492 . S
Nd120 O142 2.487 . S
Nd120 O143 2.682 . S
Nd120 O144 2.410 . S
Nd120 O149 2.414 . S
Nd120 O151 2.424 . S
Nd121 C131 2.836 . S
Nd121 O143 2.414 . S
Nd121 O145 2.424 . S
Nd121 O146 2.500 . S
Nd121 O147 2.492 . S
Nd121 O148 2.487 . S
Nd121 O149 2.682 . S
Nd121 O150 2.410 . S
C122 Nd120 2.836 . S
C122 C123 1.498 . S
C122 O140 1.258 . S
C122 O141 1.239 . S
C123 C122 1.498 . S
C123 C124 1.366 . S
C123 C128 1.407 . S
C124 C123 1.366 . S
C124 C125 1.392 . S
C124 H152 0.930 . S
C125 C124 1.392 . S
C125 C126 1.398 . S
C125 H153 0.929 . S
C126 C125 1.398 . S
C126 C127 1.352 . S
C127 C126 1.352 . S
C127 C128 1.384 . S
C127 H154 0.930 . S
C128 C123 1.407 . S
C128 C127 1.384 . S
C128 H155 0.929 . S
C129 O142 1.241 . S
C129 O143 1.273 . S
C130 O144 1.251 . S
C130 O145 1.268 . S
C131 Nd121 2.836 . S
C131 C132 1.498 . S
C131 O146 1.258 . S
C131 O147 1.239 . S
C132 C131 1.498 . S
C132 C133 1.366 . S
C132 C137 1.407 . S
C133 C132 1.366 . S
C133 C134 1.392 . S
C133 H156 0.930 . S
C134 C133 1.392 . S
C134 C135 1.398 . S
C134 H157 0.929 . S
C135 C134 1.398 . S
C135 C136 1.352 . S
C136 C135 1.352 . S
C136 C137 1.384 . S
C136 H158 0.930 . S
C137 C132 1.407 . S
C137 C136 1.384 . S
C137 H159 0.929 . S
C138 O148 1.241 . S
C138 O149 1.273 . S
C139 O150 1.251 . S
C139 O151 1.268 . S
O140 Nd120 2.500 . S
O140 C122 1.258 . S
O141 Nd120 2.492 . S
O141 C122 1.239 . S
O142 Nd120 2.487 . S
O142 C129 1.241 . S
O143 Nd120 2.682 . S
O143 Nd121 2.414 . S
O143 C129 1.273 . S
O144 Nd120 2.410 . S
O144 C130 1.251 . S
O145 Nd121 2.424 . S
O145 C130 1.268 . S
O146 Nd121 2.500 . S
O146 C131 1.258 . S
O147 Nd121 2.492 . S
O147 C131 1.239 . S
O148 Nd121 2.487 . S
O148 C138 1.241 . S
O149 Nd120 2.414 . S
O149 Nd121 2.682 . S
O149 C138 1.273 . S
O150 Nd121 2.410 . S
O150 C139 1.251 . S
O151 Nd120 2.424 . S
O151 C139 1.268 . S
H152 C124 0.930 . S
H153 C125 0.929 . S
H154 C127 0.930 . S
H155 C128 0.929 . S
H156 C133 0.930 . S
H157 C134 0.929 . S
H158 C136 0.930 . S
H159 C137 0.929 . S
Nd160 C162 2.836 . S
Nd160 O180 2.500 . S
Nd160 O181 2.492 . S
Nd160 O182 2.487 . S
Nd160 O183 2.682 . S
Nd160 O184 2.410 . S
Nd160 O189 2.414 . S
Nd160 O191 2.424 . S
Nd161 C171 2.836 . S
Nd161 O183 2.414 . S
Nd161 O185 2.424 . S
Nd161 O186 2.500 . S
Nd161 O187 2.492 . S
Nd161 O188 2.487 . S
Nd161 O189 2.682 . S
Nd161 O190 2.410 . S
C162 Nd160 2.836 . S
C162 C163 1.498 . S
C162 O180 1.258 . S
C162 O181 1.239 . S
C163 C162 1.498 . S
C163 C164 1.366 . S
C163 C168 1.407 . S
C164 C163 1.366 . S
C164 C165 1.392 . S
C164 H192 0.930 . S
C165 C164 1.392 . S
C165 C166 1.398 . S
C165 H193 0.929 . S
C166 C165 1.398 . S
C166 C167 1.352 . S
C167 C166 1.352 . S
C167 C168 1.384 . S
C167 H194 0.930 . S
C168 C163 1.407 . S
C168 C167 1.384 . S
C168 H195 0.929 . S
C169 O182 1.241 . S
C169 O183 1.273 . S
C170 O184 1.251 . S
C170 O185 1.268 . S
C171 Nd161 2.836 . S
C171 C172 1.498 . S
C171 O186 1.258 . S
C171 O187 1.239 . S
C172 C171 1.498 . S
C172 C173 1.366 . S
C172 C177 1.407 . S
C173 C172 1.366 . S
C173 C174 1.392 . S
C173 H196 0.930 . S
C174 C173 1.392 . S
C174 C175 1.398 . S
C174 H197 0.929 . S
C175 C174 1.398 . S
C175 C176 1.352 . S
C176 C175 1.352 . S
C176 C177 1.384 . S
C176 H198 0.930 . S
C177 C172 1.407 . S
C177 C176 1.384 . S
C177 H199 0.929 . S
C178 O188 1.241 . S
C178 O189 1.273 . S
C179 O190 1.251 . S
C179 O191 1.268 . S
O180 Nd160 2.500 . S
O180 C162 1.258 . S
O181 Nd160 2.492 . S
O181 C162 1.239 . S
O182 Nd160 2.487 . S
O182 C169 1.241 . S
O183 Nd160 2.682 . S
O183 Nd161 2.414 . S
O183 C169 1.273 . S
O184 Nd160 2.410 . S
O184 C170 1.251 . S
O185 Nd161 2.424 . S
O185 C170 1.268 . S
O186 Nd161 2.500 . S
O186 C171 1.258 . S
O187 Nd161 2.492 . S
O187 C171 1.239 . S
O188 Nd161 2.487 . S
O188 C178 1.241 . S
O189 Nd160 2.414 . S
O189 Nd161 2.682 . S
O189 C178 1.273 . S
O190 Nd161 2.410 . S
O190 C179 1.251 . S
O191 Nd160 2.424 . S
O191 C179 1.268 . S
H192 C164 0.930 . S
H193 C165 0.929 . S
H194 C167 0.930 . S
H195 C168 0.929 . S
H196 C173 0.930 . S
H197 C174 0.929 . S
H198 C176 0.930 . S
H199 C177 0.929 . S
Nd200 C202 2.836 . S
Nd200 O220 2.500 . S
Nd200 O221 2.492 . S
Nd200 O222 2.487 . S
Nd200 O223 2.682 . S
Nd200 O224 2.410 . S
Nd200 O229 2.414 . S
Nd200 O231 2.424 . S
Nd201 C211 2.836 . S
Nd201 O223 2.414 . S
Nd201 O225 2.424 . S
Nd201 O226 2.500 . S
Nd201 O227 2.492 . S
Nd201 O228 2.487 . S
Nd201 O229 2.682 . S
Nd201 O230 2.410 . S
C202 Nd200 2.836 . S
C202 C203 1.498 . S
C202 O220 1.258 . S
C202 O221 1.239 . S
C203 C202 1.498 . S
C203 C204 1.366 . S
C203 C208 1.407 . S
C204 C203 1.366 . S
C204 C205 1.392 . S
C204 H232 0.930 . S
C205 C204 1.392 . S
C205 C206 1.398 . S
C205 H233 0.929 . S
C206 C205 1.398 . S
C206 C207 1.352 . S
C207 C206 1.352 . S
C207 C208 1.384 . S
C207 H234 0.930 . S
C208 C203 1.407 . S
C208 C207 1.384 . S
C208 H235 0.929 . S
C209 O222 1.241 . S
C209 O223 1.273 . S
C210 O224 1.251 . S
C210 O225 1.268 . S
C211 Nd201 2.836 . S
C211 C212 1.498 . S
C211 O226 1.258 . S
C211 O227 1.239 . S
C212 C211 1.498 . S
C212 C213 1.366 . S
C212 C217 1.407 . S
C213 C212 1.366 . S
C213 C214 1.392 . S
C213 H236 0.930 . S
C214 C213 1.392 . S
C214 C215 1.398 . S
C214 H237 0.929 . S
C215 C214 1.398 . S
C215 C216 1.352 . S
C216 C215 1.352 . S
C216 C217 1.384 . S
C216 H238 0.930 . S
C217 C212 1.407 . S
C217 C216 1.384 . S
C217 H239 0.929 . S
C218 O228 1.241 . S
C218 O229 1.273 . S
C219 O230 1.251 . S
C219 O231 1.268 . S
O220 Nd200 2.500 . S
O220 C202 1.258 . S
O221 Nd200 2.492 . S
O221 C202 1.239 . S
O222 Nd200 2.487 . S
O222 C209 1.241 . S
O223 Nd200 2.682 . S
O223 Nd201 2.414 . S
O223 C209 1.273 . S
O224 Nd200 2.410 . S
O224 C210 1.251 . S
O225 Nd201 2.424 . S
O225 C210 1.268 . S
O226 Nd201 2.500 . S
O226 C211 1.258 . S
O227 Nd201 2.492 . S
O227 C211 1.239 . S
O228 Nd201 2.487 . S
O228 C218 1.241 . S
O229 Nd200 2.414 . S
O229 Nd201 2.682 . S
O229 C218 1.273 . S
O230 Nd201 2.410 . S
O230 C219 1.251 . S
O231 Nd200 2.424 . S
O231 C219 1.268 . S
H232 C204 0.930 . S
H233 C205 0.929 . S
H234 C207 0.930 . S
H235 C208 0.929 . S
H236 C213 0.930 . S
H237 C214 0.929 . S
H238 C216 0.930 . S
H239 C217 0.929 . S
Nd240 C242 2.836 . S
Nd240 O260 2.500 . S
Nd240 O261 2.492 . S
Nd240 O262 2.487 . S
Nd240 O263 2.682 . S
Nd240 O264 2.410 . S
Nd240 O269 2.414 . S
Nd240 O271 2.424 . S
Nd241 C251 2.836 . S
Nd241 O263 2.414 . S
Nd241 O265 2.424 . S
Nd241 O266 2.500 . S
Nd241 O267 2.492 . S
Nd241 O268 2.487 . S
Nd241 O269 2.682 . S
Nd241 O270 2.410 . S
C242 Nd240 2.836 . S
C242 C243 1.498 . S
C242 O260 1.258 . S
C242 O261 1.239 . S
C243 C242 1.498 . S
C243 C244 1.366 . S
C243 C248 1.407 . S
C244 C243 1.366 . S
C244 C245 1.392 . S
C244 H272 0.930 . S
C245 C244 1.392 . S
C245 C246 1.398 . S
C245 H273 0.929 . S
C246 C245 1.398 . S
C246 C247 1.352 . S
C247 C246 1.352 . S
C247 C248 1.384 . S
C247 H274 0.930 . S
C248 C243 1.407 . S
C248 C247 1.384 . S
C248 H275 0.929 . S
C249 O262 1.241 . S
C249 O263 1.273 . S
C250 O264 1.251 . S
C250 O265 1.268 . S
C251 Nd241 2.836 . S
C251 C252 1.498 . S
C251 O266 1.258 . S
C251 O267 1.239 . S
C252 C251 1.498 . S
C252 C253 1.366 . S
C252 C257 1.407 . S
C253 C252 1.366 . S
C253 C254 1.392 . S
C253 H276 0.930 . S
C254 C253 1.392 . S
C254 C255 1.398 . S
C254 H277 0.929 . S
C255 C254 1.398 . S
C255 C256 1.352 . S
C256 C255 1.352 . S
C256 C257 1.384 . S
C256 H278 0.930 . S
C257 C252 1.407 . S
C257 C256 1.384 . S
C257 H279 0.929 . S
C258 O268 1.241 . S
C258 O269 1.273 . S
C259 O270 1.251 . S
C259 O271 1.268 . S
O260 Nd240 2.500 . S
O260 C242 1.258 . S
O261 Nd240 2.492 . S
O261 C242 1.239 . S
O262 Nd240 2.487 . S
O262 C249 1.241 . S
O263 Nd240 2.682 . S
O263 Nd241 2.414 . S
O263 C249 1.273 . S
O264 Nd240 2.410 . S
O264 C250 1.251 . S
O265 Nd241 2.424 . S
O265 C250 1.268 . S
O266 Nd241 2.500 . S
O266 C251 1.258 . S
O267 Nd241 2.492 . S
O267 C251 1.239 . S
O268 Nd241 2.487 . S
O268 C258 1.241 . S
O269 Nd240 2.414 . S
O269 Nd241 2.682 . S
O269 C258 1.273 . S
O270 Nd241 2.410 . S
O270 C259 1.251 . S
O271 Nd240 2.424 . S
O271 C259 1.268 . S
H272 C244 0.930 . S
H273 C245 0.929 . S
H274 C247 0.930 . S
H275 C248 0.929 . S
H276 C253 0.930 . S
H277 C254 0.929 . S
H278 C256 0.930 . S
H279 C257 0.929 . S
Nd280 C282 2.836 . S
Nd280 O300 2.500 . S
Nd280 O301 2.492 . S
Nd280 O302 2.487 . S
Nd280 O303 2.682 . S
Nd280 O304 2.410 . S
Nd280 O309 2.414 . S
Nd280 O311 2.424 . S
Nd281 C291 2.836 . S
Nd281 O303 2.414 . S
Nd281 O305 2.424 . S
Nd281 O306 2.500 . S
Nd281 O307 2.492 . S
Nd281 O308 2.487 . S
Nd281 O309 2.682 . S
Nd281 O310 2.410 . S
C282 Nd280 2.836 . S
C282 C283 1.498 . S
C282 O300 1.258 . S
C282 O301 1.239 . S
C283 C282 1.498 . S
C283 C284 1.366 . S
C283 C288 1.407 . S
C284 C283 1.366 . S
C284 C285 1.392 . S
C284 H312 0.930 . S
C285 C284 1.392 . S
C285 C286 1.398 . S
C285 H313 0.929 . S
C286 C285 1.398 . S
C286 C287 1.352 . S
C287 C286 1.352 . S
C287 C288 1.384 . S
C287 H314 0.930 . S
C288 C283 1.407 . S
C288 C287 1.384 . S
C288 H315 0.929 . S
C289 O302 1.241 . S
C289 O303 1.273 . S
C290 O304 1.251 . S
C290 O305 1.268 . S
C291 Nd281 2.836 . S
C291 C292 1.498 . S
C291 O306 1.258 . S
C291 O307 1.239 . S
C292 C291 1.498 . S
C292 C293 1.366 . S
C292 C297 1.407 . S
C293 C292 1.366 . S
C293 C294 1.392 . S
C293 H316 0.930 . S
C294 C293 1.392 . S
C294 C295 1.398 . S
C294 H317 0.929 . S
C295 C294 1.398 . S
C295 C296 1.352 . S
C296 C295 1.352 . S
C296 C297 1.384 . S
C296 H318 0.930 . S
C297 C292 1.407 . S
C297 C296 1.384 . S
C297 H319 0.929 . S
C298 O308 1.241 . S
C298 O309 1.273 . S
C299 O310 1.251 . S
C299 O311 1.268 . S
O300 Nd280 2.500 . S
O300 C282 1.258 . S
O301 Nd280 2.492 . S
O301 C282 1.239 . S
O302 Nd280 2.487 . S
O302 C289 1.241 . S
O303 Nd280 2.682 . S
O303 Nd281 2.414 . S
O303 C289 1.273 . S
O304 Nd280 2.410 . S
O304 C290 1.251 . S
O305 Nd281 2.424 . S
O305 C290 1.268 . S
O306 Nd281 2.500 . S
O306 C291 1.258 . S
O307 Nd281 2.492 . S
O307 C291 1.239 . S
O308 Nd281 2.487 . S
O308 C298 1.241 . S
O309 Nd280 2.414 . S
O309 Nd281 2.682 . S
O309 C298 1.273 . S
O310 Nd281 2.410 . S
O310 C299 1.251 . S
O311 Nd280 2.424 . S
O311 C299 1.268 . S
H312 C284 0.930 . S
H313 C285 0.929 . S
H314 C287 0.930 . S
H315 C288 0.929 . S
H316 C293 0.930 . S
H317 C294 0.929 . S
H318 C296 0.930 . S
H319 C297 0.929 . S
Nd320 C322 2.836 . S
Nd320 O340 2.500 . S
Nd320 O341 2.492 . S
Nd320 O342 2.487 . S
Nd320 O343 2.682 . S
Nd320 O344 2.410 . S
Nd320 O349 2.414 . S
Nd320 O351 2.424 . S
Nd321 C331 2.836 . S
Nd321 O343 2.414 . S
Nd321 O345 2.424 . S
Nd321 O346 2.500 . S
Nd321 O347 2.492 . S
Nd321 O348 2.487 . S
Nd321 O349 2.682 . S
Nd321 O350 2.410 . S
C322 Nd320 2.836 . S
C322 C323 1.498 . S
C322 O340 1.258 . S
C322 O341 1.239 . S
C323 C322 1.498 . S
C323 C324 1.366 . S
C323 C328 1.407 . S
C324 C323 1.366 . S
C324 C325 1.392 . S
C324 H352 0.930 . S
C325 C324 1.392 . S
C325 C326 1.398 . S
C325 H353 0.929 . S
C326 C325 1.398 . S
C326 C327 1.352 . S
C327 C326 1.352 . S
C327 C328 1.384 . S
C327 H354 0.930 . S
C328 C323 1.407 . S
C328 C327 1.384 . S
C328 H355 0.929 . S
C329 O342 1.241 . S
C329 O343 1.273 . S
C330 O344 1.251 . S
C330 O345 1.268 . S
C331 Nd321 2.836 . S
C331 C332 1.498 . S
C331 O346 1.258 . S
C331 O347 1.239 . S
C332 C331 1.498 . S
C332 C333 1.366 . S
C332 C337 1.407 . S
C333 C332 1.366 . S
C333 C334 1.392 . S
C333 H356 0.930 . S
C334 C333 1.392 . S
C334 C335 1.398 . S
C334 H357 0.929 . S
C335 C334 1.398 . S
C335 C336 1.352 . S
C336 C335 1.352 . S
C336 C337 1.384 . S
C336 H358 0.930 . S
C337 C332 1.407 . S
C337 C336 1.384 . S
C337 H359 0.929 . S
C338 O348 1.241 . S
C338 O349 1.273 . S
C339 O350 1.251 . S
C339 O351 1.268 . S
O340 Nd320 2.500 . S
O340 C322 1.258 . S
O341 Nd320 2.492 . S
O341 C322 1.239 . S
O342 Nd320 2.487 . S
O342 C329 1.241 . S
O343 Nd320 2.682 . S
O343 Nd321 2.414 . S
O343 C329 1.273 . S
O344 Nd320 2.410 . S
O344 C330 1.251 . S
O345 Nd321 2.424 . S
O345 C330 1.268 . S
O346 Nd321 2.500 . S
O346 C331 1.258 . S
O347 Nd321 2.492 . S
O347 C331 1.239 . S
O348 Nd321 2.487 . S
O348 C338 1.241 . S
O349 Nd320 2.414 . S
O349 Nd321 2.682 . S
O349 C338 1.273 . S
O350 Nd321 2.410 . S
O350 C339 1.251 . S
O351 Nd320 2.424 . S
O351 C339 1.268 . S
H352 C324 0.930 . S
H353 C325 0.929 . S
H354 C327 0.930 . S
H355 C328 0.929 . S
H356 C333 0.930 . S
H357 C334 0.929 . S
H358 C336 0.930 . S
H359 C337 0.929 . S
C360 C361 1.391 . S
C360 C362 1.394 . S
C360 H376 0.931 . S
C361 C360 1.391 . S
C361 C365 1.376 . S
C362 C360 1.394 . S
C362 C363 1.369 . S
C362 C366 1.531 . S
C363 C362 1.369 . S
C363 C364 1.410 . S
C363 C371 1.503 . S
C364 C363 1.410 . S
C364 C365 1.392 . S
C364 C367 1.511 . S
C365 C361 1.376 . S
C365 C364 1.392 . S
C365 H377 0.929 . S
C366 C362 1.531 . S
C366 H378 0.960 . S
C366 H379 0.962 . S
C366 H380 0.960 . S
C367 C364 1.511 . S
C367 H381 0.961 . S
C367 H382 0.961 . S
C367 H383 0.961 . S
C368 C369 1.370 . S
C368 C370 1.363 . S
C368 H384 0.931 . S
C369 C368 1.370 . S
C369 C373 1.408 . S
C370 C368 1.363 . S
C370 C371 1.370 . S
C370 C374 1.524 . S
C371 C363 1.503 . S
C371 C370 1.370 . S
C371 C372 1.403 . S
C372 C371 1.403 . S
C372 C373 1.404 . S
C372 C375 1.539 . S
C373 C369 1.408 . S
C373 C372 1.404 . S
C373 H385 0.930 . S
C374 C370 1.524 . S
C374 H386 0.956 . S
C374 H387 0.961 1_556 S
C374 H388 0.961 1_556 S
C375 C372 1.539 . S
C375 H389 0.958 . S
C375 H390 0.961 . S
C375 H391 0.960 . S
H376 C360 0.931 . S
H377 C365 0.929 . S
H378 C366 0.960 . S
H379 C366 0.962 . S
H380 C366 0.960 . S
H381 C367 0.961 . S
H382 C367 0.961 . S
H383 C367 0.961 . S
H384 C368 0.931 . S
H385 C373 0.930 . S
H386 C374 0.956 . S
H387 C374 0.961 1_554 S
H388 C374 0.961 1_554 S
H389 C375 0.958 . S
H390 C375 0.961 . S
H391 C375 0.960 . S
C392 C393 1.391 . S
C392 C394 1.394 . S
C392 H408 0.931 . S
C393 C392 1.391 . S
C393 C397 1.376 . S
C394 C392 1.394 . S
C394 C395 1.369 . S
C394 C398 1.531 . S
C395 C394 1.369 . S
C395 C396 1.410 . S
C395 C403 1.503 . S
C396 C395 1.410 . S
C396 C397 1.392 . S
C396 C399 1.511 . S
C397 C393 1.376 . S
C397 C396 1.392 . S
C397 H409 0.929 1_556 S
C398 C394 1.531 . S
C398 H410 0.960 . S
C398 H411 0.962 . S
C398 H412 0.960 . S
C399 C396 1.511 . S
C399 H413 0.961 . S
C399 H414 0.961 . S
C399 H415 0.961 1_556 S
C400 C401 1.370 . S
C400 C402 1.363 . S
C400 H416 0.931 . S
C401 C400 1.370 . S
C401 C405 1.408 . S
C402 C400 1.363 . S
C402 C403 1.370 . S
C402 C406 1.524 . S
C403 C395 1.503 . S
C403 C402 1.370 . S
C403 C404 1.403 . S
C404 C403 1.403 . S
C404 C405 1.404 . S
C404 C407 1.539 . S
C405 C401 1.408 . S
C405 C404 1.404 . S
C405 H417 0.930 . S
C406 C402 1.524 . S
C406 H418 0.956 . S
C406 H419 0.961 . S
C406 H420 0.961 . S
C407 C404 1.539 . S
C407 H421 0.958 . S
C407 H422 0.961 1_556 S
C407 H423 0.960 1_556 S
H408 C392 0.931 . S
H409 C397 0.929 1_554 S
H410 C398 0.960 . S
H411 C398 0.962 . S
H412 C398 0.960 . S
H413 C399 0.961 . S
H414 C399 0.961 . S
H415 C399 0.961 1_554 S
H416 C400 0.931 . S
H417 C405 0.930 . S
H418 C406 0.956 . S
H419 C406 0.961 . S
H420 C406 0.961 . S
H421 C407 0.958 . S
H422 C407 0.961 1_554 S
H423 C407 0.960 1_554 S
C424 C425 1.391 . S
C424 C426 1.394 . S
C424 H440 0.931 . S
C425 C424 1.391 . S
C425 C429 1.376 1_556 S
C426 C424 1.394 . S
C426 C427 1.369 . S
C426 C430 1.531 . S
C427 C426 1.369 . S
C427 C428 1.410 . S
C427 C435 1.503 . S
C428 C427 1.410 . S
C428 C429 1.392 1_556 S
C428 C431 1.511 1_556 S
C429 C425 1.376 1_554 S
C429 C428 1.392 1_554 S
C429 H441 0.929 . S
C430 C426 1.531 . S
C430 H442 0.960 . S
C430 H443 0.962 . S
C430 H444 0.960 . S
C431 C428 1.511 1_554 S
C431 H445 0.961 . S
C431 H446 0.961 . S
C431 H447 0.961 . S
C432 C433 1.370 . S
C432 C434 1.363 . S
C432 H448 0.931 . S
C433 C432 1.370 . S
C433 C437 1.408 . S
C434 C432 1.363 . S
C434 C435 1.370 . S
C434 C438 1.524 . S
C435 C427 1.503 . S
C435 C434 1.370 . S
C435 C436 1.403 . S
C436 C435 1.403 . S
C436 C437 1.404 . S
C436 C439 1.539 . S
C437 C433 1.408 . S
C437 C436 1.404 . S
C437 H449 0.930 . S
C438 C434 1.524 . S
C438 H450 0.956 . S
C438 H451 0.961 . S
C438 H452 0.961 . S
C439 C436 1.539 . S
C439 H453 0.958 . S
C439 H454 0.961 . S
C439 H455 0.960 . S
H440 C424 0.931 . S
H441 C429 0.929 . S
H442 C430 0.960 . S
H443 C430 0.962 . S
H444 C430 0.960 . S
H445 C431 0.961 . S
H446 C431 0.961 . S
H447 C431 0.961 . S
H448 C432 0.931 . S
H449 C437 0.930 . S
H450 C438 0.956 . S
H451 C438 0.961 . S
H452 C438 0.961 . S
H453 C439 0.958 . S
H454 C439 0.961 . S
H455 C439 0.960 . S
C456 C457 1.391 . S
C456 C458 1.394 . S
C456 H472 0.931 . S
C457 C456 1.391 . S
C457 C461 1.376 . S
C458 C456 1.394 . S
C458 C459 1.369 . S
C458 C462 1.531 . S
C459 C458 1.369 . S
C459 C460 1.410 . S
C459 C467 1.503 . S
C460 C459 1.410 . S
C460 C461 1.392 . S
C460 C463 1.511 . S
C461 C457 1.376 . S
C461 C460 1.392 . S
C461 H473 0.929 . S
C462 C458 1.531 . S
C462 H474 0.960 . S
C462 H475 0.962 . S
C462 H476 0.960 . S
C463 C460 1.511 . S
C463 H477 0.961 . S
C463 H478 0.961 . S
C463 H479 0.961 . S
C464 C465 1.370 . S
C464 C466 1.363 . S
C464 H480 0.931 . S
C465 C464 1.370 . S
C465 C469 1.408 . S
C466 C464 1.363 . S
C466 C467 1.370 . S
C466 C470 1.524 . S
C467 C459 1.503 . S
C467 C466 1.370 . S
C467 C468 1.403 . S
C468 C467 1.403 . S
C468 C469 1.404 . S
C468 C471 1.539 . S
C469 C465 1.408 . S
C469 C468 1.404 . S
C469 H481 0.930 1_554 S
C470 C466 1.524 . S
C470 H482 0.956 . S
C470 H483 0.961 . S
C470 H484 0.961 . S
C471 C468 1.539 . S
C471 H485 0.958 1_554 S
C471 H486 0.961 1_554 S
C471 H487 0.960 . S
H472 C456 0.931 . S
H473 C461 0.929 . S
H474 C462 0.960 . S
H475 C462 0.962 . S
H476 C462 0.960 . S
H477 C463 0.961 . S
H478 C463 0.961 . S
H479 C463 0.961 . S
H480 C464 0.931 . S
H481 C469 0.930 1_556 S
H482 C470 0.956 . S
H483 C470 0.961 . S
H484 C470 0.961 . S
H485 C471 0.958 1_556 S
H486 C471 0.961 1_556 S
H487 C471 0.960 . S
C488 C489 1.391 . S
C488 C490 1.394 . S
C488 H504 0.931 . S
C489 C488 1.391 . S
C489 C493 1.376 . S
C490 C488 1.394 . S
C490 C491 1.369 . S
C490 C494 1.531 . S
C491 C490 1.369 . S
C491 C492 1.410 . S
C491 C499 1.503 . S
C492 C491 1.410 . S
C492 C493 1.392 . S
C492 C495 1.511 . S
C493 C489 1.376 . S
C493 C492 1.392 . S
C493 H505 0.929 . S
C494 C490 1.531 . S
C494 H506 0.960 . S
C494 H507 0.962 . S
C494 H508 0.960 . S
C495 C492 1.511 . S
C495 H509 0.961 . S
C495 H510 0.961 . S
C495 H511 0.961 . S
C496 C497 1.370 . S
C496 C498 1.363 . S
C496 H512 0.931 . S
C497 C496 1.370 . S
C497 C501 1.408 . S
C498 C496 1.363 . S
C498 C499 1.370 . S
C498 C502 1.524 . S
C499 C491 1.503 . S
C499 C498 1.370 . S
C499 C500 1.403 . S
C500 C499 1.403 . S
C500 C501 1.404 . S
C500 C503 1.539 . S
C501 C497 1.408 . S
C501 C500 1.404 . S
C501 H513 0.930 1_554 S
C502 C498 1.524 . S
C502 H514 0.956 . S
C502 H515 0.961 . S
C502 H516 0.961 . S
C503 C500 1.539 . S
C503 H517 0.958 1_554 S
C503 H518 0.961 1_554 S
C503 H519 0.960 . S
H504 C488 0.931 . S
H505 C493 0.929 . S
H506 C494 0.960 . S
H507 C494 0.962 . S
H508 C494 0.960 . S
H509 C495 0.961 . S
H510 C495 0.961 . S
H511 C495 0.961 . S
H512 C496 0.931 . S
H513 C501 0.930 1_556 S
H514 C502 0.956 . S
H515 C502 0.961 . S
H516 C502 0.961 . S
H517 C503 0.958 1_556 S
H518 C503 0.961 1_556 S
H519 C503 0.960 . S
C520 C521 1.391 . S
C520 C522 1.394 . S
C520 H536 0.931 1_554 S
C521 C520 1.391 . S
C521 C525 1.376 . S
C522 C520 1.394 . S
C522 C523 1.369 . S
C522 C526 1.531 . S
C523 C522 1.369 . S
C523 C524 1.410 . S
C523 C531 1.503 . S
C524 C523 1.410 . S
C524 C525 1.392 . S
C524 C527 1.511 . S
C525 C521 1.376 . S
C525 C524 1.392 . S
C525 H537 0.929 . S
C526 C522 1.531 . S
C526 H538 0.960 . S
C526 H539 0.962 1_554 S
C526 H540 0.960 1_554 S
C527 C524 1.511 . S
C527 H541 0.961 . S
C527 H542 0.961 . S
C527 H543 0.961 . S
C528 C529 1.370 . S
C528 C530 1.363 . S
C528 H544 0.931 . S
C529 C528 1.370 . S
C529 C533 1.408 . S
C530 C528 1.363 . S
C530 C531 1.370 . S
C530 C534 1.524 . S
C531 C523 1.503 . S
C531 C530 1.370 . S
C531 C532 1.403 . S
C532 C531 1.403 . S
C532 C533 1.404 . S
C532 C535 1.539 . S
C533 C529 1.408 . S
C533 C532 1.404 . S
C533 H545 0.930 . S
C534 C530 1.524 . S
C534 H546 0.956 . S
C534 H547 0.961 . S
C534 H548 0.961 . S
C535 C532 1.539 . S
C535 H549 0.958 . S
C535 H550 0.961 . S
C535 H551 0.960 . S
H536 C520 0.931 1_556 S
H537 C525 0.929 . S
H538 C526 0.960 . S
H539 C526 0.962 1_556 S
H540 C526 0.960 1_556 S
H541 C527 0.961 . S
H542 C527 0.961 . S
H543 C527 0.961 . S
H544 C528 0.931 . S
H545 C533 0.930 . S
H546 C534 0.956 . S
H547 C534 0.961 . S
H548 C534 0.961 . S
H549 C535 0.958 . S
H550 C535 0.961 . S
H551 C535 0.960 . S
C552 C553 1.391 . S
C552 C554 1.394 1_455 S
C552 H568 0.931 . S
C553 C552 1.391 . S
C553 C557 1.376 . S
C554 C552 1.394 1_655 S
C554 C555 1.369 . S
C554 C558 1.531 . S
C555 C554 1.369 . S
C555 C556 1.410 . S
C555 C563 1.503 . S
C556 C555 1.410 . S
C556 C557 1.392 1_655 S
C556 C559 1.511 . S
C557 C553 1.376 . S
C557 C556 1.392 1_455 S
C557 H569 0.929 . S
C558 C554 1.531 . S
C558 H570 0.960 . S
C558 H571 0.962 . S
C558 H572 0.960 . S
C559 C556 1.511 . S
C559 H573 0.961 . S
C559 H574 0.961 . S
C559 H575 0.961 . S
C560 C561 1.370 . S
C560 C562 1.363 . S
C560 H576 0.931 . S
C561 C560 1.370 . S
C561 C565 1.408 . S
C562 C560 1.363 . S
C562 C563 1.370 . S
C562 C566 1.524 . S
C563 C555 1.503 . S
C563 C562 1.370 . S
C563 C564 1.403 . S
C564 C563 1.403 . S
C564 C565 1.404 . S
C564 C567 1.539 . S
C565 C561 1.408 . S
C565 C564 1.404 . S
C565 H577 0.930 . S
C566 C562 1.524 . S
C566 H578 0.956 . S
C566 H579 0.961 . S
C566 H580 0.961 . S
C567 C564 1.539 . S
C567 H581 0.958 . S
C567 H582 0.961 . S
C567 H583 0.960 . S
H568 C552 0.931 . S
H569 C557 0.929 . S
H570 C558 0.960 . S
H571 C558 0.962 . S
H572 C558 0.960 . S
H573 C559 0.961 . S
H574 C559 0.961 . S
H575 C559 0.961 . S
H576 C560 0.931 . S
H577 C565 0.930 . S
H578 C566 0.956 . S
H579 C566 0.961 . S
H580 C566 0.961 . S
H581 C567 0.958 . S
H582 C567 0.961 . S
H583 C567 0.960 . S
C584 C585 1.391 . S
C584 C586 1.394 . S
C584 H600 0.931 . S
C585 C584 1.391 . S
C585 C589 1.376 . S
C586 C584 1.394 . S
C586 C587 1.369 . S
C586 C590 1.531 . S
C587 C586 1.369 . S
C587 C588 1.410 . S
C587 C595 1.503 . S
C588 C587 1.410 . S
C588 C589 1.392 . S
C588 C591 1.511 . S
C589 C585 1.376 . S
C589 C588 1.392 . S
C589 H601 0.929 . S
C590 C586 1.531 . S
C590 H602 0.960 . S
C590 H603 0.962 . S
C590 H604 0.960 . S
C591 C588 1.511 . S
C591 H605 0.961 . S
C591 H606 0.961 . S
C591 H607 0.961 . S
C592 C593 1.370 . S
C592 C594 1.363 . S
C592 H608 0.931 . S
C593 C592 1.370 . S
C593 C597 1.408 . S
C594 C592 1.363 . S
C594 C595 1.370 . S
C594 C598 1.524 . S
C595 C587 1.503 . S
C595 C594 1.370 . S
C595 C596 1.403 . S
C596 C595 1.403 . S
C596 C597 1.404 . S
C596 C599 1.539 . S
C597 C593 1.408 . S
C597 C596 1.404 . S
C597 H609 0.930 . S
C598 C594 1.524 . S
C598 H610 0.956 . S
C598 H611 0.961 . S
C598 H612 0.961 . S
C599 C596 1.539 . S
C599 H613 0.958 . S
C599 H614 0.961 . S
C599 H615 0.960 . S
H600 C584 0.931 . S
H601 C589 0.929 . S
H602 C590 0.960 . S
H603 C590 0.962 . S
H604 C590 0.960 . S
H605 C591 0.961 . S
H606 C591 0.961 . S
H607 C591 0.961 . S
H608 C592 0.931 . S
H609 C597 0.930 . S
H610 C598 0.956 . S
H611 C598 0.961 . S
H612 C598 0.961 . S
H613 C599 0.958 . S
H614 C599 0.961 . S
H615 C599 0.960 . S
C616 C617 1.391 . S
C616 C618 1.394 . S
C616 H632 0.931 . S
C617 C616 1.391 . S
C617 C621 1.376 . S
C618 C616 1.394 . S
C618 C619 1.369 . S
C618 C622 1.531 . S
C619 C618 1.369 . S
C619 C620 1.410 . S
C619 C627 1.503 . S
C620 C619 1.410 . S
C620 C621 1.392 . S
C620 C623 1.511 . S
C621 C617 1.376 . S
C621 C620 1.392 . S
C621 H633 0.929 . S
C622 C618 1.531 . S
C622 H634 0.960 . S
C622 H635 0.962 . S
C622 H636 0.960 . S
C623 C620 1.511 . S
C623 H637 0.961 . S
C623 H638 0.961 . S
C623 H639 0.961 . S
C624 C625 1.370 . S
C624 C626 1.363 . S
C624 H640 0.931 . S
C625 C624 1.370 . S
C625 C629 1.408 . S
C626 C624 1.363 . S
C626 C627 1.370 . S
C626 C630 1.524 . S
C627 C619 1.503 . S
C627 C626 1.370 . S
C627 C628 1.403 . S
C628 C627 1.403 . S
C628 C629 1.404 . S
C628 C631 1.539 . S
C629 C625 1.408 . S
C629 C628 1.404 . S
C629 H641 0.930 . S
C630 C626 1.524 . S
C630 H642 0.956 . S
C630 H643 0.961 . S
C630 H644 0.961 . S
C631 C628 1.539 . S
C631 H645 0.958 . S
C631 H646 0.961 . S
C631 H647 0.960 . S
H632 C616 0.931 . S
H633 C621 0.929 . S
H634 C622 0.960 . S
H635 C622 0.962 . S
H636 C622 0.960 . S
H637 C623 0.961 . S
H638 C623 0.961 . S
H639 C623 0.961 . S
H640 C624 0.931 . S
H641 C629 0.930 . S
H642 C630 0.956 . S
H643 C630 0.961 . S
H644 C630 0.961 . S
H645 C631 0.958 . S
H646 C631 0.961 . S
H647 C631 0.960 . S
C648 C649 1.391 . S
C648 C650 1.394 . S
C648 H664 0.931 . S
C649 C648 1.391 . S
C649 C653 1.376 1_554 S
C650 C648 1.394 . S
C650 C651 1.369 . S
C650 C654 1.531 . S
C651 C650 1.369 . S
C651 C652 1.410 1_554 S
C651 C659 1.503 . S
C652 C651 1.410 1_556 S
C652 C653 1.392 . S
C652 C655 1.511 . S
C653 C649 1.376 1_556 S
C653 C652 1.392 . S
C653 H665 0.929 . S
C654 C650 1.531 . S
C654 H666 0.960 . S
C654 H667 0.962 . S
C654 H668 0.960 . S
C655 C652 1.511 . S
C655 H669 0.961 . S
C655 H670 0.961 . S
C655 H671 0.961 . S
C656 C657 1.370 . S
C656 C658 1.363 . S
C656 H672 0.931 . S
C657 C656 1.370 . S
C657 C661 1.408 1_556 S
C658 C656 1.363 . S
C658 C659 1.370 1_556 S
C658 C662 1.524 . S
C659 C651 1.503 . S
C659 C658 1.370 1_554 S
C659 C660 1.403 . S
C660 C659 1.403 . S
C660 C661 1.404 . S
C660 C663 1.539 . S
C661 C657 1.408 1_554 S
C661 C660 1.404 . S
C661 H673 0.930 . S
C662 C658 1.524 . S
C662 H674 0.956 . S
C662 H675 0.961 . S
C662 H676 0.961 . S
C663 C660 1.539 . S
C663 H677 0.958 . S
C663 H678 0.961 . S
C663 H679 0.960 . S
H664 C648 0.931 . S
H665 C653 0.929 . S
H666 C654 0.960 . S
H667 C654 0.962 . S
H668 C654 0.960 . S
H669 C655 0.961 . S
H670 C655 0.961 . S
H671 C655 0.961 . S
H672 C656 0.931 . S
H673 C661 0.930 . S
H674 C662 0.956 . S
H675 C662 0.961 . S
H676 C662 0.961 . S
H677 C663 0.958 . S
H678 C663 0.961 . S
H679 C663 0.960 . S
C680 C681 1.391 . S
C680 C682 1.394 . S
C680 H696 0.931 . S
C681 C680 1.391 . S
C681 C685 1.376 1_556 S
C682 C680 1.394 . S
C682 C683 1.369 . S
C682 C686 1.531 . S
C683 C682 1.369 . S
C683 C684 1.410 1_556 S
C683 C691 1.503 . S
C684 C683 1.410 1_554 S
C684 C685 1.392 . S
C684 C687 1.511 . S
C685 C681 1.376 1_554 S
C685 C684 1.392 . S
C685 H697 0.929 . S
C686 C682 1.531 . S
C686 H698 0.960 . S
C686 H699 0.962 . S
C686 H700 0.960 . S
C687 C684 1.511 . S
C687 H701 0.961 . S
C687 H702 0.961 . S
C687 H703 0.961 . S
C688 C689 1.370 1_554 S
C688 C690 1.363 1_545 S
C688 H704 0.931 . S
C689 C688 1.370 1_556 S
C689 C693 1.408 . S
C690 C688 1.363 1_565 S
C690 C691 1.370 1_554 S
C690 C694 1.524 . S
C691 C683 1.503 . S
C691 C690 1.370 1_556 S
C691 C692 1.403 . S
C692 C691 1.403 . S
C692 C693 1.404 1_565 S
C692 C695 1.539 . S
C693 C689 1.408 . S
C693 C692 1.404 1_545 S
C693 H705 0.930 . S
C694 C690 1.524 . S
C694 H706 0.956 . S
C694 H707 0.961 . S
C694 H708 0.961 . S
C695 C692 1.539 . S
C695 H709 0.958 . S
C695 H710 0.961 . S
C695 H711 0.960 . S
H696 C680 0.931 . S
H697 C685 0.929 . S
H698 C686 0.960 . S
H699 C686 0.962 . S
H700 C686 0.960 . S
H701 C687 0.961 . S
H702 C687 0.961 . S
H703 C687 0.961 . S
H704 C688 0.931 . S
H705 C693 0.930 . S
H706 C694 0.956 . S
H707 C694 0.961 . S
H708 C694 0.961 . S
H709 C695 0.958 . S
H710 C695 0.961 . S
H711 C695 0.960 . S
C712 C713 1.391 1_556 S
C712 C714 1.394 1_556 S
C712 H728 0.931 . S
C713 C712 1.391 1_554 S
C713 C717 1.376 . S
C714 C712 1.394 1_554 S
C714 C715 1.369 . S
C714 C718 1.531 1_554 S
C715 C714 1.369 . S
C715 C716 1.410 . S
C715 C723 1.503 . S
C716 C715 1.410 . S
C716 C717 1.392 . S
C716 C719 1.511 . S
C717 C713 1.376 . S
C717 C716 1.392 . S
C717 H729 0.929 . S
C718 C714 1.531 1_556 S
C718 H730 0.960 1_556 S
C718 H731 0.962 . S
C718 H732 0.960 1_556 S
C719 C716 1.511 . S
C719 H733 0.961 . S
C719 H734 0.961 . S
C719 H735 0.961 . S
C720 C721 1.370 . S
C720 C722 1.363 . S
C720 H736 0.931 . S
C721 C720 1.370 . S
C721 C725 1.408 1_556 S
C722 C720 1.363 . S
C722 C723 1.370 1_556 S
C722 C726 1.524 . S
C723 C715 1.503 . S
C723 C722 1.370 1_554 S
C723 C724 1.403 . S
C724 C723 1.403 . S
C724 C725 1.404 . S
C724 C727 1.539 . S
C725 C721 1.408 1_554 S
C725 C724 1.404 . S
C725 H737 0.930 . S
C726 C722 1.524 . S
C726 H738 0.956 . S
C726 H739 0.961 . S
C726 H740 0.961 . S
C727 C724 1.539 . S
C727 H741 0.958 . S
C727 H742 0.961 . S
C727 H743 0.960 . S
H728 C712 0.931 . S
H729 C717 0.929 . S
H730 C718 0.960 1_554 S
H731 C718 0.962 . S
H732 C718 0.960 1_554 S
H733 C719 0.961 . S
H734 C719 0.961 . S
H735 C719 0.961 . S
H736 C720 0.931 . S
H737 C725 0.930 . S
H738 C726 0.956 . S
H739 C726 0.961 . S
H740 C726 0.961 . S
H741 C727 0.958 . S
H742 C727 0.961 . S
H743 C727 0.960 . S
C744 C745 1.391 . S
C744 C746 1.394 . S
C744 H760 0.931 . S
C745 C744 1.391 . S
C745 C749 1.376 . S
C746 C744 1.394 . S
C746 C747 1.369 . S
C746 C750 1.531 . S
C747 C746 1.369 . S
C747 C748 1.410 . S
C747 C755 1.503 . S
C748 C747 1.410 . S
C748 C749 1.392 . S
C748 C751 1.511 . S
C749 C745 1.376 . S
C749 C748 1.392 . S
C749 H761 0.929 . S
C750 C746 1.531 . S
C750 H762 0.960 . S
C750 H763 0.962 . S
C750 H764 0.960 . S
C751 C748 1.511 . S
C751 H765 0.961 . S
C751 H766 0.961 . S
C751 H767 0.961 . S
C752 C753 1.370 . S
C752 C754 1.363 . S
C752 H768 0.931 . S
C753 C752 1.370 . S
C753 C757 1.408 . S
C754 C752 1.363 . S
C754 C755 1.370 . S
C754 C758 1.524 . S
C755 C747 1.503 . S
C755 C754 1.370 . S
C755 C756 1.403 . S
C756 C755 1.403 . S
C756 C757 1.404 . S
C756 C759 1.539 . S
C757 C753 1.408 . S
C757 C756 1.404 . S
C757 H769 0.930 . S
C758 C754 1.524 . S
C758 H770 0.956 . S
C758 H771 0.961 . S
C758 H772 0.961 . S
C759 C756 1.539 . S
C759 H773 0.958 . S
C759 H774 0.961 . S
C759 H775 0.960 . S
H760 C744 0.931 . S
H761 C749 0.929 . S
H762 C750 0.960 . S
H763 C750 0.962 . S
H764 C750 0.960 . S
H765 C751 0.961 . S
H766 C751 0.961 . S
H767 C751 0.961 . S
H768 C752 0.931 . S
H769 C757 0.930 . S
H770 C758 0.956 . S
H771 C758 0.961 . S
H772 C758 0.961 . S
H773 C759 0.958 . S
H774 C759 0.961 . S
H775 C759 0.960 . S
C776 C777 1.391 . S
C776 C778 1.394 . S
C776 H792 0.931 . S
C777 C776 1.391 . S
C777 C781 1.376 . S
C778 C776 1.394 . S
C778 C779 1.369 . S
C778 C782 1.531 . S
C779 C778 1.369 . S
C779 C780 1.410 . S
C779 C787 1.503 . S
C780 C779 1.410 . S
C780 C781 1.392 . S
C780 C783 1.511 . S
C781 C777 1.376 . S
C781 C780 1.392 . S
C781 H793 0.929 . S
C782 C778 1.531 . S
C782 H794 0.960 . S
C782 H795 0.962 . S
C782 H796 0.960 . S
C783 C780 1.511 . S
C783 H797 0.961 . S
C783 H798 0.961 . S
C783 H799 0.961 . S
C784 C785 1.370 . S
C784 C786 1.363 . S
C784 H800 0.931 . S
C785 C784 1.370 . S
C785 C789 1.408 . S
C786 C784 1.363 . S
C786 C787 1.370 . S
C786 C790 1.524 . S
C787 C779 1.503 . S
C787 C786 1.370 . S
C787 C788 1.403 . S
C788 C787 1.403 . S
C788 C789 1.404 . S
C788 C791 1.539 . S
C789 C785 1.408 . S
C789 C788 1.404 . S
C789 H801 0.930 . S
C790 C786 1.524 . S
C790 H802 0.956 . S
C790 H803 0.961 . S
C790 H804 0.961 . S
C791 C788 1.539 . S
C791 H805 0.958 . S
C791 H806 0.961 . S
C791 H807 0.960 . S
H792 C776 0.931 . S
H793 C781 0.929 . S
H794 C782 0.960 . S
H795 C782 0.962 . S
H796 C782 0.960 . S
H797 C783 0.961 . S
H798 C783 0.961 . S
H799 C783 0.961 . S
H800 C784 0.931 . S
H801 C789 0.930 . S
H802 C790 0.956 . S
H803 C790 0.961 . S
H804 C790 0.961 . S
H805 C791 0.958 . S
H806 C791 0.961 . S
H807 C791 0.960 . S
C808 C809 1.391 . S
C808 C810 1.394 . S
C808 H824 0.931 . S
C809 C808 1.391 . S
C809 C813 1.376 . S
C810 C808 1.394 . S
C810 C811 1.369 . S
C810 C814 1.531 . S
C811 C810 1.369 . S
C811 C812 1.410 . S
C811 C819 1.503 . S
C812 C811 1.410 . S
C812 C813 1.392 . S
C812 C815 1.511 . S
C813 C809 1.376 . S
C813 C812 1.392 . S
C813 H825 0.929 . S
C814 C810 1.531 . S
C814 H826 0.960 . S
C814 H827 0.962 . S
C814 H828 0.960 . S
C815 C812 1.511 . S
C815 H829 0.961 . S
C815 H830 0.961 . S
C815 H831 0.961 . S
C816 C817 1.370 . S
C816 C818 1.363 . S
C816 H832 0.931 . S
C817 C816 1.370 . S
C817 C821 1.408 . S
C818 C816 1.363 . S
C818 C819 1.370 . S
C818 C822 1.524 . S
C819 C811 1.503 . S
C819 C818 1.370 . S
C819 C820 1.403 . S
C820 C819 1.403 . S
C820 C821 1.404 . S
C820 C823 1.539 . S
C821 C817 1.408 . S
C821 C820 1.404 . S
C821 H833 0.930 . S
C822 C818 1.524 . S
C822 H834 0.956 . S
C822 H835 0.961 . S
C822 H836 0.961 . S
C823 C820 1.539 . S
C823 H837 0.958 . S
C823 H838 0.961 . S
C823 H839 0.960 . S
H824 C808 0.931 . S
H825 C813 0.929 . S
H826 C814 0.960 . S
H827 C814 0.962 . S
H828 C814 0.960 . S
H829 C815 0.961 . S
H830 C815 0.961 . S
H831 C815 0.961 . S
H832 C816 0.931 . S
H833 C821 0.930 . S
H834 C822 0.956 . S
H835 C822 0.961 . S
H836 C822 0.961 . S
H837 C823 0.958 . S
H838 C823 0.961 . S
H839 C823 0.960 . S
C840 C841 1.391 . S
C840 C842 1.394 . S
C840 H856 0.931 . S
C841 C840 1.391 . S
C841 C845 1.376 . S
C842 C840 1.394 . S
C842 C843 1.369 . S
C842 C846 1.531 . S
C843 C842 1.369 . S
C843 C844 1.410 . S
C843 C851 1.503 . S
C844 C843 1.410 . S
C844 C845 1.392 . S
C844 C847 1.511 . S
C845 C841 1.376 . S
C845 C844 1.392 . S
C845 H857 0.929 . S
C846 C842 1.531 . S
C846 H858 0.960 . S
C846 H859 0.962 . S
C846 H860 0.960 . S
C847 C844 1.511 . S
C847 H861 0.961 . S
C847 H862 0.961 . S
C847 H863 0.961 . S
C848 C849 1.370 . S
C848 C850 1.363 . S
C848 H864 0.931 . S
C849 C848 1.370 . S
C849 C853 1.408 . S
C850 C848 1.363 . S
C850 C851 1.370 . S
C850 C854 1.524 . S
C851 C843 1.503 . S
C851 C850 1.370 . S
C851 C852 1.403 . S
C852 C851 1.403 . S
C852 C853 1.404 . S
C852 C855 1.539 . S
C853 C849 1.408 . S
C853 C852 1.404 . S
C853 H865 0.930 . S
C854 C850 1.524 . S
C854 H866 0.956 . S
C854 H867 0.961 . S
C854 H868 0.961 . S
C855 C852 1.539 . S
C855 H869 0.958 . S
C855 H870 0.961 . S
C855 H871 0.960 . S
H856 C840 0.931 . S
H857 C845 0.929 . S
H858 C846 0.960 . S
H859 C846 0.962 . S
H860 C846 0.960 . S
H861 C847 0.961 . S
H862 C847 0.961 . S
H863 C847 0.961 . S
H864 C848 0.931 . S
H865 C853 0.930 . S
H866 C854 0.956 . S
H867 C854 0.961 . S
H868 C854 0.961 . S
H869 C855 0.958 . S
H870 C855 0.961 . S
H871 C855 0.960 . S
C872 C873 1.391 . S
C872 C874 1.394 . S
C872 H888 0.931 . S
C873 C872 1.391 . S
C873 C877 1.376 . S
C874 C872 1.394 . S
C874 C875 1.369 . S
C874 C878 1.531 . S
C875 C874 1.369 . S
C875 C876 1.410 . S
C875 C883 1.503 . S
C876 C875 1.410 . S
C876 C877 1.392 . S
C876 C879 1.511 . S
C877 C873 1.376 . S
C877 C876 1.392 . S
C877 H889 0.929 . S
C878 C874 1.531 . S
C878 H890 0.960 . S
C878 H891 0.962 . S
C878 H892 0.960 . S
C879 C876 1.511 . S
C879 H893 0.961 . S
C879 H894 0.961 . S
C879 H895 0.961 . S
C880 C881 1.370 . S
C880 C882 1.363 . S
C880 H896 0.931 . S
C881 C880 1.370 . S
C881 C885 1.408 . S
C882 C880 1.363 . S
C882 C883 1.370 . S
C882 C886 1.524 . S
C883 C875 1.503 . S
C883 C882 1.370 . S
C883 C884 1.403 . S
C884 C883 1.403 . S
C884 C885 1.404 . S
C884 C887 1.539 . S
C885 C881 1.408 . S
C885 C884 1.404 . S
C885 H897 0.930 . S
C886 C882 1.524 . S
C886 H898 0.956 . S
C886 H899 0.961 . S
C886 H900 0.961 . S
C887 C884 1.539 . S
C887 H901 0.958 . S
C887 H902 0.961 . S
C887 H903 0.960 . S
H888 C872 0.931 . S
H889 C877 0.929 . S
H890 C878 0.960 . S
H891 C878 0.962 . S
H892 C878 0.960 . S
H893 C879 0.961 . S
H894 C879 0.961 . S
H895 C879 0.961 . S
H896 C880 0.931 . S
H897 C885 0.930 . S
H898 C886 0.956 . S
H899 C886 0.961 . S
H900 C886 0.961 . S
H901 C887 0.958 . S
H902 C887 0.961 . S
H903 C887 0.960 . S
C904 C905 1.391 . S
C904 C906 1.394 . S
C904 H920 0.931 . S
C905 C904 1.391 . S
C905 C909 1.376 . S
C906 C904 1.394 . S
C906 C907 1.369 . S
C906 C910 1.531 . S
C907 C906 1.369 . S
C907 C908 1.410 . S
C907 C915 1.503 . S
C908 C907 1.410 . S
C908 C909 1.392 . S
C908 C911 1.511 . S
C909 C905 1.376 . S
C909 C908 1.392 . S
C909 H921 0.929 . S
C910 C906 1.531 . S
C910 H922 0.960 . S
C910 H923 0.962 . S
C910 H924 0.960 . S
C911 C908 1.511 . S
C911 H925 0.961 . S
C911 H926 0.961 . S
C911 H927 0.961 . S
C912 C913 1.370 . S
C912 C914 1.363 . S
C912 H928 0.931 . S
C913 C912 1.370 . S
C913 C917 1.408 . S
C914 C912 1.363 . S
C914 C915 1.370 . S
C914 C918 1.524 . S
C915 C907 1.503 . S
C915 C914 1.370 . S
C915 C916 1.403 . S
C916 C915 1.403 . S
C916 C917 1.404 . S
C916 C919 1.539 . S
C917 C913 1.408 . S
C917 C916 1.404 . S
C917 H929 0.930 . S
C918 C914 1.524 . S
C918 H930 0.956 . S
C918 H931 0.961 . S
C918 H932 0.961 . S
C919 C916 1.539 . S
C919 H933 0.958 . S
C919 H934 0.961 . S
C919 H935 0.960 . S
H920 C904 0.931 . S
H921 C909 0.929 . S
H922 C910 0.960 . S
H923 C910 0.962 . S
H924 C910 0.960 . S
H925 C911 0.961 . S
H926 C911 0.961 . S
H927 C911 0.961 . S
H928 C912 0.931 . S
H929 C917 0.930 . S
H930 C918 0.956 . S
H931 C918 0.961 . S
H932 C918 0.961 . S
H933 C919 0.958 . S
H934 C919 0.961 . S
H935 C919 0.960 . S
C936 C937 1.391 . S
C936 C938 1.394 . S
C936 H952 0.931 1_455 S
C937 C936 1.391 . S
C937 C941 1.376 . S
C938 C936 1.394 . S
C938 C939 1.369 . S
C938 C942 1.531 1_455 S
C939 C938 1.369 . S
C939 C940 1.410 . S
C939 C947 1.503 . S
C940 C939 1.410 . S
C940 C941 1.392 . S
C940 C943 1.511 . S
C941 C937 1.376 . S
C941 C940 1.392 . S
C941 H953 0.929 . S
C942 C938 1.531 1_655 S
C942 H954 0.960 1_655 S
C942 H955 0.962 . S
C942 H956 0.960 . S
C943 C940 1.511 . S
C943 H957 0.961 . S
C943 H958 0.961 . S
C943 H959 0.961 . S
C944 C945 1.370 . S
C944 C946 1.363 . S
C944 H960 0.931 1_455 S
C945 C944 1.370 . S
C945 C949 1.408 . S
C946 C944 1.363 . S
C946 C947 1.370 . S
C946 C950 1.524 1_455 S
C947 C939 1.503 . S
C947 C946 1.370 . S
C947 C948 1.403 . S
C948 C947 1.403 . S
C948 C949 1.404 . S
C948 C951 1.539 . S
C949 C945 1.408 . S
C949 C948 1.404 . S
C949 H961 0.930 . S
C950 C946 1.524 1_655 S
C950 H962 0.956 . S
C950 H963 0.961 . S
C950 H964 0.961 . S
C951 C948 1.539 . S
C951 H965 0.958 . S
C951 H966 0.961 . S
C951 H967 0.960 . S
H952 C936 0.931 1_655 S
H953 C941 0.929 . S
H954 C942 0.960 1_455 S
H955 C942 0.962 . S
H956 C942 0.960 . S
H957 C943 0.961 . S
H958 C943 0.961 . S
H959 C943 0.961 . S
H960 C944 0.931 1_655 S
H961 C949 0.930 . S
H962 C950 0.956 . S
H963 C950 0.961 . S
H964 C950 0.961 . S
H965 C951 0.958 . S
H966 C951 0.961 . S
H967 C951 0.960 . S
C968 C969 1.391 . S
C968 C970 1.394 . S
C968 H984 0.931 . S
C969 C968 1.391 . S
C969 C973 1.376 . S
C970 C968 1.394 . S
C970 C971 1.369 . S
C970 C974 1.531 . S
C971 C970 1.369 . S
C971 C972 1.410 . S
C971 C979 1.503 . S
C972 C971 1.410 . S
C972 C973 1.392 . S
C972 C975 1.511 . S
C973 C969 1.376 . S
C973 C972 1.392 . S
C973 H985 0.929 . S
C974 C970 1.531 . S
C974 H986 0.960 . S
C974 H987 0.962 . S
C974 H988 0.960 . S
C975 C972 1.511 . S
C975 H989 0.961 . S
C975 H990 0.961 . S
C975 H991 0.961 . S
C976 C977 1.370 . S
C976 C978 1.363 . S
C976 H992 0.931 . S
C977 C976 1.370 . S
C977 C981 1.408 . S
C978 C976 1.363 . S
C978 C979 1.370 . S
C978 C982 1.524 . S
C979 C971 1.503 . S
C979 C978 1.370 . S
C979 C980 1.403 . S
C980 C979 1.403 . S
C980 C981 1.404 . S
C980 C983 1.539 . S
C981 C977 1.408 . S
C981 C980 1.404 . S
C981 H993 0.930 . S
C982 C978 1.524 . S
C982 H994 0.956 . S
C982 H995 0.961 . S
C982 H996 0.961 . S
C983 C980 1.539 . S
C983 H997 0.958 . S
C983 H998 0.961 . S
C983 H999 0.960 . S
H984 C968 0.931 . S
H985 C973 0.929 . S
H986 C974 0.960 . S
H987 C974 0.962 . S
H988 C974 0.960 . S
H989 C975 0.961 . S
H990 C975 0.961 . S
H991 C975 0.961 . S
H992 C976 0.931 . S
H993 C981 0.930 . S
H994 C982 0.956 . S
H995 C982 0.961 . S
H996 C982 0.961 . S
H997 C983 0.958 . S
H998 C983 0.961 . S
H999 C983 0.960 . S
C1000 C1001 1.391 . S
C1000 C1002 1.394 . S
C1000 H1016 0.931 . S
C1001 C1000 1.391 . S
C1001 C1005 1.376 . S
C1002 C1000 1.394 . S
C1002 C1003 1.369 . S
C1002 C1006 1.531 1_545 S
C1003 C1002 1.369 . S
C1003 C1004 1.410 . S
C1003 C1011 1.503 . S
C1004 C1003 1.410 . S
C1004 C1005 1.392 . S
C1004 C1007 1.511 . S
C1005 C1001 1.376 . S
C1005 C1004 1.392 . S
C1005 H1017 0.929 . S
C1006 C1002 1.531 1_565 S
C1006 H1018 0.960 . S
C1006 H1019 0.962 1_565 S
C1006 H1020 0.960 . S
C1007 C1004 1.511 . S
C1007 H1021 0.961 . S
C1007 H1022 0.961 . S
C1007 H1023 0.961 . S
C1008 C1009 1.370 . S
C1008 C1010 1.363 . S
C1008 H1024 0.931 . S
C1009 C1008 1.370 . S
C1009 C1013 1.408 1_545 S
C1010 C1008 1.363 . S
C1010 C1011 1.370 . S
C1010 C1014 1.524 . S
C1011 C1003 1.503 . S
C1011 C1010 1.370 . S
C1011 C1012 1.403 1_545 S
C1012 C1011 1.403 1_565 S
C1012 C1013 1.404 . S
C1012 C1015 1.539 . S
C1013 C1009 1.408 1_565 S
C1013 C1012 1.404 . S
C1013 H1025 0.930 . S
C1014 C1010 1.524 . S
C1014 H1026 0.956 . S
C1014 H1027 0.961 . S
C1014 H1028 0.961 . S
C1015 C1012 1.539 . S
C1015 H1029 0.958 . S
C1015 H1030 0.961 . S
C1015 H1031 0.960 . S
H1016 C1000 0.931 . S
H1017 C1005 0.929 . S
H1018 C1006 0.960 . S
H1019 C1006 0.962 1_545 S
H1020 C1006 0.960 . S
H1021 C1007 0.961 . S
H1022 C1007 0.961 . S
H1023 C1007 0.961 . S
H1024 C1008 0.931 . S
H1025 C1013 0.930 . S
H1026 C1014 0.956 . S
H1027 C1014 0.961 . S
H1028 C1014 0.961 . S
H1029 C1015 0.958 . S
H1030 C1015 0.961 . S
H1031 C1015 0.960 . S
C1032 C1033 1.391 . S
C1032 C1034 1.394 . S
C1032 H1048 0.931 . S
C1033 C1032 1.391 . S
C1033 C1037 1.376 . S
C1034 C1032 1.394 . S
C1034 C1035 1.369 . S
C1034 C1038 1.531 . S
C1035 C1034 1.369 . S
C1035 C1036 1.410 . S
C1035 C1043 1.503 . S
C1036 C1035 1.410 . S
C1036 C1037 1.392 . S
C1036 C1039 1.511 . S
C1037 C1033 1.376 . S
C1037 C1036 1.392 . S
C1037 H1049 0.929 . S
C1038 C1034 1.531 . S
C1038 H1050 0.960 . S
C1038 H1051 0.962 . S
C1038 H1052 0.960 . S
C1039 C1036 1.511 . S
C1039 H1053 0.961 . S
C1039 H1054 0.961 . S
C1039 H1055 0.961 . S
C1040 C1041 1.370 . S
C1040 C1042 1.363 1_554 S
C1040 H1056 0.931 . S
C1041 C1040 1.370 . S
C1041 C1045 1.408 . S
C1042 C1040 1.363 1_556 S
C1042 C1043 1.370 . S
C1042 C1046 1.524 . S
C1043 C1035 1.503 . S
C1043 C1042 1.370 . S
C1043 C1044 1.403 . S
C1044 C1043 1.403 . S
C1044 C1045 1.404 1_556 S
C1044 C1047 1.539 . S
C1045 C1041 1.408 . S
C1045 C1044 1.404 1_554 S
C1045 H1057 0.930 . S
C1046 C1042 1.524 . S
C1046 H1058 0.956 . S
C1046 H1059 0.961 . S
C1046 H1060 0.961 . S
C1047 C1044 1.539 . S
C1047 H1061 0.958 . S
C1047 H1062 0.961 . S
C1047 H1063 0.960 . S
H1048 C1032 0.931 . S
H1049 C1037 0.929 . S
H1050 C1038 0.960 . S
H1051 C1038 0.962 . S
H1052 C1038 0.960 . S
H1053 C1039 0.961 . S
H1054 C1039 0.961 . S
H1055 C1039 0.961 . S
H1056 C1040 0.931 . S
H1057 C1045 0.930 . S
H1058 C1046 0.956 . S
H1059 C1046 0.961 . S
H1060 C1046 0.961 . S
H1061 C1047 0.958 . S
H1062 C1047 0.961 . S
H1063 C1047 0.960 . S
C1064 C1065 1.391 . S
C1064 C1066 1.394 . S
C1064 H1080 0.931 . S
C1065 C1064 1.391 . S
C1065 C1069 1.376 . S
C1066 C1064 1.394 . S
C1066 C1067 1.369 . S
C1066 C1070 1.531 . S
C1067 C1066 1.369 . S
C1067 C1068 1.410 . S
C1067 C1075 1.503 . S
C1068 C1067 1.410 . S
C1068 C1069 1.392 . S
C1068 C1071 1.511 . S
C1069 C1065 1.376 . S
C1069 C1068 1.392 . S
C1069 H1081 0.929 . S
C1070 C1066 1.531 . S
C1070 H1082 0.960 . S
C1070 H1083 0.962 . S
C1070 H1084 0.960 . S
C1071 C1068 1.511 . S
C1071 H1085 0.961 . S
C1071 H1086 0.961 . S
C1071 H1087 0.961 . S
C1072 C1073 1.370 . S
C1072 C1074 1.363 1_554 S
C1072 H1088 0.931 . S
C1073 C1072 1.370 . S
C1073 C1077 1.408 . S
C1074 C1072 1.363 1_556 S
C1074 C1075 1.370 . S
C1074 C1078 1.524 . S
C1075 C1067 1.503 . S
C1075 C1074 1.370 . S
C1075 C1076 1.403 . S
C1076 C1075 1.403 . S
C1076 C1077 1.404 1_556 S
C1076 C1079 1.539 . S
C1077 C1073 1.408 . S
C1077 C1076 1.404 1_554 S
C1077 H1089 0.930 . S
C1078 C1074 1.524 . S
C1078 H1090 0.956 . S
C1078 H1091 0.961 . S
C1078 H1092 0.961 . S
C1079 C1076 1.539 . S
C1079 H1093 0.958 . S
C1079 H1094 0.961 . S
C1079 H1095 0.960 . S
H1080 C1064 0.931 . S
H1081 C1069 0.929 . S
H1082 C1070 0.960 . S
H1083 C1070 0.962 . S
H1084 C1070 0.960 . S
H1085 C1071 0.961 . S
H1086 C1071 0.961 . S
H1087 C1071 0.961 . S
H1088 C1072 0.931 . S
H1089 C1077 0.930 . S
H1090 C1078 0.956 . S
H1091 C1078 0.961 . S
H1092 C1078 0.961 . S
H1093 C1079 0.958 . S
H1094 C1079 0.961 . S
H1095 C1079 0.960 . S
C1096 C1097 1.391 . S
C1096 C1098 1.394 . S
C1096 H1112 0.931 . S
C1097 C1096 1.391 . S
C1097 C1101 1.376 . S
C1098 C1096 1.394 . S
C1098 C1099 1.369 . S
C1098 C1102 1.531 . S
C1099 C1098 1.369 . S
C1099 C1100 1.410 . S
C1099 C1107 1.503 . S
C1100 C1099 1.410 . S
C1100 C1101 1.392 . S
C1100 C1103 1.511 . S
C1101 C1097 1.376 . S
C1101 C1100 1.392 . S
C1101 H1113 0.929 . S
C1102 C1098 1.531 . S
C1102 H1114 0.960 . S
C1102 H1115 0.962 . S
C1102 H1116 0.960 . S
C1103 C1100 1.511 . S
C1103 H1117 0.961 . S
C1103 H1118 0.961 . S
C1103 H1119 0.961 . S
C1104 C1105 1.370 . S
C1104 C1106 1.363 1_554 S
C1104 H1120 0.931 . S
C1105 C1104 1.370 . S
C1105 C1109 1.408 . S
C1106 C1104 1.363 1_556 S
C1106 C1107 1.370 . S
C1106 C1110 1.524 . S
C1107 C1099 1.503 . S
C1107 C1106 1.370 . S
C1107 C1108 1.403 . S
C1108 C1107 1.403 . S
C1108 C1109 1.404 1_556 S
C1108 C1111 1.539 . S
C1109 C1105 1.408 . S
C1109 C1108 1.404 1_554 S
C1109 H1121 0.930 . S
C1110 C1106 1.524 . S
C1110 H1122 0.956 . S
C1110 H1123 0.961 . S
C1110 H1124 0.961 . S
C1111 C1108 1.539 . S
C1111 H1125 0.958 . S
C1111 H1126 0.961 . S
C1111 H1127 0.960 . S
H1112 C1096 0.931 . S
H1113 C1101 0.929 . S
H1114 C1102 0.960 . S
H1115 C1102 0.962 . S
H1116 C1102 0.960 . S
H1117 C1103 0.961 . S
H1118 C1103 0.961 . S
H1119 C1103 0.961 . S
H1120 C1104 0.931 . S
H1121 C1109 0.930 . S
H1122 C1110 0.956 . S
H1123 C1110 0.961 . S
H1124 C1110 0.961 . S
H1125 C1111 0.958 . S
H1126 C1111 0.961 . S
H1127 C1111 0.960 . S
C1128 C1129 1.391 . S
C1128 C1130 1.394 . S
C1128 H1144 0.931 . S
C1129 C1128 1.391 . S
C1129 C1133 1.376 . S
C1130 C1128 1.394 . S
C1130 C1131 1.369 . S
C1130 C1134 1.531 . S
C1131 C1130 1.369 . S
C1131 C1132 1.410 . S
C1131 C1139 1.503 . S
C1132 C1131 1.410 . S
C1132 C1133 1.392 . S
C1132 C1135 1.511 . S
C1133 C1129 1.376 . S
C1133 C1132 1.392 . S
C1133 H1145 0.929 . S
C1134 C1130 1.531 . S
C1134 H1146 0.960 . S
C1134 H1147 0.962 . S
C1134 H1148 0.960 . S
C1135 C1132 1.511 . S
C1135 H1149 0.961 . S
C1135 H1150 0.961 . S
C1135 H1151 0.961 . S
C1136 C1137 1.370 . S
C1136 C1138 1.363 1_556 S
C1136 H1152 0.931 . S
C1137 C1136 1.370 . S
C1137 C1141 1.408 . S
C1138 C1136 1.363 1_554 S
C1138 C1139 1.370 . S
C1138 C1142 1.524 . S
C1139 C1131 1.503 . S
C1139 C1138 1.370 . S
C1139 C1140 1.403 . S
C1140 C1139 1.403 . S
C1140 C1141 1.404 1_554 S
C1140 C1143 1.539 . S
C1141 C1137 1.408 . S
C1141 C1140 1.404 1_556 S
C1141 H1153 0.930 . S
C1142 C1138 1.524 . S
C1142 H1154 0.956 . S
C1142 H1155 0.961 . S
C1142 H1156 0.961 . S
C1143 C1140 1.539 . S
C1143 H1157 0.958 . S
C1143 H1158 0.961 . S
C1143 H1159 0.960 . S
H1144 C1128 0.931 . S
H1145 C1133 0.929 . S
H1146 C1134 0.960 . S
H1147 C1134 0.962 . S
H1148 C1134 0.960 . S
H1149 C1135 0.961 . S
H1150 C1135 0.961 . S
H1151 C1135 0.961 . S
H1152 C1136 0.931 . S
H1153 C1141 0.930 . S
H1154 C1142 0.956 . S
H1155 C1142 0.961 . S
H1156 C1142 0.961 . S
H1157 C1143 0.958 . S
H1158 C1143 0.961 . S
H1159 C1143 0.960 . S
C1160 C1161 1.391 . S
C1160 C1162 1.394 1_556 S
C1160 H1176 0.931 . S
C1161 C1160 1.391 . S
C1161 C1165 1.376 . S
C1162 C1160 1.394 1_554 S
C1162 C1163 1.369 . S
C1162 C1166 1.531 . S
C1163 C1162 1.369 . S
C1163 C1164 1.410 . S
C1163 C1171 1.503 . S
C1164 C1163 1.410 . S
C1164 C1165 1.392 1_554 S
C1164 C1167 1.511 . S
C1165 C1161 1.376 . S
C1165 C1164 1.392 1_556 S
C1165 H1177 0.929 . S
C1166 C1162 1.531 . S
C1166 H1178 0.960 . S
C1166 H1179 0.962 . S
C1166 H1180 0.960 . S
C1167 C1164 1.511 . S
C1167 H1181 0.961 . S
C1167 H1182 0.961 . S
C1167 H1183 0.961 . S
C1168 C1169 1.370 . S
C1168 C1170 1.363 . S
C1168 H1184 0.931 . S
C1169 C1168 1.370 . S
C1169 C1173 1.408 . S
C1170 C1168 1.363 . S
C1170 C1171 1.370 . S
C1170 C1174 1.524 . S
C1171 C1163 1.503 . S
C1171 C1170 1.370 . S
C1171 C1172 1.403 . S
C1172 C1171 1.403 . S
C1172 C1173 1.404 . S
C1172 C1175 1.539 . S
C1173 C1169 1.408 . S
C1173 C1172 1.404 . S
C1173 H1185 0.930 . S
C1174 C1170 1.524 . S
C1174 H1186 0.956 . S
C1174 H1187 0.961 . S
C1174 H1188 0.961 . S
C1175 C1172 1.539 . S
C1175 H1189 0.958 . S
C1175 H1190 0.961 . S
C1175 H1191 0.960 . S
H1176 C1160 0.931 . S
H1177 C1165 0.929 . S
H1178 C1166 0.960 . S
H1179 C1166 0.962 . S
H1180 C1166 0.960 . S
H1181 C1167 0.961 . S
H1182 C1167 0.961 . S
H1183 C1167 0.961 . S
H1184 C1168 0.931 . S
H1185 C1173 0.930 . S
H1186 C1174 0.956 . S
H1187 C1174 0.961 . S
H1188 C1174 0.961 . S
H1189 C1175 0.958 . S
H1190 C1175 0.961 . S
H1191 C1175 0.960 . S
C1192 C1193 1.391 . S
C1192 C1194 1.394 . S
C1192 H1208 0.931 . S
C1193 C1192 1.391 . S
C1193 C1197 1.376 . S
C1194 C1192 1.394 . S
C1194 C1195 1.369 . S
C1194 C1198 1.531 . S
C1195 C1194 1.369 . S
C1195 C1196 1.410 . S
C1195 C1203 1.503 . S
C1196 C1195 1.410 . S
C1196 C1197 1.392 . S
C1196 C1199 1.511 . S
C1197 C1193 1.376 . S
C1197 C1196 1.392 . S
C1197 H1209 0.929 . S
C1198 C1194 1.531 . S
C1198 H1210 0.960 . S
C1198 H1211 0.962 . S
C1198 H1212 0.960 . S
C1199 C1196 1.511 . S
C1199 H1213 0.961 . S
C1199 H1214 0.961 . S
C1199 H1215 0.961 . S
C1200 C1201 1.370 . S
C1200 C1202 1.363 1_556 S
C1200 H1216 0.931 . S
C1201 C1200 1.370 . S
C1201 C1205 1.408 . S
C1202 C1200 1.363 1_554 S
C1202 C1203 1.370 . S
C1202 C1206 1.524 . S
C1203 C1195 1.503 . S
C1203 C1202 1.370 . S
C1203 C1204 1.403 . S
C1204 C1203 1.403 . S
C1204 C1205 1.404 1_554 S
C1204 C1207 1.539 . S
C1205 C1201 1.408 . S
C1205 C1204 1.404 1_556 S
C1205 H1217 0.930 . S
C1206 C1202 1.524 . S
C1206 H1218 0.956 . S
C1206 H1219 0.961 . S
C1206 H1220 0.961 . S
C1207 C1204 1.539 . S
C1207 H1221 0.958 . S
C1207 H1222 0.961 . S
C1207 H1223 0.960 . S
H1208 C1192 0.931 . S
H1209 C1197 0.929 . S
H1210 C1198 0.960 . S
H1211 C1198 0.962 . S
H1212 C1198 0.960 . S
H1213 C1199 0.961 . S
H1214 C1199 0.961 . S
H1215 C1199 0.961 . S
H1216 C1200 0.931 . S
H1217 C1205 0.930 . S
H1218 C1206 0.956 . S
H1219 C1206 0.961 . S
H1220 C1206 0.961 . S
H1221 C1207 0.958 . S
H1222 C1207 0.961 . S
H1223 C1207 0.960 . S
C361 C6 1.970 1_556 S
C369 C290 2.058 . S
C393 C46 2.015 1_556 S
C401 C330 2.050 . S
C425 C86 1.998 1_556 S
C433 C250 2.055 . S
C457 C166 1.979 . S
C465 C90 2.057 . S
C489 C206 1.980 . S
C497 C10 2.058 . S
C521 C50 2.041 . S
C529 C126 1.995 . S
C553 C286 1.968 . S
C561 C210 2.057 . S
C585 C326 1.973 . S
C593 C130 2.054 . S
C617 C170 2.048 . S
C625 C246 1.989 1_545 S
C649 C95 1.678 . S
C657 C19 1.671 . S
C681 C59 1.678 . S
C689 C15 1.687 1_556 S
C713 C55 1.686 1_455 S
C721 C99 1.671 . S
C745 C139 1.665 . S
C753 C215 1.685 . S
C777 C135 1.695 . S
C785 C179 1.681 . S
C809 C175 1.693 . S
C817 C219 1.683 . S
C841 C335 1.684 . S
C849 C259 1.683 . S
C873 C299 1.683 . S
C881 C255 1.693 . S
C905 C339 1.678 . S
C913 C295 1.686 . S
C937 C9 0.884 . S
C945 C18 0.970 . S
C969 C49 0.887 . S
C977 C58 0.968 . S
C1001 C89 0.916 . S
C1009 C98 0.954 . S
C1033 C138 0.885 . S
C1041 C129 0.969 . S
C1065 C178 0.949 . S
C1073 C169 0.940 . S
C1097 C218 1.002 . S
C1105 C209 0.921 . S
C1129 C249 0.990 . S
C1137 C258 0.929 . S
C1161 C298 0.985 . S
C1169 C289 0.926 . S
C1193 C329 0.991 . S
C1201 C338 0.929 . S
