# Generated by pormake.
# Topology vmo, (7)-cn, num edge types: 1
# Building blocks:
#     Node 0, Type 0, BuildingBlock: NUHQUE_clean_sbu_2, # of connection points: 7
#     Node 1, Type 0, BuildingBlock: NUHQUE_clean_sbu_2, # of connection points: 7
#     Node 2, Type 0, BuildingBlock: NUHQUE_clean_sbu_2, # of connection points: 7
#     Node 3, Type 0, BuildingBlock: NUHQUE_clean_sbu_2, # of connection points: 7
#     Node 4, Type 0, BuildingBlock: NUHQUE_clean_sbu_2, # of connection points: 7
#     Node 5, Type 0, BuildingBlock: NUHQUE_clean_sbu_2, # of connection points: 7
#     Node 6, Type 0, BuildingBlock: NUHQUE_clean_sbu_2, # of connection points: 7
#     Node 7, Type 0, BuildingBlock: NUHQUE_clean_sbu_2, # of connection points: 7
#     Edge 8, Type (0, 0), BuildingBlock: XIVTED_clean_linker_0, # of connection points: 2
#     Edge 9, Type (0, 0), BuildingBlock: XIVTED_clean_linker_0, # of connection points: 2
#     Edge 10, Type (0, 0), BuildingBlock: XIVTED_clean_linker_0, # of connection points: 2
#     Edge 11, Type (0, 0), BuildingBlock: XIVTED_clean_linker_0, # of connection points: 2
#     Edge 12, Type (0, 0), BuildingBlock: XIVTED_clean_linker_0, # of connection points: 2
#     Edge 13, Type (0, 0), BuildingBlock: XIVTED_clean_linker_0, # of connection points: 2
#     Edge 14, Type (0, 0), BuildingBlock: XIVTED_clean_linker_0, # of connection points: 2
#     Edge 15, Type (0, 0), BuildingBlock: XIVTED_clean_linker_0, # of connection points: 2
#     Edge 16, Type (0, 0), BuildingBlock: XIVTED_clean_linker_0, # of connection points: 2
#     Edge 17, Type (0, 0), BuildingBlock: XIVTED_clean_linker_0, # of connection points: 2
#     Edge 18, Type (0, 0), BuildingBlock: XIVTED_clean_linker_0, # of connection points: 2
#     Edge 19, Type (0, 0), BuildingBlock: XIVTED_clean_linker_0, # of connection points: 2
#     Edge 20, Type (0, 0), BuildingBlock: XIVTED_clean_linker_0, # of connection points: 2
#     Edge 21, Type (0, 0), BuildingBlock: XIVTED_clean_linker_0, # of connection points: 2
#     Edge 22, Type (0, 0), BuildingBlock: XIVTED_clean_linker_0, # of connection points: 2
#     Edge 23, Type (0, 0), BuildingBlock: XIVTED_clean_linker_0, # of connection points: 2
#     Edge 24, Type (0, 0), BuildingBlock: XIVTED_clean_linker_0, # of connection points: 2
#     Edge 25, Type (0, 0), BuildingBlock: XIVTED_clean_linker_0, # of connection points: 2
#     Edge 26, Type (0, 0), BuildingBlock: XIVTED_clean_linker_0, # of connection points: 2
#     Edge 27, Type (0, 0), BuildingBlock: XIVTED_clean_linker_0, # of connection points: 2
#     Edge 28, Type (0, 0), BuildingBlock: XIVTED_clean_linker_0, # of connection points: 2
#     Edge 29, Type (0, 0), BuildingBlock: XIVTED_clean_linker_0, # of connection points: 2
#     Edge 30, Type (0, 0), BuildingBlock: XIVTED_clean_linker_0, # of connection points: 2
#     Edge 31, Type (0, 0), BuildingBlock: XIVTED_clean_linker_0, # of connection points: 2
#     Edge 32, Type (0, 0), BuildingBlock: XIVTED_clean_linker_0, # of connection points: 2
#     Edge 33, Type (0, 0), BuildingBlock: XIVTED_clean_linker_0, # of connection points: 2
#     Edge 34, Type (0, 0), BuildingBlock: XIVTED_clean_linker_0, # of connection points: 2
#     Edge 35, Type (0, 0), BuildingBlock: XIVTED_clean_linker_0, # of connection points: 2
# Relax obj value: 0.231
# Max RMSD: 0.262
# Mean RMSD: 0.262
data_MOF--net-vmo--node1-NUHQUE_clean_sbu_2--edge1-XIVTED_clean_linker_0
_symmetry_space_group_name_H-M    P1
_symmetry_Int_Tables_number       1
_symmetry_cell_setting            triclinic
loop_
_symmetry_equiv_pos_as_xyz
'x, y, z'
_cell_length_a     32.323868
_cell_length_b     58.75927
_cell_length_c     27.034759
_cell_angle_alpha  90.095087
_cell_angle_beta   112.70013
_cell_angle_gamma 89.916993
loop_
_atom_site_label
_atom_site_type_symbol
_atom_site_fract_x
_atom_site_fract_y
_atom_site_fract_z
_atom_type_partial_charge
O0 O 0.2548 0.4484 0.34214 0.0
Tb1 Tb 0.21583 0.44256 0.25755 0.0
Eu2 Eu 0.20135 0.39654 0.11039 0.0
C3 C 0.23465 0.44853 0.3761 0.0
O4 O 0.1928 0.44174 0.3596 0.0
C5 C 0.17085 0.39634 0.20609 0.0
O6 O 0.16574 0.39201 1.02005 0.0
C7 C 0.28068 0.37869 0.15247 0.0
C8 C 0.12851 0.40326 0.99281 0.0
O9 O 0.11171 0.4168 1.01908 0.0
C10 C 0.23378 0.44598 0.15615 0.0
C11 C 0.31524 0.36443 0.14462 0.0
C12 C 0.36047 0.3705 0.17115 0.0
C13 C 0.39476 0.35601 0.17024 0.0
C14 C 0.38332 0.33531 0.14221 0.0
C15 C 0.33822 0.32877 0.11621 0.0
C16 C 0.30429 0.34365 0.11686 0.0
O17 O 0.20904 0.40771 0.22647 0.0
O18 O 0.16026 0.38691 0.15839 0.0
O19 O 0.18127 0.47478 0.23409 0.0
O20 O 0.14323 0.4454 0.23295 0.0
C21 C 0.14102 0.46708 0.22263 0.0
O22 O 0.20002 0.43172 0.14297 0.0
O23 O 0.24833 0.45455 0.20495 0.0
O24 O 0.24405 0.36841 0.15115 0.0
O25 O 0.2736 0.39925 0.13146 0.0
H26 H 0.36901 0.38624 0.19387 0.0
H27 H 0.40974 0.32362 0.1437 0.0
H28 H 0.26941 0.33877 0.09712 0.0
O29 O 0.86357 0.44121 0.2275 0.0
Tb30 Tb 0.89728 0.43911 0.31426 0.0
Eu31 Eu 0.91017 0.40025 0.47016 0.0
C32 C 0.88886 0.43945 0.19945 0.0
O33 O 0.93038 0.4325 0.22425 0.0
C34 C 0.94654 0.39648 0.38033 0.0
O35 O 0.94105 0.40036 0.56146 0.0
C36 C 0.83415 0.3792 0.42697 0.0
C37 C 0.98217 0.39281 0.58808 0.0
O38 O 1.00491 0.38471 0.56082 0.0
C39 C 0.87294 0.44732 0.41108 0.0
C40 C 0.79902 0.36538 0.43473 0.0
C41 C 0.75391 0.37126 0.40605 0.0
C42 C 0.71924 0.35733 0.40773 0.0
C43 C 0.73008 0.33734 0.43843 0.0
C44 C 0.77499 0.3309 0.46658 0.0
C45 C 0.80938 0.3452 0.46505 0.0
O46 O 0.90718 0.4064 0.35578 0.0
O47 O 0.95674 0.38949 0.42998 0.0
O48 O 0.92856 0.47232 0.33367 0.0
O49 O 0.96932 0.44356 0.337 0.0
C50 C 0.96916 0.46547 0.34359 0.0
O51 O 0.90903 0.43462 0.43221 0.0
O52 O 0.8601 0.45289 0.36001 0.0
O53 O 0.87322 0.36948 0.4364 0.0
O54 O 0.83701 0.40088 0.44028 0.0
H55 H 0.74576 0.38644 0.38137 0.0
H56 H 0.70332 0.32607 0.43765 0.0
H57 H 0.84412 0.34037 0.48644 0.0
O58 O 0.86654 0.54932 0.73711 0.0
Tb59 Tb 0.90061 0.55599 0.82249 0.0
Eu60 Eu 0.92572 0.59954 0.9695 0.0
C61 C 0.8893 0.54934 0.70594 0.0
O62 O 0.93094 0.55656 0.72535 0.0
C63 C 0.95621 0.59901 0.87429 0.0
O64 O 0.96279 0.60314 0.06015 0.0
C65 C 0.84894 0.62008 0.92656 0.0
C66 C 0.98521 0.58553 0.08819 0.0
O67 O 0.98463 0.56646 0.06249 0.0
C68 C 0.8829 0.55166 0.92421 0.0
C69 C 0.81396 0.63499 0.9317 0.0
C70 C 0.76879 0.62882 0.90437 0.0
C71 C 0.73414 0.64345 0.90344 0.0
C72 C 0.74504 0.66444 0.93003 0.0
C73 C 0.78993 0.67127 0.95612 0.0
C74 C 0.82438 0.65624 0.95766 0.0
O75 O 0.91517 0.59073 0.85216 0.0
O76 O 0.96948 0.6068 0.92367 0.0
O77 O 0.92543 0.52242 0.85195 0.0
O78 O 0.97216 0.54825 0.85589 0.0
C79 C 0.96776 0.52728 0.86866 0.0
O80 O 0.92112 0.56289 0.94206 0.0
O81 O 0.86262 0.54862 0.8719 0.0
O82 O 0.88725 0.62937 0.93085 0.0
O83 O 0.85303 0.5993 0.94596 0.0
H84 H 0.76056 0.6128 0.88275 0.0
H85 H 0.71829 0.6759 0.92861 0.0
H86 H 0.85909 0.66149 0.97681 0.0
O87 O 0.24372 0.54823 0.82959 0.0
Tb88 Tb 0.22797 0.55801 0.74674 0.0
Eu89 Eu 0.2172 0.60337 0.60946 0.0
C90 C 0.21284 0.53634 0.83849 0.0
O91 O 0.17388 0.53356 0.79866 0.0
C92 C 0.1809 0.60283 0.70044 0.0
O93 O 0.1824 0.60622 0.51842 0.0
C94 C 0.29263 0.62499 0.65386 0.0
C95 C 0.16371 0.58802 0.48978 0.0
O96 O 0.16703 0.56857 0.51497 0.0
C97 C 0.26521 0.55698 0.66112 0.0
C98 C 0.32793 0.6395 0.64853 0.0
C99 C 0.37294 0.63314 0.6762 0.0
C100 C 0.40795 0.6473 0.67644 0.0
C101 C 0.39751 0.66802 0.64862 0.0
C102 C 0.3527 0.67496 0.62181 0.0
C103 C 0.31797 0.66041 0.6213 0.0
O104 O 0.22074 0.5935 0.72372 0.0
O105 O 0.17016 0.61079 0.65157 0.0
O106 O 0.20538 0.52655 0.70281 0.0
O107 O 0.15801 0.55298 0.69395 0.0
C108 C 0.1641 0.5329 0.67746 0.0
O109 O 0.22559 0.56654 0.63622 0.0
O110 O 0.27782 0.5526 0.71279 0.0
O111 O 0.2534 0.63417 0.64598 0.0
O112 O 0.29011 0.6038 0.63741 0.0
H113 H 0.38074 0.61729 0.69845 0.0
H114 H 0.42447 0.67913 0.64933 0.0
H115 H 0.28335 0.66577 0.60169 0.0
O116 O 0.77756 0.94658 0.3262 0.0
Tb117 Tb 0.73079 0.94345 0.24319 0.0
Eu118 Eu 0.70718 0.89864 0.08977 0.0
C119 C 0.76219 0.94455 0.36456 0.0
O120 O 0.7214 0.9367 0.35215 0.0
C121 C 0.67956 0.89861 0.18773 0.0
O122 O 0.66986 0.89429 0.99948 0.0
C123 C 0.78617 0.88038 0.13167 0.0
C124 C 0.63674 0.90814 0.97203 0.0
O125 O 0.62529 0.92428 0.99802 0.0
C126 C 0.73987 0.94839 0.13488 0.0
C127 C 0.82237 0.86636 0.12684 0.0
C128 C 0.86704 0.8729 0.15601 0.0
C129 C 0.9027 0.85879 0.15791 0.0
C130 C 0.8933 0.83799 0.13028 0.0
C131 C 0.84888 0.83081 0.10223 0.0
C132 C 0.81345 0.84532 0.09984 0.0
O133 O 0.71852 0.90939 0.20704 0.0
O134 O 0.66721 0.88948 0.13947 0.0
O135 O 0.69734 0.97617 0.2329 0.0
O136 O 0.66166 0.94652 0.23719 0.0
C137 C 0.65955 0.96853 0.2325 0.0
O138 O 0.70665 0.93383 0.12289 0.0
O139 O 0.75599 0.95677 0.18407 0.0
O140 O 0.74918 0.86998 0.12867 0.0
O141 O 0.77957 0.90105 0.11121 0.0
H142 H 0.87403 0.88872 0.17845 0.0
H143 H 0.92081 0.82692 0.13245 0.0
H144 H 0.77906 0.83977 0.07937 0.0
O145 O 0.36004 0.9566 0.23179 0.0
Tb146 Tb 0.41775 0.95048 0.30508 0.0
Eu147 Eu 0.41289 0.90372 0.44972 0.0
C148 C 0.36084 0.95013 0.18566 0.0
O149 O 0.39223 0.93588 0.18572 0.0
C150 C 0.45458 0.90358 0.36057 0.0
O151 O 0.44672 0.90822 0.54027 0.0
C152 C 0.3417 0.87849 0.4163 0.0
C153 C 0.47767 0.89359 0.56899 0.0
O154 O 0.48796 0.87666 0.54401 0.0
C155 C 0.40838 0.95643 0.41209 0.0
C156 C 0.30645 0.86493 0.42461 0.0
C157 C 0.26147 0.87132 0.39668 0.0
C158 C 0.22626 0.85757 0.39747 0.0
C159 C 0.23648 0.83729 0.42708 0.0
C160 C 0.28121 0.83028 0.45421 0.0
C161 C 0.31614 0.84438 0.45341 0.0
O162 O 0.41802 0.91559 0.33479 0.0
O163 O 0.46035 0.89477 0.40795 0.0
O164 O 0.45724 0.97894 0.29593 0.0
O165 O 0.48254 0.94579 0.29828 0.0
C166 C 0.49064 0.96718 0.29413 0.0
O167 O 0.39584 0.93537 0.39975 0.0
O168 O 0.41457 0.96845 0.37463 0.0
O169 O 0.38253 0.87009 0.43054 0.0
O170 O 0.34046 0.90075 0.4211 0.0
H171 H 0.25379 0.88675 0.37286 0.0
H172 H 0.2094 0.82644 0.4271 0.0
H173 H 0.35065 0.83883 0.47288 0.0
O174 O 0.38859 0.04332 0.75179 0.0
Tb175 Tb 0.39598 0.05316 0.83213 0.0
Eu176 Eu 0.39706 0.09904 0.96661 0.0
C177 C 0.42508 0.03947 0.74258 0.0
O178 O 0.46435 0.04347 0.78091 0.0
C179 C 0.43419 0.09991 0.8748 0.0
O180 O 0.43422 0.10168 0.05816 0.0
C181 C 0.31938 0.11931 0.92466 0.0
C182 C 0.45905 0.08439 0.08505 0.0
O183 O 0.46052 0.06608 0.05779 0.0
C184 C 0.35069 0.05323 0.9087 0.0
C185 C 0.28611 0.13481 0.93218 0.0
C186 C 0.2398 0.13087 0.90351 0.0
C187 C 0.2076 0.14672 0.90546 0.0
C188 C 0.22267 0.16617 0.93794 0.0
C189 C 0.26856 0.17055 0.9658 0.0
C190 C 0.30009 0.15464 0.96319 0.0
O191 O 0.39621 0.08892 0.85179 0.0
O192 O 0.44356 0.10794 0.92363 0.0
O193 O 0.41946 0.02269 0.87953 0.0
O194 O 0.46425 0.05064 0.89184 0.0
C195 C 0.45898 0.03048 0.90861 0.0
O196 O 0.38989 0.06295 0.93517 0.0
O197 O 0.34207 0.047 0.8588 0.0
O198 O 0.35715 0.12824 0.92596 0.0
O199 O 0.32462 0.09903 0.94658 0.0
H200 H 0.22909 0.11604 0.87783 0.0
H201 H 0.19848 0.17854 0.93993 0.0
H202 H 0.33559 0.15793 0.9844 0.0
O203 O 0.74034 0.02499 0.7745 0.0
Tb204 Tb 0.72764 0.04662 0.70443 0.0
Eu205 Eu 0.70048 0.09173 0.61122 0.0
C206 C 0.76 0.03313 0.82353 0.0
O207 O 0.77402 0.05432 0.82984 0.0
C208 C 0.66191 0.0849 0.70507 0.0
O209 O 0.6544 0.09599 0.52162 0.0
C210 C 0.75499 0.12578 0.65048 0.0
C211 C 0.65913 0.08367 0.48289 0.0
O212 O 0.6923 0.06902 0.49591 0.0
C213 C 0.7786 0.05381 0.63434 0.0
C214 C 0.79463 0.13852 0.64966 0.0
C215 C 0.83935 0.13254 0.6828 0.0
C216 C 0.87541 0.14696 0.68636 0.0
C217 C 0.86629 0.16694 0.65542 0.0
C218 C 0.82235 0.17336 0.62346 0.0
C219 C 0.78688 0.15899 0.6205 0.0
O220 O 0.69974 0.07465 0.73422 0.0
O221 O 0.65123 0.08894 0.65338 0.0
O222 O 0.70542 0.0166 0.65327 0.0
O223 O 0.67065 0.04781 0.62797 0.0
C224 C 0.67375 0.02689 0.6144 0.0
O225 O 0.74171 0.06282 0.5988 0.0
O226 O 0.78548 0.05367 0.68571 0.0
O227 O 0.71727 0.12731 0.608 0.0
O228 O 0.76101 0.10568 0.67353 0.0
H229 H 0.84589 0.11743 0.70758 0.0
H230 H 0.89366 0.17822 0.65837 0.0
H231 H 0.75282 0.16418 0.59643 0.0
H232 H 0.6476 0.35816 0.43773 0.0
H233 H 0.46634 0.35389 0.13993 0.0
H234 H 0.6828 0.36708 0.30055 0.0
H235 H 0.43178 0.3692 0.27531 0.0
H236 H 0.54586 0.35828 0.19762 0.0
H237 H 0.56823 0.36184 0.37908 0.0
C238 C 0.63854 0.36115 0.3953 0.0
C239 C 0.67168 0.3623 0.37388 0.0
C240 C 0.52085 0.36098 0.21453 0.0
C241 C 0.5811 0.36618 0.30645 0.0
C242 C 0.47555 0.35841 0.18169 0.0
C243 C 0.44252 0.36117 0.20293 0.0
C244 C 0.53324 0.36591 0.26925 0.0
C245 C 0.45617 0.3671 0.25725 0.0
C246 C 0.59332 0.36331 0.36188 0.0
C247 C 0.65826 0.36625 0.31867 0.0
N248 N 0.50051 0.36898 0.2887 0.0
N249 N 0.61394 0.36774 0.28671 0.0
H250 H 0.44432 0.63407 0.78144 0.0
H251 H 0.69702 0.63104 0.79788 0.0
H252 H 0.47956 0.64785 0.64599 0.0
H253 H 0.66296 0.64454 0.9344 0.0
H254 H 0.61686 0.62782 0.74141 0.0
H255 H 0.524 0.62863 0.83741 0.0
C256 C 0.4688 0.63556 0.76331 0.0
C257 C 0.45543 0.6415 0.7091 0.0
C258 C 0.62701 0.6312 0.78386 0.0
C259 C 0.54642 0.63533 0.77276 0.0
C260 C 0.67266 0.63285 0.81612 0.0
C261 C 0.68649 0.63812 0.87078 0.0
C262 C 0.59506 0.63455 0.80662 0.0
C263 C 0.65358 0.64059 0.89233 0.0
C264 C 0.5142 0.63261 0.79531 0.0
C265 C 0.48856 0.64347 0.68774 0.0
N266 N 0.60937 0.63883 0.86019 0.0
N267 N 0.53255 0.64043 0.71963 0.0
H268 H 0.9362 0.8708 0.26386 0.0
H269 H 0.19207 0.8699 0.29184 0.0
H270 H 0.97618 0.85878 0.13125 0.0
H271 H 0.15269 0.85709 0.42458 0.0
H272 H 0.11303 0.8747 0.23314 0.0
H273 H 1.01547 0.87466 0.32352 0.0
C274 C 0.96166 0.86944 0.24717 0.0
C275 C 0.94975 0.86441 0.19264 0.0
C276 C 0.12173 0.87107 0.27523 0.0
C277 C 1.04019 0.86868 0.26047 0.0
C278 C 0.16682 0.8685 0.30883 0.0
C279 C 0.17892 0.86303 0.36314 0.0
C280 C 0.08846 0.86836 0.29613 0.0
C281 C 0.14473 0.8611 0.38284 0.0
C282 C 1.00681 0.87145 0.28124 0.0
C283 C 0.98404 0.86252 0.17313 0.0
N284 N 0.10103 0.86372 0.34933 0.0
N285 N 1.0277 0.8646 0.20702 0.0
H286 H 0.92858 0.10808 0.70372 0.0
H287 H 0.14934 0.1803 0.85085 0.0
H288 H 0.93001 0.17734 0.75729 0.0
H289 H 0.15354 0.10795 0.87988 0.0
H290 H 0.06885 0.17795 0.80242 0.0
H291 H 1.01021 0.1057 0.75782 0.0
C292 C 0.9458 0.1226 0.72742 0.0
C293 C 0.92253 0.14309 0.72517 0.0
C294 C 0.08719 0.16254 0.81953 0.0
C295 C 1.01541 0.14063 0.78574 0.0
C296 C 0.13338 0.16386 0.84757 0.0
C297 C 0.15855 0.14441 0.87123 0.0
C298 C 0.06524 0.14154 0.81368 0.0
C299 C 0.13562 0.12345 0.86284 0.0
C300 C 0.99231 0.12127 0.75797 0.0
C301 C 0.94659 0.16138 0.7567 0.0
N302 N 0.09016 0.12254 0.83485 0.0
N303 N 0.99147 0.15981 0.7848 0.0
H304 H 0.33505 0.19866 0.96264 0.0
H305 H 0.27563 0.29928 0.12441 0.0
H306 H 0.23433 0.19341 1.0302 0.0
H307 H 0.37612 0.30502 0.05655 0.0
H308 H 0.26063 0.26036 0.09079 0.0
H309 H 0.35289 0.23702 0.99987 0.0
C310 C 0.31716 0.20543 0.98603 0.0
C311 C 0.28306 0.1928 0.99323 0.0
C312 C 0.2859 0.27012 0.0831 0.0
C313 C 0.30268 0.23692 0.03501 0.0
C314 C 0.29417 0.29247 0.10183 0.0
C315 C 0.32703 0.30553 0.09303 0.0
C316 C 0.31065 0.26067 0.05535 0.0
C317 C 0.35071 0.29554 0.0646 0.0
C318 C 0.32706 0.22744 1.00682 0.0
C319 C 0.26048 0.20264 1.02311 0.0
N320 N 0.34206 0.27372 0.04678 0.0
N321 N 0.27056 0.22412 0.04268 0.0
H322 H 0.8383 0.29979 0.46611 0.0
H323 H 0.75823 0.20434 0.62099 0.0
H324 H 0.73448 0.31027 0.52716 0.0
H325 H 0.86725 0.19462 0.56841 0.0
H326 H 0.74783 0.24285 0.58449 0.0
H327 H 0.84991 0.26138 0.50358 0.0
C328 C 0.81837 0.29415 0.48806 0.0
C329 C 0.78531 0.30832 0.49344 0.0
C330 C 0.77395 0.23229 0.58075 0.0
C331 C 0.7978 0.26412 0.53547 0.0
C332 C 0.7796 0.21019 0.6011 0.0
C333 C 0.81357 0.19616 0.59759 0.0
C334 C 0.80244 0.24052 0.55661 0.0
C335 C 0.84087 0.20489 0.57237 0.0
C336 C 0.82473 0.27212 0.509 0.0
C337 C 0.75995 0.29987 0.52145 0.0
N338 N 0.83474 0.2265 0.55289 0.0
N339 N 0.76662 0.27833 0.5412 0.0
H340 H 0.78537 0.817 1.00547 0.0
H341 H 0.8553 0.68518 0.05146 0.0
H342 H 0.89159 0.79126 0.14738 0.0
H343 H 0.74825 0.71091 0.91035 0.0
H344 H 0.87027 0.72408 0.08664 0.0
H345 H 0.77146 0.77821 0.9696 0.0
C346 C 0.80571 0.80321 1.02909 0.0
C347 C 0.83991 0.80745 0.0793 0.0
C348 C 0.84345 0.72119 0.048 0.0
C349 C 0.82438 0.76302 0.0385 0.0
C350 C 0.83506 0.699 1.02784 0.0
C351 C 0.80021 0.69473 0.97815 0.0
C352 C 0.81693 0.73926 1.01815 0.0
C353 C 0.77488 0.71331 0.94935 0.0
C354 C 0.79791 0.78107 1.00854 0.0
C355 C 0.86544 0.7889 0.10802 0.0
N356 N 0.7837 0.7347 0.96977 0.0
N357 N 0.85715 0.76755 0.08724 0.0
H358 H 0.39492 0.71514 0.66295 0.0
H359 H 0.23816 0.79018 0.41444 0.0
H360 H 0.28685 0.68739 0.52562 0.0
H361 H 0.34713 0.81803 0.55065 0.0
H362 H 0.25486 0.75258 0.45529 0.0
H363 H 0.37785 0.75291 0.62274 0.0
C364 C 0.36781 0.71695 0.62407 0.0
C365 C 0.34249 0.698 0.59741 0.0
C366 C 0.27509 0.76689 0.47638 0.0
C367 C 0.3223 0.74137 0.55149 0.0
C368 C 0.26536 0.78844 0.45326 0.0
C369 C 0.29106 0.80738 0.47938 0.0
C370 C 0.31089 0.76413 0.52604 0.0
C371 C 0.32661 0.80392 0.52897 0.0
C372 C 0.35789 0.73857 0.60132 0.0
C373 C 0.30708 0.70151 0.54775 0.0
N374 N 0.33543 0.78272 0.55072 0.0
N375 N 0.2981 0.72276 0.52637 0.0
H376 H 0.28239 0.54197 0.93747 0.0
H377 H 0.21154 0.43056 0.0543 0.0
H378 H 0.16641 0.50039 0.853 0.0
H379 H 0.2814 0.48531 0.15973 0.0
H380 H 0.21336 0.45201 0.97836 0.0
H381 H 0.29759 0.51828 1.01808 0.0
C382 C 0.26023 0.52793 0.93586 0.0
C383 C 0.22291 0.52325 0.88856 0.0
C384 C 0.2289 0.45923 1.0182 0.0
C385 C 0.24078 0.49594 0.97934 0.0
C386 C 0.22815 0.44689 0.0617 0.0
C387 C 0.24568 0.45625 0.1134 0.0
C388 C 0.24739 0.48118 1.02619 0.0
C389 C 0.26723 0.47749 0.12046 0.0
C390 C 0.26896 0.51446 0.98167 0.0
C391 C 0.19534 0.50482 0.88855 0.0
N392 N 0.26697 0.48946 0.07712 0.0
N393 N 0.20498 0.49184 0.93297 0.0
H394 H 0.90447 0.55871 0.61552 0.0
H395 H 0.87476 0.436 0.5101 0.0
H396 H 0.83821 0.51082 0.68095 0.0
H397 H 0.8417 0.49104 0.39592 0.0
H398 H 0.86643 0.46212 0.57654 0.0
H399 H 0.88747 0.53396 0.53679 0.0
C400 C 0.88557 0.54321 0.61274 0.0
C401 C 0.87246 0.53684 0.6545 0.0
C402 C 0.85998 0.46829 0.5365 0.0
C403 C 0.85442 0.5082 0.5659 0.0
C404 C 0.86461 0.4534 0.49856 0.0
C405 C 0.85859 0.46129 0.44727 0.0
C406 C 0.85091 0.49138 0.52363 0.0
C407 C 0.84621 0.48416 0.4348 0.0
C408 C 0.87587 0.52914 0.56792 0.0
C409 C 0.84847 0.51645 0.64929 0.0
N410 N 0.84385 0.49855 0.47313 0.0
N411 N 0.84111 0.50257 0.60636 0.0
H412 H 0.81672 0.46772 0.14686 0.0
H413 H 0.94973 0.52708 0.996 0.0
H414 H 0.93384 0.43786 0.13284 0.0
H415 H 0.80582 0.53442 0.93154 0.0
H416 H 0.94408 0.49653 0.05337 0.0
H417 H 0.80937 0.49334 0.07193 0.0
C418 C 0.84014 0.46611 0.12724 0.0
C419 C 0.87641 0.45086 0.14678 0.0
C420 C 0.91359 0.50469 1.02661 0.0
C421 C 0.86867 0.48031 0.06238 0.0
C422 C 0.91681 0.52232 0.99416 0.0
C423 C 0.87817 0.53342 0.95925 0.0
C424 C 0.87144 0.49827 1.02532 0.0
C425 C 0.83636 0.52628 0.95811 0.0
C426 C 0.83598 0.48079 0.08468 0.0
C427 C 0.90577 0.44957 0.11983 0.0
N428 N 0.83405 0.50928 0.99138 0.0
N429 N 0.90177 0.46439 0.07984 0.0
H430 H 0.27154 0.56557 0.56535 0.0
H431 H 0.21875 0.44238 0.46728 0.0
H432 H 0.28873 0.51226 0.68111 0.0
H433 H 0.29338 0.48414 0.39973 0.0
H434 H 0.24049 0.46807 0.54478 0.0
H435 H 0.27703 0.53701 0.50177 0.0
C436 C 0.27793 0.54797 0.57793 0.0
C437 C 0.28021 0.54129 0.62868 0.0
C438 C 0.25292 0.47128 0.51352 0.0
C439 C 0.2845 0.50859 0.55571 0.0
C440 C 0.2405 0.45668 0.46936 0.0
C441 C 0.2544 0.46114 0.4272 0.0
C442 C 0.27817 0.49083 0.5146 0.0
C443 C 0.28224 0.48001 0.43161 0.0
C444 C 0.28088 0.53171 0.54166 0.0
C445 C 0.28747 0.51818 0.64266 0.0
N446 N 0.29238 0.4945 0.47397 0.0
N447 N 0.28825 0.50256 0.60587 0.0
H448 H 0.71845 0.93221 0.03303 0.0
H449 H 0.79845 0.04501 0.92984 0.0
H450 H 0.78933 0.98682 0.13784 0.0
H451 H 0.73002 0.98948 0.82599 0.0
H452 H 0.80045 0.02285 1.00717 0.0
H453 H 0.72808 0.9514 0.95822 0.0
C454 C 0.7365 0.94812 0.04049 0.0
C455 C 0.75268 0.95794 0.09182 0.0
C456 C 0.78527 0.01543 0.96754 0.0
C457 C 0.76371 0.98031 1.00587 0.0
C458 C 0.78407 0.02809 0.92322 0.0
C459 C 0.76385 0.01918 0.87107 0.0
C460 C 0.76597 0.99363 0.95993 0.0
C461 C 0.74587 0.99712 0.86528 0.0
C462 C 0.74198 0.95913 0.99763 0.0
C463 C 0.77627 0.97855 0.09904 0.0
N464 N 0.74714 0.98519 0.90904 0.0
N465 N 0.78065 0.98916 0.05649 0.0
H466 H 0.48715 0.0407 0.69716 0.0
H467 H 0.37288 0.9427 0.48417 0.0
H468 H 0.35857 0.01202 0.67583 0.0
H469 H 0.45845 0.99368 0.45854 0.0
H470 H 0.37734 0.963 0.56562 0.0
H471 H 0.48587 0.01923 0.61874 0.0
C472 C 0.45856 0.02997 0.67578 0.0
C473 C 0.42279 0.02819 0.69273 0.0
C474 C 0.39531 0.96961 0.54222 0.0
C475 C 0.4217 0.00323 0.60413 0.0
C476 C 0.39315 0.95794 0.49616 0.0
C477 C 0.41526 0.96658 0.46466 0.0
C478 C 0.42032 0.9898 0.55713 0.0
C479 C 0.44074 0.98651 0.48164 0.0
C480 C 0.4579 0.01773 0.63118 0.0
C481 C 0.3866 0.01402 0.6637 0.0
N482 N 0.44265 0.99744 0.5268 0.0
N483 N 0.38715 0.00189 0.62106 0.0
H484 H 0.32209 0.99195 0.1802 0.0
H485 H 0.30102 0.01405 0.88069 0.0
H486 H 0.34649 0.94017 0.08122 0.0
H487 H 0.35464 0.06281 1.00936 0.0
H488 H 0.28585 0.98811 0.94248 0.0
H489 H 0.30153 0.01849 0.10494 0.0
C490 C 0.32177 0.9859 0.14219 0.0
C491 C 0.33681 0.96389 0.13723 0.0
C492 C 0.29962 0.0048 0.9565 0.0
C493 C 0.31299 0.99418 0.05118 0.0
C494 C 0.30805 0.01971 0.92128 0.0
C495 C 0.32942 0.04064 0.93998 0.0
C496 C 0.31176 0.01109 1.0103 0.0
C497 C 0.33811 0.04689 0.99318 0.0
C498 C 0.31023 0.00113 0.09942 0.0
C499 C 0.33568 0.95707 0.08695 0.0
N500 N 0.32962 0.03209 1.02664 0.0
N501 N 0.32453 0.97226 0.04594 0.0
H502 H 0.82374 0.97915 0.38895 0.0
H503 H 0.7947 0.00906 0.66251 0.0
H504 H 0.74972 0.93763 0.45781 0.0
H505 H 0.80806 0.05934 0.5538 0.0
H506 H 0.80565 0.97899 0.60554 0.0
H507 H 0.84511 0.00436 0.46721 0.0
C508 C 0.81313 0.97491 0.42123 0.0
C509 C 0.78451 0.95638 0.41659 0.0
C510 C 0.80767 0.99664 0.59521 0.0
C511 C 0.80888 0.98513 0.50606 0.0
C512 C 0.80198 0.0138 0.62801 0.0
C513 C 0.80065 0.03669 0.61281 0.0
C514 C 0.81279 0.0025 0.54752 0.0
C515 C 0.80913 0.04188 0.56697 0.0
C516 C 0.8251 0.9894 0.46568 0.0
C517 C 0.77151 0.95185 0.45955 0.0
N518 N 0.81445 0.02492 0.53565 0.0
N519 N 0.78342 0.96624 0.50224 0.0
H520 H 1.04318 0.54545 0.94371 0.0
H521 H 0.06454 0.44688 0.15383 0.0
H522 H 0.96233 0.48459 0.90354 0.0
H523 H 0.13187 0.51166 0.1955 0.0
H524 H 1.02161 0.46125 0.06373 0.0
H525 H 0.07789 0.53237 0.03622 0.0
C526 C 1.03393 0.52894 0.954 0.0
C527 C 0.99984 0.51607 0.91625 0.0
C528 C 1.04513 0.47248 0.09293 0.0
C529 C 1.03792 0.50144 1.02203 0.0
C530 C 0.06895 0.46444 0.14465 0.0
C531 C 0.10248 0.478 0.18134 0.0
C532 C 1.0553 0.49409 0.07848 0.0
C533 C 0.10682 0.50059 0.16773 0.0
C534 C 1.05296 0.52171 1.00705 0.0
C535 C 0.9886 0.49496 0.9317 0.0
N536 N 0.0843 0.50779 0.11679 0.0
N537 N 1.00728 0.48837 0.98372 0.0
H538 H 0.08892 0.55147 0.6029 0.0
H539 H 1.05452 0.45027 0.39752 0.0
H540 H 0.17805 0.49377 0.63289 0.0
H541 H 0.97244 0.51075 0.36326 0.0
H542 H 0.10906 0.4692 0.47606 0.0
H543 H 1.05097 0.53886 0.51024 0.0
C544 C 0.09983 0.53588 0.59014 0.0
C545 C 0.1359 0.52334 0.62551 0.0
C546 C 0.07964 0.47854 0.45066 0.0
C547 C 0.0938 0.50918 0.51965 0.0
C548 C 1.04882 0.46783 0.40552 0.0
C549 C 1.00852 0.47882 0.37535 0.0
C550 C 0.06942 0.50015 0.46528 0.0
C551 C 1.00277 0.50157 0.38666 0.0
C552 C 0.07878 0.52891 0.53708 0.0
C553 C 0.1497 0.50364 0.60687 0.0
N554 N 1.03241 0.51135 0.43173 0.0
N555 N 0.12846 0.49709 0.55512 0.0
H556 H 0.44226 0.99255 0.95473 0.0
H557 H 0.65062 0.0144 0.22409 0.0
H558 H 0.53082 0.05044 0.9863 0.0
H559 H 0.57427 0.95213 0.18787 0.0
H560 H 0.59063 0.03312 0.15076 0.0
H561 H 0.47765 0.98172 0.04893 0.0
C562 C 0.46969 0.00277 0.98144 0.0
C563 C 0.48459 0.02206 0.96272 0.0
C564 C 0.58634 0.01553 0.15971 0.0
C565 C 0.52416 0.0102 0.07051 0.0
C566 C 0.62033 0.00493 0.20195 0.0
C567 C 0.61792 0.98153 0.20991 0.0
C568 C 0.55044 0.0024 0.12551 0.0
C569 C 0.57778 0.97009 0.18151 0.0
C570 C 0.4893 0.99681 0.0353 0.0
C571 C 0.51923 0.0351 0.99903 0.0
N572 N 0.54598 0.98047 0.13898 0.0
N573 N 0.5381 0.02884 0.05128 0.0
H574 H 0.57087 0.94516 0.34094 0.0
H575 H 0.61147 0.04811 0.52949 0.0
H576 H 0.51364 0.01142 0.2892 0.0
H577 H 0.69569 0.98843 0.57285 0.0
H578 H 0.58511 0.0368 0.43583 0.0
H579 H 0.63188 0.96278 0.41514 0.0
C580 C 0.57233 0.96353 0.3436 0.0
C581 C 0.53586 0.97683 0.31151 0.0
C582 C 0.60981 0.02625 0.46554 0.0
C583 C 0.60423 0.99694 0.39639 0.0
C584 C 0.62417 0.0325 0.51914 0.0
C585 C 0.65483 0.01886 0.55879 0.0
C586 C 0.6259 0.00605 0.45142 0.0
C587 C 0.67104 -0.00092 0.54335 0.0
C588 C 0.60694 0.97361 0.3865 0.0
C589 C 0.5402 0.00053 0.31515 0.0
N590 N 0.65594 0.99308 0.49075 0.0
N591 N 0.57281 0.00989 0.35856 0.0
H592 H 0.06421 0.37616 0.65429 0.0
H593 H 1.04864 0.42211 0.92638 0.0
H594 H 0.94874 0.4116 0.65883 0.0
H595 H 0.15692 0.37999 0.92286 0.0
H596 H 1.01256 0.41928 0.82874 0.0
H597 H 0.09928 0.37823 0.75205 0.0
C598 C 1.04609 0.38437 0.67576 0.0
C599 C 1.00328 0.39371 0.64792 0.0
C600 C 1.04415 0.4106 0.84924 0.0
C601 C 1.04369 0.39621 0.76072 0.0
C602 C 0.0649 0.41221 0.90517 0.0
C603 C 0.10602 0.40124 0.93325 0.0
C604 C 0.06462 0.39801 0.82063 0.0
C605 C 0.12526 0.3887 0.90319 0.0
C606 C 0.06623 0.38552 0.73179 0.0
C607 C 0.98168 0.40412 0.67834 0.0
N608 N 0.10451 0.38749 0.84869 0.0
N609 N 1.00212 0.40514 0.73291 0.0
H610 H 0.13808 0.6257 0.42293 0.0
H611 H 1.02592 0.55047 0.1558 0.0
H612 H 0.13078 0.55238 0.42053 0.0
H613 H 1.00455 0.62295 0.15643 0.0
H614 H 0.06929 0.55177 0.25204 0.0
H615 H 0.09436 0.62596 0.32537 0.0
C616 C 0.12752 0.60968 0.40203 0.0
C617 C 0.13833 0.58899 0.43033 0.0
C618 C 1.05512 0.56745 0.2314 0.0
C619 C 0.08831 0.58918 0.31849 0.0
C620 C 1.03024 0.56674 0.17611 0.0
C621 C 1.01122 0.58664 0.14752 0.0
C622 C 1.06173 0.58826 0.25909 0.0
C623 C 1.01835 0.60716 0.17663 0.0
C624 C 0.1024 0.60985 0.34632 0.0
C625 C 0.12344 0.56878 0.40083 0.0
N626 N 1.04311 0.60745 0.23069 0.0
N627 N 0.0995 0.56941 0.34692 0.0
H628 H 0.56988 0.93543 0.90435 0.0
H629 H 0.54257 0.86585 0.6377 0.0
H630 H 0.64915 0.87641 0.90351 0.0
H631 H 0.46645 0.92638 0.63646 0.0
H632 H 0.58098 0.86932 0.73477 0.0
H633 H 0.53121 0.93223 0.80705 0.0
C634 C 0.57921 0.92174 0.88382 0.0
C635 C 0.61297 0.90613 0.91257 0.0
C636 C 0.55592 0.88187 0.71343 0.0
C637 C 0.56843 0.90239 0.80031 0.0
C638 C 0.53383 0.87991 0.65775 0.0
C639 C 0.50103 0.89584 0.62846 0.0
C640 C 0.54533 0.89991 0.74067 0.0
C641 C 0.49139 0.91367 0.65714 0.0
C642 C 0.55703 0.91996 0.82805 0.0
C643 C 0.62343 0.88884 0.88332 0.0
N644 N 0.51338 0.9152 0.7115 0.0
N645 N 0.60128 0.88743 0.82901 0.0
H646 H 0.51396 0.05122 0.14689 0.0
H647 H 0.59024 0.11487 0.43232 0.0
H648 H 0.4667 0.11873 0.16003 0.0
H649 H 0.65499 0.05565 0.40033 0.0
H650 H 0.54004 0.11592 0.33634 0.0
H651 H 0.56011 0.05169 0.24232 0.0
C652 C 0.51319 0.06624 0.16974 0.0
C653 C 0.48629 0.08503 0.14457 0.0
C654 C 0.56531 0.10274 0.35053 0.0
C655 C 0.53987 0.08565 0.25596 0.0
C656 C 0.59398 0.1021 0.40542 0.0
C657 C 0.62729 0.08519 0.42502 0.0
C658 C 0.56948 0.08617 0.31492 0.0
C659 C 0.63026 0.06914 0.38774 0.0
C660 C 0.53981 0.0665 0.22467 0.0
C661 C 0.48689 0.10386 0.17728 0.0
N662 N 0.6019 0.06998 0.33519 0.0
N663 N 0.51314 0.10369 0.23112 0.0
H664 H 0.07994 0.39177 0.15766 0.0
H665 H 1.03796 0.39892 0.43118 0.0
H666 H 0.18666 0.40029 0.31283 0.0
H667 H 0.9323 0.39179 0.27481 0.0
H668 H 0.09324 0.39885 0.38946 0.0
H669 H 1.02568 0.39137 0.20033 0.0
C670 C 0.09196 0.39354 0.20083 0.0
C671 C 0.13784 0.39629 0.23179 0.0
C672 C 1.05799 0.39728 0.36422 0.0
C673 C 0.07582 0.39568 0.28114 0.0
C674 C 1.02647 0.39724 0.38803 0.0
C675 C 0.9805 0.39569 0.35617 0.0
C676 C 1.04345 0.39544 0.3082 0.0
C677 C 0.9674 0.39345 0.30061 0.0
C678 C 1.06093 0.39335 0.2252 0.0
C679 C 0.15149 0.39851 0.28751 0.0
N680 N 0.99866 0.39343 0.27837 0.0
N681 N 0.12064 0.39816 0.31045 0.0
H682 H 0.08996 0.61003 0.65187 0.0
H683 H 1.04714 0.59464 0.92236 0.0
H684 H 0.19344 0.59101 0.80314 0.0
H685 H 0.93962 0.60023 0.76694 0.0
H686 H 0.10121 0.59404 0.87933 0.0
H687 H 1.03446 0.60734 0.69284 0.0
C688 C 0.10104 0.60527 0.69369 0.0
C689 C 0.14652 0.60078 0.72414 0.0
C690 C 0.0658 0.59525 0.85447 0.0
C691 C 0.08308 0.59778 0.7714 0.0
C692 C 1.03491 0.59566 0.87905 0.0
C693 C 0.9888 0.59735 0.84807 0.0
C694 C 1.05066 0.59697 0.79841 0.0
C695 C 0.97486 0.59861 0.79217 0.0
C696 C 0.06928 0.60366 0.717 0.0
C697 C 0.1588 0.59458 0.77809 0.0
N698 N 1.00566 0.59855 0.7691 0.0
N699 N 0.12737 0.59339 0.8 0.0
H700 H 0.43909 0.89795 0.25529 0.0
H701 H 0.69877 0.89855 0.29589 0.0
H702 H 0.54652 0.90073 0.41131 0.0
H703 H 0.58829 0.89725 0.1423 0.0
H704 H 0.64488 0.89808 0.34009 0.0
H705 H 0.49426 0.89551 0.2142 0.0
C706 C 0.47443 0.89793 0.28089 0.0
C707 C 0.48833 0.90006 0.33665 0.0
C708 C 0.63246 0.89791 0.29673 0.0
C709 C 0.55201 0.8971 0.28993 0.0
C710 C 0.66318 0.89839 0.2716 0.0
C711 C 0.64793 0.89842 0.21546 0.0
C712 C 0.58618 0.89719 0.26536 0.0
C713 C 0.60154 0.89741 0.1857 0.0
C714 C 0.50599 0.89656 0.25745 0.0
C715 C 0.53449 0.89941 0.36809 0.0
N716 N 0.57243 0.89694 0.21094 0.0
N717 N 0.56475 0.89819 0.34427 0.0
H718 H 0.41916 0.09479 0.76902 0.0
H719 H 0.67775 0.08624 0.81238 0.0
H720 H 0.5264 0.10444 0.92336 0.0
H721 H 0.57158 0.09475 0.65658 0.0
H722 H 0.62323 0.09151 0.85389 0.0
H723 H 0.47432 0.09322 0.72753 0.0
C724 C 0.45438 0.09662 0.79425 0.0
C725 C 0.4681 0.09966 0.84987 0.0
C726 C 0.61186 0.0924 0.81065 0.0
C727 C 0.5318 0.09775 0.80241 0.0
C728 C 0.64302 0.08939 0.78679 0.0
C729 C 0.62942 0.09007 0.73068 0.0
C730 C 0.56638 0.09582 0.77837 0.0
C731 C 0.58382 0.0942 0.6999 0.0
C732 C 0.48589 0.09583 0.77042 0.0
C733 C 0.51423 0.10208 0.88037 0.0
N734 N 0.55398 0.0967 0.72406 0.0
N735 N 0.5444 0.10086 0.85635 0.0
loop_
_geom_bond_atom_site_label_1
_geom_bond_atom_site_label_2
_geom_bond_distance
_geom_bond_site_symmetry_2
_ccdc_geom_bond_type
O0 Tb1 2.292 . S
O0 C3 1.255 . S
Tb1 O0 2.292 . S
Tb1 O17 2.326 . S
Tb1 O19 2.500 . S
Tb1 O20 2.473 . S
Tb1 O23 2.324 . S
Eu2 O6 2.292 1_554 S
Eu2 C7 2.852 . S
Eu2 O18 2.324 . S
Eu2 O22 2.326 . S
Eu2 O24 2.500 . S
Eu2 O25 2.473 . S
C3 O0 1.255 . S
C3 O4 1.247 . S
O4 C3 1.247 . S
C5 O17 1.242 . S
C5 O18 1.258 . S
O6 Eu2 2.292 1_556 S
O6 C8 1.255 . S
C7 Eu2 2.852 . S
C7 C11 1.503 . S
C7 O24 1.273 . S
C7 O25 1.257 . S
C8 O6 1.255 . S
C8 O9 1.247 . S
O9 C8 1.247 . S
C10 O22 1.242 . S
C10 O23 1.258 . S
C11 C7 1.503 . S
C11 C12 1.379 . S
C11 C16 1.392 . S
C12 C11 1.379 . S
C12 C13 1.404 . S
C12 H26 0.929 . S
C13 C12 1.404 . S
C13 C14 1.389 . S
C14 C13 1.389 . S
C14 C15 1.399 . S
C14 H27 0.931 . S
C15 C14 1.399 . S
C15 C16 1.390 . S
C16 C11 1.392 . S
C16 C15 1.390 . S
C16 H28 0.929 . S
O17 Tb1 2.326 . S
O17 C5 1.242 . S
O18 Eu2 2.324 . S
O18 C5 1.258 . S
O19 Tb1 2.500 . S
O19 C21 1.273 . S
O20 Tb1 2.473 . S
O20 C21 1.257 . S
C21 O19 1.273 . S
C21 O20 1.257 . S
O22 Eu2 2.326 . S
O22 C10 1.242 . S
O23 Tb1 2.324 . S
O23 C10 1.258 . S
O24 Eu2 2.500 . S
O24 C7 1.273 . S
O25 Eu2 2.473 . S
O25 C7 1.257 . S
H26 C12 0.929 . S
H27 C14 0.931 . S
H28 C16 0.929 . S
O29 Tb30 2.292 . S
O29 C32 1.255 . S
Tb30 O29 2.292 . S
Tb30 O46 2.326 . S
Tb30 O48 2.500 . S
Tb30 O49 2.473 . S
Tb30 O52 2.324 . S
Eu31 O35 2.292 . S
Eu31 C36 2.852 . S
Eu31 O47 2.324 . S
Eu31 O51 2.326 . S
Eu31 O53 2.500 . S
Eu31 O54 2.473 . S
C32 O29 1.255 . S
C32 O33 1.247 . S
O33 C32 1.247 . S
C34 O46 1.242 . S
C34 O47 1.258 . S
O35 Eu31 2.292 . S
O35 C37 1.255 . S
C36 Eu31 2.852 . S
C36 C40 1.503 . S
C36 O53 1.273 . S
C36 O54 1.257 . S
C37 O35 1.255 . S
C37 O38 1.247 . S
O38 C37 1.247 . S
C39 O51 1.242 . S
C39 O52 1.258 . S
C40 C36 1.503 . S
C40 C41 1.379 . S
C40 C45 1.392 . S
C41 C40 1.379 . S
C41 C42 1.404 . S
C41 H55 0.929 . S
C42 C41 1.404 . S
C42 C43 1.389 . S
C43 C42 1.389 . S
C43 C44 1.399 . S
C43 H56 0.931 . S
C44 C43 1.399 . S
C44 C45 1.390 . S
C45 C40 1.392 . S
C45 C44 1.390 . S
C45 H57 0.929 . S
O46 Tb30 2.326 . S
O46 C34 1.242 . S
O47 Eu31 2.324 . S
O47 C34 1.258 . S
O48 Tb30 2.500 . S
O48 C50 1.273 . S
O49 Tb30 2.473 . S
O49 C50 1.257 . S
C50 O48 1.273 . S
C50 O49 1.257 . S
O51 Eu31 2.326 . S
O51 C39 1.242 . S
O52 Tb30 2.324 . S
O52 C39 1.258 . S
O53 Eu31 2.500 . S
O53 C36 1.273 . S
O54 Eu31 2.473 . S
O54 C36 1.257 . S
H55 C41 0.929 . S
H56 C43 0.931 . S
H57 C45 0.929 . S
O58 Tb59 2.292 . S
O58 C61 1.255 . S
Tb59 O58 2.292 . S
Tb59 O75 2.326 . S
Tb59 O77 2.500 . S
Tb59 O78 2.473 . S
Tb59 O81 2.324 . S
Eu60 O64 2.292 1_556 S
Eu60 C65 2.852 . S
Eu60 O76 2.324 . S
Eu60 O80 2.326 . S
Eu60 O82 2.500 . S
Eu60 O83 2.473 . S
C61 O58 1.255 . S
C61 O62 1.247 . S
O62 C61 1.247 . S
C63 O75 1.242 . S
C63 O76 1.258 . S
O64 Eu60 2.292 1_554 S
O64 C66 1.255 . S
C65 Eu60 2.852 . S
C65 C69 1.503 . S
C65 O82 1.273 . S
C65 O83 1.257 . S
C66 O64 1.255 . S
C66 O67 1.247 . S
O67 C66 1.247 . S
C68 O80 1.242 . S
C68 O81 1.258 . S
C69 C65 1.503 . S
C69 C70 1.379 . S
C69 C74 1.392 . S
C70 C69 1.379 . S
C70 C71 1.404 . S
C70 H84 0.929 . S
C71 C70 1.404 . S
C71 C72 1.389 . S
C72 C71 1.389 . S
C72 C73 1.399 . S
C72 H85 0.931 . S
C73 C72 1.399 . S
C73 C74 1.390 . S
C74 C69 1.392 . S
C74 C73 1.390 . S
C74 H86 0.929 . S
O75 Tb59 2.326 . S
O75 C63 1.242 . S
O76 Eu60 2.324 . S
O76 C63 1.258 . S
O77 Tb59 2.500 . S
O77 C79 1.273 . S
O78 Tb59 2.473 . S
O78 C79 1.257 . S
C79 O77 1.273 . S
C79 O78 1.257 . S
O80 Eu60 2.326 . S
O80 C68 1.242 . S
O81 Tb59 2.324 . S
O81 C68 1.258 . S
O82 Eu60 2.500 . S
O82 C65 1.273 . S
O83 Eu60 2.473 . S
O83 C65 1.257 . S
H84 C70 0.929 . S
H85 C72 0.931 . S
H86 C74 0.929 . S
O87 Tb88 2.292 . S
O87 C90 1.255 . S
Tb88 O87 2.292 . S
Tb88 O104 2.326 . S
Tb88 O106 2.500 . S
Tb88 O107 2.473 . S
Tb88 O110 2.324 . S
Eu89 O93 2.292 . S
Eu89 C94 2.852 . S
Eu89 O105 2.324 . S
Eu89 O109 2.326 . S
Eu89 O111 2.500 . S
Eu89 O112 2.473 . S
C90 O87 1.255 . S
C90 O91 1.247 . S
O91 C90 1.247 . S
C92 O104 1.242 . S
C92 O105 1.258 . S
O93 Eu89 2.292 . S
O93 C95 1.255 . S
C94 Eu89 2.852 . S
C94 C98 1.503 . S
C94 O111 1.273 . S
C94 O112 1.257 . S
C95 O93 1.255 . S
C95 O96 1.247 . S
O96 C95 1.247 . S
C97 O109 1.242 . S
C97 O110 1.258 . S
C98 C94 1.503 . S
C98 C99 1.379 . S
C98 C103 1.392 . S
C99 C98 1.379 . S
C99 C100 1.404 . S
C99 H113 0.929 . S
C100 C99 1.404 . S
C100 C101 1.389 . S
C101 C100 1.389 . S
C101 C102 1.399 . S
C101 H114 0.931 . S
C102 C101 1.399 . S
C102 C103 1.390 . S
C103 C98 1.392 . S
C103 C102 1.390 . S
C103 H115 0.929 . S
O104 Tb88 2.326 . S
O104 C92 1.242 . S
O105 Eu89 2.324 . S
O105 C92 1.258 . S
O106 Tb88 2.500 . S
O106 C108 1.273 . S
O107 Tb88 2.473 . S
O107 C108 1.257 . S
C108 O106 1.273 . S
C108 O107 1.257 . S
O109 Eu89 2.326 . S
O109 C97 1.242 . S
O110 Tb88 2.324 . S
O110 C97 1.258 . S
O111 Eu89 2.500 . S
O111 C94 1.273 . S
O112 Eu89 2.473 . S
O112 C94 1.257 . S
H113 C99 0.929 . S
H114 C101 0.931 . S
H115 C103 0.929 . S
O116 Tb117 2.292 . S
O116 C119 1.255 . S
Tb117 O116 2.292 . S
Tb117 O133 2.326 . S
Tb117 O135 2.500 . S
Tb117 O136 2.473 . S
Tb117 O139 2.324 . S
Eu118 O122 2.292 1_554 S
Eu118 C123 2.852 . S
Eu118 O134 2.324 . S
Eu118 O138 2.326 . S
Eu118 O140 2.500 . S
Eu118 O141 2.473 . S
C119 O116 1.255 . S
C119 O120 1.247 . S
O120 C119 1.247 . S
C121 O133 1.242 . S
C121 O134 1.258 . S
O122 Eu118 2.292 1_556 S
O122 C124 1.255 . S
C123 Eu118 2.852 . S
C123 C127 1.503 . S
C123 O140 1.273 . S
C123 O141 1.257 . S
C124 O122 1.255 . S
C124 O125 1.247 . S
O125 C124 1.247 . S
C126 O138 1.242 . S
C126 O139 1.258 . S
C127 C123 1.503 . S
C127 C128 1.379 . S
C127 C132 1.392 . S
C128 C127 1.379 . S
C128 C129 1.404 . S
C128 H142 0.929 . S
C129 C128 1.404 . S
C129 C130 1.389 . S
C130 C129 1.389 . S
C130 C131 1.399 . S
C130 H143 0.931 . S
C131 C130 1.399 . S
C131 C132 1.390 . S
C132 C127 1.392 . S
C132 C131 1.390 . S
C132 H144 0.929 . S
O133 Tb117 2.326 . S
O133 C121 1.242 . S
O134 Eu118 2.324 . S
O134 C121 1.258 . S
O135 Tb117 2.500 . S
O135 C137 1.273 . S
O136 Tb117 2.473 . S
O136 C137 1.257 . S
C137 O135 1.273 . S
C137 O136 1.257 . S
O138 Eu118 2.326 . S
O138 C126 1.242 . S
O139 Tb117 2.324 . S
O139 C126 1.258 . S
O140 Eu118 2.500 . S
O140 C123 1.273 . S
O141 Eu118 2.473 . S
O141 C123 1.257 . S
H142 C128 0.929 . S
H143 C130 0.931 . S
H144 C132 0.929 . S
O145 Tb146 2.292 . S
O145 C148 1.255 . S
Tb146 O145 2.292 . S
Tb146 O162 2.326 . S
Tb146 O164 2.500 . S
Tb146 O165 2.473 . S
Tb146 O168 2.324 . S
Eu147 O151 2.292 . S
Eu147 C152 2.852 . S
Eu147 O163 2.324 . S
Eu147 O167 2.326 . S
Eu147 O169 2.500 . S
Eu147 O170 2.473 . S
C148 O145 1.255 . S
C148 O149 1.247 . S
O149 C148 1.247 . S
C150 O162 1.242 . S
C150 O163 1.258 . S
O151 Eu147 2.292 . S
O151 C153 1.255 . S
C152 Eu147 2.852 . S
C152 C156 1.503 . S
C152 O169 1.273 . S
C152 O170 1.257 . S
C153 O151 1.255 . S
C153 O154 1.247 . S
O154 C153 1.247 . S
C155 O167 1.242 . S
C155 O168 1.258 . S
C156 C152 1.503 . S
C156 C157 1.379 . S
C156 C161 1.392 . S
C157 C156 1.379 . S
C157 C158 1.404 . S
C157 H171 0.929 . S
C158 C157 1.404 . S
C158 C159 1.389 . S
C159 C158 1.389 . S
C159 C160 1.399 . S
C159 H172 0.931 . S
C160 C159 1.399 . S
C160 C161 1.390 . S
C161 C156 1.392 . S
C161 C160 1.390 . S
C161 H173 0.929 . S
O162 Tb146 2.326 . S
O162 C150 1.242 . S
O163 Eu147 2.324 . S
O163 C150 1.258 . S
O164 Tb146 2.500 . S
O164 C166 1.273 . S
O165 Tb146 2.473 . S
O165 C166 1.257 . S
C166 O164 1.273 . S
C166 O165 1.257 . S
O167 Eu147 2.326 . S
O167 C155 1.242 . S
O168 Tb146 2.324 . S
O168 C155 1.258 . S
O169 Eu147 2.500 . S
O169 C152 1.273 . S
O170 Eu147 2.473 . S
O170 C152 1.257 . S
H171 C157 0.929 . S
H172 C159 0.931 . S
H173 C161 0.929 . S
O174 Tb175 2.292 . S
O174 C177 1.255 . S
Tb175 O174 2.292 . S
Tb175 O191 2.326 . S
Tb175 O193 2.500 . S
Tb175 O194 2.473 . S
Tb175 O197 2.324 . S
Eu176 O180 2.292 1_556 S
Eu176 C181 2.852 . S
Eu176 O192 2.324 . S
Eu176 O196 2.326 . S
Eu176 O198 2.500 . S
Eu176 O199 2.473 . S
C177 O174 1.255 . S
C177 O178 1.247 . S
O178 C177 1.247 . S
C179 O191 1.242 . S
C179 O192 1.258 . S
O180 Eu176 2.292 1_554 S
O180 C182 1.255 . S
C181 Eu176 2.852 . S
C181 C185 1.503 . S
C181 O198 1.273 . S
C181 O199 1.257 . S
C182 O180 1.255 . S
C182 O183 1.247 . S
O183 C182 1.247 . S
C184 O196 1.242 . S
C184 O197 1.258 . S
C185 C181 1.503 . S
C185 C186 1.379 . S
C185 C190 1.392 . S
C186 C185 1.379 . S
C186 C187 1.404 . S
C186 H200 0.929 . S
C187 C186 1.404 . S
C187 C188 1.389 . S
C188 C187 1.389 . S
C188 C189 1.399 . S
C188 H201 0.931 . S
C189 C188 1.399 . S
C189 C190 1.390 . S
C190 C185 1.392 . S
C190 C189 1.390 . S
C190 H202 0.929 . S
O191 Tb175 2.326 . S
O191 C179 1.242 . S
O192 Eu176 2.324 . S
O192 C179 1.258 . S
O193 Tb175 2.500 . S
O193 C195 1.273 . S
O194 Tb175 2.473 . S
O194 C195 1.257 . S
C195 O193 1.273 . S
C195 O194 1.257 . S
O196 Eu176 2.326 . S
O196 C184 1.242 . S
O197 Tb175 2.324 . S
O197 C184 1.258 . S
O198 Eu176 2.500 . S
O198 C181 1.273 . S
O199 Eu176 2.473 . S
O199 C181 1.257 . S
H200 C186 0.929 . S
H201 C188 0.931 . S
H202 C190 0.929 . S
O203 Tb204 2.292 . S
O203 C206 1.255 . S
Tb204 O203 2.292 . S
Tb204 O220 2.326 . S
Tb204 O222 2.500 . S
Tb204 O223 2.473 . S
Tb204 O226 2.324 . S
Eu205 O209 2.292 . S
Eu205 C210 2.852 . S
Eu205 O221 2.324 . S
Eu205 O225 2.326 . S
Eu205 O227 2.500 . S
Eu205 O228 2.473 . S
C206 O203 1.255 . S
C206 O207 1.247 . S
O207 C206 1.247 . S
C208 O220 1.242 . S
C208 O221 1.258 . S
O209 Eu205 2.292 . S
O209 C211 1.255 . S
C210 Eu205 2.852 . S
C210 C214 1.503 . S
C210 O227 1.273 . S
C210 O228 1.257 . S
C211 O209 1.255 . S
C211 O212 1.247 . S
O212 C211 1.247 . S
C213 O225 1.242 . S
C213 O226 1.258 . S
C214 C210 1.503 . S
C214 C215 1.379 . S
C214 C219 1.392 . S
C215 C214 1.379 . S
C215 C216 1.404 . S
C215 H229 0.929 . S
C216 C215 1.404 . S
C216 C217 1.389 . S
C217 C216 1.389 . S
C217 C218 1.399 . S
C217 H230 0.931 . S
C218 C217 1.399 . S
C218 C219 1.390 . S
C219 C214 1.392 . S
C219 C218 1.390 . S
C219 H231 0.929 . S
O220 Tb204 2.326 . S
O220 C208 1.242 . S
O221 Eu205 2.324 . S
O221 C208 1.258 . S
O222 Tb204 2.500 . S
O222 C224 1.273 . S
O223 Tb204 2.473 . S
O223 C224 1.257 . S
C224 O222 1.273 . S
C224 O223 1.257 . S
O225 Eu205 2.326 . S
O225 C213 1.242 . S
O226 Tb204 2.324 . S
O226 C213 1.258 . S
O227 Eu205 2.500 . S
O227 C210 1.273 . S
O228 Eu205 2.473 . S
O228 C210 1.257 . S
H229 C215 0.929 . S
H230 C217 0.931 . S
H231 C219 0.929 . S
H232 C238 0.930 . S
H233 C242 0.930 . S
H234 C247 0.929 . S
H235 C245 0.929 . S
H236 C240 0.929 . S
H237 C246 0.929 . S
C238 H232 0.930 . S
C238 C239 1.367 . S
C238 C246 1.378 . S
C239 C238 1.367 . S
C239 C247 1.433 . S
C240 H236 0.929 . S
C240 C242 1.378 . S
C240 C244 1.350 . S
C241 C244 1.463 . S
C241 C246 1.350 . S
C241 N249 1.427 . S
C242 H233 0.930 . S
C242 C240 1.378 . S
C242 C243 1.367 . S
C243 C242 1.367 . S
C243 C245 1.433 . S
C244 C240 1.350 . S
C244 C241 1.463 . S
C244 N248 1.427 . S
C245 H235 0.929 . S
C245 C243 1.433 . S
C245 N248 1.384 . S
C246 H237 0.929 . S
C246 C238 1.378 . S
C246 C241 1.350 . S
C247 H234 0.929 . S
C247 C239 1.433 . S
C247 N249 1.384 . S
N248 C244 1.427 . S
N248 C245 1.384 . S
N249 C241 1.427 . S
N249 C247 1.384 . S
H250 C256 0.930 . S
H251 C260 0.930 . S
H252 C265 0.929 . S
H253 C263 0.929 . S
H254 C258 0.929 . S
H255 C264 0.929 . S
C256 H250 0.930 . S
C256 C257 1.367 . S
C256 C264 1.378 . S
C257 C256 1.367 . S
C257 C265 1.433 . S
C258 H254 0.929 . S
C258 C260 1.378 . S
C258 C262 1.350 . S
C259 C262 1.463 . S
C259 C264 1.350 . S
C259 N267 1.427 . S
C260 H251 0.930 . S
C260 C258 1.378 . S
C260 C261 1.367 . S
C261 C260 1.367 . S
C261 C263 1.433 . S
C262 C258 1.350 . S
C262 C259 1.463 . S
C262 N266 1.427 . S
C263 H253 0.929 . S
C263 C261 1.433 . S
C263 N266 1.384 . S
C264 H255 0.929 . S
C264 C256 1.378 . S
C264 C259 1.350 . S
C265 H252 0.929 . S
C265 C257 1.433 . S
C265 N267 1.384 . S
N266 C262 1.427 . S
N266 C263 1.384 . S
N267 C259 1.427 . S
N267 C265 1.384 . S
H268 C274 0.930 . S
H269 C278 0.930 . S
H270 C283 0.929 . S
H271 C281 0.929 . S
H272 C276 0.929 . S
H273 C282 0.929 . S
C274 H268 0.930 . S
C274 C275 1.367 . S
C274 C282 1.378 . S
C275 C274 1.367 . S
C275 C283 1.433 . S
C276 H272 0.929 . S
C276 C278 1.378 . S
C276 C280 1.350 . S
C277 C280 1.463 1_655 S
C277 C282 1.350 . S
C277 N285 1.427 . S
C278 H269 0.930 . S
C278 C276 1.378 . S
C278 C279 1.367 . S
C279 C278 1.367 . S
C279 C281 1.433 . S
C280 C276 1.350 . S
C280 C277 1.463 1_455 S
C280 N284 1.427 . S
C281 H271 0.929 . S
C281 C279 1.433 . S
C281 N284 1.384 . S
C282 H273 0.929 . S
C282 C274 1.378 . S
C282 C277 1.350 . S
C283 H270 0.929 . S
C283 C275 1.433 . S
C283 N285 1.384 . S
N284 C280 1.427 . S
N284 C281 1.384 . S
N285 C277 1.427 . S
N285 C283 1.384 . S
H286 C292 0.930 . S
H287 C296 0.930 . S
H288 C301 0.929 . S
H289 C299 0.929 . S
H290 C294 0.929 . S
H291 C300 0.929 . S
C292 H286 0.930 . S
C292 C293 1.367 . S
C292 C300 1.378 . S
C293 C292 1.367 . S
C293 C301 1.433 . S
C294 H290 0.929 . S
C294 C296 1.378 . S
C294 C298 1.350 . S
C295 C298 1.463 1_655 S
C295 C300 1.350 . S
C295 N303 1.427 . S
C296 H287 0.930 . S
C296 C294 1.378 . S
C296 C297 1.367 . S
C297 C296 1.367 . S
C297 C299 1.433 . S
C298 C294 1.350 . S
C298 C295 1.463 1_455 S
C298 N302 1.427 . S
C299 H289 0.929 . S
C299 C297 1.433 . S
C299 N302 1.384 . S
C300 H291 0.929 . S
C300 C292 1.378 . S
C300 C295 1.350 . S
C301 H288 0.929 . S
C301 C293 1.433 . S
C301 N303 1.384 . S
N302 C298 1.427 . S
N302 C299 1.384 . S
N303 C295 1.427 . S
N303 C301 1.384 . S
H304 C310 0.930 . S
H305 C314 0.930 . S
H306 C319 0.929 . S
H307 C317 0.929 . S
H308 C312 0.929 . S
H309 C318 0.929 . S
C310 H304 0.930 . S
C310 C311 1.367 . S
C310 C318 1.378 . S
C311 C310 1.367 . S
C311 C319 1.433 . S
C312 H308 0.929 . S
C312 C314 1.378 . S
C312 C316 1.350 . S
C313 C316 1.463 1_556 S
C313 C318 1.350 . S
C313 N321 1.427 . S
C314 H305 0.930 . S
C314 C312 1.378 . S
C314 C315 1.367 . S
C315 C314 1.367 . S
C315 C317 1.433 . S
C316 C312 1.350 . S
C316 C313 1.463 1_554 S
C316 N320 1.427 . S
C317 H307 0.929 . S
C317 C315 1.433 . S
C317 N320 1.384 . S
C318 H309 0.929 . S
C318 C310 1.378 . S
C318 C313 1.350 . S
C319 H306 0.929 . S
C319 C311 1.433 . S
C319 N321 1.384 . S
N320 C316 1.427 . S
N320 C317 1.384 . S
N321 C313 1.427 . S
N321 C319 1.384 . S
H322 C328 0.930 . S
H323 C332 0.930 . S
H324 C337 0.929 . S
H325 C335 0.929 . S
H326 C330 0.929 . S
H327 C336 0.929 . S
C328 H322 0.930 . S
C328 C329 1.367 . S
C328 C336 1.378 . S
C329 C328 1.367 . S
C329 C337 1.433 . S
C330 H326 0.929 . S
C330 C332 1.378 . S
C330 C334 1.350 . S
C331 C334 1.463 . S
C331 C336 1.350 . S
C331 N339 1.427 . S
C332 H323 0.930 . S
C332 C330 1.378 . S
C332 C333 1.367 . S
C333 C332 1.367 . S
C333 C335 1.433 . S
C334 C330 1.350 . S
C334 C331 1.463 . S
C334 N338 1.427 . S
C335 H325 0.929 . S
C335 C333 1.433 . S
C335 N338 1.384 . S
C336 H327 0.929 . S
C336 C328 1.378 . S
C336 C331 1.350 . S
C337 H324 0.929 . S
C337 C329 1.433 . S
C337 N339 1.384 . S
N338 C334 1.427 . S
N338 C335 1.384 . S
N339 C331 1.427 . S
N339 C337 1.384 . S
H340 C346 0.930 . S
H341 C350 0.930 . S
H342 C355 0.929 . S
H343 C353 0.929 . S
H344 C348 0.929 . S
H345 C354 0.929 . S
C346 H340 0.930 . S
C346 C347 1.367 1_556 S
C346 C354 1.378 . S
C347 C346 1.367 1_554 S
C347 C355 1.433 . S
C348 H344 0.929 . S
C348 C350 1.378 . S
C348 C352 1.350 1_554 S
C349 C352 1.463 1_554 S
C349 C354 1.350 1_554 S
C349 N357 1.427 . S
C350 H341 0.930 . S
C350 C348 1.378 . S
C350 C351 1.367 1_554 S
C351 C350 1.367 1_556 S
C351 C353 1.433 . S
C352 C348 1.350 1_556 S
C352 C349 1.463 1_556 S
C352 N356 1.427 . S
C353 H343 0.929 . S
C353 C351 1.433 . S
C353 N356 1.384 . S
C354 H345 0.929 . S
C354 C346 1.378 . S
C354 C349 1.350 1_556 S
C355 H342 0.929 . S
C355 C347 1.433 . S
C355 N357 1.384 . S
N356 C352 1.427 . S
N356 C353 1.384 . S
N357 C349 1.427 . S
N357 C355 1.384 . S
H358 C364 0.930 . S
H359 C368 0.930 . S
H360 C373 0.929 . S
H361 C371 0.929 . S
H362 C366 0.929 . S
H363 C372 0.929 . S
C364 H358 0.930 . S
C364 C365 1.367 . S
C364 C372 1.378 . S
C365 C364 1.367 . S
C365 C373 1.433 . S
C366 H362 0.929 . S
C366 C368 1.378 . S
C366 C370 1.350 . S
C367 C370 1.463 . S
C367 C372 1.350 . S
C367 N375 1.427 . S
C368 H359 0.930 . S
C368 C366 1.378 . S
C368 C369 1.367 . S
C369 C368 1.367 . S
C369 C371 1.433 . S
C370 C366 1.350 . S
C370 C367 1.463 . S
C370 N374 1.427 . S
C371 H361 0.929 . S
C371 C369 1.433 . S
C371 N374 1.384 . S
C372 H363 0.929 . S
C372 C364 1.378 . S
C372 C367 1.350 . S
C373 H360 0.929 . S
C373 C365 1.433 . S
C373 N375 1.384 . S
N374 C370 1.427 . S
N374 C371 1.384 . S
N375 C367 1.427 . S
N375 C373 1.384 . S
H376 C382 0.930 . S
H377 C386 0.930 . S
H378 C391 0.929 . S
H379 C389 0.929 1_554 S
H380 C384 0.929 . S
H381 C390 0.929 . S
C382 H376 0.930 . S
C382 C383 1.367 . S
C382 C390 1.378 . S
C383 C382 1.367 . S
C383 C391 1.433 . S
C384 H380 0.929 . S
C384 C386 1.378 . S
C384 C388 1.350 . S
C385 C388 1.463 . S
C385 C390 1.350 . S
C385 N393 1.427 . S
C386 H377 0.930 . S
C386 C384 1.378 . S
C386 C387 1.367 . S
C387 C386 1.367 . S
C387 C389 1.433 . S
C388 C384 1.350 . S
C388 C385 1.463 . S
C388 N392 1.427 . S
C389 H379 0.929 1_556 S
C389 C387 1.433 . S
C389 N392 1.384 . S
C390 H381 0.929 . S
C390 C382 1.378 . S
C390 C385 1.350 . S
C391 H378 0.929 . S
C391 C383 1.433 . S
C391 N393 1.384 . S
N392 C388 1.427 . S
N392 C389 1.384 . S
N393 C385 1.427 . S
N393 C391 1.384 . S
H394 C400 0.930 . S
H395 C404 0.930 . S
H396 C409 0.929 . S
H397 C407 0.929 . S
H398 C402 0.929 . S
H399 C408 0.929 . S
C400 H394 0.930 . S
C400 C401 1.367 . S
C400 C408 1.378 . S
C401 C400 1.367 . S
C401 C409 1.433 . S
C402 H398 0.929 . S
C402 C404 1.378 . S
C402 C406 1.350 . S
C403 C406 1.463 . S
C403 C408 1.350 . S
C403 N411 1.427 . S
C404 H395 0.930 . S
C404 C402 1.378 . S
C404 C405 1.367 . S
C405 C404 1.367 . S
C405 C407 1.433 . S
C406 C402 1.350 . S
C406 C403 1.463 . S
C406 N410 1.427 . S
C407 H397 0.929 . S
C407 C405 1.433 . S
C407 N410 1.384 . S
C408 H399 0.929 . S
C408 C400 1.378 . S
C408 C403 1.350 . S
C409 H396 0.929 . S
C409 C401 1.433 . S
C409 N411 1.384 . S
N410 C406 1.427 . S
N410 C407 1.384 . S
N411 C403 1.427 . S
N411 C409 1.384 . S
H412 C418 0.930 . S
H413 C422 0.930 . S
H414 C427 0.929 . S
H415 C425 0.929 . S
H416 C420 0.929 . S
H417 C426 0.929 . S
C418 H412 0.930 . S
C418 C419 1.367 . S
C418 C426 1.378 . S
C419 C418 1.367 . S
C419 C427 1.433 . S
C420 H416 0.929 . S
C420 C422 1.378 . S
C420 C424 1.350 . S
C421 C424 1.463 . S
C421 C426 1.350 . S
C421 N429 1.427 . S
C422 H413 0.930 . S
C422 C420 1.378 . S
C422 C423 1.367 . S
C423 C422 1.367 . S
C423 C425 1.433 . S
C424 C420 1.350 . S
C424 C421 1.463 . S
C424 N428 1.427 . S
C425 H415 0.929 . S
C425 C423 1.433 . S
C425 N428 1.384 . S
C426 H417 0.929 . S
C426 C418 1.378 . S
C426 C421 1.350 . S
C427 H414 0.929 . S
C427 C419 1.433 . S
C427 N429 1.384 . S
N428 C424 1.427 . S
N428 C425 1.384 . S
N429 C421 1.427 . S
N429 C427 1.384 . S
H430 C436 0.930 . S
H431 C440 0.930 . S
H432 C445 0.929 . S
H433 C443 0.929 . S
H434 C438 0.929 . S
H435 C444 0.929 . S
C436 H430 0.930 . S
C436 C437 1.367 . S
C436 C444 1.378 . S
C437 C436 1.367 . S
C437 C445 1.433 . S
C438 H434 0.929 . S
C438 C440 1.378 . S
C438 C442 1.350 . S
C439 C442 1.463 . S
C439 C444 1.350 . S
C439 N447 1.427 . S
C440 H431 0.930 . S
C440 C438 1.378 . S
C440 C441 1.367 . S
C441 C440 1.367 . S
C441 C443 1.433 . S
C442 C438 1.350 . S
C442 C439 1.463 . S
C442 N446 1.427 . S
C443 H433 0.929 . S
C443 C441 1.433 . S
C443 N446 1.384 . S
C444 H435 0.929 . S
C444 C436 1.378 . S
C444 C439 1.350 . S
C445 H432 0.929 . S
C445 C437 1.433 . S
C445 N447 1.384 . S
N446 C442 1.427 . S
N446 C443 1.384 . S
N447 C439 1.427 . S
N447 C445 1.384 . S
H448 C454 0.930 . S
H449 C458 0.930 . S
H450 C463 0.929 . S
H451 C461 0.929 1_565 S
H452 C456 0.929 . S
H453 C462 0.929 . S
C454 H448 0.930 . S
C454 C455 1.367 . S
C454 C462 1.378 . S
C455 C454 1.367 . S
C455 C463 1.433 . S
C456 H452 0.929 . S
C456 C458 1.378 . S
C456 C460 1.350 1_545 S
C457 C460 1.463 . S
C457 C462 1.350 . S
C457 N465 1.427 . S
C458 H449 0.930 . S
C458 C456 1.378 . S
C458 C459 1.367 . S
C459 C458 1.367 . S
C459 C461 1.433 . S
C460 C456 1.350 1_565 S
C460 C457 1.463 . S
C460 N464 1.427 . S
C461 H451 0.929 1_545 S
C461 C459 1.433 . S
C461 N464 1.384 1_545 S
C462 H453 0.929 . S
C462 C454 1.378 . S
C462 C457 1.350 . S
C463 H450 0.929 . S
C463 C455 1.433 . S
C463 N465 1.384 . S
N464 C460 1.427 . S
N464 C461 1.384 1_565 S
N465 C457 1.427 . S
N465 C463 1.384 . S
H466 C472 0.930 . S
H467 C476 0.930 . S
H468 C481 0.929 . S
H469 C479 0.929 . S
H470 C474 0.929 . S
H471 C480 0.929 . S
C472 H466 0.930 . S
C472 C473 1.367 . S
C472 C480 1.378 . S
C473 C472 1.367 . S
C473 C481 1.433 . S
C474 H470 0.929 . S
C474 C476 1.378 . S
C474 C478 1.350 . S
C475 C478 1.463 . S
C475 C480 1.350 1_565 S
C475 N483 1.427 . S
C476 H467 0.930 . S
C476 C474 1.378 . S
C476 C477 1.367 . S
C477 C476 1.367 . S
C477 C479 1.433 . S
C478 C474 1.350 . S
C478 C475 1.463 . S
C478 N482 1.427 . S
C479 H469 0.929 . S
C479 C477 1.433 . S
C479 N482 1.384 . S
C480 H471 0.929 . S
C480 C472 1.378 . S
C480 C475 1.350 1_545 S
C481 H468 0.929 . S
C481 C473 1.433 . S
C481 N483 1.384 1_545 S
N482 C478 1.427 . S
N482 C479 1.384 . S
N483 C475 1.427 . S
N483 C481 1.384 1_565 S
H484 C490 0.930 1_545 S
H485 C494 0.930 . S
H486 C499 0.929 . S
H487 C497 0.929 . S
H488 C492 0.929 1_565 S
H489 C498 0.929 . S
C490 H484 0.930 1_565 S
C490 C491 1.367 . S
C490 C498 1.378 1_565 S
C491 C490 1.367 . S
C491 C499 1.433 . S
C492 H488 0.929 1_545 S
C492 C494 1.378 . S
C492 C496 1.350 . S
C493 C496 1.463 . S
C493 C498 1.350 . S
C493 N501 1.427 1_545 S
C494 H485 0.930 . S
C494 C492 1.378 . S
C494 C495 1.367 . S
C495 C494 1.367 . S
C495 C497 1.433 . S
C496 C492 1.350 . S
C496 C493 1.463 . S
C496 N500 1.427 . S
C497 H487 0.929 . S
C497 C495 1.433 . S
C497 N500 1.384 . S
C498 H489 0.929 . S
C498 C490 1.378 1_545 S
C498 C493 1.350 . S
C499 H486 0.929 . S
C499 C491 1.433 . S
C499 N501 1.384 . S
N500 C496 1.427 . S
N500 C497 1.384 . S
N501 C493 1.427 1_565 S
N501 C499 1.384 . S
H502 C508 0.930 . S
H503 C512 0.930 . S
H504 C517 0.929 . S
H505 C515 0.929 . S
H506 C510 0.929 1_565 S
H507 C516 0.929 . S
C508 H502 0.930 . S
C508 C509 1.367 . S
C508 C516 1.378 1_565 S
C509 C508 1.367 . S
C509 C517 1.433 . S
C510 H506 0.929 1_545 S
C510 C512 1.378 . S
C510 C514 1.350 . S
C511 C514 1.463 . S
C511 C516 1.350 . S
C511 N519 1.427 1_545 S
C512 H503 0.930 . S
C512 C510 1.378 . S
C512 C513 1.367 . S
C513 C512 1.367 . S
C513 C515 1.433 . S
C514 C510 1.350 . S
C514 C511 1.463 . S
C514 N518 1.427 . S
C515 H505 0.929 . S
C515 C513 1.433 . S
C515 N518 1.384 . S
C516 H507 0.929 . S
C516 C508 1.378 1_545 S
C516 C511 1.350 . S
C517 H504 0.929 . S
C517 C509 1.433 . S
C517 N519 1.384 . S
N518 C514 1.427 . S
N518 C515 1.384 . S
N519 C511 1.427 1_565 S
N519 C517 1.384 . S
H520 C526 0.930 . S
H521 C530 0.930 . S
H522 C535 0.929 . S
H523 C533 0.929 . S
H524 C528 0.929 . S
H525 C534 0.929 . S
C526 H520 0.930 . S
C526 C527 1.367 . S
C526 C534 1.378 1_655 S
C527 C526 1.367 . S
C527 C535 1.433 . S
C528 H524 0.929 . S
C528 C530 1.378 1_655 S
C528 C532 1.350 1_655 S
C529 C532 1.463 1_656 S
C529 C534 1.350 1_655 S
C529 N537 1.427 . S
C530 H521 0.930 . S
C530 C528 1.378 1_455 S
C530 C531 1.367 . S
C531 C530 1.367 . S
C531 C533 1.433 . S
C532 C528 1.350 1_455 S
C532 C529 1.463 1_454 S
C532 N536 1.427 . S
C533 H523 0.929 . S
C533 C531 1.433 . S
C533 N536 1.384 . S
C534 H525 0.929 . S
C534 C526 1.378 1_455 S
C534 C529 1.350 1_455 S
C535 H522 0.929 . S
C535 C527 1.433 . S
C535 N537 1.384 . S
N536 C532 1.427 . S
N536 C533 1.384 . S
N537 C529 1.427 . S
N537 C535 1.384 . S
H538 C544 0.930 . S
H539 C548 0.930 . S
H540 C553 0.929 . S
H541 C551 0.929 . S
H542 C546 0.929 1_455 S
H543 C552 0.929 1_655 S
C544 H538 0.930 . S
C544 C545 1.367 . S
C544 C552 1.378 . S
C545 C544 1.367 . S
C545 C553 1.433 . S
C546 H542 0.929 1_655 S
C546 C548 1.378 . S
C546 C550 1.350 . S
C547 C550 1.463 1_455 S
C547 C552 1.350 . S
C547 N555 1.427 . S
C548 H539 0.930 . S
C548 C546 1.378 . S
C548 C549 1.367 . S
C549 C548 1.367 . S
C549 C551 1.433 . S
C550 C546 1.350 . S
C550 C547 1.463 1_655 S
C550 N554 1.427 . S
C551 H541 0.929 . S
C551 C549 1.433 . S
C551 N554 1.384 . S
C552 H543 0.929 1_455 S
C552 C544 1.378 . S
C552 C547 1.350 . S
C553 H540 0.929 . S
C553 C545 1.433 . S
C553 N555 1.384 . S
N554 C550 1.427 . S
N554 C551 1.384 . S
N555 C547 1.427 . S
N555 C553 1.384 . S
H556 C562 0.930 . S
H557 C566 0.930 . S
H558 C571 0.929 . S
H559 C569 0.929 . S
H560 C564 0.929 1_545 S
H561 C570 0.929 1_565 S
C562 H556 0.930 . S
C562 C563 1.367 . S
C562 C570 1.378 . S
C563 C562 1.367 . S
C563 C571 1.433 . S
C564 H560 0.929 1_565 S
C564 C566 1.378 . S
C564 C568 1.350 . S
C565 C568 1.463 1_546 S
C565 C570 1.350 . S
C565 N573 1.427 . S
C566 H557 0.930 . S
C566 C564 1.378 . S
C566 C567 1.367 . S
C567 C566 1.367 . S
C567 C569 1.433 . S
C568 C564 1.350 . S
C568 C565 1.463 1_564 S
C568 N572 1.427 . S
C569 H559 0.929 . S
C569 C567 1.433 . S
C569 N572 1.384 . S
C570 H561 0.929 1_545 S
C570 C562 1.378 . S
C570 C565 1.350 . S
C571 H558 0.929 . S
C571 C563 1.433 . S
C571 N573 1.384 . S
N572 C568 1.427 . S
N572 C569 1.384 . S
N573 C565 1.427 . S
N573 C571 1.384 . S
H574 C580 0.930 . S
H575 C584 0.930 . S
H576 C589 0.929 . S
H577 C587 0.929 . S
H578 C582 0.929 . S
H579 C588 0.929 . S
C580 H574 0.930 . S
C580 C581 1.367 . S
C580 C588 1.378 . S
C581 C580 1.367 . S
C581 C589 1.433 . S
C582 H578 0.929 . S
C582 C584 1.378 . S
C582 C586 1.350 . S
C583 C586 1.463 1_565 S
C583 C588 1.350 . S
C583 N591 1.427 1_565 S
C584 H575 0.930 . S
C584 C582 1.378 . S
C584 C585 1.367 . S
C585 C584 1.367 . S
C585 C587 1.433 . S
C586 C582 1.350 . S
C586 C583 1.463 1_545 S
C586 N590 1.427 1_545 S
C587 H577 0.929 . S
C587 C585 1.433 . S
C587 N590 1.384 1_545 S
C588 H579 0.929 . S
C588 C580 1.378 . S
C588 C583 1.350 . S
C589 H576 0.929 . S
C589 C581 1.433 . S
C589 N591 1.384 1_565 S
N590 C586 1.427 1_565 S
N590 C587 1.384 1_565 S
N591 C583 1.427 1_545 S
N591 C589 1.384 1_545 S
H592 C598 0.930 . S
H593 C602 0.930 . S
H594 C607 0.929 . S
H595 C605 0.929 . S
H596 C600 0.929 . S
H597 C606 0.929 . S
C598 H592 0.930 . S
C598 C599 1.367 . S
C598 C606 1.378 1_655 S
C599 C598 1.367 . S
C599 C607 1.433 . S
C600 H596 0.929 . S
C600 C602 1.378 1_655 S
C600 C604 1.350 1_655 S
C601 C604 1.463 1_655 S
C601 C606 1.350 1_655 S
C601 N609 1.427 . S
C602 H593 0.930 . S
C602 C600 1.378 1_455 S
C602 C603 1.367 . S
C603 C602 1.367 . S
C603 C605 1.433 . S
C604 C600 1.350 1_455 S
C604 C601 1.463 1_455 S
C604 N608 1.427 . S
C605 H595 0.929 . S
C605 C603 1.433 . S
C605 N608 1.384 . S
C606 H597 0.929 . S
C606 C598 1.378 1_455 S
C606 C601 1.350 1_455 S
C607 H594 0.929 . S
C607 C599 1.433 . S
C607 N609 1.384 . S
N608 C604 1.427 . S
N608 C605 1.384 . S
N609 C601 1.427 . S
N609 C607 1.384 . S
H610 C616 0.930 . S
H611 C620 0.930 . S
H612 C625 0.929 . S
H613 C623 0.929 . S
H614 C618 0.929 . S
H615 C624 0.929 . S
C616 H610 0.930 . S
C616 C617 1.367 . S
C616 C624 1.378 . S
C617 C616 1.367 . S
C617 C625 1.433 . S
C618 H614 0.929 . S
C618 C620 1.378 . S
C618 C622 1.350 . S
C619 C622 1.463 1_455 S
C619 C624 1.350 . S
C619 N627 1.427 . S
C620 H611 0.930 . S
C620 C618 1.378 . S
C620 C621 1.367 . S
C621 C620 1.367 . S
C621 C623 1.433 . S
C622 C618 1.350 . S
C622 C619 1.463 1_655 S
C622 N626 1.427 . S
C623 H613 0.929 . S
C623 C621 1.433 . S
C623 N626 1.384 . S
C624 H615 0.929 . S
C624 C616 1.378 . S
C624 C619 1.350 . S
C625 H612 0.929 . S
C625 C617 1.433 . S
C625 N627 1.384 . S
N626 C622 1.427 . S
N626 C623 1.384 . S
N627 C619 1.427 . S
N627 C625 1.384 . S
H628 C634 0.930 . S
H629 C638 0.930 . S
H630 C643 0.929 . S
H631 C641 0.929 . S
H632 C636 0.929 . S
H633 C642 0.929 . S
C634 H628 0.930 . S
C634 C635 1.367 . S
C634 C642 1.378 . S
C635 C634 1.367 . S
C635 C643 1.433 . S
C636 H632 0.929 . S
C636 C638 1.378 . S
C636 C640 1.350 . S
C637 C640 1.463 . S
C637 C642 1.350 . S
C637 N645 1.427 . S
C638 H629 0.930 . S
C638 C636 1.378 . S
C638 C639 1.367 . S
C639 C638 1.367 . S
C639 C641 1.433 . S
C640 C636 1.350 . S
C640 C637 1.463 . S
C640 N644 1.427 . S
C641 H631 0.929 . S
C641 C639 1.433 . S
C641 N644 1.384 . S
C642 H633 0.929 . S
C642 C634 1.378 . S
C642 C637 1.350 . S
C643 H630 0.929 . S
C643 C635 1.433 . S
C643 N645 1.384 . S
N644 C640 1.427 . S
N644 C641 1.384 . S
N645 C637 1.427 . S
N645 C643 1.384 . S
H646 C652 0.930 . S
H647 C656 0.930 . S
H648 C661 0.929 . S
H649 C659 0.929 . S
H650 C654 0.929 . S
H651 C660 0.929 . S
C652 H646 0.930 . S
C652 C653 1.367 . S
C652 C660 1.378 . S
C653 C652 1.367 . S
C653 C661 1.433 . S
C654 H650 0.929 . S
C654 C656 1.378 . S
C654 C658 1.350 . S
C655 C658 1.463 . S
C655 C660 1.350 . S
C655 N663 1.427 . S
C656 H647 0.930 . S
C656 C654 1.378 . S
C656 C657 1.367 . S
C657 C656 1.367 . S
C657 C659 1.433 . S
C658 C654 1.350 . S
C658 C655 1.463 . S
C658 N662 1.427 . S
C659 H649 0.929 . S
C659 C657 1.433 . S
C659 N662 1.384 . S
C660 H651 0.929 . S
C660 C652 1.378 . S
C660 C655 1.350 . S
C661 H648 0.929 . S
C661 C653 1.433 . S
C661 N663 1.384 . S
N662 C658 1.427 . S
N662 C659 1.384 . S
N663 C655 1.427 . S
N663 C661 1.384 . S
H664 C670 0.930 . S
H665 C674 0.930 . S
H666 C679 0.929 . S
H667 C677 0.929 . S
H668 C672 0.929 . S
H669 C678 0.929 . S
C670 H664 0.930 . S
C670 C671 1.367 . S
C670 C678 1.378 . S
C671 C670 1.367 . S
C671 C679 1.433 . S
C672 H668 0.929 . S
C672 C674 1.378 . S
C672 C676 1.350 . S
C673 C676 1.463 1_455 S
C673 C678 1.350 . S
C673 N681 1.427 . S
C674 H665 0.930 . S
C674 C672 1.378 . S
C674 C675 1.367 . S
C675 C674 1.367 . S
C675 C677 1.433 . S
C676 C672 1.350 . S
C676 C673 1.463 1_655 S
C676 N680 1.427 . S
C677 H667 0.929 . S
C677 C675 1.433 . S
C677 N680 1.384 . S
C678 H669 0.929 . S
C678 C670 1.378 . S
C678 C673 1.350 . S
C679 H666 0.929 . S
C679 C671 1.433 . S
C679 N681 1.384 . S
N680 C676 1.427 . S
N680 C677 1.384 . S
N681 C673 1.427 . S
N681 C679 1.384 . S
H682 C688 0.930 . S
H683 C692 0.930 . S
H684 C697 0.929 . S
H685 C695 0.929 . S
H686 C690 0.929 . S
H687 C696 0.929 . S
C688 H682 0.930 . S
C688 C689 1.367 . S
C688 C696 1.378 1_455 S
C689 C688 1.367 . S
C689 C697 1.433 . S
C690 H686 0.929 . S
C690 C692 1.378 1_455 S
C690 C694 1.350 1_455 S
C691 C694 1.463 1_455 S
C691 C696 1.350 1_455 S
C691 N699 1.427 . S
C692 H683 0.930 . S
C692 C690 1.378 1_655 S
C692 C693 1.367 . S
C693 C692 1.367 . S
C693 C695 1.433 . S
C694 C690 1.350 1_655 S
C694 C691 1.463 1_655 S
C694 N698 1.427 . S
C695 H685 0.929 . S
C695 C693 1.433 . S
C695 N698 1.384 . S
C696 H687 0.929 . S
C696 C688 1.378 1_655 S
C696 C691 1.350 1_655 S
C697 H684 0.929 . S
C697 C689 1.433 . S
C697 N699 1.384 . S
N698 C694 1.427 . S
N698 C695 1.384 . S
N699 C691 1.427 . S
N699 C697 1.384 . S
H700 C706 0.930 . S
H701 C710 0.930 . S
H702 C715 0.929 . S
H703 C713 0.929 . S
H704 C708 0.929 . S
H705 C714 0.929 . S
C706 H700 0.930 . S
C706 C707 1.367 . S
C706 C714 1.378 . S
C707 C706 1.367 . S
C707 C715 1.433 . S
C708 H704 0.929 . S
C708 C710 1.378 . S
C708 C712 1.350 . S
C709 C712 1.463 . S
C709 C714 1.350 . S
C709 N717 1.427 . S
C710 H701 0.930 . S
C710 C708 1.378 . S
C710 C711 1.367 . S
C711 C710 1.367 . S
C711 C713 1.433 . S
C712 C708 1.350 . S
C712 C709 1.463 . S
C712 N716 1.427 . S
C713 H703 0.929 . S
C713 C711 1.433 . S
C713 N716 1.384 . S
C714 H705 0.929 . S
C714 C706 1.378 . S
C714 C709 1.350 . S
C715 H702 0.929 . S
C715 C707 1.433 . S
C715 N717 1.384 . S
N716 C712 1.427 . S
N716 C713 1.384 . S
N717 C709 1.427 . S
N717 C715 1.384 . S
H718 C724 0.930 . S
H719 C728 0.930 . S
H720 C733 0.929 . S
H721 C731 0.929 . S
H722 C726 0.929 . S
H723 C732 0.929 . S
C724 H718 0.930 . S
C724 C725 1.367 . S
C724 C732 1.378 . S
C725 C724 1.367 . S
C725 C733 1.433 . S
C726 H722 0.929 . S
C726 C728 1.378 . S
C726 C730 1.350 . S
C727 C730 1.463 . S
C727 C732 1.350 . S
C727 N735 1.427 . S
C728 H719 0.930 . S
C728 C726 1.378 . S
C728 C729 1.367 . S
C729 C728 1.367 . S
C729 C731 1.433 . S
C730 C726 1.350 . S
C730 C727 1.463 . S
C730 N734 1.427 . S
C731 H721 0.929 . S
C731 C729 1.433 . S
C731 N734 1.384 . S
C732 H723 0.929 . S
C732 C724 1.378 . S
C732 C727 1.350 . S
C733 H720 0.929 . S
C733 C725 1.433 . S
C733 N735 1.384 . S
N734 C730 1.427 . S
N734 C731 1.384 . S
N735 C727 1.427 . S
N735 C733 1.384 . S
C239 C42 3.165 . S
C243 C13 3.163 . S
C257 C100 3.174 . S
C261 C71 3.172 . S
C275 C129 3.172 . S
C279 C158 3.174 . S
C293 C216 3.168 . S
C297 C187 3.164 . S
C311 C189 2.665 . S
C315 C15 2.665 . S
C329 C44 2.664 . S
C333 C218 2.664 . S
C347 C131 2.673 . S
C351 C73 2.673 . S
C365 C102 2.672 . S
C369 C160 2.672 . S
C383 C90 1.991 . S
C387 C10 1.896 1_556 S
C401 C61 1.992 . S
C405 C39 1.901 . S
C419 C32 1.989 . S
C423 C68 1.890 1_554 S
C437 C97 1.903 . S
C441 C3 1.991 . S
C455 C126 1.903 1_556 S
C459 C206 1.992 . S
C473 C177 1.992 . S
C477 C155 1.898 . S
C491 C148 1.987 . S
C495 C184 1.889 1_554 S
C509 C119 1.986 . S
C513 C213 1.890 . S
C527 C79 0.765 . S
C531 C21 0.765 . S
C545 C108 0.750 . S
C549 C50 0.750 . S
C563 C195 0.759 . S
C567 C137 0.759 . S
C581 C166 0.740 . S
C585 C224 0.740 . S
C599 C37 0.940 . S
C603 C8 0.948 . S
C617 C95 0.964 . S
C621 C66 0.945 . S
C635 C124 0.940 . S
C639 C153 0.948 . S
C653 C182 0.945 . S
C657 C211 0.964 . S
C671 C5 2.327 . S
C675 C34 2.327 . S
C689 C92 2.324 . S
C693 C63 2.324 . S
C707 C150 2.329 . S
C711 C121 2.329 . S
C725 C179 2.329 . S
C729 C208 2.330 . S
