# Generated by pormake.
# Topology sod-g, (3)-cn, num edge types: 1
# Building blocks:
#     Node 0, Type 0, BuildingBlock: WUSLED_clean_sbu_0, # of connection points: 3
#     Node 1, Type 0, BuildingBlock: WUSLED_clean_sbu_0, # of connection points: 3
#     Node 2, Type 0, BuildingBlock: WUSLED_clean_sbu_0, # of connection points: 3
#     Node 3, Type 0, BuildingBlock: WUSLED_clean_sbu_0, # of connection points: 3
#     Node 4, Type 0, BuildingBlock: WUSLED_clean_sbu_0, # of connection points: 3
#     Node 5, Type 0, BuildingBlock: WUSLED_clean_sbu_0, # of connection points: 3
#     Node 6, Type 0, BuildingBlock: WUSLED_clean_sbu_0, # of connection points: 3
#     Node 7, Type 0, BuildingBlock: WUSLED_clean_sbu_0, # of connection points: 3
#     Node 8, Type 0, BuildingBlock: WUSLED_clean_sbu_0, # of connection points: 3
#     Node 9, Type 0, BuildingBlock: WUSLED_clean_sbu_0, # of connection points: 3
#     Node 10, Type 0, BuildingBlock: WUSLED_clean_sbu_0, # of connection points: 3
#     Node 11, Type 0, BuildingBlock: WUSLED_clean_sbu_0, # of connection points: 3
#     Node 12, Type 0, BuildingBlock: WUSLED_clean_sbu_0, # of connection points: 3
#     Node 13, Type 0, BuildingBlock: WUSLED_clean_sbu_0, # of connection points: 3
#     Node 14, Type 0, BuildingBlock: WUSLED_clean_sbu_0, # of connection points: 3
#     Node 15, Type 0, BuildingBlock: WUSLED_clean_sbu_0, # of connection points: 3
#     Node 16, Type 0, BuildingBlock: WUSLED_clean_sbu_0, # of connection points: 3
#     Node 17, Type 0, BuildingBlock: WUSLED_clean_sbu_0, # of connection points: 3
#     Node 18, Type 0, BuildingBlock: WUSLED_clean_sbu_0, # of connection points: 3
#     Node 19, Type 0, BuildingBlock: WUSLED_clean_sbu_0, # of connection points: 3
#     Node 20, Type 0, BuildingBlock: WUSLED_clean_sbu_0, # of connection points: 3
#     Node 21, Type 0, BuildingBlock: WUSLED_clean_sbu_0, # of connection points: 3
#     Node 22, Type 0, BuildingBlock: WUSLED_clean_sbu_0, # of connection points: 3
#     Node 23, Type 0, BuildingBlock: WUSLED_clean_sbu_0, # of connection points: 3
#     Node 24, Type 0, BuildingBlock: WUSLED_clean_sbu_0, # of connection points: 3
#     Node 25, Type 0, BuildingBlock: WUSLED_clean_sbu_0, # of connection points: 3
#     Node 26, Type 0, BuildingBlock: WUSLED_clean_sbu_0, # of connection points: 3
#     Node 27, Type 0, BuildingBlock: WUSLED_clean_sbu_0, # of connection points: 3
#     Node 28, Type 0, BuildingBlock: WUSLED_clean_sbu_0, # of connection points: 3
#     Node 29, Type 0, BuildingBlock: WUSLED_clean_sbu_0, # of connection points: 3
#     Node 30, Type 0, BuildingBlock: WUSLED_clean_sbu_0, # of connection points: 3
#     Node 31, Type 0, BuildingBlock: WUSLED_clean_sbu_0, # of connection points: 3
#     Node 32, Type 0, BuildingBlock: WUSLED_clean_sbu_0, # of connection points: 3
#     Node 33, Type 0, BuildingBlock: WUSLED_clean_sbu_0, # of connection points: 3
#     Node 34, Type 0, BuildingBlock: WUSLED_clean_sbu_0, # of connection points: 3
#     Node 35, Type 0, BuildingBlock: WUSLED_clean_sbu_0, # of connection points: 3
#     Node 36, Type 0, BuildingBlock: WUSLED_clean_sbu_0, # of connection points: 3
#     Node 37, Type 0, BuildingBlock: WUSLED_clean_sbu_0, # of connection points: 3
#     Node 38, Type 0, BuildingBlock: WUSLED_clean_sbu_0, # of connection points: 3
#     Node 39, Type 0, BuildingBlock: WUSLED_clean_sbu_0, # of connection points: 3
#     Node 40, Type 0, BuildingBlock: WUSLED_clean_sbu_0, # of connection points: 3
#     Node 41, Type 0, BuildingBlock: WUSLED_clean_sbu_0, # of connection points: 3
#     Node 42, Type 0, BuildingBlock: WUSLED_clean_sbu_0, # of connection points: 3
#     Node 43, Type 0, BuildingBlock: WUSLED_clean_sbu_0, # of connection points: 3
#     Node 44, Type 0, BuildingBlock: WUSLED_clean_sbu_0, # of connection points: 3
#     Node 45, Type 0, BuildingBlock: WUSLED_clean_sbu_0, # of connection points: 3
#     Node 46, Type 0, BuildingBlock: WUSLED_clean_sbu_0, # of connection points: 3
#     Node 47, Type 0, BuildingBlock: WUSLED_clean_sbu_0, # of connection points: 3
#     Edge 48, Type (0, 0), BuildingBlock: TEMPAE_clean_linker_10, # of connection points: 2
#     Edge 49, Type (0, 0), BuildingBlock: TEMPAE_clean_linker_10, # of connection points: 2
#     Edge 50, Type (0, 0), BuildingBlock: TEMPAE_clean_linker_10, # of connection points: 2
#     Edge 51, Type (0, 0), BuildingBlock: TEMPAE_clean_linker_10, # of connection points: 2
#     Edge 52, Type (0, 0), BuildingBlock: TEMPAE_clean_linker_10, # of connection points: 2
#     Edge 53, Type (0, 0), BuildingBlock: TEMPAE_clean_linker_10, # of connection points: 2
#     Edge 54, Type (0, 0), BuildingBlock: TEMPAE_clean_linker_10, # of connection points: 2
#     Edge 55, Type (0, 0), BuildingBlock: TEMPAE_clean_linker_10, # of connection points: 2
#     Edge 56, Type (0, 0), BuildingBlock: TEMPAE_clean_linker_10, # of connection points: 2
#     Edge 57, Type (0, 0), BuildingBlock: TEMPAE_clean_linker_10, # of connection points: 2
#     Edge 58, Type (0, 0), BuildingBlock: TEMPAE_clean_linker_10, # of connection points: 2
#     Edge 59, Type (0, 0), BuildingBlock: TEMPAE_clean_linker_10, # of connection points: 2
#     Edge 60, Type (0, 0), BuildingBlock: TEMPAE_clean_linker_10, # of connection points: 2
#     Edge 61, Type (0, 0), BuildingBlock: TEMPAE_clean_linker_10, # of connection points: 2
#     Edge 62, Type (0, 0), BuildingBlock: TEMPAE_clean_linker_10, # of connection points: 2
#     Edge 63, Type (0, 0), BuildingBlock: TEMPAE_clean_linker_10, # of connection points: 2
#     Edge 64, Type (0, 0), BuildingBlock: TEMPAE_clean_linker_10, # of connection points: 2
#     Edge 65, Type (0, 0), BuildingBlock: TEMPAE_clean_linker_10, # of connection points: 2
#     Edge 66, Type (0, 0), BuildingBlock: TEMPAE_clean_linker_10, # of connection points: 2
#     Edge 67, Type (0, 0), BuildingBlock: TEMPAE_clean_linker_10, # of connection points: 2
#     Edge 68, Type (0, 0), BuildingBlock: TEMPAE_clean_linker_10, # of connection points: 2
#     Edge 69, Type (0, 0), BuildingBlock: TEMPAE_clean_linker_10, # of connection points: 2
#     Edge 70, Type (0, 0), BuildingBlock: TEMPAE_clean_linker_10, # of connection points: 2
#     Edge 71, Type (0, 0), BuildingBlock: TEMPAE_clean_linker_10, # of connection points: 2
#     Edge 72, Type (0, 0), BuildingBlock: TEMPAE_clean_linker_10, # of connection points: 2
#     Edge 73, Type (0, 0), BuildingBlock: TEMPAE_clean_linker_10, # of connection points: 2
#     Edge 74, Type (0, 0), BuildingBlock: TEMPAE_clean_linker_10, # of connection points: 2
#     Edge 75, Type (0, 0), BuildingBlock: TEMPAE_clean_linker_10, # of connection points: 2
#     Edge 76, Type (0, 0), BuildingBlock: TEMPAE_clean_linker_10, # of connection points: 2
#     Edge 77, Type (0, 0), BuildingBlock: TEMPAE_clean_linker_10, # of connection points: 2
#     Edge 78, Type (0, 0), BuildingBlock: TEMPAE_clean_linker_10, # of connection points: 2
#     Edge 79, Type (0, 0), BuildingBlock: TEMPAE_clean_linker_10, # of connection points: 2
#     Edge 80, Type (0, 0), BuildingBlock: TEMPAE_clean_linker_10, # of connection points: 2
#     Edge 81, Type (0, 0), BuildingBlock: TEMPAE_clean_linker_10, # of connection points: 2
#     Edge 82, Type (0, 0), BuildingBlock: TEMPAE_clean_linker_10, # of connection points: 2
#     Edge 83, Type (0, 0), BuildingBlock: TEMPAE_clean_linker_10, # of connection points: 2
#     Edge 84, Type (0, 0), BuildingBlock: TEMPAE_clean_linker_10, # of connection points: 2
#     Edge 85, Type (0, 0), BuildingBlock: TEMPAE_clean_linker_10, # of connection points: 2
#     Edge 86, Type (0, 0), BuildingBlock: TEMPAE_clean_linker_10, # of connection points: 2
#     Edge 87, Type (0, 0), BuildingBlock: TEMPAE_clean_linker_10, # of connection points: 2
#     Edge 88, Type (0, 0), BuildingBlock: TEMPAE_clean_linker_10, # of connection points: 2
#     Edge 89, Type (0, 0), BuildingBlock: TEMPAE_clean_linker_10, # of connection points: 2
#     Edge 90, Type (0, 0), BuildingBlock: TEMPAE_clean_linker_10, # of connection points: 2
#     Edge 91, Type (0, 0), BuildingBlock: TEMPAE_clean_linker_10, # of connection points: 2
#     Edge 92, Type (0, 0), BuildingBlock: TEMPAE_clean_linker_10, # of connection points: 2
#     Edge 93, Type (0, 0), BuildingBlock: TEMPAE_clean_linker_10, # of connection points: 2
#     Edge 94, Type (0, 0), BuildingBlock: TEMPAE_clean_linker_10, # of connection points: 2
#     Edge 95, Type (0, 0), BuildingBlock: TEMPAE_clean_linker_10, # of connection points: 2
#     Edge 96, Type (0, 0), BuildingBlock: TEMPAE_clean_linker_10, # of connection points: 2
#     Edge 97, Type (0, 0), BuildingBlock: TEMPAE_clean_linker_10, # of connection points: 2
#     Edge 98, Type (0, 0), BuildingBlock: TEMPAE_clean_linker_10, # of connection points: 2
#     Edge 99, Type (0, 0), BuildingBlock: TEMPAE_clean_linker_10, # of connection points: 2
#     Edge 100, Type (0, 0), BuildingBlock: TEMPAE_clean_linker_10, # of connection points: 2
#     Edge 101, Type (0, 0), BuildingBlock: TEMPAE_clean_linker_10, # of connection points: 2
#     Edge 102, Type (0, 0), BuildingBlock: TEMPAE_clean_linker_10, # of connection points: 2
#     Edge 103, Type (0, 0), BuildingBlock: TEMPAE_clean_linker_10, # of connection points: 2
#     Edge 104, Type (0, 0), BuildingBlock: TEMPAE_clean_linker_10, # of connection points: 2
#     Edge 105, Type (0, 0), BuildingBlock: TEMPAE_clean_linker_10, # of connection points: 2
#     Edge 106, Type (0, 0), BuildingBlock: TEMPAE_clean_linker_10, # of connection points: 2
#     Edge 107, Type (0, 0), BuildingBlock: TEMPAE_clean_linker_10, # of connection points: 2
#     Edge 108, Type (0, 0), BuildingBlock: TEMPAE_clean_linker_10, # of connection points: 2
#     Edge 109, Type (0, 0), BuildingBlock: TEMPAE_clean_linker_10, # of connection points: 2
#     Edge 110, Type (0, 0), BuildingBlock: TEMPAE_clean_linker_10, # of connection points: 2
#     Edge 111, Type (0, 0), BuildingBlock: TEMPAE_clean_linker_10, # of connection points: 2
#     Edge 112, Type (0, 0), BuildingBlock: TEMPAE_clean_linker_10, # of connection points: 2
#     Edge 113, Type (0, 0), BuildingBlock: TEMPAE_clean_linker_10, # of connection points: 2
#     Edge 114, Type (0, 0), BuildingBlock: TEMPAE_clean_linker_10, # of connection points: 2
#     Edge 115, Type (0, 0), BuildingBlock: TEMPAE_clean_linker_10, # of connection points: 2
#     Edge 116, Type (0, 0), BuildingBlock: TEMPAE_clean_linker_10, # of connection points: 2
#     Edge 117, Type (0, 0), BuildingBlock: TEMPAE_clean_linker_10, # of connection points: 2
#     Edge 118, Type (0, 0), BuildingBlock: TEMPAE_clean_linker_10, # of connection points: 2
#     Edge 119, Type (0, 0), BuildingBlock: TEMPAE_clean_linker_10, # of connection points: 2
# Relax obj value: 0.191
# Max RMSD: 0.120
# Mean RMSD: 0.120
data_MOF--net-sod-g--node1-WUSLED_clean_sbu_0--edge1-TEMPAE_clean_linker_10
_symmetry_space_group_name_H-M    P1
_symmetry_Int_Tables_number       1
_symmetry_cell_setting            triclinic
loop_
_symmetry_equiv_pos_as_xyz
'x, y, z'
_cell_length_a     142.3208
_cell_length_b     142.31443
_cell_length_c     142.34106
_cell_angle_alpha  90.018958
_cell_angle_beta   90.008257
_cell_angle_gamma 89.985026
loop_
_atom_site_label
_atom_site_type_symbol
_atom_site_fract_x
_atom_site_fract_y
_atom_site_fract_z
_atom_type_partial_charge
C0 C 0.07998 0.44839 0.20169 0.0
C1 C 0.07196 0.45022 0.20709 0.0
C2 C 0.07825 0.44059 0.21997 0.0
C3 C 0.07111 0.44638 0.21615 0.0
C4 C 0.08613 0.43863 0.21432 0.0
C5 C 0.08699 0.44253 0.20535 0.0
U6 U 0.07647 0.46274 0.17784 0.0
O7 O 0.0874 0.47273 0.17326 0.0
O8 O 0.08464 0.45987 0.16492 0.0
C9 C 0.08993 0.46733 0.16623 0.0
C10 C 0.08188 0.45303 0.19261 0.0
C11 C 0.09587 0.47108 0.15866 0.0
C12 C 0.11153 0.47564 0.15366 0.0
C13 C 0.1056 0.47106 0.15998 0.0
C14 C 0.09806 0.47977 0.14419 0.0
C15 C 0.10792 0.48049 0.14575 0.0
C16 C 0.09214 0.47522 0.15061 0.0
C17 C 0.05013 0.47225 0.17259 0.0
C18 C 0.04156 0.484 0.16353 0.0
C19 C 0.03335 0.47443 0.17491 0.0
C20 C 0.04173 0.46981 0.17705 0.0
C21 C 0.03312 0.48187 0.16836 0.0
C22 C 0.04999 0.47922 0.16562 0.0
C23 C 0.05885 0.46785 0.17613 0.0
O24 O 0.07885 0.44906 0.18484 0.0
O25 O 0.08164 0.46225 0.19238 0.0
O26 O 0.06521 0.47307 0.18032 0.0
O27 O 0.06213 0.46007 0.17235 0.0
H28 H 0.06649 0.4548 0.20443 0.0
H29 H 0.06498 0.44822 0.22025 0.0
H30 H 0.09171 0.4341 0.21678 0.0
H31 H 0.09329 0.44109 0.20131 0.0
H32 H 0.11889 0.47547 0.15537 0.0
H33 H 0.10863 0.46775 0.16613 0.0
H34 H 0.09464 0.48286 0.13819 0.0
H35 H 0.08462 0.47517 0.14941 0.0
H36 H 0.04183 0.48961 0.15843 0.0
H37 H 0.02708 0.47217 0.17855 0.0
H38 H 0.04168 0.46443 0.18245 0.0
H39 H 0.0564 0.48117 0.16202 0.0
C40 C 0.55835 0.07997 0.20098 0.0
C41 C 0.55895 0.07094 0.20488 0.0
C42 C 0.56529 0.0775 0.21956 0.0
C43 C 0.56248 0.06971 0.21404 0.0
C44 C 0.56477 0.08649 0.21544 0.0
C45 C 0.56142 0.08767 0.20629 0.0
U46 U 0.54472 0.07575 0.17698 0.0
O47 O 0.53417 0.08596 0.17188 0.0
O48 O 0.54731 0.08357 0.16378 0.0
C49 C 0.53947 0.08839 0.16474 0.0
C50 C 0.55409 0.08193 0.19172 0.0
C51 C 0.53595 0.09462 0.15727 0.0
C52 C 0.53213 0.11048 0.15217 0.0
C53 C 0.5366 0.10438 0.15845 0.0
C54 C 0.52661 0.09712 0.14321 0.0
C55 C 0.52679 0.10694 0.14463 0.0
C56 C 0.53115 0.09102 0.14948 0.0
C57 C 0.53546 0.0495 0.17197 0.0
C58 C 0.5247 0.0416 0.1612 0.0
C59 C 0.53077 0.0333 0.17475 0.0
C60 C 0.53602 0.0412 0.17723 0.0
C61 C 0.52489 0.03347 0.16685 0.0
C62 C 0.52992 0.04963 0.16378 0.0
C63 C 0.54013 0.05789 0.17596 0.0
O64 O 0.55822 0.07867 0.18413 0.0
O65 O 0.54488 0.08169 0.19124 0.0
O66 O 0.53488 0.06424 0.18013 0.0
O67 O 0.54771 0.06132 0.17195 0.0
H68 H 0.55661 0.06488 0.2009 0.0
H69 H 0.56294 0.06263 0.21676 0.0
H70 H 0.56663 0.09273 0.21936 0.0
H71 H 0.56098 0.09471 0.20343 0.0
H72 H 0.53267 0.11797 0.15339 0.0
H73 H 0.54032 0.10729 0.16443 0.0
H74 H 0.52256 0.09408 0.13754 0.0
H75 H 0.53058 0.0835 0.14846 0.0
H76 H 0.52017 0.04189 0.15509 0.0
H77 H 0.53102 0.02715 0.17922 0.0
H78 H 0.54023 0.04095 0.18357 0.0
H79 H 0.52939 0.05597 0.1596 0.0
C80 C 0.92717 0.55881 0.20135 0.0
C81 C 0.93578 0.55796 0.20608 0.0
C82 C 0.929 0.56561 0.21994 0.0
C83 C 0.93671 0.56141 0.21531 0.0
C84 C 0.9205 0.56659 0.21503 0.0
C85 C 0.91962 0.56324 0.20585 0.0
U86 U 0.93106 0.54518 0.17724 0.0
O87 O 0.92023 0.53528 0.17224 0.0
O88 O 0.92319 0.54825 0.16417 0.0
C89 C 0.91782 0.5408 0.16526 0.0
C90 C 0.92532 0.55458 0.19208 0.0
C91 C 0.91214 0.5371 0.15746 0.0
C92 C 0.89669 0.53214 0.15201 0.0
C93 C 0.90233 0.53688 0.15852 0.0
C94 C 0.91058 0.52831 0.14295 0.0
C95 C 0.9008 0.52748 0.14435 0.0
C96 C 0.91622 0.53307 0.14947 0.0
C97 C 0.95735 0.53539 0.17269 0.0
C98 C 0.96617 0.52562 0.16175 0.0
C99 C 0.97329 0.53046 0.17641 0.0
C100 C 0.96515 0.53543 0.17869 0.0
C101 C 0.9739 0.52532 0.16799 0.0
C102 C 0.95794 0.53059 0.16409 0.0
C103 C 0.94871 0.53997 0.17616 0.0
O104 O 0.92867 0.55871 0.18453 0.0
O105 O 0.92536 0.54538 0.19158 0.0
O106 O 0.94218 0.53481 0.18015 0.0
O107 O 0.94556 0.5477 0.17218 0.0
H108 H 0.94168 0.55449 0.20275 0.0
H109 H 0.94334 0.56048 0.21893 0.0
H110 H 0.91448 0.56987 0.21831 0.0
H111 H 0.9129 0.56391 0.20233 0.0
H112 H 0.88921 0.53162 0.15331 0.0
H113 H 0.89906 0.54 0.16465 0.0
H114 H 0.9139 0.52491 0.137 0.0
H115 H 0.92376 0.53324 0.14849 0.0
H116 H 0.96643 0.5219 0.15512 0.0
H117 H 0.97894 0.53033 0.1815 0.0
H118 H 0.96484 0.53909 0.18537 0.0
H119 H 0.95201 0.53052 0.15933 0.0
C120 C 0.44852 0.92756 0.20118 0.0
C121 C 0.45002 0.93577 0.20642 0.0
C122 C 0.44185 0.92881 0.21988 0.0
C123 C 0.44669 0.93639 0.21569 0.0
C124 C 0.44006 0.92078 0.21443 0.0
C125 C 0.44338 0.92017 0.2052 0.0
U126 U 0.46256 0.93159 0.1772 0.0
O127 O 0.47277 0.92094 0.17247 0.0
O128 O 0.45975 0.92335 0.16428 0.0
C129 C 0.46735 0.91824 0.16551 0.0
C130 C 0.45302 0.92585 0.19198 0.0
C131 C 0.47121 0.91237 0.15791 0.0
C132 C 0.4745 0.89667 0.15198 0.0
C133 C 0.4701 0.90261 0.15846 0.0
C134 C 0.48114 0.91026 0.14422 0.0
C135 C 0.48041 0.90034 0.14489 0.0
C136 C 0.47653 0.91618 0.15061 0.0
C137 C 0.47181 0.95796 0.17184 0.0
C138 C 0.48237 0.96631 0.16122 0.0
C139 C 0.47579 0.97438 0.17467 0.0
C140 C 0.47088 0.96623 0.17713 0.0
C141 C 0.48171 0.97446 0.16681 0.0
C142 C 0.47744 0.95808 0.16372 0.0
C143 C 0.46734 0.94937 0.17565 0.0
O144 O 0.44895 0.929 0.18431 0.0
O145 O 0.46222 0.92619 0.19166 0.0
O146 O 0.47261 0.94307 0.17989 0.0
O147 O 0.45971 0.9459 0.17175 0.0
H148 H 0.454 0.94155 0.20347 0.0
H149 H 0.44807 0.94273 0.21968 0.0
H150 H 0.43646 0.91478 0.21744 0.0
H151 H 0.44225 0.91372 0.2013 0.0
H152 H 0.4733 0.88922 0.15271 0.0
H153 H 0.46596 0.89953 0.16406 0.0
H154 H 0.48559 0.91359 0.13907 0.0
H155 H 0.47743 0.92372 0.15006 0.0
H156 H 0.48696 0.96621 0.15516 0.0
H157 H 0.47525 0.98052 0.17915 0.0
H158 H 0.46661 0.96629 0.18344 0.0
H159 H 0.47827 0.95179 0.15953 0.0
C160 C 0.08004 0.55843 0.80635 0.0
C161 C 0.07151 0.55812 0.80139 0.0
C162 C 0.07904 0.56552 0.78782 0.0
C163 C 0.071 0.56173 0.79219 0.0
C164 C 0.08746 0.56596 0.79291 0.0
C165 C 0.08792 0.56252 0.80208 0.0
U166 U 0.07603 0.54458 0.83058 0.0
O167 O 0.08689 0.53461 0.83537 0.0
O168 O 0.08423 0.54767 0.84346 0.0
C169 C 0.08944 0.54012 0.84232 0.0
C170 C 0.08147 0.55398 0.81561 0.0
C171 C 0.09569 0.53663 0.84979 0.0
C172 C 0.11165 0.53266 0.85451 0.0
C173 C 0.10544 0.53733 0.84847 0.0
C174 C 0.09843 0.52704 0.86363 0.0
C175 C 0.10817 0.52726 0.86197 0.0
C176 C 0.09221 0.5317 0.85757 0.0
C177 C 0.04971 0.53498 0.83582 0.0
C178 C 0.04092 0.52448 0.84614 0.0
C179 C 0.03338 0.53123 0.83247 0.0
C180 C 0.04163 0.53605 0.83031 0.0
C181 C 0.03297 0.52516 0.84025 0.0
C182 C 0.04928 0.52931 0.8439 0.0
C183 C 0.05843 0.53939 0.8323 0.0
O184 O 0.07827 0.55812 0.82323 0.0
O185 O 0.08129 0.54477 0.81604 0.0
O186 O 0.06481 0.53418 0.82813 0.0
O187 O 0.06168 0.54719 0.83605 0.0
H188 H 0.06536 0.55491 0.80452 0.0
H189 H 0.06444 0.56124 0.78835 0.0
H190 H 0.09374 0.56884 0.78971 0.0
H191 H 0.09458 0.56279 0.80577 0.0
H192 H 0.11911 0.53283 0.85303 0.0
H193 H 0.10825 0.54107 0.84247 0.0
H194 H 0.09562 0.52283 0.86932 0.0
H195 H 0.08471 0.53107 0.85868 0.0
H196 H 0.04081 0.51987 0.85219 0.0
H197 H 0.02737 0.53205 0.82788 0.0
H198 H 0.04179 0.54042 0.82407 0.0
H199 H 0.05544 0.5284 0.84828 0.0
C200 C 0.4487 0.08017 0.80652 0.0
C201 C 0.44952 0.07156 0.80173 0.0
C202 C 0.44116 0.07813 0.78815 0.0
C203 C 0.44574 0.07054 0.79263 0.0
C204 C 0.44021 0.08661 0.79312 0.0
C205 C 0.44392 0.0876 0.80216 0.0
U206 U 0.46282 0.07549 0.8301 0.0
O207 O 0.47338 0.08536 0.83566 0.0
O208 O 0.46037 0.08252 0.84384 0.0
C209 C 0.46845 0.08697 0.84329 0.0
C210 C 0.45318 0.08208 0.81571 0.0
C211 C 0.47136 0.09427 0.85005 0.0
C212 C 0.47589 0.1104 0.85345 0.0
C213 C 0.47139 0.10383 0.84762 0.0
C214 C 0.47975 0.09801 0.86446 0.0
C215 C 0.48041 0.10747 0.86173 0.0
C216 C 0.47527 0.09147 0.85865 0.0
C217 C 0.47214 0.04916 0.83431 0.0
C218 C 0.48092 0.04026 0.84606 0.0
C219 C 0.47745 0.0333 0.83096 0.0
C220 C 0.47268 0.04142 0.82832 0.0
C221 C 0.4817 0.03246 0.83988 0.0
C222 C 0.47625 0.04857 0.84327 0.0
C223 C 0.46741 0.05761 0.83049 0.0
O224 O 0.44919 0.07873 0.82335 0.0
O225 O 0.46239 0.08187 0.81603 0.0
O226 O 0.47259 0.06406 0.82641 0.0
O227 O 0.45984 0.06092 0.83463 0.0
H228 H 0.45322 0.06573 0.80493 0.0
H229 H 0.44668 0.06393 0.78899 0.0
H230 H 0.43663 0.09256 0.79001 0.0
H231 H 0.44323 0.0943 0.8057 0.0
H232 H 0.47627 0.11768 0.85125 0.0
H233 H 0.46835 0.10615 0.84104 0.0
H234 H 0.48327 0.09557 0.87075 0.0
H235 H 0.47535 0.08411 0.8606 0.0
H236 H 0.4839 0.04001 0.85304 0.0
H237 H 0.47801 0.02783 0.82573 0.0
H238 H 0.46957 0.04172 0.82137 0.0
H239 H 0.47591 0.05449 0.84804 0.0
C240 C 0.927 0.44838 0.80624 0.0
C241 C 0.9355 0.44885 0.80122 0.0
C242 C 0.92828 0.44055 0.78792 0.0
C243 C 0.93614 0.44492 0.79215 0.0
C244 C 0.91992 0.43995 0.79312 0.0
C245 C 0.91931 0.44379 0.80214 0.0
U246 U 0.93219 0.46256 0.82983 0.0
O247 O 0.92259 0.47345 0.83528 0.0
O248 O 0.9249 0.46036 0.84348 0.0
C249 C 0.92072 0.46858 0.84289 0.0
C250 C 0.92543 0.45306 0.81542 0.0
C251 C 0.91334 0.47166 0.84953 0.0
C252 C 0.89711 0.47585 0.853 0.0
C253 C 0.90376 0.47144 0.84717 0.0
C254 C 0.90948 0.48027 0.86379 0.0
C255 C 0.89995 0.48063 0.8612 0.0
C256 C 0.91609 0.47583 0.85801 0.0
C257 C 0.95838 0.47132 0.83498 0.0
C258 C 0.9655 0.48239 0.84597 0.0
C259 C 0.97488 0.47565 0.83348 0.0
C260 C 0.96709 0.47051 0.83044 0.0
C261 C 0.97413 0.48182 0.84113 0.0
C262 C 0.95766 0.47713 0.84294 0.0
C263 C 0.95025 0.46659 0.83051 0.0
O264 O 0.92859 0.44901 0.82309 0.0
O265 O 0.92601 0.46227 0.81566 0.0
O266 O 0.94399 0.47191 0.82631 0.0
O267 O 0.94662 0.4591 0.83451 0.0
H268 H 0.94153 0.4524 0.80421 0.0
H269 H 0.94269 0.44557 0.78832 0.0
H270 H 0.91377 0.43655 0.79019 0.0
H271 H 0.91268 0.44336 0.80586 0.0
H272 H 0.88979 0.47581 0.85091 0.0
H273 H 0.90146 0.46817 0.84069 0.0
H274 H 0.91195 0.48391 0.87 0.0
H275 H 0.92345 0.47609 0.85994 0.0
H276 H 0.96477 0.48707 0.85192 0.0
H277 H 0.98138 0.47517 0.82955 0.0
H278 H 0.96779 0.46612 0.82425 0.0
H279 H 0.95103 0.47784 0.84659 0.0
C280 C 0.55814 0.92606 0.80641 0.0
C281 C 0.55854 0.93502 0.80233 0.0
C282 C 0.56499 0.92833 0.78768 0.0
C283 C 0.56206 0.93616 0.79315 0.0
C284 C 0.56457 0.91941 0.79202 0.0
C285 C 0.56133 0.91835 0.80122 0.0
U286 U 0.5446 0.93082 0.83028 0.0
O287 O 0.53408 0.92101 0.83601 0.0
O288 O 0.54722 0.92382 0.84399 0.0
C289 C 0.53911 0.91941 0.84358 0.0
C290 C 0.554 0.92415 0.81576 0.0
C291 C 0.53633 0.91209 0.85037 0.0
C292 C 0.53243 0.89583 0.85402 0.0
C293 C 0.53681 0.90247 0.84817 0.0
C294 C 0.52758 0.90829 0.86454 0.0
C295 C 0.52752 0.89875 0.86208 0.0
C296 C 0.53197 0.9149 0.85874 0.0
C297 C 0.53507 0.95707 0.83435 0.0
C298 C 0.52623 0.96586 0.84615 0.0
C299 C 0.52914 0.9727 0.83088 0.0
C300 C 0.53414 0.9647 0.82826 0.0
C301 C 0.52502 0.97349 0.83985 0.0
C302 C 0.53115 0.95768 0.8434 0.0
C303 C 0.5399 0.94869 0.83054 0.0
O304 O 0.55812 0.92768 0.82325 0.0
O305 O 0.5448 0.92421 0.81631 0.0
O306 O 0.53476 0.94215 0.82653 0.0
O307 O 0.5475 0.94546 0.83468 0.0
H308 H 0.5561 0.9411 0.80621 0.0
H309 H 0.56241 0.94324 0.79044 0.0
H310 H 0.56643 0.91306 0.78833 0.0
H311 H 0.56105 0.91136 0.80422 0.0
H312 H 0.53243 0.8885 0.85198 0.0
H313 H 0.54016 0.90015 0.84174 0.0
H314 H 0.52371 0.91071 0.87064 0.0
H315 H 0.53146 0.92229 0.86051 0.0
H316 H 0.52336 0.96614 0.85318 0.0
H317 H 0.52827 0.9781 0.82561 0.0
H318 H 0.5371 0.96439 0.82125 0.0
H319 H 0.5318 0.95187 0.84826 0.0
C320 C 0.20111 0.08003 0.44856 0.0
C321 C 0.20622 0.07168 0.44988 0.0
C322 C 0.21974 0.07854 0.44177 0.0
C323 C 0.21549 0.07095 0.44648 0.0
C324 C 0.2145 0.08673 0.44023 0.0
C325 C 0.20529 0.08745 0.44358 0.0
U326 U 0.17711 0.07596 0.46253 0.0
O327 O 0.17223 0.08627 0.47309 0.0
O328 O 0.16403 0.08403 0.46 0.0
C329 C 0.16509 0.08882 0.46784 0.0
C330 C 0.1919 0.08186 0.45304 0.0
C331 C 0.15773 0.09521 0.47139 0.0
C332 C 0.15278 0.11121 0.47496 0.0
C333 C 0.15899 0.10496 0.47056 0.0
C334 C 0.14375 0.09804 0.48079 0.0
C335 C 0.14522 0.10785 0.4804 0.0
C336 C 0.14995 0.0918 0.47633 0.0
C337 C 0.17202 0.04953 0.47155 0.0
C338 C 0.16176 0.0413 0.48254 0.0
C339 C 0.17511 0.03324 0.47575 0.0
C340 C 0.17733 0.04128 0.4706 0.0
C341 C 0.16745 0.03323 0.48193 0.0
C342 C 0.16405 0.04946 0.47739 0.0
C343 C 0.17581 0.0581 0.46705 0.0
O344 O 0.1842 0.07881 0.44895 0.0
O345 O 0.19153 0.08149 0.46225 0.0
O346 O 0.18005 0.06437 0.47234 0.0
O347 O 0.1718 0.06162 0.45951 0.0
H348 H 0.20318 0.06589 0.45376 0.0
H349 H 0.21945 0.06458 0.44779 0.0
H350 H 0.21766 0.0927 0.43672 0.0
H351 H 0.20152 0.09399 0.44258 0.0
H352 H 0.15405 0.11867 0.47424 0.0
H353 H 0.16495 0.10774 0.46673 0.0
H354 H 0.13807 0.09513 0.48492 0.0
H355 H 0.14886 0.0843 0.47705 0.0
H356 H 0.15585 0.04145 0.48733 0.0
H357 H 0.17965 0.02714 0.47524 0.0
H358 H 0.18353 0.0412 0.46617 0.0
H359 H 0.15985 0.05574 0.47824 0.0
C360 C 0.92774 0.20143 0.44877 0.0
C361 C 0.9364 0.20613 0.44918 0.0
C362 C 0.92932 0.21995 0.44176 0.0
C363 C 0.9372 0.21533 0.44562 0.0
C364 C 0.92076 0.21508 0.44121 0.0
C365 C 0.92001 0.20593 0.44464 0.0
U366 U 0.93106 0.17712 0.46256 0.0
O367 O 0.91968 0.17255 0.47198 0.0
O368 O 0.92279 0.16437 0.45915 0.0
C369 C 0.91719 0.16564 0.4664 0.0
C370 C 0.92605 0.19219 0.45311 0.0
C371 C 0.91168 0.15781 0.47028 0.0
C372 C 0.89638 0.15238 0.47564 0.0
C373 C 0.9019 0.15894 0.47088 0.0
C374 C 0.9103 0.14306 0.47869 0.0
C375 C 0.90055 0.14452 0.47991 0.0
C376 C 0.91584 0.1497 0.47396 0.0
C377 C 0.95716 0.17156 0.47269 0.0
C378 C 0.96558 0.16196 0.48412 0.0
C379 C 0.97385 0.17402 0.47546 0.0
C380 C 0.96556 0.17629 0.47073 0.0
C381 C 0.97398 0.16703 0.48247 0.0
C382 C 0.95724 0.16422 0.47927 0.0
C383 C 0.9485 0.17512 0.46818 0.0
O384 O 0.92928 0.18456 0.44901 0.0
O385 O 0.92602 0.19172 0.46232 0.0
O386 O 0.942 0.17922 0.47332 0.0
O387 O 0.94543 0.17155 0.46022 0.0
H388 H 0.94244 0.20281 0.45242 0.0
H389 H 0.94387 0.21895 0.44619 0.0
H390 H 0.9146 0.21842 0.43823 0.0
H391 H 0.91326 0.20242 0.44429 0.0
H392 H 0.88894 0.15377 0.47643 0.0
H393 H 0.89857 0.16516 0.46801 0.0
H394 H 0.91369 0.13695 0.4817 0.0
H395 H 0.92336 0.14865 0.47346 0.0
H396 H 0.96531 0.15652 0.48942 0.0
H397 H 0.98013 0.1779 0.47367 0.0
H398 H 0.96566 0.18196 0.46565 0.0
H399 H 0.95083 0.16044 0.48086 0.0
C400 C 0.80621 0.92745 0.44817 0.0
C401 C 0.80135 0.93603 0.44885 0.0
C402 C 0.78781 0.9291 0.44082 0.0
C403 C 0.7922 0.93685 0.44514 0.0
C404 C 0.79276 0.92063 0.44005 0.0
C405 C 0.80187 0.91984 0.44364 0.0
U406 U 0.83032 0.9311 0.46222 0.0
O407 O 0.83506 0.92023 0.47221 0.0
O408 O 0.84325 0.92293 0.45924 0.0
C409 C 0.84206 0.9177 0.46677 0.0
C410 C 0.81541 0.92571 0.45265 0.0
C411 C 0.84957 0.91155 0.47036 0.0
C412 C 0.85442 0.89564 0.47437 0.0
C413 C 0.84834 0.90177 0.46968 0.0
C414 C 0.86341 0.90895 0.48 0.0
C415 C 0.86183 0.8992 0.47979 0.0
C416 C 0.8573 0.91511 0.47531 0.0
C417 C 0.83564 0.95727 0.47204 0.0
C418 C 0.84607 0.96563 0.48278 0.0
C419 C 0.83234 0.97343 0.47647 0.0
C420 C 0.83014 0.9654 0.47132 0.0
C421 C 0.84016 0.97358 0.48247 0.0
C422 C 0.84378 0.95746 0.47765 0.0
C423 C 0.83197 0.94871 0.46744 0.0
O424 O 0.8231 0.92886 0.44861 0.0
O425 O 0.81579 0.92584 0.46186 0.0
O426 O 0.82772 0.94231 0.47257 0.0
O427 O 0.83582 0.94546 0.4597 0.0
H428 H 0.80452 0.94197 0.4524 0.0
H429 H 0.78845 0.94343 0.44589 0.0
H430 H 0.7895 0.91455 0.43683 0.0
H431 H 0.80546 0.91314 0.44311 0.0
H432 H 0.85301 0.88816 0.47421 0.0
H433 H 0.84237 0.8989 0.46592 0.0
H434 H 0.86906 0.91182 0.48422 0.0
H435 H 0.85835 0.92262 0.47592 0.0
H436 H 0.85216 0.96557 0.48736 0.0
H437 H 0.82771 0.97947 0.47603 0.0
H438 H 0.82385 0.96542 0.46702 0.0
H439 H 0.84814 0.95126 0.4783 0.0
C440 C 0.08034 0.806 0.44826 0.0
C441 C 0.07183 0.80101 0.4487 0.0
C442 C 0.07911 0.78763 0.4406 0.0
C443 C 0.07121 0.7919 0.44484 0.0
C444 C 0.0875 0.7928 0.44005 0.0
C445 C 0.08808 0.80185 0.44382 0.0
U446 U 0.0754 0.82982 0.46222 0.0
O447 O 0.08548 0.83513 0.47283 0.0
O448 O 0.08293 0.84318 0.45967 0.0
C449 C 0.08762 0.84243 0.4676 0.0
C450 C 0.08184 0.81523 0.45282 0.0
C451 C 0.09429 0.84971 0.47074 0.0
C452 C 0.11026 0.85411 0.47504 0.0
C453 C 0.10402 0.84806 0.47039 0.0
C454 C 0.09715 0.8638 0.47993 0.0
C455 C 0.10682 0.86183 0.48013 0.0
C456 C 0.09093 0.8578 0.47524 0.0
C457 C 0.04928 0.83504 0.47142 0.0
C458 C 0.04197 0.84612 0.48228 0.0
C459 C 0.03283 0.83332 0.47581 0.0
C460 C 0.04067 0.83032 0.47072 0.0
C461 C 0.03342 0.84112 0.48182 0.0
C462 C 0.04986 0.84312 0.47709 0.0
C463 C 0.05746 0.8307 0.46668 0.0
O464 O 0.0786 0.82283 0.4487 0.0
O465 O 0.08138 0.81557 0.46202 0.0
O466 O 0.06383 0.82658 0.47195 0.0
O467 O 0.06093 0.83463 0.45907 0.0
H468 H 0.06577 0.80404 0.45216 0.0
H469 H 0.06466 0.78809 0.44545 0.0
H470 H 0.09368 0.78982 0.43675 0.0
H471 H 0.09472 0.80556 0.44343 0.0
H472 H 0.11768 0.85242 0.47518 0.0
H473 H 0.10674 0.84183 0.46696 0.0
H474 H 0.09436 0.86967 0.4839 0.0
H475 H 0.08345 0.85916 0.47562 0.0
H476 H 0.0426 0.8522 0.48681 0.0
H477 H 0.02641 0.82924 0.4754 0.0
H478 H 0.04007 0.82404 0.46645 0.0
H479 H 0.05643 0.84691 0.47771 0.0
C480 C 0.20098 0.927 0.55771 0.0
C481 C 0.20604 0.93526 0.55601 0.0
C482 C 0.21971 0.92899 0.56467 0.0
C483 C 0.21529 0.93623 0.55937 0.0
C484 C 0.21426 0.92091 0.56661 0.0
C485 C 0.20515 0.91991 0.56309 0.0
U486 U 0.17692 0.93131 0.54423 0.0
O487 O 0.1716 0.92135 0.53352 0.0
O488 O 0.16369 0.92355 0.54683 0.0
C489 C 0.16441 0.91902 0.5388 0.0
C490 C 0.19173 0.92499 0.55339 0.0
C491 C 0.1572 0.9123 0.53564 0.0
C492 C 0.15247 0.89618 0.53237 0.0
C493 C 0.15864 0.90259 0.53662 0.0
C494 C 0.1432 0.90914 0.52641 0.0
C495 C 0.14481 0.89937 0.52693 0.0
C496 C 0.14931 0.91551 0.53074 0.0
C497 C 0.17226 0.95802 0.53581 0.0
C498 C 0.16204 0.96681 0.5252 0.0
C499 C 0.17565 0.97436 0.53206 0.0
C500 C 0.17775 0.96612 0.53695 0.0
C501 C 0.16792 0.97473 0.52599 0.0
C502 C 0.16422 0.95844 0.53006 0.0
C503 C 0.17591 0.94926 0.54005 0.0
O504 O 0.18411 0.92803 0.55763 0.0
O505 O 0.19121 0.92546 0.54419 0.0
O506 O 0.17993 0.94301 0.53458 0.0
O507 O 0.17197 0.9457 0.54761 0.0
H508 H 0.20297 0.94084 0.55184 0.0
H509 H 0.21896 0.94257 0.55746 0.0
H510 H 0.21691 0.91521 0.57084 0.0
H511 H 0.20137 0.91344 0.56445 0.0
H512 H 0.15384 0.88875 0.53319 0.0
H513 H 0.16469 0.89997 0.54041 0.0
H514 H 0.13749 0.91194 0.52225 0.0
H515 H 0.14811 0.92298 0.5299 0.0
H516 H 0.15606 0.96694 0.52049 0.0
H517 H 0.18032 0.98033 0.53272 0.0
H518 H 0.18399 0.96594 0.54131 0.0
H519 H 0.15988 0.95227 0.52906 0.0
C520 C 0.08047 0.20127 0.55909 0.0
C521 C 0.07189 0.20617 0.55897 0.0
C522 C 0.07936 0.2197 0.56658 0.0
C523 C 0.07133 0.21531 0.56278 0.0
C524 C 0.08783 0.21467 0.5668 0.0
C525 C 0.08835 0.20556 0.56316 0.0
U526 U 0.07543 0.17751 0.54499 0.0
O527 O 0.08549 0.1722 0.53437 0.0
O528 O 0.08283 0.16403 0.54743 0.0
C529 C 0.08748 0.16478 0.53948 0.0
C530 C 0.08191 0.19202 0.55453 0.0
C531 C 0.09426 0.15757 0.53636 0.0
C532 C 0.11026 0.15332 0.53197 0.0
C533 C 0.10397 0.15935 0.53661 0.0
C534 C 0.09724 0.14342 0.52727 0.0
C535 C 0.10688 0.14549 0.52699 0.0
C536 C 0.09098 0.1494 0.53195 0.0
C537 C 0.04926 0.17263 0.53563 0.0
C538 C 0.04145 0.16112 0.52558 0.0
C539 C 0.03301 0.17492 0.53081 0.0
C540 C 0.04093 0.17787 0.53578 0.0
C541 C 0.03315 0.16658 0.52552 0.0
C542 C 0.04946 0.16412 0.5306 0.0
C543 C 0.05751 0.17679 0.54041 0.0
O544 O 0.07857 0.18442 0.55859 0.0
O545 O 0.08154 0.19171 0.54532 0.0
O546 O 0.06392 0.18093 0.53522 0.0
O547 O 0.06092 0.17276 0.548 0.0
H548 H 0.06572 0.20303 0.5558 0.0
H549 H 0.06472 0.21907 0.56245 0.0
H550 H 0.09412 0.21785 0.5697 0.0
H551 H 0.09505 0.20193 0.56331 0.0
H552 H 0.11766 0.15508 0.53178 0.0
H553 H 0.10665 0.16563 0.53998 0.0
H554 H 0.09449 0.13748 0.52339 0.0
H555 H 0.08352 0.14794 0.53164 0.0
H556 H 0.04178 0.1546 0.52167 0.0
H557 H 0.02687 0.17942 0.53084 0.0
H558 H 0.04062 0.18447 0.53958 0.0
H559 H 0.05581 0.15992 0.53041 0.0
C560 C 0.80615 0.07958 0.55827 0.0
C561 C 0.80108 0.07122 0.55698 0.0
C562 C 0.78759 0.07801 0.56528 0.0
C563 C 0.79187 0.07043 0.56049 0.0
C564 C 0.79288 0.08623 0.56673 0.0
C565 C 0.80202 0.08699 0.56326 0.0
U566 U 0.83015 0.07533 0.54459 0.0
O567 O 0.83503 0.08566 0.534 0.0
O568 O 0.84321 0.08326 0.54711 0.0
C569 C 0.84223 0.08804 0.53926 0.0
C570 C 0.81535 0.08138 0.55386 0.0
C571 C 0.84954 0.09463 0.53608 0.0
C572 C 0.85358 0.10996 0.52973 0.0
C573 C 0.84723 0.10405 0.53436 0.0
C574 C 0.86492 0.09729 0.52924 0.0
C575 C 0.8624 0.10656 0.52674 0.0
C576 C 0.85851 0.09137 0.53378 0.0
C577 C 0.83549 0.04896 0.53572 0.0
C578 C 0.84595 0.04098 0.52475 0.0
C579 C 0.83319 0.0324 0.53201 0.0
C580 C 0.83058 0.04049 0.53693 0.0
C581 C 0.84075 0.03261 0.52572 0.0
C582 C 0.84336 0.04912 0.52975 0.0
C583 C 0.83145 0.05743 0.54017 0.0
O584 O 0.823 0.07835 0.55807 0.0
O585 O 0.81577 0.08091 0.54466 0.0
O586 O 0.82731 0.06369 0.5348 0.0
O587 O 0.83533 0.06099 0.54777 0.0
H588 H 0.80412 0.06543 0.55308 0.0
H589 H 0.78801 0.06402 0.55915 0.0
H590 H 0.78994 0.09215 0.5705 0.0
H591 H 0.8058 0.09352 0.56427 0.0
H592 H 0.85129 0.11701 0.52802 0.0
H593 H 0.84034 0.10672 0.53619 0.0
H594 H 0.87174 0.09446 0.52743 0.0
H595 H 0.86043 0.08412 0.53511 0.0
H596 H 0.85181 0.04127 0.51991 0.0
H597 H 0.82899 0.0261 0.53277 0.0
H598 H 0.82445 0.04023 0.54143 0.0
H599 H 0.84726 0.05557 0.52871 0.0
C600 C 0.92769 0.80607 0.55828 0.0
C601 C 0.93639 0.80141 0.55795 0.0
C602 C 0.92936 0.78757 0.56539 0.0
C603 C 0.93723 0.79223 0.56156 0.0
C604 C 0.92078 0.7924 0.56588 0.0
C605 C 0.91998 0.80154 0.56241 0.0
U606 U 0.93173 0.83011 0.54439 0.0
O607 O 0.92127 0.83499 0.53401 0.0
O608 O 0.92367 0.84315 0.54711 0.0
C609 C 0.91876 0.84208 0.53935 0.0
C610 C 0.92594 0.81529 0.55384 0.0
C611 C 0.91235 0.84942 0.53588 0.0
C612 C 0.89634 0.85408 0.53214 0.0
C613 C 0.90263 0.84807 0.53671 0.0
C614 C 0.90942 0.8632 0.52625 0.0
C615 C 0.89965 0.86153 0.52656 0.0
C616 C 0.91572 0.85718 0.53085 0.0
C617 C 0.95806 0.83534 0.53514 0.0
C618 C 0.96643 0.84559 0.52424 0.0
C619 C 0.97454 0.83259 0.53161 0.0
C620 C 0.96637 0.83025 0.53647 0.0
C621 C 0.97464 0.84009 0.52519 0.0
C622 C 0.95815 0.84319 0.52914 0.0
C623 C 0.94949 0.83153 0.53962 0.0
O624 O 0.92907 0.82295 0.55794 0.0
O625 O 0.92622 0.81568 0.54463 0.0
O626 O 0.94317 0.82734 0.53435 0.0
O627 O 0.94609 0.83541 0.54729 0.0
H628 H 0.94242 0.80475 0.55473 0.0
H629 H 0.94393 0.78864 0.56105 0.0
H630 H 0.91463 0.78903 0.56883 0.0
H631 H 0.9132 0.805 0.56271 0.0
H632 H 0.88888 0.8527 0.53275 0.0
H633 H 0.8999 0.84212 0.5406 0.0
H634 H 0.91227 0.86885 0.52201 0.0
H635 H 0.92321 0.85833 0.53014 0.0
H636 H 0.96627 0.85144 0.51938 0.0
H637 H 0.98074 0.82832 0.5327 0.0
H638 H 0.96646 0.82419 0.54109 0.0
H639 H 0.9518 0.84725 0.52803 0.0
C640 C 0.44855 0.2014 0.07961 0.0
C641 C 0.45007 0.20678 0.07151 0.0
C642 C 0.44087 0.21976 0.07823 0.0
C643 C 0.44627 0.21588 0.07083 0.0
C644 C 0.43928 0.21417 0.08623 0.0
C645 C 0.44311 0.20515 0.08691 0.0
U646 U 0.46237 0.17699 0.07644 0.0
O647 O 0.47162 0.17239 0.08792 0.0
O648 O 0.45875 0.16434 0.08478 0.0
C649 C 0.46598 0.16553 0.09041 0.0
C650 C 0.45299 0.19217 0.08123 0.0
C651 C 0.46997 0.15755 0.09562 0.0
C652 C 0.47454 0.15139 0.11091 0.0
C653 C 0.46961 0.15791 0.10547 0.0
C654 C 0.47986 0.14368 0.09669 0.0
C655 C 0.47993 0.14441 0.10655 0.0
C656 C 0.47489 0.15022 0.09123 0.0
C657 C 0.47235 0.17167 0.05012 0.0
C658 C 0.48318 0.16221 0.04081 0.0
C659 C 0.47558 0.17576 0.03386 0.0
C660 C 0.47079 0.17739 0.04227 0.0
C661 C 0.48204 0.16832 0.0331 0.0
C662 C 0.47841 0.16392 0.04931 0.0
C663 C 0.46815 0.17459 0.05915 0.0
O664 O 0.44886 0.18452 0.07813 0.0
O665 O 0.4622 0.1917 0.0812 0.0
O666 O 0.47328 0.17879 0.06559 0.0
O667 O 0.46008 0.17122 0.06213 0.0
H668 H 0.45433 0.20404 0.06583 0.0
H669 H 0.44782 0.21996 0.0646 0.0
H670 H 0.43506 0.21671 0.09202 0.0
H671 H 0.44192 0.20113 0.09326 0.0
H672 H 0.47461 0.15216 0.11848 0.0
H673 H 0.46588 0.16356 0.10898 0.0
H674 H 0.48404 0.13835 0.09322 0.0
H675 H 0.47524 0.14983 0.08364 0.0
H676 H 0.4881 0.15642 0.04043 0.0
H677 H 0.47443 0.1805 0.02802 0.0
H678 H 0.46612 0.18339 0.04274 0.0
H679 H 0.47969 0.15941 0.0553 0.0
C680 C 0.44812 0.80606 0.9272 0.0
C681 C 0.44913 0.80163 0.93596 0.0
C682 C 0.44111 0.78758 0.92996 0.0
C683 C 0.44562 0.79248 0.93733 0.0
C684 C 0.4399 0.79223 0.92133 0.0
C685 C 0.44335 0.80133 0.91999 0.0
U686 U 0.46231 0.82947 0.93166 0.0
O687 O 0.47321 0.83487 0.92206 0.0
O688 O 0.46025 0.84324 0.92458 0.0
C689 C 0.46843 0.84258 0.92032 0.0
C690 C 0.45256 0.8152 0.92493 0.0
C691 C 0.47158 0.8493 0.91308 0.0
C692 C 0.47551 0.85311 0.89686 0.0
C693 C 0.47109 0.84722 0.90344 0.0
C694 C 0.48057 0.86336 0.90944 0.0
C695 C 0.48062 0.86108 0.89981 0.0
C696 C 0.47608 0.85756 0.91597 0.0
C697 C 0.4713 0.83361 0.95803 0.0
C698 C 0.48211 0.84435 0.96589 0.0
C699 C 0.47586 0.83096 0.9743 0.0
C700 C 0.4707 0.82841 0.96635 0.0
C701 C 0.4818 0.83884 0.97415 0.0
C702 C 0.4769 0.84175 0.95787 0.0
C703 C 0.46652 0.82968 0.94967 0.0
O704 O 0.44864 0.82291 0.92819 0.0
O705 O 0.46178 0.81546 0.92517 0.0
O706 O 0.47173 0.82555 0.94327 0.0
O707 O 0.4591 0.83397 0.94621 0.0
H708 H 0.45279 0.80513 0.94163 0.0
H709 H 0.44656 0.78921 0.94413 0.0
H710 H 0.43661 0.7887 0.91545 0.0
H711 H 0.44256 0.80459 0.91315 0.0
H712 H 0.47517 0.85125 0.88949 0.0
H713 H 0.46757 0.84091 0.90104 0.0
H714 H 0.48446 0.86936 0.91204 0.0
H715 H 0.47655 0.85927 0.92337 0.0
H716 H 0.48652 0.85054 0.96559 0.0
H717 H 0.47551 0.82646 0.98042 0.0
H718 H 0.46646 0.82209 0.96662 0.0
H719 H 0.47744 0.84592 0.95153 0.0
C720 C 0.20098 0.44829 0.92807 0.0
C721 C 0.206 0.44998 0.93641 0.0
C722 C 0.21952 0.44137 0.93018 0.0
C723 C 0.21523 0.44656 0.93743 0.0
C724 C 0.21435 0.43942 0.92203 0.0
C725 C 0.2052 0.44287 0.92098 0.0
U726 U 0.17724 0.46243 0.93212 0.0
O727 O 0.17227 0.47324 0.9221 0.0
O728 O 0.16395 0.4602 0.92434 0.0
C729 C 0.16487 0.46822 0.91983 0.0
C730 C 0.19184 0.45281 0.92595 0.0
C731 C 0.15789 0.47149 0.91291 0.0
C732 C 0.15372 0.47522 0.89675 0.0
C733 C 0.15965 0.47076 0.90324 0.0
C734 C 0.144 0.48083 0.90953 0.0
C735 C 0.14599 0.48061 0.89982 0.0
C736 C 0.14988 0.4763 0.91598 0.0
C737 C 0.17219 0.47135 0.95851 0.0
C738 C 0.16139 0.48195 0.9666 0.0
C739 C 0.17484 0.47563 0.97487 0.0
C740 C 0.1774 0.4706 0.96684 0.0
C741 C 0.16693 0.48149 0.97479 0.0
C742 C 0.16402 0.47692 0.95846 0.0
C743 C 0.17619 0.46676 0.95007 0.0
O744 O 0.18409 0.4488 0.92897 0.0
O745 O 0.19154 0.46202 0.92632 0.0
O746 O 0.18047 0.47203 0.94382 0.0
O747 O 0.1721 0.45928 0.94648 0.0
H748 H 0.20292 0.45417 0.94197 0.0
H749 H 0.2191 0.44816 0.94379 0.0
H750 H 0.21754 0.43555 0.91629 0.0
H751 H 0.20151 0.44159 0.91444 0.0
H752 H 0.15535 0.47466 0.88934 0.0
H753 H 0.16578 0.46702 0.90072 0.0
H754 H 0.13819 0.48493 0.91222 0.0
H755 H 0.14842 0.47695 0.92343 0.0
H756 H 0.15529 0.48651 0.96638 0.0
H757 H 0.17926 0.47523 0.98105 0.0
H758 H 0.18374 0.46638 0.96704 0.0
H759 H 0.15988 0.47762 0.95211 0.0
C760 C 0.55842 0.20085 0.92703 0.0
C761 C 0.55734 0.20566 0.93559 0.0
C762 C 0.56592 0.21925 0.92927 0.0
C763 C 0.56108 0.21477 0.9367 0.0
C764 C 0.56717 0.21422 0.92085 0.0
C765 C 0.56346 0.20518 0.91977 0.0
U766 U 0.54457 0.17712 0.93163 0.0
O767 O 0.53377 0.17148 0.92205 0.0
O768 O 0.54694 0.16345 0.92442 0.0
C769 C 0.53871 0.16388 0.92026 0.0
C770 C 0.55394 0.19166 0.92497 0.0
C771 C 0.53579 0.15726 0.91279 0.0
C772 C 0.53183 0.15378 0.8965 0.0
C773 C 0.53603 0.15968 0.90322 0.0
C774 C 0.52757 0.14281 0.90876 0.0
C775 C 0.52727 0.14543 0.89924 0.0
C776 C 0.53178 0.14867 0.91544 0.0
C777 C 0.53612 0.17257 0.95815 0.0
C778 C 0.52483 0.16238 0.96602 0.0
C779 C 0.53235 0.17494 0.97468 0.0
C780 C 0.5374 0.17742 0.96664 0.0
C781 C 0.52582 0.16758 0.9744 0.0
C782 C 0.52998 0.16484 0.95793 0.0
C783 C 0.54061 0.17662 0.94969 0.0
O784 O 0.55805 0.18398 0.92804 0.0
O785 O 0.54473 0.19128 0.92541 0.0
O786 O 0.53516 0.18061 0.94339 0.0
O787 O 0.5481 0.17258 0.9461 0.0
H788 H 0.55345 0.20249 0.9413 0.0
H789 H 0.5599 0.21842 0.94328 0.0
H790 H 0.57098 0.21727 0.91503 0.0
H791 H 0.56438 0.20162 0.9131 0.0
H792 H 0.53187 0.15591 0.88919 0.0
H793 H 0.53916 0.16625 0.90099 0.0
H794 H 0.52407 0.13648 0.91114 0.0
H795 H 0.53149 0.14669 0.92279 0.0
H796 H 0.51986 0.15663 0.96566 0.0
H797 H 0.53316 0.17914 0.98098 0.0
H798 H 0.54204 0.18345 0.96694 0.0
H799 H 0.5289 0.16096 0.95147 0.0
C800 C 0.8061 0.55887 0.92711 0.0
C801 C 0.80095 0.55818 0.93552 0.0
C802 C 0.78759 0.56613 0.92813 0.0
C803 C 0.79175 0.56184 0.93602 0.0
C804 C 0.79284 0.56695 0.91984 0.0
C805 C 0.80199 0.5634 0.91937 0.0
U806 U 0.83031 0.54485 0.93107 0.0
O807 O 0.83502 0.53471 0.92029 0.0
O808 O 0.84323 0.54771 0.92286 0.0
C809 C 0.84207 0.54009 0.91775 0.0
C810 C 0.81535 0.55433 0.92564 0.0
C811 C 0.8495 0.53655 0.91145 0.0
C812 C 0.854 0.53222 0.89553 0.0
C813 C 0.84795 0.53688 0.90172 0.0
C814 C 0.86368 0.52739 0.90867 0.0
C815 C 0.86177 0.52723 0.89897 0.0
C816 C 0.85754 0.53199 0.91489 0.0
C817 C 0.83542 0.53535 0.95749 0.0
C818 C 0.84537 0.52457 0.96637 0.0
C819 C 0.83162 0.53142 0.97368 0.0
C820 C 0.82975 0.53644 0.96546 0.0
C821 C 0.83928 0.52524 0.97416 0.0
C822 C 0.8434 0.52954 0.95803 0.0
C823 C 0.83204 0.53973 0.94869 0.0
O824 O 0.82303 0.55843 0.92874 0.0
O825 O 0.81574 0.54512 0.92588 0.0
O826 O 0.8278 0.53454 0.94234 0.0
O827 O 0.83586 0.54748 0.94541 0.0
H828 H 0.80393 0.55464 0.94156 0.0
H829 H 0.78778 0.56106 0.94247 0.0
H830 H 0.78976 0.57014 0.91366 0.0
H831 H 0.8058 0.56395 0.9128 0.0
H832 H 0.85238 0.53216 0.88809 0.0
H833 H 0.84178 0.54036 0.89892 0.0
H834 H 0.86959 0.5235 0.91146 0.0
H835 H 0.85884 0.53163 0.92238 0.0
H836 H 0.85132 0.51983 0.96658 0.0
H837 H 0.82684 0.5321 0.97957 0.0
H838 H 0.82357 0.54088 0.96521 0.0
H839 H 0.84788 0.5286 0.95195 0.0
C840 C 0.55886 0.80578 0.08004 0.0
C841 C 0.55928 0.80147 0.0712 0.0
C842 C 0.56615 0.7873 0.0783 0.0
C843 C 0.56299 0.79235 0.07032 0.0
C844 C 0.56578 0.79183 0.08709 0.0
C845 C 0.56226 0.80095 0.08791 0.0
U846 U 0.54515 0.83013 0.0766 0.0
O847 O 0.53583 0.83473 0.08802 0.0
O848 O 0.54864 0.84288 0.08485 0.0
C849 C 0.54144 0.84162 0.0905 0.0
C850 C 0.55455 0.81505 0.08165 0.0
C851 C 0.53745 0.8495 0.09585 0.0
C852 C 0.53242 0.85523 0.11116 0.0
C853 C 0.53747 0.84883 0.10569 0.0
C854 C 0.52772 0.86344 0.097 0.0
C855 C 0.52719 0.86238 0.10683 0.0
C856 C 0.53282 0.85702 0.09152 0.0
C857 C 0.53502 0.83525 0.05032 0.0
C858 C 0.52353 0.84426 0.04135 0.0
C859 C 0.53257 0.83207 0.0337 0.0
C860 C 0.53725 0.83025 0.04214 0.0
C861 C 0.52542 0.8389 0.03321 0.0
C862 C 0.52826 0.84243 0.04985 0.0
C863 C 0.53939 0.83217 0.05923 0.0
O864 O 0.55866 0.82262 0.07834 0.0
O865 O 0.54534 0.81554 0.0817 0.0
O866 O 0.53428 0.8281 0.06575 0.0
O867 O 0.54742 0.83567 0.0622 0.0
H868 H 0.55668 0.80509 0.06504 0.0
H869 H 0.56333 0.7893 0.06337 0.0
H870 H 0.5679 0.78827 0.09346 0.0
H871 H 0.56195 0.80416 0.09481 0.0
H872 H 0.53208 0.85421 0.11869 0.0
H873 H 0.54101 0.84304 0.10915 0.0
H874 H 0.52382 0.86897 0.09353 0.0
H875 H 0.53277 0.85768 0.08394 0.0
H876 H 0.5181 0.84959 0.0413 0.0
H877 H 0.53448 0.82796 0.02759 0.0
H878 H 0.54246 0.8247 0.04234 0.0
H879 H 0.52646 0.84641 0.05608 0.0
C880 C 0.20132 0.5596 0.07935 0.0
C881 C 0.20667 0.55779 0.07126 0.0
C882 C 0.21982 0.56664 0.07789 0.0
C883 C 0.21588 0.56128 0.07056 0.0
C884 C 0.21433 0.56866 0.08582 0.0
C885 C 0.20519 0.56513 0.08654 0.0
U886 U 0.1773 0.54543 0.07594 0.0
O887 O 0.17288 0.53556 0.087 0.0
O888 O 0.16452 0.5484 0.08431 0.0
C889 C 0.16594 0.54102 0.08969 0.0
C890 C 0.19217 0.55509 0.08118 0.0
C891 C 0.15839 0.53716 0.09558 0.0
C892 C 0.15341 0.53246 0.11126 0.0
C893 C 0.15956 0.53737 0.10538 0.0
C894 C 0.14447 0.52757 0.09762 0.0
C895 C 0.14602 0.52719 0.1074 0.0
C896 C 0.15063 0.5325 0.09174 0.0
C897 C 0.17166 0.53548 0.04985 0.0
C898 C 0.16095 0.52485 0.04171 0.0
C899 C 0.17467 0.53086 0.03366 0.0
C900 C 0.17708 0.53603 0.04164 0.0
C901 C 0.1667 0.52507 0.03366 0.0
C902 C 0.16343 0.53001 0.04981 0.0
C903 C 0.17546 0.54014 0.05835 0.0
O904 O 0.18445 0.5591 0.07808 0.0
O905 O 0.19187 0.54588 0.08102 0.0
O906 O 0.1798 0.53505 0.06472 0.0
O907 O 0.17159 0.54786 0.06164 0.0
H908 H 0.20384 0.55348 0.06566 0.0
H909 H 0.22001 0.55964 0.06438 0.0
H910 H 0.21725 0.57264 0.09161 0.0
H911 H 0.20124 0.56646 0.09291 0.0
H912 H 0.1548 0.53228 0.11874 0.0
H913 H 0.16553 0.54096 0.10847 0.0
H914 H 0.13872 0.52367 0.09449 0.0
H915 H 0.14958 0.53232 0.0842 0.0
H916 H 0.1548 0.52037 0.04188 0.0
H917 H 0.17924 0.5311 0.02757 0.0
H918 H 0.18345 0.5402 0.04152 0.0
H919 H 0.15914 0.52948 0.05607 0.0
C920 C 0.80604 0.44813 0.07933 0.0
C921 C 0.80093 0.44988 0.07108 0.0
C922 C 0.78728 0.44177 0.07768 0.0
C923 C 0.7916 0.44673 0.07027 0.0
C924 C 0.79257 0.4397 0.08573 0.0
C925 C 0.80183 0.44289 0.08655 0.0
U926 U 0.82999 0.46212 0.07561 0.0
O927 O 0.83448 0.47249 0.08626 0.0
O928 O 0.84296 0.45965 0.0838 0.0
C929 C 0.84162 0.46727 0.08887 0.0
C930 C 0.81521 0.45254 0.0813 0.0
C931 C 0.84913 0.47113 0.09485 0.0
C932 C 0.85354 0.47744 0.11009 0.0
C933 C 0.84717 0.47266 0.10436 0.0
C934 C 0.86439 0.47843 0.09706 0.0
C935 C 0.86221 0.4807 0.10652 0.0
C936 C 0.85786 0.47384 0.09126 0.0
C937 C 0.83511 0.47139 0.04922 0.0
C938 C 0.84515 0.4825 0.04092 0.0
C939 C 0.83218 0.4751 0.03277 0.0
C940 C 0.82994 0.47011 0.04092 0.0
C941 C 0.83966 0.4815 0.03274 0.0
C942 C 0.8429 0.47745 0.04913 0.0
C943 C 0.83142 0.4669 0.05784 0.0
O944 O 0.82292 0.44849 0.07823 0.0
O945 O 0.81555 0.46175 0.08102 0.0
O946 O 0.82718 0.47214 0.06415 0.0
O947 O 0.83542 0.45931 0.06128 0.0
H948 H 0.80401 0.45395 0.06544 0.0
H949 H 0.78768 0.44836 0.06396 0.0
H950 H 0.7894 0.43601 0.09158 0.0
H951 H 0.80561 0.44158 0.09303 0.0
H952 H 0.85131 0.47889 0.11719 0.0
H953 H 0.84049 0.47048 0.1073 0.0
H954 H 0.87106 0.48027 0.09396 0.0
H955 H 0.85955 0.4726 0.08394 0.0
H956 H 0.85093 0.48744 0.04104 0.0
H957 H 0.82777 0.47432 0.02661 0.0
H958 H 0.82386 0.46553 0.04085 0.0
H959 H 0.84701 0.47853 0.05545 0.0
C960 C 0.57851 0.94711 0.70009 0.0
C961 C 0.56994 0.9479 0.7049 0.0
C962 C 0.57668 0.9396 0.71841 0.0
C963 C 0.56903 0.94413 0.714 0.0
C964 C 0.58514 0.93869 0.7134 0.0
C965 C 0.58602 0.94241 0.70437 0.0
U966 U 0.57498 0.96111 0.67602 0.0
O967 O 0.58607 0.97082 0.67127 0.0
O968 O 0.58308 0.95789 0.66313 0.0
C969 C 0.58854 0.96525 0.66434 0.0
C970 C 0.58031 0.95156 0.69091 0.0
C971 C 0.5944 0.96887 0.65666 0.0
C972 C 0.61004 0.97348 0.6515 0.0
C973 C 0.60419 0.96883 0.65787 0.0
C974 C 0.59639 0.97773 0.64226 0.0
C975 C 0.60616 0.97831 0.64382 0.0
C976 C 0.59054 0.97308 0.64866 0.0
C977 C 0.54872 0.9709 0.67086 0.0
C978 C 0.53972 0.9809 0.66027 0.0
C979 C 0.53232 0.97435 0.67405 0.0
C980 C 0.5407 0.96984 0.67638 0.0
C981 C 0.53156 0.98018 0.66602 0.0
C982 C 0.54819 0.97636 0.6627 0.0
C983 C 0.55745 0.96649 0.67433 0.0
O984 O 0.5771 0.94751 0.68325 0.0
O985 O 0.58024 0.96077 0.69054 0.0
O986 O 0.5639 0.97167 0.67846 0.0
O987 O 0.56061 0.95864 0.6706 0.0
H988 H 0.56408 0.95158 0.70174 0.0
H989 H 0.56243 0.94504 0.71768 0.0
H990 H 0.59113 0.93515 0.71648 0.0
H991 H 0.5927 0.94176 0.70077 0.0
H992 H 0.61751 0.9738 0.65293 0.0
H993 H 0.6073 0.96557 0.66401 0.0
H994 H 0.59323 0.98123 0.63629 0.0
H995 H 0.583 0.97311 0.64758 0.0
H996 H 0.53983 0.98505 0.65395 0.0
H997 H 0.52664 0.97321 0.67888 0.0
H998 H 0.54095 0.96563 0.68272 0.0
H999 H 0.55432 0.97723 0.65828 0.0
C1000 C 0.06089 0.57845 0.70027 0.0
C1001 C 0.0604 0.56957 0.70452 0.0
C1002 C 0.06798 0.57581 0.71871 0.0
C1003 C 0.06398 0.56825 0.71364 0.0
C1004 C 0.0686 0.58461 0.71424 0.0
C1005 C 0.06513 0.58588 0.70514 0.0
U1006 U 0.04664 0.57444 0.67671 0.0
O1007 O 0.03611 0.58475 0.67188 0.0
O1008 O 0.04897 0.58221 0.66343 0.0
C1009 C 0.04129 0.58721 0.66465 0.0
C1010 C 0.05645 0.58059 0.69116 0.0
C1011 C 0.03739 0.59313 0.65713 0.0
C1012 C 0.03346 0.60882 0.6516 0.0
C1013 C 0.03816 0.60291 0.65789 0.0
C1014 C 0.02727 0.59519 0.64357 0.0
C1015 C 0.02756 0.6051 0.64453 0.0
C1016 C 0.03218 0.5893 0.64975 0.0
C1017 C 0.03713 0.54818 0.67223 0.0
C1018 C 0.0269 0.53997 0.66122 0.0
C1019 C 0.03223 0.5321 0.67532 0.0
C1020 C 0.03733 0.5401 0.67782 0.0
C1021 C 0.0268 0.53194 0.66707 0.0
C1022 C 0.03201 0.54805 0.66379 0.0
C1023 C 0.04192 0.5566 0.67598 0.0
O1024 O 0.06035 0.5773 0.68346 0.0
O1025 O 0.04723 0.58042 0.69092 0.0
O1026 O 0.03681 0.56302 0.68022 0.0
O1027 O 0.04939 0.55996 0.6717 0.0
H1028 H 0.05713 0.56374 0.70089 0.0
H1029 H 0.0635 0.56133 0.71675 0.0
H1030 H 0.07145 0.59065 0.71788 0.0
H1031 H 0.06549 0.59281 0.70201 0.0
H1032 H 0.03438 0.6163 0.65251 0.0
H1033 H 0.04222 0.60601 0.66354 0.0
H1034 H 0.02291 0.5918 0.63837 0.0
H1035 H 0.03155 0.58175 0.64902 0.0
H1036 H 0.02292 0.54005 0.65474 0.0
H1037 H 0.03226 0.5262 0.68011 0.0
H1038 H 0.04122 0.54005 0.68437 0.0
H1039 H 0.03181 0.55422 0.65933 0.0
C1040 C 0.42788 0.05975 0.70002 0.0
C1041 C 0.43683 0.06023 0.70412 0.0
C1042 C 0.43003 0.06657 0.71876 0.0
C1043 C 0.43791 0.06374 0.71331 0.0
C1044 C 0.42113 0.0661 0.71438 0.0
C1045 C 0.42013 0.06288 0.70517 0.0
U1046 U 0.43282 0.04594 0.67638 0.0
O1047 O 0.42302 0.03535 0.67093 0.0
O1048 O 0.4258 0.04828 0.66259 0.0
C1049 C 0.42128 0.04025 0.6633 0.0
C1050 C 0.42605 0.05549 0.69073 0.0
C1051 C 0.41403 0.03712 0.65661 0.0
C1052 C 0.39852 0.03062 0.65354 0.0
C1053 C 0.40481 0.03524 0.65956 0.0
C1054 C 0.41036 0.03047 0.64135 0.0
C1055 C 0.40136 0.02774 0.64448 0.0
C1056 C 0.41663 0.03503 0.64737 0.0
C1057 C 0.45899 0.03652 0.6721 0.0
C1058 C 0.46735 0.02743 0.6602 0.0
C1059 C 0.47471 0.03062 0.67518 0.0
C1060 C 0.46681 0.03567 0.67798 0.0
C1061 C 0.47515 0.02632 0.66628 0.0
C1062 C 0.4593 0.03245 0.6631 0.0
C1063 C 0.45073 0.04141 0.67609 0.0
O1064 O 0.42956 0.05954 0.6832 0.0
O1065 O 0.42621 0.04628 0.69033 0.0
O1066 O 0.44427 0.03629 0.68023 0.0
O1067 O 0.4474 0.04894 0.67188 0.0
H1068 H 0.44294 0.05783 0.70027 0.0
H1069 H 0.44497 0.06416 0.71604 0.0
H1070 H 0.41474 0.06789 0.71805 0.0
H1071 H 0.41314 0.06253 0.70215 0.0
H1072 H 0.39166 0.0288 0.65627 0.0
H1073 H 0.40262 0.03696 0.66664 0.0
H1074 H 0.41275 0.02878 0.63433 0.0
H1075 H 0.4237 0.03651 0.64495 0.0
H1076 H 0.46742 0.02437 0.65324 0.0
H1077 H 0.48033 0.02983 0.68024 0.0
H1078 H 0.46672 0.03875 0.68495 0.0
H1079 H 0.45334 0.03305 0.65841 0.0
C1080 C 0.94754 0.4281 0.70035 0.0
C1081 C 0.94691 0.43699 0.70454 0.0
C1082 C 0.94002 0.42999 0.71881 0.0
C1083 C 0.94306 0.43794 0.71361 0.0
C1084 C 0.94065 0.42115 0.71437 0.0
C1085 C 0.94424 0.42027 0.70527 0.0
U1086 U 0.96148 0.43225 0.67635 0.0
O1087 O 0.97166 0.42167 0.6714 0.0
O1088 O 0.9586 0.42426 0.66328 0.0
C1089 C 0.96623 0.41916 0.66437 0.0
C1090 C 0.95199 0.42641 0.69113 0.0
C1091 C 0.96993 0.41315 0.65681 0.0
C1092 C 0.97323 0.39731 0.65126 0.0
C1093 C 0.96864 0.4034 0.65746 0.0
C1094 C 0.98022 0.41069 0.64343 0.0
C1095 C 0.9794 0.40082 0.64435 0.0
C1096 C 0.97552 0.41678 0.64959 0.0
C1097 C 0.97079 0.45866 0.6714 0.0
C1098 C 0.98262 0.46714 0.66234 0.0
C1099 C 0.97307 0.47545 0.67368 0.0
C1100 C 0.96837 0.46711 0.67581 0.0
C1101 C 0.98052 0.47559 0.66716 0.0
C1102 C 0.9778 0.45874 0.66445 0.0
C1103 C 0.96637 0.44999 0.67504 0.0
O1104 O 0.94792 0.42967 0.68351 0.0
O1105 O 0.9612 0.42663 0.69075 0.0
O1106 O 0.97165 0.44359 0.67908 0.0
O1107 O 0.95862 0.44668 0.67122 0.0
H1108 H 0.94942 0.44315 0.70086 0.0
H1109 H 0.94254 0.44496 0.71646 0.0
H1110 H 0.93868 0.41474 0.71793 0.0
H1111 H 0.94468 0.41333 0.70216 0.0
H1112 H 0.97209 0.38984 0.65207 0.0
H1113 H 0.96432 0.40047 0.663 0.0
H1114 H 0.98489 0.41377 0.63829 0.0
H1115 H 0.97659 0.42429 0.64898 0.0
H1116 H 0.98825 0.46687 0.65725 0.0
H1117 H 0.97091 0.48176 0.67733 0.0
H1118 H 0.96298 0.46722 0.68119 0.0
H1119 H 0.97975 0.4523 0.66091 0.0
C1120 C 0.57851 0.05974 0.30738 0.0
C1121 C 0.56985 0.05928 0.30268 0.0
C1122 C 0.57687 0.06676 0.28885 0.0
C1123 C 0.56902 0.06284 0.29348 0.0
C1124 C 0.58542 0.06735 0.29373 0.0
C1125 C 0.58621 0.06391 0.30288 0.0
U1126 U 0.57489 0.04609 0.33169 0.0
O1127 O 0.58607 0.03659 0.33663 0.0
O1128 O 0.58292 0.04955 0.3446 0.0
C1129 C 0.58847 0.04224 0.34352 0.0
C1130 C 0.58021 0.05546 0.31667 0.0
C1131 C 0.59394 0.03845 0.35145 0.0
C1132 C 0.60938 0.03403 0.35736 0.0
C1133 C 0.60379 0.03884 0.35088 0.0
C1134 C 0.59534 0.02878 0.36542 0.0
C1135 C 0.60519 0.02868 0.36449 0.0
C1136 C 0.58973 0.03366 0.35894 0.0
C1137 C 0.54874 0.03609 0.33698 0.0
C1138 C 0.5404 0.02464 0.34662 0.0
C1139 C 0.53205 0.03326 0.33459 0.0
C1140 C 0.54031 0.03802 0.33229 0.0
C1141 C 0.53198 0.02624 0.34157 0.0
C1142 C 0.54872 0.02951 0.34433 0.0
C1143 C 0.55736 0.04061 0.33334 0.0
O1144 O 0.5769 0.05959 0.32424 0.0
O1145 O 0.58023 0.04625 0.31719 0.0
O1146 O 0.56391 0.03542 0.32939 0.0
O1147 O 0.56043 0.04856 0.33694 0.0
H1148 H 0.56383 0.05603 0.30601 0.0
H1149 H 0.56235 0.06223 0.28987 0.0
H1150 H 0.59156 0.07039 0.29041 0.0
H1151 H 0.59296 0.06431 0.30638 0.0
H1152 H 0.61694 0.03396 0.35644 0.0
H1153 H 0.60716 0.04249 0.34511 0.0
H1154 H 0.59198 0.0247 0.37089 0.0
H1155 H 0.58215 0.0333 0.35951 0.0
H1156 H 0.5407 0.01933 0.35206 0.0
H1157 H 0.52574 0.03501 0.33072 0.0
H1158 H 0.54016 0.0431 0.32661 0.0
H1159 H 0.55515 0.02794 0.34808 0.0
C1160 C 0.94792 0.5791 0.3078 0.0
C1161 C 0.94721 0.57001 0.30403 0.0
C1162 C 0.9408 0.57638 0.28927 0.0
C1163 C 0.94358 0.56865 0.29492 0.0
C1164 C 0.94148 0.58543 0.29327 0.0
C1165 C 0.94488 0.58672 0.30239 0.0
U1166 U 0.96158 0.5744 0.33151 0.0
O1167 O 0.9724 0.58394 0.33718 0.0
O1168 O 0.95923 0.58152 0.34521 0.0
C1169 C 0.96745 0.58571 0.34476 0.0
C1170 C 0.95219 0.58118 0.31705 0.0
C1171 C 0.9704 0.59306 0.35147 0.0
C1172 C 0.97394 0.60936 0.35536 0.0
C1173 C 0.96979 0.60268 0.34936 0.0
C1174 C 0.97901 0.59687 0.36573 0.0
C1175 C 0.97888 0.60651 0.36347 0.0
C1176 C 0.97478 0.59026 0.35982 0.0
C1177 C 0.97022 0.54793 0.33586 0.0
C1178 C 0.9808 0.53991 0.3467 0.0
C1179 C 0.97423 0.53147 0.33347 0.0
C1180 C 0.96934 0.53954 0.33078 0.0
C1181 C 0.98018 0.53157 0.34135 0.0
C1182 C 0.97585 0.54805 0.34398 0.0
C1183 C 0.96566 0.55636 0.33182 0.0
O1184 O 0.94808 0.5779 0.32464 0.0
O1185 O 0.9614 0.5809 0.3175 0.0
O1186 O 0.97104 0.56272 0.32785 0.0
O1187 O 0.95815 0.55988 0.33591 0.0
H1188 H 0.94952 0.56399 0.30808 0.0
H1189 H 0.94301 0.56152 0.29237 0.0
H1190 H 0.93973 0.59166 0.28932 0.0
H1191 H 0.94538 0.5938 0.30514 0.0
H1192 H 0.97348 0.61672 0.3535 0.0
H1193 H 0.96638 0.60501 0.34298 0.0
H1194 H 0.9828 0.59434 0.37181 0.0
H1195 H 0.97535 0.58287 0.36155 0.0
H1196 H 0.98524 0.54018 0.35287 0.0
H1197 H 0.97367 0.52527 0.3291 0.0
H1198 H 0.96508 0.5393 0.32448 0.0
H1199 H 0.9766 0.55445 0.34804 0.0
C1200 C 0.42905 0.94664 0.30713 0.0
C1201 C 0.43749 0.94766 0.3021 0.0
C1202 C 0.43066 0.93922 0.28878 0.0
C1203 C 0.43828 0.94394 0.29296 0.0
C1204 C 0.42236 0.93804 0.29392 0.0
C1205 C 0.42158 0.94169 0.303 0.0
U1206 U 0.43326 0.96109 0.33076 0.0
O1207 O 0.42292 0.97168 0.3355 0.0
O1208 O 0.42526 0.95873 0.34389 0.0
C1209 C 0.42037 0.96648 0.34268 0.0
C1210 C 0.42726 0.95131 0.31623 0.0
C1211 C 0.41408 0.97017 0.35004 0.0
C1212 C 0.39817 0.9737 0.35524 0.0
C1213 C 0.40434 0.96928 0.34897 0.0
C1214 C 0.41147 0.97986 0.36381 0.0
C1215 C 0.40158 0.97944 0.36262 0.0
C1216 C 0.41761 0.97523 0.35766 0.0
C1217 C 0.45942 0.97043 0.33606 0.0
C1218 C 0.46729 0.98045 0.34754 0.0
C1219 C 0.4757 0.97513 0.33375 0.0
C1220 C 0.46775 0.97021 0.33082 0.0
C1221 C 0.47558 0.98046 0.34207 0.0
C1222 C 0.45925 0.97546 0.34456 0.0
C1223 C 0.45113 0.96568 0.33194 0.0
O1224 O 0.43038 0.94738 0.32398 0.0
O1225 O 0.42763 0.96053 0.31639 0.0
O1226 O 0.44485 0.97085 0.32757 0.0
O1227 O 0.44761 0.95819 0.33605 0.0
H1228 H 0.44332 0.95152 0.30511 0.0
H1229 H 0.44473 0.94499 0.28906 0.0
H1230 H 0.41637 0.93453 0.29079 0.0
H1231 H 0.41498 0.94093 0.30672 0.0
H1232 H 0.39076 0.97265 0.35407 0.0
H1233 H 0.40148 0.96531 0.34313 0.0
H1234 H 0.41471 0.98409 0.3692 0.0
H1235 H 0.42512 0.97594 0.35863 0.0
H1236 H 0.46698 0.98438 0.35404 0.0
H1237 H 0.48185 0.97506 0.32926 0.0
H1238 H 0.46803 0.96639 0.32423 0.0
H1239 H 0.45291 0.9757 0.34875 0.0
C1240 C 0.05986 0.42797 0.30751 0.0
C1241 C 0.05804 0.43602 0.30211 0.0
C1242 C 0.06718 0.4295 0.28898 0.0
C1243 C 0.06165 0.43677 0.29293 0.0
C1244 C 0.06917 0.42162 0.29462 0.0
C1245 C 0.06551 0.42086 0.30371 0.0
U1246 U 0.04598 0.43252 0.33135 0.0
O1247 O 0.03556 0.42234 0.33678 0.0
O1248 O 0.04868 0.42521 0.3448 0.0
C1249 C 0.04078 0.42047 0.34416 0.0
C1250 C 0.05543 0.42616 0.31674 0.0
C1251 C 0.03784 0.41368 0.35138 0.0
C1252 C 0.03343 0.39768 0.35546 0.0
C1253 C 0.03806 0.40399 0.3495 0.0
C1254 C 0.02895 0.41059 0.36562 0.0
C1255 C 0.02856 0.40099 0.36338 0.0
C1256 C 0.03356 0.4169 0.35964 0.0
C1257 C 0.03658 0.45876 0.33607 0.0
C1258 C 0.02483 0.46666 0.34576 0.0
C1259 C 0.03315 0.47533 0.33375 0.0
C1260 C 0.03825 0.46728 0.33147 0.0
C1261 C 0.02611 0.47509 0.34067 0.0
C1262 C 0.02999 0.45851 0.34344 0.0
C1263 C 0.04124 0.45035 0.33212 0.0
O1264 O 0.05953 0.42943 0.32435 0.0
O1265 O 0.04622 0.42644 0.31715 0.0
O1266 O 0.03599 0.44387 0.32815 0.0
O1267 O 0.04896 0.44708 0.336 0.0
H1268 H 0.05364 0.44158 0.30488 0.0
H1269 H 0.05983 0.44292 0.28886 0.0
H1270 H 0.07353 0.41595 0.29205 0.0
H1271 H 0.06697 0.41456 0.30773 0.0
H1272 H 0.03319 0.3903 0.35362 0.0
H1273 H 0.04135 0.40137 0.34315 0.0
H1274 H 0.02514 0.41329 0.37163 0.0
H1275 H 0.03327 0.42435 0.36116 0.0
H1276 H 0.01952 0.46622 0.3512 0.0
H1277 H 0.03457 0.48171 0.32985 0.0
H1278 H 0.04331 0.46765 0.32578 0.0
H1279 H 0.02862 0.45201 0.34713 0.0
C1280 C 0.70003 0.57839 0.94695 0.0
C1281 C 0.70504 0.57 0.94828 0.0
C1282 C 0.71861 0.57656 0.93987 0.0
C1283 C 0.71423 0.56909 0.94474 0.0
C1284 C 0.71339 0.5848 0.93832 0.0
C1285 C 0.70424 0.58569 0.94183 0.0
U1286 U 0.67609 0.57453 0.96111 0.0
O1287 O 0.6713 0.58502 0.9715 0.0
O1288 O 0.66307 0.58268 0.95849 0.0
C1289 C 0.66423 0.58766 0.96619 0.0
C1290 C 0.69086 0.5803 0.95149 0.0
C1291 C 0.6567 0.59368 0.97 0.0
C1292 C 0.65103 0.6095 0.97328 0.0
C1293 C 0.65741 0.60345 0.96887 0.0
C1294 C 0.64297 0.59606 0.97986 0.0
C1295 C 0.64385 0.60593 0.97911 0.0
C1296 C 0.64931 0.59001 0.97532 0.0
C1297 C 0.67063 0.54831 0.97048 0.0
C1298 C 0.65978 0.54045 0.98119 0.0
C1299 C 0.67323 0.53203 0.97507 0.0
C1300 C 0.67582 0.53995 0.96989 0.0
C1301 C 0.66532 0.53225 0.98092 0.0
C1302 C 0.66243 0.54848 0.976 0.0
C1303 C 0.67465 0.55671 0.96582 0.0
O1304 O 0.68313 0.57722 0.94748 0.0
O1305 O 0.69055 0.57999 0.9607 0.0
O1306 O 0.67898 0.56299 0.97102 0.0
O1307 O 0.67067 0.56021 0.95824 0.0
H1308 H 0.70196 0.56428 0.95223 0.0
H1309 H 0.71798 0.56257 0.94595 0.0
H1310 H 0.71651 0.59074 0.93473 0.0
H1311 H 0.70054 0.59227 0.9408 0.0
H1312 H 0.65186 0.61697 0.9722 0.0
H1313 H 0.66307 0.60643 0.96474 0.0
H1314 H 0.63765 0.59292 0.98428 0.0
H1315 H 0.64863 0.58249 0.97625 0.0
H1316 H 0.65367 0.54078 0.98571 0.0
H1317 H 0.67765 0.52583 0.97481 0.0
H1318 H 0.68217 0.53967 0.96569 0.0
H1319 H 0.6583 0.55485 0.97657 0.0
C1320 C 0.42957 0.69991 0.9473 0.0
C1321 C 0.43796 0.70508 0.9477 0.0
C1322 C 0.43014 0.71847 0.94032 0.0
C1323 C 0.43826 0.7143 0.94415 0.0
C1324 C 0.42184 0.7132 0.93979 0.0
C1325 C 0.42159 0.704 0.94319 0.0
U1326 U 0.43241 0.6752 0.96101 0.0
O1327 O 0.42056 0.67122 0.97007 0.0
O1328 O 0.42346 0.66301 0.95727 0.0
C1329 C 0.41781 0.66445 0.96444 0.0
C1330 C 0.42843 0.69064 0.95176 0.0
C1331 C 0.41242 0.65663 0.96854 0.0
C1332 C 0.397 0.65088 0.97321 0.0
C1333 C 0.40258 0.65729 0.9683 0.0
C1334 C 0.41103 0.64268 0.97825 0.0
C1335 C 0.40116 0.64369 0.97852 0.0
C1336 C 0.41664 0.64913 0.97332 0.0
C1337 C 0.45872 0.66931 0.97098 0.0
C1338 C 0.46892 0.65976 0.98088 0.0
C1339 C 0.47474 0.6743 0.97425 0.0
C1340 C 0.46611 0.67571 0.96973 0.0
C1341 C 0.47615 0.66643 0.98005 0.0
C1342 C 0.46024 0.66122 0.97643 0.0
C1343 C 0.44927 0.67154 0.96733 0.0
O1344 O 0.43139 0.68296 0.94754 0.0
O1345 O 0.42836 0.69012 0.96096 0.0
O1346 O 0.4431 0.67634 0.97226 0.0
O1347 O 0.44639 0.66865 0.95903 0.0
H1348 H 0.44417 0.70208 0.95094 0.0
H1349 H 0.44471 0.71829 0.9447 0.0
H1350 H 0.4155 0.71628 0.93692 0.0
H1351 H 0.41503 0.70014 0.94288 0.0
H1352 H 0.38945 0.65191 0.9733 0.0
H1353 H 0.3992 0.66306 0.96465 0.0
H1354 H 0.41442 0.6371 0.98216 0.0
H1355 H 0.42421 0.64846 0.97353 0.0
H1356 H 0.46981 0.65367 0.98537 0.0
H1357 H 0.48022 0.67952 0.97346 0.0
H1358 H 0.46508 0.68198 0.96554 0.0
H1359 H 0.4546 0.65622 0.97751 0.0
C1360 C 0.30749 0.42893 0.94703 0.0
C1361 C 0.30234 0.43714 0.94886 0.0
C1362 C 0.28876 0.43061 0.94055 0.0
C1363 C 0.29303 0.43796 0.94565 0.0
C1364 C 0.29409 0.4226 0.93841 0.0
C1365 C 0.30334 0.42176 0.94165 0.0
U1366 U 0.33156 0.43222 0.96112 0.0
O1367 O 0.33611 0.42128 0.97108 0.0
O1368 O 0.3444 0.42388 0.95819 0.0
C1369 C 0.34309 0.41861 0.96567 0.0
C1370 C 0.31668 0.42694 0.95144 0.0
C1371 C 0.35075 0.41292 0.96965 0.0
C1372 C 0.35685 0.39729 0.97295 0.0
C1373 C 0.35039 0.40316 0.96844 0.0
C1374 C 0.36427 0.41093 0.97986 0.0
C1375 C 0.36373 0.40103 0.97903 0.0
C1376 C 0.35787 0.41681 0.97518 0.0
C1377 C 0.33696 0.45843 0.97091 0.0
C1378 C 0.34737 0.46691 0.98158 0.0
C1379 C 0.33358 0.4746 0.97527 0.0
C1380 C 0.33141 0.46653 0.97016 0.0
C1381 C 0.34141 0.47482 0.98125 0.0
C1382 C 0.34511 0.4587 0.97649 0.0
C1383 C 0.33334 0.44981 0.96635 0.0
O1384 O 0.3244 0.43006 0.94745 0.0
O1385 O 0.31703 0.42703 0.96065 0.0
O1386 O 0.329 0.44346 0.97146 0.0
O1387 O 0.33723 0.44652 0.95864 0.0
H1388 H 0.30538 0.44274 0.95302 0.0
H1389 H 0.28907 0.44423 0.94735 0.0
H1390 H 0.29096 0.4168 0.9346 0.0
H1391 H 0.30715 0.41531 0.94028 0.0
H1392 H 0.35628 0.38981 0.97173 0.0
H1393 H 0.34494 0.40002 0.96415 0.0
H1394 H 0.36934 0.41423 0.98446 0.0
H1395 H 0.35828 0.42435 0.97617 0.0
H1396 H 0.35347 0.46691 0.98614 0.0
H1397 H 0.32891 0.48061 0.9748 0.0
H1398 H 0.32511 0.46649 0.96587 0.0
H1399 H 0.34951 0.45253 0.97716 0.0
C1400 C 0.57943 0.30749 0.94817 0.0
C1401 C 0.57112 0.30249 0.94988 0.0
C1402 C 0.57725 0.28873 0.94124 0.0
C1403 C 0.57007 0.29324 0.94654 0.0
C1404 C 0.58537 0.2941 0.93928 0.0
C1405 C 0.58646 0.30323 0.94278 0.0
U1406 U 0.5747 0.33127 0.96186 0.0
O1407 O 0.58443 0.33714 0.97237 0.0
O1408 O 0.58155 0.34506 0.95921 0.0
C1409 C 0.58596 0.34471 0.96731 0.0
C1410 C 0.58148 0.31677 0.95246 0.0
C1411 C 0.59313 0.35165 0.97016 0.0
C1412 C 0.60922 0.35554 0.97443 0.0
C1413 C 0.60274 0.34944 0.97018 0.0
C1414 C 0.59661 0.36632 0.9782 0.0
C1415 C 0.60617 0.36388 0.97881 0.0
C1416 C 0.59017 0.36026 0.97391 0.0
C1417 C 0.54839 0.33582 0.97087 0.0
C1418 C 0.54065 0.3456 0.98267 0.0
C1419 C 0.53159 0.3344 0.97367 0.0
C1420 C 0.53969 0.33174 0.96883 0.0
C1421 C 0.53193 0.3411 0.98097 0.0
C1422 C 0.54881 0.34299 0.97766 0.0
C1423 C 0.55674 0.33162 0.96628 0.0
O1424 O 0.57813 0.32434 0.94835 0.0
O1425 O 0.58123 0.31726 0.96167 0.0
O1426 O 0.56322 0.32779 0.97162 0.0
O1427 O 0.56007 0.33545 0.95856 0.0
H1428 H 0.56557 0.30562 0.95404 0.0
H1429 H 0.56369 0.28964 0.94847 0.0
H1430 H 0.59105 0.29139 0.93505 0.0
H1431 H 0.59296 0.30695 0.94138 0.0
H1432 H 0.61657 0.35356 0.97464 0.0
H1433 H 0.60519 0.34285 0.96724 0.0
H1434 H 0.59402 0.37265 0.98155 0.0
H1435 H 0.58277 0.36206 0.974 0.0
H1436 H 0.54133 0.35084 0.98813 0.0
H1437 H 0.52508 0.33101 0.97172 0.0
H1438 H 0.53917 0.32623 0.9636 0.0
H1439 H 0.55545 0.34631 0.9793 0.0
C1440 C 0.69951 0.42954 0.06022 0.0
C1441 C 0.70453 0.4379 0.05862 0.0
C1442 C 0.71807 0.43151 0.06706 0.0
C1443 C 0.71377 0.43886 0.06201 0.0
C1444 C 0.71293 0.42332 0.06888 0.0
C1445 C 0.70376 0.42235 0.06547 0.0
U1446 U 0.67559 0.4336 0.04633 0.0
O1447 O 0.67053 0.42328 0.03583 0.0
O1448 O 0.66235 0.42588 0.04889 0.0
C1449 C 0.66327 0.42105 0.04107 0.0
C1450 C 0.6903 0.42752 0.05583 0.0
C1451 C 0.65588 0.41457 0.03778 0.0
C1452 C 0.65154 0.39874 0.03305 0.0
C1453 C 0.65763 0.40487 0.03774 0.0
C1454 C 0.64148 0.41185 0.02899 0.0
C1455 C 0.64358 0.40222 0.02838 0.0
C1456 C 0.64763 0.41801 0.03363 0.0
C1457 C 0.67069 0.45993 0.03704 0.0
C1458 C 0.65995 0.46816 0.02649 0.0
C1459 C 0.67358 0.47622 0.0327 0.0
C1460 C 0.67604 0.46817 0.03773 0.0
C1461 C 0.66563 0.47626 0.02689 0.0
C1462 C 0.66249 0.45999 0.03152 0.0
C1463 C 0.67456 0.45144 0.04164 0.0
O1464 O 0.68264 0.43069 0.0599 0.0
O1465 O 0.6899 0.42778 0.04662 0.0
O1466 O 0.67869 0.44506 0.0364 0.0
O1467 O 0.67057 0.44805 0.04925 0.0
H1468 H 0.70142 0.44352 0.05454 0.0
H1469 H 0.71764 0.44523 0.0605 0.0
H1470 H 0.71614 0.41753 0.07264 0.0
H1471 H 0.70007 0.4158 0.06668 0.0
H1472 H 0.65328 0.39133 0.03267 0.0
H1473 H 0.66397 0.40208 0.04092 0.0
H1474 H 0.63542 0.4147 0.02537 0.0
H1475 H 0.6462 0.42548 0.03355 0.0
H1476 H 0.65382 0.46803 0.02199 0.0
H1477 H 0.67811 0.48233 0.03306 0.0
H1478 H 0.6824 0.46828 0.04193 0.0
H1479 H 0.65825 0.45371 0.03087 0.0
C1480 C 0.57874 0.7001 0.06047 0.0
C1481 C 0.57024 0.7051 0.06028 0.0
C1482 C 0.57783 0.71845 0.06806 0.0
C1483 C 0.56977 0.7142 0.06413 0.0
C1484 C 0.58623 0.7133 0.06833 0.0
C1485 C 0.58666 0.70424 0.06461 0.0
U1486 U 0.57468 0.6759 0.04658 0.0
O1487 O 0.58566 0.67123 0.03672 0.0
O1488 O 0.58299 0.66308 0.04967 0.0
C1489 C 0.58834 0.66433 0.04223 0.0
C1490 C 0.58008 0.69087 0.05595 0.0
C1491 C 0.59396 0.65658 0.0383 0.0
C1492 C 0.60949 0.65104 0.03367 0.0
C1493 C 0.6038 0.65734 0.03864 0.0
C1494 C 0.59556 0.64281 0.02838 0.0
C1495 C 0.60539 0.64393 0.02822 0.0
C1496 C 0.58987 0.64909 0.0334 0.0
C1497 C 0.54843 0.67045 0.03699 0.0
C1498 C 0.54028 0.6603 0.02587 0.0
C1499 C 0.53208 0.67344 0.0329 0.0
C1500 C 0.54014 0.67569 0.03804 0.0
C1501 C 0.53214 0.66588 0.02661 0.0
C1502 C 0.5484 0.66256 0.03105 0.0
C1503 C 0.55702 0.67418 0.04149 0.0
O1504 O 0.57694 0.68325 0.0601 0.0
O1505 O 0.57981 0.69047 0.04674 0.0
O1506 O 0.5634 0.67831 0.03625 0.0
O1507 O 0.56034 0.67039 0.04924 0.0
H1508 H 0.56406 0.70206 0.05703 0.0
H1509 H 0.56321 0.71805 0.06375 0.0
H1510 H 0.59253 0.71632 0.07137 0.0
H1511 H 0.5933 0.70051 0.06478 0.0
H1512 H 0.61703 0.6521 0.03359 0.0
H1513 H 0.60709 0.66311 0.04237 0.0
H1514 H 0.59227 0.63734 0.02423 0.0
H1515 H 0.5823 0.64838 0.03309 0.0
H1516 H 0.54046 0.65445 0.021 0.0
H1517 H 0.52595 0.67792 0.03349 0.0
H1518 H 0.54004 0.68184 0.04253 0.0
H1519 H 0.55472 0.65841 0.03013 0.0
C1520 C 0.30723 0.57831 0.06067 0.0
C1521 C 0.30173 0.57032 0.0589 0.0
C1522 C 0.2886 0.57736 0.06747 0.0
C1523 C 0.29245 0.56987 0.06227 0.0
C1524 C 0.29426 0.58515 0.06953 0.0
C1525 C 0.30347 0.58562 0.06613 0.0
U1526 U 0.33098 0.57396 0.04641 0.0
O1527 O 0.33552 0.58435 0.03575 0.0
O1528 O 0.34404 0.58207 0.04865 0.0
C1529 C 0.34275 0.58692 0.04088 0.0
C1530 C 0.31638 0.57997 0.05606 0.0
C1531 C 0.35005 0.59327 0.03725 0.0
C1532 C 0.35419 0.60883 0.03157 0.0
C1533 C 0.34806 0.60285 0.03637 0.0
C1534 C 0.36489 0.59585 0.02926 0.0
C1535 C 0.36263 0.60542 0.02754 0.0
C1536 C 0.35861 0.58984 0.03389 0.0
C1537 C 0.3364 0.54769 0.03727 0.0
C1538 C 0.34693 0.5399 0.0262 0.0
C1539 C 0.33429 0.53113 0.03344 0.0
C1540 C 0.3316 0.53915 0.03842 0.0
C1541 C 0.34184 0.53146 0.02713 0.0
C1542 C 0.34425 0.54799 0.03128 0.0
C1543 C 0.33233 0.55608 0.04189 0.0
O1544 O 0.32411 0.57691 0.06008 0.0
O1545 O 0.31659 0.57948 0.04685 0.0
O1546 O 0.32799 0.56233 0.03665 0.0
O1547 O 0.33636 0.55965 0.0494 0.0
H1548 H 0.30446 0.56462 0.05466 0.0
H1549 H 0.2882 0.56377 0.06062 0.0
H1550 H 0.29143 0.59106 0.0734 0.0
H1551 H 0.30755 0.59192 0.06744 0.0
H1552 H 0.35191 0.616 0.03076 0.0
H1553 H 0.34151 0.60566 0.03906 0.0
H1554 H 0.3714 0.59275 0.02694 0.0
H1555 H 0.36033 0.58246 0.03462 0.0
H1556 H 0.35278 0.54031 0.02135 0.0
H1557 H 0.33017 0.52476 0.03417 0.0
H1558 H 0.32548 0.53878 0.04294 0.0
H1559 H 0.34809 0.55448 0.03029 0.0
C1560 C 0.42835 0.30734 0.05987 0.0
C1561 C 0.43629 0.30185 0.05787 0.0
C1562 C 0.42982 0.28877 0.06713 0.0
C1563 C 0.437 0.29265 0.06143 0.0
C1564 C 0.42204 0.29451 0.06928 0.0
C1565 C 0.42131 0.30361 0.06564 0.0
U1566 U 0.43307 0.33119 0.04609 0.0
O1567 O 0.42291 0.33661 0.03562 0.0
O1568 O 0.4257 0.3446 0.04877 0.0
C1569 C 0.42088 0.34389 0.04093 0.0
C1570 C 0.42659 0.3166 0.05547 0.0
C1571 C 0.41431 0.35128 0.03789 0.0
C1572 C 0.39845 0.35582 0.03327 0.0
C1573 C 0.40457 0.34963 0.03792 0.0
C1574 C 0.41171 0.36561 0.02903 0.0
C1575 C 0.40206 0.36362 0.02844 0.0
C1576 C 0.41779 0.3595 0.03376 0.0
C1577 C 0.45931 0.33596 0.03671 0.0
C1578 C 0.46753 0.34768 0.02726 0.0
C1579 C 0.47544 0.33331 0.03171 0.0
C1580 C 0.46743 0.33041 0.03656 0.0
C1581 C 0.47564 0.34194 0.02689 0.0
C1582 C 0.45941 0.3447 0.03212 0.0
C1583 C 0.45096 0.3319 0.04143 0.0
O1584 O 0.4299 0.32417 0.0596 0.0
O1585 O 0.42693 0.31702 0.04627 0.0
O1586 O 0.44451 0.32786 0.0362 0.0
O1587 O 0.44761 0.33587 0.04907 0.0
H1588 H 0.44179 0.30456 0.05337 0.0
H1589 H 0.44306 0.28853 0.05943 0.0
H1590 H 0.41644 0.29204 0.07378 0.0
H1591 H 0.41508 0.3077 0.06721 0.0
H1592 H 0.39104 0.35413 0.03287 0.0
H1593 H 0.40176 0.3433 0.04108 0.0
H1594 H 0.41463 0.3716 0.02535 0.0
H1595 H 0.42528 0.36088 0.03366 0.0
H1596 H 0.46742 0.35442 0.02374 0.0
H1597 H 0.48138 0.32856 0.03149 0.0
H1598 H 0.46751 0.32363 0.04002 0.0
H1599 H 0.45322 0.34913 0.03217 0.0
C1600 C 0.94739 0.69967 0.57913 0.0
C1601 C 0.94717 0.7036 0.57009 0.0
C1602 C 0.94068 0.71829 0.57647 0.0
C1603 C 0.94376 0.71279 0.56876 0.0
C1604 C 0.94081 0.71414 0.58545 0.0
C1605 C 0.94406 0.70497 0.58672 0.0
U1606 U 0.96104 0.67573 0.57506 0.0
O1607 O 0.97124 0.67045 0.58555 0.0
O1608 O 0.9582 0.6624 0.58253 0.0
C1609 C 0.96584 0.66328 0.58766 0.0
C1610 C 0.95151 0.69038 0.58119 0.0
C1611 C 0.96902 0.65574 0.59398 0.0
C1612 C 0.97316 0.65085 0.60986 0.0
C1613 C 0.9686 0.65709 0.60375 0.0
C1614 C 0.97815 0.64157 0.59649 0.0
C1615 C 0.9783 0.64325 0.60623 0.0
C1616 C 0.97353 0.64776 0.5904 0.0
C1617 C 0.97089 0.67176 0.5487 0.0
C1618 C 0.97982 0.66052 0.5393 0.0
C1619 C 0.97605 0.67581 0.53293 0.0
C1620 C 0.97127 0.67806 0.54118 0.0
C1621 C 0.98047 0.66702 0.53177 0.0
C1622 C 0.97513 0.6629 0.54772 0.0
C1623 C 0.96623 0.67511 0.55736 0.0
O1624 O 0.94747 0.68285 0.57767 0.0
O1625 O 0.96071 0.68987 0.58127 0.0
O1626 O 0.97132 0.67909 0.56396 0.0
O1627 O 0.95855 0.671 0.56045 0.0
H1628 H 0.94972 0.69963 0.56412 0.0
H1629 H 0.94362 0.71557 0.56169 0.0
H1630 H 0.93872 0.71806 0.59161 0.0
H1631 H 0.94422 0.70208 0.59377 0.0
H1632 H 0.97322 0.65233 0.61732 0.0
H1633 H 0.96516 0.66324 0.60663 0.0
H1634 H 0.98204 0.63572 0.59355 0.0
H1635 H 0.97393 0.6466 0.58289 0.0
H1636 H 0.98292 0.65361 0.53876 0.0
H1637 H 0.97649 0.68122 0.52762 0.0
H1638 H 0.96805 0.68494 0.54178 0.0
H1639 H 0.9749 0.65789 0.55344 0.0
C1640 C 0.94758 0.30782 0.42803 0.0
C1641 C 0.94722 0.30395 0.4371 0.0
C1642 C 0.94073 0.28922 0.43077 0.0
C1643 C 0.94375 0.29478 0.43846 0.0
C1644 C 0.94098 0.29332 0.42176 0.0
C1645 C 0.94429 0.30247 0.42045 0.0
U1646 U 0.96144 0.33145 0.43261 0.0
O1647 O 0.97211 0.33703 0.42289 0.0
O1648 O 0.95909 0.34523 0.42564 0.0
C1649 C 0.96723 0.3447 0.42128 0.0
C1650 C 0.95181 0.31709 0.42592 0.0
C1651 C 0.97014 0.35142 0.41395 0.0
C1652 C 0.97391 0.35516 0.39769 0.0
C1653 C 0.96972 0.3492 0.40435 0.0
C1654 C 0.97859 0.36577 0.41014 0.0
C1655 C 0.97868 0.36336 0.40055 0.0
C1656 C 0.97435 0.35987 0.41674 0.0
C1657 C 0.97092 0.33553 0.45884 0.0
C1658 C 0.9801 0.34729 0.4673 0.0
C1659 C 0.97672 0.33232 0.47458 0.0
C1660 C 0.97167 0.3296 0.46664 0.0
C1661 C 0.98111 0.34117 0.47508 0.0
C1662 C 0.97507 0.34448 0.45922 0.0
C1663 C 0.96602 0.33164 0.45053 0.0
O1664 O 0.94782 0.32467 0.4294 0.0
O1665 O 0.96102 0.3175 0.42597 0.0
O1666 O 0.97112 0.32752 0.44403 0.0
O1667 O 0.9585 0.33588 0.44723 0.0
H1668 H 0.94973 0.30794 0.44307 0.0
H1669 H 0.94351 0.29206 0.44555 0.0
H1670 H 0.93895 0.28937 0.41559 0.0
H1671 H 0.94453 0.3053 0.41339 0.0
H1672 H 0.97367 0.3532 0.39034 0.0
H1673 H 0.96644 0.34273 0.40203 0.0
H1674 H 0.98225 0.37196 0.41263 0.0
H1675 H 0.97478 0.36167 0.42413 0.0
H1676 H 0.98324 0.35422 0.46742 0.0
H1677 H 0.97743 0.32724 0.48019 0.0
H1678 H 0.96853 0.32266 0.4665 0.0
H1679 H 0.97454 0.34921 0.45328 0.0
C1680 C 0.70009 0.94716 0.42873 0.0
C1681 C 0.70514 0.9484 0.4371 0.0
C1682 C 0.71882 0.94052 0.43017 0.0
C1683 C 0.71442 0.94507 0.43782 0.0
C1684 C 0.71355 0.93901 0.42196 0.0
C1685 C 0.70431 0.9423 0.42127 0.0
U1686 U 0.67615 0.96109 0.43312 0.0
O1687 O 0.67122 0.97158 0.42281 0.0
O1688 O 0.66305 0.95851 0.42509 0.0
C1689 C 0.66416 0.96626 0.42019 0.0
C1690 C 0.69086 0.95162 0.427 0.0
C1691 C 0.65659 0.97008 0.41423 0.0
C1692 C 0.65096 0.97374 0.3985 0.0
C1693 C 0.65734 0.96919 0.40445 0.0
C1694 C 0.64282 0.97992 0.41208 0.0
C1695 C 0.64376 0.97945 0.4022 0.0
C1696 C 0.64915 0.97526 0.41803 0.0
C1697 C 0.67093 0.97008 0.45949 0.0
C1698 C 0.66032 0.98093 0.46748 0.0
C1699 C 0.67329 0.97397 0.476 0.0
C1700 C 0.67591 0.96902 0.46793 0.0
C1701 C 0.6656 0.98012 0.47581 0.0
C1702 C 0.66295 0.97592 0.45934 0.0
C1703 C 0.67494 0.96556 0.45102 0.0
O1704 O 0.68322 0.94752 0.43016 0.0
O1705 O 0.69051 0.96083 0.42743 0.0
O1706 O 0.67912 0.97088 0.44474 0.0
O1707 O 0.67098 0.95799 0.44747 0.0
H1708 H 0.70204 0.95215 0.44295 0.0
H1709 H 0.71822 0.94623 0.44431 0.0
H1710 H 0.7167 0.93565 0.4159 0.0
H1711 H 0.70056 0.94135 0.41471 0.0
H1712 H 0.65183 0.97288 0.391 0.0
H1713 H 0.66304 0.96518 0.40138 0.0
H1714 H 0.63746 0.98425 0.41531 0.0
H1715 H 0.64846 0.97601 0.42557 0.0
H1716 H 0.65438 0.98568 0.46718 0.0
H1717 H 0.67754 0.97333 0.48229 0.0
H1718 H 0.68211 0.96461 0.4682 0.0
H1719 H 0.65899 0.97685 0.45291 0.0
C1720 C 0.06016 0.69994 0.42753 0.0
C1721 C 0.06061 0.7041 0.43645 0.0
C1722 C 0.06738 0.71853 0.42966 0.0
C1723 C 0.0643 0.71323 0.43753 0.0
C1724 C 0.0669 0.71415 0.42078 0.0
C1725 C 0.06345 0.70501 0.41977 0.0
U1726 U 0.04635 0.6762 0.43236 0.0
O1727 O 0.03586 0.67062 0.42238 0.0
O1728 O 0.04887 0.66248 0.42539 0.0
C1729 C 0.0409 0.66306 0.42076 0.0
C1730 C 0.05591 0.69062 0.42572 0.0
C1731 C 0.03794 0.65596 0.41383 0.0
C1732 C 0.03339 0.65194 0.39784 0.0
C1733 C 0.03801 0.65793 0.40415 0.0
C1734 C 0.02913 0.64166 0.41071 0.0
C1735 C 0.02863 0.64395 0.40113 0.0
C1736 C 0.03378 0.64762 0.41701 0.0
C1737 C 0.03659 0.67242 0.45863 0.0
C1738 C 0.0274 0.66101 0.46756 0.0
C1739 C 0.03077 0.67628 0.47421 0.0
C1740 C 0.03586 0.67863 0.46619 0.0
C1741 C 0.02636 0.66745 0.47511 0.0
C1742 C 0.03239 0.66351 0.45935 0.0
C1743 C 0.04147 0.67601 0.45018 0.0
O1744 O 0.05994 0.68311 0.4293 0.0
O1745 O 0.0467 0.69017 0.42577 0.0
O1746 O 0.03641 0.68003 0.44359 0.0
O1747 O 0.04906 0.67178 0.44704 0.0
H1748 H 0.05809 0.70033 0.44256 0.0
H1749 H 0.06469 0.71605 0.44456 0.0
H1750 H 0.06888 0.71781 0.41443 0.0
H1751 H 0.06312 0.70196 0.4128 0.0
H1752 H 0.03305 0.65383 0.39047 0.0
H1753 H 0.04121 0.66433 0.40156 0.0
H1754 H 0.02539 0.6356 0.41341 0.0
H1755 H 0.03359 0.64603 0.42445 0.0
H1756 H 0.02433 0.65407 0.46792 0.0
H1757 H 0.03006 0.68166 0.47951 0.0
H1758 H 0.03903 0.68555 0.46579 0.0
H1759 H 0.03289 0.65856 0.45359 0.0
C1760 C 0.30753 0.06053 0.4297 0.0
C1761 C 0.30261 0.05893 0.43809 0.0
C1762 C 0.28894 0.06733 0.43183 0.0
C1763 C 0.29339 0.06232 0.43914 0.0
C1764 C 0.29404 0.06915 0.42359 0.0
C1765 C 0.30321 0.06576 0.42254 0.0
U1766 U 0.3317 0.04648 0.43255 0.0
O1767 O 0.33606 0.03681 0.42129 0.0
O1768 O 0.34441 0.04961 0.42409 0.0
C1769 C 0.34298 0.04229 0.41862 0.0
C1770 C 0.31669 0.05614 0.42762 0.0
C1771 C 0.35058 0.03838 0.4128 0.0
C1772 C 0.35572 0.03385 0.39711 0.0
C1773 C 0.34957 0.03878 0.40298 0.0
C1774 C 0.36432 0.02849 0.41078 0.0
C1775 C 0.36293 0.02836 0.40097 0.0
C1776 C 0.35817 0.03346 0.41667 0.0
C1777 C 0.33715 0.0365 0.45881 0.0
C1778 C 0.3476 0.02628 0.46782 0.0
C1779 C 0.33348 0.03245 0.47501 0.0
C1780 C 0.33137 0.0373 0.46675 0.0
C1781 C 0.34147 0.0267 0.4756 0.0
C1782 C 0.34541 0.0311 0.45943 0.0
C1783 C 0.3338 0.04092 0.45 0.0
O1784 O 0.32443 0.06013 0.43071 0.0
O1785 O 0.31708 0.04692 0.42761 0.0
O1786 O 0.32945 0.03585 0.44363 0.0
O1787 O 0.33754 0.04875 0.44682 0.0
H1788 H 0.30579 0.05488 0.44369 0.0
H1789 H 0.28966 0.06087 0.44562 0.0
H1790 H 0.29081 0.07286 0.41778 0.0
H1791 H 0.30684 0.06696 0.41595 0.0
H1792 H 0.35445 0.03384 0.3896 0.0
H1793 H 0.34373 0.04255 0.39987 0.0
H1794 H 0.36991 0.02439 0.41391 0.0
H1795 H 0.35909 0.03311 0.42421 0.0
H1796 H 0.35381 0.02189 0.46807 0.0
H1797 H 0.32868 0.03299 0.4809 0.0
H1798 H 0.32499 0.04145 0.46645 0.0
H1799 H 0.34999 0.0304 0.4534 0.0
C1800 C 0.06019 0.30722 0.57918 0.0
C1801 C 0.05983 0.30271 0.57042 0.0
C1802 C 0.06739 0.28869 0.57712 0.0
C1803 C 0.06346 0.29356 0.56939 0.0
C1804 C 0.06787 0.29341 0.5858 0.0
C1805 C 0.06436 0.30254 0.58678 0.0
U1806 U 0.04623 0.33107 0.57483 0.0
O1807 O 0.03589 0.33635 0.58519 0.0
O1808 O 0.04897 0.34441 0.58232 0.0
C1809 C 0.0412 0.34361 0.58725 0.0
C1810 C 0.0558 0.31646 0.58102 0.0
C1811 C 0.03817 0.35093 0.59389 0.0
C1812 C 0.03418 0.35536 0.60994 0.0
C1813 C 0.03876 0.34935 0.60362 0.0
C1814 C 0.02883 0.36488 0.59688 0.0
C1815 C 0.02886 0.36295 0.60656 0.0
C1816 C 0.03348 0.35893 0.59059 0.0
C1817 C 0.03675 0.33573 0.54849 0.0
C1818 C 0.02599 0.34603 0.53997 0.0
C1819 C 0.03378 0.33334 0.53184 0.0
C1820 C 0.03829 0.3308 0.54016 0.0
C1821 C 0.02724 0.34083 0.53151 0.0
C1822 C 0.03071 0.34352 0.54833 0.0
C1823 C 0.04131 0.33197 0.55705 0.0
O1824 O 0.05983 0.32406 0.57765 0.0
O1825 O 0.04659 0.31684 0.58085 0.0
O1826 O 0.03609 0.32797 0.56354 0.0
O1827 O 0.04904 0.33585 0.56029 0.0
H1828 H 0.05664 0.30618 0.56445 0.0
H1829 H 0.06311 0.2903 0.56252 0.0
H1830 H 0.07065 0.28997 0.59198 0.0
H1831 H 0.06466 0.30588 0.59362 0.0
H1832 H 0.03423 0.35371 0.61737 0.0
H1833 H 0.04233 0.34318 0.6063 0.0
H1834 H 0.02474 0.37069 0.59414 0.0
H1835 H 0.03292 0.36024 0.58311 0.0
H1836 H 0.02122 0.3519 0.54037 0.0
H1837 H 0.03558 0.32919 0.52579 0.0
H1838 H 0.04297 0.32478 0.54009 0.0
H1839 H 0.02947 0.34752 0.55469 0.0
C1840 C 0.69972 0.05982 0.57829 0.0
C1841 C 0.70495 0.05753 0.57026 0.0
C1842 C 0.71828 0.06696 0.57597 0.0
C1843 C 0.71413 0.061 0.56915 0.0
C1844 C 0.71273 0.06946 0.58381 0.0
C1845 C 0.70367 0.06585 0.58497 0.0
U1846 U 0.67598 0.04588 0.5743 0.0
O1847 O 0.67087 0.03533 0.58442 0.0
O1848 O 0.66253 0.04832 0.58178 0.0
C1849 C 0.66339 0.04036 0.5864 0.0
C1850 C 0.69059 0.05541 0.58053 0.0
C1851 C 0.65656 0.03726 0.59351 0.0
C1852 C 0.6533 0.03095 0.60904 0.0
C1853 C 0.65934 0.03561 0.60282 0.0
C1854 C 0.64136 0.03038 0.59694 0.0
C1855 C 0.64436 0.02783 0.60606 0.0
C1856 C 0.64744 0.03495 0.59073 0.0
C1857 C 0.67089 0.03675 0.54806 0.0
C1858 C 0.66009 0.02598 0.54017 0.0
C1859 C 0.67362 0.03207 0.53186 0.0
C1860 C 0.67611 0.03732 0.53974 0.0
C1861 C 0.66575 0.02616 0.53204 0.0
C1862 C 0.66269 0.03121 0.5482 0.0
C1863 C 0.67497 0.04142 0.5564 0.0
O1864 O 0.68288 0.05947 0.57746 0.0
O1865 O 0.69023 0.04619 0.58022 0.0
O1866 O 0.6792 0.03617 0.56271 0.0
O1867 O 0.67097 0.04899 0.55989 0.0
H1868 H 0.70206 0.05282 0.56501 0.0
H1869 H 0.71802 0.05866 0.56306 0.0
H1870 H 0.7153 0.07419 0.58915 0.0
H1871 H 0.69978 0.06765 0.59127 0.0
H1872 H 0.65595 0.02932 0.61597 0.0
H1873 H 0.66633 0.03753 0.60514 0.0
H1874 H 0.63443 0.02858 0.59442 0.0
H1875 H 0.64515 0.03625 0.58359 0.0
H1876 H 0.65399 0.02144 0.54048 0.0
H1877 H 0.67808 0.03234 0.5257 0.0
H1878 H 0.68244 0.04155 0.53947 0.0
H1879 H 0.65853 0.03067 0.55455 0.0
C1880 C 0.30746 0.9473 0.57819 0.0
C1881 C 0.30251 0.94838 0.56974 0.0
C1882 C 0.28907 0.93985 0.57637 0.0
C1883 C 0.29339 0.94466 0.56883 0.0
C1884 C 0.29423 0.93866 0.58471 0.0
C1885 C 0.30327 0.94236 0.5856 0.0
U1886 U 0.33155 0.96109 0.5743 0.0
O1887 O 0.33645 0.97126 0.58498 0.0
O1888 O 0.34449 0.95814 0.58241 0.0
C1889 C 0.3434 0.96575 0.58755 0.0
C1890 C 0.31666 0.95174 0.58001 0.0
C1891 C 0.3509 0.96917 0.5938 0.0
C1892 C 0.35564 0.97377 0.6096 0.0
C1893 C 0.34937 0.96918 0.60355 0.0
C1894 C 0.36539 0.97779 0.59625 0.0
C1895 C 0.36352 0.97847 0.60596 0.0
C1896 C 0.3591 0.97321 0.59021 0.0
C1897 C 0.33718 0.97053 0.54815 0.0
C1898 C 0.34787 0.98153 0.54051 0.0
C1899 C 0.33501 0.97474 0.53169 0.0
C1900 C 0.33229 0.96965 0.53963 0.0
C1901 C 0.34269 0.9809 0.5321 0.0
C1902 C 0.34516 0.97634 0.5485 0.0
C1903 C 0.33305 0.96591 0.55651 0.0
O1904 O 0.32431 0.94759 0.57693 0.0
O1905 O 0.31708 0.96095 0.57969 0.0
O1906 O 0.32891 0.97118 0.56286 0.0
O1907 O 0.33687 0.95822 0.55994 0.0
H1908 H 0.30558 0.95224 0.56395 0.0
H1909 H 0.28962 0.94582 0.56232 0.0
H1910 H 0.29127 0.93489 0.59062 0.0
H1911 H 0.30696 0.9415 0.59221 0.0
H1912 H 0.35398 0.97414 0.61701 0.0
H1913 H 0.34307 0.96604 0.60645 0.0
H1914 H 0.37151 0.98117 0.59326 0.0
H1915 H 0.36044 0.9732 0.58272 0.0
H1916 H 0.35382 0.98625 0.54097 0.0
H1917 H 0.33083 0.97423 0.52535 0.0
H1918 H 0.32608 0.96526 0.53922 0.0
H1919 H 0.34907 0.97712 0.55498 0.0
C1920 C 0.99127 0.52183 0.16929 0.0
C1921 C 0.98227 0.51916 0.16622 0.0
C1922 C 0.99894 0.5156 0.16884 0.0
C1923 C 0.99768 0.50648 0.16505 0.0
C1924 C 0.98873 0.50388 0.16153 0.0
C1925 C 0.98115 0.51021 0.1622 0.0
C1926 C 0.01102 0.5187 0.17263 0.0
C1927 C 0.98689 0.4942 0.15762 0.0
C1928 C 0.02249 0.49263 0.15874 0.0
C1929 C 0.0243 0.48764 0.16709 0.0
C1930 C 0.01464 0.49862 0.15789 0.0
C1931 C 0.00822 0.4995 0.16544 0.0
C1932 C 0.00964 0.49407 0.17364 0.0
C1933 C 0.01772 0.48847 0.17446 0.0
C1934 C 0.01334 0.50422 0.14898 0.0
C1935 C 1.00025 0.49442 0.18185 0.0
H1936 H 0.99232 0.52878 0.17223 0.0
H1937 H 0.97424 0.50794 0.15995 0.0
H1938 H 0.01348 0.51373 0.1781 0.0
H1939 H 0.01629 0.51863 0.16688 0.0
H1940 H 0.01077 0.52586 0.17572 0.0
H1941 H 0.9809 0.49426 0.15262 0.0
H1942 H 0.99314 0.49129 0.15398 0.0
H1943 H 0.98508 0.48942 0.1635 0.0
H1944 H 0.02723 0.49195 0.15284 0.0
H1945 H 0.01894 0.48497 0.1811 0.0
H1946 H 0.01473 0.51175 0.15045 0.0
H1947 H 0.006 0.50365 0.14642 0.0
H1948 H 0.01816 0.50187 0.1433 0.0
H1949 H 0.00538 0.4998 0.18693 0.0
H1950 H 1.00006 0.48755 0.18556 0.0
H1951 H 0.99298 0.49622 0.17968 0.0
C1952 C 0.51087 0.02444 0.17198 0.0
C1953 C 0.51813 0.02564 0.16546 0.0
C1954 C 0.50469 0.01677 0.17143 0.0
C1955 C 0.50593 0.00992 0.1643 0.0
C1956 C 0.51326 0.01114 0.15762 0.0
C1957 C 0.51922 0.01905 0.15822 0.0
C1958 C 0.49701 0.01587 0.17868 0.0
C1959 C 0.51489 1.00143 0.14981 0.0
C1960 C 0.49667 0.9828 0.17021 0.0
C1961 C 0.48811 0.98258 0.16538 0.0
C1962 C 0.50263 0.99066 0.16971 0.0
C1963 C 0.49996 0.99856 0.16427 0.0
C1964 C 0.49135 0.99831 0.15923 0.0
C1965 C 0.48548 0.99033 0.15989 0.0
C1966 C 0.51177 0.99053 0.17508 0.0
C1967 C 0.48817 0.00928 0.15339 0.0
H1968 H 0.51008 0.02952 0.17761 0.0
H1969 H 0.52487 0.01995 0.1532 0.0
H1970 H 0.4902 0.01421 0.17527 0.0
H1971 H 0.4987 0.01002 0.18353 0.0
H1972 H 0.49616 0.0224 0.18289 0.0
H1973 H 0.52225 1.00167 0.14722 0.0
H1974 H 0.51329 0.99414 0.15205 0.0
H1975 H 0.51013 0.0059 0.14385 0.0
H1976 H 0.49863 0.97683 0.17452 0.0
H1977 H 0.47878 0.99021 0.15627 0.0
H1978 H 0.51192 0.99638 0.18023 0.0
H1979 H 0.51772 0.99159 0.17015 0.0
H1980 H 0.51287 0.98381 0.1789 0.0
H1981 H 0.48621 0.01518 0.15809 0.0
H1982 H 0.48202 0.00754 0.1489 0.0
H1983 H 0.49398 0.01176 0.14883 0.0
C1984 C 0.98071 0.49806 0.84233 0.0
C1985 C 0.98204 0.48835 0.84323 0.0
C1986 C 0.98832 0.50434 0.8428 0.0
C1987 C 0.99753 0.50086 0.84435 0.0
C1988 C 0.99885 0.49107 0.84574 0.0
C1989 C 0.99111 0.48493 0.84504 0.0
C1990 C 0.98653 0.51464 0.84101 0.0
C1991 C 0.01111 0.48707 0.84787 0.0
C1992 C 0.02077 0.51429 0.83377 0.0
C1993 C 0.02454 0.51903 0.84155 0.0
C1994 C 0.01287 0.50845 0.83461 0.0
C1995 C 0.00853 0.50726 0.84348 0.0
C1996 C 0.01224 0.51207 0.85139 0.0
C1997 C 0.02023 0.51786 0.85035 0.0
C1998 C 0.00929 0.50339 0.826 0.0
C1999 C 0.00768 0.51118 0.86092 0.0
H2000 H 0.97374 0.50071 0.84075 0.0
H2001 H 0.99216 0.47742 0.84577 0.0
H2002 H 0.99088 0.51912 0.84567 0.0
H2003 H 0.98846 0.51631 0.83365 0.0
H2004 H 0.97902 0.51649 0.84204 0.0
H2005 H 0.01122 0.47928 0.8474 0.0
H2006 H 0.01649 0.48994 0.84302 0.0
H2007 H 0.01317 0.48913 0.85511 0.0
H2008 H 0.02412 0.51503 0.82697 0.0
H2009 H 0.02302 0.52158 0.85638 0.0
H2010 H 0.99904 0.50486 0.82497 0.0
H2011 H 0.01007 0.49569 0.82698 0.0
H2012 H 0.01313 0.50545 0.81953 0.0
H2013 H 0.99788 0.51432 0.86069 0.0
H2014 H 0.0118 0.51475 0.8665 0.0
H2015 H 0.00684 0.50366 0.86281 0.0
C2016 C 0.49464 0.02385 0.84887 0.0
C2017 C 0.48724 0.0237 0.84229 0.0
C2018 C 0.50049 0.01596 0.85026 0.0
C2019 C 0.49931 0.00785 0.8446 0.0
C2020 C 0.49162 0.00744 0.83833 0.0
C2021 C 0.48553 0.01518 0.83751 0.0
C2022 C 0.5082 0.01657 0.85751 0.0
C2023 C 0.49 0.99621 0.83221 0.0
C2024 C 0.52071 0.99064 0.8376 0.0
C2025 C 0.51914 0.98201 0.8422 0.0
C2026 C 0.51444 0.99822 0.83847 0.0
C2027 C 0.50657 0.99746 0.84449 0.0
C2028 C 0.50532 0.98912 0.84978 0.0
C2029 C 0.51151 0.98147 0.84849 0.0
C2030 C 0.51596 0.00961 0.83257 0.0
C2031 C 0.49744 0.98827 0.85682 0.0
H2032 H 0.49616 0.0302 0.85276 0.0
H2033 H 0.47954 0.01453 0.83289 0.0
H2034 H 0.51023 0.00956 0.86023 0.0
H2035 H 0.51449 0.01986 0.85428 0.0
H2036 H 0.50599 0.02104 0.86352 0.0
H2037 H 0.4841 0.99724 0.82721 0.0
H2038 H 0.49644 0.99453 0.82813 0.0
H2039 H 0.48841 0.99004 0.83669 0.0
H2040 H 0.52678 0.99148 0.8331 0.0
H2041 H 0.51014 0.97499 0.85222 0.0
H2042 H 0.51622 0.01593 0.83712 0.0
H2043 H 0.51 0.01052 0.82763 0.0
H2044 H 0.52257 0.00925 0.82843 0.0
H2045 H 0.499 0.99287 0.86293 0.0
H2046 H 0.49658 0.98095 0.8594 0.0
H2047 H 0.49068 0.99067 0.85378 0.0
C2048 C 0.16028 0.98994 0.52104 0.0
C2049 C 0.16698 0.98288 0.51954 0.0
C2050 C 0.15997 0.99796 0.51519 0.0
C2051 C 0.16633 0.99876 0.50755 0.0
C2052 C 0.17308 0.99159 0.50607 0.0
C2053 C 0.17337 0.98381 0.51213 0.0
C2054 C 0.1528 0.00825 0.51725 0.0
C2055 C 0.18021 0.99224 0.49825 0.0
C2056 C 0.16054 0.01771 0.48691 0.0
C2057 C 0.16647 0.02536 0.48869 0.0
C2058 C 0.1603 0.00994 0.49308 0.0
C2059 C 0.16611 0.00987 0.5012 0.0
C2060 C 0.17208 0.01765 0.50297 0.0
C2061 C 0.17216 0.02527 0.49671 0.0
C2062 C 0.15401 0.99904 0.49085 0.0
C2063 C 0.17832 0.01816 0.51153 0.0
H2064 H 0.15544 0.9893 0.52688 0.0
H2065 H 0.17866 0.97842 0.51111 0.0
H2066 H 0.15581 0.01535 0.51609 0.0
H2067 H 0.14672 0.00742 0.51244 0.0
H2068 H 0.15017 0.00783 0.52458 0.0
H2069 H 0.18416 0.98558 0.4973 0.0
H2070 H 0.17671 0.99406 0.49152 0.0
H2071 H 0.1853 0.99792 0.49988 0.0
H2072 H 0.15624 0.01773 0.48063 0.0
H2073 H 0.17679 0.03118 0.49803 0.0
H2074 H 0.14853 0.99842 0.49635 0.0
H2075 H 0.1581 0.99239 0.49087 0.0
H2076 H 0.1505 0.99981 0.48392 0.0
H2077 H 0.17446 0.02187 0.51721 0.0
H2078 H 0.1848 0.02224 0.51003 0.0
H2079 H 0.1804 0.01115 0.5142 0.0
C2080 C 0.02611 0.16097 0.51023 0.0
C2081 C 0.02485 0.16414 0.51949 0.0
C2082 C 0.01845 0.16007 0.50401 0.0
C2083 C 0.00926 0.16242 0.50709 0.0
C2084 C 0.00787 0.16503 0.5166 0.0
C2085 C 0.01565 0.16585 0.52266 0.0
C2086 C 0.02039 0.15723 0.49399 0.0
C2087 C 0.9955 0.16716 0.52033 0.0
C2088 C 0.98867 0.17313 0.49037 0.0
C2089 C 0.98266 0.16553 0.48835 0.0
C2090 C 0.99666 0.17205 0.49606 0.0
C2091 C 0.99863 0.16324 0.50023 0.0
C2092 C 0.9927 0.1555 0.49821 0.0
C2093 C 0.98488 0.1567 0.4922 0.0
C2094 C 0.00553 0.18048 0.49785 0.0
C2095 C 0.9946 0.14594 0.50237 0.0
H2096 H 0.03315 0.15967 0.50764 0.0
H2097 H 0.01453 0.16805 0.52986 0.0
H2098 H 0.01442 0.15334 0.49085 0.0
H2099 H 0.02157 0.16366 0.48974 0.0
H2100 H 0.0268 0.15281 0.4935 0.0
H2101 H 0.99565 0.16968 0.52772 0.0
H2102 H 0.99201 0.17258 0.51595 0.0
H2103 H 0.99113 0.16071 0.51997 0.0
H2104 H 0.98704 0.18006 0.48772 0.0
H2105 H 0.98051 0.15069 0.49057 0.0
H2106 H 0.013 0.17865 0.49655 0.0
H2107 H 1.00224 0.18265 0.50531 0.0
H2108 H 1.00097 0.18656 0.49333 0.0
H2109 H 1.00102 0.14293 0.49913 0.0
H2110 H 0.98869 0.14098 0.50117 0.0
H2111 H 0.99589 0.1465 0.51004 0.0
C2112 C 0.83384 0.98417 0.4949 0.0
C2113 C 0.84135 0.98163 0.48905 0.0
C2114 C 0.83447 0.99187 0.50103 0.0
C2115 C 0.84276 0.99737 0.50121 0.0
C2116 C 0.8504 0.99486 0.49529 0.0
C2117 C 0.84966 0.98692 0.48938 0.0
C2118 C 0.82616 0.99418 0.5072 0.0
C2119 C 0.85943 1.00042 0.49522 0.0
C2120 C 0.83956 0.02521 0.50994 0.0
C2121 C 0.84229 0.02449 0.51935 0.0
C2122 C 0.83987 0.01738 0.50392 0.0
C2123 C 0.84314 0.00862 0.50736 0.0
C2124 C 0.84623 0.00795 0.51681 0.0
C2125 C 0.84561 0.01586 0.52275 0.0
C2126 C 0.83651 0.01844 0.49392 0.0
C2127 C 0.84996 0.9961 0.52072 0.0
H2128 H 0.82743 0.98006 0.49469 0.0
H2129 H 0.85548 0.98498 0.48486 0.0
H2130 H 0.82843 0.99507 0.5146 0.0
H2131 H 0.823 1.00093 0.50489 0.0
H2132 H 0.82065 0.98866 0.50693 0.0
H2133 H 0.86308 0.9998 0.48835 0.0
H2134 H 0.85819 0.01069 0.49673 0.0
H2135 H 0.86418 0.99759 0.50072 0.0
H2136 H 0.83685 0.03185 0.50736 0.0
H2137 H 0.84762 0.01528 0.53008 0.0
H2138 H 0.83044 0.01371 0.49265 0.0
H2139 H 0.84218 0.01633 0.489 0.0
H2140 H 0.83434 0.02576 0.49228 0.0
H2141 H 0.84402 0.99116 0.52176 0.0
H2142 H 0.85357 0.9971 0.52757 0.0
H2143 H 0.85494 0.99278 0.51572 0.0
C2144 C 0.02682 0.84372 0.49793 0.0
C2145 C 0.02539 0.84332 0.48819 0.0
C2146 C 0.0192 0.84429 0.50421 0.0
C2147 C 0.00989 0.84459 0.50068 0.0
C2148 C 0.00844 0.84472 0.49082 0.0
C2149 C 0.01619 0.84398 0.4847 0.0
C2150 C 0.02117 0.84389 0.51461 0.0
C2151 C 0.99601 0.8455 0.48672 0.0
C2152 C 0.98754 0.83364 0.51509 0.0
C2153 C 0.98305 0.8415 0.51903 0.0
C2154 C 0.99545 0.83458 0.50928 0.0
C2155 C 0.999 0.84364 0.5072 0.0
C2156 C 0.99456 0.85164 0.51117 0.0
C2157 C 0.98663 0.85048 0.51704 0.0
C2158 C 0.99988 0.82585 0.50519 0.0
C2159 C 0.99825 0.86139 0.50931 0.0
H2160 H 0.0339 0.84307 0.50067 0.0
H2161 H 0.01505 0.84374 0.47718 0.0
H2162 H 0.01629 0.84846 0.51861 0.0
H2163 H 0.02016 0.83657 0.5171 0.0
H2164 H 0.0285 0.84602 0.51624 0.0
H2165 H 0.99596 0.84444 0.47899 0.0
H2166 H 0.99121 0.84029 0.48998 0.0
H2167 H 0.99315 0.85259 0.48827 0.0
H2168 H 0.98476 0.82668 0.51642 0.0
H2169 H 0.9833 0.85659 0.52014 0.0
H2170 H 0.0102 0.82575 0.50667 0.0
H2171 H 0.99899 0.82586 0.49744 0.0
H2172 H 0.99671 0.8193 0.50803 0.0
H2173 H 0.00788 0.86222 0.51271 0.0
H2174 H 0.99348 0.86692 0.51207 0.0
H2175 H 0.99925 0.86251 0.50166 0.0
C2176 C 0.52266 0.16459 0.99156 0.0
C2177 C 0.51928 0.16622 0.98244 0.0
C2178 C 0.51648 0.16431 0.99931 0.0
C2179 C 0.50674 0.16586 0.99792 0.0
C2180 C 0.50333 0.16751 0.9887 0.0
C2181 C 0.50963 0.16758 0.98109 0.0
C2182 C 0.52047 0.16266 0.01162 0.0
C2183 C 0.49313 0.16974 0.98691 0.0
C2184 C 0.48971 0.159 0.02005 0.0
C2185 C 0.48815 0.1676 0.0246 0.0
C2186 C 0.49562 0.15843 0.01211 0.0
C2187 C 0.50025 0.16661 0.00878 0.0
C2188 C 0.49861 0.17531 0.01333 0.0
C2189 C 0.49261 0.17568 0.02115 0.0
C2190 C 0.49696 0.14907 0.00731 0.0
C2191 C 0.50341 0.18428 0.01029 0.0
H2192 H 0.53014 0.16363 0.99263 0.0
H2193 H 0.50704 0.16912 0.97409 0.0
H2194 H 0.51783 0.16794 0.01673 0.0
H2195 H 0.51807 0.15565 0.01405 0.0
H2196 H 0.52828 0.16278 0.01172 0.0
H2197 H 0.4913 0.16918 0.97934 0.0
H2198 H 0.48847 0.16499 0.99098 0.0
H2199 H 0.49168 0.17704 0.98925 0.0
H2200 H 0.48624 0.15274 0.02263 0.0
H2201 H 0.49158 0.18234 0.02471 0.0
H2202 H 0.50421 0.14651 0.00861 0.0
H2203 H 0.49601 0.14957 0.99696 0.0
H2204 H 0.49192 0.1437 0.00991 0.0
H2205 H 0.50997 0.18512 0.01442 0.0
H2206 H 0.49889 0.19048 0.01173 0.0
H2207 H 0.5052 0.18406 1.0001 0.0
C2208 C 0.48501 0.83943 0.99159 0.0
C2209 C 0.48817 0.84068 0.98232 0.0
C2210 C 0.49124 0.83988 0.99926 0.0
C2211 C 0.50091 0.84164 0.99768 0.0
C2212 C 0.50409 0.84324 0.98838 0.0
C2213 C 0.4977 0.84275 0.98084 0.0
C2214 C 0.48758 0.83851 0.0117 0.0
C2215 C 0.51435 0.84482 0.98624 0.0
C2216 C 0.51602 0.84865 0.02157 0.0
C2217 C 0.51963 0.83991 0.02443 0.0
C2218 C 0.51015 0.84945 0.01361 0.0
C2219 C 0.50783 0.84133 0.00832 0.0
C2220 C 0.51175 0.83256 0.01094 0.0
C2221 C 0.51745 0.83195 0.01898 0.0
C2222 C 0.50628 0.85896 0.01099 0.0
C2223 C 0.50968 0.82364 0.00558 0.0
H2224 H 0.47765 0.83793 0.99285 0.0
H2225 H 0.50028 0.84354 0.97372 0.0
H2226 H 0.49156 0.8328 0.01521 0.0
H2227 H 0.48856 0.84498 0.01594 0.0
H2228 H 0.48 0.83664 0.01172 0.0
H2229 H 0.51533 0.84833 0.97934 0.0
H2230 H 0.5178 0.84911 0.99175 0.0
H2231 H 0.51796 0.83791 0.98598 0.0
H2232 H 0.51776 0.8549 0.02556 0.0
H2233 H 0.51996 0.82509 0.02113 0.0
H2234 H 0.49865 0.85917 0.01259 0.0
H2235 H 0.50703 0.86001 1.0007 0.0
H2236 H 0.50979 0.86474 0.01488 0.0
H2237 H 0.50357 0.82008 0.00888 0.0
H2238 H 0.51574 0.81873 0.0059 0.0
H2239 H 0.50791 0.82473 0.99546 0.0
C2240 C 0.17124 0.51055 0.02509 0.0
C2241 C 0.16533 0.51838 0.02577 0.0
C2242 C 0.1707 0.50436 0.01741 0.0
C2243 C 0.16423 0.50616 0.01005 0.0
C2244 C 0.15815 0.51406 0.01075 0.0
C2245 C 0.15872 0.52004 0.01865 0.0
C2246 C 0.17731 0.49607 0.01707 0.0
C2247 C 0.15095 0.51599 1.00056 0.0
C2248 C 0.17102 0.49607 0.98347 0.0
C2249 C 0.16543 0.48801 0.98281 0.0
C2250 C 0.17048 0.50205 0.99131 0.0
C2251 C 0.16425 0.49988 0.99877 0.0
C2252 C 0.15848 0.49178 0.99808 0.0
C2253 C 0.15915 0.48591 0.9901 0.0
C2254 C 0.17664 0.51067 0.99163 0.0
C2255 C 0.1519 0.48938 0.00854 0.0
H2256 H 0.1764 0.50933 0.03056 0.0
H2257 H 0.15417 0.52613 0.01916 0.0
H2258 H 0.17348 0.48959 0.01505 0.0
H2259 H 0.18278 0.49735 0.01167 0.0
H2260 H 0.18085 0.49486 0.02392 0.0
H2261 H 0.14879 0.52349 1.00072 0.0
H2262 H 0.15368 0.51433 0.99345 0.0
H2263 H 0.14461 0.51162 1.00175 0.0
H2264 H 0.17594 0.49762 0.97787 0.0
H2265 H 0.15494 0.47958 0.98965 0.0
H2266 H 0.18129 0.51041 0.99788 0.0
H2267 H 0.17219 0.51704 0.9923 0.0
H2268 H 0.18108 0.51138 0.98525 0.0
H2269 H 0.15601 0.48705 0.01474 0.0
H2270 H 0.14705 0.48363 0.00646 0.0
H2271 H 0.14768 0.49556 0.01073 0.0
C2272 C 0.84456 0.48504 0.01611 0.0
C2273 C 0.84074 0.48803 0.02468 0.0
C2274 C 0.84483 0.49111 0.00828 0.0
C2275 C 0.84113 0.50034 0.00904 0.0
C2276 C 0.83722 0.50331 0.01771 0.0
C2277 C 0.83711 0.49713 0.02541 0.0
C2278 C 0.84897 0.48739 0.99655 0.0
C2279 C 0.83274 0.51286 0.01876 0.0
C2280 C 0.84802 0.51858 0.98812 0.0
C2281 C 0.84006 0.51875 0.98232 0.0
C2282 C 0.84841 0.51262 0.99604 0.0
C2283 C 0.84077 0.50651 0.99804 0.0
C2284 C 0.83276 0.50667 0.99213 0.0
C2285 C 0.8325 0.51279 0.98441 0.0
C2286 C 0.85694 0.5129 1.00232 0.0
C2287 C 0.82447 0.50021 0.99364 0.0
H2288 H 0.84725 0.47793 0.01552 0.0
H2289 H 0.83391 0.49933 0.03197 0.0
H2290 H 0.84445 0.4893 0.99049 0.0
H2291 H 0.8559 0.49079 0.99547 0.0
H2292 H 0.84999 0.47966 0.99657 0.0
H2293 H 0.83135 0.51465 0.02623 0.0
H2294 H 0.83727 0.51839 0.01566 0.0
H2295 H 0.82595 0.51293 0.01492 0.0
H2296 H 0.85384 0.52325 0.98658 0.0
H2297 H 0.82637 0.51286 0.97989 0.0
H2298 H 0.86088 0.5062 1.00164 0.0
H2299 H 0.85487 0.51383 0.01243 0.0
H2300 H 0.86173 0.51879 1.00053 0.0
H2301 H 0.82555 0.49375 0.98941 0.0
H2302 H 0.81785 0.50355 0.99121 0.0
H2303 H 0.82359 0.49811 1.00109 0.0
C2304 C 0.52184 0.99206 0.6564 0.0
C2305 C 0.52257 0.98575 0.66405 0.0
C2306 C 0.51392 0.9979 0.65515 0.0
C2307 C 0.50651 0.99768 0.66175 0.0
C2308 C 0.50681 0.99101 0.66909 0.0
C2309 C 0.51467 0.98513 0.67007 0.0
C2310 C 0.51373 0.00729 0.64692 0.0
C2311 C 0.49885 0.99022 0.67609 0.0
C2312 C 0.49242 0.02236 0.66761 0.0
C2313 C 0.48351 0.02033 0.66382 0.0
C2314 C 0.49997 0.01607 0.66673 0.0
C2315 C 0.49879 0.00761 0.66164 0.0
C2316 C 0.49007 0.0058 0.65719 0.0
C2317 C 0.48253 0.01214 0.65837 0.0
C2318 C 0.50913 0.01828 0.67163 0.0
C2319 C 0.4887 0.99444 0.65123 0.0
H2320 H 0.52744 0.99273 0.65136 0.0
H2321 H 0.51445 0.9802 0.67578 0.0
H2322 H 0.50648 0.00904 0.64467 0.0
H2323 H 0.51731 0.01391 0.64898 0.0
H2324 H 0.51762 1.00158 0.64083 0.0
H2325 H 0.50023 0.98487 0.6816 0.0
H2326 H 0.49765 0.99709 0.67958 0.0
H2327 H 0.49227 0.9883 0.67237 0.0
H2328 H 0.49348 0.0288 0.67152 0.0
H2329 H 0.47577 0.01044 0.65531 0.0
H2330 H 0.51503 0.01792 0.66655 0.0
H2331 H 0.51048 0.01296 0.67716 0.0
H2332 H 0.5091 0.02534 0.67495 0.0
H2333 H 0.4925 0.99536 0.64448 0.0
H2334 H 0.48116 0.99318 0.64964 0.0
H2335 H 0.49162 0.98811 0.65471 0.0
C2336 C 0.02343 0.51451 0.66748 0.0
C2337 C 0.02057 0.52367 0.66511 0.0
C2338 C 0.01718 0.50686 0.66696 0.0
C2339 C 0.00784 0.5083 0.66384 0.0
C2340 C 0.00503 0.51743 0.661 0.0
C2341 C 0.0114 0.52498 0.6617 0.0
C2342 C 0.02052 0.49725 0.66999 0.0
C2343 C 0.99245 0.51946 0.65784 0.0
C2344 C 0.99087 0.48646 0.65741 0.0
C2345 C 0.98636 0.48435 0.66595 0.0
C2346 C 0.99682 0.49435 0.65653 0.0
C2347 C 0.99821 0.50041 0.66431 0.0
C2348 C 0.99332 0.49861 0.67277 0.0
C2349 C 0.98767 0.49056 0.67354 0.0
C2350 C 1.0018 0.49607 0.64733 0.0
C2351 C 0.99428 0.50489 0.68128 0.0
H2352 H 0.03054 0.51333 0.66995 0.0
H2353 H 0.00901 0.532 0.65999 0.0
H2354 H 0.0159 0.49445 0.6756 0.0
H2355 H 0.02011 0.49233 0.66395 0.0
H2356 H 0.02786 0.49735 0.67264 0.0
H2357 H 0.99216 0.5258 0.6533 0.0
H2358 H 0.98936 0.51345 0.65395 0.0
H2359 H 0.98804 0.52078 0.66413 0.0
H2360 H 0.98983 0.48192 0.65139 0.0
H2361 H 0.98451 0.48904 0.68029 0.0
H2362 H 0.01208 0.49462 0.64822 0.0
H2363 H 1.00108 0.50353 0.64519 0.0
H2364 H 0.99906 0.49153 0.64161 0.0
H2365 H 0.99994 0.5021 0.68586 0.0
H2366 H 0.98768 0.50496 0.68544 0.0
H2367 H 0.99606 0.51224 0.6794 0.0
C2368 C 0.48261 0.99578 0.34754 0.0
C2369 C 0.48388 0.98648 0.34449 0.0
C2370 C 0.49027 1.00199 0.34843 0.0
C2371 C 0.49947 0.99887 0.3462 0.0
C2372 C 0.50086 0.98933 0.34371 0.0
C2373 C 0.49308 0.98327 0.34289 0.0
C2374 C 0.48827 0.01477 0.35111 0.0
C2375 C 0.51058 0.98555 0.34173 0.0
C2376 C 0.5174 0.01819 0.33545 0.0
C2377 C 0.52334 0.02032 0.34307 0.0
C2378 C 0.50942 0.01248 0.33652 0.0
C2379 C 0.50739 0.00842 0.34536 0.0
C2380 C 0.51326 0.01055 0.35313 0.0
C2381 C 0.52107 0.01655 0.35192 0.0
C2382 C 0.5033 0.01057 0.32806 0.0
C2383 C 0.51128 0.0065 0.36272 0.0
H2384 H 0.47556 0.99839 0.34874 0.0
H2385 H 0.4942 0.97604 0.34076 0.0
H2386 H 0.49419 0.01794 0.35505 0.0
H2387 H 0.48719 0.01894 0.34461 0.0
H2388 H 0.48179 0.01534 0.35543 0.0
H2389 H 0.51045 0.97813 0.33929 0.0
H2390 H 0.51414 0.98987 0.3363 0.0
H2391 H 0.51489 0.98596 0.34822 0.0
H2392 H 0.51908 0.02078 0.3285 0.0
H2393 H 0.5254 0.01827 0.35794 0.0
H2394 H 0.49581 0.01185 0.3298 0.0
H2395 H 0.50404 1.00038 0.32598 0.0
H2396 H 0.50522 0.01502 0.32195 0.0
H2397 H 0.50482 0.00976 0.36562 0.0
H2398 H 0.51714 0.00779 0.36772 0.0
H2399 H 0.51007 0.99612 0.36225 0.0
C2400 C 0.01683 0.48856 0.334 0.0
C2401 C 0.01976 0.48342 0.34192 0.0
C2402 C 0.01089 0.49639 0.33482 0.0
C2403 C 0.00761 0.4992 0.34377 0.0
C2404 C 0.01053 0.4941 0.35183 0.0
C2405 C 0.01653 0.48626 0.35081 0.0
C2406 C 0.00813 0.50167 0.32603 0.0
C2407 C 0.00716 0.49665 0.36155 0.0
C2408 C 0.99588 0.5244 0.34513 0.0
C2409 C 0.98625 0.52322 0.34335 0.0
C2410 C 1.00197 0.51662 0.34568 0.0
C2411 C 0.99838 0.50741 0.34453 0.0
C2412 C 0.98858 0.50615 0.34328 0.0
C2413 C 0.98267 0.51405 0.34259 0.0
C2414 C 0.01501 0.5183 0.34712 0.0
C2415 C 0.98437 0.49647 0.34223 0.0
H2416 H 0.01907 0.48637 0.32707 0.0
H2417 H 0.01874 0.4824 0.35699 0.0
H2418 H 0.9977 0.50186 0.32533 0.0
H2419 H 0.01061 0.50904 0.32652 0.0
H2420 H 0.01112 0.49846 0.31957 0.0
H2421 H 0.01252 0.49485 0.36693 0.0
H2422 H 0.00542 0.50422 0.36222 0.0
H2423 H 0.99805 0.49254 0.36313 0.0
H2424 H 0.99874 0.53143 0.34563 0.0
H2425 H 0.97523 0.51305 0.34129 0.0
H2426 H 0.01891 0.51611 0.34073 0.0
H2427 H 0.01762 0.51397 0.35305 0.0
H2428 H 0.01662 0.52579 0.34858 0.0
H2429 H 0.98553 0.49393 0.33495 0.0
H2430 H 0.97668 0.49651 0.3436 0.0
H2431 H 0.98775 0.4914 0.3471 0.0
C2432 C 0.66934 0.52398 0.99576 0.0
C2433 C 0.66381 0.5244 0.98764 0.0
C2434 C 0.66881 0.5163 1.00194 0.0
C2435 C 0.66272 0.50869 0.99987 0.0
C2436 C 0.65701 0.50914 0.99169 0.0
C2437 C 0.65759 0.51702 0.98569 0.0
C2438 C 0.67513 0.51644 0.01315 0.0
C2439 C 0.65027 0.50132 0.98925 0.0
C2440 C 0.67015 0.48524 0.01262 0.0
C2441 C 0.6642 0.4843 0.02039 0.0
C2442 C 0.66958 0.49307 0.00665 0.0
C2443 C 0.66296 0.50028 0.00855 0.0
C2444 C 0.65685 0.49932 0.01637 0.0
C2445 C 0.65754 0.49133 0.02222 0.0
C2446 C 0.67602 0.49342 0.99567 0.0
C2447 C 0.64982 0.50689 0.01874 0.0
H2448 H 0.67424 0.52965 0.99719 0.0
H2449 H 0.65335 0.51732 0.97937 0.0
H2450 H 0.67112 0.51422 0.01945 0.0
H2451 H 0.68089 0.5113 0.01209 0.0
H2452 H 0.6783 0.52344 0.01454 0.0
H2453 H 0.64833 0.50145 0.98169 0.0
H2454 H 0.65324 0.49432 0.99094 0.0
H2455 H 0.64375 0.50221 0.99343 0.0
H2456 H 0.67534 0.47982 0.01127 0.0
H2457 H 0.65303 0.49068 0.02833 0.0
H2458 H 0.68038 0.49986 0.99612 0.0
H2459 H 0.67183 0.49389 0.98911 0.0
H2460 H 0.68076 0.48723 0.99517 0.0
H2461 H 0.65359 0.51324 0.02124 0.0
H2462 H 0.64482 0.50462 0.02429 0.0
H2463 H 0.64577 0.50893 0.0124 0.0
C2464 C 0.49066 0.65797 0.98576 0.0
C2465 C 0.4847 0.66581 0.98604 0.0
C2466 C 0.4987 0.65748 0.99155 0.0
C2467 C 0.50056 0.6648 0.99806 0.0
C2468 C 0.49449 0.6727 0.99835 0.0
C2469 C 0.48674 0.67316 0.99227 0.0
C2470 C 0.50512 0.64908 0.9907 0.0
C2471 C 0.49633 0.68099 0.00765 0.0
C2472 C 0.51579 0.66056 0.02241 0.0
C2473 C 0.52427 0.66484 0.01985 0.0
C2474 C 0.50813 0.66031 0.01613 0.0
C2475 C 0.50893 0.66461 0.00716 0.0
C2476 C 0.51747 0.6687 1.00196 0.0
C2477 C 0.5251 0.66892 0.01095 0.0
C2478 C 0.49912 0.65559 0.01911 0.0
C2479 C 0.51889 0.67328 0.9925 0.0
H2480 H 0.48912 0.6523 0.98092 0.0
H2481 H 0.48212 0.67921 0.99251 0.0
H2482 H 0.51259 0.65108 0.9917 0.0
H2483 H 0.50326 0.64389 0.99621 0.0
H2484 H 0.50438 0.64561 0.98375 0.0
H2485 H 0.4904 0.68607 0.00778 0.0
H2486 H 0.4975 0.67834 0.01489 0.0
H2487 H 0.50278 0.68478 0.00546 0.0
H2488 H 0.51514 0.65749 0.02935 0.0
H2489 H 0.53165 0.6723 0.00902 0.0
H2490 H 0.49767 0.64954 0.01442 0.0
H2491 H 0.49313 0.66055 0.01842 0.0
H2492 H 0.49942 0.65302 0.02647 0.0
H2493 H 0.5218 0.66799 0.98758 0.0
H2494 H 0.52401 0.67916 0.99298 0.0
H2495 H 0.51227 0.67603 0.98946 0.0
C2496 C 0.33507 0.48549 0.99362 0.0
C2497 C 0.34259 0.48292 0.9878 0.0
C2498 C 0.33569 0.4932 0.99973 0.0
C2499 C 0.34399 0.4987 0.99993 0.0
C2500 C 0.35164 0.49616 0.99404 0.0
C2501 C 0.3509 0.4882 0.98814 0.0
C2502 C 0.32744 0.49577 0.00852 0.0
C2503 C 0.36068 0.5017 0.99398 0.0
C2504 C 0.34087 0.52408 0.01129 0.0
C2505 C 0.3435 0.52337 0.02073 0.0
C2506 C 0.34124 0.51626 0.00527 0.0
C2507 C 0.34448 0.50749 0.00871 0.0
C2508 C 0.3475 0.50682 0.01819 0.0
C2509 C 0.34681 0.51473 0.02414 0.0
C2510 C 0.33788 0.51709 0.99261 0.0
C2511 C 0.35118 0.49769 0.02212 0.0
H2512 H 0.32865 0.48139 0.99341 0.0
H2513 H 0.35673 0.48625 0.98365 0.0
H2514 H 0.32969 0.49662 0.01593 0.0
H2515 H 0.32433 0.50255 0.00623 0.0
H2516 H 0.32191 0.49028 0.00821 0.0
H2517 H 0.36433 0.50108 0.98711 0.0
H2518 H 0.35951 0.50926 0.9955 0.0
H2519 H 0.36542 0.49885 0.99948 0.0
H2520 H 0.33817 0.53072 0.0087 0.0
H2521 H 0.34876 0.51414 0.03148 0.0
H2522 H 0.33181 0.51237 0.9913 0.0
H2523 H 0.34358 0.51496 0.98772 0.0
H2524 H 0.33574 0.52441 0.99095 0.0
H2525 H 0.34523 0.49275 0.02316 0.0
H2526 H 0.35478 0.4987 0.02897 0.0
H2527 H 0.35616 0.49436 0.01714 0.0
C2528 C 0.48312 0.3488 0.01226 0.0
C2529 C 0.48411 0.34445 0.02107 0.0
C2530 C 0.49085 0.34988 0.00615 0.0
C2531 C 0.4998 0.34641 0.00881 0.0
C2532 C 0.50097 0.34259 0.01793 0.0
C2533 C 0.49317 0.34173 0.02394 0.0
C2534 C 0.48909 0.35391 0.99396 0.0
C2535 C 0.51046 0.33916 0.02126 0.0
C2536 C 0.51663 0.33568 0.98831 0.0
C2537 C 0.52337 0.34284 0.98703 0.0
C2538 C 0.50871 0.33695 0.99406 0.0
C2539 C 0.50758 0.3454 0.99916 0.0
C2540 C 0.51425 0.3527 0.99795 0.0
C2541 C 0.52193 0.35141 0.99178 0.0
C2542 C 0.50166 0.32905 0.99489 0.0
C2543 C 0.51334 0.36212 0.00579 0.0
H2544 H 0.47621 0.35094 0.00989 0.0
H2545 H 0.49416 0.33868 0.03085 0.0
H2546 H 0.49544 0.35743 0.99115 0.0
H2547 H 0.48706 0.34825 0.98899 0.0
H2548 H 0.48326 0.35909 0.9942 0.0
H2549 H 0.51014 0.33598 0.02837 0.0
H2550 H 0.51332 0.33386 0.01631 0.0
H2551 H 0.51546 0.34514 0.02141 0.0
H2552 H 0.5176 0.3289 0.98504 0.0
H2553 H 0.52683 0.35714 0.99076 0.0
H2554 H 0.49442 0.33177 0.99386 0.0
H2555 H 0.50203 0.32596 1.00204 0.0
H2556 H 0.50294 0.32338 0.98968 0.0
H2557 H 0.50731 0.36592 1.00016 0.0
H2558 H 0.51979 0.36648 0.00526 0.0
H2559 H 0.51178 0.36087 0.01332 0.0
C2560 C 0.0219 0.67024 0.49217 0.0
C2561 C 0.02039 0.66538 0.48366 0.0
C2562 C 0.01556 0.66963 0.49971 0.0
C2563 C 0.00778 0.66347 0.49915 0.0
C2564 C 0.0066 0.65792 0.49095 0.0
C2565 C 0.01275 0.6591 0.48326 0.0
C2566 C 0.01705 0.67584 0.5082 0.0
C2567 C 0.99592 0.65106 0.49002 0.0
C2568 C 0.99378 0.6588 0.52302 0.0
C2569 C 0.98607 0.66501 0.52296 0.0
C2570 C 0.99962 0.65772 0.51508 0.0
C2571 C 0.99804 0.66327 0.50697 0.0
C2572 C 0.99005 0.66918 0.50665 0.0
C2573 C 0.9841 0.66981 0.51451 0.0
C2574 C 0.01031 0.65081 0.51548 0.0
C2575 C 0.98803 0.67537 0.49827 0.0
H2576 H 0.02798 0.67473 0.49296 0.0
H2577 H 0.01131 0.65527 0.47686 0.0
H2578 H 0.0106 0.67999 0.50964 0.0
H2579 H 0.01845 0.67145 0.51447 0.0
H2580 H 0.02301 0.68079 0.50725 0.0
H2581 H 0.99793 0.64504 0.48547 0.0
H2582 H 0.99358 0.64829 0.49692 0.0
H2583 H 0.98987 0.65466 0.48665 0.0
H2584 H 0.99551 0.65497 0.52934 0.0
H2585 H 0.97797 0.67428 0.51401 0.0
H2586 H 0.01704 0.65467 0.51625 0.0
H2587 H 0.0107 0.6467 0.50886 0.0
H2588 H 0.00961 0.64586 0.52147 0.0
H2589 H 0.99216 0.68195 0.49895 0.0
H2590 H 0.98047 0.67729 0.49788 0.0
H2591 H 0.99005 0.67196 0.49156 0.0
C2592 C 0.01571 0.35077 0.52169 0.0
C2593 C 0.02156 0.34279 0.52259 0.0
C2594 C 0.00978 0.35207 0.51382 0.0
C2595 C 0.00966 0.34532 0.50652 0.0
C2596 C 0.01596 0.33767 0.50697 0.0
C2597 C 0.02166 0.33644 0.51494 0.0
C2598 C 1.00071 0.36052 0.5136 0.0
C2599 C 0.01654 0.33059 0.49906 0.0
C2600 C 0.98496 0.33984 0.49238 0.0
C2601 C 0.98711 0.34354 0.48346 0.0
C2602 C 0.99121 0.3407 0.49999 0.0
C2603 C 0.99978 0.34561 0.49883 0.0
C2604 C 1.00174 0.34992 0.49007 0.0
C2605 C 0.99541 0.34882 0.48251 0.0
C2606 C 0.98882 0.33597 0.50918 0.0
C2607 C 0.01321 0.35563 0.48862 0.0
H2608 H 0.01553 0.35606 0.52711 0.0
H2609 H 0.02592 0.3302 0.51505 0.0
H2610 H 0.99902 0.36275 0.50633 0.0
H2611 H 0.99403 0.35873 0.51721 0.0
H2612 H 0.00658 0.36656 0.51738 0.0
H2613 H 0.02179 0.32498 0.50043 0.0
H2614 H 0.00958 0.32725 0.49794 0.0
H2615 H 0.01848 0.33421 0.49244 0.0
H2616 H 0.97845 0.33605 0.49341 0.0
H2617 H 0.99721 0.35179 0.47574 0.0
H2618 H 0.9893 0.3411 0.51503 0.0
H2619 H 0.99396 0.33029 0.51062 0.0
H2620 H 0.98165 0.33287 0.50915 0.0
H2621 H 0.0124 0.3625 0.49223 0.0
H2622 H 0.01461 0.35699 0.48106 0.0
H2623 H 0.01943 0.35207 0.49171 0.0
C2624 C 0.67138 0.0127 0.52244 0.0
C2625 C 0.66438 0.0194 0.52419 0.0
C2626 C 0.67079 0.00655 0.51475 0.0
C2627 C 0.66312 0.00723 0.50844 0.0
C2628 C 0.65598 0.014 0.5102 0.0
C2629 C 0.65663 0.01992 0.51814 0.0
C2630 C 0.67861 0.99677 0.51328 0.0
C2631 C 0.6476 0.01499 0.50377 0.0
C2632 C 0.66798 0.99554 0.48366 0.0
C2633 C 0.66403 0.98654 0.48389 0.0
C2634 C 0.66754 1.00152 0.49151 0.0
C2635 C 0.66297 0.99847 0.49982 0.0
C2636 C 0.65874 0.98944 0.49999 0.0
C2637 C 0.65942 0.98352 0.49206 0.0
C2638 C 0.67205 0.01378 0.49096 0.0
C2639 C 0.65375 0.98593 0.50866 0.0
H2640 H 0.67739 0.01232 0.52711 0.0
H2641 H 0.65123 0.02514 0.51945 0.0
H2642 H 0.67564 0.98968 0.51195 0.0
H2643 H 0.68279 0.99877 0.50701 0.0
H2644 H 0.68341 0.99634 0.51942 0.0
H2645 H 0.64456 0.02217 0.50415 0.0
H2646 H 0.6494 0.01344 0.49635 0.0
H2647 H 0.6421 0.00993 0.50601 0.0
H2648 H 0.67166 0.9978 0.47739 0.0
H2649 H 0.65648 0.97651 0.49227 0.0
H2650 H 0.67764 0.01438 0.49637 0.0
H2651 H 0.66676 0.01932 0.49245 0.0
H2652 H 0.67522 0.01516 0.48396 0.0
H2653 H 0.659 0.98434 0.51419 0.0
H2654 H 0.64961 0.97947 0.50723 0.0
H2655 H 0.64897 0.99141 0.51147 0.0
C2656 C 0.34169 0.9969 0.52508 0.0
C2657 C 0.34437 0.98748 0.52416 0.0
C2658 C 0.34202 0.00582 0.5174 0.0
C2659 C 0.34526 0.99985 0.50853 0.0
C2660 C 0.3483 0.99038 0.50767 0.0
C2661 C 0.34773 0.98428 0.51547 0.0
C2662 C 0.3385 0.01573 0.5187 0.0
C2663 C 0.35216 0.98667 0.4985 0.0
C2664 C 0.3353 0.01471 0.48682 0.0
C2665 C 0.34274 0.0205 0.48397 0.0
C2666 C 0.33608 0.00881 0.49469 0.0
C2667 C 0.34449 0.00876 0.50003 0.0
C2668 C 0.35204 0.01464 0.49724 0.0
C2669 C 0.35111 0.02039 0.48919 0.0
C2670 C 0.32797 0.99982 0.49723 0.0
C2671 C 0.36101 0.01501 0.50287 0.0
H2672 H 0.33894 0.99932 0.53176 0.0
H2673 H 0.3498 0.97698 0.51475 0.0
H2674 H 0.34313 0.02084 0.51507 0.0
H2675 H 0.33138 0.01636 0.51558 0.0
H2676 H 0.33804 0.01769 0.52624 0.0
H2677 H 0.35252 0.97887 0.49843 0.0
H2678 H 0.34784 0.98903 0.49246 0.0
H2679 H 0.35937 0.98946 0.49748 0.0
H2680 H 0.32884 0.0147 0.48277 0.0
H2681 H 0.35685 0.02493 0.48708 0.0
H2682 H 0.3257 1.00121 0.50455 0.0
H2683 H 0.3302 0.99236 0.49684 0.0
H2684 H 0.32185 1.00084 0.49249 0.0
H2685 H 0.35956 0.0182 0.50983 0.0
H2686 H 0.36655 0.0192 0.49932 0.0
H2687 H 0.36372 0.00781 0.50413 0.0
C2688 C 0.06892 0.435 0.23402 0.0
C2689 C 0.07766 0.43692 0.22987 0.0
C2690 C 0.06818 0.43245 0.24354 0.0
C2691 C 0.07638 0.43169 0.24913 0.0
C2692 C 0.08528 0.43277 0.24482 0.0
C2693 C 0.08582 0.43551 0.23533 0.0
C2694 C 0.05853 0.43102 0.2477 0.0
C2695 C 0.09424 0.43102 0.25023 0.0
C2696 C 0.07265 0.43859 0.27469 0.0
C2697 C 0.07057 0.42994 0.27896 0.0
C2698 C 0.07502 0.43916 0.2651 0.0
C2699 C 0.07549 0.43088 0.25959 0.0
C2700 C 0.0742 0.42206 0.264 0.0
C2701 C 0.07156 0.4217 0.27353 0.0
C2702 C 0.07676 0.4487 0.2608 0.0
C2703 C 0.0752 0.41295 0.25866 0.0
H2704 H 0.06256 0.43561 0.22988 0.0
H2705 H 0.09267 0.43683 0.23231 0.0
H2706 H 0.0584 0.42478 0.25235 0.0
H2707 H 0.05667 0.43725 0.25202 0.0
H2708 H 0.05308 0.43012 0.24219 0.0
H2709 H 0.10058 0.43319 0.24623 0.0
H2710 H 0.09416 0.43478 0.25706 0.0
H2711 H 0.09481 0.4234 0.25179 0.0
H2712 H 0.07232 0.44498 0.2788 0.0
H2713 H 0.07 0.41492 0.27658 0.0
H2714 H 0.0713 0.45018 0.25543 0.0
H2715 H 0.08367 0.44879 0.2572 0.0
H2716 H 0.07666 0.45442 0.26611 0.0
H2717 H 0.06819 0.41072 0.25608 0.0
H2718 H 0.07791 0.4073 0.26331 0.0
H2719 H 0.07997 0.41363 0.25253 0.0
C2720 C 0.5832 0.06672 0.27239 0.0
C2721 C 0.57635 0.06975 0.27882 0.0
C2722 C 0.58246 0.06879 0.26275 0.0
C2723 C 0.57478 0.07422 0.25945 0.0
C2724 C 0.56827 0.07791 0.26604 0.0
C2725 C 0.56902 0.07548 0.2756 0.0
C2726 C 0.58981 0.06499 0.25612 0.0
C2727 C 0.5602 0.08406 0.26296 0.0
C2728 C 0.57446 0.08285 0.23398 0.0
C2729 C 0.56826 0.0764 0.22968 0.0
C2730 C 0.57666 0.08229 0.24362 0.0
C2731 C 0.57282 0.07495 0.24913 0.0
C2732 C 0.56687 0.06825 0.2448 0.0
C2733 C 0.56458 0.06912 0.23523 0.0
C2734 C 0.58294 0.08966 0.24795 0.0
C2735 C 0.56299 0.06002 0.25026 0.0
H2736 H 0.58897 0.0624 0.27485 0.0
H2737 H 0.56383 0.07803 0.28056 0.0
H2738 H 0.58653 0.06192 0.24974 0.0
H2739 H 0.59446 0.0708 0.25383 0.0
H2740 H 0.59426 0.05953 0.25949 0.0
H2741 H 0.55736 0.08826 0.26889 0.0
H2742 H 0.56238 0.08893 0.25727 0.0
H2743 H 0.55447 0.07955 0.26018 0.0
H2744 H 0.57762 0.08838 0.22983 0.0
H2745 H 0.5597 0.06414 0.23219 0.0
H2746 H 0.58928 0.0863 0.25099 0.0
H2747 H 0.5792 0.09324 0.25378 0.0
H2748 H 0.58522 0.09503 0.24277 0.0
H2749 H 0.56885 0.05521 0.25211 0.0
H2750 H 0.55768 0.056 0.2462 0.0
H2751 H 0.55973 0.0624 0.25693 0.0
C2752 C 0.92236 0.56627 0.23629 0.0
C2753 C 0.92961 0.56854 0.22999 0.0
C2754 C 0.92309 0.56832 0.24593 0.0
C2755 C 0.93123 0.57291 0.24937 0.0
C2756 C 0.93825 0.57582 0.24293 0.0
C2757 C 0.93744 0.57348 0.23336 0.0
C2758 C 0.9152 0.56542 0.2524 0.0
C2759 C 0.9469 0.58103 0.24619 0.0
C2760 C 0.93209 0.58204 0.27464 0.0
C2761 C 0.93765 0.57517 0.27918 0.0
C2762 C 0.92993 0.58146 0.26499 0.0
C2763 C 0.933 0.5736 0.25973 0.0
C2764 C 0.93809 0.56639 0.26431 0.0
C2765 C 0.9405 0.56734 0.27385 0.0
C2766 C 0.92455 0.58936 0.26039 0.0
C2767 C 0.94095 0.55757 0.25913 0.0
H2768 H 0.91623 0.56254 0.23374 0.0
H2769 H 0.94296 0.57547 0.22852 0.0
H2770 H 0.91798 0.56204 0.25886 0.0
H2771 H 0.9112 0.57174 0.25458 0.0
H2772 H 0.91024 0.56049 0.24894 0.0
H2773 H 0.95036 0.58481 0.24031 0.0
H2774 H 0.94515 0.58618 0.25178 0.0
H2775 H 0.95199 0.57592 0.24915 0.0
H2776 H 0.92942 0.58797 0.27856 0.0
H2777 H 0.94483 0.56195 0.27701 0.0
H2778 H 0.91795 0.58663 0.25727 0.0
H2779 H 0.92876 0.59239 0.25457 0.0
H2780 H 0.92276 0.59506 0.26541 0.0
H2781 H 0.93454 0.5535 0.25732 0.0
H2782 H 0.94566 0.55302 0.26338 0.0
H2783 H 0.94456 0.55933 0.25245 0.0
C2784 C 0.43052 0.92587 0.23328 0.0
C2785 C 0.43932 0.92899 0.23006 0.0
C2786 C 0.4282 0.92614 0.24292 0.0
C2787 C 0.43483 0.92966 0.24948 0.0
C2788 C 0.44387 0.93236 0.24628 0.0
C2789 C 0.44597 0.93202 0.23666 0.0
C2790 C 0.41863 0.92282 0.24602 0.0
C2791 C 0.45143 0.93548 0.25305 0.0
C2792 C 0.42809 0.9426 0.27181 0.0
C2793 C 0.43099 0.93631 0.27878 0.0
C2794 C 0.42866 0.94023 0.26225 0.0
C2795 C 0.43227 0.93133 0.25956 0.0
C2796 C 0.43468 0.92473 0.26663 0.0
C2797 C 0.43401 0.9273 0.27618 0.0
C2798 C 0.42577 0.9474 0.25499 0.0
C2799 C 0.43792 0.91494 0.26416 0.0
H2800 H 0.42538 0.92337 0.22825 0.0
H2801 H 0.45292 0.93406 0.23428 0.0
H2802 H 0.41913 0.91869 0.25262 0.0
H2803 H 0.41407 0.92898 0.24744 0.0
H2804 H 0.41517 0.91843 0.24056 0.0
H2805 H 0.45749 0.93873 0.24937 0.0
H2806 H 0.44864 0.9406 0.25822 0.0
H2807 H 0.45401 0.92927 0.257 0.0
H2808 H 0.42553 0.94948 0.27387 0.0
H2809 H 0.43596 0.92234 0.28162 0.0
H2810 H 0.42031 0.94439 0.25032 0.0
H2811 H 0.43189 0.94927 0.25054 0.0
H2812 H 0.42295 0.95392 0.25823 0.0
H2813 H 0.43176 0.91073 0.2619 0.0
H2814 H 0.44123 0.91134 0.27024 0.0
H2815 H 0.44299 0.91503 0.25824 0.0
C2816 C 0.06584 0.56893 0.73486 0.0
C2817 C 0.07096 0.57473 0.72876 0.0
C2818 C 0.06822 0.5681 0.7444 0.0
C2819 C 0.07581 0.57338 0.74811 0.0
C2820 C 0.08104 0.57928 0.74203 0.0
C2821 C 0.07863 0.5798 0.73243 0.0
C2822 C 0.06239 0.56172 0.75056 0.0
C2823 C 0.08925 0.58498 0.74559 0.0
C2824 C 0.07316 0.57564 0.77458 0.0
C2825 C 0.07894 0.56834 0.77776 0.0
C2826 C 0.07279 0.57798 0.76497 0.0
C2827 C 0.07803 0.57265 0.75837 0.0
C2828 C 0.08431 0.56567 0.76166 0.0
C2829 C 0.08472 0.56364 0.77132 0.0
C2830 C 0.06664 0.58602 0.76183 0.0
C2831 C 0.09015 0.55982 0.75501 0.0
H2832 H 0.05976 0.56516 0.73225 0.0
H2833 H 0.08279 0.58419 0.72781 0.0
H2834 H 0.06692 0.55753 0.75533 0.0
H2835 H 0.05765 0.56606 0.75497 0.0
H2836 H 0.05802 0.55681 0.74636 0.0
H2837 H 0.09117 0.5907 0.74064 0.0
H2838 H 0.08769 0.58812 0.75256 0.0
H2839 H 0.09545 0.58033 0.74642 0.0
H2840 H 0.0689 0.57947 0.7796 0.0
H2841 H 0.0893 0.55807 0.7738 0.0
H2842 H 0.06052 0.58325 0.75788 0.0
H2843 H 0.0706 0.59071 0.75702 0.0
H2844 H 0.06402 0.59024 0.76785 0.0
H2845 H 0.0859 0.55374 0.75261 0.0
H2846 H 0.09655 0.55707 0.75854 0.0
H2847 H 0.09231 0.56386 0.74872 0.0
C2848 C 0.4236 0.07437 0.73368 0.0
C2849 C 0.43093 0.06956 0.72897 0.0
C2850 C 0.42397 0.07628 0.7434 0.0
C2851 C 0.43215 0.07396 0.74855 0.0
C2852 C 0.43979 0.06968 0.74383 0.0
C2853 C 0.43899 0.0673 0.73427 0.0
C2854 C 0.41555 0.08073 0.74808 0.0
C2855 C 0.44875 0.06722 0.74895 0.0
C2856 C 0.43909 0.08496 0.77192 0.0
C2857 C 0.43779 0.07743 0.77819 0.0
C2858 C 0.43663 0.0842 0.76237 0.0
C2859 C 0.43281 0.07568 0.75893 0.0
C2860 C 0.43087 0.0683 0.76533 0.0
C2861 C 0.43343 0.06924 0.77485 0.0
C2862 C 0.43856 0.09235 0.75588 0.0
C2863 C 0.42611 0.05939 0.76212 0.0
H2864 H 0.41745 0.07666 0.72989 0.0
H2865 H 0.44471 0.06345 0.73112 0.0
H2866 H 0.41419 0.07753 0.75506 0.0
H2867 H 0.41691 0.08832 0.74919 0.0
H2868 H 0.40911 0.08005 0.74373 0.0
H2869 H 0.45468 0.06604 0.74401 0.0
H2870 H 0.45081 0.07285 0.75393 0.0
H2871 H 0.44764 0.06069 0.75304 0.0
H2872 H 0.44242 0.09135 0.77438 0.0
H2873 H 0.43205 0.06352 0.77969 0.0
H2874 H 0.43209 0.09428 0.752 0.0
H2875 H 0.44391 0.09028 0.75059 0.0
H2876 H 0.44113 0.09865 0.75971 0.0
H2877 H 0.41878 0.06103 0.76 0.0
H2878 H 0.42591 0.05396 0.76772 0.0
H2879 H 0.42972 0.0564 0.75589 0.0
C2880 C 0.93641 0.43211 0.77456 0.0
C2881 C 0.92859 0.43707 0.77798 0.0
C2882 C 0.937 0.42941 0.76505 0.0
C2883 C 0.92978 0.43202 0.75869 0.0
C2884 C 0.92156 0.43635 0.76224 0.0
C2885 C 0.92106 0.4388 0.77182 0.0
C2886 C 0.94552 0.42406 0.76174 0.0
C2887 C 0.91334 0.43857 0.75591 0.0
C2888 C 0.93925 0.43846 0.73453 0.0
C2889 C 0.93664 0.43077 0.72889 0.0
C2890 C 0.93659 0.43909 0.74403 0.0
C2891 C 0.93158 0.43164 0.74831 0.0
C2892 C 0.9287 0.42393 0.74271 0.0
C2893 C 0.9311 0.42368 0.7331 0.0
C2894 C 0.93931 0.44773 0.74956 0.0
C2895 C 0.92343 0.4157 0.74684 0.0
H2896 H 0.94212 0.43041 0.7793 0.0
H2897 H 0.91488 0.44244 0.77439 0.0
H2898 H 0.94353 0.41863 0.7565 0.0
H2899 H 0.95048 0.42899 0.7583 0.0
H2900 H 0.94922 0.42058 0.76767 0.0
H2901 H 0.9081 0.4432 0.75939 0.0
H2902 H 0.91572 0.44199 0.74933 0.0
H2903 H 0.90977 0.43192 0.75394 0.0
H2904 H 0.9436 0.44399 0.73169 0.0
H2905 H 0.92863 0.4178 0.72897 0.0
H2906 H 0.94456 0.44582 0.75499 0.0
H2907 H 0.93307 0.45064 0.75322 0.0
H2908 H 0.94234 0.45332 0.74503 0.0
H2909 H 0.92859 0.41028 0.74905 0.0
H2910 H 0.91872 0.41244 0.74153 0.0
H2911 H 0.9192 0.41768 0.75307 0.0
C2912 C 0.57295 0.92202 0.77279 0.0
C2913 C 0.56806 0.9293 0.77749 0.0
C2914 C 0.57493 0.92243 0.76309 0.0
C2915 C 0.5726 0.9306 0.75795 0.0
C2916 C 0.56824 0.9382 0.76266 0.0
C2917 C 0.56579 0.93736 0.7722 0.0
C2918 C 0.57949 0.91407 0.7584 0.0
C2919 C 0.56575 0.94716 0.75754 0.0
C2920 C 0.58356 0.9376 0.7346 0.0
C2921 C 0.57604 0.93622 0.72834 0.0
C2922 C 0.58282 0.93516 0.74415 0.0
C2923 C 0.57432 0.93128 0.74758 0.0
C2924 C 0.56697 0.92924 0.74117 0.0
C2925 C 0.5679 0.93177 0.73166 0.0
C2926 C 0.59095 0.93718 0.75064 0.0
C2927 C 0.55809 0.92441 0.74437 0.0
H2928 H 0.57526 0.91586 0.77658 0.0
H2929 H 0.56189 0.94306 0.77534 0.0
H2930 H 0.57627 0.91265 0.75144 0.0
H2931 H 0.58705 0.91553 0.75726 0.0
H2932 H 0.57891 0.90762 0.76276 0.0
H2933 H 0.56446 0.95307 0.76248 0.0
H2934 H 0.57142 0.94928 0.75262 0.0
H2935 H 0.55927 0.94599 0.75337 0.0
H2936 H 0.58992 0.94098 0.73213 0.0
H2937 H 0.5622 0.93033 0.72681 0.0
H2938 H 0.59295 0.93073 0.75451 0.0
H2939 H 0.58883 0.94251 0.75593 0.0
H2940 H 0.59722 0.93981 0.74681 0.0
H2941 H 0.55978 0.91708 0.74644 0.0
H2942 H 0.55266 0.92421 0.73877 0.0
H2943 H 0.5551 0.92797 0.75063 0.0
C2944 C 0.2722 0.06344 0.43559 0.0
C2945 C 0.27882 0.07004 0.43251 0.0
C2946 C 0.26261 0.0657 0.43622 0.0
C2947 C 0.25948 0.07483 0.43376 0.0
C2948 C 0.26611 0.08151 0.43045 0.0
C2949 C 0.27569 0.07902 0.42984 0.0
C2950 C 0.25582 0.0582 0.4394 0.0
C2951 C 0.26317 0.09136 0.42785 0.0
C2952 C 0.23291 0.0758 0.43028 0.0
C2953 C 0.22988 0.07834 0.4393 0.0
C2954 C 0.24258 0.07529 0.42812 0.0
C2955 C 0.24933 0.07734 0.43517 0.0
C2956 C 0.24622 0.08056 0.44407 0.0
C2957 C 0.23655 0.08094 0.44604 0.0
C2958 C 0.24557 0.07235 0.41839 0.0
C2959 C 0.25307 0.08309 0.45176 0.0
H2960 H 0.27452 0.05641 0.43739 0.0
H2961 H 0.28076 0.08416 0.42743 0.0
H2962 H 0.25092 0.06098 0.44479 0.0
H2963 H 0.25156 0.05586 0.43331 0.0
H2964 H 0.25949 0.05198 0.44237 0.0
H2965 H 0.26858 0.09493 0.42349 0.0
H2966 H 0.25641 0.09136 0.42397 0.0
H2967 H 0.26215 0.09553 0.43435 0.0
H2968 H 0.22772 0.07404 0.42499 0.0
H2969 H 0.23418 0.08311 0.45295 0.0
H2970 H 0.2491 0.0654 0.41872 0.0
H2971 H 0.25074 0.07743 0.41553 0.0
H2972 H 0.23953 0.07186 0.41347 0.0
H2973 H 0.25527 0.07657 0.45543 0.0
H2974 H 0.24983 0.08787 0.45701 0.0
H2975 H 0.25946 0.0865 0.4489 0.0
C2976 C 0.92313 0.23644 0.44214 0.0
C2977 C 0.9298 0.22998 0.43881 0.0
C2978 C 0.92387 0.24608 0.44011 0.0
C2979 C 0.93133 0.24934 0.43438 0.0
C2980 C 0.93765 0.24272 0.43039 0.0
C2981 C 0.93692 0.23316 0.43281 0.0
C2982 C 0.91674 0.25276 0.44426 0.0
C2983 C 0.94546 0.24577 0.42392 0.0
C2984 C 0.93135 0.27483 0.42579 0.0
C2985 C 0.93781 0.27911 0.43197 0.0
C2986 C 0.92916 0.26518 0.42642 0.0
C2987 C 0.93331 0.25965 0.43357 0.0
C2988 C 0.93956 0.26395 0.44001 0.0
C2989 C 0.94181 0.27353 0.43908 0.0
C2990 C 0.92255 0.26088 0.41932 0.0
C2991 C 0.94381 0.25845 0.44803 0.0
H2992 H 0.91752 0.23399 0.44668 0.0
H2993 H 0.94197 0.22816 0.43004 0.0
H2994 H 0.92019 0.25911 0.44717 0.0
H2995 H 0.91183 0.25508 0.43867 0.0
H2996 H 0.91253 0.24939 0.44991 0.0
H2997 H 0.94806 0.23983 0.41957 0.0
H2998 H 0.94313 0.2515 0.41918 0.0
H2999 H 0.95141 0.24846 0.42819 0.0
H3000 H 0.92797 0.27899 0.42039 0.0
H3001 H 0.94689 0.27656 0.44385 0.0
H3002 H 0.91637 0.25784 0.42294 0.0
H3003 H 0.92613 0.25505 0.41557 0.0
H3004 H 0.92005 0.26608 0.41406 0.0
H3005 H 0.93818 0.25659 0.4531 0.0
H3006 H 0.94931 0.26249 0.45181 0.0
H3007 H 0.94696 0.25179 0.44547 0.0
C3008 C 0.73243 0.92954 0.42663 0.0
C3009 C 0.72903 0.93798 0.43052 0.0
C3010 C 0.74208 0.92725 0.42692 0.0
C3011 C 0.7485 0.93349 0.43131 0.0
C3012 C 0.74513 0.94215 0.4349 0.0
C3013 C 0.7355 0.94427 0.43445 0.0
C3014 C 0.74535 0.91812 0.42262 0.0
C3015 C 0.75173 0.94935 0.43907 0.0
C3016 C 0.77087 0.92559 0.44356 0.0
C3017 C 0.77782 0.92953 0.43783 0.0
C3018 C 0.76131 0.92627 0.44117 0.0
C3019 C 0.75861 0.93092 0.43278 0.0
C3020 C 0.7657 0.93432 0.42664 0.0
C3021 C 0.77523 0.93364 0.42928 0.0
C3022 C 0.75405 0.92236 0.44784 0.0
C3023 C 0.76324 0.93861 0.41726 0.0
H3024 H 0.72752 0.92465 0.42346 0.0
H3025 H 0.73305 0.95098 0.43711 0.0
H3026 H 0.75207 0.9191 0.41879 0.0
H3027 H 0.74659 0.91289 0.42826 0.0
H3028 H 0.74005 0.91518 0.4177 0.0
H3029 H 0.7479 0.95491 0.44299 0.0
H3030 H 0.75686 0.94601 0.4439 0.0
H3031 H 0.75574 0.95274 0.43332 0.0
H3032 H 0.77292 0.92221 0.45007 0.0
H3033 H 0.78066 0.93638 0.42469 0.0
H3034 H 0.74956 0.91719 0.44415 0.0
H3035 H 0.74942 0.92811 0.45037 0.0
H3036 H 0.75729 0.91886 0.45403 0.0
H3037 H 0.76097 0.93294 0.41241 0.0
H3038 H 0.76932 0.94229 0.41404 0.0
H3039 H 0.75732 0.94364 0.41791 0.0
C3040 C 0.0711 0.77432 0.43201 0.0
C3041 C 0.07881 0.77769 0.43716 0.0
C3042 C 0.07051 0.76482 0.42931 0.0
C3043 C 0.0776 0.7584 0.43213 0.0
C3044 C 0.08573 0.7619 0.4367 0.0
C3045 C 0.08625 0.77148 0.43912 0.0
C3046 C 0.06212 0.76158 0.42371 0.0
C3047 C 0.09384 0.75551 0.43915 0.0
C3048 C 0.06784 0.73424 0.43819 0.0
C3049 C 0.0707 0.72861 0.43057 0.0
C3050 C 0.07048 0.74374 0.43892 0.0
C3051 C 0.07576 0.74803 0.43166 0.0
C3052 C 0.07888 0.74245 0.42403 0.0
C3053 C 0.07646 0.73284 0.42367 0.0
C3054 C 0.06748 0.74926 0.44747 0.0
C3055 C 0.08443 0.74658 0.41599 0.0
H3056 H 0.06548 0.77912 0.43014 0.0
H3057 H 0.09234 0.77402 0.44291 0.0
H3058 H 0.06423 0.75631 0.41836 0.0
H3059 H 0.05698 0.75821 0.4285 0.0
H3060 H 0.05859 0.76754 0.4201 0.0
H3061 H 0.09891 0.75894 0.444 0.0
H3062 H 0.09131 0.74891 0.44244 0.0
H3063 H 0.09764 0.75359 0.43263 0.0
H3064 H 0.06332 0.73137 0.44356 0.0
H3065 H 0.0791 0.72872 0.41786 0.0
H3066 H 0.0623 0.7547 0.44539 0.0
H3067 H 0.07362 0.75292 0.45059 0.0
H3068 H 0.06425 0.74473 0.45294 0.0
H3069 H 0.07946 0.74883 0.41042 0.0
H3070 H 0.08923 0.74127 0.41288 0.0
H3071 H 0.0886 0.7528 0.41813 0.0
C3072 C 0.23505 0.92167 0.57073 0.0
C3073 C 0.22991 0.92969 0.56784 0.0
C3074 C 0.24463 0.92219 0.57324 0.0
C3075 C 0.24943 0.93085 0.57256 0.0
C3076 C 0.24436 0.93898 0.5699 0.0
C3077 C 0.23472 0.93834 0.56778 0.0
C3078 C 0.24956 0.91343 0.57666 0.0
C3079 C 0.2492 0.94837 0.56883 0.0
C3080 C 0.27305 0.93702 0.5835 0.0
C3081 C 0.27912 0.93642 0.57572 0.0
C3082 C 0.26351 0.9345 0.58279 0.0
C3083 C 0.25984 0.9315 0.57405 0.0
C3084 C 0.26605 0.93028 0.56635 0.0
C3085 C 0.27559 0.93273 0.56728 0.0
C3086 C 0.25727 0.93543 0.59131 0.0
C3087 C 0.26261 0.92645 0.55708 0.0
H3088 H 0.23179 0.91483 0.57087 0.0
H3089 H 0.23108 0.94475 0.56599 0.0
H3090 H 0.25641 0.91249 0.57306 0.0
H3091 H 0.25104 0.91414 0.58428 0.0
H3092 H 0.24526 0.90701 0.5756 0.0
H3093 H 0.24411 0.95427 0.56837 0.0
H3094 H 0.25404 0.94976 0.57477 0.0
H3095 H 0.25345 0.94829 0.56229 0.0
H3096 H 0.27564 0.9398 0.59009 0.0
H3097 H 0.28026 0.93184 0.56134 0.0
H3098 H 0.25339 0.92877 0.59252 0.0
H3099 H 0.25196 0.94101 0.5901 0.0
H3100 H 0.2613 0.93717 0.59776 0.0
H3101 H 0.26082 0.91891 0.55792 0.0
H3102 H 0.26799 0.92706 0.55146 0.0
H3103 H 0.25615 0.93015 0.55477 0.0
C3104 C 0.07297 0.2327 0.57678 0.0
C3105 C 0.07916 0.22969 0.56974 0.0
C3106 C 0.07253 0.24223 0.57945 0.0
C3107 C 0.07801 0.249 0.57459 0.0
C3108 C 0.08472 0.24587 0.56793 0.0
C3109 C 0.08529 0.23626 0.56567 0.0
C3110 C 0.06601 0.2451 0.58729 0.0
C3111 C 0.09125 0.25268 0.56307 0.0
C3112 C 0.0657 0.27238 0.57033 0.0
C3113 C 0.07049 0.2786 0.57632 0.0
C3114 C 0.06822 0.26286 0.56969 0.0
C3115 C 0.07561 0.25924 0.57531 0.0
C3116 C 0.08054 0.26544 0.58136 0.0
C3117 C 0.07794 0.27501 0.58177 0.0
C3118 C 0.06289 0.25661 0.56297 0.0
C3119 C 0.08833 0.26202 0.5877 0.0
H3120 H 0.06847 0.2276 0.58021 0.0
H3121 H 0.09029 0.23391 0.56042 0.0
H3122 H 0.06922 0.25072 0.59165 0.0
H3123 H 0.0594 0.24791 0.58425 0.0
H3124 H 0.06423 0.23906 0.59189 0.0
H3125 H 0.09479 0.24944 0.55691 0.0
H3126 H 0.08743 0.25904 0.56069 0.0
H3127 H 0.09675 0.25496 0.5681 0.0
H3128 H 0.0598 0.2749 0.56624 0.0
H3129 H 0.08181 0.27966 0.58638 0.0
H3130 H 0.05892 0.25123 0.56698 0.0
H3131 H 0.06787 0.25285 0.55828 0.0
H3132 H 0.05785 0.26061 0.55855 0.0
H3133 H 0.08524 0.25977 0.59449 0.0
H3134 H 0.09346 0.26771 0.58919 0.0
H3135 H 0.09215 0.25593 0.58468 0.0
C3136 C 0.77165 0.08545 0.5676 0.0
C3137 C 0.77755 0.07756 0.5684 0.0
C3138 C 0.76204 0.08495 0.56987 0.0
C3139 C 0.75817 0.07631 0.57293 0.0
C3140 C 0.76419 0.06848 0.57428 0.0
C3141 C 0.77377 0.06919 0.57197 0.0
C3142 C 0.75605 0.09366 0.56892 0.0
C3143 C 0.76046 0.05913 0.57762 0.0
C3144 C 0.7336 0.07301 0.58309 0.0
C3145 C 0.72835 0.07027 0.57512 0.0
C3146 C 0.74311 0.07568 0.5824 0.0
C3147 C 0.74775 0.07506 0.57364 0.0
C3148 C 0.74252 0.07259 0.56554 0.0
C3149 C 0.7329 0.0705 0.56634 0.0
C3150 C 0.74824 0.07897 0.59108 0.0
C3151 C 0.74708 0.07213 0.55597 0.0
H3152 H 0.77446 0.09199 0.5649 0.0
H3153 H 0.77828 0.06312 0.57287 0.0
H3154 H 0.74954 0.09215 0.56491 0.0
H3155 H 0.75389 0.09606 0.57602 0.0
H3156 H 0.75986 0.09949 0.56541 0.0
H3157 H 0.76616 0.05458 0.58041 0.0
H3158 H 0.75507 0.06001 0.58317 0.0
H3159 H 0.75711 0.05545 0.57161 0.0
H3160 H 0.73046 0.07289 0.59 0.0
H3161 H 0.72902 0.06897 0.55999 0.0
H3162 H 0.75176 0.08579 0.58967 0.0
H3163 H 0.75381 0.07386 0.59298 0.0
H3164 H 0.74346 0.07985 0.59719 0.0
H3165 H 0.74845 0.07937 0.55343 0.0
H3166 H 0.74256 0.06852 0.55073 0.0
H3167 H 0.75393 0.06841 0.5563 0.0
C3168 C 0.92335 0.77102 0.5648 0.0
C3169 C 0.92986 0.77753 0.56834 0.0
C3170 C 0.92408 0.76138 0.56686 0.0
C3171 C 0.93137 0.75817 0.57284 0.0
C3172 C 0.93751 0.76482 0.57702 0.0
C3173 C 0.93682 0.77439 0.57456 0.0
C3174 C 0.91713 0.75466 0.56248 0.0
C3175 C 0.94511 0.76182 0.58377 0.0
C3176 C 0.93119 0.73263 0.58131 0.0
C3177 C 0.93783 0.72841 0.57529 0.0
C3178 C 0.92901 0.74228 0.58068 0.0
C3179 C 0.93339 0.74786 0.5737 0.0
C3180 C 0.93986 0.74361 0.56745 0.0
C3181 C 0.94207 0.73403 0.56838 0.0
C3182 C 0.92216 0.74652 0.58758 0.0
C3183 C 0.94438 0.74916 0.55962 0.0
H3184 H 0.91786 0.77344 0.56009 0.0
H3185 H 0.94174 0.77941 0.57749 0.0
H3186 H 0.92073 0.74834 0.55966 0.0
H3187 H 0.91208 0.75229 0.5679 0.0
H3188 H 0.91308 0.758 0.5567 0.0
H3189 H 0.94753 0.76777 0.5882 0.0
H3190 H 0.94264 0.75607 0.58842 0.0
H3191 H 0.95122 0.75915 0.57971 0.0
H3192 H 0.92766 0.72842 0.58657 0.0
H3193 H 0.94729 0.73102 0.56375 0.0
H3194 H 0.91608 0.74956 0.58377 0.0
H3195 H 0.92559 0.75235 0.59147 0.0
H3196 H 0.91952 0.74129 0.59272 0.0
H3197 H 0.93895 0.75101 0.55434 0.0
H3198 H 0.95005 0.74516 0.55604 0.0
H3199 H 0.9474 0.75582 0.56232 0.0
C3200 C 0.43456 0.23365 0.06913 0.0
C3201 C 0.43719 0.22966 0.07776 0.0
C3202 C 0.43194 0.24315 0.06843 0.0
C3203 C 0.4319 0.2489 0.07656 0.0
C3204 C 0.43369 0.24475 0.08542 0.0
C3205 C 0.43643 0.23524 0.08591 0.0
C3206 C 0.42965 0.24712 0.05888 0.0
C3207 C 0.43271 0.25034 0.09439 0.0
C3208 C 0.43897 0.27428 0.07201 0.0
C3209 C 0.43028 0.27874 0.07056 0.0
C3210 C 0.43953 0.26469 0.07435 0.0
C3211 C 0.43121 0.25936 0.07554 0.0
C3212 C 0.42241 0.26395 0.07492 0.0
C3213 C 0.42204 0.27347 0.07222 0.0
C3214 C 0.44909 0.26017 0.07529 0.0
C3215 C 0.4133 0.25884 0.07675 0.0
H3216 H 0.43467 0.22938 0.06283 0.0
H3217 H 0.43828 0.23233 0.09268 0.0
H3218 H 0.42344 0.25182 0.05923 0.0
H3219 H 0.43569 0.25135 0.05635 0.0
H3220 H 0.4282 0.2415 0.05365 0.0
H3221 H 0.43533 0.24642 0.10061 0.0
H3222 H 0.43654 0.25711 0.09388 0.0
H3223 H 0.42518 0.25201 0.09553 0.0
H3224 H 0.44542 0.27823 0.07123 0.0
H3225 H 0.41521 0.27664 0.07114 0.0
H3226 H 0.44994 0.25469 0.06981 0.0
H3227 H 0.44973 0.25667 0.08222 0.0
H3228 H 0.4549 0.26534 0.07459 0.0
H3229 H 0.41034 0.25639 0.06997 0.0
H3230 H 0.40807 0.26363 0.08001 0.0
H3231 H 0.41425 0.25266 0.0814 0.0
C3232 C 0.44394 0.77119 0.93599 0.0
C3233 C 0.4382 0.7775 0.93104 0.0
C3234 C 0.44158 0.76164 0.93681 0.0
C3235 C 0.43332 0.75816 0.93248 0.0
C3236 C 0.42748 0.76445 0.92742 0.0
C3237 C 0.42995 0.77403 0.92681 0.0
C3238 C 0.44813 0.75522 0.94216 0.0
C3239 C 0.41854 0.76113 0.92276 0.0
C3240 C 0.43481 0.73163 0.92956 0.0
C3241 C 0.43006 0.72852 0.93759 0.0
C3242 C 0.43515 0.74127 0.9273 0.0
C3243 C 0.43094 0.74794 0.9334 0.0
C3244 C 0.42562 0.74471 0.94118 0.0
C3245 C 0.42522 0.73504 0.94315 0.0
C3246 C 0.44023 0.74434 0.91853 0.0
C3247 C 0.42087 0.75144 0.94785 0.0
H3248 H 0.45044 0.77367 0.93908 0.0
H3249 H 0.42538 0.77882 0.92305 0.0
H3250 H 0.44415 0.75045 0.94687 0.0
H3251 H 0.45207 0.75079 0.93709 0.0
H3252 H 0.45328 0.75921 0.94645 0.0
H3253 H 0.41593 0.76626 0.9175 0.0
H3254 H 0.41959 0.75424 0.91925 0.0
H3255 H 0.41301 0.76019 0.92818 0.0
H3256 H 0.43832 0.72654 0.92511 0.0
H3257 H 0.42142 0.7326 0.94929 0.0
H3258 H 0.44677 0.74811 0.92047 0.0
H3259 H 0.4358 0.7493 0.91446 0.0
H3260 H 0.4421 0.7383 0.91395 0.0
H3261 H 0.42604 0.75372 0.95324 0.0
H3262 H 0.41488 0.74804 0.95153 0.0
H3263 H 0.41826 0.7578 0.9442 0.0
C3264 C 0.23648 0.44578 0.93028 0.0
C3265 C 0.22962 0.43875 0.93071 0.0
C3266 C 0.2461 0.44359 0.93085 0.0
C3267 C 0.24897 0.43411 0.93201 0.0
C3268 C 0.24205 0.42692 0.93208 0.0
C3269 C 0.23245 0.42933 0.93138 0.0
C3270 C 0.25318 0.45145 0.93016 0.0
C3271 C 0.24472 0.41674 0.93332 0.0
C3272 C 0.27534 0.42975 0.92898 0.0
C3273 C 0.27856 0.43092 0.93823 0.0
C3274 C 0.26567 0.43037 0.92683 0.0
C3275 C 0.25908 0.432 0.93413 0.0
C3276 C 0.26232 0.43256 0.94354 0.0
C3277 C 0.27199 0.43218 0.94543 0.0
C3278 C 0.26253 0.4295 0.91674 0.0
C3279 C 0.25562 0.43402 0.95162 0.0
H3280 H 0.23429 0.45303 0.92948 0.0
H3281 H 0.22715 0.42387 0.93158 0.0
H3282 H 0.25848 0.45094 0.93585 0.0
H3283 H 0.25697 0.45089 0.92337 0.0
H3284 H 0.24982 0.45849 0.93053 0.0
H3285 H 0.23899 0.41195 0.93103 0.0
H3286 H 0.25119 0.415 0.92933 0.0
H3287 H 0.24617 0.41538 0.94086 0.0
H3288 H 0.2804 0.42862 0.9234 0.0
H3289 H 0.27445 0.43285 0.95262 0.0
H3290 H 0.25934 0.43622 0.91439 0.0
H3291 H 0.25705 0.424 0.9161 0.0
H3292 H 0.26844 0.42773 0.91195 0.0
H3293 H 0.25367 0.44156 0.95198 0.0
H3294 H 0.25885 0.43199 0.95844 0.0
H3295 H 0.24908 0.4299 0.95066 0.0
C3296 C 0.58438 0.27328 0.93515 0.0
C3297 C 0.57644 0.27851 0.93809 0.0
C3298 C 0.58377 0.26369 0.93267 0.0
C3299 C 0.57506 0.25895 0.93342 0.0
C3300 C 0.567 0.26412 0.93613 0.0
C3301 C 0.56775 0.27376 0.93824 0.0
C3302 C 0.59246 0.25867 0.9292 0.0
C3303 C 0.55757 0.25937 0.93725 0.0
C3304 C 0.56872 0.23539 0.92234 0.0
C3305 C 0.5693 0.22924 0.93007 0.0
C3306 C 0.57127 0.24493 0.92312 0.0
C3307 C 0.57429 0.24853 0.93189 0.0
C3308 C 0.57546 0.24226 0.93954 0.0
C3309 C 0.57296 0.23272 0.93855 0.0
C3310 C 0.57035 0.25123 0.91465 0.0
C3311 C 0.57932 0.24563 0.94883 0.0
H3312 H 0.59125 0.27649 0.93492 0.0
H3313 H 0.56138 0.27746 0.94006 0.0
H3314 H 0.59332 0.25179 0.93275 0.0
H3315 H 0.59173 0.25726 0.92157 0.0
H3316 H 0.59893 0.26289 0.93028 0.0
H3317 H 0.55173 0.26452 0.93772 0.0
H3318 H 0.55612 0.25453 0.93133 0.0
H3319 H 0.55764 0.25514 0.9438 0.0
H3320 H 0.56595 0.23286 0.91573 0.0
H3321 H 0.57381 0.228 0.94446 0.0
H3322 H 0.57703 0.25506 0.91344 0.0
H3323 H 0.56481 0.25657 0.91592 0.0
H3324 H 0.56855 0.24725 0.90818 0.0
H3325 H 0.58685 0.24744 0.94798 0.0
H3326 H 0.57873 0.2402 0.95441 0.0
H3327 H 0.57561 0.25206 0.9512 0.0
C3328 C 0.77472 0.57762 0.93207 0.0
C3329 C 0.77754 0.56901 0.9282 0.0
C3330 C 0.76513 0.58014 0.93242 0.0
C3331 C 0.75821 0.57374 0.92917 0.0
C3332 C 0.76114 0.56536 0.92463 0.0
C3333 C 0.77076 0.56313 0.92416 0.0
C3334 C 0.76241 0.58953 0.93648 0.0
C3335 C 0.75411 0.55869 0.9203 0.0
C3336 C 0.73538 0.57202 0.94305 0.0
C3337 C 0.72873 0.57599 0.93696 0.0
C3338 C 0.74494 0.5715 0.94062 0.0
C3339 C 0.74807 0.575 0.93184 0.0
C3340 C 0.74142 0.57915 0.92566 0.0
C3341 C 0.73187 0.57966 0.92833 0.0
C3342 C 0.75173 0.56711 0.9475 0.0
C3343 C 0.74434 0.58326 0.91633 0.0
H3344 H 0.78 0.58234 0.93488 0.0
H3345 H 0.77299 0.55665 0.92083 0.0
H3346 H 0.7565 0.59268 0.93248 0.0
H3347 H 0.76006 0.58858 0.94385 0.0
H3348 H 0.76841 0.59453 0.93644 0.0
H3349 H 0.75734 0.55182 0.91848 0.0
H3350 H 0.7481 0.55743 0.9251 0.0
H3351 H 0.75129 0.56187 0.91376 0.0
H3352 H 0.73313 0.5694 0.94983 0.0
H3353 H 0.72684 0.58283 0.92357 0.0
H3354 H 0.75703 0.57238 0.94968 0.0
H3355 H 0.75554 0.56121 0.94409 0.0
H3356 H 0.74816 0.5644 0.95389 0.0
H3357 H 0.74659 0.59064 0.91743 0.0
H3358 H 0.73839 0.5833 0.91126 0.0
H3359 H 0.75031 0.57939 0.91315 0.0
C3360 C 0.57052 0.73158 0.07739 0.0
C3361 C 0.57767 0.72837 0.07143 0.0
C3362 C 0.57003 0.74108 0.08009 0.0
C3363 C 0.57658 0.74761 0.07639 0.0
C3364 C 0.58422 0.74427 0.07095 0.0
C3365 C 0.58471 0.73468 0.0686 0.0
C3366 C 0.56229 0.74419 0.08661 0.0
C3367 C 0.59179 0.75082 0.06745 0.0
C3368 C 0.56568 0.77129 0.07063 0.0
C3369 C 0.56938 0.77724 0.07758 0.0
C3370 C 0.56828 0.7618 0.07005 0.0
C3371 C 0.57447 0.7579 0.0768 0.0
C3372 C 0.57836 0.76382 0.0838 0.0
C3373 C 0.57585 0.7734 0.08404 0.0
C3374 C 0.56427 0.75587 0.06221 0.0
C3375 C 0.58485 0.76007 0.0913 0.0
H3376 H 0.56526 0.72667 0.07989 0.0
H3377 H 0.59039 0.7322 0.06418 0.0
H3378 H 0.56486 0.74963 0.09158 0.0
H3379 H 0.55648 0.7473 0.08244 0.0
H3380 H 0.55942 0.7382 0.09072 0.0
H3381 H 0.59631 0.74746 0.06205 0.0
H3382 H 0.58871 0.75733 0.06445 0.0
H3383 H 0.59633 0.75291 0.07344 0.0
H3384 H 0.56054 0.77396 0.0657 0.0
H3385 H 0.57898 0.77784 0.08937 0.0
H3386 H 0.55949 0.75048 0.06517 0.0
H3387 H 0.57001 0.75213 0.05847 0.0
H3388 H 0.56029 0.76012 0.05701 0.0
H3389 H 0.58058 0.75782 0.09742 0.0
H3390 H 0.5898 0.76559 0.09376 0.0
H3391 H 0.58897 0.75392 0.08887 0.0
C3392 C 0.2755 0.57816 0.07936 0.0
C3393 C 0.27846 0.57745 0.06998 0.0
C3394 C 0.26587 0.57783 0.08168 0.0
C3395 C 0.25909 0.57681 0.07444 0.0
C3396 C 0.26208 0.57684 0.06494 0.0
C3397 C 0.27172 0.57705 0.06284 0.0
C3398 C 0.26299 0.57828 0.09187 0.0
C3399 C 0.25511 0.57668 0.05695 0.0
C3400 C 0.23682 0.56252 0.07763 0.0
C3401 C 0.22985 0.56945 0.07764 0.0
C3402 C 0.24638 0.56492 0.07726 0.0
C3403 C 0.24907 0.57449 0.07663 0.0
C3404 C 0.24204 0.58156 0.07699 0.0
C3405 C 0.2325 0.57894 0.07764 0.0
C3406 C 0.25362 0.55716 0.07726 0.0
C3407 C 0.24453 0.59187 0.07672 0.0
H3408 H 0.28072 0.57871 0.08488 0.0
H3409 H 0.27401 0.57691 0.05558 0.0
H3410 H 0.25662 0.58269 0.09276 0.0
H3411 H 0.26126 0.5711 0.09437 0.0
H3412 H 0.26869 0.58114 0.09636 0.0
H3413 H 0.25855 0.57536 0.05007 0.0
H3414 H 0.24965 0.57124 0.05808 0.0
H3415 H 0.2515 0.58359 0.0566 0.0
H3416 H 0.23476 0.55519 0.0779 0.0
H3417 H 0.2271 0.58431 0.07789 0.0
H3418 H 0.25863 0.55823 0.08313 0.0
H3419 H 0.2577 0.55735 0.07062 0.0
H3420 H 0.25039 0.55009 0.078 0.0
H3421 H 0.24683 0.5941 0.08383 0.0
H3422 H 0.23841 0.59626 0.07467 0.0
H3423 H 0.25039 0.59328 0.07179 0.0
C3424 C 0.73503 0.43101 0.06273 0.0
C3425 C 0.72816 0.43201 0.06969 0.0
C3426 C 0.74464 0.43158 0.06492 0.0
C3427 C 0.74748 0.43328 0.07432 0.0
C3428 C 0.74055 0.43389 0.08146 0.0
C3429 C 0.73095 0.43321 0.07906 0.0
C3430 C 0.75175 0.43034 0.05715 0.0
C3431 C 0.74319 0.43568 0.09157 0.0
C3432 C 0.77379 0.43034 0.07902 0.0
C3433 C 0.77707 0.43949 0.07736 0.0
C3434 C 0.76412 0.42821 0.07844 0.0
C3435 C 0.75759 0.43546 0.07635 0.0
C3436 C 0.76088 0.44479 0.07526 0.0
C3437 C 0.77056 0.44666 0.07563 0.0
C3438 C 0.76091 0.41821 0.07986 0.0
C3439 C 0.75425 0.45282 0.07326 0.0
H3440 H 0.73285 0.4298 0.05553 0.0
H3441 H 0.72562 0.43384 0.08446 0.0
H3442 H 0.7571 0.436 0.05733 0.0
H3443 H 0.75547 0.42356 0.05814 0.0
H3444 H 0.74841 0.4303 0.05009 0.0
H3445 H 0.73741 0.43376 0.09645 0.0
H3446 H 0.7496 0.43171 0.09356 0.0
H3447 H 0.74474 0.44327 0.0925 0.0
H3448 H 0.7788 0.4248 0.08051 0.0
H3449 H 0.77306 0.45378 0.07458 0.0
H3450 H 0.75776 0.41549 0.07327 0.0
H3451 H 0.75538 0.41793 0.08535 0.0
H3452 H 0.76677 0.4135 0.08195 0.0
H3453 H 0.75235 0.45272 0.0657 0.0
H3454 H 0.7575 0.45973 0.07489 0.0
H3455 H 0.74767 0.45216 0.07739 0.0
C3456 C 0.14022 0.51097 0.11029 0.0
C3457 C 0.14082 0.52033 0.11329 0.0
C3458 C 0.13566 0.50415 0.11571 0.0
C3459 C 0.13133 0.50676 0.12427 0.0
C3460 C 0.13206 0.51618 0.12747 0.0
C3461 C 0.13692 0.52284 0.12199 0.0
C3462 C 0.1353 0.49419 0.11208 0.0
C3463 C 0.12778 0.51922 0.13669 0.0
C3464 C 0.11043 0.49224 0.13236 0.0
C3465 C 0.1142 0.48669 0.13968 0.0
C3466 C 0.11594 0.49867 0.1273 0.0
C3467 C 0.12554 0.49978 0.12952 0.0
C3468 C 0.12958 0.49412 0.13659 0.0
C3469 C 0.12395 0.48763 0.14148 0.0
C3470 C 0.11138 0.50453 0.11971 0.0
C3471 C 0.1399 0.4949 0.13898 0.0
H3472 H 0.14346 0.50894 0.1037 0.0
H3473 H 0.13753 0.53004 0.12442 0.0
H3474 H 0.13611 0.48902 0.11785 0.0
H3475 H 0.12838 0.49295 0.10871 0.0
H3476 H 0.14086 0.49285 0.10676 0.0
H3477 H 0.12737 0.52699 0.13731 0.0
H3478 H 0.12062 0.51627 0.13758 0.0
H3479 H 0.13217 0.51654 0.14255 0.0
H3480 H 0.10312 0.49184 0.1305 0.0
H3481 H 0.1274 0.48345 0.14674 0.0
H3482 H 0.11532 0.50384 0.11303 0.0
H3483 H 0.11157 0.51205 0.12178 0.0
H3484 H 0.10395 0.5025 0.11842 0.0
H3485 H 0.14417 0.49256 0.13289 0.0
H3486 H 0.14186 0.49058 0.14518 0.0
H3487 H 0.1418 0.50232 0.14043 0.0
C3488 C 0.48429 0.13156 0.11787 0.0
C3489 C 0.4869 0.13912 0.11215 0.0
C3490 C 0.49108 0.12669 0.12318 0.0
C3491 C 0.50061 0.12963 0.12291 0.0
C3492 C 0.50314 0.13749 0.11736 0.0
C3493 C 0.49627 0.14206 0.11197 0.0
C3494 C 0.4881 0.11837 0.12904 0.0
C3495 C 0.51313 0.14097 0.1168 0.0
C3496 C 0.51628 0.1211 0.14284 0.0
C3497 C 0.52084 0.11334 0.13876 0.0
C3498 C 0.50996 0.12666 0.13767 0.0
C3499 C 0.50795 0.12433 0.12822 0.0
C3500 C 0.51284 0.1168 0.12391 0.0
C3501 C 0.51921 0.11142 0.12922 0.0
C3502 C 0.50527 0.1349 0.14245 0.0
C3503 C 0.51116 0.11404 0.1138 0.0
H3504 H 0.47698 0.1294 0.11809 0.0
H3505 H 0.49821 0.14801 0.10763 0.0
H3506 H 0.49248 0.11216 0.12731 0.0
H3507 H 0.48921 0.11997 0.13659 0.0
H3508 H 0.48059 0.11653 0.12796 0.0
H3509 H 0.51342 0.14849 0.11471 0.0
H3510 H 0.51688 0.14014 0.12359 0.0
H3511 H 0.51694 0.13681 0.11141 0.0
H3512 H 0.51736 0.12267 0.15021 0.0
H3513 H 0.52282 0.10561 0.12587 0.0
H3514 H 0.49787 0.13306 0.14407 0.0
H3515 H 0.50518 0.14113 0.13777 0.0
H3516 H 0.50884 0.13684 0.14911 0.0
H3517 H 0.50594 0.10824 0.11362 0.0
H3518 H 0.51774 0.11139 0.11054 0.0
H3519 H 0.50844 0.1199 0.10946 0.0
C3520 C 0.88627 0.52311 0.13511 0.0
C3521 C 0.89518 0.52076 0.13865 0.0
C3522 C 0.88094 0.51651 0.12998 0.0
C3523 C 0.88449 0.50729 0.12864 0.0
C3524 C 0.89339 0.50488 0.13236 0.0
C3525 C 0.89864 0.51165 0.13722 0.0
C3526 C 0.87152 0.5194 0.12605 0.0
C3527 C 0.89752 0.49521 0.13105 0.0
C3528 C 0.86758 0.48754 0.12223 0.0
C3529 C 0.86851 0.48697 0.11237 0.0
C3530 C 0.87259 0.49419 0.12756 0.0
C3531 C 0.87909 0.50022 0.12307 0.0
C3532 C 0.88057 0.49932 0.11328 0.0
C3533 C 0.87514 0.49294 0.10807 0.0
C3534 C 0.87082 0.49486 0.13801 0.0
C3535 C 0.88764 0.50525 0.10804 0.0
H3536 H 0.88353 0.53012 0.13625 0.0
H3537 H 0.90543 0.50973 0.14009 0.0
H3538 H 0.87076 0.517 0.11867 0.0
H3539 H 0.86586 0.51605 0.13021 0.0
H3540 H 0.8705 0.52714 0.12628 0.0
H3541 H 0.90356 0.49393 0.13583 0.0
H3542 H 0.89216 0.48969 0.1323 0.0
H3543 H 0.9 0.49448 0.1237 0.0
H3544 H 0.8629 0.48284 0.12593 0.0
H3545 H 0.87603 0.49294 0.10054 0.0
H3546 H 0.86715 0.50156 0.13958 0.0
H3547 H 0.87755 0.49491 0.14194 0.0
H3548 H 0.86643 0.48897 0.14065 0.0
H3549 H 0.88383 0.5107 0.10396 0.0
H3550 H 0.89155 0.50083 0.10292 0.0
H3551 H 0.89281 0.50878 0.11266 0.0
C3552 C 0.48833 0.88462 0.14139 0.0
C3553 C 0.48621 0.89394 0.13869 0.0
C3554 C 0.49433 0.87889 0.13601 0.0
C3555 C 0.49889 0.88268 0.12804 0.0
C3556 C 0.49661 0.89188 0.12507 0.0
C3557 C 0.49011 0.89725 0.13021 0.0
C3558 C 0.49591 0.86886 0.1391 0.0
C3559 C 0.5011 0.8961 0.11643 0.0
C3560 C 0.52252 0.87242 0.12067 0.0
C3561 C 0.52013 0.86773 0.11234 0.0
C3562 C 0.51564 0.87725 0.1259 0.0
C3563 C 0.50615 0.87717 0.12284 0.0
C3564 C 0.50371 0.87216 0.1146 0.0
C3565 C 0.51074 0.86757 0.10944 0.0
C3566 C 0.51852 0.88251 0.13465 0.0
C3567 C 0.49368 0.8712 0.11131 0.0
H3568 H 0.48556 0.88173 0.14783 0.0
H3569 H 0.48825 0.90411 0.12755 0.0
H3570 H 0.49772 0.86419 0.13312 0.0
H3571 H 0.50177 0.86865 0.14423 0.0
H3572 H 0.48956 0.866 0.14263 0.0
H3573 H 0.49922 0.90362 0.11549 0.0
H3574 H 0.50886 0.89551 0.11688 0.0
H3575 H 0.4988 0.89216 0.11011 0.0
H3576 H 0.52978 0.87242 0.123 0.0
H3577 H 0.50882 0.86363 0.10321 0.0
H3578 H 0.51492 0.87946 0.14085 0.0
H3579 H 0.51632 0.88997 0.13411 0.0
H3580 H 0.52623 0.88223 0.13588 0.0
H3581 H 0.49065 0.86473 0.11444 0.0
H3582 H 0.49334 0.87045 0.10354 0.0
H3583 H 0.48921 0.87722 0.11342 0.0
C3584 C 0.11533 0.51147 0.86326 0.0
C3585 C 0.11444 0.52057 0.86685 0.0
C3586 C 0.1209 0.50472 0.8678 0.0
C3587 C 0.12563 0.50712 0.87622 0.0
C3588 C 0.12503 0.51647 0.87968 0.0
C3589 C 0.11942 0.52311 0.87494 0.0
C3590 C 0.1213 0.49495 0.86369 0.0
C3591 C 0.13034 0.51943 0.88837 0.0
C3592 C 0.13088 0.48824 0.89446 0.0
C3593 C 0.14053 0.48664 0.89313 0.0
C3594 C 0.12593 0.49472 0.88886 0.0
C3595 C 0.13072 0.49976 0.88174 0.0
C3596 C 0.14034 0.4979 0.88008 0.0
C3597 C 0.14512 0.49138 0.88577 0.0
C3598 C 0.11562 0.49634 0.89073 0.0
C3599 C 0.14561 0.50281 0.8723 0.0
H3600 H 0.11153 0.50958 0.85693 0.0
H3601 H 0.11884 0.53023 0.87759 0.0
H3602 H 0.12804 0.49137 0.86524 0.0
H3603 H 0.11554 0.4907 0.86676 0.0
H3604 H 0.12029 0.49511 0.85595 0.0
H3605 H 0.12865 0.52674 0.89052 0.0
H3606 H 0.12871 0.51464 0.89431 0.0
H3607 H 0.138 0.51894 0.88702 0.0
H3608 H 0.12718 0.48449 0.89995 0.0
H3609 H 0.15257 0.49028 0.88466 0.0
H3610 H 0.11155 0.49571 0.8841 0.0
H3611 H 0.11458 0.50358 0.89343 0.0
H3612 H 0.11272 0.4913 0.89593 0.0
H3613 H 0.1428 0.50051 0.86541 0.0
H3614 H 0.15327 0.50128 0.87249 0.0
H3615 H 0.14459 0.51053 0.87278 0.0
C3616 C 0.51499 0.14479 0.88663 0.0
C3617 C 0.52133 0.14002 0.89248 0.0
C3618 C 0.50849 0.13991 0.88102 0.0
C3619 C 0.5083 0.12996 0.88122 0.0
C3620 C 0.51505 0.12508 0.88669 0.0
C3621 C 0.52139 0.13015 0.89236 0.0
C3622 C 0.50156 0.14557 0.87533 0.0
C3623 C 0.51559 0.11448 0.88651 0.0
C3624 C 0.48588 0.11612 0.87616 0.0
C3625 C 0.48704 0.11382 0.86666 0.0
C3626 C 0.49259 0.12168 0.88087 0.0
C3627 C 0.50083 0.12462 0.87609 0.0
C3628 C 0.50198 0.12228 0.86648 0.0
C3629 C 0.495 0.11706 0.86186 0.0
C3630 C 0.49088 0.12441 0.89098 0.0
C3631 C 0.51053 0.12532 0.86099 0.0
H3632 H 0.51481 0.15241 0.88674 0.0
H3633 H 0.52637 0.1264 0.89674 0.0
H3634 H 0.49891 0.14172 0.86911 0.0
H3635 H 0.49546 0.14735 0.87986 0.0
H3636 H 0.50476 0.15227 0.87293 0.0
H3637 H 0.52124 0.11171 0.89113 0.0
H3638 H 0.5088 0.11139 0.88875 0.0
H3639 H 0.51693 0.11207 0.87921 0.0
H3640 H 0.47972 0.11361 0.87987 0.0
H3641 H 0.4959 0.11523 0.85452 0.0
H3642 H 0.49162 0.13213 0.89182 0.0
H3643 H 0.49622 0.12104 0.89555 0.0
H3644 H 0.48379 0.12228 0.89345 0.0
H3645 H 0.50974 0.13281 0.85899 0.0
H3646 H 0.51141 0.12114 0.85445 0.0
H3647 H 0.51701 0.12465 0.86527 0.0
C3648 C 0.86241 0.51252 0.8896 0.0
C3649 C 0.86691 0.52071 0.89267 0.0
C3650 C 0.86713 0.50586 0.88405 0.0
C3651 C 0.8766 0.50746 0.88142 0.0
C3652 C 0.88102 0.51599 0.88412 0.0
C3653 C 0.87616 0.52247 0.88984 0.0
C3654 C 0.86198 0.49694 0.88149 0.0
C3655 C 0.89084 0.51831 0.88086 0.0
C3656 C 0.89341 0.4872 0.87634 0.0
C3657 C 0.89328 0.4868 0.86648 0.0
C3658 C 0.88777 0.49367 0.88127 0.0
C3659 C 0.88205 0.50009 0.87625 0.0
C3660 C 0.88173 0.49956 0.86631 0.0
C3661 C 0.88726 0.49288 0.86158 0.0
C3662 C 0.88803 0.49374 0.89188 0.0
C3663 C 0.87557 0.50608 0.86064 0.0
H3664 H 0.85523 0.5112 0.89177 0.0
H3665 H 0.87957 0.5289 0.89208 0.0
H3666 H 0.86462 0.49373 0.87491 0.0
H3667 H 0.86293 0.49177 0.88724 0.0
H3668 H 0.85433 0.49827 0.88071 0.0
H3669 H 0.89339 0.5251 0.88374 0.0
H3670 H 0.8958 0.51268 0.88297 0.0
H3671 H 0.89096 0.51869 0.87307 0.0
H3672 H 0.89796 0.48247 0.88021 0.0
H3673 H 0.88714 0.49267 0.85397 0.0
H3674 H 0.88077 0.49353 0.89474 0.0
H3675 H 0.89132 0.50035 0.89438 0.0
H3676 H 0.89205 0.48771 0.89477 0.0
H3677 H 0.8681 0.50407 0.86162 0.0
H3678 H 0.87721 0.50577 0.85302 0.0
H3679 H 0.87637 0.51344 0.86309 0.0
C3680 C 0.51209 0.89076 0.8629 0.0
C3681 C 0.52095 0.89228 0.86687 0.0
C3682 C 0.50528 0.88533 0.86752 0.0
C3683 C 0.50738 0.88132 0.87639 0.0
C3684 C 0.51649 0.88255 0.88027 0.0
C3685 C 0.52315 0.88812 0.87551 0.0
C3686 C 0.49573 0.88434 0.86301 0.0
C3687 C 0.5192 0.87793 0.88942 0.0
C3688 C 0.48793 0.87623 0.8941 0.0
C3689 C 0.4867 0.86648 0.89313 0.0
C3690 C 0.49444 0.88116 0.88852 0.0
C3691 C 0.49995 0.87624 0.88184 0.0
C3692 C 0.4985 0.86648 0.88057 0.0
C3693 C 0.4919 0.86174 0.88619 0.0
C3694 C 0.49557 0.89162 0.8899 0.0
C3695 C 0.50396 0.86102 0.8733 0.0
H3696 H 0.51039 0.89406 0.85624 0.0
H3697 H 0.53004 0.88929 0.87854 0.0
H3698 H 0.49224 0.87765 0.86489 0.0
H3699 H 0.49119 0.89021 0.86543 0.0
H3700 H 0.49625 0.88477 0.85523 0.0
H3701 H 0.52636 0.87998 0.89177 0.0
H3702 H 0.5141 0.87979 0.89502 0.0
H3703 H 0.51898 0.87018 0.88856 0.0
H3704 H 0.48386 0.88003 0.89929 0.0
H3705 H 0.49109 0.85421 0.88537 0.0
H3706 H 0.4951 0.8953 0.88304 0.0
H3707 H 0.50263 0.89311 0.89287 0.0
H3708 H 0.49018 0.89457 0.89471 0.0
H3709 H 0.50176 0.86328 0.86618 0.0
H3710 H 0.50281 0.85332 0.87391 0.0
H3711 H 0.5116 0.86247 0.87396 0.0
C3712 C 0.14349 0.12234 0.49052 0.0
C3713 C 0.13938 0.11444 0.48621 0.0
C3714 C 0.13836 0.12811 0.49669 0.0
C3715 C 0.12892 0.12583 0.49887 0.0
C3716 C 0.12458 0.11819 0.4942 0.0
C3717 C 0.12983 0.11262 0.48792 0.0
C3718 C 0.14329 0.13639 0.50112 0.0
C3719 C 0.11437 0.11586 0.49588 0.0
C3720 C 0.11845 0.13285 0.52257 0.0
C3721 C 0.11297 0.14063 0.52009 0.0
C3722 C 0.12385 0.1281 0.51575 0.0
C3723 C 0.12365 0.13117 0.50625 0.0
C3724 C 0.11823 0.13915 0.50383 0.0
C3725 C 0.11299 0.14379 0.51079 0.0
C3726 C 0.1297 0.11974 0.51864 0.0
C3727 C 0.11807 0.14302 0.49396 0.0
H3728 H 0.15085 0.12387 0.48936 0.0
H3729 H 0.12644 0.10677 0.48442 0.0
H3730 H 0.13836 0.14207 0.50313 0.0
H3731 H 0.14699 0.13398 0.50755 0.0
H3732 H 0.14864 0.13936 0.49627 0.0
H3733 H 0.11204 0.10961 0.49183 0.0
H3734 H 0.11316 0.11452 0.50347 0.0
H3735 H 0.10994 0.12195 0.49386 0.0
H3736 H 0.11845 0.13045 0.5298 0.0
H3737 H 0.10882 0.14989 0.50894 0.0
H3738 H 0.13716 0.12094 0.51668 0.0
H3739 H 0.12729 0.11338 0.51482 0.0
H3740 H 0.12931 0.11836 0.52631 0.0
H3741 H 0.12436 0.14752 0.49293 0.0
H3742 H 0.11174 0.1474 0.49269 0.0
H3743 H 0.11828 0.13734 0.48863 0.0
C3744 C 0.88561 0.13609 0.48459 0.0
C3745 C 0.89499 0.13853 0.48648 0.0
C3746 C 0.88024 0.13098 0.49114 0.0
C3747 C 0.88429 0.12839 0.49986 0.0
C3748 C 0.89375 0.1308 0.50177 0.0
C3749 C 0.89896 0.1358 0.49508 0.0
C3750 C 0.87021 0.12844 0.48876 0.0
C3751 C 0.89844 0.12798 0.51085 0.0
C3752 C 0.86843 0.12216 0.52054 0.0
C3753 C 0.86849 0.11227 0.5203 0.0
C3754 C 0.87344 0.12748 0.51387 0.0
C3755 C 0.87883 0.12285 0.5069 0.0
C3756 C 0.87919 0.11291 0.50681 0.0
C3757 C 0.87392 0.10779 0.51337 0.0
C3758 C 0.87288 0.13807 0.51422 0.0
C3759 C 0.88481 0.10746 0.49964 0.0
H3760 H 0.88246 0.13815 0.47796 0.0
H3761 H 0.90613 0.13778 0.49671 0.0
H3762 H 0.86864 0.12109 0.49081 0.0
H3763 H 0.86538 0.1331 0.49274 0.0
H3764 H 0.86872 0.12929 0.48115 0.0
H3765 H 0.9053 0.13157 0.51186 0.0
H3766 H 0.89386 0.12959 0.51695 0.0
H3767 H 0.89968 0.12028 0.51079 0.0
H3768 H 0.86445 0.12579 0.5259 0.0
H3769 H 0.87389 0.1002 0.51281 0.0
H3770 H 0.86903 0.14066 0.50795 0.0
H3771 H 0.88002 0.14119 0.51403 0.0
H3772 H 0.8692 0.14064 0.52061 0.0
H3773 H 0.87994 0.1046 0.49427 0.0
H3774 H 0.88834 0.10139 0.50305 0.0
H3775 H 0.89023 0.11173 0.49603 0.0
C3776 C 0.86323 0.89215 0.49562 0.0
C3777 C 0.86676 0.89298 0.48649 0.0
C3778 C 0.86778 0.8866 0.50236 0.0
C3779 C 0.87617 0.88183 0.49994 0.0
C3780 C 0.87957 0.88235 0.49057 0.0
C3781 C 0.87481 0.88794 0.48393 0.0
C3782 C 0.86373 0.88625 0.51215 0.0
C3783 C 0.88823 0.87699 0.48759 0.0
C3784 C 0.89449 0.8766 0.51875 0.0
C3785 C 0.89308 0.86698 0.52042 0.0
C3786 C 0.88888 0.88153 0.51228 0.0
C3787 C 0.88171 0.87676 0.50729 0.0
C3788 C 0.88 0.86715 0.5092 0.0
C3789 C 0.88569 0.86239 0.51573 0.0
C3790 C 0.89079 0.89183 0.51059 0.0
C3791 C 0.87219 0.86188 0.50433 0.0
H3792 H 0.85692 0.89599 0.49752 0.0
H3793 H 0.87742 0.88846 0.47679 0.0
H3794 H 0.86522 0.87949 0.51572 0.0
H3795 H 0.8669 0.89197 0.5164 0.0
H3796 H 0.856 0.88735 0.51204 0.0
H3797 H 0.89035 0.87864 0.48027 0.0
H3798 H 0.8942 0.8786 0.49235 0.0
H3799 H 0.88684 0.86933 0.48812 0.0
H3800 H 0.90003 0.88027 0.52245 0.0
H3801 H 0.88452 0.85496 0.5169 0.0
H3802 H 0.88419 0.89593 0.51123 0.0
H3803 H 0.89347 0.89282 0.50334 0.0
H3804 H 0.89603 0.89473 0.5156 0.0
H3805 H 0.86531 0.86471 0.50667 0.0
H3806 H 0.87237 0.85423 0.50589 0.0
H3807 H 0.87262 0.86288 0.49661 0.0
C3808 C 0.14313 0.88469 0.51707 0.0
C3809 C 0.13901 0.89267 0.5212 0.0
C3810 C 0.13806 0.87891 0.51085 0.0
C3811 C 0.12872 0.88131 0.50842 0.0
C3812 C 0.12436 0.88905 0.5129 0.0
C3813 C 0.12951 0.89457 0.51928 0.0
C3814 C 0.14295 0.87049 0.50664 0.0
C3815 C 0.11425 0.89156 0.51089 0.0
C3816 C 0.11871 0.87415 0.48458 0.0
C3817 C 0.11287 0.86664 0.48707 0.0
C3818 C 0.12407 0.87886 0.49145 0.0
C3819 C 0.12354 0.87598 0.50099 0.0
C3820 C 0.11779 0.86822 0.50343 0.0
C3821 C 0.11256 0.86366 0.49643 0.0
C3822 C 0.13023 0.88699 0.48857 0.0
C3823 C 0.11729 0.86454 0.51335 0.0
H3824 H 0.15045 0.88308 0.51838 0.0
H3825 H 0.12609 0.90047 0.52266 0.0
H3826 H 0.13797 0.86485 0.50464 0.0
H3827 H 0.1468 0.87274 0.50025 0.0
H3828 H 0.14817 0.86752 0.51164 0.0
H3829 H 0.11194 0.89795 0.51474 0.0
H3830 H 0.11327 0.89276 0.50324 0.0
H3831 H 0.10963 0.88562 0.51292 0.0
H3832 H 0.11897 0.8764 0.47731 0.0
H3833 H 0.10814 0.85774 0.49829 0.0
H3834 H 0.13761 0.8856 0.49069 0.0
H3835 H 0.12794 0.89347 0.49225 0.0
H3836 H 0.13004 0.88827 0.48087 0.0
H3837 H 0.12341 0.85986 0.51461 0.0
H3838 H 0.11079 0.86039 0.51454 0.0
H3839 H 0.11756 0.87029 0.5186 0.0
C3840 C 0.63268 0.01458 0.60768 0.0
C3841 C 0.6386 0.02124 0.61198 0.0
C3842 C 0.62764 0.00797 0.61297 0.0
C3843 C 0.6287 0.00773 0.62284 0.0
C3844 C 0.63467 0.01434 0.62729 0.0
C3845 C 0.63942 0.02108 0.62183 0.0
C3846 C 0.62116 0.99855 0.60796 0.0
C3847 C 0.63635 0.01417 0.63776 0.0
C3848 C 0.6087 0.994 0.63651 0.0
C3849 C 0.61205 0.98491 0.63824 0.0
C3850 C 0.61416 1.00063 0.63171 0.0
C3851 C 0.62321 0.99813 0.62846 0.0
C3852 C 0.62675 0.989 0.63031 0.0
C3853 C 0.62113 0.98249 0.6352 0.0
C3854 C 0.61021 0.01309 0.63021 0.0
C3855 C 0.6364 0.9861 0.62701 0.0
H3856 H 0.63209 0.01431 0.60011 0.0
H3857 H 0.64381 0.02619 0.62537 0.0
H3858 H 0.62275 0.99119 0.60999 0.0
H3859 H 0.6138 1.00001 0.61009 0.0
H3860 H 0.62165 0.99916 0.6002 0.0
H3861 H 0.63839 0.02122 0.64043 0.0
H3862 H 0.63011 0.01172 0.64173 0.0
H3863 H 0.64222 0.00926 0.63927 0.0
H3864 H 0.60183 0.99603 0.6391 0.0
H3865 H 0.62379 0.97549 0.63658 0.0
H3866 H 0.6098 0.01464 0.62259 0.0
H3867 H 0.61499 0.01836 0.63343 0.0
H3868 H 0.6031 0.01397 0.63332 0.0
H3869 H 0.63638 0.9854 0.61925 0.0
H3870 H 0.63864 0.97929 0.6301 0.0
H3871 H 0.64166 0.99155 0.62885 0.0
C3872 C 0.01723 0.60818 0.63026 0.0
C3873 C 0.02129 0.61141 0.63869 0.0
C3874 C 0.01043 0.61347 0.62542 0.0
C3875 C 0.00804 0.62257 0.62862 0.0
C3876 C 0.01252 0.62621 0.63671 0.0
C3877 C 0.01883 0.62052 0.64177 0.0
C3878 C 0.00572 0.60924 0.6169 0.0
C3879 C 0.01053 0.63599 0.64034 0.0
C3880 C 0.99459 0.63829 0.60996 0.0
C3881 C 0.98503 0.63806 0.61227 0.0
C3882 C 1.00129 0.6336 0.61543 0.0
C3883 C 0.99835 0.62829 0.6233 0.0
C3884 C 0.9887 0.62822 0.62585 0.0
C3885 C 0.98214 0.63319 0.62033 0.0
C3886 C 0.0142 0.6344 0.61283 0.0
C3887 C 0.9853 0.62269 0.63423 0.0
H3888 H 0.01922 0.60145 0.62737 0.0
H3889 H 0.02159 0.62328 0.64828 0.0
H3890 H 0.9953 0.60978 0.61758 0.0
H3891 H 0.00779 0.61318 0.61051 0.0
H3892 H 0.00761 0.60173 0.6159 0.0
H3893 H 0.01699 0.63915 0.64338 0.0
H3894 H 0.00782 0.64077 0.63482 0.0
H3895 H 0.00523 0.63554 0.64604 0.0
H3896 H 0.99685 0.64229 0.60387 0.0
H3897 H 0.97475 0.63311 0.62218 0.0
H3898 H 0.01696 0.62741 0.61076 0.0
H3899 H 0.01832 0.63682 0.619 0.0
H3900 H 0.01537 0.63937 0.60693 0.0
H3901 H 0.98574 0.61507 0.63261 0.0
H3902 H 0.97791 0.62443 0.63608 0.0
H3903 H 0.98981 0.62404 0.64043 0.0
C3904 C 0.39971 0.0144 0.63295 0.0
C3905 C 0.39542 0.02119 0.63873 0.0
C3906 C 0.39439 0.00779 0.62793 0.0
C3907 C 0.38449 0.00775 0.62878 0.0
C3908 C 0.38006 0.01454 0.63457 0.0
C3909 C 0.38556 0.02121 0.6394 0.0
C3910 C 0.39946 0.99816 0.62164 0.0
C3911 C 0.36955 0.01463 0.63599 0.0
C3912 C 0.3711 0.99405 0.60853 0.0
C3913 C 0.36904 0.98505 0.61196 0.0
C3914 C 0.37594 1.00064 0.61402 0.0
C3915 C 0.37889 0.9982 0.62318 0.0
C3916 C 0.37671 0.98917 0.6268 0.0
C3917 C 0.37178 0.98269 0.62114 0.0
C3918 C 0.37774 0.01299 0.61002 0.0
C3919 C 0.3797 0.98633 0.63657 0.0
H3920 H 0.40729 0.01405 0.63249 0.0
H3921 H 0.38207 0.02641 0.64371 0.0
H3922 H 0.39718 0.99088 0.62324 0.0
H3923 H 0.39761 0.9996 0.6142 0.0
H3924 H 0.40722 0.99855 0.62238 0.0
H3925 H 0.367 0.02176 0.63791 0.0
H3926 H 0.36568 0.01222 0.62967 0.0
H3927 H 0.36777 0.00981 0.64186 0.0
H3928 H 0.36873 0.99604 0.60157 0.0
H3929 H 0.37017 0.97577 0.62387 0.0
H3930 H 0.38542 0.01435 0.60983 0.0
H3931 H 0.37452 0.01841 0.61461 0.0
H3932 H 0.37488 0.01382 0.6028 0.0
H3933 H 0.38746 0.9855 0.63676 0.0
H3934 H 0.37644 0.97961 0.6388 0.0
H3935 H 0.37782 0.99188 0.64171 0.0
C3936 C 0.01243 0.36606 0.6113 0.0
C3937 C 0.022 0.36775 0.61273 0.0
C3938 C 0.00558 0.37057 0.61676 0.0
C3939 C 0.00837 0.37718 0.62365 0.0
C3940 C 0.01809 0.37873 0.6253 0.0
C3941 C 0.02483 0.37389 0.61988 0.0
C3942 C 0.99271 0.36843 0.61484 0.0
C3943 C 0.02137 0.38553 0.63276 0.0
C3944 C 0.98862 0.39688 0.62966 0.0
C3945 C 0.98545 0.3943 0.63865 0.0
C3946 C 0.99517 0.39137 0.62473 0.0
C3947 C 0.99847 0.38287 0.62871 0.0
C3948 C 0.99492 0.3799 0.6375 0.0
C3949 C 0.98858 0.38569 0.64241 0.0
C3950 C 0.99879 0.3948 0.61537 0.0
C3951 C 0.9978 0.3706 0.64171 0.0
H3952 H 0.01028 0.36119 0.60585 0.0
H3953 H 0.03226 0.37508 0.62106 0.0
H3954 H 0.98843 0.36869 0.62135 0.0
H3955 H 0.98988 0.37375 0.60988 0.0
H3956 H 0.99184 0.3614 0.61157 0.0
H3957 H 0.02904 0.38693 0.6323 0.0
H3958 H 0.01755 0.39231 0.63219 0.0
H3959 H 0.01983 0.38257 0.63981 0.0
H3960 H 0.98608 0.4033 0.62646 0.0
H3961 H 0.98633 0.38352 0.64934 0.0
H3962 H 0.99789 0.38928 0.60993 0.0
H3963 H 0.00909 0.39629 0.61594 0.0
H3964 H 0.99515 0.40128 0.61297 0.0
H3965 H 0.9954 0.3648 0.63708 0.0
H3966 H 0.99479 0.3695 0.64882 0.0
H3967 H 0.00823 0.37012 0.64218 0.0
C3968 C 0.6179 0.02458 0.37612 0.0
C3969 C 0.61088 0.02178 0.36981 0.0
C3970 C 0.6232 0.01784 0.38109 0.0
C3971 C 0.62164 0.00813 0.37943 0.0
C3972 C 0.61478 0.00535 0.37277 0.0
C3973 C 0.6094 0.0122 0.36817 0.0
C3974 C 0.63039 0.02109 0.38817 0.0
C3975 C 0.61292 0.99244 0.37065 0.0
C3976 C 0.64126 0.98896 0.38735 0.0
C3977 C 0.63771 0.98537 0.39587 0.0
C3978 C 0.63596 0.99514 0.38175 0.0
C3979 C 0.62701 0.99816 0.38485 0.0
C3980 C 0.62321 0.99431 0.39321 0.0
C3981 C 0.62854 0.98791 0.39852 0.0
C3982 C 0.64006 0.99855 0.37258 0.0
C3983 C 0.61367 0.99713 0.39691 0.0
H3984 H 0.61911 0.03201 0.37729 0.0
H3985 H 0.60407 0.01007 0.36317 0.0
H3986 H 0.62939 0.01737 0.39495 0.0
H3987 H 0.63754 0.01937 0.3856 0.0
H3988 H 0.63 0.02879 0.38945 0.0
H3989 H 0.6095 0.99155 0.36369 0.0
H3990 H 0.61947 0.98821 0.37075 0.0
H3991 H 0.60812 0.98959 0.37609 0.0
H3992 H 0.64832 0.9872 0.38514 0.0
H3993 H 0.6255 0.98502 0.40487 0.0
H3994 H 0.64257 0.00856 0.37345 0.0
H3995 H 0.63465 0.99858 0.36696 0.0
H3996 H 0.64605 0.99412 0.37024 0.0
H3997 H 0.61459 0.0052 0.40249 0.0
H3998 H 0.61008 0.991 0.40015 0.0
H3999 H 0.60899 1.00012 0.39145 0.0
C4000 C 0.9897 0.62048 0.36459 0.0
C4001 C 0.98463 0.61331 0.3691 0.0
C4002 C 0.99604 0.62621 0.36955 0.0
C4003 C 0.99751 0.62466 0.37927 0.0
C4004 C 0.99203 0.61783 0.38398 0.0
C4005 C 0.98568 0.61224 0.37886 0.0
C4006 C 1.00144 0.63358 0.36416 0.0
C4007 C 0.99292 0.61639 0.39446 0.0
C4008 C 0.0237 0.63051 0.39077 0.0
C4009 C 0.0217 0.63913 0.39507 0.0
C4010 C 0.01681 0.62587 0.38536 0.0
C4011 C 0.0077 0.62985 0.38447 0.0
C4012 C 0.00576 0.63861 0.38878 0.0
C4013 C 0.01282 0.64317 0.39393 0.0
C4014 C 0.01924 0.6167 0.38063 0.0
C4015 C 0.99363 0.64331 0.38785 0.0
H4016 H 0.98906 0.62139 0.35706 0.0
H4017 H 0.98161 0.60694 0.3825 0.0
H4018 H 0.00631 0.63955 0.36866 0.0
H4019 H 0.01051 0.6303 0.36115 0.0
H4020 H 0.99718 0.63637 0.35825 0.0
H4021 H 0.98822 0.61075 0.39709 0.0
H4022 H 1.00028 0.61456 0.39629 0.0
H4023 H 0.99119 0.62303 0.39816 0.0
H4024 H 0.0306 0.62741 0.39165 0.0
H4025 H 0.01134 0.64988 0.39724 0.0
H4026 H 0.01772 0.61717 0.37299 0.0
H4027 H 0.01481 0.61098 0.38353 0.0
H4028 H 0.02675 0.61477 0.38158 0.0
H4029 H 0.99329 0.64696 0.38097 0.0
H4030 H 0.9925 0.64863 0.39345 0.0
H4031 H 0.98782 0.63813 0.38811 0.0
C4032 C 0.36793 0.01198 0.39753 0.0
C4033 C 0.36806 0.02149 0.39502 0.0
C4034 C 0.37242 0.00516 0.39203 0.0
C4035 C 0.3775 0.00793 0.38394 0.0
C4036 C 0.37751 0.01754 0.38122 0.0
C4037 C 0.37265 0.0242 0.38672 0.0
C4038 C 0.37193 0.99232 0.39509 0.0
C4039 C 0.38264 0.02079 0.37253 0.0
C4040 C 0.39815 0.98968 0.37693 0.0
C4041 C 0.395 0.98538 0.36856 0.0
C4042 C 0.39261 0.99621 0.38184 0.0
C4043 C 0.38339 0.9982 0.37875 0.0
C4044 C 0.37982 0.99345 0.37079 0.0
C4045 C 0.38568 0.9873 0.3657 0.0
C4046 C 0.39678 1.00125 0.39021 0.0
C4047 C 0.36976 0.99484 0.36768 0.0
H4048 H 0.36416 0.00984 0.4038 0.0
H4049 H 0.3726 0.03153 0.38466 0.0
H4050 H 0.37158 0.98749 0.38898 0.0
H4051 H 0.37832 0.99055 0.39919 0.0
H4052 H 0.36571 0.99104 0.39963 0.0
H4053 H 0.38341 0.02856 0.37232 0.0
H4054 H 0.38973 0.01756 0.3721 0.0
H4055 H 0.37866 0.01856 0.3662 0.0
H4056 H 0.40501 0.9881 0.37973 0.0
H4057 H 0.38287 0.98424 0.35937 0.0
H4058 H 0.39224 1.00031 0.39647 0.0
H4059 H 0.39707 0.0116 0.38871 0.0
H4060 H 0.40396 0.99873 0.39193 0.0
H4061 H 0.36494 0.99249 0.37333 0.0
H4062 H 0.36809 0.99087 0.36117 0.0
H4063 H 0.36829 0.00511 0.36643 0.0
C4064 C 0.99027 0.36418 0.38727 0.0
C4065 C 0.98456 0.36887 0.3938 0.0
C4066 C 0.99672 0.36908 0.38163 0.0
C4067 C 0.99756 0.37895 0.38257 0.0
C4068 C 0.99144 0.3838 0.38875 0.0
C4069 C 0.98507 0.37871 0.39434 0.0
C4070 C 0.00558 0.36349 0.37508 0.0
C4071 C 0.99163 0.39439 0.38943 0.0
C4072 C 0.02331 0.39152 0.37732 0.0
C4073 C 0.02172 0.39485 0.36821 0.0
C4074 C 0.01648 0.38606 0.38195 0.0
C4075 C 0.00776 0.3842 0.37746 0.0
C4076 C 0.0062 0.38755 0.36822 0.0
C4077 C 0.01326 0.39271 0.36368 0.0
C4078 C 0.01854 0.38229 0.39164 0.0
C4079 C 0.99449 0.38562 0.36304 0.0
H4080 H 0.99003 0.35658 0.38684 0.0
H4081 H 0.98055 0.38243 0.39921 0.0
H4082 H 0.008 0.36766 0.36897 0.0
H4083 H 0.01186 0.36107 0.37901 0.0
H4084 H 0.99917 0.35717 0.37244 0.0
H4085 H 0.98643 0.39713 0.39457 0.0
H4086 H 0.99873 0.39682 0.39153 0.0
H4087 H 0.9901 0.39748 0.38244 0.0
H4088 H 0.02989 0.39317 0.38079 0.0
H4089 H 0.01208 0.39529 0.3566 0.0
H4090 H 0.0174 0.37458 0.39178 0.0
H4091 H 0.01363 0.38547 0.3968 0.0
H4092 H 0.02586 0.3838 0.3939 0.0
H4093 H 0.9947 0.37838 0.36017 0.0
H4094 H 0.99347 0.39056 0.35707 0.0
H4095 H 0.98833 0.38614 0.36778 0.0
C4096 C 0.64117 0.62117 0.98801 0.0
C4097 C 0.63776 0.61242 0.98486 0.0
C4098 C 0.63586 0.62694 0.99404 0.0
C4099 C 0.62707 0.62375 0.99742 0.0
C4100 C 0.62339 0.61516 0.99399 0.0
C4101 C 0.62868 0.60971 0.98766 0.0
C4102 C 0.6399 0.63631 0.99696 0.0
C4103 C 0.61386 0.61169 0.99709 0.0
C4104 C 0.6184 0.63271 0.02388 0.0
C4105 C 0.61112 0.63878 0.02121 0.0
C4106 C 0.62374 0.62791 0.01704 0.0
C4107 C 0.62186 0.6294 0.00735 0.0
C4108 C 0.61466 0.63559 1.00206 0.0
C4109 C 0.60943 0.64036 0.01166 0.0
C4110 C 0.63131 0.62117 0.02015 0.0
C4111 C 0.61278 0.63803 0.99192 0.0
H4112 H 0.64815 0.62348 0.98606 0.0
H4113 H 0.62568 0.60324 0.98501 0.0
H4114 H 0.63436 0.64148 0.99878 0.0
H4115 H 0.64453 0.63551 0.00584 0.0
H4116 H 0.64431 0.63932 0.99127 0.0
H4117 H 0.61216 0.60466 0.99415 0.0
H4118 H 0.61364 0.61152 0.00751 0.0
H4119 H 0.60837 0.61674 0.99481 0.0
H4120 H 0.61981 0.63162 0.03128 0.0
H4121 H 0.604 0.64531 0.00962 0.0
H4122 H 0.63821 0.62348 0.01735 0.0
H4123 H 0.62988 0.61407 0.01725 0.0
H4124 H 0.63182 0.62065 0.02792 0.0
H4125 H 0.6176 0.64378 0.98981 0.0
H4126 H 0.60546 0.64055 0.99091 0.0
H4127 H 0.61401 0.63199 0.98715 0.0
C4128 C 0.37557 0.60755 0.01528 0.0
C4129 C 0.36861 0.61154 0.02113 0.0
C4130 C 0.38072 0.61297 0.00883 0.0
C4131 C 0.37882 0.62266 0.00788 0.0
C4132 C 0.37194 0.62685 0.0137 0.0
C4133 C 0.36707 0.62132 0.0203 0.0
C4134 C 0.38814 0.60803 1.00033 0.0
C4135 C 0.3694 0.63713 0.01283 0.0
C4136 C 0.39831 0.6371 0.9945 0.0
C4137 C 0.39537 0.63805 0.98515 0.0
C4138 C 0.39283 0.63229 1.00113 0.0
C4139 C 0.38423 0.62815 0.99835 0.0
C4140 C 0.38109 0.62922 0.98895 0.0
C4141 C 0.38668 0.63419 0.98246 0.0
C4142 C 0.39627 0.632 0.01381 0.0
C4143 C 0.37191 0.62499 0.98574 0.0
H4144 H 0.377 0.60012 0.01545 0.0
H4145 H 0.36204 0.62487 0.02471 0.0
H4146 H 0.38691 0.60941 0.99276 0.0
H4147 H 0.39512 0.61101 1.00213 0.0
H4148 H 0.3884 0.60031 1.00145 0.0
H4149 H 0.36692 0.64001 0.01965 0.0
H4150 H 0.37535 0.64149 0.01032 0.0
H4151 H 0.36356 0.63784 0.00771 0.0
H4152 H 0.40485 0.64033 0.9967 0.0
H4153 H 0.38431 0.63498 0.97527 0.0
H4154 H 0.39737 0.62456 0.01584 0.0
H4155 H 0.39083 0.63495 0.01856 0.0
H4156 H 0.40293 0.63591 0.01492 0.0
H4157 H 0.3726 0.61722 0.98549 0.0
H4158 H 0.36983 0.62752 0.97866 0.0
H4159 H 0.36621 0.62667 0.99078 0.0
C4160 C 0.36682 0.38559 0.98747 0.0
C4161 C 0.36985 0.39467 0.98489 0.0
C4162 C 0.37214 0.37986 0.99351 0.0
C4163 C 0.38047 0.38343 0.99757 0.0
C4164 C 0.38378 0.39239 0.9948 0.0
C4165 C 0.37858 0.39777 0.98835 0.0
C4166 C 0.36861 0.37009 0.99567 0.0
C4167 C 0.39283 0.39632 0.99869 0.0
C4168 C 0.38839 0.37399 0.02397 0.0
C4169 C 0.39624 0.36864 0.02141 0.0
C4170 C 0.38316 0.37886 0.01711 0.0
C4171 C 0.38576 0.37818 0.0075 0.0
C4172 C 0.39344 0.37226 1.00228 0.0
C4173 C 0.39866 0.36785 0.01191 0.0
C4174 C 0.37494 0.38484 0.02012 0.0
C4175 C 0.39619 0.37069 0.99216 0.0
H4176 H 0.36012 0.38294 0.98504 0.0
H4177 H 0.38136 0.40449 0.98615 0.0
H4178 H 0.37441 0.36519 0.99746 0.0
H4179 H 0.36372 0.37043 1.00172 0.0
H4180 H 0.36468 0.36714 0.9896 0.0
H4181 H 0.39413 0.40366 0.99637 0.0
H4182 H 0.39276 0.39639 0.00913 0.0
H4183 H 0.39882 0.39189 0.99636 0.0
H4184 H 0.38648 0.37451 0.03133 0.0
H4185 H 0.40458 0.36348 0.00993 0.0
H4186 H 0.3684 0.38215 0.01685 0.0
H4187 H 0.37594 0.39217 0.01764 0.0
H4188 H 0.37401 0.38492 0.02787 0.0
H4189 H 0.39231 0.36449 0.98946 0.0
H4190 H 0.40383 0.36918 0.99153 0.0
H4191 H 0.39448 0.37677 0.98761 0.0
C4192 C 0.62889 0.39402 0.02292 0.0
C4193 C 0.63842 0.39613 0.0217 0.0
C4194 C 0.62403 0.38853 0.01625 0.0
C4195 C 0.62877 0.38532 0.00808 0.0
C4196 C 0.63844 0.38741 0.00691 0.0
C4197 C 0.64313 0.39272 0.01376 0.0
C4198 C 0.61385 0.38612 0.01795 0.0
C4199 C 0.64376 0.38428 0.99561 0.0
C4200 C 0.61817 0.36474 0.9916 0.0
C4201 C 0.61262 0.3694 0.98493 0.0
C4202 C 0.62355 0.36974 0.99819 0.0
C4203 C 0.62349 0.3797 0.99808 0.0
C4204 C 0.61827 0.38446 0.99105 0.0
C4205 C 0.61276 0.37926 0.98467 0.0
C4206 C 0.62913 0.36458 0.00811 0.0
C4207 C 0.61822 0.39504 0.99033 0.0
H4208 H 0.62527 0.39663 0.02909 0.0
H4209 H 0.65049 0.39446 0.01278 0.0
H4210 H 0.60946 0.38879 0.01209 0.0
H4211 H 0.613 0.37837 0.01815 0.0
H4212 H 0.61117 0.38911 0.02465 0.0
H4213 H 0.65134 0.38331 0.99722 0.0
H4214 H 0.64105 0.37769 0.99246 0.0
H4215 H 0.64315 0.38994 0.99028 0.0
H4216 H 0.61802 0.35713 0.99193 0.0
H4217 H 0.60853 0.38292 0.97951 0.0
H4218 H 0.62582 0.36557 0.0151 0.0
H4219 H 0.63644 0.36724 0.00857 0.0
H4220 H 0.62938 0.35693 0.00654 0.0
H4221 H 0.61232 0.39786 0.99459 0.0
H4222 H 0.61713 0.39734 0.98295 0.0
H4223 H 0.62485 0.39821 0.99295 0.0
loop_
_geom_bond_atom_site_label_1
_geom_bond_atom_site_label_2
_geom_bond_distance
_geom_bond_site_symmetry_2
_ccdc_geom_bond_type
C0 C1 1.264 . S
C0 C5 1.479 . S
C0 C10 1.465 . S
C1 C0 1.264 . S
C1 C3 1.339 . S
C1 H28 0.931 . S
C2 C3 1.395 . S
C2 C4 1.320 . S
C3 C1 1.339 . S
C3 C2 1.395 . S
C3 H29 0.929 . S
C4 C2 1.320 . S
C4 C5 1.405 . S
C4 H30 0.930 . S
C5 C0 1.479 . S
C5 C4 1.405 . S
C5 H31 0.931 . S
U6 O7 2.454 . S
U6 O8 2.458 . S
U6 C9 2.984 . S
U6 C10 2.847 . S
U6 C23 2.882 . S
U6 O24 2.441 . S
U6 O25 2.420 . S
U6 O26 2.455 . S
U6 O27 2.449 . S
O7 U6 2.454 . S
O7 C9 1.353 . S
O8 U6 2.458 . S
O8 C9 1.286 . S
C9 U6 2.984 . S
C9 O7 1.353 . S
C9 O8 1.286 . S
C9 C11 1.363 . S
C10 C0 1.465 . S
C10 U6 2.847 . S
C10 O24 1.249 . S
C10 O25 1.202 . S
C11 C9 1.363 . S
C11 C13 1.408 . S
C11 C16 1.342 . S
C12 C13 1.310 . S
C12 C15 1.461 . S
C12 H32 0.932 . S
C13 C11 1.408 . S
C13 C12 1.310 . S
C13 H33 0.930 . S
C14 C15 1.474 . S
C14 C16 1.285 . S
C14 H34 0.929 . S
C15 C12 1.461 . S
C15 C14 1.474 . S
C16 C11 1.342 . S
C16 C14 1.285 . S
C16 H35 0.930 . S
C17 C20 1.424 . S
C17 C22 1.245 . S
C17 C23 1.428 . S
C18 C21 1.260 . S
C18 C22 1.477 . S
C18 H36 0.932 . S
C19 C20 1.384 . S
C19 C21 1.479 . S
C19 H37 0.929 . S
C20 C17 1.424 . S
C20 C19 1.384 . S
C20 H38 0.928 . S
C21 C18 1.260 . S
C21 C19 1.479 . S
C22 C17 1.245 . S
C22 C18 1.477 . S
C22 H39 0.932 . S
C23 U6 2.882 . S
C23 C17 1.428 . S
C23 O26 1.301 . S
C23 O27 1.282 . S
O24 U6 2.441 . S
O24 C10 1.249 . S
O25 U6 2.420 . S
O25 C10 1.202 . S
O26 U6 2.455 . S
O26 C23 1.301 . S
O27 U6 2.449 . S
O27 C23 1.282 . S
H28 C1 0.931 . S
H29 C3 0.929 . S
H30 C4 0.930 . S
H31 C5 0.931 . S
H32 C12 0.932 . S
H33 C13 0.930 . S
H34 C14 0.929 . S
H35 C16 0.930 . S
H36 C18 0.932 . S
H37 C19 0.929 . S
H38 C20 0.928 . S
H39 C22 0.932 . S
C40 C41 1.264 . S
C40 C45 1.479 . S
C40 C50 1.465 . S
C41 C40 1.264 . S
C41 C43 1.339 . S
C41 H68 0.931 . S
C42 C43 1.395 . S
C42 C44 1.320 . S
C43 C41 1.339 . S
C43 C42 1.395 . S
C43 H69 0.929 . S
C44 C42 1.320 . S
C44 C45 1.405 . S
C44 H70 0.930 . S
C45 C40 1.479 . S
C45 C44 1.405 . S
C45 H71 0.931 . S
U46 O47 2.454 . S
U46 O48 2.458 . S
U46 C49 2.984 . S
U46 C50 2.847 . S
U46 C63 2.882 . S
U46 O64 2.441 . S
U46 O65 2.420 . S
U46 O66 2.455 . S
U46 O67 2.449 . S
O47 U46 2.454 . S
O47 C49 1.353 . S
O48 U46 2.458 . S
O48 C49 1.286 . S
C49 U46 2.984 . S
C49 O47 1.353 . S
C49 O48 1.286 . S
C49 C51 1.363 . S
C50 C40 1.465 . S
C50 U46 2.847 . S
C50 O64 1.249 . S
C50 O65 1.202 . S
C51 C49 1.363 . S
C51 C53 1.408 . S
C51 C56 1.342 . S
C52 C53 1.310 . S
C52 C55 1.461 . S
C52 H72 0.932 . S
C53 C51 1.408 . S
C53 C52 1.310 . S
C53 H73 0.930 . S
C54 C55 1.474 . S
C54 C56 1.285 . S
C54 H74 0.929 . S
C55 C52 1.461 . S
C55 C54 1.474 . S
C56 C51 1.342 . S
C56 C54 1.285 . S
C56 H75 0.930 . S
C57 C60 1.424 . S
C57 C62 1.245 . S
C57 C63 1.428 . S
C58 C61 1.260 . S
C58 C62 1.477 . S
C58 H76 0.932 . S
C59 C60 1.384 . S
C59 C61 1.479 . S
C59 H77 0.929 . S
C60 C57 1.424 . S
C60 C59 1.384 . S
C60 H78 0.928 . S
C61 C58 1.260 . S
C61 C59 1.479 . S
C62 C57 1.245 . S
C62 C58 1.477 . S
C62 H79 0.932 . S
C63 U46 2.882 . S
C63 C57 1.428 . S
C63 O66 1.301 . S
C63 O67 1.282 . S
O64 U46 2.441 . S
O64 C50 1.249 . S
O65 U46 2.420 . S
O65 C50 1.202 . S
O66 U46 2.455 . S
O66 C63 1.301 . S
O67 U46 2.449 . S
O67 C63 1.282 . S
H68 C41 0.931 . S
H69 C43 0.929 . S
H70 C44 0.930 . S
H71 C45 0.931 . S
H72 C52 0.932 . S
H73 C53 0.930 . S
H74 C54 0.929 . S
H75 C56 0.930 . S
H76 C58 0.932 . S
H77 C59 0.929 . S
H78 C60 0.928 . S
H79 C62 0.932 . S
C80 C81 1.264 . S
C80 C85 1.479 . S
C80 C90 1.465 . S
C81 C80 1.264 . S
C81 C83 1.339 . S
C81 H108 0.931 . S
C82 C83 1.395 . S
C82 C84 1.320 . S
C83 C81 1.339 . S
C83 C82 1.395 . S
C83 H109 0.929 . S
C84 C82 1.320 . S
C84 C85 1.405 . S
C84 H110 0.930 . S
C85 C80 1.479 . S
C85 C84 1.405 . S
C85 H111 0.931 . S
U86 O87 2.454 . S
U86 O88 2.458 . S
U86 C89 2.984 . S
U86 C90 2.847 . S
U86 C103 2.882 . S
U86 O104 2.441 . S
U86 O105 2.420 . S
U86 O106 2.455 . S
U86 O107 2.449 . S
O87 U86 2.454 . S
O87 C89 1.353 . S
O88 U86 2.458 . S
O88 C89 1.286 . S
C89 U86 2.984 . S
C89 O87 1.353 . S
C89 O88 1.286 . S
C89 C91 1.363 . S
C90 C80 1.465 . S
C90 U86 2.847 . S
C90 O104 1.249 . S
C90 O105 1.202 . S
C91 C89 1.363 . S
C91 C93 1.408 . S
C91 C96 1.342 . S
C92 C93 1.310 . S
C92 C95 1.461 . S
C92 H112 0.932 . S
C93 C91 1.408 . S
C93 C92 1.310 . S
C93 H113 0.930 . S
C94 C95 1.474 . S
C94 C96 1.285 . S
C94 H114 0.929 . S
C95 C92 1.461 . S
C95 C94 1.474 . S
C96 C91 1.342 . S
C96 C94 1.285 . S
C96 H115 0.930 . S
C97 C100 1.424 . S
C97 C102 1.245 . S
C97 C103 1.428 . S
C98 C101 1.260 . S
C98 C102 1.477 . S
C98 H116 0.932 . S
C99 C100 1.384 . S
C99 C101 1.479 . S
C99 H117 0.929 . S
C100 C97 1.424 . S
C100 C99 1.384 . S
C100 H118 0.928 . S
C101 C98 1.260 . S
C101 C99 1.479 . S
C102 C97 1.245 . S
C102 C98 1.477 . S
C102 H119 0.932 . S
C103 U86 2.882 . S
C103 C97 1.428 . S
C103 O106 1.301 . S
C103 O107 1.282 . S
O104 U86 2.441 . S
O104 C90 1.249 . S
O105 U86 2.420 . S
O105 C90 1.202 . S
O106 U86 2.455 . S
O106 C103 1.301 . S
O107 U86 2.449 . S
O107 C103 1.282 . S
H108 C81 0.931 . S
H109 C83 0.929 . S
H110 C84 0.930 . S
H111 C85 0.931 . S
H112 C92 0.932 . S
H113 C93 0.930 . S
H114 C94 0.929 . S
H115 C96 0.930 . S
H116 C98 0.932 . S
H117 C99 0.929 . S
H118 C100 0.928 . S
H119 C102 0.932 . S
C120 C121 1.264 . S
C120 C125 1.479 . S
C120 C130 1.465 . S
C121 C120 1.264 . S
C121 C123 1.339 . S
C121 H148 0.931 . S
C122 C123 1.395 . S
C122 C124 1.320 . S
C123 C121 1.339 . S
C123 C122 1.395 . S
C123 H149 0.929 . S
C124 C122 1.320 . S
C124 C125 1.405 . S
C124 H150 0.930 . S
C125 C120 1.479 . S
C125 C124 1.405 . S
C125 H151 0.931 . S
U126 O127 2.454 . S
U126 O128 2.458 . S
U126 C129 2.984 . S
U126 C130 2.847 . S
U126 C143 2.882 . S
U126 O144 2.441 . S
U126 O145 2.420 . S
U126 O146 2.455 . S
U126 O147 2.449 . S
O127 U126 2.454 . S
O127 C129 1.353 . S
O128 U126 2.458 . S
O128 C129 1.286 . S
C129 U126 2.984 . S
C129 O127 1.353 . S
C129 O128 1.286 . S
C129 C131 1.363 . S
C130 C120 1.465 . S
C130 U126 2.847 . S
C130 O144 1.249 . S
C130 O145 1.202 . S
C131 C129 1.363 . S
C131 C133 1.408 . S
C131 C136 1.342 . S
C132 C133 1.310 . S
C132 C135 1.461 . S
C132 H152 0.932 . S
C133 C131 1.408 . S
C133 C132 1.310 . S
C133 H153 0.930 . S
C134 C135 1.474 . S
C134 C136 1.285 . S
C134 H154 0.929 . S
C135 C132 1.461 . S
C135 C134 1.474 . S
C136 C131 1.342 . S
C136 C134 1.285 . S
C136 H155 0.930 . S
C137 C140 1.424 . S
C137 C142 1.245 . S
C137 C143 1.428 . S
C138 C141 1.260 . S
C138 C142 1.477 . S
C138 H156 0.932 . S
C139 C140 1.384 . S
C139 C141 1.479 . S
C139 H157 0.929 . S
C140 C137 1.424 . S
C140 C139 1.384 . S
C140 H158 0.928 . S
C141 C138 1.260 . S
C141 C139 1.479 . S
C142 C137 1.245 . S
C142 C138 1.477 . S
C142 H159 0.932 . S
C143 U126 2.882 . S
C143 C137 1.428 . S
C143 O146 1.301 . S
C143 O147 1.282 . S
O144 U126 2.441 . S
O144 C130 1.249 . S
O145 U126 2.420 . S
O145 C130 1.202 . S
O146 U126 2.455 . S
O146 C143 1.301 . S
O147 U126 2.449 . S
O147 C143 1.282 . S
H148 C121 0.931 . S
H149 C123 0.929 . S
H150 C124 0.930 . S
H151 C125 0.931 . S
H152 C132 0.932 . S
H153 C133 0.930 . S
H154 C134 0.929 . S
H155 C136 0.930 . S
H156 C138 0.932 . S
H157 C139 0.929 . S
H158 C140 0.928 . S
H159 C142 0.932 . S
C160 C161 1.264 . S
C160 C165 1.479 . S
C160 C170 1.465 . S
C161 C160 1.264 . S
C161 C163 1.339 . S
C161 H188 0.931 . S
C162 C163 1.395 . S
C162 C164 1.320 . S
C163 C161 1.339 . S
C163 C162 1.395 . S
C163 H189 0.929 . S
C164 C162 1.320 . S
C164 C165 1.405 . S
C164 H190 0.930 . S
C165 C160 1.479 . S
C165 C164 1.405 . S
C165 H191 0.931 . S
U166 O167 2.454 . S
U166 O168 2.458 . S
U166 C169 2.984 . S
U166 C170 2.847 . S
U166 C183 2.882 . S
U166 O184 2.441 . S
U166 O185 2.420 . S
U166 O186 2.455 . S
U166 O187 2.449 . S
O167 U166 2.454 . S
O167 C169 1.353 . S
O168 U166 2.458 . S
O168 C169 1.286 . S
C169 U166 2.984 . S
C169 O167 1.353 . S
C169 O168 1.286 . S
C169 C171 1.363 . S
C170 C160 1.465 . S
C170 U166 2.847 . S
C170 O184 1.249 . S
C170 O185 1.202 . S
C171 C169 1.363 . S
C171 C173 1.408 . S
C171 C176 1.342 . S
C172 C173 1.310 . S
C172 C175 1.461 . S
C172 H192 0.932 . S
C173 C171 1.408 . S
C173 C172 1.310 . S
C173 H193 0.930 . S
C174 C175 1.474 . S
C174 C176 1.285 . S
C174 H194 0.929 . S
C175 C172 1.461 . S
C175 C174 1.474 . S
C176 C171 1.342 . S
C176 C174 1.285 . S
C176 H195 0.930 . S
C177 C180 1.424 . S
C177 C182 1.245 . S
C177 C183 1.428 . S
C178 C181 1.260 . S
C178 C182 1.477 . S
C178 H196 0.932 . S
C179 C180 1.384 . S
C179 C181 1.479 . S
C179 H197 0.929 . S
C180 C177 1.424 . S
C180 C179 1.384 . S
C180 H198 0.928 . S
C181 C178 1.260 . S
C181 C179 1.479 . S
C182 C177 1.245 . S
C182 C178 1.477 . S
C182 H199 0.932 . S
C183 U166 2.882 . S
C183 C177 1.428 . S
C183 O186 1.301 . S
C183 O187 1.282 . S
O184 U166 2.441 . S
O184 C170 1.249 . S
O185 U166 2.420 . S
O185 C170 1.202 . S
O186 U166 2.455 . S
O186 C183 1.301 . S
O187 U166 2.449 . S
O187 C183 1.282 . S
H188 C161 0.931 . S
H189 C163 0.929 . S
H190 C164 0.930 . S
H191 C165 0.931 . S
H192 C172 0.932 . S
H193 C173 0.930 . S
H194 C174 0.929 . S
H195 C176 0.930 . S
H196 C178 0.932 . S
H197 C179 0.929 . S
H198 C180 0.928 . S
H199 C182 0.932 . S
C200 C201 1.264 . S
C200 C205 1.479 . S
C200 C210 1.465 . S
C201 C200 1.264 . S
C201 C203 1.339 . S
C201 H228 0.931 . S
C202 C203 1.395 . S
C202 C204 1.320 . S
C203 C201 1.339 . S
C203 C202 1.395 . S
C203 H229 0.929 . S
C204 C202 1.320 . S
C204 C205 1.405 . S
C204 H230 0.930 . S
C205 C200 1.479 . S
C205 C204 1.405 . S
C205 H231 0.931 . S
U206 O207 2.454 . S
U206 O208 2.458 . S
U206 C209 2.984 . S
U206 C210 2.847 . S
U206 C223 2.882 . S
U206 O224 2.441 . S
U206 O225 2.420 . S
U206 O226 2.455 . S
U206 O227 2.449 . S
O207 U206 2.454 . S
O207 C209 1.353 . S
O208 U206 2.458 . S
O208 C209 1.286 . S
C209 U206 2.984 . S
C209 O207 1.353 . S
C209 O208 1.286 . S
C209 C211 1.363 . S
C210 C200 1.465 . S
C210 U206 2.847 . S
C210 O224 1.249 . S
C210 O225 1.202 . S
C211 C209 1.363 . S
C211 C213 1.408 . S
C211 C216 1.342 . S
C212 C213 1.310 . S
C212 C215 1.461 . S
C212 H232 0.932 . S
C213 C211 1.408 . S
C213 C212 1.310 . S
C213 H233 0.930 . S
C214 C215 1.474 . S
C214 C216 1.285 . S
C214 H234 0.929 . S
C215 C212 1.461 . S
C215 C214 1.474 . S
C216 C211 1.342 . S
C216 C214 1.285 . S
C216 H235 0.930 . S
C217 C220 1.424 . S
C217 C222 1.245 . S
C217 C223 1.428 . S
C218 C221 1.260 . S
C218 C222 1.477 . S
C218 H236 0.932 . S
C219 C220 1.384 . S
C219 C221 1.479 . S
C219 H237 0.929 . S
C220 C217 1.424 . S
C220 C219 1.384 . S
C220 H238 0.928 . S
C221 C218 1.260 . S
C221 C219 1.479 . S
C222 C217 1.245 . S
C222 C218 1.477 . S
C222 H239 0.932 . S
C223 U206 2.882 . S
C223 C217 1.428 . S
C223 O226 1.301 . S
C223 O227 1.282 . S
O224 U206 2.441 . S
O224 C210 1.249 . S
O225 U206 2.420 . S
O225 C210 1.202 . S
O226 U206 2.455 . S
O226 C223 1.301 . S
O227 U206 2.449 . S
O227 C223 1.282 . S
H228 C201 0.931 . S
H229 C203 0.929 . S
H230 C204 0.930 . S
H231 C205 0.931 . S
H232 C212 0.932 . S
H233 C213 0.930 . S
H234 C214 0.929 . S
H235 C216 0.930 . S
H236 C218 0.932 . S
H237 C219 0.929 . S
H238 C220 0.928 . S
H239 C222 0.932 . S
C240 C241 1.264 . S
C240 C245 1.479 . S
C240 C250 1.465 . S
C241 C240 1.264 . S
C241 C243 1.339 . S
C241 H268 0.931 . S
C242 C243 1.395 . S
C242 C244 1.320 . S
C243 C241 1.339 . S
C243 C242 1.395 . S
C243 H269 0.929 . S
C244 C242 1.320 . S
C244 C245 1.405 . S
C244 H270 0.930 . S
C245 C240 1.479 . S
C245 C244 1.405 . S
C245 H271 0.931 . S
U246 O247 2.454 . S
U246 O248 2.458 . S
U246 C249 2.984 . S
U246 C250 2.847 . S
U246 C263 2.882 . S
U246 O264 2.441 . S
U246 O265 2.420 . S
U246 O266 2.455 . S
U246 O267 2.449 . S
O247 U246 2.454 . S
O247 C249 1.353 . S
O248 U246 2.458 . S
O248 C249 1.286 . S
C249 U246 2.984 . S
C249 O247 1.353 . S
C249 O248 1.286 . S
C249 C251 1.363 . S
C250 C240 1.465 . S
C250 U246 2.847 . S
C250 O264 1.249 . S
C250 O265 1.202 . S
C251 C249 1.363 . S
C251 C253 1.408 . S
C251 C256 1.342 . S
C252 C253 1.310 . S
C252 C255 1.461 . S
C252 H272 0.932 . S
C253 C251 1.408 . S
C253 C252 1.310 . S
C253 H273 0.930 . S
C254 C255 1.474 . S
C254 C256 1.285 . S
C254 H274 0.929 . S
C255 C252 1.461 . S
C255 C254 1.474 . S
C256 C251 1.342 . S
C256 C254 1.285 . S
C256 H275 0.930 . S
C257 C260 1.424 . S
C257 C262 1.245 . S
C257 C263 1.428 . S
C258 C261 1.260 . S
C258 C262 1.477 . S
C258 H276 0.932 . S
C259 C260 1.384 . S
C259 C261 1.479 . S
C259 H277 0.929 . S
C260 C257 1.424 . S
C260 C259 1.384 . S
C260 H278 0.928 . S
C261 C258 1.260 . S
C261 C259 1.479 . S
C262 C257 1.245 . S
C262 C258 1.477 . S
C262 H279 0.932 . S
C263 U246 2.882 . S
C263 C257 1.428 . S
C263 O266 1.301 . S
C263 O267 1.282 . S
O264 U246 2.441 . S
O264 C250 1.249 . S
O265 U246 2.420 . S
O265 C250 1.202 . S
O266 U246 2.455 . S
O266 C263 1.301 . S
O267 U246 2.449 . S
O267 C263 1.282 . S
H268 C241 0.931 . S
H269 C243 0.929 . S
H270 C244 0.930 . S
H271 C245 0.931 . S
H272 C252 0.932 . S
H273 C253 0.930 . S
H274 C254 0.929 . S
H275 C256 0.930 . S
H276 C258 0.932 . S
H277 C259 0.929 . S
H278 C260 0.928 . S
H279 C262 0.932 . S
C280 C281 1.264 . S
C280 C285 1.479 . S
C280 C290 1.465 . S
C281 C280 1.264 . S
C281 C283 1.339 . S
C281 H308 0.931 . S
C282 C283 1.395 . S
C282 C284 1.320 . S
C283 C281 1.339 . S
C283 C282 1.395 . S
C283 H309 0.929 . S
C284 C282 1.320 . S
C284 C285 1.405 . S
C284 H310 0.930 . S
C285 C280 1.479 . S
C285 C284 1.405 . S
C285 H311 0.931 . S
U286 O287 2.454 . S
U286 O288 2.458 . S
U286 C289 2.984 . S
U286 C290 2.847 . S
U286 C303 2.882 . S
U286 O304 2.441 . S
U286 O305 2.420 . S
U286 O306 2.455 . S
U286 O307 2.449 . S
O287 U286 2.454 . S
O287 C289 1.353 . S
O288 U286 2.458 . S
O288 C289 1.286 . S
C289 U286 2.984 . S
C289 O287 1.353 . S
C289 O288 1.286 . S
C289 C291 1.363 . S
C290 C280 1.465 . S
C290 U286 2.847 . S
C290 O304 1.249 . S
C290 O305 1.202 . S
C291 C289 1.363 . S
C291 C293 1.408 . S
C291 C296 1.342 . S
C292 C293 1.310 . S
C292 C295 1.461 . S
C292 H312 0.932 . S
C293 C291 1.408 . S
C293 C292 1.310 . S
C293 H313 0.930 . S
C294 C295 1.474 . S
C294 C296 1.285 . S
C294 H314 0.929 . S
C295 C292 1.461 . S
C295 C294 1.474 . S
C296 C291 1.342 . S
C296 C294 1.285 . S
C296 H315 0.930 . S
C297 C300 1.424 . S
C297 C302 1.245 . S
C297 C303 1.428 . S
C298 C301 1.260 . S
C298 C302 1.477 . S
C298 H316 0.932 . S
C299 C300 1.384 . S
C299 C301 1.479 . S
C299 H317 0.929 . S
C300 C297 1.424 . S
C300 C299 1.384 . S
C300 H318 0.928 . S
C301 C298 1.260 . S
C301 C299 1.479 . S
C302 C297 1.245 . S
C302 C298 1.477 . S
C302 H319 0.932 . S
C303 U286 2.882 . S
C303 C297 1.428 . S
C303 O306 1.301 . S
C303 O307 1.282 . S
O304 U286 2.441 . S
O304 C290 1.249 . S
O305 U286 2.420 . S
O305 C290 1.202 . S
O306 U286 2.455 . S
O306 C303 1.301 . S
O307 U286 2.449 . S
O307 C303 1.282 . S
H308 C281 0.931 . S
H309 C283 0.929 . S
H310 C284 0.930 . S
H311 C285 0.931 . S
H312 C292 0.932 . S
H313 C293 0.930 . S
H314 C294 0.929 . S
H315 C296 0.930 . S
H316 C298 0.932 . S
H317 C299 0.929 . S
H318 C300 0.928 . S
H319 C302 0.932 . S
C320 C321 1.264 . S
C320 C325 1.479 . S
C320 C330 1.465 . S
C321 C320 1.264 . S
C321 C323 1.339 . S
C321 H348 0.931 . S
C322 C323 1.395 . S
C322 C324 1.320 . S
C323 C321 1.339 . S
C323 C322 1.395 . S
C323 H349 0.929 . S
C324 C322 1.320 . S
C324 C325 1.405 . S
C324 H350 0.930 . S
C325 C320 1.479 . S
C325 C324 1.405 . S
C325 H351 0.931 . S
U326 O327 2.454 . S
U326 O328 2.458 . S
U326 C329 2.984 . S
U326 C330 2.847 . S
U326 C343 2.882 . S
U326 O344 2.441 . S
U326 O345 2.420 . S
U326 O346 2.455 . S
U326 O347 2.449 . S
O327 U326 2.454 . S
O327 C329 1.353 . S
O328 U326 2.458 . S
O328 C329 1.286 . S
C329 U326 2.984 . S
C329 O327 1.353 . S
C329 O328 1.286 . S
C329 C331 1.363 . S
C330 C320 1.465 . S
C330 U326 2.847 . S
C330 O344 1.249 . S
C330 O345 1.202 . S
C331 C329 1.363 . S
C331 C333 1.408 . S
C331 C336 1.342 . S
C332 C333 1.310 . S
C332 C335 1.461 . S
C332 H352 0.932 . S
C333 C331 1.408 . S
C333 C332 1.310 . S
C333 H353 0.930 . S
C334 C335 1.474 . S
C334 C336 1.285 . S
C334 H354 0.929 . S
C335 C332 1.461 . S
C335 C334 1.474 . S
C336 C331 1.342 . S
C336 C334 1.285 . S
C336 H355 0.930 . S
C337 C340 1.424 . S
C337 C342 1.245 . S
C337 C343 1.428 . S
C338 C341 1.260 . S
C338 C342 1.477 . S
C338 H356 0.932 . S
C339 C340 1.384 . S
C339 C341 1.479 . S
C339 H357 0.929 . S
C340 C337 1.424 . S
C340 C339 1.384 . S
C340 H358 0.928 . S
C341 C338 1.260 . S
C341 C339 1.479 . S
C342 C337 1.245 . S
C342 C338 1.477 . S
C342 H359 0.932 . S
C343 U326 2.882 . S
C343 C337 1.428 . S
C343 O346 1.301 . S
C343 O347 1.282 . S
O344 U326 2.441 . S
O344 C330 1.249 . S
O345 U326 2.420 . S
O345 C330 1.202 . S
O346 U326 2.455 . S
O346 C343 1.301 . S
O347 U326 2.449 . S
O347 C343 1.282 . S
H348 C321 0.931 . S
H349 C323 0.929 . S
H350 C324 0.930 . S
H351 C325 0.931 . S
H352 C332 0.932 . S
H353 C333 0.930 . S
H354 C334 0.929 . S
H355 C336 0.930 . S
H356 C338 0.932 . S
H357 C339 0.929 . S
H358 C340 0.928 . S
H359 C342 0.932 . S
C360 C361 1.264 . S
C360 C365 1.479 . S
C360 C370 1.465 . S
C361 C360 1.264 . S
C361 C363 1.339 . S
C361 H388 0.931 . S
C362 C363 1.395 . S
C362 C364 1.320 . S
C363 C361 1.339 . S
C363 C362 1.395 . S
C363 H389 0.929 . S
C364 C362 1.320 . S
C364 C365 1.405 . S
C364 H390 0.930 . S
C365 C360 1.479 . S
C365 C364 1.405 . S
C365 H391 0.931 . S
U366 O367 2.454 . S
U366 O368 2.458 . S
U366 C369 2.984 . S
U366 C370 2.847 . S
U366 C383 2.882 . S
U366 O384 2.441 . S
U366 O385 2.420 . S
U366 O386 2.455 . S
U366 O387 2.449 . S
O367 U366 2.454 . S
O367 C369 1.353 . S
O368 U366 2.458 . S
O368 C369 1.286 . S
C369 U366 2.984 . S
C369 O367 1.353 . S
C369 O368 1.286 . S
C369 C371 1.363 . S
C370 C360 1.465 . S
C370 U366 2.847 . S
C370 O384 1.249 . S
C370 O385 1.202 . S
C371 C369 1.363 . S
C371 C373 1.408 . S
C371 C376 1.342 . S
C372 C373 1.310 . S
C372 C375 1.461 . S
C372 H392 0.932 . S
C373 C371 1.408 . S
C373 C372 1.310 . S
C373 H393 0.930 . S
C374 C375 1.474 . S
C374 C376 1.285 . S
C374 H394 0.929 . S
C375 C372 1.461 . S
C375 C374 1.474 . S
C376 C371 1.342 . S
C376 C374 1.285 . S
C376 H395 0.930 . S
C377 C380 1.424 . S
C377 C382 1.245 . S
C377 C383 1.428 . S
C378 C381 1.260 . S
C378 C382 1.477 . S
C378 H396 0.932 . S
C379 C380 1.384 . S
C379 C381 1.479 . S
C379 H397 0.929 . S
C380 C377 1.424 . S
C380 C379 1.384 . S
C380 H398 0.928 . S
C381 C378 1.260 . S
C381 C379 1.479 . S
C382 C377 1.245 . S
C382 C378 1.477 . S
C382 H399 0.932 . S
C383 U366 2.882 . S
C383 C377 1.428 . S
C383 O386 1.301 . S
C383 O387 1.282 . S
O384 U366 2.441 . S
O384 C370 1.249 . S
O385 U366 2.420 . S
O385 C370 1.202 . S
O386 U366 2.455 . S
O386 C383 1.301 . S
O387 U366 2.449 . S
O387 C383 1.282 . S
H388 C361 0.931 . S
H389 C363 0.929 . S
H390 C364 0.930 . S
H391 C365 0.931 . S
H392 C372 0.932 . S
H393 C373 0.930 . S
H394 C374 0.929 . S
H395 C376 0.930 . S
H396 C378 0.932 . S
H397 C379 0.929 . S
H398 C380 0.928 . S
H399 C382 0.932 . S
C400 C401 1.264 . S
C400 C405 1.479 . S
C400 C410 1.465 . S
C401 C400 1.264 . S
C401 C403 1.339 . S
C401 H428 0.931 . S
C402 C403 1.395 . S
C402 C404 1.320 . S
C403 C401 1.339 . S
C403 C402 1.395 . S
C403 H429 0.929 . S
C404 C402 1.320 . S
C404 C405 1.405 . S
C404 H430 0.930 . S
C405 C400 1.479 . S
C405 C404 1.405 . S
C405 H431 0.931 . S
U406 O407 2.454 . S
U406 O408 2.458 . S
U406 C409 2.984 . S
U406 C410 2.847 . S
U406 C423 2.882 . S
U406 O424 2.441 . S
U406 O425 2.420 . S
U406 O426 2.455 . S
U406 O427 2.449 . S
O407 U406 2.454 . S
O407 C409 1.353 . S
O408 U406 2.458 . S
O408 C409 1.286 . S
C409 U406 2.984 . S
C409 O407 1.353 . S
C409 O408 1.286 . S
C409 C411 1.363 . S
C410 C400 1.465 . S
C410 U406 2.847 . S
C410 O424 1.249 . S
C410 O425 1.202 . S
C411 C409 1.363 . S
C411 C413 1.408 . S
C411 C416 1.342 . S
C412 C413 1.310 . S
C412 C415 1.461 . S
C412 H432 0.932 . S
C413 C411 1.408 . S
C413 C412 1.310 . S
C413 H433 0.930 . S
C414 C415 1.474 . S
C414 C416 1.285 . S
C414 H434 0.929 . S
C415 C412 1.461 . S
C415 C414 1.474 . S
C416 C411 1.342 . S
C416 C414 1.285 . S
C416 H435 0.930 . S
C417 C420 1.424 . S
C417 C422 1.245 . S
C417 C423 1.428 . S
C418 C421 1.260 . S
C418 C422 1.477 . S
C418 H436 0.932 . S
C419 C420 1.384 . S
C419 C421 1.479 . S
C419 H437 0.929 . S
C420 C417 1.424 . S
C420 C419 1.384 . S
C420 H438 0.928 . S
C421 C418 1.260 . S
C421 C419 1.479 . S
C422 C417 1.245 . S
C422 C418 1.477 . S
C422 H439 0.932 . S
C423 U406 2.882 . S
C423 C417 1.428 . S
C423 O426 1.301 . S
C423 O427 1.282 . S
O424 U406 2.441 . S
O424 C410 1.249 . S
O425 U406 2.420 . S
O425 C410 1.202 . S
O426 U406 2.455 . S
O426 C423 1.301 . S
O427 U406 2.449 . S
O427 C423 1.282 . S
H428 C401 0.931 . S
H429 C403 0.929 . S
H430 C404 0.930 . S
H431 C405 0.931 . S
H432 C412 0.932 . S
H433 C413 0.930 . S
H434 C414 0.929 . S
H435 C416 0.930 . S
H436 C418 0.932 . S
H437 C419 0.929 . S
H438 C420 0.928 . S
H439 C422 0.932 . S
C440 C441 1.264 . S
C440 C445 1.479 . S
C440 C450 1.465 . S
C441 C440 1.264 . S
C441 C443 1.339 . S
C441 H468 0.931 . S
C442 C443 1.395 . S
C442 C444 1.320 . S
C443 C441 1.339 . S
C443 C442 1.395 . S
C443 H469 0.929 . S
C444 C442 1.320 . S
C444 C445 1.405 . S
C444 H470 0.930 . S
C445 C440 1.479 . S
C445 C444 1.405 . S
C445 H471 0.931 . S
U446 O447 2.454 . S
U446 O448 2.458 . S
U446 C449 2.984 . S
U446 C450 2.847 . S
U446 C463 2.882 . S
U446 O464 2.441 . S
U446 O465 2.420 . S
U446 O466 2.455 . S
U446 O467 2.449 . S
O447 U446 2.454 . S
O447 C449 1.353 . S
O448 U446 2.458 . S
O448 C449 1.286 . S
C449 U446 2.984 . S
C449 O447 1.353 . S
C449 O448 1.286 . S
C449 C451 1.363 . S
C450 C440 1.465 . S
C450 U446 2.847 . S
C450 O464 1.249 . S
C450 O465 1.202 . S
C451 C449 1.363 . S
C451 C453 1.408 . S
C451 C456 1.342 . S
C452 C453 1.310 . S
C452 C455 1.461 . S
C452 H472 0.932 . S
C453 C451 1.408 . S
C453 C452 1.310 . S
C453 H473 0.930 . S
C454 C455 1.474 . S
C454 C456 1.285 . S
C454 H474 0.929 . S
C455 C452 1.461 . S
C455 C454 1.474 . S
C456 C451 1.342 . S
C456 C454 1.285 . S
C456 H475 0.930 . S
C457 C460 1.424 . S
C457 C462 1.245 . S
C457 C463 1.428 . S
C458 C461 1.260 . S
C458 C462 1.477 . S
C458 H476 0.932 . S
C459 C460 1.384 . S
C459 C461 1.479 . S
C459 H477 0.929 . S
C460 C457 1.424 . S
C460 C459 1.384 . S
C460 H478 0.928 . S
C461 C458 1.260 . S
C461 C459 1.479 . S
C462 C457 1.245 . S
C462 C458 1.477 . S
C462 H479 0.932 . S
C463 U446 2.882 . S
C463 C457 1.428 . S
C463 O466 1.301 . S
C463 O467 1.282 . S
O464 U446 2.441 . S
O464 C450 1.249 . S
O465 U446 2.420 . S
O465 C450 1.202 . S
O466 U446 2.455 . S
O466 C463 1.301 . S
O467 U446 2.449 . S
O467 C463 1.282 . S
H468 C441 0.931 . S
H469 C443 0.929 . S
H470 C444 0.930 . S
H471 C445 0.931 . S
H472 C452 0.932 . S
H473 C453 0.930 . S
H474 C454 0.929 . S
H475 C456 0.930 . S
H476 C458 0.932 . S
H477 C459 0.929 . S
H478 C460 0.928 . S
H479 C462 0.932 . S
C480 C481 1.264 . S
C480 C485 1.479 . S
C480 C490 1.465 . S
C481 C480 1.264 . S
C481 C483 1.339 . S
C481 H508 0.931 . S
C482 C483 1.395 . S
C482 C484 1.320 . S
C483 C481 1.339 . S
C483 C482 1.395 . S
C483 H509 0.929 . S
C484 C482 1.320 . S
C484 C485 1.405 . S
C484 H510 0.930 . S
C485 C480 1.479 . S
C485 C484 1.405 . S
C485 H511 0.931 . S
U486 O487 2.454 . S
U486 O488 2.458 . S
U486 C489 2.984 . S
U486 C490 2.847 . S
U486 C503 2.882 . S
U486 O504 2.441 . S
U486 O505 2.420 . S
U486 O506 2.455 . S
U486 O507 2.449 . S
O487 U486 2.454 . S
O487 C489 1.353 . S
O488 U486 2.458 . S
O488 C489 1.286 . S
C489 U486 2.984 . S
C489 O487 1.353 . S
C489 O488 1.286 . S
C489 C491 1.363 . S
C490 C480 1.465 . S
C490 U486 2.847 . S
C490 O504 1.249 . S
C490 O505 1.202 . S
C491 C489 1.363 . S
C491 C493 1.408 . S
C491 C496 1.342 . S
C492 C493 1.310 . S
C492 C495 1.461 . S
C492 H512 0.932 . S
C493 C491 1.408 . S
C493 C492 1.310 . S
C493 H513 0.930 . S
C494 C495 1.474 . S
C494 C496 1.285 . S
C494 H514 0.929 . S
C495 C492 1.461 . S
C495 C494 1.474 . S
C496 C491 1.342 . S
C496 C494 1.285 . S
C496 H515 0.930 . S
C497 C500 1.424 . S
C497 C502 1.245 . S
C497 C503 1.428 . S
C498 C501 1.260 . S
C498 C502 1.477 . S
C498 H516 0.932 . S
C499 C500 1.384 . S
C499 C501 1.479 . S
C499 H517 0.929 . S
C500 C497 1.424 . S
C500 C499 1.384 . S
C500 H518 0.928 . S
C501 C498 1.260 . S
C501 C499 1.479 . S
C502 C497 1.245 . S
C502 C498 1.477 . S
C502 H519 0.932 . S
C503 U486 2.882 . S
C503 C497 1.428 . S
C503 O506 1.301 . S
C503 O507 1.282 . S
O504 U486 2.441 . S
O504 C490 1.249 . S
O505 U486 2.420 . S
O505 C490 1.202 . S
O506 U486 2.455 . S
O506 C503 1.301 . S
O507 U486 2.449 . S
O507 C503 1.282 . S
H508 C481 0.931 . S
H509 C483 0.929 . S
H510 C484 0.930 . S
H511 C485 0.931 . S
H512 C492 0.932 . S
H513 C493 0.930 . S
H514 C494 0.929 . S
H515 C496 0.930 . S
H516 C498 0.932 . S
H517 C499 0.929 . S
H518 C500 0.928 . S
H519 C502 0.932 . S
C520 C521 1.264 . S
C520 C525 1.479 . S
C520 C530 1.465 . S
C521 C520 1.264 . S
C521 C523 1.339 . S
C521 H548 0.931 . S
C522 C523 1.395 . S
C522 C524 1.320 . S
C523 C521 1.339 . S
C523 C522 1.395 . S
C523 H549 0.929 . S
C524 C522 1.320 . S
C524 C525 1.405 . S
C524 H550 0.930 . S
C525 C520 1.479 . S
C525 C524 1.405 . S
C525 H551 0.931 . S
U526 O527 2.454 . S
U526 O528 2.458 . S
U526 C529 2.984 . S
U526 C530 2.847 . S
U526 C543 2.882 . S
U526 O544 2.441 . S
U526 O545 2.420 . S
U526 O546 2.455 . S
U526 O547 2.449 . S
O527 U526 2.454 . S
O527 C529 1.353 . S
O528 U526 2.458 . S
O528 C529 1.286 . S
C529 U526 2.984 . S
C529 O527 1.353 . S
C529 O528 1.286 . S
C529 C531 1.363 . S
C530 C520 1.465 . S
C530 U526 2.847 . S
C530 O544 1.249 . S
C530 O545 1.202 . S
C531 C529 1.363 . S
C531 C533 1.408 . S
C531 C536 1.342 . S
C532 C533 1.310 . S
C532 C535 1.461 . S
C532 H552 0.932 . S
C533 C531 1.408 . S
C533 C532 1.310 . S
C533 H553 0.930 . S
C534 C535 1.474 . S
C534 C536 1.285 . S
C534 H554 0.929 . S
C535 C532 1.461 . S
C535 C534 1.474 . S
C536 C531 1.342 . S
C536 C534 1.285 . S
C536 H555 0.930 . S
C537 C540 1.424 . S
C537 C542 1.245 . S
C537 C543 1.428 . S
C538 C541 1.260 . S
C538 C542 1.477 . S
C538 H556 0.932 . S
C539 C540 1.384 . S
C539 C541 1.479 . S
C539 H557 0.929 . S
C540 C537 1.424 . S
C540 C539 1.384 . S
C540 H558 0.928 . S
C541 C538 1.260 . S
C541 C539 1.479 . S
C542 C537 1.245 . S
C542 C538 1.477 . S
C542 H559 0.932 . S
C543 U526 2.882 . S
C543 C537 1.428 . S
C543 O546 1.301 . S
C543 O547 1.282 . S
O544 U526 2.441 . S
O544 C530 1.249 . S
O545 U526 2.420 . S
O545 C530 1.202 . S
O546 U526 2.455 . S
O546 C543 1.301 . S
O547 U526 2.449 . S
O547 C543 1.282 . S
H548 C521 0.931 . S
H549 C523 0.929 . S
H550 C524 0.930 . S
H551 C525 0.931 . S
H552 C532 0.932 . S
H553 C533 0.930 . S
H554 C534 0.929 . S
H555 C536 0.930 . S
H556 C538 0.932 . S
H557 C539 0.929 . S
H558 C540 0.928 . S
H559 C542 0.932 . S
C560 C561 1.264 . S
C560 C565 1.479 . S
C560 C570 1.465 . S
C561 C560 1.264 . S
C561 C563 1.339 . S
C561 H588 0.931 . S
C562 C563 1.395 . S
C562 C564 1.320 . S
C563 C561 1.339 . S
C563 C562 1.395 . S
C563 H589 0.929 . S
C564 C562 1.320 . S
C564 C565 1.405 . S
C564 H590 0.930 . S
C565 C560 1.479 . S
C565 C564 1.405 . S
C565 H591 0.931 . S
U566 O567 2.454 . S
U566 O568 2.458 . S
U566 C569 2.984 . S
U566 C570 2.847 . S
U566 C583 2.882 . S
U566 O584 2.441 . S
U566 O585 2.420 . S
U566 O586 2.455 . S
U566 O587 2.449 . S
O567 U566 2.454 . S
O567 C569 1.353 . S
O568 U566 2.458 . S
O568 C569 1.286 . S
C569 U566 2.984 . S
C569 O567 1.353 . S
C569 O568 1.286 . S
C569 C571 1.363 . S
C570 C560 1.465 . S
C570 U566 2.847 . S
C570 O584 1.249 . S
C570 O585 1.202 . S
C571 C569 1.363 . S
C571 C573 1.408 . S
C571 C576 1.342 . S
C572 C573 1.310 . S
C572 C575 1.461 . S
C572 H592 0.932 . S
C573 C571 1.408 . S
C573 C572 1.310 . S
C573 H593 0.930 . S
C574 C575 1.474 . S
C574 C576 1.285 . S
C574 H594 0.929 . S
C575 C572 1.461 . S
C575 C574 1.474 . S
C576 C571 1.342 . S
C576 C574 1.285 . S
C576 H595 0.930 . S
C577 C580 1.424 . S
C577 C582 1.245 . S
C577 C583 1.428 . S
C578 C581 1.260 . S
C578 C582 1.477 . S
C578 H596 0.932 . S
C579 C580 1.384 . S
C579 C581 1.479 . S
C579 H597 0.929 . S
C580 C577 1.424 . S
C580 C579 1.384 . S
C580 H598 0.928 . S
C581 C578 1.260 . S
C581 C579 1.479 . S
C582 C577 1.245 . S
C582 C578 1.477 . S
C582 H599 0.932 . S
C583 U566 2.882 . S
C583 C577 1.428 . S
C583 O586 1.301 . S
C583 O587 1.282 . S
O584 U566 2.441 . S
O584 C570 1.249 . S
O585 U566 2.420 . S
O585 C570 1.202 . S
O586 U566 2.455 . S
O586 C583 1.301 . S
O587 U566 2.449 . S
O587 C583 1.282 . S
H588 C561 0.931 . S
H589 C563 0.929 . S
H590 C564 0.930 . S
H591 C565 0.931 . S
H592 C572 0.932 . S
H593 C573 0.930 . S
H594 C574 0.929 . S
H595 C576 0.930 . S
H596 C578 0.932 . S
H597 C579 0.929 . S
H598 C580 0.928 . S
H599 C582 0.932 . S
C600 C601 1.264 . S
C600 C605 1.479 . S
C600 C610 1.465 . S
C601 C600 1.264 . S
C601 C603 1.339 . S
C601 H628 0.931 . S
C602 C603 1.395 . S
C602 C604 1.320 . S
C603 C601 1.339 . S
C603 C602 1.395 . S
C603 H629 0.929 . S
C604 C602 1.320 . S
C604 C605 1.405 . S
C604 H630 0.930 . S
C605 C600 1.479 . S
C605 C604 1.405 . S
C605 H631 0.931 . S
U606 O607 2.454 . S
U606 O608 2.458 . S
U606 C609 2.984 . S
U606 C610 2.847 . S
U606 C623 2.882 . S
U606 O624 2.441 . S
U606 O625 2.420 . S
U606 O626 2.455 . S
U606 O627 2.449 . S
O607 U606 2.454 . S
O607 C609 1.353 . S
O608 U606 2.458 . S
O608 C609 1.286 . S
C609 U606 2.984 . S
C609 O607 1.353 . S
C609 O608 1.286 . S
C609 C611 1.363 . S
C610 C600 1.465 . S
C610 U606 2.847 . S
C610 O624 1.249 . S
C610 O625 1.202 . S
C611 C609 1.363 . S
C611 C613 1.408 . S
C611 C616 1.342 . S
C612 C613 1.310 . S
C612 C615 1.461 . S
C612 H632 0.932 . S
C613 C611 1.408 . S
C613 C612 1.310 . S
C613 H633 0.930 . S
C614 C615 1.474 . S
C614 C616 1.285 . S
C614 H634 0.929 . S
C615 C612 1.461 . S
C615 C614 1.474 . S
C616 C611 1.342 . S
C616 C614 1.285 . S
C616 H635 0.930 . S
C617 C620 1.424 . S
C617 C622 1.245 . S
C617 C623 1.428 . S
C618 C621 1.260 . S
C618 C622 1.477 . S
C618 H636 0.932 . S
C619 C620 1.384 . S
C619 C621 1.479 . S
C619 H637 0.929 . S
C620 C617 1.424 . S
C620 C619 1.384 . S
C620 H638 0.928 . S
C621 C618 1.260 . S
C621 C619 1.479 . S
C622 C617 1.245 . S
C622 C618 1.477 . S
C622 H639 0.932 . S
C623 U606 2.882 . S
C623 C617 1.428 . S
C623 O626 1.301 . S
C623 O627 1.282 . S
O624 U606 2.441 . S
O624 C610 1.249 . S
O625 U606 2.420 . S
O625 C610 1.202 . S
O626 U606 2.455 . S
O626 C623 1.301 . S
O627 U606 2.449 . S
O627 C623 1.282 . S
H628 C601 0.931 . S
H629 C603 0.929 . S
H630 C604 0.930 . S
H631 C605 0.931 . S
H632 C612 0.932 . S
H633 C613 0.930 . S
H634 C614 0.929 . S
H635 C616 0.930 . S
H636 C618 0.932 . S
H637 C619 0.929 . S
H638 C620 0.928 . S
H639 C622 0.932 . S
C640 C641 1.264 . S
C640 C645 1.479 . S
C640 C650 1.465 . S
C641 C640 1.264 . S
C641 C643 1.339 . S
C641 H668 0.931 . S
C642 C643 1.395 . S
C642 C644 1.320 . S
C643 C641 1.339 . S
C643 C642 1.395 . S
C643 H669 0.929 . S
C644 C642 1.320 . S
C644 C645 1.405 . S
C644 H670 0.930 . S
C645 C640 1.479 . S
C645 C644 1.405 . S
C645 H671 0.931 . S
U646 O647 2.454 . S
U646 O648 2.458 . S
U646 C649 2.984 . S
U646 C650 2.847 . S
U646 C663 2.882 . S
U646 O664 2.441 . S
U646 O665 2.420 . S
U646 O666 2.455 . S
U646 O667 2.449 . S
O647 U646 2.454 . S
O647 C649 1.353 . S
O648 U646 2.458 . S
O648 C649 1.286 . S
C649 U646 2.984 . S
C649 O647 1.353 . S
C649 O648 1.286 . S
C649 C651 1.363 . S
C650 C640 1.465 . S
C650 U646 2.847 . S
C650 O664 1.249 . S
C650 O665 1.202 . S
C651 C649 1.363 . S
C651 C653 1.408 . S
C651 C656 1.342 . S
C652 C653 1.310 . S
C652 C655 1.461 . S
C652 H672 0.932 . S
C653 C651 1.408 . S
C653 C652 1.310 . S
C653 H673 0.930 . S
C654 C655 1.474 . S
C654 C656 1.285 . S
C654 H674 0.929 . S
C655 C652 1.461 . S
C655 C654 1.474 . S
C656 C651 1.342 . S
C656 C654 1.285 . S
C656 H675 0.930 . S
C657 C660 1.424 . S
C657 C662 1.245 . S
C657 C663 1.428 . S
C658 C661 1.260 . S
C658 C662 1.477 . S
C658 H676 0.932 . S
C659 C660 1.384 . S
C659 C661 1.479 . S
C659 H677 0.929 . S
C660 C657 1.424 . S
C660 C659 1.384 . S
C660 H678 0.928 . S
C661 C658 1.260 . S
C661 C659 1.479 . S
C662 C657 1.245 . S
C662 C658 1.477 . S
C662 H679 0.932 . S
C663 U646 2.882 . S
C663 C657 1.428 . S
C663 O666 1.301 . S
C663 O667 1.282 . S
O664 U646 2.441 . S
O664 C650 1.249 . S
O665 U646 2.420 . S
O665 C650 1.202 . S
O666 U646 2.455 . S
O666 C663 1.301 . S
O667 U646 2.449 . S
O667 C663 1.282 . S
H668 C641 0.931 . S
H669 C643 0.929 . S
H670 C644 0.930 . S
H671 C645 0.931 . S
H672 C652 0.932 . S
H673 C653 0.930 . S
H674 C654 0.929 . S
H675 C656 0.930 . S
H676 C658 0.932 . S
H677 C659 0.929 . S
H678 C660 0.928 . S
H679 C662 0.932 . S
C680 C681 1.264 . S
C680 C685 1.479 . S
C680 C690 1.465 . S
C681 C680 1.264 . S
C681 C683 1.339 . S
C681 H708 0.931 . S
C682 C683 1.395 . S
C682 C684 1.320 . S
C683 C681 1.339 . S
C683 C682 1.395 . S
C683 H709 0.929 . S
C684 C682 1.320 . S
C684 C685 1.405 . S
C684 H710 0.930 . S
C685 C680 1.479 . S
C685 C684 1.405 . S
C685 H711 0.931 . S
U686 O687 2.454 . S
U686 O688 2.458 . S
U686 C689 2.984 . S
U686 C690 2.847 . S
U686 C703 2.882 . S
U686 O704 2.441 . S
U686 O705 2.420 . S
U686 O706 2.455 . S
U686 O707 2.449 . S
O687 U686 2.454 . S
O687 C689 1.353 . S
O688 U686 2.458 . S
O688 C689 1.286 . S
C689 U686 2.984 . S
C689 O687 1.353 . S
C689 O688 1.286 . S
C689 C691 1.363 . S
C690 C680 1.465 . S
C690 U686 2.847 . S
C690 O704 1.249 . S
C690 O705 1.202 . S
C691 C689 1.363 . S
C691 C693 1.408 . S
C691 C696 1.342 . S
C692 C693 1.310 . S
C692 C695 1.461 . S
C692 H712 0.932 . S
C693 C691 1.408 . S
C693 C692 1.310 . S
C693 H713 0.930 . S
C694 C695 1.474 . S
C694 C696 1.285 . S
C694 H714 0.929 . S
C695 C692 1.461 . S
C695 C694 1.474 . S
C696 C691 1.342 . S
C696 C694 1.285 . S
C696 H715 0.930 . S
C697 C700 1.424 . S
C697 C702 1.245 . S
C697 C703 1.428 . S
C698 C701 1.260 . S
C698 C702 1.477 . S
C698 H716 0.932 . S
C699 C700 1.384 . S
C699 C701 1.479 . S
C699 H717 0.929 . S
C700 C697 1.424 . S
C700 C699 1.384 . S
C700 H718 0.928 . S
C701 C698 1.260 . S
C701 C699 1.479 . S
C702 C697 1.245 . S
C702 C698 1.477 . S
C702 H719 0.932 . S
C703 U686 2.882 . S
C703 C697 1.428 . S
C703 O706 1.301 . S
C703 O707 1.282 . S
O704 U686 2.441 . S
O704 C690 1.249 . S
O705 U686 2.420 . S
O705 C690 1.202 . S
O706 U686 2.455 . S
O706 C703 1.301 . S
O707 U686 2.449 . S
O707 C703 1.282 . S
H708 C681 0.931 . S
H709 C683 0.929 . S
H710 C684 0.930 . S
H711 C685 0.931 . S
H712 C692 0.932 . S
H713 C693 0.930 . S
H714 C694 0.929 . S
H715 C696 0.930 . S
H716 C698 0.932 . S
H717 C699 0.929 . S
H718 C700 0.928 . S
H719 C702 0.932 . S
C720 C721 1.264 . S
C720 C725 1.479 . S
C720 C730 1.465 . S
C721 C720 1.264 . S
C721 C723 1.339 . S
C721 H748 0.931 . S
C722 C723 1.395 . S
C722 C724 1.320 . S
C723 C721 1.339 . S
C723 C722 1.395 . S
C723 H749 0.929 . S
C724 C722 1.320 . S
C724 C725 1.405 . S
C724 H750 0.930 . S
C725 C720 1.479 . S
C725 C724 1.405 . S
C725 H751 0.931 . S
U726 O727 2.454 . S
U726 O728 2.458 . S
U726 C729 2.984 . S
U726 C730 2.847 . S
U726 C743 2.882 . S
U726 O744 2.441 . S
U726 O745 2.420 . S
U726 O746 2.455 . S
U726 O747 2.449 . S
O727 U726 2.454 . S
O727 C729 1.353 . S
O728 U726 2.458 . S
O728 C729 1.286 . S
C729 U726 2.984 . S
C729 O727 1.353 . S
C729 O728 1.286 . S
C729 C731 1.363 . S
C730 C720 1.465 . S
C730 U726 2.847 . S
C730 O744 1.249 . S
C730 O745 1.202 . S
C731 C729 1.363 . S
C731 C733 1.408 . S
C731 C736 1.342 . S
C732 C733 1.310 . S
C732 C735 1.461 . S
C732 H752 0.932 . S
C733 C731 1.408 . S
C733 C732 1.310 . S
C733 H753 0.930 . S
C734 C735 1.474 . S
C734 C736 1.285 . S
C734 H754 0.929 . S
C735 C732 1.461 . S
C735 C734 1.474 . S
C736 C731 1.342 . S
C736 C734 1.285 . S
C736 H755 0.930 . S
C737 C740 1.424 . S
C737 C742 1.245 . S
C737 C743 1.428 . S
C738 C741 1.260 . S
C738 C742 1.477 . S
C738 H756 0.932 . S
C739 C740 1.384 . S
C739 C741 1.479 . S
C739 H757 0.929 . S
C740 C737 1.424 . S
C740 C739 1.384 . S
C740 H758 0.928 . S
C741 C738 1.260 . S
C741 C739 1.479 . S
C742 C737 1.245 . S
C742 C738 1.477 . S
C742 H759 0.932 . S
C743 U726 2.882 . S
C743 C737 1.428 . S
C743 O746 1.301 . S
C743 O747 1.282 . S
O744 U726 2.441 . S
O744 C730 1.249 . S
O745 U726 2.420 . S
O745 C730 1.202 . S
O746 U726 2.455 . S
O746 C743 1.301 . S
O747 U726 2.449 . S
O747 C743 1.282 . S
H748 C721 0.931 . S
H749 C723 0.929 . S
H750 C724 0.930 . S
H751 C725 0.931 . S
H752 C732 0.932 . S
H753 C733 0.930 . S
H754 C734 0.929 . S
H755 C736 0.930 . S
H756 C738 0.932 . S
H757 C739 0.929 . S
H758 C740 0.928 . S
H759 C742 0.932 . S
C760 C761 1.264 . S
C760 C765 1.479 . S
C760 C770 1.465 . S
C761 C760 1.264 . S
C761 C763 1.339 . S
C761 H788 0.931 . S
C762 C763 1.395 . S
C762 C764 1.320 . S
C763 C761 1.339 . S
C763 C762 1.395 . S
C763 H789 0.929 . S
C764 C762 1.320 . S
C764 C765 1.405 . S
C764 H790 0.930 . S
C765 C760 1.479 . S
C765 C764 1.405 . S
C765 H791 0.931 . S
U766 O767 2.454 . S
U766 O768 2.458 . S
U766 C769 2.984 . S
U766 C770 2.847 . S
U766 C783 2.882 . S
U766 O784 2.441 . S
U766 O785 2.420 . S
U766 O786 2.455 . S
U766 O787 2.449 . S
O767 U766 2.454 . S
O767 C769 1.353 . S
O768 U766 2.458 . S
O768 C769 1.286 . S
C769 U766 2.984 . S
C769 O767 1.353 . S
C769 O768 1.286 . S
C769 C771 1.363 . S
C770 C760 1.465 . S
C770 U766 2.847 . S
C770 O784 1.249 . S
C770 O785 1.202 . S
C771 C769 1.363 . S
C771 C773 1.408 . S
C771 C776 1.342 . S
C772 C773 1.310 . S
C772 C775 1.461 . S
C772 H792 0.932 . S
C773 C771 1.408 . S
C773 C772 1.310 . S
C773 H793 0.930 . S
C774 C775 1.474 . S
C774 C776 1.285 . S
C774 H794 0.929 . S
C775 C772 1.461 . S
C775 C774 1.474 . S
C776 C771 1.342 . S
C776 C774 1.285 . S
C776 H795 0.930 . S
C777 C780 1.424 . S
C777 C782 1.245 . S
C777 C783 1.428 . S
C778 C781 1.260 . S
C778 C782 1.477 . S
C778 H796 0.932 . S
C779 C780 1.384 . S
C779 C781 1.479 . S
C779 H797 0.929 . S
C780 C777 1.424 . S
C780 C779 1.384 . S
C780 H798 0.928 . S
C781 C778 1.260 . S
C781 C779 1.479 . S
C782 C777 1.245 . S
C782 C778 1.477 . S
C782 H799 0.932 . S
C783 U766 2.882 . S
C783 C777 1.428 . S
C783 O786 1.301 . S
C783 O787 1.282 . S
O784 U766 2.441 . S
O784 C770 1.249 . S
O785 U766 2.420 . S
O785 C770 1.202 . S
O786 U766 2.455 . S
O786 C783 1.301 . S
O787 U766 2.449 . S
O787 C783 1.282 . S
H788 C761 0.931 . S
H789 C763 0.929 . S
H790 C764 0.930 . S
H791 C765 0.931 . S
H792 C772 0.932 . S
H793 C773 0.930 . S
H794 C774 0.929 . S
H795 C776 0.930 . S
H796 C778 0.932 . S
H797 C779 0.929 . S
H798 C780 0.928 . S
H799 C782 0.932 . S
C800 C801 1.264 . S
C800 C805 1.479 . S
C800 C810 1.465 . S
C801 C800 1.264 . S
C801 C803 1.339 . S
C801 H828 0.931 . S
C802 C803 1.395 . S
C802 C804 1.320 . S
C803 C801 1.339 . S
C803 C802 1.395 . S
C803 H829 0.929 . S
C804 C802 1.320 . S
C804 C805 1.405 . S
C804 H830 0.930 . S
C805 C800 1.479 . S
C805 C804 1.405 . S
C805 H831 0.931 . S
U806 O807 2.454 . S
U806 O808 2.458 . S
U806 C809 2.984 . S
U806 C810 2.847 . S
U806 C823 2.882 . S
U806 O824 2.441 . S
U806 O825 2.420 . S
U806 O826 2.455 . S
U806 O827 2.449 . S
O807 U806 2.454 . S
O807 C809 1.353 . S
O808 U806 2.458 . S
O808 C809 1.286 . S
C809 U806 2.984 . S
C809 O807 1.353 . S
C809 O808 1.286 . S
C809 C811 1.363 . S
C810 C800 1.465 . S
C810 U806 2.847 . S
C810 O824 1.249 . S
C810 O825 1.202 . S
C811 C809 1.363 . S
C811 C813 1.408 . S
C811 C816 1.342 . S
C812 C813 1.310 . S
C812 C815 1.461 . S
C812 H832 0.932 . S
C813 C811 1.408 . S
C813 C812 1.310 . S
C813 H833 0.930 . S
C814 C815 1.474 . S
C814 C816 1.285 . S
C814 H834 0.929 . S
C815 C812 1.461 . S
C815 C814 1.474 . S
C816 C811 1.342 . S
C816 C814 1.285 . S
C816 H835 0.930 . S
C817 C820 1.424 . S
C817 C822 1.245 . S
C817 C823 1.428 . S
C818 C821 1.260 . S
C818 C822 1.477 . S
C818 H836 0.932 . S
C819 C820 1.384 . S
C819 C821 1.479 . S
C819 H837 0.929 . S
C820 C817 1.424 . S
C820 C819 1.384 . S
C820 H838 0.928 . S
C821 C818 1.260 . S
C821 C819 1.479 . S
C822 C817 1.245 . S
C822 C818 1.477 . S
C822 H839 0.932 . S
C823 U806 2.882 . S
C823 C817 1.428 . S
C823 O826 1.301 . S
C823 O827 1.282 . S
O824 U806 2.441 . S
O824 C810 1.249 . S
O825 U806 2.420 . S
O825 C810 1.202 . S
O826 U806 2.455 . S
O826 C823 1.301 . S
O827 U806 2.449 . S
O827 C823 1.282 . S
H828 C801 0.931 . S
H829 C803 0.929 . S
H830 C804 0.930 . S
H831 C805 0.931 . S
H832 C812 0.932 . S
H833 C813 0.930 . S
H834 C814 0.929 . S
H835 C816 0.930 . S
H836 C818 0.932 . S
H837 C819 0.929 . S
H838 C820 0.928 . S
H839 C822 0.932 . S
C840 C841 1.264 . S
C840 C845 1.479 . S
C840 C850 1.465 . S
C841 C840 1.264 . S
C841 C843 1.339 . S
C841 H868 0.931 . S
C842 C843 1.395 . S
C842 C844 1.320 . S
C843 C841 1.339 . S
C843 C842 1.395 . S
C843 H869 0.929 . S
C844 C842 1.320 . S
C844 C845 1.405 . S
C844 H870 0.930 . S
C845 C840 1.479 . S
C845 C844 1.405 . S
C845 H871 0.931 . S
U846 O847 2.454 . S
U846 O848 2.458 . S
U846 C849 2.984 . S
U846 C850 2.847 . S
U846 C863 2.882 . S
U846 O864 2.441 . S
U846 O865 2.420 . S
U846 O866 2.455 . S
U846 O867 2.449 . S
O847 U846 2.454 . S
O847 C849 1.353 . S
O848 U846 2.458 . S
O848 C849 1.286 . S
C849 U846 2.984 . S
C849 O847 1.353 . S
C849 O848 1.286 . S
C849 C851 1.363 . S
C850 C840 1.465 . S
C850 U846 2.847 . S
C850 O864 1.249 . S
C850 O865 1.202 . S
C851 C849 1.363 . S
C851 C853 1.408 . S
C851 C856 1.342 . S
C852 C853 1.310 . S
C852 C855 1.461 . S
C852 H872 0.932 . S
C853 C851 1.408 . S
C853 C852 1.310 . S
C853 H873 0.930 . S
C854 C855 1.474 . S
C854 C856 1.285 . S
C854 H874 0.929 . S
C855 C852 1.461 . S
C855 C854 1.474 . S
C856 C851 1.342 . S
C856 C854 1.285 . S
C856 H875 0.930 . S
C857 C860 1.424 . S
C857 C862 1.245 . S
C857 C863 1.428 . S
C858 C861 1.260 . S
C858 C862 1.477 . S
C858 H876 0.932 . S
C859 C860 1.384 . S
C859 C861 1.479 . S
C859 H877 0.929 . S
C860 C857 1.424 . S
C860 C859 1.384 . S
C860 H878 0.928 . S
C861 C858 1.260 . S
C861 C859 1.479 . S
C862 C857 1.245 . S
C862 C858 1.477 . S
C862 H879 0.932 . S
C863 U846 2.882 . S
C863 C857 1.428 . S
C863 O866 1.301 . S
C863 O867 1.282 . S
O864 U846 2.441 . S
O864 C850 1.249 . S
O865 U846 2.420 . S
O865 C850 1.202 . S
O866 U846 2.455 . S
O866 C863 1.301 . S
O867 U846 2.449 . S
O867 C863 1.282 . S
H868 C841 0.931 . S
H869 C843 0.929 . S
H870 C844 0.930 . S
H871 C845 0.931 . S
H872 C852 0.932 . S
H873 C853 0.930 . S
H874 C854 0.929 . S
H875 C856 0.930 . S
H876 C858 0.932 . S
H877 C859 0.929 . S
H878 C860 0.928 . S
H879 C862 0.932 . S
C880 C881 1.264 . S
C880 C885 1.479 . S
C880 C890 1.465 . S
C881 C880 1.264 . S
C881 C883 1.339 . S
C881 H908 0.931 . S
C882 C883 1.395 . S
C882 C884 1.320 . S
C883 C881 1.339 . S
C883 C882 1.395 . S
C883 H909 0.929 . S
C884 C882 1.320 . S
C884 C885 1.405 . S
C884 H910 0.930 . S
C885 C880 1.479 . S
C885 C884 1.405 . S
C885 H911 0.931 . S
U886 O887 2.454 . S
U886 O888 2.458 . S
U886 C889 2.984 . S
U886 C890 2.847 . S
U886 C903 2.882 . S
U886 O904 2.441 . S
U886 O905 2.420 . S
U886 O906 2.455 . S
U886 O907 2.449 . S
O887 U886 2.454 . S
O887 C889 1.353 . S
O888 U886 2.458 . S
O888 C889 1.286 . S
C889 U886 2.984 . S
C889 O887 1.353 . S
C889 O888 1.286 . S
C889 C891 1.363 . S
C890 C880 1.465 . S
C890 U886 2.847 . S
C890 O904 1.249 . S
C890 O905 1.202 . S
C891 C889 1.363 . S
C891 C893 1.408 . S
C891 C896 1.342 . S
C892 C893 1.310 . S
C892 C895 1.461 . S
C892 H912 0.932 . S
C893 C891 1.408 . S
C893 C892 1.310 . S
C893 H913 0.930 . S
C894 C895 1.474 . S
C894 C896 1.285 . S
C894 H914 0.929 . S
C895 C892 1.461 . S
C895 C894 1.474 . S
C896 C891 1.342 . S
C896 C894 1.285 . S
C896 H915 0.930 . S
C897 C900 1.424 . S
C897 C902 1.245 . S
C897 C903 1.428 . S
C898 C901 1.260 . S
C898 C902 1.477 . S
C898 H916 0.932 . S
C899 C900 1.384 . S
C899 C901 1.479 . S
C899 H917 0.929 . S
C900 C897 1.424 . S
C900 C899 1.384 . S
C900 H918 0.928 . S
C901 C898 1.260 . S
C901 C899 1.479 . S
C902 C897 1.245 . S
C902 C898 1.477 . S
C902 H919 0.932 . S
C903 U886 2.882 . S
C903 C897 1.428 . S
C903 O906 1.301 . S
C903 O907 1.282 . S
O904 U886 2.441 . S
O904 C890 1.249 . S
O905 U886 2.420 . S
O905 C890 1.202 . S
O906 U886 2.455 . S
O906 C903 1.301 . S
O907 U886 2.449 . S
O907 C903 1.282 . S
H908 C881 0.931 . S
H909 C883 0.929 . S
H910 C884 0.930 . S
H911 C885 0.931 . S
H912 C892 0.932 . S
H913 C893 0.930 . S
H914 C894 0.929 . S
H915 C896 0.930 . S
H916 C898 0.932 . S
H917 C899 0.929 . S
H918 C900 0.928 . S
H919 C902 0.932 . S
C920 C921 1.264 . S
C920 C925 1.479 . S
C920 C930 1.465 . S
C921 C920 1.264 . S
C921 C923 1.339 . S
C921 H948 0.931 . S
C922 C923 1.395 . S
C922 C924 1.320 . S
C923 C921 1.339 . S
C923 C922 1.395 . S
C923 H949 0.929 . S
C924 C922 1.320 . S
C924 C925 1.405 . S
C924 H950 0.930 . S
C925 C920 1.479 . S
C925 C924 1.405 . S
C925 H951 0.931 . S
U926 O927 2.454 . S
U926 O928 2.458 . S
U926 C929 2.984 . S
U926 C930 2.847 . S
U926 C943 2.882 . S
U926 O944 2.441 . S
U926 O945 2.420 . S
U926 O946 2.455 . S
U926 O947 2.449 . S
O927 U926 2.454 . S
O927 C929 1.353 . S
O928 U926 2.458 . S
O928 C929 1.286 . S
C929 U926 2.984 . S
C929 O927 1.353 . S
C929 O928 1.286 . S
C929 C931 1.363 . S
C930 C920 1.465 . S
C930 U926 2.847 . S
C930 O944 1.249 . S
C930 O945 1.202 . S
C931 C929 1.363 . S
C931 C933 1.408 . S
C931 C936 1.342 . S
C932 C933 1.310 . S
C932 C935 1.461 . S
C932 H952 0.932 . S
C933 C931 1.408 . S
C933 C932 1.310 . S
C933 H953 0.930 . S
C934 C935 1.474 . S
C934 C936 1.285 . S
C934 H954 0.929 . S
C935 C932 1.461 . S
C935 C934 1.474 . S
C936 C931 1.342 . S
C936 C934 1.285 . S
C936 H955 0.930 . S
C937 C940 1.424 . S
C937 C942 1.245 . S
C937 C943 1.428 . S
C938 C941 1.260 . S
C938 C942 1.477 . S
C938 H956 0.932 . S
C939 C940 1.384 . S
C939 C941 1.479 . S
C939 H957 0.929 . S
C940 C937 1.424 . S
C940 C939 1.384 . S
C940 H958 0.928 . S
C941 C938 1.260 . S
C941 C939 1.479 . S
C942 C937 1.245 . S
C942 C938 1.477 . S
C942 H959 0.932 . S
C943 U926 2.882 . S
C943 C937 1.428 . S
C943 O946 1.301 . S
C943 O947 1.282 . S
O944 U926 2.441 . S
O944 C930 1.249 . S
O945 U926 2.420 . S
O945 C930 1.202 . S
O946 U926 2.455 . S
O946 C943 1.301 . S
O947 U926 2.449 . S
O947 C943 1.282 . S
H948 C921 0.931 . S
H949 C923 0.929 . S
H950 C924 0.930 . S
H951 C925 0.931 . S
H952 C932 0.932 . S
H953 C933 0.930 . S
H954 C934 0.929 . S
H955 C936 0.930 . S
H956 C938 0.932 . S
H957 C939 0.929 . S
H958 C940 0.928 . S
H959 C942 0.932 . S
C960 C961 1.264 . S
C960 C965 1.479 . S
C960 C970 1.465 . S
C961 C960 1.264 . S
C961 C963 1.339 . S
C961 H988 0.931 . S
C962 C963 1.395 . S
C962 C964 1.320 . S
C963 C961 1.339 . S
C963 C962 1.395 . S
C963 H989 0.929 . S
C964 C962 1.320 . S
C964 C965 1.405 . S
C964 H990 0.930 . S
C965 C960 1.479 . S
C965 C964 1.405 . S
C965 H991 0.931 . S
U966 O967 2.454 . S
U966 O968 2.458 . S
U966 C969 2.984 . S
U966 C970 2.847 . S
U966 C983 2.882 . S
U966 O984 2.441 . S
U966 O985 2.420 . S
U966 O986 2.455 . S
U966 O987 2.449 . S
O967 U966 2.454 . S
O967 C969 1.353 . S
O968 U966 2.458 . S
O968 C969 1.286 . S
C969 U966 2.984 . S
C969 O967 1.353 . S
C969 O968 1.286 . S
C969 C971 1.363 . S
C970 C960 1.465 . S
C970 U966 2.847 . S
C970 O984 1.249 . S
C970 O985 1.202 . S
C971 C969 1.363 . S
C971 C973 1.408 . S
C971 C976 1.342 . S
C972 C973 1.310 . S
C972 C975 1.461 . S
C972 H992 0.932 . S
C973 C971 1.408 . S
C973 C972 1.310 . S
C973 H993 0.930 . S
C974 C975 1.474 . S
C974 C976 1.285 . S
C974 H994 0.929 . S
C975 C972 1.461 . S
C975 C974 1.474 . S
C976 C971 1.342 . S
C976 C974 1.285 . S
C976 H995 0.930 . S
C977 C980 1.424 . S
C977 C982 1.245 . S
C977 C983 1.428 . S
C978 C981 1.260 . S
C978 C982 1.477 . S
C978 H996 0.932 . S
C979 C980 1.384 . S
C979 C981 1.479 . S
C979 H997 0.929 . S
C980 C977 1.424 . S
C980 C979 1.384 . S
C980 H998 0.928 . S
C981 C978 1.260 . S
C981 C979 1.479 . S
C982 C977 1.245 . S
C982 C978 1.477 . S
C982 H999 0.932 . S
C983 U966 2.882 . S
C983 C977 1.428 . S
C983 O986 1.301 . S
C983 O987 1.282 . S
O984 U966 2.441 . S
O984 C970 1.249 . S
O985 U966 2.420 . S
O985 C970 1.202 . S
O986 U966 2.455 . S
O986 C983 1.301 . S
O987 U966 2.449 . S
O987 C983 1.282 . S
H988 C961 0.931 . S
H989 C963 0.929 . S
H990 C964 0.930 . S
H991 C965 0.931 . S
H992 C972 0.932 . S
H993 C973 0.930 . S
H994 C974 0.929 . S
H995 C976 0.930 . S
H996 C978 0.932 . S
H997 C979 0.929 . S
H998 C980 0.928 . S
H999 C982 0.932 . S
C1000 C1001 1.264 . S
C1000 C1005 1.479 . S
C1000 C1010 1.465 . S
C1001 C1000 1.264 . S
C1001 C1003 1.339 . S
C1001 H1028 0.931 . S
C1002 C1003 1.395 . S
C1002 C1004 1.320 . S
C1003 C1001 1.339 . S
C1003 C1002 1.395 . S
C1003 H1029 0.929 . S
C1004 C1002 1.320 . S
C1004 C1005 1.405 . S
C1004 H1030 0.930 . S
C1005 C1000 1.479 . S
C1005 C1004 1.405 . S
C1005 H1031 0.931 . S
U1006 O1007 2.454 . S
U1006 O1008 2.458 . S
U1006 C1009 2.984 . S
U1006 C1010 2.847 . S
U1006 C1023 2.882 . S
U1006 O1024 2.441 . S
U1006 O1025 2.420 . S
U1006 O1026 2.455 . S
U1006 O1027 2.449 . S
O1007 U1006 2.454 . S
O1007 C1009 1.353 . S
O1008 U1006 2.458 . S
O1008 C1009 1.286 . S
C1009 U1006 2.984 . S
C1009 O1007 1.353 . S
C1009 O1008 1.286 . S
C1009 C1011 1.363 . S
C1010 C1000 1.465 . S
C1010 U1006 2.847 . S
C1010 O1024 1.249 . S
C1010 O1025 1.202 . S
C1011 C1009 1.363 . S
C1011 C1013 1.408 . S
C1011 C1016 1.342 . S
C1012 C1013 1.310 . S
C1012 C1015 1.461 . S
C1012 H1032 0.932 . S
C1013 C1011 1.408 . S
C1013 C1012 1.310 . S
C1013 H1033 0.930 . S
C1014 C1015 1.474 . S
C1014 C1016 1.285 . S
C1014 H1034 0.929 . S
C1015 C1012 1.461 . S
C1015 C1014 1.474 . S
C1016 C1011 1.342 . S
C1016 C1014 1.285 . S
C1016 H1035 0.930 . S
C1017 C1020 1.424 . S
C1017 C1022 1.245 . S
C1017 C1023 1.428 . S
C1018 C1021 1.260 . S
C1018 C1022 1.477 . S
C1018 H1036 0.932 . S
C1019 C1020 1.384 . S
C1019 C1021 1.479 . S
C1019 H1037 0.929 . S
C1020 C1017 1.424 . S
C1020 C1019 1.384 . S
C1020 H1038 0.928 . S
C1021 C1018 1.260 . S
C1021 C1019 1.479 . S
C1022 C1017 1.245 . S
C1022 C1018 1.477 . S
C1022 H1039 0.932 . S
C1023 U1006 2.882 . S
C1023 C1017 1.428 . S
C1023 O1026 1.301 . S
C1023 O1027 1.282 . S
O1024 U1006 2.441 . S
O1024 C1010 1.249 . S
O1025 U1006 2.420 . S
O1025 C1010 1.202 . S
O1026 U1006 2.455 . S
O1026 C1023 1.301 . S
O1027 U1006 2.449 . S
O1027 C1023 1.282 . S
H1028 C1001 0.931 . S
H1029 C1003 0.929 . S
H1030 C1004 0.930 . S
H1031 C1005 0.931 . S
H1032 C1012 0.932 . S
H1033 C1013 0.930 . S
H1034 C1014 0.929 . S
H1035 C1016 0.930 . S
H1036 C1018 0.932 . S
H1037 C1019 0.929 . S
H1038 C1020 0.928 . S
H1039 C1022 0.932 . S
C1040 C1041 1.264 . S
C1040 C1045 1.479 . S
C1040 C1050 1.465 . S
C1041 C1040 1.264 . S
C1041 C1043 1.339 . S
C1041 H1068 0.931 . S
C1042 C1043 1.395 . S
C1042 C1044 1.320 . S
C1043 C1041 1.339 . S
C1043 C1042 1.395 . S
C1043 H1069 0.929 . S
C1044 C1042 1.320 . S
C1044 C1045 1.405 . S
C1044 H1070 0.930 . S
C1045 C1040 1.479 . S
C1045 C1044 1.405 . S
C1045 H1071 0.931 . S
U1046 O1047 2.454 . S
U1046 O1048 2.458 . S
U1046 C1049 2.984 . S
U1046 C1050 2.847 . S
U1046 C1063 2.882 . S
U1046 O1064 2.441 . S
U1046 O1065 2.420 . S
U1046 O1066 2.455 . S
U1046 O1067 2.449 . S
O1047 U1046 2.454 . S
O1047 C1049 1.353 . S
O1048 U1046 2.458 . S
O1048 C1049 1.286 . S
C1049 U1046 2.984 . S
C1049 O1047 1.353 . S
C1049 O1048 1.286 . S
C1049 C1051 1.363 . S
C1050 C1040 1.465 . S
C1050 U1046 2.847 . S
C1050 O1064 1.249 . S
C1050 O1065 1.202 . S
C1051 C1049 1.363 . S
C1051 C1053 1.408 . S
C1051 C1056 1.342 . S
C1052 C1053 1.310 . S
C1052 C1055 1.461 . S
C1052 H1072 0.932 . S
C1053 C1051 1.408 . S
C1053 C1052 1.310 . S
C1053 H1073 0.930 . S
C1054 C1055 1.474 . S
C1054 C1056 1.285 . S
C1054 H1074 0.929 . S
C1055 C1052 1.461 . S
C1055 C1054 1.474 . S
C1056 C1051 1.342 . S
C1056 C1054 1.285 . S
C1056 H1075 0.930 . S
C1057 C1060 1.424 . S
C1057 C1062 1.245 . S
C1057 C1063 1.428 . S
C1058 C1061 1.260 . S
C1058 C1062 1.477 . S
C1058 H1076 0.932 . S
C1059 C1060 1.384 . S
C1059 C1061 1.479 . S
C1059 H1077 0.929 . S
C1060 C1057 1.424 . S
C1060 C1059 1.384 . S
C1060 H1078 0.928 . S
C1061 C1058 1.260 . S
C1061 C1059 1.479 . S
C1062 C1057 1.245 . S
C1062 C1058 1.477 . S
C1062 H1079 0.932 . S
C1063 U1046 2.882 . S
C1063 C1057 1.428 . S
C1063 O1066 1.301 . S
C1063 O1067 1.282 . S
O1064 U1046 2.441 . S
O1064 C1050 1.249 . S
O1065 U1046 2.420 . S
O1065 C1050 1.202 . S
O1066 U1046 2.455 . S
O1066 C1063 1.301 . S
O1067 U1046 2.449 . S
O1067 C1063 1.282 . S
H1068 C1041 0.931 . S
H1069 C1043 0.929 . S
H1070 C1044 0.930 . S
H1071 C1045 0.931 . S
H1072 C1052 0.932 . S
H1073 C1053 0.930 . S
H1074 C1054 0.929 . S
H1075 C1056 0.930 . S
H1076 C1058 0.932 . S
H1077 C1059 0.929 . S
H1078 C1060 0.928 . S
H1079 C1062 0.932 . S
C1080 C1081 1.264 . S
C1080 C1085 1.479 . S
C1080 C1090 1.465 . S
C1081 C1080 1.264 . S
C1081 C1083 1.339 . S
C1081 H1108 0.931 . S
C1082 C1083 1.395 . S
C1082 C1084 1.320 . S
C1083 C1081 1.339 . S
C1083 C1082 1.395 . S
C1083 H1109 0.929 . S
C1084 C1082 1.320 . S
C1084 C1085 1.405 . S
C1084 H1110 0.930 . S
C1085 C1080 1.479 . S
C1085 C1084 1.405 . S
C1085 H1111 0.931 . S
U1086 O1087 2.454 . S
U1086 O1088 2.458 . S
U1086 C1089 2.984 . S
U1086 C1090 2.847 . S
U1086 C1103 2.882 . S
U1086 O1104 2.441 . S
U1086 O1105 2.420 . S
U1086 O1106 2.455 . S
U1086 O1107 2.449 . S
O1087 U1086 2.454 . S
O1087 C1089 1.353 . S
O1088 U1086 2.458 . S
O1088 C1089 1.286 . S
C1089 U1086 2.984 . S
C1089 O1087 1.353 . S
C1089 O1088 1.286 . S
C1089 C1091 1.363 . S
C1090 C1080 1.465 . S
C1090 U1086 2.847 . S
C1090 O1104 1.249 . S
C1090 O1105 1.202 . S
C1091 C1089 1.363 . S
C1091 C1093 1.408 . S
C1091 C1096 1.342 . S
C1092 C1093 1.310 . S
C1092 C1095 1.461 . S
C1092 H1112 0.932 . S
C1093 C1091 1.408 . S
C1093 C1092 1.310 . S
C1093 H1113 0.930 . S
C1094 C1095 1.474 . S
C1094 C1096 1.285 . S
C1094 H1114 0.929 . S
C1095 C1092 1.461 . S
C1095 C1094 1.474 . S
C1096 C1091 1.342 . S
C1096 C1094 1.285 . S
C1096 H1115 0.930 . S
C1097 C1100 1.424 . S
C1097 C1102 1.245 . S
C1097 C1103 1.428 . S
C1098 C1101 1.260 . S
C1098 C1102 1.477 . S
C1098 H1116 0.932 . S
C1099 C1100 1.384 . S
C1099 C1101 1.479 . S
C1099 H1117 0.929 . S
C1100 C1097 1.424 . S
C1100 C1099 1.384 . S
C1100 H1118 0.928 . S
C1101 C1098 1.260 . S
C1101 C1099 1.479 . S
C1102 C1097 1.245 . S
C1102 C1098 1.477 . S
C1102 H1119 0.932 . S
C1103 U1086 2.882 . S
C1103 C1097 1.428 . S
C1103 O1106 1.301 . S
C1103 O1107 1.282 . S
O1104 U1086 2.441 . S
O1104 C1090 1.249 . S
O1105 U1086 2.420 . S
O1105 C1090 1.202 . S
O1106 U1086 2.455 . S
O1106 C1103 1.301 . S
O1107 U1086 2.449 . S
O1107 C1103 1.282 . S
H1108 C1081 0.931 . S
H1109 C1083 0.929 . S
H1110 C1084 0.930 . S
H1111 C1085 0.931 . S
H1112 C1092 0.932 . S
H1113 C1093 0.930 . S
H1114 C1094 0.929 . S
H1115 C1096 0.930 . S
H1116 C1098 0.932 . S
H1117 C1099 0.929 . S
H1118 C1100 0.928 . S
H1119 C1102 0.932 . S
C1120 C1121 1.264 . S
C1120 C1125 1.479 . S
C1120 C1130 1.465 . S
C1121 C1120 1.264 . S
C1121 C1123 1.339 . S
C1121 H1148 0.931 . S
C1122 C1123 1.395 . S
C1122 C1124 1.320 . S
C1123 C1121 1.339 . S
C1123 C1122 1.395 . S
C1123 H1149 0.929 . S
C1124 C1122 1.320 . S
C1124 C1125 1.405 . S
C1124 H1150 0.930 . S
C1125 C1120 1.479 . S
C1125 C1124 1.405 . S
C1125 H1151 0.931 . S
U1126 O1127 2.454 . S
U1126 O1128 2.458 . S
U1126 C1129 2.984 . S
U1126 C1130 2.847 . S
U1126 C1143 2.882 . S
U1126 O1144 2.441 . S
U1126 O1145 2.420 . S
U1126 O1146 2.455 . S
U1126 O1147 2.449 . S
O1127 U1126 2.454 . S
O1127 C1129 1.353 . S
O1128 U1126 2.458 . S
O1128 C1129 1.286 . S
C1129 U1126 2.984 . S
C1129 O1127 1.353 . S
C1129 O1128 1.286 . S
C1129 C1131 1.363 . S
C1130 C1120 1.465 . S
C1130 U1126 2.847 . S
C1130 O1144 1.249 . S
C1130 O1145 1.202 . S
C1131 C1129 1.363 . S
C1131 C1133 1.408 . S
C1131 C1136 1.342 . S
C1132 C1133 1.310 . S
C1132 C1135 1.461 . S
C1132 H1152 0.932 . S
C1133 C1131 1.408 . S
C1133 C1132 1.310 . S
C1133 H1153 0.930 . S
C1134 C1135 1.474 . S
C1134 C1136 1.285 . S
C1134 H1154 0.929 . S
C1135 C1132 1.461 . S
C1135 C1134 1.474 . S
C1136 C1131 1.342 . S
C1136 C1134 1.285 . S
C1136 H1155 0.930 . S
C1137 C1140 1.424 . S
C1137 C1142 1.245 . S
C1137 C1143 1.428 . S
C1138 C1141 1.260 . S
C1138 C1142 1.477 . S
C1138 H1156 0.932 . S
C1139 C1140 1.384 . S
C1139 C1141 1.479 . S
C1139 H1157 0.929 . S
C1140 C1137 1.424 . S
C1140 C1139 1.384 . S
C1140 H1158 0.928 . S
C1141 C1138 1.260 . S
C1141 C1139 1.479 . S
C1142 C1137 1.245 . S
C1142 C1138 1.477 . S
C1142 H1159 0.932 . S
C1143 U1126 2.882 . S
C1143 C1137 1.428 . S
C1143 O1146 1.301 . S
C1143 O1147 1.282 . S
O1144 U1126 2.441 . S
O1144 C1130 1.249 . S
O1145 U1126 2.420 . S
O1145 C1130 1.202 . S
O1146 U1126 2.455 . S
O1146 C1143 1.301 . S
O1147 U1126 2.449 . S
O1147 C1143 1.282 . S
H1148 C1121 0.931 . S
H1149 C1123 0.929 . S
H1150 C1124 0.930 . S
H1151 C1125 0.931 . S
H1152 C1132 0.932 . S
H1153 C1133 0.930 . S
H1154 C1134 0.929 . S
H1155 C1136 0.930 . S
H1156 C1138 0.932 . S
H1157 C1139 0.929 . S
H1158 C1140 0.928 . S
H1159 C1142 0.932 . S
C1160 C1161 1.264 . S
C1160 C1165 1.479 . S
C1160 C1170 1.465 . S
C1161 C1160 1.264 . S
C1161 C1163 1.339 . S
C1161 H1188 0.931 . S
C1162 C1163 1.395 . S
C1162 C1164 1.320 . S
C1163 C1161 1.339 . S
C1163 C1162 1.395 . S
C1163 H1189 0.929 . S
C1164 C1162 1.320 . S
C1164 C1165 1.405 . S
C1164 H1190 0.930 . S
C1165 C1160 1.479 . S
C1165 C1164 1.405 . S
C1165 H1191 0.931 . S
U1166 O1167 2.454 . S
U1166 O1168 2.458 . S
U1166 C1169 2.984 . S
U1166 C1170 2.847 . S
U1166 C1183 2.882 . S
U1166 O1184 2.441 . S
U1166 O1185 2.420 . S
U1166 O1186 2.455 . S
U1166 O1187 2.449 . S
O1167 U1166 2.454 . S
O1167 C1169 1.353 . S
O1168 U1166 2.458 . S
O1168 C1169 1.286 . S
C1169 U1166 2.984 . S
C1169 O1167 1.353 . S
C1169 O1168 1.286 . S
C1169 C1171 1.363 . S
C1170 C1160 1.465 . S
C1170 U1166 2.847 . S
C1170 O1184 1.249 . S
C1170 O1185 1.202 . S
C1171 C1169 1.363 . S
C1171 C1173 1.408 . S
C1171 C1176 1.342 . S
C1172 C1173 1.310 . S
C1172 C1175 1.461 . S
C1172 H1192 0.932 . S
C1173 C1171 1.408 . S
C1173 C1172 1.310 . S
C1173 H1193 0.930 . S
C1174 C1175 1.474 . S
C1174 C1176 1.285 . S
C1174 H1194 0.929 . S
C1175 C1172 1.461 . S
C1175 C1174 1.474 . S
C1176 C1171 1.342 . S
C1176 C1174 1.285 . S
C1176 H1195 0.930 . S
C1177 C1180 1.424 . S
C1177 C1182 1.245 . S
C1177 C1183 1.428 . S
C1178 C1181 1.260 . S
C1178 C1182 1.477 . S
C1178 H1196 0.932 . S
C1179 C1180 1.384 . S
C1179 C1181 1.479 . S
C1179 H1197 0.929 . S
C1180 C1177 1.424 . S
C1180 C1179 1.384 . S
C1180 H1198 0.928 . S
C1181 C1178 1.260 . S
C1181 C1179 1.479 . S
C1182 C1177 1.245 . S
C1182 C1178 1.477 . S
C1182 H1199 0.932 . S
C1183 U1166 2.882 . S
C1183 C1177 1.428 . S
C1183 O1186 1.301 . S
C1183 O1187 1.282 . S
O1184 U1166 2.441 . S
O1184 C1170 1.249 . S
O1185 U1166 2.420 . S
O1185 C1170 1.202 . S
O1186 U1166 2.455 . S
O1186 C1183 1.301 . S
O1187 U1166 2.449 . S
O1187 C1183 1.282 . S
H1188 C1161 0.931 . S
H1189 C1163 0.929 . S
H1190 C1164 0.930 . S
H1191 C1165 0.931 . S
H1192 C1172 0.932 . S
H1193 C1173 0.930 . S
H1194 C1174 0.929 . S
H1195 C1176 0.930 . S
H1196 C1178 0.932 . S
H1197 C1179 0.929 . S
H1198 C1180 0.928 . S
H1199 C1182 0.932 . S
C1200 C1201 1.264 . S
C1200 C1205 1.479 . S
C1200 C1210 1.465 . S
C1201 C1200 1.264 . S
C1201 C1203 1.339 . S
C1201 H1228 0.931 . S
C1202 C1203 1.395 . S
C1202 C1204 1.320 . S
C1203 C1201 1.339 . S
C1203 C1202 1.395 . S
C1203 H1229 0.929 . S
C1204 C1202 1.320 . S
C1204 C1205 1.405 . S
C1204 H1230 0.930 . S
C1205 C1200 1.479 . S
C1205 C1204 1.405 . S
C1205 H1231 0.931 . S
U1206 O1207 2.454 . S
U1206 O1208 2.458 . S
U1206 C1209 2.984 . S
U1206 C1210 2.847 . S
U1206 C1223 2.882 . S
U1206 O1224 2.441 . S
U1206 O1225 2.420 . S
U1206 O1226 2.455 . S
U1206 O1227 2.449 . S
O1207 U1206 2.454 . S
O1207 C1209 1.353 . S
O1208 U1206 2.458 . S
O1208 C1209 1.286 . S
C1209 U1206 2.984 . S
C1209 O1207 1.353 . S
C1209 O1208 1.286 . S
C1209 C1211 1.363 . S
C1210 C1200 1.465 . S
C1210 U1206 2.847 . S
C1210 O1224 1.249 . S
C1210 O1225 1.202 . S
C1211 C1209 1.363 . S
C1211 C1213 1.408 . S
C1211 C1216 1.342 . S
C1212 C1213 1.310 . S
C1212 C1215 1.461 . S
C1212 H1232 0.932 . S
C1213 C1211 1.408 . S
C1213 C1212 1.310 . S
C1213 H1233 0.930 . S
C1214 C1215 1.474 . S
C1214 C1216 1.285 . S
C1214 H1234 0.929 . S
C1215 C1212 1.461 . S
C1215 C1214 1.474 . S
C1216 C1211 1.342 . S
C1216 C1214 1.285 . S
C1216 H1235 0.930 . S
C1217 C1220 1.424 . S
C1217 C1222 1.245 . S
C1217 C1223 1.428 . S
C1218 C1221 1.260 . S
C1218 C1222 1.477 . S
C1218 H1236 0.932 . S
C1219 C1220 1.384 . S
C1219 C1221 1.479 . S
C1219 H1237 0.929 . S
C1220 C1217 1.424 . S
C1220 C1219 1.384 . S
C1220 H1238 0.928 . S
C1221 C1218 1.260 . S
C1221 C1219 1.479 . S
C1222 C1217 1.245 . S
C1222 C1218 1.477 . S
C1222 H1239 0.932 . S
C1223 U1206 2.882 . S
C1223 C1217 1.428 . S
C1223 O1226 1.301 . S
C1223 O1227 1.282 . S
O1224 U1206 2.441 . S
O1224 C1210 1.249 . S
O1225 U1206 2.420 . S
O1225 C1210 1.202 . S
O1226 U1206 2.455 . S
O1226 C1223 1.301 . S
O1227 U1206 2.449 . S
O1227 C1223 1.282 . S
H1228 C1201 0.931 . S
H1229 C1203 0.929 . S
H1230 C1204 0.930 . S
H1231 C1205 0.931 . S
H1232 C1212 0.932 . S
H1233 C1213 0.930 . S
H1234 C1214 0.929 . S
H1235 C1216 0.930 . S
H1236 C1218 0.932 . S
H1237 C1219 0.929 . S
H1238 C1220 0.928 . S
H1239 C1222 0.932 . S
C1240 C1241 1.264 . S
C1240 C1245 1.479 . S
C1240 C1250 1.465 . S
C1241 C1240 1.264 . S
C1241 C1243 1.339 . S
C1241 H1268 0.931 . S
C1242 C1243 1.395 . S
C1242 C1244 1.320 . S
C1243 C1241 1.339 . S
C1243 C1242 1.395 . S
C1243 H1269 0.929 . S
C1244 C1242 1.320 . S
C1244 C1245 1.405 . S
C1244 H1270 0.930 . S
C1245 C1240 1.479 . S
C1245 C1244 1.405 . S
C1245 H1271 0.931 . S
U1246 O1247 2.454 . S
U1246 O1248 2.458 . S
U1246 C1249 2.984 . S
U1246 C1250 2.847 . S
U1246 C1263 2.882 . S
U1246 O1264 2.441 . S
U1246 O1265 2.420 . S
U1246 O1266 2.455 . S
U1246 O1267 2.449 . S
O1247 U1246 2.454 . S
O1247 C1249 1.353 . S
O1248 U1246 2.458 . S
O1248 C1249 1.286 . S
C1249 U1246 2.984 . S
C1249 O1247 1.353 . S
C1249 O1248 1.286 . S
C1249 C1251 1.363 . S
C1250 C1240 1.465 . S
C1250 U1246 2.847 . S
C1250 O1264 1.249 . S
C1250 O1265 1.202 . S
C1251 C1249 1.363 . S
C1251 C1253 1.408 . S
C1251 C1256 1.342 . S
C1252 C1253 1.310 . S
C1252 C1255 1.461 . S
C1252 H1272 0.932 . S
C1253 C1251 1.408 . S
C1253 C1252 1.310 . S
C1253 H1273 0.930 . S
C1254 C1255 1.474 . S
C1254 C1256 1.285 . S
C1254 H1274 0.929 . S
C1255 C1252 1.461 . S
C1255 C1254 1.474 . S
C1256 C1251 1.342 . S
C1256 C1254 1.285 . S
C1256 H1275 0.930 . S
C1257 C1260 1.424 . S
C1257 C1262 1.245 . S
C1257 C1263 1.428 . S
C1258 C1261 1.260 . S
C1258 C1262 1.477 . S
C1258 H1276 0.932 . S
C1259 C1260 1.384 . S
C1259 C1261 1.479 . S
C1259 H1277 0.929 . S
C1260 C1257 1.424 . S
C1260 C1259 1.384 . S
C1260 H1278 0.928 . S
C1261 C1258 1.260 . S
C1261 C1259 1.479 . S
C1262 C1257 1.245 . S
C1262 C1258 1.477 . S
C1262 H1279 0.932 . S
C1263 U1246 2.882 . S
C1263 C1257 1.428 . S
C1263 O1266 1.301 . S
C1263 O1267 1.282 . S
O1264 U1246 2.441 . S
O1264 C1250 1.249 . S
O1265 U1246 2.420 . S
O1265 C1250 1.202 . S
O1266 U1246 2.455 . S
O1266 C1263 1.301 . S
O1267 U1246 2.449 . S
O1267 C1263 1.282 . S
H1268 C1241 0.931 . S
H1269 C1243 0.929 . S
H1270 C1244 0.930 . S
H1271 C1245 0.931 . S
H1272 C1252 0.932 . S
H1273 C1253 0.930 . S
H1274 C1254 0.929 . S
H1275 C1256 0.930 . S
H1276 C1258 0.932 . S
H1277 C1259 0.929 . S
H1278 C1260 0.928 . S
H1279 C1262 0.932 . S
C1280 C1281 1.264 . S
C1280 C1285 1.479 . S
C1280 C1290 1.465 . S
C1281 C1280 1.264 . S
C1281 C1283 1.339 . S
C1281 H1308 0.931 . S
C1282 C1283 1.395 . S
C1282 C1284 1.320 . S
C1283 C1281 1.339 . S
C1283 C1282 1.395 . S
C1283 H1309 0.929 . S
C1284 C1282 1.320 . S
C1284 C1285 1.405 . S
C1284 H1310 0.930 . S
C1285 C1280 1.479 . S
C1285 C1284 1.405 . S
C1285 H1311 0.931 . S
U1286 O1287 2.454 . S
U1286 O1288 2.458 . S
U1286 C1289 2.984 . S
U1286 C1290 2.847 . S
U1286 C1303 2.882 . S
U1286 O1304 2.441 . S
U1286 O1305 2.420 . S
U1286 O1306 2.455 . S
U1286 O1307 2.449 . S
O1287 U1286 2.454 . S
O1287 C1289 1.353 . S
O1288 U1286 2.458 . S
O1288 C1289 1.286 . S
C1289 U1286 2.984 . S
C1289 O1287 1.353 . S
C1289 O1288 1.286 . S
C1289 C1291 1.363 . S
C1290 C1280 1.465 . S
C1290 U1286 2.847 . S
C1290 O1304 1.249 . S
C1290 O1305 1.202 . S
C1291 C1289 1.363 . S
C1291 C1293 1.408 . S
C1291 C1296 1.342 . S
C1292 C1293 1.310 . S
C1292 C1295 1.461 . S
C1292 H1312 0.932 . S
C1293 C1291 1.408 . S
C1293 C1292 1.310 . S
C1293 H1313 0.930 . S
C1294 C1295 1.474 . S
C1294 C1296 1.285 . S
C1294 H1314 0.929 . S
C1295 C1292 1.461 . S
C1295 C1294 1.474 . S
C1296 C1291 1.342 . S
C1296 C1294 1.285 . S
C1296 H1315 0.930 . S
C1297 C1300 1.424 . S
C1297 C1302 1.245 . S
C1297 C1303 1.428 . S
C1298 C1301 1.260 . S
C1298 C1302 1.477 . S
C1298 H1316 0.932 . S
C1299 C1300 1.384 . S
C1299 C1301 1.479 . S
C1299 H1317 0.929 . S
C1300 C1297 1.424 . S
C1300 C1299 1.384 . S
C1300 H1318 0.928 . S
C1301 C1298 1.260 . S
C1301 C1299 1.479 . S
C1302 C1297 1.245 . S
C1302 C1298 1.477 . S
C1302 H1319 0.932 . S
C1303 U1286 2.882 . S
C1303 C1297 1.428 . S
C1303 O1306 1.301 . S
C1303 O1307 1.282 . S
O1304 U1286 2.441 . S
O1304 C1290 1.249 . S
O1305 U1286 2.420 . S
O1305 C1290 1.202 . S
O1306 U1286 2.455 . S
O1306 C1303 1.301 . S
O1307 U1286 2.449 . S
O1307 C1303 1.282 . S
H1308 C1281 0.931 . S
H1309 C1283 0.929 . S
H1310 C1284 0.930 . S
H1311 C1285 0.931 . S
H1312 C1292 0.932 . S
H1313 C1293 0.930 . S
H1314 C1294 0.929 . S
H1315 C1296 0.930 . S
H1316 C1298 0.932 . S
H1317 C1299 0.929 . S
H1318 C1300 0.928 . S
H1319 C1302 0.932 . S
C1320 C1321 1.264 . S
C1320 C1325 1.479 . S
C1320 C1330 1.465 . S
C1321 C1320 1.264 . S
C1321 C1323 1.339 . S
C1321 H1348 0.931 . S
C1322 C1323 1.395 . S
C1322 C1324 1.320 . S
C1323 C1321 1.339 . S
C1323 C1322 1.395 . S
C1323 H1349 0.929 . S
C1324 C1322 1.320 . S
C1324 C1325 1.405 . S
C1324 H1350 0.930 . S
C1325 C1320 1.479 . S
C1325 C1324 1.405 . S
C1325 H1351 0.931 . S
U1326 O1327 2.454 . S
U1326 O1328 2.458 . S
U1326 C1329 2.984 . S
U1326 C1330 2.847 . S
U1326 C1343 2.882 . S
U1326 O1344 2.441 . S
U1326 O1345 2.420 . S
U1326 O1346 2.455 . S
U1326 O1347 2.449 . S
O1327 U1326 2.454 . S
O1327 C1329 1.353 . S
O1328 U1326 2.458 . S
O1328 C1329 1.286 . S
C1329 U1326 2.984 . S
C1329 O1327 1.353 . S
C1329 O1328 1.286 . S
C1329 C1331 1.363 . S
C1330 C1320 1.465 . S
C1330 U1326 2.847 . S
C1330 O1344 1.249 . S
C1330 O1345 1.202 . S
C1331 C1329 1.363 . S
C1331 C1333 1.408 . S
C1331 C1336 1.342 . S
C1332 C1333 1.310 . S
C1332 C1335 1.461 . S
C1332 H1352 0.932 . S
C1333 C1331 1.408 . S
C1333 C1332 1.310 . S
C1333 H1353 0.930 . S
C1334 C1335 1.474 . S
C1334 C1336 1.285 . S
C1334 H1354 0.929 . S
C1335 C1332 1.461 . S
C1335 C1334 1.474 . S
C1336 C1331 1.342 . S
C1336 C1334 1.285 . S
C1336 H1355 0.930 . S
C1337 C1340 1.424 . S
C1337 C1342 1.245 . S
C1337 C1343 1.428 . S
C1338 C1341 1.260 . S
C1338 C1342 1.477 . S
C1338 H1356 0.932 . S
C1339 C1340 1.384 . S
C1339 C1341 1.479 . S
C1339 H1357 0.929 . S
C1340 C1337 1.424 . S
C1340 C1339 1.384 . S
C1340 H1358 0.928 . S
C1341 C1338 1.260 . S
C1341 C1339 1.479 . S
C1342 C1337 1.245 . S
C1342 C1338 1.477 . S
C1342 H1359 0.932 . S
C1343 U1326 2.882 . S
C1343 C1337 1.428 . S
C1343 O1346 1.301 . S
C1343 O1347 1.282 . S
O1344 U1326 2.441 . S
O1344 C1330 1.249 . S
O1345 U1326 2.420 . S
O1345 C1330 1.202 . S
O1346 U1326 2.455 . S
O1346 C1343 1.301 . S
O1347 U1326 2.449 . S
O1347 C1343 1.282 . S
H1348 C1321 0.931 . S
H1349 C1323 0.929 . S
H1350 C1324 0.930 . S
H1351 C1325 0.931 . S
H1352 C1332 0.932 . S
H1353 C1333 0.930 . S
H1354 C1334 0.929 . S
H1355 C1336 0.930 . S
H1356 C1338 0.932 . S
H1357 C1339 0.929 . S
H1358 C1340 0.928 . S
H1359 C1342 0.932 . S
C1360 C1361 1.264 . S
C1360 C1365 1.479 . S
C1360 C1370 1.465 . S
C1361 C1360 1.264 . S
C1361 C1363 1.339 . S
C1361 H1388 0.931 . S
C1362 C1363 1.395 . S
C1362 C1364 1.320 . S
C1363 C1361 1.339 . S
C1363 C1362 1.395 . S
C1363 H1389 0.929 . S
C1364 C1362 1.320 . S
C1364 C1365 1.405 . S
C1364 H1390 0.930 . S
C1365 C1360 1.479 . S
C1365 C1364 1.405 . S
C1365 H1391 0.931 . S
U1366 O1367 2.454 . S
U1366 O1368 2.458 . S
U1366 C1369 2.984 . S
U1366 C1370 2.847 . S
U1366 C1383 2.882 . S
U1366 O1384 2.441 . S
U1366 O1385 2.420 . S
U1366 O1386 2.455 . S
U1366 O1387 2.449 . S
O1367 U1366 2.454 . S
O1367 C1369 1.353 . S
O1368 U1366 2.458 . S
O1368 C1369 1.286 . S
C1369 U1366 2.984 . S
C1369 O1367 1.353 . S
C1369 O1368 1.286 . S
C1369 C1371 1.363 . S
C1370 C1360 1.465 . S
C1370 U1366 2.847 . S
C1370 O1384 1.249 . S
C1370 O1385 1.202 . S
C1371 C1369 1.363 . S
C1371 C1373 1.408 . S
C1371 C1376 1.342 . S
C1372 C1373 1.310 . S
C1372 C1375 1.461 . S
C1372 H1392 0.932 . S
C1373 C1371 1.408 . S
C1373 C1372 1.310 . S
C1373 H1393 0.930 . S
C1374 C1375 1.474 . S
C1374 C1376 1.285 . S
C1374 H1394 0.929 . S
C1375 C1372 1.461 . S
C1375 C1374 1.474 . S
C1376 C1371 1.342 . S
C1376 C1374 1.285 . S
C1376 H1395 0.930 . S
C1377 C1380 1.424 . S
C1377 C1382 1.245 . S
C1377 C1383 1.428 . S
C1378 C1381 1.260 . S
C1378 C1382 1.477 . S
C1378 H1396 0.932 . S
C1379 C1380 1.384 . S
C1379 C1381 1.479 . S
C1379 H1397 0.929 . S
C1380 C1377 1.424 . S
C1380 C1379 1.384 . S
C1380 H1398 0.928 . S
C1381 C1378 1.260 . S
C1381 C1379 1.479 . S
C1382 C1377 1.245 . S
C1382 C1378 1.477 . S
C1382 H1399 0.932 . S
C1383 U1366 2.882 . S
C1383 C1377 1.428 . S
C1383 O1386 1.301 . S
C1383 O1387 1.282 . S
O1384 U1366 2.441 . S
O1384 C1370 1.249 . S
O1385 U1366 2.420 . S
O1385 C1370 1.202 . S
O1386 U1366 2.455 . S
O1386 C1383 1.301 . S
O1387 U1366 2.449 . S
O1387 C1383 1.282 . S
H1388 C1361 0.931 . S
H1389 C1363 0.929 . S
H1390 C1364 0.930 . S
H1391 C1365 0.931 . S
H1392 C1372 0.932 . S
H1393 C1373 0.930 . S
H1394 C1374 0.929 . S
H1395 C1376 0.930 . S
H1396 C1378 0.932 . S
H1397 C1379 0.929 . S
H1398 C1380 0.928 . S
H1399 C1382 0.932 . S
C1400 C1401 1.264 . S
C1400 C1405 1.479 . S
C1400 C1410 1.465 . S
C1401 C1400 1.264 . S
C1401 C1403 1.339 . S
C1401 H1428 0.931 . S
C1402 C1403 1.395 . S
C1402 C1404 1.320 . S
C1403 C1401 1.339 . S
C1403 C1402 1.395 . S
C1403 H1429 0.929 . S
C1404 C1402 1.320 . S
C1404 C1405 1.405 . S
C1404 H1430 0.930 . S
C1405 C1400 1.479 . S
C1405 C1404 1.405 . S
C1405 H1431 0.931 . S
U1406 O1407 2.454 . S
U1406 O1408 2.458 . S
U1406 C1409 2.984 . S
U1406 C1410 2.847 . S
U1406 C1423 2.882 . S
U1406 O1424 2.441 . S
U1406 O1425 2.420 . S
U1406 O1426 2.455 . S
U1406 O1427 2.449 . S
O1407 U1406 2.454 . S
O1407 C1409 1.353 . S
O1408 U1406 2.458 . S
O1408 C1409 1.286 . S
C1409 U1406 2.984 . S
C1409 O1407 1.353 . S
C1409 O1408 1.286 . S
C1409 C1411 1.363 . S
C1410 C1400 1.465 . S
C1410 U1406 2.847 . S
C1410 O1424 1.249 . S
C1410 O1425 1.202 . S
C1411 C1409 1.363 . S
C1411 C1413 1.408 . S
C1411 C1416 1.342 . S
C1412 C1413 1.310 . S
C1412 C1415 1.461 . S
C1412 H1432 0.932 . S
C1413 C1411 1.408 . S
C1413 C1412 1.310 . S
C1413 H1433 0.930 . S
C1414 C1415 1.474 . S
C1414 C1416 1.285 . S
C1414 H1434 0.929 . S
C1415 C1412 1.461 . S
C1415 C1414 1.474 . S
C1416 C1411 1.342 . S
C1416 C1414 1.285 . S
C1416 H1435 0.930 . S
C1417 C1420 1.424 . S
C1417 C1422 1.245 . S
C1417 C1423 1.428 . S
C1418 C1421 1.260 . S
C1418 C1422 1.477 . S
C1418 H1436 0.932 . S
C1419 C1420 1.384 . S
C1419 C1421 1.479 . S
C1419 H1437 0.929 . S
C1420 C1417 1.424 . S
C1420 C1419 1.384 . S
C1420 H1438 0.928 . S
C1421 C1418 1.260 . S
C1421 C1419 1.479 . S
C1422 C1417 1.245 . S
C1422 C1418 1.477 . S
C1422 H1439 0.932 . S
C1423 U1406 2.882 . S
C1423 C1417 1.428 . S
C1423 O1426 1.301 . S
C1423 O1427 1.282 . S
O1424 U1406 2.441 . S
O1424 C1410 1.249 . S
O1425 U1406 2.420 . S
O1425 C1410 1.202 . S
O1426 U1406 2.455 . S
O1426 C1423 1.301 . S
O1427 U1406 2.449 . S
O1427 C1423 1.282 . S
H1428 C1401 0.931 . S
H1429 C1403 0.929 . S
H1430 C1404 0.930 . S
H1431 C1405 0.931 . S
H1432 C1412 0.932 . S
H1433 C1413 0.930 . S
H1434 C1414 0.929 . S
H1435 C1416 0.930 . S
H1436 C1418 0.932 . S
H1437 C1419 0.929 . S
H1438 C1420 0.928 . S
H1439 C1422 0.932 . S
C1440 C1441 1.264 . S
C1440 C1445 1.479 . S
C1440 C1450 1.465 . S
C1441 C1440 1.264 . S
C1441 C1443 1.339 . S
C1441 H1468 0.931 . S
C1442 C1443 1.395 . S
C1442 C1444 1.320 . S
C1443 C1441 1.339 . S
C1443 C1442 1.395 . S
C1443 H1469 0.929 . S
C1444 C1442 1.320 . S
C1444 C1445 1.405 . S
C1444 H1470 0.930 . S
C1445 C1440 1.479 . S
C1445 C1444 1.405 . S
C1445 H1471 0.931 . S
U1446 O1447 2.454 . S
U1446 O1448 2.458 . S
U1446 C1449 2.984 . S
U1446 C1450 2.847 . S
U1446 C1463 2.882 . S
U1446 O1464 2.441 . S
U1446 O1465 2.420 . S
U1446 O1466 2.455 . S
U1446 O1467 2.449 . S
O1447 U1446 2.454 . S
O1447 C1449 1.353 . S
O1448 U1446 2.458 . S
O1448 C1449 1.286 . S
C1449 U1446 2.984 . S
C1449 O1447 1.353 . S
C1449 O1448 1.286 . S
C1449 C1451 1.363 . S
C1450 C1440 1.465 . S
C1450 U1446 2.847 . S
C1450 O1464 1.249 . S
C1450 O1465 1.202 . S
C1451 C1449 1.363 . S
C1451 C1453 1.408 . S
C1451 C1456 1.342 . S
C1452 C1453 1.310 . S
C1452 C1455 1.461 . S
C1452 H1472 0.932 . S
C1453 C1451 1.408 . S
C1453 C1452 1.310 . S
C1453 H1473 0.930 . S
C1454 C1455 1.474 . S
C1454 C1456 1.285 . S
C1454 H1474 0.929 . S
C1455 C1452 1.461 . S
C1455 C1454 1.474 . S
C1456 C1451 1.342 . S
C1456 C1454 1.285 . S
C1456 H1475 0.930 . S
C1457 C1460 1.424 . S
C1457 C1462 1.245 . S
C1457 C1463 1.428 . S
C1458 C1461 1.260 . S
C1458 C1462 1.477 . S
C1458 H1476 0.932 . S
C1459 C1460 1.384 . S
C1459 C1461 1.479 . S
C1459 H1477 0.929 . S
C1460 C1457 1.424 . S
C1460 C1459 1.384 . S
C1460 H1478 0.928 . S
C1461 C1458 1.260 . S
C1461 C1459 1.479 . S
C1462 C1457 1.245 . S
C1462 C1458 1.477 . S
C1462 H1479 0.932 . S
C1463 U1446 2.882 . S
C1463 C1457 1.428 . S
C1463 O1466 1.301 . S
C1463 O1467 1.282 . S
O1464 U1446 2.441 . S
O1464 C1450 1.249 . S
O1465 U1446 2.420 . S
O1465 C1450 1.202 . S
O1466 U1446 2.455 . S
O1466 C1463 1.301 . S
O1467 U1446 2.449 . S
O1467 C1463 1.282 . S
H1468 C1441 0.931 . S
H1469 C1443 0.929 . S
H1470 C1444 0.930 . S
H1471 C1445 0.931 . S
H1472 C1452 0.932 . S
H1473 C1453 0.930 . S
H1474 C1454 0.929 . S
H1475 C1456 0.930 . S
H1476 C1458 0.932 . S
H1477 C1459 0.929 . S
H1478 C1460 0.928 . S
H1479 C1462 0.932 . S
C1480 C1481 1.264 . S
C1480 C1485 1.479 . S
C1480 C1490 1.465 . S
C1481 C1480 1.264 . S
C1481 C1483 1.339 . S
C1481 H1508 0.931 . S
C1482 C1483 1.395 . S
C1482 C1484 1.320 . S
C1483 C1481 1.339 . S
C1483 C1482 1.395 . S
C1483 H1509 0.929 . S
C1484 C1482 1.320 . S
C1484 C1485 1.405 . S
C1484 H1510 0.930 . S
C1485 C1480 1.479 . S
C1485 C1484 1.405 . S
C1485 H1511 0.931 . S
U1486 O1487 2.454 . S
U1486 O1488 2.458 . S
U1486 C1489 2.984 . S
U1486 C1490 2.847 . S
U1486 C1503 2.882 . S
U1486 O1504 2.441 . S
U1486 O1505 2.420 . S
U1486 O1506 2.455 . S
U1486 O1507 2.449 . S
O1487 U1486 2.454 . S
O1487 C1489 1.353 . S
O1488 U1486 2.458 . S
O1488 C1489 1.286 . S
C1489 U1486 2.984 . S
C1489 O1487 1.353 . S
C1489 O1488 1.286 . S
C1489 C1491 1.363 . S
C1490 C1480 1.465 . S
C1490 U1486 2.847 . S
C1490 O1504 1.249 . S
C1490 O1505 1.202 . S
C1491 C1489 1.363 . S
C1491 C1493 1.408 . S
C1491 C1496 1.342 . S
C1492 C1493 1.310 . S
C1492 C1495 1.461 . S
C1492 H1512 0.932 . S
C1493 C1491 1.408 . S
C1493 C1492 1.310 . S
C1493 H1513 0.930 . S
C1494 C1495 1.474 . S
C1494 C1496 1.285 . S
C1494 H1514 0.929 . S
C1495 C1492 1.461 . S
C1495 C1494 1.474 . S
C1496 C1491 1.342 . S
C1496 C1494 1.285 . S
C1496 H1515 0.930 . S
C1497 C1500 1.424 . S
C1497 C1502 1.245 . S
C1497 C1503 1.428 . S
C1498 C1501 1.260 . S
C1498 C1502 1.477 . S
C1498 H1516 0.932 . S
C1499 C1500 1.384 . S
C1499 C1501 1.479 . S
C1499 H1517 0.929 . S
C1500 C1497 1.424 . S
C1500 C1499 1.384 . S
C1500 H1518 0.928 . S
C1501 C1498 1.260 . S
C1501 C1499 1.479 . S
C1502 C1497 1.245 . S
C1502 C1498 1.477 . S
C1502 H1519 0.932 . S
C1503 U1486 2.882 . S
C1503 C1497 1.428 . S
C1503 O1506 1.301 . S
C1503 O1507 1.282 . S
O1504 U1486 2.441 . S
O1504 C1490 1.249 . S
O1505 U1486 2.420 . S
O1505 C1490 1.202 . S
O1506 U1486 2.455 . S
O1506 C1503 1.301 . S
O1507 U1486 2.449 . S
O1507 C1503 1.282 . S
H1508 C1481 0.931 . S
H1509 C1483 0.929 . S
H1510 C1484 0.930 . S
H1511 C1485 0.931 . S
H1512 C1492 0.932 . S
H1513 C1493 0.930 . S
H1514 C1494 0.929 . S
H1515 C1496 0.930 . S
H1516 C1498 0.932 . S
H1517 C1499 0.929 . S
H1518 C1500 0.928 . S
H1519 C1502 0.932 . S
C1520 C1521 1.264 . S
C1520 C1525 1.479 . S
C1520 C1530 1.465 . S
C1521 C1520 1.264 . S
C1521 C1523 1.339 . S
C1521 H1548 0.931 . S
C1522 C1523 1.395 . S
C1522 C1524 1.320 . S
C1523 C1521 1.339 . S
C1523 C1522 1.395 . S
C1523 H1549 0.929 . S
C1524 C1522 1.320 . S
C1524 C1525 1.405 . S
C1524 H1550 0.930 . S
C1525 C1520 1.479 . S
C1525 C1524 1.405 . S
C1525 H1551 0.931 . S
U1526 O1527 2.454 . S
U1526 O1528 2.458 . S
U1526 C1529 2.984 . S
U1526 C1530 2.847 . S
U1526 C1543 2.882 . S
U1526 O1544 2.441 . S
U1526 O1545 2.420 . S
U1526 O1546 2.455 . S
U1526 O1547 2.449 . S
O1527 U1526 2.454 . S
O1527 C1529 1.353 . S
O1528 U1526 2.458 . S
O1528 C1529 1.286 . S
C1529 U1526 2.984 . S
C1529 O1527 1.353 . S
C1529 O1528 1.286 . S
C1529 C1531 1.363 . S
C1530 C1520 1.465 . S
C1530 U1526 2.847 . S
C1530 O1544 1.249 . S
C1530 O1545 1.202 . S
C1531 C1529 1.363 . S
C1531 C1533 1.408 . S
C1531 C1536 1.342 . S
C1532 C1533 1.310 . S
C1532 C1535 1.461 . S
C1532 H1552 0.932 . S
C1533 C1531 1.408 . S
C1533 C1532 1.310 . S
C1533 H1553 0.930 . S
C1534 C1535 1.474 . S
C1534 C1536 1.285 . S
C1534 H1554 0.929 . S
C1535 C1532 1.461 . S
C1535 C1534 1.474 . S
C1536 C1531 1.342 . S
C1536 C1534 1.285 . S
C1536 H1555 0.930 . S
C1537 C1540 1.424 . S
C1537 C1542 1.245 . S
C1537 C1543 1.428 . S
C1538 C1541 1.260 . S
C1538 C1542 1.477 . S
C1538 H1556 0.932 . S
C1539 C1540 1.384 . S
C1539 C1541 1.479 . S
C1539 H1557 0.929 . S
C1540 C1537 1.424 . S
C1540 C1539 1.384 . S
C1540 H1558 0.928 . S
C1541 C1538 1.260 . S
C1541 C1539 1.479 . S
C1542 C1537 1.245 . S
C1542 C1538 1.477 . S
C1542 H1559 0.932 . S
C1543 U1526 2.882 . S
C1543 C1537 1.428 . S
C1543 O1546 1.301 . S
C1543 O1547 1.282 . S
O1544 U1526 2.441 . S
O1544 C1530 1.249 . S
O1545 U1526 2.420 . S
O1545 C1530 1.202 . S
O1546 U1526 2.455 . S
O1546 C1543 1.301 . S
O1547 U1526 2.449 . S
O1547 C1543 1.282 . S
H1548 C1521 0.931 . S
H1549 C1523 0.929 . S
H1550 C1524 0.930 . S
H1551 C1525 0.931 . S
H1552 C1532 0.932 . S
H1553 C1533 0.930 . S
H1554 C1534 0.929 . S
H1555 C1536 0.930 . S
H1556 C1538 0.932 . S
H1557 C1539 0.929 . S
H1558 C1540 0.928 . S
H1559 C1542 0.932 . S
C1560 C1561 1.264 . S
C1560 C1565 1.479 . S
C1560 C1570 1.465 . S
C1561 C1560 1.264 . S
C1561 C1563 1.339 . S
C1561 H1588 0.931 . S
C1562 C1563 1.395 . S
C1562 C1564 1.320 . S
C1563 C1561 1.339 . S
C1563 C1562 1.395 . S
C1563 H1589 0.929 . S
C1564 C1562 1.320 . S
C1564 C1565 1.405 . S
C1564 H1590 0.930 . S
C1565 C1560 1.479 . S
C1565 C1564 1.405 . S
C1565 H1591 0.931 . S
U1566 O1567 2.454 . S
U1566 O1568 2.458 . S
U1566 C1569 2.984 . S
U1566 C1570 2.847 . S
U1566 C1583 2.882 . S
U1566 O1584 2.441 . S
U1566 O1585 2.420 . S
U1566 O1586 2.455 . S
U1566 O1587 2.449 . S
O1567 U1566 2.454 . S
O1567 C1569 1.353 . S
O1568 U1566 2.458 . S
O1568 C1569 1.286 . S
C1569 U1566 2.984 . S
C1569 O1567 1.353 . S
C1569 O1568 1.286 . S
C1569 C1571 1.363 . S
C1570 C1560 1.465 . S
C1570 U1566 2.847 . S
C1570 O1584 1.249 . S
C1570 O1585 1.202 . S
C1571 C1569 1.363 . S
C1571 C1573 1.408 . S
C1571 C1576 1.342 . S
C1572 C1573 1.310 . S
C1572 C1575 1.461 . S
C1572 H1592 0.932 . S
C1573 C1571 1.408 . S
C1573 C1572 1.310 . S
C1573 H1593 0.930 . S
C1574 C1575 1.474 . S
C1574 C1576 1.285 . S
C1574 H1594 0.929 . S
C1575 C1572 1.461 . S
C1575 C1574 1.474 . S
C1576 C1571 1.342 . S
C1576 C1574 1.285 . S
C1576 H1595 0.930 . S
C1577 C1580 1.424 . S
C1577 C1582 1.245 . S
C1577 C1583 1.428 . S
C1578 C1581 1.260 . S
C1578 C1582 1.477 . S
C1578 H1596 0.932 . S
C1579 C1580 1.384 . S
C1579 C1581 1.479 . S
C1579 H1597 0.929 . S
C1580 C1577 1.424 . S
C1580 C1579 1.384 . S
C1580 H1598 0.928 . S
C1581 C1578 1.260 . S
C1581 C1579 1.479 . S
C1582 C1577 1.245 . S
C1582 C1578 1.477 . S
C1582 H1599 0.932 . S
C1583 U1566 2.882 . S
C1583 C1577 1.428 . S
C1583 O1586 1.301 . S
C1583 O1587 1.282 . S
O1584 U1566 2.441 . S
O1584 C1570 1.249 . S
O1585 U1566 2.420 . S
O1585 C1570 1.202 . S
O1586 U1566 2.455 . S
O1586 C1583 1.301 . S
O1587 U1566 2.449 . S
O1587 C1583 1.282 . S
H1588 C1561 0.931 . S
H1589 C1563 0.929 . S
H1590 C1564 0.930 . S
H1591 C1565 0.931 . S
H1592 C1572 0.932 . S
H1593 C1573 0.930 . S
H1594 C1574 0.929 . S
H1595 C1576 0.930 . S
H1596 C1578 0.932 . S
H1597 C1579 0.929 . S
H1598 C1580 0.928 . S
H1599 C1582 0.932 . S
C1600 C1601 1.264 . S
C1600 C1605 1.479 . S
C1600 C1610 1.465 . S
C1601 C1600 1.264 . S
C1601 C1603 1.339 . S
C1601 H1628 0.931 . S
C1602 C1603 1.395 . S
C1602 C1604 1.320 . S
C1603 C1601 1.339 . S
C1603 C1602 1.395 . S
C1603 H1629 0.929 . S
C1604 C1602 1.320 . S
C1604 C1605 1.405 . S
C1604 H1630 0.930 . S
C1605 C1600 1.479 . S
C1605 C1604 1.405 . S
C1605 H1631 0.931 . S
U1606 O1607 2.454 . S
U1606 O1608 2.458 . S
U1606 C1609 2.984 . S
U1606 C1610 2.847 . S
U1606 C1623 2.882 . S
U1606 O1624 2.441 . S
U1606 O1625 2.420 . S
U1606 O1626 2.455 . S
U1606 O1627 2.449 . S
O1607 U1606 2.454 . S
O1607 C1609 1.353 . S
O1608 U1606 2.458 . S
O1608 C1609 1.286 . S
C1609 U1606 2.984 . S
C1609 O1607 1.353 . S
C1609 O1608 1.286 . S
C1609 C1611 1.363 . S
C1610 C1600 1.465 . S
C1610 U1606 2.847 . S
C1610 O1624 1.249 . S
C1610 O1625 1.202 . S
C1611 C1609 1.363 . S
C1611 C1613 1.408 . S
C1611 C1616 1.342 . S
C1612 C1613 1.310 . S
C1612 C1615 1.461 . S
C1612 H1632 0.932 . S
C1613 C1611 1.408 . S
C1613 C1612 1.310 . S
C1613 H1633 0.930 . S
C1614 C1615 1.474 . S
C1614 C1616 1.285 . S
C1614 H1634 0.929 . S
C1615 C1612 1.461 . S
C1615 C1614 1.474 . S
C1616 C1611 1.342 . S
C1616 C1614 1.285 . S
C1616 H1635 0.930 . S
C1617 C1620 1.424 . S
C1617 C1622 1.245 . S
C1617 C1623 1.428 . S
C1618 C1621 1.260 . S
C1618 C1622 1.477 . S
C1618 H1636 0.932 . S
C1619 C1620 1.384 . S
C1619 C1621 1.479 . S
C1619 H1637 0.929 . S
C1620 C1617 1.424 . S
C1620 C1619 1.384 . S
C1620 H1638 0.928 . S
C1621 C1618 1.260 . S
C1621 C1619 1.479 . S
C1622 C1617 1.245 . S
C1622 C1618 1.477 . S
C1622 H1639 0.932 . S
C1623 U1606 2.882 . S
C1623 C1617 1.428 . S
C1623 O1626 1.301 . S
C1623 O1627 1.282 . S
O1624 U1606 2.441 . S
O1624 C1610 1.249 . S
O1625 U1606 2.420 . S
O1625 C1610 1.202 . S
O1626 U1606 2.455 . S
O1626 C1623 1.301 . S
O1627 U1606 2.449 . S
O1627 C1623 1.282 . S
H1628 C1601 0.931 . S
H1629 C1603 0.929 . S
H1630 C1604 0.930 . S
H1631 C1605 0.931 . S
H1632 C1612 0.932 . S
H1633 C1613 0.930 . S
H1634 C1614 0.929 . S
H1635 C1616 0.930 . S
H1636 C1618 0.932 . S
H1637 C1619 0.929 . S
H1638 C1620 0.928 . S
H1639 C1622 0.932 . S
C1640 C1641 1.264 . S
C1640 C1645 1.479 . S
C1640 C1650 1.465 . S
C1641 C1640 1.264 . S
C1641 C1643 1.339 . S
C1641 H1668 0.931 . S
C1642 C1643 1.395 . S
C1642 C1644 1.320 . S
C1643 C1641 1.339 . S
C1643 C1642 1.395 . S
C1643 H1669 0.929 . S
C1644 C1642 1.320 . S
C1644 C1645 1.405 . S
C1644 H1670 0.930 . S
C1645 C1640 1.479 . S
C1645 C1644 1.405 . S
C1645 H1671 0.931 . S
U1646 O1647 2.454 . S
U1646 O1648 2.458 . S
U1646 C1649 2.984 . S
U1646 C1650 2.847 . S
U1646 C1663 2.882 . S
U1646 O1664 2.441 . S
U1646 O1665 2.420 . S
U1646 O1666 2.455 . S
U1646 O1667 2.449 . S
O1647 U1646 2.454 . S
O1647 C1649 1.353 . S
O1648 U1646 2.458 . S
O1648 C1649 1.286 . S
C1649 U1646 2.984 . S
C1649 O1647 1.353 . S
C1649 O1648 1.286 . S
C1649 C1651 1.363 . S
C1650 C1640 1.465 . S
C1650 U1646 2.847 . S
C1650 O1664 1.249 . S
C1650 O1665 1.202 . S
C1651 C1649 1.363 . S
C1651 C1653 1.408 . S
C1651 C1656 1.342 . S
C1652 C1653 1.310 . S
C1652 C1655 1.461 . S
C1652 H1672 0.932 . S
C1653 C1651 1.408 . S
C1653 C1652 1.310 . S
C1653 H1673 0.930 . S
C1654 C1655 1.474 . S
C1654 C1656 1.285 . S
C1654 H1674 0.929 . S
C1655 C1652 1.461 . S
C1655 C1654 1.474 . S
C1656 C1651 1.342 . S
C1656 C1654 1.285 . S
C1656 H1675 0.930 . S
C1657 C1660 1.424 . S
C1657 C1662 1.245 . S
C1657 C1663 1.428 . S
C1658 C1661 1.260 . S
C1658 C1662 1.477 . S
C1658 H1676 0.932 . S
C1659 C1660 1.384 . S
C1659 C1661 1.479 . S
C1659 H1677 0.929 . S
C1660 C1657 1.424 . S
C1660 C1659 1.384 . S
C1660 H1678 0.928 . S
C1661 C1658 1.260 . S
C1661 C1659 1.479 . S
C1662 C1657 1.245 . S
C1662 C1658 1.477 . S
C1662 H1679 0.932 . S
C1663 U1646 2.882 . S
C1663 C1657 1.428 . S
C1663 O1666 1.301 . S
C1663 O1667 1.282 . S
O1664 U1646 2.441 . S
O1664 C1650 1.249 . S
O1665 U1646 2.420 . S
O1665 C1650 1.202 . S
O1666 U1646 2.455 . S
O1666 C1663 1.301 . S
O1667 U1646 2.449 . S
O1667 C1663 1.282 . S
H1668 C1641 0.931 . S
H1669 C1643 0.929 . S
H1670 C1644 0.930 . S
H1671 C1645 0.931 . S
H1672 C1652 0.932 . S
H1673 C1653 0.930 . S
H1674 C1654 0.929 . S
H1675 C1656 0.930 . S
H1676 C1658 0.932 . S
H1677 C1659 0.929 . S
H1678 C1660 0.928 . S
H1679 C1662 0.932 . S
C1680 C1681 1.264 . S
C1680 C1685 1.479 . S
C1680 C1690 1.465 . S
C1681 C1680 1.264 . S
C1681 C1683 1.339 . S
C1681 H1708 0.931 . S
C1682 C1683 1.395 . S
C1682 C1684 1.320 . S
C1683 C1681 1.339 . S
C1683 C1682 1.395 . S
C1683 H1709 0.929 . S
C1684 C1682 1.320 . S
C1684 C1685 1.405 . S
C1684 H1710 0.930 . S
C1685 C1680 1.479 . S
C1685 C1684 1.405 . S
C1685 H1711 0.931 . S
U1686 O1687 2.454 . S
U1686 O1688 2.458 . S
U1686 C1689 2.984 . S
U1686 C1690 2.847 . S
U1686 C1703 2.882 . S
U1686 O1704 2.441 . S
U1686 O1705 2.420 . S
U1686 O1706 2.455 . S
U1686 O1707 2.449 . S
O1687 U1686 2.454 . S
O1687 C1689 1.353 . S
O1688 U1686 2.458 . S
O1688 C1689 1.286 . S
C1689 U1686 2.984 . S
C1689 O1687 1.353 . S
C1689 O1688 1.286 . S
C1689 C1691 1.363 . S
C1690 C1680 1.465 . S
C1690 U1686 2.847 . S
C1690 O1704 1.249 . S
C1690 O1705 1.202 . S
C1691 C1689 1.363 . S
C1691 C1693 1.408 . S
C1691 C1696 1.342 . S
C1692 C1693 1.310 . S
C1692 C1695 1.461 . S
C1692 H1712 0.932 . S
C1693 C1691 1.408 . S
C1693 C1692 1.310 . S
C1693 H1713 0.930 . S
C1694 C1695 1.474 . S
C1694 C1696 1.285 . S
C1694 H1714 0.929 . S
C1695 C1692 1.461 . S
C1695 C1694 1.474 . S
C1696 C1691 1.342 . S
C1696 C1694 1.285 . S
C1696 H1715 0.930 . S
C1697 C1700 1.424 . S
C1697 C1702 1.245 . S
C1697 C1703 1.428 . S
C1698 C1701 1.260 . S
C1698 C1702 1.477 . S
C1698 H1716 0.932 . S
C1699 C1700 1.384 . S
C1699 C1701 1.479 . S
C1699 H1717 0.929 . S
C1700 C1697 1.424 . S
C1700 C1699 1.384 . S
C1700 H1718 0.928 . S
C1701 C1698 1.260 . S
C1701 C1699 1.479 . S
C1702 C1697 1.245 . S
C1702 C1698 1.477 . S
C1702 H1719 0.932 . S
C1703 U1686 2.882 . S
C1703 C1697 1.428 . S
C1703 O1706 1.301 . S
C1703 O1707 1.282 . S
O1704 U1686 2.441 . S
O1704 C1690 1.249 . S
O1705 U1686 2.420 . S
O1705 C1690 1.202 . S
O1706 U1686 2.455 . S
O1706 C1703 1.301 . S
O1707 U1686 2.449 . S
O1707 C1703 1.282 . S
H1708 C1681 0.931 . S
H1709 C1683 0.929 . S
H1710 C1684 0.930 . S
H1711 C1685 0.931 . S
H1712 C1692 0.932 . S
H1713 C1693 0.930 . S
H1714 C1694 0.929 . S
H1715 C1696 0.930 . S
H1716 C1698 0.932 . S
H1717 C1699 0.929 . S
H1718 C1700 0.928 . S
H1719 C1702 0.932 . S
C1720 C1721 1.264 . S
C1720 C1725 1.479 . S
C1720 C1730 1.465 . S
C1721 C1720 1.264 . S
C1721 C1723 1.339 . S
C1721 H1748 0.931 . S
C1722 C1723 1.395 . S
C1722 C1724 1.320 . S
C1723 C1721 1.339 . S
C1723 C1722 1.395 . S
C1723 H1749 0.929 . S
C1724 C1722 1.320 . S
C1724 C1725 1.405 . S
C1724 H1750 0.930 . S
C1725 C1720 1.479 . S
C1725 C1724 1.405 . S
C1725 H1751 0.931 . S
U1726 O1727 2.454 . S
U1726 O1728 2.458 . S
U1726 C1729 2.984 . S
U1726 C1730 2.847 . S
U1726 C1743 2.882 . S
U1726 O1744 2.441 . S
U1726 O1745 2.420 . S
U1726 O1746 2.455 . S
U1726 O1747 2.449 . S
O1727 U1726 2.454 . S
O1727 C1729 1.353 . S
O1728 U1726 2.458 . S
O1728 C1729 1.286 . S
C1729 U1726 2.984 . S
C1729 O1727 1.353 . S
C1729 O1728 1.286 . S
C1729 C1731 1.363 . S
C1730 C1720 1.465 . S
C1730 U1726 2.847 . S
C1730 O1744 1.249 . S
C1730 O1745 1.202 . S
C1731 C1729 1.363 . S
C1731 C1733 1.408 . S
C1731 C1736 1.342 . S
C1732 C1733 1.310 . S
C1732 C1735 1.461 . S
C1732 H1752 0.932 . S
C1733 C1731 1.408 . S
C1733 C1732 1.310 . S
C1733 H1753 0.930 . S
C1734 C1735 1.474 . S
C1734 C1736 1.285 . S
C1734 H1754 0.929 . S
C1735 C1732 1.461 . S
C1735 C1734 1.474 . S
C1736 C1731 1.342 . S
C1736 C1734 1.285 . S
C1736 H1755 0.930 . S
C1737 C1740 1.424 . S
C1737 C1742 1.245 . S
C1737 C1743 1.428 . S
C1738 C1741 1.260 . S
C1738 C1742 1.477 . S
C1738 H1756 0.932 . S
C1739 C1740 1.384 . S
C1739 C1741 1.479 . S
C1739 H1757 0.929 . S
C1740 C1737 1.424 . S
C1740 C1739 1.384 . S
C1740 H1758 0.928 . S
C1741 C1738 1.260 . S
C1741 C1739 1.479 . S
C1742 C1737 1.245 . S
C1742 C1738 1.477 . S
C1742 H1759 0.932 . S
C1743 U1726 2.882 . S
C1743 C1737 1.428 . S
C1743 O1746 1.301 . S
C1743 O1747 1.282 . S
O1744 U1726 2.441 . S
O1744 C1730 1.249 . S
O1745 U1726 2.420 . S
O1745 C1730 1.202 . S
O1746 U1726 2.455 . S
O1746 C1743 1.301 . S
O1747 U1726 2.449 . S
O1747 C1743 1.282 . S
H1748 C1721 0.931 . S
H1749 C1723 0.929 . S
H1750 C1724 0.930 . S
H1751 C1725 0.931 . S
H1752 C1732 0.932 . S
H1753 C1733 0.930 . S
H1754 C1734 0.929 . S
H1755 C1736 0.930 . S
H1756 C1738 0.932 . S
H1757 C1739 0.929 . S
H1758 C1740 0.928 . S
H1759 C1742 0.932 . S
C1760 C1761 1.264 . S
C1760 C1765 1.479 . S
C1760 C1770 1.465 . S
C1761 C1760 1.264 . S
C1761 C1763 1.339 . S
C1761 H1788 0.931 . S
C1762 C1763 1.395 . S
C1762 C1764 1.320 . S
C1763 C1761 1.339 . S
C1763 C1762 1.395 . S
C1763 H1789 0.929 . S
C1764 C1762 1.320 . S
C1764 C1765 1.405 . S
C1764 H1790 0.930 . S
C1765 C1760 1.479 . S
C1765 C1764 1.405 . S
C1765 H1791 0.931 . S
U1766 O1767 2.454 . S
U1766 O1768 2.458 . S
U1766 C1769 2.984 . S
U1766 C1770 2.847 . S
U1766 C1783 2.882 . S
U1766 O1784 2.441 . S
U1766 O1785 2.420 . S
U1766 O1786 2.455 . S
U1766 O1787 2.449 . S
O1767 U1766 2.454 . S
O1767 C1769 1.353 . S
O1768 U1766 2.458 . S
O1768 C1769 1.286 . S
C1769 U1766 2.984 . S
C1769 O1767 1.353 . S
C1769 O1768 1.286 . S
C1769 C1771 1.363 . S
C1770 C1760 1.465 . S
C1770 U1766 2.847 . S
C1770 O1784 1.249 . S
C1770 O1785 1.202 . S
C1771 C1769 1.363 . S
C1771 C1773 1.408 . S
C1771 C1776 1.342 . S
C1772 C1773 1.310 . S
C1772 C1775 1.461 . S
C1772 H1792 0.932 . S
C1773 C1771 1.408 . S
C1773 C1772 1.310 . S
C1773 H1793 0.930 . S
C1774 C1775 1.474 . S
C1774 C1776 1.285 . S
C1774 H1794 0.929 . S
C1775 C1772 1.461 . S
C1775 C1774 1.474 . S
C1776 C1771 1.342 . S
C1776 C1774 1.285 . S
C1776 H1795 0.930 . S
C1777 C1780 1.424 . S
C1777 C1782 1.245 . S
C1777 C1783 1.428 . S
C1778 C1781 1.260 . S
C1778 C1782 1.477 . S
C1778 H1796 0.932 . S
C1779 C1780 1.384 . S
C1779 C1781 1.479 . S
C1779 H1797 0.929 . S
C1780 C1777 1.424 . S
C1780 C1779 1.384 . S
C1780 H1798 0.928 . S
C1781 C1778 1.260 . S
C1781 C1779 1.479 . S
C1782 C1777 1.245 . S
C1782 C1778 1.477 . S
C1782 H1799 0.932 . S
C1783 U1766 2.882 . S
C1783 C1777 1.428 . S
C1783 O1786 1.301 . S
C1783 O1787 1.282 . S
O1784 U1766 2.441 . S
O1784 C1770 1.249 . S
O1785 U1766 2.420 . S
O1785 C1770 1.202 . S
O1786 U1766 2.455 . S
O1786 C1783 1.301 . S
O1787 U1766 2.449 . S
O1787 C1783 1.282 . S
H1788 C1761 0.931 . S
H1789 C1763 0.929 . S
H1790 C1764 0.930 . S
H1791 C1765 0.931 . S
H1792 C1772 0.932 . S
H1793 C1773 0.930 . S
H1794 C1774 0.929 . S
H1795 C1776 0.930 . S
H1796 C1778 0.932 . S
H1797 C1779 0.929 . S
H1798 C1780 0.928 . S
H1799 C1782 0.932 . S
C1800 C1801 1.264 . S
C1800 C1805 1.479 . S
C1800 C1810 1.465 . S
C1801 C1800 1.264 . S
C1801 C1803 1.339 . S
C1801 H1828 0.931 . S
C1802 C1803 1.395 . S
C1802 C1804 1.320 . S
C1803 C1801 1.339 . S
C1803 C1802 1.395 . S
C1803 H1829 0.929 . S
C1804 C1802 1.320 . S
C1804 C1805 1.405 . S
C1804 H1830 0.930 . S
C1805 C1800 1.479 . S
C1805 C1804 1.405 . S
C1805 H1831 0.931 . S
U1806 O1807 2.454 . S
U1806 O1808 2.458 . S
U1806 C1809 2.984 . S
U1806 C1810 2.847 . S
U1806 C1823 2.882 . S
U1806 O1824 2.441 . S
U1806 O1825 2.420 . S
U1806 O1826 2.455 . S
U1806 O1827 2.449 . S
O1807 U1806 2.454 . S
O1807 C1809 1.353 . S
O1808 U1806 2.458 . S
O1808 C1809 1.286 . S
C1809 U1806 2.984 . S
C1809 O1807 1.353 . S
C1809 O1808 1.286 . S
C1809 C1811 1.363 . S
C1810 C1800 1.465 . S
C1810 U1806 2.847 . S
C1810 O1824 1.249 . S
C1810 O1825 1.202 . S
C1811 C1809 1.363 . S
C1811 C1813 1.408 . S
C1811 C1816 1.342 . S
C1812 C1813 1.310 . S
C1812 C1815 1.461 . S
C1812 H1832 0.932 . S
C1813 C1811 1.408 . S
C1813 C1812 1.310 . S
C1813 H1833 0.930 . S
C1814 C1815 1.474 . S
C1814 C1816 1.285 . S
C1814 H1834 0.929 . S
C1815 C1812 1.461 . S
C1815 C1814 1.474 . S
C1816 C1811 1.342 . S
C1816 C1814 1.285 . S
C1816 H1835 0.930 . S
C1817 C1820 1.424 . S
C1817 C1822 1.245 . S
C1817 C1823 1.428 . S
C1818 C1821 1.260 . S
C1818 C1822 1.477 . S
C1818 H1836 0.932 . S
C1819 C1820 1.384 . S
C1819 C1821 1.479 . S
C1819 H1837 0.929 . S
C1820 C1817 1.424 . S
C1820 C1819 1.384 . S
C1820 H1838 0.928 . S
C1821 C1818 1.260 . S
C1821 C1819 1.479 . S
C1822 C1817 1.245 . S
C1822 C1818 1.477 . S
C1822 H1839 0.932 . S
C1823 U1806 2.882 . S
C1823 C1817 1.428 . S
C1823 O1826 1.301 . S
C1823 O1827 1.282 . S
O1824 U1806 2.441 . S
O1824 C1810 1.249 . S
O1825 U1806 2.420 . S
O1825 C1810 1.202 . S
O1826 U1806 2.455 . S
O1826 C1823 1.301 . S
O1827 U1806 2.449 . S
O1827 C1823 1.282 . S
H1828 C1801 0.931 . S
H1829 C1803 0.929 . S
H1830 C1804 0.930 . S
H1831 C1805 0.931 . S
H1832 C1812 0.932 . S
H1833 C1813 0.930 . S
H1834 C1814 0.929 . S
H1835 C1816 0.930 . S
H1836 C1818 0.932 . S
H1837 C1819 0.929 . S
H1838 C1820 0.928 . S
H1839 C1822 0.932 . S
C1840 C1841 1.264 . S
C1840 C1845 1.479 . S
C1840 C1850 1.465 . S
C1841 C1840 1.264 . S
C1841 C1843 1.339 . S
C1841 H1868 0.931 . S
C1842 C1843 1.395 . S
C1842 C1844 1.320 . S
C1843 C1841 1.339 . S
C1843 C1842 1.395 . S
C1843 H1869 0.929 . S
C1844 C1842 1.320 . S
C1844 C1845 1.405 . S
C1844 H1870 0.930 . S
C1845 C1840 1.479 . S
C1845 C1844 1.405 . S
C1845 H1871 0.931 . S
U1846 O1847 2.454 . S
U1846 O1848 2.458 . S
U1846 C1849 2.984 . S
U1846 C1850 2.847 . S
U1846 C1863 2.882 . S
U1846 O1864 2.441 . S
U1846 O1865 2.420 . S
U1846 O1866 2.455 . S
U1846 O1867 2.449 . S
O1847 U1846 2.454 . S
O1847 C1849 1.353 . S
O1848 U1846 2.458 . S
O1848 C1849 1.286 . S
C1849 U1846 2.984 . S
C1849 O1847 1.353 . S
C1849 O1848 1.286 . S
C1849 C1851 1.363 . S
C1850 C1840 1.465 . S
C1850 U1846 2.847 . S
C1850 O1864 1.249 . S
C1850 O1865 1.202 . S
C1851 C1849 1.363 . S
C1851 C1853 1.408 . S
C1851 C1856 1.342 . S
C1852 C1853 1.310 . S
C1852 C1855 1.461 . S
C1852 H1872 0.932 . S
C1853 C1851 1.408 . S
C1853 C1852 1.310 . S
C1853 H1873 0.930 . S
C1854 C1855 1.474 . S
C1854 C1856 1.285 . S
C1854 H1874 0.929 . S
C1855 C1852 1.461 . S
C1855 C1854 1.474 . S
C1856 C1851 1.342 . S
C1856 C1854 1.285 . S
C1856 H1875 0.930 . S
C1857 C1860 1.424 . S
C1857 C1862 1.245 . S
C1857 C1863 1.428 . S
C1858 C1861 1.260 . S
C1858 C1862 1.477 . S
C1858 H1876 0.932 . S
C1859 C1860 1.384 . S
C1859 C1861 1.479 . S
C1859 H1877 0.929 . S
C1860 C1857 1.424 . S
C1860 C1859 1.384 . S
C1860 H1878 0.928 . S
C1861 C1858 1.260 . S
C1861 C1859 1.479 . S
C1862 C1857 1.245 . S
C1862 C1858 1.477 . S
C1862 H1879 0.932 . S
C1863 U1846 2.882 . S
C1863 C1857 1.428 . S
C1863 O1866 1.301 . S
C1863 O1867 1.282 . S
O1864 U1846 2.441 . S
O1864 C1850 1.249 . S
O1865 U1846 2.420 . S
O1865 C1850 1.202 . S
O1866 U1846 2.455 . S
O1866 C1863 1.301 . S
O1867 U1846 2.449 . S
O1867 C1863 1.282 . S
H1868 C1841 0.931 . S
H1869 C1843 0.929 . S
H1870 C1844 0.930 . S
H1871 C1845 0.931 . S
H1872 C1852 0.932 . S
H1873 C1853 0.930 . S
H1874 C1854 0.929 . S
H1875 C1856 0.930 . S
H1876 C1858 0.932 . S
H1877 C1859 0.929 . S
H1878 C1860 0.928 . S
H1879 C1862 0.932 . S
C1880 C1881 1.264 . S
C1880 C1885 1.479 . S
C1880 C1890 1.465 . S
C1881 C1880 1.264 . S
C1881 C1883 1.339 . S
C1881 H1908 0.931 . S
C1882 C1883 1.395 . S
C1882 C1884 1.320 . S
C1883 C1881 1.339 . S
C1883 C1882 1.395 . S
C1883 H1909 0.929 . S
C1884 C1882 1.320 . S
C1884 C1885 1.405 . S
C1884 H1910 0.930 . S
C1885 C1880 1.479 . S
C1885 C1884 1.405 . S
C1885 H1911 0.931 . S
U1886 O1887 2.454 . S
U1886 O1888 2.458 . S
U1886 C1889 2.984 . S
U1886 C1890 2.847 . S
U1886 C1903 2.882 . S
U1886 O1904 2.441 . S
U1886 O1905 2.420 . S
U1886 O1906 2.455 . S
U1886 O1907 2.449 . S
O1887 U1886 2.454 . S
O1887 C1889 1.353 . S
O1888 U1886 2.458 . S
O1888 C1889 1.286 . S
C1889 U1886 2.984 . S
C1889 O1887 1.353 . S
C1889 O1888 1.286 . S
C1889 C1891 1.363 . S
C1890 C1880 1.465 . S
C1890 U1886 2.847 . S
C1890 O1904 1.249 . S
C1890 O1905 1.202 . S
C1891 C1889 1.363 . S
C1891 C1893 1.408 . S
C1891 C1896 1.342 . S
C1892 C1893 1.310 . S
C1892 C1895 1.461 . S
C1892 H1912 0.932 . S
C1893 C1891 1.408 . S
C1893 C1892 1.310 . S
C1893 H1913 0.930 . S
C1894 C1895 1.474 . S
C1894 C1896 1.285 . S
C1894 H1914 0.929 . S
C1895 C1892 1.461 . S
C1895 C1894 1.474 . S
C1896 C1891 1.342 . S
C1896 C1894 1.285 . S
C1896 H1915 0.930 . S
C1897 C1900 1.424 . S
C1897 C1902 1.245 . S
C1897 C1903 1.428 . S
C1898 C1901 1.260 . S
C1898 C1902 1.477 . S
C1898 H1916 0.932 . S
C1899 C1900 1.384 . S
C1899 C1901 1.479 . S
C1899 H1917 0.929 . S
C1900 C1897 1.424 . S
C1900 C1899 1.384 . S
C1900 H1918 0.928 . S
C1901 C1898 1.260 . S
C1901 C1899 1.479 . S
C1902 C1897 1.245 . S
C1902 C1898 1.477 . S
C1902 H1919 0.932 . S
C1903 U1886 2.882 . S
C1903 C1897 1.428 . S
C1903 O1906 1.301 . S
C1903 O1907 1.282 . S
O1904 U1886 2.441 . S
O1904 C1890 1.249 . S
O1905 U1886 2.420 . S
O1905 C1890 1.202 . S
O1906 U1886 2.455 . S
O1906 C1903 1.301 . S
O1907 U1886 2.449 . S
O1907 C1903 1.282 . S
H1908 C1881 0.931 . S
H1909 C1883 0.929 . S
H1910 C1884 0.930 . S
H1911 C1885 0.931 . S
H1912 C1892 0.932 . S
H1913 C1893 0.930 . S
H1914 C1894 0.929 . S
H1915 C1896 0.930 . S
H1916 C1898 0.932 . S
H1917 C1899 0.929 . S
H1918 C1900 0.928 . S
H1919 C1902 0.932 . S
C1920 C1921 1.391 . S
C1920 C1922 1.433 . S
C1920 H1936 0.931 . S
C1921 C1920 1.391 . S
C1921 C1925 1.376 . S
C1922 C1920 1.433 . S
C1922 C1923 1.392 . S
C1922 C1926 1.470 1_655 S
C1923 C1922 1.392 . S
C1923 C1924 1.410 . S
C1923 C1931 1.503 1_655 S
C1924 C1923 1.410 . S
C1924 C1925 1.392 . S
C1924 C1927 1.511 . S
C1925 C1921 1.376 . S
C1925 C1924 1.392 . S
C1925 H1937 0.929 . S
C1926 C1922 1.470 1_455 S
C1926 H1938 0.960 . S
C1926 H1939 0.962 . S
C1926 H1940 0.960 . S
C1927 C1924 1.511 . S
C1927 H1941 0.961 . S
C1927 H1942 0.961 . S
C1927 H1943 0.961 . S
C1928 C1929 1.370 . S
C1928 C1930 1.363 . S
C1928 H1944 0.931 . S
C1929 C1928 1.370 . S
C1929 C1933 1.408 . S
C1930 C1928 1.363 . S
C1930 C1931 1.370 . S
C1930 C1934 1.524 . S
C1931 C1923 1.503 1_455 S
C1931 C1930 1.370 . S
C1931 C1932 1.403 . S
C1932 C1931 1.403 . S
C1932 C1933 1.404 . S
C1932 C1935 1.539 1_455 S
C1933 C1929 1.408 . S
C1933 C1932 1.404 . S
C1933 H1945 0.930 . S
C1934 C1930 1.524 . S
C1934 H1946 0.956 . S
C1934 H1947 0.961 . S
C1934 H1948 0.961 . S
C1935 C1932 1.539 1_655 S
C1935 H1949 0.957 1_655 S
C1935 H1950 0.961 . S
C1935 H1951 0.960 . S
H1936 C1920 0.931 . S
H1937 C1925 0.929 . S
H1938 C1926 0.960 . S
H1939 C1926 0.962 . S
H1940 C1926 0.960 . S
H1941 C1927 0.961 . S
H1942 C1927 0.961 . S
H1943 C1927 0.961 . S
H1944 C1928 0.931 . S
H1945 C1933 0.930 . S
H1946 C1934 0.956 . S
H1947 C1934 0.961 . S
H1948 C1934 0.961 . S
H1949 C1935 0.957 1_455 S
H1950 C1935 0.961 . S
H1951 C1935 0.960 . S
C1952 C1953 1.391 . S
C1952 C1954 1.394 . S
C1952 H1968 0.931 . S
C1953 C1952 1.391 . S
C1953 C1957 1.376 . S
C1954 C1952 1.394 . S
C1954 C1955 1.369 . S
C1954 C1958 1.531 . S
C1955 C1954 1.369 . S
C1955 C1956 1.410 . S
C1955 C1963 1.503 1_545 S
C1956 C1955 1.410 . S
C1956 C1957 1.392 . S
C1956 C1959 1.511 1_545 S
C1957 C1953 1.376 . S
C1957 C1956 1.392 . S
C1957 H1969 0.929 . S
C1958 C1954 1.531 . S
C1958 H1970 0.960 . S
C1958 H1971 0.962 . S
C1958 H1972 0.960 . S
C1959 C1956 1.511 1_565 S
C1959 H1973 0.961 . S
C1959 H1974 0.961 . S
C1959 H1975 0.961 . S
C1960 C1961 1.370 . S
C1960 C1962 1.363 . S
C1960 H1976 0.931 . S
C1961 C1960 1.370 . S
C1961 C1965 1.408 . S
C1962 C1960 1.363 . S
C1962 C1963 1.370 . S
C1962 C1966 1.524 . S
C1963 C1955 1.503 1_565 S
C1963 C1962 1.370 . S
C1963 C1964 1.404 1_565 S
C1964 C1963 1.404 1_545 S
C1964 C1965 1.409 1_545 S
C1964 C1967 1.532 . S
C1965 C1961 1.408 . S
C1965 C1964 1.409 1_565 S
C1965 H1977 0.930 . S
C1966 C1962 1.524 . S
C1966 H1978 0.956 . S
C1966 H1979 0.961 . S
C1966 H1980 0.961 . S
C1967 C1964 1.532 . S
C1967 H1981 0.958 . S
C1967 H1982 0.961 . S
C1967 H1983 0.960 . S
H1968 C1952 0.931 . S
H1969 C1957 0.929 . S
H1970 C1958 0.960 . S
H1971 C1958 0.962 . S
H1972 C1958 0.960 . S
H1973 C1959 0.961 . S
H1974 C1959 0.961 . S
H1975 C1959 0.961 . S
H1976 C1960 0.931 . S
H1977 C1965 0.930 . S
H1978 C1966 0.956 . S
H1979 C1966 0.961 . S
H1980 C1966 0.961 . S
H1981 C1967 0.958 . S
H1982 C1967 0.961 . S
H1983 C1967 0.960 . S
C1984 C1985 1.391 . S
C1984 C1986 1.394 . S
C1984 H2000 0.931 . S
C1985 C1984 1.391 . S
C1985 C1989 1.376 . S
C1986 C1984 1.394 . S
C1986 C1987 1.369 . S
C1986 C1990 1.531 . S
C1987 C1986 1.369 . S
C1987 C1988 1.405 1_655 S
C1987 C1995 1.503 1_655 S
C1988 C1987 1.405 1_455 S
C1988 C1989 1.386 1_455 S
C1988 C1991 1.522 . S
C1989 C1985 1.376 . S
C1989 C1988 1.386 1_655 S
C1989 H2001 0.929 . S
C1990 C1986 1.531 . S
C1990 H2002 0.960 . S
C1990 H2003 0.962 . S
C1990 H2004 0.960 . S
C1991 C1988 1.522 . S
C1991 H2005 0.961 . S
C1991 H2006 0.961 . S
C1991 H2007 0.961 . S
C1992 C1993 1.370 . S
C1992 C1994 1.363 . S
C1992 H2008 0.931 . S
C1993 C1992 1.370 . S
C1993 C1997 1.408 . S
C1994 C1992 1.363 . S
C1994 C1995 1.370 . S
C1994 C1998 1.524 . S
C1995 C1987 1.503 1_455 S
C1995 C1994 1.370 . S
C1995 C1996 1.403 . S
C1996 C1995 1.403 . S
C1996 C1997 1.404 . S
C1996 C1999 1.541 . S
C1997 C1993 1.408 . S
C1997 C1996 1.404 . S
C1997 H2009 0.930 . S
C1998 C1994 1.524 . S
C1998 H2010 0.837 1_455 S
C1998 H2011 0.961 . S
C1998 H2012 0.961 . S
C1999 C1996 1.541 . S
C1999 H2013 0.954 1_455 S
C1999 H2014 0.965 . S
C1999 H2015 0.947 1_455 S
H2000 C1984 0.931 . S
H2001 C1989 0.929 . S
H2002 C1990 0.960 . S
H2003 C1990 0.962 . S
H2004 C1990 0.960 . S
H2005 C1991 0.961 . S
H2006 C1991 0.961 . S
H2007 C1991 0.961 . S
H2008 C1992 0.931 . S
H2009 C1997 0.930 . S
H2010 C1998 0.837 1_655 S
H2011 C1998 0.961 . S
H2012 C1998 0.961 . S
H2013 C1999 0.954 1_655 S
H2014 C1999 0.965 . S
H2015 C1999 0.947 1_655 S
C2016 C2017 1.391 . S
C2016 C2018 1.394 . S
C2016 H2032 0.931 . S
C2017 C2016 1.391 . S
C2017 C2021 1.376 . S
C2018 C2016 1.394 . S
C2018 C2019 1.369 . S
C2018 C2022 1.531 . S
C2019 C2018 1.369 . S
C2019 C2020 1.409 . S
C2019 C2027 1.503 1_545 S
C2020 C2019 1.409 . S
C2020 C2021 1.391 . S
C2020 C2023 1.513 1_545 S
C2021 C2017 1.376 . S
C2021 C2020 1.391 . S
C2021 H2033 0.929 . S
C2022 C2018 1.531 . S
C2022 H2034 0.960 . S
C2022 H2035 0.962 . S
C2022 H2036 0.960 . S
C2023 C2020 1.513 1_565 S
C2023 H2037 0.961 . S
C2023 H2038 0.961 . S
C2023 H2039 0.961 . S
C2024 C2025 1.370 . S
C2024 C2026 1.363 . S
C2024 H2040 0.931 . S
C2025 C2024 1.370 . S
C2025 C2029 1.408 . S
C2026 C2024 1.363 . S
C2026 C2027 1.370 . S
C2026 C2030 1.524 1_565 S
C2027 C2019 1.503 1_565 S
C2027 C2026 1.370 . S
C2027 C2028 1.403 . S
C2028 C2027 1.403 . S
C2028 C2029 1.404 . S
C2028 C2031 1.539 . S
C2029 C2025 1.408 . S
C2029 C2028 1.404 . S
C2029 H2041 0.930 . S
C2030 C2026 1.524 1_545 S
C2030 H2042 0.956 . S
C2030 H2043 0.961 . S
C2030 H2044 0.961 . S
C2031 C2028 1.539 . S
C2031 H2045 0.958 . S
C2031 H2046 0.961 . S
C2031 H2047 0.960 . S
H2032 C2016 0.931 . S
H2033 C2021 0.929 . S
H2034 C2022 0.960 . S
H2035 C2022 0.962 . S
H2036 C2022 0.960 . S
H2037 C2023 0.961 . S
H2038 C2023 0.961 . S
H2039 C2023 0.961 . S
H2040 C2024 0.931 . S
H2041 C2029 0.930 . S
H2042 C2030 0.956 . S
H2043 C2030 0.961 . S
H2044 C2030 0.961 . S
H2045 C2031 0.958 . S
H2046 C2031 0.961 . S
H2047 C2031 0.960 . S
C2048 C2049 1.391 . S
C2048 C2050 1.424 . S
C2048 H2064 0.931 . S
C2049 C2048 1.391 . S
C2049 C2053 1.376 . S
C2050 C2048 1.424 . S
C2050 C2051 1.376 . S
C2050 C2054 1.494 1_565 S
C2051 C2050 1.376 . S
C2051 C2052 1.410 . S
C2051 C2059 1.503 1_565 S
C2052 C2051 1.410 . S
C2052 C2053 1.392 . S
C2052 C2055 1.511 . S
C2053 C2049 1.376 . S
C2053 C2052 1.392 . S
C2053 H2065 0.929 . S
C2054 C2050 1.494 1_545 S
C2054 H2066 0.960 . S
C2054 H2067 0.962 . S
C2054 H2068 0.960 . S
C2055 C2052 1.511 . S
C2055 H2069 0.961 . S
C2055 H2070 0.961 . S
C2055 H2071 0.961 . S
C2056 C2057 1.370 . S
C2056 C2058 1.363 . S
C2056 H2072 0.931 . S
C2057 C2056 1.370 . S
C2057 C2061 1.408 . S
C2058 C2056 1.363 . S
C2058 C2059 1.370 . S
C2058 C2062 1.524 1_545 S
C2059 C2051 1.503 1_545 S
C2059 C2058 1.370 . S
C2059 C2060 1.403 . S
C2060 C2059 1.403 . S
C2060 C2061 1.404 . S
C2060 C2063 1.539 . S
C2061 C2057 1.408 . S
C2061 C2060 1.404 . S
C2061 H2073 0.930 . S
C2062 C2058 1.524 1_565 S
C2062 H2074 0.956 . S
C2062 H2075 0.961 . S
C2062 H2076 0.961 . S
C2063 C2060 1.539 . S
C2063 H2077 0.958 . S
C2063 H2078 0.961 . S
C2063 H2079 0.960 . S
H2064 C2048 0.931 . S
H2065 C2053 0.929 . S
H2066 C2054 0.960 . S
H2067 C2054 0.962 . S
H2068 C2054 0.960 . S
H2069 C2055 0.961 . S
H2070 C2055 0.961 . S
H2071 C2055 0.961 . S
H2072 C2056 0.931 . S
H2073 C2061 0.930 . S
H2074 C2062 0.956 . S
H2075 C2062 0.961 . S
H2076 C2062 0.961 . S
H2077 C2063 0.958 . S
H2078 C2063 0.961 . S
H2079 C2063 0.960 . S
C2080 C2081 1.391 . S
C2080 C2082 1.394 . S
C2080 H2096 0.931 . S
C2081 C2080 1.391 . S
C2081 C2085 1.376 . S
C2082 C2080 1.394 . S
C2082 C2083 1.369 . S
C2082 C2086 1.531 . S
C2083 C2082 1.369 . S
C2083 C2084 1.366 1_455 S
C2083 C2091 1.503 1_455 S
C2084 C2083 1.366 1_655 S
C2084 C2085 1.317 1_655 S
C2084 C2087 1.635 . S
C2085 C2081 1.376 . S
C2085 C2084 1.317 1_455 S
C2085 H2097 0.929 . S
C2086 C2082 1.531 . S
C2086 H2098 0.960 . S
C2086 H2099 0.962 . S
C2086 H2100 0.960 . S
C2087 C2084 1.635 . S
C2087 H2101 0.961 . S
C2087 H2102 0.961 . S
C2087 H2103 0.961 . S
C2088 C2089 1.370 . S
C2088 C2090 1.363 . S
C2088 H2104 0.931 . S
C2089 C2088 1.370 . S
C2089 C2093 1.408 . S
C2090 C2088 1.363 . S
C2090 C2091 1.370 . S
C2090 C2094 1.472 1_655 S
C2091 C2083 1.503 1_655 S
C2091 C2090 1.370 . S
C2091 C2092 1.403 . S
C2092 C2091 1.403 . S
C2092 C2093 1.404 . S
C2092 C2095 1.539 . S
C2093 C2089 1.408 . S
C2093 C2092 1.404 . S
C2093 H2105 0.930 . S
C2094 C2090 1.472 1_455 S
C2094 H2106 1.070 . S
C2094 H2107 0.939 1_455 S
C2094 H2108 0.934 1_455 S
C2095 C2092 1.539 . S
C2095 H2109 0.958 . S
C2095 H2110 0.961 . S
C2095 H2111 0.960 . S
H2096 C2080 0.931 . S
H2097 C2085 0.929 . S
H2098 C2086 0.960 . S
H2099 C2086 0.962 . S
H2100 C2086 0.960 . S
H2101 C2087 0.961 . S
H2102 C2087 0.961 . S
H2103 C2087 0.961 . S
H2104 C2088 0.931 . S
H2105 C2093 0.930 . S
H2106 C2094 1.070 . S
H2107 C2094 0.939 1_655 S
H2108 C2094 0.934 1_655 S
H2109 C2095 0.958 . S
H2110 C2095 0.961 . S
H2111 C2095 0.960 . S
C2112 C2113 1.391 . S
C2112 C2114 1.394 . S
C2112 H2128 0.931 . S
C2113 C2112 1.391 . S
C2113 C2117 1.376 . S
C2114 C2112 1.394 . S
C2114 C2115 1.369 . S
C2114 C2118 1.531 . S
C2115 C2114 1.369 . S
C2115 C2116 1.410 . S
C2115 C2123 1.503 1_565 S
C2116 C2115 1.410 . S
C2116 C2117 1.392 . S
C2116 C2119 1.472 1_565 S
C2117 C2113 1.376 . S
C2117 C2116 1.392 . S
C2117 H2129 0.929 . S
C2118 C2114 1.531 . S
C2118 H2130 0.960 . S
C2118 H2131 0.962 . S
C2118 H2132 0.960 . S
C2119 C2116 1.472 1_545 S
C2119 H2133 0.982 . S
C2119 H2134 1.027 . S
C2119 H2135 0.920 1_545 S
C2120 C2121 1.370 . S
C2120 C2122 1.363 . S
C2120 H2136 0.931 . S
C2121 C2120 1.370 . S
C2121 C2125 1.408 . S
C2122 C2120 1.363 . S
C2122 C2123 1.370 . S
C2122 C2126 1.524 . S
C2123 C2115 1.503 1_545 S
C2123 C2122 1.370 . S
C2123 C2124 1.371 1_545 S
C2124 C2123 1.371 1_565 S
C2124 C2125 1.328 1_565 S
C2124 C2127 1.651 . S
C2125 C2121 1.408 . S
C2125 C2124 1.328 1_545 S
C2125 H2137 0.930 . S
C2126 C2122 1.524 . S
C2126 H2138 0.956 . S
C2126 H2139 0.961 . S
C2126 H2140 0.961 . S
C2127 C2124 1.651 . S
C2127 H2141 0.958 . S
C2127 H2142 0.961 . S
C2127 H2143 0.960 . S
H2128 C2112 0.931 . S
H2129 C2117 0.929 . S
H2130 C2118 0.960 . S
H2131 C2118 0.962 . S
H2132 C2118 0.960 . S
H2133 C2119 0.982 . S
H2134 C2119 1.027 . S
H2135 C2119 0.920 1_565 S
H2136 C2120 0.931 . S
H2137 C2125 0.930 . S
H2138 C2126 0.956 . S
H2139 C2126 0.961 . S
H2140 C2126 0.961 . S
H2141 C2127 0.958 . S
H2142 C2127 0.961 . S
H2143 C2127 0.960 . S
C2144 C2145 1.391 . S
C2144 C2146 1.394 . S
C2144 H2160 0.931 . S
C2145 C2144 1.391 . S
C2145 C2149 1.376 . S
C2146 C2144 1.394 . S
C2146 C2147 1.369 . S
C2146 C2150 1.531 . S
C2147 C2146 1.369 . S
C2147 C2148 1.382 1_455 S
C2147 C2155 1.503 1_455 S
C2148 C2147 1.382 1_655 S
C2148 C2149 1.351 1_655 S
C2148 C2151 1.580 . S
C2149 C2145 1.376 . S
C2149 C2148 1.351 1_455 S
C2149 H2161 0.929 . S
C2150 C2146 1.531 . S
C2150 H2162 0.960 . S
C2150 H2163 0.962 . S
C2150 H2164 0.960 . S
C2151 C2148 1.580 . S
C2151 H2165 0.961 . S
C2151 H2166 0.961 . S
C2151 H2167 0.961 . S
C2152 C2153 1.370 . S
C2152 C2154 1.363 . S
C2152 H2168 0.931 . S
C2153 C2152 1.370 . S
C2153 C2157 1.408 . S
C2154 C2152 1.363 . S
C2154 C2155 1.370 . S
C2154 C2158 1.524 . S
C2155 C2147 1.503 1_655 S
C2155 C2154 1.370 . S
C2155 C2156 1.403 . S
C2156 C2155 1.403 . S
C2156 C2157 1.404 . S
C2156 C2159 1.539 . S
C2157 C2153 1.408 . S
C2157 C2156 1.404 . S
C2157 H2169 0.930 . S
C2158 C2154 1.524 . S
C2158 H2170 0.956 1_655 S
C2158 H2171 0.961 . S
C2158 H2172 0.961 . S
C2159 C2156 1.539 . S
C2159 H2173 0.958 1_655 S
C2159 H2174 0.961 . S
C2159 H2175 0.960 . S
H2160 C2144 0.931 . S
H2161 C2149 0.929 . S
H2162 C2150 0.960 . S
H2163 C2150 0.962 . S
H2164 C2150 0.960 . S
H2165 C2151 0.961 . S
H2166 C2151 0.961 . S
H2167 C2151 0.961 . S
H2168 C2152 0.931 . S
H2169 C2157 0.930 . S
H2170 C2158 0.956 1_455 S
H2171 C2158 0.961 . S
H2172 C2158 0.961 . S
H2173 C2159 0.958 1_455 S
H2174 C2159 0.961 . S
H2175 C2159 0.960 . S
C2176 C2177 1.391 . S
C2176 C2178 1.332 1_556 S
C2176 H2192 0.931 . S
C2177 C2176 1.391 . S
C2177 C2181 1.376 . S
C2178 C2176 1.332 1_554 S
C2178 C2179 1.334 1_554 S
C2178 C2182 1.635 . S
C2179 C2178 1.334 1_556 S
C2179 C2180 1.410 . S
C2179 C2187 1.503 1_556 S
C2180 C2179 1.410 . S
C2180 C2181 1.392 . S
C2180 C2183 1.511 . S
C2181 C2177 1.376 . S
C2181 C2180 1.392 . S
C2181 H2193 0.929 . S
C2182 C2178 1.635 . S
C2182 H2194 0.960 . S
C2182 H2195 0.962 . S
C2182 H2196 0.960 . S
C2183 C2180 1.511 . S
C2183 H2197 0.961 . S
C2183 H2198 0.961 . S
C2183 H2199 0.961 . S
C2184 C2185 1.370 . S
C2184 C2186 1.363 . S
C2184 H2200 0.931 . S
C2185 C2184 1.370 . S
C2185 C2189 1.408 . S
C2186 C2184 1.363 . S
C2186 C2187 1.370 . S
C2186 C2190 1.471 1_554 S
C2187 C2179 1.503 1_554 S
C2187 C2186 1.370 . S
C2187 C2188 1.403 . S
C2188 C2187 1.403 . S
C2188 C2189 1.404 . S
C2188 C2191 1.539 . S
C2189 C2185 1.408 . S
C2189 C2188 1.404 . S
C2189 H2201 0.930 . S
C2190 C2186 1.471 1_556 S
C2190 H2202 0.922 1_556 S
C2190 H2203 1.073 . S
C2190 H2204 0.953 . S
C2191 C2188 1.539 . S
C2191 H2205 0.958 . S
C2191 H2206 0.961 . S
C2191 H2207 0.960 . S
H2192 C2176 0.931 . S
H2193 C2181 0.929 . S
H2194 C2182 0.960 . S
H2195 C2182 0.962 . S
H2196 C2182 0.960 . S
H2197 C2183 0.961 . S
H2198 C2183 0.961 . S
H2199 C2183 0.961 . S
H2200 C2184 0.931 . S
H2201 C2189 0.930 . S
H2202 C2190 0.922 1_554 S
H2203 C2190 1.073 . S
H2204 C2190 0.953 . S
H2205 C2191 0.958 . S
H2206 C2191 0.961 . S
H2207 C2191 0.960 . S
C2208 C2209 1.391 . S
C2208 C2210 1.372 1_556 S
C2208 H2224 0.931 . S
C2209 C2208 1.391 . S
C2209 C2213 1.376 . S
C2210 C2208 1.372 1_554 S
C2210 C2211 1.355 1_554 S
C2210 C2214 1.567 . S
C2211 C2210 1.355 1_556 S
C2211 C2212 1.410 . S
C2211 C2219 1.503 1_556 S
C2212 C2211 1.410 . S
C2212 C2213 1.392 . S
C2212 C2215 1.511 . S
C2213 C2209 1.376 . S
C2213 C2212 1.392 . S
C2213 H2225 0.929 . S
C2214 C2210 1.567 . S
C2214 H2226 0.960 . S
C2214 H2227 0.962 . S
C2214 H2228 0.960 . S
C2215 C2212 1.511 . S
C2215 H2229 0.961 . S
C2215 H2230 0.961 . S
C2215 H2231 0.961 . S
C2216 C2217 1.370 . S
C2216 C2218 1.363 . S
C2216 H2232 0.931 . S
C2217 C2216 1.370 . S
C2217 C2221 1.408 . S
C2218 C2216 1.363 . S
C2218 C2219 1.370 . S
C2218 C2222 1.524 . S
C2219 C2211 1.503 1_554 S
C2219 C2218 1.370 . S
C2219 C2220 1.403 . S
C2220 C2219 1.403 . S
C2220 C2221 1.404 . S
C2220 C2223 1.593 . S
C2221 C2217 1.408 . S
C2221 C2220 1.404 . S
C2221 H2233 0.930 . S
C2222 C2218 1.524 . S
C2222 H2234 0.956 . S
C2222 H2235 0.961 1_554 S
C2222 H2236 0.961 . S
C2223 C2220 1.593 . S
C2223 H2237 1.039 . S
C2223 H2238 0.953 . S
C2223 H2239 0.851 1_554 S
H2224 C2208 0.931 . S
H2225 C2213 0.929 . S
H2226 C2214 0.960 . S
H2227 C2214 0.962 . S
H2228 C2214 0.960 . S
H2229 C2215 0.961 . S
H2230 C2215 0.961 . S
H2231 C2215 0.961 . S
H2232 C2216 0.931 . S
H2233 C2221 0.930 . S
H2234 C2222 0.956 . S
H2235 C2222 0.961 1_556 S
H2236 C2222 0.961 . S
H2237 C2223 1.039 . S
H2238 C2223 0.953 . S
H2239 C2223 0.851 1_556 S
C2240 C2241 1.391 . S
C2240 C2242 1.394 . S
C2240 H2256 0.931 . S
C2241 C2240 1.391 . S
C2241 C2245 1.376 . S
C2242 C2240 1.394 . S
C2242 C2243 1.369 . S
C2242 C2246 1.531 . S
C2243 C2242 1.369 . S
C2243 C2244 1.410 . S
C2243 C2251 1.503 1_554 S
C2244 C2243 1.410 . S
C2244 C2245 1.392 . S
C2244 C2247 1.511 1_554 S
C2245 C2241 1.376 . S
C2245 C2244 1.392 . S
C2245 H2257 0.929 . S
C2246 C2242 1.531 . S
C2246 H2258 0.960 . S
C2246 H2259 0.962 . S
C2246 H2260 0.960 . S
C2247 C2244 1.511 1_556 S
C2247 H2261 0.961 . S
C2247 H2262 0.961 . S
C2247 H2263 0.961 . S
C2248 C2249 1.370 . S
C2248 C2250 1.363 . S
C2248 H2264 0.931 . S
C2249 C2248 1.370 . S
C2249 C2253 1.408 . S
C2250 C2248 1.363 . S
C2250 C2251 1.370 . S
C2250 C2254 1.524 . S
C2251 C2243 1.503 1_556 S
C2251 C2250 1.370 . S
C2251 C2252 1.413 . S
C2252 C2251 1.413 . S
C2252 C2253 1.439 . S
C2252 C2255 1.499 1_556 S
C2253 C2249 1.408 . S
C2253 C2252 1.439 . S
C2253 H2265 0.930 . S
C2254 C2250 1.524 . S
C2254 H2266 0.956 . S
C2254 H2267 0.961 . S
C2254 H2268 0.961 . S
C2255 C2252 1.499 1_554 S
C2255 H2269 0.958 . S
C2255 H2270 0.961 . S
C2255 H2271 0.960 . S
H2256 C2240 0.931 . S
H2257 C2245 0.929 . S
H2258 C2246 0.960 . S
H2259 C2246 0.962 . S
H2260 C2246 0.960 . S
H2261 C2247 0.961 . S
H2262 C2247 0.961 . S
H2263 C2247 0.961 . S
H2264 C2248 0.931 . S
H2265 C2253 0.930 . S
H2266 C2254 0.956 . S
H2267 C2254 0.961 . S
H2268 C2254 0.961 . S
H2269 C2255 0.958 . S
H2270 C2255 0.961 . S
H2271 C2255 0.960 . S
C2272 C2273 1.391 . S
C2272 C2274 1.350 1_554 S
C2272 H2288 0.931 . S
C2273 C2272 1.391 . S
C2273 C2277 1.376 . S
C2274 C2272 1.350 1_556 S
C2274 C2275 1.349 1_556 S
C2274 C2278 1.598 . S
C2275 C2274 1.349 1_554 S
C2275 C2276 1.410 . S
C2275 C2283 1.503 1_554 S
C2276 C2275 1.410 . S
C2276 C2277 1.392 . S
C2276 C2279 1.511 . S
C2277 C2273 1.376 . S
C2277 C2276 1.392 . S
C2277 H2289 0.929 . S
C2278 C2274 1.598 . S
C2278 H2290 0.960 . S
C2278 H2291 0.962 . S
C2278 H2292 0.960 . S
C2279 C2276 1.511 . S
C2279 H2293 0.961 . S
C2279 H2294 0.961 . S
C2279 H2295 0.961 . S
C2280 C2281 1.370 . S
C2280 C2282 1.363 . S
C2280 H2296 0.931 . S
C2281 C2280 1.370 . S
C2281 C2285 1.408 . S
C2282 C2280 1.363 . S
C2282 C2283 1.370 . S
C2282 C2286 1.524 1_556 S
C2283 C2275 1.503 1_556 S
C2283 C2282 1.370 . S
C2283 C2284 1.403 . S
C2284 C2283 1.403 . S
C2284 C2285 1.404 . S
C2284 C2287 1.539 . S
C2285 C2281 1.408 . S
C2285 C2284 1.404 . S
C2285 H2297 0.930 . S
C2286 C2282 1.524 1_554 S
C2286 H2298 0.956 . S
C2286 H2299 0.961 . S
C2286 H2300 0.961 . S
C2287 C2284 1.539 . S
C2287 H2301 0.958 . S
C2287 H2302 0.961 . S
C2287 H2303 0.960 . S
H2288 C2272 0.931 . S
H2289 C2277 0.929 . S
H2290 C2278 0.960 . S
H2291 C2278 0.962 . S
H2292 C2278 0.960 . S
H2293 C2279 0.961 . S
H2294 C2279 0.961 . S
H2295 C2279 0.961 . S
H2296 C2280 0.931 . S
H2297 C2285 0.930 . S
H2298 C2286 0.956 . S
H2299 C2286 0.961 . S
H2300 C2286 0.961 . S
H2301 C2287 0.958 . S
H2302 C2287 0.961 . S
H2303 C2287 0.960 . S
C2304 C2305 1.391 . S
C2304 C2306 1.394 . S
C2304 H2320 0.931 . S
C2305 C2304 1.391 . S
C2305 C2309 1.376 . S
C2306 C2304 1.394 . S
C2306 C2307 1.369 . S
C2306 C2310 1.531 1_565 S
C2307 C2306 1.369 . S
C2307 C2308 1.410 . S
C2307 C2315 1.503 1_565 S
C2308 C2307 1.410 . S
C2308 C2309 1.392 . S
C2308 C2311 1.511 . S
C2309 C2305 1.376 . S
C2309 C2308 1.392 . S
C2309 H2321 0.929 . S
C2310 C2306 1.531 1_545 S
C2310 H2322 0.960 . S
C2310 H2323 0.962 . S
C2310 H2324 0.960 1_545 S
C2311 C2308 1.511 . S
C2311 H2325 0.961 . S
C2311 H2326 0.961 . S
C2311 H2327 0.961 . S
C2312 C2313 1.370 . S
C2312 C2314 1.363 . S
C2312 H2328 0.931 . S
C2313 C2312 1.370 . S
C2313 C2317 1.408 . S
C2314 C2312 1.363 . S
C2314 C2315 1.370 . S
C2314 C2318 1.524 . S
C2315 C2307 1.503 1_545 S
C2315 C2314 1.370 . S
C2315 C2316 1.403 . S
C2316 C2315 1.403 . S
C2316 C2317 1.404 . S
C2316 C2319 1.539 1_545 S
C2317 C2313 1.408 . S
C2317 C2316 1.404 . S
C2317 H2329 0.930 . S
C2318 C2314 1.524 . S
C2318 H2330 0.956 . S
C2318 H2331 0.961 . S
C2318 H2332 0.961 . S
C2319 C2316 1.539 1_565 S
C2319 H2333 0.958 . S
C2319 H2334 0.961 . S
C2319 H2335 0.960 . S
H2320 C2304 0.931 . S
H2321 C2309 0.929 . S
H2322 C2310 0.960 . S
H2323 C2310 0.962 . S
H2324 C2310 0.960 1_565 S
H2325 C2311 0.961 . S
H2326 C2311 0.961 . S
H2327 C2311 0.961 . S
H2328 C2312 0.931 . S
H2329 C2317 0.930 . S
H2330 C2318 0.956 . S
H2331 C2318 0.961 . S
H2332 C2318 0.961 . S
H2333 C2319 0.958 . S
H2334 C2319 0.961 . S
H2335 C2319 0.960 . S
C2336 C2337 1.391 . S
C2336 C2338 1.394 . S
C2336 H2352 0.931 . S
C2337 C2336 1.391 . S
C2337 C2341 1.376 . S
C2338 C2336 1.394 . S
C2338 C2339 1.369 . S
C2338 C2342 1.531 . S
C2339 C2338 1.369 . S
C2339 C2340 1.410 . S
C2339 C2347 1.503 1_455 S
C2340 C2339 1.410 . S
C2340 C2341 1.392 . S
C2340 C2343 1.511 1_455 S
C2341 C2337 1.376 . S
C2341 C2340 1.392 . S
C2341 H2353 0.929 . S
C2342 C2338 1.531 . S
C2342 H2354 0.960 . S
C2342 H2355 0.962 . S
C2342 H2356 0.960 . S
C2343 C2340 1.511 1_655 S
C2343 H2357 0.961 . S
C2343 H2358 0.961 . S
C2343 H2359 0.961 . S
C2344 C2345 1.370 . S
C2344 C2346 1.363 . S
C2344 H2360 0.931 . S
C2345 C2344 1.370 . S
C2345 C2349 1.408 . S
C2346 C2344 1.363 . S
C2346 C2347 1.370 . S
C2346 C2350 1.532 1_655 S
C2347 C2339 1.503 1_655 S
C2347 C2346 1.370 . S
C2347 C2348 1.403 . S
C2348 C2347 1.403 . S
C2348 C2349 1.404 . S
C2348 C2351 1.539 . S
C2349 C2345 1.408 . S
C2349 C2348 1.404 . S
C2349 H2361 0.930 . S
C2350 C2346 1.532 1_455 S
C2350 H2362 0.944 . S
C2350 H2363 0.958 . S
C2350 H2364 0.966 1_455 S
C2351 C2348 1.539 . S
C2351 H2365 0.958 . S
C2351 H2366 0.961 . S
C2351 H2367 0.960 . S
H2352 C2336 0.931 . S
H2353 C2341 0.929 . S
H2354 C2342 0.960 . S
H2355 C2342 0.962 . S
H2356 C2342 0.960 . S
H2357 C2343 0.961 . S
H2358 C2343 0.961 . S
H2359 C2343 0.961 . S
H2360 C2344 0.931 . S
H2361 C2349 0.930 . S
H2362 C2350 0.944 . S
H2363 C2350 0.958 . S
H2364 C2350 0.966 1_655 S
H2365 C2351 0.958 . S
H2366 C2351 0.961 . S
H2367 C2351 0.960 . S
C2368 C2369 1.391 . S
C2368 C2370 1.394 . S
C2368 H2384 0.931 . S
C2369 C2368 1.391 . S
C2369 C2373 1.376 . S
C2370 C2368 1.394 . S
C2370 C2371 1.369 . S
C2370 C2374 1.531 1_565 S
C2371 C2370 1.369 . S
C2371 C2372 1.410 . S
C2371 C2379 1.503 1_565 S
C2372 C2371 1.410 . S
C2372 C2373 1.392 . S
C2372 C2375 1.511 . S
C2373 C2369 1.376 . S
C2373 C2372 1.392 . S
C2373 H2385 0.929 . S
C2374 C2370 1.531 1_545 S
C2374 H2386 0.960 . S
C2374 H2387 0.962 . S
C2374 H2388 0.960 . S
C2375 C2372 1.511 . S
C2375 H2389 0.961 . S
C2375 H2390 0.961 . S
C2375 H2391 0.961 . S
C2376 C2377 1.370 . S
C2376 C2378 1.363 . S
C2376 H2392 0.931 . S
C2377 C2376 1.370 . S
C2377 C2381 1.408 . S
C2378 C2376 1.363 . S
C2378 C2379 1.370 . S
C2378 C2382 1.524 . S
C2379 C2371 1.503 1_545 S
C2379 C2378 1.370 . S
C2379 C2380 1.403 . S
C2380 C2379 1.403 . S
C2380 C2381 1.404 . S
C2380 C2383 1.539 . S
C2381 C2377 1.408 . S
C2381 C2380 1.404 . S
C2381 H2393 0.930 . S
C2382 C2378 1.524 . S
C2382 H2394 0.956 . S
C2382 H2395 0.961 1_545 S
C2382 H2396 0.961 . S
C2383 C2380 1.539 . S
C2383 H2397 0.958 . S
C2383 H2398 0.961 . S
C2383 H2399 0.960 1_545 S
H2384 C2368 0.931 . S
H2385 C2373 0.929 . S
H2386 C2374 0.960 . S
H2387 C2374 0.962 . S
H2388 C2374 0.960 . S
H2389 C2375 0.961 . S
H2390 C2375 0.961 . S
H2391 C2375 0.961 . S
H2392 C2376 0.931 . S
H2393 C2381 0.930 . S
H2394 C2382 0.956 . S
H2395 C2382 0.961 1_565 S
H2396 C2382 0.961 . S
H2397 C2383 0.958 . S
H2398 C2383 0.961 . S
H2399 C2383 0.960 1_565 S
C2400 C2401 1.391 . S
C2400 C2402 1.394 . S
C2400 H2416 0.931 . S
C2401 C2400 1.391 . S
C2401 C2405 1.376 . S
C2402 C2400 1.394 . S
C2402 C2403 1.369 . S
C2402 C2406 1.531 . S
C2403 C2402 1.369 . S
C2403 C2404 1.410 . S
C2403 C2411 1.503 1_455 S
C2404 C2403 1.410 . S
C2404 C2405 1.392 . S
C2404 C2407 1.511 . S
C2405 C2401 1.376 . S
C2405 C2404 1.392 . S
C2405 H2417 0.929 . S
C2406 C2402 1.531 . S
C2406 H2418 0.960 1_455 S
C2406 H2419 0.962 . S
C2406 H2420 0.960 . S
C2407 C2404 1.511 . S
C2407 H2421 0.961 . S
C2407 H2422 0.961 1_455 S
C2407 H2423 0.961 1_455 S
C2408 C2409 1.370 . S
C2408 C2410 1.363 . S
C2408 H2424 0.931 . S
C2409 C2408 1.370 . S
C2409 C2413 1.408 . S
C2410 C2408 1.363 . S
C2410 C2411 1.370 . S
C2410 C2414 1.524 1_655 S
C2411 C2403 1.503 1_655 S
C2411 C2410 1.370 . S
C2411 C2412 1.403 . S
C2412 C2411 1.403 . S
C2412 C2413 1.404 . S
C2412 C2415 1.539 . S
C2413 C2409 1.408 . S
C2413 C2412 1.404 . S
C2413 H2425 0.930 . S
C2414 C2410 1.524 1_455 S
C2414 H2426 0.956 . S
C2414 H2427 0.961 . S
C2414 H2428 0.961 . S
C2415 C2412 1.539 . S
C2415 H2429 0.958 . S
C2415 H2430 0.961 . S
C2415 H2431 0.960 . S
H2416 C2400 0.931 . S
H2417 C2405 0.929 . S
H2418 C2406 0.960 1_655 S
H2419 C2406 0.962 . S
H2420 C2406 0.960 . S
H2421 C2407 0.961 . S
H2422 C2407 0.961 1_655 S
H2423 C2407 0.961 1_655 S
H2424 C2408 0.931 . S
H2425 C2413 0.930 . S
H2426 C2414 0.956 . S
H2427 C2414 0.961 . S
H2428 C2414 0.961 . S
H2429 C2415 0.958 . S
H2430 C2415 0.961 . S
H2431 C2415 0.960 . S
C2432 C2433 1.391 . S
C2432 C2434 1.394 . S
C2432 H2448 0.931 . S
C2433 C2432 1.391 . S
C2433 C2437 1.376 . S
C2434 C2432 1.394 . S
C2434 C2435 1.369 . S
C2434 C2438 1.531 1_556 S
C2435 C2434 1.369 . S
C2435 C2436 1.410 . S
C2435 C2443 1.503 1_556 S
C2436 C2435 1.410 . S
C2436 C2437 1.392 . S
C2436 C2439 1.511 . S
C2437 C2433 1.376 . S
C2437 C2436 1.392 . S
C2437 H2449 0.929 . S
C2438 C2434 1.531 1_554 S
C2438 H2450 0.960 . S
C2438 H2451 0.962 . S
C2438 H2452 0.960 . S
C2439 C2436 1.511 . S
C2439 H2453 0.961 . S
C2439 H2454 0.961 . S
C2439 H2455 0.961 . S
C2440 C2441 1.370 . S
C2440 C2442 1.363 . S
C2440 H2456 0.931 . S
C2441 C2440 1.370 . S
C2441 C2445 1.408 . S
C2442 C2440 1.363 . S
C2442 C2443 1.370 . S
C2442 C2446 1.524 1_554 S
C2443 C2435 1.503 1_554 S
C2443 C2442 1.370 . S
C2443 C2444 1.403 . S
C2444 C2443 1.403 . S
C2444 C2445 1.404 . S
C2444 C2447 1.539 . S
C2445 C2441 1.408 . S
C2445 C2444 1.404 . S
C2445 H2457 0.930 . S
C2446 C2442 1.524 1_556 S
C2446 H2458 0.956 . S
C2446 H2459 0.961 . S
C2446 H2460 0.961 . S
C2447 C2444 1.539 . S
C2447 H2461 0.958 . S
C2447 H2462 0.961 . S
C2447 H2463 0.960 . S
H2448 C2432 0.931 . S
H2449 C2437 0.929 . S
H2450 C2438 0.960 . S
H2451 C2438 0.962 . S
H2452 C2438 0.960 . S
H2453 C2439 0.961 . S
H2454 C2439 0.961 . S
H2455 C2439 0.961 . S
H2456 C2440 0.931 . S
H2457 C2445 0.930 . S
H2458 C2446 0.956 . S
H2459 C2446 0.961 . S
H2460 C2446 0.961 . S
H2461 C2447 0.958 . S
H2462 C2447 0.961 . S
H2463 C2447 0.960 . S
C2464 C2465 1.391 . S
C2464 C2466 1.394 . S
C2464 H2480 0.931 . S
C2465 C2464 1.391 . S
C2465 C2469 1.376 . S
C2466 C2464 1.394 . S
C2466 C2467 1.369 . S
C2466 C2470 1.531 . S
C2467 C2466 1.369 . S
C2467 C2468 1.410 . S
C2467 C2475 1.503 1_556 S
C2468 C2467 1.410 . S
C2468 C2469 1.392 . S
C2468 C2471 1.507 . S
C2469 C2465 1.376 . S
C2469 C2468 1.392 . S
C2469 H2481 0.929 . S
C2470 C2466 1.531 . S
C2470 H2482 0.960 . S
C2470 H2483 0.962 . S
C2470 H2484 0.960 . S
C2471 C2468 1.507 . S
C2471 H2485 0.961 1_556 S
C2471 H2486 0.968 1_556 S
C2471 H2487 0.958 . S
C2472 C2473 1.370 . S
C2472 C2474 1.363 . S
C2472 H2488 0.931 . S
C2473 C2472 1.370 . S
C2473 C2477 1.408 . S
C2474 C2472 1.363 . S
C2474 C2475 1.370 . S
C2474 C2478 1.524 . S
C2475 C2467 1.503 1_554 S
C2475 C2474 1.370 . S
C2475 C2476 1.403 . S
C2476 C2475 1.403 . S
C2476 C2477 1.404 . S
C2476 C2479 1.539 1_554 S
C2477 C2473 1.408 . S
C2477 C2476 1.404 . S
C2477 H2489 0.930 . S
C2478 C2474 1.524 . S
C2478 H2490 0.956 . S
C2478 H2491 0.961 . S
C2478 H2492 0.961 . S
C2479 C2476 1.539 1_556 S
C2479 H2493 0.958 . S
C2479 H2494 0.961 . S
C2479 H2495 0.960 . S
H2480 C2464 0.931 . S
H2481 C2469 0.929 . S
H2482 C2470 0.960 . S
H2483 C2470 0.962 . S
H2484 C2470 0.960 . S
H2485 C2471 0.961 1_554 S
H2486 C2471 0.968 1_554 S
H2487 C2471 0.958 . S
H2488 C2472 0.931 . S
H2489 C2477 0.930 . S
H2490 C2478 0.956 . S
H2491 C2478 0.961 . S
H2492 C2478 0.961 . S
H2493 C2479 0.958 . S
H2494 C2479 0.961 . S
H2495 C2479 0.960 . S
C2496 C2497 1.391 . S
C2496 C2498 1.394 . S
C2496 H2512 0.931 . S
C2497 C2496 1.391 . S
C2497 C2501 1.376 . S
C2498 C2496 1.394 . S
C2498 C2499 1.369 . S
C2498 C2502 1.531 1_556 S
C2499 C2498 1.369 . S
C2499 C2500 1.410 . S
C2499 C2507 1.503 1_556 S
C2500 C2499 1.410 . S
C2500 C2501 1.392 . S
C2500 C2503 1.511 . S
C2501 C2497 1.376 . S
C2501 C2500 1.392 . S
C2501 H2513 0.929 . S
C2502 C2498 1.531 1_554 S
C2502 H2514 0.960 . S
C2502 H2515 0.956 1_554 S
C2502 H2516 0.960 . S
C2503 C2500 1.511 . S
C2503 H2517 0.961 . S
C2503 H2518 0.961 . S
C2503 H2519 0.961 . S
C2504 C2505 1.370 . S
C2504 C2506 1.363 . S
C2504 H2520 0.931 . S
C2505 C2504 1.370 . S
C2505 C2509 1.408 . S
C2506 C2504 1.363 . S
C2506 C2507 1.370 . S
C2506 C2510 1.524 1_554 S
C2507 C2499 1.503 1_554 S
C2507 C2506 1.370 . S
C2507 C2508 1.403 . S
C2508 C2507 1.403 . S
C2508 C2509 1.404 . S
C2508 C2511 1.539 . S
C2509 C2505 1.408 . S
C2509 C2508 1.404 . S
C2509 H2521 0.930 . S
C2510 C2506 1.524 1_556 S
C2510 H2522 0.956 . S
C2510 H2523 0.961 . S
C2510 H2524 0.961 . S
C2511 C2508 1.539 . S
C2511 H2525 0.958 . S
C2511 H2526 0.961 . S
C2511 H2527 0.960 . S
H2512 C2496 0.931 . S
H2513 C2501 0.929 . S
H2514 C2502 0.960 . S
H2515 C2502 0.956 1_556 S
H2516 C2502 0.960 . S
H2517 C2503 0.961 . S
H2518 C2503 0.961 . S
H2519 C2503 0.961 . S
H2520 C2504 0.931 . S
H2521 C2509 0.930 . S
H2522 C2510 0.956 . S
H2523 C2510 0.961 . S
H2524 C2510 0.961 . S
H2525 C2511 0.958 . S
H2526 C2511 0.961 . S
H2527 C2511 0.960 . S
C2528 C2529 1.391 . S
C2528 C2530 1.394 . S
C2528 H2544 0.931 . S
C2529 C2528 1.391 . S
C2529 C2533 1.376 . S
C2530 C2528 1.394 . S
C2530 C2531 1.369 . S
C2530 C2534 1.531 1_554 S
C2531 C2530 1.369 . S
C2531 C2532 1.410 . S
C2531 C2539 1.503 1_554 S
C2532 C2531 1.410 . S
C2532 C2533 1.392 . S
C2532 C2535 1.511 . S
C2533 C2529 1.376 . S
C2533 C2532 1.392 . S
C2533 H2545 0.929 . S
C2534 C2530 1.531 1_556 S
C2534 H2546 0.960 . S
C2534 H2547 0.962 . S
C2534 H2548 0.960 . S
C2535 C2532 1.511 . S
C2535 H2549 0.961 . S
C2535 H2550 0.961 . S
C2535 H2551 0.961 . S
C2536 C2537 1.370 . S
C2536 C2538 1.363 . S
C2536 H2552 0.931 . S
C2537 C2536 1.370 . S
C2537 C2541 1.408 . S
C2538 C2536 1.363 . S
C2538 C2539 1.370 . S
C2538 C2542 1.524 . S
C2539 C2531 1.503 1_556 S
C2539 C2538 1.370 . S
C2539 C2540 1.403 . S
C2540 C2539 1.403 . S
C2540 C2541 1.404 . S
C2540 C2543 1.536 1_556 S
C2541 C2537 1.408 . S
C2541 C2540 1.404 . S
C2541 H2553 0.930 . S
C2542 C2538 1.524 . S
C2542 H2554 0.956 . S
C2542 H2555 1.029 . S
C2542 H2556 0.961 . S
C2543 C2540 1.536 1_554 S
C2543 H2557 0.956 1_554 S
C2543 H2558 0.961 1_554 S
C2543 H2559 0.965 . S
H2544 C2528 0.931 . S
H2545 C2533 0.929 . S
H2546 C2534 0.960 . S
H2547 C2534 0.962 . S
H2548 C2534 0.960 . S
H2549 C2535 0.961 . S
H2550 C2535 0.961 . S
H2551 C2535 0.961 . S
H2552 C2536 0.931 . S
H2553 C2541 0.930 . S
H2554 C2542 0.956 . S
H2555 C2542 1.029 . S
H2556 C2542 0.961 . S
H2557 C2543 0.956 1_556 S
H2558 C2543 0.961 1_556 S
H2559 C2543 0.965 . S
C2560 C2561 1.391 . S
C2560 C2562 1.394 . S
C2560 H2576 0.931 . S
C2561 C2560 1.391 . S
C2561 C2565 1.376 . S
C2562 C2560 1.394 . S
C2562 C2563 1.369 . S
C2562 C2566 1.531 . S
C2563 C2562 1.369 . S
C2563 C2564 1.410 . S
C2563 C2571 1.503 1_455 S
C2564 C2563 1.410 . S
C2564 C2565 1.392 . S
C2564 C2567 1.511 1_455 S
C2565 C2561 1.376 . S
C2565 C2564 1.392 . S
C2565 H2577 0.929 . S
C2566 C2562 1.531 . S
C2566 H2578 0.960 . S
C2566 H2579 0.962 . S
C2566 H2580 0.960 . S
C2567 C2564 1.511 1_655 S
C2567 H2581 0.961 . S
C2567 H2582 0.961 . S
C2567 H2583 0.961 . S
C2568 C2569 1.370 . S
C2568 C2570 1.363 . S
C2568 H2584 0.931 . S
C2569 C2568 1.370 . S
C2569 C2573 1.408 . S
C2570 C2568 1.363 . S
C2570 C2571 1.370 . S
C2570 C2574 1.524 1_655 S
C2571 C2563 1.503 1_655 S
C2571 C2570 1.370 . S
C2571 C2572 1.403 . S
C2572 C2571 1.403 . S
C2572 C2573 1.404 . S
C2572 C2575 1.539 . S
C2573 C2569 1.408 . S
C2573 C2572 1.404 . S
C2573 H2585 0.930 . S
C2574 C2570 1.524 1_455 S
C2574 H2586 0.956 . S
C2574 H2587 0.961 . S
C2574 H2588 0.961 . S
C2575 C2572 1.539 . S
C2575 H2589 0.958 . S
C2575 H2590 0.961 . S
C2575 H2591 0.960 . S
H2576 C2560 0.931 . S
H2577 C2565 0.929 . S
H2578 C2566 0.960 . S
H2579 C2566 0.962 . S
H2580 C2566 0.960 . S
H2581 C2567 0.961 . S
H2582 C2567 0.961 . S
H2583 C2567 0.961 . S
H2584 C2568 0.931 . S
H2585 C2573 0.930 . S
H2586 C2574 0.956 . S
H2587 C2574 0.961 . S
H2588 C2574 0.961 . S
H2589 C2575 0.958 . S
H2590 C2575 0.961 . S
H2591 C2575 0.960 . S
C2592 C2593 1.391 . S
C2592 C2594 1.394 . S
C2592 H2608 0.931 . S
C2593 C2592 1.391 . S
C2593 C2597 1.376 . S
C2594 C2592 1.394 . S
C2594 C2595 1.369 . S
C2594 C2598 1.456 1_455 S
C2595 C2594 1.369 . S
C2595 C2596 1.410 . S
C2595 C2603 1.503 1_455 S
C2596 C2595 1.410 . S
C2596 C2597 1.392 . S
C2596 C2599 1.511 . S
C2597 C2593 1.376 . S
C2597 C2596 1.392 . S
C2597 H2609 0.929 . S
C2598 C2594 1.456 1_655 S
C2598 H2610 1.010 . S
C2598 H2611 1.050 . S
C2598 H2612 0.914 1_655 S
C2599 C2596 1.511 . S
C2599 H2613 0.961 . S
C2599 H2614 0.961 . S
C2599 H2615 0.961 . S
C2600 C2601 1.370 . S
C2600 C2602 1.363 . S
C2600 H2616 0.931 . S
C2601 C2600 1.370 . S
C2601 C2605 1.408 . S
C2602 C2600 1.363 . S
C2602 C2603 1.370 . S
C2602 C2606 1.524 . S
C2603 C2595 1.503 1_655 S
C2603 C2602 1.370 . S
C2603 C2604 1.403 . S
C2604 C2603 1.403 . S
C2604 C2605 1.404 . S
C2604 C2607 1.539 1_655 S
C2605 C2601 1.408 . S
C2605 C2604 1.404 . S
C2605 H2617 0.930 . S
C2606 C2602 1.524 . S
C2606 H2618 0.956 . S
C2606 H2619 0.961 . S
C2606 H2620 0.961 . S
C2607 C2604 1.539 1_455 S
C2607 H2621 0.958 . S
C2607 H2622 0.961 . S
C2607 H2623 0.960 . S
H2608 C2592 0.931 . S
H2609 C2597 0.929 . S
H2610 C2598 1.010 . S
H2611 C2598 1.050 . S
H2612 C2598 0.914 1_455 S
H2613 C2599 0.961 . S
H2614 C2599 0.961 . S
H2615 C2599 0.961 . S
H2616 C2600 0.931 . S
H2617 C2605 0.930 . S
H2618 C2606 0.956 . S
H2619 C2606 0.961 . S
H2620 C2606 0.961 . S
H2621 C2607 0.958 . S
H2622 C2607 0.961 . S
H2623 C2607 0.960 . S
C2624 C2625 1.391 . S
C2624 C2626 1.394 . S
C2624 H2640 0.931 . S
C2625 C2624 1.391 . S
C2625 C2629 1.376 . S
C2626 C2624 1.394 . S
C2626 C2627 1.369 . S
C2626 C2630 1.531 1_545 S
C2627 C2626 1.369 . S
C2627 C2628 1.410 . S
C2627 C2635 1.503 1_545 S
C2628 C2627 1.410 . S
C2628 C2629 1.392 . S
C2628 C2631 1.511 . S
C2629 C2625 1.376 . S
C2629 C2628 1.392 . S
C2629 H2641 0.929 . S
C2630 C2626 1.531 1_565 S
C2630 H2642 0.960 . S
C2630 H2643 0.962 . S
C2630 H2644 0.960 . S
C2631 C2628 1.511 . S
C2631 H2645 0.961 . S
C2631 H2646 0.961 . S
C2631 H2647 0.961 . S
C2632 C2633 1.370 . S
C2632 C2634 1.363 . S
C2632 H2648 0.931 . S
C2633 C2632 1.370 . S
C2633 C2637 1.408 . S
C2634 C2632 1.363 . S
C2634 C2635 1.370 . S
C2634 C2638 1.524 1_565 S
C2635 C2627 1.503 1_565 S
C2635 C2634 1.370 . S
C2635 C2636 1.403 . S
C2636 C2635 1.403 . S
C2636 C2637 1.404 . S
C2636 C2639 1.539 . S
C2637 C2633 1.408 . S
C2637 C2636 1.404 . S
C2637 H2649 0.930 . S
C2638 C2634 1.524 1_545 S
C2638 H2650 0.956 . S
C2638 H2651 0.961 . S
C2638 H2652 0.961 . S
C2639 C2636 1.539 . S
C2639 H2653 0.958 . S
C2639 H2654 0.961 . S
C2639 H2655 0.960 . S
H2640 C2624 0.931 . S
H2641 C2629 0.929 . S
H2642 C2630 0.960 . S
H2643 C2630 0.962 . S
H2644 C2630 0.960 . S
H2645 C2631 0.961 . S
H2646 C2631 0.961 . S
H2647 C2631 0.961 . S
H2648 C2632 0.931 . S
H2649 C2637 0.930 . S
H2650 C2638 0.956 . S
H2651 C2638 0.961 . S
H2652 C2638 0.961 . S
H2653 C2639 0.958 . S
H2654 C2639 0.961 . S
H2655 C2639 0.960 . S
C2656 C2657 1.391 . S
C2656 C2658 1.394 . S
C2656 H2672 0.931 . S
C2657 C2656 1.391 . S
C2657 C2661 1.376 . S
C2658 C2656 1.394 . S
C2658 C2659 1.369 . S
C2658 C2662 1.531 1_565 S
C2659 C2658 1.369 . S
C2659 C2660 1.410 . S
C2659 C2667 1.503 1_565 S
C2660 C2659 1.410 . S
C2660 C2661 1.392 . S
C2660 C2663 1.511 . S
C2661 C2657 1.376 . S
C2661 C2660 1.392 . S
C2661 H2673 0.929 . S
C2662 C2658 1.531 1_545 S
C2662 H2674 0.960 . S
C2662 H2675 0.962 . S
C2662 H2676 0.960 . S
C2663 C2660 1.511 . S
C2663 H2677 0.961 . S
C2663 H2678 0.961 . S
C2663 H2679 0.961 . S
C2664 C2665 1.370 . S
C2664 C2666 1.363 . S
C2664 H2680 0.931 . S
C2665 C2664 1.370 . S
C2665 C2669 1.408 . S
C2666 C2664 1.363 . S
C2666 C2667 1.370 . S
C2666 C2670 1.446 1_545 S
C2667 C2659 1.503 1_545 S
C2667 C2666 1.370 . S
C2667 C2668 1.403 . S
C2668 C2667 1.403 . S
C2668 C2669 1.404 . S
C2668 C2671 1.539 . S
C2669 C2665 1.408 . S
C2669 C2668 1.404 . S
C2669 H2681 0.930 . S
C2670 C2666 1.446 1_565 S
C2670 H2682 0.955 . S
C2670 H2683 1.078 . S
C2670 H2684 0.934 1_565 S
C2671 C2668 1.539 . S
C2671 H2685 0.958 . S
C2671 H2686 0.961 . S
C2671 H2687 0.960 . S
H2672 C2656 0.931 . S
H2673 C2661 0.929 . S
H2674 C2662 0.960 . S
H2675 C2662 0.962 . S
H2676 C2662 0.960 . S
H2677 C2663 0.961 . S
H2678 C2663 0.961 . S
H2679 C2663 0.961 . S
H2680 C2664 0.931 . S
H2681 C2669 0.930 . S
H2682 C2670 0.955 . S
H2683 C2670 1.078 . S
H2684 C2670 0.934 1_545 S
H2685 C2671 0.958 . S
H2686 C2671 0.961 . S
H2687 C2671 0.960 . S
C2688 C2689 1.391 . S
C2688 C2690 1.394 . S
C2688 H2704 0.931 . S
C2689 C2688 1.391 . S
C2689 C2693 1.376 . S
C2690 C2688 1.394 . S
C2690 C2691 1.369 . S
C2690 C2694 1.531 . S
C2691 C2690 1.369 . S
C2691 C2692 1.410 . S
C2691 C2699 1.503 . S
C2692 C2691 1.410 . S
C2692 C2693 1.392 . S
C2692 C2695 1.511 . S
C2693 C2689 1.376 . S
C2693 C2692 1.392 . S
C2693 H2705 0.929 . S
C2694 C2690 1.531 . S
C2694 H2706 0.960 . S
C2694 H2707 0.962 . S
C2694 H2708 0.960 . S
C2695 C2692 1.511 . S
C2695 H2709 0.961 . S
C2695 H2710 0.961 . S
C2695 H2711 0.961 . S
C2696 C2697 1.370 . S
C2696 C2698 1.363 . S
C2696 H2712 0.931 . S
C2697 C2696 1.370 . S
C2697 C2701 1.408 . S
C2698 C2696 1.363 . S
C2698 C2699 1.370 . S
C2698 C2702 1.524 . S
C2699 C2691 1.503 . S
C2699 C2698 1.370 . S
C2699 C2700 1.403 . S
C2700 C2699 1.403 . S
C2700 C2701 1.404 . S
C2700 C2703 1.539 . S
C2701 C2697 1.408 . S
C2701 C2700 1.404 . S
C2701 H2713 0.930 . S
C2702 C2698 1.524 . S
C2702 H2714 0.956 . S
C2702 H2715 0.961 . S
C2702 H2716 0.961 . S
C2703 C2700 1.539 . S
C2703 H2717 0.958 . S
C2703 H2718 0.961 . S
C2703 H2719 0.960 . S
H2704 C2688 0.931 . S
H2705 C2693 0.929 . S
H2706 C2694 0.960 . S
H2707 C2694 0.962 . S
H2708 C2694 0.960 . S
H2709 C2695 0.961 . S
H2710 C2695 0.961 . S
H2711 C2695 0.961 . S
H2712 C2696 0.931 . S
H2713 C2701 0.930 . S
H2714 C2702 0.956 . S
H2715 C2702 0.961 . S
H2716 C2702 0.961 . S
H2717 C2703 0.958 . S
H2718 C2703 0.961 . S
H2719 C2703 0.960 . S
C2720 C2721 1.391 . S
C2720 C2722 1.394 . S
C2720 H2736 0.931 . S
C2721 C2720 1.391 . S
C2721 C2725 1.376 . S
C2722 C2720 1.394 . S
C2722 C2723 1.369 . S
C2722 C2726 1.531 . S
C2723 C2722 1.369 . S
C2723 C2724 1.410 . S
C2723 C2731 1.503 . S
C2724 C2723 1.410 . S
C2724 C2725 1.392 . S
C2724 C2727 1.511 . S
C2725 C2721 1.376 . S
C2725 C2724 1.392 . S
C2725 H2737 0.929 . S
C2726 C2722 1.531 . S
C2726 H2738 0.960 . S
C2726 H2739 0.962 . S
C2726 H2740 0.960 . S
C2727 C2724 1.511 . S
C2727 H2741 0.961 . S
C2727 H2742 0.961 . S
C2727 H2743 0.961 . S
C2728 C2729 1.370 . S
C2728 C2730 1.363 . S
C2728 H2744 0.931 . S
C2729 C2728 1.370 . S
C2729 C2733 1.408 . S
C2730 C2728 1.363 . S
C2730 C2731 1.370 . S
C2730 C2734 1.524 . S
C2731 C2723 1.503 . S
C2731 C2730 1.370 . S
C2731 C2732 1.403 . S
C2732 C2731 1.403 . S
C2732 C2733 1.404 . S
C2732 C2735 1.539 . S
C2733 C2729 1.408 . S
C2733 C2732 1.404 . S
C2733 H2745 0.930 . S
C2734 C2730 1.524 . S
C2734 H2746 0.956 . S
C2734 H2747 0.961 . S
C2734 H2748 0.961 . S
C2735 C2732 1.539 . S
C2735 H2749 0.958 . S
C2735 H2750 0.961 . S
C2735 H2751 0.960 . S
H2736 C2720 0.931 . S
H2737 C2725 0.929 . S
H2738 C2726 0.960 . S
H2739 C2726 0.962 . S
H2740 C2726 0.960 . S
H2741 C2727 0.961 . S
H2742 C2727 0.961 . S
H2743 C2727 0.961 . S
H2744 C2728 0.931 . S
H2745 C2733 0.930 . S
H2746 C2734 0.956 . S
H2747 C2734 0.961 . S
H2748 C2734 0.961 . S
H2749 C2735 0.958 . S
H2750 C2735 0.961 . S
H2751 C2735 0.960 . S
C2752 C2753 1.391 . S
C2752 C2754 1.394 . S
C2752 H2768 0.931 . S
C2753 C2752 1.391 . S
C2753 C2757 1.376 . S
C2754 C2752 1.394 . S
C2754 C2755 1.369 . S
C2754 C2758 1.531 . S
C2755 C2754 1.369 . S
C2755 C2756 1.410 . S
C2755 C2763 1.503 . S
C2756 C2755 1.410 . S
C2756 C2757 1.392 . S
C2756 C2759 1.511 . S
C2757 C2753 1.376 . S
C2757 C2756 1.392 . S
C2757 H2769 0.929 . S
C2758 C2754 1.531 . S
C2758 H2770 0.960 . S
C2758 H2771 0.962 . S
C2758 H2772 0.960 . S
C2759 C2756 1.511 . S
C2759 H2773 0.961 . S
C2759 H2774 0.961 . S
C2759 H2775 0.961 . S
C2760 C2761 1.370 . S
C2760 C2762 1.363 . S
C2760 H2776 0.931 . S
C2761 C2760 1.370 . S
C2761 C2765 1.408 . S
C2762 C2760 1.363 . S
C2762 C2763 1.370 . S
C2762 C2766 1.524 . S
C2763 C2755 1.503 . S
C2763 C2762 1.370 . S
C2763 C2764 1.403 . S
C2764 C2763 1.403 . S
C2764 C2765 1.404 . S
C2764 C2767 1.539 . S
C2765 C2761 1.408 . S
C2765 C2764 1.404 . S
C2765 H2777 0.930 . S
C2766 C2762 1.524 . S
C2766 H2778 0.956 . S
C2766 H2779 0.961 . S
C2766 H2780 0.961 . S
C2767 C2764 1.539 . S
C2767 H2781 0.958 . S
C2767 H2782 0.961 . S
C2767 H2783 0.960 . S
H2768 C2752 0.931 . S
H2769 C2757 0.929 . S
H2770 C2758 0.960 . S
H2771 C2758 0.962 . S
H2772 C2758 0.960 . S
H2773 C2759 0.961 . S
H2774 C2759 0.961 . S
H2775 C2759 0.961 . S
H2776 C2760 0.931 . S
H2777 C2765 0.930 . S
H2778 C2766 0.956 . S
H2779 C2766 0.961 . S
H2780 C2766 0.961 . S
H2781 C2767 0.958 . S
H2782 C2767 0.961 . S
H2783 C2767 0.960 . S
C2784 C2785 1.391 . S
C2784 C2786 1.394 . S
C2784 H2800 0.931 . S
C2785 C2784 1.391 . S
C2785 C2789 1.376 . S
C2786 C2784 1.394 . S
C2786 C2787 1.369 . S
C2786 C2790 1.531 . S
C2787 C2786 1.369 . S
C2787 C2788 1.410 . S
C2787 C2795 1.503 . S
C2788 C2787 1.410 . S
C2788 C2789 1.392 . S
C2788 C2791 1.511 . S
C2789 C2785 1.376 . S
C2789 C2788 1.392 . S
C2789 H2801 0.929 . S
C2790 C2786 1.531 . S
C2790 H2802 0.960 . S
C2790 H2803 0.962 . S
C2790 H2804 0.960 . S
C2791 C2788 1.511 . S
C2791 H2805 0.961 . S
C2791 H2806 0.961 . S
C2791 H2807 0.961 . S
C2792 C2793 1.370 . S
C2792 C2794 1.363 . S
C2792 H2808 0.931 . S
C2793 C2792 1.370 . S
C2793 C2797 1.408 . S
C2794 C2792 1.363 . S
C2794 C2795 1.370 . S
C2794 C2798 1.524 . S
C2795 C2787 1.503 . S
C2795 C2794 1.370 . S
C2795 C2796 1.403 . S
C2796 C2795 1.403 . S
C2796 C2797 1.404 . S
C2796 C2799 1.539 . S
C2797 C2793 1.408 . S
C2797 C2796 1.404 . S
C2797 H2809 0.930 . S
C2798 C2794 1.524 . S
C2798 H2810 0.956 . S
C2798 H2811 0.961 . S
C2798 H2812 0.961 . S
C2799 C2796 1.539 . S
C2799 H2813 0.958 . S
C2799 H2814 0.961 . S
C2799 H2815 0.960 . S
H2800 C2784 0.931 . S
H2801 C2789 0.929 . S
H2802 C2790 0.960 . S
H2803 C2790 0.962 . S
H2804 C2790 0.960 . S
H2805 C2791 0.961 . S
H2806 C2791 0.961 . S
H2807 C2791 0.961 . S
H2808 C2792 0.931 . S
H2809 C2797 0.930 . S
H2810 C2798 0.956 . S
H2811 C2798 0.961 . S
H2812 C2798 0.961 . S
H2813 C2799 0.958 . S
H2814 C2799 0.961 . S
H2815 C2799 0.960 . S
C2816 C2817 1.391 . S
C2816 C2818 1.394 . S
C2816 H2832 0.931 . S
C2817 C2816 1.391 . S
C2817 C2821 1.376 . S
C2818 C2816 1.394 . S
C2818 C2819 1.369 . S
C2818 C2822 1.531 . S
C2819 C2818 1.369 . S
C2819 C2820 1.410 . S
C2819 C2827 1.503 . S
C2820 C2819 1.410 . S
C2820 C2821 1.392 . S
C2820 C2823 1.511 . S
C2821 C2817 1.376 . S
C2821 C2820 1.392 . S
C2821 H2833 0.929 . S
C2822 C2818 1.531 . S
C2822 H2834 0.960 . S
C2822 H2835 0.962 . S
C2822 H2836 0.960 . S
C2823 C2820 1.511 . S
C2823 H2837 0.961 . S
C2823 H2838 0.961 . S
C2823 H2839 0.961 . S
C2824 C2825 1.370 . S
C2824 C2826 1.363 . S
C2824 H2840 0.931 . S
C2825 C2824 1.370 . S
C2825 C2829 1.408 . S
C2826 C2824 1.363 . S
C2826 C2827 1.370 . S
C2826 C2830 1.524 . S
C2827 C2819 1.503 . S
C2827 C2826 1.370 . S
C2827 C2828 1.403 . S
C2828 C2827 1.403 . S
C2828 C2829 1.404 . S
C2828 C2831 1.539 . S
C2829 C2825 1.408 . S
C2829 C2828 1.404 . S
C2829 H2841 0.930 . S
C2830 C2826 1.524 . S
C2830 H2842 0.956 . S
C2830 H2843 0.961 . S
C2830 H2844 0.961 . S
C2831 C2828 1.539 . S
C2831 H2845 0.958 . S
C2831 H2846 0.961 . S
C2831 H2847 0.960 . S
H2832 C2816 0.931 . S
H2833 C2821 0.929 . S
H2834 C2822 0.960 . S
H2835 C2822 0.962 . S
H2836 C2822 0.960 . S
H2837 C2823 0.961 . S
H2838 C2823 0.961 . S
H2839 C2823 0.961 . S
H2840 C2824 0.931 . S
H2841 C2829 0.930 . S
H2842 C2830 0.956 . S
H2843 C2830 0.961 . S
H2844 C2830 0.961 . S
H2845 C2831 0.958 . S
H2846 C2831 0.961 . S
H2847 C2831 0.960 . S
C2848 C2849 1.391 . S
C2848 C2850 1.394 . S
C2848 H2864 0.931 . S
C2849 C2848 1.391 . S
C2849 C2853 1.376 . S
C2850 C2848 1.394 . S
C2850 C2851 1.369 . S
C2850 C2854 1.531 . S
C2851 C2850 1.369 . S
C2851 C2852 1.410 . S
C2851 C2859 1.503 . S
C2852 C2851 1.410 . S
C2852 C2853 1.392 . S
C2852 C2855 1.511 . S
C2853 C2849 1.376 . S
C2853 C2852 1.392 . S
C2853 H2865 0.929 . S
C2854 C2850 1.531 . S
C2854 H2866 0.960 . S
C2854 H2867 0.962 . S
C2854 H2868 0.960 . S
C2855 C2852 1.511 . S
C2855 H2869 0.961 . S
C2855 H2870 0.961 . S
C2855 H2871 0.961 . S
C2856 C2857 1.370 . S
C2856 C2858 1.363 . S
C2856 H2872 0.931 . S
C2857 C2856 1.370 . S
C2857 C2861 1.408 . S
C2858 C2856 1.363 . S
C2858 C2859 1.370 . S
C2858 C2862 1.524 . S
C2859 C2851 1.503 . S
C2859 C2858 1.370 . S
C2859 C2860 1.403 . S
C2860 C2859 1.403 . S
C2860 C2861 1.404 . S
C2860 C2863 1.539 . S
C2861 C2857 1.408 . S
C2861 C2860 1.404 . S
C2861 H2873 0.930 . S
C2862 C2858 1.524 . S
C2862 H2874 0.956 . S
C2862 H2875 0.961 . S
C2862 H2876 0.961 . S
C2863 C2860 1.539 . S
C2863 H2877 0.958 . S
C2863 H2878 0.961 . S
C2863 H2879 0.960 . S
H2864 C2848 0.931 . S
H2865 C2853 0.929 . S
H2866 C2854 0.960 . S
H2867 C2854 0.962 . S
H2868 C2854 0.960 . S
H2869 C2855 0.961 . S
H2870 C2855 0.961 . S
H2871 C2855 0.961 . S
H2872 C2856 0.931 . S
H2873 C2861 0.930 . S
H2874 C2862 0.956 . S
H2875 C2862 0.961 . S
H2876 C2862 0.961 . S
H2877 C2863 0.958 . S
H2878 C2863 0.961 . S
H2879 C2863 0.960 . S
C2880 C2881 1.391 . S
C2880 C2882 1.394 . S
C2880 H2896 0.931 . S
C2881 C2880 1.391 . S
C2881 C2885 1.376 . S
C2882 C2880 1.394 . S
C2882 C2883 1.369 . S
C2882 C2886 1.531 . S
C2883 C2882 1.369 . S
C2883 C2884 1.410 . S
C2883 C2891 1.503 . S
C2884 C2883 1.410 . S
C2884 C2885 1.392 . S
C2884 C2887 1.511 . S
C2885 C2881 1.376 . S
C2885 C2884 1.392 . S
C2885 H2897 0.929 . S
C2886 C2882 1.531 . S
C2886 H2898 0.960 . S
C2886 H2899 0.962 . S
C2886 H2900 0.960 . S
C2887 C2884 1.511 . S
C2887 H2901 0.961 . S
C2887 H2902 0.961 . S
C2887 H2903 0.961 . S
C2888 C2889 1.370 . S
C2888 C2890 1.363 . S
C2888 H2904 0.931 . S
C2889 C2888 1.370 . S
C2889 C2893 1.408 . S
C2890 C2888 1.363 . S
C2890 C2891 1.370 . S
C2890 C2894 1.524 . S
C2891 C2883 1.503 . S
C2891 C2890 1.370 . S
C2891 C2892 1.403 . S
C2892 C2891 1.403 . S
C2892 C2893 1.404 . S
C2892 C2895 1.539 . S
C2893 C2889 1.408 . S
C2893 C2892 1.404 . S
C2893 H2905 0.930 . S
C2894 C2890 1.524 . S
C2894 H2906 0.956 . S
C2894 H2907 0.961 . S
C2894 H2908 0.961 . S
C2895 C2892 1.539 . S
C2895 H2909 0.958 . S
C2895 H2910 0.961 . S
C2895 H2911 0.960 . S
H2896 C2880 0.931 . S
H2897 C2885 0.929 . S
H2898 C2886 0.960 . S
H2899 C2886 0.962 . S
H2900 C2886 0.960 . S
H2901 C2887 0.961 . S
H2902 C2887 0.961 . S
H2903 C2887 0.961 . S
H2904 C2888 0.931 . S
H2905 C2893 0.930 . S
H2906 C2894 0.956 . S
H2907 C2894 0.961 . S
H2908 C2894 0.961 . S
H2909 C2895 0.958 . S
H2910 C2895 0.961 . S
H2911 C2895 0.960 . S
C2912 C2913 1.391 . S
C2912 C2914 1.394 . S
C2912 H2928 0.931 . S
C2913 C2912 1.391 . S
C2913 C2917 1.376 . S
C2914 C2912 1.394 . S
C2914 C2915 1.369 . S
C2914 C2918 1.531 . S
C2915 C2914 1.369 . S
C2915 C2916 1.410 . S
C2915 C2923 1.503 . S
C2916 C2915 1.410 . S
C2916 C2917 1.392 . S
C2916 C2919 1.511 . S
C2917 C2913 1.376 . S
C2917 C2916 1.392 . S
C2917 H2929 0.929 . S
C2918 C2914 1.531 . S
C2918 H2930 0.960 . S
C2918 H2931 0.962 . S
C2918 H2932 0.960 . S
C2919 C2916 1.511 . S
C2919 H2933 0.961 . S
C2919 H2934 0.961 . S
C2919 H2935 0.961 . S
C2920 C2921 1.370 . S
C2920 C2922 1.363 . S
C2920 H2936 0.931 . S
C2921 C2920 1.370 . S
C2921 C2925 1.408 . S
C2922 C2920 1.363 . S
C2922 C2923 1.370 . S
C2922 C2926 1.524 . S
C2923 C2915 1.503 . S
C2923 C2922 1.370 . S
C2923 C2924 1.403 . S
C2924 C2923 1.403 . S
C2924 C2925 1.404 . S
C2924 C2927 1.539 . S
C2925 C2921 1.408 . S
C2925 C2924 1.404 . S
C2925 H2937 0.930 . S
C2926 C2922 1.524 . S
C2926 H2938 0.956 . S
C2926 H2939 0.961 . S
C2926 H2940 0.961 . S
C2927 C2924 1.539 . S
C2927 H2941 0.958 . S
C2927 H2942 0.961 . S
C2927 H2943 0.960 . S
H2928 C2912 0.931 . S
H2929 C2917 0.929 . S
H2930 C2918 0.960 . S
H2931 C2918 0.962 . S
H2932 C2918 0.960 . S
H2933 C2919 0.961 . S
H2934 C2919 0.961 . S
H2935 C2919 0.961 . S
H2936 C2920 0.931 . S
H2937 C2925 0.930 . S
H2938 C2926 0.956 . S
H2939 C2926 0.961 . S
H2940 C2926 0.961 . S
H2941 C2927 0.958 . S
H2942 C2927 0.961 . S
H2943 C2927 0.960 . S
C2944 C2945 1.391 . S
C2944 C2946 1.394 . S
C2944 H2960 0.931 . S
C2945 C2944 1.391 . S
C2945 C2949 1.376 . S
C2946 C2944 1.394 . S
C2946 C2947 1.369 . S
C2946 C2950 1.531 . S
C2947 C2946 1.369 . S
C2947 C2948 1.410 . S
C2947 C2955 1.503 . S
C2948 C2947 1.410 . S
C2948 C2949 1.392 . S
C2948 C2951 1.511 . S
C2949 C2945 1.376 . S
C2949 C2948 1.392 . S
C2949 H2961 0.929 . S
C2950 C2946 1.531 . S
C2950 H2962 0.960 . S
C2950 H2963 0.962 . S
C2950 H2964 0.960 . S
C2951 C2948 1.511 . S
C2951 H2965 0.961 . S
C2951 H2966 0.961 . S
C2951 H2967 0.961 . S
C2952 C2953 1.370 . S
C2952 C2954 1.363 . S
C2952 H2968 0.931 . S
C2953 C2952 1.370 . S
C2953 C2957 1.408 . S
C2954 C2952 1.363 . S
C2954 C2955 1.370 . S
C2954 C2958 1.524 . S
C2955 C2947 1.503 . S
C2955 C2954 1.370 . S
C2955 C2956 1.403 . S
C2956 C2955 1.403 . S
C2956 C2957 1.404 . S
C2956 C2959 1.539 . S
C2957 C2953 1.408 . S
C2957 C2956 1.404 . S
C2957 H2969 0.930 . S
C2958 C2954 1.524 . S
C2958 H2970 0.956 . S
C2958 H2971 0.961 . S
C2958 H2972 0.961 . S
C2959 C2956 1.539 . S
C2959 H2973 0.958 . S
C2959 H2974 0.961 . S
C2959 H2975 0.960 . S
H2960 C2944 0.931 . S
H2961 C2949 0.929 . S
H2962 C2950 0.960 . S
H2963 C2950 0.962 . S
H2964 C2950 0.960 . S
H2965 C2951 0.961 . S
H2966 C2951 0.961 . S
H2967 C2951 0.961 . S
H2968 C2952 0.931 . S
H2969 C2957 0.930 . S
H2970 C2958 0.956 . S
H2971 C2958 0.961 . S
H2972 C2958 0.961 . S
H2973 C2959 0.958 . S
H2974 C2959 0.961 . S
H2975 C2959 0.960 . S
C2976 C2977 1.391 . S
C2976 C2978 1.394 . S
C2976 H2992 0.931 . S
C2977 C2976 1.391 . S
C2977 C2981 1.376 . S
C2978 C2976 1.394 . S
C2978 C2979 1.369 . S
C2978 C2982 1.531 . S
C2979 C2978 1.369 . S
C2979 C2980 1.410 . S
C2979 C2987 1.503 . S
C2980 C2979 1.410 . S
C2980 C2981 1.392 . S
C2980 C2983 1.511 . S
C2981 C2977 1.376 . S
C2981 C2980 1.392 . S
C2981 H2993 0.929 . S
C2982 C2978 1.531 . S
C2982 H2994 0.960 . S
C2982 H2995 0.962 . S
C2982 H2996 0.960 . S
C2983 C2980 1.511 . S
C2983 H2997 0.961 . S
C2983 H2998 0.961 . S
C2983 H2999 0.961 . S
C2984 C2985 1.370 . S
C2984 C2986 1.363 . S
C2984 H3000 0.931 . S
C2985 C2984 1.370 . S
C2985 C2989 1.408 . S
C2986 C2984 1.363 . S
C2986 C2987 1.370 . S
C2986 C2990 1.524 . S
C2987 C2979 1.503 . S
C2987 C2986 1.370 . S
C2987 C2988 1.403 . S
C2988 C2987 1.403 . S
C2988 C2989 1.404 . S
C2988 C2991 1.539 . S
C2989 C2985 1.408 . S
C2989 C2988 1.404 . S
C2989 H3001 0.930 . S
C2990 C2986 1.524 . S
C2990 H3002 0.956 . S
C2990 H3003 0.961 . S
C2990 H3004 0.961 . S
C2991 C2988 1.539 . S
C2991 H3005 0.958 . S
C2991 H3006 0.961 . S
C2991 H3007 0.960 . S
H2992 C2976 0.931 . S
H2993 C2981 0.929 . S
H2994 C2982 0.960 . S
H2995 C2982 0.962 . S
H2996 C2982 0.960 . S
H2997 C2983 0.961 . S
H2998 C2983 0.961 . S
H2999 C2983 0.961 . S
H3000 C2984 0.931 . S
H3001 C2989 0.930 . S
H3002 C2990 0.956 . S
H3003 C2990 0.961 . S
H3004 C2990 0.961 . S
H3005 C2991 0.958 . S
H3006 C2991 0.961 . S
H3007 C2991 0.960 . S
C3008 C3009 1.391 . S
C3008 C3010 1.394 . S
C3008 H3024 0.931 . S
C3009 C3008 1.391 . S
C3009 C3013 1.376 . S
C3010 C3008 1.394 . S
C3010 C3011 1.369 . S
C3010 C3014 1.531 . S
C3011 C3010 1.369 . S
C3011 C3012 1.410 . S
C3011 C3019 1.503 . S
C3012 C3011 1.410 . S
C3012 C3013 1.392 . S
C3012 C3015 1.511 . S
C3013 C3009 1.376 . S
C3013 C3012 1.392 . S
C3013 H3025 0.929 . S
C3014 C3010 1.531 . S
C3014 H3026 0.960 . S
C3014 H3027 0.962 . S
C3014 H3028 0.960 . S
C3015 C3012 1.511 . S
C3015 H3029 0.961 . S
C3015 H3030 0.961 . S
C3015 H3031 0.961 . S
C3016 C3017 1.370 . S
C3016 C3018 1.363 . S
C3016 H3032 0.931 . S
C3017 C3016 1.370 . S
C3017 C3021 1.408 . S
C3018 C3016 1.363 . S
C3018 C3019 1.370 . S
C3018 C3022 1.524 . S
C3019 C3011 1.503 . S
C3019 C3018 1.370 . S
C3019 C3020 1.403 . S
C3020 C3019 1.403 . S
C3020 C3021 1.404 . S
C3020 C3023 1.539 . S
C3021 C3017 1.408 . S
C3021 C3020 1.404 . S
C3021 H3033 0.930 . S
C3022 C3018 1.524 . S
C3022 H3034 0.956 . S
C3022 H3035 0.961 . S
C3022 H3036 0.961 . S
C3023 C3020 1.539 . S
C3023 H3037 0.958 . S
C3023 H3038 0.961 . S
C3023 H3039 0.960 . S
H3024 C3008 0.931 . S
H3025 C3013 0.929 . S
H3026 C3014 0.960 . S
H3027 C3014 0.962 . S
H3028 C3014 0.960 . S
H3029 C3015 0.961 . S
H3030 C3015 0.961 . S
H3031 C3015 0.961 . S
H3032 C3016 0.931 . S
H3033 C3021 0.930 . S
H3034 C3022 0.956 . S
H3035 C3022 0.961 . S
H3036 C3022 0.961 . S
H3037 C3023 0.958 . S
H3038 C3023 0.961 . S
H3039 C3023 0.960 . S
C3040 C3041 1.391 . S
C3040 C3042 1.394 . S
C3040 H3056 0.931 . S
C3041 C3040 1.391 . S
C3041 C3045 1.376 . S
C3042 C3040 1.394 . S
C3042 C3043 1.369 . S
C3042 C3046 1.531 . S
C3043 C3042 1.369 . S
C3043 C3044 1.410 . S
C3043 C3051 1.503 . S
C3044 C3043 1.410 . S
C3044 C3045 1.392 . S
C3044 C3047 1.511 . S
C3045 C3041 1.376 . S
C3045 C3044 1.392 . S
C3045 H3057 0.929 . S
C3046 C3042 1.531 . S
C3046 H3058 0.960 . S
C3046 H3059 0.962 . S
C3046 H3060 0.960 . S
C3047 C3044 1.511 . S
C3047 H3061 0.961 . S
C3047 H3062 0.961 . S
C3047 H3063 0.961 . S
C3048 C3049 1.370 . S
C3048 C3050 1.363 . S
C3048 H3064 0.931 . S
C3049 C3048 1.370 . S
C3049 C3053 1.408 . S
C3050 C3048 1.363 . S
C3050 C3051 1.370 . S
C3050 C3054 1.524 . S
C3051 C3043 1.503 . S
C3051 C3050 1.370 . S
C3051 C3052 1.403 . S
C3052 C3051 1.403 . S
C3052 C3053 1.404 . S
C3052 C3055 1.539 . S
C3053 C3049 1.408 . S
C3053 C3052 1.404 . S
C3053 H3065 0.930 . S
C3054 C3050 1.524 . S
C3054 H3066 0.956 . S
C3054 H3067 0.961 . S
C3054 H3068 0.961 . S
C3055 C3052 1.539 . S
C3055 H3069 0.958 . S
C3055 H3070 0.961 . S
C3055 H3071 0.960 . S
H3056 C3040 0.931 . S
H3057 C3045 0.929 . S
H3058 C3046 0.960 . S
H3059 C3046 0.962 . S
H3060 C3046 0.960 . S
H3061 C3047 0.961 . S
H3062 C3047 0.961 . S
H3063 C3047 0.961 . S
H3064 C3048 0.931 . S
H3065 C3053 0.930 . S
H3066 C3054 0.956 . S
H3067 C3054 0.961 . S
H3068 C3054 0.961 . S
H3069 C3055 0.958 . S
H3070 C3055 0.961 . S
H3071 C3055 0.960 . S
C3072 C3073 1.391 . S
C3072 C3074 1.394 . S
C3072 H3088 0.931 . S
C3073 C3072 1.391 . S
C3073 C3077 1.376 . S
C3074 C3072 1.394 . S
C3074 C3075 1.369 . S
C3074 C3078 1.531 . S
C3075 C3074 1.369 . S
C3075 C3076 1.410 . S
C3075 C3083 1.503 . S
C3076 C3075 1.410 . S
C3076 C3077 1.392 . S
C3076 C3079 1.511 . S
C3077 C3073 1.376 . S
C3077 C3076 1.392 . S
C3077 H3089 0.929 . S
C3078 C3074 1.531 . S
C3078 H3090 0.960 . S
C3078 H3091 0.962 . S
C3078 H3092 0.960 . S
C3079 C3076 1.511 . S
C3079 H3093 0.961 . S
C3079 H3094 0.961 . S
C3079 H3095 0.961 . S
C3080 C3081 1.370 . S
C3080 C3082 1.363 . S
C3080 H3096 0.931 . S
C3081 C3080 1.370 . S
C3081 C3085 1.408 . S
C3082 C3080 1.363 . S
C3082 C3083 1.370 . S
C3082 C3086 1.524 . S
C3083 C3075 1.503 . S
C3083 C3082 1.370 . S
C3083 C3084 1.403 . S
C3084 C3083 1.403 . S
C3084 C3085 1.404 . S
C3084 C3087 1.539 . S
C3085 C3081 1.408 . S
C3085 C3084 1.404 . S
C3085 H3097 0.930 . S
C3086 C3082 1.524 . S
C3086 H3098 0.956 . S
C3086 H3099 0.961 . S
C3086 H3100 0.961 . S
C3087 C3084 1.539 . S
C3087 H3101 0.958 . S
C3087 H3102 0.961 . S
C3087 H3103 0.960 . S
H3088 C3072 0.931 . S
H3089 C3077 0.929 . S
H3090 C3078 0.960 . S
H3091 C3078 0.962 . S
H3092 C3078 0.960 . S
H3093 C3079 0.961 . S
H3094 C3079 0.961 . S
H3095 C3079 0.961 . S
H3096 C3080 0.931 . S
H3097 C3085 0.930 . S
H3098 C3086 0.956 . S
H3099 C3086 0.961 . S
H3100 C3086 0.961 . S
H3101 C3087 0.958 . S
H3102 C3087 0.961 . S
H3103 C3087 0.960 . S
C3104 C3105 1.391 . S
C3104 C3106 1.394 . S
C3104 H3120 0.931 . S
C3105 C3104 1.391 . S
C3105 C3109 1.376 . S
C3106 C3104 1.394 . S
C3106 C3107 1.369 . S
C3106 C3110 1.531 . S
C3107 C3106 1.369 . S
C3107 C3108 1.410 . S
C3107 C3115 1.503 . S
C3108 C3107 1.410 . S
C3108 C3109 1.392 . S
C3108 C3111 1.511 . S
C3109 C3105 1.376 . S
C3109 C3108 1.392 . S
C3109 H3121 0.929 . S
C3110 C3106 1.531 . S
C3110 H3122 0.960 . S
C3110 H3123 0.962 . S
C3110 H3124 0.960 . S
C3111 C3108 1.511 . S
C3111 H3125 0.961 . S
C3111 H3126 0.961 . S
C3111 H3127 0.961 . S
C3112 C3113 1.370 . S
C3112 C3114 1.363 . S
C3112 H3128 0.931 . S
C3113 C3112 1.370 . S
C3113 C3117 1.408 . S
C3114 C3112 1.363 . S
C3114 C3115 1.370 . S
C3114 C3118 1.524 . S
C3115 C3107 1.503 . S
C3115 C3114 1.370 . S
C3115 C3116 1.403 . S
C3116 C3115 1.403 . S
C3116 C3117 1.404 . S
C3116 C3119 1.539 . S
C3117 C3113 1.408 . S
C3117 C3116 1.404 . S
C3117 H3129 0.930 . S
C3118 C3114 1.524 . S
C3118 H3130 0.956 . S
C3118 H3131 0.961 . S
C3118 H3132 0.961 . S
C3119 C3116 1.539 . S
C3119 H3133 0.958 . S
C3119 H3134 0.961 . S
C3119 H3135 0.960 . S
H3120 C3104 0.931 . S
H3121 C3109 0.929 . S
H3122 C3110 0.960 . S
H3123 C3110 0.962 . S
H3124 C3110 0.960 . S
H3125 C3111 0.961 . S
H3126 C3111 0.961 . S
H3127 C3111 0.961 . S
H3128 C3112 0.931 . S
H3129 C3117 0.930 . S
H3130 C3118 0.956 . S
H3131 C3118 0.961 . S
H3132 C3118 0.961 . S
H3133 C3119 0.958 . S
H3134 C3119 0.961 . S
H3135 C3119 0.960 . S
C3136 C3137 1.391 . S
C3136 C3138 1.394 . S
C3136 H3152 0.931 . S
C3137 C3136 1.391 . S
C3137 C3141 1.376 . S
C3138 C3136 1.394 . S
C3138 C3139 1.369 . S
C3138 C3142 1.531 . S
C3139 C3138 1.369 . S
C3139 C3140 1.410 . S
C3139 C3147 1.503 . S
C3140 C3139 1.410 . S
C3140 C3141 1.392 . S
C3140 C3143 1.511 . S
C3141 C3137 1.376 . S
C3141 C3140 1.392 . S
C3141 H3153 0.929 . S
C3142 C3138 1.531 . S
C3142 H3154 0.960 . S
C3142 H3155 0.962 . S
C3142 H3156 0.960 . S
C3143 C3140 1.511 . S
C3143 H3157 0.961 . S
C3143 H3158 0.961 . S
C3143 H3159 0.961 . S
C3144 C3145 1.370 . S
C3144 C3146 1.363 . S
C3144 H3160 0.931 . S
C3145 C3144 1.370 . S
C3145 C3149 1.408 . S
C3146 C3144 1.363 . S
C3146 C3147 1.370 . S
C3146 C3150 1.524 . S
C3147 C3139 1.503 . S
C3147 C3146 1.370 . S
C3147 C3148 1.403 . S
C3148 C3147 1.403 . S
C3148 C3149 1.404 . S
C3148 C3151 1.539 . S
C3149 C3145 1.408 . S
C3149 C3148 1.404 . S
C3149 H3161 0.930 . S
C3150 C3146 1.524 . S
C3150 H3162 0.956 . S
C3150 H3163 0.961 . S
C3150 H3164 0.961 . S
C3151 C3148 1.539 . S
C3151 H3165 0.958 . S
C3151 H3166 0.961 . S
C3151 H3167 0.960 . S
H3152 C3136 0.931 . S
H3153 C3141 0.929 . S
H3154 C3142 0.960 . S
H3155 C3142 0.962 . S
H3156 C3142 0.960 . S
H3157 C3143 0.961 . S
H3158 C3143 0.961 . S
H3159 C3143 0.961 . S
H3160 C3144 0.931 . S
H3161 C3149 0.930 . S
H3162 C3150 0.956 . S
H3163 C3150 0.961 . S
H3164 C3150 0.961 . S
H3165 C3151 0.958 . S
H3166 C3151 0.961 . S
H3167 C3151 0.960 . S
C3168 C3169 1.391 . S
C3168 C3170 1.394 . S
C3168 H3184 0.931 . S
C3169 C3168 1.391 . S
C3169 C3173 1.376 . S
C3170 C3168 1.394 . S
C3170 C3171 1.369 . S
C3170 C3174 1.531 . S
C3171 C3170 1.369 . S
C3171 C3172 1.410 . S
C3171 C3179 1.503 . S
C3172 C3171 1.410 . S
C3172 C3173 1.392 . S
C3172 C3175 1.511 . S
C3173 C3169 1.376 . S
C3173 C3172 1.392 . S
C3173 H3185 0.929 . S
C3174 C3170 1.531 . S
C3174 H3186 0.960 . S
C3174 H3187 0.962 . S
C3174 H3188 0.960 . S
C3175 C3172 1.511 . S
C3175 H3189 0.961 . S
C3175 H3190 0.961 . S
C3175 H3191 0.961 . S
C3176 C3177 1.370 . S
C3176 C3178 1.363 . S
C3176 H3192 0.931 . S
C3177 C3176 1.370 . S
C3177 C3181 1.408 . S
C3178 C3176 1.363 . S
C3178 C3179 1.370 . S
C3178 C3182 1.524 . S
C3179 C3171 1.503 . S
C3179 C3178 1.370 . S
C3179 C3180 1.403 . S
C3180 C3179 1.403 . S
C3180 C3181 1.404 . S
C3180 C3183 1.539 . S
C3181 C3177 1.408 . S
C3181 C3180 1.404 . S
C3181 H3193 0.930 . S
C3182 C3178 1.524 . S
C3182 H3194 0.956 . S
C3182 H3195 0.961 . S
C3182 H3196 0.961 . S
C3183 C3180 1.539 . S
C3183 H3197 0.958 . S
C3183 H3198 0.961 . S
C3183 H3199 0.960 . S
H3184 C3168 0.931 . S
H3185 C3173 0.929 . S
H3186 C3174 0.960 . S
H3187 C3174 0.962 . S
H3188 C3174 0.960 . S
H3189 C3175 0.961 . S
H3190 C3175 0.961 . S
H3191 C3175 0.961 . S
H3192 C3176 0.931 . S
H3193 C3181 0.930 . S
H3194 C3182 0.956 . S
H3195 C3182 0.961 . S
H3196 C3182 0.961 . S
H3197 C3183 0.958 . S
H3198 C3183 0.961 . S
H3199 C3183 0.960 . S
C3200 C3201 1.391 . S
C3200 C3202 1.394 . S
C3200 H3216 0.931 . S
C3201 C3200 1.391 . S
C3201 C3205 1.376 . S
C3202 C3200 1.394 . S
C3202 C3203 1.369 . S
C3202 C3206 1.531 . S
C3203 C3202 1.369 . S
C3203 C3204 1.410 . S
C3203 C3211 1.503 . S
C3204 C3203 1.410 . S
C3204 C3205 1.392 . S
C3204 C3207 1.511 . S
C3205 C3201 1.376 . S
C3205 C3204 1.392 . S
C3205 H3217 0.929 . S
C3206 C3202 1.531 . S
C3206 H3218 0.960 . S
C3206 H3219 0.962 . S
C3206 H3220 0.960 . S
C3207 C3204 1.511 . S
C3207 H3221 0.961 . S
C3207 H3222 0.961 . S
C3207 H3223 0.961 . S
C3208 C3209 1.370 . S
C3208 C3210 1.363 . S
C3208 H3224 0.931 . S
C3209 C3208 1.370 . S
C3209 C3213 1.408 . S
C3210 C3208 1.363 . S
C3210 C3211 1.370 . S
C3210 C3214 1.524 . S
C3211 C3203 1.503 . S
C3211 C3210 1.370 . S
C3211 C3212 1.403 . S
C3212 C3211 1.403 . S
C3212 C3213 1.404 . S
C3212 C3215 1.539 . S
C3213 C3209 1.408 . S
C3213 C3212 1.404 . S
C3213 H3225 0.930 . S
C3214 C3210 1.524 . S
C3214 H3226 0.956 . S
C3214 H3227 0.961 . S
C3214 H3228 0.961 . S
C3215 C3212 1.539 . S
C3215 H3229 0.958 . S
C3215 H3230 0.961 . S
C3215 H3231 0.960 . S
H3216 C3200 0.931 . S
H3217 C3205 0.929 . S
H3218 C3206 0.960 . S
H3219 C3206 0.962 . S
H3220 C3206 0.960 . S
H3221 C3207 0.961 . S
H3222 C3207 0.961 . S
H3223 C3207 0.961 . S
H3224 C3208 0.931 . S
H3225 C3213 0.930 . S
H3226 C3214 0.956 . S
H3227 C3214 0.961 . S
H3228 C3214 0.961 . S
H3229 C3215 0.958 . S
H3230 C3215 0.961 . S
H3231 C3215 0.960 . S
C3232 C3233 1.391 . S
C3232 C3234 1.394 . S
C3232 H3248 0.931 . S
C3233 C3232 1.391 . S
C3233 C3237 1.376 . S
C3234 C3232 1.394 . S
C3234 C3235 1.369 . S
C3234 C3238 1.531 . S
C3235 C3234 1.369 . S
C3235 C3236 1.410 . S
C3235 C3243 1.503 . S
C3236 C3235 1.410 . S
C3236 C3237 1.392 . S
C3236 C3239 1.511 . S
C3237 C3233 1.376 . S
C3237 C3236 1.392 . S
C3237 H3249 0.929 . S
C3238 C3234 1.531 . S
C3238 H3250 0.960 . S
C3238 H3251 0.962 . S
C3238 H3252 0.960 . S
C3239 C3236 1.511 . S
C3239 H3253 0.961 . S
C3239 H3254 0.961 . S
C3239 H3255 0.961 . S
C3240 C3241 1.370 . S
C3240 C3242 1.363 . S
C3240 H3256 0.931 . S
C3241 C3240 1.370 . S
C3241 C3245 1.408 . S
C3242 C3240 1.363 . S
C3242 C3243 1.370 . S
C3242 C3246 1.524 . S
C3243 C3235 1.503 . S
C3243 C3242 1.370 . S
C3243 C3244 1.403 . S
C3244 C3243 1.403 . S
C3244 C3245 1.404 . S
C3244 C3247 1.539 . S
C3245 C3241 1.408 . S
C3245 C3244 1.404 . S
C3245 H3257 0.930 . S
C3246 C3242 1.524 . S
C3246 H3258 0.956 . S
C3246 H3259 0.961 . S
C3246 H3260 0.961 . S
C3247 C3244 1.539 . S
C3247 H3261 0.958 . S
C3247 H3262 0.961 . S
C3247 H3263 0.960 . S
H3248 C3232 0.931 . S
H3249 C3237 0.929 . S
H3250 C3238 0.960 . S
H3251 C3238 0.962 . S
H3252 C3238 0.960 . S
H3253 C3239 0.961 . S
H3254 C3239 0.961 . S
H3255 C3239 0.961 . S
H3256 C3240 0.931 . S
H3257 C3245 0.930 . S
H3258 C3246 0.956 . S
H3259 C3246 0.961 . S
H3260 C3246 0.961 . S
H3261 C3247 0.958 . S
H3262 C3247 0.961 . S
H3263 C3247 0.960 . S
C3264 C3265 1.391 . S
C3264 C3266 1.394 . S
C3264 H3280 0.931 . S
C3265 C3264 1.391 . S
C3265 C3269 1.376 . S
C3266 C3264 1.394 . S
C3266 C3267 1.369 . S
C3266 C3270 1.531 . S
C3267 C3266 1.369 . S
C3267 C3268 1.410 . S
C3267 C3275 1.503 . S
C3268 C3267 1.410 . S
C3268 C3269 1.392 . S
C3268 C3271 1.511 . S
C3269 C3265 1.376 . S
C3269 C3268 1.392 . S
C3269 H3281 0.929 . S
C3270 C3266 1.531 . S
C3270 H3282 0.960 . S
C3270 H3283 0.962 . S
C3270 H3284 0.960 . S
C3271 C3268 1.511 . S
C3271 H3285 0.961 . S
C3271 H3286 0.961 . S
C3271 H3287 0.961 . S
C3272 C3273 1.370 . S
C3272 C3274 1.363 . S
C3272 H3288 0.931 . S
C3273 C3272 1.370 . S
C3273 C3277 1.408 . S
C3274 C3272 1.363 . S
C3274 C3275 1.370 . S
C3274 C3278 1.524 . S
C3275 C3267 1.503 . S
C3275 C3274 1.370 . S
C3275 C3276 1.403 . S
C3276 C3275 1.403 . S
C3276 C3277 1.404 . S
C3276 C3279 1.539 . S
C3277 C3273 1.408 . S
C3277 C3276 1.404 . S
C3277 H3289 0.930 . S
C3278 C3274 1.524 . S
C3278 H3290 0.956 . S
C3278 H3291 0.961 . S
C3278 H3292 0.961 . S
C3279 C3276 1.539 . S
C3279 H3293 0.958 . S
C3279 H3294 0.961 . S
C3279 H3295 0.960 . S
H3280 C3264 0.931 . S
H3281 C3269 0.929 . S
H3282 C3270 0.960 . S
H3283 C3270 0.962 . S
H3284 C3270 0.960 . S
H3285 C3271 0.961 . S
H3286 C3271 0.961 . S
H3287 C3271 0.961 . S
H3288 C3272 0.931 . S
H3289 C3277 0.930 . S
H3290 C3278 0.956 . S
H3291 C3278 0.961 . S
H3292 C3278 0.961 . S
H3293 C3279 0.958 . S
H3294 C3279 0.961 . S
H3295 C3279 0.960 . S
C3296 C3297 1.391 . S
C3296 C3298 1.394 . S
C3296 H3312 0.931 . S
C3297 C3296 1.391 . S
C3297 C3301 1.376 . S
C3298 C3296 1.394 . S
C3298 C3299 1.369 . S
C3298 C3302 1.531 . S
C3299 C3298 1.369 . S
C3299 C3300 1.410 . S
C3299 C3307 1.503 . S
C3300 C3299 1.410 . S
C3300 C3301 1.392 . S
C3300 C3303 1.511 . S
C3301 C3297 1.376 . S
C3301 C3300 1.392 . S
C3301 H3313 0.929 . S
C3302 C3298 1.531 . S
C3302 H3314 0.960 . S
C3302 H3315 0.962 . S
C3302 H3316 0.960 . S
C3303 C3300 1.511 . S
C3303 H3317 0.961 . S
C3303 H3318 0.961 . S
C3303 H3319 0.961 . S
C3304 C3305 1.370 . S
C3304 C3306 1.363 . S
C3304 H3320 0.931 . S
C3305 C3304 1.370 . S
C3305 C3309 1.408 . S
C3306 C3304 1.363 . S
C3306 C3307 1.370 . S
C3306 C3310 1.524 . S
C3307 C3299 1.503 . S
C3307 C3306 1.370 . S
C3307 C3308 1.403 . S
C3308 C3307 1.403 . S
C3308 C3309 1.404 . S
C3308 C3311 1.539 . S
C3309 C3305 1.408 . S
C3309 C3308 1.404 . S
C3309 H3321 0.930 . S
C3310 C3306 1.524 . S
C3310 H3322 0.956 . S
C3310 H3323 0.961 . S
C3310 H3324 0.961 . S
C3311 C3308 1.539 . S
C3311 H3325 0.958 . S
C3311 H3326 0.961 . S
C3311 H3327 0.960 . S
H3312 C3296 0.931 . S
H3313 C3301 0.929 . S
H3314 C3302 0.960 . S
H3315 C3302 0.962 . S
H3316 C3302 0.960 . S
H3317 C3303 0.961 . S
H3318 C3303 0.961 . S
H3319 C3303 0.961 . S
H3320 C3304 0.931 . S
H3321 C3309 0.930 . S
H3322 C3310 0.956 . S
H3323 C3310 0.961 . S
H3324 C3310 0.961 . S
H3325 C3311 0.958 . S
H3326 C3311 0.961 . S
H3327 C3311 0.960 . S
C3328 C3329 1.391 . S
C3328 C3330 1.394 . S
C3328 H3344 0.931 . S
C3329 C3328 1.391 . S
C3329 C3333 1.376 . S
C3330 C3328 1.394 . S
C3330 C3331 1.369 . S
C3330 C3334 1.531 . S
C3331 C3330 1.369 . S
C3331 C3332 1.410 . S
C3331 C3339 1.503 . S
C3332 C3331 1.410 . S
C3332 C3333 1.392 . S
C3332 C3335 1.511 . S
C3333 C3329 1.376 . S
C3333 C3332 1.392 . S
C3333 H3345 0.929 . S
C3334 C3330 1.531 . S
C3334 H3346 0.960 . S
C3334 H3347 0.962 . S
C3334 H3348 0.960 . S
C3335 C3332 1.511 . S
C3335 H3349 0.961 . S
C3335 H3350 0.961 . S
C3335 H3351 0.961 . S
C3336 C3337 1.370 . S
C3336 C3338 1.363 . S
C3336 H3352 0.931 . S
C3337 C3336 1.370 . S
C3337 C3341 1.408 . S
C3338 C3336 1.363 . S
C3338 C3339 1.370 . S
C3338 C3342 1.524 . S
C3339 C3331 1.503 . S
C3339 C3338 1.370 . S
C3339 C3340 1.403 . S
C3340 C3339 1.403 . S
C3340 C3341 1.404 . S
C3340 C3343 1.539 . S
C3341 C3337 1.408 . S
C3341 C3340 1.404 . S
C3341 H3353 0.930 . S
C3342 C3338 1.524 . S
C3342 H3354 0.956 . S
C3342 H3355 0.961 . S
C3342 H3356 0.961 . S
C3343 C3340 1.539 . S
C3343 H3357 0.958 . S
C3343 H3358 0.961 . S
C3343 H3359 0.960 . S
H3344 C3328 0.931 . S
H3345 C3333 0.929 . S
H3346 C3334 0.960 . S
H3347 C3334 0.962 . S
H3348 C3334 0.960 . S
H3349 C3335 0.961 . S
H3350 C3335 0.961 . S
H3351 C3335 0.961 . S
H3352 C3336 0.931 . S
H3353 C3341 0.930 . S
H3354 C3342 0.956 . S
H3355 C3342 0.961 . S
H3356 C3342 0.961 . S
H3357 C3343 0.958 . S
H3358 C3343 0.961 . S
H3359 C3343 0.960 . S
C3360 C3361 1.391 . S
C3360 C3362 1.394 . S
C3360 H3376 0.931 . S
C3361 C3360 1.391 . S
C3361 C3365 1.376 . S
C3362 C3360 1.394 . S
C3362 C3363 1.369 . S
C3362 C3366 1.531 . S
C3363 C3362 1.369 . S
C3363 C3364 1.410 . S
C3363 C3371 1.503 . S
C3364 C3363 1.410 . S
C3364 C3365 1.392 . S
C3364 C3367 1.511 . S
C3365 C3361 1.376 . S
C3365 C3364 1.392 . S
C3365 H3377 0.929 . S
C3366 C3362 1.531 . S
C3366 H3378 0.960 . S
C3366 H3379 0.962 . S
C3366 H3380 0.960 . S
C3367 C3364 1.511 . S
C3367 H3381 0.961 . S
C3367 H3382 0.961 . S
C3367 H3383 0.961 . S
C3368 C3369 1.370 . S
C3368 C3370 1.363 . S
C3368 H3384 0.931 . S
C3369 C3368 1.370 . S
C3369 C3373 1.408 . S
C3370 C3368 1.363 . S
C3370 C3371 1.370 . S
C3370 C3374 1.524 . S
C3371 C3363 1.503 . S
C3371 C3370 1.370 . S
C3371 C3372 1.403 . S
C3372 C3371 1.403 . S
C3372 C3373 1.404 . S
C3372 C3375 1.539 . S
C3373 C3369 1.408 . S
C3373 C3372 1.404 . S
C3373 H3385 0.930 . S
C3374 C3370 1.524 . S
C3374 H3386 0.956 . S
C3374 H3387 0.961 . S
C3374 H3388 0.961 . S
C3375 C3372 1.539 . S
C3375 H3389 0.958 . S
C3375 H3390 0.961 . S
C3375 H3391 0.960 . S
H3376 C3360 0.931 . S
H3377 C3365 0.929 . S
H3378 C3366 0.960 . S
H3379 C3366 0.962 . S
H3380 C3366 0.960 . S
H3381 C3367 0.961 . S
H3382 C3367 0.961 . S
H3383 C3367 0.961 . S
H3384 C3368 0.931 . S
H3385 C3373 0.930 . S
H3386 C3374 0.956 . S
H3387 C3374 0.961 . S
H3388 C3374 0.961 . S
H3389 C3375 0.958 . S
H3390 C3375 0.961 . S
H3391 C3375 0.960 . S
C3392 C3393 1.391 . S
C3392 C3394 1.394 . S
C3392 H3408 0.931 . S
C3393 C3392 1.391 . S
C3393 C3397 1.376 . S
C3394 C3392 1.394 . S
C3394 C3395 1.369 . S
C3394 C3398 1.531 . S
C3395 C3394 1.369 . S
C3395 C3396 1.410 . S
C3395 C3403 1.503 . S
C3396 C3395 1.410 . S
C3396 C3397 1.392 . S
C3396 C3399 1.511 . S
C3397 C3393 1.376 . S
C3397 C3396 1.392 . S
C3397 H3409 0.929 . S
C3398 C3394 1.531 . S
C3398 H3410 0.960 . S
C3398 H3411 0.962 . S
C3398 H3412 0.960 . S
C3399 C3396 1.511 . S
C3399 H3413 0.961 . S
C3399 H3414 0.961 . S
C3399 H3415 0.961 . S
C3400 C3401 1.370 . S
C3400 C3402 1.363 . S
C3400 H3416 0.931 . S
C3401 C3400 1.370 . S
C3401 C3405 1.408 . S
C3402 C3400 1.363 . S
C3402 C3403 1.370 . S
C3402 C3406 1.524 . S
C3403 C3395 1.503 . S
C3403 C3402 1.370 . S
C3403 C3404 1.403 . S
C3404 C3403 1.403 . S
C3404 C3405 1.404 . S
C3404 C3407 1.539 . S
C3405 C3401 1.408 . S
C3405 C3404 1.404 . S
C3405 H3417 0.930 . S
C3406 C3402 1.524 . S
C3406 H3418 0.956 . S
C3406 H3419 0.961 . S
C3406 H3420 0.961 . S
C3407 C3404 1.539 . S
C3407 H3421 0.958 . S
C3407 H3422 0.961 . S
C3407 H3423 0.960 . S
H3408 C3392 0.931 . S
H3409 C3397 0.929 . S
H3410 C3398 0.960 . S
H3411 C3398 0.962 . S
H3412 C3398 0.960 . S
H3413 C3399 0.961 . S
H3414 C3399 0.961 . S
H3415 C3399 0.961 . S
H3416 C3400 0.931 . S
H3417 C3405 0.930 . S
H3418 C3406 0.956 . S
H3419 C3406 0.961 . S
H3420 C3406 0.961 . S
H3421 C3407 0.958 . S
H3422 C3407 0.961 . S
H3423 C3407 0.960 . S
C3424 C3425 1.391 . S
C3424 C3426 1.394 . S
C3424 H3440 0.931 . S
C3425 C3424 1.391 . S
C3425 C3429 1.376 . S
C3426 C3424 1.394 . S
C3426 C3427 1.369 . S
C3426 C3430 1.531 . S
C3427 C3426 1.369 . S
C3427 C3428 1.410 . S
C3427 C3435 1.503 . S
C3428 C3427 1.410 . S
C3428 C3429 1.392 . S
C3428 C3431 1.511 . S
C3429 C3425 1.376 . S
C3429 C3428 1.392 . S
C3429 H3441 0.929 . S
C3430 C3426 1.531 . S
C3430 H3442 0.960 . S
C3430 H3443 0.962 . S
C3430 H3444 0.960 . S
C3431 C3428 1.511 . S
C3431 H3445 0.961 . S
C3431 H3446 0.961 . S
C3431 H3447 0.961 . S
C3432 C3433 1.370 . S
C3432 C3434 1.363 . S
C3432 H3448 0.931 . S
C3433 C3432 1.370 . S
C3433 C3437 1.408 . S
C3434 C3432 1.363 . S
C3434 C3435 1.370 . S
C3434 C3438 1.524 . S
C3435 C3427 1.503 . S
C3435 C3434 1.370 . S
C3435 C3436 1.403 . S
C3436 C3435 1.403 . S
C3436 C3437 1.404 . S
C3436 C3439 1.539 . S
C3437 C3433 1.408 . S
C3437 C3436 1.404 . S
C3437 H3449 0.930 . S
C3438 C3434 1.524 . S
C3438 H3450 0.956 . S
C3438 H3451 0.961 . S
C3438 H3452 0.961 . S
C3439 C3436 1.539 . S
C3439 H3453 0.958 . S
C3439 H3454 0.961 . S
C3439 H3455 0.960 . S
H3440 C3424 0.931 . S
H3441 C3429 0.929 . S
H3442 C3430 0.960 . S
H3443 C3430 0.962 . S
H3444 C3430 0.960 . S
H3445 C3431 0.961 . S
H3446 C3431 0.961 . S
H3447 C3431 0.961 . S
H3448 C3432 0.931 . S
H3449 C3437 0.930 . S
H3450 C3438 0.956 . S
H3451 C3438 0.961 . S
H3452 C3438 0.961 . S
H3453 C3439 0.958 . S
H3454 C3439 0.961 . S
H3455 C3439 0.960 . S
C3456 C3457 1.391 . S
C3456 C3458 1.394 . S
C3456 H3472 0.931 . S
C3457 C3456 1.391 . S
C3457 C3461 1.376 . S
C3458 C3456 1.394 . S
C3458 C3459 1.369 . S
C3458 C3462 1.531 . S
C3459 C3458 1.369 . S
C3459 C3460 1.410 . S
C3459 C3467 1.503 . S
C3460 C3459 1.410 . S
C3460 C3461 1.392 . S
C3460 C3463 1.511 . S
C3461 C3457 1.376 . S
C3461 C3460 1.392 . S
C3461 H3473 0.929 . S
C3462 C3458 1.531 . S
C3462 H3474 0.960 . S
C3462 H3475 0.962 . S
C3462 H3476 0.960 . S
C3463 C3460 1.511 . S
C3463 H3477 0.961 . S
C3463 H3478 0.961 . S
C3463 H3479 0.961 . S
C3464 C3465 1.370 . S
C3464 C3466 1.363 . S
C3464 H3480 0.931 . S
C3465 C3464 1.370 . S
C3465 C3469 1.408 . S
C3466 C3464 1.363 . S
C3466 C3467 1.370 . S
C3466 C3470 1.524 . S
C3467 C3459 1.503 . S
C3467 C3466 1.370 . S
C3467 C3468 1.403 . S
C3468 C3467 1.403 . S
C3468 C3469 1.404 . S
C3468 C3471 1.539 . S
C3469 C3465 1.408 . S
C3469 C3468 1.404 . S
C3469 H3481 0.930 . S
C3470 C3466 1.524 . S
C3470 H3482 0.956 . S
C3470 H3483 0.961 . S
C3470 H3484 0.961 . S
C3471 C3468 1.539 . S
C3471 H3485 0.958 . S
C3471 H3486 0.961 . S
C3471 H3487 0.960 . S
H3472 C3456 0.931 . S
H3473 C3461 0.929 . S
H3474 C3462 0.960 . S
H3475 C3462 0.962 . S
H3476 C3462 0.960 . S
H3477 C3463 0.961 . S
H3478 C3463 0.961 . S
H3479 C3463 0.961 . S
H3480 C3464 0.931 . S
H3481 C3469 0.930 . S
H3482 C3470 0.956 . S
H3483 C3470 0.961 . S
H3484 C3470 0.961 . S
H3485 C3471 0.958 . S
H3486 C3471 0.961 . S
H3487 C3471 0.960 . S
C3488 C3489 1.391 . S
C3488 C3490 1.394 . S
C3488 H3504 0.931 . S
C3489 C3488 1.391 . S
C3489 C3493 1.376 . S
C3490 C3488 1.394 . S
C3490 C3491 1.369 . S
C3490 C3494 1.531 . S
C3491 C3490 1.369 . S
C3491 C3492 1.410 . S
C3491 C3499 1.503 . S
C3492 C3491 1.410 . S
C3492 C3493 1.392 . S
C3492 C3495 1.511 . S
C3493 C3489 1.376 . S
C3493 C3492 1.392 . S
C3493 H3505 0.929 . S
C3494 C3490 1.531 . S
C3494 H3506 0.960 . S
C3494 H3507 0.962 . S
C3494 H3508 0.960 . S
C3495 C3492 1.511 . S
C3495 H3509 0.961 . S
C3495 H3510 0.961 . S
C3495 H3511 0.961 . S
C3496 C3497 1.370 . S
C3496 C3498 1.363 . S
C3496 H3512 0.931 . S
C3497 C3496 1.370 . S
C3497 C3501 1.408 . S
C3498 C3496 1.363 . S
C3498 C3499 1.370 . S
C3498 C3502 1.524 . S
C3499 C3491 1.503 . S
C3499 C3498 1.370 . S
C3499 C3500 1.403 . S
C3500 C3499 1.403 . S
C3500 C3501 1.404 . S
C3500 C3503 1.539 . S
C3501 C3497 1.408 . S
C3501 C3500 1.404 . S
C3501 H3513 0.930 . S
C3502 C3498 1.524 . S
C3502 H3514 0.956 . S
C3502 H3515 0.961 . S
C3502 H3516 0.961 . S
C3503 C3500 1.539 . S
C3503 H3517 0.958 . S
C3503 H3518 0.961 . S
C3503 H3519 0.960 . S
H3504 C3488 0.931 . S
H3505 C3493 0.929 . S
H3506 C3494 0.960 . S
H3507 C3494 0.962 . S
H3508 C3494 0.960 . S
H3509 C3495 0.961 . S
H3510 C3495 0.961 . S
H3511 C3495 0.961 . S
H3512 C3496 0.931 . S
H3513 C3501 0.930 . S
H3514 C3502 0.956 . S
H3515 C3502 0.961 . S
H3516 C3502 0.961 . S
H3517 C3503 0.958 . S
H3518 C3503 0.961 . S
H3519 C3503 0.960 . S
C3520 C3521 1.391 . S
C3520 C3522 1.394 . S
C3520 H3536 0.931 . S
C3521 C3520 1.391 . S
C3521 C3525 1.376 . S
C3522 C3520 1.394 . S
C3522 C3523 1.369 . S
C3522 C3526 1.531 . S
C3523 C3522 1.369 . S
C3523 C3524 1.410 . S
C3523 C3531 1.503 . S
C3524 C3523 1.410 . S
C3524 C3525 1.392 . S
C3524 C3527 1.511 . S
C3525 C3521 1.376 . S
C3525 C3524 1.392 . S
C3525 H3537 0.929 . S
C3526 C3522 1.531 . S
C3526 H3538 0.960 . S
C3526 H3539 0.962 . S
C3526 H3540 0.960 . S
C3527 C3524 1.511 . S
C3527 H3541 0.961 . S
C3527 H3542 0.961 . S
C3527 H3543 0.961 . S
C3528 C3529 1.370 . S
C3528 C3530 1.363 . S
C3528 H3544 0.931 . S
C3529 C3528 1.370 . S
C3529 C3533 1.408 . S
C3530 C3528 1.363 . S
C3530 C3531 1.370 . S
C3530 C3534 1.524 . S
C3531 C3523 1.503 . S
C3531 C3530 1.370 . S
C3531 C3532 1.403 . S
C3532 C3531 1.403 . S
C3532 C3533 1.404 . S
C3532 C3535 1.539 . S
C3533 C3529 1.408 . S
C3533 C3532 1.404 . S
C3533 H3545 0.930 . S
C3534 C3530 1.524 . S
C3534 H3546 0.956 . S
C3534 H3547 0.961 . S
C3534 H3548 0.961 . S
C3535 C3532 1.539 . S
C3535 H3549 0.958 . S
C3535 H3550 0.961 . S
C3535 H3551 0.960 . S
H3536 C3520 0.931 . S
H3537 C3525 0.929 . S
H3538 C3526 0.960 . S
H3539 C3526 0.962 . S
H3540 C3526 0.960 . S
H3541 C3527 0.961 . S
H3542 C3527 0.961 . S
H3543 C3527 0.961 . S
H3544 C3528 0.931 . S
H3545 C3533 0.930 . S
H3546 C3534 0.956 . S
H3547 C3534 0.961 . S
H3548 C3534 0.961 . S
H3549 C3535 0.958 . S
H3550 C3535 0.961 . S
H3551 C3535 0.960 . S
C3552 C3553 1.391 . S
C3552 C3554 1.394 . S
C3552 H3568 0.931 . S
C3553 C3552 1.391 . S
C3553 C3557 1.376 . S
C3554 C3552 1.394 . S
C3554 C3555 1.369 . S
C3554 C3558 1.531 . S
C3555 C3554 1.369 . S
C3555 C3556 1.410 . S
C3555 C3563 1.503 . S
C3556 C3555 1.410 . S
C3556 C3557 1.392 . S
C3556 C3559 1.511 . S
C3557 C3553 1.376 . S
C3557 C3556 1.392 . S
C3557 H3569 0.929 . S
C3558 C3554 1.531 . S
C3558 H3570 0.960 . S
C3558 H3571 0.962 . S
C3558 H3572 0.960 . S
C3559 C3556 1.511 . S
C3559 H3573 0.961 . S
C3559 H3574 0.961 . S
C3559 H3575 0.961 . S
C3560 C3561 1.370 . S
C3560 C3562 1.363 . S
C3560 H3576 0.931 . S
C3561 C3560 1.370 . S
C3561 C3565 1.408 . S
C3562 C3560 1.363 . S
C3562 C3563 1.370 . S
C3562 C3566 1.524 . S
C3563 C3555 1.503 . S
C3563 C3562 1.370 . S
C3563 C3564 1.403 . S
C3564 C3563 1.403 . S
C3564 C3565 1.404 . S
C3564 C3567 1.539 . S
C3565 C3561 1.408 . S
C3565 C3564 1.404 . S
C3565 H3577 0.930 . S
C3566 C3562 1.524 . S
C3566 H3578 0.956 . S
C3566 H3579 0.961 . S
C3566 H3580 0.961 . S
C3567 C3564 1.539 . S
C3567 H3581 0.958 . S
C3567 H3582 0.961 . S
C3567 H3583 0.960 . S
H3568 C3552 0.931 . S
H3569 C3557 0.929 . S
H3570 C3558 0.960 . S
H3571 C3558 0.962 . S
H3572 C3558 0.960 . S
H3573 C3559 0.961 . S
H3574 C3559 0.961 . S
H3575 C3559 0.961 . S
H3576 C3560 0.931 . S
H3577 C3565 0.930 . S
H3578 C3566 0.956 . S
H3579 C3566 0.961 . S
H3580 C3566 0.961 . S
H3581 C3567 0.958 . S
H3582 C3567 0.961 . S
H3583 C3567 0.960 . S
C3584 C3585 1.391 . S
C3584 C3586 1.394 . S
C3584 H3600 0.931 . S
C3585 C3584 1.391 . S
C3585 C3589 1.376 . S
C3586 C3584 1.394 . S
C3586 C3587 1.369 . S
C3586 C3590 1.531 . S
C3587 C3586 1.369 . S
C3587 C3588 1.410 . S
C3587 C3595 1.503 . S
C3588 C3587 1.410 . S
C3588 C3589 1.392 . S
C3588 C3591 1.511 . S
C3589 C3585 1.376 . S
C3589 C3588 1.392 . S
C3589 H3601 0.929 . S
C3590 C3586 1.531 . S
C3590 H3602 0.960 . S
C3590 H3603 0.962 . S
C3590 H3604 0.960 . S
C3591 C3588 1.511 . S
C3591 H3605 0.961 . S
C3591 H3606 0.961 . S
C3591 H3607 0.961 . S
C3592 C3593 1.370 . S
C3592 C3594 1.363 . S
C3592 H3608 0.931 . S
C3593 C3592 1.370 . S
C3593 C3597 1.408 . S
C3594 C3592 1.363 . S
C3594 C3595 1.370 . S
C3594 C3598 1.524 . S
C3595 C3587 1.503 . S
C3595 C3594 1.370 . S
C3595 C3596 1.403 . S
C3596 C3595 1.403 . S
C3596 C3597 1.404 . S
C3596 C3599 1.539 . S
C3597 C3593 1.408 . S
C3597 C3596 1.404 . S
C3597 H3609 0.930 . S
C3598 C3594 1.524 . S
C3598 H3610 0.956 . S
C3598 H3611 0.961 . S
C3598 H3612 0.961 . S
C3599 C3596 1.539 . S
C3599 H3613 0.958 . S
C3599 H3614 0.961 . S
C3599 H3615 0.960 . S
H3600 C3584 0.931 . S
H3601 C3589 0.929 . S
H3602 C3590 0.960 . S
H3603 C3590 0.962 . S
H3604 C3590 0.960 . S
H3605 C3591 0.961 . S
H3606 C3591 0.961 . S
H3607 C3591 0.961 . S
H3608 C3592 0.931 . S
H3609 C3597 0.930 . S
H3610 C3598 0.956 . S
H3611 C3598 0.961 . S
H3612 C3598 0.961 . S
H3613 C3599 0.958 . S
H3614 C3599 0.961 . S
H3615 C3599 0.960 . S
C3616 C3617 1.391 . S
C3616 C3618 1.394 . S
C3616 H3632 0.931 . S
C3617 C3616 1.391 . S
C3617 C3621 1.376 . S
C3618 C3616 1.394 . S
C3618 C3619 1.369 . S
C3618 C3622 1.531 . S
C3619 C3618 1.369 . S
C3619 C3620 1.410 . S
C3619 C3627 1.503 . S
C3620 C3619 1.410 . S
C3620 C3621 1.392 . S
C3620 C3623 1.511 . S
C3621 C3617 1.376 . S
C3621 C3620 1.392 . S
C3621 H3633 0.929 . S
C3622 C3618 1.531 . S
C3622 H3634 0.960 . S
C3622 H3635 0.962 . S
C3622 H3636 0.960 . S
C3623 C3620 1.511 . S
C3623 H3637 0.961 . S
C3623 H3638 0.961 . S
C3623 H3639 0.961 . S
C3624 C3625 1.370 . S
C3624 C3626 1.363 . S
C3624 H3640 0.931 . S
C3625 C3624 1.370 . S
C3625 C3629 1.408 . S
C3626 C3624 1.363 . S
C3626 C3627 1.370 . S
C3626 C3630 1.524 . S
C3627 C3619 1.503 . S
C3627 C3626 1.370 . S
C3627 C3628 1.403 . S
C3628 C3627 1.403 . S
C3628 C3629 1.404 . S
C3628 C3631 1.539 . S
C3629 C3625 1.408 . S
C3629 C3628 1.404 . S
C3629 H3641 0.930 . S
C3630 C3626 1.524 . S
C3630 H3642 0.956 . S
C3630 H3643 0.961 . S
C3630 H3644 0.961 . S
C3631 C3628 1.539 . S
C3631 H3645 0.958 . S
C3631 H3646 0.961 . S
C3631 H3647 0.960 . S
H3632 C3616 0.931 . S
H3633 C3621 0.929 . S
H3634 C3622 0.960 . S
H3635 C3622 0.962 . S
H3636 C3622 0.960 . S
H3637 C3623 0.961 . S
H3638 C3623 0.961 . S
H3639 C3623 0.961 . S
H3640 C3624 0.931 . S
H3641 C3629 0.930 . S
H3642 C3630 0.956 . S
H3643 C3630 0.961 . S
H3644 C3630 0.961 . S
H3645 C3631 0.958 . S
H3646 C3631 0.961 . S
H3647 C3631 0.960 . S
C3648 C3649 1.391 . S
C3648 C3650 1.394 . S
C3648 H3664 0.931 . S
C3649 C3648 1.391 . S
C3649 C3653 1.376 . S
C3650 C3648 1.394 . S
C3650 C3651 1.369 . S
C3650 C3654 1.531 . S
C3651 C3650 1.369 . S
C3651 C3652 1.410 . S
C3651 C3659 1.503 . S
C3652 C3651 1.410 . S
C3652 C3653 1.392 . S
C3652 C3655 1.511 . S
C3653 C3649 1.376 . S
C3653 C3652 1.392 . S
C3653 H3665 0.929 . S
C3654 C3650 1.531 . S
C3654 H3666 0.960 . S
C3654 H3667 0.962 . S
C3654 H3668 0.960 . S
C3655 C3652 1.511 . S
C3655 H3669 0.961 . S
C3655 H3670 0.961 . S
C3655 H3671 0.961 . S
C3656 C3657 1.370 . S
C3656 C3658 1.363 . S
C3656 H3672 0.931 . S
C3657 C3656 1.370 . S
C3657 C3661 1.408 . S
C3658 C3656 1.363 . S
C3658 C3659 1.370 . S
C3658 C3662 1.524 . S
C3659 C3651 1.503 . S
C3659 C3658 1.370 . S
C3659 C3660 1.403 . S
C3660 C3659 1.403 . S
C3660 C3661 1.404 . S
C3660 C3663 1.539 . S
C3661 C3657 1.408 . S
C3661 C3660 1.404 . S
C3661 H3673 0.930 . S
C3662 C3658 1.524 . S
C3662 H3674 0.956 . S
C3662 H3675 0.961 . S
C3662 H3676 0.961 . S
C3663 C3660 1.539 . S
C3663 H3677 0.958 . S
C3663 H3678 0.961 . S
C3663 H3679 0.960 . S
H3664 C3648 0.931 . S
H3665 C3653 0.929 . S
H3666 C3654 0.960 . S
H3667 C3654 0.962 . S
H3668 C3654 0.960 . S
H3669 C3655 0.961 . S
H3670 C3655 0.961 . S
H3671 C3655 0.961 . S
H3672 C3656 0.931 . S
H3673 C3661 0.930 . S
H3674 C3662 0.956 . S
H3675 C3662 0.961 . S
H3676 C3662 0.961 . S
H3677 C3663 0.958 . S
H3678 C3663 0.961 . S
H3679 C3663 0.960 . S
C3680 C3681 1.391 . S
C3680 C3682 1.394 . S
C3680 H3696 0.931 . S
C3681 C3680 1.391 . S
C3681 C3685 1.376 . S
C3682 C3680 1.394 . S
C3682 C3683 1.369 . S
C3682 C3686 1.531 . S
C3683 C3682 1.369 . S
C3683 C3684 1.410 . S
C3683 C3691 1.503 . S
C3684 C3683 1.410 . S
C3684 C3685 1.392 . S
C3684 C3687 1.511 . S
C3685 C3681 1.376 . S
C3685 C3684 1.392 . S
C3685 H3697 0.929 . S
C3686 C3682 1.531 . S
C3686 H3698 0.960 . S
C3686 H3699 0.962 . S
C3686 H3700 0.960 . S
C3687 C3684 1.511 . S
C3687 H3701 0.961 . S
C3687 H3702 0.961 . S
C3687 H3703 0.961 . S
C3688 C3689 1.370 . S
C3688 C3690 1.363 . S
C3688 H3704 0.931 . S
C3689 C3688 1.370 . S
C3689 C3693 1.408 . S
C3690 C3688 1.363 . S
C3690 C3691 1.370 . S
C3690 C3694 1.524 . S
C3691 C3683 1.503 . S
C3691 C3690 1.370 . S
C3691 C3692 1.403 . S
C3692 C3691 1.403 . S
C3692 C3693 1.404 . S
C3692 C3695 1.539 . S
C3693 C3689 1.408 . S
C3693 C3692 1.404 . S
C3693 H3705 0.930 . S
C3694 C3690 1.524 . S
C3694 H3706 0.956 . S
C3694 H3707 0.961 . S
C3694 H3708 0.961 . S
C3695 C3692 1.539 . S
C3695 H3709 0.958 . S
C3695 H3710 0.961 . S
C3695 H3711 0.960 . S
H3696 C3680 0.931 . S
H3697 C3685 0.929 . S
H3698 C3686 0.960 . S
H3699 C3686 0.962 . S
H3700 C3686 0.960 . S
H3701 C3687 0.961 . S
H3702 C3687 0.961 . S
H3703 C3687 0.961 . S
H3704 C3688 0.931 . S
H3705 C3693 0.930 . S
H3706 C3694 0.956 . S
H3707 C3694 0.961 . S
H3708 C3694 0.961 . S
H3709 C3695 0.958 . S
H3710 C3695 0.961 . S
H3711 C3695 0.960 . S
C3712 C3713 1.391 . S
C3712 C3714 1.394 . S
C3712 H3728 0.931 . S
C3713 C3712 1.391 . S
C3713 C3717 1.376 . S
C3714 C3712 1.394 . S
C3714 C3715 1.369 . S
C3714 C3718 1.531 . S
C3715 C3714 1.369 . S
C3715 C3716 1.410 . S
C3715 C3723 1.503 . S
C3716 C3715 1.410 . S
C3716 C3717 1.392 . S
C3716 C3719 1.511 . S
C3717 C3713 1.376 . S
C3717 C3716 1.392 . S
C3717 H3729 0.929 . S
C3718 C3714 1.531 . S
C3718 H3730 0.960 . S
C3718 H3731 0.962 . S
C3718 H3732 0.960 . S
C3719 C3716 1.511 . S
C3719 H3733 0.961 . S
C3719 H3734 0.961 . S
C3719 H3735 0.961 . S
C3720 C3721 1.370 . S
C3720 C3722 1.363 . S
C3720 H3736 0.931 . S
C3721 C3720 1.370 . S
C3721 C3725 1.408 . S
C3722 C3720 1.363 . S
C3722 C3723 1.370 . S
C3722 C3726 1.524 . S
C3723 C3715 1.503 . S
C3723 C3722 1.370 . S
C3723 C3724 1.403 . S
C3724 C3723 1.403 . S
C3724 C3725 1.404 . S
C3724 C3727 1.539 . S
C3725 C3721 1.408 . S
C3725 C3724 1.404 . S
C3725 H3737 0.930 . S
C3726 C3722 1.524 . S
C3726 H3738 0.956 . S
C3726 H3739 0.961 . S
C3726 H3740 0.961 . S
C3727 C3724 1.539 . S
C3727 H3741 0.958 . S
C3727 H3742 0.961 . S
C3727 H3743 0.960 . S
H3728 C3712 0.931 . S
H3729 C3717 0.929 . S
H3730 C3718 0.960 . S
H3731 C3718 0.962 . S
H3732 C3718 0.960 . S
H3733 C3719 0.961 . S
H3734 C3719 0.961 . S
H3735 C3719 0.961 . S
H3736 C3720 0.931 . S
H3737 C3725 0.930 . S
H3738 C3726 0.956 . S
H3739 C3726 0.961 . S
H3740 C3726 0.961 . S
H3741 C3727 0.958 . S
H3742 C3727 0.961 . S
H3743 C3727 0.960 . S
C3744 C3745 1.391 . S
C3744 C3746 1.394 . S
C3744 H3760 0.931 . S
C3745 C3744 1.391 . S
C3745 C3749 1.376 . S
C3746 C3744 1.394 . S
C3746 C3747 1.369 . S
C3746 C3750 1.531 . S
C3747 C3746 1.369 . S
C3747 C3748 1.410 . S
C3747 C3755 1.503 . S
C3748 C3747 1.410 . S
C3748 C3749 1.392 . S
C3748 C3751 1.511 . S
C3749 C3745 1.376 . S
C3749 C3748 1.392 . S
C3749 H3761 0.929 . S
C3750 C3746 1.531 . S
C3750 H3762 0.960 . S
C3750 H3763 0.962 . S
C3750 H3764 0.960 . S
C3751 C3748 1.511 . S
C3751 H3765 0.961 . S
C3751 H3766 0.961 . S
C3751 H3767 0.961 . S
C3752 C3753 1.370 . S
C3752 C3754 1.363 . S
C3752 H3768 0.931 . S
C3753 C3752 1.370 . S
C3753 C3757 1.408 . S
C3754 C3752 1.363 . S
C3754 C3755 1.370 . S
C3754 C3758 1.524 . S
C3755 C3747 1.503 . S
C3755 C3754 1.370 . S
C3755 C3756 1.403 . S
C3756 C3755 1.403 . S
C3756 C3757 1.404 . S
C3756 C3759 1.539 . S
C3757 C3753 1.408 . S
C3757 C3756 1.404 . S
C3757 H3769 0.930 . S
C3758 C3754 1.524 . S
C3758 H3770 0.956 . S
C3758 H3771 0.961 . S
C3758 H3772 0.961 . S
C3759 C3756 1.539 . S
C3759 H3773 0.958 . S
C3759 H3774 0.961 . S
C3759 H3775 0.960 . S
H3760 C3744 0.931 . S
H3761 C3749 0.929 . S
H3762 C3750 0.960 . S
H3763 C3750 0.962 . S
H3764 C3750 0.960 . S
H3765 C3751 0.961 . S
H3766 C3751 0.961 . S
H3767 C3751 0.961 . S
H3768 C3752 0.931 . S
H3769 C3757 0.930 . S
H3770 C3758 0.956 . S
H3771 C3758 0.961 . S
H3772 C3758 0.961 . S
H3773 C3759 0.958 . S
H3774 C3759 0.961 . S
H3775 C3759 0.960 . S
C3776 C3777 1.391 . S
C3776 C3778 1.394 . S
C3776 H3792 0.931 . S
C3777 C3776 1.391 . S
C3777 C3781 1.376 . S
C3778 C3776 1.394 . S
C3778 C3779 1.369 . S
C3778 C3782 1.531 . S
C3779 C3778 1.369 . S
C3779 C3780 1.410 . S
C3779 C3787 1.503 . S
C3780 C3779 1.410 . S
C3780 C3781 1.392 . S
C3780 C3783 1.511 . S
C3781 C3777 1.376 . S
C3781 C3780 1.392 . S
C3781 H3793 0.929 . S
C3782 C3778 1.531 . S
C3782 H3794 0.960 . S
C3782 H3795 0.962 . S
C3782 H3796 0.960 . S
C3783 C3780 1.511 . S
C3783 H3797 0.961 . S
C3783 H3798 0.961 . S
C3783 H3799 0.961 . S
C3784 C3785 1.370 . S
C3784 C3786 1.363 . S
C3784 H3800 0.931 . S
C3785 C3784 1.370 . S
C3785 C3789 1.408 . S
C3786 C3784 1.363 . S
C3786 C3787 1.370 . S
C3786 C3790 1.524 . S
C3787 C3779 1.503 . S
C3787 C3786 1.370 . S
C3787 C3788 1.403 . S
C3788 C3787 1.403 . S
C3788 C3789 1.404 . S
C3788 C3791 1.539 . S
C3789 C3785 1.408 . S
C3789 C3788 1.404 . S
C3789 H3801 0.930 . S
C3790 C3786 1.524 . S
C3790 H3802 0.956 . S
C3790 H3803 0.961 . S
C3790 H3804 0.961 . S
C3791 C3788 1.539 . S
C3791 H3805 0.958 . S
C3791 H3806 0.961 . S
C3791 H3807 0.960 . S
H3792 C3776 0.931 . S
H3793 C3781 0.929 . S
H3794 C3782 0.960 . S
H3795 C3782 0.962 . S
H3796 C3782 0.960 . S
H3797 C3783 0.961 . S
H3798 C3783 0.961 . S
H3799 C3783 0.961 . S
H3800 C3784 0.931 . S
H3801 C3789 0.930 . S
H3802 C3790 0.956 . S
H3803 C3790 0.961 . S
H3804 C3790 0.961 . S
H3805 C3791 0.958 . S
H3806 C3791 0.961 . S
H3807 C3791 0.960 . S
C3808 C3809 1.391 . S
C3808 C3810 1.394 . S
C3808 H3824 0.931 . S
C3809 C3808 1.391 . S
C3809 C3813 1.376 . S
C3810 C3808 1.394 . S
C3810 C3811 1.369 . S
C3810 C3814 1.531 . S
C3811 C3810 1.369 . S
C3811 C3812 1.410 . S
C3811 C3819 1.503 . S
C3812 C3811 1.410 . S
C3812 C3813 1.392 . S
C3812 C3815 1.511 . S
C3813 C3809 1.376 . S
C3813 C3812 1.392 . S
C3813 H3825 0.929 . S
C3814 C3810 1.531 . S
C3814 H3826 0.960 . S
C3814 H3827 0.962 . S
C3814 H3828 0.960 . S
C3815 C3812 1.511 . S
C3815 H3829 0.961 . S
C3815 H3830 0.961 . S
C3815 H3831 0.961 . S
C3816 C3817 1.370 . S
C3816 C3818 1.363 . S
C3816 H3832 0.931 . S
C3817 C3816 1.370 . S
C3817 C3821 1.408 . S
C3818 C3816 1.363 . S
C3818 C3819 1.370 . S
C3818 C3822 1.524 . S
C3819 C3811 1.503 . S
C3819 C3818 1.370 . S
C3819 C3820 1.403 . S
C3820 C3819 1.403 . S
C3820 C3821 1.404 . S
C3820 C3823 1.539 . S
C3821 C3817 1.408 . S
C3821 C3820 1.404 . S
C3821 H3833 0.930 . S
C3822 C3818 1.524 . S
C3822 H3834 0.956 . S
C3822 H3835 0.961 . S
C3822 H3836 0.961 . S
C3823 C3820 1.539 . S
C3823 H3837 0.958 . S
C3823 H3838 0.961 . S
C3823 H3839 0.960 . S
H3824 C3808 0.931 . S
H3825 C3813 0.929 . S
H3826 C3814 0.960 . S
H3827 C3814 0.962 . S
H3828 C3814 0.960 . S
H3829 C3815 0.961 . S
H3830 C3815 0.961 . S
H3831 C3815 0.961 . S
H3832 C3816 0.931 . S
H3833 C3821 0.930 . S
H3834 C3822 0.956 . S
H3835 C3822 0.961 . S
H3836 C3822 0.961 . S
H3837 C3823 0.958 . S
H3838 C3823 0.961 . S
H3839 C3823 0.960 . S
C3840 C3841 1.391 . S
C3840 C3842 1.394 . S
C3840 H3856 0.931 . S
C3841 C3840 1.391 . S
C3841 C3845 1.376 . S
C3842 C3840 1.394 . S
C3842 C3843 1.369 . S
C3842 C3846 1.506 1_545 S
C3843 C3842 1.369 . S
C3843 C3844 1.410 . S
C3843 C3851 1.503 1_545 S
C3844 C3843 1.410 . S
C3844 C3845 1.392 . S
C3844 C3847 1.511 . S
C3845 C3841 1.376 . S
C3845 C3844 1.392 . S
C3845 H3857 0.929 . S
C3846 C3842 1.506 1_565 S
C3846 H3858 0.998 . S
C3846 H3859 0.952 1_565 S
C3846 H3860 0.947 1_565 S
C3847 C3844 1.511 . S
C3847 H3861 0.961 . S
C3847 H3862 0.961 . S
C3847 H3863 0.961 . S
C3848 C3849 1.370 . S
C3848 C3850 1.363 . S
C3848 H3864 0.931 . S
C3849 C3848 1.370 . S
C3849 C3853 1.408 . S
C3850 C3848 1.363 . S
C3850 C3851 1.370 . S
C3850 C3854 1.524 1_565 S
C3851 C3843 1.503 1_565 S
C3851 C3850 1.370 . S
C3851 C3852 1.403 . S
C3852 C3851 1.403 . S
C3852 C3853 1.404 . S
C3852 C3855 1.539 . S
C3853 C3849 1.408 . S
C3853 C3852 1.404 . S
C3853 H3865 0.930 . S
C3854 C3850 1.524 1_545 S
C3854 H3866 0.956 . S
C3854 H3867 0.961 . S
C3854 H3868 0.961 . S
C3855 C3852 1.539 . S
C3855 H3869 0.958 . S
C3855 H3870 0.961 . S
C3855 H3871 0.960 . S
H3856 C3840 0.931 . S
H3857 C3845 0.929 . S
H3858 C3846 0.998 . S
H3859 C3846 0.952 1_545 S
H3860 C3846 0.947 1_545 S
H3861 C3847 0.961 . S
H3862 C3847 0.961 . S
H3863 C3847 0.961 . S
H3864 C3848 0.931 . S
H3865 C3853 0.930 . S
H3866 C3854 0.956 . S
H3867 C3854 0.961 . S
H3868 C3854 0.961 . S
H3869 C3855 0.958 . S
H3870 C3855 0.961 . S
H3871 C3855 0.960 . S
C3872 C3873 1.391 . S
C3872 C3874 1.394 . S
C3872 H3888 0.931 . S
C3873 C3872 1.391 . S
C3873 C3877 1.376 . S
C3874 C3872 1.394 . S
C3874 C3875 1.369 . S
C3874 C3878 1.531 . S
C3875 C3874 1.369 . S
C3875 C3876 1.410 . S
C3875 C3883 1.503 1_455 S
C3876 C3875 1.410 . S
C3876 C3877 1.392 . S
C3876 C3879 1.511 . S
C3877 C3873 1.376 . S
C3877 C3876 1.392 . S
C3877 H3889 0.929 . S
C3878 C3874 1.531 . S
C3878 H3890 0.960 1_455 S
C3878 H3891 0.962 . S
C3878 H3892 0.960 . S
C3879 C3876 1.511 . S
C3879 H3893 0.961 . S
C3879 H3894 1.022 . S
C3879 H3895 0.961 . S
C3880 C3881 1.370 . S
C3880 C3882 1.363 . S
C3880 H3896 0.931 . S
C3881 C3880 1.370 . S
C3881 C3885 1.408 . S
C3882 C3880 1.363 . S
C3882 C3883 1.370 . S
C3882 C3886 1.524 1_655 S
C3883 C3875 1.503 1_655 S
C3883 C3882 1.370 . S
C3883 C3884 1.403 . S
C3884 C3883 1.403 . S
C3884 C3885 1.404 . S
C3884 C3887 1.539 . S
C3885 C3881 1.408 . S
C3885 C3884 1.404 . S
C3885 H3897 0.930 . S
C3886 C3882 1.524 1_455 S
C3886 H3898 0.956 . S
C3886 H3899 0.961 . S
C3886 H3900 0.961 . S
C3887 C3884 1.539 . S
C3887 H3901 0.958 . S
C3887 H3902 0.961 . S
C3887 H3903 0.960 . S
H3888 C3872 0.931 . S
H3889 C3877 0.929 . S
H3890 C3878 0.960 1_655 S
H3891 C3878 0.962 . S
H3892 C3878 0.960 . S
H3893 C3879 0.961 . S
H3894 C3879 1.022 . S
H3895 C3879 0.961 . S
H3896 C3880 0.931 . S
H3897 C3885 0.930 . S
H3898 C3886 0.956 . S
H3899 C3886 0.961 . S
H3900 C3886 0.961 . S
H3901 C3887 0.958 . S
H3902 C3887 0.961 . S
H3903 C3887 0.960 . S
C3904 C3905 1.391 . S
C3904 C3906 1.394 . S
C3904 H3920 0.931 . S
C3905 C3904 1.391 . S
C3905 C3909 1.376 . S
C3906 C3904 1.394 . S
C3906 C3907 1.369 . S
C3906 C3910 1.480 1_545 S
C3907 C3906 1.369 . S
C3907 C3908 1.410 . S
C3907 C3915 1.503 1_545 S
C3908 C3907 1.410 . S
C3908 C3909 1.392 . S
C3908 C3911 1.511 . S
C3909 C3905 1.376 . S
C3909 C3908 1.392 . S
C3909 H3921 0.929 . S
C3910 C3906 1.480 1_565 S
C3910 H3922 1.036 . S
C3910 H3923 0.953 1_565 S
C3910 H3924 0.948 1_565 S
C3911 C3908 1.511 . S
C3911 H3925 0.961 . S
C3911 H3926 0.961 . S
C3911 H3927 0.961 . S
C3912 C3913 1.370 . S
C3912 C3914 1.363 . S
C3912 H3928 0.931 . S
C3913 C3912 1.370 . S
C3913 C3917 1.408 . S
C3914 C3912 1.363 . S
C3914 C3915 1.370 . S
C3914 C3918 1.524 1_565 S
C3915 C3907 1.503 1_565 S
C3915 C3914 1.370 . S
C3915 C3916 1.403 . S
C3916 C3915 1.403 . S
C3916 C3917 1.404 . S
C3916 C3919 1.539 . S
C3917 C3913 1.408 . S
C3917 C3916 1.404 . S
C3917 H3929 0.930 . S
C3918 C3914 1.524 1_545 S
C3918 H3930 0.956 . S
C3918 H3931 0.961 . S
C3918 H3932 0.961 . S
C3919 C3916 1.539 . S
C3919 H3933 0.958 . S
C3919 H3934 0.961 . S
C3919 H3935 0.960 . S
H3920 C3904 0.931 . S
H3921 C3909 0.929 . S
H3922 C3910 1.036 . S
H3923 C3910 0.953 1_545 S
H3924 C3910 0.948 1_545 S
H3925 C3911 0.961 . S
H3926 C3911 0.961 . S
H3927 C3911 0.961 . S
H3928 C3912 0.931 . S
H3929 C3917 0.930 . S
H3930 C3918 0.956 . S
H3931 C3918 0.961 . S
H3932 C3918 0.961 . S
H3933 C3919 0.958 . S
H3934 C3919 0.961 . S
H3935 C3919 0.960 . S
C3936 C3937 1.391 . S
C3936 C3938 1.394 . S
C3936 H3952 0.931 . S
C3937 C3936 1.391 . S
C3937 C3941 1.376 . S
C3938 C3936 1.394 . S
C3938 C3939 1.369 . S
C3938 C3942 1.531 1_455 S
C3939 C3938 1.369 . S
C3939 C3940 1.410 . S
C3939 C3947 1.503 1_455 S
C3940 C3939 1.410 . S
C3940 C3941 1.392 . S
C3940 C3943 1.511 . S
C3941 C3937 1.376 . S
C3941 C3940 1.392 . S
C3941 H3953 0.929 . S
C3942 C3938 1.531 1_655 S
C3942 H3954 0.960 . S
C3942 H3955 0.962 . S
C3942 H3956 0.960 . S
C3943 C3940 1.511 . S
C3943 H3957 0.961 . S
C3943 H3958 0.961 . S
C3943 H3959 0.961 . S
C3944 C3945 1.370 . S
C3944 C3946 1.363 . S
C3944 H3960 0.931 . S
C3945 C3944 1.370 . S
C3945 C3949 1.408 . S
C3946 C3944 1.363 . S
C3946 C3947 1.370 . S
C3946 C3950 1.524 . S
C3947 C3939 1.503 1_655 S
C3947 C3946 1.370 . S
C3947 C3948 1.403 . S
C3948 C3947 1.403 . S
C3948 C3949 1.404 . S
C3948 C3951 1.539 . S
C3949 C3945 1.408 . S
C3949 C3948 1.404 . S
C3949 H3961 0.930 . S
C3950 C3946 1.524 . S
C3950 H3962 0.956 . S
C3950 H3963 0.961 1_655 S
C3950 H3964 0.961 . S
C3951 C3948 1.539 . S
C3951 H3965 0.958 . S
C3951 H3966 0.961 . S
C3951 H3967 0.960 1_655 S
H3952 C3936 0.931 . S
H3953 C3941 0.929 . S
H3954 C3942 0.960 . S
H3955 C3942 0.962 . S
H3956 C3942 0.960 . S
H3957 C3943 0.961 . S
H3958 C3943 0.961 . S
H3959 C3943 0.961 . S
H3960 C3944 0.931 . S
H3961 C3949 0.930 . S
H3962 C3950 0.956 . S
H3963 C3950 0.961 1_455 S
H3964 C3950 0.961 . S
H3965 C3951 0.958 . S
H3966 C3951 0.961 . S
H3967 C3951 0.960 1_455 S
C3968 C3969 1.391 . S
C3968 C3970 1.394 . S
C3968 H3984 0.931 . S
C3969 C3968 1.391 . S
C3969 C3973 1.376 . S
C3970 C3968 1.394 . S
C3970 C3971 1.369 . S
C3970 C3974 1.531 . S
C3971 C3970 1.369 . S
C3971 C3972 1.410 . S
C3971 C3979 1.503 1_545 S
C3972 C3971 1.410 . S
C3972 C3973 1.392 . S
C3972 C3975 1.511 1_545 S
C3973 C3969 1.376 . S
C3973 C3972 1.392 . S
C3973 H3985 0.929 . S
C3974 C3970 1.531 . S
C3974 H3986 0.960 . S
C3974 H3987 0.962 . S
C3974 H3988 0.960 . S
C3975 C3972 1.511 1_565 S
C3975 H3989 0.961 . S
C3975 H3990 0.961 . S
C3975 H3991 0.961 . S
C3976 C3977 1.370 . S
C3976 C3978 1.363 . S
C3976 H3992 0.931 . S
C3977 C3976 1.370 . S
C3977 C3981 1.408 . S
C3978 C3976 1.363 . S
C3978 C3979 1.370 . S
C3978 C3982 1.524 . S
C3979 C3971 1.503 1_565 S
C3979 C3978 1.370 . S
C3979 C3980 1.403 . S
C3980 C3979 1.403 . S
C3980 C3981 1.404 . S
C3980 C3983 1.539 . S
C3981 C3977 1.408 . S
C3981 C3980 1.404 . S
C3981 H3993 0.930 . S
C3982 C3978 1.524 . S
C3982 H3994 0.956 1_565 S
C3982 H3995 0.961 . S
C3982 H3996 0.961 . S
C3983 C3980 1.539 . S
C3983 H3997 0.958 . S
C3983 H3998 0.961 . S
C3983 H3999 0.960 . S
H3984 C3968 0.931 . S
H3985 C3973 0.929 . S
H3986 C3974 0.960 . S
H3987 C3974 0.962 . S
H3988 C3974 0.960 . S
H3989 C3975 0.961 . S
H3990 C3975 0.961 . S
H3991 C3975 0.961 . S
H3992 C3976 0.931 . S
H3993 C3981 0.930 . S
H3994 C3982 0.956 1_545 S
H3995 C3982 0.961 . S
H3996 C3982 0.961 . S
H3997 C3983 0.958 . S
H3998 C3983 0.961 . S
H3999 C3983 0.960 . S
C4000 C4001 1.391 . S
C4000 C4002 1.394 . S
C4000 H4016 0.931 . S
C4001 C4000 1.391 . S
C4001 C4005 1.376 . S
C4002 C4000 1.394 . S
C4002 C4003 1.369 . S
C4002 C4006 1.531 . S
C4003 C4002 1.369 . S
C4003 C4004 1.410 . S
C4003 C4011 1.503 1_655 S
C4004 C4003 1.410 . S
C4004 C4005 1.392 . S
C4004 C4007 1.511 . S
C4005 C4001 1.376 . S
C4005 C4004 1.392 . S
C4005 H4017 0.929 . S
C4006 C4002 1.531 . S
C4006 H4018 0.960 1_655 S
C4006 H4019 0.962 1_655 S
C4006 H4020 0.960 . S
C4007 C4004 1.511 . S
C4007 H4021 0.961 . S
C4007 H4022 0.961 . S
C4007 H4023 0.961 . S
C4008 C4009 1.370 . S
C4008 C4010 1.363 . S
C4008 H4024 0.931 . S
C4009 C4008 1.370 . S
C4009 C4013 1.408 . S
C4010 C4008 1.363 . S
C4010 C4011 1.370 . S
C4010 C4014 1.524 . S
C4011 C4003 1.503 1_455 S
C4011 C4010 1.370 . S
C4011 C4012 1.403 . S
C4012 C4011 1.403 . S
C4012 C4013 1.404 . S
C4012 C4015 1.539 1_455 S
C4013 C4009 1.408 . S
C4013 C4012 1.404 . S
C4013 H4025 0.930 . S
C4014 C4010 1.524 . S
C4014 H4026 0.956 . S
C4014 H4027 0.961 . S
C4014 H4028 0.961 . S
C4015 C4012 1.539 1_655 S
C4015 H4029 0.958 . S
C4015 H4030 0.961 . S
C4015 H4031 0.960 . S
H4016 C4000 0.931 . S
H4017 C4005 0.929 . S
H4018 C4006 0.960 1_455 S
H4019 C4006 0.962 1_455 S
H4020 C4006 0.960 . S
H4021 C4007 0.961 . S
H4022 C4007 0.961 . S
H4023 C4007 0.961 . S
H4024 C4008 0.931 . S
H4025 C4013 0.930 . S
H4026 C4014 0.956 . S
H4027 C4014 0.961 . S
H4028 C4014 0.961 . S
H4029 C4015 0.958 . S
H4030 C4015 0.961 . S
H4031 C4015 0.960 . S
C4032 C4033 1.391 . S
C4032 C4034 1.394 . S
C4032 H4048 0.931 . S
C4033 C4032 1.391 . S
C4033 C4037 1.376 . S
C4034 C4032 1.394 . S
C4034 C4035 1.369 . S
C4034 C4038 1.531 1_545 S
C4035 C4034 1.369 . S
C4035 C4036 1.410 . S
C4035 C4043 1.503 1_545 S
C4036 C4035 1.410 . S
C4036 C4037 1.392 . S
C4036 C4039 1.511 . S
C4037 C4033 1.376 . S
C4037 C4036 1.392 . S
C4037 H4049 0.929 . S
C4038 C4034 1.531 1_565 S
C4038 H4050 0.960 . S
C4038 H4051 0.962 . S
C4038 H4052 0.960 . S
C4039 C4036 1.511 . S
C4039 H4053 0.961 . S
C4039 H4054 0.961 . S
C4039 H4055 0.961 . S
C4040 C4041 1.370 . S
C4040 C4042 1.363 . S
C4040 H4056 0.931 . S
C4041 C4040 1.370 . S
C4041 C4045 1.408 . S
C4042 C4040 1.363 . S
C4042 C4043 1.370 . S
C4042 C4046 1.524 . S
C4043 C4035 1.503 1_565 S
C4043 C4042 1.370 . S
C4043 C4044 1.403 . S
C4044 C4043 1.403 . S
C4044 C4045 1.404 . S
C4044 C4047 1.539 . S
C4045 C4041 1.408 . S
C4045 C4044 1.404 . S
C4045 H4057 0.930 . S
C4046 C4042 1.524 . S
C4046 H4058 0.956 . S
C4046 H4059 0.961 1_565 S
C4046 H4060 0.961 . S
C4047 C4044 1.539 . S
C4047 H4061 0.958 . S
C4047 H4062 0.961 . S
C4047 H4063 1.049 . S
H4048 C4032 0.931 . S
H4049 C4037 0.929 . S
H4050 C4038 0.960 . S
H4051 C4038 0.962 . S
H4052 C4038 0.960 . S
H4053 C4039 0.961 . S
H4054 C4039 0.961 . S
H4055 C4039 0.961 . S
H4056 C4040 0.931 . S
H4057 C4045 0.930 . S
H4058 C4046 0.956 . S
H4059 C4046 0.961 1_545 S
H4060 C4046 0.961 . S
H4061 C4047 0.958 . S
H4062 C4047 0.961 . S
H4063 C4047 1.049 . S
C4064 C4065 1.391 . S
C4064 C4066 1.394 . S
C4064 H4080 0.931 . S
C4065 C4064 1.391 . S
C4065 C4069 1.376 . S
C4066 C4064 1.394 . S
C4066 C4067 1.369 . S
C4066 C4070 1.531 . S
C4067 C4066 1.369 . S
C4067 C4068 1.410 . S
C4067 C4075 1.503 1_655 S
C4068 C4067 1.410 . S
C4068 C4069 1.392 . S
C4068 C4071 1.511 . S
C4069 C4065 1.376 . S
C4069 C4068 1.392 . S
C4069 H4081 0.929 . S
C4070 C4066 1.531 . S
C4070 H4082 0.960 1_655 S
C4070 H4083 0.962 1_655 S
C4070 H4084 0.960 . S
C4071 C4068 1.511 . S
C4071 H4085 0.961 . S
C4071 H4086 0.961 . S
C4071 H4087 0.961 . S
C4072 C4073 1.370 . S
C4072 C4074 1.363 . S
C4072 H4088 0.931 . S
C4073 C4072 1.370 . S
C4073 C4077 1.408 . S
C4074 C4072 1.363 . S
C4074 C4075 1.370 . S
C4074 C4078 1.524 . S
C4075 C4067 1.503 1_455 S
C4075 C4074 1.370 . S
C4075 C4076 1.403 . S
C4076 C4075 1.403 . S
C4076 C4077 1.404 . S
C4076 C4079 1.539 1_455 S
C4077 C4073 1.408 . S
C4077 C4076 1.404 . S
C4077 H4089 0.930 . S
C4078 C4074 1.524 . S
C4078 H4090 0.956 . S
C4078 H4091 0.961 . S
C4078 H4092 0.961 . S
C4079 C4076 1.539 1_655 S
C4079 H4093 0.958 . S
C4079 H4094 0.961 . S
C4079 H4095 0.960 . S
H4080 C4064 0.931 . S
H4081 C4069 0.929 . S
H4082 C4070 0.960 1_455 S
H4083 C4070 0.962 1_455 S
H4084 C4070 0.960 . S
H4085 C4071 0.961 . S
H4086 C4071 0.961 . S
H4087 C4071 0.961 . S
H4088 C4072 0.931 . S
H4089 C4077 0.930 . S
H4090 C4078 0.956 . S
H4091 C4078 0.961 . S
H4092 C4078 0.961 . S
H4093 C4079 0.958 . S
H4094 C4079 0.961 . S
H4095 C4079 0.960 . S
C4096 C4097 1.391 . S
C4096 C4098 1.394 . S
C4096 H4112 0.931 . S
C4097 C4096 1.391 . S
C4097 C4101 1.376 . S
C4098 C4096 1.394 . S
C4098 C4099 1.369 . S
C4098 C4102 1.531 . S
C4099 C4098 1.369 . S
C4099 C4100 1.410 . S
C4099 C4107 1.503 1_556 S
C4100 C4099 1.410 . S
C4100 C4101 1.392 . S
C4100 C4103 1.511 . S
C4101 C4097 1.376 . S
C4101 C4100 1.392 . S
C4101 H4113 0.929 . S
C4102 C4098 1.531 . S
C4102 H4114 0.960 . S
C4102 H4115 0.962 . S
C4102 H4116 0.960 . S
C4103 C4100 1.511 . S
C4103 H4117 0.961 . S
C4103 H4118 0.961 1_556 S
C4103 H4119 0.961 . S
C4104 C4105 1.370 . S
C4104 C4106 1.363 . S
C4104 H4120 0.931 . S
C4105 C4104 1.370 . S
C4105 C4109 1.408 . S
C4106 C4104 1.363 . S
C4106 C4107 1.370 . S
C4106 C4110 1.524 . S
C4107 C4099 1.503 1_554 S
C4107 C4106 1.370 . S
C4107 C4108 1.403 . S
C4108 C4107 1.403 . S
C4108 C4109 1.404 . S
C4108 C4111 1.539 1_554 S
C4109 C4105 1.408 . S
C4109 C4108 1.404 . S
C4109 H4121 0.930 . S
C4110 C4106 1.524 . S
C4110 H4122 0.956 . S
C4110 H4123 0.961 . S
C4110 H4124 0.961 . S
C4111 C4108 1.539 1_556 S
C4111 H4125 0.958 . S
C4111 H4126 0.961 . S
C4111 H4127 0.960 . S
H4112 C4096 0.931 . S
H4113 C4101 0.929 . S
H4114 C4102 0.960 . S
H4115 C4102 0.962 . S
H4116 C4102 0.960 . S
H4117 C4103 0.961 . S
H4118 C4103 0.961 1_554 S
H4119 C4103 0.961 . S
H4120 C4104 0.931 . S
H4121 C4109 0.930 . S
H4122 C4110 0.956 . S
H4123 C4110 0.961 . S
H4124 C4110 0.961 . S
H4125 C4111 0.958 . S
H4126 C4111 0.961 . S
H4127 C4111 0.960 . S
C4128 C4129 1.391 . S
C4128 C4130 1.394 . S
C4128 H4144 0.931 . S
C4129 C4128 1.391 . S
C4129 C4133 1.376 . S
C4130 C4128 1.394 . S
C4130 C4131 1.369 . S
C4130 C4134 1.561 . S
C4131 C4130 1.369 . S
C4131 C4132 1.410 . S
C4131 C4139 1.503 1_554 S
C4132 C4131 1.410 . S
C4132 C4133 1.392 . S
C4132 C4135 1.511 . S
C4133 C4129 1.376 . S
C4133 C4132 1.392 . S
C4133 H4145 0.929 . S
C4134 C4130 1.561 . S
C4134 H4146 0.912 1_554 S
C4134 H4147 0.972 . S
C4134 H4148 0.972 . S
C4135 C4132 1.511 . S
C4135 H4149 0.961 . S
C4135 H4150 0.961 . S
C4135 H4151 0.961 . S
C4136 C4137 1.370 . S
C4136 C4138 1.363 . S
C4136 H4152 0.931 . S
C4137 C4136 1.370 . S
C4137 C4141 1.408 . S
C4138 C4136 1.363 . S
C4138 C4139 1.370 . S
C4138 C4142 1.524 1_556 S
C4139 C4131 1.503 1_556 S
C4139 C4138 1.370 . S
C4139 C4140 1.403 . S
C4140 C4139 1.403 . S
C4140 C4141 1.404 . S
C4140 C4143 1.539 . S
C4141 C4137 1.408 . S
C4141 C4140 1.404 . S
C4141 H4153 0.930 . S
C4142 C4138 1.524 1_554 S
C4142 H4154 0.956 . S
C4142 H4155 0.961 . S
C4142 H4156 0.961 . S
C4143 C4140 1.539 . S
C4143 H4157 0.958 . S
C4143 H4158 0.961 . S
C4143 H4159 0.960 . S
H4144 C4128 0.931 . S
H4145 C4133 0.929 . S
H4146 C4134 0.912 1_556 S
H4147 C4134 0.972 . S
H4148 C4134 0.972 . S
H4149 C4135 0.961 . S
H4150 C4135 0.961 . S
H4151 C4135 0.961 . S
H4152 C4136 0.931 . S
H4153 C4141 0.930 . S
H4154 C4142 0.956 . S
H4155 C4142 0.961 . S
H4156 C4142 0.961 . S
H4157 C4143 0.958 . S
H4158 C4143 0.961 . S
H4159 C4143 0.960 . S
C4160 C4161 1.391 . S
C4160 C4162 1.394 . S
C4160 H4176 0.931 . S
C4161 C4160 1.391 . S
C4161 C4165 1.376 . S
C4162 C4160 1.394 . S
C4162 C4163 1.369 . S
C4162 C4166 1.531 . S
C4163 C4162 1.369 . S
C4163 C4164 1.410 . S
C4163 C4171 1.503 1_556 S
C4164 C4163 1.410 . S
C4164 C4165 1.392 . S
C4164 C4167 1.511 . S
C4165 C4161 1.376 . S
C4165 C4164 1.392 . S
C4165 H4177 0.929 . S
C4166 C4162 1.531 . S
C4166 H4178 0.960 . S
C4166 H4179 0.962 . S
C4166 H4180 0.960 . S
C4167 C4164 1.511 . S
C4167 H4181 0.961 . S
C4167 H4182 0.961 1_556 S
C4167 H4183 0.961 . S
C4168 C4169 1.370 . S
C4168 C4170 1.363 . S
C4168 H4184 0.931 . S
C4169 C4168 1.370 . S
C4169 C4173 1.408 . S
C4170 C4168 1.363 . S
C4170 C4171 1.370 . S
C4170 C4174 1.524 . S
C4171 C4163 1.503 1_554 S
C4171 C4170 1.370 . S
C4171 C4172 1.403 . S
C4172 C4171 1.403 . S
C4172 C4173 1.404 . S
C4172 C4175 1.539 1_554 S
C4173 C4169 1.408 . S
C4173 C4172 1.404 . S
C4173 H4185 0.930 . S
C4174 C4170 1.524 . S
C4174 H4186 0.956 . S
C4174 H4187 0.961 . S
C4174 H4188 0.961 . S
C4175 C4172 1.539 1_556 S
C4175 H4189 0.958 . S
C4175 H4190 0.961 . S
C4175 H4191 0.960 . S
H4176 C4160 0.931 . S
H4177 C4165 0.929 . S
H4178 C4166 0.960 . S
H4179 C4166 0.962 . S
H4180 C4166 0.960 . S
H4181 C4167 0.961 . S
H4182 C4167 0.961 1_554 S
H4183 C4167 0.961 . S
H4184 C4168 0.931 . S
H4185 C4173 0.930 . S
H4186 C4174 0.956 . S
H4187 C4174 0.961 . S
H4188 C4174 0.961 . S
H4189 C4175 0.958 . S
H4190 C4175 0.961 . S
H4191 C4175 0.960 . S
C4192 C4193 1.391 . S
C4192 C4194 1.394 . S
C4192 H4208 0.931 . S
C4193 C4192 1.391 . S
C4193 C4197 1.376 . S
C4194 C4192 1.394 . S
C4194 C4195 1.369 . S
C4194 C4198 1.531 . S
C4195 C4194 1.369 . S
C4195 C4196 1.410 . S
C4195 C4203 1.503 1_554 S
C4196 C4195 1.410 . S
C4196 C4197 1.392 . S
C4196 C4199 1.511 1_554 S
C4197 C4193 1.376 . S
C4197 C4196 1.392 . S
C4197 H4209 0.929 . S
C4198 C4194 1.531 . S
C4198 H4210 0.960 . S
C4198 H4211 0.962 . S
C4198 H4212 0.960 . S
C4199 C4196 1.511 1_556 S
C4199 H4213 1.010 . S
C4199 H4214 0.961 . S
C4199 H4215 0.961 . S
C4200 C4201 1.370 . S
C4200 C4202 1.363 . S
C4200 H4216 0.931 . S
C4201 C4200 1.370 . S
C4201 C4205 1.408 . S
C4202 C4200 1.363 . S
C4202 C4203 1.370 . S
C4202 C4206 1.524 1_556 S
C4203 C4195 1.503 1_556 S
C4203 C4202 1.370 . S
C4203 C4204 1.403 . S
C4204 C4203 1.403 . S
C4204 C4205 1.404 . S
C4204 C4207 1.539 . S
C4205 C4201 1.408 . S
C4205 C4204 1.404 . S
C4205 H4217 0.930 . S
C4206 C4202 1.524 1_554 S
C4206 H4218 0.956 . S
C4206 H4219 0.961 . S
C4206 H4220 0.961 1_554 S
C4207 C4204 1.539 . S
C4207 H4221 0.958 . S
C4207 H4222 0.961 . S
C4207 H4223 0.960 . S
H4208 C4192 0.931 . S
H4209 C4197 0.929 . S
H4210 C4198 0.960 . S
H4211 C4198 0.962 . S
H4212 C4198 0.960 . S
H4213 C4199 1.010 . S
H4214 C4199 0.961 . S
H4215 C4199 0.961 . S
H4216 C4200 0.931 . S
H4217 C4205 0.930 . S
H4218 C4206 0.956 . S
H4219 C4206 0.961 . S
H4220 C4206 0.961 1_556 S
H4221 C4207 0.958 . S
H4222 C4207 0.961 . S
H4223 C4207 0.960 . S
C1921 C101 1.646 . S
C1929 C21 1.684 . S
C1953 C61 1.661 . S
C1961 C141 1.698 . S
C1985 C261 1.688 . S
C1993 C181 1.691 . S
C2017 C221 1.716 . S
C2025 C301 1.674 . S
C2049 C501 1.692 . S
C2057 C341 1.667 . S
C2081 C541 1.705 . S
C2089 C381 1.683 . S
C2113 C421 1.653 . S
C2121 C581 1.699 . S
C2145 C461 1.694 . S
C2153 C621 1.689 . S
C2177 C781 1.668 . S
C2185 C661 1.673 . S
C2209 C701 1.654 . S
C2217 C861 1.679 . S
C2241 C901 1.665 . S
C2249 C741 1.697 . S
C2273 C941 1.678 . S
C2281 C821 1.670 . S
C2305 C981 1.717 . S
C2313 C1061 1.672 . S
C2337 C1021 1.648 . S
C2345 C1101 1.682 . S
C2369 C1221 1.705 . S
C2377 C1141 1.683 . S
C2401 C1261 1.640 . S
C2409 C1181 1.697 . S
C2433 C1301 1.667 . S
C2441 C1461 1.697 . S
C2465 C1341 1.699 . S
C2473 C1501 1.666 . S
C2497 C1381 1.653 . S
C2505 C1541 1.699 . S
C2529 C1581 1.710 . S
C2537 C1421 1.680 . S
C2561 C1741 1.639 . S
C2569 C1621 1.690 . S
C2593 C1821 1.718 . S
C2601 C1661 1.672 . S
C2625 C1861 1.658 . S
C2633 C1701 1.698 . S
C2657 C1901 1.681 . S
C2665 C1781 1.693 . S
C2689 C2 1.867 . S
C2697 C1242 1.844 . S
C2721 C1122 1.814 . S
C2729 C42 1.834 . S
C2753 C82 1.812 . S
C2761 C1162 1.835 . S
C2785 C122 1.829 . S
C2793 C1202 1.853 . S
C2817 C1002 1.855 . S
C2825 C162 1.835 . S
C2849 C1042 1.811 . S
C2857 C202 1.845 . S
C2881 C242 1.864 . S
C2889 C1082 1.850 . S
C2913 C282 1.811 . S
C2921 C962 1.845 . S
C2945 C1762 1.845 . S
C2953 C322 1.832 . S
C2977 C362 1.814 . S
C2985 C1642 1.833 . S
C3009 C1682 1.826 . S
C3017 C402 1.852 . S
C3041 C442 1.864 . S
C3049 C1722 1.850 . S
C3073 C482 1.810 . S
C3081 C1882 1.843 . S
C3105 C522 1.858 . S
C3113 C1802 1.853 . S
C3137 C562 1.810 . S
C3145 C1842 1.837 . S
C3169 C602 1.815 . S
C3177 C1602 1.833 . S
C3201 C642 1.867 . S
C3209 C1562 1.845 . S
C3233 C682 1.852 . S
C3241 C1322 1.833 . S
C3265 C722 1.834 . S
C3273 C1362 1.830 . S
C3297 C1402 1.810 . S
C3305 C762 1.843 . S
C3329 C802 1.851 . S
C3337 C1282 1.854 . S
C3361 C1482 1.862 . S
C3369 C842 1.851 . S
C3393 C1522 1.838 . S
C3401 C882 1.854 . S
C3425 C1442 1.832 . S
C3433 C922 1.830 . S
C3457 C895 2.562 . S
C3465 C15 2.577 . S
C3489 C655 2.561 . S
C3497 C55 2.577 . S
C3521 C95 2.577 . S
C3529 C935 2.571 . S
C3553 C135 2.595 . S
C3561 C855 2.563 . S
C3585 C175 2.579 . S
C3593 C735 2.570 . S
C3617 C775 2.593 . S
C3625 C215 2.564 . S
C3649 C815 2.585 . S
C3657 C255 2.567 . S
C3681 C295 2.581 . S
C3689 C695 2.569 . S
C3713 C335 2.596 . S
C3721 C535 2.563 . S
C3745 C375 2.582 . S
C3753 C575 2.569 . S
C3777 C415 2.579 . S
C3785 C615 2.570 . S
C3809 C495 2.596 . S
C3817 C455 2.563 . S
C3841 C1855 2.545 . S
C3849 C975 2.584 . S
C3873 C1015 2.542 . S
C3881 C1615 2.585 . S
C3905 C1055 2.546 . S
C3913 C1895 2.584 . S
C3937 C1815 2.571 . S
C3945 C1095 2.574 . S
C3969 C1135 2.566 . S
C3977 C1695 2.575 . S
C4001 C1175 2.595 . S
C4009 C1735 2.563 . S
C4033 C1775 2.565 . S
C4041 C1215 2.576 . S
C4065 C1655 2.594 . S
C4073 C1255 2.564 . S
C4097 C1295 2.596 . S
C4105 C1495 2.563 . S
C4129 C1535 2.544 . S
C4137 C1335 2.585 . S
C4161 C1375 2.596 . S
C4169 C1575 2.563 . S
C4193 C1455 2.551 . S
C4201 C1415 2.582 . S
