# Generated by pormake.
# Topology thp-x, (12)-cn, num edge types: 1
# Building blocks:
#     Node 0, Type 0, BuildingBlock: ZALLEG_clean_sbu_0, # of connection points: 12
#     Node 1, Type 0, BuildingBlock: ZALLEG_clean_sbu_0, # of connection points: 12
#     Node 2, Type 0, BuildingBlock: ZALLEG_clean_sbu_0, # of connection points: 12
#     Node 3, Type 0, BuildingBlock: ZALLEG_clean_sbu_0, # of connection points: 12
#     Node 4, Type 0, BuildingBlock: ZALLEG_clean_sbu_0, # of connection points: 12
#     Node 5, Type 0, BuildingBlock: ZALLEG_clean_sbu_0, # of connection points: 12
#     Node 6, Type 0, BuildingBlock: ZALLEG_clean_sbu_0, # of connection points: 12
#     Node 7, Type 0, BuildingBlock: ZALLEG_clean_sbu_0, # of connection points: 12
#     Node 8, Type 0, BuildingBlock: ZALLEG_clean_sbu_0, # of connection points: 12
#     Node 9, Type 0, BuildingBlock: ZALLEG_clean_sbu_0, # of connection points: 12
#     Node 10, Type 0, BuildingBlock: ZALLEG_clean_sbu_0, # of connection points: 12
#     Node 11, Type 0, BuildingBlock: ZALLEG_clean_sbu_0, # of connection points: 12
#     Edge 12, Type (0, 0), None
#     Edge 13, Type (0, 0), None
#     Edge 14, Type (0, 0), None
#     Edge 15, Type (0, 0), None
#     Edge 16, Type (0, 0), None
#     Edge 17, Type (0, 0), None
#     Edge 18, Type (0, 0), None
#     Edge 19, Type (0, 0), None
#     Edge 20, Type (0, 0), None
#     Edge 21, Type (0, 0), None
#     Edge 22, Type (0, 0), None
#     Edge 23, Type (0, 0), None
#     Edge 24, Type (0, 0), None
#     Edge 25, Type (0, 0), None
#     Edge 26, Type (0, 0), None
#     Edge 27, Type (0, 0), None
#     Edge 28, Type (0, 0), None
#     Edge 29, Type (0, 0), None
#     Edge 30, Type (0, 0), None
#     Edge 31, Type (0, 0), None
#     Edge 32, Type (0, 0), None
#     Edge 33, Type (0, 0), None
#     Edge 34, Type (0, 0), None
#     Edge 35, Type (0, 0), None
#     Edge 36, Type (0, 0), None
#     Edge 37, Type (0, 0), None
#     Edge 38, Type (0, 0), None
#     Edge 39, Type (0, 0), None
#     Edge 40, Type (0, 0), None
#     Edge 41, Type (0, 0), None
#     Edge 42, Type (0, 0), None
#     Edge 43, Type (0, 0), None
#     Edge 44, Type (0, 0), None
#     Edge 45, Type (0, 0), None
#     Edge 46, Type (0, 0), None
#     Edge 47, Type (0, 0), None
#     Edge 48, Type (0, 0), None
#     Edge 49, Type (0, 0), None
#     Edge 50, Type (0, 0), None
#     Edge 51, Type (0, 0), None
#     Edge 52, Type (0, 0), None
#     Edge 53, Type (0, 0), None
#     Edge 54, Type (0, 0), None
#     Edge 55, Type (0, 0), None
#     Edge 56, Type (0, 0), None
#     Edge 57, Type (0, 0), None
#     Edge 58, Type (0, 0), None
#     Edge 59, Type (0, 0), None
#     Edge 60, Type (0, 0), None
#     Edge 61, Type (0, 0), None
#     Edge 62, Type (0, 0), None
#     Edge 63, Type (0, 0), None
#     Edge 64, Type (0, 0), None
#     Edge 65, Type (0, 0), None
#     Edge 66, Type (0, 0), None
#     Edge 67, Type (0, 0), None
#     Edge 68, Type (0, 0), None
#     Edge 69, Type (0, 0), None
#     Edge 70, Type (0, 0), None
#     Edge 71, Type (0, 0), None
#     Edge 72, Type (0, 0), None
#     Edge 73, Type (0, 0), None
#     Edge 74, Type (0, 0), None
#     Edge 75, Type (0, 0), None
#     Edge 76, Type (0, 0), None
#     Edge 77, Type (0, 0), None
#     Edge 78, Type (0, 0), None
#     Edge 79, Type (0, 0), None
#     Edge 80, Type (0, 0), None
#     Edge 81, Type (0, 0), None
#     Edge 82, Type (0, 0), None
#     Edge 83, Type (0, 0), None
# Relax obj value: 0.246
# Max RMSD: 0.289
# Mean RMSD: 0.289
data_MOF--net-thp-x--node1-ZALLEG_clean_sbu_0--edge1-none
_symmetry_space_group_name_H-M    P1
_symmetry_Int_Tables_number       1
_symmetry_cell_setting            triclinic
loop_
_symmetry_equiv_pos_as_xyz
'x, y, z'
_cell_length_a     19.53682
_cell_length_b     19.536834
_cell_length_c     19.536752
_cell_angle_alpha  89.999293
_cell_angle_beta   89.999279
_cell_angle_gamma 89.999094
loop_
_atom_site_label
_atom_site_type_symbol
_atom_site_fract_x
_atom_site_fract_y
_atom_site_fract_z
_atom_type_partial_charge
H0 H 0.14228 0.20804 0.49436 0.0
O1 O 0.10762 0.23549 0.47141 0.0
Tb2 Tb 0.03352 0.28351 0.53328 0.0
Tb3 Tb 0.15206 0.30589 0.40178 0.0
Tb4 Tb 0.0559 0.16498 0.41528 0.0
O5 O 0.08443 0.35236 0.47312 0.0
O6 O 0.98261 0.21467 0.47312 0.0
O7 O 0.95943 0.33154 0.47141 0.0
O8 O 0.08155 0.35761 0.34565 0.0
O9 O 0.9855 0.20942 0.34565 0.0
O10 O 0.10238 0.23261 0.34394 0.0
H11 H 0.10819 0.3794 0.50722 0.0
H12 H 0.95886 0.18763 0.50721 0.0
Tb13 Tb 1.01114 0.40205 0.41528 0.0
Tb14 Tb 0.91499 0.26114 0.40178 0.0
H15 H 0.92476 0.35899 0.49436 0.0
H16 H 0.109 0.39227 0.3227 0.0
Tb17 Tb 0.03353 0.28352 0.28378 0.0
H18 H 0.95805 0.17476 0.32269 0.0
H19 H 0.12941 0.20886 0.30985 0.0
O20 O 0.96468 0.33443 0.34394 0.0
H21 H 0.93764 0.35818 0.30985 0.0
O22 O 0.17282 0.29601 0.55304 0.0
O23 O 0.95084 0.28318 0.21783 0.0
O24 O 0.11624 0.28386 0.21784 0.0
O25 O 0.89422 0.27102 0.55304 0.0
O26 O 0.22359 0.22505 0.41804 0.0
O27 O 0.84345 0.34196 0.41802 0.0
O28 O 0.87773 0.15694 0.4163 0.0
O29 O 0.18932 0.41009 0.41632 0.0
O30 O 0.06109 0.11878 0.51751 0.0
O31 O 1.00126 0.4937 0.36275 0.0
O32 O 1.00597 0.44825 0.51751 0.0
O33 O 0.06579 0.07334 0.36275 0.0
O34 O 0.2437 0.31577 0.45431 0.0
O35 O 0.86879 0.25595 0.29955 0.0
O36 O 0.82335 0.25127 0.45432 0.0
O37 O 0.19828 0.31111 0.29956 0.0
O38 O 1.03319 0.36619 0.59924 0.0
O39 O 0.04603 0.14422 0.26401 0.0
O40 O 1.02102 0.42282 0.26402 0.0
O41 O 0.03385 0.20082 0.59923 0.0
O42 O 0.09198 0.47358 0.399 0.0
O43 O 0.97508 0.09345 0.399 0.0
O44 O 0.16009 0.12771 0.40077 0.0
O45 O 0.90695 0.43931 0.40077 0.0
C46 C 0.24207 0.3057 0.51975 0.0
C47 C 0.90026 0.24601 0.24003 0.0
C48 C 0.16681 0.32104 0.24004 0.0
C49 C 0.82497 0.26133 0.51975 0.0
C50 C 0.21473 0.16637 0.3893 0.0
C51 C 0.85231 0.40065 0.3893 0.0
C52 C 0.9164 0.10231 0.42776 0.0
C53 C 0.15065 0.46472 0.42776 0.0
C54 C 0.07103 0.15025 0.57703 0.0
C55 C 1.01132 0.49207 0.29731 0.0
C56 C 0.99602 0.41677 0.57703 0.0
C57 C 0.05573 0.07497 0.29731 0.0
H58 H 0.64229 0.70805 0.99436 0.0
O59 O 0.60762 0.73549 0.9714 0.0
Tb60 Tb 0.53352 0.78352 1.03328 0.0
Tb61 Tb 0.65206 0.8059 0.90178 0.0
Tb62 Tb 0.55591 0.66498 0.91527 0.0
O63 O 0.58443 0.85237 0.97311 0.0
O64 O 0.48262 0.71467 0.97311 0.0
O65 O 0.45943 0.83155 0.9714 0.0
O66 O 0.58155 0.85761 0.84565 0.0
O67 O 0.4855 0.70943 0.84564 0.0
O68 O 0.60238 0.73261 0.84394 0.0
H69 H 0.60818 0.8794 1.00721 0.0
H70 H 0.45887 0.68763 1.0072 0.0
Tb71 Tb 0.51114 0.90206 0.91527 0.0
Tb72 Tb 0.41499 0.76114 0.90177 0.0
H73 H 0.42476 0.85899 0.99436 0.0
H74 H 0.609 0.89228 0.8227 0.0
Tb75 Tb 0.53353 0.78352 0.78377 0.0
H76 H 0.45805 0.67476 0.82269 0.0
H77 H 0.62941 0.70885 0.80984 0.0
O78 O 0.46468 0.83443 0.84393 0.0
H79 H 0.43765 0.85819 0.80984 0.0
O80 O 0.67282 0.79603 0.05303 0.0
O81 O 0.45085 0.78318 0.71782 0.0
O82 O 0.61623 0.78386 0.71783 0.0
O83 O 0.39422 0.77101 0.05303 0.0
O84 O 0.72359 0.72506 0.91804 0.0
O85 O 0.34346 0.84197 0.91803 0.0
O86 O 0.37773 0.65695 0.91629 0.0
O87 O 0.68931 0.91009 0.91633 0.0
O88 O 0.56112 0.61877 1.0175 0.0
O89 O 0.50126 0.9937 0.86274 0.0
O90 O 0.50595 0.94826 1.0175 0.0
O91 O 0.56579 0.57334 0.86273 0.0
O92 O 0.7437 0.81577 0.9543 0.0
O93 O 0.36879 0.75599 0.79955 0.0
O94 O 0.32335 0.75126 0.9543 0.0
O95 O 0.69828 0.81108 0.79956 0.0
O96 O 0.53319 0.8662 0.09922 0.0
O97 O 0.54602 0.64423 0.76401 0.0
O98 O 0.52103 0.92282 0.76401 0.0
O99 O 0.53385 0.70082 0.09922 0.0
O100 O 0.59197 0.97358 0.89901 0.0
O101 O 0.47508 0.59345 0.899 0.0
O102 O 0.6601 0.62771 0.90077 0.0
O103 O 0.40695 0.93932 0.90076 0.0
C104 C 0.74207 0.80572 1.01974 0.0
C105 C 0.40026 0.74602 0.74003 0.0
C106 C 0.66681 0.82103 0.74003 0.0
C107 C 0.32497 0.76132 1.01974 0.0
C108 C 0.71474 0.66638 0.8893 0.0
C109 C 0.35231 0.90066 0.88929 0.0
C110 C 0.41641 0.60231 0.92776 0.0
C111 C 0.65064 0.96473 0.92778 0.0
C112 C 0.57104 0.65025 0.07702 0.0
C113 C 0.51133 0.99207 0.7973 0.0
C114 C 0.49601 0.91678 0.07702 0.0
C115 C 0.55572 0.57498 0.7973 0.0
H116 H 0.93764 0.70886 0.25721 0.0
O117 O 0.96467 0.73261 0.22311 0.0
Tb118 Tb 0.03352 0.78352 0.28328 0.0
Tb119 Tb 1.01115 0.66499 0.15177 0.0
Tb120 Tb 0.91498 0.8059 0.16528 0.0
O121 O 0.08155 0.70943 0.2214 0.0
O122 O 0.98549 0.85762 0.2214 0.0
O123 O 0.10237 0.83444 0.22311 0.0
O124 O 0.08443 0.71468 0.09394 0.0
O125 O 0.98261 0.85237 0.09394 0.0
O126 O 0.95943 0.73549 0.09564 0.0
H127 H 0.109 0.67476 0.24436 0.0
H128 H 0.95804 0.89229 0.24436 0.0
Tb129 Tb 0.15206 0.76115 0.16528 0.0
Tb130 Tb 0.05589 0.90206 0.15178 0.0
H131 H 0.1294 0.85818 0.25721 0.0
H132 H 0.10819 0.68764 0.05985 0.0
Tb133 Tb 0.03352 0.78353 0.03377 0.0
H134 H 0.95886 0.87941 0.05985 0.0
H135 H 0.92476 0.70804 0.07268 0.0
O136 O 0.10761 0.83156 0.09565 0.0
H137 H 0.14228 0.859 0.07269 0.0
O138 O 1.02101 0.64422 0.30303 0.0
O139 O 0.03385 0.86623 0.96784 0.0
O140 O 1.0332 0.70084 0.96782 0.0
O141 O 0.04603 0.92282 0.30303 0.0
O142 O 0.90696 0.62772 0.16631 0.0
O143 O 0.16008 0.93932 0.16633 0.0
O144 O 0.97505 0.97358 0.16803 0.0
O145 O 0.09198 0.59346 0.16803 0.0
O146 O 0.86878 0.81111 0.26751 0.0
O147 O 0.2437 0.75127 0.11275 0.0
O148 O 0.19826 0.75596 0.26751 0.0
O149 O 0.82334 0.81578 0.11275 0.0
O150 O 1.00128 0.57334 0.2043 0.0
O151 O 0.0611 0.94828 0.04955 0.0
O152 O 0.06576 0.9937 0.2043 0.0
O153 O 1.00596 0.61879 0.04954 0.0
O154 O 0.1162 0.7832 0.34923 0.0
O155 O 0.89422 0.79603 1.01402 0.0
O156 O 0.17282 0.77102 1.01402 0.0
O157 O 0.95082 0.78384 0.34922 0.0
O158 O 0.18933 0.65696 0.15076 0.0
O159 O 0.87771 0.91009 0.15075 0.0
O160 O 0.84346 0.72506 0.149 0.0
O161 O 0.22358 0.84199 0.149 0.0
C162 C 1.01133 0.57497 0.26974 0.0
C163 C 0.07103 0.9168 0.99002 0.0
C164 C 0.99603 0.65026 0.99002 0.0
C165 C 0.05571 0.99207 0.26973 0.0
C166 C 0.85232 0.66639 0.17777 0.0
C167 C 0.21473 0.90065 0.17777 0.0
C168 C 0.91637 0.96473 0.13929 0.0
C169 C 0.15067 0.60231 0.13929 0.0
C170 C 0.90026 0.82104 0.32703 0.0
C171 C 0.24207 0.76132 0.04731 0.0
C172 C 0.16677 0.74602 0.32703 0.0
C173 C 0.82497 0.80572 0.04731 0.0
H174 H 0.49437 0.92477 0.359 0.0
O175 O 0.47141 0.95945 0.33156 0.0
Tb176 Tb 0.41529 1.01117 0.40207 0.0
Tb177 Tb 0.53328 0.03352 0.2835 0.0
Tb178 Tb 0.40179 0.915 0.26118 0.0
O179 O 0.47313 0.08444 0.35236 0.0
O180 O 0.34396 0.96469 0.33446 0.0
O181 O 0.34564 0.08158 0.35762 0.0
O182 O 0.47141 0.10761 0.23547 0.0
O183 O 0.34563 0.98547 0.20943 0.0
O184 O 0.47312 0.98259 0.21465 0.0
H185 H 0.50723 0.10819 0.37939 0.0
H186 H 0.30986 0.93765 0.3582 0.0
Tb187 Tb 0.40179 0.15205 0.30588 0.0
Tb188 Tb 0.2838 0.03352 0.28353 0.0
H189 H 0.32266 0.10904 0.39225 0.0
H190 H 0.49435 0.14228 0.20802 0.0
Tb191 Tb 0.41527 0.05588 0.16498 0.0
H192 H 0.32266 0.958 0.17478 0.0
H193 H 0.50719 0.95884 0.18758 0.0
O194 O 0.34395 0.10236 0.23261 0.0
H195 H 0.30984 0.12939 0.20886 0.0
O196 O 0.51753 1.00598 0.44825 0.0
O197 O 0.36274 0.06576 0.07334 0.0
O198 O 0.51749 0.0611 0.11876 0.0
O199 O 0.36277 1.00128 0.49372 0.0
O200 O 0.55304 0.89423 0.271 0.0
O201 O 0.21785 0.1162 0.28387 0.0
O202 O 0.21784 0.95086 0.2832 0.0
O203 O 0.55304 0.17282 0.29599 0.0
O204 O 0.41805 0.84347 0.34201 0.0
O205 O 0.41803 0.22357 0.22503 0.0
O206 O 0.41637 0.18934 0.41005 0.0
O207 O 0.41638 0.87771 0.15702 0.0
O208 O 0.59924 1.0332 0.36618 0.0
O209 O 0.26402 0.04601 0.14424 0.0
O210 O 0.26404 1.02103 0.42284 0.0
O211 O 0.59921 0.03382 0.20079 0.0
O212 O 0.39898 0.09203 0.47355 0.0
O213 O 0.39902 0.97508 0.09343 0.0
O214 O 0.40071 0.16007 0.12771 0.0
O215 O 0.40076 0.90698 0.43935 0.0
O216 O 0.4543 0.2437 0.31573 0.0
O217 O 0.2996 0.86876 0.25592 0.0
O218 O 0.4543 0.82334 0.25132 0.0
O219 O 0.2996 0.19829 0.31114 0.0
C220 C 0.57704 0.99603 0.41676 0.0
C221 C 0.2973 0.0557 0.07498 0.0
C222 C 0.57702 0.07102 0.15023 0.0
C223 C 0.29733 1.01133 0.49209 0.0
C224 C 0.51974 0.82497 0.26134 0.0
C225 C 0.24 0.16691 0.32089 0.0
C226 C 0.24 0.90014 0.24618 0.0
C227 C 0.51974 0.24207 0.30568 0.0
C228 C 0.38931 0.85233 0.40069 0.0
C229 C 0.38927 0.21472 0.16637 0.0
C230 C 0.42778 0.15068 0.4647 0.0
C231 C 0.4276 0.91631 0.10229 0.0
H232 H 0.35904 0.49439 0.9248 0.0
O233 O 0.33158 0.4714 0.95944 0.0
Tb234 Tb 0.28351 0.53325 0.03351 0.0
Tb235 Tb 0.26118 0.40177 0.91498 0.0
Tb236 Tb 0.40205 0.41525 1.01119 0.0
O237 O 0.21468 0.4731 0.98259 0.0
O238 O 0.35235 0.47311 0.08444 0.0
O239 O 0.23545 0.47142 0.10761 0.0
O240 O 0.20945 0.34564 0.98548 0.0
O241 O 0.3576 0.34563 0.08161 0.0
O242 O 0.33444 0.34392 0.96469 0.0
H243 H 0.18764 0.50719 0.95884 0.0
H244 H 0.37938 0.50722 0.10818 0.0
Tb245 Tb 0.16499 0.41526 0.05587 0.0
Tb246 Tb 0.30585 0.40179 0.15206 0.0
H247 H 0.20799 0.49439 0.14227 0.0
H248 H 0.17479 0.32267 0.95804 0.0
Tb249 Tb 0.28352 0.28378 0.03355 0.0
H250 H 0.39224 0.32265 0.10908 0.0
H251 H 0.3582 0.30982 0.93767 0.0
O252 O 0.23258 0.34394 0.10239 0.0
H253 H 0.20883 0.30987 0.12947 0.0
O254 O 0.27102 0.553 0.89421 0.0
O255 O 0.28382 0.21784 0.11624 0.0
O256 O 0.2832 0.21782 0.95087 0.0
O257 O 0.296 0.55303 0.17281 0.0
O258 O 0.34205 0.41806 0.8435 0.0
O259 O 0.22504 0.41802 0.22361 0.0
O260 O 0.41003 0.4164 0.18935 0.0
O261 O 0.15699 0.41632 0.8777 0.0
O262 O 0.44827 0.51745 1.00593 0.0
O263 O 0.07334 0.36275 0.06573 0.0
O264 O 0.11874 0.51745 0.06114 0.0
O265 O 0.49371 0.36276 1.00132 0.0
O266 O 0.25131 0.45427 0.82332 0.0
O267 O 0.31113 0.2996 0.19831 0.0
O268 O 0.31572 0.4543 0.2437 0.0
O269 O 0.25599 0.29953 0.86879 0.0
O270 O 0.20083 0.5992 0.03383 0.0
O271 O 0.42283 0.26403 1.02107 0.0
O272 O 0.14423 0.26402 0.04604 0.0
O273 O 0.36617 0.59921 1.03319 0.0
O274 O 0.09348 0.39898 0.97502 0.0
O275 O 0.47354 0.39898 0.09205 0.0
O276 O 0.43936 0.4007 0.90701 0.0
O277 O 0.12768 0.40067 0.16001 0.0
C278 C 0.26135 0.51971 0.82495 0.0
C279 C 0.32086 0.23999 0.16694 0.0
C280 C 0.24604 0.24001 0.90027 0.0
C281 C 0.30568 0.51974 0.24207 0.0
C282 C 0.40071 0.38928 0.85235 0.0
C283 C 0.16627 0.38945 0.21475 0.0
C284 C 0.46468 0.42779 0.15069 0.0
C285 C 0.10234 0.42775 0.91636 0.0
C286 C 0.41688 0.57706 0.99617 0.0
C287 C 0.07497 0.29731 0.05571 0.0
C288 C 0.15014 0.57706 0.07088 0.0
C289 C 0.49208 0.29732 1.01137 0.0
H290 H 0.7572 0.43765 0.20886 0.0
O291 O 0.7231 0.46468 0.23261 0.0
Tb292 Tb 0.78325 0.53352 0.28354 0.0
Tb293 Tb 0.65179 0.51118 0.165 0.0
Tb294 Tb 0.66525 0.41499 0.30587 0.0
O295 O 0.72142 0.58158 0.20944 0.0
O296 O 0.7214 0.48545 0.35761 0.0
O297 O 0.72311 0.60235 0.33446 0.0
O298 O 0.59394 0.58446 0.21466 0.0
O299 O 0.59392 0.4826 0.35236 0.0
O300 O 0.59562 0.45944 0.23545 0.0
H301 H 0.74439 0.60904 0.17478 0.0
H302 H 0.74439 0.45799 0.39225 0.0
Tb303 Tb 0.66527 0.65205 0.26119 0.0
Tb304 Tb 0.65177 0.55586 0.40208 0.0
H305 H 0.75721 0.62939 0.35821 0.0
H306 H 0.55988 0.60822 0.18759 0.0
Tb307 Tb 0.53378 0.53353 0.28351 0.0
H308 H 0.55982 0.45885 0.37939 0.0
H309 H 0.57263 0.4248 0.20798 0.0
O310 O 0.59565 0.60759 0.33157 0.0
H311 H 0.57269 0.64226 0.35901 0.0
O312 O 0.80303 0.52103 0.14424 0.0
O313 O 0.46783 0.53386 0.36621 0.0
O314 O 0.46783 0.53324 0.20084 0.0
O315 O 0.803 0.546 0.42284 0.0
O316 O 0.66637 0.40701 0.1277 0.0
O317 O 0.66635 0.66005 0.43935 0.0
O318 O 0.66806 0.47498 0.47355 0.0
O319 O 0.66801 0.59198 0.09344 0.0
O320 O 0.76744 0.36875 0.31114 0.0
O321 O 0.61277 0.74371 0.25133 0.0
O322 O 0.76747 0.69828 0.25593 0.0
O323 O 0.61275 0.32334 0.31573 0.0
O324 O 0.70431 0.50132 0.07335 0.0
O325 O 0.54955 0.56108 0.44828 0.0
O326 O 0.70427 0.56572 0.49373 0.0
O327 O 0.54959 0.50592 0.11876 0.0
O328 O 0.84922 0.61618 0.28321 0.0
O329 O 0.51402 0.39422 0.296 0.0
O330 O 0.51403 0.67282 0.27101 0.0
O331 O 0.8492 0.45084 0.28385 0.0
O332 O 0.65069 0.68935 0.15704 0.0
O333 O 0.65069 0.37768 0.41004 0.0
O334 O 0.64896 0.3435 0.22501 0.0
O335 O 0.64899 0.72356 0.34203 0.0
C336 C 0.76974 0.51136 0.07498 0.0
C337 C 0.49002 0.57102 0.4168 0.0
C338 C 0.48997 0.4962 0.15014 0.0
C339 C 0.76971 0.55568 0.4921 0.0
C340 C 0.67777 0.35235 0.16636 0.0
C341 C 0.67777 0.7147 0.40069 0.0
C342 C 0.63927 0.41633 0.46469 0.0
C343 C 0.63946 0.65076 0.1023 0.0
C344 C 0.82705 0.40013 0.32088 0.0
C345 C 0.54732 0.74208 0.26134 0.0
C346 C 0.82706 0.66688 0.24618 0.0
C347 C 0.54731 0.32497 0.30568 0.0
H348 H 0.70885 0.25723 0.93766 0.0
O349 O 0.73261 0.22313 0.96469 0.0
Tb350 Tb 0.78353 0.28327 0.03354 0.0
Tb351 Tb 0.66501 0.1518 1.01119 0.0
Tb352 Tb 0.80587 0.16528 0.91497 0.0
O353 O 0.70944 0.22143 0.0816 0.0
O354 O 0.8576 0.2214 0.98548 0.0
O355 O 0.83447 0.22311 0.10238 0.0
O356 O 0.71467 0.09394 0.08446 0.0
O357 O 0.85236 0.09395 0.98259 0.0
O358 O 0.73546 0.09564 0.95944 0.0
H359 H 0.67477 0.24438 0.10906 0.0
H360 H 0.89227 0.24437 0.95804 0.0
Tb361 Tb 0.76119 0.16526 0.15205 0.0
Tb362 Tb 0.90206 0.15178 0.05586 0.0
H363 H 0.85821 0.25718 0.12946 0.0
H364 H 0.6876 0.05987 0.10821 0.0
Tb365 Tb 0.78352 0.0338 0.03352 0.0
H366 H 0.8794 0.05985 0.95884 0.0
H367 H 0.70799 0.07265 0.92481 0.0
O368 O 0.83159 0.09563 0.1076 0.0
H369 H 0.85905 0.07266 0.14226 0.0
O370 O 0.64423 0.30304 1.02106 0.0
O371 O 0.8662 0.96785 0.03385 0.0
O372 O 0.70086 0.96784 1.03319 0.0
O373 O 0.92283 0.30302 0.04604 0.0
O374 O 0.6277 0.16637 0.90701 0.0
O375 O 0.93935 0.1664 0.16001 0.0
O376 O 0.97357 0.16805 0.97501 0.0
O377 O 0.59344 0.16799 0.09198 0.0
O378 O 0.81109 0.26752 0.86878 0.0
O379 O 0.75134 0.11276 0.2437 0.0
O380 O 0.75589 0.26746 0.19829 0.0
O381 O 0.81574 0.11277 0.82333 0.0
O382 O 0.57336 0.20431 1.00133 0.0
O383 O 0.9483 0.0496 0.06113 0.0
O384 O 0.99372 0.20428 0.0657 0.0
O385 O 0.61876 0.04961 1.00593 0.0
O386 O 0.78324 0.34921 0.11621 0.0
O387 O 0.796 1.01404 0.89422 0.0
O388 O 0.77103 1.01403 0.17282 0.0
O389 O 0.78385 0.34923 0.95085 0.0
O390 O 0.65704 0.15065 0.18934 0.0
O391 O 0.91006 0.15073 0.87768 0.0
O392 O 0.72501 0.14898 0.8435 0.0
O393 O 0.84199 0.14902 0.2236 0.0
C394 C 0.57498 0.26975 1.01138 0.0
C395 C 0.91691 0.98999 0.07088 0.0
C396 C 0.65014 0.99 0.99618 0.0
C397 C 0.99208 0.26973 0.0557 0.0
C398 C 0.66636 0.17778 0.85236 0.0
C399 C 0.90075 0.1776 0.21474 0.0
C400 C 0.96471 0.13929 0.91633 0.0
C401 C 0.6023 0.13943 0.15076 0.0
C402 C 0.82103 0.32704 0.90027 0.0
C403 C 0.76135 0.04732 0.24207 0.0
C404 C 0.74618 0.32707 0.1669 0.0
C405 C 0.80569 0.04733 0.82496 0.0
H406 H 0.20884 0.75719 0.43759 0.0
O407 O 0.23259 0.72311 0.46466 0.0
Tb408 Tb 0.28353 0.78327 0.53352 0.0
Tb409 Tb 0.16499 0.65178 0.51118 0.0
Tb410 Tb 0.30586 0.66526 0.415 0.0
O411 O 0.20944 0.72141 0.58157 0.0
O412 O 0.35761 0.72142 0.48546 0.0
O413 O 0.33445 0.72312 0.60238 0.0
O414 O 0.2147 0.59394 0.58444 0.0
O415 O 0.35239 0.59393 0.48258 0.0
O416 O 0.23546 0.59562 0.45943 0.0
H417 H 0.17476 0.74436 0.60901 0.0
H418 H 0.39228 0.74438 0.45801 0.0
Tb419 Tb 0.26116 0.66528 0.65206 0.0
Tb420 Tb 0.40205 0.65178 0.55587 0.0
H421 H 0.35821 0.75719 0.62945 0.0
H422 H 0.18766 0.55985 0.60819 0.0
Tb423 Tb 0.28353 0.53378 0.53351 0.0
H424 H 0.37946 0.55986 0.45883 0.0
H425 H 0.208 0.57265 0.42477 0.0
O426 O 0.33156 0.59565 0.6076 0.0
H427 H 0.35901 0.57272 0.64229 0.0
O428 O 0.14423 0.80303 0.52102 0.0
O429 O 0.36624 0.46785 0.53383 0.0
O430 O 0.20086 0.46783 0.53318 0.0
O431 O 0.42282 0.80302 0.54601 0.0
O432 O 0.1277 0.66639 0.40703 0.0
O433 O 0.43932 0.66638 0.66003 0.0
O434 O 0.47361 0.66799 0.47506 0.0
O435 O 0.09347 0.66802 0.59201 0.0
O436 O 0.31116 0.76746 0.36876 0.0
O437 O 0.25129 0.61273 0.74369 0.0
O438 O 0.25597 0.76751 0.69825 0.0
O439 O 0.31571 0.61276 0.32334 0.0
O440 O 0.07334 0.7043 0.50134 0.0
O441 O 0.44827 0.54957 0.56111 0.0
O442 O 0.4937 0.70429 0.56572 0.0
O443 O 0.11876 0.54959 0.50593 0.0
O444 O 0.28321 0.84922 0.6162 0.0
O445 O 0.29602 0.51402 0.39422 0.0
O446 O 0.27104 0.514 0.67281 0.0
O447 O 0.28384 0.84921 0.45084 0.0
O448 O 0.15698 0.65074 0.68934 0.0
O449 O 0.41001 0.65067 0.3777 0.0
O450 O 0.22507 0.64903 0.34344 0.0
O451 O 0.34195 0.64905 0.72363 0.0
C452 C 0.07498 0.76974 0.51136 0.0
C453 C 0.4168 0.49003 0.57103 0.0
C454 C 0.15015 0.48999 0.49617 0.0
C455 C 0.49207 0.76973 0.55569 0.0
C456 C 0.1663 0.67761 0.3523 0.0
C457 C 0.40072 0.67761 0.71476 0.0
C458 C 0.46475 0.63944 0.41628 0.0
C459 C 0.10233 0.63928 0.65069 0.0
C460 C 0.32089 0.82706 0.40015 0.0
C461 C 0.26135 0.54729 0.74206 0.0
C462 C 0.24603 0.82703 0.66677 0.0
C463 C 0.30569 0.54732 0.32497 0.0
H464 H 0.99438 0.42478 0.85903 0.0
O465 O 0.97141 0.45944 0.83158 0.0
Tb466 Tb 0.91526 0.5112 0.90204 0.0
Tb467 Tb 1.03325 0.53352 0.78351 0.0
Tb468 Tb 0.90177 0.41499 0.76118 0.0
O469 O 0.97312 0.58447 0.85237 0.0
O470 O 0.84393 0.46467 0.83447 0.0
O471 O 0.84563 0.5816 0.8576 0.0
O472 O 0.97142 0.60761 0.73544 0.0
O473 O 0.84564 0.48548 0.70944 0.0
O474 O 0.9731 0.48259 0.71466 0.0
H475 H 1.00719 0.60821 0.87945 0.0
H476 H 0.80986 0.4376 0.85822 0.0
Tb477 Tb 0.90179 0.65206 0.80584 0.0
Tb478 Tb 0.78378 0.53352 0.78354 0.0
H479 H 0.82266 0.60905 0.89226 0.0
H480 H 0.99441 0.64225 0.70798 0.0
Tb481 Tb 0.91526 0.55587 0.66499 0.0
H482 H 0.8227 0.45803 0.67476 0.0
H483 H 1.00717 0.45883 0.68759 0.0
O484 O 0.84393 0.60235 0.7326 0.0
H485 H 0.80984 0.62939 0.70885 0.0
O486 O 1.01747 0.5059 0.94826 0.0
O487 O 0.86272 0.56572 0.57335 0.0
O488 O 1.01746 0.56113 0.61875 0.0
O489 O 0.86277 0.50134 0.99371 0.0
O490 O 0.05302 0.39423 0.77102 0.0
O491 O 0.71784 0.61621 0.78386 0.0
O492 O 0.71783 0.45084 0.78322 0.0
O493 O 0.05301 0.67282 0.79601 0.0
O494 O 0.91799 0.34344 0.84198 0.0
O495 O 0.91806 0.72354 0.72498 0.0
O496 O 0.91643 0.68935 0.90999 0.0
O497 O 0.91636 0.37771 0.65702 0.0
O498 O 0.09922 0.5332 0.86616 0.0
O499 O 0.76399 0.546 0.64425 0.0
O500 O 0.76403 0.52103 0.92283 0.0
O501 O 0.09921 0.53382 0.70084 0.0
O502 O 0.89903 0.592 0.97359 0.0
O503 O 0.89905 0.47508 0.59341 0.0
O504 O 0.9007 0.66003 0.62768 0.0
O505 O 0.90069 0.40705 0.93935 0.0
O506 O 0.95428 0.74372 0.81569 0.0
O507 O 0.79955 0.36879 0.75597 0.0
O508 O 0.95429 0.32334 0.75133 0.0
O509 O 0.79961 0.6983 0.81113 0.0
C510 C 0.07707 0.49616 0.91686 0.0
C511 C 0.79728 0.55568 0.57499 0.0
C512 C 0.07707 0.57086 0.65014 0.0
C513 C 0.79732 0.51136 0.99208 0.0
C514 C 1.01973 0.32497 0.76136 0.0
C515 C 0.74 0.66692 0.82089 0.0
C516 C 0.74002 0.40026 0.74604 0.0
C517 C 1.01972 0.74208 0.80568 0.0
C518 C 0.88944 0.3523 0.90077 0.0
C519 C 0.88927 0.71469 0.66632 0.0
C520 C 0.92762 0.65076 0.96473 0.0
C521 C 0.9276 0.41631 0.60229 0.0
H522 H 0.85904 0.99439 0.42478 0.0
O523 O 0.83159 0.97142 0.45945 0.0
Tb524 Tb 0.78351 1.03327 0.53352 0.0
Tb525 Tb 0.76119 0.90179 0.41501 0.0
Tb526 Tb 0.90205 0.91526 0.5112 0.0
O527 O 0.71466 0.97312 0.48259 0.0
O528 O 0.85235 0.97312 0.58445 0.0
O529 O 0.73547 0.9714 0.60761 0.0
O530 O 0.70944 0.84563 0.48547 0.0
O531 O 0.85761 0.84563 0.5816 0.0
O532 O 0.83446 0.84394 0.46468 0.0
H533 H 0.68759 1.00719 0.45884 0.0
H534 H 0.87938 1.00722 0.6082 0.0
Tb535 Tb 0.66499 0.91527 0.55587 0.0
Tb536 Tb 0.80586 0.90178 0.65206 0.0
H537 H 0.70802 0.99434 0.6423 0.0
H538 H 0.67478 0.82266 0.45801 0.0
Tb539 Tb 0.78352 0.7838 0.53354 0.0
H540 H 0.89224 0.82264 0.60907 0.0
H541 H 0.85821 0.80987 0.4376 0.0
O542 O 0.73258 0.84394 0.60239 0.0
H543 H 0.70883 0.80987 0.62946 0.0
O544 O 0.77102 0.05303 0.39422 0.0
O545 O 0.78382 0.71785 0.61621 0.0
O546 O 0.7832 0.71784 0.45088 0.0
O547 O 0.796 0.05305 0.67281 0.0
O548 O 0.84199 0.918 0.34345 0.0
O549 O 0.72507 0.91798 0.72363 0.0
O550 O 0.91003 0.91639 0.68936 0.0
O551 O 0.65704 0.91639 0.37771 0.0
O552 O 0.94828 1.01746 0.50593 0.0
O553 O 0.57334 0.86276 0.56573 0.0
O554 O 0.61878 1.0175 0.56112 0.0
O555 O 0.99371 0.86277 0.50134 0.0
O556 O 0.75135 0.95429 0.32335 0.0
O557 O 0.81115 0.79959 0.6983 0.0
O558 O 0.8157 0.95431 0.7437 0.0
O559 O 0.75592 0.79959 0.36878 0.0
O560 O 0.70081 0.09921 0.53382 0.0
O561 O 0.92282 0.76404 0.52103 0.0
O562 O 0.64423 0.76403 0.54602 0.0
O563 O 0.86618 0.09922 0.5332 0.0
O564 O 0.59344 0.89904 0.47507 0.0
O565 O 0.97354 0.89897 0.59206 0.0
O566 O 0.93935 0.90067 0.40705 0.0
O567 O 0.6277 0.90069 0.66003 0.0
C568 C 0.76136 1.01973 0.32497 0.0
C569 C 0.82087 0.73998 0.66691 0.0
C570 C 0.74618 0.73998 0.40017 0.0
C571 C 0.80567 1.01975 0.74207 0.0
C572 C 0.90077 0.88945 0.35231 0.0
C573 C 0.66629 0.88944 0.71477 0.0
C574 C 0.96469 0.92778 0.6507 0.0
C575 C 0.60231 0.92761 0.4163 0.0
C576 C 0.91689 0.07706 0.49617 0.0
C577 C 0.57497 0.79732 0.5557 0.0
C578 C 0.65025 0.07703 0.57103 0.0
C579 C 0.99208 0.79733 0.51136 0.0
H580 H 0.25718 0.93759 0.70884 0.0
O581 O 0.22311 0.96466 0.73259 0.0
Tb582 Tb 0.28327 0.03351 0.78353 0.0
Tb583 Tb 0.15178 1.01118 0.665 0.0
Tb584 Tb 0.16526 0.91499 0.80585 0.0
O585 O 0.22141 0.08157 0.70945 0.0
O586 O 0.22142 0.98544 0.85761 0.0
O587 O 0.22313 0.10237 0.83446 0.0
O588 O 0.09395 0.08447 0.71467 0.0
O589 O 0.09393 0.98258 0.85238 0.0
O590 O 0.09562 0.95943 0.73545 0.0
H591 H 0.24435 0.109 0.67476 0.0
H592 H 0.24438 0.95799 0.89227 0.0
Tb593 Tb 0.16528 0.15205 0.76119 0.0
Tb594 Tb 0.15179 0.05584 0.90204 0.0
H595 H 0.2572 0.12944 0.85821 0.0
H596 H 0.05988 0.10822 0.6876 0.0
Tb597 Tb 0.03379 0.03353 0.78352 0.0
H598 H 0.05986 0.95883 0.87945 0.0
H599 H 0.07265 0.92477 0.70799 0.0
O600 O 0.09564 0.10761 0.83159 0.0
H601 H 0.07267 0.14226 0.85905 0.0
O602 O 0.30304 1.02101 0.64424 0.0
O603 O 0.96785 0.03384 0.8662 0.0
O604 O 0.96784 1.03323 0.70086 0.0
O605 O 0.30302 0.046 0.92283 0.0
O606 O 0.1664 0.90704 0.6277 0.0
O607 O 0.16642 0.15999 0.93935 0.0
O608 O 0.168 0.97504 0.9736 0.0
O609 O 0.16798 0.09196 0.59342 0.0
O610 O 0.26744 0.86874 0.81114 0.0
O611 O 0.11276 0.24371 0.75133 0.0
O612 O 0.26751 0.19824 0.75596 0.0
O613 O 0.11275 0.82334 0.81571 0.0
O614 O 0.20431 1.00135 0.57335 0.0
O615 O 0.0496 0.06115 0.94828 0.0
O616 O 0.20428 0.06568 0.99371 0.0
O617 O 0.04959 1.0059 0.61877 0.0
O618 O 0.34923 0.11618 0.78321 0.0
O619 O 1.01402 0.89424 0.79601 0.0
O620 O 1.01403 0.17282 0.77103 0.0
O621 O 0.34921 0.95082 0.78384 0.0
O622 O 0.15071 0.18934 0.65703 0.0
O623 O 0.15066 0.87768 0.90999 0.0
O624 O 0.14903 0.84344 0.72506 0.0
O625 O 0.14904 0.2236 0.84199 0.0
C626 C 0.26975 1.01136 0.57499 0.0
C627 C 0.98999 0.07088 0.9169 0.0
C628 C 0.98998 0.99618 0.65016 0.0
C629 C 0.26972 0.05567 0.99208 0.0
C630 C 0.17762 0.8523 0.6663 0.0
C631 C 0.17763 0.21473 0.90075 0.0
C632 C 0.13944 0.91627 0.96474 0.0
C633 C 0.13945 0.15075 0.60229 0.0
C634 C 0.32705 0.90013 0.82088 0.0
C635 C 0.04732 0.24208 0.76136 0.0
C636 C 0.32703 0.16676 0.74603 0.0
C637 C 0.04731 0.82498 0.80568 0.0
H638 H 0.43759 0.20884 0.75719 0.0
O639 O 0.46467 0.23258 0.72311 0.0
Tb640 Tb 0.53351 0.28352 0.78326 0.0
Tb641 Tb 0.5112 0.165 0.65179 0.0
Tb642 Tb 0.41499 0.30585 0.66526 0.0
O643 O 0.5816 0.20944 0.72143 0.0
O644 O 0.48544 0.35761 0.72142 0.0
O645 O 0.60237 0.33447 0.72312 0.0
O646 O 0.58447 0.21468 0.59394 0.0
O647 O 0.48258 0.35238 0.59394 0.0
O648 O 0.45944 0.23545 0.59563 0.0
H649 H 0.60905 0.17478 0.74439 0.0
H650 H 0.45799 0.39227 0.74439 0.0
Tb651 Tb 0.65204 0.2612 0.66527 0.0
Tb652 Tb 0.55584 0.40205 0.65179 0.0
H653 H 0.62944 0.35821 0.75719 0.0
H654 H 0.60821 0.1876 0.55987 0.0
Tb655 Tb 0.53352 0.28353 0.5338 0.0
H656 H 0.45883 0.37946 0.55987 0.0
H657 H 0.42478 0.20799 0.57266 0.0
O658 O 0.6076 0.3316 0.59563 0.0
H659 H 0.64226 0.35906 0.57266 0.0
O660 O 0.52102 0.14423 0.80302 0.0
O661 O 0.53382 0.36621 0.46785 0.0
O662 O 0.53321 0.20086 0.46784 0.0
O663 O 0.54601 0.42282 0.80301 0.0
O664 O 0.40706 0.1277 0.66641 0.0
O665 O 0.65998 0.43935 0.66645 0.0
O666 O 0.47503 0.4736 0.66801 0.0
O667 O 0.592 0.09345 0.668 0.0
O668 O 0.36876 0.31117 0.76746 0.0
O669 O 0.74371 0.25136 0.61277 0.0
O670 O 0.69827 0.2559 0.76747 0.0
O671 O 0.32333 0.31569 0.61277 0.0
O672 O 0.50136 0.07334 0.70428 0.0
O673 O 0.56116 0.44829 0.5496 0.0
O674 O 0.56568 0.49371 0.70428 0.0
O675 O 0.50592 0.11877 0.54959 0.0
O676 O 0.61617 0.28323 0.84922 0.0
O677 O 0.39423 0.29602 0.51404 0.0
O678 O 0.67282 0.27103 0.51404 0.0
O679 O 0.45084 0.28381 0.84921 0.0
O680 O 0.68936 0.15706 0.65065 0.0
O681 O 0.37768 0.40999 0.65064 0.0
O682 O 0.34345 0.22504 0.64904 0.0
O683 O 0.72359 0.34201 0.64904 0.0
C684 C 0.51136 0.07497 0.76972 0.0
C685 C 0.57087 0.41691 0.48999 0.0
C686 C 0.49619 0.15015 0.48998 0.0
C687 C 0.55568 0.49208 0.76972 0.0
C688 C 0.35231 0.16628 0.67762 0.0
C689 C 0.71473 0.40076 0.67764 0.0
C690 C 0.41626 0.46474 0.63944 0.0
C691 C 0.65078 0.10231 0.63944 0.0
C692 C 0.40015 0.32087 0.82707 0.0
C693 C 0.74208 0.26136 0.54733 0.0
C694 C 0.66687 0.24618 0.82708 0.0
C695 C 0.32497 0.30569 0.54733 0.0
loop_
_geom_bond_atom_site_label_1
_geom_bond_atom_site_label_2
_geom_bond_distance
_geom_bond_site_symmetry_2
_ccdc_geom_bond_type
H0 O1 0.850 . S
O1 H0 0.850 . S
O1 Tb2 2.341 . S
O1 Tb3 2.341 . S
O1 Tb4 2.341 . S
Tb2 O1 2.341 . S
Tb2 O5 2.341 . S
Tb2 O6 2.341 1_455 S
Tb2 O7 2.341 1_455 S
Tb2 O22 2.344 . S
Tb2 O25 2.344 1_455 S
Tb2 O38 2.344 1_455 S
Tb2 O41 2.344 . S
Tb3 O1 2.341 . S
Tb3 O5 2.341 . S
Tb3 O8 2.341 . S
Tb3 O10 2.341 . S
Tb3 O26 2.344 . S
Tb3 O29 2.344 . S
Tb3 O34 2.344 . S
Tb3 O37 2.344 . S
Tb4 O1 2.341 . S
Tb4 O6 2.341 1_455 S
Tb4 O9 2.341 1_455 S
Tb4 O10 2.341 . S
Tb4 O30 2.344 . S
Tb4 O33 2.344 . S
Tb4 O43 2.344 1_455 S
Tb4 O44 2.344 . S
O5 Tb2 2.341 . S
O5 Tb3 2.341 . S
O5 H11 0.850 . S
O5 Tb13 2.341 1_455 S
O6 Tb2 2.341 1_655 S
O6 Tb4 2.341 1_655 S
O6 H12 0.850 . S
O6 Tb14 2.341 . S
O7 Tb2 2.341 1_655 S
O7 Tb13 2.341 . S
O7 Tb14 2.341 . S
O7 H15 0.850 . S
O8 Tb3 2.341 . S
O8 Tb13 2.341 1_455 S
O8 H16 0.850 . S
O8 Tb17 2.341 . S
O9 Tb4 2.341 1_655 S
O9 Tb14 2.341 . S
O9 Tb17 2.341 1_655 S
O9 H18 0.850 . S
O10 Tb3 2.341 . S
O10 Tb4 2.341 . S
O10 Tb17 2.341 . S
O10 H19 0.850 . S
H11 O5 0.850 . S
H12 O6 0.850 . S
Tb13 O5 2.341 1_655 S
Tb13 O7 2.341 . S
Tb13 O8 2.341 1_655 S
Tb13 O20 2.341 . S
Tb13 O31 2.344 . S
Tb13 O32 2.344 . S
Tb13 O42 2.344 1_655 S
Tb13 O45 2.344 . S
Tb14 O6 2.341 . S
Tb14 O7 2.341 . S
Tb14 O9 2.341 . S
Tb14 O20 2.341 . S
Tb14 O27 2.344 . S
Tb14 O28 2.344 . S
Tb14 O35 2.344 . S
Tb14 O36 2.344 . S
H15 O7 0.850 . S
H16 O8 0.850 . S
Tb17 O8 2.341 . S
Tb17 O9 2.341 1_455 S
Tb17 O10 2.341 . S
Tb17 O20 2.341 1_455 S
Tb17 O23 2.344 1_455 S
Tb17 O24 2.344 . S
Tb17 O39 2.344 . S
Tb17 O40 2.344 1_455 S
H18 O9 0.850 . S
H19 O10 0.850 . S
O20 Tb13 2.341 . S
O20 Tb14 2.341 . S
O20 Tb17 2.341 1_655 S
O20 H21 0.850 . S
H21 O20 0.850 . S
O22 Tb2 2.344 . S
O22 C46 1.272 . S
O23 Tb17 2.344 1_655 S
O23 C47 1.272 . S
O24 Tb17 2.344 . S
O24 C48 1.272 . S
O25 Tb2 2.344 1_655 S
O25 C49 1.272 . S
O26 Tb3 2.344 . S
O26 C50 1.272 . S
O27 Tb14 2.344 . S
O27 C51 1.272 . S
O28 Tb14 2.344 . S
O28 C52 1.272 . S
O29 Tb3 2.344 . S
O29 C53 1.272 . S
O30 Tb4 2.344 . S
O30 C54 1.272 . S
O31 Tb13 2.344 . S
O31 C55 1.272 . S
O32 Tb13 2.344 . S
O32 C56 1.272 . S
O33 Tb4 2.344 . S
O33 C57 1.272 . S
O34 Tb3 2.344 . S
O34 C46 1.272 . S
O35 Tb14 2.344 . S
O35 C47 1.272 . S
O36 Tb14 2.344 . S
O36 C49 1.272 . S
O37 Tb3 2.344 . S
O37 C48 1.272 . S
O38 Tb2 2.344 1_655 S
O38 C56 1.272 . S
O39 Tb17 2.344 . S
O39 C57 1.272 . S
O40 Tb17 2.344 1_655 S
O40 C55 1.272 . S
O41 Tb2 2.344 . S
O41 C54 1.272 . S
O42 Tb13 2.344 1_455 S
O42 C53 1.272 . S
O43 Tb4 2.344 1_655 S
O43 C52 1.272 . S
O44 Tb4 2.344 . S
O44 C50 1.272 . S
O45 Tb13 2.344 . S
O45 C51 1.272 . S
C46 O22 1.272 . S
C46 O34 1.272 . S
C47 O23 1.272 . S
C47 O35 1.272 . S
C48 O24 1.272 . S
C48 O37 1.272 . S
C49 O25 1.272 . S
C49 O36 1.272 . S
C50 O26 1.272 . S
C50 O44 1.272 . S
C51 O27 1.272 . S
C51 O45 1.272 . S
C52 O28 1.272 . S
C52 O43 1.272 . S
C53 O29 1.272 . S
C53 O42 1.272 . S
C54 O30 1.272 . S
C54 O41 1.272 . S
C55 O31 1.272 . S
C55 O40 1.272 . S
C56 O32 1.272 . S
C56 O38 1.272 . S
C57 O33 1.272 . S
C57 O39 1.272 . S
H58 O59 0.850 . S
O59 H58 0.850 . S
O59 Tb60 2.341 1_556 S
O59 Tb61 2.341 . S
O59 Tb62 2.341 . S
Tb60 O59 2.341 1_554 S
Tb60 O63 2.341 1_554 S
Tb60 O64 2.341 1_554 S
Tb60 O65 2.341 1_554 S
Tb60 O80 2.344 . S
Tb60 O83 2.344 . S
Tb60 O96 2.344 . S
Tb60 O99 2.344 . S
Tb61 O59 2.341 . S
Tb61 O63 2.341 . S
Tb61 O66 2.341 . S
Tb61 O68 2.341 . S
Tb61 O84 2.344 . S
Tb61 O87 2.344 . S
Tb61 O92 2.344 . S
Tb61 O95 2.344 . S
Tb62 O59 2.341 . S
Tb62 O64 2.341 . S
Tb62 O67 2.341 . S
Tb62 O68 2.341 . S
Tb62 O88 2.344 . S
Tb62 O91 2.344 . S
Tb62 O101 2.344 . S
Tb62 O102 2.344 . S
O63 Tb60 2.341 1_556 S
O63 Tb61 2.341 . S
O63 H69 0.850 . S
O63 Tb71 2.341 . S
O64 Tb60 2.341 1_556 S
O64 Tb62 2.341 . S
O64 H70 0.850 . S
O64 Tb72 2.341 . S
O65 Tb60 2.341 1_556 S
O65 Tb71 2.341 . S
O65 Tb72 2.341 . S
O65 H73 0.850 . S
O66 Tb61 2.341 . S
O66 Tb71 2.341 . S
O66 H74 0.850 . S
O66 Tb75 2.341 . S
O67 Tb62 2.341 . S
O67 Tb72 2.341 . S
O67 Tb75 2.341 . S
O67 H76 0.850 . S
O68 Tb61 2.341 . S
O68 Tb62 2.341 . S
O68 Tb75 2.341 . S
O68 H77 0.850 . S
H69 O63 0.850 . S
H70 O64 0.850 . S
Tb71 O63 2.341 . S
Tb71 O65 2.341 . S
Tb71 O66 2.341 . S
Tb71 O78 2.341 . S
Tb71 O89 2.344 . S
Tb71 O90 2.344 . S
Tb71 O100 2.344 . S
Tb71 O103 2.344 . S
Tb72 O64 2.341 . S
Tb72 O65 2.341 . S
Tb72 O67 2.341 . S
Tb72 O78 2.341 . S
Tb72 O85 2.344 . S
Tb72 O86 2.344 . S
Tb72 O93 2.344 . S
Tb72 O94 2.344 . S
H73 O65 0.850 . S
H74 O66 0.850 . S
Tb75 O66 2.341 . S
Tb75 O67 2.341 . S
Tb75 O68 2.341 . S
Tb75 O78 2.341 . S
Tb75 O81 2.344 . S
Tb75 O82 2.344 . S
Tb75 O97 2.344 . S
Tb75 O98 2.344 . S
H76 O67 0.850 . S
H77 O68 0.850 . S
O78 Tb71 2.341 . S
O78 Tb72 2.341 . S
O78 Tb75 2.341 . S
O78 H79 0.850 . S
H79 O78 0.850 . S
O80 Tb60 2.344 . S
O80 C104 1.272 . S
O81 Tb75 2.344 . S
O81 C105 1.272 . S
O82 Tb75 2.344 . S
O82 C106 1.272 . S
O83 Tb60 2.344 . S
O83 C107 1.272 . S
O84 Tb61 2.344 . S
O84 C108 1.272 . S
O85 Tb72 2.344 . S
O85 C109 1.272 . S
O86 Tb72 2.344 . S
O86 C110 1.272 . S
O87 Tb61 2.344 . S
O87 C111 1.272 . S
O88 Tb62 2.344 . S
O88 C112 1.272 1_556 S
O89 Tb71 2.344 . S
O89 C113 1.272 . S
O90 Tb71 2.344 . S
O90 C114 1.272 1_556 S
O91 Tb62 2.344 . S
O91 C115 1.272 . S
O92 Tb61 2.344 . S
O92 C104 1.272 1_556 S
O93 Tb72 2.344 . S
O93 C105 1.272 . S
O94 Tb72 2.344 . S
O94 C107 1.272 1_556 S
O95 Tb61 2.344 . S
O95 C106 1.272 . S
O96 Tb60 2.344 . S
O96 C114 1.272 . S
O97 Tb75 2.344 . S
O97 C115 1.272 . S
O98 Tb75 2.344 . S
O98 C113 1.272 . S
O99 Tb60 2.344 . S
O99 C112 1.272 . S
O100 Tb71 2.344 . S
O100 C111 1.272 . S
O101 Tb62 2.344 . S
O101 C110 1.272 . S
O102 Tb62 2.344 . S
O102 C108 1.272 . S
O103 Tb71 2.344 . S
O103 C109 1.272 . S
C104 O80 1.272 . S
C104 O92 1.272 1_554 S
C105 O81 1.272 . S
C105 O93 1.272 . S
C106 O82 1.272 . S
C106 O95 1.272 . S
C107 O83 1.272 . S
C107 O94 1.272 1_554 S
C108 O84 1.272 . S
C108 O102 1.272 . S
C109 O85 1.272 . S
C109 O103 1.272 . S
C110 O86 1.272 . S
C110 O101 1.272 . S
C111 O87 1.272 . S
C111 O100 1.272 . S
C112 O88 1.272 1_554 S
C112 O99 1.272 . S
C113 O89 1.272 . S
C113 O98 1.272 . S
C114 O90 1.272 1_554 S
C114 O96 1.272 . S
C115 O91 1.272 . S
C115 O97 1.272 . S
H116 O117 0.850 . S
O117 H116 0.850 . S
O117 Tb118 2.341 1_655 S
O117 Tb119 2.341 . S
O117 Tb120 2.341 . S
Tb118 O117 2.341 1_455 S
Tb118 O121 2.341 . S
Tb118 O122 2.341 1_455 S
Tb118 O123 2.341 . S
Tb118 O138 2.344 1_455 S
Tb118 O141 2.344 . S
Tb118 O154 2.344 . S
Tb118 O157 2.344 1_455 S
Tb119 O117 2.341 . S
Tb119 O121 2.341 1_655 S
Tb119 O124 2.341 1_655 S
Tb119 O126 2.341 . S
Tb119 O142 2.344 . S
Tb119 O145 2.344 1_655 S
Tb119 O150 2.344 . S
Tb119 O153 2.344 . S
Tb120 O117 2.341 . S
Tb120 O122 2.341 . S
Tb120 O125 2.341 . S
Tb120 O126 2.341 . S
Tb120 O146 2.344 . S
Tb120 O149 2.344 . S
Tb120 O159 2.344 . S
Tb120 O160 2.344 . S
O121 Tb118 2.341 . S
O121 Tb119 2.341 1_455 S
O121 H127 0.850 . S
O121 Tb129 2.341 . S
O122 Tb118 2.341 1_655 S
O122 Tb120 2.341 . S
O122 H128 0.850 . S
O122 Tb130 2.341 1_655 S
O123 Tb118 2.341 . S
O123 Tb129 2.341 . S
O123 Tb130 2.341 . S
O123 H131 0.850 . S
O124 Tb119 2.341 1_455 S
O124 Tb129 2.341 . S
O124 H132 0.850 . S
O124 Tb133 2.341 1_554 S
O125 Tb120 2.341 . S
O125 Tb130 2.341 1_655 S
O125 Tb133 2.341 1_654 S
O125 H134 0.850 . S
O126 Tb119 2.341 . S
O126 Tb120 2.341 . S
O126 Tb133 2.341 1_654 S
O126 H135 0.850 . S
H127 O121 0.850 . S
H128 O122 0.850 . S
Tb129 O121 2.341 . S
Tb129 O123 2.341 . S
Tb129 O124 2.341 . S
Tb129 O136 2.341 . S
Tb129 O147 2.344 . S
Tb129 O148 2.344 . S
Tb129 O158 2.344 . S
Tb129 O161 2.344 . S
Tb130 O122 2.341 1_455 S
Tb130 O123 2.341 . S
Tb130 O125 2.341 1_455 S
Tb130 O136 2.341 . S
Tb130 O143 2.344 . S
Tb130 O144 2.344 1_455 S
Tb130 O151 2.344 . S
Tb130 O152 2.344 . S
H131 O123 0.850 . S
H132 O124 0.850 . S
Tb133 O124 2.341 1_556 S
Tb133 O125 2.341 1_456 S
Tb133 O126 2.341 1_456 S
Tb133 O136 2.341 1_556 S
Tb133 O139 2.344 . S
Tb133 O140 2.344 1_455 S
Tb133 O155 2.344 1_455 S
Tb133 O156 2.344 . S
H134 O125 0.850 . S
H135 O126 0.850 . S
O136 Tb129 2.341 . S
O136 Tb130 2.341 . S
O136 Tb133 2.341 1_554 S
O136 H137 0.850 . S
H137 O136 0.850 . S
O138 Tb118 2.344 1_655 S
O138 C162 1.272 . S
O139 Tb133 2.344 . S
O139 C163 1.272 . S
O140 Tb133 2.344 1_655 S
O140 C164 1.272 . S
O141 Tb118 2.344 . S
O141 C165 1.272 . S
O142 Tb119 2.344 . S
O142 C166 1.272 . S
O143 Tb130 2.344 . S
O143 C167 1.272 . S
O144 Tb130 2.344 1_655 S
O144 C168 1.272 . S
O145 Tb119 2.344 1_455 S
O145 C169 1.272 . S
O146 Tb120 2.344 . S
O146 C170 1.272 . S
O147 Tb129 2.344 . S
O147 C171 1.272 1_554 S
O148 Tb129 2.344 . S
O148 C172 1.272 . S
O149 Tb120 2.344 . S
O149 C173 1.272 1_554 S
O150 Tb119 2.344 . S
O150 C162 1.272 . S
O151 Tb130 2.344 . S
O151 C163 1.272 1_554 S
O152 Tb130 2.344 . S
O152 C165 1.272 . S
O153 Tb119 2.344 . S
O153 C164 1.272 1_554 S
O154 Tb118 2.344 . S
O154 C172 1.272 . S
O155 Tb133 2.344 1_655 S
O155 C173 1.272 . S
O156 Tb133 2.344 . S
O156 C171 1.272 . S
O157 Tb118 2.344 1_655 S
O157 C170 1.272 . S
O158 Tb129 2.344 . S
O158 C169 1.272 . S
O159 Tb120 2.344 . S
O159 C168 1.272 . S
O160 Tb120 2.344 . S
O160 C166 1.272 . S
O161 Tb129 2.344 . S
O161 C167 1.272 . S
C162 O138 1.272 . S
C162 O150 1.272 . S
C163 O139 1.272 . S
C163 O151 1.272 1_556 S
C164 O140 1.272 . S
C164 O153 1.272 1_556 S
C165 O141 1.272 . S
C165 O152 1.272 . S
C166 O142 1.272 . S
C166 O160 1.272 . S
C167 O143 1.272 . S
C167 O161 1.272 . S
C168 O144 1.272 . S
C168 O159 1.272 . S
C169 O145 1.272 . S
C169 O158 1.272 . S
C170 O146 1.272 . S
C170 O157 1.272 . S
C171 O147 1.272 1_556 S
C171 O156 1.272 . S
C172 O148 1.272 . S
C172 O154 1.272 . S
C173 O149 1.272 1_556 S
C173 O155 1.272 . S
H174 O175 0.850 . S
O175 H174 0.850 . S
O175 Tb176 2.341 . S
O175 Tb177 2.341 1_565 S
O175 Tb178 2.341 . S
Tb176 O175 2.341 . S
Tb176 O179 2.341 1_565 S
Tb176 O180 2.341 . S
Tb176 O181 2.341 1_565 S
Tb176 O196 2.344 . S
Tb176 O199 2.344 . S
Tb176 O212 2.344 1_565 S
Tb176 O215 2.344 . S
Tb177 O175 2.341 1_545 S
Tb177 O179 2.341 . S
Tb177 O182 2.341 . S
Tb177 O184 2.341 1_545 S
Tb177 O200 2.344 1_545 S
Tb177 O203 2.344 . S
Tb177 O208 2.344 1_545 S
Tb177 O211 2.344 . S
Tb178 O175 2.341 . S
Tb178 O180 2.341 . S
Tb178 O183 2.341 . S
Tb178 O184 2.341 . S
Tb178 O204 2.344 . S
Tb178 O207 2.344 . S
Tb178 O217 2.344 . S
Tb178 O218 2.344 . S
O179 Tb176 2.341 1_545 S
O179 Tb177 2.341 . S
O179 H185 0.850 . S
O179 Tb187 2.341 . S
O180 Tb176 2.341 . S
O180 Tb178 2.341 . S
O180 H186 0.850 . S
O180 Tb188 2.341 1_565 S
O181 Tb176 2.341 1_545 S
O181 Tb187 2.341 . S
O181 Tb188 2.341 . S
O181 H189 0.850 . S
O182 Tb177 2.341 . S
O182 Tb187 2.341 . S
O182 H190 0.850 . S
O182 Tb191 2.341 . S
O183 Tb178 2.341 . S
O183 Tb188 2.341 1_565 S
O183 Tb191 2.341 1_565 S
O183 H192 0.850 . S
O184 Tb177 2.341 1_565 S
O184 Tb178 2.341 . S
O184 Tb191 2.341 1_565 S
O184 H193 0.850 . S
H185 O179 0.850 . S
H186 O180 0.850 . S
Tb187 O179 2.341 . S
Tb187 O181 2.341 . S
Tb187 O182 2.341 . S
Tb187 O194 2.341 . S
Tb187 O205 2.344 . S
Tb187 O206 2.344 . S
Tb187 O216 2.344 . S
Tb187 O219 2.344 . S
Tb188 O180 2.341 1_545 S
Tb188 O181 2.341 . S
Tb188 O183 2.341 1_545 S
Tb188 O194 2.341 . S
Tb188 O201 2.344 . S
Tb188 O202 2.344 1_545 S
Tb188 O209 2.344 . S
Tb188 O210 2.344 1_545 S
H189 O181 0.850 . S
H190 O182 0.850 . S
Tb191 O182 2.341 . S
Tb191 O183 2.341 1_545 S
Tb191 O184 2.341 1_545 S
Tb191 O194 2.341 . S
Tb191 O197 2.344 . S
Tb191 O198 2.344 . S
Tb191 O213 2.344 1_545 S
Tb191 O214 2.344 . S
H192 O183 0.850 . S
H193 O184 0.850 . S
O194 Tb187 2.341 . S
O194 Tb188 2.341 . S
O194 Tb191 2.341 . S
O194 H195 0.850 . S
H195 O194 0.850 . S
O196 Tb176 2.344 . S
O196 C220 1.272 . S
O197 Tb191 2.344 . S
O197 C221 1.272 . S
O198 Tb191 2.344 . S
O198 C222 1.272 . S
O199 Tb176 2.344 . S
O199 C223 1.272 . S
O200 Tb177 2.344 1_565 S
O200 C224 1.272 . S
O201 Tb188 2.344 . S
O201 C225 1.272 . S
O202 Tb188 2.344 1_565 S
O202 C226 1.272 . S
O203 Tb177 2.344 . S
O203 C227 1.272 . S
O204 Tb178 2.344 . S
O204 C228 1.272 . S
O205 Tb187 2.344 . S
O205 C229 1.272 . S
O206 Tb187 2.344 . S
O206 C230 1.272 . S
O207 Tb178 2.344 . S
O207 C231 1.272 . S
O208 Tb177 2.344 1_565 S
O208 C220 1.272 . S
O209 Tb188 2.344 . S
O209 C221 1.272 . S
O210 Tb188 2.344 1_565 S
O210 C223 1.272 . S
O211 Tb177 2.344 . S
O211 C222 1.272 . S
O212 Tb176 2.344 1_545 S
O212 C230 1.272 . S
O213 Tb191 2.344 1_565 S
O213 C231 1.272 . S
O214 Tb191 2.344 . S
O214 C229 1.272 . S
O215 Tb176 2.344 . S
O215 C228 1.272 . S
O216 Tb187 2.344 . S
O216 C227 1.272 . S
O217 Tb178 2.344 . S
O217 C226 1.272 . S
O218 Tb178 2.344 . S
O218 C224 1.272 . S
O219 Tb187 2.344 . S
O219 C225 1.272 . S
C220 O196 1.272 . S
C220 O208 1.272 . S
C221 O197 1.272 . S
C221 O209 1.272 . S
C222 O198 1.272 . S
C222 O211 1.272 . S
C223 O199 1.272 . S
C223 O210 1.272 . S
C224 O200 1.272 . S
C224 O218 1.272 . S
C225 O201 1.272 . S
C225 O219 1.272 . S
C226 O202 1.272 . S
C226 O217 1.272 . S
C227 O203 1.272 . S
C227 O216 1.272 . S
C228 O204 1.272 . S
C228 O215 1.272 . S
C229 O205 1.272 . S
C229 O214 1.272 . S
C230 O206 1.272 . S
C230 O212 1.272 . S
C231 O207 1.272 . S
C231 O213 1.272 . S
H232 O233 0.850 . S
O233 H232 0.850 . S
O233 Tb234 2.341 1_556 S
O233 Tb235 2.341 . S
O233 Tb236 2.341 . S
Tb234 O233 2.341 1_554 S
Tb234 O237 2.341 1_554 S
Tb234 O238 2.341 . S
Tb234 O239 2.341 . S
Tb234 O254 2.344 1_554 S
Tb234 O257 2.344 . S
Tb234 O270 2.344 . S
Tb234 O273 2.344 1_554 S
Tb235 O233 2.341 . S
Tb235 O237 2.341 . S
Tb235 O240 2.341 . S
Tb235 O242 2.341 . S
Tb235 O258 2.344 . S
Tb235 O261 2.344 . S
Tb235 O266 2.344 . S
Tb235 O269 2.344 . S
Tb236 O233 2.341 . S
Tb236 O238 2.341 1_556 S
Tb236 O241 2.341 1_556 S
Tb236 O242 2.341 . S
Tb236 O262 2.344 . S
Tb236 O265 2.344 . S
Tb236 O275 2.344 1_556 S
Tb236 O276 2.344 . S
O237 Tb234 2.341 1_556 S
O237 Tb235 2.341 . S
O237 H243 0.850 . S
O237 Tb245 2.341 1_556 S
O238 Tb234 2.341 . S
O238 Tb236 2.341 1_554 S
O238 H244 0.850 . S
O238 Tb246 2.341 . S
O239 Tb234 2.341 . S
O239 Tb245 2.341 . S
O239 Tb246 2.341 . S
O239 H247 0.850 . S
O240 Tb235 2.341 . S
O240 Tb245 2.341 1_556 S
O240 H248 0.850 . S
O240 Tb249 2.341 1_556 S
O241 Tb236 2.341 1_554 S
O241 Tb246 2.341 . S
O241 Tb249 2.341 . S
O241 H250 0.850 . S
O242 Tb235 2.341 . S
O242 Tb236 2.341 . S
O242 Tb249 2.341 1_556 S
O242 H251 0.850 . S
H243 O237 0.850 . S
H244 O238 0.850 . S
Tb245 O237 2.341 1_554 S
Tb245 O239 2.341 . S
Tb245 O240 2.341 1_554 S
Tb245 O252 2.341 . S
Tb245 O263 2.344 . S
Tb245 O264 2.344 . S
Tb245 O274 2.344 1_554 S
Tb245 O277 2.344 . S
Tb246 O238 2.341 . S
Tb246 O239 2.341 . S
Tb246 O241 2.341 . S
Tb246 O252 2.341 . S
Tb246 O259 2.344 . S
Tb246 O260 2.344 . S
Tb246 O267 2.344 . S
Tb246 O268 2.344 . S
H247 O239 0.850 . S
H248 O240 0.850 . S
Tb249 O240 2.341 1_554 S
Tb249 O241 2.341 . S
Tb249 O242 2.341 1_554 S
Tb249 O252 2.341 . S
Tb249 O255 2.344 . S
Tb249 O256 2.344 1_554 S
Tb249 O271 2.344 1_554 S
Tb249 O272 2.344 . S
H250 O241 0.850 . S
H251 O242 0.850 . S
O252 Tb245 2.341 . S
O252 Tb246 2.341 . S
O252 Tb249 2.341 . S
O252 H253 0.850 . S
H253 O252 0.850 . S
O254 Tb234 2.344 1_556 S
O254 C278 1.272 . S
O255 Tb249 2.344 . S
O255 C279 1.272 . S
O256 Tb249 2.344 1_556 S
O256 C280 1.272 . S
O257 Tb234 2.344 . S
O257 C281 1.272 . S
O258 Tb235 2.344 . S
O258 C282 1.272 . S
O259 Tb246 2.344 . S
O259 C283 1.272 . S
O260 Tb246 2.344 . S
O260 C284 1.272 . S
O261 Tb235 2.344 . S
O261 C285 1.272 . S
O262 Tb236 2.344 . S
O262 C286 1.272 . S
O263 Tb245 2.344 . S
O263 C287 1.272 . S
O264 Tb245 2.344 . S
O264 C288 1.272 . S
O265 Tb236 2.344 . S
O265 C289 1.272 . S
O266 Tb235 2.344 . S
O266 C278 1.272 . S
O267 Tb246 2.344 . S
O267 C279 1.272 . S
O268 Tb246 2.344 . S
O268 C281 1.272 . S
O269 Tb235 2.344 . S
O269 C280 1.272 . S
O270 Tb234 2.344 . S
O270 C288 1.272 . S
O271 Tb249 2.344 1_556 S
O271 C289 1.272 . S
O272 Tb249 2.344 . S
O272 C287 1.272 . S
O273 Tb234 2.344 1_556 S
O273 C286 1.272 . S
O274 Tb245 2.344 1_556 S
O274 C285 1.272 . S
O275 Tb236 2.344 1_554 S
O275 C284 1.272 . S
O276 Tb236 2.344 . S
O276 C282 1.272 . S
O277 Tb245 2.344 . S
O277 C283 1.272 . S
C278 O254 1.272 . S
C278 O266 1.272 . S
C279 O255 1.272 . S
C279 O267 1.272 . S
C280 O256 1.272 . S
C280 O269 1.272 . S
C281 O257 1.272 . S
C281 O268 1.272 . S
C282 O258 1.272 . S
C282 O276 1.272 . S
C283 O259 1.272 . S
C283 O277 1.272 . S
C284 O260 1.272 . S
C284 O275 1.272 . S
C285 O261 1.272 . S
C285 O274 1.272 . S
C286 O262 1.272 . S
C286 O273 1.272 . S
C287 O263 1.272 . S
C287 O272 1.272 . S
C288 O264 1.272 . S
C288 O270 1.272 . S
C289 O265 1.272 . S
C289 O271 1.272 . S
H290 O291 0.850 . S
O291 H290 0.850 . S
O291 Tb292 2.341 . S
O291 Tb293 2.341 . S
O291 Tb294 2.341 . S
Tb292 O291 2.341 . S
Tb292 O295 2.341 . S
Tb292 O296 2.341 . S
Tb292 O297 2.341 . S
Tb292 O312 2.344 . S
Tb292 O315 2.344 . S
Tb292 O328 2.344 . S
Tb292 O331 2.344 . S
Tb293 O291 2.341 . S
Tb293 O295 2.341 . S
Tb293 O298 2.341 . S
Tb293 O300 2.341 . S
Tb293 O316 2.344 . S
Tb293 O319 2.344 . S
Tb293 O324 2.344 . S
Tb293 O327 2.344 . S
Tb294 O291 2.341 . S
Tb294 O296 2.341 . S
Tb294 O299 2.341 . S
Tb294 O300 2.341 . S
Tb294 O320 2.344 . S
Tb294 O323 2.344 . S
Tb294 O333 2.344 . S
Tb294 O334 2.344 . S
O295 Tb292 2.341 . S
O295 Tb293 2.341 . S
O295 H301 0.850 . S
O295 Tb303 2.341 . S
O296 Tb292 2.341 . S
O296 Tb294 2.341 . S
O296 H302 0.850 . S
O296 Tb304 2.341 . S
O297 Tb292 2.341 . S
O297 Tb303 2.341 . S
O297 Tb304 2.341 . S
O297 H305 0.850 . S
O298 Tb293 2.341 . S
O298 Tb303 2.341 . S
O298 H306 0.850 . S
O298 Tb307 2.341 . S
O299 Tb294 2.341 . S
O299 Tb304 2.341 . S
O299 Tb307 2.341 . S
O299 H308 0.850 . S
O300 Tb293 2.341 . S
O300 Tb294 2.341 . S
O300 Tb307 2.341 . S
O300 H309 0.850 . S
H301 O295 0.850 . S
H302 O296 0.850 . S
Tb303 O295 2.341 . S
Tb303 O297 2.341 . S
Tb303 O298 2.341 . S
Tb303 O310 2.341 . S
Tb303 O321 2.344 . S
Tb303 O322 2.344 . S
Tb303 O332 2.344 . S
Tb303 O335 2.344 . S
Tb304 O296 2.341 . S
Tb304 O297 2.341 . S
Tb304 O299 2.341 . S
Tb304 O310 2.341 . S
Tb304 O317 2.344 . S
Tb304 O318 2.344 . S
Tb304 O325 2.344 . S
Tb304 O326 2.344 . S
H305 O297 0.850 . S
H306 O298 0.850 . S
Tb307 O298 2.341 . S
Tb307 O299 2.341 . S
Tb307 O300 2.341 . S
Tb307 O310 2.341 . S
Tb307 O313 2.344 . S
Tb307 O314 2.344 . S
Tb307 O329 2.344 . S
Tb307 O330 2.344 . S
H308 O299 0.850 . S
H309 O300 0.850 . S
O310 Tb303 2.341 . S
O310 Tb304 2.341 . S
O310 Tb307 2.341 . S
O310 H311 0.850 . S
H311 O310 0.850 . S
O312 Tb292 2.344 . S
O312 C336 1.272 . S
O313 Tb307 2.344 . S
O313 C337 1.272 . S
O314 Tb307 2.344 . S
O314 C338 1.272 . S
O315 Tb292 2.344 . S
O315 C339 1.272 . S
O316 Tb293 2.344 . S
O316 C340 1.272 . S
O317 Tb304 2.344 . S
O317 C341 1.272 . S
O318 Tb304 2.344 . S
O318 C342 1.272 . S
O319 Tb293 2.344 . S
O319 C343 1.272 . S
O320 Tb294 2.344 . S
O320 C344 1.272 . S
O321 Tb303 2.344 . S
O321 C345 1.272 . S
O322 Tb303 2.344 . S
O322 C346 1.272 . S
O323 Tb294 2.344 . S
O323 C347 1.272 . S
O324 Tb293 2.344 . S
O324 C336 1.272 . S
O325 Tb304 2.344 . S
O325 C337 1.272 . S
O326 Tb304 2.344 . S
O326 C339 1.272 . S
O327 Tb293 2.344 . S
O327 C338 1.272 . S
O328 Tb292 2.344 . S
O328 C346 1.272 . S
O329 Tb307 2.344 . S
O329 C347 1.272 . S
O330 Tb307 2.344 . S
O330 C345 1.272 . S
O331 Tb292 2.344 . S
O331 C344 1.272 . S
O332 Tb303 2.344 . S
O332 C343 1.272 . S
O333 Tb294 2.344 . S
O333 C342 1.272 . S
O334 Tb294 2.344 . S
O334 C340 1.272 . S
O335 Tb303 2.344 . S
O335 C341 1.272 . S
C336 O312 1.272 . S
C336 O324 1.272 . S
C337 O313 1.272 . S
C337 O325 1.272 . S
C338 O314 1.272 . S
C338 O327 1.272 . S
C339 O315 1.272 . S
C339 O326 1.272 . S
C340 O316 1.272 . S
C340 O334 1.272 . S
C341 O317 1.272 . S
C341 O335 1.272 . S
C342 O318 1.272 . S
C342 O333 1.272 . S
C343 O319 1.272 . S
C343 O332 1.272 . S
C344 O320 1.272 . S
C344 O331 1.272 . S
C345 O321 1.272 . S
C345 O330 1.272 . S
C346 O322 1.272 . S
C346 O328 1.272 . S
C347 O323 1.272 . S
C347 O329 1.272 . S
H348 O349 0.850 . S
O349 H348 0.850 . S
O349 Tb350 2.341 1_556 S
O349 Tb351 2.341 . S
O349 Tb352 2.341 . S
Tb350 O349 2.341 1_554 S
Tb350 O353 2.341 . S
Tb350 O354 2.341 1_554 S
Tb350 O355 2.341 . S
Tb350 O370 2.344 1_554 S
Tb350 O373 2.344 . S
Tb350 O386 2.344 . S
Tb350 O389 2.344 1_554 S
Tb351 O349 2.341 . S
Tb351 O353 2.341 1_556 S
Tb351 O356 2.341 1_556 S
Tb351 O358 2.341 . S
Tb351 O374 2.344 . S
Tb351 O377 2.344 1_556 S
Tb351 O382 2.344 . S
Tb351 O385 2.344 . S
Tb352 O349 2.341 . S
Tb352 O354 2.341 . S
Tb352 O357 2.341 . S
Tb352 O358 2.341 . S
Tb352 O378 2.344 . S
Tb352 O381 2.344 . S
Tb352 O391 2.344 . S
Tb352 O392 2.344 . S
O353 Tb350 2.341 . S
O353 Tb351 2.341 1_554 S
O353 H359 0.850 . S
O353 Tb361 2.341 . S
O354 Tb350 2.341 1_556 S
O354 Tb352 2.341 . S
O354 H360 0.850 . S
O354 Tb362 2.341 1_556 S
O355 Tb350 2.341 . S
O355 Tb361 2.341 . S
O355 Tb362 2.341 . S
O355 H363 0.850 . S
O356 Tb351 2.341 1_554 S
O356 Tb361 2.341 . S
O356 H364 0.850 . S
O356 Tb365 2.341 1_545 S
O357 Tb352 2.341 . S
O357 Tb362 2.341 1_556 S
O357 Tb365 2.341 1_546 S
O357 H366 0.850 . S
O358 Tb351 2.341 . S
O358 Tb352 2.341 . S
O358 Tb365 2.341 1_546 S
O358 H367 0.850 . S
H359 O353 0.850 . S
H360 O354 0.850 . S
Tb361 O353 2.341 . S
Tb361 O355 2.341 . S
Tb361 O356 2.341 . S
Tb361 O368 2.341 . S
Tb361 O379 2.344 . S
Tb361 O380 2.344 . S
Tb361 O390 2.344 . S
Tb361 O393 2.344 . S
Tb362 O354 2.341 1_554 S
Tb362 O355 2.341 . S
Tb362 O357 2.341 1_554 S
Tb362 O368 2.341 . S
Tb362 O375 2.344 . S
Tb362 O376 2.344 1_554 S
Tb362 O383 2.344 . S
Tb362 O384 2.344 . S
H363 O355 0.850 . S
H364 O356 0.850 . S
Tb365 O356 2.341 1_565 S
Tb365 O357 2.341 1_564 S
Tb365 O358 2.341 1_564 S
Tb365 O368 2.341 1_565 S
Tb365 O371 2.344 . S
Tb365 O372 2.344 1_554 S
Tb365 O387 2.344 1_554 S
Tb365 O388 2.344 . S
H366 O357 0.850 . S
H367 O358 0.850 . S
O368 Tb361 2.341 . S
O368 Tb362 2.341 . S
O368 Tb365 2.341 1_545 S
O368 H369 0.850 . S
H369 O368 0.850 . S
O370 Tb350 2.344 1_556 S
O370 C394 1.272 . S
O371 Tb365 2.344 . S
O371 C395 1.272 . S
O372 Tb365 2.344 1_556 S
O372 C396 1.272 . S
O373 Tb350 2.344 . S
O373 C397 1.272 . S
O374 Tb351 2.344 . S
O374 C398 1.272 . S
O375 Tb362 2.344 . S
O375 C399 1.272 . S
O376 Tb362 2.344 1_556 S
O376 C400 1.272 . S
O377 Tb351 2.344 1_554 S
O377 C401 1.272 . S
O378 Tb352 2.344 . S
O378 C402 1.272 . S
O379 Tb361 2.344 . S
O379 C403 1.272 1_545 S
O380 Tb361 2.344 . S
O380 C404 1.272 . S
O381 Tb352 2.344 . S
O381 C405 1.272 1_545 S
O382 Tb351 2.344 . S
O382 C394 1.272 . S
O383 Tb362 2.344 . S
O383 C395 1.272 1_545 S
O384 Tb362 2.344 . S
O384 C397 1.272 . S
O385 Tb351 2.344 . S
O385 C396 1.272 1_545 S
O386 Tb350 2.344 . S
O386 C404 1.272 . S
O387 Tb365 2.344 1_556 S
O387 C405 1.272 . S
O388 Tb365 2.344 . S
O388 C403 1.272 . S
O389 Tb350 2.344 1_556 S
O389 C402 1.272 . S
O390 Tb361 2.344 . S
O390 C401 1.272 . S
O391 Tb352 2.344 . S
O391 C400 1.272 . S
O392 Tb352 2.344 . S
O392 C398 1.272 . S
O393 Tb361 2.344 . S
O393 C399 1.272 . S
C394 O370 1.272 . S
C394 O382 1.272 . S
C395 O371 1.272 . S
C395 O383 1.272 1_565 S
C396 O372 1.272 . S
C396 O385 1.272 1_565 S
C397 O373 1.272 . S
C397 O384 1.272 . S
C398 O374 1.272 . S
C398 O392 1.272 . S
C399 O375 1.272 . S
C399 O393 1.272 . S
C400 O376 1.272 . S
C400 O391 1.272 . S
C401 O377 1.272 . S
C401 O390 1.272 . S
C402 O378 1.272 . S
C402 O389 1.272 . S
C403 O379 1.272 1_565 S
C403 O388 1.272 . S
C404 O380 1.272 . S
C404 O386 1.272 . S
C405 O381 1.272 1_565 S
C405 O387 1.272 . S
H406 O407 0.850 . S
O407 H406 0.850 . S
O407 Tb408 2.341 . S
O407 Tb409 2.341 . S
O407 Tb410 2.341 . S
Tb408 O407 2.341 . S
Tb408 O411 2.341 . S
Tb408 O412 2.341 . S
Tb408 O413 2.341 . S
Tb408 O428 2.344 . S
Tb408 O431 2.344 . S
Tb408 O444 2.344 . S
Tb408 O447 2.344 . S
Tb409 O407 2.341 . S
Tb409 O411 2.341 . S
Tb409 O414 2.341 . S
Tb409 O416 2.341 . S
Tb409 O432 2.344 . S
Tb409 O435 2.344 . S
Tb409 O440 2.344 . S
Tb409 O443 2.344 . S
Tb410 O407 2.341 . S
Tb410 O412 2.341 . S
Tb410 O415 2.341 . S
Tb410 O416 2.341 . S
Tb410 O436 2.344 . S
Tb410 O439 2.344 . S
Tb410 O449 2.344 . S
Tb410 O450 2.344 . S
O411 Tb408 2.341 . S
O411 Tb409 2.341 . S
O411 H417 0.850 . S
O411 Tb419 2.341 . S
O412 Tb408 2.341 . S
O412 Tb410 2.341 . S
O412 H418 0.850 . S
O412 Tb420 2.341 . S
O413 Tb408 2.341 . S
O413 Tb419 2.341 . S
O413 Tb420 2.341 . S
O413 H421 0.850 . S
O414 Tb409 2.341 . S
O414 Tb419 2.341 . S
O414 H422 0.850 . S
O414 Tb423 2.341 . S
O415 Tb410 2.341 . S
O415 Tb420 2.341 . S
O415 Tb423 2.341 . S
O415 H424 0.850 . S
O416 Tb409 2.341 . S
O416 Tb410 2.341 . S
O416 Tb423 2.341 . S
O416 H425 0.850 . S
H417 O411 0.850 . S
H418 O412 0.850 . S
Tb419 O411 2.341 . S
Tb419 O413 2.341 . S
Tb419 O414 2.341 . S
Tb419 O426 2.341 . S
Tb419 O437 2.344 . S
Tb419 O438 2.344 . S
Tb419 O448 2.344 . S
Tb419 O451 2.344 . S
Tb420 O412 2.341 . S
Tb420 O413 2.341 . S
Tb420 O415 2.341 . S
Tb420 O426 2.341 . S
Tb420 O433 2.344 . S
Tb420 O434 2.344 . S
Tb420 O441 2.344 . S
Tb420 O442 2.344 . S
H421 O413 0.850 . S
H422 O414 0.850 . S
Tb423 O414 2.341 . S
Tb423 O415 2.341 . S
Tb423 O416 2.341 . S
Tb423 O426 2.341 . S
Tb423 O429 2.344 . S
Tb423 O430 2.344 . S
Tb423 O445 2.344 . S
Tb423 O446 2.344 . S
H424 O415 0.850 . S
H425 O416 0.850 . S
O426 Tb419 2.341 . S
O426 Tb420 2.341 . S
O426 Tb423 2.341 . S
O426 H427 0.850 . S
H427 O426 0.850 . S
O428 Tb408 2.344 . S
O428 C452 1.272 . S
O429 Tb423 2.344 . S
O429 C453 1.272 . S
O430 Tb423 2.344 . S
O430 C454 1.272 . S
O431 Tb408 2.344 . S
O431 C455 1.272 . S
O432 Tb409 2.344 . S
O432 C456 1.272 . S
O433 Tb420 2.344 . S
O433 C457 1.272 . S
O434 Tb420 2.344 . S
O434 C458 1.272 . S
O435 Tb409 2.344 . S
O435 C459 1.272 . S
O436 Tb410 2.344 . S
O436 C460 1.272 . S
O437 Tb419 2.344 . S
O437 C461 1.272 . S
O438 Tb419 2.344 . S
O438 C462 1.272 . S
O439 Tb410 2.344 . S
O439 C463 1.272 . S
O440 Tb409 2.344 . S
O440 C452 1.272 . S
O441 Tb420 2.344 . S
O441 C453 1.272 . S
O442 Tb420 2.344 . S
O442 C455 1.272 . S
O443 Tb409 2.344 . S
O443 C454 1.272 . S
O444 Tb408 2.344 . S
O444 C462 1.272 . S
O445 Tb423 2.344 . S
O445 C463 1.272 . S
O446 Tb423 2.344 . S
O446 C461 1.272 . S
O447 Tb408 2.344 . S
O447 C460 1.272 . S
O448 Tb419 2.344 . S
O448 C459 1.272 . S
O449 Tb410 2.344 . S
O449 C458 1.272 . S
O450 Tb410 2.344 . S
O450 C456 1.272 . S
O451 Tb419 2.344 . S
O451 C457 1.272 . S
C452 O428 1.272 . S
C452 O440 1.272 . S
C453 O429 1.272 . S
C453 O441 1.272 . S
C454 O430 1.272 . S
C454 O443 1.272 . S
C455 O431 1.272 . S
C455 O442 1.272 . S
C456 O432 1.272 . S
C456 O450 1.272 . S
C457 O433 1.272 . S
C457 O451 1.272 . S
C458 O434 1.272 . S
C458 O449 1.272 . S
C459 O435 1.272 . S
C459 O448 1.272 . S
C460 O436 1.272 . S
C460 O447 1.272 . S
C461 O437 1.272 . S
C461 O446 1.272 . S
C462 O438 1.272 . S
C462 O444 1.272 . S
C463 O439 1.272 . S
C463 O445 1.272 . S
H464 O465 0.850 . S
O465 H464 0.850 . S
O465 Tb466 2.341 . S
O465 Tb467 2.341 1_655 S
O465 Tb468 2.341 . S
Tb466 O465 2.341 . S
Tb466 O469 2.341 . S
Tb466 O470 2.341 . S
Tb466 O471 2.341 . S
Tb466 O486 2.344 . S
Tb466 O489 2.344 . S
Tb466 O502 2.344 . S
Tb466 O505 2.344 . S
Tb467 O465 2.341 1_455 S
Tb467 O469 2.341 1_455 S
Tb467 O472 2.341 1_455 S
Tb467 O474 2.341 1_455 S
Tb467 O490 2.344 . S
Tb467 O493 2.344 . S
Tb467 O498 2.344 . S
Tb467 O501 2.344 . S
Tb468 O465 2.341 . S
Tb468 O470 2.341 . S
Tb468 O473 2.341 . S
Tb468 O474 2.341 . S
Tb468 O494 2.344 . S
Tb468 O497 2.344 . S
Tb468 O507 2.344 . S
Tb468 O508 2.344 . S
O469 Tb466 2.341 . S
O469 Tb467 2.341 1_655 S
O469 H475 0.850 . S
O469 Tb477 2.341 . S
O470 Tb466 2.341 . S
O470 Tb468 2.341 . S
O470 H476 0.850 . S
O470 Tb478 2.341 . S
O471 Tb466 2.341 . S
O471 Tb477 2.341 . S
O471 Tb478 2.341 . S
O471 H479 0.850 . S
O472 Tb467 2.341 1_655 S
O472 Tb477 2.341 . S
O472 H480 0.850 . S
O472 Tb481 2.341 . S
O473 Tb468 2.341 . S
O473 Tb478 2.341 . S
O473 Tb481 2.341 . S
O473 H482 0.850 . S
O474 Tb467 2.341 1_655 S
O474 Tb468 2.341 . S
O474 Tb481 2.341 . S
O474 H483 0.850 . S
H475 O469 0.850 . S
H476 O470 0.850 . S
Tb477 O469 2.341 . S
Tb477 O471 2.341 . S
Tb477 O472 2.341 . S
Tb477 O484 2.341 . S
Tb477 O495 2.344 . S
Tb477 O496 2.344 . S
Tb477 O506 2.344 . S
Tb477 O509 2.344 . S
Tb478 O470 2.341 . S
Tb478 O471 2.341 . S
Tb478 O473 2.341 . S
Tb478 O484 2.341 . S
Tb478 O491 2.344 . S
Tb478 O492 2.344 . S
Tb478 O499 2.344 . S
Tb478 O500 2.344 . S
H479 O471 0.850 . S
H480 O472 0.850 . S
Tb481 O472 2.341 . S
Tb481 O473 2.341 . S
Tb481 O474 2.341 . S
Tb481 O484 2.341 . S
Tb481 O487 2.344 . S
Tb481 O488 2.344 . S
Tb481 O503 2.344 . S
Tb481 O504 2.344 . S
H482 O473 0.850 . S
H483 O474 0.850 . S
O484 Tb477 2.341 . S
O484 Tb478 2.341 . S
O484 Tb481 2.341 . S
O484 H485 0.850 . S
H485 O484 0.850 . S
O486 Tb466 2.344 . S
O486 C510 1.272 1_655 S
O487 Tb481 2.344 . S
O487 C511 1.272 . S
O488 Tb481 2.344 . S
O488 C512 1.272 1_655 S
O489 Tb466 2.344 . S
O489 C513 1.272 . S
O490 Tb467 2.344 . S
O490 C514 1.272 . S
O491 Tb478 2.344 . S
O491 C515 1.272 . S
O492 Tb478 2.344 . S
O492 C516 1.272 . S
O493 Tb467 2.344 . S
O493 C517 1.272 . S
O494 Tb468 2.344 . S
O494 C518 1.272 . S
O495 Tb477 2.344 . S
O495 C519 1.272 . S
O496 Tb477 2.344 . S
O496 C520 1.272 . S
O497 Tb468 2.344 . S
O497 C521 1.272 . S
O498 Tb467 2.344 . S
O498 C510 1.272 . S
O499 Tb478 2.344 . S
O499 C511 1.272 . S
O500 Tb478 2.344 . S
O500 C513 1.272 . S
O501 Tb467 2.344 . S
O501 C512 1.272 . S
O502 Tb466 2.344 . S
O502 C520 1.272 . S
O503 Tb481 2.344 . S
O503 C521 1.272 . S
O504 Tb481 2.344 . S
O504 C519 1.272 . S
O505 Tb466 2.344 . S
O505 C518 1.272 . S
O506 Tb477 2.344 . S
O506 C517 1.272 1_655 S
O507 Tb468 2.344 . S
O507 C516 1.272 . S
O508 Tb468 2.344 . S
O508 C514 1.272 1_655 S
O509 Tb477 2.344 . S
O509 C515 1.272 . S
C510 O486 1.272 1_455 S
C510 O498 1.272 . S
C511 O487 1.272 . S
C511 O499 1.272 . S
C512 O488 1.272 1_455 S
C512 O501 1.272 . S
C513 O489 1.272 . S
C513 O500 1.272 . S
C514 O490 1.272 . S
C514 O508 1.272 1_455 S
C515 O491 1.272 . S
C515 O509 1.272 . S
C516 O492 1.272 . S
C516 O507 1.272 . S
C517 O493 1.272 . S
C517 O506 1.272 1_455 S
C518 O494 1.272 . S
C518 O505 1.272 . S
C519 O495 1.272 . S
C519 O504 1.272 . S
C520 O496 1.272 . S
C520 O502 1.272 . S
C521 O497 1.272 . S
C521 O503 1.272 . S
H522 O523 0.850 . S
O523 H522 0.850 . S
O523 Tb524 2.341 1_565 S
O523 Tb525 2.341 . S
O523 Tb526 2.341 . S
Tb524 O523 2.341 1_545 S
Tb524 O527 2.341 1_545 S
Tb524 O528 2.341 1_545 S
Tb524 O529 2.341 1_545 S
Tb524 O544 2.344 . S
Tb524 O547 2.344 . S
Tb524 O560 2.344 . S
Tb524 O563 2.344 . S
Tb525 O523 2.341 . S
Tb525 O527 2.341 . S
Tb525 O530 2.341 . S
Tb525 O532 2.341 . S
Tb525 O548 2.344 . S
Tb525 O551 2.344 . S
Tb525 O556 2.344 . S
Tb525 O559 2.344 . S
Tb526 O523 2.341 . S
Tb526 O528 2.341 . S
Tb526 O531 2.341 . S
Tb526 O532 2.341 . S
Tb526 O552 2.344 . S
Tb526 O555 2.344 . S
Tb526 O565 2.344 . S
Tb526 O566 2.344 . S
O527 Tb524 2.341 1_565 S
O527 Tb525 2.341 . S
O527 H533 0.850 . S
O527 Tb535 2.341 . S
O528 Tb524 2.341 1_565 S
O528 Tb526 2.341 . S
O528 H534 0.850 . S
O528 Tb536 2.341 . S
O529 Tb524 2.341 1_565 S
O529 Tb535 2.341 . S
O529 Tb536 2.341 . S
O529 H537 0.850 . S
O530 Tb525 2.341 . S
O530 Tb535 2.341 . S
O530 H538 0.850 . S
O530 Tb539 2.341 . S
O531 Tb526 2.341 . S
O531 Tb536 2.341 . S
O531 Tb539 2.341 . S
O531 H540 0.850 . S
O532 Tb525 2.341 . S
O532 Tb526 2.341 . S
O532 Tb539 2.341 . S
O532 H541 0.850 . S
H533 O527 0.850 . S
H534 O528 0.850 . S
Tb535 O527 2.341 . S
Tb535 O529 2.341 . S
Tb535 O530 2.341 . S
Tb535 O542 2.341 . S
Tb535 O553 2.344 . S
Tb535 O554 2.344 . S
Tb535 O564 2.344 . S
Tb535 O567 2.344 . S
Tb536 O528 2.341 . S
Tb536 O529 2.341 . S
Tb536 O531 2.341 . S
Tb536 O542 2.341 . S
Tb536 O549 2.344 . S
Tb536 O550 2.344 . S
Tb536 O557 2.344 . S
Tb536 O558 2.344 . S
H537 O529 0.850 . S
H538 O530 0.850 . S
Tb539 O530 2.341 . S
Tb539 O531 2.341 . S
Tb539 O532 2.341 . S
Tb539 O542 2.341 . S
Tb539 O545 2.344 . S
Tb539 O546 2.344 . S
Tb539 O561 2.344 . S
Tb539 O562 2.344 . S
H540 O531 0.850 . S
H541 O532 0.850 . S
O542 Tb535 2.341 . S
O542 Tb536 2.341 . S
O542 Tb539 2.341 . S
O542 H543 0.850 . S
H543 O542 0.850 . S
O544 Tb524 2.344 . S
O544 C568 1.272 . S
O545 Tb539 2.344 . S
O545 C569 1.272 . S
O546 Tb539 2.344 . S
O546 C570 1.272 . S
O547 Tb524 2.344 . S
O547 C571 1.272 . S
O548 Tb525 2.344 . S
O548 C572 1.272 . S
O549 Tb536 2.344 . S
O549 C573 1.272 . S
O550 Tb536 2.344 . S
O550 C574 1.272 . S
O551 Tb525 2.344 . S
O551 C575 1.272 . S
O552 Tb526 2.344 . S
O552 C576 1.272 1_565 S
O553 Tb535 2.344 . S
O553 C577 1.272 . S
O554 Tb535 2.344 . S
O554 C578 1.272 1_565 S
O555 Tb526 2.344 . S
O555 C579 1.272 . S
O556 Tb525 2.344 . S
O556 C568 1.272 1_565 S
O557 Tb536 2.344 . S
O557 C569 1.272 . S
O558 Tb536 2.344 . S
O558 C571 1.272 1_565 S
O559 Tb525 2.344 . S
O559 C570 1.272 . S
O560 Tb524 2.344 . S
O560 C578 1.272 . S
O561 Tb539 2.344 . S
O561 C579 1.272 . S
O562 Tb539 2.344 . S
O562 C577 1.272 . S
O563 Tb524 2.344 . S
O563 C576 1.272 . S
O564 Tb535 2.344 . S
O564 C575 1.272 . S
O565 Tb526 2.344 . S
O565 C574 1.272 . S
O566 Tb526 2.344 . S
O566 C572 1.272 . S
O567 Tb535 2.344 . S
O567 C573 1.272 . S
C568 O544 1.272 . S
C568 O556 1.272 1_545 S
C569 O545 1.272 . S
C569 O557 1.272 . S
C570 O546 1.272 . S
C570 O559 1.272 . S
C571 O547 1.272 . S
C571 O558 1.272 1_545 S
C572 O548 1.272 . S
C572 O566 1.272 . S
C573 O549 1.272 . S
C573 O567 1.272 . S
C574 O550 1.272 . S
C574 O565 1.272 . S
C575 O551 1.272 . S
C575 O564 1.272 . S
C576 O552 1.272 1_545 S
C576 O563 1.272 . S
C577 O553 1.272 . S
C577 O562 1.272 . S
C578 O554 1.272 1_545 S
C578 O560 1.272 . S
C579 O555 1.272 . S
C579 O561 1.272 . S
H580 O581 0.850 . S
O581 H580 0.850 . S
O581 Tb582 2.341 1_565 S
O581 Tb583 2.341 . S
O581 Tb584 2.341 . S
Tb582 O581 2.341 1_545 S
Tb582 O585 2.341 . S
Tb582 O586 2.341 1_545 S
Tb582 O587 2.341 . S
Tb582 O602 2.344 1_545 S
Tb582 O605 2.344 . S
Tb582 O618 2.344 . S
Tb582 O621 2.344 1_545 S
Tb583 O581 2.341 . S
Tb583 O585 2.341 1_565 S
Tb583 O588 2.341 1_565 S
Tb583 O590 2.341 . S
Tb583 O606 2.344 . S
Tb583 O609 2.344 1_565 S
Tb583 O614 2.344 . S
Tb583 O617 2.344 . S
Tb584 O581 2.341 . S
Tb584 O586 2.341 . S
Tb584 O589 2.341 . S
Tb584 O590 2.341 . S
Tb584 O610 2.344 . S
Tb584 O613 2.344 . S
Tb584 O623 2.344 . S
Tb584 O624 2.344 . S
O585 Tb582 2.341 . S
O585 Tb583 2.341 1_545 S
O585 H591 0.850 . S
O585 Tb593 2.341 . S
O586 Tb582 2.341 1_565 S
O586 Tb584 2.341 . S
O586 H592 0.850 . S
O586 Tb594 2.341 1_565 S
O587 Tb582 2.341 . S
O587 Tb593 2.341 . S
O587 Tb594 2.341 . S
O587 H595 0.850 . S
O588 Tb583 2.341 1_545 S
O588 Tb593 2.341 . S
O588 H596 0.850 . S
O588 Tb597 2.341 1_455 S
O589 Tb584 2.341 . S
O589 Tb594 2.341 1_565 S
O589 Tb597 2.341 1_465 S
O589 H598 0.850 . S
O590 Tb583 2.341 . S
O590 Tb584 2.341 . S
O590 Tb597 2.341 1_465 S
O590 H599 0.850 . S
H591 O585 0.850 . S
H592 O586 0.850 . S
Tb593 O585 2.341 . S
Tb593 O587 2.341 . S
Tb593 O588 2.341 . S
Tb593 O600 2.341 . S
Tb593 O611 2.344 . S
Tb593 O612 2.344 . S
Tb593 O622 2.344 . S
Tb593 O625 2.344 . S
Tb594 O586 2.341 1_545 S
Tb594 O587 2.341 . S
Tb594 O589 2.341 1_545 S
Tb594 O600 2.341 . S
Tb594 O607 2.344 . S
Tb594 O608 2.344 1_545 S
Tb594 O615 2.344 . S
Tb594 O616 2.344 . S
H595 O587 0.850 . S
H596 O588 0.850 . S
Tb597 O588 2.341 1_655 S
Tb597 O589 2.341 1_645 S
Tb597 O590 2.341 1_645 S
Tb597 O600 2.341 1_655 S
Tb597 O603 2.344 . S
Tb597 O604 2.344 1_545 S
Tb597 O619 2.344 1_545 S
Tb597 O620 2.344 . S
H598 O589 0.850 . S
H599 O590 0.850 . S
O600 Tb593 2.341 . S
O600 Tb594 2.341 . S
O600 Tb597 2.341 1_455 S
O600 H601 0.850 . S
H601 O600 0.850 . S
O602 Tb582 2.344 1_565 S
O602 C626 1.272 . S
O603 Tb597 2.344 . S
O603 C627 1.272 . S
O604 Tb597 2.344 1_565 S
O604 C628 1.272 . S
O605 Tb582 2.344 . S
O605 C629 1.272 . S
O606 Tb583 2.344 . S
O606 C630 1.272 . S
O607 Tb594 2.344 . S
O607 C631 1.272 . S
O608 Tb594 2.344 1_565 S
O608 C632 1.272 . S
O609 Tb583 2.344 1_545 S
O609 C633 1.272 . S
O610 Tb584 2.344 . S
O610 C634 1.272 . S
O611 Tb593 2.344 . S
O611 C635 1.272 1_455 S
O612 Tb593 2.344 . S
O612 C636 1.272 . S
O613 Tb584 2.344 . S
O613 C637 1.272 1_455 S
O614 Tb583 2.344 . S
O614 C626 1.272 . S
O615 Tb594 2.344 . S
O615 C627 1.272 1_455 S
O616 Tb594 2.344 . S
O616 C629 1.272 . S
O617 Tb583 2.344 . S
O617 C628 1.272 1_455 S
O618 Tb582 2.344 . S
O618 C636 1.272 . S
O619 Tb597 2.344 1_565 S
O619 C637 1.272 . S
O620 Tb597 2.344 . S
O620 C635 1.272 . S
O621 Tb582 2.344 1_565 S
O621 C634 1.272 . S
O622 Tb593 2.344 . S
O622 C633 1.272 . S
O623 Tb584 2.344 . S
O623 C632 1.272 . S
O624 Tb584 2.344 . S
O624 C630 1.272 . S
O625 Tb593 2.344 . S
O625 C631 1.272 . S
C626 O602 1.272 . S
C626 O614 1.272 . S
C627 O603 1.272 . S
C627 O615 1.272 1_655 S
C628 O604 1.272 . S
C628 O617 1.272 1_655 S
C629 O605 1.272 . S
C629 O616 1.272 . S
C630 O606 1.272 . S
C630 O624 1.272 . S
C631 O607 1.272 . S
C631 O625 1.272 . S
C632 O608 1.272 . S
C632 O623 1.272 . S
C633 O609 1.272 . S
C633 O622 1.272 . S
C634 O610 1.272 . S
C634 O621 1.272 . S
C635 O611 1.272 1_655 S
C635 O620 1.272 . S
C636 O612 1.272 . S
C636 O618 1.272 . S
C637 O613 1.272 1_655 S
C637 O619 1.272 . S
H638 O639 0.850 . S
O639 H638 0.850 . S
O639 Tb640 2.341 . S
O639 Tb641 2.341 . S
O639 Tb642 2.341 . S
Tb640 O639 2.341 . S
Tb640 O643 2.341 . S
Tb640 O644 2.341 . S
Tb640 O645 2.341 . S
Tb640 O660 2.344 . S
Tb640 O663 2.344 . S
Tb640 O676 2.344 . S
Tb640 O679 2.344 . S
Tb641 O639 2.341 . S
Tb641 O643 2.341 . S
Tb641 O646 2.341 . S
Tb641 O648 2.341 . S
Tb641 O664 2.344 . S
Tb641 O667 2.344 . S
Tb641 O672 2.344 . S
Tb641 O675 2.344 . S
Tb642 O639 2.341 . S
Tb642 O644 2.341 . S
Tb642 O647 2.341 . S
Tb642 O648 2.341 . S
Tb642 O668 2.344 . S
Tb642 O671 2.344 . S
Tb642 O681 2.344 . S
Tb642 O682 2.344 . S
O643 Tb640 2.341 . S
O643 Tb641 2.341 . S
O643 H649 0.850 . S
O643 Tb651 2.341 . S
O644 Tb640 2.341 . S
O644 Tb642 2.341 . S
O644 H650 0.850 . S
O644 Tb652 2.341 . S
O645 Tb640 2.341 . S
O645 Tb651 2.341 . S
O645 Tb652 2.341 . S
O645 H653 0.850 . S
O646 Tb641 2.341 . S
O646 Tb651 2.341 . S
O646 H654 0.850 . S
O646 Tb655 2.341 . S
O647 Tb642 2.341 . S
O647 Tb652 2.341 . S
O647 Tb655 2.341 . S
O647 H656 0.850 . S
O648 Tb641 2.341 . S
O648 Tb642 2.341 . S
O648 Tb655 2.341 . S
O648 H657 0.850 . S
H649 O643 0.850 . S
H650 O644 0.850 . S
Tb651 O643 2.341 . S
Tb651 O645 2.341 . S
Tb651 O646 2.341 . S
Tb651 O658 2.341 . S
Tb651 O669 2.344 . S
Tb651 O670 2.344 . S
Tb651 O680 2.344 . S
Tb651 O683 2.344 . S
Tb652 O644 2.341 . S
Tb652 O645 2.341 . S
Tb652 O647 2.341 . S
Tb652 O658 2.341 . S
Tb652 O665 2.344 . S
Tb652 O666 2.344 . S
Tb652 O673 2.344 . S
Tb652 O674 2.344 . S
H653 O645 0.850 . S
H654 O646 0.850 . S
Tb655 O646 2.341 . S
Tb655 O647 2.341 . S
Tb655 O648 2.341 . S
Tb655 O658 2.341 . S
Tb655 O661 2.344 . S
Tb655 O662 2.344 . S
Tb655 O677 2.344 . S
Tb655 O678 2.344 . S
H656 O647 0.850 . S
H657 O648 0.850 . S
O658 Tb651 2.341 . S
O658 Tb652 2.341 . S
O658 Tb655 2.341 . S
O658 H659 0.850 . S
H659 O658 0.850 . S
O660 Tb640 2.344 . S
O660 C684 1.272 . S
O661 Tb655 2.344 . S
O661 C685 1.272 . S
O662 Tb655 2.344 . S
O662 C686 1.272 . S
O663 Tb640 2.344 . S
O663 C687 1.272 . S
O664 Tb641 2.344 . S
O664 C688 1.272 . S
O665 Tb652 2.344 . S
O665 C689 1.272 . S
O666 Tb652 2.344 . S
O666 C690 1.272 . S
O667 Tb641 2.344 . S
O667 C691 1.272 . S
O668 Tb642 2.344 . S
O668 C692 1.272 . S
O669 Tb651 2.344 . S
O669 C693 1.272 . S
O670 Tb651 2.344 . S
O670 C694 1.272 . S
O671 Tb642 2.344 . S
O671 C695 1.272 . S
O672 Tb641 2.344 . S
O672 C684 1.272 . S
O673 Tb652 2.344 . S
O673 C685 1.272 . S
O674 Tb652 2.344 . S
O674 C687 1.272 . S
O675 Tb641 2.344 . S
O675 C686 1.272 . S
O676 Tb640 2.344 . S
O676 C694 1.272 . S
O677 Tb655 2.344 . S
O677 C695 1.272 . S
O678 Tb655 2.344 . S
O678 C693 1.272 . S
O679 Tb640 2.344 . S
O679 C692 1.272 . S
O680 Tb651 2.344 . S
O680 C691 1.272 . S
O681 Tb642 2.344 . S
O681 C690 1.272 . S
O682 Tb642 2.344 . S
O682 C688 1.272 . S
O683 Tb651 2.344 . S
O683 C689 1.272 . S
C684 O660 1.272 . S
C684 O672 1.272 . S
C685 O661 1.272 . S
C685 O673 1.272 . S
C686 O662 1.272 . S
C686 O675 1.272 . S
C687 O663 1.272 . S
C687 O674 1.272 . S
C688 O664 1.272 . S
C688 O682 1.272 . S
C689 O665 1.272 . S
C689 O683 1.272 . S
C690 O666 1.272 . S
C690 O681 1.272 . S
C691 O667 1.272 . S
C691 O680 1.272 . S
C692 O668 1.272 . S
C692 O679 1.272 . S
C693 O669 1.272 . S
C693 O678 1.272 . S
C694 O670 1.272 . S
C694 O676 1.272 . S
C695 O671 1.272 . S
C695 O677 1.272 . S
C283 C48 2.176 . S
C343 C112 2.176 . S
C47 C399 2.175 . S
C231 C114 2.175 . S
C456 C172 2.177 . S
C164 C520 2.178 . S
C170 C572 2.175 . S
C632 C163 2.174 . S
C50 C225 2.176 . S
C110 C286 2.178 . S
C344 C51 2.177 . S
C111 C396 2.178 . S
C167 C226 2.175 . S
C288 C169 2.175 . S
C346 C166 2.177 . S
C395 C168 2.174 . S
C279 C229 2.176 . S
C460 C228 2.177 . S
C510 C285 2.175 . S
C341 C570 2.176 . S
C458 C337 2.176 . S
C630 C462 2.177 . S
C512 C459 2.176 . S
C628 C574 2.178 . S
C573 C106 2.176 . S
C54 C633 2.175 . S
C105 C457 2.176 . S
C56 C521 2.178 . S
C398 C694 2.177 . S
C686 C230 2.177 . S
C282 C692 2.177 . S
C342 C685 2.176 . S
C515 C108 2.176 . S
C52 C576 2.175 . S
C634 C109 2.175 . S
C454 C53 2.177 . S
C689 C516 2.176 . S
C691 C578 2.176 . S
C636 C688 2.177 . S
C453 C690 2.176 . S
C569 C519 2.176 . S
C402 C518 2.175 . S
C220 C575 2.178 . S
C631 C280 2.175 . S
C400 C627 2.174 . S
C340 C404 2.177 . S
C401 C222 2.175 . S
C338 C284 2.177 . S
C162 C55 4.161 . S
C104 C173 4.163 1_554 S
C57 C165 4.161 1_545 S
C107 C171 4.159 1_554 S
C223 C626 4.161 . S
C278 C461 4.163 . S
C511 C339 4.161 . S
C405 C571 4.163 1_565 S
C221 C629 4.161 1_554 S
C463 C281 4.159 . S
C336 C513 4.161 1_554 S
C403 C568 4.159 1_565 S
C394 C289 4.161 . S
C577 C455 4.161 . S
C514 C635 4.159 1_455 S
C345 C224 4.163 . S
C579 C452 4.161 1_655 S
C637 C517 4.163 1_655 S
C684 C113 4.161 1_545 S
C46 C695 4.159 . S
C115 C687 4.161 . S
C693 C49 4.163 . S
C287 C397 4.161 1_455 S
C227 C347 4.159 . S
