# Generated by pormake.
# Topology zfw, (5)-cn, num edge types: 1
# Building blocks:
#     Node 0, Type 0, BuildingBlock: XOMCOT_clean_sbu_1, # of connection points: 5
#     Node 1, Type 0, BuildingBlock: XOMCOT_clean_sbu_1, # of connection points: 5
#     Node 2, Type 0, BuildingBlock: XOMCOT_clean_sbu_1, # of connection points: 5
#     Node 3, Type 0, BuildingBlock: XOMCOT_clean_sbu_1, # of connection points: 5
#     Node 4, Type 0, BuildingBlock: XOMCOT_clean_sbu_1, # of connection points: 5
#     Node 5, Type 0, BuildingBlock: XOMCOT_clean_sbu_1, # of connection points: 5
#     Node 6, Type 0, BuildingBlock: XOMCOT_clean_sbu_1, # of connection points: 5
#     Node 7, Type 0, BuildingBlock: XOMCOT_clean_sbu_1, # of connection points: 5
#     Node 8, Type 0, BuildingBlock: XOMCOT_clean_sbu_1, # of connection points: 5
#     Node 9, Type 0, BuildingBlock: XOMCOT_clean_sbu_1, # of connection points: 5
#     Node 10, Type 0, BuildingBlock: XOMCOT_clean_sbu_1, # of connection points: 5
#     Node 11, Type 0, BuildingBlock: XOMCOT_clean_sbu_1, # of connection points: 5
#     Node 12, Type 0, BuildingBlock: XOMCOT_clean_sbu_1, # of connection points: 5
#     Node 13, Type 0, BuildingBlock: XOMCOT_clean_sbu_1, # of connection points: 5
#     Node 14, Type 0, BuildingBlock: XOMCOT_clean_sbu_1, # of connection points: 5
#     Node 15, Type 0, BuildingBlock: XOMCOT_clean_sbu_1, # of connection points: 5
#     Edge 16, Type (0, 0), BuildingBlock: CIFDUS_clean_linker_0, # of connection points: 2
#     Edge 17, Type (0, 0), BuildingBlock: CIFDUS_clean_linker_0, # of connection points: 2
#     Edge 18, Type (0, 0), BuildingBlock: CIFDUS_clean_linker_0, # of connection points: 2
#     Edge 19, Type (0, 0), BuildingBlock: CIFDUS_clean_linker_0, # of connection points: 2
#     Edge 20, Type (0, 0), BuildingBlock: CIFDUS_clean_linker_0, # of connection points: 2
#     Edge 21, Type (0, 0), BuildingBlock: CIFDUS_clean_linker_0, # of connection points: 2
#     Edge 22, Type (0, 0), BuildingBlock: CIFDUS_clean_linker_0, # of connection points: 2
#     Edge 23, Type (0, 0), BuildingBlock: CIFDUS_clean_linker_0, # of connection points: 2
#     Edge 24, Type (0, 0), BuildingBlock: CIFDUS_clean_linker_0, # of connection points: 2
#     Edge 25, Type (0, 0), BuildingBlock: CIFDUS_clean_linker_0, # of connection points: 2
#     Edge 26, Type (0, 0), BuildingBlock: CIFDUS_clean_linker_0, # of connection points: 2
#     Edge 27, Type (0, 0), BuildingBlock: CIFDUS_clean_linker_0, # of connection points: 2
#     Edge 28, Type (0, 0), BuildingBlock: CIFDUS_clean_linker_0, # of connection points: 2
#     Edge 29, Type (0, 0), BuildingBlock: CIFDUS_clean_linker_0, # of connection points: 2
#     Edge 30, Type (0, 0), BuildingBlock: CIFDUS_clean_linker_0, # of connection points: 2
#     Edge 31, Type (0, 0), BuildingBlock: CIFDUS_clean_linker_0, # of connection points: 2
#     Edge 32, Type (0, 0), BuildingBlock: CIFDUS_clean_linker_0, # of connection points: 2
#     Edge 33, Type (0, 0), BuildingBlock: CIFDUS_clean_linker_0, # of connection points: 2
#     Edge 34, Type (0, 0), BuildingBlock: CIFDUS_clean_linker_0, # of connection points: 2
#     Edge 35, Type (0, 0), BuildingBlock: CIFDUS_clean_linker_0, # of connection points: 2
#     Edge 36, Type (0, 0), BuildingBlock: CIFDUS_clean_linker_0, # of connection points: 2
#     Edge 37, Type (0, 0), BuildingBlock: CIFDUS_clean_linker_0, # of connection points: 2
#     Edge 38, Type (0, 0), BuildingBlock: CIFDUS_clean_linker_0, # of connection points: 2
#     Edge 39, Type (0, 0), BuildingBlock: CIFDUS_clean_linker_0, # of connection points: 2
#     Edge 40, Type (0, 0), BuildingBlock: CIFDUS_clean_linker_0, # of connection points: 2
#     Edge 41, Type (0, 0), BuildingBlock: CIFDUS_clean_linker_0, # of connection points: 2
#     Edge 42, Type (0, 0), BuildingBlock: CIFDUS_clean_linker_0, # of connection points: 2
#     Edge 43, Type (0, 0), BuildingBlock: CIFDUS_clean_linker_0, # of connection points: 2
#     Edge 44, Type (0, 0), BuildingBlock: CIFDUS_clean_linker_0, # of connection points: 2
#     Edge 45, Type (0, 0), BuildingBlock: CIFDUS_clean_linker_0, # of connection points: 2
#     Edge 46, Type (0, 0), BuildingBlock: CIFDUS_clean_linker_0, # of connection points: 2
#     Edge 47, Type (0, 0), BuildingBlock: CIFDUS_clean_linker_0, # of connection points: 2
#     Edge 48, Type (0, 0), BuildingBlock: CIFDUS_clean_linker_0, # of connection points: 2
#     Edge 49, Type (0, 0), BuildingBlock: CIFDUS_clean_linker_0, # of connection points: 2
#     Edge 50, Type (0, 0), BuildingBlock: CIFDUS_clean_linker_0, # of connection points: 2
#     Edge 51, Type (0, 0), BuildingBlock: CIFDUS_clean_linker_0, # of connection points: 2
#     Edge 52, Type (0, 0), BuildingBlock: CIFDUS_clean_linker_0, # of connection points: 2
#     Edge 53, Type (0, 0), BuildingBlock: CIFDUS_clean_linker_0, # of connection points: 2
#     Edge 54, Type (0, 0), BuildingBlock: CIFDUS_clean_linker_0, # of connection points: 2
#     Edge 55, Type (0, 0), BuildingBlock: CIFDUS_clean_linker_0, # of connection points: 2
# Relax obj value: 0.250
# Max RMSD: 0.201
# Mean RMSD: 0.189
data_MOF--net-zfw--node1-XOMCOT_clean_sbu_1--edge1-CIFDUS_clean_linker_0
_symmetry_space_group_name_H-M    P1
_symmetry_Int_Tables_number       1
_symmetry_cell_setting            triclinic
loop_
_symmetry_equiv_pos_as_xyz
'x, y, z'
_cell_length_a     62.583739
_cell_length_b     62.097979
_cell_length_c     15.212676
_cell_angle_alpha  89.988092
_cell_angle_beta   89.931489
_cell_angle_gamma 90.003622
loop_
_atom_site_label
_atom_site_type_symbol
_atom_site_fract_x
_atom_site_fract_y
_atom_site_fract_z
_atom_type_partial_charge
C0 C 0.08057 0.08064 0.26848 0.0
C1 C 0.07969 0.07622 0.35696 0.0
N2 N 0.09976 0.07678 0.38937 0.0
N3 N 0.10106 0.08402 0.24528 0.0
C4 C 0.11239 0.08079 0.31935 0.0
H5 H 0.06706 0.08278 0.22506 0.0
Co6 Co 0.10994 0.09555 0.13886 0.0
C7 C 0.15538 0.10803 0.1895 0.0
O8 O 0.16539 0.09896 0.12321 0.0
N9 N 0.11813 0.10645 0.0317 0.0
C10 C 0.13122 0.12324 0.91442 0.0
C11 C 0.13123 0.12249 0.00522 0.0
C12 C 0.11012 0.09806 0.95733 0.0
N13 N 0.11784 0.10786 0.88548 0.0
O14 O 0.12458 0.06927 0.11058 0.0
H15 H 0.1399 0.13314 0.04861 0.0
H16 H 0.09861 0.08505 0.956 0.0
O17 O 0.1351 0.10712 0.1951 0.0
C18 C 0.11281 0.05305 0.09422 0.0
O19 O 0.092 0.05482 0.10266 0.0
N20 N 0.09491 0.12113 0.16464 0.0
C21 C 0.06981 0.15714 0.20529 0.0
C22 C 0.08597 0.15012 0.26246 0.0
C23 C 0.09831 0.13219 0.24093 0.0
C24 C 0.07922 0.12753 0.10827 0.0
C25 C 0.06668 0.14564 0.12669 0.0
H26 H 0.11004 0.12676 0.28774 0.0
H27 H 0.07615 0.11838 0.04917 0.0
H28 H 0.12945 0.083 0.32324 0.0
H29 H 0.06524 0.07411 0.39507 0.0
H30 H 0.1398 0.13451 0.87311 0.0
H31 H 0.08864 0.15789 0.3252 0.0
H32 H 0.05454 0.15042 0.07999 0.0
C33 C 0.28008 0.76031 0.6121 0.0
C34 C 0.28328 0.75977 0.70167 0.0
N35 N 0.26718 0.77053 0.74064 0.0
N36 N 0.26213 0.77157 0.59439 0.0
C37 C 0.25471 0.77753 0.67432 0.0
H38 H 0.29006 0.75246 0.56397 0.0
Co39 Co 0.24844 0.77657 0.48648 0.0
C40 C 0.23794 0.82312 0.50384 0.0
O41 O 0.24472 0.82774 0.4243 0.0
N42 N 0.23435 0.78143 0.37904 0.0
C43 C 0.21152 0.79209 0.2755 0.0
C44 C 0.21536 0.79116 0.36468 0.0
C45 C 0.24131 0.77604 0.29791 0.0
N46 N 0.22805 0.78271 0.23365 0.0
O47 O 0.27406 0.78972 0.43946 0.0
H48 H 0.20511 0.79758 0.41561 0.0
H49 H 0.25571 0.76709 0.28542 0.0
O50 O 0.23863 0.80384 0.5321 0.0
C51 C 0.28551 0.77535 0.40238 0.0
O52 O 0.27924 0.75518 0.40787 0.0
N53 N 0.22434 0.76213 0.52854 0.0
C54 C 0.1929 0.7341 0.59071 0.0
C55 C 0.19185 0.75627 0.60914 0.0
C56 C 0.20773 0.77011 0.57695 0.0
C57 C 0.22525 0.74087 0.50773 0.0
C58 C 0.20968 0.72661 0.53756 0.0
H59 H 0.20685 0.78702 0.59302 0.0
H60 H 0.23843 0.73493 0.46859 0.0
H61 H 0.24024 0.78671 0.68404 0.0
H62 H 0.29606 0.75146 0.7355 0.0
H63 H 0.19793 0.7996 0.24407 0.0
H64 H 0.17926 0.76279 0.65011 0.0
H65 H 0.21091 0.70979 0.51945 0.0
C66 C 0.572 0.94635 0.91987 0.0
C67 C 0.57242 0.94968 0.00924 0.0
N68 N 0.56134 0.93374 0.04816 0.0
N69 N 0.56046 0.92849 0.90203 0.0
C70 C 0.55423 0.92123 0.98188 0.0
H71 H 0.58039 0.95603 0.87225 0.0
Co72 Co 0.55628 0.91442 0.79414 0.0
C73 C 0.51034 0.90337 0.8056 0.0
O74 O 0.50658 0.91112 0.72675 0.0
N75 N 0.55235 0.90012 0.68693 0.0
C76 C 0.54277 0.8769 0.58283 0.0
C77 C 0.54347 0.88065 0.67204 0.0
C78 C 0.55742 0.90756 0.60617 0.0
N79 N 0.55145 0.89399 0.54141 0.0
O80 O 0.54277 0.93975 0.74624 0.0
H81 H 0.53737 0.87005 0.72259 0.0
H82 H 0.56545 0.92265 0.59468 0.0
O83 O 0.52917 0.90388 0.83719 0.0
C84 C 0.55643 0.95278 0.71409 0.0
O85 O 0.57678 0.94767 0.71715 0.0
N86 N 0.5709 0.89055 0.83811 0.0
C87 C 0.59876 0.86008 0.90871 0.0
C88 C 0.5766 0.85825 0.92155 0.0
C89 C 0.56285 0.87367 0.88541 0.0
C90 C 0.59222 0.89215 0.82232 0.0
C91 C 0.60643 0.87708 0.85662 0.0
H92 H 0.54592 0.87227 0.89785 0.0
H93 H 0.59823 0.90558 0.7843 0.0
H94 H 0.54503 0.90669 0.99154 0.0
H95 H 0.58108 0.96229 0.04305 0.0
H96 H 0.53582 0.86297 0.55117 0.0
H97 H 0.56998 0.84544 0.96152 0.0
H98 H 0.62332 0.8789 0.84308 0.0
C99 C 0.38851 0.23235 0.09417 0.0
C100 C 0.38493 0.23168 0.18363 0.0
N101 N 0.40229 0.22312 0.22278 0.0
N102 N 0.40798 0.22409 0.07676 0.0
C103 C 0.41588 0.21862 0.15628 0.0
H104 H 0.37787 0.23915 0.04564 0.0
Co105 Co 0.42273 0.22303 0.96977 0.0
C106 C 0.43898 0.17729 0.97099 0.0
O107 O 0.43605 0.17363 0.88688 0.0
N108 N 0.4379 0.22227 0.86014 0.0
C109 C 0.46015 0.23085 0.7506 0.0
C110 C 0.45644 0.23235 0.83938 0.0
C111 C 0.43099 0.21451 0.78167 0.0
N112 N 0.44395 0.21985 0.71408 0.0
O113 O 0.39833 0.20982 0.91563 0.0
H114 H 0.46629 0.24147 0.884 0.0
H115 H 0.41641 0.20548 0.77294 0.0
O116 O 0.43413 0.19549 0.00407 0.0
C117 C 0.38773 0.2242 0.87479 0.0
O118 O 0.39463 0.24419 0.87767 0.0
N119 N 0.44544 0.2376 0.02333 0.0
C120 C 0.475 0.26461 0.10498 0.0
C121 C 0.47877 0.24235 0.09877 0.0
C122 C 0.46378 0.22905 0.05743 0.0
C123 C 0.44161 0.25913 0.02799 0.0
C124 C 0.45617 0.27293 0.06814 0.0
H125 H 0.46697 0.212 0.0533 0.0
H126 H 0.42704 0.26557 0.00027 0.0
H127 H 0.43168 0.21206 0.16524 0.0
H128 H 0.371 0.23793 0.21721 0.0
H129 H 0.47302 0.23859 0.71504 0.0
H130 H 0.49302 0.23521 0.12665 0.0
H131 H 0.45274 0.29001 0.0695 0.0
C132 C 0.09603 0.94904 0.63234 0.0
C133 C 0.09471 0.95283 0.54308 0.0
N134 N 0.10442 0.93645 0.50075 0.0
N135 N 0.10672 0.9305 0.64591 0.0
C136 C 0.1116 0.92326 0.56466 0.0
H137 H 0.08934 0.95894 0.68398 0.0
Co138 Co 0.11175 0.91681 0.75255 0.0
C139 C 0.15748 0.90428 0.73484 0.0
O140 O 0.1622 0.91042 0.81514 0.0
N141 N 0.11623 0.90321 0.85971 0.0
C142 C 0.1243 0.88035 0.96669 0.0
C143 C 0.12422 0.88351 0.87713 0.0
C144 C 0.11126 0.91156 0.93905 0.0
N145 N 0.11615 0.89805 0.00576 0.0
O146 O 0.12545 0.94207 0.79809 0.0
H147 H 0.12978 0.87223 0.82802 0.0
H148 H 0.10385 0.92716 0.94723 0.0
O149 O 0.13846 0.90612 0.70611 0.0
C150 C 0.13798 0.95704 0.77318 0.0
O151 O 0.14588 0.95687 0.69314 0.0
N152 N 0.09682 0.89276 0.71223 0.0
C153 C 0.06864 0.8608 0.65624 0.0
C154 C 0.0905 0.85958 0.63564 0.0
C155 C 0.10442 0.87574 0.6646 0.0
C156 C 0.07582 0.89392 0.73468 0.0
C157 C 0.06148 0.8781 0.70786 0.0
H158 H 0.1211 0.87466 0.64706 0.0
H159 H 0.07019 0.90744 0.77312 0.0
H160 H 0.12015 0.90844 0.55244 0.0
H161 H 0.08667 0.96623 0.51186 0.0
H162 H 0.13023 0.8662 0.00022 0.0
H163 H 0.09672 0.84661 0.59553 0.0
H164 H 0.04488 0.87951 0.72718 0.0
C165 C 0.3889 0.75525 0.85087 0.0
C166 C 0.38689 0.75641 0.7609 0.0
N167 N 0.40178 0.77018 0.73066 0.0
N168 N 0.405 0.76826 0.87689 0.0
C169 C 0.4124 0.77711 0.80188 0.0
H170 H 0.38001 0.74448 0.89275 0.0
Co171 Co 0.4186 0.77047 0.9853 0.0
C172 C 0.42776 0.81753 0.98902 0.0
O173 O 0.4201 0.81995 0.06884 0.0
N174 N 0.43251 0.77236 0.09243 0.0
C175 C 0.45383 0.78099 0.20377 0.0
C176 C 0.45057 0.78298 0.1146 0.0
C177 C 0.42569 0.76333 0.16775 0.0
N178 N 0.43813 0.76853 0.23638 0.0
O179 O 0.39287 0.78204 0.03753 0.0
H180 H 0.46037 0.79217 0.06962 0.0
H181 H 0.4113 0.75389 0.17369 0.0
O182 O 0.42804 0.79902 0.95304 0.0
C183 C 0.38029 0.76702 0.06174 0.0
O184 O 0.3863 0.74695 0.04985 0.0
N185 N 0.44285 0.75764 0.93658 0.0
C186 C 0.47488 0.73249 0.86071 0.0
C187 C 0.47642 0.75507 0.86074 0.0
C188 C 0.46019 0.76743 0.8993 0.0
C189 C 0.44137 0.73581 0.93923 0.0
C190 C 0.45718 0.72293 0.90194 0.0
H191 H 0.46149 0.78477 0.89757 0.0
H192 H 0.42759 0.72839 0.96971 0.0
H193 H 0.42662 0.78696 0.79828 0.0
H194 H 0.3761 0.74704 0.72059 0.0
H195 H 0.46635 0.78854 0.24197 0.0
H196 H 0.48976 0.76314 0.8295 0.0
H197 H 0.45551 0.7056 0.9055 0.0
C198 C 0.58738 0.05582 0.13175 0.0
C199 C 0.58879 0.05091 0.04374 0.0
N200 N 0.56927 0.05338 0.00802 0.0
N201 N 0.56715 0.06166 0.15066 0.0
C202 C 0.5564 0.05957 0.07444 0.0
H203 H 0.60052 0.05654 0.17779 0.0
Co204 Co 0.55887 0.07398 0.25584 0.0
C205 C 0.52473 0.10458 0.20851 0.0
O206 O 0.53381 0.11865 0.26111 0.0
N207 N 0.55086 0.08524 0.36573 0.0
C208 C 0.53092 0.08787 0.48673 0.0
C209 C 0.53066 0.08722 0.39676 0.0
C210 C 0.56295 0.08394 0.43915 0.0
N211 N 0.55123 0.08543 0.51337 0.0
O212 O 0.54433 0.04806 0.2891 0.0
H213 H 0.5163 0.08552 0.35812 0.0
H214 H 0.57941 0.07872 0.4389 0.0
O215 O 0.5327 0.08568 0.20041 0.0
C216 C 0.55703 0.03647 0.33421 0.0
O217 O 0.57723 0.04216 0.33802 0.0
N218 N 0.5747 0.09905 0.22468 0.0
C219 C 0.60188 0.13256 0.17314 0.0
C220 C 0.58413 0.12705 0.12212 0.0
C221 C 0.57112 0.1099 0.14765 0.0
C222 C 0.59238 0.10381 0.2734 0.0
C223 C 0.6061 0.12059 0.24921 0.0
H224 H 0.55852 0.10502 0.10359 0.0
H225 H 0.59656 0.09402 0.32911 0.0
H226 H 0.5399 0.06424 0.06573 0.0
H227 H 0.60323 0.04702 0.00786 0.0
H228 H 0.51702 0.08806 0.52911 0.0
H229 H 0.58082 0.13537 0.06104 0.0
H230 H 0.62002 0.12401 0.28911 0.0
C231 C 0.25596 0.2615 0.40339 0.0
C232 C 0.26106 0.26355 0.31589 0.0
N233 N 0.26307 0.24363 0.28181 0.0
N234 N 0.25452 0.24041 0.42339 0.0
C235 C 0.25933 0.22993 0.34864 0.0
H236 H 0.2525 0.27448 0.44863 0.0
Co237 Co 0.24566 0.22946 0.52962 0.0
C238 C 0.21892 0.19224 0.48275 0.0
O239 O 0.20494 0.19931 0.54058 0.0
N240 N 0.23802 0.21889 0.63961 0.0
C241 C 0.23816 0.19823 0.75932 0.0
C242 C 0.23826 0.19831 0.66908 0.0
C243 C 0.23893 0.23087 0.71328 0.0
N244 N 0.23861 0.21879 0.78659 0.0
O245 O 0.27365 0.21822 0.55015 0.0
H246 H 0.24057 0.1842 0.62863 0.0
H247 H 0.24263 0.24786 0.71362 0.0
O248 O 0.23655 0.20239 0.47226 0.0
C249 C 0.28619 0.2331 0.57556 0.0
O250 O 0.27892 0.25291 0.58016 0.0
N251 N 0.21829 0.24223 0.50995 0.0
C252 C 0.18192 0.26672 0.46995 0.0
C253 C 0.18893 0.25044 0.41309 0.0
C254 C 0.20731 0.23871 0.43338 0.0
C255 C 0.21178 0.25827 0.56512 0.0
C256 C 0.19351 0.27041 0.54726 0.0
H257 H 0.21325 0.22749 0.38494 0.0
H258 H 0.22131 0.26279 0.62068 0.0
H259 H 0.25868 0.21263 0.34159 0.0
H260 H 0.26217 0.27846 0.27926 0.0
H261 H 0.23918 0.18419 0.80134 0.0
H262 H 0.18098 0.24757 0.351 0.0
H263 H 0.18891 0.28308 0.59242 0.0
C264 C 0.89045 0.27101 0.38915 0.0
C265 C 0.88715 0.27287 0.29992 0.0
N266 N 0.90515 0.28061 0.26281 0.0
N267 N 0.91041 0.27769 0.40851 0.0
C268 C 0.91883 0.28363 0.33022 0.0
H269 H 0.87933 0.26419 0.43579 0.0
Co270 Co 0.92506 0.27538 0.51547 0.0
C271 C 0.94007 0.32088 0.53551 0.0
O272 O 0.9331 0.32283 0.61646 0.0
N273 N 0.94006 0.27276 0.62475 0.0
C274 C 0.96064 0.26022 0.73316 0.0
C275 C 0.95677 0.25977 0.64415 0.0
C276 C 0.93425 0.2809 0.70411 0.0
N277 N 0.94628 0.2734 0.77107 0.0
O278 O 0.90086 0.28739 0.57692 0.0
H279 H 0.96508 0.24954 0.59803 0.0
H280 H 0.92093 0.29168 0.71369 0.0
O281 O 0.9374 0.30338 0.49338 0.0
C282 C 0.89089 0.27141 0.61016 0.0
O283 O 0.89758 0.25192 0.59044 0.0
N284 N 0.94745 0.26172 0.45593 0.0
C285 C 0.97641 0.23591 0.36426 0.0
C286 C 0.98128 0.25753 0.3834 0.0
C287 C 0.96657 0.27021 0.42987 0.0
C288 C 0.94253 0.24082 0.43849 0.0
C289 C 0.95675 0.22763 0.39325 0.0
H290 H 0.97061 0.28674 0.44449 0.0
H291 H 0.92737 0.23437 0.46038 0.0
H292 H 0.93506 0.28931 0.32237 0.0
H293 H 0.87306 0.26767 0.26462 0.0
H294 H 0.97228 0.2505 0.76767 0.0
H295 H 0.9962 0.26466 0.36212 0.0
H296 H 0.95243 0.21096 0.38245 0.0
C297 C 0.74106 0.76396 0.99466 0.0
C298 C 0.74434 0.76605 0.90559 0.0
N299 N 0.75098 0.7469 0.87424 0.0
N300 N 0.74512 0.74343 0.01834 0.0
C301 C 0.75182 0.73369 0.94422 0.0
H302 H 0.73484 0.77623 0.03809 0.0
Co303 Co 0.73913 0.7302 0.12476 0.0
C304 C 0.71858 0.68835 0.07064 0.0
O305 O 0.7063 0.68777 0.14071 0.0
N306 N 0.73398 0.7171 0.23316 0.0
C307 C 0.73941 0.6955 0.34792 0.0
C308 C 0.74064 0.6973 0.25796 0.0
C309 C 0.7293 0.72712 0.30946 0.0
N310 N 0.73231 0.71437 0.37993 0.0
O311 O 0.76838 0.72157 0.13456 0.0
H312 H 0.74763 0.6855 0.21423 0.0
H313 H 0.72618 0.74411 0.31515 0.0
O314 O 0.73204 0.70367 0.06106 0.0
C315 C 0.77978 0.7373 0.16037 0.0
O316 O 0.77053 0.75603 0.17364 0.0
N317 N 0.71064 0.74051 0.11602 0.0
C318 C 0.67387 0.76514 0.08452 0.0
C319 C 0.67802 0.74645 0.0357 0.0
C320 C 0.69661 0.73459 0.05142 0.0
C321 C 0.70673 0.75861 0.16414 0.0
C322 C 0.68827 0.7708 0.15117 0.0
H323 H 0.7004 0.722 0.00554 0.0
H324 H 0.71892 0.76495 0.20689 0.0
H325 H 0.75576 0.71676 0.9402 0.0
H326 H 0.741 0.78018 0.86622 0.0
H327 H 0.74464 0.68191 0.38692 0.0
H328 H 0.66791 0.74192 0.98103 0.0
H329 H 0.68598 0.78526 0.18981 0.0
C330 C 0.76666 0.23483 0.07926 0.0
C331 C 0.77075 0.23316 0.16777 0.0
N332 N 0.76608 0.25216 0.20594 0.0
N333 N 0.75951 0.25481 0.06118 0.0
C334 C 0.75964 0.26509 0.13955 0.0
H335 H 0.76754 0.22186 0.03192 0.0
Co336 Co 0.74755 0.26284 0.95336 0.0
C337 C 0.73056 0.30705 0.99835 0.0
O338 O 0.73793 0.31678 0.92788 0.0
N339 N 0.73565 0.27026 0.84558 0.0
C340 C 0.71377 0.27993 0.7379 0.0
C341 C 0.71577 0.2773 0.82741 0.0
C342 C 0.74532 0.26851 0.76657 0.0
N343 N 0.73243 0.2744 0.69951 0.0
O344 O 0.77223 0.28007 0.92564 0.0
H345 H 0.70341 0.28001 0.87595 0.0
H346 H 0.76157 0.26295 0.75866 0.0
O347 O 0.7338 0.28698 0.00957 0.0
C348 C 0.78834 0.26866 0.90425 0.0
O349 O 0.78667 0.2476 0.90855 0.0
N350 N 0.72418 0.24487 0.97761 0.0
C351 C 0.69441 0.21295 0.01867 0.0
C352 C 0.69331 0.23326 0.05857 0.0
C353 C 0.70846 0.24897 0.03778 0.0
C354 C 0.72509 0.22547 0.93604 0.0
C355 C 0.71042 0.20921 0.95585 0.0
H356 H 0.7078 0.26403 0.0726 0.0
H357 H 0.73779 0.22238 0.88938 0.0
H358 H 0.7544 0.2815 0.1486 0.0
H359 H 0.7753 0.2186 0.20212 0.0
H360 H 0.69944 0.28497 0.70388 0.0
H361 H 0.68137 0.23669 0.10826 0.0
H362 H 0.71175 0.19376 0.92321 0.0
C363 C 0.9116 0.7485 0.53967 0.0
C364 C 0.9083 0.75015 0.62902 0.0
N365 N 0.9196 0.73451 0.66874 0.0
N366 N 0.92468 0.73168 0.52315 0.0
C367 C 0.92926 0.72359 0.60339 0.0
H368 H 0.90543 0.75943 0.4907 0.0
Co369 Co 0.93619 0.72305 0.41515 0.0
C370 C 0.94224 0.67617 0.44431 0.0
O371 O 0.93344 0.67106 0.3688 0.0
N372 N 0.94801 0.71469 0.3072 0.0
C373 C 0.96894 0.70085 0.2034 0.0
C374 C 0.9658 0.70293 0.29256 0.0
C375 C 0.94105 0.72006 0.22621 0.0
N376 N 0.95326 0.71165 0.16154 0.0
O377 O 0.9088 0.71177 0.38055 0.0
H378 H 0.97591 0.69631 0.34347 0.0
H379 H 0.92761 0.7305 0.21469 0.0
O380 O 0.9442 0.69582 0.46671 0.0
C381 C 0.89783 0.72649 0.34351 0.0
O382 O 0.90633 0.74577 0.33648 0.0
N383 N 0.96209 0.73568 0.44618 0.0
C384 C 0.99609 0.76222 0.4938 0.0
C385 C 0.99338 0.74195 0.53351 0.0
C386 C 0.97625 0.72881 0.50844 0.0
C387 C 0.96499 0.75481 0.40445 0.0
C388 C 0.98199 0.76821 0.4264 0.0
H389 H 0.97398 0.71362 0.54171 0.0
H390 H 0.95358 0.75996 0.35535 0.0
H391 H 0.93992 0.71022 0.61451 0.0
H392 H 0.89909 0.76246 0.66231 0.0
H393 H 0.98176 0.69198 0.17234 0.0
H394 H 0.00378 0.73667 0.5861 0.0
H395 H 0.98372 0.7834 0.39213 0.0
C396 C 0.57912 0.5912 0.78444 0.0
C397 C 0.57538 0.5892 0.87345 0.0
N398 N 0.59438 0.58852 0.91495 0.0
N399 N 0.60036 0.59185 0.77007 0.0
C400 C 0.60917 0.58965 0.85047 0.0
H401 H 0.56715 0.59334 0.73395 0.0
Co402 Co 0.61357 0.59875 0.66386 0.0
C403 C 0.65197 0.62391 0.71797 0.0
O404 O 0.64827 0.63766 0.65401 0.0
N405 N 0.62672 0.60487 0.55409 0.0
C406 C 0.65063 0.60312 0.44534 0.0
C407 C 0.64761 0.60181 0.5346 0.0
C408 C 0.61732 0.60701 0.47429 0.0
N409 N 0.6315 0.60619 0.40741 0.0
O410 O 0.62406 0.56986 0.65475 0.0
H411 H 0.65974 0.59715 0.58137 0.0
H412 H 0.60029 0.60731 0.46411 0.0
O413 O 0.63964 0.60762 0.72768 0.0
C414 C 0.61448 0.55856 0.59711 0.0
O415 O 0.59865 0.56712 0.55257 0.0
N416 N 0.6016 0.62677 0.67301 0.0
C417 C 0.57519 0.66251 0.70386 0.0
C418 C 0.59221 0.65772 0.76041 0.0
C419 C 0.60497 0.63966 0.74471 0.0
C420 C 0.58508 0.63122 0.61758 0.0
C421 C 0.57207 0.64923 0.63036 0.0
H422 H 0.61629 0.63519 0.79485 0.0
H423 H 0.58061 0.61983 0.56766 0.0
H424 H 0.62612 0.58945 0.86206 0.0
H425 H 0.55992 0.58958 0.90537 0.0
H426 H 0.66547 0.60025 0.41063 0.0
H427 H 0.59474 0.66686 0.8201 0.0
H428 H 0.55896 0.65202 0.58537 0.0
C429 C 0.07015 0.44494 0.35021 0.0
C430 C 0.07065 0.44837 0.43957 0.0
N431 N 0.06037 0.43197 0.4791 0.0
N432 N 0.05934 0.42658 0.33348 0.0
C433 C 0.05368 0.41906 0.41345 0.0
H434 H 0.07777 0.45493 0.30136 0.0
Co435 Co 0.05502 0.41304 0.22578 0.0
C436 C 0.01001 0.39972 0.2389 0.0
O437 O 0.00597 0.40847 0.16205 0.0
N438 N 0.05098 0.39914 0.11773 0.0
C439 C 0.04258 0.37538 0.01386 0.0
C440 C 0.04318 0.37918 0.10294 0.0
C441 C 0.05544 0.40688 0.03688 0.0
N442 N 0.05022 0.39293 0.97237 0.0
O443 O 0.03969 0.43797 0.18445 0.0
H444 H 0.03793 0.36815 0.15354 0.0
H445 H 0.0627 0.42233 0.02504 0.0
O446 O 0.0288 0.40061 0.27089 0.0
C447 C 0.05139 0.45209 0.14734 0.0
O448 O 0.072 0.44859 0.1397 0.0
N449 N 0.07133 0.38978 0.26484 0.0
C450 C 0.10118 0.36011 0.32649 0.0
C451 C 0.07922 0.35668 0.33956 0.0
C452 C 0.06447 0.37181 0.3084 0.0
C453 C 0.09249 0.39303 0.24937 0.0
C454 C 0.1077 0.37843 0.27965 0.0
H455 H 0.0477 0.36916 0.32099 0.0
H456 H 0.09757 0.40736 0.21473 0.0
H457 H 0.04506 0.40417 0.42357 0.0
H458 H 0.07866 0.46148 0.47294 0.0
H459 H 0.03655 0.361 0.98232 0.0
H460 H 0.07354 0.34279 0.37578 0.0
H461 H 0.12445 0.38153 0.26684 0.0
C462 C 0.58003 0.41508 0.20655 0.0
C463 C 0.57837 0.41952 0.11816 0.0
N464 N 0.59823 0.41995 0.084 0.0
N465 N 0.6008 0.41232 0.22689 0.0
C466 C 0.61151 0.4159 0.15152 0.0
H467 H 0.56693 0.41261 0.2519 0.0
Co468 Co 0.61106 0.40217 0.3324 0.0
C469 C 0.64652 0.37326 0.28483 0.0
O470 O 0.63869 0.35954 0.34231 0.0
N471 N 0.62127 0.39302 0.44238 0.0
C472 C 0.64244 0.39233 0.56012 0.0
C473 C 0.64182 0.39353 0.47007 0.0
C474 C 0.60979 0.39223 0.51751 0.0
N475 N 0.62221 0.39168 0.58967 0.0
O476 O 0.624 0.42964 0.35365 0.0
H477 H 0.65548 0.39683 0.42869 0.0
H478 H 0.59284 0.39525 0.52075 0.0
O479 O 0.63738 0.39154 0.27433 0.0
C480 C 0.61383 0.44134 0.40827 0.0
O481 O 0.59599 0.43405 0.44265 0.0
N482 N 0.59674 0.37554 0.31027 0.0
C483 C 0.57064 0.34041 0.26586 0.0
C484 C 0.58738 0.34689 0.21061 0.0
C485 C 0.59996 0.36459 0.2332 0.0
C486 C 0.58008 0.36983 0.36327 0.0
C487 C 0.56721 0.35207 0.3436 0.0
H488 H 0.61161 0.37009 0.18589 0.0
H489 H 0.57566 0.3797 0.41822 0.0
H490 H 0.62857 0.4139 0.14437 0.0
H491 H 0.56371 0.42113 0.08103 0.0
H492 H 0.65657 0.39359 0.60076 0.0
H493 H 0.5901 0.33908 0.14794 0.0
H494 H 0.55425 0.348 0.38778 0.0
C495 C 0.07597 0.57411 0.70763 0.0
C496 C 0.07763 0.57067 0.61831 0.0
N497 N 0.06404 0.58416 0.57744 0.0
N498 N 0.0612 0.5895 0.72282 0.0
C499 C 0.05431 0.59528 0.64211 0.0
H500 H 0.08536 0.56626 0.75776 0.0
Co501 Co 0.05338 0.60156 0.83041 0.0
C502 C 0.00749 0.61056 0.80123 0.0
O503 O 0.00209 0.60173 0.87652 0.0
N504 N 0.04591 0.61384 0.93834 0.0
C505 C 0.03392 0.63575 0.04284 0.0
C506 C 0.0354 0.63244 0.95359 0.0
C507 C 0.05114 0.60649 0.01896 0.0
N508 N 0.04385 0.61933 0.08405 0.0
O509 O 0.03972 0.57498 0.86323 0.0
H510 H 0.0293 0.64304 0.90307 0.0
H511 H 0.06075 0.59235 0.02982 0.0
O512 O 0.02704 0.61162 0.77833 0.0
C513 C 0.0516 0.56138 0.90232 0.0
O514 O 0.07174 0.56611 0.91672 0.0
N515 N 0.06789 0.62683 0.80018 0.0
C516 C 0.09538 0.66065 0.75659 0.0
C517 C 0.07503 0.65906 0.71812 0.0
C518 C 0.06143 0.64207 0.74117 0.0
C519 C 0.08727 0.6284 0.84003 0.0
C520 C 0.10116 0.64526 0.81999 0.0
H521 H 0.04607 0.64096 0.70932 0.0
H522 H 0.09208 0.6162 0.88679 0.0
H523 H 0.04254 0.60764 0.63038 0.0
H524 H 0.0885 0.55966 0.58595 0.0
H525 H 0.02607 0.6492 0.07448 0.0
H526 H 0.06987 0.67036 0.66829 0.0
H527 H 0.11643 0.64601 0.85325 0.0
H528 H 0.18589 0.16512 0.50543 0.0
H529 H 0.23778 0.17912 0.32762 0.0
H530 H 0.22379 0.15264 0.22286 0.0
H531 H 0.19457 0.12784 0.17656 0.0
H532 H 0.14234 0.11628 0.35628 0.0
H533 H 0.15873 0.13925 0.46494 0.0
C534 C 0.19432 0.1623 0.44412 0.0
C535 C 0.21271 0.17427 0.42405 0.0
C536 C 0.18599 0.14749 0.38396 0.0
C537 C 0.22354 0.17016 0.34472 0.0
C538 C 0.21547 0.15509 0.28457 0.0
C539 C 0.18699 0.13015 0.23998 0.0
C540 C 0.16711 0.12037 0.25751 0.0
C541 C 0.19637 0.14399 0.30261 0.0
C542 C 0.15746 0.12362 0.34002 0.0
C543 C 0.16685 0.13683 0.40271 0.0
H544 H 0.21171 0.85516 0.44846 0.0
H545 H 0.23939 0.82718 0.68127 0.0
H546 H 0.21846 0.85149 0.77389 0.0
H547 H 0.19016 0.87878 0.78906 0.0
H548 H 0.16013 0.90438 0.55655 0.0
H549 H 0.18404 0.88316 0.46357 0.0
C550 C 0.21339 0.85471 0.5194 0.0
C551 C 0.22709 0.83952 0.55813 0.0
C552 C 0.20073 0.86822 0.57233 0.0
C553 C 0.22887 0.83873 0.65014 0.0
C554 C 0.2169 0.85262 0.70309 0.0
C555 C 0.18913 0.87995 0.71804 0.0
C556 C 0.17346 0.89313 0.67965 0.0
C557 C 0.20247 0.86715 0.66502 0.0
C558 C 0.17202 0.89425 0.58756 0.0
C559 C 0.18569 0.88213 0.53437 0.0
H560 H 0.4777 0.88012 0.73656 0.0
H561 H 0.5061 0.89914 0.98266 0.0
H562 H 0.4812 0.87598 0.06274 0.0
H563 H 0.45337 0.8479 0.06184 0.0
H564 H 0.4273 0.82657 0.8147 0.0
H565 H 0.449 0.85305 0.73603 0.0
C566 C 0.47815 0.87947 0.80779 0.0
C567 C 0.49366 0.89132 0.8537 0.0
C568 C 0.46425 0.86555 0.85317 0.0
C569 C 0.49434 0.89006 0.9459 0.0
C570 C 0.48011 0.87683 0.99172 0.0
C571 C 0.45218 0.8494 0.99097 0.0
C572 C 0.43877 0.83541 0.94398 0.0
C573 C 0.46528 0.86416 0.94597 0.0
C574 C 0.43763 0.83714 0.85204 0.0
C575 C 0.45002 0.85227 0.80709 0.0
H576 H 0.49266 0.13012 0.2603 0.0
H577 H 0.51664 0.09562 0.03533 0.0
H578 H 0.4904 0.11366 0.94078 0.0
H579 H 0.46356 0.14274 0.92055 0.0
H580 H 0.43959 0.17609 0.14922 0.0
H581 H 0.46274 0.155 0.24369 0.0
C582 C 0.49184 0.12627 0.19079 0.0
C583 C 0.50654 0.11174 0.15451 0.0
C584 C 0.47689 0.13675 0.13732 0.0
C585 C 0.50531 0.10667 0.06469 0.0
C586 C 0.49045 0.11714 0.01058 0.0
C587 C 0.46313 0.14509 0.99116 0.0
C588 C 0.45029 0.16149 0.02736 0.0
C589 C 0.47656 0.13272 0.04581 0.0
C590 C 0.44978 0.16413 0.11914 0.0
C591 C 0.46296 0.15197 0.17351 0.0
H592 H 0.99189 0.80546 0.51217 0.0
H593 H 0.03721 0.75385 0.54898 0.0
H594 H 0.06365 0.77967 0.6032 0.0
H595 H 0.07378 0.81708 0.6403 0.0
H596 H 0.02853 0.86836 0.59395 0.0
H597 H 0.00231 0.84242 0.54235 0.0
C598 C 0.00767 0.7998 0.53039 0.0
C599 C 0.01254 0.77771 0.52562 0.0
C600 C 0.02282 0.8147 0.56014 0.0
C601 C 0.03291 0.77072 0.55244 0.0
C602 C 0.04809 0.7855 0.58301 0.0
C603 C 0.05827 0.8226 0.61805 0.0
C604 C 0.05312 0.84468 0.62211 0.0
C605 C 0.04322 0.80756 0.58709 0.0
C606 C 0.03283 0.85147 0.59362 0.0
C607 C 0.01783 0.83666 0.56342 0.0
H608 H 0.02005 0.23502 0.37758 0.0
H609 H 0.96733 0.20464 0.24297 0.0
H610 H 0.99158 0.17819 0.17965 0.0
H611 H 0.02714 0.16196 0.17178 0.0
H612 H 0.08044 0.19382 0.29661 0.0
H613 H 0.0565 0.22141 0.35389 0.0
C614 C 0.01388 0.22292 0.33297 0.0
C615 C 0.99175 0.22165 0.31685 0.0
C616 C 0.02797 0.20783 0.29558 0.0
C617 C 0.98416 0.2057 0.25894 0.0
C618 C 0.99804 0.1906 0.22209 0.0
C619 C 0.03371 0.17517 0.20966 0.0
C620 C 0.05562 0.17545 0.23075 0.0
C621 C 0.01991 0.19123 0.24144 0.0
C622 C 0.06359 0.19272 0.28109 0.0
C623 C 0.04992 0.20865 0.31352 0.0
H624 H 0.64489 0.13046 0.15281 0.0
H625 H 0.59128 0.17355 0.12717 0.0
H626 H 0.6151 0.20231 0.07668 0.0
H627 H 0.65126 0.21514 0.03963 0.0
H628 H 0.70467 0.17156 0.06036 0.0
H629 H 0.6809 0.143 0.11212 0.0
C630 C 0.63851 0.14622 0.13674 0.0
C631 C 0.61644 0.15001 0.14433 0.0
C632 C 0.65224 0.1625 0.10627 0.0
C633 C 0.60824 0.17032 0.12178 0.0
C634 C 0.62184 0.18674 0.09299 0.0
C635 C 0.65766 0.19938 0.05564 0.0
C636 C 0.67968 0.19545 0.04618 0.0
C637 C 0.64387 0.18301 0.08488 0.0
C638 C 0.68774 0.1749 0.06617 0.0
C639 C 0.67418 0.15862 0.09632 0.0
H640 H 0.59495 0.81637 0.92924 0.0
H641 H 0.63689 0.86984 0.98526 0.0
H642 H 0.66322 0.84534 0.04708 0.0
H643 H 0.67522 0.80885 0.07818 0.0
H644 H 0.63329 0.75503 0.02857 0.0
H645 H 0.60607 0.7796 0.97149 0.0
C646 C 0.60972 0.82268 0.95602 0.0
C647 C 0.61402 0.84493 0.95116 0.0
C648 C 0.62484 0.80846 0.99236 0.0
C649 C 0.63334 0.85278 0.98592 0.0
C650 C 0.64838 0.83879 0.02196 0.0
C651 C 0.65995 0.80243 0.05705 0.0
C652 C 0.65635 0.78006 0.0581 0.0
C653 C 0.64441 0.8166 0.02456 0.0
C654 C 0.63661 0.77214 0.02788 0.0
C655 C 0.621 0.7862 0.9954 0.0
H656 H 0.69867 0.64935 0.06834 0.0
H657 H 0.72412 0.69861 0.89764 0.0
H658 H 0.70766 0.68152 0.77119 0.0
H659 H 0.68197 0.65549 0.71214 0.0
H660 H 0.65783 0.60503 0.8798 0.0
H661 H 0.67798 0.61943 0.00332 0.0
C662 C 0.70097 0.65606 0.00317 0.0
C663 C 0.71248 0.67535 0.99294 0.0
C664 C 0.69135 0.64613 0.9301 0.0
C665 C 0.71552 0.68373 0.90786 0.0
C666 C 0.70588 0.67406 0.83523 0.0
C667 C 0.6813 0.64744 0.77537 0.0
C668 C 0.66763 0.6297 0.78732 0.0
C669 C 0.69315 0.6557 0.84608 0.0
C670 C 0.66753 0.61914 0.86913 0.0
C671 C 0.67913 0.62737 0.94006 0.0
H672 H 0.67129 0.33828 0.30668 0.0
H673 H 0.66139 0.39206 0.13199 0.0
H674 H 0.68773 0.37712 0.02924 0.0
H675 H 0.7117 0.34702 0.98452 0.0
H676 H 0.7194 0.29311 0.16115 0.0
H677 H 0.69599 0.3099 0.26715 0.0
C678 C 0.67494 0.34689 0.24645 0.0
C679 C 0.6642 0.36615 0.22679 0.0
C680 C 0.68973 0.33808 0.18751 0.0
C681 C 0.66938 0.37717 0.14881 0.0
C682 C 0.68439 0.36857 0.08981 0.0
C683 C 0.70841 0.33909 0.04657 0.0
C684 C 0.71738 0.31871 0.06421 0.0
C685 C 0.69438 0.34876 0.10768 0.0
C686 C 0.71284 0.30869 0.14506 0.0
C687 C 0.69934 0.31829 0.20614 0.0
H688 H 0.00518 0.39252 0.41377 0.0
H689 H 0.97884 0.37599 0.16078 0.0
H690 H 0.9545 0.35032 0.23049 0.0
H691 H 0.94206 0.3312 0.36273 0.0
H692 H 0.96655 0.34943 0.61686 0.0
H693 H 0.99019 0.37591 0.54766 0.0
C694 C 0.99396 0.38341 0.37417 0.0
C695 C 0.99385 0.38602 0.28233 0.0
C696 C 0.97976 0.36897 0.41487 0.0
C697 C 0.97912 0.37433 0.23166 0.0
C698 C 0.96529 0.35957 0.27142 0.0
C699 C 0.95246 0.34111 0.40288 0.0
C700 C 0.95272 0.3383 0.49458 0.0
C701 C 0.96567 0.35656 0.36281 0.0
C702 C 0.96604 0.35138 0.54613 0.0
C703 C 0.97962 0.36644 0.50657 0.0
H704 H 0.94064 0.67189 0.6209 0.0
H705 H 0.96824 0.64399 0.38764 0.0
H706 H 0.99054 0.62034 0.47825 0.0
H707 H 0.00398 0.60966 0.62421 0.0
H708 H 0.97524 0.63644 0.85742 0.0
H709 H 0.95143 0.65851 0.76676 0.0
C710 C 0.9514 0.66047 0.59018 0.0
C711 C 0.953 0.65971 0.49809 0.0
C712 C 0.96396 0.64686 0.64266 0.0
C713 C 0.96669 0.64467 0.45853 0.0
C714 C 0.97953 0.63129 0.51028 0.0
C715 C 0.99237 0.62022 0.6549 0.0
C716 C 0.99141 0.62166 0.74701 0.0
C717 C 0.97858 0.63256 0.60238 0.0
C718 C 0.97612 0.63505 0.7865 0.0
C719 C 0.96261 0.64773 0.73474 0.0
H720 H 0.51866 0.26341 0.09755 0.0
H721 H 0.46616 0.29889 0.21157 0.0
H722 H 0.49108 0.32494 0.2732 0.0
H723 H 0.52741 0.33883 0.2877 0.0
H724 H 0.5803 0.30269 0.1805 0.0
H725 H 0.55553 0.27572 0.12347 0.0
C726 C 0.51268 0.27662 0.13711 0.0
C727 C 0.4905 0.27929 0.14871 0.0
C728 C 0.52713 0.29154 0.17315 0.0
C729 C 0.48309 0.29667 0.19968 0.0
C730 C 0.49734 0.31154 0.23549 0.0
C731 C 0.53366 0.32484 0.25368 0.0
C732 C 0.55576 0.32292 0.23832 0.0
C733 C 0.51936 0.30931 0.22161 0.0
C734 C 0.56336 0.30481 0.19223 0.0
C735 C 0.54921 0.28931 0.15988 0.0
H736 H 0.51839 0.73756 0.86149 0.0
H737 H 0.46829 0.69651 0.76167 0.0
H738 H 0.49483 0.67196 0.70123 0.0
H739 H 0.53197 0.66084 0.68515 0.0
H740 H 0.58253 0.70214 0.77886 0.0
H741 H 0.55606 0.72789 0.83302 0.0
C742 C 0.51328 0.72343 0.82533 0.0
C743 C 0.49133 0.71875 0.81756 0.0
C744 C 0.52869 0.70933 0.79006 0.0
C745 C 0.48505 0.70027 0.77072 0.0
C746 C 0.50022 0.68625 0.73556 0.0
C747 C 0.53733 0.6757 0.71531 0.0
C748 C 0.5593 0.67945 0.72779 0.0
C749 C 0.52206 0.69044 0.74604 0.0
C750 C 0.56575 0.69865 0.76922 0.0
C751 C 0.5506 0.71343 0.80003 0.0
H752 H 0.14969 0.73957 0.61379 0.0
H753 H 0.20066 0.69369 0.65354 0.0
H754 H 0.17514 0.66725 0.70702 0.0
H755 H 0.13847 0.65657 0.7381 0.0
H756 H 0.08736 0.70271 0.70893 0.0
H757 H 0.11284 0.72951 0.65539 0.0
C758 C 0.15526 0.72389 0.63516 0.0
C759 C 0.17711 0.71861 0.62807 0.0
C760 C 0.14047 0.70871 0.66732 0.0
C761 C 0.18393 0.6981 0.6558 0.0
C762 C 0.16935 0.68296 0.68714 0.0
C763 C 0.13284 0.67259 0.72187 0.0
C764 C 0.11092 0.67749 0.72781 0.0
C765 C 0.14759 0.68802 0.69249 0.0
C766 C 0.10404 0.69828 0.70397 0.0
C767 C 0.11865 0.7137 0.67381 0.0
H768 H 0.18003 0.31022 0.48462 0.0
H769 H 0.14355 0.2554 0.39643 0.0
H770 H 0.11494 0.27935 0.34662 0.0
H771 H 0.10091 0.3161 0.32349 0.0
H772 H 0.13782 0.37058 0.41252 0.0
H773 H 0.16555 0.3465 0.46727 0.0
C774 C 0.16567 0.30345 0.45595 0.0
C775 C 0.1639 0.28104 0.44465 0.0
C776 C 0.1494 0.31728 0.42709 0.0
C777 C 0.14537 0.27261 0.40538 0.0
C778 C 0.12898 0.28629 0.37711 0.0
C779 C 0.11492 0.32266 0.35574 0.0
C780 C 0.11737 0.34512 0.36322 0.0
C781 C 0.13091 0.30868 0.3869 0.0
C782 C 0.13571 0.35338 0.40456 0.0
C783 C 0.15153 0.33962 0.43629 0.0
H784 H 0.13878 0.04876 0.95199 0.0
H785 H 0.10505 0.01274 0.15068 0.0
H786 H 0.11282 0.97915 0.07339 0.0
H787 H 0.12521 0.96074 0.94234 0.0
H788 H 0.15576 0.99651 0.73403 0.0
H789 H 0.15375 0.02939 0.8228 0.0
C790 C 0.13377 0.03343 0.97938 0.0
C791 C 0.12159 0.03304 0.05719 0.0
C792 C 0.13753 0.01422 0.9325 0.0
C793 C 0.1146 0.01327 0.09124 0.0
C794 C 0.11897 0.99412 0.04699 0.0
C795 C 0.13166 0.97563 0.91635 0.0
C796 C 0.14033 0.97617 0.83097 0.0
C797 C 0.12978 0.99449 0.96628 0.0
C798 C 0.14891 0.99562 0.79933 0.0
C799 C 0.14766 0.01446 0.84996 0.0
H800 H 0.37004 0.79659 0.19024 0.0
H801 H 0.34418 0.74547 0.03037 0.0
H802 H 0.31172 0.74508 0.11825 0.0
H803 H 0.29269 0.75581 0.24937 0.0
H804 H 0.31696 0.80659 0.41423 0.0
H805 H 0.348 0.81076 0.31558 0.0
C806 C 0.35699 0.78586 0.17355 0.0
C807 C 0.35947 0.77098 0.10426 0.0
C808 C 0.33832 0.7854 0.22602 0.0
C809 C 0.34264 0.75694 0.08371 0.0
C810 C 0.32411 0.75663 0.13413 0.0
C811 C 0.30463 0.76801 0.26341 0.0
C812 C 0.30277 0.78065 0.33949 0.0
C813 C 0.32212 0.77023 0.20697 0.0
C814 C 0.31814 0.79662 0.35602 0.0
C815 C 0.33588 0.79892 0.2998 0.0
H816 H 0.56543 0.03752 0.50549 0.0
H817 H 0.53113 0.00107 0.31064 0.0
H818 H 0.52389 0.97271 0.41993 0.0
H819 H 0.53271 0.95609 0.56477 0.0
H820 H 0.56849 0.99295 0.75416 0.0
H821 H 0.56934 0.02368 0.6543 0.0
C822 C 0.55599 0.02355 0.48749 0.0
C823 C 0.54904 0.02112 0.40039 0.0
C824 C 0.55217 0.00746 0.54998 0.0
C825 C 0.53665 0.00315 0.37756 0.0
C826 C 0.53262 0.98696 0.43993 0.0
C827 C 0.53989 0.97119 0.58502 0.0
C828 C 0.55041 0.97246 0.6666 0.0
C829 C 0.54098 0.98859 0.52557 0.0
C830 C 0.56013 0.99182 0.69194 0.0
C831 C 0.56079 0.00929 0.63459 0.0
H832 H 0.37797 0.24379 0.72362 0.0
H833 H 0.35712 0.19277 0.89539 0.0
H834 H 0.32442 0.18842 0.80753 0.0
H835 H 0.2998 0.20284 0.69288 0.0
H836 H 0.32125 0.25492 0.52737 0.0
H837 H 0.35597 0.25481 0.60002 0.0
C838 C 0.36637 0.23155 0.74133 0.0
C839 C 0.36964 0.2189 0.81659 0.0
C840 C 0.34778 0.22931 0.69119 0.0
C841 C 0.35479 0.20277 0.83784 0.0
C842 C 0.33611 0.20035 0.7878 0.0
C843 C 0.31238 0.21363 0.67125 0.0
C844 C 0.30815 0.22886 0.60499 0.0
C845 C 0.33214 0.21399 0.71575 0.0
C846 C 0.32429 0.24309 0.57824 0.0
C847 C 0.34405 0.24314 0.62013 0.0
H848 H 0.82843 0.25477 0.92214 0.0
H849 H 0.79062 0.30216 0.78647 0.0
H850 H 0.82071 0.30979 0.68716 0.0
H851 H 0.85605 0.29842 0.62516 0.0
H852 H 0.89184 0.24915 0.76028 0.0
H853 H 0.86464 0.24708 0.87403 0.0
C854 C 0.82699 0.26719 0.87225 0.0
C855 C 0.80743 0.27781 0.86114 0.0
C856 C 0.844 0.27092 0.81441 0.0
C857 C 0.80567 0.29391 0.79663 0.0
C858 C 0.82279 0.29806 0.7392 0.0
C859 C 0.85797 0.28762 0.68062 0.0
C860 C 0.87573 0.27373 0.68391 0.0
C861 C 0.84178 0.28601 0.74522 0.0
C862 C 0.8781 0.25972 0.7557 0.0
C863 C 0.86258 0.25853 0.82091 0.0
H864 H 0.80205 0.70476 0.24065 0.0
H865 H 0.80927 0.76629 0.11233 0.0
H866 H 0.84697 0.76718 0.15149 0.0
H867 H 0.87677 0.75247 0.23264 0.0
H868 H 0.87055 0.69203 0.36998 0.0
H869 H 0.83363 0.68855 0.31649 0.0
C870 C 0.81208 0.71808 0.22 0.0
C871 C 0.80301 0.73546 0.17371 0.0
C872 C 0.83377 0.71881 0.24534 0.0
C873 C 0.81596 0.75281 0.14823 0.0
C874 C 0.83748 0.75336 0.17076 0.0
C875 C 0.86744 0.73843 0.25091 0.0
C876 C 0.87628 0.72269 0.30633 0.0
C877 C 0.84637 0.73678 0.22124 0.0
C878 C 0.86404 0.70445 0.32778 0.0
C879 C 0.84294 0.7025 0.29735 0.0
H880 H 0.62335 0.54112 0.43961 0.0
H881 H 0.61803 0.52586 0.71501 0.0
H882 H 0.61972 0.48727 0.6809 0.0
H883 H 0.61756 0.45824 0.57028 0.0
H884 H 0.62476 0.47346 0.29552 0.0
H885 H 0.62788 0.51185 0.33134 0.0
C886 C 0.6231 0.52928 0.49208 0.0
C887 C 0.62039 0.53608 0.57946 0.0
C888 C 0.62426 0.50726 0.47185 0.0
C889 C 0.6202 0.52083 0.64739 0.0
C890 C 0.621 0.49883 0.62777 0.0
C891 C 0.62036 0.46999 0.51869 0.0
C892 C 0.62076 0.46328 0.43049 0.0
C893 C 0.62228 0.49189 0.54 0.0
C894 C 0.62451 0.4784 0.36382 0.0
C895 C 0.62612 0.5003 0.38429 0.0
H896 H 0.04431 0.54987 0.06976 0.0
H897 H 0.04227 0.52628 0.8039 0.0
H898 H 0.03835 0.48925 0.85795 0.0
H899 H 0.04179 0.46354 0.98128 0.0
H900 H 0.04422 0.48728 0.24689 0.0
H901 H 0.04126 0.52439 0.19348 0.0
C902 C 0.04225 0.53662 0.02405 0.0
C903 C 0.04343 0.54057 0.93333 0.0
C904 C 0.04026 0.51548 0.0558 0.0
C905 C 0.04109 0.52346 0.87404 0.0
C906 C 0.03906 0.50233 0.90498 0.0
C907 C 0.0408 0.47686 0.02722 0.0
C908 C 0.04294 0.47289 0.11765 0.0
C909 C 0.03946 0.4981 0.99571 0.0
C910 C 0.04217 0.49011 0.1771 0.0
C911 C 0.04073 0.51129 0.14648 0.0
H912 H 0.14293 0.09376 0.75545 0.0
H913 H 0.07836 0.11119 0.82118 0.0
H914 H 0.06647 0.10173 0.67265 0.0
H915 H 0.07477 0.08941 0.52463 0.0
H916 H 0.13905 0.06978 0.45945 0.0
H917 H 0.15083 0.07903 0.60757 0.0
C918 C 0.12635 0.09561 0.73616 0.0
C919 C 0.11149 0.10345 0.7972 0.0
C920 C 0.11963 0.08958 0.65164 0.0
C921 C 0.08994 0.10538 0.77379 0.0
C922 C 0.08319 0.09989 0.68948 0.0
C923 C 0.09126 0.08665 0.5428 0.0
C924 C 0.10598 0.07902 0.48021 0.0
C925 C 0.0979 0.09194 0.62796 0.0
C926 C 0.12739 0.07592 0.50564 0.0
C927 C 0.13417 0.08121 0.59039 0.0
H928 H 0.26611 0.78045 0.15073 0.0
H929 H 0.19809 0.78144 0.10497 0.0
H930 H 0.20426 0.77826 0.94674 0.0
H931 H 0.22899 0.77417 0.82203 0.0
H932 H 0.29695 0.77265 0.86902 0.0
H933 H 0.29073 0.77664 0.02671 0.0
C934 C 0.25258 0.77967 0.10653 0.0
C935 C 0.23163 0.78097 0.14012 0.0
C936 C 0.25625 0.77765 0.01589 0.0
C937 C 0.21437 0.78058 0.0811 0.0
C938 C 0.21789 0.77866 0.99061 0.0
C939 C 0.24246 0.77491 0.86663 0.0
C940 C 0.26343 0.77312 0.83361 0.0
C941 C 0.23876 0.7771 0.95732 0.0
C942 C 0.28067 0.77373 0.89268 0.0
C943 C 0.27713 0.77608 0.98285 0.0
H944 H 0.55728 0.89525 0.12901 0.0
H945 H 0.56075 0.96362 0.17729 0.0
H946 H 0.55831 0.95724 0.33527 0.0
H947 H 0.55444 0.93245 0.45884 0.0
H948 H 0.55173 0.86394 0.41169 0.0
H949 H 0.55383 0.87028 0.25358 0.0
C950 C 0.55717 0.90878 0.17393 0.0
C951 C 0.55912 0.92991 0.14119 0.0
C952 C 0.55568 0.905 0.26477 0.0
C953 C 0.55943 0.94721 0.20069 0.0
C954 C 0.55789 0.94359 0.29103 0.0
C955 C 0.55458 0.91882 0.41452 0.0
C956 C 0.55299 0.8977 0.44784 0.0
C957 C 0.55602 0.92256 0.32377 0.0
C958 C 0.55272 0.88036 0.38834 0.0
C959 C 0.55402 0.88397 0.29776 0.0
H960 H 0.44083 0.22047 0.30306 0.0
H961 H 0.37295 0.22098 0.35446 0.0
H962 H 0.37985 0.21888 0.51213 0.0
H963 H 0.40522 0.21834 0.63549 0.0
H964 H 0.47295 0.21718 0.58286 0.0
H965 H 0.46596 0.21767 0.42498 0.0
C966 C 0.42744 0.21973 0.34807 0.0
C967 C 0.40634 0.22093 0.31602 0.0
C968 C 0.43151 0.2184 0.43865 0.0
C969 C 0.38935 0.2204 0.3767 0.0
C970 C 0.39328 0.21907 0.46707 0.0
C971 C 0.41845 0.21779 0.58965 0.0
C972 C 0.43962 0.21779 0.62124 0.0
C973 C 0.4143 0.21823 0.49883 0.0
C974 C 0.45655 0.21742 0.56045 0.0
C975 C 0.45255 0.21767 0.47015 0.0
H976 H 0.10592 0.89832 0.41653 0.0
H977 H 0.10638 0.96696 0.37366 0.0
H978 H 0.10974 0.96119 0.21531 0.0
H979 H 0.11356 0.93654 0.08929 0.0
H980 H 0.11247 0.86786 0.13367 0.0
H981 H 0.10888 0.87379 0.29115 0.0
C982 C 0.10696 0.91204 0.3727 0.0
C983 C 0.10606 0.93306 0.40712 0.0
C984 C 0.10892 0.90859 0.28182 0.0
C985 C 0.1069 0.95062 0.34894 0.0
C986 C 0.10894 0.94732 0.25833 0.0
C987 C 0.11229 0.92284 0.13306 0.0
C988 C 0.11341 0.90175 0.09897 0.0
C989 C 0.11002 0.92636 0.22399 0.0
C990 C 0.11203 0.88426 0.15755 0.0
C991 C 0.10984 0.88763 0.24786 0.0
H992 H 0.40125 0.74104 0.60064 0.0
H993 H 0.41791 0.80667 0.66214 0.0
H994 H 0.43263 0.81154 0.51448 0.0
H995 H 0.44032 0.7971 0.36741 0.0
H996 H 0.42299 0.73176 0.3052 0.0
H997 H 0.40907 0.72658 0.45417 0.0
C998 C 0.40778 0.75649 0.58105 0.0
C999 C 0.40839 0.77353 0.64146 0.0
C1000 C 0.41635 0.75906 0.49669 0.0
C1001 C 0.41733 0.79335 0.61628 0.0
C1002 C 0.42579 0.7961 0.53223 0.0
C1003 C 0.43388 0.78165 0.38743 0.0
C1004 C 0.43279 0.76475 0.32655 0.0
C1005 C 0.42551 0.77902 0.47213 0.0
C1006 C 0.42398 0.7449 0.3518 0.0
C1007 C 0.41595 0.742 0.43645 0.0
H1008 H 0.52889 0.06372 0.63588 0.0
H1009 H 0.58963 0.09408 0.58542 0.0
H1010 H 0.60169 0.08468 0.73369 0.0
H1011 H 0.59392 0.06984 0.8802 0.0
H1012 H 0.53269 0.04069 0.93141 0.0
H1013 H 0.52169 0.0476 0.77956 0.0
C1014 C 0.54464 0.06858 0.65768 0.0
C1015 C 0.55823 0.07999 0.60058 0.0
C1016 C 0.55134 0.06322 0.74267 0.0
C1017 C 0.5789 0.0854 0.62863 0.0
C1018 C 0.58576 0.08004 0.71318 0.0
C1019 C 0.57836 0.06461 0.85739 0.0
C1020 C 0.5641 0.05473 0.91632 0.0
C1021 C 0.57203 0.06913 0.77098 0.0
C1022 C 0.54382 0.04838 0.8868 0.0
C1023 C 0.53755 0.0524 0.8004 0.0
H1024 H 0.26178 0.19977 0.91315 0.0
H1025 H 0.22335 0.25556 0.85479 0.0
H1026 H 0.2295 0.26958 0.00277 0.0
H1027 H 0.24419 0.26488 0.15021 0.0
H1028 H 0.282 0.20881 0.21048 0.0
H1029 H 0.27782 0.19585 0.0595 0.0
C1030 C 0.2546 0.21487 0.93335 0.0
C1031 C 0.24194 0.22656 0.87411 0.0
C1032 C 0.25824 0.22278 0.01812 0.0
C1033 C 0.23315 0.24637 0.89985 0.0
C1034 C 0.23666 0.25436 0.98412 0.0
C1035 C 0.25194 0.25011 0.12963 0.0
C1036 C 0.26344 0.23781 0.19074 0.0
C1037 C 0.24909 0.24263 0.04383 0.0
C1038 C 0.27303 0.21844 0.16407 0.0
C1039 C 0.27057 0.21102 0.07818 0.0
H1040 H 0.9435 0.27539 0.18374 0.0
H1041 H 0.87708 0.28892 0.13201 0.0
H1042 H 0.8842 0.28895 0.97398 0.0
H1043 H 0.90895 0.28365 0.85115 0.0
H1044 H 0.97529 0.26962 0.90239 0.0
H1045 H 0.96859 0.2716 0.06038 0.0
C1046 C 0.93064 0.27875 0.13814 0.0
C1047 C 0.90975 0.28218 0.16996 0.0
C1048 C 0.93483 0.27858 0.0473 0.0
C1049 C 0.89324 0.28604 0.10939 0.0
C1050 C 0.89732 0.28613 0.01902 0.0
C1051 C 0.92204 0.28125 0.8964 0.0
C1052 C 0.9426 0.2763 0.86425 0.0
C1053 C 0.91801 0.28219 0.98722 0.0
C1054 C 0.95926 0.27313 0.9249 0.0
C1055 C 0.95545 0.27433 0.01538 0.0
H1056 H 0.72428 0.75925 0.74648 0.0
H1057 H 0.7781 0.71826 0.80212 0.0
H1058 H 0.77651 0.70345 0.65299 0.0
H1059 H 0.75961 0.70228 0.50731 0.0
H1060 H 0.70536 0.74293 0.45322 0.0
H1061 H 0.70721 0.75785 0.60171 0.0
C1062 C 0.7359 0.7474 0.72521 0.0
C1063 C 0.75148 0.74003 0.78425 0.0
C1064 C 0.73459 0.73875 0.64038 0.0
C1065 C 0.76607 0.72419 0.75711 0.0
C1066 C 0.76509 0.7157 0.67228 0.0
C1067 C 0.748 0.71413 0.5286 0.0
C1068 C 0.73231 0.72147 0.46978 0.0
C1069 C 0.74929 0.72273 0.61363 0.0
C1070 C 0.71761 0.73715 0.49754 0.0
C1071 C 0.7187 0.7457 0.58215 0.0
H1072 H 0.76335 0.2513 0.61751 0.0
H1073 H 0.7125 0.29684 0.57005 0.0
H1074 H 0.7193 0.29491 0.41253 0.0
H1075 H 0.73844 0.27894 0.28783 0.0
H1076 H 0.78965 0.23397 0.33503 0.0
H1077 H 0.78415 0.23734 0.49347 0.0
C1078 C 0.75392 0.26109 0.57329 0.0
C1079 C 0.73726 0.27405 0.60645 0.0
C1080 C 0.75798 0.26001 0.48249 0.0
C1081 C 0.72513 0.28637 0.54696 0.0
C1082 C 0.7291 0.2854 0.45661 0.0
C1083 C 0.7487 0.2702 0.33254 0.0
C1084 C 0.7644 0.25614 0.29923 0.0
C1085 C 0.74532 0.27209 0.42357 0.0
C1086 C 0.77729 0.24469 0.35873 0.0
C1087 C 0.77417 0.24664 0.44938 0.0
H1088 H 0.91709 0.72412 0.07777 0.0
H1089 H 0.98246 0.70462 0.0318 0.0
H1090 H 0.97742 0.70925 0.87439 0.0
H1091 H 0.95498 0.72014 0.7501 0.0
H1092 H 0.8903 0.74126 0.79629 0.0
H1093 H 0.89484 0.73539 0.95429 0.0
C1094 C 0.93042 0.72114 0.03407 0.0
C1095 C 0.95022 0.71413 0.06784 0.0
C1096 C 0.92759 0.72432 0.94354 0.0
C1097 C 0.96699 0.70984 0.00862 0.0
C1098 C 0.96418 0.71263 0.91825 0.0
C1099 C 0.9418 0.72324 0.79463 0.0
C1100 C 0.92228 0.73103 0.76162 0.0
C1101 C 0.9446 0.71998 0.88511 0.0
C1102 C 0.90551 0.73542 0.82033 0.0
C1103 C 0.90808 0.73196 0.91046 0.0
H1104 H 0.59737 0.58792 0.32837 0.0
H1105 H 0.65597 0.62224 0.27747 0.0
H1106 H 0.64969 0.61966 0.11926 0.0
H1107 H 0.62769 0.60759 0.99589 0.0
H1108 H 0.5693 0.57272 0.04517 0.0
H1109 H 0.57519 0.57578 0.20376 0.0
C1110 C 0.60861 0.59505 0.28259 0.0
C1111 C 0.62708 0.60536 0.31452 0.0
C1112 C 0.60499 0.59329 0.1916 0.0
C1113 C 0.64173 0.61414 0.25434 0.0
C1114 C 0.63814 0.61267 0.16398 0.0
C1115 C 0.6164 0.60034 0.04106 0.0
C1116 C 0.59816 0.58974 0.00844 0.0
C1117 C 0.61991 0.60214 0.13188 0.0
C1118 C 0.58341 0.58102 0.06844 0.0
C1119 C 0.5868 0.58273 0.15911 0.0
H1120 H 0.05075 0.43124 0.88865 0.0
H1121 H 0.05336 0.36264 0.84439 0.0
H1122 H 0.05614 0.36873 0.6863 0.0
H1123 H 0.05874 0.39358 0.56116 0.0
H1124 H 0.05704 0.46213 0.60627 0.0
H1125 H 0.05359 0.45602 0.76438 0.0
C1126 C 0.0522 0.41758 0.84489 0.0
C1127 C 0.05193 0.39649 0.8789 0.0
C1128 C 0.05407 0.42121 0.75426 0.0
C1129 C 0.05331 0.37903 0.82032 0.0
C1130 C 0.05503 0.3825 0.72984 0.0
C1131 C 0.05738 0.40717 0.60548 0.0
C1132 C 0.05808 0.42829 0.57204 0.0
C1133 C 0.05546 0.40353 0.69616 0.0
C1134 C 0.05673 0.44574 0.63052 0.0
C1135 C 0.05466 0.44225 0.72079 0.0
H1136 H 0.64156 0.41526 0.7147 0.0
H1137 H 0.58616 0.3761 0.66208 0.0
H1138 H 0.57257 0.38314 0.81016 0.0
H1139 H 0.57719 0.39944 0.95579 0.0
H1140 H 0.63305 0.43771 0.00986 0.0
H1141 H 0.64584 0.43212 0.85936 0.0
C1142 C 0.62668 0.40803 0.73613 0.0
C1143 C 0.61496 0.39498 0.67821 0.0
C1144 C 0.619 0.41219 0.82095 0.0
C1145 C 0.59541 0.38618 0.70591 0.0
C1146 C 0.58765 0.39022 0.79027 0.0
C1147 C 0.59191 0.40692 0.93383 0.0
C1148 C 0.60412 0.41911 0.99299 0.0
C1149 C 0.59932 0.4032 0.84829 0.0
C1150 C 0.62344 0.42831 0.96484 0.0
C1151 C 0.63077 0.42503 0.87924 0.0
H1152 H 0.05395 0.62105 0.49459 0.0
H1153 H 0.06769 0.55386 0.45059 0.0
H1154 H 0.06226 0.55876 0.29252 0.0
H1155 H 0.05319 0.58205 0.16822 0.0
H1156 H 0.04058 0.64959 0.21258 0.0
H1157 H 0.04529 0.64442 0.36992 0.0
C1158 C 0.05555 0.60742 0.45058 0.0
C1159 C 0.06111 0.58708 0.48431 0.0
C1160 C 0.05246 0.61039 0.3601 0.0
C1161 C 0.06359 0.5697 0.42611 0.0
C1162 C 0.06038 0.57248 0.3359 0.0
C1163 C 0.05171 0.59576 0.21168 0.0
C1164 C 0.04656 0.61623 0.17757 0.0
C1165 C 0.05483 0.59277 0.30222 0.0
C1166 C 0.04428 0.6336 0.23623 0.0
C1167 C 0.04712 0.6307 0.32649 0.0
loop_
_geom_bond_atom_site_label_1
_geom_bond_atom_site_label_2
_geom_bond_distance
_geom_bond_site_symmetry_2
_ccdc_geom_bond_type
C0 C1 1.351 . S
C0 N3 1.368 . S
C0 H5 0.931 . S
C1 C0 1.351 . S
C1 N2 1.373 . S
C1 H29 0.930 . S
N2 C1 1.373 . S
N2 C4 1.340 . S
N3 C0 1.368 . S
N3 C4 1.321 . S
N3 Co6 2.135 . S
C4 N2 1.340 . S
C4 N3 1.321 . S
C4 H28 0.930 . S
H5 C0 0.931 . S
Co6 N3 2.135 . S
Co6 N9 2.121 . S
Co6 O14 2.055 . S
Co6 O17 2.039 . S
Co6 N20 2.140 . S
C7 O8 1.227 . S
C7 O17 1.265 . S
O8 C7 1.227 . S
N9 Co6 2.121 . S
N9 C11 1.375 . S
N9 C12 1.313 . S
C10 C11 1.338 . S
C10 N13 1.377 1_554 S
C10 H30 0.930 1_554 S
C11 N9 1.375 . S
C11 C10 1.338 . S
C11 H15 0.931 . S
C12 N9 1.313 . S
C12 N13 1.344 1_554 S
C12 H16 0.930 . S
N13 C10 1.377 1_556 S
N13 C12 1.344 1_556 S
O14 Co6 2.055 . S
O14 C18 1.253 . S
H15 C11 0.931 . S
H16 C12 0.930 . S
O17 Co6 2.039 . S
O17 C7 1.265 . S
C18 O14 1.253 . S
C18 O19 1.227 . S
O19 C18 1.227 . S
N20 Co6 2.140 . S
N20 C23 1.346 . S
N20 C24 1.345 . S
C21 C22 1.387 . S
C21 C25 1.391 . S
C22 C21 1.387 . S
C22 C23 1.369 . S
C22 H31 0.929 . S
C23 N20 1.346 . S
C23 C22 1.369 . S
C23 H26 0.928 . S
C24 N20 1.345 . S
C24 C25 1.371 . S
C24 H27 0.931 . S
C25 C21 1.391 . S
C25 C24 1.371 . S
C25 H32 0.930 . S
H26 C23 0.928 . S
H27 C24 0.931 . S
H28 C4 0.930 . S
H29 C1 0.930 . S
H30 C10 0.930 1_556 S
H31 C22 0.929 . S
H32 C25 0.930 . S
C33 C34 1.351 . S
C33 N36 1.368 . S
C33 H38 0.931 . S
C34 C33 1.351 . S
C34 N35 1.373 . S
C34 H62 0.930 . S
N35 C34 1.373 . S
N35 C37 1.340 . S
N36 C33 1.368 . S
N36 C37 1.321 . S
N36 Co39 2.135 . S
C37 N35 1.340 . S
C37 N36 1.321 . S
C37 H61 0.930 . S
H38 C33 0.931 . S
Co39 N36 2.135 . S
Co39 N42 2.121 . S
Co39 O47 2.055 . S
Co39 O50 2.039 . S
Co39 N53 2.140 . S
C40 O41 1.227 . S
C40 O50 1.265 . S
O41 C40 1.227 . S
N42 Co39 2.121 . S
N42 C44 1.375 . S
N42 C45 1.313 . S
C43 C44 1.338 . S
C43 N46 1.377 . S
C43 H63 0.930 . S
C44 N42 1.375 . S
C44 C43 1.338 . S
C44 H48 0.931 . S
C45 N42 1.313 . S
C45 N46 1.344 . S
C45 H49 0.930 . S
N46 C43 1.377 . S
N46 C45 1.344 . S
O47 Co39 2.055 . S
O47 C51 1.253 . S
H48 C44 0.931 . S
H49 C45 0.930 . S
O50 Co39 2.039 . S
O50 C40 1.265 . S
C51 O47 1.253 . S
C51 O52 1.227 . S
O52 C51 1.227 . S
N53 Co39 2.140 . S
N53 C56 1.346 . S
N53 C57 1.345 . S
C54 C55 1.387 . S
C54 C58 1.391 . S
C55 C54 1.387 . S
C55 C56 1.369 . S
C55 H64 0.929 . S
C56 N53 1.346 . S
C56 C55 1.369 . S
C56 H59 0.928 . S
C57 N53 1.345 . S
C57 C58 1.371 . S
C57 H60 0.931 . S
C58 C54 1.391 . S
C58 C57 1.371 . S
C58 H65 0.930 . S
H59 C56 0.928 . S
H60 C57 0.931 . S
H61 C37 0.930 . S
H62 C34 0.930 . S
H63 C43 0.930 . S
H64 C55 0.929 . S
H65 C58 0.930 . S
C66 C67 1.351 1_556 S
C66 N69 1.368 . S
C66 H71 0.931 . S
C67 C66 1.351 1_554 S
C67 N68 1.373 . S
C67 H95 0.930 . S
N68 C67 1.373 . S
N68 C70 1.340 1_554 S
N69 C66 1.368 . S
N69 C70 1.321 . S
N69 Co72 2.135 . S
C70 N68 1.340 1_556 S
C70 N69 1.321 . S
C70 H94 0.930 . S
H71 C66 0.931 . S
Co72 N69 2.135 . S
Co72 N75 2.121 . S
Co72 O80 2.055 . S
Co72 O83 2.039 . S
Co72 N86 2.140 . S
C73 O74 1.227 . S
C73 O83 1.265 . S
O74 C73 1.227 . S
N75 Co72 2.121 . S
N75 C77 1.375 . S
N75 C78 1.313 . S
C76 C77 1.338 . S
C76 N79 1.377 . S
C76 H96 0.930 . S
C77 N75 1.375 . S
C77 C76 1.338 . S
C77 H81 0.931 . S
C78 N75 1.313 . S
C78 N79 1.344 . S
C78 H82 0.930 . S
N79 C76 1.377 . S
N79 C78 1.344 . S
O80 Co72 2.055 . S
O80 C84 1.253 . S
H81 C77 0.931 . S
H82 C78 0.930 . S
O83 Co72 2.039 . S
O83 C73 1.265 . S
C84 O80 1.253 . S
C84 O85 1.227 . S
O85 C84 1.227 . S
N86 Co72 2.140 . S
N86 C89 1.346 . S
N86 C90 1.345 . S
C87 C88 1.387 . S
C87 C91 1.391 . S
C88 C87 1.387 . S
C88 C89 1.369 . S
C88 H97 0.929 . S
C89 N86 1.346 . S
C89 C88 1.369 . S
C89 H92 0.928 . S
C90 N86 1.345 . S
C90 C91 1.371 . S
C90 H93 0.931 . S
C91 C87 1.391 . S
C91 C90 1.371 . S
C91 H98 0.930 . S
H92 C89 0.928 . S
H93 C90 0.931 . S
H94 C70 0.930 . S
H95 C67 0.930 . S
H96 C76 0.930 . S
H97 C88 0.929 . S
H98 C91 0.930 . S
C99 C100 1.351 . S
C99 N102 1.368 . S
C99 H104 0.931 . S
C100 C99 1.351 . S
C100 N101 1.373 . S
C100 H128 0.930 . S
N101 C100 1.373 . S
N101 C103 1.340 . S
N102 C99 1.368 . S
N102 C103 1.321 . S
N102 Co105 2.135 1_554 S
C103 N101 1.340 . S
C103 N102 1.321 . S
C103 H127 0.930 . S
H104 C99 0.931 . S
Co105 N102 2.135 1_556 S
Co105 N108 2.121 . S
Co105 O113 2.055 . S
Co105 O116 2.039 1_556 S
Co105 N119 2.140 1_556 S
C106 O107 1.227 . S
C106 O116 1.265 . S
O107 C106 1.227 . S
N108 Co105 2.121 . S
N108 C110 1.375 . S
N108 C111 1.313 . S
C109 C110 1.338 . S
C109 N112 1.377 . S
C109 H129 0.930 . S
C110 N108 1.375 . S
C110 C109 1.338 . S
C110 H114 0.931 . S
C111 N108 1.313 . S
C111 N112 1.344 . S
C111 H115 0.930 . S
N112 C109 1.377 . S
N112 C111 1.344 . S
O113 Co105 2.055 . S
O113 C117 1.253 . S
H114 C110 0.931 . S
H115 C111 0.930 . S
O116 Co105 2.039 1_554 S
O116 C106 1.265 . S
C117 O113 1.253 . S
C117 O118 1.227 . S
O118 C117 1.227 . S
N119 Co105 2.140 1_554 S
N119 C122 1.346 . S
N119 C123 1.345 1_554 S
C120 C121 1.387 . S
C120 C124 1.391 1_554 S
C121 C120 1.387 . S
C121 C122 1.369 . S
C121 H130 0.929 . S
C122 N119 1.346 . S
C122 C121 1.369 . S
C122 H125 0.928 . S
C123 N119 1.345 1_556 S
C123 C124 1.371 . S
C123 H126 0.931 . S
C124 C120 1.391 1_556 S
C124 C123 1.371 . S
C124 H131 0.930 . S
H125 C122 0.928 . S
H126 C123 0.931 . S
H127 C103 0.930 . S
H128 C100 0.930 . S
H129 C109 0.930 . S
H130 C121 0.929 . S
H131 C124 0.930 . S
C132 C133 1.351 . S
C132 N135 1.368 . S
C132 H137 0.931 . S
C133 C132 1.351 . S
C133 N134 1.373 . S
C133 H161 0.930 . S
N134 C133 1.373 . S
N134 C136 1.340 . S
N135 C132 1.368 . S
N135 C136 1.321 . S
N135 Co138 2.135 . S
C136 N134 1.340 . S
C136 N135 1.321 . S
C136 H160 0.930 . S
H137 C132 0.931 . S
Co138 N135 2.135 . S
Co138 N141 2.121 . S
Co138 O146 2.055 . S
Co138 O149 2.039 . S
Co138 N152 2.140 . S
C139 O140 1.227 . S
C139 O149 1.265 . S
O140 C139 1.227 . S
N141 Co138 2.121 . S
N141 C143 1.375 . S
N141 C144 1.313 . S
C142 C143 1.338 . S
C142 N145 1.377 1_556 S
C142 H162 0.930 1_556 S
C143 N141 1.375 . S
C143 C142 1.338 . S
C143 H147 0.931 . S
C144 N141 1.313 . S
C144 N145 1.344 1_556 S
C144 H148 0.930 . S
N145 C142 1.377 1_554 S
N145 C144 1.344 1_554 S
O146 Co138 2.055 . S
O146 C150 1.253 . S
H147 C143 0.931 . S
H148 C144 0.930 . S
O149 Co138 2.039 . S
O149 C139 1.265 . S
C150 O146 1.253 . S
C150 O151 1.227 . S
O151 C150 1.227 . S
N152 Co138 2.140 . S
N152 C155 1.346 . S
N152 C156 1.345 . S
C153 C154 1.387 . S
C153 C157 1.391 . S
C154 C153 1.387 . S
C154 C155 1.369 . S
C154 H163 0.929 . S
C155 N152 1.346 . S
C155 C154 1.369 . S
C155 H158 0.928 . S
C156 N152 1.345 . S
C156 C157 1.371 . S
C156 H159 0.931 . S
C157 C153 1.391 . S
C157 C156 1.371 . S
C157 H164 0.930 . S
H158 C155 0.928 . S
H159 C156 0.931 . S
H160 C136 0.930 . S
H161 C133 0.930 . S
H162 C142 0.930 1_554 S
H163 C154 0.929 . S
H164 C157 0.930 . S
C165 C166 1.351 . S
C165 N168 1.368 . S
C165 H170 0.931 . S
C166 C165 1.351 . S
C166 N167 1.373 . S
C166 H194 0.930 . S
N167 C166 1.373 . S
N167 C169 1.340 . S
N168 C165 1.368 . S
N168 C169 1.321 . S
N168 Co171 2.135 1_556 S
C169 N167 1.340 . S
C169 N168 1.321 . S
C169 H193 0.930 . S
H170 C165 0.931 . S
Co171 N168 2.135 1_554 S
Co171 N174 2.121 . S
Co171 O179 2.055 . S
Co171 O182 2.039 1_554 S
Co171 N185 2.140 1_554 S
C172 O173 1.227 . S
C172 O182 1.265 . S
O173 C172 1.227 . S
N174 Co171 2.121 . S
N174 C176 1.375 . S
N174 C177 1.313 . S
C175 C176 1.338 . S
C175 N178 1.377 . S
C175 H195 0.930 . S
C176 N174 1.375 . S
C176 C175 1.338 . S
C176 H180 0.931 . S
C177 N174 1.313 . S
C177 N178 1.344 . S
C177 H181 0.930 . S
N178 C175 1.377 . S
N178 C177 1.344 . S
O179 Co171 2.055 . S
O179 C183 1.253 . S
H180 C176 0.931 . S
H181 C177 0.930 . S
O182 Co171 2.039 1_556 S
O182 C172 1.265 . S
C183 O179 1.253 . S
C183 O184 1.227 . S
O184 C183 1.227 . S
N185 Co171 2.140 1_556 S
N185 C188 1.346 . S
N185 C189 1.345 1_556 S
C186 C187 1.387 . S
C186 C190 1.391 1_556 S
C187 C186 1.387 . S
C187 C188 1.369 . S
C187 H196 0.929 . S
C188 N185 1.346 . S
C188 C187 1.369 . S
C188 H191 0.928 . S
C189 N185 1.345 1_554 S
C189 C190 1.371 . S
C189 H192 0.931 . S
C190 C186 1.391 1_554 S
C190 C189 1.371 . S
C190 H197 0.930 . S
H191 C188 0.928 . S
H192 C189 0.931 . S
H193 C169 0.930 . S
H194 C166 0.930 . S
H195 C175 0.930 . S
H196 C187 0.929 . S
H197 C190 0.930 . S
C198 C199 1.351 1_554 S
C198 N201 1.368 . S
C198 H203 0.931 . S
C199 C198 1.351 1_556 S
C199 N200 1.373 . S
C199 H227 0.930 . S
N200 C199 1.373 . S
N200 C202 1.340 1_556 S
N201 C198 1.368 . S
N201 C202 1.321 . S
N201 Co204 2.135 . S
C202 N200 1.340 1_554 S
C202 N201 1.321 . S
C202 H226 0.930 . S
H203 C198 0.931 . S
Co204 N201 2.135 . S
Co204 N207 2.121 . S
Co204 O212 2.055 . S
Co204 O215 2.039 . S
Co204 N218 2.140 . S
C205 O206 1.227 . S
C205 O215 1.265 . S
O206 C205 1.227 . S
N207 Co204 2.121 . S
N207 C209 1.375 . S
N207 C210 1.313 . S
C208 C209 1.338 . S
C208 N211 1.377 . S
C208 H228 0.930 . S
C209 N207 1.375 . S
C209 C208 1.338 . S
C209 H213 0.931 . S
C210 N207 1.313 . S
C210 N211 1.344 . S
C210 H214 0.930 . S
N211 C208 1.377 . S
N211 C210 1.344 . S
O212 Co204 2.055 . S
O212 C216 1.253 . S
H213 C209 0.931 . S
H214 C210 0.930 . S
O215 Co204 2.039 . S
O215 C205 1.265 . S
C216 O212 1.253 . S
C216 O217 1.227 . S
O217 C216 1.227 . S
N218 Co204 2.140 . S
N218 C221 1.346 . S
N218 C222 1.345 . S
C219 C220 1.387 . S
C219 C223 1.391 . S
C220 C219 1.387 . S
C220 C221 1.369 . S
C220 H229 0.929 . S
C221 N218 1.346 . S
C221 C220 1.369 . S
C221 H224 0.928 . S
C222 N218 1.345 . S
C222 C223 1.371 . S
C222 H225 0.931 . S
C223 C219 1.391 . S
C223 C222 1.371 . S
C223 H230 0.930 . S
H224 C221 0.928 . S
H225 C222 0.931 . S
H226 C202 0.930 . S
H227 C199 0.930 . S
H228 C208 0.930 . S
H229 C220 0.929 . S
H230 C223 0.930 . S
C231 C232 1.351 . S
C231 N234 1.368 . S
C231 H236 0.931 . S
C232 C231 1.351 . S
C232 N233 1.373 . S
C232 H260 0.930 . S
N233 C232 1.373 . S
N233 C235 1.340 . S
N234 C231 1.368 . S
N234 C235 1.321 . S
N234 Co237 2.135 . S
C235 N233 1.340 . S
C235 N234 1.321 . S
C235 H259 0.930 . S
H236 C231 0.931 . S
Co237 N234 2.135 . S
Co237 N240 2.121 . S
Co237 O245 2.055 . S
Co237 O248 2.039 . S
Co237 N251 2.140 . S
C238 O239 1.227 . S
C238 O248 1.265 . S
O239 C238 1.227 . S
N240 Co237 2.121 . S
N240 C242 1.375 . S
N240 C243 1.313 . S
C241 C242 1.338 . S
C241 N244 1.377 . S
C241 H261 0.930 . S
C242 N240 1.375 . S
C242 C241 1.338 . S
C242 H246 0.931 . S
C243 N240 1.313 . S
C243 N244 1.344 . S
C243 H247 0.930 . S
N244 C241 1.377 . S
N244 C243 1.344 . S
O245 Co237 2.055 . S
O245 C249 1.253 . S
H246 C242 0.931 . S
H247 C243 0.930 . S
O248 Co237 2.039 . S
O248 C238 1.265 . S
C249 O245 1.253 . S
C249 O250 1.227 . S
O250 C249 1.227 . S
N251 Co237 2.140 . S
N251 C254 1.346 . S
N251 C255 1.345 . S
C252 C253 1.387 . S
C252 C256 1.391 . S
C253 C252 1.387 . S
C253 C254 1.369 . S
C253 H262 0.929 . S
C254 N251 1.346 . S
C254 C253 1.369 . S
C254 H257 0.928 . S
C255 N251 1.345 . S
C255 C256 1.371 . S
C255 H258 0.931 . S
C256 C252 1.391 . S
C256 C255 1.371 . S
C256 H263 0.930 . S
H257 C254 0.928 . S
H258 C255 0.931 . S
H259 C235 0.930 . S
H260 C232 0.930 . S
H261 C241 0.930 . S
H262 C253 0.929 . S
H263 C256 0.930 . S
C264 C265 1.351 . S
C264 N267 1.368 . S
C264 H269 0.931 . S
C265 C264 1.351 . S
C265 N266 1.373 . S
C265 H293 0.930 . S
N266 C265 1.373 . S
N266 C268 1.340 . S
N267 C264 1.368 . S
N267 C268 1.321 . S
N267 Co270 2.135 . S
C268 N266 1.340 . S
C268 N267 1.321 . S
C268 H292 0.930 . S
H269 C264 0.931 . S
Co270 N267 2.135 . S
Co270 N273 2.121 . S
Co270 O278 2.055 . S
Co270 O281 2.039 . S
Co270 N284 2.140 . S
C271 O272 1.227 . S
C271 O281 1.265 . S
O272 C271 1.227 . S
N273 Co270 2.121 . S
N273 C275 1.375 . S
N273 C276 1.313 . S
C274 C275 1.338 . S
C274 N277 1.377 . S
C274 H294 0.930 . S
C275 N273 1.375 . S
C275 C274 1.338 . S
C275 H279 0.931 . S
C276 N273 1.313 . S
C276 N277 1.344 . S
C276 H280 0.930 . S
N277 C274 1.377 . S
N277 C276 1.344 . S
O278 Co270 2.055 . S
O278 C282 1.253 . S
H279 C275 0.931 . S
H280 C276 0.930 . S
O281 Co270 2.039 . S
O281 C271 1.265 . S
C282 O278 1.253 . S
C282 O283 1.227 . S
O283 C282 1.227 . S
N284 Co270 2.140 . S
N284 C287 1.346 . S
N284 C288 1.345 . S
C285 C286 1.387 . S
C285 C289 1.391 . S
C286 C285 1.387 . S
C286 C287 1.369 . S
C286 H295 0.929 . S
C287 N284 1.346 . S
C287 C286 1.369 . S
C287 H290 0.928 . S
C288 N284 1.345 . S
C288 C289 1.371 . S
C288 H291 0.931 . S
C289 C285 1.391 . S
C289 C288 1.371 . S
C289 H296 0.930 . S
H290 C287 0.928 . S
H291 C288 0.931 . S
H292 C268 0.930 . S
H293 C265 0.930 . S
H294 C274 0.930 . S
H295 C286 0.929 . S
H296 C289 0.930 . S
C297 C298 1.351 . S
C297 N300 1.368 . S
C297 H302 0.931 . S
C298 C297 1.351 . S
C298 N299 1.373 . S
C298 H326 0.930 . S
N299 C298 1.373 . S
N299 C301 1.340 . S
N300 C297 1.368 . S
N300 C301 1.321 . S
N300 Co303 2.135 1_556 S
C301 N299 1.340 . S
C301 N300 1.321 . S
C301 H325 0.930 . S
H302 C297 0.931 . S
Co303 N300 2.135 1_554 S
Co303 N306 2.121 . S
Co303 O311 2.055 . S
Co303 O314 2.039 1_554 S
Co303 N317 2.140 1_554 S
C304 O305 1.227 . S
C304 O314 1.265 . S
O305 C304 1.227 . S
N306 Co303 2.121 . S
N306 C308 1.375 . S
N306 C309 1.313 . S
C307 C308 1.338 . S
C307 N310 1.377 . S
C307 H327 0.930 . S
C308 N306 1.375 . S
C308 C307 1.338 . S
C308 H312 0.931 . S
C309 N306 1.313 . S
C309 N310 1.344 . S
C309 H313 0.930 . S
N310 C307 1.377 . S
N310 C309 1.344 . S
O311 Co303 2.055 . S
O311 C315 1.253 . S
H312 C308 0.931 . S
H313 C309 0.930 . S
O314 Co303 2.039 1_556 S
O314 C304 1.265 . S
C315 O311 1.253 . S
C315 O316 1.227 . S
O316 C315 1.227 . S
N317 Co303 2.140 1_556 S
N317 C320 1.346 . S
N317 C321 1.345 1_556 S
C318 C319 1.387 . S
C318 C322 1.391 1_556 S
C319 C318 1.387 . S
C319 C320 1.369 . S
C319 H328 0.929 . S
C320 N317 1.346 . S
C320 C319 1.369 . S
C320 H323 0.928 . S
C321 N317 1.345 1_554 S
C321 C322 1.371 . S
C321 H324 0.931 . S
C322 C318 1.391 1_554 S
C322 C321 1.371 . S
C322 H329 0.930 . S
H323 C320 0.928 . S
H324 C321 0.931 . S
H325 C301 0.930 . S
H326 C298 0.930 . S
H327 C307 0.930 . S
H328 C319 0.929 . S
H329 C322 0.930 . S
C330 C331 1.351 . S
C330 N333 1.368 . S
C330 H335 0.931 . S
C331 C330 1.351 . S
C331 N332 1.373 . S
C331 H359 0.930 . S
N332 C331 1.373 . S
N332 C334 1.340 . S
N333 C330 1.368 . S
N333 C334 1.321 . S
N333 Co336 2.135 1_554 S
C334 N332 1.340 . S
C334 N333 1.321 . S
C334 H358 0.930 . S
H335 C330 0.931 . S
Co336 N333 2.135 1_556 S
Co336 N339 2.121 . S
Co336 O344 2.055 . S
Co336 O347 2.039 1_556 S
Co336 N350 2.140 1_556 S
C337 O338 1.227 . S
C337 O347 1.265 . S
O338 C337 1.227 . S
N339 Co336 2.121 . S
N339 C341 1.375 . S
N339 C342 1.313 . S
C340 C341 1.338 . S
C340 N343 1.377 . S
C340 H360 0.930 . S
C341 N339 1.375 . S
C341 C340 1.338 . S
C341 H345 0.931 . S
C342 N339 1.313 . S
C342 N343 1.344 . S
C342 H346 0.930 . S
N343 C340 1.377 . S
N343 C342 1.344 . S
O344 Co336 2.055 . S
O344 C348 1.253 . S
H345 C341 0.931 . S
H346 C342 0.930 . S
O347 Co336 2.039 1_554 S
O347 C337 1.265 . S
C348 O344 1.253 . S
C348 O349 1.227 . S
O349 C348 1.227 . S
N350 Co336 2.140 1_554 S
N350 C353 1.346 . S
N350 C354 1.345 1_554 S
C351 C352 1.387 . S
C351 C355 1.391 1_554 S
C352 C351 1.387 . S
C352 C353 1.369 . S
C352 H361 0.929 . S
C353 N350 1.346 . S
C353 C352 1.369 . S
C353 H356 0.928 . S
C354 N350 1.345 1_556 S
C354 C355 1.371 . S
C354 H357 0.931 . S
C355 C351 1.391 1_556 S
C355 C354 1.371 . S
C355 H362 0.930 . S
H356 C353 0.928 . S
H357 C354 0.931 . S
H358 C334 0.930 . S
H359 C331 0.930 . S
H360 C340 0.930 . S
H361 C352 0.929 . S
H362 C355 0.930 . S
C363 C364 1.351 . S
C363 N366 1.368 . S
C363 H368 0.931 . S
C364 C363 1.351 . S
C364 N365 1.373 . S
C364 H392 0.930 . S
N365 C364 1.373 . S
N365 C367 1.340 . S
N366 C363 1.368 . S
N366 C367 1.321 . S
N366 Co369 2.135 . S
C367 N365 1.340 . S
C367 N366 1.321 . S
C367 H391 0.930 . S
H368 C363 0.931 . S
Co369 N366 2.135 . S
Co369 N372 2.121 . S
Co369 O377 2.055 . S
Co369 O380 2.039 . S
Co369 N383 2.140 . S
C370 O371 1.227 . S
C370 O380 1.265 . S
O371 C370 1.227 . S
N372 Co369 2.121 . S
N372 C374 1.375 . S
N372 C375 1.313 . S
C373 C374 1.338 . S
C373 N376 1.377 . S
C373 H393 0.930 . S
C374 N372 1.375 . S
C374 C373 1.338 . S
C374 H378 0.931 . S
C375 N372 1.313 . S
C375 N376 1.344 . S
C375 H379 0.930 . S
N376 C373 1.377 . S
N376 C375 1.344 . S
O377 Co369 2.055 . S
O377 C381 1.253 . S
H378 C374 0.931 . S
H379 C375 0.930 . S
O380 Co369 2.039 . S
O380 C370 1.265 . S
C381 O377 1.253 . S
C381 O382 1.227 . S
O382 C381 1.227 . S
N383 Co369 2.140 . S
N383 C386 1.346 . S
N383 C387 1.345 . S
C384 C385 1.387 . S
C384 C388 1.391 . S
C385 C384 1.387 . S
C385 C386 1.369 . S
C385 H394 0.929 . S
C386 N383 1.346 . S
C386 C385 1.369 . S
C386 H389 0.928 . S
C387 N383 1.345 . S
C387 C388 1.371 . S
C387 H390 0.931 . S
C388 C384 1.391 . S
C388 C387 1.371 . S
C388 H395 0.930 . S
H389 C386 0.928 . S
H390 C387 0.931 . S
H391 C367 0.930 . S
H392 C364 0.930 . S
H393 C373 0.930 . S
H394 C385 0.929 . S
H395 C388 0.930 . S
C396 C397 1.351 1_556 S
C396 N399 1.368 . S
C396 H401 0.931 . S
C397 C396 1.351 1_554 S
C397 N398 1.373 . S
C397 H425 0.930 . S
N398 C397 1.373 . S
N398 C400 1.340 1_554 S
N399 C396 1.368 . S
N399 C400 1.321 . S
N399 Co402 2.135 . S
C400 N398 1.340 1_556 S
C400 N399 1.321 . S
C400 H424 0.930 . S
H401 C396 0.931 . S
Co402 N399 2.135 . S
Co402 N405 2.121 . S
Co402 O410 2.055 . S
Co402 O413 2.039 . S
Co402 N416 2.140 . S
C403 O404 1.227 . S
C403 O413 1.265 . S
O404 C403 1.227 . S
N405 Co402 2.121 . S
N405 C407 1.375 . S
N405 C408 1.313 . S
C406 C407 1.338 . S
C406 N409 1.377 . S
C406 H426 0.930 . S
C407 N405 1.375 . S
C407 C406 1.338 . S
C407 H411 0.931 . S
C408 N405 1.313 . S
C408 N409 1.344 . S
C408 H412 0.930 . S
N409 C406 1.377 . S
N409 C408 1.344 . S
O410 Co402 2.055 . S
O410 C414 1.253 . S
H411 C407 0.931 . S
H412 C408 0.930 . S
O413 Co402 2.039 . S
O413 C403 1.265 . S
C414 O410 1.253 . S
C414 O415 1.227 . S
O415 C414 1.227 . S
N416 Co402 2.140 . S
N416 C419 1.346 . S
N416 C420 1.345 . S
C417 C418 1.387 . S
C417 C421 1.391 . S
C418 C417 1.387 . S
C418 C419 1.369 . S
C418 H427 0.929 . S
C419 N416 1.346 . S
C419 C418 1.369 . S
C419 H422 0.928 . S
C420 N416 1.345 . S
C420 C421 1.371 . S
C420 H423 0.931 . S
C421 C417 1.391 . S
C421 C420 1.371 . S
C421 H428 0.930 . S
H422 C419 0.928 . S
H423 C420 0.931 . S
H424 C400 0.930 . S
H425 C397 0.930 . S
H426 C406 0.930 . S
H427 C418 0.929 . S
H428 C421 0.930 . S
C429 C430 1.351 . S
C429 N432 1.368 . S
C429 H434 0.931 . S
C430 C429 1.351 . S
C430 N431 1.373 . S
C430 H458 0.930 . S
N431 C430 1.373 . S
N431 C433 1.340 . S
N432 C429 1.368 . S
N432 C433 1.321 . S
N432 Co435 2.135 . S
C433 N431 1.340 . S
C433 N432 1.321 . S
C433 H457 0.930 . S
H434 C429 0.931 . S
Co435 N432 2.135 . S
Co435 N438 2.121 . S
Co435 O443 2.055 . S
Co435 O446 2.039 . S
Co435 N449 2.140 . S
C436 O437 1.227 . S
C436 O446 1.265 . S
O437 C436 1.227 . S
N438 Co435 2.121 . S
N438 C440 1.375 . S
N438 C441 1.313 . S
C439 C440 1.338 . S
C439 N442 1.377 1_554 S
C439 H459 0.930 1_554 S
C440 N438 1.375 . S
C440 C439 1.338 . S
C440 H444 0.931 . S
C441 N438 1.313 . S
C441 N442 1.344 1_554 S
C441 H445 0.930 . S
N442 C439 1.377 1_556 S
N442 C441 1.344 1_556 S
O443 Co435 2.055 . S
O443 C447 1.253 . S
H444 C440 0.931 . S
H445 C441 0.930 . S
O446 Co435 2.039 . S
O446 C436 1.265 . S
C447 O443 1.253 . S
C447 O448 1.227 . S
O448 C447 1.227 . S
N449 Co435 2.140 . S
N449 C452 1.346 . S
N449 C453 1.345 . S
C450 C451 1.387 . S
C450 C454 1.391 . S
C451 C450 1.387 . S
C451 C452 1.369 . S
C451 H460 0.929 . S
C452 N449 1.346 . S
C452 C451 1.369 . S
C452 H455 0.928 . S
C453 N449 1.345 . S
C453 C454 1.371 . S
C453 H456 0.931 . S
C454 C450 1.391 . S
C454 C453 1.371 . S
C454 H461 0.930 . S
H455 C452 0.928 . S
H456 C453 0.931 . S
H457 C433 0.930 . S
H458 C430 0.930 . S
H459 C439 0.930 1_556 S
H460 C451 0.929 . S
H461 C454 0.930 . S
C462 C463 1.351 1_554 S
C462 N465 1.368 . S
C462 H467 0.931 . S
C463 C462 1.351 1_556 S
C463 N464 1.373 . S
C463 H491 0.930 . S
N464 C463 1.373 . S
N464 C466 1.340 1_556 S
N465 C462 1.368 . S
N465 C466 1.321 . S
N465 Co468 2.135 . S
C466 N464 1.340 1_554 S
C466 N465 1.321 . S
C466 H490 0.930 . S
H467 C462 0.931 . S
Co468 N465 2.135 . S
Co468 N471 2.121 . S
Co468 O476 2.055 . S
Co468 O479 2.039 . S
Co468 N482 2.140 . S
C469 O470 1.227 . S
C469 O479 1.265 . S
O470 C469 1.227 . S
N471 Co468 2.121 . S
N471 C473 1.375 . S
N471 C474 1.313 . S
C472 C473 1.338 . S
C472 N475 1.377 . S
C472 H492 0.930 . S
C473 N471 1.375 . S
C473 C472 1.338 . S
C473 H477 0.931 . S
C474 N471 1.313 . S
C474 N475 1.344 . S
C474 H478 0.930 . S
N475 C472 1.377 . S
N475 C474 1.344 . S
O476 Co468 2.055 . S
O476 C480 1.253 . S
H477 C473 0.931 . S
H478 C474 0.930 . S
O479 Co468 2.039 . S
O479 C469 1.265 . S
C480 O476 1.253 . S
C480 O481 1.227 . S
O481 C480 1.227 . S
N482 Co468 2.140 . S
N482 C485 1.346 . S
N482 C486 1.345 . S
C483 C484 1.387 . S
C483 C487 1.391 . S
C484 C483 1.387 . S
C484 C485 1.369 . S
C484 H493 0.929 . S
C485 N482 1.346 . S
C485 C484 1.369 . S
C485 H488 0.928 . S
C486 N482 1.345 . S
C486 C487 1.371 . S
C486 H489 0.931 . S
C487 C483 1.391 . S
C487 C486 1.371 . S
C487 H494 0.930 . S
H488 C485 0.928 . S
H489 C486 0.931 . S
H490 C466 0.930 . S
H491 C463 0.930 . S
H492 C472 0.930 . S
H493 C484 0.929 . S
H494 C487 0.930 . S
C495 C496 1.351 . S
C495 N498 1.368 . S
C495 H500 0.931 . S
C496 C495 1.351 . S
C496 N497 1.373 . S
C496 H524 0.930 . S
N497 C496 1.373 . S
N497 C499 1.340 . S
N498 C495 1.368 . S
N498 C499 1.321 . S
N498 Co501 2.135 . S
C499 N497 1.340 . S
C499 N498 1.321 . S
C499 H523 0.930 . S
H500 C495 0.931 . S
Co501 N498 2.135 . S
Co501 N504 2.121 . S
Co501 O509 2.055 . S
Co501 O512 2.039 . S
Co501 N515 2.140 . S
C502 O503 1.227 . S
C502 O512 1.265 . S
O503 C502 1.227 . S
N504 Co501 2.121 . S
N504 C506 1.375 . S
N504 C507 1.313 . S
C505 C506 1.338 . S
C505 N508 1.377 1_556 S
C505 H525 0.930 1_556 S
C506 N504 1.375 . S
C506 C505 1.338 . S
C506 H510 0.931 . S
C507 N504 1.313 . S
C507 N508 1.344 1_556 S
C507 H511 0.930 . S
N508 C505 1.377 1_554 S
N508 C507 1.344 1_554 S
O509 Co501 2.055 . S
O509 C513 1.253 . S
H510 C506 0.931 . S
H511 C507 0.930 . S
O512 Co501 2.039 . S
O512 C502 1.265 . S
C513 O509 1.253 . S
C513 O514 1.227 . S
O514 C513 1.227 . S
N515 Co501 2.140 . S
N515 C518 1.346 . S
N515 C519 1.345 . S
C516 C517 1.387 . S
C516 C520 1.391 . S
C517 C516 1.387 . S
C517 C518 1.369 . S
C517 H526 0.929 . S
C518 N515 1.346 . S
C518 C517 1.369 . S
C518 H521 0.928 . S
C519 N515 1.345 . S
C519 C520 1.371 . S
C519 H522 0.931 . S
C520 C516 1.391 . S
C520 C519 1.371 . S
C520 H527 0.930 . S
H521 C518 0.928 . S
H522 C519 0.931 . S
H523 C499 0.930 . S
H524 C496 0.930 . S
H525 C505 0.930 1_554 S
H526 C517 0.929 . S
H527 C520 0.930 . S
H528 C534 0.930 . S
H529 C537 0.930 . S
H530 C538 0.930 . S
H531 C539 0.930 . S
H532 C542 0.930 . S
H533 C543 0.930 . S
C534 H528 0.930 . S
C534 C535 1.355 . S
C534 C536 1.415 . S
C535 C534 1.355 . S
C535 C537 1.419 . S
C536 C534 1.415 . S
C536 C541 1.425 . S
C536 C543 1.409 . S
C537 H529 0.930 . S
C537 C535 1.419 . S
C537 C538 1.362 . S
C538 H530 0.930 . S
C538 C537 1.362 . S
C538 C541 1.409 . S
C539 H531 0.930 . S
C539 C540 1.355 . S
C539 C541 1.415 . S
C540 C539 1.355 . S
C540 C542 1.419 . S
C541 C536 1.425 . S
C541 C538 1.409 . S
C541 C539 1.415 . S
C542 H532 0.930 . S
C542 C540 1.419 . S
C542 C543 1.362 . S
C543 H533 0.930 . S
C543 C536 1.409 . S
C543 C542 1.362 . S
H544 C550 0.930 . S
H545 C553 0.930 . S
H546 C554 0.930 . S
H547 C555 0.930 . S
H548 C558 0.930 . S
H549 C559 0.930 . S
C550 H544 0.930 . S
C550 C551 1.355 . S
C550 C552 1.415 . S
C551 C550 1.355 . S
C551 C553 1.419 . S
C552 C550 1.415 . S
C552 C557 1.425 . S
C552 C559 1.409 . S
C553 H545 0.930 . S
C553 C551 1.419 . S
C553 C554 1.362 . S
C554 H546 0.930 . S
C554 C553 1.362 . S
C554 C557 1.409 . S
C555 H547 0.930 . S
C555 C556 1.355 . S
C555 C557 1.415 . S
C556 C555 1.355 . S
C556 C558 1.419 . S
C557 C552 1.425 . S
C557 C554 1.409 . S
C557 C555 1.415 . S
C558 H548 0.930 . S
C558 C556 1.419 . S
C558 C559 1.362 . S
C559 H549 0.930 . S
C559 C552 1.409 . S
C559 C558 1.362 . S
H560 C566 0.930 . S
H561 C569 0.930 . S
H562 C570 0.930 . S
H563 C571 0.930 . S
H564 C574 0.930 . S
H565 C575 0.930 . S
C566 H560 0.930 . S
C566 C567 1.355 . S
C566 C568 1.415 . S
C567 C566 1.355 . S
C567 C569 1.419 . S
C568 C566 1.415 . S
C568 C573 1.425 . S
C568 C575 1.409 . S
C569 H561 0.930 . S
C569 C567 1.419 . S
C569 C570 1.362 . S
C570 H562 0.930 . S
C570 C569 1.362 . S
C570 C573 1.409 . S
C571 H563 0.930 . S
C571 C572 1.355 . S
C571 C573 1.415 . S
C572 C571 1.355 . S
C572 C574 1.419 . S
C573 C568 1.425 . S
C573 C570 1.409 . S
C573 C571 1.415 . S
C574 H564 0.930 . S
C574 C572 1.419 . S
C574 C575 1.362 . S
C575 H565 0.930 . S
C575 C568 1.409 . S
C575 C574 1.362 . S
H576 C582 0.930 . S
H577 C585 0.930 . S
H578 C586 0.930 1_556 S
H579 C587 0.930 1_556 S
H580 C590 0.930 . S
H581 C591 0.930 . S
C582 H576 0.930 . S
C582 C583 1.355 . S
C582 C584 1.415 . S
C583 C582 1.355 . S
C583 C585 1.419 . S
C584 C582 1.415 . S
C584 C589 1.425 . S
C584 C591 1.409 . S
C585 H577 0.930 . S
C585 C583 1.419 . S
C585 C586 1.362 . S
C586 H578 0.930 1_554 S
C586 C585 1.362 . S
C586 C589 1.409 . S
C587 H579 0.930 1_554 S
C587 C588 1.355 . S
C587 C589 1.415 . S
C588 C587 1.355 . S
C588 C590 1.419 . S
C589 C584 1.425 . S
C589 C586 1.409 . S
C589 C587 1.415 . S
C590 H580 0.930 . S
C590 C588 1.419 . S
C590 C591 1.362 . S
C591 H581 0.930 . S
C591 C584 1.409 . S
C591 C590 1.362 . S
H592 C598 0.930 . S
H593 C601 0.930 . S
H594 C602 0.930 . S
H595 C603 0.930 . S
H596 C606 0.930 . S
H597 C607 0.930 . S
C598 H592 0.930 . S
C598 C599 1.355 . S
C598 C600 1.415 . S
C599 C598 1.355 . S
C599 C601 1.419 . S
C600 C598 1.415 . S
C600 C605 1.425 1_655 S
C600 C607 1.409 . S
C601 H593 0.930 . S
C601 C599 1.419 . S
C601 C602 1.362 1_655 S
C602 H594 0.930 . S
C602 C601 1.362 1_455 S
C602 C605 1.409 . S
C603 H595 0.930 . S
C603 C604 1.355 . S
C603 C605 1.415 . S
C604 C603 1.355 . S
C604 C606 1.419 . S
C605 C600 1.425 1_455 S
C605 C602 1.409 . S
C605 C603 1.415 . S
C606 H596 0.930 . S
C606 C604 1.419 . S
C606 C607 1.362 1_455 S
C607 H597 0.930 . S
C607 C600 1.409 . S
C607 C606 1.362 1_655 S
H608 C614 0.930 . S
H609 C617 0.930 . S
H610 C618 0.930 . S
H611 C619 0.930 1_655 S
H612 C622 0.930 . S
H613 C623 0.930 . S
C614 H608 0.930 . S
C614 C615 1.355 . S
C614 C616 1.415 1_655 S
C615 C614 1.355 . S
C615 C617 1.419 . S
C616 C614 1.415 1_455 S
C616 C621 1.425 1_455 S
C616 C623 1.409 . S
C617 H609 0.930 . S
C617 C615 1.419 . S
C617 C618 1.362 . S
C618 H610 0.930 . S
C618 C617 1.362 . S
C618 C621 1.409 . S
C619 H611 0.930 1_455 S
C619 C620 1.355 . S
C619 C621 1.415 1_455 S
C620 C619 1.355 . S
C620 C622 1.419 . S
C621 C616 1.425 1_655 S
C621 C618 1.409 . S
C621 C619 1.415 1_655 S
C622 H612 0.930 . S
C622 C620 1.419 . S
C622 C623 1.362 . S
C623 H613 0.930 . S
C623 C616 1.409 . S
C623 C622 1.362 . S
H624 C630 0.930 . S
H625 C633 0.930 . S
H626 C634 0.930 . S
H627 C635 0.930 . S
H628 C638 0.930 . S
H629 C639 0.930 . S
C630 H624 0.930 . S
C630 C631 1.355 . S
C630 C632 1.415 . S
C631 C630 1.355 . S
C631 C633 1.419 . S
C632 C630 1.415 . S
C632 C637 1.425 . S
C632 C639 1.409 . S
C633 H625 0.930 . S
C633 C631 1.419 . S
C633 C634 1.362 . S
C634 H626 0.930 . S
C634 C633 1.362 . S
C634 C637 1.409 . S
C635 H627 0.930 . S
C635 C636 1.355 . S
C635 C637 1.415 . S
C636 C635 1.355 . S
C636 C638 1.419 . S
C637 C632 1.425 . S
C637 C634 1.409 . S
C637 C635 1.415 . S
C638 H628 0.930 . S
C638 C636 1.419 . S
C638 C639 1.362 . S
C639 H629 0.930 . S
C639 C632 1.409 . S
C639 C638 1.362 . S
H640 C646 0.930 . S
H641 C649 0.930 . S
H642 C650 0.930 . S
H643 C651 0.930 . S
H644 C654 0.930 1_554 S
H645 C655 0.930 . S
C646 H640 0.930 . S
C646 C647 1.355 . S
C646 C648 1.415 . S
C647 C646 1.355 . S
C647 C649 1.419 . S
C648 C646 1.415 . S
C648 C653 1.425 . S
C648 C655 1.409 . S
C649 H641 0.930 . S
C649 C647 1.419 . S
C649 C650 1.362 . S
C650 H642 0.930 . S
C650 C649 1.362 . S
C650 C653 1.409 . S
C651 H643 0.930 . S
C651 C652 1.355 . S
C651 C653 1.415 . S
C652 C651 1.355 . S
C652 C654 1.419 . S
C653 C648 1.425 . S
C653 C650 1.409 . S
C653 C651 1.415 . S
C654 H644 0.930 1_556 S
C654 C652 1.419 . S
C654 C655 1.362 . S
C655 H645 0.930 . S
C655 C648 1.409 . S
C655 C654 1.362 . S
H656 C662 0.930 . S
H657 C665 0.930 . S
H658 C666 0.930 . S
H659 C667 0.930 . S
H660 C670 0.930 . S
H661 C671 0.930 . S
C662 H656 0.930 . S
C662 C663 1.355 . S
C662 C664 1.415 . S
C663 C662 1.355 . S
C663 C665 1.419 . S
C664 C662 1.415 . S
C664 C669 1.425 . S
C664 C671 1.409 . S
C665 H657 0.930 . S
C665 C663 1.419 . S
C665 C666 1.362 . S
C666 H658 0.930 . S
C666 C665 1.362 . S
C666 C669 1.409 . S
C667 H659 0.930 . S
C667 C668 1.355 . S
C667 C669 1.415 . S
C668 C667 1.355 . S
C668 C670 1.419 . S
C669 C664 1.425 . S
C669 C666 1.409 . S
C669 C667 1.415 . S
C670 H660 0.930 . S
C670 C668 1.419 . S
C670 C671 1.362 . S
C671 H661 0.930 . S
C671 C664 1.409 . S
C671 C670 1.362 . S
H672 C678 0.930 . S
H673 C681 0.930 . S
H674 C682 0.930 . S
H675 C683 0.930 . S
H676 C686 0.930 . S
H677 C687 0.930 . S
C678 H672 0.930 . S
C678 C679 1.355 . S
C678 C680 1.415 . S
C679 C678 1.355 . S
C679 C681 1.419 . S
C680 C678 1.415 . S
C680 C685 1.425 . S
C680 C687 1.409 . S
C681 H673 0.930 . S
C681 C679 1.419 . S
C681 C682 1.362 . S
C682 H674 0.930 . S
C682 C681 1.362 . S
C682 C685 1.409 . S
C683 H675 0.930 . S
C683 C684 1.355 . S
C683 C685 1.415 . S
C684 C683 1.355 . S
C684 C686 1.419 . S
C685 C680 1.425 . S
C685 C682 1.409 . S
C685 C683 1.415 . S
C686 H676 0.930 . S
C686 C684 1.419 . S
C686 C687 1.362 . S
C687 H677 0.930 . S
C687 C680 1.409 . S
C687 C686 1.362 . S
H688 C694 0.930 . S
H689 C697 0.930 . S
H690 C698 0.930 . S
H691 C699 0.930 . S
H692 C702 0.930 . S
H693 C703 0.930 . S
C694 H688 0.930 . S
C694 C695 1.355 . S
C694 C696 1.415 1_455 S
C695 C694 1.355 . S
C695 C697 1.419 . S
C696 C694 1.415 1_655 S
C696 C701 1.425 . S
C696 C703 1.409 . S
C697 H689 0.930 . S
C697 C695 1.419 . S
C697 C698 1.362 1_455 S
C698 H690 0.930 . S
C698 C697 1.362 1_655 S
C698 C701 1.409 . S
C699 H691 0.930 . S
C699 C700 1.355 . S
C699 C701 1.415 . S
C700 C699 1.355 . S
C700 C702 1.419 . S
C701 C696 1.425 . S
C701 C698 1.409 . S
C701 C699 1.415 . S
C702 H692 0.930 . S
C702 C700 1.419 . S
C702 C703 1.362 . S
C703 H693 0.930 . S
C703 C696 1.409 . S
C703 C702 1.362 . S
H704 C710 0.930 . S
H705 C713 0.930 . S
H706 C714 0.930 . S
H707 C715 0.930 . S
H708 C718 0.930 . S
H709 C719 0.930 . S
C710 H704 0.930 . S
C710 C711 1.355 . S
C710 C712 1.415 . S
C711 C710 1.355 . S
C711 C713 1.419 . S
C712 C710 1.415 . S
C712 C717 1.425 . S
C712 C719 1.409 . S
C713 H705 0.930 . S
C713 C711 1.419 . S
C713 C714 1.362 . S
C714 H706 0.930 . S
C714 C713 1.362 . S
C714 C717 1.409 . S
C715 H707 0.930 . S
C715 C716 1.355 1_655 S
C715 C717 1.415 . S
C716 C715 1.355 1_455 S
C716 C718 1.419 . S
C717 C712 1.425 . S
C717 C714 1.409 . S
C717 C715 1.415 . S
C718 H708 0.930 . S
C718 C716 1.419 . S
C718 C719 1.362 1_455 S
C719 H709 0.930 . S
C719 C712 1.409 . S
C719 C718 1.362 1_655 S
H720 C726 0.930 1_556 S
H721 C729 0.930 . S
H722 C730 0.930 . S
H723 C731 0.930 . S
H724 C734 0.930 . S
H725 C735 0.930 . S
C726 H720 0.930 1_554 S
C726 C727 1.355 . S
C726 C728 1.415 . S
C727 C726 1.355 . S
C727 C729 1.419 . S
C728 C726 1.415 . S
C728 C733 1.425 . S
C728 C735 1.409 . S
C729 H721 0.930 . S
C729 C727 1.419 . S
C729 C730 1.362 . S
C730 H722 0.930 . S
C730 C729 1.362 . S
C730 C733 1.409 . S
C731 H723 0.930 . S
C731 C732 1.355 . S
C731 C733 1.415 . S
C732 C731 1.355 . S
C732 C734 1.419 . S
C733 C728 1.425 . S
C733 C730 1.409 . S
C733 C731 1.415 . S
C734 H724 0.930 . S
C734 C732 1.419 . S
C734 C735 1.362 . S
C735 H725 0.930 . S
C735 C728 1.409 . S
C735 C734 1.362 . S
H736 C742 0.930 . S
H737 C745 0.930 1_554 S
H738 C746 0.930 . S
H739 C747 0.930 . S
H740 C750 0.930 . S
H741 C751 0.930 . S
C742 H736 0.930 . S
C742 C743 1.355 . S
C742 C744 1.415 . S
C743 C742 1.355 . S
C743 C745 1.419 . S
C744 C742 1.415 . S
C744 C749 1.425 . S
C744 C751 1.409 . S
C745 H737 0.930 1_556 S
C745 C743 1.419 . S
C745 C746 1.362 . S
C746 H738 0.930 . S
C746 C745 1.362 . S
C746 C749 1.409 . S
C747 H739 0.930 . S
C747 C748 1.355 . S
C747 C749 1.415 . S
C748 C747 1.355 . S
C748 C750 1.419 . S
C749 C744 1.425 . S
C749 C746 1.409 . S
C749 C747 1.415 . S
C750 H740 0.930 . S
C750 C748 1.419 . S
C750 C751 1.362 . S
C751 H741 0.930 . S
C751 C744 1.409 . S
C751 C750 1.362 . S
H752 C758 0.930 . S
H753 C761 0.930 . S
H754 C762 0.930 . S
H755 C763 0.930 . S
H756 C766 0.930 . S
H757 C767 0.930 . S
C758 H752 0.930 . S
C758 C759 1.355 . S
C758 C760 1.415 . S
C759 C758 1.355 . S
C759 C761 1.419 . S
C760 C758 1.415 . S
C760 C765 1.425 . S
C760 C767 1.409 . S
C761 H753 0.930 . S
C761 C759 1.419 . S
C761 C762 1.362 . S
C762 H754 0.930 . S
C762 C761 1.362 . S
C762 C765 1.409 . S
C763 H755 0.930 . S
C763 C764 1.355 . S
C763 C765 1.415 . S
C764 C763 1.355 . S
C764 C766 1.419 . S
C765 C760 1.425 . S
C765 C762 1.409 . S
C765 C763 1.415 . S
C766 H756 0.930 . S
C766 C764 1.419 . S
C766 C767 1.362 . S
C767 H757 0.930 . S
C767 C760 1.409 . S
C767 C766 1.362 . S
H768 C774 0.930 . S
H769 C777 0.930 . S
H770 C778 0.930 . S
H771 C779 0.930 . S
H772 C782 0.930 . S
H773 C783 0.930 . S
C774 H768 0.930 . S
C774 C775 1.355 . S
C774 C776 1.415 . S
C775 C774 1.355 . S
C775 C777 1.419 . S
C776 C774 1.415 . S
C776 C781 1.425 . S
C776 C783 1.409 . S
C777 H769 0.930 . S
C777 C775 1.419 . S
C777 C778 1.362 . S
C778 H770 0.930 . S
C778 C777 1.362 . S
C778 C781 1.409 . S
C779 H771 0.930 . S
C779 C780 1.355 . S
C779 C781 1.415 . S
C780 C779 1.355 . S
C780 C782 1.419 . S
C781 C776 1.425 . S
C781 C778 1.409 . S
C781 C779 1.415 . S
C782 H772 0.930 . S
C782 C780 1.419 . S
C782 C783 1.362 . S
C783 H773 0.930 . S
C783 C776 1.409 . S
C783 C782 1.362 . S
H784 C790 0.930 . S
H785 C793 0.930 . S
H786 C794 0.930 . S
H787 C795 0.930 . S
H788 C798 0.930 . S
H789 C799 0.930 . S
C790 H784 0.930 . S
C790 C791 1.355 . S
C790 C792 1.416 . S
C791 C790 1.355 . S
C791 C793 1.419 . S
C792 C790 1.416 . S
C792 C797 1.425 1_544 S
C792 C799 1.407 1_544 S
C793 H785 0.930 . S
C793 C791 1.419 . S
C793 C794 1.362 . S
C794 H786 0.930 . S
C794 C793 1.362 . S
C794 C797 1.407 1_544 S
C795 H787 0.930 . S
C795 C796 1.355 . S
C795 C797 1.416 . S
C796 C795 1.355 . S
C796 C798 1.419 . S
C797 C792 1.425 1_566 S
C797 C794 1.407 1_566 S
C797 C795 1.416 . S
C798 H788 0.930 . S
C798 C796 1.419 . S
C798 C799 1.362 . S
C799 H789 0.930 . S
C799 C792 1.407 1_566 S
C799 C798 1.362 . S
H800 C806 0.930 . S
H801 C809 0.930 . S
H802 C810 0.930 . S
H803 C811 0.930 . S
H804 C814 0.930 . S
H805 C815 0.930 . S
C806 H800 0.930 . S
C806 C807 1.355 . S
C806 C808 1.415 . S
C807 C806 1.355 . S
C807 C809 1.419 . S
C808 C806 1.415 . S
C808 C813 1.425 . S
C808 C815 1.409 . S
C809 H801 0.930 . S
C809 C807 1.419 . S
C809 C810 1.362 . S
C810 H802 0.930 . S
C810 C809 1.362 . S
C810 C813 1.409 . S
C811 H803 0.930 . S
C811 C812 1.355 . S
C811 C813 1.415 . S
C812 C811 1.355 . S
C812 C814 1.419 . S
C813 C808 1.425 . S
C813 C810 1.409 . S
C813 C811 1.415 . S
C814 H804 0.930 . S
C814 C812 1.419 . S
C814 C815 1.362 . S
C815 H805 0.930 . S
C815 C808 1.409 . S
C815 C814 1.362 . S
H816 C822 0.930 . S
H817 C825 0.930 . S
H818 C826 0.930 . S
H819 C827 0.930 . S
H820 C830 0.930 . S
H821 C831 0.930 . S
C822 H816 0.930 . S
C822 C823 1.355 . S
C822 C824 1.415 . S
C823 C822 1.355 . S
C823 C825 1.419 1_545 S
C824 C822 1.415 . S
C824 C829 1.425 1_545 S
C824 C831 1.409 . S
C825 H817 0.930 . S
C825 C823 1.419 1_565 S
C825 C826 1.362 . S
C826 H818 0.930 . S
C826 C825 1.362 . S
C826 C829 1.409 . S
C827 H819 0.930 . S
C827 C828 1.355 . S
C827 C829 1.415 . S
C828 C827 1.355 . S
C828 C830 1.419 1_565 S
C829 C824 1.425 1_565 S
C829 C826 1.409 . S
C829 C827 1.415 . S
C830 H820 0.930 . S
C830 C828 1.419 1_545 S
C830 C831 1.362 . S
C831 H821 0.930 . S
C831 C824 1.409 . S
C831 C830 1.362 . S
H832 C838 0.930 . S
H833 C841 0.930 . S
H834 C842 0.930 . S
H835 C843 0.930 . S
H836 C846 0.930 . S
H837 C847 0.930 . S
C838 H832 0.930 . S
C838 C839 1.355 . S
C838 C840 1.415 . S
C839 C838 1.355 . S
C839 C841 1.419 . S
C840 C838 1.415 . S
C840 C845 1.425 . S
C840 C847 1.409 . S
C841 H833 0.930 . S
C841 C839 1.419 . S
C841 C842 1.362 . S
C842 H834 0.930 . S
C842 C841 1.362 . S
C842 C845 1.409 . S
C843 H835 0.930 . S
C843 C844 1.355 . S
C843 C845 1.415 . S
C844 C843 1.355 . S
C844 C846 1.419 . S
C845 C840 1.425 . S
C845 C842 1.409 . S
C845 C843 1.415 . S
C846 H836 0.930 . S
C846 C844 1.419 . S
C846 C847 1.362 . S
C847 H837 0.930 . S
C847 C840 1.409 . S
C847 C846 1.362 . S
H848 C854 0.930 . S
H849 C857 0.930 . S
H850 C858 0.930 . S
H851 C859 0.930 . S
H852 C862 0.930 . S
H853 C863 0.930 . S
C854 H848 0.930 . S
C854 C855 1.355 . S
C854 C856 1.415 . S
C855 C854 1.355 . S
C855 C857 1.419 . S
C856 C854 1.415 . S
C856 C861 1.425 . S
C856 C863 1.409 . S
C857 H849 0.930 . S
C857 C855 1.419 . S
C857 C858 1.362 . S
C858 H850 0.930 . S
C858 C857 1.362 . S
C858 C861 1.409 . S
C859 H851 0.930 . S
C859 C860 1.355 . S
C859 C861 1.415 . S
C860 C859 1.355 . S
C860 C862 1.419 . S
C861 C856 1.425 . S
C861 C858 1.409 . S
C861 C859 1.415 . S
C862 H852 0.930 . S
C862 C860 1.419 . S
C862 C863 1.362 . S
C863 H853 0.930 . S
C863 C856 1.409 . S
C863 C862 1.362 . S
H864 C870 0.930 . S
H865 C873 0.930 . S
H866 C874 0.930 . S
H867 C875 0.930 . S
H868 C878 0.930 . S
H869 C879 0.930 . S
C870 H864 0.930 . S
C870 C871 1.355 . S
C870 C872 1.415 . S
C871 C870 1.355 . S
C871 C873 1.419 . S
C872 C870 1.415 . S
C872 C877 1.425 . S
C872 C879 1.409 . S
C873 H865 0.930 . S
C873 C871 1.419 . S
C873 C874 1.362 . S
C874 H866 0.930 . S
C874 C873 1.362 . S
C874 C877 1.409 . S
C875 H867 0.930 . S
C875 C876 1.355 . S
C875 C877 1.415 . S
C876 C875 1.355 . S
C876 C878 1.419 . S
C877 C872 1.425 . S
C877 C874 1.409 . S
C877 C875 1.415 . S
C878 H868 0.930 . S
C878 C876 1.419 . S
C878 C879 1.362 . S
C879 H869 0.930 . S
C879 C872 1.409 . S
C879 C878 1.362 . S
H880 C886 0.930 . S
H881 C889 0.930 . S
H882 C890 0.930 . S
H883 C891 0.930 . S
H884 C894 0.930 . S
H885 C895 0.930 . S
C886 H880 0.930 . S
C886 C887 1.355 . S
C886 C888 1.415 . S
C887 C886 1.355 . S
C887 C889 1.419 . S
C888 C886 1.415 . S
C888 C893 1.425 . S
C888 C895 1.409 . S
C889 H881 0.930 . S
C889 C887 1.419 . S
C889 C890 1.362 . S
C890 H882 0.930 . S
C890 C889 1.362 . S
C890 C893 1.409 . S
C891 H883 0.930 . S
C891 C892 1.355 . S
C891 C893 1.415 . S
C892 C891 1.355 . S
C892 C894 1.419 . S
C893 C888 1.425 . S
C893 C890 1.409 . S
C893 C891 1.415 . S
C894 H884 0.930 . S
C894 C892 1.419 . S
C894 C895 1.362 . S
C895 H885 0.930 . S
C895 C888 1.409 . S
C895 C894 1.362 . S
H896 C902 0.930 . S
H897 C905 0.930 . S
H898 C906 0.930 . S
H899 C907 0.930 . S
H900 C910 0.930 . S
H901 C911 0.930 . S
C902 H896 0.930 . S
C902 C903 1.355 . S
C902 C904 1.415 . S
C903 C902 1.355 . S
C903 C905 1.419 . S
C904 C902 1.415 . S
C904 C909 1.425 1_556 S
C904 C911 1.409 1_556 S
C905 H897 0.930 . S
C905 C903 1.419 . S
C905 C906 1.362 . S
C906 H898 0.930 . S
C906 C905 1.362 . S
C906 C909 1.409 1_556 S
C907 H899 0.930 . S
C907 C908 1.355 . S
C907 C909 1.415 . S
C908 C907 1.355 . S
C908 C910 1.419 . S
C909 C904 1.425 1_554 S
C909 C906 1.409 1_554 S
C909 C907 1.415 . S
C910 H900 0.930 . S
C910 C908 1.419 . S
C910 C911 1.362 . S
C911 H901 0.930 . S
C911 C904 1.409 1_554 S
C911 C910 1.362 . S
H912 C918 0.930 . S
H913 C921 0.930 . S
H914 C922 0.930 . S
H915 C923 0.930 . S
H916 C926 0.930 . S
H917 C927 0.930 . S
C918 H912 0.930 . S
C918 C919 1.355 . S
C918 C920 1.415 . S
C919 C918 1.355 . S
C919 C921 1.419 . S
C920 C918 1.415 . S
C920 C925 1.425 . S
C920 C927 1.409 . S
C921 H913 0.930 . S
C921 C919 1.419 . S
C921 C922 1.362 . S
C922 H914 0.930 . S
C922 C921 1.362 . S
C922 C925 1.409 . S
C923 H915 0.930 . S
C923 C924 1.355 . S
C923 C925 1.415 . S
C924 C923 1.355 . S
C924 C926 1.419 . S
C925 C920 1.425 . S
C925 C922 1.409 . S
C925 C923 1.415 . S
C926 H916 0.930 . S
C926 C924 1.419 . S
C926 C927 1.362 . S
C927 H917 0.930 . S
C927 C920 1.409 . S
C927 C926 1.362 . S
H928 C934 0.930 . S
H929 C937 0.930 . S
H930 C938 0.930 . S
H931 C939 0.930 . S
H932 C942 0.930 . S
H933 C943 0.930 . S
C934 H928 0.930 . S
C934 C935 1.355 . S
C934 C936 1.415 . S
C935 C934 1.355 . S
C935 C937 1.419 . S
C936 C934 1.415 . S
C936 C941 1.425 . S
C936 C943 1.409 . S
C937 H929 0.930 . S
C937 C935 1.419 . S
C937 C938 1.362 . S
C938 H930 0.930 . S
C938 C937 1.362 . S
C938 C941 1.409 . S
C939 H931 0.930 . S
C939 C940 1.355 . S
C939 C941 1.415 1_556 S
C940 C939 1.355 . S
C940 C942 1.419 . S
C941 C936 1.425 . S
C941 C938 1.409 . S
C941 C939 1.415 1_554 S
C942 H932 0.930 . S
C942 C940 1.419 . S
C942 C943 1.362 1_556 S
C943 H933 0.930 . S
C943 C936 1.409 . S
C943 C942 1.362 1_554 S
H944 C950 0.930 . S
H945 C953 0.930 . S
H946 C954 0.930 . S
H947 C955 0.930 . S
H948 C958 0.930 . S
H949 C959 0.930 . S
C950 H944 0.930 . S
C950 C951 1.355 . S
C950 C952 1.415 . S
C951 C950 1.355 . S
C951 C953 1.419 . S
C952 C950 1.415 . S
C952 C957 1.425 . S
C952 C959 1.409 . S
C953 H945 0.930 . S
C953 C951 1.419 . S
C953 C954 1.362 . S
C954 H946 0.930 . S
C954 C953 1.362 . S
C954 C957 1.409 . S
C955 H947 0.930 . S
C955 C956 1.355 . S
C955 C957 1.415 . S
C956 C955 1.355 . S
C956 C958 1.419 . S
C957 C952 1.425 . S
C957 C954 1.409 . S
C957 C955 1.415 . S
C958 H948 0.930 . S
C958 C956 1.419 . S
C958 C959 1.362 . S
C959 H949 0.930 . S
C959 C952 1.409 . S
C959 C958 1.362 . S
H960 C966 0.930 . S
H961 C969 0.930 . S
H962 C970 0.930 . S
H963 C971 0.930 . S
H964 C974 0.930 . S
H965 C975 0.930 . S
C966 H960 0.930 . S
C966 C967 1.355 . S
C966 C968 1.415 . S
C967 C966 1.355 . S
C967 C969 1.419 . S
C968 C966 1.415 . S
C968 C973 1.425 . S
C968 C975 1.409 . S
C969 H961 0.930 . S
C969 C967 1.419 . S
C969 C970 1.362 . S
C970 H962 0.930 . S
C970 C969 1.362 . S
C970 C973 1.409 . S
C971 H963 0.930 . S
C971 C972 1.355 . S
C971 C973 1.415 . S
C972 C971 1.355 . S
C972 C974 1.419 . S
C973 C968 1.425 . S
C973 C970 1.409 . S
C973 C971 1.415 . S
C974 H964 0.930 . S
C974 C972 1.419 . S
C974 C975 1.362 . S
C975 H965 0.930 . S
C975 C968 1.409 . S
C975 C974 1.362 . S
H976 C982 0.930 . S
H977 C985 0.930 . S
H978 C986 0.930 . S
H979 C987 0.930 . S
H980 C990 0.930 . S
H981 C991 0.930 . S
C982 H976 0.930 . S
C982 C983 1.355 . S
C982 C984 1.415 . S
C983 C982 1.355 . S
C983 C985 1.419 . S
C984 C982 1.415 . S
C984 C989 1.425 . S
C984 C991 1.409 . S
C985 H977 0.930 . S
C985 C983 1.419 . S
C985 C986 1.362 . S
C986 H978 0.930 . S
C986 C985 1.362 . S
C986 C989 1.409 . S
C987 H979 0.930 . S
C987 C988 1.355 . S
C987 C989 1.415 . S
C988 C987 1.355 . S
C988 C990 1.419 . S
C989 C984 1.425 . S
C989 C986 1.409 . S
C989 C987 1.415 . S
C990 H980 0.930 . S
C990 C988 1.419 . S
C990 C991 1.362 . S
C991 H981 0.930 . S
C991 C984 1.409 . S
C991 C990 1.362 . S
H992 C998 0.930 . S
H993 C1001 0.930 . S
H994 C1002 0.930 . S
H995 C1003 0.930 . S
H996 C1006 0.930 . S
H997 C1007 0.930 . S
C998 H992 0.930 . S
C998 C999 1.355 . S
C998 C1000 1.415 . S
C999 C998 1.355 . S
C999 C1001 1.419 . S
C1000 C998 1.415 . S
C1000 C1005 1.425 . S
C1000 C1007 1.409 . S
C1001 H993 0.930 . S
C1001 C999 1.419 . S
C1001 C1002 1.362 . S
C1002 H994 0.930 . S
C1002 C1001 1.362 . S
C1002 C1005 1.409 . S
C1003 H995 0.930 . S
C1003 C1004 1.355 . S
C1003 C1005 1.415 . S
C1004 C1003 1.355 . S
C1004 C1006 1.419 . S
C1005 C1000 1.425 . S
C1005 C1002 1.409 . S
C1005 C1003 1.415 . S
C1006 H996 0.930 . S
C1006 C1004 1.419 . S
C1006 C1007 1.362 . S
C1007 H997 0.930 . S
C1007 C1000 1.409 . S
C1007 C1006 1.362 . S
H1008 C1014 0.930 . S
H1009 C1017 0.930 . S
H1010 C1018 0.930 . S
H1011 C1019 0.930 . S
H1012 C1022 0.930 . S
H1013 C1023 0.930 . S
C1014 H1008 0.930 . S
C1014 C1015 1.355 . S
C1014 C1016 1.415 . S
C1015 C1014 1.355 . S
C1015 C1017 1.419 . S
C1016 C1014 1.415 . S
C1016 C1021 1.425 . S
C1016 C1023 1.409 . S
C1017 H1009 0.930 . S
C1017 C1015 1.419 . S
C1017 C1018 1.362 . S
C1018 H1010 0.930 . S
C1018 C1017 1.362 . S
C1018 C1021 1.409 . S
C1019 H1011 0.930 . S
C1019 C1020 1.355 . S
C1019 C1021 1.415 . S
C1020 C1019 1.355 . S
C1020 C1022 1.419 . S
C1021 C1016 1.425 . S
C1021 C1018 1.409 . S
C1021 C1019 1.415 . S
C1022 H1012 0.930 . S
C1022 C1020 1.419 . S
C1022 C1023 1.362 . S
C1023 H1013 0.930 . S
C1023 C1016 1.409 . S
C1023 C1022 1.362 . S
H1024 C1030 0.930 . S
H1025 C1033 0.930 . S
H1026 C1034 0.930 . S
H1027 C1035 0.930 . S
H1028 C1038 0.930 . S
H1029 C1039 0.930 1_556 S
C1030 H1024 0.930 . S
C1030 C1031 1.355 . S
C1030 C1032 1.415 . S
C1031 C1030 1.355 . S
C1031 C1033 1.419 . S
C1032 C1030 1.415 . S
C1032 C1037 1.425 . S
C1032 C1039 1.409 1_556 S
C1033 H1025 0.930 . S
C1033 C1031 1.419 . S
C1033 C1034 1.362 . S
C1034 H1026 0.930 . S
C1034 C1033 1.362 . S
C1034 C1037 1.409 . S
C1035 H1027 0.930 . S
C1035 C1036 1.355 . S
C1035 C1037 1.415 1_554 S
C1036 C1035 1.355 . S
C1036 C1038 1.419 . S
C1037 C1032 1.425 . S
C1037 C1034 1.409 . S
C1037 C1035 1.415 1_556 S
C1038 H1028 0.930 . S
C1038 C1036 1.419 . S
C1038 C1039 1.362 . S
C1039 H1029 0.930 1_554 S
C1039 C1032 1.409 1_554 S
C1039 C1038 1.362 . S
H1040 C1046 0.930 . S
H1041 C1049 0.930 . S
H1042 C1050 0.930 . S
H1043 C1051 0.930 . S
H1044 C1054 0.930 . S
H1045 C1055 0.930 . S
C1046 H1040 0.930 . S
C1046 C1047 1.355 . S
C1046 C1048 1.415 1_554 S
C1047 C1046 1.355 . S
C1047 C1049 1.419 . S
C1048 C1046 1.415 1_556 S
C1048 C1053 1.425 . S
C1048 C1055 1.409 . S
C1049 H1041 0.930 . S
C1049 C1047 1.419 . S
C1049 C1050 1.362 1_554 S
C1050 H1042 0.930 . S
C1050 C1049 1.362 1_556 S
C1050 C1053 1.409 . S
C1051 H1043 0.930 . S
C1051 C1052 1.355 . S
C1051 C1053 1.415 . S
C1052 C1051 1.355 . S
C1052 C1054 1.419 . S
C1053 C1048 1.425 . S
C1053 C1050 1.409 . S
C1053 C1051 1.415 . S
C1054 H1044 0.930 . S
C1054 C1052 1.419 . S
C1054 C1055 1.362 . S
C1055 H1045 0.930 . S
C1055 C1048 1.409 . S
C1055 C1054 1.362 . S
H1056 C1062 0.930 . S
H1057 C1065 0.930 . S
H1058 C1066 0.930 . S
H1059 C1067 0.930 . S
H1060 C1070 0.930 . S
H1061 C1071 0.930 . S
C1062 H1056 0.930 . S
C1062 C1063 1.355 . S
C1062 C1064 1.415 . S
C1063 C1062 1.355 . S
C1063 C1065 1.419 . S
C1064 C1062 1.415 . S
C1064 C1069 1.425 . S
C1064 C1071 1.409 . S
C1065 H1057 0.930 . S
C1065 C1063 1.419 . S
C1065 C1066 1.362 . S
C1066 H1058 0.930 . S
C1066 C1065 1.362 . S
C1066 C1069 1.409 . S
C1067 H1059 0.930 . S
C1067 C1068 1.355 . S
C1067 C1069 1.415 . S
C1068 C1067 1.355 . S
C1068 C1070 1.419 . S
C1069 C1064 1.425 . S
C1069 C1066 1.409 . S
C1069 C1067 1.415 . S
C1070 H1060 0.930 . S
C1070 C1068 1.419 . S
C1070 C1071 1.362 . S
C1071 H1061 0.930 . S
C1071 C1064 1.409 . S
C1071 C1070 1.362 . S
H1072 C1078 0.930 . S
H1073 C1081 0.930 . S
H1074 C1082 0.930 . S
H1075 C1083 0.930 . S
H1076 C1086 0.930 . S
H1077 C1087 0.930 . S
C1078 H1072 0.930 . S
C1078 C1079 1.355 . S
C1078 C1080 1.415 . S
C1079 C1078 1.355 . S
C1079 C1081 1.419 . S
C1080 C1078 1.415 . S
C1080 C1085 1.425 . S
C1080 C1087 1.409 . S
C1081 H1073 0.930 . S
C1081 C1079 1.419 . S
C1081 C1082 1.362 . S
C1082 H1074 0.930 . S
C1082 C1081 1.362 . S
C1082 C1085 1.409 . S
C1083 H1075 0.930 . S
C1083 C1084 1.355 . S
C1083 C1085 1.415 . S
C1084 C1083 1.355 . S
C1084 C1086 1.419 . S
C1085 C1080 1.425 . S
C1085 C1082 1.409 . S
C1085 C1083 1.415 . S
C1086 H1076 0.930 . S
C1086 C1084 1.419 . S
C1086 C1087 1.362 . S
C1087 H1077 0.930 . S
C1087 C1080 1.409 . S
C1087 C1086 1.362 . S
H1088 C1094 0.930 . S
H1089 C1097 0.930 . S
H1090 C1098 0.930 . S
H1091 C1099 0.930 . S
H1092 C1102 0.930 . S
H1093 C1103 0.930 . S
C1094 H1088 0.930 . S
C1094 C1095 1.355 . S
C1094 C1096 1.415 . S
C1095 C1094 1.355 . S
C1095 C1097 1.419 . S
C1096 C1094 1.415 . S
C1096 C1101 1.425 . S
C1096 C1103 1.409 . S
C1097 H1089 0.930 . S
C1097 C1095 1.419 . S
C1097 C1098 1.362 . S
C1098 H1090 0.930 . S
C1098 C1097 1.362 . S
C1098 C1101 1.409 . S
C1099 H1091 0.930 . S
C1099 C1100 1.355 . S
C1099 C1101 1.415 1_556 S
C1100 C1099 1.355 . S
C1100 C1102 1.419 . S
C1101 C1096 1.425 . S
C1101 C1098 1.409 . S
C1101 C1099 1.415 1_554 S
C1102 H1092 0.930 . S
C1102 C1100 1.419 . S
C1102 C1103 1.362 1_556 S
C1103 H1093 0.930 . S
C1103 C1096 1.409 . S
C1103 C1102 1.362 1_554 S
H1104 C1110 0.930 . S
H1105 C1113 0.930 . S
H1106 C1114 0.930 . S
H1107 C1115 0.930 . S
H1108 C1118 0.930 . S
H1109 C1119 0.930 . S
C1110 H1104 0.930 . S
C1110 C1111 1.355 . S
C1110 C1112 1.415 . S
C1111 C1110 1.355 . S
C1111 C1113 1.419 . S
C1112 C1110 1.415 . S
C1112 C1117 1.425 . S
C1112 C1119 1.409 . S
C1113 H1105 0.930 . S
C1113 C1111 1.419 . S
C1113 C1114 1.362 . S
C1114 H1106 0.930 . S
C1114 C1113 1.362 . S
C1114 C1117 1.409 . S
C1115 H1107 0.930 . S
C1115 C1116 1.355 . S
C1115 C1117 1.415 . S
C1116 C1115 1.355 . S
C1116 C1118 1.419 . S
C1117 C1112 1.425 . S
C1117 C1114 1.409 . S
C1117 C1115 1.415 . S
C1118 H1108 0.930 . S
C1118 C1116 1.419 . S
C1118 C1119 1.362 . S
C1119 H1109 0.930 . S
C1119 C1112 1.409 . S
C1119 C1118 1.362 . S
H1120 C1126 0.930 . S
H1121 C1129 0.930 . S
H1122 C1130 0.930 . S
H1123 C1131 0.930 . S
H1124 C1134 0.930 . S
H1125 C1135 0.930 . S
C1126 H1120 0.930 . S
C1126 C1127 1.355 . S
C1126 C1128 1.415 . S
C1127 C1126 1.355 . S
C1127 C1129 1.419 . S
C1128 C1126 1.415 . S
C1128 C1133 1.425 . S
C1128 C1135 1.409 . S
C1129 H1121 0.930 . S
C1129 C1127 1.419 . S
C1129 C1130 1.362 . S
C1130 H1122 0.930 . S
C1130 C1129 1.362 . S
C1130 C1133 1.409 . S
C1131 H1123 0.930 . S
C1131 C1132 1.355 . S
C1131 C1133 1.415 . S
C1132 C1131 1.355 . S
C1132 C1134 1.419 . S
C1133 C1128 1.425 . S
C1133 C1130 1.409 . S
C1133 C1131 1.415 . S
C1134 H1124 0.930 . S
C1134 C1132 1.419 . S
C1134 C1135 1.362 . S
C1135 H1125 0.930 . S
C1135 C1128 1.409 . S
C1135 C1134 1.362 . S
H1136 C1142 0.930 . S
H1137 C1145 0.930 . S
H1138 C1146 0.930 . S
H1139 C1147 0.930 . S
H1140 C1150 0.930 . S
H1141 C1151 0.930 . S
C1142 H1136 0.930 . S
C1142 C1143 1.355 . S
C1142 C1144 1.415 . S
C1143 C1142 1.355 . S
C1143 C1145 1.419 . S
C1144 C1142 1.415 . S
C1144 C1149 1.425 . S
C1144 C1151 1.409 . S
C1145 H1137 0.930 . S
C1145 C1143 1.419 . S
C1145 C1146 1.362 . S
C1146 H1138 0.930 . S
C1146 C1145 1.362 . S
C1146 C1149 1.409 . S
C1147 H1139 0.930 . S
C1147 C1148 1.355 . S
C1147 C1149 1.415 . S
C1148 C1147 1.355 . S
C1148 C1150 1.419 . S
C1149 C1144 1.425 . S
C1149 C1146 1.409 . S
C1149 C1147 1.415 . S
C1150 H1140 0.930 . S
C1150 C1148 1.419 . S
C1150 C1151 1.362 . S
C1151 H1141 0.930 . S
C1151 C1144 1.409 . S
C1151 C1150 1.362 . S
H1152 C1158 0.930 . S
H1153 C1161 0.930 . S
H1154 C1162 0.930 . S
H1155 C1163 0.930 . S
H1156 C1166 0.930 . S
H1157 C1167 0.930 . S
C1158 H1152 0.930 . S
C1158 C1159 1.355 . S
C1158 C1160 1.415 . S
C1159 C1158 1.355 . S
C1159 C1161 1.419 . S
C1160 C1158 1.415 . S
C1160 C1165 1.425 . S
C1160 C1167 1.409 . S
C1161 H1153 0.930 . S
C1161 C1159 1.419 . S
C1161 C1162 1.362 . S
C1162 H1154 0.930 . S
C1162 C1161 1.362 . S
C1162 C1165 1.409 . S
C1163 H1155 0.930 . S
C1163 C1164 1.355 . S
C1163 C1165 1.415 . S
C1164 C1163 1.355 . S
C1164 C1166 1.419 . S
C1165 C1160 1.425 . S
C1165 C1162 1.409 . S
C1165 C1163 1.415 . S
C1166 H1156 0.930 . S
C1166 C1164 1.419 . S
C1166 C1167 1.362 . S
C1167 H1157 0.930 . S
C1167 C1160 1.409 . S
C1167 C1166 1.362 . S
C535 C238 1.505 . S
C540 C7 1.466 . S
C551 C40 1.506 . S
C556 C139 1.471 . S
C567 C73 1.542 . S
C572 C172 1.514 . S
C583 C205 1.502 . S
C588 C106 1.509 . S
C599 C384 1.532 . S
C604 C153 1.547 . S
C615 C285 1.538 . S
C620 C21 1.515 . S
C631 C219 1.546 . S
C636 C351 1.577 . S
C647 C87 1.578 . S
C652 C318 1.553 . S
C663 C304 1.540 . S
C668 C403 1.496 . S
C679 C469 1.542 . S
C684 C337 1.506 . S
C695 C436 1.481 . S
C700 C271 1.504 . S
C711 C370 1.499 . S
C716 C502 1.490 . S
C727 C120 1.561 . S
C732 C483 1.544 . S
C743 C186 1.578 . S
C748 C417 1.547 . S
C759 C54 1.543 . S
C764 C516 1.516 . S
C775 C252 1.516 . S
C780 C450 1.546 . S
C791 C18 1.438 . S
C796 C150 1.436 . S
C807 C183 1.485 . S
C812 C51 1.482 . S
C823 C216 1.646 . S
C828 C84 1.647 . S
C839 C117 1.513 . S
C844 C249 1.511 . S
C855 C348 1.425 . S
C860 C282 1.423 . S
C871 C315 1.456 . S
C876 C381 1.451 . S
C887 C414 1.636 . S
C892 C480 1.637 . S
C903 C513 1.467 . S
C908 C447 1.469 . S
C919 N13 1.028 . S
C924 N2 1.028 . S
C935 N46 0.994 . S
C940 N35 0.992 . S
C951 N68 1.042 . S
C956 N79 1.044 . S
C967 N101 0.997 . S
C972 N112 0.997 . S
C983 N134 0.998 . S
C988 N145 0.999 . S
C999 N167 1.007 . S
C1004 N178 1.005 . S
C1015 N211 1.058 . S
C1020 N200 1.057 . S
C1031 N244 1.017 . S
C1036 N233 1.016 . S
C1047 N266 1.018 . S
C1052 N277 1.019 . S
C1063 N299 1.023 . S
C1068 N310 1.021 . S
C1079 N343 0.997 . S
C1084 N332 0.997 . S
C1095 N376 1.012 . S
C1100 N365 1.011 . S
C1111 N409 1.025 . S
C1116 N398 1.024 . S
C1127 N442 0.996 . S
C1132 N431 0.995 . S
C1143 N475 1.048 . S
C1148 N464 1.050 . S
C1159 N497 0.999 . S
C1164 N508 1.001 . S
