# Generated by pormake.
# Topology ilc, (8)-cn, num edge types: 1
# Building blocks:
#     Node 0, Type 0, BuildingBlock: EYACOX_clean_sbu_0, # of connection points: 8
#     Node 1, Type 0, BuildingBlock: EYACOX_clean_sbu_0, # of connection points: 8
#     Node 2, Type 0, BuildingBlock: EYACOX_clean_sbu_0, # of connection points: 8
#     Edge 3, Type (0, 0), BuildingBlock: ZUJKAS_clean_linker_0, # of connection points: 2
#     Edge 4, Type (0, 0), BuildingBlock: ZUJKAS_clean_linker_0, # of connection points: 2
#     Edge 5, Type (0, 0), BuildingBlock: ZUJKAS_clean_linker_0, # of connection points: 2
#     Edge 6, Type (0, 0), BuildingBlock: ZUJKAS_clean_linker_0, # of connection points: 2
#     Edge 7, Type (0, 0), BuildingBlock: ZUJKAS_clean_linker_0, # of connection points: 2
#     Edge 8, Type (0, 0), BuildingBlock: ZUJKAS_clean_linker_0, # of connection points: 2
#     Edge 9, Type (0, 0), BuildingBlock: ZUJKAS_clean_linker_0, # of connection points: 2
#     Edge 10, Type (0, 0), BuildingBlock: ZUJKAS_clean_linker_0, # of connection points: 2
#     Edge 11, Type (0, 0), BuildingBlock: ZUJKAS_clean_linker_0, # of connection points: 2
#     Edge 12, Type (0, 0), BuildingBlock: ZUJKAS_clean_linker_0, # of connection points: 2
#     Edge 13, Type (0, 0), BuildingBlock: ZUJKAS_clean_linker_0, # of connection points: 2
#     Edge 14, Type (0, 0), BuildingBlock: ZUJKAS_clean_linker_0, # of connection points: 2
# Relax obj value: 0.090
# Max RMSD: 0.168
# Mean RMSD: 0.168
data_MOF--net-ilc--node1-EYACOX_clean_sbu_0--edge1-ZUJKAS_clean_linker_0
_symmetry_space_group_name_H-M    P1
_symmetry_Int_Tables_number       1
_symmetry_cell_setting            triclinic
loop_
_symmetry_equiv_pos_as_xyz
'x, y, z'
_cell_length_a     32.494024
_cell_length_b     27.615246
_cell_length_c     23.994067
_cell_angle_alpha  84.277654
_cell_angle_beta   117.00896
_cell_angle_gamma 128.18439
loop_
_atom_site_label
_atom_site_type_symbol
_atom_site_fract_x
_atom_site_fract_y
_atom_site_fract_z
_atom_type_partial_charge
Eu0 Eu 0.96847 0.93915 0.00277 0.0
Eu1 Eu 0.08085 1.00131 0.97088 0.0
O2 O 0.90238 0.86615 0.03095 0.0
O3 O 0.91463 0.95206 0.01862 0.0
O4 O 1.00924 0.89462 0.93144 0.0
O5 O 0.92544 0.88149 0.90491 0.0
O6 O 0.96728 1.00507 0.93944 0.0
O7 O 1.01753 0.0121 0.89119 0.0
C8 C 0.89492 0.91058 0.10226 0.0
C9 C 0.90204 0.93114 0.21941 0.0
C10 C 0.84905 0.87573 0.17048 0.0
C11 C 0.84527 0.86522 0.11157 0.0
C12 C 0.9515 0.97651 0.21095 0.0
C13 C 0.94822 0.96622 0.15253 0.0
C14 C 0.89034 0.90109 0.03947 0.0
C15 C 0.95152 0.86517 0.8932 0.0
O16 O 0.17455 0.07157 0.99125 0.0
O17 O 0.10803 0.98881 0.90929 0.0
C18 C 0.98277 0.0202 0.89447 0.0
O19 O 0.10015 0.08225 0.0236 0.0
O20 O 0.05692 0.02278 0.08293 0.0
O21 O 0.10613 0.97174 0.06325 0.0
O22 O 1.0113 0.89515 0.05123 0.0
C23 C 0.1899 0.08071 0.90131 0.0
C24 C 0.19093 0.14232 0.82096 0.0
C25 C 0.16704 0.10848 0.86064 0.0
C26 C 0.23739 0.14809 0.82242 0.0
C27 C 0.25809 0.1177 0.85958 0.0
C28 C 0.23449 0.08434 0.89952 0.0
C29 C 0.16375 0.04201 0.94091 0.0
C30 C 0.09077 0.07799 0.07225 0.0
C31 C 0.06871 0.92206 0.07838 0.0
H32 H 0.9046 0.93942 0.26463 0.0
H33 H 0.80393 0.82268 0.07313 0.0
H34 H 0.98682 1.00126 0.14631 0.0
H35 H 0.12966 0.10188 0.85819 0.0
H36 H 0.2532 0.17099 0.78898 0.0
H37 H 0.2495 0.05972 0.92768 0.0
Eu38 Eu 0.65467 0.29603 0.35151 0.0
Eu39 Eu 0.76181 0.35278 0.31381 0.0
O40 O 0.58986 0.22616 0.3826 0.0
O41 O 0.60317 0.31247 0.36779 0.0
O42 O 0.69833 0.2456 0.29056 0.0
O43 O 0.61108 0.22616 0.26196 0.0
O44 O 0.64421 0.35011 0.27675 0.0
O45 O 0.69075 0.34958 0.22796 0.0
C46 C 0.58133 0.27243 0.45121 0.0
C47 C 0.5821 0.29226 0.5641 0.0
C48 C 0.53646 0.23202 0.52057 0.0
C49 C 0.53577 0.22194 0.46378 0.0
C50 C 0.62739 0.34278 0.55244 0.0
C51 C 0.62761 0.33296 0.49638 0.0
C52 C 0.57851 0.2623 0.38967 0.0
C53 C 0.63922 0.20905 0.2571 0.0
O54 O 0.85228 0.42527 0.32584 0.0
O55 O 0.78807 0.33452 0.25491 0.0
C56 C 0.65528 0.35779 0.22877 0.0
O57 O 0.77856 0.4358 0.35835 0.0
O58 O 0.74373 0.38438 0.42614 0.0
O59 O 0.79535 0.33467 0.41195 0.0
O60 O 0.70462 0.2616 0.41034 0.0
C61 C 0.86101 0.42244 0.233 0.0
C62 C 0.85712 0.4797 0.14928 0.0
C63 C 0.83949 0.45236 0.19505 0.0
C64 C 0.89569 0.47659 0.14152 0.0
C65 C 0.91486 0.44411 0.17635 0.0
C66 C 0.89769 0.41741 0.22254 0.0
C67 C 0.84152 0.39087 0.27952 0.0
C68 C 0.77538 0.43719 0.41068 0.0
C69 C 0.76193 0.28951 0.43413 0.0
H70 H 0.58224 0.30004 0.60771 0.0
H71 H 0.49977 0.17548 0.42935 0.0
H72 H 0.66304 0.37232 0.48772 0.0
H73 H 0.80803 0.45272 0.19977 0.0
H74 H 0.90651 0.49487 0.10375 0.0
H75 H 0.91173 0.39153 0.24928 0.0
Eu76 Eu 0.2993 0.59914 0.67246 0.0
Eu77 Eu 0.41806 0.68254 0.64711 0.0
O78 O 0.24243 0.52237 0.70731 0.0
O79 O 0.22381 0.58475 0.66795 0.0
O80 O 0.33532 0.60454 0.55722 0.0
O81 O 0.27968 0.53086 0.60112 0.0
O82 O 0.27384 0.63316 0.58323 0.0
O83 O 0.36865 0.71971 0.60075 0.0
C84 C 0.20613 0.54886 0.75423 0.0
C85 C 0.19334 0.56692 0.85623 0.0
C86 C 0.15086 0.50679 0.81296 0.0
C87 C 0.15708 0.49748 0.76164 0.0
C88 C 0.24264 0.61781 0.85033 0.0
C89 C 0.24949 0.60888 0.79957 0.0
C90 C 0.21137 0.54011 0.69868 0.0
C91 C 0.29285 0.54558 0.55454 0.0
O92 O 0.49576 0.77047 0.64533 0.0
O93 O 0.47107 0.68025 0.61669 0.0
C94 C 0.30994 0.68704 0.57132 0.0
O95 O 0.45457 0.73453 0.74551 0.0
O96 O 0.36458 0.69879 0.73352 0.0
O97 O 0.42121 0.61292 0.70238 0.0
O98 O 0.37173 0.6006 0.75374 0.0
C99 C 0.51663 0.76038 0.56602 0.0
C100 C 0.49833 0.79808 0.4683 0.0
C101 C 0.48569 0.77797 0.51867 0.0
C102 C 0.54113 0.79986 0.46507 0.0
C103 C 0.57 0.77969 0.50963 0.0
C104 C 0.55776 0.7599 0.56031 0.0
C105 C 0.50598 0.74123 0.62096 0.0
C106 C 0.42388 0.73796 0.76398 0.0
C107 C 0.40785 0.59601 0.74868 0.0
H108 H 0.18886 0.57378 0.89634 0.0
H109 H 0.12397 0.45098 0.72767 0.0
H110 H 0.28792 0.64836 0.79512 0.0
H111 H 0.4518 0.77556 0.52065 0.0
H112 H 0.54914 0.8132 0.42473 0.0
H113 H 0.57998 0.7441 0.59497 0.0
H114 H 0.07711 0.06291 0.71918 0.0
H115 H 0.0489 0.07976 0.61079 0.0
H116 H 0.21 0.2781 0.69028 0.0
H117 H 0.23958 0.26045 0.7989 0.0
H118 H 1.03305 0.15315 0.53451 0.0
H119 H 0.24909 0.21079 0.59799 0.0
H120 H 0.21848 0.1835 0.65143 0.0
H121 H 0.25465 0.26397 0.64396 0.0
C122 C 0.1048 0.11087 0.71398 0.0
C123 C 0.16087 0.16014 0.76712 0.0
C124 C 0.08898 0.12044 0.6518 0.0
C125 C 0.12869 0.17961 0.64215 0.0
C126 C 0.17972 0.23153 0.69638 0.0
H127 H 0.98656 0.09556 0.22234 0.0
H128 H 0.0478 0.17354 0.32594 0.0
C129 C 0.19604 0.22172 0.75857 0.0
C130 C 0.12171 0.18245 0.57646 0.0
H131 H 0.18165 0.18516 0.48908 0.0
C132 C 0.06611 0.16181 0.52443 0.0
C133 C 0.16502 0.19359 0.56349 0.0
C134 C 0.22503 0.2138 0.61691 0.0
C135 C 0.05043 0.14662 0.45998 0.0
C136 C 0.09226 0.15382 0.44722 0.0
C137 C 0.14991 0.18002 0.49902 0.0
C138 C 0.07237 0.12103 0.3838 0.0
C139 C 0.98712 0.11731 0.4067 0.0
C140 C 0.07129 0.06961 0.38148 0.0
C141 C 1.03797 0.02639 0.32258 0.0
C142 C 1.00522 0.03389 0.26502 0.0
C143 C 1.01209 0.08933 0.26621 0.0
C144 C 0.04612 0.13317 0.32542 0.0
H145 H 0.95819 0.10817 0.42585 0.0
H146 H 0.98923 0.15007 0.37514 0.0
H147 H 0.96504 0.07146 0.37638 0.0
H148 H 0.09148 0.05938 0.42573 0.0
H149 H 1.03268 0.98359 0.32276 0.0
H150 H 0.61932 0.4332 0.56218 0.0
H151 H 0.67173 0.5083 0.66355 0.0
H152 H 0.78535 0.4588 0.7571 0.0
H153 H 0.73407 0.38558 0.6557 0.0
H154 H 0.65968 0.47131 0.75773 0.0
H155 H 0.90404 0.63705 0.85764 0.0
H156 H 0.85263 0.59467 0.77302 0.0
H157 H 0.87915 0.56045 0.83208 0.0
C158 C 0.6581 0.44165 0.60355 0.0
C159 C 0.6735 0.40459 0.60123 0.0
C160 C 0.68766 0.48406 0.66171 0.0
C161 C 0.73305 0.49001 0.71842 0.0
C162 C 0.75199 0.45709 0.71414 0.0
H163 H 0.74229 0.40531 0.05048 0.0
H164 H 0.70968 0.42813 0.94628 0.0
C165 C 0.72266 0.41502 0.65597 0.0
C166 C 0.75166 0.51887 0.78338 0.0
H167 H 0.87015 0.58811 0.9379 0.0
C168 C 0.70617 0.49874 0.79685 0.0
C169 C 0.81232 0.55728 0.83476 0.0
C170 C 0.86467 0.58916 0.82318 0.0
C171 C 0.71866 0.50889 0.86074 0.0
C172 C 0.77746 0.53685 0.91269 0.0
C173 C 0.82431 0.56438 0.89879 0.0
C174 C 0.78935 0.52856 0.97935 0.0
C175 C 0.668 0.48748 0.87146 0.0
C176 C 0.84426 0.57736 0.03427 0.0
C177 C 0.86371 0.56347 0.09387 0.0
C178 C 0.82791 0.50096 0.09988 0.0
C179 C 0.77 0.45417 0.04741 0.0
C180 C 0.75129 0.4675 0.98747 0.0
H181 H 0.64035 0.49868 0.83547 0.0
H182 H 0.63747 0.43492 0.86386 0.0
H183 H 0.68512 0.51058 0.92082 0.0
H184 H 0.87449 0.62493 0.02985 0.0
H185 H 0.90903 0.60006 0.13351 0.0
H186 H 0.23324 0.70621 0.86462 0.0
H187 H 0.28652 0.7805 0.96718 0.0
H188 H 0.39924 0.72948 0.05713 0.0
H189 H 0.348 0.65819 0.95416 0.0
H190 H 0.27677 0.74382 0.06309 0.0
H191 H 0.51986 0.90899 0.153 0.0
H192 H 0.46665 0.8602 0.07074 0.0
H193 H 0.49537 0.83119 0.13498 0.0
C194 C 0.27183 0.71401 0.90558 0.0
C195 C 0.28761 0.67779 0.90152 0.0
C196 C 0.30171 0.7557 0.96442 0.0
C197 C 0.34735 0.76121 0.02033 0.0
C198 C 0.36569 0.72806 0.01477 0.0
H199 H 0.38264 0.7095 0.37361 0.0
H200 H 0.34141 0.71724 0.26278 0.0
C201 C 0.33641 0.68715 0.95576 0.0
C202 C 0.36802 0.79149 0.08574 0.0
H203 H 0.49046 0.86922 0.23813 0.0
C204 C 0.32388 0.77294 0.10096 0.0
C205 C 0.42946 0.83124 0.13547 0.0
C206 C 0.48032 0.85948 0.12218 0.0
C207 C 0.33869 0.78734 0.16512 0.0
C208 C 0.39878 0.81897 0.21578 0.0
C209 C 0.44389 0.84346 0.19986 0.0
C210 C 0.41449 0.81881 0.28459 0.0
C211 C 0.28924 0.76669 0.1778 0.0
C212 C 0.46825 0.87353 0.3349 0.0
C213 C 0.49233 0.86866 0.39839 0.0
C214 C 0.46259 0.8092 0.41266 0.0
C215 C 0.40557 0.75609 0.36403 0.0
C216 C 0.38202 0.76066 0.30039 0.0
H217 H 0.2574 0.77162 0.13876 0.0
H218 H 0.26272 0.71552 0.17762 0.0
H219 H 0.30764 0.79498 0.22498 0.0
H220 H 0.49421 0.91894 0.32424 0.0
H221 H 0.53695 0.90999 0.43502 0.0
H222 H 0.36776 0.78773 0.52294 0.0
H223 H 0.32393 0.82473 0.43818 0.0
H224 H 0.1488 0.6757 0.41919 0.0
H225 H 0.1922 0.63843 0.50443 0.0
H226 H 0.22782 0.75448 0.30866 0.0
H227 H 0.174 0.8399 0.44372 0.0
H228 H 0.22536 0.82405 0.48327 0.0
H229 H 0.14502 0.75927 0.44111 0.0
C230 C 0.31998 0.763 0.50123 0.0
C231 C 0.28356 0.7103 0.52089 0.0
C232 C 0.29502 0.78415 0.4526 0.0
C233 C 0.23336 0.75344 0.42306 0.0
C234 C 0.19675 0.70071 0.44222 0.0
H235 H 1.00621 0.82039 0.12342 0.0
H236 H 0.04487 0.77684 0.20431 0.0
C237 C 0.22161 0.67933 0.49076 0.0
C238 C 0.20726 0.77597 0.37128 0.0
H239 H 0.13912 0.84062 0.33328 0.0
C240 C 0.20846 0.77339 0.31397 0.0
C241 C 0.18208 0.80056 0.37851 0.0
C242 C 0.18184 0.80675 0.44012 0.0
C243 C 0.18447 0.79415 0.26321 0.0
C244 C 0.15959 0.81909 0.27058 0.0
C245 C 0.15808 0.82129 0.32776 0.0
C246 C 0.13597 0.84442 0.22015 0.0
C247 C 0.18519 0.78832 0.20185 0.0
C248 C 0.17457 0.89722 0.20272 0.0
C249 C 0.1527 0.92231 0.15655 0.0
C250 C 0.09181 0.89524 0.12714 0.0
C251 C 0.05331 0.84241 0.14497 0.0
C252 C 0.07529 0.81741 0.1912 0.0
H253 H 0.18993 0.75267 0.19684 0.0
H254 H 0.14324 0.77445 0.1585 0.0
H255 H 0.22434 0.83509 0.20298 0.0
H256 H 0.22186 0.91956 0.22545 0.0
H257 H 0.18371 0.96313 0.14425 0.0
H258 H 0.20471 0.41646 0.53085 0.0
H259 H 0.15758 0.33332 0.43973 0.0
H260 H 0.26115 0.4776 0.35997 0.0
H261 H 0.30728 0.56056 0.44927 0.0
H262 H 0.14014 0.37789 0.2671 0.0
H263 H 0.25402 0.28913 0.42985 0.0
H264 H 0.20879 0.29295 0.44958 0.0
H265 H 0.27702 0.36529 0.4556 0.0
C266 C 0.21695 0.43042 0.49355 0.0
C267 C 0.26029 0.49503 0.49771 0.0
C268 C 0.19018 0.38294 0.44177 0.0
C269 C 0.20682 0.39962 0.39401 0.0
C270 C 0.24798 0.46398 0.39662 0.0
H271 H 0.20292 0.19489 0.14076 0.0
H272 H 0.22974 0.27734 0.2153 0.0
C273 C 0.27448 0.51128 0.44795 0.0
C274 C 0.18467 0.35078 0.34296 0.0
H275 H 0.19729 0.24214 0.31824 0.0
C276 C 0.15218 0.34781 0.27809 0.0
C277 C 0.20117 0.31231 0.35794 0.0
C278 C 0.23751 0.31503 0.42692 0.0
C279 C 0.13637 0.30772 0.22751 0.0
C280 C 0.15368 0.27008 0.24265 0.0
C281 C 0.1851 0.27209 0.30734 0.0
C282 C 0.13747 0.22597 0.19207 0.0
C283 C 0.10244 0.30669 0.1584 0.0
C284 C 0.07699 0.17116 0.15422 0.0
C285 C 0.06201 0.12471 0.11247 0.0
C286 C 0.10729 0.13237 0.10816 0.0
C287 C 0.16754 0.1886 0.14342 0.0
C288 C 0.1827 0.23518 0.18586 0.0
H289 H 0.10178 0.34659 0.15539 0.0
H290 H 0.12301 0.30928 0.1306 0.0
H291 H 0.05491 0.26127 0.13493 0.0
H292 H 0.04174 0.16312 0.15897 0.0
H293 H 1.01511 0.08176 0.08485 0.0
H294 H 0.67514 0.87624 0.51243 0.0
H295 H 0.71777 0.86671 0.45655 0.0
H296 H 0.58934 0.66183 0.41645 0.0
H297 H 0.54651 0.67144 0.47253 0.0
H298 H 0.76407 0.80351 0.46129 0.0
H299 H 0.54572 0.70207 0.23595 0.0
H300 H 0.56714 0.74116 0.31156 0.0
H301 H 0.54186 0.66206 0.29962 0.0
C302 C 0.6578 0.82935 0.49407 0.0
C303 C 0.60791 0.77458 0.49706 0.0
C304 C 0.68183 0.82386 0.46177 0.0
C305 C 0.65593 0.76352 0.43126 0.0
C306 C 0.60949 0.70881 0.43902 0.0
H307 H 0.82322 0.7738 0.22065 0.0
H308 H 0.76643 0.72899 0.27868 0.0
C309 C 0.58562 0.71432 0.47177 0.0
C310 C 0.67313 0.75877 0.38554 0.0
H311 H 0.62311 0.72465 0.2238 0.0
C312 C 0.73307 0.78519 0.40941 0.0
C313 C 0.63266 0.73563 0.31779 0.0
C314 C 0.56832 0.70896 0.28927 0.0
C315 C 0.75429 0.79121 0.36736 0.0
C316 C 0.71412 0.76925 0.29945 0.0
C317 C 0.6536 0.74076 0.27574 0.0
C318 C 0.73612 0.78327 0.25274 0.0
C319 C 0.82047 0.82453 0.396 0.0
C320 C 0.73378 0.8245 0.21464 0.0
C321 C 0.76494 0.84883 0.18043 0.0
C322 C 0.7986 0.83201 0.18336 0.0
C323 C 0.79651 0.78639 0.21665 0.0
C324 C 0.76501 0.76173 0.2507 0.0
H325 H 0.84736 0.84893 0.44825 0.0
H326 H 0.82522 0.78894 0.3911 0.0
H327 H 0.84004 0.86039 0.36999 0.0
H328 H 0.71169 0.8417 0.21528 0.0
H329 H 0.76713 0.88508 0.15636 0.0
H330 H 0.70627 0.19479 0.48904 0.0
H331 H 0.7483 0.15364 0.56921 0.0
H332 H 0.91918 0.29045 0.57503 0.0
H333 H 0.87777 0.33253 0.495 0.0
H334 H 0.79575 0.10081 0.55478 0.0
H335 H 0.9664 0.31078 0.76762 0.0
H336 H 0.90504 0.30127 0.69781 0.0
H337 H 0.9699 0.32692 0.69485 0.0
C338 C 0.75299 0.21668 0.50766 0.0
C339 C 0.78864 0.26707 0.48549 0.0
C340 C 0.77686 0.19294 0.55344 0.0
C341 C 0.83691 0.21933 0.57837 0.0
C342 C 0.87296 0.27008 0.55707 0.0
H343 H 0.99432 0.0465 0.78674 0.0
H344 H 0.95983 0.09503 0.709 0.0
C345 C 0.8491 0.29386 0.51111 0.0
C346 C 0.86069 0.1917 0.62461 0.0
H347 H 0.96542 0.2244 0.78014 0.0
C348 C 0.83293 0.12781 0.60402 0.0
C349 C 0.90896 0.22705 0.68882 0.0
C350 C 0.93914 0.29519 0.71398 0.0
C351 C 0.85221 0.09828 0.64604 0.0
C352 C 0.90071 0.13377 0.71007 0.0
C353 C 0.92847 0.19759 0.73076 0.0
C354 C 0.92187 0.10471 0.75701 0.0
C355 C 0.81986 0.02899 0.62221 0.0
C356 C 0.91247 0.09486 0.80998 0.0
C357 C 0.93182 0.06694 0.85434 0.0
C358 C 0.96152 0.04894 0.84683 0.0
C359 C 0.97141 0.05954 0.79389 0.0
C360 C 0.95164 0.08712 0.74931 0.0
H361 H 0.77693 1.00551 0.57529 0.0
H362 H 0.84959 0.02545 0.61544 0.0
H363 H 0.80963 1.00253 0.65839 0.0
H364 H 0.88972 0.10839 0.81672 0.0
H365 H 0.9238 0.05989 0.89471 0.0
H366 H 0.79859 0.54462 0.37222 0.0
H367 H 0.82065 0.6325 0.43214 0.0
H368 H 0.8268 0.5477 0.59369 0.0
H369 H 0.8051 0.46089 0.53504 0.0
H370 H 0.74169 0.57641 0.53576 0.0
H371 H 0.98285 0.77769 0.6065 0.0
H372 H 0.92762 0.72722 0.52487 0.0
H373 H 0.95226 0.69632 0.58919 0.0
C374 C 0.80623 0.54589 0.42114 0.0
C375 C 0.80005 0.49611 0.44908 0.0
C376 C 0.81825 0.59557 0.4549 0.0
C377 C 0.82455 0.59571 0.51673 0.0
C378 C 0.82145 0.54781 0.54567 0.0
H379 H 0.97088 0.78794 0.87311 0.0
H380 H 0.93036 0.72644 0.76894 0.0
C381 C 0.80937 0.4985 0.51223 0.0
C382 C 0.83263 0.64388 0.5523 0.0
H383 H 0.94559 0.78621 0.66591 0.0
C384 C 0.7856 0.62336 0.56279 0.0
C385 C 0.88995 0.70466 0.58702 0.0
C386 C 0.94136 0.72832 0.57667 0.0
C387 C 0.79617 0.65987 0.61187 0.0
C388 C 0.85514 0.71793 0.65079 0.0
C389 C 0.90054 0.74119 0.63603 0.0
C390 C 0.87348 0.74987 0.713 0.0
C391 C 0.74594 0.63373 0.6255 0.0
C392 C 0.85289 0.78113 0.71583 0.0
C393 C 0.87511 0.81528 0.77559 0.0
C394 C 0.91883 0.81924 0.83264 0.0
C395 C 0.93733 0.78568 0.82971 0.0
C396 C 0.91455 0.75098 0.77035 0.0
H397 H 0.70331 0.58627 0.59219 0.0
H398 H 0.75989 0.62964 0.67621 0.0
H399 H 0.73665 0.66693 0.61988 0.0
H400 H 0.82156 0.78112 0.67188 0.0
H401 H 0.86088 0.8416 0.77673 0.0
H402 H 0.53896 0.15036 0.59196 0.0
H403 H 0.48389 0.09893 0.65138 0.0
H404 H 0.38055 0.15945 0.55227 0.0
H405 H 0.43452 0.2092 0.49217 0.0
H406 H 0.49628 0.16813 0.73517 0.0
H407 H 0.25228 0.98806 0.56091 0.0
H408 H 0.30896 0.01848 0.53886 0.0
H409 H 0.28365 0.06143 0.53724 0.0
C410 C 0.50203 0.14932 0.58039 0.0
C411 C 0.48978 0.18224 0.53647 0.0
C412 C 0.47111 0.12068 0.61488 0.0
C413 C 0.42763 0.1248 0.60617 0.0
C414 C 0.41255 0.15393 0.55882 0.0
H415 H 0.36358 0.21568 0.86295 0.0
H416 H 0.40902 0.20806 0.8103 0.0
C417 C 0.44327 0.18225 0.5242 0.0
C418 C 0.40552 0.10867 0.65309 0.0
H419 H 0.27892 0.03971 0.66227 0.0
C420 C 0.44857 0.13875 0.7193 0.0
C421 C 0.34336 0.06966 0.63303 0.0
C422 C 0.29449 0.03206 0.56367 0.0
C423 C 0.43149 0.13455 0.76504 0.0
C424 C 0.36982 0.10048 0.74397 0.0
C425 C 0.32637 0.06661 0.67858 0.0
C426 C 0.34993 0.10489 0.78687 0.0
C427 C 0.47998 0.16792 0.8353 0.0
C428 C 0.30236 0.04964 0.79276 0.0
C429 C 0.27623 0.05406 0.82297 0.0
C430 C 0.29687 0.11379 0.84713 0.0
C431 C 0.34722 0.16913 0.84528 0.0
C432 C 0.37329 0.16473 0.81523 0.0
H433 H 0.51852 0.17034 0.8468 0.0
H434 H 0.4978 0.21759 0.84523 0.0
H435 H 0.4621 0.14348 0.86802 0.0
H436 H 0.28339 1.00295 0.77104 0.0
H437 H 0.23685 0.01061 0.82274 0.0
H438 H 0.57613 0.37496 0.2105 0.0
H439 H 0.53554 0.41381 0.12496 0.0
H440 H 0.63438 0.42889 0.04102 0.0
H441 H 0.67486 0.3893 0.12608 0.0
H442 H 0.60383 0.53211 0.09867 0.0
H443 H 0.46223 0.33108 0.8848 0.0
H444 H 0.48847 0.32319 0.96675 0.0
H445 H 0.53942 0.36398 0.93549 0.0
C446 C 0.58895 0.38597 0.17363 0.0
C447 C 0.62869 0.3788 0.17519 0.0
C448 C 0.56567 0.4082 0.12476 0.0
C449 C 0.58137 0.4235 0.07626 0.0
C450 C 0.62073 0.41615 0.07727 0.0
H451 H 0.48269 0.57729 0.7529 0.0
H452 H 0.52721 0.53761 0.83264 0.0
C453 C 0.64404 0.39378 0.12617 0.0
C454 C 0.55859 0.45003 0.0267 0.0
H455 H 0.46887 0.42049 0.86478 0.0
C456 C 0.5743 0.50772 0.04752 0.0
C457 C 0.52054 0.41832 0.95998 0.0
C458 C 0.50115 0.35546 0.93516 0.0
C459 C 0.55281 0.53457 0.00347 0.0
C460 C 0.51356 0.50213 0.93694 0.0
C461 C 0.49878 0.44506 0.91588 0.0
C462 C 0.48643 0.52609 0.88868 0.0
C463 C 0.5729 0.5978 0.02848 0.0
C464 C 0.44809 0.53195 0.89331 0.0
C465 C 0.42256 0.55464 0.8479 0.0
C466 C 0.43465 0.57162 0.7967 0.0
C467 C 0.47256 0.56492 0.79181 0.0
C468 C 0.49801 0.54216 0.83726 0.0
H469 H 0.61511 0.62438 0.07648 0.0
H470 H 0.58068 0.62809 0.99414 0.0
H471 H 0.53703 0.58929 0.03414 0.0
H472 H 0.43761 0.5186 0.93193 0.0
H473 H 0.39334 0.5588 0.853 0.0
H474 H 0.40209 0.71787 0.86284 0.0
H475 H 0.44201 0.79864 0.95068 0.0
H476 H 0.55395 0.94722 0.88071 0.0
H477 H 0.51588 0.86592 0.7939 0.0
H478 H 0.61025 0.97282 0.01536 0.0
H479 H 0.38091 0.89633 0.91044 0.0
H480 H 0.38362 0.83289 0.9185 0.0
H481 H 0.40389 0.87994 0.86415 0.0
C482 C 0.43593 0.76781 0.86694 0.0
C483 C 0.45569 0.78628 0.82174 0.0
C484 C 0.45819 0.81367 0.91657 0.0
C485 C 0.499 0.87852 0.92042 0.0
C486 C 0.52175 0.89718 0.87773 0.0
H487 H 0.55594 0.17123 0.13042 0.0
H488 H 0.51974 0.08909 0.04694 0.0
C489 C 0.50034 0.85104 0.8286 0.0
C490 C 0.51564 0.92627 0.96752 0.0
H491 H 0.45435 0.96703 0.01503 0.0
C492 C 0.5764 0.97202 0.01524 0.0
C493 C 0.47139 0.92599 0.96576 0.0
C494 C 0.40633 0.8817 0.91168 0.0
C495 C 0.59403 0.01658 0.06284 0.0
C496 C 0.54909 0.01323 0.06403 0.0
C497 C 0.48852 0.96865 0.01489 0.0
C498 C 0.56437 0.0569 0.11471 0.0
C499 C 0.66075 0.06761 0.11012 0.0
C500 C 0.59859 0.06358 0.18043 0.0
C501 C 0.62038 0.11132 0.22767 0.0
C502 C 0.60592 0.15099 0.2099 0.0
C503 C 0.56702 0.14052 0.14488 0.0
C504 C 0.54671 0.09397 0.09737 0.0
H505 H 0.68877 0.07607 0.08989 0.0
H506 H 0.67218 0.11345 0.12334 0.0
H507 H 0.67336 0.05197 0.15479 0.0
H508 H 0.61065 0.03374 0.19504 0.0
H509 H 0.65017 0.11871 0.27785 0.0
H510 H 0.14697 0.41782 0.87549 0.0
H511 H 0.09477 0.36919 0.93798 0.0
H512 H 1.00017 0.44082 0.85003 0.0
H513 H 0.05139 0.48809 0.78721 0.0
H514 H 0.11889 0.44822 0.02662 0.0
H515 H 0.87108 0.27413 0.8665 0.0
H516 H 0.92306 0.29517 0.8403 0.0
H517 H 0.90401 0.34455 0.83817 0.0
C518 C 0.11214 0.41952 0.86663 0.0
C519 C 0.10229 0.45564 0.8258 0.0
C520 C 0.08294 0.39253 0.90298 0.0
C521 C 0.04333 0.40111 0.89876 0.0
C522 C 1.02933 0.43213 0.85329 0.0
H523 H 1.01328 0.53132 0.16265 0.0
H524 H 0.04756 0.50968 0.10446 0.0
C525 C 0.05842 0.45896 0.817 0.0
C526 C 1.02588 0.38934 0.94929 0.0
H527 H 0.90717 0.33375 0.96898 0.0
C528 C 0.07235 0.42169 0.0142 0.0
C529 C 0.96526 0.35412 0.93367 0.0
C530 C 0.91299 0.31448 0.86592 0.0
C531 C 0.06036 0.42422 0.0627 0.0
C532 C 1.00043 0.3944 0.04577 0.0
C533 C 0.95333 0.35747 0.98201 0.0
C534 C 0.98654 0.40734 0.09076 0.0
C535 C 0.11241 0.46083 0.1312 0.0
C536 C 0.94125 0.3572 0.10338 0.0
C537 C 0.92142 0.36963 0.13669 0.0
C538 C 0.94606 0.43232 0.15715 0.0
C539 C 0.99375 0.48261 0.14775 0.0
C540 C 1.01358 0.47024 0.11473 0.0
H541 H 0.14914 0.4607 0.14069 0.0
H542 H 0.13169 0.51123 0.13852 0.0
H543 H 0.09752 0.44064 0.16704 0.0
H544 H 0.91943 0.30827 0.08498 0.0
H545 H 0.88397 0.32987 0.14237 0.0
loop_
_geom_bond_atom_site_label_1
_geom_bond_atom_site_label_2
_geom_bond_distance
_geom_bond_site_symmetry_2
_ccdc_geom_bond_type
Eu0 O2 2.472 . S
Eu0 O3 2.507 . S
Eu0 O5 2.336 1_554 S
Eu0 O6 2.399 1_554 S
Eu0 C14 2.835 . S
Eu0 O20 2.396 1_665 S
Eu0 O22 2.323 1_655 S
Eu1 O4 2.396 1_445 S
Eu1 O7 2.323 1_455 S
Eu1 O16 2.472 . S
Eu1 O17 2.507 . S
Eu1 O19 2.336 1_556 S
Eu1 O21 2.403 1_556 S
Eu1 C29 2.835 . S
O2 Eu0 2.472 . S
O2 C14 1.258 . S
O3 Eu0 2.507 . S
O3 C14 1.246 . S
O4 Eu1 2.396 1_665 S
O4 C15 1.216 . S
O5 Eu0 2.336 1_556 S
O5 C15 1.279 . S
O6 Eu0 2.399 1_556 S
O6 C18 1.238 1_565 S
O7 Eu1 2.323 1_655 S
O7 C18 1.249 . S
C8 C11 1.390 . S
C8 C13 1.370 . S
C8 C14 1.489 . S
C9 C10 1.344 . S
C9 C12 1.413 . S
C9 H32 0.931 . S
C10 C9 1.344 . S
C10 C11 1.423 . S
C11 C8 1.390 . S
C11 C10 1.423 . S
C11 H33 0.930 . S
C12 C9 1.413 . S
C12 C13 1.397 . S
C13 C8 1.370 . S
C13 C12 1.397 . S
C13 H34 0.932 . S
C14 Eu0 2.835 . S
C14 O2 1.258 . S
C14 O3 1.246 . S
C14 C8 1.489 . S
C15 O4 1.216 . S
C15 O5 1.279 . S
O16 Eu1 2.472 . S
O16 C29 1.258 . S
O17 Eu1 2.507 . S
O17 C29 1.246 . S
C18 O6 1.238 1_545 S
C18 O7 1.249 . S
O19 Eu1 2.336 1_554 S
O19 C30 1.279 . S
O20 Eu0 2.396 1_445 S
O20 C30 1.216 . S
O21 Eu1 2.403 1_554 S
O21 C31 1.238 1_545 S
O22 Eu0 2.323 1_455 S
O22 C31 1.249 . S
C23 C25 1.370 . S
C23 C28 1.390 . S
C23 C29 1.489 . S
C24 C25 1.397 . S
C24 C26 1.413 . S
C25 C23 1.370 . S
C25 C24 1.397 . S
C25 H35 0.932 . S
C26 C24 1.413 . S
C26 C27 1.344 . S
C26 H36 0.931 . S
C27 C26 1.344 . S
C27 C28 1.423 . S
C28 C23 1.390 . S
C28 C27 1.423 . S
C28 H37 0.930 . S
C29 Eu1 2.835 . S
C29 O16 1.258 . S
C29 O17 1.246 . S
C29 C23 1.489 . S
C30 O19 1.279 . S
C30 O20 1.216 . S
C31 O21 1.238 1_565 S
C31 O22 1.249 . S
H32 C9 0.931 . S
H33 C11 0.930 . S
H34 C13 0.932 . S
H35 C25 0.932 . S
H36 C26 0.931 . S
H37 C28 0.930 . S
Eu38 O40 2.472 . S
Eu38 O41 2.507 . S
Eu38 O43 2.336 . S
Eu38 O44 2.389 . S
Eu38 C52 2.835 . S
Eu38 O58 2.396 . S
Eu38 O60 2.323 . S
Eu39 O42 2.396 . S
Eu39 O45 2.323 . S
Eu39 O54 2.472 . S
Eu39 O55 2.507 . S
Eu39 O57 2.336 . S
Eu39 O59 2.389 . S
Eu39 C67 2.835 . S
O40 Eu38 2.472 . S
O40 C52 1.258 . S
O41 Eu38 2.507 . S
O41 C52 1.246 . S
O42 Eu39 2.396 . S
O42 C53 1.216 . S
O43 Eu38 2.336 . S
O43 C53 1.279 . S
O44 Eu38 2.389 . S
O44 C56 1.239 . S
O45 Eu39 2.323 . S
O45 C56 1.249 . S
C46 C49 1.390 . S
C46 C51 1.370 . S
C46 C52 1.489 . S
C47 C48 1.344 . S
C47 C50 1.413 . S
C47 H70 0.931 . S
C48 C47 1.344 . S
C48 C49 1.423 . S
C49 C46 1.390 . S
C49 C48 1.423 . S
C49 H71 0.930 . S
C50 C47 1.413 . S
C50 C51 1.397 . S
C51 C46 1.370 . S
C51 C50 1.397 . S
C51 H72 0.932 . S
C52 Eu38 2.835 . S
C52 O40 1.258 . S
C52 O41 1.246 . S
C52 C46 1.489 . S
C53 O42 1.216 . S
C53 O43 1.279 . S
O54 Eu39 2.472 . S
O54 C67 1.258 . S
O55 Eu39 2.507 . S
O55 C67 1.246 . S
C56 O44 1.239 . S
C56 O45 1.249 . S
O57 Eu39 2.336 . S
O57 C68 1.279 . S
O58 Eu38 2.396 . S
O58 C68 1.216 . S
O59 Eu39 2.389 . S
O59 C69 1.239 . S
O60 Eu38 2.323 . S
O60 C69 1.249 . S
C61 C63 1.370 . S
C61 C66 1.390 . S
C61 C67 1.489 . S
C62 C63 1.397 . S
C62 C64 1.413 . S
C63 C61 1.370 . S
C63 C62 1.397 . S
C63 H73 0.932 . S
C64 C62 1.413 . S
C64 C65 1.344 . S
C64 H74 0.931 . S
C65 C64 1.344 . S
C65 C66 1.423 . S
C66 C61 1.390 . S
C66 C65 1.423 . S
C66 H75 0.930 . S
C67 Eu39 2.835 . S
C67 O54 1.258 . S
C67 O55 1.246 . S
C67 C61 1.489 . S
C68 O57 1.279 . S
C68 O58 1.216 . S
C69 O59 1.239 . S
C69 O60 1.249 . S
H70 C47 0.931 . S
H71 C49 0.930 . S
H72 C51 0.932 . S
H73 C63 0.932 . S
H74 C64 0.931 . S
H75 C66 0.930 . S
Eu76 O78 2.472 . S
Eu76 O79 2.507 . S
Eu76 O81 2.336 . S
Eu76 O82 2.389 . S
Eu76 C90 2.835 . S
Eu76 O96 2.396 . S
Eu76 O98 2.323 . S
Eu77 O80 2.396 . S
Eu77 O83 2.323 . S
Eu77 O92 2.472 . S
Eu77 O93 2.507 . S
Eu77 O95 2.336 . S
Eu77 O97 2.389 . S
Eu77 C105 2.835 . S
O78 Eu76 2.472 . S
O78 C90 1.258 . S
O79 Eu76 2.507 . S
O79 C90 1.246 . S
O80 Eu77 2.396 . S
O80 C91 1.216 . S
O81 Eu76 2.336 . S
O81 C91 1.279 . S
O82 Eu76 2.389 . S
O82 C94 1.239 . S
O83 Eu77 2.323 . S
O83 C94 1.249 . S
C84 C87 1.390 . S
C84 C89 1.370 . S
C84 C90 1.489 . S
C85 C86 1.344 . S
C85 C88 1.413 . S
C85 H108 0.931 . S
C86 C85 1.344 . S
C86 C87 1.423 . S
C87 C84 1.390 . S
C87 C86 1.423 . S
C87 H109 0.930 . S
C88 C85 1.413 . S
C88 C89 1.397 . S
C89 C84 1.370 . S
C89 C88 1.397 . S
C89 H110 0.932 . S
C90 Eu76 2.835 . S
C90 O78 1.258 . S
C90 O79 1.246 . S
C90 C84 1.489 . S
C91 O80 1.216 . S
C91 O81 1.279 . S
O92 Eu77 2.472 . S
O92 C105 1.258 . S
O93 Eu77 2.507 . S
O93 C105 1.246 . S
C94 O82 1.239 . S
C94 O83 1.249 . S
O95 Eu77 2.336 . S
O95 C106 1.279 . S
O96 Eu76 2.396 . S
O96 C106 1.216 . S
O97 Eu77 2.389 . S
O97 C107 1.239 . S
O98 Eu76 2.323 . S
O98 C107 1.249 . S
C99 C101 1.370 . S
C99 C104 1.390 . S
C99 C105 1.489 . S
C100 C101 1.397 . S
C100 C102 1.413 . S
C101 C99 1.370 . S
C101 C100 1.397 . S
C101 H111 0.932 . S
C102 C100 1.413 . S
C102 C103 1.344 . S
C102 H112 0.931 . S
C103 C102 1.344 . S
C103 C104 1.423 . S
C104 C99 1.390 . S
C104 C103 1.423 . S
C104 H113 0.930 . S
C105 Eu77 2.835 . S
C105 O92 1.258 . S
C105 O93 1.246 . S
C105 C99 1.489 . S
C106 O95 1.279 . S
C106 O96 1.216 . S
C107 O97 1.239 . S
C107 O98 1.249 . S
H108 C85 0.931 . S
H109 C87 0.930 . S
H110 C89 0.932 . S
H111 C101 0.932 . S
H112 C102 0.931 . S
H113 C104 0.930 . S
H114 C122 0.923 1_655 S
H115 C124 0.930 1_655 S
H116 C126 0.930 . S
H117 C129 0.929 . S
H118 C132 0.930 . S
H119 C134 0.960 . S
H120 C134 0.960 . S
H121 C134 0.960 1_545 S
C122 H114 0.923 1_455 S
C122 C123 1.377 . S
C122 C124 1.384 . S
C123 C122 1.377 . S
C123 C129 1.390 . S
C124 H115 0.930 1_455 S
C124 C122 1.384 . S
C124 C125 1.372 . S
C125 C124 1.372 . S
C125 C126 1.400 . S
C125 C130 1.490 . S
C126 H116 0.930 . S
C126 C125 1.400 . S
C126 C129 1.386 . S
H127 C143 0.930 . S
H128 C144 0.931 1_445 S
C129 H117 0.929 . S
C129 C123 1.390 . S
C129 C126 1.386 . S
C130 C125 1.490 . S
C130 C132 1.395 1_455 S
C130 C133 1.403 1_545 S
H131 C137 0.930 . S
C132 H118 0.930 . S
C132 C130 1.395 1_655 S
C132 C135 1.403 . S
C133 C130 1.403 1_565 S
C133 C134 1.524 . S
C133 C137 1.400 . S
C134 H119 0.960 . S
C134 H120 0.960 . S
C134 H121 0.960 1_565 S
C134 C133 1.524 . S
C135 C132 1.403 . S
C135 C136 1.392 1_545 S
C135 C139 1.495 . S
C136 C135 1.392 1_565 S
C136 C137 1.385 1_655 S
C136 C138 1.478 . S
C137 H131 0.930 . S
C137 C133 1.400 . S
C137 C136 1.385 1_455 S
C138 C136 1.478 . S
C138 C140 1.381 . S
C138 C144 1.383 . S
C139 C135 1.495 . S
C139 H145 0.959 . S
C139 H146 0.961 . S
C139 H147 0.960 1_545 S
C140 C138 1.381 . S
C140 C141 1.394 . S
C140 H148 0.930 . S
C141 C140 1.394 . S
C141 C142 1.383 . S
C141 H149 0.929 . S
C142 C141 1.383 . S
C142 C143 1.377 . S
C143 H127 0.930 . S
C143 C142 1.377 . S
C143 C144 1.379 . S
C144 H128 0.931 1_665 S
C144 C138 1.383 . S
C144 C143 1.379 . S
H145 C139 0.959 . S
H146 C139 0.961 . S
H147 C139 0.960 1_565 S
H148 C140 0.930 . S
H149 C141 0.929 . S
H150 C158 0.929 . S
H151 C160 0.930 . S
H152 C162 0.930 . S
H153 C165 0.929 . S
H154 C168 0.930 . S
H155 C170 0.960 . S
H156 C170 0.960 . S
H157 C170 0.960 . S
C158 H150 0.929 . S
C158 C159 1.377 . S
C158 C160 1.384 . S
C159 C158 1.377 . S
C159 C165 1.390 . S
C160 H151 0.930 . S
C160 C158 1.384 . S
C160 C161 1.372 . S
C161 C160 1.372 . S
C161 C162 1.400 . S
C161 C166 1.490 . S
C162 H152 0.930 . S
C162 C161 1.400 . S
C162 C165 1.386 . S
H163 C179 0.930 . S
H164 C180 0.931 . S
C165 H153 0.929 . S
C165 C159 1.390 . S
C165 C162 1.386 . S
C166 C161 1.490 . S
C166 C168 1.395 . S
C166 C169 1.403 . S
H167 C173 0.930 . S
C168 H154 0.930 . S
C168 C166 1.395 . S
C168 C171 1.403 . S
C169 C166 1.403 . S
C169 C170 1.524 . S
C169 C173 1.400 . S
C170 H155 0.960 . S
C170 H156 0.960 . S
C170 H157 0.960 . S
C170 C169 1.524 . S
C171 C168 1.403 . S
C171 C172 1.392 . S
C171 C175 1.495 . S
C172 C171 1.392 . S
C172 C173 1.385 . S
C172 C174 1.478 . S
C173 H167 0.930 . S
C173 C169 1.400 . S
C173 C172 1.385 . S
C174 C172 1.478 . S
C174 C176 1.381 1_556 S
C174 C180 1.383 . S
C175 C171 1.495 . S
C175 H181 0.959 . S
C175 H182 0.961 . S
C175 H183 0.960 . S
C176 C174 1.381 1_554 S
C176 C177 1.394 . S
C176 H184 0.930 . S
C177 C176 1.394 . S
C177 C178 1.383 . S
C177 H185 0.929 . S
C178 C177 1.383 . S
C178 C179 1.377 . S
C179 H163 0.930 . S
C179 C178 1.377 . S
C179 C180 1.379 1_554 S
C180 H164 0.931 . S
C180 C174 1.383 . S
C180 C179 1.379 1_556 S
H181 C175 0.959 . S
H182 C175 0.961 . S
H183 C175 0.960 . S
H184 C176 0.930 . S
H185 C177 0.929 . S
H186 C194 0.929 . S
H187 C196 0.930 . S
H188 C198 0.930 . S
H189 C201 0.929 . S
H190 C204 0.930 . S
H191 C206 0.960 . S
H192 C206 0.960 . S
H193 C206 0.960 . S
C194 H186 0.929 . S
C194 C195 1.377 . S
C194 C196 1.384 1_556 S
C195 C194 1.377 . S
C195 C201 1.390 . S
C196 H187 0.930 . S
C196 C194 1.384 1_554 S
C196 C197 1.372 . S
C197 C196 1.372 . S
C197 C198 1.400 1_554 S
C197 C202 1.490 . S
C198 H188 0.930 . S
C198 C197 1.400 1_556 S
C198 C201 1.386 . S
H199 C215 0.930 . S
H200 C216 0.931 . S
C201 H189 0.929 . S
C201 C195 1.390 . S
C201 C198 1.386 . S
C202 C197 1.490 . S
C202 C204 1.395 . S
C202 C205 1.403 . S
H203 C209 0.930 . S
C204 H190 0.930 . S
C204 C202 1.395 . S
C204 C207 1.403 . S
C205 C202 1.403 . S
C205 C206 1.524 . S
C205 C209 1.400 . S
C206 H191 0.960 . S
C206 H192 0.960 . S
C206 H193 0.960 . S
C206 C205 1.524 . S
C207 C204 1.403 . S
C207 C208 1.392 . S
C207 C211 1.495 . S
C208 C207 1.392 . S
C208 C209 1.385 . S
C208 C210 1.478 . S
C209 H203 0.930 . S
C209 C205 1.400 . S
C209 C208 1.385 . S
C210 C208 1.478 . S
C210 C212 1.381 . S
C210 C216 1.383 . S
C211 C207 1.495 . S
C211 H217 0.959 . S
C211 H218 0.961 . S
C211 H219 0.960 . S
C212 C210 1.381 . S
C212 C213 1.394 . S
C212 H220 0.930 . S
C213 C212 1.394 . S
C213 C214 1.383 . S
C213 H221 0.929 . S
C214 C213 1.383 . S
C214 C215 1.377 . S
C215 H199 0.930 . S
C215 C214 1.377 . S
C215 C216 1.379 . S
C216 H200 0.931 . S
C216 C210 1.383 . S
C216 C215 1.379 . S
H217 C211 0.959 . S
H218 C211 0.961 . S
H219 C211 0.960 . S
H220 C212 0.930 . S
H221 C213 0.929 . S
H222 C230 0.929 . S
H223 C232 0.930 . S
H224 C234 0.930 . S
H225 C237 0.929 . S
H226 C240 0.930 . S
H227 C242 0.960 . S
H228 C242 0.960 . S
H229 C242 0.960 . S
C230 H222 0.929 . S
C230 C231 1.377 . S
C230 C232 1.384 . S
C231 C230 1.377 . S
C231 C237 1.390 . S
C232 H223 0.930 . S
C232 C230 1.384 . S
C232 C233 1.372 . S
C233 C232 1.372 . S
C233 C234 1.400 . S
C233 C238 1.490 . S
C234 H224 0.930 . S
C234 C233 1.400 . S
C234 C237 1.386 . S
H235 C251 0.930 . S
H236 C252 0.931 . S
C237 H225 0.929 . S
C237 C231 1.390 . S
C237 C234 1.386 . S
C238 C233 1.490 . S
C238 C240 1.395 . S
C238 C241 1.403 . S
H239 C245 0.930 . S
C240 H226 0.930 . S
C240 C238 1.395 . S
C240 C243 1.403 . S
C241 C238 1.403 . S
C241 C242 1.524 . S
C241 C245 1.400 . S
C242 H227 0.960 . S
C242 H228 0.960 . S
C242 H229 0.960 . S
C242 C241 1.524 . S
C243 C240 1.403 . S
C243 C244 1.392 . S
C243 C247 1.495 . S
C244 C243 1.392 . S
C244 C245 1.385 . S
C244 C246 1.478 . S
C245 H239 0.930 . S
C245 C241 1.400 . S
C245 C244 1.385 . S
C246 C244 1.478 . S
C246 C248 1.381 . S
C246 C252 1.383 . S
C247 C243 1.495 . S
C247 H253 0.959 . S
C247 H254 0.961 . S
C247 H255 0.960 . S
C248 C246 1.381 . S
C248 C249 1.394 . S
C248 H256 0.930 . S
C249 C248 1.394 . S
C249 C250 1.383 . S
C249 H257 0.929 1_565 S
C250 C249 1.383 . S
C250 C251 1.377 . S
C251 H235 0.930 . S
C251 C250 1.377 . S
C251 C252 1.379 . S
C252 H236 0.931 . S
C252 C246 1.383 . S
C252 C251 1.379 . S
H253 C247 0.959 . S
H254 C247 0.961 . S
H255 C247 0.960 . S
H256 C248 0.930 . S
H257 C249 0.929 1_545 S
H258 C266 0.929 . S
H259 C268 0.930 . S
H260 C270 0.930 . S
H261 C273 0.929 . S
H262 C276 0.930 . S
H263 C278 0.960 . S
H264 C278 0.960 . S
H265 C278 0.960 . S
C266 H258 0.929 . S
C266 C267 1.377 . S
C266 C268 1.384 . S
C267 C266 1.377 . S
C267 C273 1.390 . S
C268 H259 0.930 . S
C268 C266 1.384 . S
C268 C269 1.372 . S
C269 C268 1.372 . S
C269 C270 1.400 . S
C269 C274 1.490 . S
C270 H260 0.930 . S
C270 C269 1.400 . S
C270 C273 1.386 . S
H271 C287 0.930 . S
H272 C288 0.931 . S
C273 H261 0.929 . S
C273 C267 1.390 . S
C273 C270 1.386 . S
C274 C269 1.490 . S
C274 C276 1.395 . S
C274 C277 1.403 . S
H275 C281 0.930 . S
C276 H262 0.930 . S
C276 C274 1.395 . S
C276 C279 1.403 . S
C277 C274 1.403 . S
C277 C278 1.524 . S
C277 C281 1.400 . S
C278 H263 0.960 . S
C278 H264 0.960 . S
C278 H265 0.960 . S
C278 C277 1.524 . S
C279 C276 1.403 . S
C279 C280 1.392 . S
C279 C283 1.495 . S
C280 C279 1.392 . S
C280 C281 1.385 . S
C280 C282 1.478 . S
C281 H275 0.930 . S
C281 C277 1.400 . S
C281 C280 1.385 . S
C282 C280 1.478 . S
C282 C284 1.381 . S
C282 C288 1.383 . S
C283 C279 1.495 . S
C283 H289 0.959 . S
C283 H290 0.961 . S
C283 H291 0.960 . S
C284 C282 1.381 . S
C284 C285 1.394 . S
C284 H292 0.930 . S
C285 C284 1.394 . S
C285 C286 1.383 . S
C285 H293 0.929 1_455 S
C286 C285 1.383 . S
C286 C287 1.377 . S
C287 H271 0.930 . S
C287 C286 1.377 . S
C287 C288 1.379 . S
C288 H272 0.931 . S
C288 C282 1.383 . S
C288 C287 1.379 . S
H289 C283 0.959 . S
H290 C283 0.961 . S
H291 C283 0.960 . S
H292 C284 0.930 . S
H293 C285 0.929 1_655 S
H294 C302 0.929 . S
H295 C304 0.930 . S
H296 C306 0.930 . S
H297 C309 0.929 . S
H298 C312 0.930 . S
H299 C314 0.960 . S
H300 C314 0.960 . S
H301 C314 0.960 . S
C302 H294 0.929 . S
C302 C303 1.377 . S
C302 C304 1.384 . S
C303 C302 1.377 . S
C303 C309 1.390 . S
C304 H295 0.930 . S
C304 C302 1.384 . S
C304 C305 1.372 . S
C305 C304 1.372 . S
C305 C306 1.400 . S
C305 C310 1.490 . S
C306 H296 0.930 . S
C306 C305 1.400 . S
C306 C309 1.386 . S
H307 C323 0.930 . S
H308 C324 0.931 . S
C309 H297 0.929 . S
C309 C303 1.390 . S
C309 C306 1.386 . S
C310 C305 1.490 . S
C310 C312 1.395 . S
C310 C313 1.403 . S
H311 C317 0.930 . S
C312 H298 0.930 . S
C312 C310 1.395 . S
C312 C315 1.403 . S
C313 C310 1.403 . S
C313 C314 1.524 . S
C313 C317 1.400 . S
C314 H299 0.960 . S
C314 H300 0.960 . S
C314 H301 0.960 . S
C314 C313 1.524 . S
C315 C312 1.403 . S
C315 C316 1.392 . S
C315 C319 1.495 . S
C316 C315 1.392 . S
C316 C317 1.385 . S
C316 C318 1.478 . S
C317 H311 0.930 . S
C317 C313 1.400 . S
C317 C316 1.385 . S
C318 C316 1.478 . S
C318 C320 1.381 . S
C318 C324 1.383 . S
C319 C315 1.495 . S
C319 H325 0.959 . S
C319 H326 0.961 . S
C319 H327 0.960 . S
C320 C318 1.381 . S
C320 C321 1.394 . S
C320 H328 0.930 . S
C321 C320 1.394 . S
C321 C322 1.383 . S
C321 H329 0.929 . S
C322 C321 1.383 . S
C322 C323 1.377 . S
C323 H307 0.930 . S
C323 C322 1.377 . S
C323 C324 1.379 . S
C324 H308 0.931 . S
C324 C318 1.383 . S
C324 C323 1.379 . S
H325 C319 0.959 . S
H326 C319 0.961 . S
H327 C319 0.960 . S
H328 C320 0.930 . S
H329 C321 0.929 . S
H330 C338 0.929 . S
H331 C340 0.930 . S
H332 C342 0.930 . S
H333 C345 0.929 . S
H334 C348 0.930 . S
H335 C350 0.960 . S
H336 C350 0.960 . S
H337 C350 0.960 . S
C338 H330 0.929 . S
C338 C339 1.377 . S
C338 C340 1.384 . S
C339 C338 1.377 . S
C339 C345 1.390 . S
C340 H331 0.930 . S
C340 C338 1.384 . S
C340 C341 1.372 . S
C341 C340 1.372 . S
C341 C342 1.400 . S
C341 C346 1.490 . S
C342 H332 0.930 . S
C342 C341 1.400 . S
C342 C345 1.386 . S
H343 C359 0.930 . S
H344 C360 0.931 . S
C345 H333 0.929 . S
C345 C339 1.390 . S
C345 C342 1.386 . S
C346 C341 1.490 . S
C346 C348 1.395 . S
C346 C349 1.403 . S
H347 C353 0.930 . S
C348 H334 0.930 . S
C348 C346 1.395 . S
C348 C351 1.403 . S
C349 C346 1.403 . S
C349 C350 1.524 . S
C349 C353 1.400 . S
C350 H335 0.960 . S
C350 H336 0.960 . S
C350 H337 0.960 . S
C350 C349 1.524 . S
C351 C348 1.403 . S
C351 C352 1.392 . S
C351 C355 1.495 . S
C352 C351 1.392 . S
C352 C353 1.385 . S
C352 C354 1.478 . S
C353 H347 0.930 . S
C353 C349 1.400 . S
C353 C352 1.385 . S
C354 C352 1.478 . S
C354 C356 1.381 . S
C354 C360 1.383 . S
C355 C351 1.495 . S
C355 H361 0.959 . S
C355 H362 0.961 . S
C355 H363 0.960 . S
C356 C354 1.381 . S
C356 C357 1.394 . S
C356 H364 0.930 . S
C357 C356 1.394 . S
C357 C358 1.383 . S
C357 H365 0.929 1_545 S
C358 C357 1.383 . S
C358 C359 1.377 . S
C359 H343 0.930 . S
C359 C358 1.377 . S
C359 C360 1.379 . S
C360 H344 0.931 . S
C360 C354 1.383 . S
C360 C359 1.379 . S
H361 C355 0.959 . S
H362 C355 0.961 . S
H363 C355 0.960 . S
H364 C356 0.930 . S
H365 C357 0.929 1_565 S
H366 C374 0.929 . S
H367 C376 0.930 . S
H368 C378 0.930 . S
H369 C381 0.929 . S
H370 C384 0.930 . S
H371 C386 0.960 . S
H372 C386 0.960 . S
H373 C386 0.960 . S
C374 H366 0.929 . S
C374 C375 1.377 . S
C374 C376 1.384 . S
C375 C374 1.377 . S
C375 C381 1.390 . S
C376 H367 0.930 . S
C376 C374 1.384 . S
C376 C377 1.372 . S
C377 C376 1.372 . S
C377 C378 1.400 . S
C377 C382 1.490 . S
C378 H368 0.930 . S
C378 C377 1.400 . S
C378 C381 1.386 . S
H379 C395 0.930 . S
H380 C396 0.931 . S
C381 H369 0.929 . S
C381 C375 1.390 . S
C381 C378 1.386 . S
C382 C377 1.490 . S
C382 C384 1.395 . S
C382 C385 1.403 . S
H383 C389 0.930 . S
C384 H370 0.930 . S
C384 C382 1.395 . S
C384 C387 1.403 . S
C385 C382 1.403 . S
C385 C386 1.524 . S
C385 C389 1.400 . S
C386 H371 0.960 . S
C386 H372 0.960 . S
C386 H373 0.960 . S
C386 C385 1.524 . S
C387 C384 1.403 . S
C387 C388 1.392 . S
C387 C391 1.495 . S
C388 C387 1.392 . S
C388 C389 1.385 . S
C388 C390 1.478 . S
C389 H383 0.930 . S
C389 C385 1.400 . S
C389 C388 1.385 . S
C390 C388 1.478 . S
C390 C392 1.381 . S
C390 C396 1.383 . S
C391 C387 1.495 . S
C391 H397 0.959 . S
C391 H398 0.961 . S
C391 H399 0.960 . S
C392 C390 1.381 . S
C392 C393 1.394 . S
C392 H400 0.930 . S
C393 C392 1.394 . S
C393 C394 1.383 . S
C393 H401 0.929 . S
C394 C393 1.383 . S
C394 C395 1.377 . S
C395 H379 0.930 . S
C395 C394 1.377 . S
C395 C396 1.379 . S
C396 H380 0.931 . S
C396 C390 1.383 . S
C396 C395 1.379 . S
H397 C391 0.959 . S
H398 C391 0.961 . S
H399 C391 0.960 . S
H400 C392 0.930 . S
H401 C393 0.929 . S
H402 C410 0.929 . S
H403 C412 0.930 . S
H404 C414 0.930 . S
H405 C417 0.929 . S
H406 C420 0.930 . S
H407 C422 0.960 . S
H408 C422 0.960 . S
H409 C422 0.960 . S
C410 H402 0.929 . S
C410 C411 1.377 . S
C410 C412 1.384 . S
C411 C410 1.377 . S
C411 C417 1.390 . S
C412 H403 0.930 . S
C412 C410 1.384 . S
C412 C413 1.372 . S
C413 C412 1.372 . S
C413 C414 1.400 . S
C413 C418 1.490 . S
C414 H404 0.930 . S
C414 C413 1.400 . S
C414 C417 1.386 . S
H415 C431 0.930 . S
H416 C432 0.931 . S
C417 H405 0.929 . S
C417 C411 1.390 . S
C417 C414 1.386 . S
C418 C413 1.490 . S
C418 C420 1.395 . S
C418 C421 1.403 . S
H419 C425 0.930 . S
C420 H406 0.930 . S
C420 C418 1.395 . S
C420 C423 1.403 . S
C421 C418 1.403 . S
C421 C422 1.524 . S
C421 C425 1.400 . S
C422 H407 0.960 . S
C422 H408 0.960 . S
C422 H409 0.960 . S
C422 C421 1.524 . S
C423 C420 1.403 . S
C423 C424 1.392 . S
C423 C427 1.495 . S
C424 C423 1.392 . S
C424 C425 1.385 . S
C424 C426 1.478 . S
C425 H419 0.930 . S
C425 C421 1.400 . S
C425 C424 1.385 . S
C426 C424 1.478 . S
C426 C428 1.381 . S
C426 C432 1.383 . S
C427 C423 1.495 . S
C427 H433 0.959 1_545 S
C427 H434 0.961 . S
C427 H435 0.960 . S
C428 C426 1.381 . S
C428 C429 1.394 . S
C428 H436 0.930 . S
C429 C428 1.394 . S
C429 C430 1.383 . S
C429 H437 0.929 . S
C430 C429 1.383 . S
C430 C431 1.377 . S
C431 H415 0.930 . S
C431 C430 1.377 . S
C431 C432 1.379 . S
C432 H416 0.931 . S
C432 C426 1.383 . S
C432 C431 1.379 . S
H433 C427 0.959 1_565 S
H434 C427 0.961 . S
H435 C427 0.960 . S
H436 C428 0.930 . S
H437 C429 0.929 . S
H438 C446 0.929 . S
H439 C448 0.930 . S
H440 C450 0.930 . S
H441 C453 0.929 . S
H442 C456 0.930 . S
H443 C458 0.960 . S
H444 C458 0.960 1_554 S
H445 C458 0.960 . S
C446 H438 0.929 . S
C446 C447 1.377 . S
C446 C448 1.384 . S
C447 C446 1.377 . S
C447 C453 1.390 . S
C448 H439 0.930 . S
C448 C446 1.384 . S
C448 C449 1.372 . S
C449 C448 1.372 . S
C449 C450 1.400 . S
C449 C454 1.490 . S
C450 H440 0.930 . S
C450 C449 1.400 . S
C450 C453 1.386 . S
H451 C467 0.930 . S
H452 C468 0.931 . S
C453 H441 0.929 . S
C453 C447 1.390 . S
C453 C450 1.386 . S
C454 C449 1.490 . S
C454 C456 1.395 . S
C454 C457 1.403 1_554 S
H455 C461 0.930 . S
C456 H442 0.930 . S
C456 C454 1.395 . S
C456 C459 1.403 . S
C457 C454 1.403 1_556 S
C457 C458 1.524 . S
C457 C461 1.400 . S
C458 H443 0.960 . S
C458 H444 0.960 1_556 S
C458 H445 0.960 . S
C458 C457 1.524 . S
C459 C456 1.403 . S
C459 C460 1.392 1_554 S
C459 C463 1.495 . S
C460 C459 1.392 1_556 S
C460 C461 1.385 . S
C460 C462 1.478 . S
C461 H455 0.930 . S
C461 C457 1.400 . S
C461 C460 1.385 . S
C462 C460 1.478 . S
C462 C464 1.381 . S
C462 C468 1.383 . S
C463 C459 1.495 . S
C463 H469 0.959 . S
C463 H470 0.963 1_554 S
C463 H471 0.960 . S
C464 C462 1.381 . S
C464 C465 1.394 . S
C464 H472 0.930 . S
C465 C464 1.394 . S
C465 C466 1.383 . S
C465 H473 0.929 . S
C466 C465 1.383 . S
C466 C467 1.377 . S
C467 H451 0.930 . S
C467 C466 1.377 . S
C467 C468 1.379 . S
C468 H452 0.931 . S
C468 C462 1.383 . S
C468 C467 1.379 . S
H469 C463 0.959 . S
H470 C463 0.963 1_556 S
H471 C463 0.960 . S
H472 C464 0.930 . S
H473 C465 0.929 . S
H474 C482 0.929 . S
H475 C484 0.930 . S
H476 C486 0.930 . S
H477 C489 0.929 . S
H478 C492 0.930 . S
H479 C494 0.960 . S
H480 C494 0.960 . S
H481 C494 0.960 . S
C482 H474 0.929 . S
C482 C483 1.377 . S
C482 C484 1.384 . S
C483 C482 1.377 . S
C483 C489 1.390 . S
C484 H475 0.930 . S
C484 C482 1.384 . S
C484 C485 1.372 . S
C485 C484 1.372 . S
C485 C486 1.400 . S
C485 C490 1.490 . S
C486 H476 0.930 . S
C486 C485 1.400 . S
C486 C489 1.386 . S
H487 C503 0.930 . S
H488 C504 0.931 . S
C489 H477 0.929 . S
C489 C483 1.390 . S
C489 C486 1.386 . S
C490 C485 1.490 . S
C490 C492 1.395 1_556 S
C490 C493 1.403 . S
H491 C497 0.930 . S
C492 H478 0.930 . S
C492 C490 1.395 1_554 S
C492 C495 1.403 1_565 S
C493 C490 1.403 . S
C493 C494 1.524 . S
C493 C497 1.400 1_566 S
C494 H479 0.960 . S
C494 H480 0.960 . S
C494 H481 0.960 . S
C494 C493 1.524 . S
C495 C492 1.403 1_545 S
C495 C496 1.392 . S
C495 C499 1.495 . S
C496 C495 1.392 . S
C496 C497 1.385 . S
C496 C498 1.478 . S
C497 H491 0.930 . S
C497 C493 1.400 1_544 S
C497 C496 1.385 . S
C498 C496 1.478 . S
C498 C500 1.381 . S
C498 C504 1.383 . S
C499 C495 1.495 . S
C499 H505 0.959 . S
C499 H506 0.961 . S
C499 H507 0.960 . S
C500 C498 1.381 . S
C500 C501 1.394 . S
C500 H508 0.930 . S
C501 C500 1.394 . S
C501 C502 1.383 . S
C501 H509 0.929 . S
C502 C501 1.383 . S
C502 C503 1.377 . S
C503 H487 0.930 . S
C503 C502 1.377 . S
C503 C504 1.379 . S
C504 H488 0.931 . S
C504 C498 1.383 . S
C504 C503 1.379 . S
H505 C499 0.959 . S
H506 C499 0.961 . S
H507 C499 0.960 . S
H508 C500 0.930 . S
H509 C501 0.929 . S
H510 C518 0.929 . S
H511 C520 0.930 . S
H512 C522 0.930 . S
H513 C525 0.929 . S
H514 C528 0.930 . S
H515 C530 0.960 . S
H516 C530 0.960 . S
H517 C530 0.960 . S
C518 H510 0.929 . S
C518 C519 1.377 . S
C518 C520 1.384 . S
C519 C518 1.377 . S
C519 C525 1.390 . S
C520 H511 0.930 . S
C520 C518 1.384 . S
C520 C521 1.372 . S
C521 C520 1.372 . S
C521 C522 1.400 . S
C521 C526 1.490 . S
C522 H512 0.930 . S
C522 C521 1.400 . S
C522 C525 1.386 . S
H523 C539 0.930 . S
H524 C540 0.931 . S
C525 H513 0.929 . S
C525 C519 1.390 . S
C525 C522 1.386 . S
C526 C521 1.490 . S
C526 C528 1.395 1_556 S
C526 C529 1.403 1_455 S
H527 C533 0.930 . S
C528 H514 0.930 . S
C528 C526 1.395 1_554 S
C528 C531 1.403 . S
C529 C526 1.403 1_655 S
C529 C530 1.524 . S
C529 C533 1.400 . S
C530 H515 0.960 . S
C530 H516 0.960 . S
C530 H517 0.960 . S
C530 C529 1.524 . S
C531 C528 1.403 . S
C531 C532 1.392 1_455 S
C531 C535 1.495 . S
C532 C531 1.392 1_655 S
C532 C533 1.385 1_554 S
C532 C534 1.478 . S
C533 H527 0.930 . S
C533 C529 1.400 . S
C533 C532 1.385 1_556 S
C534 C532 1.478 . S
C534 C536 1.381 . S
C534 C540 1.383 . S
C535 C531 1.495 . S
C535 H541 0.959 . S
C535 H542 0.961 . S
C535 H543 0.960 . S
C536 C534 1.381 . S
C536 C537 1.394 . S
C536 H544 0.930 . S
C537 C536 1.394 . S
C537 C538 1.383 . S
C537 H545 0.929 . S
C538 C537 1.383 . S
C538 C539 1.377 . S
C539 H523 0.930 . S
C539 C538 1.377 . S
C539 C540 1.379 . S
C540 H524 0.931 . S
C540 C534 1.383 . S
C540 C539 1.379 . S
H541 C535 0.959 . S
H542 C535 0.961 . S
H543 C535 0.960 . S
H544 C536 0.930 . S
H545 C537 0.929 . S
C123 C24 0.655 . S
C142 C12 0.574 . S
C159 C50 0.688 . S
C178 C62 0.734 . S
C195 C88 0.688 . S
C214 C100 0.707 . S
C231 C94 2.060 . S
C250 C31 2.050 . S
C267 C91 1.185 . S
C286 C30 1.194 . S
C303 C103 2.288 . S
C322 C10 2.261 . S
C339 C69 2.062 . S
C358 C18 2.064 . S
C375 C68 1.182 . S
C394 C15 1.206 . S
C411 C48 2.295 . S
C430 C27 2.300 . S
C447 C56 2.060 . S
C466 C107 2.057 . S
C483 C106 1.174 . S
C502 C53 1.166 . S
C519 C86 2.291 . S
C538 C65 2.310 . S
