# Generated by pormake.
# Topology sow, (4)-cn, num edge types: 1
# Building blocks:
#     Node 0, Type 0, BuildingBlock: NAWXER_clean_sbu_0, # of connection points: 4
#     Node 1, Type 0, BuildingBlock: NAWXER_clean_sbu_0, # of connection points: 4
#     Node 2, Type 0, BuildingBlock: NAWXER_clean_sbu_0, # of connection points: 4
#     Node 3, Type 0, BuildingBlock: NAWXER_clean_sbu_0, # of connection points: 4
#     Node 4, Type 0, BuildingBlock: NAWXER_clean_sbu_0, # of connection points: 4
#     Node 5, Type 0, BuildingBlock: NAWXER_clean_sbu_0, # of connection points: 4
#     Node 6, Type 0, BuildingBlock: NAWXER_clean_sbu_0, # of connection points: 4
#     Node 7, Type 0, BuildingBlock: NAWXER_clean_sbu_0, # of connection points: 4
#     Edge 8, Type (0, 0), BuildingBlock: FUNLAD_clean_linker_1, # of connection points: 2
#     Edge 9, Type (0, 0), BuildingBlock: FUNLAD_clean_linker_1, # of connection points: 2
#     Edge 10, Type (0, 0), BuildingBlock: FUNLAD_clean_linker_1, # of connection points: 2
#     Edge 11, Type (0, 0), BuildingBlock: FUNLAD_clean_linker_1, # of connection points: 2
#     Edge 12, Type (0, 0), BuildingBlock: FUNLAD_clean_linker_1, # of connection points: 2
#     Edge 13, Type (0, 0), BuildingBlock: FUNLAD_clean_linker_1, # of connection points: 2
#     Edge 14, Type (0, 0), BuildingBlock: FUNLAD_clean_linker_1, # of connection points: 2
#     Edge 15, Type (0, 0), BuildingBlock: FUNLAD_clean_linker_1, # of connection points: 2
#     Edge 16, Type (0, 0), BuildingBlock: FUNLAD_clean_linker_1, # of connection points: 2
#     Edge 17, Type (0, 0), BuildingBlock: FUNLAD_clean_linker_1, # of connection points: 2
#     Edge 18, Type (0, 0), BuildingBlock: FUNLAD_clean_linker_1, # of connection points: 2
#     Edge 19, Type (0, 0), BuildingBlock: FUNLAD_clean_linker_1, # of connection points: 2
#     Edge 20, Type (0, 0), BuildingBlock: FUNLAD_clean_linker_1, # of connection points: 2
#     Edge 21, Type (0, 0), BuildingBlock: FUNLAD_clean_linker_1, # of connection points: 2
#     Edge 22, Type (0, 0), BuildingBlock: FUNLAD_clean_linker_1, # of connection points: 2
#     Edge 23, Type (0, 0), BuildingBlock: FUNLAD_clean_linker_1, # of connection points: 2
# Relax obj value: 0.113
# Max RMSD: 0.238
# Mean RMSD: 0.237
data_MOF--net-sow--node1-NAWXER_clean_sbu_0--edge1-FUNLAD_clean_linker_1
_symmetry_space_group_name_H-M    P1
_symmetry_Int_Tables_number       1
_symmetry_cell_setting            triclinic
loop_
_symmetry_equiv_pos_as_xyz
'x, y, z'
_cell_length_a     44.88414
_cell_length_b     20.213545
_cell_length_c     23.560735
_cell_angle_alpha  90.056876
_cell_angle_beta   89.694768
_cell_angle_gamma 90.006206
loop_
_atom_site_label
_atom_site_type_symbol
_atom_site_fract_x
_atom_site_fract_y
_atom_site_fract_z
_atom_type_partial_charge
C0 C 0.19253 0.19434 0.14416 0.0
C1 C 0.11576 0.09762 0.02485 0.0
O2 O 0.1893 0.13418 0.12988 0.0
Zn3 Zn 0.15663 0.14638 0.07801 0.0
O4 O 0.17597 0.23877 0.12172 0.0
Zn5 Zn 0.14016 0.24164 0.06101 0.0
O6 O 0.10904 0.28259 0.10511 0.0
O7 O 0.1213 0.18206 0.13395 0.0
O8 O 0.11453 0.16106 0.02553 0.0
O9 O 0.1377 0.0683 0.04753 0.0
O10 O 0.17674 0.19215 1.00476 0.0
O11 O 0.15591 0.29034 0.99714 0.0
C12 C 0.10504 0.23401 0.13861 0.0
C13 C 0.1743 0.24769 0.97889 0.0
C14 C 0.32935 0.25419 0.64539 0.0
C15 C 0.41106 0.33131 0.52524 0.0
O16 O 0.33719 0.31317 0.63447 0.0
Zn17 Zn 0.36813 0.29272 0.57954 0.0
O18 O 0.34231 0.20609 0.61979 0.0
Zn19 Zn 0.37775 0.19445 0.55834 0.0
O20 O 0.40481 0.13981 0.60016 0.0
O21 O 0.40175 0.24326 0.63062 0.0
O22 O 0.40819 0.26813 0.52301 0.0
O23 O 0.39167 0.36567 0.55146 0.0
O24 O 0.3443 0.25649 0.50573 0.0
O25 O 0.35944 0.15357 0.49433 0.0
C26 C 0.41343 0.18535 0.63334 0.0
C27 C 0.34342 0.2015 0.47836 0.0
C28 C 0.69348 0.30094 0.87095 0.0
C29 C 0.60979 0.367 0.99152 0.0
O30 O 0.68489 0.35917 0.88295 0.0
Zn31 Zn 0.65262 0.33436 0.93313 0.0
O32 O 0.67982 0.25091 0.89214 0.0
Zn33 Zn 0.64151 0.23427 0.94644 0.0
O34 O 0.61369 0.18923 0.89773 0.0
O35 O 0.62146 0.29342 0.87379 0.0
O36 O 0.61255 0.30403 0.9884 0.0
O37 O 0.62861 0.40405 0.9666 0.0
O38 O 0.67467 0.28736 1.00466 0.0
O39 O 0.65778 0.18469 0.00775 0.0
C40 C 0.60829 0.2381 0.86555 0.0
C41 C 0.67432 0.22975 0.02781 0.0
C42 C 0.82715 0.19755 0.35815 0.0
C43 C 0.90312 0.09561 0.47451 0.0
O44 O 0.83318 0.13663 0.36432 0.0
Zn45 Zn 0.8628 0.14717 0.42178 0.0
O46 O 0.84075 0.24095 0.38826 0.0
Zn47 Zn 0.87497 0.23987 0.45335 0.0
O48 O 0.90453 0.29518 0.41886 0.0
O49 O 0.89853 0.19857 0.37611 0.0
O50 O 0.90277 0.15865 0.48108 0.0
O51 O 0.8826 0.06776 0.44647 0.0
O52 O 0.8367 0.17883 0.49386 0.0
O53 O 0.85612 0.27355 0.52131 0.0
C54 C 0.91207 0.25443 0.38032 0.0
C55 C 0.83696 0.22814 0.52806 0.0
C56 C 0.89895 0.92697 0.96805 0.0
C57 C 0.82057 0.82935 0.8537 0.0
O58 O 0.90019 0.86358 0.96804 0.0
Zn59 Zn 0.87366 0.78256 0.93587 0.0
O60 O 0.87654 0.95583 0.94668 0.0
Zn61 Zn 0.8572 0.87697 0.91828 0.0
O62 O 0.83746 0.83322 0.99293 0.0
O63 O 0.85984 0.73709 1.00286 0.0
O64 O 0.82422 0.88924 0.86809 0.0
O65 O 0.83708 0.78427 0.87566 0.0
O66 O 0.90411 0.7396 0.89206 0.0
O67 O 0.89213 0.83958 0.86142 0.0
C68 C 0.84107 0.77918 0.0205 0.0
C69 C 0.90821 0.7872 0.8576 0.0
C70 C 0.60818 0.59844 0.46387 0.0
C71 C 0.68698 0.67811 0.33923 0.0
O72 O 0.61482 0.6588 0.47504 0.0
Zn73 Zn 0.6474 0.73077 0.44472 0.0
O74 O 0.624 0.56618 0.42862 0.0
Zn75 Zn 0.65019 0.63764 0.40734 0.0
O76 O 0.67957 0.65086 0.47969 0.0
O77 O 0.67077 0.75222 0.50972 0.0
O78 O 0.67587 0.62077 0.34406 0.0
O79 O 0.67901 0.72402 0.37394 0.0
O80 O 0.62058 0.79868 0.41986 0.0
O81 O 0.61828 0.70584 0.37038 0.0
C82 C 0.6847 0.69808 0.51484 0.0
C83 C 0.6092 0.76506 0.37996 0.0
C84 C 0.41479 0.63719 0.05702 0.0
C85 C 0.33378 0.74082 0.16256 0.0
O86 O 0.41216 0.69864 0.04475 0.0
Zn87 Zn 0.38297 0.77953 0.06808 0.0
O88 O 0.39567 0.60981 0.08926 0.0
Zn89 Zn 0.37251 0.68861 0.10504 0.0
O90 O 0.34873 0.70933 0.02625 0.0
O91 O 0.36666 0.80533 0.99728 0.0
O92 O 0.34226 0.68097 0.16225 0.0
O93 O 0.34622 0.78264 0.12894 0.0
O94 O 0.41164 0.8395 0.09954 0.0
O95 O 0.40597 0.74703 0.14826 0.0
C96 C 0.34956 0.75642 0.98961 0.0
C97 C 0.41895 0.80298 0.14092 0.0
C98 C 0.11864 0.93639 0.55529 0.0
C99 C 0.19255 0.84797 0.68322 0.0
O100 O 0.12134 0.8736 0.54877 0.0
Zn101 Zn 0.15109 0.79724 0.58047 0.0
O102 O 0.13711 0.9674 0.58589 0.0
Zn103 Zn 0.15834 0.89138 0.61318 0.0
O104 O 0.18839 0.86549 0.54448 0.0
O105 O 0.17303 0.7681 0.51462 0.0
O106 O 0.18373 0.90691 0.67622 0.0
O107 O 0.183 0.80189 0.65031 0.0
O108 O 0.12215 0.73648 0.6106 0.0
O109 O 0.12257 0.83422 0.65286 0.0
C110 C 0.19065 0.81678 0.50982 0.0
C111 C 0.11129 0.77618 0.64704 0.0
H112 H 0.30135 0.18789 0.69746 0.0
C113 C 0.30657 0.23952 0.68917 0.0
H114 H 0.29776 0.33868 0.71261 0.0
H115 H 0.17301 0.25488 0.82405 0.0
H116 H 0.15581 0.30412 0.73649 0.0
H117 H 0.1915 0.33886 0.66235 0.0
H118 H 0.24467 0.3236 0.67511 0.0
C119 C 0.29335 0.28669 0.72074 0.0
C120 C 0.27204 0.26925 0.76724 0.0
C121 C 0.24112 0.28055 0.76014 0.0
C122 C 0.22059 0.26242 0.80379 0.0
C123 C 0.18972 0.27044 0.79369 0.0
C124 C 0.17949 0.29804 0.74326 0.0
C125 C 0.19958 0.31746 0.70145 0.0
C126 C 0.23004 0.30856 0.7094 0.0
H127 H 0.19364 0.31435 0.91425 0.0
C128 C 0.1933 0.26351 0.92926 0.0
H129 H 0.2102 0.16707 0.91806 0.0
H130 H 0.33001 0.24457 0.79613 0.0
H131 H 0.34747 0.1966 0.88405 0.0
H132 H 0.31211 0.16638 0.96019 0.0
H133 H 0.25913 0.18401 0.94893 0.0
C134 C 0.21011 0.21773 0.90268 0.0
C135 C 0.23115 0.23536 0.85559 0.0
C136 C 0.26215 0.22428 0.86268 0.0
C137 C 0.28259 0.2414 0.81861 0.0
C138 C 0.31344 0.23127 0.82759 0.0
C139 C 0.32381 0.20412 0.87805 0.0
C140 C 0.30391 0.18714 0.92092 0.0
C141 C 0.27348 0.19731 0.91373 0.0
H142 H 0.21446 0.26552 0.20138 0.0
C143 C 0.21393 0.21385 0.18856 0.0
H144 H 0.2304 0.11788 0.20416 0.0
H145 H 0.32915 0.31309 0.33461 0.0
H146 H 0.34062 0.35763 0.24141 0.0
H147 H 0.31153 0.32405 0.15764 0.0
H148 H 0.27066 0.24639 0.16656 0.0
C149 C 0.23153 0.17004 0.21516 0.0
C150 C 0.25002 0.18957 0.26493 0.0
C151 C 0.27427 0.23419 0.25866 0.0
C152 C 0.29156 0.25234 0.30675 0.0
C153 C 0.31544 0.29736 0.29945 0.0
C154 C 0.32229 0.32324 0.2462 0.0
C155 C 0.30587 0.30444 0.19906 0.0
C156 C 0.28226 0.26017 0.20488 0.0
H157 H 0.32362 0.1433 0.40922 0.0
C158 C 0.32355 0.19174 0.42937 0.0
H159 H 0.3051 0.28801 0.42785 0.0
H160 H 0.20449 0.10483 0.29245 0.0
H161 H 0.19301 0.06121 0.38579 0.0
H162 H 0.22323 0.09222 0.46878 0.0
H163 H 0.26508 0.16726 0.45893 0.0
C164 C 0.30512 0.23862 0.40963 0.0
C165 C 0.28523 0.22431 0.3606 0.0
C166 C 0.26074 0.18053 0.36706 0.0
C167 C 0.24321 0.16295 0.3192 0.0
C168 C 0.21872 0.11957 0.32713 0.0
C169 C 0.21177 0.09435 0.38059 0.0
C170 C 0.22881 0.11172 0.42729 0.0
C171 C 0.25294 0.15446 0.42093 0.0
H172 H 0.80425 0.27172 0.3053 0.0
C173 C 0.80553 0.21924 0.31503 0.0
H174 H 0.78965 0.12362 0.29588 0.0
H175 H 0.68987 0.32746 0.17748 0.0
H176 H 0.67975 0.3677 0.27271 0.0
H177 H 0.70931 0.3285 0.35397 0.0
H178 H 0.74935 0.24963 0.34049 0.0
C179 C 0.78808 0.17626 0.287 0.0
C180 C 0.76873 0.19759 0.23912 0.0
C181 C 0.74487 0.24266 0.24811 0.0
C182 C 0.72723 0.26381 0.20149 0.0
C183 C 0.70383 0.30947 0.21143 0.0
C184 C 0.69774 0.33287 0.26588 0.0
C185 C 0.71443 0.31092 0.31161 0.0
C186 C 0.7376 0.26607 0.30315 0.0
H187 H 0.69243 0.16428 0.09386 0.0
C188 C 0.69359 0.21404 0.07647 0.0
H189 H 0.71413 0.30792 0.08285 0.0
H190 H 0.81243 0.11008 0.20693 0.0
H191 H 0.8216 0.0682 0.11214 0.0
H192 H 0.79079 0.10455 0.03163 0.0
H193 H 0.75057 0.18293 0.04555 0.0
C194 C 0.71301 0.25744 0.09854 0.0
C195 C 0.73269 0.23807 0.14645 0.0
C196 C 0.75636 0.19266 0.13749 0.0
C197 C 0.77428 0.17215 0.18389 0.0
C198 C 0.7979 0.12707 0.17351 0.0
C199 C 0.80353 0.10277 0.11917 0.0
C200 C 0.78616 0.12315 0.07387 0.0
C201 C 0.76297 0.16784 0.08258 0.0
H202 H 0.73575 0.25423 0.84505 0.0
C203 C 0.71894 0.28992 0.83247 0.0
H204 H 0.70266 0.35203 0.76832 0.0
H205 H 0.81543 0.3971 0.61771 0.0
H206 H 0.80099 0.50838 0.64353 0.0
H207 H 0.76176 0.52821 0.71492 0.0
H208 H 0.7362 0.43688 0.7603 0.0
C209 C 0.72008 0.31763 0.78064 0.0
C210 C 0.74494 0.30454 0.73939 0.0
C211 C 0.76057 0.3587 0.71498 0.0
C212 C 0.7841 0.34722 0.6753 0.0
C213 C 0.79809 0.40248 0.6494 0.0
C214 C 0.78994 0.46687 0.66363 0.0
C215 C 0.76778 0.47804 0.70375 0.0
C216 C 0.75322 0.42492 0.7293 0.0
H217 H 0.7932 0.20645 0.56656 0.0
C218 C 0.81387 0.23345 0.57268 0.0
H219 H 0.83835 0.29731 0.62532 0.0
H220 H 0.71517 0.18899 0.76471 0.0
H221 H 0.7325 0.07763 0.74611 0.0
H222 H 0.77948 0.05816 0.6939 0.0
H223 H 0.80845 0.15008 0.65748 0.0
C224 C 0.81756 0.27061 0.61957 0.0
C225 C 0.79303 0.28156 0.66191 0.0
C226 C 0.77819 0.22745 0.68817 0.0
C227 C 0.75295 0.23884 0.72376 0.0
C228 C 0.73604 0.18357 0.74213 0.0
C229 C 0.74551 0.11921 0.73102 0.0
C230 C 0.77181 0.10824 0.70126 0.0
C231 C 0.78805 0.16152 0.68 0.0
H232 H 0.83501 0.73467 0.105 0.0
C233 C 0.82448 0.76618 0.0736 0.0
H234 H 0.78624 0.81992 0.05103 0.0
H235 H 0.75576 0.62294 0.2768 0.0
H236 H 0.77448 0.53114 0.22072 0.0
H237 H 0.79241 0.54869 0.12269 0.0
H238 H 0.79343 0.65849 0.08179 0.0
C239 C 0.79667 0.78883 0.08287 0.0
C240 C 0.77979 0.77508 0.13679 0.0
C241 C 0.7761 0.70937 0.15725 0.0
C242 C 0.76227 0.69799 0.2109 0.0
C243 C 0.76329 0.63338 0.23408 0.0
C244 C 0.77435 0.58036 0.20263 0.0
C245 C 0.78467 0.59032 0.14767 0.0
C246 C 0.78553 0.6539 0.125 0.0
H247 H 0.70379 0.66179 0.25278 0.0
C248 C 0.70686 0.69189 0.29056 0.0
H249 H 0.73178 0.76734 0.32934 0.0
H250 H 0.78392 0.90756 0.11256 0.0
H251 H 0.76057 0.99733 0.16418 0.0
H252 H 0.73039 0.9757 0.24982 0.0
H253 H 0.72373 0.86428 0.28497 0.0
C254 C 0.72866 0.7376 0.2914 0.0
C255 C 0.74788 0.75075 0.24016 0.0
C256 C 0.75075 0.81625 0.21893 0.0
C257 C 0.76731 0.82854 0.16813 0.0
C258 C 0.77091 0.89486 0.14973 0.0
C259 C 0.75774 0.9471 0.17914 0.0
C260 C 0.74077 0.93492 0.2274 0.0
C261 C 0.73721 0.87048 0.24722 0.0
H262 H 0.72002 0.64465 0.56196 0.0
C263 C 0.70699 0.68992 0.56047 0.0
H264 H 0.69925 0.78386 0.59687 0.0
H265 H 0.76505 0.6601 0.82026 0.0
H266 H 0.72338 0.58385 0.82644 0.0
H267 H 0.68685 0.57586 0.7489 0.0
H268 H 0.69169 0.64405 0.66472 0.0
C269 C 0.71167 0.7378 0.59923 0.0
C270 C 0.7357 0.73443 0.64259 0.0
C271 C 0.73268 0.69364 0.69128 0.0
C272 C 0.75371 0.69852 0.73625 0.0
C273 C 0.7498 0.65831 0.78489 0.0
C274 C 0.72594 0.61445 0.78905 0.0
C275 C 0.70538 0.6099 0.74535 0.0
C276 C 0.7085 0.64916 0.6971 0.0
H277 H 0.78428 0.85349 0.79474 0.0
C278 C 0.79865 0.81363 0.80912 0.0
H279 H 0.81161 0.71414 0.79608 0.0
H280 H 0.74943 0.81527 0.55315 0.0
H281 H 0.79237 0.88756 0.54499 0.0
H282 H 0.82975 0.89287 0.62122 0.0
H283 H 0.82423 0.82663 0.70629 0.0
C284 C 0.79762 0.75486 0.78229 0.0
C285 C 0.77753 0.74446 0.73265 0.0
C286 C 0.78167 0.78181 0.68219 0.0
C287 C 0.76049 0.77755 0.63762 0.0
C288 C 0.76479 0.81669 0.58838 0.0
C289 C 0.78942 0.85816 0.58299 0.0
C290 C 0.81044 0.86122 0.62594 0.0
C291 C 0.80682 0.82337 0.67486 0.0
H292 H 0.3422 0.77302 0.8989 0.0
C293 C 0.3317 0.75457 0.93746 0.0
H294 H 0.29152 0.72472 0.97627 0.0
H295 H 0.26553 0.88641 0.73019 0.0
H296 H 0.29219 0.9787 0.77171 0.0
H297 H 0.31229 0.97123 0.86878 0.0
H298 H 0.30741 0.87017 0.92316 0.0
C299 C 0.30233 0.74176 0.93758 0.0
C300 C 0.28386 0.75224 0.88553 0.0
C301 C 0.28399 0.81436 0.85718 0.0
C302 C 0.26928 0.8215 0.80424 0.0
C303 C 0.2738 0.88052 0.7729 0.0
C304 C 0.2894 0.9336 0.79592 0.0
C305 C 0.30092 0.92921 0.85033 0.0
C306 C 0.2983 0.87048 0.8808 0.0
H307 H 0.21208 0.86891 0.76634 0.0
C308 C 0.21223 0.83357 0.73152 0.0
H309 H 0.23106 0.74597 0.69879 0.0
H310 H 0.27878 0.62675 0.92806 0.0
H311 H 0.24792 0.53844 0.89106 0.0
H312 H 0.21719 0.55553 0.80589 0.0
H313 H 0.21754 0.66049 0.75649 0.0
C314 C 0.23084 0.78148 0.73344 0.0
C315 C 0.25057 0.77011 0.78369 0.0
C316 C 0.24949 0.70881 0.81308 0.0
C317 C 0.26657 0.69952 0.86335 0.0
C318 C 0.26586 0.63702 0.89046 0.0
C319 C 0.24825 0.5858 0.86964 0.0
C320 C 0.23098 0.59539 0.82164 0.0
C321 C 0.23146 0.65602 0.79358 0.0
H322 H 0.29505 0.80169 0.1889 0.0
C323 C 0.30996 0.76231 0.202 0.0
H324 H 0.32266 0.69633 0.2663 0.0
H325 H 0.22577 0.90787 0.38981 0.0
H326 H 0.25796 0.9969 0.35806 0.0
H327 H 0.30267 0.97384 0.30037 0.0
H328 H 0.31504 0.86185 0.27246 0.0
C329 C 0.30713 0.7349 0.25385 0.0
C330 C 0.28201 0.75005 0.29391 0.0
C331 C 0.27646 0.81545 0.3136 0.0
C332 C 0.25206 0.8282 0.35117 0.0
C333 C 0.24519 0.89472 0.36494 0.0
C334 C 0.26325 0.94648 0.34641 0.0
C335 C 0.28837 0.93352 0.31365 0.0
C336 C 0.29502 0.86893 0.29738 0.0
H337 H 0.23548 0.83971 0.47576 0.0
C338 C 0.21437 0.81604 0.46608 0.0
H339 H 0.18893 0.76336 0.40675 0.0
H340 H 0.28501 0.61927 0.26275 0.0
H341 H 0.2561 0.52912 0.30179 0.0
H342 H 0.21811 0.54934 0.37573 0.0
H343 H 0.20842 0.65989 0.41017 0.0
C344 C 0.2104 0.78589 0.41568 0.0
C345 C 0.23511 0.77478 0.37369 0.0
C346 C 0.24135 0.70918 0.35542 0.0
C347 C 0.26421 0.69709 0.31457 0.0
C348 C 0.26874 0.63136 0.29514 0.0
C349 C 0.25216 0.57895 0.31696 0.0
C350 C 0.23072 0.59036 0.35843 0.0
C351 C 0.22529 0.65443 0.37759 0.0
H352 H 0.0787 0.19143 0.20858 0.0
C353 C 0.08024 0.23334 0.17979 0.0
H354 H 0.05837 0.3179 0.14803 0.0
H355 H 0.93076 0.20663 0.2114 0.0
H356 H 0.93022 0.19963 0.10864 0.0
H357 H 0.97545 0.22382 0.05246 0.0
H358 H 0.02146 0.25521 0.09862 0.0
C359 C 0.0581 0.27795 0.17886 0.0
C360 C 0.03057 0.26721 0.21316 0.0
C361 C 1.00369 0.25008 0.18537 0.0
C362 C 0.97768 0.23551 0.21777 0.0
C363 C 0.95123 0.21782 0.18892 0.0
C364 C 0.95058 0.21373 0.12992 0.0
C365 C 0.97602 0.22747 0.09829 0.0
C366 C 1.0023 0.24556 0.1254 0.0
H367 H 0.9469 0.31969 0.34492 0.0
C368 C 0.93762 0.27004 0.34319 0.0
H369 H 0.94212 0.17379 0.309 0.0
H370 H 0.07781 0.30312 0.27953 0.0
H371 H 0.07945 0.30202 0.38241 0.0
H372 H 0.03527 0.26982 0.43868 0.0
H373 H 0.98914 0.23985 0.39256 0.0
C374 C 0.95114 0.22362 0.31133 0.0
C375 C 0.97852 0.23866 0.27783 0.0
C376 C 1.00556 0.25471 0.30569 0.0
C377 C 0.03145 0.27025 0.27327 0.0
C378 C 0.05782 0.28851 0.30207 0.0
C379 C 0.05902 0.28848 0.36113 0.0
C380 C 0.03412 0.27065 0.3928 0.0
C381 C 1.00765 0.25407 0.36569 0.0
H382 H 0.44007 0.12732 0.69434 0.0
C383 C 0.43871 0.1737 0.67123 0.0
H384 H 0.45936 0.26321 0.64884 0.0
H385 H 0.54011 0.30448 0.86059 0.0
H386 H 0.50921 0.40252 0.86103 0.0
H387 H 0.46665 0.41258 0.79615 0.0
H388 H 0.45534 0.32583 0.72904 0.0
C389 C 0.4609 0.21812 0.67373 0.0
C390 C 0.48689 0.21085 0.71219 0.0
C391 C 0.49292 0.26178 0.752 0.0
C392 C 0.51746 0.25586 0.78955 0.0
C393 C 0.5225 0.30703 0.8296 0.0
C394 C 0.50464 0.36335 0.83098 0.0
C395 C 0.48071 0.36911 0.79436 0.0
C396 C 0.47461 0.31887 0.75572 0.0
H397 H 0.58505 0.27306 0.78938 0.0
C398 C 0.58519 0.23469 0.8217 0.0
H399 H 0.56148 0.15483 0.85812 0.0
H400 H 0.48579 0.11089 0.63293 0.0
H401 H 0.51799 0.01495 0.62966 0.0
H402 H 0.55849 0.00121 0.69901 0.0
H403 H 0.5673 0.08425 0.7714 0.0
C404 C 0.56205 0.19289 0.82558 0.0
C405 C 0.53609 0.19909 0.78694 0.0
C406 C 0.53029 0.14861 0.74676 0.0
C407 C 0.50616 0.15524 0.70828 0.0
C408 C 0.50258 0.10672 0.66541 0.0
C409 C 0.52121 0.05169 0.66253 0.0
C410 C 0.54406 0.04405 0.70146 0.0
C411 C 0.5488 0.092 0.74291 0.0
H412 H 0.07668 0.70629 0.67659 0.0
C413 C 0.08441 0.75716 0.67933 0.0
H414 H 0.07556 0.85311 0.71097 0.0
H415 H 0.94123 0.71657 0.7183 0.0
H416 H 0.94469 0.71505 0.6155 0.0
H417 H 0.9913 0.74694 0.56677 0.0
H418 H 0.03478 0.77933 0.62037 0.0
C419 C 0.06806 0.80212 0.70777 0.0
C420 C 0.03958 0.78434 0.7365 0.0
C421 C 0.0142 0.76632 0.70422 0.0
C422 C 0.98693 0.75061 0.73217 0.0
C423 C 0.96218 0.73103 0.69913 0.0
C424 C 0.96391 0.72963 0.6401 0.0
C425 C 0.99018 0.74733 0.61268 0.0
C426 C 0.01509 0.76537 0.64409 0.0
H427 H 0.93581 0.82854 0.78869 0.0
C428 C 0.93362 0.787 0.81773 0.0
H429 H 0.95493 0.70374 0.85312 0.0
H430 H 0.08362 0.81957 0.81061 0.0
H431 H 0.07899 0.82926 0.91288 0.0
H432 H 0.03138 0.80469 0.96118 0.0
H433 H 0.98815 0.77022 0.90763 0.0
C434 C 0.95597 0.74309 0.82177 0.0
C435 C 0.98483 0.75494 0.79212 0.0
C436 C 1.01009 0.77377 0.82428 0.0
C437 C 0.03745 0.78866 0.79642 0.0
C438 C 0.06222 0.80813 0.82954 0.0
C439 C 0.05991 0.81375 0.88832 0.0
C440 C 0.03312 0.79979 0.91553 0.0
C441 C 1.00847 0.77988 0.88418 0.0
H442 H 0.46225 0.85102 0.15423 0.0
C443 C 0.44573 0.81896 0.1739 0.0
H444 H 0.4354 0.75496 0.24139 0.0
H445 H 0.5621 0.64318 0.28769 0.0
H446 H 0.53384 0.54577 0.26348 0.0
H447 H 0.48238 0.55492 0.22833 0.0
H448 H 0.45886 0.66148 0.218 0.0
C449 C 0.4521 0.78706 0.22233 0.0
C450 C 0.48323 0.78292 0.24372 0.0
C451 C 0.497 0.71984 0.24793 0.0
C452 C 0.52709 0.71471 0.26604 0.0
C453 C 0.53975 0.65076 0.27223 0.0
C454 C 0.52369 0.59402 0.25877 0.0
C455 C 0.4947 0.59915 0.23928 0.0
C456 C 0.4814 0.661 0.23385 0.0
H457 H 0.56796 0.82308 0.37348 0.0
C458 C 0.58272 0.78987 0.35039 0.0
H459 H 0.58995 0.7331 0.27695 0.0
H460 H 0.46248 0.91035 0.24982 0.0
H461 H 0.4921 0.00911 0.26509 0.0
H462 H 0.54622 0.00118 0.28172 0.0
H463 H 0.57073 0.89434 0.28542 0.0
C464 C 0.57478 0.76597 0.29946 0.0
C465 C 0.54377 0.77281 0.27788 0.0
C466 C 0.53034 0.83594 0.27139 0.0
C467 C 0.49967 0.84082 0.25707 0.0
C468 C 0.4861 0.90406 0.25681 0.0
C469 C 0.50279 0.96112 0.26603 0.0
C470 C 0.53322 0.95664 0.27573 0.0
C471 C 0.54695 0.89493 0.27835 0.0
H472 H 0.09159 0.00522 1.00436 0.0
C473 C 0.08972 0.0588 1.00596 0.0
H474 H 0.06045 0.14058 1.00503 0.0
H475 H 0.9708 0.92001 0.88849 0.0
H476 H 1.00374 0.92473 0.80676 0.0
H477 H 0.05152 0.9847 0.81125 0.0
H478 H 0.06635 0.04176 0.89735 0.0
C479 C 0.06285 0.08743 0.99967 0.0
C480 C 0.03493 0.0478 0.9971 0.0
C481 C 0.02683 0.01405 0.94674 0.0
C482 C 0.99939 0.97889 0.94435 0.0
C483 C 0.9915 0.94695 0.89299 0.0
C484 C 1.01017 0.94937 0.84562 0.0
C485 C 0.03706 0.9832 0.84816 0.0
C486 C 0.04536 0.01547 0.89792 0.0
H487 H 0.92331 0.01962 0.98704 0.0
C488 C 0.92527 0.96607 0.98505 0.0
H489 H 0.95468 0.88451 0.9841 0.0
H490 H 0.04413 0.10574 0.10083 0.0
H491 H 0.01134 0.10038 0.18278 0.0
H492 H 0.96374 0.03971 0.17846 0.0
H493 H 0.94895 0.98259 0.09245 0.0
C494 C 0.95226 0.9376 0.98989 0.0
C495 C 0.98015 0.97734 0.99238 0.0
C496 C 0.98829 0.01097 0.04279 0.0
C497 C 0.01568 0.04633 0.04511 0.0
C498 C 0.02351 0.07852 0.09641 0.0
C499 C 1.00492 0.07575 0.14388 0.0
C500 C 0.97813 0.04152 0.14147 0.0
C501 C 0.96984 0.00921 0.09172 0.0
H502 H 0.56806 0.59869 0.51872 0.0
C503 C 0.58024 0.57021 0.48706 0.0
H504 H 0.57928 0.48682 0.43279 0.0
H505 H 0.47888 0.3494 0.58771 0.0
H506 H 0.52227 0.29939 0.63097 0.0
H507 H 0.5729 0.33696 0.60571 0.0
H508 H 0.58041 0.42553 0.5375 0.0
C509 C 0.56774 0.51533 0.46525 0.0
C510 C 0.53707 0.49388 0.4816 0.0
C511 C 0.53304 0.44076 0.52006 0.0
C512 C 0.50382 0.41795 0.5335 0.0
C513 C 0.50051 0.36707 0.57436 0.0
C514 C 0.52525 0.33827 0.59989 0.0
C515 C 0.55376 0.35951 0.58573 0.0
C516 C 0.55776 0.41024 0.54643 0.0
H517 H 0.45396 0.33071 0.47896 0.0
C518 C 0.43887 0.36169 0.50356 0.0
H519 H 0.43332 0.45381 0.5449 0.0
H520 H 0.53672 0.59826 0.4074 0.0
H521 H 0.49317 0.65102 0.36714 0.0
H522 H 0.4427 0.60983 0.3886 0.0
H523 H 0.43529 0.51661 0.45205 0.0
C524 C 0.44795 0.42224 0.51991 0.0
C525 C 0.47863 0.44699 0.50699 0.0
C526 C 0.48264 0.50132 0.46972 0.0
C527 C 0.51186 0.52475 0.45693 0.0
C528 C 0.51511 0.57871 0.41905 0.0
C529 C 0.49031 0.60923 0.39529 0.0
C530 C 0.46186 0.58617 0.40755 0.0
C531 C 0.45793 0.53272 0.44412 0.0
H532 H 0.45536 0.62468 1.00511 0.0
C533 C 0.44189 0.60192 0.03825 0.0
H534 H 0.43982 0.526 0.09985 0.0
H535 H 0.53654 0.35326 0.96537 0.0
H536 H 0.49208 0.28892 0.94887 0.0
H537 H 0.44277 0.3303 0.97873 0.0
H538 H 0.43779 0.43643 0.02595 0.0
C539 C 0.45262 0.54895 0.0659 0.0
C540 C 0.48277 0.52185 0.05243 0.0
C541 C 0.48552 0.45904 0.02624 0.0
C542 C 0.51413 0.4347 0.01001 0.0
C543 C 0.51578 0.37327 0.98108 0.0
C544 C 0.49029 0.33595 0.97067 0.0
C545 C 0.46252 0.3593 0.98734 0.0
C546 C 0.46 0.42027 0.01446 0.0
H547 H 0.57139 0.3639 0.0503 0.0
C548 C 0.58301 0.39456 0.01943 0.0
H549 H 0.58131 0.481 0.96955 0.0
H550 H 0.48579 0.64023 0.109 0.0
H551 H 0.53045 0.70203 0.1313 0.0
H552 H 0.58004 0.65966 0.10414 0.0
H553 H 0.58521 0.55522 0.05419 0.0
C554 C 0.57009 0.45054 1.0011 0.0
C555 C 0.54013 0.47264 0.02163 0.0
C556 C 0.53739 0.53419 0.05016 0.0
C557 C 0.50875 0.55874 0.06571 0.0
C558 C 0.50686 0.61974 0.09519 0.0
C559 C 0.53236 0.65561 0.10861 0.0
C560 C 0.56028 0.63174 0.09332 0.0
C561 C 0.56291 0.57182 0.06447 0.0
H562 H 0.09213 0.02519 0.53508 0.0
C563 C 0.09207 0.97141 0.53429 0.0
H564 H 0.06564 0.88547 0.52676 0.0
H565 H 0.94828 0.03417 0.60313 0.0
H566 H 0.95977 0.97173 0.6882 0.0
H567 H 1.00715 0.91102 0.69639 0.0
H568 H 0.04317 0.9111 0.61927 0.0
C569 C 0.06657 0.93906 0.52329 0.0
C570 C 0.0379 0.97538 0.51742 0.0
C571 C 0.0168 0.97359 0.5625 0.0
C572 C 0.9895 0.00895 0.55793 0.0
C573 C 0.96918 0.0076 0.60411 0.0
C574 C 0.97554 0.97216 0.65328 0.0
C575 C 1.00221 0.93783 0.65785 0.0
C576 C 0.02267 0.93829 0.61318 0.0
H577 H 0.92765 0.00277 0.49085 0.0
C578 C 0.9291 0.05641 0.49276 0.0
H579 H 0.95763 0.13878 0.50155 0.0
H580 H 0.07273 0.98608 0.42218 0.0
H581 H 0.0612 0.04828 0.33699 0.0
H582 H 0.01387 0.10929 0.32885 0.0
H583 H 0.97794 0.10962 0.40617 0.0
C584 C 0.95545 0.08527 0.50362 0.0
C585 C 0.98334 0.04586 0.50823 0.0
C586 C 1.00432 0.04712 0.46294 0.0
C587 C 0.0316 0.01171 0.46748 0.0
C588 C 0.05186 0.01281 0.42122 0.0
C589 C 0.04547 0.04807 0.37198 0.0
C590 C 0.01883 0.08255 0.36744 0.0
C591 C 0.99842 0.08234 0.41222 0.0
loop_
_geom_bond_atom_site_label_1
_geom_bond_atom_site_label_2
_geom_bond_distance
_geom_bond_site_symmetry_2
_ccdc_geom_bond_type
C0 O2 1.247 . S
C0 O4 1.258 . S
C1 O8 1.247 . S
C1 O9 1.258 . S
O2 C0 1.247 . S
O2 Zn3 2.028 . S
Zn3 O2 2.028 . S
Zn3 O7 2.035 . S
Zn3 O9 2.035 . S
Zn3 O10 2.028 . S
O4 C0 1.258 . S
O4 Zn5 2.035 . S
Zn5 O4 2.035 . S
Zn5 O6 2.028 . S
Zn5 O8 2.028 . S
Zn5 O11 2.035 . S
O6 Zn5 2.028 . S
O6 C12 1.247 . S
O7 Zn3 2.035 . S
O7 C12 1.258 . S
O8 C1 1.247 . S
O8 Zn5 2.028 . S
O9 C1 1.258 . S
O9 Zn3 2.035 . S
O10 Zn3 2.028 . S
O10 C13 1.247 . S
O11 Zn5 2.035 . S
O11 C13 1.258 . S
C12 O6 1.247 . S
C12 O7 1.258 . S
C13 O10 1.247 . S
C13 O11 1.258 . S
C14 O16 1.247 . S
C14 O18 1.258 . S
C15 O22 1.247 . S
C15 O23 1.258 . S
O16 C14 1.247 . S
O16 Zn17 2.028 . S
Zn17 O16 2.028 . S
Zn17 O21 2.035 . S
Zn17 O23 2.035 . S
Zn17 O24 2.028 . S
O18 C14 1.258 . S
O18 Zn19 2.035 . S
Zn19 O18 2.035 . S
Zn19 O20 2.028 . S
Zn19 O22 2.028 . S
Zn19 O25 2.035 . S
O20 Zn19 2.028 . S
O20 C26 1.247 . S
O21 Zn17 2.035 . S
O21 C26 1.258 . S
O22 C15 1.247 . S
O22 Zn19 2.028 . S
O23 C15 1.258 . S
O23 Zn17 2.035 . S
O24 Zn17 2.028 . S
O24 C27 1.247 . S
O25 Zn19 2.035 . S
O25 C27 1.258 . S
C26 O20 1.247 . S
C26 O21 1.258 . S
C27 O24 1.247 . S
C27 O25 1.258 . S
C28 O30 1.247 . S
C28 O32 1.258 . S
C29 O36 1.247 . S
C29 O37 1.258 . S
O30 C28 1.247 . S
O30 Zn31 2.028 . S
Zn31 O30 2.028 . S
Zn31 O35 2.035 . S
Zn31 O37 2.035 . S
Zn31 O38 2.028 . S
O32 C28 1.258 . S
O32 Zn33 2.035 . S
Zn33 O32 2.035 . S
Zn33 O34 2.028 . S
Zn33 O36 2.028 . S
Zn33 O39 2.035 . S
O34 Zn33 2.028 . S
O34 C40 1.247 . S
O35 Zn31 2.035 . S
O35 C40 1.258 . S
O36 C29 1.247 . S
O36 Zn33 2.028 . S
O37 C29 1.258 . S
O37 Zn31 2.035 . S
O38 Zn31 2.028 . S
O38 C41 1.247 . S
O39 Zn33 2.035 . S
O39 C41 1.258 . S
C40 O34 1.247 . S
C40 O35 1.258 . S
C41 O38 1.247 . S
C41 O39 1.258 . S
C42 O44 1.247 . S
C42 O46 1.258 . S
C43 O50 1.247 . S
C43 O51 1.258 . S
O44 C42 1.247 . S
O44 Zn45 2.028 . S
Zn45 O44 2.028 . S
Zn45 O49 2.035 . S
Zn45 O51 2.035 . S
Zn45 O52 2.028 . S
O46 C42 1.258 . S
O46 Zn47 2.035 . S
Zn47 O46 2.035 . S
Zn47 O48 2.028 . S
Zn47 O50 2.028 . S
Zn47 O53 2.035 . S
O48 Zn47 2.028 . S
O48 C54 1.247 . S
O49 Zn45 2.035 . S
O49 C54 1.258 . S
O50 C43 1.247 . S
O50 Zn47 2.028 . S
O51 C43 1.258 . S
O51 Zn45 2.035 . S
O52 Zn45 2.028 . S
O52 C55 1.247 . S
O53 Zn47 2.035 . S
O53 C55 1.258 . S
C54 O48 1.247 . S
C54 O49 1.258 . S
C55 O52 1.247 . S
C55 O53 1.258 . S
C56 O58 1.247 . S
C56 O60 1.258 . S
C57 O64 1.247 . S
C57 O65 1.258 . S
O58 C56 1.247 . S
O58 Zn59 2.028 . S
Zn59 O58 2.028 . S
Zn59 O63 2.035 . S
Zn59 O65 2.035 . S
Zn59 O66 2.028 . S
O60 C56 1.258 . S
O60 Zn61 2.035 . S
Zn61 O60 2.035 . S
Zn61 O62 2.028 . S
Zn61 O64 2.028 . S
Zn61 O67 2.035 . S
O62 Zn61 2.028 . S
O62 C68 1.247 . S
O63 Zn59 2.035 . S
O63 C68 1.258 . S
O64 C57 1.247 . S
O64 Zn61 2.028 . S
O65 C57 1.258 . S
O65 Zn59 2.035 . S
O66 Zn59 2.028 . S
O66 C69 1.247 . S
O67 Zn61 2.035 . S
O67 C69 1.258 . S
C68 O62 1.247 . S
C68 O63 1.258 . S
C69 O66 1.247 . S
C69 O67 1.258 . S
C70 O72 1.247 . S
C70 O74 1.258 . S
C71 O78 1.247 . S
C71 O79 1.258 . S
O72 C70 1.247 . S
O72 Zn73 2.028 . S
Zn73 O72 2.028 . S
Zn73 O77 2.035 . S
Zn73 O79 2.035 . S
Zn73 O80 2.028 . S
O74 C70 1.258 . S
O74 Zn75 2.035 . S
Zn75 O74 2.035 . S
Zn75 O76 2.028 . S
Zn75 O78 2.028 . S
Zn75 O81 2.035 . S
O76 Zn75 2.028 . S
O76 C82 1.247 . S
O77 Zn73 2.035 . S
O77 C82 1.258 . S
O78 C71 1.247 . S
O78 Zn75 2.028 . S
O79 C71 1.258 . S
O79 Zn73 2.035 . S
O80 Zn73 2.028 . S
O80 C83 1.247 . S
O81 Zn75 2.035 . S
O81 C83 1.258 . S
C82 O76 1.247 . S
C82 O77 1.258 . S
C83 O80 1.247 . S
C83 O81 1.258 . S
C84 O86 1.247 . S
C84 O88 1.258 . S
C85 O92 1.247 . S
C85 O93 1.258 . S
O86 C84 1.247 . S
O86 Zn87 2.028 . S
Zn87 O86 2.028 . S
Zn87 O91 2.035 . S
Zn87 O93 2.035 . S
Zn87 O94 2.028 . S
O88 C84 1.258 . S
O88 Zn89 2.035 . S
Zn89 O88 2.035 . S
Zn89 O90 2.028 . S
Zn89 O92 2.028 . S
Zn89 O95 2.035 . S
O90 Zn89 2.028 . S
O90 C96 1.247 . S
O91 Zn87 2.035 . S
O91 C96 1.258 . S
O92 C85 1.247 . S
O92 Zn89 2.028 . S
O93 C85 1.258 . S
O93 Zn87 2.035 . S
O94 Zn87 2.028 . S
O94 C97 1.247 . S
O95 Zn89 2.035 . S
O95 C97 1.258 . S
C96 O90 1.247 . S
C96 O91 1.258 . S
C97 O94 1.247 . S
C97 O95 1.258 . S
C98 O100 1.247 . S
C98 O102 1.258 . S
C99 O106 1.247 . S
C99 O107 1.258 . S
O100 C98 1.247 . S
O100 Zn101 2.028 . S
Zn101 O100 2.028 . S
Zn101 O105 2.035 . S
Zn101 O107 2.035 . S
Zn101 O108 2.028 . S
O102 C98 1.258 . S
O102 Zn103 2.035 . S
Zn103 O102 2.035 . S
Zn103 O104 2.028 . S
Zn103 O106 2.028 . S
Zn103 O109 2.035 . S
O104 Zn103 2.028 . S
O104 C110 1.247 . S
O105 Zn101 2.035 . S
O105 C110 1.258 . S
O106 C99 1.247 . S
O106 Zn103 2.028 . S
O107 C99 1.258 . S
O107 Zn101 2.035 . S
O108 Zn101 2.028 . S
O108 C111 1.247 . S
O109 Zn103 2.035 . S
O109 C111 1.258 . S
C110 O104 1.247 . S
C110 O105 1.258 . S
C111 O108 1.247 . S
C111 O109 1.258 . S
H112 C113 0.951 . S
C113 H112 0.951 . S
C113 C119 1.265 . S
H114 C119 0.950 . S
H115 C123 0.949 . S
H116 C124 0.950 . S
H117 C125 0.951 . S
H118 C126 0.951 . S
C119 C113 1.265 . S
C119 H114 0.950 . S
C119 C120 1.478 . S
C120 C119 1.478 . S
C120 C121 1.397 . S
C120 C137 1.394 . S
C121 C120 1.397 . S
C121 C122 1.438 . S
C121 C126 1.429 . S
C122 C121 1.438 . S
C122 C123 1.428 . S
C122 C135 1.394 . S
C123 H115 0.949 . S
C123 C122 1.428 . S
C123 C124 1.345 . S
C124 H116 0.950 . S
C124 C123 1.345 . S
C124 C125 1.424 . S
C125 H117 0.951 . S
C125 C124 1.424 . S
C125 C126 1.347 . S
C126 H118 0.951 . S
C126 C121 1.429 . S
C126 C125 1.347 . S
H127 C128 0.951 . S
C128 H127 0.951 . S
C128 C134 1.265 . S
H129 C134 0.950 . S
H130 C138 0.949 . S
H131 C139 0.950 . S
H132 C140 0.951 1_565 S
H133 C141 0.951 . S
C134 C128 1.265 . S
C134 H129 0.950 . S
C134 C135 1.478 . S
C135 C122 1.394 . S
C135 C134 1.478 . S
C135 C136 1.397 . S
C136 C135 1.397 . S
C136 C137 1.438 . S
C136 C141 1.429 . S
C137 C120 1.394 . S
C137 C136 1.438 . S
C137 C138 1.428 . S
C138 H130 0.949 . S
C138 C137 1.428 . S
C138 C139 1.345 . S
C139 H131 0.950 . S
C139 C138 1.345 . S
C139 C140 1.424 . S
C140 H132 0.951 1_545 S
C140 C139 1.424 . S
C140 C141 1.347 . S
C141 H133 0.951 . S
C141 C136 1.429 . S
C141 C140 1.347 . S
H142 C143 0.951 . S
C143 H142 0.951 . S
C143 C149 1.265 . S
H144 C149 0.950 . S
H145 C153 0.949 . S
H146 C154 0.950 . S
H147 C155 0.951 . S
H148 C156 0.951 . S
C149 C143 1.265 . S
C149 H144 0.950 . S
C149 C150 1.478 . S
C150 C149 1.478 . S
C150 C151 1.397 . S
C150 C167 1.394 . S
C151 C150 1.397 . S
C151 C152 1.438 . S
C151 C156 1.429 . S
C152 C151 1.438 . S
C152 C153 1.428 . S
C152 C165 1.394 . S
C153 H145 0.949 . S
C153 C152 1.428 . S
C153 C154 1.345 . S
C154 H146 0.950 . S
C154 C153 1.345 . S
C154 C155 1.424 . S
C155 H147 0.951 . S
C155 C154 1.424 . S
C155 C156 1.347 . S
C156 H148 0.951 . S
C156 C151 1.429 . S
C156 C155 1.347 . S
H157 C158 0.951 . S
C158 H157 0.951 . S
C158 C164 1.265 . S
H159 C164 0.950 . S
H160 C168 0.949 . S
H161 C169 0.950 . S
H162 C170 0.951 . S
H163 C171 0.951 . S
C164 C158 1.265 . S
C164 H159 0.950 . S
C164 C165 1.478 . S
C165 C152 1.394 . S
C165 C164 1.478 . S
C165 C166 1.397 . S
C166 C165 1.397 . S
C166 C167 1.438 . S
C166 C171 1.429 . S
C167 C150 1.394 . S
C167 C166 1.438 . S
C167 C168 1.428 . S
C168 H160 0.949 . S
C168 C167 1.428 . S
C168 C169 1.345 . S
C169 H161 0.950 . S
C169 C168 1.345 . S
C169 C170 1.424 . S
C170 H162 0.951 . S
C170 C169 1.424 . S
C170 C171 1.347 . S
C171 H163 0.951 . S
C171 C166 1.429 . S
C171 C170 1.347 . S
H172 C173 0.951 . S
C173 H172 0.951 . S
C173 C179 1.265 . S
H174 C179 0.950 . S
H175 C183 0.949 . S
H176 C184 0.950 . S
H177 C185 0.951 . S
H178 C186 0.951 . S
C179 C173 1.265 . S
C179 H174 0.950 . S
C179 C180 1.478 . S
C180 C179 1.478 . S
C180 C181 1.397 . S
C180 C197 1.394 . S
C181 C180 1.397 . S
C181 C182 1.438 . S
C181 C186 1.429 . S
C182 C181 1.438 . S
C182 C183 1.428 . S
C182 C195 1.394 . S
C183 H175 0.949 . S
C183 C182 1.428 . S
C183 C184 1.345 . S
C184 H176 0.950 . S
C184 C183 1.345 . S
C184 C185 1.424 . S
C185 H177 0.951 . S
C185 C184 1.424 . S
C185 C186 1.347 . S
C186 H178 0.951 . S
C186 C181 1.429 . S
C186 C185 1.347 . S
H187 C188 0.951 . S
C188 H187 0.951 . S
C188 C194 1.265 . S
H189 C194 0.950 . S
H190 C198 0.949 . S
H191 C199 0.950 . S
H192 C200 0.951 . S
H193 C201 0.951 . S
C194 C188 1.265 . S
C194 H189 0.950 . S
C194 C195 1.478 . S
C195 C182 1.394 . S
C195 C194 1.478 . S
C195 C196 1.397 . S
C196 C195 1.397 . S
C196 C197 1.438 . S
C196 C201 1.429 . S
C197 C180 1.394 . S
C197 C196 1.438 . S
C197 C198 1.428 . S
C198 H190 0.949 . S
C198 C197 1.428 . S
C198 C199 1.345 . S
C199 H191 0.950 . S
C199 C198 1.345 . S
C199 C200 1.424 . S
C200 H192 0.951 . S
C200 C199 1.424 . S
C200 C201 1.347 . S
C201 H193 0.951 . S
C201 C196 1.429 . S
C201 C200 1.347 . S
H202 C203 0.951 . S
C203 H202 0.951 . S
C203 C209 1.265 . S
H204 C209 0.950 . S
H205 C213 0.949 . S
H206 C214 0.950 . S
H207 C215 0.951 . S
H208 C216 0.951 . S
C209 C203 1.265 . S
C209 H204 0.950 . S
C209 C210 1.478 . S
C210 C209 1.478 . S
C210 C211 1.397 . S
C210 C227 1.394 . S
C211 C210 1.397 . S
C211 C212 1.438 . S
C211 C216 1.429 . S
C212 C211 1.438 . S
C212 C213 1.428 . S
C212 C225 1.394 . S
C213 H205 0.949 . S
C213 C212 1.428 . S
C213 C214 1.345 . S
C214 H206 0.950 . S
C214 C213 1.345 . S
C214 C215 1.424 . S
C215 H207 0.951 . S
C215 C214 1.424 . S
C215 C216 1.347 . S
C216 H208 0.951 . S
C216 C211 1.429 . S
C216 C215 1.347 . S
H217 C218 0.951 . S
C218 H217 0.951 . S
C218 C224 1.265 . S
H219 C224 0.950 . S
H220 C228 0.949 . S
H221 C229 0.950 . S
H222 C230 0.939 1_565 S
H223 C231 0.951 . S
C224 C218 1.265 . S
C224 H219 0.950 . S
C224 C225 1.478 . S
C225 C212 1.394 . S
C225 C224 1.478 . S
C225 C226 1.397 . S
C226 C225 1.397 . S
C226 C227 1.438 . S
C226 C231 1.429 . S
C227 C210 1.394 . S
C227 C226 1.438 . S
C227 C228 1.428 . S
C228 H220 0.949 . S
C228 C227 1.428 . S
C228 C229 1.345 . S
C229 H221 0.950 . S
C229 C228 1.345 . S
C229 C230 1.424 . S
C230 H222 0.939 1_545 S
C230 C229 1.424 . S
C230 C231 1.347 . S
C231 H223 0.951 . S
C231 C226 1.429 . S
C231 C230 1.347 . S
H232 C233 0.951 . S
C233 H232 0.951 . S
C233 C239 1.265 . S
H234 C239 0.950 . S
H235 C243 0.949 . S
H236 C244 0.950 . S
H237 C245 0.951 . S
H238 C246 0.951 . S
C239 C233 1.265 . S
C239 H234 0.950 . S
C239 C240 1.478 . S
C240 C239 1.478 . S
C240 C241 1.397 . S
C240 C257 1.394 . S
C241 C240 1.397 . S
C241 C242 1.438 . S
C241 C246 1.429 . S
C242 C241 1.438 . S
C242 C243 1.428 . S
C242 C255 1.394 . S
C243 H235 0.949 . S
C243 C242 1.428 . S
C243 C244 1.345 . S
C244 H236 0.950 . S
C244 C243 1.345 . S
C244 C245 1.424 . S
C245 H237 0.951 . S
C245 C244 1.424 . S
C245 C246 1.347 . S
C246 H238 0.951 . S
C246 C241 1.429 . S
C246 C245 1.347 . S
H247 C248 0.951 . S
C248 H247 0.951 . S
C248 C254 1.265 . S
H249 C254 0.950 . S
H250 C258 0.949 . S
H251 C259 0.950 . S
H252 C260 0.951 . S
H253 C261 0.951 . S
C254 C248 1.265 . S
C254 H249 0.950 . S
C254 C255 1.478 . S
C255 C242 1.394 . S
C255 C254 1.478 . S
C255 C256 1.397 . S
C256 C255 1.397 . S
C256 C257 1.438 . S
C256 C261 1.429 . S
C257 C240 1.394 . S
C257 C256 1.438 . S
C257 C258 1.428 . S
C258 H250 0.949 . S
C258 C257 1.428 . S
C258 C259 1.345 . S
C259 H251 0.950 . S
C259 C258 1.345 . S
C259 C260 1.424 . S
C260 H252 0.951 . S
C260 C259 1.424 . S
C260 C261 1.347 . S
C261 H253 0.951 . S
C261 C256 1.429 . S
C261 C260 1.347 . S
H262 C263 0.951 . S
C263 H262 0.951 . S
C263 C269 1.265 . S
H264 C269 0.950 . S
H265 C273 0.949 . S
H266 C274 0.950 . S
H267 C275 0.951 . S
H268 C276 0.951 . S
C269 C263 1.265 . S
C269 H264 0.950 . S
C269 C270 1.478 . S
C270 C269 1.478 . S
C270 C271 1.397 . S
C270 C287 1.394 . S
C271 C270 1.397 . S
C271 C272 1.438 . S
C271 C276 1.429 . S
C272 C271 1.438 . S
C272 C273 1.428 . S
C272 C285 1.394 . S
C273 H265 0.949 . S
C273 C272 1.428 . S
C273 C274 1.345 . S
C274 H266 0.950 . S
C274 C273 1.345 . S
C274 C275 1.424 . S
C275 H267 0.951 . S
C275 C274 1.424 . S
C275 C276 1.347 . S
C276 H268 0.951 . S
C276 C271 1.429 . S
C276 C275 1.347 . S
H277 C278 0.951 . S
C278 H277 0.951 . S
C278 C284 1.265 . S
H279 C284 0.950 . S
H280 C288 0.949 . S
H281 C289 0.950 . S
H282 C290 0.951 . S
H283 C291 0.951 . S
C284 C278 1.265 . S
C284 H279 0.950 . S
C284 C285 1.478 . S
C285 C272 1.394 . S
C285 C284 1.478 . S
C285 C286 1.397 . S
C286 C285 1.397 . S
C286 C287 1.438 . S
C286 C291 1.429 . S
C287 C270 1.394 . S
C287 C286 1.438 . S
C287 C288 1.428 . S
C288 H280 0.949 . S
C288 C287 1.428 . S
C288 C289 1.345 . S
C289 H281 0.950 . S
C289 C288 1.345 . S
C289 C290 1.424 . S
C290 H282 0.951 . S
C290 C289 1.424 . S
C290 C291 1.347 . S
C291 H283 0.951 . S
C291 C286 1.429 . S
C291 C290 1.347 . S
H292 C293 0.951 . S
C293 H292 0.951 . S
C293 C299 1.265 . S
H294 C299 0.950 . S
H295 C303 0.949 . S
H296 C304 0.950 . S
H297 C305 0.951 . S
H298 C306 0.951 . S
C299 C293 1.265 . S
C299 H294 0.950 . S
C299 C300 1.478 . S
C300 C299 1.478 . S
C300 C301 1.397 . S
C300 C317 1.394 . S
C301 C300 1.397 . S
C301 C302 1.438 . S
C301 C306 1.429 . S
C302 C301 1.438 . S
C302 C303 1.428 . S
C302 C315 1.394 . S
C303 H295 0.949 . S
C303 C302 1.428 . S
C303 C304 1.345 . S
C304 H296 0.950 . S
C304 C303 1.345 . S
C304 C305 1.424 . S
C305 H297 0.951 . S
C305 C304 1.424 . S
C305 C306 1.347 . S
C306 H298 0.951 . S
C306 C301 1.429 . S
C306 C305 1.347 . S
H307 C308 0.951 . S
C308 H307 0.951 . S
C308 C314 1.265 . S
H309 C314 0.950 . S
H310 C318 0.949 . S
H311 C319 0.950 . S
H312 C320 0.951 . S
H313 C321 0.951 . S
C314 C308 1.265 . S
C314 H309 0.950 . S
C314 C315 1.478 . S
C315 C302 1.394 . S
C315 C314 1.478 . S
C315 C316 1.397 . S
C316 C315 1.397 . S
C316 C317 1.438 . S
C316 C321 1.429 . S
C317 C300 1.394 . S
C317 C316 1.438 . S
C317 C318 1.428 . S
C318 H310 0.949 . S
C318 C317 1.428 . S
C318 C319 1.345 . S
C319 H311 0.950 . S
C319 C318 1.345 . S
C319 C320 1.424 . S
C320 H312 0.951 . S
C320 C319 1.424 . S
C320 C321 1.347 . S
C321 H313 0.951 . S
C321 C316 1.429 . S
C321 C320 1.347 . S
H322 C323 0.951 . S
C323 H322 0.951 . S
C323 C329 1.265 . S
H324 C329 0.950 . S
H325 C333 0.949 . S
H326 C334 0.950 . S
H327 C335 0.951 . S
H328 C336 0.951 . S
C329 C323 1.265 . S
C329 H324 0.950 . S
C329 C330 1.478 . S
C330 C329 1.478 . S
C330 C331 1.397 . S
C330 C347 1.394 . S
C331 C330 1.397 . S
C331 C332 1.438 . S
C331 C336 1.429 . S
C332 C331 1.438 . S
C332 C333 1.428 . S
C332 C345 1.394 . S
C333 H325 0.949 . S
C333 C332 1.428 . S
C333 C334 1.345 . S
C334 H326 0.950 . S
C334 C333 1.345 . S
C334 C335 1.424 . S
C335 H327 0.951 . S
C335 C334 1.424 . S
C335 C336 1.347 . S
C336 H328 0.951 . S
C336 C331 1.429 . S
C336 C335 1.347 . S
H337 C338 0.951 . S
C338 H337 0.951 . S
C338 C344 1.265 . S
H339 C344 0.950 . S
H340 C348 0.949 . S
H341 C349 0.950 . S
H342 C350 0.951 . S
H343 C351 0.951 . S
C344 C338 1.265 . S
C344 H339 0.950 . S
C344 C345 1.478 . S
C345 C332 1.394 . S
C345 C344 1.478 . S
C345 C346 1.397 . S
C346 C345 1.397 . S
C346 C347 1.438 . S
C346 C351 1.429 . S
C347 C330 1.394 . S
C347 C346 1.438 . S
C347 C348 1.428 . S
C348 H340 0.949 . S
C348 C347 1.428 . S
C348 C349 1.345 . S
C349 H341 0.950 . S
C349 C348 1.345 . S
C349 C350 1.424 . S
C350 H342 0.951 . S
C350 C349 1.424 . S
C350 C351 1.347 . S
C351 H343 0.951 . S
C351 C346 1.429 . S
C351 C350 1.347 . S
H352 C353 0.951 . S
C353 H352 0.951 . S
C353 C359 1.265 . S
H354 C359 0.950 . S
H355 C363 0.949 . S
H356 C364 0.950 . S
H357 C365 0.951 1_455 S
H358 C366 0.951 . S
C359 C353 1.265 . S
C359 H354 0.950 . S
C359 C360 1.478 . S
C360 C359 1.478 . S
C360 C361 1.397 . S
C360 C377 1.394 . S
C361 C360 1.397 . S
C361 C362 1.438 1_455 S
C361 C366 1.429 . S
C362 C361 1.438 1_655 S
C362 C363 1.428 . S
C362 C375 1.394 . S
C363 H355 0.949 . S
C363 C362 1.428 . S
C363 C364 1.345 . S
C364 H356 0.950 . S
C364 C363 1.345 . S
C364 C365 1.424 . S
C365 H357 0.951 1_655 S
C365 C364 1.424 . S
C365 C366 1.347 1_655 S
C366 H358 0.951 . S
C366 C361 1.429 . S
C366 C365 1.347 1_455 S
H367 C368 0.951 . S
C368 H367 0.951 . S
C368 C374 1.265 . S
H369 C374 0.950 . S
H370 C378 0.949 . S
H371 C379 0.950 . S
H372 C380 0.951 1_655 S
H373 C381 0.951 . S
C374 C368 1.265 . S
C374 H369 0.950 . S
C374 C375 1.478 . S
C375 C362 1.394 . S
C375 C374 1.478 . S
C375 C376 1.397 . S
C376 C375 1.397 . S
C376 C377 1.438 1_655 S
C376 C381 1.429 . S
C377 C360 1.394 . S
C377 C376 1.438 1_455 S
C377 C378 1.428 . S
C378 H370 0.949 . S
C378 C377 1.428 . S
C378 C379 1.345 . S
C379 H371 0.950 . S
C379 C378 1.345 . S
C379 C380 1.424 . S
C380 H372 0.951 1_455 S
C380 C379 1.424 . S
C380 C381 1.347 1_455 S
C381 H373 0.951 . S
C381 C376 1.429 . S
C381 C380 1.347 1_655 S
H382 C383 0.951 . S
C383 H382 0.951 . S
C383 C389 1.265 . S
H384 C389 0.950 . S
H385 C393 0.949 . S
H386 C394 0.950 . S
H387 C395 0.951 . S
H388 C396 0.951 . S
C389 C383 1.265 . S
C389 H384 0.950 . S
C389 C390 1.478 . S
C390 C389 1.478 . S
C390 C391 1.397 . S
C390 C407 1.394 . S
C391 C390 1.397 . S
C391 C392 1.438 . S
C391 C396 1.429 . S
C392 C391 1.438 . S
C392 C393 1.428 . S
C392 C405 1.394 . S
C393 H385 0.949 . S
C393 C392 1.428 . S
C393 C394 1.345 . S
C394 H386 0.950 . S
C394 C393 1.345 . S
C394 C395 1.424 . S
C395 H387 0.951 . S
C395 C394 1.424 . S
C395 C396 1.347 . S
C396 H388 0.951 . S
C396 C391 1.429 . S
C396 C395 1.347 . S
H397 C398 0.951 . S
C398 H397 0.951 . S
C398 C404 1.265 . S
H399 C404 0.950 . S
H400 C408 0.949 . S
H401 C409 0.950 . S
H402 C410 0.951 . S
H403 C411 0.951 . S
C404 C398 1.265 . S
C404 H399 0.950 . S
C404 C405 1.478 . S
C405 C392 1.394 . S
C405 C404 1.478 . S
C405 C406 1.397 . S
C406 C405 1.397 . S
C406 C407 1.438 . S
C406 C411 1.429 . S
C407 C390 1.394 . S
C407 C406 1.438 . S
C407 C408 1.428 . S
C408 H400 0.949 . S
C408 C407 1.428 . S
C408 C409 1.345 . S
C409 H401 0.950 . S
C409 C408 1.345 . S
C409 C410 1.424 . S
C410 H402 0.951 . S
C410 C409 1.424 . S
C410 C411 1.347 . S
C411 H403 0.951 . S
C411 C406 1.429 . S
C411 C410 1.347 . S
H412 C413 0.951 . S
C413 H412 0.951 . S
C413 C419 1.265 . S
H414 C419 0.950 . S
H415 C423 0.949 . S
H416 C424 0.950 . S
H417 C425 0.951 . S
H418 C426 0.951 . S
C419 C413 1.265 . S
C419 H414 0.950 . S
C419 C420 1.478 . S
C420 C419 1.478 . S
C420 C421 1.397 . S
C420 C437 1.394 . S
C421 C420 1.397 . S
C421 C422 1.438 1_455 S
C421 C426 1.429 . S
C422 C421 1.438 1_655 S
C422 C423 1.428 . S
C422 C435 1.394 . S
C423 H415 0.949 . S
C423 C422 1.428 . S
C423 C424 1.345 . S
C424 H416 0.950 . S
C424 C423 1.345 . S
C424 C425 1.424 . S
C425 H417 0.951 . S
C425 C424 1.424 . S
C425 C426 1.347 1_655 S
C426 H418 0.951 . S
C426 C421 1.429 . S
C426 C425 1.347 1_455 S
H427 C428 0.951 . S
C428 H427 0.951 . S
C428 C434 1.265 . S
H429 C434 0.950 . S
H430 C438 0.949 . S
H431 C439 0.950 . S
H432 C440 0.951 . S
H433 C441 0.951 . S
C434 C428 1.265 . S
C434 H429 0.950 . S
C434 C435 1.478 . S
C435 C422 1.394 . S
C435 C434 1.478 . S
C435 C436 1.397 . S
C436 C435 1.397 . S
C436 C437 1.438 1_655 S
C436 C441 1.429 . S
C437 C420 1.394 . S
C437 C436 1.438 1_455 S
C437 C438 1.428 . S
C438 H430 0.949 . S
C438 C437 1.428 . S
C438 C439 1.345 . S
C439 H431 0.950 . S
C439 C438 1.345 . S
C439 C440 1.424 . S
C440 H432 0.951 . S
C440 C439 1.424 . S
C440 C441 1.347 1_455 S
C441 H433 0.951 . S
C441 C436 1.429 . S
C441 C440 1.347 1_655 S
H442 C443 0.951 . S
C443 H442 0.951 . S
C443 C449 1.265 . S
H444 C449 0.950 . S
H445 C453 0.949 . S
H446 C454 0.950 . S
H447 C455 0.951 . S
H448 C456 0.951 . S
C449 C443 1.265 . S
C449 H444 0.950 . S
C449 C450 1.478 . S
C450 C449 1.478 . S
C450 C451 1.397 . S
C450 C467 1.394 . S
C451 C450 1.397 . S
C451 C452 1.438 . S
C451 C456 1.429 . S
C452 C451 1.438 . S
C452 C453 1.428 . S
C452 C465 1.394 . S
C453 H445 0.949 . S
C453 C452 1.428 . S
C453 C454 1.345 . S
C454 H446 0.950 . S
C454 C453 1.345 . S
C454 C455 1.424 . S
C455 H447 0.951 . S
C455 C454 1.424 . S
C455 C456 1.347 . S
C456 H448 0.951 . S
C456 C451 1.429 . S
C456 C455 1.347 . S
H457 C458 0.951 . S
C458 H457 0.951 . S
C458 C464 1.265 . S
H459 C464 0.950 . S
H460 C468 0.949 . S
H461 C469 0.950 . S
H462 C470 0.951 . S
H463 C471 0.951 . S
C464 C458 1.265 . S
C464 H459 0.950 . S
C464 C465 1.478 . S
C465 C452 1.394 . S
C465 C464 1.478 . S
C465 C466 1.397 . S
C466 C465 1.397 . S
C466 C467 1.438 . S
C466 C471 1.429 . S
C467 C450 1.394 . S
C467 C466 1.438 . S
C467 C468 1.428 . S
C468 H460 0.949 . S
C468 C467 1.428 . S
C468 C469 1.345 . S
C469 H461 0.950 . S
C469 C468 1.345 . S
C469 C470 1.424 . S
C470 H462 0.951 . S
C470 C469 1.424 . S
C470 C471 1.347 . S
C471 H463 0.951 . S
C471 C466 1.429 . S
C471 C470 1.347 . S
H472 C473 0.951 . S
C473 H472 0.951 . S
C473 C479 1.263 1_554 S
H474 C479 0.952 . S
H475 C483 0.949 . S
H476 C484 0.950 . S
H477 C485 0.957 . S
H478 C486 0.951 . S
C479 C473 1.263 1_556 S
C479 H474 0.952 . S
C479 C480 1.478 1_556 S
C480 C479 1.478 1_554 S
C480 C481 1.392 1_554 S
C480 C497 1.399 . S
C481 C480 1.392 1_556 S
C481 C482 1.438 1_445 S
C481 C486 1.429 . S
C482 C481 1.438 1_665 S
C482 C483 1.428 . S
C482 C495 1.399 . S
C483 H475 0.949 . S
C483 C482 1.428 . S
C483 C484 1.345 . S
C484 H476 0.950 . S
C484 C483 1.345 . S
C484 C485 1.407 1_665 S
C485 H477 0.957 . S
C485 C484 1.407 1_445 S
C485 C486 1.359 . S
C486 H478 0.951 . S
C486 C481 1.429 . S
C486 C485 1.359 . S
H487 C488 0.951 . S
C488 H487 0.951 . S
C488 C494 1.263 1_556 S
H489 C494 0.952 . S
H490 C498 0.949 . S
H491 C499 0.950 . S
H492 C500 0.957 . S
H493 C501 0.951 . S
C494 C488 1.263 1_554 S
C494 H489 0.952 . S
C494 C495 1.478 1_554 S
C495 C482 1.399 . S
C495 C494 1.478 1_556 S
C495 C496 1.392 1_556 S
C496 C495 1.392 1_554 S
C496 C497 1.438 1_665 S
C496 C501 1.429 . S
C497 C480 1.399 . S
C497 C496 1.438 1_445 S
C497 C498 1.428 . S
C498 H490 0.949 . S
C498 C497 1.428 . S
C498 C499 1.345 . S
C499 H491 0.950 . S
C499 C498 1.345 . S
C499 C500 1.407 1_445 S
C500 H492 0.957 . S
C500 C499 1.407 1_665 S
C500 C501 1.359 . S
C501 H493 0.951 . S
C501 C496 1.429 . S
C501 C500 1.359 . S
H502 C503 0.951 . S
C503 H502 0.951 . S
C503 C509 1.265 . S
H504 C509 0.950 . S
H505 C513 0.949 . S
H506 C514 0.950 . S
H507 C515 0.951 . S
H508 C516 0.951 . S
C509 C503 1.265 . S
C509 H504 0.950 . S
C509 C510 1.478 . S
C510 C509 1.478 . S
C510 C511 1.397 . S
C510 C527 1.394 . S
C511 C510 1.397 . S
C511 C512 1.438 . S
C511 C516 1.429 . S
C512 C511 1.438 . S
C512 C513 1.428 . S
C512 C525 1.394 . S
C513 H505 0.949 . S
C513 C512 1.428 . S
C513 C514 1.345 . S
C514 H506 0.950 . S
C514 C513 1.345 . S
C514 C515 1.424 . S
C515 H507 0.951 . S
C515 C514 1.424 . S
C515 C516 1.347 . S
C516 H508 0.951 . S
C516 C511 1.429 . S
C516 C515 1.347 . S
H517 C518 0.951 . S
C518 H517 0.951 . S
C518 C524 1.265 . S
H519 C524 0.950 . S
H520 C528 0.949 . S
H521 C529 0.950 . S
H522 C530 0.951 . S
H523 C531 0.951 . S
C524 C518 1.265 . S
C524 H519 0.950 . S
C524 C525 1.478 . S
C525 C512 1.394 . S
C525 C524 1.478 . S
C525 C526 1.397 . S
C526 C525 1.397 . S
C526 C527 1.438 . S
C526 C531 1.429 . S
C527 C510 1.394 . S
C527 C526 1.438 . S
C527 C528 1.428 . S
C528 H520 0.949 . S
C528 C527 1.428 . S
C528 C529 1.345 . S
C529 H521 0.950 . S
C529 C528 1.345 . S
C529 C530 1.424 . S
C530 H522 0.951 . S
C530 C529 1.424 . S
C530 C531 1.347 . S
C531 H523 0.951 . S
C531 C526 1.429 . S
C531 C530 1.347 . S
H532 C533 0.951 1_556 S
C533 H532 0.951 1_554 S
C533 C539 1.265 . S
H534 C539 0.950 . S
H535 C543 0.949 . S
H536 C544 0.950 . S
H537 C545 0.951 . S
H538 C546 0.951 . S
C539 C533 1.265 . S
C539 H534 0.950 . S
C539 C540 1.478 . S
C540 C539 1.478 . S
C540 C541 1.397 1_554 S
C540 C557 1.394 . S
C541 C540 1.397 1_556 S
C541 C542 1.438 . S
C541 C546 1.429 . S
C542 C541 1.438 . S
C542 C543 1.428 . S
C542 C555 1.394 . S
C543 H535 0.949 . S
C543 C542 1.428 . S
C543 C544 1.345 . S
C544 H536 0.950 . S
C544 C543 1.345 . S
C544 C545 1.424 . S
C545 H537 0.951 . S
C545 C544 1.424 . S
C545 C546 1.347 . S
C546 H538 0.951 . S
C546 C541 1.429 . S
C546 C545 1.347 . S
H547 C548 0.951 1_554 S
C548 H547 0.951 1_556 S
C548 C554 1.265 . S
H549 C554 0.950 . S
H550 C558 0.949 . S
H551 C559 0.950 . S
H552 C560 0.951 . S
H553 C561 0.951 . S
C554 C548 1.265 . S
C554 H549 0.950 . S
C554 C555 1.478 . S
C555 C542 1.394 . S
C555 C554 1.478 . S
C555 C556 1.397 1_556 S
C556 C555 1.397 1_554 S
C556 C557 1.438 . S
C556 C561 1.429 . S
C557 C540 1.394 . S
C557 C556 1.438 . S
C557 C558 1.428 . S
C558 H550 0.949 . S
C558 C557 1.428 . S
C558 C559 1.345 . S
C559 H551 0.950 . S
C559 C558 1.345 . S
C559 C560 1.424 . S
C560 H552 0.951 . S
C560 C559 1.424 . S
C560 C561 1.347 . S
C561 H553 0.951 . S
C561 C556 1.429 . S
C561 C560 1.347 . S
H562 C563 0.951 . S
C563 H562 0.951 . S
C563 C569 1.265 . S
H564 C569 0.950 . S
H565 C573 0.949 . S
H566 C574 0.950 . S
H567 C575 0.951 . S
H568 C576 0.947 1_455 S
C569 C563 1.265 . S
C569 H564 0.950 . S
C569 C570 1.478 . S
C570 C569 1.478 . S
C570 C571 1.394 . S
C570 C587 1.394 . S
C571 C570 1.394 . S
C571 C572 1.440 1_465 S
C571 C576 1.429 1_455 S
C572 C571 1.440 1_645 S
C572 C573 1.428 . S
C572 C585 1.394 . S
C573 H565 0.949 . S
C573 C572 1.428 . S
C573 C574 1.345 . S
C574 H566 0.950 . S
C574 C573 1.345 . S
C574 C575 1.424 1_545 S
C575 H567 0.951 . S
C575 C574 1.424 1_565 S
C575 C576 1.350 . S
C576 H568 0.947 1_655 S
C576 C571 1.429 1_655 S
C576 C575 1.350 . S
H577 C578 0.951 . S
C578 H577 0.951 . S
C578 C584 1.265 . S
H579 C584 0.950 . S
H580 C588 0.949 . S
H581 C589 0.950 . S
H582 C590 0.951 . S
H583 C591 0.947 1_655 S
C584 C578 1.265 . S
C584 H579 0.950 . S
C584 C585 1.478 . S
C585 C572 1.394 . S
C585 C584 1.478 . S
C585 C586 1.394 . S
C586 C585 1.394 . S
C586 C587 1.440 1_645 S
C586 C591 1.429 1_655 S
C587 C570 1.394 . S
C587 C586 1.440 1_465 S
C587 C588 1.428 . S
C588 H580 0.949 . S
C588 C587 1.428 . S
C588 C589 1.345 . S
C589 H581 0.950 . S
C589 C588 1.345 . S
C589 C590 1.424 1_565 S
C590 H582 0.951 . S
C590 C589 1.424 1_545 S
C590 C591 1.350 . S
C591 H583 0.947 1_455 S
C591 C586 1.429 1_455 S
C591 C590 1.350 . S
C113 C14 2.012 . S
C128 C13 2.040 1_556 S
C143 C0 1.959 . S
C158 C27 2.011 . S
C173 C42 1.974 . S
C188 C41 2.013 1_554 S
C203 C28 2.008 . S
C218 C55 2.041 . S
C233 C68 2.011 1_554 S
C248 C71 1.965 . S
C263 C82 2.041 . S
C278 C57 2.003 . S
C293 C96 2.012 1_556 S
C308 C99 1.955 . S
C323 C85 1.997 . S
C338 C110 2.040 . S
C353 C12 0.656 . S
C368 C54 0.657 . S
C383 C26 0.656 . S
C398 C40 0.658 . S
C413 C111 0.656 . S
C428 C69 0.658 . S
C443 C97 0.544 . S
C458 C83 0.544 . S
C473 C1 1.781 . S
C488 C56 1.781 . S
C503 C70 1.833 . S
C518 C15 1.833 . S
C533 C84 1.853 . S
C548 C29 1.853 . S
C563 C98 1.795 . S
C578 C43 1.795 . S
