# Generated by pormake.
# Topology smm, (6)-cn, num edge types: 1
# Building blocks:
#     Node 0, Type 0, BuildingBlock: BETFEN_clean_sbu_0, # of connection points: 6
#     Node 1, Type 0, BuildingBlock: BETFEN_clean_sbu_0, # of connection points: 6
#     Node 2, Type 0, BuildingBlock: BETFEN_clean_sbu_0, # of connection points: 6
#     Node 3, Type 0, BuildingBlock: BETFEN_clean_sbu_0, # of connection points: 6
#     Node 4, Type 0, BuildingBlock: BETFEN_clean_sbu_0, # of connection points: 6
#     Node 5, Type 0, BuildingBlock: BETFEN_clean_sbu_0, # of connection points: 6
#     Node 6, Type 0, BuildingBlock: BETFEN_clean_sbu_0, # of connection points: 6
#     Node 7, Type 0, BuildingBlock: BETFEN_clean_sbu_0, # of connection points: 6
#     Node 8, Type 0, BuildingBlock: BETFEN_clean_sbu_0, # of connection points: 6
#     Edge 9, Type (0, 0), BuildingBlock: KIFKEQ_clean_linker_1, # of connection points: 2
#     Edge 10, Type (0, 0), BuildingBlock: KIFKEQ_clean_linker_1, # of connection points: 2
#     Edge 11, Type (0, 0), BuildingBlock: KIFKEQ_clean_linker_1, # of connection points: 2
#     Edge 12, Type (0, 0), BuildingBlock: KIFKEQ_clean_linker_1, # of connection points: 2
#     Edge 13, Type (0, 0), BuildingBlock: KIFKEQ_clean_linker_1, # of connection points: 2
#     Edge 14, Type (0, 0), BuildingBlock: KIFKEQ_clean_linker_1, # of connection points: 2
#     Edge 15, Type (0, 0), BuildingBlock: KIFKEQ_clean_linker_1, # of connection points: 2
#     Edge 16, Type (0, 0), BuildingBlock: KIFKEQ_clean_linker_1, # of connection points: 2
#     Edge 17, Type (0, 0), BuildingBlock: KIFKEQ_clean_linker_1, # of connection points: 2
#     Edge 18, Type (0, 0), BuildingBlock: KIFKEQ_clean_linker_1, # of connection points: 2
#     Edge 19, Type (0, 0), BuildingBlock: KIFKEQ_clean_linker_1, # of connection points: 2
#     Edge 20, Type (0, 0), BuildingBlock: KIFKEQ_clean_linker_1, # of connection points: 2
#     Edge 21, Type (0, 0), BuildingBlock: KIFKEQ_clean_linker_1, # of connection points: 2
#     Edge 22, Type (0, 0), BuildingBlock: KIFKEQ_clean_linker_1, # of connection points: 2
#     Edge 23, Type (0, 0), BuildingBlock: KIFKEQ_clean_linker_1, # of connection points: 2
#     Edge 24, Type (0, 0), BuildingBlock: KIFKEQ_clean_linker_1, # of connection points: 2
#     Edge 25, Type (0, 0), BuildingBlock: KIFKEQ_clean_linker_1, # of connection points: 2
#     Edge 26, Type (0, 0), BuildingBlock: KIFKEQ_clean_linker_1, # of connection points: 2
#     Edge 27, Type (0, 0), BuildingBlock: KIFKEQ_clean_linker_1, # of connection points: 2
#     Edge 28, Type (0, 0), BuildingBlock: KIFKEQ_clean_linker_1, # of connection points: 2
#     Edge 29, Type (0, 0), BuildingBlock: KIFKEQ_clean_linker_1, # of connection points: 2
#     Edge 30, Type (0, 0), BuildingBlock: KIFKEQ_clean_linker_1, # of connection points: 2
#     Edge 31, Type (0, 0), BuildingBlock: KIFKEQ_clean_linker_1, # of connection points: 2
#     Edge 32, Type (0, 0), BuildingBlock: KIFKEQ_clean_linker_1, # of connection points: 2
#     Edge 33, Type (0, 0), BuildingBlock: KIFKEQ_clean_linker_1, # of connection points: 2
#     Edge 34, Type (0, 0), BuildingBlock: KIFKEQ_clean_linker_1, # of connection points: 2
#     Edge 35, Type (0, 0), BuildingBlock: KIFKEQ_clean_linker_1, # of connection points: 2
# Relax obj value: 0.109
# Max RMSD: 0.189
# Mean RMSD: 0.158
data_MOF--net-smm--node1-BETFEN_clean_sbu_0--edge1-KIFKEQ_clean_linker_1
_symmetry_space_group_name_H-M    P1
_symmetry_Int_Tables_number       1
_symmetry_cell_setting            triclinic
loop_
_symmetry_equiv_pos_as_xyz
'x, y, z'
_cell_length_a     60.904889
_cell_length_b     79.162766
_cell_length_c     14.733807
_cell_angle_alpha  92.657946
_cell_angle_beta   94.059869
_cell_angle_gamma 122.72269
loop_
_atom_site_label
_atom_site_type_symbol
_atom_site_fract_x
_atom_site_fract_y
_atom_site_fract_z
_atom_type_partial_charge
Pr0 Pr 0.11355 0.23923 0.04872 0.0
Pr1 Pr 1.06096 0.20054 0.06642 0.0
C2 C 0.15381 0.27319 -0.00669 0.0
C3 C 0.16781 0.29533 -0.0086 0.0
C4 C 0.19083 0.30818 0.05111 0.0
C5 C 0.20654 0.32876 0.04074 0.0
C6 C 0.19971 0.33696 0.96992 0.0
C7 C 0.17612 0.32426 0.91249 0.0
C8 C 0.16037 0.30366 0.92294 0.0
C9 C 0.10469 0.2309 0.2289 0.0
C10 C 1.06008 0.24154 0.06636 0.0
C11 C 1.02275 0.16371 0.10582 0.0
C12 C 1.01951 0.14371 0.10214 0.0
C13 C 0.9975 0.12698 0.05064 0.0
C14 C 0.99499 0.10829 0.04166 0.0
C15 C 1.01447 0.10589 0.08408 0.0
C16 C 1.03633 0.12263 0.13677 0.0
C17 C 1.03882 0.14129 0.14572 0.0
C18 C 1.0709 0.20971 0.88782 0.0
C19 C 0.11481 0.19889 0.05881 0.0
O20 O 0.13102 0.26163 0.94381 0.0
O21 O 0.15555 0.26616 0.07033 0.0
O22 O 0.08767 0.22864 0.16697 0.0
O23 O 0.1277 0.23899 0.20044 0.0
O24 O 1.04733 0.22289 0.09039 0.0
O25 O 0.08397 0.25001 0.04028 0.0
O26 O 1.04062 0.17775 0.16795 0.0
O27 O 1.02226 0.17056 0.02711 0.0
O28 O 0.08716 0.21087 0.9497 0.0
O29 O 1.04823 0.20327 0.91655 0.0
O30 O 0.12639 0.21657 0.02593 0.0
O31 O 0.09155 0.191 0.08861 0.0
H32 H 0.19732 0.30219 0.10365 0.0
H33 H 0.22474 0.33805 0.08544 0.0
H34 H 0.17013 0.33015 0.85797 0.0
H35 H 0.14286 0.29417 0.87529 0.0
H36 H 0.98241 0.12846 0.01597 0.0
H37 H 0.97805 0.09586 -0.0004 0.0
H38 H 1.05154 0.12132 0.17153 0.0
H39 H 1.05605 0.15387 0.186 0.0
Pr40 Pr 0.97787 0.8407 0.00205 0.0
Pr41 Pr 0.97264 0.87682 0.96603 0.0
C42 C 0.97371 0.80679 0.06005 0.0
C43 C 0.95985 0.78406 0.0533 0.0
C44 C 0.96938 0.77416 0.00336 0.0
C45 C 0.95865 0.7533 0.00564 0.0
C46 C 0.93805 0.74146 0.0586 0.0
C47 C 0.92823 0.75136 0.10725 0.0
C48 C 0.93895 0.77222 0.10488 0.0
C49 C 0.97927 0.84889 0.81968 0.0
C50 C 0.91864 0.83429 0.94811 0.0
C51 C 0.97262 0.9091 0.91388 0.0
C52 C 0.98209 0.93045 0.93927 0.0
C53 C 0.98452 0.93789 0.03032 0.0
C54 C 0.99064 0.95755 0.05112 0.0
C55 C 0.99446 0.97016 -0.0187 0.0
C56 C 0.99281 0.96278 0.89059 0.0
C57 C 0.98668 0.94315 0.86993 0.0
C58 C 0.97159 0.86813 0.14848 0.0
C59 C 1.03267 0.88693 0.00843 0.0
O60 O 0.96291 0.81553 0.09714 0.0
O61 O 0.98787 0.81672 -0.00428 0.0
O62 O 0.96426 0.8495 0.87244 0.0
O63 O 0.99255 0.84219 0.85809 0.0
O64 O 0.93151 0.85059 0.90576 0.0
O65 O 0.93167 0.82811 -0.00229 0.0
O66 O 0.9895 0.90487 0.8893 0.0
O67 O 0.95514 0.89566 0.96157 0.0
O68 O 0.98694 0.86822 0.09545 0.0
O69 O 0.957 0.87363 0.10957 0.0
O70 O 1.02257 0.86904 0.04169 0.0
O71 O 1.0174 0.89147 0.9633 0.0
H72 H 0.98575 0.78267 0.96414 0.0
H73 H 0.96722 0.74662 0.96797 0.0
H74 H 0.91217 0.743 0.14782 0.0
H75 H 0.93115 0.77915 0.14525 0.0
H76 H 0.98112 0.92838 0.08512 0.0
H77 H 0.99214 0.9628 0.12185 0.0
H78 H 0.9953 0.9719 0.83487 0.0
H79 H 0.98473 0.93767 0.79916 0.0
Pr80 Pr 0.27825 1.03855 -0.00119 0.0
Pr81 Pr 0.25619 0.06405 0.04611 0.0
C82 C 0.29956 1.02016 0.91881 0.0
C83 C 0.32226 1.01824 0.91612 0.0
C84 C 0.33931 1.02225 -0.00499 0.0
C85 C 0.35864 1.0178 -0.00745 0.0
C86 C 0.36119 1.00919 0.91125 0.0
C87 C 0.34465 1.00597 0.83171 0.0
C88 C 0.32542 1.01047 0.83425 0.0
C89 C 0.27516 1.04306 0.18596 0.0
C90 C 0.32028 0.08945 0.03614 0.0
C91 C 0.22999 0.08036 0.10665 0.0
C92 C 0.22332 0.09571 0.09804 0.0
C93 C 0.21534 0.09914 0.01276 0.0
C94 C 0.20561 0.11164 0.00767 0.0
C95 C 0.20358 0.12093 0.08774 0.0
C96 C 0.21258 0.11804 0.17266 0.0
C97 C 0.22228 0.10556 0.17765 0.0
C98 C 0.26073 0.05968 0.86045 0.0
C99 C 0.21672 1.0136 0.02541 0.0
O100 O 0.30133 1.03616 0.88947 0.0
O101 O 0.28612 1.01382 -0.01116 0.0
O102 O 0.28215 0.0568 0.1333 0.0
O103 O 0.27193 1.02692 0.1444 0.0
O104 O 0.30089 0.09079 0.06279 0.0
O105 O 0.31614 0.07179 0.0057 0.0
O106 O 0.22028 0.06567 0.04102 0.0
O107 O 0.25345 0.08601 0.14339 0.0
O108 O 0.25207 0.0457 0.91229 0.0
O109 O 0.2663 0.07648 0.90309 0.0
O110 O 0.23327 1.01371 0.97211 0.0
O111 O 0.22331 1.03049 0.07452 0.0
H112 H 0.33721 1.02829 0.05896 0.0
H113 H 0.37128 1.02078 0.05477 0.0
H114 H 0.34572 0.99913 0.76822 0.0
H115 H 0.31233 1.00715 0.77276 0.0
H116 H 0.21583 0.09168 0.95015 0.0
H117 H 0.19873 0.11336 0.94111 0.0
H118 H 0.21181 0.12522 0.23567 0.0
H119 H 0.22823 0.10311 0.24422 0.0
Pr120 Pr 0.80036 0.54671 0.10441 0.0
Pr121 Pr 0.84726 0.54352 0.08064 0.0
C122 C 0.76706 0.55618 0.16162 0.0
C123 C 0.76924 0.5738 0.20995 0.0
C124 C 0.75501 0.58148 0.17214 0.0
C125 C 0.7566 0.59807 0.21724 0.0
C126 C 0.7723 0.60715 0.30139 0.0
C127 C 0.78682 0.59961 0.3387 0.0
C128 C 0.78545 0.58315 0.29309 0.0
C129 C 0.80738 0.5416 0.92328 0.0
C130 C 0.85806 0.58933 0.09999 0.0
C131 C 0.88139 0.53368 0.03252 0.0
C132 C 0.88748 0.51812 0.04693 0.0
C133 C 0.88446 0.50945 0.13004 0.0
C134 C 0.89095 0.4951 0.14265 0.0
C135 C 0.90048 0.48898 0.07228 0.0
C136 C 0.90326 0.49765 -0.01102 0.0
C137 C 0.89686 0.51202 0.9766 0.0
C138 C 0.8392 0.54759 0.26153 0.0
C139 C 0.78589 0.50057 0.08131 0.0
O140 O 0.77494 0.54645 0.20903 0.0
O141 O 0.77372 0.55814 0.07845 0.0
O142 O 0.82559 0.55304 -0.01439 0.0
O143 O 0.78437 0.533 0.95227 0.0
O144 O 0.86558 0.57832 0.05809 0.0
O145 O 0.8364 0.58023 0.14072 0.0
O146 O 0.85952 0.52796 -0.01826 0.0
O147 O 0.8864 0.54645 0.10287 0.0
O148 O 0.82165 0.53637 0.19739 0.0
O149 O 0.86241 0.55692 0.23426 0.0
O150 O 0.77737 0.51205 0.10598 0.0
O151 O 0.81058 0.50873 0.06278 0.0
H152 H 0.74246 0.57452 0.10801 0.0
H153 H 0.74496 0.60344 0.18757 0.0
H154 H 0.79919 0.60644 0.4032 0.0
H155 H 0.79693 0.57769 0.32327 0.0
H156 H 0.87711 0.51379 0.18534 0.0
H157 H 0.88818 0.48862 0.20727 0.0
H158 H 0.91084 0.49359 0.93357 0.0
H159 H 0.89944 0.5185 0.91199 0.0
Pr160 Pr 0.57133 0.21429 0.13911 0.0
Pr161 Pr 0.56903 0.25111 0.10273 0.0
C162 C 0.56952 0.18176 0.19647 0.0
C163 C 0.55661 0.16261 0.23934 0.0
C164 C 0.54668 0.14435 0.18514 0.0
C165 C 0.53956 0.12672 0.22569 0.0
C166 C 0.54244 0.127 0.32141 0.0
C167 C 0.5508 0.145 0.37559 0.0
C168 C 0.55786 0.16263 0.33501 0.0
C169 C 0.57319 0.22251 0.95652 0.0
C170 C 0.51266 0.20783 0.10971 0.0
C171 C 0.57959 0.287 0.05024 0.0
C172 C 0.60257 0.30836 0.05498 0.0
C173 C 0.59958 0.32425 0.08086 0.0
C174 C 0.62074 0.34447 0.08507 0.0
C175 C 0.64568 0.34952 0.06343 0.0
C176 C 0.64863 0.33353 0.03725 0.0
C177 C 0.62741 0.31326 0.03332 0.0
C178 C 0.56845 0.2434 0.28538 0.0
C179 C 0.62752 0.25533 0.13232 0.0
O180 O 0.57947 0.19872 0.24827 0.0
O181 O 0.5608 0.1821 0.11326 0.0
O182 O 0.55818 0.22331 0.0088 0.0
O183 O 0.58722 0.21662 -0.00315 0.0
O184 O 0.5234 0.22498 0.07 0.0
O185 O 0.52772 0.20314 0.15598 0.0
O186 O 0.57963 0.27342 -0.00371 0.0
O187 O 0.57003 0.28021 0.12679 0.0
O188 O 0.58319 0.24268 0.23154 0.0
O189 O 0.55382 0.24891 0.24627 0.0
O190 O 0.61579 0.2379 0.16668 0.0
O191 O 0.61393 0.2624 0.09583 0.0
H192 H 0.54567 0.14389 0.11128 0.0
H193 H 0.53277 0.11303 0.18198 0.0
H194 H 0.55347 0.14582 0.44948 0.0
H195 H 0.56562 0.17648 0.37885 0.0
H196 H 0.58071 0.32101 0.09751 0.0
H197 H 0.61736 0.35619 0.10407 0.0
H198 H 0.66746 0.33665 0.02099 0.0
H199 H 0.6305 0.30142 0.01344 0.0
Pr200 Pr 0.99626 0.37548 0.17 0.0
Pr201 Pr 0.94097 0.34067 0.10291 0.0
C202 C 1.04487 0.40059 0.25603 0.0
C203 C 1.07174 0.41463 0.3024 0.0
C204 C 0.08918 0.43245 0.26442 0.0
C205 C 0.11533 0.44485 0.30252 0.0
C206 C 0.12472 0.4397 0.37934 0.0
C207 C 0.10702 0.42223 0.41947 0.0
C208 C 0.08076 0.40979 0.38123 0.0
C209 C 0.98451 0.36968 0.9807 0.0
C210 C 0.98505 0.32923 0.12284 0.0
C211 C 0.89167 0.31582 0.01862 0.0
C212 C 0.86551 0.31226 0.02507 0.0
C213 C 0.86234 0.32569 0.07931 0.0
C214 C 0.83715 0.32148 0.08864 0.0
C215 C 0.81473 0.3037 0.04428 0.0
C216 C 0.81818 0.29057 -0.01153 0.0
C217 C 0.84332 0.29481 0.97911 0.0
C218 C 0.9523 0.34669 0.29268 0.0
C219 C 0.95328 0.38754 0.14083 0.0
O220 O 1.02701 0.3846 0.29168 0.0
O221 O 1.03712 0.40359 0.17682 0.0
O222 O 0.97835 0.35579 0.03173 0.0
O223 O 0.99792 0.38739 0.02643 0.0
O224 O 0.96235 0.32382 0.07734 0.0
O225 O 0.99974 0.34705 0.17131 0.0
O226 O 0.90913 0.33278 -0.01166 0.0
O227 O 0.90135 0.31109 0.08757 0.0
O228 O 0.95888 0.36052 0.24102 0.0
O229 O 0.93804 0.32897 0.24748 0.0
O230 O 0.97559 0.39293 0.18919 0.0
O231 O 0.93839 0.36943 0.09493 0.0
H232 H 0.08278 0.43667 0.20405 0.0
H233 H 0.1283 0.45844 0.27116 0.0
H234 H 0.11366 0.41782 0.47849 0.0
H235 H 1.06774 0.39611 0.41187 0.0
H236 H 0.87931 0.33924 0.11563 0.0
H237 H 0.83521 0.33182 0.13277 0.0
H238 H 0.80139 0.27691 0.95226 0.0
H239 H 0.84541 0.2843 0.93682 0.0
Pr240 Pr 0.52173 0.94583 0.87862 0.0
Pr241 Pr 0.47075 0.90674 0.89912 0.0
C242 C 0.55765 0.98091 0.81788 0.0
C243 C 0.55519 0.99495 0.76296 0.0
C244 C 0.57611 1.01512 0.76637 0.0
C245 C 0.57347 1.02859 0.71584 0.0
C246 C 0.5498 1.02208 0.66128 0.0
C247 C 0.52888 1.0018 0.65819 0.0
C248 C 0.53156 0.98836 0.70854 0.0
C249 C 0.51396 0.93779 0.05964 0.0
C250 C 0.46696 0.9453 0.88894 0.0
C251 C 0.43131 0.8712 0.94407 0.0
C252 C 0.42296 0.85036 0.91852 0.0
C253 C 0.43879 0.84648 0.8687 0.0
C254 C 0.43046 0.82672 0.83973 0.0
C255 C 0.40605 0.81052 0.85954 0.0
C256 C 0.39039 0.81447 0.91074 0.0
C257 C 0.39881 0.83433 0.93995 0.0
C258 C 0.47941 0.9151 0.71818 0.0
C259 C 0.52613 0.9067 0.89654 0.0
O260 O 0.5493 0.96327 0.77518 0.0
O261 O 0.55044 0.97977 0.90006 0.0
O262 O 0.49656 0.93509 -0.00175 0.0
O263 O 0.53692 0.94609 0.0301 0.0
O264 O 0.45831 0.92905 0.93218 0.0
O265 O 0.48845 0.9525 0.84755 0.0
O266 O 0.45395 0.88226 -0.00526 0.0
O267 O 0.42845 0.88044 0.87741 0.0
O268 O 0.49616 0.91719 0.78039 0.0
O269 O 0.45661 0.90768 0.74729 0.0
O270 O 0.53875 0.92551 0.87519 0.0
O271 O 0.50138 0.8972 0.91404 0.0
H272 H 0.5944 1.02049 0.80853 0.0
H273 H 0.58984 1.04417 0.72061 0.0
H274 H 0.51053 0.99623 0.61605 0.0
H275 H 0.51515 0.97281 0.70493 0.0
H276 H 0.45747 0.85876 0.85134 0.0
H277 H 0.44314 0.82412 0.80176 0.0
H278 H 0.37141 0.80227 0.92633 0.0
H279 H 0.38635 0.83718 0.97796 0.0
Pr280 Pr 0.37547 0.56237 0.6858 0.0
Pr281 Pr 0.35863 0.59042 0.63797 0.0
C282 C 0.38864 0.53879 0.76626 0.0
C283 C 0.37252 0.51779 0.7905 0.0
C284 C 0.35813 0.50149 0.72217 0.0
C285 C 0.34066 0.48203 0.74533 0.0
C286 C 0.33708 0.47838 0.83727 0.0
C287 C 0.352 0.49457 0.90577 0.0
C288 C 0.3696 0.51406 0.8826 0.0
C289 C 0.37383 0.56713 0.49897 0.0
C290 C 0.31494 0.5417 0.60414 0.0
C291 C 0.33873 0.61136 0.57511 0.0
C292 C 0.34517 0.63187 0.59564 0.0
C293 C 0.3261 0.6363 0.57582 0.0
C294 C 0.3318 0.65565 0.59974 0.0
C295 C 0.3567 0.67078 0.64351 0.0
C296 C 0.37582 0.66627 0.66249 0.0
C297 C 0.37005 0.64692 0.63907 0.0
C298 C 0.3615 0.58546 0.82424 0.0
C299 C 0.42067 0.61249 0.70232 0.0
O300 O 0.38623 0.55209 0.81272 0.0
O301 O 0.38975 0.54129 0.67914 0.0
O302 O 0.38275 0.5812 0.56273 0.0
O303 O 0.36655 0.55001 0.5306 0.0
O304 O 0.32398 0.55904 0.56982 0.0
O305 O 0.32979 0.53958 0.66582 0.0
O306 O 0.35614 0.60977 0.5353 0.0
O307 O 0.3294 0.59963 0.64062 0.0
O308 O 0.35113 0.57141 0.75998 0.0
O309 O 0.37069 0.6029 0.79339 0.0
O310 O 0.41459 0.59479 0.72885 0.0
O311 O 0.40311 0.61452 0.65581 0.0
H312 H 0.35974 0.50379 0.65044 0.0
H313 H 0.32927 0.46995 0.69083 0.0
H314 H 0.34994 0.4922 0.9773 0.0
H315 H 0.38043 0.52633 0.93667 0.0
H316 H 0.30676 0.62475 0.54273 0.0
H317 H 0.31681 0.65881 0.58382 0.0
H318 H 0.39504 0.67758 0.6973 0.0
H319 H 0.38489 0.64363 0.65586 0.0
Pr320 Pr 0.66446 0.73416 0.81066 0.0
Pr321 Pr 0.66731 0.773 0.86476 0.0
C322 C 0.66922 0.70468 0.73756 0.0
C323 C 0.68897 0.70163 0.70218 0.0
C324 C 0.69332 0.68756 0.73931 0.0
C325 C 0.71012 0.68299 0.70167 0.0
C326 C 0.72271 0.69231 0.62562 0.0
C327 C 0.71912 0.70696 0.59053 0.0
C328 C 0.70246 0.71166 0.62871 0.0
C329 C 0.66126 0.7405 -0.00429 0.0
C330 C 0.72278 0.77544 0.86457 0.0
C331 C 0.66243 0.80291 0.93506 0.0
C332 C 0.64626 0.81169 0.92598 0.0
C333 C 0.63746 0.81435 0.84026 0.0
C334 C 0.62348 0.82379 0.83429 0.0
C335 C 0.61792 0.83073 0.91385 0.0
C336 C 0.62648 0.82773 -0.00063 0.0
C337 C 0.64047 0.81835 0.00523 0.0
C338 C 0.6688 0.76606 0.6785 0.0
C339 C 0.60844 0.72892 0.81355 0.0
O340 O 0.6615 0.71438 0.6892 0.0
O341 O 0.67161 0.7091 0.82579 0.0
O342 O 0.67693 0.75388 0.9484 0.0
O343 O 0.64712 0.72291 0.94879 0.0
O344 O 0.71117 0.78292 0.90895 0.0
O345 O 0.70874 0.75908 0.80658 0.0
O346 O 0.65207 0.78541 0.96793 0.0
O347 O 0.67705 0.805 0.87013 0.0
O348 O 0.65374 0.75306 0.72817 0.0
O349 O 0.6833 0.78376 0.72388 0.0
O350 O 0.62048 0.72118 0.77663 0.0
O351 O 0.62155 0.74723 0.85857 0.0
H352 H 0.68308 0.67963 0.7958 0.0
H353 H 0.71225 0.67145 0.72938 0.0
H354 H 0.72875 0.71446 0.53233 0.0
H355 H 0.69965 0.72272 0.59913 0.0
H356 H 0.64155 0.80929 0.77789 0.0
H357 H 0.61693 0.82556 0.76724 0.0
H358 H 0.62295 0.83307 0.06219 0.0
H359 H 0.64716 0.81658 0.07212 0.0
H360 H 0.21287 0.35161 0.8045 0.0
H361 H 0.22871 0.37045 0.09436 0.0
H362 H 0.24538 0.38597 0.77455 0.0
H363 H 0.262 0.40477 0.06452 0.0
H364 H 0.302 0.46817 0.96336 0.0
H365 H 0.26789 0.43439 -0.00361 0.0
H366 H 0.29299 0.40844 0.79694 0.0
H367 H 0.327 0.44215 0.76393 0.0
C368 C 0.22308 0.36313 0.86183 0.0
C369 C 0.21817 0.35827 0.95187 0.0
C370 C 0.242 0.38278 0.84472 0.0
C371 C 0.2565 0.39808 0.91719 0.0
C372 C 0.25111 0.39336 0.00712 0.0
C373 C 0.23219 0.37367 0.02428 0.0
C374 C 0.30043 0.45525 0.92741 0.0
C375 C 0.31719 0.45786 0.86086 0.0
C376 C 0.28085 0.4359 0.94621 0.0
C377 C 0.27758 0.41871 0.89883 0.0
C378 C 0.29461 0.42135 0.83333 0.0
C379 C 0.31416 0.44067 0.81455 0.0
H380 H 0.89174 0.85161 0.90582 0.0
H381 H 0.87983 0.7955 -0.01658 0.0
H382 H 0.84499 0.83724 0.89531 0.0
H383 H 0.83212 0.78086 0.97203 0.0
H384 H 0.74926 0.7583 0.81347 0.0
H385 H 0.79585 0.77152 0.84448 0.0
H386 H 0.80831 0.8249 -0.00766 0.0
H387 H 0.76132 0.81159 0.96163 0.0
C388 C 0.87913 0.8361 0.9206 0.0
C389 C 0.88967 0.82463 0.94451 0.0
C390 C 0.8522 0.82795 0.91548 0.0
C391 C 0.83474 0.80794 0.93312 0.0
C392 C 0.8451 0.79635 0.9577 0.0
C393 C 0.87238 0.80469 0.96437 0.0
C394 C 0.76183 0.77289 0.85273 0.0
C395 C 0.75146 0.78399 0.88423 0.0
C396 C 0.78857 0.78034 0.87136 0.0
C397 C 0.80585 0.79923 0.92109 0.0
C398 C 0.79552 0.81031 0.9534 0.0
C399 C 0.76861 0.80271 0.93576 0.0
H400 H 0.39134 1.01117 0.77618 0.0
H401 H 0.37253 0.99108 0.04404 0.0
H402 H 0.41761 0.99644 0.76906 0.0
H403 H 0.39974 0.97732 0.0388 0.0
H404 H 0.42022 0.93229 0.95466 0.0
H405 H 0.3966 0.94895 0.95976 0.0
H406 H 0.45722 0.9985 0.83057 0.0
H407 H 0.48077 0.98143 0.82331 0.0
C408 C 0.39297 1.00378 0.8339 0.0
C409 C 0.37961 1.00223 0.91045 0.0
C410 C 0.40828 0.99552 0.83019 0.0
C411 C 0.41062 0.98549 0.90293 0.0
C412 C 0.39802 0.98459 0.98073 0.0
C413 C 0.38269 0.99279 -0.01566 0.0
C414 C 0.42862 0.94674 0.92721 0.0
C415 C 0.45252 0.95555 0.88904 0.0
C416 C 0.41511 0.9564 0.9308 0.0
C417 C 0.42513 0.97524 0.89679 0.0
C418 C 0.44886 0.98396 0.8571 0.0
C419 C 0.46241 0.97422 0.85322 0.0
H420 H 0.47079 0.20882 0.02335 0.0
H421 H 0.48777 0.17079 0.17317 0.0
H422 H 0.42375 0.18134 0.00276 0.0
H423 H 0.44186 0.14398 0.15201 0.0
H424 H 0.3655 0.09145 0.00601 0.0
H425 H 0.41033 0.1208 0.02035 0.0
H426 H 0.38325 0.15936 0.09369 0.0
H427 H 0.33786 0.12969 0.0795 0.0
C428 C 0.46466 0.1948 0.05232 0.0
C429 C 0.48347 0.19225 0.09972 0.0
C430 C 0.43765 0.17903 0.04064 0.0
C431 C 0.4289 0.16022 0.07469 0.0
C432 C 0.44771 0.15799 0.12331 0.0
C433 C 0.47429 0.17362 0.13589 0.0
C434 C 0.36886 0.10612 0.02497 0.0
C435 C 0.34776 0.10797 0.04225 0.0
C436 C 0.39476 0.12305 0.03345 0.0
C437 C 0.40066 0.14258 0.05887 0.0
C438 C 0.37954 0.14463 0.0736 0.0
C439 C 0.35348 0.12755 0.06601 0.0
H440 H 0.95965 0.2902 0.04119 0.0
H441 H 1.03348 0.33754 0.18908 0.0
H442 H 0.97697 0.26869 0.02703 0.0
H443 H 1.05063 0.31609 0.17522 0.0
H444 H 0.08301 0.28165 0.04358 0.0
H445 H 1.06435 0.30206 0.05723 0.0
H446 H 0.9914 0.24997 0.11762 0.0
H447 H 1.01008 0.22939 0.10357 0.0
C448 C 0.97952 0.29603 0.07098 0.0
C449 C 0.99512 0.3157 0.11611 0.0
C450 C 0.98942 0.28363 0.06323 0.0
C451 C 1.0153 0.29063 0.09953 0.0
C452 C 1.03077 0.31024 0.14521 0.0
C453 C 1.02082 0.32254 0.15366 0.0
C454 C 1.06295 0.27444 0.05956 0.0
C455 C 1.04813 0.25378 0.07256 0.0
C456 C 1.05228 0.28624 0.068 0.0
C457 C 1.02635 0.27776 0.08904 0.0
C458 C 1.01135 0.25702 0.10071 0.0
C459 C 1.02213 0.24522 0.09306 0.0
H460 H 0.91978 0.71917 0.2066 0.0
H461 H 0.93217 0.71263 0.92582 0.0
H462 H 0.90273 0.6837 0.21784 0.0
H463 H 0.91498 0.67698 0.93704 0.0
H464 H 0.90021 0.61522 0.00541 0.0
H465 H 0.92032 0.65154 -0.00403 0.0
H466 H 0.86685 0.65084 0.17545 0.0
H467 H 0.84752 0.61516 0.18645 0.0
C468 C 0.91864 0.71021 0.14652 0.0
C469 C 0.92738 0.71919 0.06498 0.0
C470 C 0.90877 0.68962 0.15304 0.0
C471 C 0.90712 0.67698 0.07829 0.0
C472 C 0.91611 0.68598 -0.00308 0.0
C473 C 0.92603 0.70663 -0.00959 0.0
C474 C 0.89298 0.62288 0.04371 0.0
C475 C 0.87221 0.61196 0.09716 0.0
C476 C 0.90437 0.6438 0.03763 0.0
C477 C 0.89547 0.65457 0.08503 0.0
C478 C 0.87486 0.64355 0.13897 0.0
C479 C 0.86354 0.62279 0.1449 0.0
H480 H 0.28373 0.53984 0.45812 0.0
H481 H 0.28444 0.50556 0.67701 0.0
H482 H 0.23842 0.51358 0.40728 0.0
H483 H 0.23852 0.47884 0.62464 0.0
H484 H 0.14705 0.45158 0.55841 0.0
H485 H 0.19375 0.47432 0.61435 0.0
H486 H 0.2129 0.47862 0.33621 0.0
H487 H 0.16656 0.45601 0.28059 0.0
C488 C 0.27427 0.52661 0.49522 0.0
C489 C 0.28774 0.52483 0.57182 0.0
C490 C 0.24827 0.51146 0.46553 0.0
C491 C 0.23491 0.49407 0.51158 0.0
C492 C 0.24831 0.49213 0.58807 0.0
C493 C 0.2746 0.50734 0.61763 0.0
C494 C 0.1613 0.45718 0.50943 0.0
C495 C 0.15306 0.45228 0.41496 0.0
C496 C 0.18802 0.47015 0.54148 0.0
C497 C 0.20696 0.47843 0.4796 0.0
C498 C 0.19874 0.4728 0.38552 0.0
C499 C 0.17217 0.4599 0.35364 0.0
H500 H 0.71855 0.68275 0.44299 0.0
H501 H 0.75907 0.68527 0.70089 0.0
H502 H 0.7364 0.6657 0.36649 0.0
H503 H 0.77765 0.66858 0.62393 0.0
H504 H 0.76593 0.61033 0.48081 0.0
H505 H 0.75991 0.63492 0.5602 0.0
H506 H 0.77283 0.66603 0.31646 0.0
H507 H 0.77806 0.64091 0.23637 0.0
C508 C 0.73195 0.6802 0.48284 0.0
C509 C 0.73727 0.68518 0.57795 0.0
C510 C 0.74227 0.67044 0.43895 0.0
C511 C 0.75831 0.66558 0.48914 0.0
C512 C 0.76494 0.67173 0.58354 0.0
C513 C 0.7544 0.68133 0.62759 0.0
C514 C 0.76799 0.62265 0.44487 0.0
C515 C 0.7722 0.62364 0.35232 0.0
C516 C 0.76466 0.63683 0.49043 0.0
C517 C 0.76571 0.65241 0.44458 0.0
C518 C 0.77138 0.654 0.35328 0.0
C519 C 0.77443 0.63967 0.30744 0.0
H520 H 0.55867 0.10266 0.26301 0.0
H521 H 0.52025 0.11166 0.47814 0.0
H522 H 0.5581 0.07596 0.34012 0.0
H523 H 0.52063 0.08537 0.55735 0.0
H524 H 0.50739 1.02557 0.63856 0.0
H525 H 0.50287 0.04912 0.55041 0.0
H526 H 0.5816 0.07488 0.47753 0.0
H527 H 0.58576 0.05093 0.56271 0.0
C528 C 0.54972 0.09875 0.32609 0.0
C529 C 0.53951 0.10934 0.36439 0.0
C530 C 0.54975 0.08361 0.37098 0.0
C531 C 0.53962 0.07869 0.45544 0.0
C532 C 0.52849 0.08873 0.49219 0.0
C533 C 0.52848 0.10392 0.44722 0.0
C534 C 0.52362 1.03612 0.60282 0.0
C535 C 0.54696 1.03639 0.60772 0.0
C536 C 0.52111 0.04973 0.55307 0.0
C537 C 0.54185 0.06385 0.5068 0.0
C538 C 0.56511 0.06403 0.51136 0.0
C539 C 0.56764 0.05047 0.56119 0.0
H540 H 0.20832 0.14728 0.963 0.0
H541 H 0.17015 0.12137 0.20172 0.0
H542 H 0.18666 0.16571 0.95366 0.0
H543 H 0.14946 0.1404 0.19477 0.0
H544 H 0.09457 0.16021 0.10213 0.0
H545 H 0.11588 0.14161 0.10701 0.0
H546 H 0.18631 0.19326 0.02787 0.0
H547 H 0.1647 0.21171 0.0209 0.0
C548 C 0.19536 0.14552 0.01362 0.0
C549 C 0.19109 0.13282 0.08321 0.0
C550 C 0.18314 0.15628 0.00887 0.0
C551 C 0.16623 0.15459 0.07342 0.0
C552 C 0.16205 0.14193 0.14311 0.0
C553 C 0.17427 0.13121 0.14788 0.0
C554 C 0.1146 0.16765 0.08587 0.0
C555 C 0.12789 0.18753 0.06143 0.0
C556 C 0.12692 0.15698 0.08909 0.0
C557 C 0.15295 0.1659 0.06827 0.0
C558 C 0.16618 0.18576 0.04327 0.0
C559 C 0.1538 0.19642 0.03977 0.0
H560 H 1.0277 1.00527 0.90636 0.0
H561 H 0.97118 0.98127 0.10249 0.0
H562 H 1.03267 1.03785 0.93249 0.0
H563 H 0.97698 1.01407 0.13147 0.0
H564 H 0.97017 0.06777 0.08038 0.0
H565 H 0.96622 1.03553 0.05746 0.0
H566 H 1.04976 0.0668 0.04234 0.0
H567 H 1.05353 0.09905 0.06117 0.0
C568 C 1.01641 1.00694 0.9554 0.0
C569 C 0.99896 0.99054 0.00201 0.0
C570 C 1.01948 1.02573 0.97117 0.0
C571 C 1.00517 1.02865 0.03395 0.0
C572 C 0.98807 1.01235 0.08171 0.0
C573 C 0.98501 0.99356 0.06598 0.0
C574 C 0.98768 0.06781 0.07134 0.0
C575 C 1.01216 0.0861 0.07251 0.0
C576 C 0.98547 0.04927 0.05936 0.0
C577 C 1.00768 0.04848 0.04824 0.0
C578 C 1.03218 0.06677 0.04976 0.0
C579 C 1.03439 0.08532 0.06173 0.0
H580 H 0.07878 0.88686 0.01224 0.0
H581 H 1.05073 0.92619 0.04647 0.0
H582 H 0.12423 0.91675 0.02378 0.0
H583 H 0.09507 0.95547 0.05607 0.0
H584 H 0.17842 1.00677 0.13491 0.0
H585 H 0.1362 0.97558 0.14392 0.0
H586 H 0.15343 0.94498 0.93865 0.0
H587 H 0.19605 0.97617 0.93131 0.0
C588 C 0.08228 0.90177 0.02381 0.0
C589 C 1.06096 0.90401 0.02842 0.0
C590 C 0.10832 0.91898 0.02933 0.0
C591 C 0.11366 0.93879 0.04088 0.0
C592 C 0.09222 0.94072 0.04862 0.0
C593 C 1.06653 0.92375 0.04243 0.0
C594 C 0.17333 0.99343 0.09173 0.0
C595 C 0.1908 0.99425 0.03177 0.0
C596 C 0.14892 0.97541 0.09663 0.0
C597 C 0.14096 0.95752 0.04149 0.0
C598 C 0.15873 0.95823 -0.017 0.0
C599 C 0.1832 0.97628 0.97819 0.0
H600 H 0.92521 0.48488 0.22576 0.0
H601 H 0.89189 0.45835 0.94848 0.0
H602 H 0.93697 0.46019 0.2461 0.0
H603 H 0.90451 0.43421 0.96761 0.0
H604 H 0.90749 0.38106 0.05509 0.0
H605 H 0.89427 0.40498 0.04223 0.0
H606 H 0.96688 0.45118 0.20085 0.0
H607 H 0.97989 0.42709 0.21531 0.0
C608 C 0.92028 0.47376 0.16913 0.0
C609 C 0.90756 0.47372 0.08538 0.0
C610 C 0.92733 0.4597 0.18048 0.0
C611 C 0.92178 0.44511 0.10856 0.0
C612 C 0.9089 0.445 0.02507 0.0
C613 C 0.90192 0.45907 0.01366 0.0
C614 C 0.92066 0.39629 0.08759 0.0
C615 C 0.94485 0.40208 0.13608 0.0
C616 C 0.91311 0.41011 0.07969 0.0
C617 C 0.92951 0.43017 0.11993 0.0
C618 C 0.95354 0.43586 0.16967 0.0
C619 C 0.9611 0.42202 0.17762 0.0
H620 H 0.79318 0.46944 0.03572 0.0
H621 H 0.7348 0.48035 0.117 0.0
H622 H 0.76106 0.43289 0.03296 0.0
H623 H 0.70318 0.44446 0.11287 0.0
H624 H 0.65823 0.38096 0.19006 0.0
H625 H 0.69298 0.41644 0.19477 0.0
H626 H 0.71989 0.40359 0.95371 0.0
H627 H 0.6849 0.36784 0.94906 0.0
C628 C 0.7736 0.46414 0.05275 0.0
C629 C 0.76685 0.47808 0.07696 0.0
C630 C 0.75508 0.44313 0.05083 0.0
C631 C 0.72939 0.4355 0.07368 0.0
C632 C 0.72278 0.44953 0.09682 0.0
C633 C 0.74107 0.47032 0.09849 0.0
C634 C 0.67136 0.38561 0.13743 0.0
C635 C 0.66826 0.37132 0.06842 0.0
C636 C 0.69145 0.4061 0.14016 0.0
C637 C 0.70927 0.41319 0.07386 0.0
C638 C 0.70677 0.39884 0.00639 0.0
C639 C 0.68659 0.37824 0.00371 0.0
H640 H 0.65856 0.28497 0.02397 0.0
H641 H 0.66169 0.24984 0.2343 0.0
H642 H 0.70475 0.29841 0.00535 0.0
H643 H 0.70746 0.26336 0.21671 0.0
H644 H 0.77271 0.26677 0.07206 0.0
H645 H 0.72867 0.25749 0.09662 0.0
H646 H 0.75151 0.31913 0.07852 0.0
H647 H 0.79578 0.32839 0.05106 0.0
C648 C 0.6692 0.28043 0.0674 0.0
C649 C 0.65633 0.26611 0.12965 0.0
C650 C 0.69565 0.28812 0.05676 0.0
C651 C 0.70964 0.28163 0.10828 0.0
C652 C 0.6971 0.26827 0.17422 0.0
C653 C 0.67083 0.26059 0.1846 0.0
C654 C 0.76836 0.27835 0.07228 0.0
C655 C 0.7878 0.29831 0.0592 0.0
C656 C 0.74315 0.27307 0.08756 0.0
C657 C 0.73659 0.2876 0.0904 0.0
C658 C 0.75591 0.30757 0.07647 0.0
C659 C 0.7813 0.3129 0.06153 0.0
H660 H 0.62308 0.85833 0.79593 0.0
H661 H 0.58054 0.82738 0.0194 0.0
H662 H 0.60068 0.8762 0.78952 0.0
H663 H 0.55899 0.84583 0.01551 0.0
H664 H 0.5054 0.86719 0.92687 0.0
H665 H 0.52684 0.84869 0.92741 0.0
H666 H 0.599 0.90236 0.87245 0.0
H667 H 0.57732 0.92081 0.86978 0.0
C668 C 0.60887 0.85524 0.8435 0.0
C669 C 0.60372 0.84136 0.90826 0.0
C670 C 0.59625 0.86572 0.84061 0.0
C671 C 0.57803 0.8626 0.90224 0.0
C672 C 0.57267 0.84855 0.9663 0.0
C673 C 0.58531 0.8381 0.96926 0.0
C674 C 0.52586 0.87512 0.91502 0.0
C675 C 0.5396 0.89558 0.89854 0.0
C676 C 0.53824 0.86448 0.91577 0.0
C677 C 0.56476 0.87396 0.90022 0.0
C678 C 0.57848 0.89443 0.88354 0.0
C679 C 0.56608 0.90508 0.88267 0.0
H680 H 0.40078 0.70689 0.62058 0.0
H681 H 0.32617 0.68047 0.72946 0.0
H682 H 0.41157 0.74052 0.67224 0.0
H683 H 0.33671 0.71418 0.77936 0.0
H684 H 0.38215 0.7768 0.95123 0.0
H685 H 0.36889 0.74264 0.89593 0.0
H686 H 0.39631 0.7631 0.63577 0.0
H687 H 0.40936 0.79713 0.69054 0.0
C688 C 0.38669 0.70831 0.65535 0.0
C689 C 0.36267 0.69113 0.67115 0.0
C690 C 0.39274 0.72753 0.68417 0.0
C691 C 0.37494 0.72991 0.72965 0.0
C692 C 0.35085 0.71274 0.74502 0.0
C693 C 0.34472 0.6935 0.71571 0.0
C694 C 0.38502 0.77392 0.88189 0.0
C695 C 0.39696 0.78964 0.82542 0.0
C696 C 0.37745 0.7544 0.8503 0.0
C697 C 0.38173 0.7503 0.76181 0.0
C698 C 0.3932 0.76594 0.70482 0.0
C699 C 0.40069 0.7854 0.73624 0.0
H700 H 0.57577 0.71479 0.94759 0.0
H701 H 0.57676 0.71286 0.65512 0.0
H702 H 0.52909 0.68697 0.92669 0.0
H703 H 0.53039 0.68555 0.63389 0.0
H704 H 0.44162 0.64826 0.62835 0.0
H705 H 0.48558 0.67844 0.66213 0.0
H706 H 0.50508 0.64889 0.86098 0.0
H707 H 0.46074 0.6183 0.82689 0.0
C708 C 0.56571 0.70889 0.879 0.0
C709 C 0.57955 0.71613 0.80282 0.0
C710 C 0.53921 0.69282 0.86703 0.0
C711 C 0.52615 0.68405 0.77865 0.0
C712 C 0.53982 0.69208 0.70273 0.0
C713 C 0.56629 0.70778 0.71476 0.0
C714 C 0.45515 0.6481 0.67958 0.0
C715 C 0.44765 0.63074 0.72445 0.0
C716 C 0.48037 0.66545 0.69884 0.0
C717 C 0.49874 0.66606 0.76427 0.0
C718 C 0.4912 0.6489 0.81082 0.0
C719 C 0.46594 0.63135 0.79064 0.0
H720 H 1.04235 0.21479 0.75438 0.0
H721 H 0.11155 0.21289 0.80643 0.0
H722 H 1.051 0.22069 0.59618 0.0
H723 H 0.11952 0.21756 0.64715 0.0
H724 H 0.14113 0.24446 0.37795 0.0
H725 H 0.13337 0.24031 0.53764 0.0
H726 H 1.04952 0.20528 0.45587 0.0
H727 H 1.05754 0.21065 0.29702 0.0
C728 C 1.0593 0.21546 0.7315 0.0
C729 C 0.07626 0.21336 0.79231 0.0
C730 C 1.06419 0.21868 0.64058 0.0
C731 C 0.08591 0.2195 0.60802 0.0
C732 C 0.10286 0.21739 0.66959 0.0
C733 C 0.09822 0.21455 0.76088 0.0
C734 C 0.12107 0.23592 0.39443 0.0
C735 C 0.09993 0.22786 0.3253 0.0
C736 C 0.11656 0.23339 0.486 0.0
C737 C 0.09077 0.2224 0.51038 0.0
C738 C 1.06965 0.21417 0.44045 0.0
C739 C 0.0742 0.21704 0.3491 0.0
H740 H 0.99743 0.83644 0.68593 0.0
H741 H 0.95918 0.86817 0.73344 0.0
H742 H 0.99491 0.84042 0.52352 0.0
H743 H 0.9579 0.87326 0.5716 0.0
H744 H 0.93573 0.862 0.2644 0.0
H745 H 0.93729 0.85699 0.42608 0.0
H746 H 1.01221 0.86336 0.41497 0.0
H747 H 1.00972 0.86722 0.25219 0.0
C748 C 0.98874 0.84448 0.66152 0.0
C749 C 0.9784 0.85193 0.72191 0.0
C750 C 0.98745 0.84691 0.56841 0.0
C751 C 0.97623 0.85721 0.53378 0.0
C752 C 0.9662 0.86489 0.59504 0.0
C753 C 0.96709 0.86213 0.68798 0.0
C754 C 0.95245 0.86223 0.29676 0.0
C755 C 0.97259 0.86497 0.24608 0.0
C756 C 0.95349 0.85953 0.38967 0.0
C757 C 0.97494 0.85984 0.43435 0.0
C758 C 0.99513 0.86265 0.383 0.0
C759 C 0.99384 0.865 0.28973 0.0
H760 H 0.23979 1.02446 0.75053 0.0
H761 H 0.28706 0.08918 0.74926 0.0
H762 H 0.24277 1.02042 0.58764 0.0
H763 H 0.29144 0.08534 0.58791 0.0
H764 H 0.2723 1.0187 0.31555 0.0
H765 H 0.2697 1.02286 0.47843 0.0
H766 H 0.26992 0.07684 0.44095 0.0
H767 H 0.27412 0.07317 0.27911 0.0
C768 C 0.25103 1.03782 0.71538 0.0
C769 C 0.26305 0.05713 0.76228 0.0
C770 C 0.25295 1.03555 0.622 0.0
C771 C 0.26736 0.05255 0.57361 0.0
C772 C 0.27968 0.07186 0.62162 0.0
C773 C 0.27737 0.0741 0.71452 0.0
C774 C 0.27192 1.0315 0.34245 0.0
C775 C 0.2735 0.04565 0.28478 0.0
C776 C 0.27018 1.03382 0.4359 0.0
C777 C 0.26951 0.05018 0.47381 0.0
C778 C 0.27091 0.06425 0.41531 0.0
C779 C 0.27311 0.0621 0.32214 0.0
H780 H 0.87233 0.57376 0.40693 0.0
H781 H 0.79497 0.52013 0.33244 0.0
H782 H 0.8642 0.5724 0.56705 0.0
H783 H 0.78729 0.51795 0.49231 0.0
H784 H 0.77117 0.53003 0.7754 0.0
H785 H 0.77883 0.53229 0.61516 0.0
H786 H 0.86058 0.55454 0.69314 0.0
H787 H 0.85304 0.55338 0.8535 0.0
C788 C 0.85367 0.56161 0.42518 0.0
C789 C 0.83429 0.54706 0.35783 0.0
C790 C 0.84905 0.5607 0.51688 0.0
C791 C 0.82511 0.54498 0.54304 0.0
C792 C 0.80575 0.53047 0.47492 0.0
C793 C 0.81021 0.53162 0.38324 0.0
C794 C 0.79072 0.53534 0.75791 0.0
C795 C 0.81154 0.54158 0.82634 0.0
C796 C 0.79514 0.53656 0.66608 0.0
C797 C 0.82037 0.54365 0.64082 0.0
C798 C 0.84104 0.54944 0.70985 0.0
C799 C 0.8367 0.54859 0.80171 0.0
H800 H 0.53172 0.23623 0.39901 0.0
H801 H 0.60647 0.24257 0.39076 0.0
H802 H 0.5324 0.23047 0.55968 0.0
H803 H 0.60822 0.23814 0.55312 0.0
H804 H 0.59388 0.2117 0.82534 0.0
H805 H 0.59204 0.21583 0.66288 0.0
H806 H 0.55089 0.24566 0.70571 0.0
H807 H 0.55118 0.24011 0.86677 0.0
C808 C 0.54845 0.23659 0.43214 0.0
C809 C 0.56906 0.23988 0.38273 0.0
C810 C 0.54901 0.23347 0.52464 0.0
C811 C 0.57048 0.23397 0.5706 0.0
C812 C 0.59111 0.23728 0.52042 0.0
C813 C 0.59026 0.23998 0.42734 0.0
C814 C 0.58438 0.21908 0.79967 0.0
C815 C 0.57267 0.22558 0.85852 0.0
C816 C 0.5835 0.22163 0.70647 0.0
C817 C 0.57134 0.23114 0.67016 0.0
C818 C 0.55994 0.23788 0.73003 0.0
C819 C 0.56033 0.23491 0.82282 0.0
H820 H 0.98743 0.38191 0.39723 0.0
H821 H 0.92782 0.31923 0.41401 0.0
H822 H 0.99584 0.38746 0.56358 0.0
H823 H 0.93489 0.32489 0.58013 0.0
H824 H 0.9874 0.39601 0.86271 0.0
H825 H 0.97901 0.39044 0.69636 0.0
H826 H 0.96375 0.33048 0.70685 0.0
H827 H 0.97065 0.33579 0.87314 0.0
C828 C 0.97598 0.36938 0.43679 0.0
C829 C 0.95707 0.35015 0.39312 0.0
C830 C 0.98061 0.37256 0.53218 0.0
C831 C 0.96604 0.35664 0.58587 0.0
C832 C 0.9469 0.33744 0.54146 0.0
C833 C 0.94267 0.33419 0.44615 0.0
C834 C 0.98216 0.38165 0.82905 0.0
C835 C 0.97963 0.36632 0.88033 0.0
C836 C 0.97754 0.37847 0.73369 0.0
C837 C 0.97074 0.36001 0.68759 0.0
C838 C 0.96842 0.34475 0.73962 0.0
C839 C 0.97255 0.34781 0.83498 0.0
H840 H 0.52138 0.92039 0.63858 0.0
H841 H 0.44933 0.91817 0.58232 0.0
H842 H 0.52961 0.92542 0.4798 0.0
H843 H 0.45816 0.92442 0.42433 0.0
H844 H 0.46687 0.91563 0.1262 0.0
H845 H 0.4586 0.90993 0.28457 0.0
H846 H 0.5422 0.94792 0.3696 0.0
H847 H 0.55031 0.95249 0.21017 0.0
C848 C 0.50743 0.9212 0.59217 0.0
C849 C 0.48463 0.91876 0.6224 0.0
C850 C 0.51224 0.92427 0.5011 0.0
C851 C 0.4946 0.92535 0.43834 0.0
C852 C 0.47196 0.92324 0.46962 0.0
C853 C 0.46694 0.9198 0.56041 0.0
C854 C 0.48345 0.92265 0.17891 0.0
C855 C 0.50923 0.93445 0.15602 0.0
C856 C 0.47873 0.91956 0.27002 0.0
C857 C 0.49968 0.92852 0.34082 0.0
C858 C 0.52552 0.94043 0.31736 0.0
C859 C 0.53023 0.9432 0.22593 0.0
H860 H 0.39314 0.61407 0.96454 0.0
H861 H 0.33488 0.55036 0.90511 0.0
H862 H 0.3973 0.60965 0.12578 0.0
H863 H 0.33762 0.54593 0.06731 0.0
H864 H 0.36337 0.54011 0.35408 0.0
H865 H 0.36144 0.5445 0.1918 0.0
H866 H 0.37821 0.60445 0.2591 0.0
H867 H 0.38189 0.60038 0.42101 0.0
C868 C 0.38096 0.59912 -0.01362 0.0
C869 C 0.3636 0.58258 0.92236 0.0
C870 C 0.38316 0.59657 0.07923 0.0
C871 C 0.36766 0.57743 0.11102 0.0
C872 C 0.35026 0.56087 0.04622 0.0
C873 C 0.34846 0.56339 0.95301 0.0
C874 C 0.3668 0.55426 0.33391 0.0
C875 C 0.37277 0.5699 0.4003 0.0
C876 C 0.36544 0.55675 0.24056 0.0
C877 C 0.36954 0.57483 0.211 0.0
C878 C 0.37541 0.59043 0.27817 0.0
C879 C 0.37727 0.58806 0.37145 0.0
H880 H 0.63035 0.73337 0.56654 0.0
H881 H 0.70473 0.78985 0.56653 0.0
H882 H 0.62764 0.72731 0.4014 0.0
H883 H 0.70303 0.78336 0.4021 0.0
H884 H 0.68207 0.77651 0.0968 0.0
H885 H 0.68308 0.7826 0.26097 0.0
H886 H 0.64377 0.71848 0.28333 0.0
H887 H 0.64134 0.71248 0.11817 0.0
C888 C 0.64627 0.74438 0.53105 0.0
C889 C 0.66768 0.76212 0.57897 0.0
C890 C 0.64486 0.74086 0.43633 0.0
C891 C 0.66511 0.75482 0.38754 0.0
C892 C 0.68675 0.77244 0.43644 0.0
C893 C 0.68788 0.77613 0.53092 0.0
C894 C 0.6735 0.76375 0.13703 0.0
C895 C 0.66158 0.74404 0.09503 0.0
C896 C 0.67429 0.76722 0.23142 0.0
C897 C 0.66367 0.75106 0.28636 0.0
C898 C 0.65175 0.73131 0.24364 0.0
C899 C 0.65049 0.72783 0.14892 0.0
loop_
_geom_bond_atom_site_label_1
_geom_bond_atom_site_label_2
_geom_bond_distance
_geom_bond_site_symmetry_2
_ccdc_geom_bond_type
Pr0 C2 2.880 . S
Pr0 O20 2.562 . S
Pr0 O21 2.490 . S
Pr0 O22 2.695 . S
Pr0 O23 2.512 . S
Pr0 O25 2.437 . S
Pr0 O28 2.436 1_554 S
Pr0 O30 2.438 . S
Pr1 C11 2.880 1_455 S
Pr1 O22 2.436 . S
Pr1 O24 2.461 . S
Pr1 O26 2.562 . S
Pr1 O27 2.490 1_454 S
Pr1 O28 2.695 1_554 S
Pr1 O29 2.512 1_554 S
Pr1 O31 2.437 . S
C2 Pr0 2.880 . S
C2 C3 1.491 . S
C2 O20 1.254 . S
C2 O21 1.225 . S
C3 C2 1.491 . S
C3 C4 1.392 . S
C3 C8 1.364 . S
C4 C3 1.392 . S
C4 C5 1.368 . S
C4 H32 0.929 . S
C5 C4 1.368 . S
C5 C6 1.386 . S
C5 H33 0.929 . S
C6 C5 1.386 . S
C6 C7 1.373 1_554 S
C7 C6 1.373 1_556 S
C7 C8 1.408 1_556 S
C7 H34 0.931 . S
C8 C3 1.364 . S
C8 C7 1.408 1_554 S
C8 H35 0.923 1_554 S
C9 O22 1.270 . S
C9 O23 1.248 . S
C10 O24 1.272 . S
C10 O25 1.278 . S
C11 Pr1 2.880 1_655 S
C11 C12 1.491 . S
C11 O26 1.254 1_655 S
C11 O27 1.225 1_554 S
C12 C11 1.491 . S
C12 C13 1.392 1_554 S
C12 C17 1.356 . S
C13 C12 1.392 1_556 S
C13 C14 1.368 1_556 S
C13 H36 0.929 . S
C14 C13 1.368 1_554 S
C14 C15 1.386 . S
C14 H37 0.929 1_554 S
C15 C14 1.386 . S
C15 C16 1.373 . S
C16 C15 1.373 . S
C16 C17 1.409 . S
C16 H38 0.931 . S
C17 C12 1.356 . S
C17 C16 1.409 . S
C17 H39 0.930 . S
C18 O28 1.270 . S
C18 O29 1.248 . S
C19 O30 1.267 . S
C19 O31 1.278 . S
O20 Pr0 2.562 . S
O20 C2 1.254 . S
O21 Pr0 2.490 . S
O21 C2 1.225 . S
O22 Pr0 2.695 . S
O22 Pr1 2.436 . S
O22 C9 1.270 . S
O23 Pr0 2.512 . S
O23 C9 1.248 . S
O24 Pr1 2.461 . S
O24 C10 1.272 . S
O25 Pr0 2.437 . S
O25 C10 1.278 . S
O26 Pr1 2.562 . S
O26 C11 1.254 1_455 S
O27 Pr1 2.490 1_656 S
O27 C11 1.225 1_556 S
O28 Pr0 2.436 1_556 S
O28 Pr1 2.695 1_556 S
O28 C18 1.270 . S
O29 Pr1 2.512 1_556 S
O29 C18 1.248 . S
O30 Pr0 2.438 . S
O30 C19 1.267 . S
O31 Pr1 2.437 . S
O31 C19 1.278 . S
H32 C4 0.929 . S
H33 C5 0.929 . S
H34 C7 0.931 . S
H35 C8 0.923 1_556 S
H36 C13 0.929 . S
H37 C14 0.929 1_556 S
H38 C16 0.931 . S
H39 C17 0.930 . S
Pr40 C42 2.880 . S
Pr40 O60 2.562 . S
Pr40 O61 2.490 1_554 S
Pr40 O62 2.695 1_554 S
Pr40 O63 2.512 1_554 S
Pr40 O65 2.437 1_554 S
Pr40 O68 2.436 . S
Pr40 O70 2.438 . S
Pr41 C51 2.880 . S
Pr41 O62 2.436 1_554 S
Pr41 O64 2.438 . S
Pr41 O66 2.562 1_554 S
Pr41 O67 2.490 . S
Pr41 O68 2.695 . S
Pr41 O69 2.512 . S
Pr41 O71 2.437 . S
C42 Pr40 2.880 . S
C42 C43 1.491 . S
C42 O60 1.254 . S
C42 O61 1.225 1_554 S
C43 C42 1.491 . S
C43 C44 1.392 1_554 S
C43 C48 1.356 . S
C44 C43 1.392 1_556 S
C44 C45 1.368 . S
C44 H72 0.929 . S
C45 C44 1.368 . S
C45 C46 1.386 1_556 S
C45 H73 0.929 . S
C46 C45 1.386 1_554 S
C46 C47 1.373 . S
C47 C46 1.373 . S
C47 C48 1.409 . S
C47 H74 0.931 . S
C48 C43 1.356 . S
C48 C47 1.409 . S
C48 H75 0.930 . S
C49 O62 1.270 . S
C49 O63 1.248 . S
C50 O64 1.267 . S
C50 O65 1.278 1_554 S
C51 Pr41 2.880 . S
C51 C52 1.491 . S
C51 O66 1.254 1_554 S
C51 O67 1.225 . S
C52 C51 1.491 . S
C52 C53 1.392 . S
C52 C57 1.356 1_554 S
C53 C52 1.392 . S
C53 C54 1.368 . S
C53 H76 0.929 . S
C54 C53 1.368 . S
C54 C55 1.386 . S
C54 H77 0.929 . S
C55 C54 1.386 . S
C55 C56 1.373 1_554 S
C56 C55 1.373 1_556 S
C56 C57 1.409 . S
C56 H78 0.931 . S
C57 C52 1.356 1_556 S
C57 C56 1.409 . S
C57 H79 0.930 . S
C58 O68 1.270 . S
C58 O69 1.248 . S
C59 O70 1.267 . S
C59 O71 1.278 . S
O60 Pr40 2.562 . S
O60 C42 1.254 . S
O61 Pr40 2.490 1_556 S
O61 C42 1.225 1_556 S
O62 Pr40 2.695 1_556 S
O62 Pr41 2.436 1_556 S
O62 C49 1.270 . S
O63 Pr40 2.512 1_556 S
O63 C49 1.248 . S
O64 Pr41 2.438 . S
O64 C50 1.267 . S
O65 Pr40 2.437 1_556 S
O65 C50 1.278 1_556 S
O66 Pr41 2.562 1_556 S
O66 C51 1.254 1_556 S
O67 Pr41 2.490 . S
O67 C51 1.225 . S
O68 Pr40 2.436 . S
O68 Pr41 2.695 . S
O68 C58 1.270 . S
O69 Pr41 2.512 . S
O69 C58 1.248 . S
O70 Pr40 2.438 . S
O70 C59 1.267 . S
O71 Pr41 2.437 . S
O71 C59 1.278 . S
H72 C44 0.929 . S
H73 C45 0.929 . S
H74 C47 0.931 . S
H75 C48 0.930 . S
H76 C53 0.929 . S
H77 C54 0.929 . S
H78 C56 0.931 . S
H79 C57 0.930 . S
Pr80 C82 2.881 . S
Pr80 O100 2.562 1_554 S
Pr80 O101 2.490 . S
Pr80 O102 2.695 1_565 S
Pr80 O103 2.512 . S
Pr80 O105 2.437 1_565 S
Pr80 O108 2.436 1_564 S
Pr80 O110 2.438 . S
Pr81 C91 2.880 . S
Pr81 O102 2.436 . S
Pr81 O104 2.438 . S
Pr81 O106 2.562 . S
Pr81 O107 2.490 1_554 S
Pr81 O108 2.695 1_554 S
Pr81 O109 2.512 1_554 S
Pr81 O111 2.437 1_554 S
C82 Pr80 2.881 . S
C82 C83 1.490 1_554 S
C82 O100 1.249 1_554 S
C82 O101 1.230 . S
C83 C82 1.490 1_556 S
C83 C84 1.392 1_556 S
C83 C88 1.356 . S
C84 C83 1.392 1_554 S
C84 C85 1.368 . S
C84 H112 0.929 . S
C85 C84 1.368 . S
C85 C86 1.386 1_554 S
C85 H113 0.929 . S
C86 C85 1.386 1_556 S
C86 C87 1.373 . S
C87 C86 1.373 . S
C87 C88 1.409 . S
C87 H114 0.931 . S
C88 C83 1.356 . S
C88 C87 1.409 . S
C88 H115 0.930 . S
C89 O102 1.270 . S
C89 O103 1.248 1_545 S
C90 O104 1.267 . S
C90 O105 1.278 . S
C91 Pr81 2.880 . S
C91 C92 1.491 . S
C91 O106 1.254 . S
C91 O107 1.225 1_554 S
C92 C91 1.491 . S
C92 C93 1.392 1_554 S
C92 C97 1.356 . S
C93 C92 1.392 1_556 S
C93 C94 1.368 . S
C93 H116 0.929 . S
C94 C93 1.368 . S
C94 C95 1.386 1_556 S
C94 H117 0.929 . S
C95 C94 1.386 1_554 S
C95 C96 1.373 . S
C96 C95 1.373 . S
C96 C97 1.409 . S
C96 H118 0.931 . S
C97 C92 1.356 . S
C97 C96 1.409 . S
C97 H119 0.930 . S
C98 O108 1.270 . S
C98 O109 1.248 . S
C99 O110 1.267 . S
C99 O111 1.278 1_564 S
O100 Pr80 2.562 1_556 S
O100 C82 1.249 1_556 S
O101 Pr80 2.490 . S
O101 C82 1.230 . S
O102 Pr80 2.695 1_545 S
O102 Pr81 2.436 . S
O102 C89 1.270 . S
O103 Pr80 2.512 . S
O103 C89 1.248 1_565 S
O104 Pr81 2.438 . S
O104 C90 1.267 . S
O105 Pr80 2.437 1_545 S
O105 C90 1.278 . S
O106 Pr81 2.562 . S
O106 C91 1.254 . S
O107 Pr81 2.490 1_556 S
O107 C91 1.225 1_556 S
O108 Pr80 2.436 1_546 S
O108 Pr81 2.695 1_556 S
O108 C98 1.270 . S
O109 Pr81 2.512 1_556 S
O109 C98 1.248 . S
O110 Pr80 2.438 . S
O110 C99 1.267 . S
O111 Pr81 2.437 1_556 S
O111 C99 1.278 1_546 S
H112 C84 0.929 . S
H113 C85 0.929 . S
H114 C87 0.931 . S
H115 C88 0.930 . S
H116 C93 0.929 . S
H117 C94 0.929 . S
H118 C96 0.931 . S
H119 C97 0.930 . S
Pr120 C122 2.880 . S
Pr120 O140 2.562 . S
Pr120 O141 2.490 . S
Pr120 O142 2.695 . S
Pr120 O143 2.512 . S
Pr120 O145 2.437 . S
Pr120 O148 2.436 . S
Pr120 O150 2.438 . S
Pr121 C131 2.880 . S
Pr121 O142 2.436 . S
Pr121 O144 2.438 . S
Pr121 O146 2.562 . S
Pr121 O147 2.490 . S
Pr121 O148 2.695 . S
Pr121 O149 2.512 . S
Pr121 O151 2.437 . S
C122 Pr120 2.880 . S
C122 C123 1.491 . S
C122 O140 1.254 . S
C122 O141 1.225 . S
C123 C122 1.491 . S
C123 C124 1.392 . S
C123 C128 1.356 . S
C124 C123 1.392 . S
C124 C125 1.368 . S
C124 H152 0.929 . S
C125 C124 1.368 . S
C125 C126 1.386 . S
C125 H153 0.929 . S
C126 C125 1.386 . S
C126 C127 1.373 . S
C127 C126 1.373 . S
C127 C128 1.409 . S
C127 H154 0.931 . S
C128 C123 1.356 . S
C128 C127 1.409 . S
C128 H155 0.930 . S
C129 O142 1.270 . S
C129 O143 1.248 . S
C130 O144 1.267 . S
C130 O145 1.278 . S
C131 Pr121 2.880 . S
C131 C132 1.491 . S
C131 O146 1.254 . S
C131 O147 1.225 . S
C132 C131 1.491 . S
C132 C133 1.392 . S
C132 C137 1.356 . S
C133 C132 1.392 . S
C133 C134 1.368 . S
C133 H156 0.929 . S
C134 C133 1.368 . S
C134 C135 1.386 . S
C134 H157 0.929 . S
C135 C134 1.386 . S
C135 C136 1.373 . S
C136 C135 1.373 . S
C136 C137 1.409 . S
C136 H158 0.931 . S
C137 C132 1.356 . S
C137 C136 1.409 . S
C137 H159 0.930 . S
C138 O148 1.270 . S
C138 O149 1.248 . S
C139 O150 1.267 . S
C139 O151 1.278 . S
O140 Pr120 2.562 . S
O140 C122 1.254 . S
O141 Pr120 2.490 . S
O141 C122 1.225 . S
O142 Pr120 2.695 . S
O142 Pr121 2.436 . S
O142 C129 1.270 . S
O143 Pr120 2.512 . S
O143 C129 1.248 . S
O144 Pr121 2.438 . S
O144 C130 1.267 . S
O145 Pr120 2.437 . S
O145 C130 1.278 . S
O146 Pr121 2.562 . S
O146 C131 1.254 . S
O147 Pr121 2.490 . S
O147 C131 1.225 . S
O148 Pr120 2.436 . S
O148 Pr121 2.695 . S
O148 C138 1.270 . S
O149 Pr121 2.512 . S
O149 C138 1.248 . S
O150 Pr120 2.438 . S
O150 C139 1.267 . S
O151 Pr121 2.437 . S
O151 C139 1.278 . S
H152 C124 0.929 . S
H153 C125 0.929 . S
H154 C127 0.931 . S
H155 C128 0.930 . S
H156 C133 0.929 . S
H157 C134 0.929 . S
H158 C136 0.931 . S
H159 C137 0.930 . S
Pr160 C162 2.880 . S
Pr160 O180 2.562 . S
Pr160 O181 2.490 . S
Pr160 O182 2.695 . S
Pr160 O183 2.512 1_554 S
Pr160 O185 2.437 . S
Pr160 O188 2.436 . S
Pr160 O190 2.438 . S
Pr161 C171 2.880 . S
Pr161 O182 2.436 . S
Pr161 O184 2.438 . S
Pr161 O186 2.562 . S
Pr161 O187 2.490 . S
Pr161 O188 2.695 . S
Pr161 O189 2.512 . S
Pr161 O191 2.437 . S
C162 Pr160 2.880 . S
C162 C163 1.491 . S
C162 O180 1.254 . S
C162 O181 1.225 . S
C163 C162 1.491 . S
C163 C164 1.392 . S
C163 C168 1.356 . S
C164 C163 1.392 . S
C164 C165 1.368 . S
C164 H192 0.929 . S
C165 C164 1.368 . S
C165 C166 1.386 . S
C165 H193 0.929 . S
C166 C165 1.386 . S
C166 C167 1.373 . S
C167 C166 1.373 . S
C167 C168 1.409 . S
C167 H194 0.931 . S
C168 C163 1.356 . S
C168 C167 1.409 . S
C168 H195 0.930 . S
C169 O182 1.270 1_556 S
C169 O183 1.248 . S
C170 O184 1.267 . S
C170 O185 1.278 . S
C171 Pr161 2.880 . S
C171 C172 1.491 . S
C171 O186 1.254 . S
C171 O187 1.225 . S
C172 C171 1.491 . S
C172 C173 1.392 . S
C172 C177 1.356 . S
C173 C172 1.392 . S
C173 C174 1.368 . S
C173 H196 0.929 . S
C174 C173 1.368 . S
C174 C175 1.386 . S
C174 H197 0.929 . S
C175 C174 1.386 . S
C175 C176 1.373 . S
C176 C175 1.373 . S
C176 C177 1.409 . S
C176 H198 0.931 . S
C177 C172 1.356 . S
C177 C176 1.409 . S
C177 H199 0.930 . S
C178 O188 1.270 . S
C178 O189 1.248 . S
C179 O190 1.267 . S
C179 O191 1.278 . S
O180 Pr160 2.562 . S
O180 C162 1.254 . S
O181 Pr160 2.490 . S
O181 C162 1.225 . S
O182 Pr160 2.695 . S
O182 Pr161 2.436 . S
O182 C169 1.270 1_554 S
O183 Pr160 2.512 1_556 S
O183 C169 1.248 . S
O184 Pr161 2.438 . S
O184 C170 1.267 . S
O185 Pr160 2.437 . S
O185 C170 1.278 . S
O186 Pr161 2.562 . S
O186 C171 1.254 . S
O187 Pr161 2.490 . S
O187 C171 1.225 . S
O188 Pr160 2.436 . S
O188 Pr161 2.695 . S
O188 C178 1.270 . S
O189 Pr161 2.512 . S
O189 C178 1.248 . S
O190 Pr160 2.438 . S
O190 C179 1.267 . S
O191 Pr161 2.437 . S
O191 C179 1.278 . S
H192 C164 0.929 . S
H193 C165 0.929 . S
H194 C167 0.931 . S
H195 C168 0.930 . S
H196 C173 0.929 . S
H197 C174 0.929 . S
H198 C176 0.931 . S
H199 C177 0.930 . S
Pr200 C202 2.880 . S
Pr200 O220 2.562 . S
Pr200 O221 2.490 . S
Pr200 O222 2.695 . S
Pr200 O223 2.512 . S
Pr200 O225 2.437 . S
Pr200 O228 2.436 . S
Pr200 O230 2.438 . S
Pr201 C211 2.880 . S
Pr201 O222 2.436 . S
Pr201 O224 2.438 . S
Pr201 O226 2.562 . S
Pr201 O227 2.490 . S
Pr201 O228 2.695 . S
Pr201 O229 2.512 . S
Pr201 O231 2.437 . S
C202 Pr200 2.880 . S
C202 C203 1.491 1_655 S
C202 O220 1.254 . S
C202 O221 1.225 . S
C203 C202 1.491 1_455 S
C203 C204 1.392 . S
C203 C208 1.356 . S
C204 C203 1.392 . S
C204 C205 1.368 . S
C204 H232 0.929 . S
C205 C204 1.368 . S
C205 C206 1.386 . S
C205 H233 0.929 . S
C206 C205 1.386 . S
C206 C207 1.373 . S
C207 C206 1.373 . S
C207 C208 1.409 . S
C207 H234 0.931 . S
C208 C203 1.356 . S
C208 C207 1.409 . S
C208 H235 0.930 . S
C209 O222 1.270 . S
C209 O223 1.248 . S
C210 O224 1.267 . S
C210 O225 1.278 . S
C211 Pr201 2.880 . S
C211 C212 1.491 . S
C211 O226 1.254 . S
C211 O227 1.225 . S
C212 C211 1.491 . S
C212 C213 1.392 . S
C212 C217 1.356 . S
C213 C212 1.392 . S
C213 C214 1.368 . S
C213 H236 0.929 . S
C214 C213 1.368 . S
C214 C215 1.386 . S
C214 H237 0.929 . S
C215 C214 1.386 . S
C215 C216 1.373 . S
C216 C215 1.373 . S
C216 C217 1.409 . S
C216 H238 0.931 1_554 S
C217 C212 1.356 . S
C217 C216 1.409 . S
C217 H239 0.930 . S
C218 O228 1.270 . S
C218 O229 1.248 . S
C219 O230 1.267 . S
C219 O231 1.278 . S
O220 Pr200 2.562 . S
O220 C202 1.254 . S
O221 Pr200 2.490 . S
O221 C202 1.225 . S
O222 Pr200 2.695 . S
O222 Pr201 2.436 . S
O222 C209 1.270 . S
O223 Pr200 2.512 . S
O223 C209 1.248 . S
O224 Pr201 2.438 . S
O224 C210 1.267 . S
O225 Pr200 2.437 . S
O225 C210 1.278 . S
O226 Pr201 2.562 . S
O226 C211 1.254 . S
O227 Pr201 2.490 . S
O227 C211 1.225 . S
O228 Pr200 2.436 . S
O228 Pr201 2.695 . S
O228 C218 1.270 . S
O229 Pr201 2.512 . S
O229 C218 1.248 . S
O230 Pr200 2.438 . S
O230 C219 1.267 . S
O231 Pr201 2.437 . S
O231 C219 1.278 . S
H232 C204 0.929 . S
H233 C205 0.929 . S
H234 C207 0.931 . S
H235 C208 0.930 . S
H236 C213 0.929 . S
H237 C214 0.929 . S
H238 C216 0.931 1_556 S
H239 C217 0.930 . S
Pr240 C242 2.880 . S
Pr240 O260 2.562 . S
Pr240 O261 2.490 . S
Pr240 O262 2.695 . S
Pr240 O263 2.512 . S
Pr240 O265 2.437 . S
Pr240 O268 2.436 . S
Pr240 O270 2.438 . S
Pr241 C251 2.880 . S
Pr241 O262 2.436 . S
Pr241 O264 2.438 . S
Pr241 O266 2.562 . S
Pr241 O267 2.490 . S
Pr241 O268 2.695 . S
Pr241 O269 2.512 . S
Pr241 O271 2.437 . S
C242 Pr240 2.880 . S
C242 C243 1.491 . S
C242 O260 1.254 . S
C242 O261 1.225 . S
C243 C242 1.491 . S
C243 C244 1.392 . S
C243 C248 1.356 . S
C244 C243 1.392 . S
C244 C245 1.368 . S
C244 H272 0.929 . S
C245 C244 1.368 . S
C245 C246 1.386 . S
C245 H273 0.929 . S
C246 C245 1.386 . S
C246 C247 1.373 . S
C247 C246 1.373 . S
C247 C248 1.409 . S
C247 H274 0.931 . S
C248 C243 1.356 . S
C248 C247 1.409 . S
C248 H275 0.930 . S
C249 O262 1.270 . S
C249 O263 1.248 . S
C250 O264 1.267 . S
C250 O265 1.278 . S
C251 Pr241 2.880 . S
C251 C252 1.491 . S
C251 O266 1.254 . S
C251 O267 1.225 . S
C252 C251 1.491 . S
C252 C253 1.392 . S
C252 C257 1.356 . S
C253 C252 1.392 . S
C253 C254 1.368 . S
C253 H276 0.929 . S
C254 C253 1.368 . S
C254 C255 1.386 . S
C254 H277 0.929 . S
C255 C254 1.386 . S
C255 C256 1.373 . S
C256 C255 1.373 . S
C256 C257 1.409 . S
C256 H278 0.931 . S
C257 C252 1.356 . S
C257 C256 1.409 . S
C257 H279 0.930 . S
C258 O268 1.270 . S
C258 O269 1.248 . S
C259 O270 1.267 . S
C259 O271 1.278 . S
O260 Pr240 2.562 . S
O260 C242 1.254 . S
O261 Pr240 2.490 . S
O261 C242 1.225 . S
O262 Pr240 2.695 . S
O262 Pr241 2.436 . S
O262 C249 1.270 . S
O263 Pr240 2.512 . S
O263 C249 1.248 . S
O264 Pr241 2.438 . S
O264 C250 1.267 . S
O265 Pr240 2.437 . S
O265 C250 1.278 . S
O266 Pr241 2.562 . S
O266 C251 1.254 . S
O267 Pr241 2.490 . S
O267 C251 1.225 . S
O268 Pr240 2.436 . S
O268 Pr241 2.695 . S
O268 C258 1.270 . S
O269 Pr241 2.512 . S
O269 C258 1.248 . S
O270 Pr240 2.438 . S
O270 C259 1.267 . S
O271 Pr241 2.437 . S
O271 C259 1.278 . S
H272 C244 0.929 . S
H273 C245 0.929 . S
H274 C247 0.931 . S
H275 C248 0.930 . S
H276 C253 0.929 . S
H277 C254 0.929 . S
H278 C256 0.931 . S
H279 C257 0.930 . S
Pr280 C282 2.880 . S
Pr280 O300 2.562 . S
Pr280 O301 2.490 . S
Pr280 O302 2.695 . S
Pr280 O303 2.512 . S
Pr280 O305 2.437 . S
Pr280 O308 2.436 . S
Pr280 O310 2.438 . S
Pr281 C291 2.880 . S
Pr281 O302 2.436 . S
Pr281 O304 2.438 . S
Pr281 O306 2.562 . S
Pr281 O307 2.490 . S
Pr281 O308 2.695 . S
Pr281 O309 2.512 . S
Pr281 O311 2.437 . S
C282 Pr280 2.880 . S
C282 C283 1.491 . S
C282 O300 1.254 . S
C282 O301 1.225 . S
C283 C282 1.491 . S
C283 C284 1.392 . S
C283 C288 1.356 . S
C284 C283 1.392 . S
C284 C285 1.368 . S
C284 H312 0.929 . S
C285 C284 1.368 . S
C285 C286 1.386 . S
C285 H313 0.929 . S
C286 C285 1.386 . S
C286 C287 1.373 . S
C287 C286 1.373 . S
C287 C288 1.409 . S
C287 H314 0.931 . S
C288 C283 1.356 . S
C288 C287 1.409 . S
C288 H315 0.930 . S
C289 O302 1.270 . S
C289 O303 1.248 . S
C290 O304 1.267 . S
C290 O305 1.278 . S
C291 Pr281 2.880 . S
C291 C292 1.491 . S
C291 O306 1.254 . S
C291 O307 1.225 . S
C292 C291 1.491 . S
C292 C293 1.392 . S
C292 C297 1.356 . S
C293 C292 1.392 . S
C293 C294 1.368 . S
C293 H316 0.929 . S
C294 C293 1.368 . S
C294 C295 1.386 . S
C294 H317 0.929 . S
C295 C294 1.386 . S
C295 C296 1.373 . S
C296 C295 1.373 . S
C296 C297 1.409 . S
C296 H318 0.931 . S
C297 C292 1.356 . S
C297 C296 1.409 . S
C297 H319 0.930 . S
C298 O308 1.270 . S
C298 O309 1.248 . S
C299 O310 1.267 . S
C299 O311 1.278 . S
O300 Pr280 2.562 . S
O300 C282 1.254 . S
O301 Pr280 2.490 . S
O301 C282 1.225 . S
O302 Pr280 2.695 . S
O302 Pr281 2.436 . S
O302 C289 1.270 . S
O303 Pr280 2.512 . S
O303 C289 1.248 . S
O304 Pr281 2.438 . S
O304 C290 1.267 . S
O305 Pr280 2.437 . S
O305 C290 1.278 . S
O306 Pr281 2.562 . S
O306 C291 1.254 . S
O307 Pr281 2.490 . S
O307 C291 1.225 . S
O308 Pr280 2.436 . S
O308 Pr281 2.695 . S
O308 C298 1.270 . S
O309 Pr281 2.512 . S
O309 C298 1.248 . S
O310 Pr280 2.438 . S
O310 C299 1.267 . S
O311 Pr281 2.437 . S
O311 C299 1.278 . S
H312 C284 0.929 . S
H313 C285 0.929 . S
H314 C287 0.931 . S
H315 C288 0.930 . S
H316 C293 0.929 . S
H317 C294 0.929 . S
H318 C296 0.931 . S
H319 C297 0.930 . S
Pr320 C322 2.880 . S
Pr320 O340 2.562 . S
Pr320 O341 2.490 . S
Pr320 O342 2.695 . S
Pr320 O343 2.512 . S
Pr320 O345 2.437 . S
Pr320 O348 2.436 . S
Pr320 O350 2.438 . S
Pr321 C331 2.880 . S
Pr321 O342 2.436 . S
Pr321 O344 2.438 . S
Pr321 O346 2.562 . S
Pr321 O347 2.490 . S
Pr321 O348 2.695 . S
Pr321 O349 2.512 . S
Pr321 O351 2.437 . S
C322 Pr320 2.880 . S
C322 C323 1.491 . S
C322 O340 1.254 . S
C322 O341 1.225 . S
C323 C322 1.491 . S
C323 C324 1.392 . S
C323 C328 1.356 . S
C324 C323 1.392 . S
C324 C325 1.368 . S
C324 H352 0.929 . S
C325 C324 1.368 . S
C325 C326 1.386 . S
C325 H353 0.929 . S
C326 C325 1.386 . S
C326 C327 1.373 . S
C327 C326 1.373 . S
C327 C328 1.409 . S
C327 H354 0.931 . S
C328 C323 1.356 . S
C328 C327 1.409 . S
C328 H355 0.930 . S
C329 O342 1.270 . S
C329 O343 1.248 . S
C330 O344 1.267 . S
C330 O345 1.278 . S
C331 Pr321 2.880 . S
C331 C332 1.491 . S
C331 O346 1.254 . S
C331 O347 1.225 . S
C332 C331 1.491 . S
C332 C333 1.392 . S
C332 C337 1.356 . S
C333 C332 1.392 . S
C333 C334 1.368 . S
C333 H356 0.929 . S
C334 C333 1.368 . S
C334 C335 1.386 . S
C334 H357 0.929 . S
C335 C334 1.386 . S
C335 C336 1.373 . S
C336 C335 1.373 . S
C336 C337 1.409 . S
C336 H358 0.931 . S
C337 C332 1.356 . S
C337 C336 1.409 . S
C337 H359 0.930 . S
C338 O348 1.270 . S
C338 O349 1.248 . S
C339 O350 1.267 . S
C339 O351 1.278 . S
O340 Pr320 2.562 . S
O340 C322 1.254 . S
O341 Pr320 2.490 . S
O341 C322 1.225 . S
O342 Pr320 2.695 . S
O342 Pr321 2.436 . S
O342 C329 1.270 . S
O343 Pr320 2.512 . S
O343 C329 1.248 . S
O344 Pr321 2.438 . S
O344 C330 1.267 . S
O345 Pr320 2.437 . S
O345 C330 1.278 . S
O346 Pr321 2.562 . S
O346 C331 1.254 . S
O347 Pr321 2.490 . S
O347 C331 1.225 . S
O348 Pr320 2.436 . S
O348 Pr321 2.695 . S
O348 C338 1.270 . S
O349 Pr321 2.512 . S
O349 C338 1.248 . S
O350 Pr320 2.438 . S
O350 C339 1.267 . S
O351 Pr321 2.437 . S
O351 C339 1.278 . S
H352 C324 0.929 . S
H353 C325 0.929 . S
H354 C327 0.931 . S
H355 C328 0.930 . S
H356 C333 0.929 . S
H357 C334 0.929 . S
H358 C336 0.931 . S
H359 C337 0.930 . S
H360 C368 0.950 . S
H361 C373 0.950 . S
H362 C370 0.950 . S
H363 C372 0.950 . S
H364 C374 0.950 . S
H365 C376 0.950 . S
H366 C378 0.950 . S
H367 C379 0.950 . S
C368 H360 0.950 . S
C368 C369 1.386 1_556 S
C368 C370 1.391 . S
C369 C368 1.386 1_554 S
C369 C373 1.393 . S
C370 H362 0.950 . S
C370 C368 1.391 . S
C370 C371 1.400 . S
C371 C370 1.400 . S
C371 C372 1.398 1_556 S
C371 C377 1.491 . S
C372 H363 0.950 . S
C372 C371 1.398 1_554 S
C372 C373 1.391 . S
C373 H361 0.950 . S
C373 C369 1.393 . S
C373 C372 1.391 . S
C374 H364 0.950 . S
C374 C375 1.386 . S
C374 C376 1.391 . S
C375 C374 1.386 . S
C375 C379 1.393 . S
C376 H365 0.950 . S
C376 C374 1.391 . S
C376 C377 1.400 . S
C377 C371 1.491 . S
C377 C376 1.400 . S
C377 C378 1.398 . S
C378 H366 0.950 . S
C378 C377 1.398 . S
C378 C379 1.391 . S
C379 H367 0.950 . S
C379 C375 1.393 . S
C379 C378 1.391 . S
H380 C388 0.950 . S
H381 C393 0.950 . S
H382 C390 0.950 . S
H383 C392 0.950 1_554 S
H384 C394 0.950 . S
H385 C396 0.950 . S
H386 C398 0.950 . S
H387 C399 0.950 . S
C388 H380 0.950 . S
C388 C389 1.386 . S
C388 C390 1.391 . S
C389 C388 1.386 . S
C389 C393 1.393 1_556 S
C390 H382 0.950 . S
C390 C388 1.391 . S
C390 C391 1.400 . S
C391 C390 1.400 . S
C391 C392 1.398 . S
C391 C397 1.491 . S
C392 H383 0.950 1_556 S
C392 C391 1.398 . S
C392 C393 1.391 1_556 S
C393 H381 0.950 . S
C393 C389 1.393 1_554 S
C393 C392 1.391 1_554 S
C394 H384 0.950 . S
C394 C395 1.386 . S
C394 C396 1.391 . S
C395 C394 1.386 . S
C395 C399 1.393 . S
C396 H385 0.950 . S
C396 C394 1.391 . S
C396 C397 1.400 . S
C397 C391 1.491 . S
C397 C396 1.400 . S
C397 C398 1.398 . S
C398 H386 0.950 . S
C398 C397 1.398 . S
C398 C399 1.391 . S
C399 H387 0.950 . S
C399 C395 1.393 . S
C399 C398 1.391 . S
H400 C408 0.950 . S
H401 C413 0.950 . S
H402 C410 0.950 . S
H403 C412 0.950 . S
H404 C414 0.950 . S
H405 C416 0.950 . S
H406 C418 0.950 . S
H407 C419 0.950 . S
C408 H400 0.950 . S
C408 C409 1.386 . S
C408 C410 1.391 . S
C409 C408 1.386 . S
C409 C413 1.393 . S
C410 H402 0.950 . S
C410 C408 1.391 . S
C410 C411 1.400 . S
C411 C410 1.400 . S
C411 C412 1.398 . S
C411 C417 1.491 . S
C412 H403 0.950 . S
C412 C411 1.398 . S
C412 C413 1.391 . S
C413 H401 0.950 . S
C413 C409 1.393 . S
C413 C412 1.391 . S
C414 H404 0.950 . S
C414 C415 1.386 . S
C414 C416 1.391 . S
C415 C414 1.386 . S
C415 C419 1.393 . S
C416 H405 0.950 . S
C416 C414 1.391 . S
C416 C417 1.400 . S
C417 C411 1.491 . S
C417 C416 1.400 . S
C417 C418 1.398 . S
C418 H406 0.950 . S
C418 C417 1.398 . S
C418 C419 1.391 . S
C419 H407 0.950 . S
C419 C415 1.393 . S
C419 C418 1.391 . S
H420 C428 0.950 . S
H421 C433 0.950 . S
H422 C430 0.950 . S
H423 C432 0.950 . S
H424 C434 0.950 . S
H425 C436 0.950 . S
H426 C438 0.950 . S
H427 C439 0.950 . S
C428 H420 0.950 . S
C428 C429 1.386 . S
C428 C430 1.391 . S
C429 C428 1.386 . S
C429 C433 1.393 . S
C430 H422 0.950 . S
C430 C428 1.391 . S
C430 C431 1.400 . S
C431 C430 1.400 . S
C431 C432 1.398 . S
C431 C437 1.491 . S
C432 H423 0.950 . S
C432 C431 1.398 . S
C432 C433 1.391 . S
C433 H421 0.950 . S
C433 C429 1.393 . S
C433 C432 1.391 . S
C434 H424 0.950 . S
C434 C435 1.386 . S
C434 C436 1.391 . S
C435 C434 1.386 . S
C435 C439 1.393 . S
C436 H425 0.950 . S
C436 C434 1.391 . S
C436 C437 1.400 . S
C437 C431 1.491 . S
C437 C436 1.400 . S
C437 C438 1.398 . S
C438 H426 0.950 . S
C438 C437 1.398 . S
C438 C439 1.391 . S
C439 H427 0.950 . S
C439 C435 1.393 . S
C439 C438 1.391 . S
H440 C448 0.950 . S
H441 C453 0.950 . S
H442 C450 0.950 . S
H443 C452 0.950 1_455 S
H444 C454 0.950 . S
H445 C456 0.950 . S
H446 C458 0.950 . S
H447 C459 0.950 . S
C448 H440 0.950 . S
C448 C449 1.386 . S
C448 C450 1.391 . S
C449 C448 1.386 . S
C449 C453 1.393 . S
C450 H442 0.950 . S
C450 C448 1.391 . S
C450 C451 1.400 . S
C451 C450 1.400 . S
C451 C452 1.398 . S
C451 C457 1.491 . S
C452 H443 0.950 1_655 S
C452 C451 1.398 . S
C452 C453 1.391 . S
C453 H441 0.950 . S
C453 C449 1.393 . S
C453 C452 1.391 . S
C454 H444 0.950 . S
C454 C455 1.386 1_455 S
C454 C456 1.391 . S
C455 C454 1.386 1_655 S
C455 C459 1.393 . S
C456 H445 0.950 . S
C456 C454 1.391 . S
C456 C457 1.400 1_455 S
C457 C451 1.491 . S
C457 C456 1.400 1_655 S
C457 C458 1.398 . S
C458 H446 0.950 . S
C458 C457 1.398 . S
C458 C459 1.391 . S
C459 H447 0.950 . S
C459 C455 1.393 . S
C459 C458 1.391 . S
H460 C468 0.950 . S
H461 C473 0.950 . S
H462 C470 0.950 . S
H463 C472 0.950 1_556 S
H464 C474 0.950 . S
H465 C476 0.939 1_556 S
H466 C478 0.950 . S
H467 C479 0.950 . S
C468 H460 0.950 . S
C468 C469 1.386 . S
C468 C470 1.391 . S
C469 C468 1.386 . S
C469 C473 1.393 1_554 S
C470 H462 0.950 . S
C470 C468 1.391 . S
C470 C471 1.400 . S
C471 C470 1.400 . S
C471 C472 1.398 . S
C471 C477 1.491 . S
C472 H463 0.950 1_554 S
C472 C471 1.398 . S
C472 C473 1.391 1_554 S
C473 H461 0.950 . S
C473 C469 1.393 1_556 S
C473 C472 1.391 1_556 S
C474 H464 0.950 . S
C474 C475 1.386 . S
C474 C476 1.391 . S
C475 C474 1.386 . S
C475 C479 1.393 . S
C476 H465 0.939 1_554 S
C476 C474 1.391 . S
C476 C477 1.400 . S
C477 C471 1.491 . S
C477 C476 1.400 . S
C477 C478 1.398 . S
C478 H466 0.950 . S
C478 C477 1.398 . S
C478 C479 1.391 . S
C479 H467 0.950 . S
C479 C475 1.393 . S
C479 C478 1.391 . S
H480 C488 0.950 . S
H481 C493 0.950 . S
H482 C490 0.950 . S
H483 C492 0.950 . S
H484 C494 0.950 . S
H485 C496 0.950 . S
H486 C498 0.950 . S
H487 C499 0.950 . S
C488 H480 0.950 . S
C488 C489 1.386 . S
C488 C490 1.391 . S
C489 C488 1.386 . S
C489 C493 1.393 . S
C490 H482 0.950 . S
C490 C488 1.391 . S
C490 C491 1.400 . S
C491 C490 1.400 . S
C491 C492 1.398 . S
C491 C497 1.491 . S
C492 H483 0.950 . S
C492 C491 1.398 . S
C492 C493 1.391 . S
C493 H481 0.950 . S
C493 C489 1.393 . S
C493 C492 1.391 . S
C494 H484 0.950 . S
C494 C495 1.386 . S
C494 C496 1.391 . S
C495 C494 1.386 . S
C495 C499 1.393 . S
C496 H485 0.950 . S
C496 C494 1.391 . S
C496 C497 1.400 . S
C497 C491 1.491 . S
C497 C496 1.400 . S
C497 C498 1.398 . S
C498 H486 0.950 . S
C498 C497 1.398 . S
C498 C499 1.391 . S
C499 H487 0.950 . S
C499 C495 1.393 . S
C499 C498 1.391 . S
H500 C508 0.950 . S
H501 C513 0.950 . S
H502 C510 0.950 . S
H503 C512 0.950 . S
H504 C514 0.950 . S
H505 C516 0.950 . S
H506 C518 0.950 . S
H507 C519 0.950 . S
C508 H500 0.950 . S
C508 C509 1.386 . S
C508 C510 1.391 . S
C509 C508 1.386 . S
C509 C513 1.393 . S
C510 H502 0.950 . S
C510 C508 1.391 . S
C510 C511 1.400 . S
C511 C510 1.400 . S
C511 C512 1.398 . S
C511 C517 1.491 . S
C512 H503 0.950 . S
C512 C511 1.398 . S
C512 C513 1.391 . S
C513 H501 0.950 . S
C513 C509 1.393 . S
C513 C512 1.391 . S
C514 H504 0.950 . S
C514 C515 1.386 . S
C514 C516 1.391 . S
C515 C514 1.386 . S
C515 C519 1.393 . S
C516 H505 0.950 . S
C516 C514 1.391 . S
C516 C517 1.400 . S
C517 C511 1.491 . S
C517 C516 1.400 . S
C517 C518 1.398 . S
C518 H506 0.950 . S
C518 C517 1.398 . S
C518 C519 1.391 . S
C519 H507 0.950 . S
C519 C515 1.393 . S
C519 C518 1.391 . S
H520 C528 0.950 . S
H521 C533 0.950 . S
H522 C530 0.950 . S
H523 C532 0.950 . S
H524 C534 0.945 1_565 S
H525 C536 0.950 . S
H526 C538 0.950 . S
H527 C539 0.950 . S
C528 H520 0.950 . S
C528 C529 1.386 . S
C528 C530 1.391 . S
C529 C528 1.386 . S
C529 C533 1.393 . S
C530 H522 0.950 . S
C530 C528 1.391 . S
C530 C531 1.400 . S
C531 C530 1.400 . S
C531 C532 1.398 . S
C531 C537 1.491 . S
C532 H523 0.950 . S
C532 C531 1.398 . S
C532 C533 1.391 . S
C533 H521 0.950 . S
C533 C529 1.393 . S
C533 C532 1.391 . S
C534 H524 0.945 1_545 S
C534 C535 1.383 . S
C534 C536 1.398 . S
C535 C534 1.383 . S
C535 C539 1.393 . S
C536 H525 0.950 . S
C536 C534 1.398 . S
C536 C537 1.400 . S
C537 C531 1.491 . S
C537 C536 1.400 . S
C537 C538 1.398 . S
C538 H526 0.950 . S
C538 C537 1.398 . S
C538 C539 1.391 . S
C539 H527 0.950 . S
C539 C535 1.393 . S
C539 C538 1.391 . S
H540 C548 0.950 . S
H541 C553 0.950 . S
H542 C550 0.950 . S
H543 C552 0.950 . S
H544 C554 0.950 . S
H545 C556 0.950 . S
H546 C558 0.950 . S
H547 C559 0.950 . S
C548 H540 0.950 . S
C548 C549 1.386 . S
C548 C550 1.391 . S
C549 C548 1.386 . S
C549 C553 1.393 . S
C550 H542 0.950 . S
C550 C548 1.391 . S
C550 C551 1.400 . S
C551 C550 1.400 . S
C551 C552 1.398 . S
C551 C557 1.491 . S
C552 H543 0.950 . S
C552 C551 1.398 . S
C552 C553 1.391 . S
C553 H541 0.950 . S
C553 C549 1.393 . S
C553 C552 1.391 . S
C554 H544 0.950 . S
C554 C555 1.386 . S
C554 C556 1.391 . S
C555 C554 1.386 . S
C555 C559 1.393 . S
C556 H545 0.950 . S
C556 C554 1.391 . S
C556 C557 1.400 . S
C557 C551 1.491 . S
C557 C556 1.400 . S
C557 C558 1.398 . S
C558 H546 0.950 . S
C558 C557 1.398 . S
C558 C559 1.391 . S
C559 H547 0.950 . S
C559 C555 1.393 . S
C559 C558 1.391 . S
H560 C568 0.950 . S
H561 C573 0.950 . S
H562 C570 0.950 . S
H563 C572 0.950 . S
H564 C574 0.950 . S
H565 C576 0.950 1_565 S
H566 C578 0.950 . S
H567 C579 0.950 . S
C568 H560 0.950 . S
C568 C569 1.386 . S
C568 C570 1.391 . S
C569 C568 1.386 . S
C569 C573 1.393 . S
C570 H562 0.950 . S
C570 C568 1.391 . S
C570 C571 1.400 . S
C571 C570 1.400 . S
C571 C572 1.398 . S
C571 C577 1.491 1_565 S
C572 H563 0.950 . S
C572 C571 1.398 . S
C572 C573 1.391 . S
C573 H561 0.950 . S
C573 C569 1.393 . S
C573 C572 1.391 . S
C574 H564 0.950 . S
C574 C575 1.386 . S
C574 C576 1.391 . S
C575 C574 1.386 . S
C575 C579 1.393 . S
C576 H565 0.950 1_545 S
C576 C574 1.391 . S
C576 C577 1.400 . S
C577 C571 1.491 1_545 S
C577 C576 1.400 . S
C577 C578 1.398 . S
C578 H566 0.950 . S
C578 C577 1.398 . S
C578 C579 1.391 . S
C579 H567 0.950 . S
C579 C575 1.393 . S
C579 C578 1.391 . S
H580 C588 0.965 1_655 S
H581 C593 0.950 . S
H582 C590 0.950 . S
H583 C592 0.950 . S
H584 C594 0.950 . S
H585 C596 0.950 . S
H586 C598 0.950 . S
H587 C599 0.950 . S
C588 H580 0.965 1_455 S
C588 C589 1.386 1_456 S
C588 C590 1.391 . S
C589 C588 1.386 1_654 S
C589 C593 1.393 . S
C590 H582 0.950 . S
C590 C588 1.391 . S
C590 C591 1.400 1_556 S
C591 C590 1.400 1_554 S
C591 C592 1.398 . S
C591 C597 1.491 . S
C592 H583 0.950 . S
C592 C591 1.398 . S
C592 C593 1.391 1_455 S
C593 H581 0.950 . S
C593 C589 1.393 . S
C593 C592 1.391 1_655 S
C594 H584 0.950 . S
C594 C595 1.386 . S
C594 C596 1.391 . S
C595 C594 1.386 . S
C595 C599 1.393 1_554 S
C596 H585 0.950 . S
C596 C594 1.391 . S
C596 C597 1.400 . S
C597 C591 1.491 . S
C597 C596 1.400 . S
C597 C598 1.398 1_554 S
C598 H586 0.950 . S
C598 C597 1.398 1_556 S
C598 C599 1.391 . S
C599 H587 0.950 . S
C599 C595 1.393 1_556 S
C599 C598 1.391 . S
H600 C608 0.950 . S
H601 C613 0.950 . S
H602 C610 0.950 . S
H603 C612 0.950 . S
H604 C614 0.950 . S
H605 C616 0.950 . S
H606 C618 0.950 . S
H607 C619 0.950 . S
C608 H600 0.950 . S
C608 C609 1.386 . S
C608 C610 1.391 . S
C609 C608 1.386 . S
C609 C613 1.393 . S
C610 H602 0.950 . S
C610 C608 1.391 . S
C610 C611 1.400 . S
C611 C610 1.400 . S
C611 C612 1.398 . S
C611 C617 1.491 . S
C612 H603 0.950 . S
C612 C611 1.398 . S
C612 C613 1.391 . S
C613 H601 0.950 . S
C613 C609 1.393 . S
C613 C612 1.391 . S
C614 H604 0.950 . S
C614 C615 1.386 . S
C614 C616 1.391 . S
C615 C614 1.386 . S
C615 C619 1.393 . S
C616 H605 0.950 . S
C616 C614 1.391 . S
C616 C617 1.400 . S
C617 C611 1.491 . S
C617 C616 1.400 . S
C617 C618 1.398 . S
C618 H606 0.950 . S
C618 C617 1.398 . S
C618 C619 1.391 . S
C619 H607 0.950 . S
C619 C615 1.393 . S
C619 C618 1.391 . S
H620 C628 0.950 . S
H621 C633 0.950 . S
H622 C630 0.950 . S
H623 C632 0.950 . S
H624 C634 0.950 . S
H625 C636 0.950 . S
H626 C638 0.950 . S
H627 C639 0.950 . S
C628 H620 0.950 . S
C628 C629 1.386 . S
C628 C630 1.391 . S
C629 C628 1.386 . S
C629 C633 1.393 . S
C630 H622 0.950 . S
C630 C628 1.391 . S
C630 C631 1.400 . S
C631 C630 1.400 . S
C631 C632 1.398 . S
C631 C637 1.491 . S
C632 H623 0.950 . S
C632 C631 1.398 . S
C632 C633 1.391 . S
C633 H621 0.950 . S
C633 C629 1.393 . S
C633 C632 1.391 . S
C634 H624 0.950 . S
C634 C635 1.386 . S
C634 C636 1.391 . S
C635 C634 1.386 . S
C635 C639 1.393 . S
C636 H625 0.950 . S
C636 C634 1.391 . S
C636 C637 1.400 . S
C637 C631 1.491 . S
C637 C636 1.400 . S
C637 C638 1.398 . S
C638 H626 0.950 . S
C638 C637 1.398 . S
C638 C639 1.391 . S
C639 H627 0.950 . S
C639 C635 1.393 . S
C639 C638 1.391 . S
H640 C648 0.950 . S
H641 C653 0.950 . S
H642 C650 0.950 . S
H643 C652 0.950 . S
H644 C654 0.950 . S
H645 C656 0.950 . S
H646 C658 0.950 . S
H647 C659 0.950 . S
C648 H640 0.950 . S
C648 C649 1.386 . S
C648 C650 1.391 . S
C649 C648 1.386 . S
C649 C653 1.393 . S
C650 H642 0.950 . S
C650 C648 1.391 . S
C650 C651 1.400 . S
C651 C650 1.400 . S
C651 C652 1.398 . S
C651 C657 1.491 . S
C652 H643 0.950 . S
C652 C651 1.398 . S
C652 C653 1.391 . S
C653 H641 0.950 . S
C653 C649 1.393 . S
C653 C652 1.391 . S
C654 H644 0.950 . S
C654 C655 1.386 . S
C654 C656 1.391 . S
C655 C654 1.386 . S
C655 C659 1.393 . S
C656 H645 0.950 . S
C656 C654 1.391 . S
C656 C657 1.400 . S
C657 C651 1.491 . S
C657 C656 1.400 . S
C657 C658 1.398 . S
C658 H646 0.950 . S
C658 C657 1.398 . S
C658 C659 1.391 . S
C659 H647 0.950 . S
C659 C655 1.393 . S
C659 C658 1.391 . S
H660 C668 0.950 . S
H661 C673 0.950 . S
H662 C670 0.950 . S
H663 C672 0.950 . S
H664 C674 0.950 . S
H665 C676 0.950 . S
H666 C678 0.950 . S
H667 C679 0.950 . S
C668 H660 0.950 . S
C668 C669 1.386 . S
C668 C670 1.391 . S
C669 C668 1.386 . S
C669 C673 1.393 . S
C670 H662 0.950 . S
C670 C668 1.391 . S
C670 C671 1.400 . S
C671 C670 1.400 . S
C671 C672 1.398 . S
C671 C677 1.491 . S
C672 H663 0.950 . S
C672 C671 1.398 . S
C672 C673 1.391 . S
C673 H661 0.950 . S
C673 C669 1.393 . S
C673 C672 1.391 . S
C674 H664 0.950 . S
C674 C675 1.386 . S
C674 C676 1.391 . S
C675 C674 1.386 . S
C675 C679 1.393 . S
C676 H665 0.950 . S
C676 C674 1.391 . S
C676 C677 1.400 . S
C677 C671 1.491 . S
C677 C676 1.400 . S
C677 C678 1.398 . S
C678 H666 0.950 . S
C678 C677 1.398 . S
C678 C679 1.391 . S
C679 H667 0.950 . S
C679 C675 1.393 . S
C679 C678 1.391 . S
H680 C688 0.950 . S
H681 C693 0.950 . S
H682 C690 0.950 . S
H683 C692 0.950 . S
H684 C694 0.950 . S
H685 C696 0.950 . S
H686 C698 0.950 . S
H687 C699 0.950 . S
C688 H680 0.950 . S
C688 C689 1.386 . S
C688 C690 1.391 . S
C689 C688 1.386 . S
C689 C693 1.393 . S
C690 H682 0.950 . S
C690 C688 1.391 . S
C690 C691 1.400 . S
C691 C690 1.400 . S
C691 C692 1.398 . S
C691 C697 1.491 . S
C692 H683 0.950 . S
C692 C691 1.398 . S
C692 C693 1.391 . S
C693 H681 0.950 . S
C693 C689 1.393 . S
C693 C692 1.391 . S
C694 H684 0.950 . S
C694 C695 1.386 . S
C694 C696 1.391 . S
C695 C694 1.386 . S
C695 C699 1.393 . S
C696 H685 0.950 . S
C696 C694 1.391 . S
C696 C697 1.400 . S
C697 C691 1.491 . S
C697 C696 1.400 . S
C697 C698 1.398 . S
C698 H686 0.950 . S
C698 C697 1.398 . S
C698 C699 1.391 . S
C699 H687 0.950 . S
C699 C695 1.393 . S
C699 C698 1.391 . S
H700 C708 0.950 . S
H701 C713 0.950 . S
H702 C710 0.950 . S
H703 C712 0.950 . S
H704 C714 0.950 . S
H705 C716 0.950 . S
H706 C718 0.950 . S
H707 C719 0.950 . S
C708 H700 0.950 . S
C708 C709 1.386 . S
C708 C710 1.391 . S
C709 C708 1.386 . S
C709 C713 1.393 . S
C710 H702 0.950 . S
C710 C708 1.391 . S
C710 C711 1.400 . S
C711 C710 1.400 . S
C711 C712 1.398 . S
C711 C717 1.491 . S
C712 H703 0.950 . S
C712 C711 1.398 . S
C712 C713 1.391 . S
C713 H701 0.950 . S
C713 C709 1.393 . S
C713 C712 1.391 . S
C714 H704 0.950 . S
C714 C715 1.386 . S
C714 C716 1.391 . S
C715 C714 1.386 . S
C715 C719 1.393 . S
C716 H705 0.950 . S
C716 C714 1.391 . S
C716 C717 1.400 . S
C717 C711 1.491 . S
C717 C716 1.400 . S
C717 C718 1.398 . S
C718 H706 0.950 . S
C718 C717 1.398 . S
C718 C719 1.391 . S
C719 H707 0.950 . S
C719 C715 1.393 . S
C719 C718 1.391 . S
H720 C728 0.950 . S
H721 C733 0.950 . S
H722 C730 0.950 . S
H723 C732 0.950 . S
H724 C734 0.950 . S
H725 C736 0.950 . S
H726 C738 0.950 . S
H727 C739 0.950 . S
C728 H720 0.950 . S
C728 C729 1.386 . S
C728 C730 1.391 . S
C729 C728 1.386 . S
C729 C733 1.393 . S
C730 H722 0.950 . S
C730 C728 1.391 . S
C730 C731 1.400 . S
C731 C730 1.400 . S
C731 C732 1.398 . S
C731 C737 1.491 . S
C732 H723 0.950 . S
C732 C731 1.398 . S
C732 C733 1.391 . S
C733 H721 0.950 . S
C733 C729 1.393 . S
C733 C732 1.391 . S
C734 H724 0.950 . S
C734 C735 1.386 . S
C734 C736 1.391 . S
C735 C734 1.386 . S
C735 C739 1.393 . S
C736 H725 0.950 . S
C736 C734 1.391 . S
C736 C737 1.400 . S
C737 C731 1.491 . S
C737 C736 1.400 . S
C737 C738 1.398 . S
C738 H726 0.950 . S
C738 C737 1.398 . S
C738 C739 1.391 . S
C739 H727 0.950 . S
C739 C735 1.393 . S
C739 C738 1.391 . S
H740 C748 0.950 . S
H741 C753 0.950 . S
H742 C750 0.950 . S
H743 C752 0.950 . S
H744 C754 0.950 . S
H745 C756 0.950 . S
H746 C758 0.950 . S
H747 C759 0.950 . S
C748 H740 0.950 . S
C748 C749 1.386 . S
C748 C750 1.391 . S
C749 C748 1.386 . S
C749 C753 1.393 . S
C750 H742 0.950 . S
C750 C748 1.391 . S
C750 C751 1.400 . S
C751 C750 1.400 . S
C751 C752 1.398 . S
C751 C757 1.491 . S
C752 H743 0.950 . S
C752 C751 1.398 . S
C752 C753 1.391 . S
C753 H741 0.950 . S
C753 C749 1.393 . S
C753 C752 1.391 . S
C754 H744 0.950 . S
C754 C755 1.386 . S
C754 C756 1.391 . S
C755 C754 1.386 . S
C755 C759 1.393 . S
C756 H745 0.950 . S
C756 C754 1.391 . S
C756 C757 1.400 . S
C757 C751 1.491 . S
C757 C756 1.400 . S
C757 C758 1.398 . S
C758 H746 0.950 . S
C758 C757 1.398 . S
C758 C759 1.391 . S
C759 H747 0.950 . S
C759 C755 1.393 . S
C759 C758 1.391 . S
H760 C768 0.950 . S
H761 C773 0.950 . S
H762 C770 0.950 . S
H763 C772 0.950 . S
H764 C774 0.950 . S
H765 C776 0.950 . S
H766 C778 0.950 . S
H767 C779 0.950 . S
C768 H760 0.950 . S
C768 C769 1.386 . S
C768 C770 1.391 . S
C769 C768 1.386 . S
C769 C773 1.393 . S
C770 H762 0.950 . S
C770 C768 1.391 . S
C770 C771 1.400 . S
C771 C770 1.400 . S
C771 C772 1.398 . S
C771 C777 1.491 . S
C772 H763 0.950 . S
C772 C771 1.398 . S
C772 C773 1.391 . S
C773 H761 0.950 . S
C773 C769 1.393 . S
C773 C772 1.391 . S
C774 H764 0.950 . S
C774 C775 1.386 . S
C774 C776 1.391 . S
C775 C774 1.386 . S
C775 C779 1.393 . S
C776 H765 0.950 . S
C776 C774 1.391 . S
C776 C777 1.400 . S
C777 C771 1.491 . S
C777 C776 1.400 . S
C777 C778 1.398 . S
C778 H766 0.950 . S
C778 C777 1.398 . S
C778 C779 1.391 . S
C779 H767 0.950 . S
C779 C775 1.393 . S
C779 C778 1.391 . S
H780 C788 0.950 . S
H781 C793 0.950 . S
H782 C790 0.950 . S
H783 C792 0.950 . S
H784 C794 0.950 . S
H785 C796 0.950 . S
H786 C798 0.950 . S
H787 C799 0.950 . S
C788 H780 0.950 . S
C788 C789 1.386 . S
C788 C790 1.391 . S
C789 C788 1.386 . S
C789 C793 1.393 . S
C790 H782 0.950 . S
C790 C788 1.391 . S
C790 C791 1.400 . S
C791 C790 1.400 . S
C791 C792 1.398 . S
C791 C797 1.491 . S
C792 H783 0.950 . S
C792 C791 1.398 . S
C792 C793 1.391 . S
C793 H781 0.950 . S
C793 C789 1.393 . S
C793 C792 1.391 . S
C794 H784 0.950 . S
C794 C795 1.386 . S
C794 C796 1.391 . S
C795 C794 1.386 . S
C795 C799 1.393 . S
C796 H785 0.950 . S
C796 C794 1.391 . S
C796 C797 1.400 . S
C797 C791 1.491 . S
C797 C796 1.400 . S
C797 C798 1.398 . S
C798 H786 0.950 . S
C798 C797 1.398 . S
C798 C799 1.391 . S
C799 H787 0.950 . S
C799 C795 1.393 . S
C799 C798 1.391 . S
H800 C808 0.950 . S
H801 C813 0.950 . S
H802 C810 0.950 . S
H803 C812 0.950 . S
H804 C814 0.950 . S
H805 C816 0.950 . S
H806 C818 0.950 . S
H807 C819 0.950 . S
C808 H800 0.950 . S
C808 C809 1.386 . S
C808 C810 1.391 . S
C809 C808 1.386 . S
C809 C813 1.393 . S
C810 H802 0.950 . S
C810 C808 1.391 . S
C810 C811 1.400 . S
C811 C810 1.400 . S
C811 C812 1.398 . S
C811 C817 1.491 . S
C812 H803 0.950 . S
C812 C811 1.398 . S
C812 C813 1.391 . S
C813 H801 0.950 . S
C813 C809 1.393 . S
C813 C812 1.391 . S
C814 H804 0.950 . S
C814 C815 1.386 . S
C814 C816 1.391 . S
C815 C814 1.386 . S
C815 C819 1.393 . S
C816 H805 0.950 . S
C816 C814 1.391 . S
C816 C817 1.400 . S
C817 C811 1.491 . S
C817 C816 1.400 . S
C817 C818 1.398 . S
C818 H806 0.950 . S
C818 C817 1.398 . S
C818 C819 1.391 . S
C819 H807 0.950 . S
C819 C815 1.393 . S
C819 C818 1.391 . S
H820 C828 0.950 . S
H821 C833 0.950 . S
H822 C830 0.950 . S
H823 C832 0.950 . S
H824 C834 0.950 . S
H825 C836 0.950 . S
H826 C838 0.950 . S
H827 C839 0.950 . S
C828 H820 0.950 . S
C828 C829 1.386 . S
C828 C830 1.391 . S
C829 C828 1.386 . S
C829 C833 1.393 . S
C830 H822 0.950 . S
C830 C828 1.391 . S
C830 C831 1.400 . S
C831 C830 1.400 . S
C831 C832 1.398 . S
C831 C837 1.491 . S
C832 H823 0.950 . S
C832 C831 1.398 . S
C832 C833 1.391 . S
C833 H821 0.950 . S
C833 C829 1.393 . S
C833 C832 1.391 . S
C834 H824 0.950 . S
C834 C835 1.386 . S
C834 C836 1.391 . S
C835 C834 1.386 . S
C835 C839 1.393 . S
C836 H825 0.950 . S
C836 C834 1.391 . S
C836 C837 1.400 . S
C837 C831 1.491 . S
C837 C836 1.400 . S
C837 C838 1.398 . S
C838 H826 0.950 . S
C838 C837 1.398 . S
C838 C839 1.391 . S
C839 H827 0.950 . S
C839 C835 1.393 . S
C839 C838 1.391 . S
H840 C848 0.950 . S
H841 C853 0.950 . S
H842 C850 0.950 . S
H843 C852 0.950 . S
H844 C854 0.950 . S
H845 C856 0.950 . S
H846 C858 0.950 . S
H847 C859 0.950 . S
C848 H840 0.950 . S
C848 C849 1.386 . S
C848 C850 1.391 . S
C849 C848 1.386 . S
C849 C853 1.393 . S
C850 H842 0.950 . S
C850 C848 1.391 . S
C850 C851 1.400 . S
C851 C850 1.400 . S
C851 C852 1.398 . S
C851 C857 1.491 . S
C852 H843 0.950 . S
C852 C851 1.398 . S
C852 C853 1.391 . S
C853 H841 0.950 . S
C853 C849 1.393 . S
C853 C852 1.391 . S
C854 H844 0.950 . S
C854 C855 1.386 . S
C854 C856 1.391 . S
C855 C854 1.386 . S
C855 C859 1.393 . S
C856 H845 0.950 . S
C856 C854 1.391 . S
C856 C857 1.400 . S
C857 C851 1.491 . S
C857 C856 1.400 . S
C857 C858 1.398 . S
C858 H846 0.950 . S
C858 C857 1.398 . S
C858 C859 1.391 . S
C859 H847 0.950 . S
C859 C855 1.393 . S
C859 C858 1.391 . S
H860 C868 0.950 . S
H861 C873 0.950 . S
H862 C870 0.950 . S
H863 C872 0.950 . S
H864 C874 0.950 . S
H865 C876 0.950 . S
H866 C878 0.950 . S
H867 C879 0.950 . S
C868 H860 0.950 . S
C868 C869 1.386 . S
C868 C870 1.391 . S
C869 C868 1.386 . S
C869 C873 1.393 . S
C870 H862 0.950 . S
C870 C868 1.391 . S
C870 C871 1.400 . S
C871 C870 1.400 . S
C871 C872 1.398 . S
C871 C877 1.491 . S
C872 H863 0.950 . S
C872 C871 1.398 . S
C872 C873 1.391 . S
C873 H861 0.950 . S
C873 C869 1.393 . S
C873 C872 1.391 . S
C874 H864 0.950 . S
C874 C875 1.386 . S
C874 C876 1.391 . S
C875 C874 1.386 . S
C875 C879 1.393 . S
C876 H865 0.950 . S
C876 C874 1.391 . S
C876 C877 1.400 . S
C877 C871 1.491 . S
C877 C876 1.400 . S
C877 C878 1.398 . S
C878 H866 0.950 . S
C878 C877 1.398 . S
C878 C879 1.391 . S
C879 H867 0.950 . S
C879 C875 1.393 . S
C879 C878 1.391 . S
H880 C888 0.950 . S
H881 C893 0.950 . S
H882 C890 0.950 . S
H883 C892 0.950 . S
H884 C894 0.950 . S
H885 C896 0.950 . S
H886 C898 0.950 . S
H887 C899 0.950 . S
C888 H880 0.950 . S
C888 C889 1.386 . S
C888 C890 1.391 . S
C889 C888 1.386 . S
C889 C893 1.393 . S
C890 H882 0.950 . S
C890 C888 1.391 . S
C890 C891 1.400 . S
C891 C890 1.400 . S
C891 C892 1.398 . S
C891 C897 1.491 . S
C892 H883 0.950 . S
C892 C891 1.398 . S
C892 C893 1.391 . S
C893 H881 0.950 . S
C893 C889 1.393 . S
C893 C892 1.391 . S
C894 H884 0.950 . S
C894 C895 1.386 . S
C894 C896 1.391 . S
C895 C894 1.386 . S
C895 C899 1.393 . S
C896 H885 0.950 . S
C896 C894 1.391 . S
C896 C897 1.400 . S
C897 C891 1.491 . S
C897 C896 1.400 . S
C897 C898 1.398 . S
C898 H886 0.950 . S
C898 C897 1.398 . S
C898 C899 1.391 . S
C899 H887 0.950 . S
C899 C895 1.393 . S
C899 C898 1.391 . S
C369 C6 1.528 . S
C375 C286 1.533 . S
C389 C50 2.680 1_556 S
C395 C330 2.727 . S
C409 C86 1.817 . S
C415 C250 1.794 . S
C429 C170 3.086 . S
C435 C90 3.057 . S
C449 C210 2.866 . S
C455 C10 2.898 1_655 S
C469 C46 2.600 . S
C475 C130 2.554 . S
C489 C290 1.993 . S
C495 C206 1.979 . S
C509 C326 1.622 . S
C515 C126 1.636 . S
C529 C166 1.728 . S
C535 C246 1.751 1_545 S
C549 C95 1.892 . S
C555 C19 1.951 . S
C569 C55 1.364 . S
C575 C15 1.370 . S
C589 C59 3.374 . S
C595 C99 3.323 . S
C609 C135 1.882 . S
C615 C219 1.883 . S
C629 C139 1.954 . S
C635 C175 1.982 . S
C649 C179 1.675 . S
C655 C215 1.690 . S
C669 C335 1.971 . S
C675 C259 2.015 . S
C689 C295 0.719 . S
C695 C255 0.721 . S
C709 C339 2.206 . S
C715 C299 2.262 . S
C729 C18 1.021 . S
C735 C9 1.021 . S
C749 C49 0.993 . S
C755 C58 0.993 . S
C769 C98 0.970 . S
C775 C89 0.970 . S
C789 C138 1.035 . S
C795 C129 1.035 1_556 S
C809 C178 1.030 . S
C815 C169 1.030 . S
C829 C218 0.999 . S
C835 C209 0.999 1_556 S
C849 C258 1.016 . S
C855 C249 1.016 1_554 S
C869 C298 1.018 1_554 S
C875 C289 1.018 . S
C889 C338 0.980 . S
C895 C329 0.980 1_554 S
