# Generated by pormake.
# Topology lcs, (4)-cn, num edge types: 1
# Building blocks:
#     Node 0, Type 0, BuildingBlock: CEKHIL_clean_sbu_0, # of connection points: 4
#     Node 1, Type 0, BuildingBlock: CEKHIL_clean_sbu_0, # of connection points: 4
#     Node 2, Type 0, BuildingBlock: CEKHIL_clean_sbu_0, # of connection points: 4
#     Node 3, Type 0, BuildingBlock: CEKHIL_clean_sbu_0, # of connection points: 4
#     Node 4, Type 0, BuildingBlock: CEKHIL_clean_sbu_0, # of connection points: 4
#     Node 5, Type 0, BuildingBlock: CEKHIL_clean_sbu_0, # of connection points: 4
#     Node 6, Type 0, BuildingBlock: CEKHIL_clean_sbu_0, # of connection points: 4
#     Node 7, Type 0, BuildingBlock: CEKHIL_clean_sbu_0, # of connection points: 4
#     Node 8, Type 0, BuildingBlock: CEKHIL_clean_sbu_0, # of connection points: 4
#     Node 9, Type 0, BuildingBlock: CEKHIL_clean_sbu_0, # of connection points: 4
#     Node 10, Type 0, BuildingBlock: CEKHIL_clean_sbu_0, # of connection points: 4
#     Node 11, Type 0, BuildingBlock: CEKHIL_clean_sbu_0, # of connection points: 4
#     Node 12, Type 0, BuildingBlock: CEKHIL_clean_sbu_0, # of connection points: 4
#     Node 13, Type 0, BuildingBlock: CEKHIL_clean_sbu_0, # of connection points: 4
#     Node 14, Type 0, BuildingBlock: CEKHIL_clean_sbu_0, # of connection points: 4
#     Node 15, Type 0, BuildingBlock: CEKHIL_clean_sbu_0, # of connection points: 4
#     Node 16, Type 0, BuildingBlock: CEKHIL_clean_sbu_0, # of connection points: 4
#     Node 17, Type 0, BuildingBlock: CEKHIL_clean_sbu_0, # of connection points: 4
#     Node 18, Type 0, BuildingBlock: CEKHIL_clean_sbu_0, # of connection points: 4
#     Node 19, Type 0, BuildingBlock: CEKHIL_clean_sbu_0, # of connection points: 4
#     Node 20, Type 0, BuildingBlock: CEKHIL_clean_sbu_0, # of connection points: 4
#     Node 21, Type 0, BuildingBlock: CEKHIL_clean_sbu_0, # of connection points: 4
#     Node 22, Type 0, BuildingBlock: CEKHIL_clean_sbu_0, # of connection points: 4
#     Node 23, Type 0, BuildingBlock: CEKHIL_clean_sbu_0, # of connection points: 4
#     Edge 24, Type (0, 0), BuildingBlock: XIVTED_clean_linker_0, # of connection points: 2
#     Edge 25, Type (0, 0), BuildingBlock: XIVTED_clean_linker_0, # of connection points: 2
#     Edge 26, Type (0, 0), BuildingBlock: XIVTED_clean_linker_0, # of connection points: 2
#     Edge 27, Type (0, 0), BuildingBlock: XIVTED_clean_linker_0, # of connection points: 2
#     Edge 28, Type (0, 0), BuildingBlock: XIVTED_clean_linker_0, # of connection points: 2
#     Edge 29, Type (0, 0), BuildingBlock: XIVTED_clean_linker_0, # of connection points: 2
#     Edge 30, Type (0, 0), BuildingBlock: XIVTED_clean_linker_0, # of connection points: 2
#     Edge 31, Type (0, 0), BuildingBlock: XIVTED_clean_linker_0, # of connection points: 2
#     Edge 32, Type (0, 0), BuildingBlock: XIVTED_clean_linker_0, # of connection points: 2
#     Edge 33, Type (0, 0), BuildingBlock: XIVTED_clean_linker_0, # of connection points: 2
#     Edge 34, Type (0, 0), BuildingBlock: XIVTED_clean_linker_0, # of connection points: 2
#     Edge 35, Type (0, 0), BuildingBlock: XIVTED_clean_linker_0, # of connection points: 2
#     Edge 36, Type (0, 0), BuildingBlock: XIVTED_clean_linker_0, # of connection points: 2
#     Edge 37, Type (0, 0), BuildingBlock: XIVTED_clean_linker_0, # of connection points: 2
#     Edge 38, Type (0, 0), BuildingBlock: XIVTED_clean_linker_0, # of connection points: 2
#     Edge 39, Type (0, 0), BuildingBlock: XIVTED_clean_linker_0, # of connection points: 2
#     Edge 40, Type (0, 0), BuildingBlock: XIVTED_clean_linker_0, # of connection points: 2
#     Edge 41, Type (0, 0), BuildingBlock: XIVTED_clean_linker_0, # of connection points: 2
#     Edge 42, Type (0, 0), BuildingBlock: XIVTED_clean_linker_0, # of connection points: 2
#     Edge 43, Type (0, 0), BuildingBlock: XIVTED_clean_linker_0, # of connection points: 2
#     Edge 44, Type (0, 0), BuildingBlock: XIVTED_clean_linker_0, # of connection points: 2
#     Edge 45, Type (0, 0), BuildingBlock: XIVTED_clean_linker_0, # of connection points: 2
#     Edge 46, Type (0, 0), BuildingBlock: XIVTED_clean_linker_0, # of connection points: 2
#     Edge 47, Type (0, 0), BuildingBlock: XIVTED_clean_linker_0, # of connection points: 2
#     Edge 48, Type (0, 0), BuildingBlock: XIVTED_clean_linker_0, # of connection points: 2
#     Edge 49, Type (0, 0), BuildingBlock: XIVTED_clean_linker_0, # of connection points: 2
#     Edge 50, Type (0, 0), BuildingBlock: XIVTED_clean_linker_0, # of connection points: 2
#     Edge 51, Type (0, 0), BuildingBlock: XIVTED_clean_linker_0, # of connection points: 2
#     Edge 52, Type (0, 0), BuildingBlock: XIVTED_clean_linker_0, # of connection points: 2
#     Edge 53, Type (0, 0), BuildingBlock: XIVTED_clean_linker_0, # of connection points: 2
#     Edge 54, Type (0, 0), BuildingBlock: XIVTED_clean_linker_0, # of connection points: 2
#     Edge 55, Type (0, 0), BuildingBlock: XIVTED_clean_linker_0, # of connection points: 2
#     Edge 56, Type (0, 0), BuildingBlock: XIVTED_clean_linker_0, # of connection points: 2
#     Edge 57, Type (0, 0), BuildingBlock: XIVTED_clean_linker_0, # of connection points: 2
#     Edge 58, Type (0, 0), BuildingBlock: XIVTED_clean_linker_0, # of connection points: 2
#     Edge 59, Type (0, 0), BuildingBlock: XIVTED_clean_linker_0, # of connection points: 2
#     Edge 60, Type (0, 0), BuildingBlock: XIVTED_clean_linker_0, # of connection points: 2
#     Edge 61, Type (0, 0), BuildingBlock: XIVTED_clean_linker_0, # of connection points: 2
#     Edge 62, Type (0, 0), BuildingBlock: XIVTED_clean_linker_0, # of connection points: 2
#     Edge 63, Type (0, 0), BuildingBlock: XIVTED_clean_linker_0, # of connection points: 2
#     Edge 64, Type (0, 0), BuildingBlock: XIVTED_clean_linker_0, # of connection points: 2
#     Edge 65, Type (0, 0), BuildingBlock: XIVTED_clean_linker_0, # of connection points: 2
#     Edge 66, Type (0, 0), BuildingBlock: XIVTED_clean_linker_0, # of connection points: 2
#     Edge 67, Type (0, 0), BuildingBlock: XIVTED_clean_linker_0, # of connection points: 2
#     Edge 68, Type (0, 0), BuildingBlock: XIVTED_clean_linker_0, # of connection points: 2
#     Edge 69, Type (0, 0), BuildingBlock: XIVTED_clean_linker_0, # of connection points: 2
#     Edge 70, Type (0, 0), BuildingBlock: XIVTED_clean_linker_0, # of connection points: 2
#     Edge 71, Type (0, 0), BuildingBlock: XIVTED_clean_linker_0, # of connection points: 2
# Relax obj value: 0.002
# Max RMSD: 0.026
# Mean RMSD: 0.021
data_MOF--net-lcs--node1-CEKHIL_clean_sbu_0--edge1-XIVTED_clean_linker_0
_symmetry_space_group_name_H-M    P1
_symmetry_Int_Tables_number       1
_symmetry_cell_setting            triclinic
loop_
_symmetry_equiv_pos_as_xyz
'x, y, z'
_cell_length_a     49.653215
_cell_length_b     48.761904
_cell_length_c     48.744548
_cell_angle_alpha  90.824649
_cell_angle_beta   90.32491
_cell_angle_gamma 90.680017
loop_
_atom_site_label
_atom_site_type_symbol
_atom_site_fract_x
_atom_site_fract_y
_atom_site_fract_z
_atom_type_partial_charge
Co0 Co 0.01163 0.26524 0.38707 0.0
O1 O 0.97656 0.27879 0.37751 0.0
O2 O 0.98667 0.25916 0.41682 0.0
C3 C 0.03436 0.30304 0.37294 0.0
O4 O 0.04538 0.24993 0.40529 0.0
Co5 Co 0.05704 0.25635 0.34454 0.0
O6 O 0.0808 0.25505 0.3773 0.0
C7 C 0.01242 0.21533 0.34887 0.0
C8 C 0.96895 0.27151 0.40182 0.0
C9 C 0.07087 0.24935 0.40058 0.0
O10 O 1.00267 0.22808 0.36989 0.0
O11 O 0.03264 0.22437 0.33534 0.0
O12 O 0.02319 0.30272 0.39696 0.0
O13 O 0.03017 0.28148 0.35779 0.0
Co14 Co 0.02136 0.74921 0.6392 0.0
O15 O 0.05581 0.73238 0.64485 0.0
O16 O 0.03247 0.72923 0.60619 0.0
C17 C 0.03414 0.79063 0.65643 0.0
O18 O 0.98516 0.76497 0.62624 0.0
Co19 Co 0.99002 0.77048 0.69011 0.0
O20 O 0.96773 0.78863 0.66189 0.0
C21 C 0.99274 0.71109 0.6785 0.0
C22 C 0.05434 0.72347 0.61976 0.0
C23 C 0.96756 0.78143 0.63663 0.0
O24 O 1.00251 0.71576 0.65454 0.0
O25 O 0.98907 0.72991 0.69663 0.0
O26 O 0.03898 0.78419 0.63103 0.0
O27 O 0.02384 0.77129 0.67095 0.0
Co28 Co 0.50312 0.76611 0.89397 0.0
O29 O 0.46674 0.77888 0.88976 0.0
O30 O 0.48376 0.76174 0.92792 0.0
C31 C 0.5233 0.80286 0.87456 0.0
O32 O 0.53935 0.75153 0.90666 0.0
Co33 Co 0.53953 0.75405 0.84384 0.0
O34 O 0.56871 0.75106 0.87172 0.0
C35 C 0.49488 0.71605 0.85724 0.0
C36 C 0.46347 0.77264 0.91535 0.0
C37 C 0.56318 0.74812 0.89701 0.0
O38 O 0.49173 0.72828 0.88056 0.0
O39 O 0.51089 0.72476 0.83869 0.0
O40 O 0.51594 0.8038 0.90007 0.0
O41 O 0.51643 0.7808 0.86114 0.0
Co42 Co 0.51707 0.25109 0.13666 0.0
O43 O 0.55304 0.23811 0.14296 0.0
O44 O 0.52985 0.2302 0.10486 0.0
C45 C 0.52611 0.29414 0.15211 0.0
O46 O 0.47972 0.26283 0.12278 0.0
Co47 Co 0.48355 0.27102 0.18643 0.0
O48 O 0.45654 0.28088 0.15823 0.0
C49 C 0.49199 0.21212 0.17764 0.0
C50 C 0.55233 0.22753 0.11847 0.0
C51 C 0.45863 0.27449 0.13287 0.0
O52 O 0.50114 0.21681 0.15345 0.0
O53 O 0.48697 0.23115 0.19515 0.0
O54 O 0.53155 0.2871 0.12697 0.0
O55 O 0.51739 0.27464 0.16741 0.0
Co56 Co 0.01452 0.75283 0.13262 0.0
O57 O 0.04921 0.7694 0.13997 0.0
O58 O 0.0378 0.74832 0.10107 0.0
C59 C 0.99086 0.78911 0.14838 0.0
O60 O 0.98038 0.73473 0.11673 0.0
Co61 Co 0.97394 0.74058 0.17858 0.0
O62 O 0.94754 0.73799 0.14803 0.0
C63 C 0.01926 0.70272 0.16923 0.0
C64 C 0.05562 0.76252 0.11506 0.0
C65 C 0.95544 0.73285 0.12372 0.0
O66 O 0.0268 0.71685 0.14843 0.0
O67 O 0.99948 0.70951 0.18456 0.0
O68 O 1.00039 0.78872 0.12365 0.0
O69 O 0.99733 0.76855 0.16346 0.0
Co70 Co 0.50055 0.76251 0.38882 0.0
O71 O 0.4675 0.74255 0.38183 0.0
O72 O 0.48991 0.74157 0.42101 0.0
C73 C 0.48465 0.80218 0.37179 0.0
O74 O 0.5353 0.78139 0.40351 0.0
Co75 Co 0.53232 0.78814 0.34061 0.0
O76 O 0.55084 0.80893 0.37035 0.0
C77 C 0.53688 0.72874 0.35165 0.0
C78 C 0.46875 0.73394 0.40678 0.0
C79 C 0.55146 0.80035 0.39489 0.0
O80 O 0.52199 0.73098 0.37314 0.0
O81 O 0.54214 0.74867 0.33564 0.0
O82 O 0.47996 0.79551 0.39701 0.0
O83 O 0.49748 0.78424 0.35739 0.0
Co84 Co 0.51939 0.2553 0.63277 0.0
O85 O 0.5543 0.2721 0.63722 0.0
O86 O 0.54041 0.25052 0.59946 0.0
C87 C 0.4968 0.29165 0.65003 0.0
O88 O 0.48426 0.23667 0.62036 0.0
Co89 Co 0.48367 0.24404 0.68315 0.0
O90 O 0.45481 0.23837 0.65519 0.0
C91 C 0.5301 0.20854 0.67174 0.0
C92 C 0.55918 0.26475 0.61211 0.0
C93 C 0.46036 0.23352 0.6301 0.0
O94 O 0.53317 0.21972 0.64816 0.0
O95 O 0.51325 0.21703 0.68965 0.0
O96 O 0.50388 0.29091 0.62444 0.0
O97 O 0.50503 0.27152 0.6647 0.0
Co98 Co 0.99662 0.26214 0.88891 0.0
O99 O 0.9638 0.24144 0.8826 0.0
O100 O 0.98615 0.24244 0.92186 0.0
C101 C 0.98053 0.3009 0.87 0.0
O102 O 0.03087 0.28196 0.90341 0.0
Co103 Co 0.02905 0.28649 0.84055 0.0
O104 O 0.04701 0.30853 0.86977 0.0
C105 C 0.03394 0.22752 0.8536 0.0
C106 C 0.96512 0.23394 0.90795 0.0
C107 C 0.04707 0.30076 0.8946 0.0
O108 O 0.01863 0.23028 0.87474 0.0
O109 O 0.0393 0.24698 0.83707 0.0
O110 O 0.97553 0.29518 0.89542 0.0
O111 O 0.99381 0.28259 0.85654 0.0
Co112 Co 0.37477 1.00029 0.27289 0.0
O113 O 0.36797 0.9651 0.28909 0.0
O114 O 0.40549 0.97689 0.2677 0.0
C115 C 0.36022 0.02498 0.30954 0.0
O116 O 0.39039 0.03457 0.25513 0.0
Co117 Co 0.32959 0.04181 0.26157 0.0
O118 O 0.35887 0.06683 0.24989 0.0
C119 C 0.33663 0.99428 0.22386 0.0
C120 C 0.39226 0.9588 0.28178 0.0
C121 C 0.38301 0.05859 0.24779 0.0
O122 O 0.35824 0.98733 0.23667 0.0
O123 O 0.32159 0.01388 0.23203 0.0
O124 O 0.38442 0.01523 0.30906 0.0
O125 O 0.34503 0.01814 0.28888 0.0
Co126 Co 0.25299 0.13187 0.50978 0.0
O127 O 0.21695 0.12957 0.49475 0.0
O128 O 0.23445 0.16594 0.51628 0.0
C129 C 0.27383 0.11442 0.47242 0.0
O130 O 0.28922 0.14295 0.52689 0.0
Co131 Co 0.28779 0.08092 0.51963 0.0
O132 O 0.31787 0.1078 0.52395 0.0
C133 C 0.24383 0.09386 0.55824 0.0
C134 C 0.21423 0.15483 0.503 0.0
C135 C 0.31299 0.13291 0.52914 0.0
O136 O 0.23982 0.11657 0.54573 0.0
O137 O 0.26092 0.0761 0.55002 0.0
O138 O 0.26714 0.14006 0.47359 0.0
O139 O 0.26593 0.09961 0.49276 0.0
Co140 Co 0.12447 0.00783 0.7737 0.0
O141 O 0.11894 0.98908 0.80776 0.0
O142 O 0.15578 0.98614 0.78265 0.0
C143 C 0.10934 0.04852 0.78959 0.0
O144 O 0.13835 0.02506 0.73828 0.0
Co145 Co 0.07776 0.03345 0.7412 0.0
O146 O 0.10662 0.05192 0.72024 0.0
C147 C 0.08612 0.97353 0.73789 0.0
C148 C 0.14298 0.97938 0.80481 0.0
C149 C 0.13058 0.04292 0.72074 0.0
O150 O 0.10768 0.97603 0.75257 0.0
O151 O 0.07081 0.99366 0.73228 0.0
O152 O 0.13411 0.04139 0.79396 0.0
O153 O 0.09424 0.03049 0.77713 0.0
Co154 Co 0.25818 0.87479 0.99985 0.0
O155 O 0.29406 0.87886 0.98535 0.0
O156 O 0.27859 0.84208 0.00666 0.0
C157 C 0.23641 0.89014 0.96217 0.0
O158 O 0.22263 0.86219 0.01676 0.0
Co159 Co 0.22059 0.92464 0.0083 0.0
O160 O 0.19337 0.89699 0.01936 0.0
C161 C 0.26735 0.91704 0.04522 0.0
C162 C 0.29821 0.85415 0.99385 0.0
C163 C 0.19934 0.87192 0.02271 0.0
O164 O 0.27055 0.89241 0.0359 0.0
O165 O 0.25046 0.93368 0.03483 0.0
O166 O 0.24437 0.86489 0.96316 0.0
O167 O 0.24356 0.90555 0.98274 0.0
Co168 Co 0.27157 0.37666 0.00564 0.0
O169 O 0.30757 0.37692 0.02055 0.0
O170 O 0.27866 0.34261 0.02512 0.0
C171 C 0.28413 0.39194 0.9639 0.0
O172 O 0.23293 0.36934 0.99142 0.0
Co173 Co 0.24758 0.43245 0.98743 0.0
O174 O 0.21907 0.40821 0.97155 0.0
C175 C 0.25111 0.41969 0.04609 0.0
C176 C 0.30282 0.35253 0.02956 0.0
C177 C 0.21555 0.383 0.97741 0.0
O178 O 0.25724 0.39467 0.04023 0.0
O179 O 0.24934 0.43849 0.02814 0.0
O180 O 0.28576 0.36607 0.96961 0.0
O181 O 0.27724 0.40763 0.98408 0.0
Co182 Co 0.75307 0.12335 0.01568 0.0
O183 O 0.71863 0.11674 0.03249 0.0
O184 O 0.74275 0.15463 0.03864 0.0
C185 C 0.73876 0.10917 0.97368 0.0
O186 O 0.78906 0.13776 1.00002 0.0
Co187 Co 0.784 0.07529 0.98771 0.0
O188 O 0.80444 0.10554 0.97062 0.0
C189 C 0.78262 0.08061 0.04845 0.0
C190 C 0.72033 0.14124 0.04295 0.0
C191 C 0.80533 0.12969 0.98095 0.0
O192 O 0.77226 0.10475 0.04717 0.0
O193 O 0.78634 0.06527 0.02729 0.0
O194 O 0.7344 0.13413 0.98201 0.0
O195 O 0.7501 0.09356 0.99128 0.0
Co196 Co 0.14384 0.51248 0.26392 0.0
O197 O 0.14652 0.5461 0.24371 0.0
O198 O 0.11112 0.51813 0.24292 0.0
C199 C 0.15905 0.5306 0.304 0.0
O200 O 0.13319 0.47685 0.28301 0.0
Co201 Co 0.19491 0.4859 0.28883 0.0
O202 O 0.16909 0.45944 0.30492 0.0
C203 C 0.1859 0.48459 0.22912 0.0
C204 C 0.12217 0.54106 0.23514 0.0
C205 C 0.14414 0.45891 0.29861 0.0
O206 O 0.1612 0.49169 0.23252 0.0
O207 O 0.20323 0.48427 0.24864 0.0
O208 O 0.13398 0.53321 0.29689 0.0
O209 O 0.17432 0.51915 0.28594 0.0
Co210 Co 0.77762 0.87707 0.50647 0.0
O211 O 0.81153 0.88143 0.52546 0.0
O212 O 0.78658 0.84373 0.52633 0.0
C213 C 0.7932 0.89417 0.46653 0.0
O214 O 0.74143 0.86535 0.48845 0.0
Co215 Co 0.7491 0.92885 0.48411 0.0
O216 O 0.72642 0.90131 0.4645 0.0
C217 C 0.74629 0.91625 0.54326 0.0
C218 C 0.80871 0.85648 0.53376 0.0
C219 C 0.72463 0.87628 0.47152 0.0
O220 O 0.75815 0.89316 0.5392 0.0
O221 O 0.74263 0.93383 0.52437 0.0
O222 O 0.79664 0.86855 0.47238 0.0
O223 O 0.78218 0.90877 0.48552 0.0
Co224 Co 0.89897 0.99134 0.26426 0.0
O225 O 0.90557 0.97474 0.29914 0.0
O226 O 0.86901 0.99798 0.28862 0.0
C227 C 0.91095 0.95391 0.23933 0.0
O228 O 0.88412 0.00995 0.23016 0.0
Co229 Co 0.94439 0.99976 0.22184 0.0
O230 O 0.91395 0.00483 0.19602 0.0
C231 C 0.94088 0.03707 0.27028 0.0
C232 C 0.88186 0.9831 0.30621 0.0
C233 C 0.89071 0.01136 0.20471 0.0
O234 O 0.91796 0.02641 0.27685 0.0
O235 O 0.95518 0.02786 0.25045 0.0
O236 O 0.88694 0.95571 0.24953 0.0
O237 O 0.92735 0.97374 0.24588 0.0
Co238 Co 0.25626 0.62661 0.51687 0.0
O239 O 0.2237 0.61953 0.53715 0.0
O240 O 0.24675 0.65855 0.53912 0.0
C241 C 0.23897 0.61072 0.47659 0.0
O242 O 0.29044 0.64154 0.49803 0.0
Co243 Co 0.28648 0.57907 0.48731 0.0
O244 O 0.30532 0.60929 0.46846 0.0
C245 C 0.29319 0.58816 0.54753 0.0
C246 C 0.22545 0.64458 0.54622 0.0
C247 C 0.30619 0.63354 0.47851 0.0
O248 O 0.27889 0.61011 0.54715 0.0
O249 O 0.29671 0.57265 0.52644 0.0
O250 O 0.23457 0.6357 0.4847 0.0
O251 O 0.25219 0.59585 0.49353 0.0
Co252 Co 0.3954 0.49017 0.76454 0.0
O253 O 0.39668 0.47034 0.79817 0.0
O254 O 0.36114 0.49295 0.78345 0.0
C255 C 0.41378 0.45615 0.73899 0.0
O256 O 0.38634 0.51167 0.73018 0.0
Co257 Co 0.44821 0.50504 0.73484 0.0
O258 O 0.4236 0.51506 0.70444 0.0
C259 C 0.4328 0.53651 0.78408 0.0
C260 C 0.37179 0.47712 0.80175 0.0
C261 C 0.3984 0.51839 0.70791 0.0
O262 O 0.40948 0.52465 0.78366 0.0
O263 O 0.45202 0.52963 0.7681 0.0
O264 O 0.38817 0.45607 0.74414 0.0
O265 O 0.4277 0.47547 0.75096 0.0
Co266 Co 0.64173 0.00873 0.76357 0.0
O267 O 0.64845 0.04312 0.74592 0.0
O268 O 0.61079 0.0188 0.74138 0.0
C269 C 0.65672 0.02369 0.80499 0.0
O270 O 0.627 0.9731 0.78 0.0
Co271 Co 0.68874 0.97614 0.78892 0.0
O272 O 0.66011 0.95153 0.80263 0.0
C273 C 0.68075 0.97537 0.72892 0.0
C274 C 0.62426 0.04112 0.73593 0.0
C275 C 0.63563 0.95347 0.79507 0.0
O276 O 0.65835 0.98818 0.73171 0.0
O277 O 0.69664 0.97057 0.749 0.0
O278 O 0.63221 0.02847 0.79712 0.0
O279 O 0.67174 0.01158 0.78711 0.0
Co280 Co 0.75082 0.63057 1.00024 0.0
O281 O 0.71469 0.62761 0.98547 0.0
O282 O 0.73209 0.66466 0.00592 0.0
C283 C 0.77158 0.61237 0.96318 0.0
O284 O 0.78699 0.64244 0.01685 0.0
Co285 Co 0.78631 0.58039 0.01118 0.0
O286 O 0.8161 0.60763 0.01522 0.0
C287 C 0.74235 0.5937 0.04971 0.0
C288 C 0.71191 0.65308 0.99302 0.0
C289 C 0.81088 0.63281 0.0196 0.0
O290 O 0.73799 0.61605 0.03668 0.0
O291 O 0.75961 0.57597 0.04178 0.0
O292 O 0.76468 0.63796 0.96376 0.0
O293 O 0.76397 0.59801 0.98395 0.0
Co294 Co 0.87253 0.49643 0.76435 0.0
O295 O 0.86555 0.46106 0.78006 0.0
O296 O 0.90343 0.47306 0.75951 0.0
C297 C 0.85749 0.52062 0.80119 0.0
O298 O 0.88815 0.53112 0.74723 0.0
Co299 Co 0.82697 0.53779 0.75333 0.0
O300 O 0.85629 0.56318 0.74259 0.0
C301 C 0.83517 0.49126 0.71453 0.0
C302 C 0.89002 0.45488 0.77332 0.0
C303 C 0.88052 0.55524 0.74038 0.0
O304 O 0.85651 0.48395 0.72765 0.0
O305 O 0.81991 0.5106 0.7229 0.0
O306 O 0.88172 0.51095 0.80085 0.0
O307 O 0.84255 0.51393 0.7803 0.0
Co308 Co 0.76048 0.37288 0.48785 0.0
O309 O 0.79483 0.37898 0.47084 0.0
O310 O 0.78341 0.34135 0.49298 0.0
C311 C 0.73593 0.38735 0.45154 0.0
O312 O 0.7265 0.35857 0.50678 0.0
Co313 Co 0.72174 0.42139 0.49879 0.0
O314 O 0.69621 0.39244 0.5105 0.0
C315 C 0.77001 0.41478 0.53385 0.0
C316 C 0.80117 0.35452 0.47852 0.0
C317 C 0.70313 0.36759 0.5136 0.0
O318 O 0.7741 0.39073 0.52339 0.0
O319 O 0.75196 0.43092 0.52477 0.0
O320 O 0.74499 0.36249 0.45199 0.0
O321 O 0.74354 0.40297 0.47176 0.0
Co322 Co 0.62341 0.50943 0.2664 0.0
O323 O 0.6174 0.49071 0.30038 0.0
O324 O 0.65415 0.48684 0.27528 0.0
C325 C 0.60934 0.55038 0.2826 0.0
O326 O 0.63764 0.52649 0.23099 0.0
Co327 Co 0.57723 0.5365 0.23426 0.0
O328 O 0.60651 0.55438 0.21341 0.0
C329 C 0.58391 0.47636 0.2308 0.0
C330 C 0.64117 0.48038 0.29744 0.0
C331 C 0.63023 0.54474 0.21366 0.0
O332 O 0.6057 0.4782 0.2452 0.0
O333 O 0.56908 0.49693 0.22543 0.0
O334 O 0.63395 0.54263 0.28682 0.0
O335 O 0.5938 0.53282 0.27005 0.0
H336 H 0.15969 0.40641 0.30698 0.0
H337 H 0.03125 0.3571 0.38862 0.0
H338 H 0.0911 0.45938 0.31467 0.0
H339 H 0.0743 0.30224 0.33482 0.0
H340 H 0.05727 0.39589 0.37005 0.0
H341 H 0.13279 0.36864 0.32548 0.0
C342 C 0.13896 0.4101 0.31264 0.0
C343 C 0.12755 0.43603 0.30923 0.0
C344 C 0.06094 0.37531 0.36242 0.0
C345 C 0.09693 0.39305 0.33091 0.0
C346 C 0.04632 0.35322 0.37311 0.0
C347 C 0.05069 0.32647 0.36322 0.0
C348 C 0.08052 0.37042 0.34232 0.0
C349 C 0.07027 0.32254 0.34295 0.0
C350 C 0.12365 0.38853 0.32308 0.0
C351 C 0.10056 0.43963 0.3168 0.0
N352 N 0.08465 0.34423 0.33336 0.0
N353 N 0.08618 0.41841 0.3276 0.0
H354 H 0.94408 0.83115 0.6417 0.0
H355 H 0.82075 0.80145 0.5391 0.0
H356 H 0.94006 0.75663 0.59305 0.0
H357 H 0.84723 0.88253 0.56437 0.0
H358 H 0.86034 0.78229 0.56268 0.0
H359 H 0.905 0.84819 0.61711 0.0
C360 C 0.93505 0.8184 0.62566 0.0
C361 C 0.94548 0.79244 0.61938 0.0
C362 C 0.85734 0.80425 0.56304 0.0
C363 C 0.90007 0.81176 0.5913 0.0
C364 C 0.83466 0.81515 0.54985 0.0
C365 C 0.83064 0.84364 0.54982 0.0
C366 C 0.87576 0.82197 0.57666 0.0
C367 C 0.84947 0.86047 0.56379 0.0
C368 C 0.91267 0.82816 0.61161 0.0
C369 C 0.93285 0.77687 0.59836 0.0
N370 N 0.87102 0.84942 0.57667 0.0
N371 N 0.9106 0.78665 0.58522 0.0
H372 H 0.39942 0.58003 0.79052 0.0
H373 H 0.49596 0.66968 0.88775 0.0
H374 H 0.4765 0.54934 0.81615 0.0
H375 H 0.46227 0.70297 0.81386 0.0
H376 H 0.4772 0.62427 0.87458 0.0
H377 H 0.41077 0.62447 0.81258 0.0
C378 C 0.41836 0.58242 0.80148 0.0
C379 C 0.4371 0.56113 0.80158 0.0
C380 C 0.47355 0.64171 0.86162 0.0
C381 C 0.44988 0.61135 0.82698 0.0
C382 C 0.48407 0.6675 0.86913 0.0
C383 C 0.48058 0.68989 0.85179 0.0
C384 C 0.45882 0.63867 0.83709 0.0
C385 C 0.46536 0.68609 0.82769 0.0
C386 C 0.42486 0.60773 0.81383 0.0
C387 C 0.46158 0.56534 0.81564 0.0
N388 N 0.45491 0.66094 0.82106 0.0
N389 N 0.46728 0.59001 0.82785 0.0
H390 H 0.55625 0.1918 0.07422 0.0
H391 H 0.71731 0.18901 0.07401 0.0
H392 H 0.60416 0.23388 0.13615 0.0
H393 H 0.66843 0.12264 0.04072 0.0
H394 H 0.67624 0.21019 0.09234 0.0
H395 H 0.59753 0.17064 0.05639 0.0
C396 C 0.5754 0.19663 0.084 0.0
C397 C 0.57671 0.21448 0.1068 0.0
C398 C 0.67462 0.19092 0.08111 0.0
C399 C 0.62396 0.19077 0.08633 0.0
C400 C 0.69803 0.17883 0.0707 0.0
C401 C 0.69639 0.15391 0.05599 0.0
C402 C 0.64936 0.17831 0.07621 0.0
C403 C 0.67078 0.14173 0.05214 0.0
C404 C 0.59892 0.18451 0.07391 0.0
C405 C 0.60213 0.22005 0.11867 0.0
N406 N 0.64833 0.15412 0.06195 0.0
N407 N 0.62471 0.20841 0.10823 0.0
H408 H 0.14237 0.58543 0.2081 0.0
H409 H 1.00138 0.65967 0.19983 0.0
H410 H 0.06751 0.5449 0.22823 0.0
H411 H 0.0702 0.68732 0.15363 0.0
H412 H 0.02578 0.61832 0.21183 0.0
H413 H 0.11695 0.62337 0.18879 0.0
C414 C 0.12056 0.58434 0.20813 0.0
C415 C 0.10702 0.56199 0.21987 0.0
C416 C 0.0355 0.63333 0.19891 0.0
C417 C 0.07783 0.60562 0.19828 0.0
C418 C 0.02164 0.65707 0.19218 0.0
C419 C 0.0338 0.67716 0.17582 0.0
C420 C 0.06194 0.62971 0.18964 0.0
C421 C 0.06003 0.67243 0.1663 0.0
C422 C 0.10608 0.60602 0.1971 0.0
C423 C 0.07876 0.56168 0.21933 0.0
N424 N 0.07333 0.64934 0.1736 0.0
N425 N 0.06511 0.58334 0.20909 0.0
H426 H 0.57158 0.85203 0.39493 0.0
H427 H 0.69975 0.82915 0.49175 0.0
H428 H 0.58257 0.77406 0.43381 0.0
H429 H 0.69399 0.88855 0.42723 0.0
H430 H 0.6557 0.8097 0.47679 0.0
H431 H 0.61372 0.86842 0.41505 0.0
C432 C 0.58272 0.83846 0.40813 0.0
C433 C 0.57359 0.81157 0.4125 0.0
C434 C 0.66434 0.82687 0.46592 0.0
C435 C 0.62267 0.83009 0.43527 0.0
C436 C 0.68953 0.83784 0.47428 0.0
C437 C 0.70059 0.86075 0.46093 0.0
C438 C 0.65016 0.83915 0.44432 0.0
C439 C 0.68629 0.8712 0.43851 0.0
C440 C 0.60698 0.84775 0.41945 0.0
C441 C 0.58885 0.79499 0.43001 0.0
N442 N 0.66194 0.86054 0.43119 0.0
N443 N 0.61289 0.80441 0.44057 0.0
H444 H 0.46237 0.32698 0.62489 0.0
H445 H 0.46513 0.43783 0.74443 0.0
H446 H 0.5002 0.31065 0.70273 0.0
H447 H 0.39134 0.42262 0.69933 0.0
H448 H 0.48475 0.3973 0.72221 0.0
H449 H 0.4416 0.368 0.64545 0.0
C450 C 0.46622 0.33201 0.64629 0.0
C451 C 0.48289 0.31543 0.66222 0.0
C452 C 0.46433 0.40302 0.7171 0.0
C453 C 0.46005 0.36241 0.68538 0.0
C454 C 0.45321 0.42618 0.72956 0.0
C455 C 0.42658 0.43346 0.72372 0.0
C456 C 0.44895 0.3875 0.69814 0.0
C457 C 0.41192 0.41755 0.70445 0.0
C458 C 0.45439 0.3553 0.65794 0.0
C459 C 0.4873 0.3228 0.68982 0.0
N460 N 0.42337 0.39535 0.69215 0.0
N461 N 0.47624 0.34597 0.70045 0.0
H462 H 0.95326 0.22628 0.96275 0.0
H463 H 0.82419 0.1317 0.92906 0.0
H464 H 0.92498 0.20615 0.88101 0.0
H465 H 0.83613 0.16888 0.00906 0.0
H466 H 0.86307 0.15703 0.91226 0.0
H467 H 0.91315 0.20297 0.98145 0.0
C468 C 0.93881 0.21675 0.94877 0.0
C469 C 0.94255 0.21811 0.92025 0.0
C470 C 0.85719 0.15993 0.93346 0.0
C471 C 0.89669 0.19165 0.94144 0.0
C472 C 0.8349 0.14546 0.94308 0.0
C473 C 0.82682 0.14819 0.97051 0.0
C474 C 0.87206 0.17713 0.95141 0.0
C475 C 0.84152 0.16637 0.98769 0.0
C476 C 0.91583 0.20369 0.95944 0.0
C477 C 0.92302 0.20566 0.9031 0.0
N478 N 0.86366 0.17997 0.97794 0.0
N479 N 0.90111 0.19297 0.91393 0.0
H480 H 0.27661 0.13483 0.42075 0.0
H481 H 0.37906 0.02474 0.36228 0.0
H482 H 0.30382 0.0676 0.4699 0.0
H483 H 0.31738 0.05969 0.31136 0.0
H484 H 0.3592 0.04746 0.40251 0.0
H485 H 0.29902 0.11441 0.38081 0.0
C486 C 0.28749 0.11588 0.42318 0.0
C487 C 0.2883 0.10279 0.44861 0.0
C488 C 0.35016 0.05022 0.38248 0.0
C489 C 0.31422 0.07966 0.4032 0.0
C490 C 0.36154 0.03746 0.35953 0.0
C491 C 0.34977 0.04033 0.3335 0.0
C492 C 0.32726 0.06647 0.37923 0.0
C493 C 0.32698 0.05688 0.3311 0.0
C494 C 0.30013 0.10423 0.40038 0.0
C495 C 0.30258 0.07823 0.4506 0.0
N496 N 0.31653 0.06948 0.35367 0.0
N497 N 0.31516 0.06751 0.4282 0.0
H498 H 0.18002 0.02185 0.70693 0.0
H499 H 0.2013 0.12253 0.57983 0.0
H500 H 0.12402 0.08493 0.68462 0.0
H501 H 0.25034 0.05154 0.59424 0.0
H502 H 0.17526 0.11167 0.62076 0.0
H503 H 0.20868 0.03531 0.66855 0.0
C504 C 0.17383 0.03867 0.69416 0.0
C505 C 0.14942 0.05213 0.69901 0.0
C506 C 0.19176 0.0985 0.61499 0.0
C507 C 0.18216 0.06761 0.65492 0.0
C508 C 0.20669 0.10471 0.59159 0.0
C509 C 0.22805 0.08789 0.58338 0.0
C510 C 0.19825 0.07536 0.63047 0.0
C511 C 0.23399 0.06506 0.59958 0.0
C512 C 0.19017 0.04626 0.67215 0.0
C513 C 0.14251 0.07378 0.68164 0.0
N514 N 0.21919 0.05949 0.62228 0.0
N515 N 0.15872 0.08076 0.66041 0.0
H516 H 0.18795 0.94692 0.80195 0.0
H517 H 0.20295 0.93395 0.96269 0.0
H518 H 0.12686 0.97524 0.85785 0.0
H519 H 0.23455 0.87135 0.90885 0.0
H520 H 0.17896 0.95349 0.92376 0.0
H521 H 0.20949 0.92265 0.84006 0.0
C522 C 0.17901 0.94791 0.82215 0.0
C523 C 0.1556 0.96313 0.82676 0.0
C524 C 0.19101 0.93537 0.92049 0.0
C525 C 0.18029 0.93597 0.87026 0.0
C526 C 0.20475 0.92426 0.94267 0.0
C527 C 0.22068 0.90097 0.93897 0.0
C528 C 0.19372 0.92354 0.89424 0.0
C529 C 0.2223 0.88923 0.91255 0.0
C530 C 0.19124 0.93401 0.8438 0.0
C531 C 0.14483 0.96371 0.85333 0.0
N532 N 0.20924 0.90085 0.89105 0.0
N533 N 0.15743 0.95064 0.87411 0.0
H534 H 0.27587 0.97002 0.06097 0.0
H535 H 0.35292 0.944 0.20232 0.0
H536 H 0.29399 0.88743 0.08527 0.0
H537 H 0.30344 0.01387 0.18455 0.0
H538 H 0.33952 0.92355 0.15748 0.0
H539 H 0.2956 0.98732 0.10342 0.0
C540 C 0.28411 0.95542 0.07521 0.0
C541 C 0.28274 0.92712 0.06967 0.0
C542 C 0.33169 0.94332 0.16362 0.0
C543 C 0.30547 0.94706 0.11889 0.0
C544 C 0.33933 0.95502 0.1891 0.0
C545 C 0.32918 0.98065 0.19736 0.0
C546 C 0.31434 0.95773 0.14623 0.0
C547 C 0.31165 0.994 0.17938 0.0
C548 C 0.29537 0.96538 0.09956 0.0
C549 C 0.29441 0.90939 0.08881 0.0
N550 N 0.30497 0.98248 0.1548 0.0
N551 N 0.3051 0.91964 0.11281 0.0
H552 H 0.29908 0.31077 0.06725 0.0
H553 H 0.45895 0.2898 0.07863 0.0
H554 H 0.35666 0.35907 0.02223 0.0
H555 H 0.40537 0.27483 0.14625 0.0
H556 H 0.4203 0.30574 0.05153 0.0
H557 H 0.33681 0.28809 0.09063 0.0
C558 C 0.31959 0.31639 0.06211 0.0
C559 C 0.32473 0.33701 0.04298 0.0
C560 C 0.41705 0.29868 0.07223 0.0
C561 C 0.36781 0.31091 0.06911 0.0
C562 C 0.43904 0.28945 0.0876 0.0
C563 C 0.43543 0.28118 0.1148 0.0
C564 C 0.39119 0.29907 0.08393 0.0
C565 C 0.40914 0.2813 0.12545 0.0
C566 C 0.34107 0.30354 0.07546 0.0
C567 C 0.35174 0.34351 0.03708 0.0
N568 N 0.38807 0.29006 0.11003 0.0
N569 N 0.3722 0.33049 0.04998 0.0
H570 H 0.9899 0.84085 0.12802 0.0
H571 H 0.889 0.90225 0.23888 0.0
H572 H 0.95853 0.79179 0.19378 0.0
H573 H 0.95308 0.9505 0.20367 0.0
H574 H 0.90635 0.86142 0.21508 0.0
H575 H 0.96833 0.88121 0.14828 0.0
C576 C 0.97821 0.83851 0.14655 0.0
C577 C 0.97609 0.81298 0.15935 0.0
C578 C 0.91644 0.88102 0.21247 0.0
C579 C 0.9512 0.85897 0.18237 0.0
C580 C 0.9065 0.9043 0.22586 0.0
C581 C 0.91972 0.92973 0.22328 0.0
C582 C 0.93935 0.88335 0.19591 0.0
C583 C 0.9424 0.93125 0.20632 0.0
C584 C 0.96605 0.86156 0.15814 0.0
C585 C 0.96078 0.81115 0.18339 0.0
N586 N 0.95145 0.90839 0.19317 0.0
N587 N 0.94882 0.83385 0.19411 0.0
H588 H 0.19164 0.62067 0.58295 0.0
H589 H 0.07481 0.72866 0.56782 0.0
H590 H 0.20532 0.69615 0.53999 0.0
H591 H 0.08775 0.68741 0.6443 0.0
H592 H 0.11787 0.71034 0.55094 0.0
H593 H 0.14911 0.63902 0.60052 0.0
C594 C 0.18586 0.64127 0.57758 0.0
C595 C 0.20221 0.65711 0.56037 0.0
C596 C 0.11107 0.70516 0.57131 0.0
C597 C 0.15305 0.67763 0.57927 0.0
C598 C 0.08641 0.71528 0.58079 0.0
C599 C 0.07769 0.70936 0.60741 0.0
C600 C 0.12665 0.68847 0.58835 0.0
C601 C 0.09374 0.69237 0.62361 0.0
C602 C 0.16157 0.65164 0.58746 0.0
C603 C 0.19355 0.68351 0.55364 0.0
N604 N 0.11732 0.68235 0.61378 0.0
N605 N 0.16934 0.69281 0.56276 0.0
H606 H 0.99628 0.68482 0.72732 0.0
H607 H 0.87246 0.59033 0.69847 0.0
H608 H 0.96543 0.675 0.64485 0.0
H609 H 0.93333 0.5639 0.75539 0.0
H610 H 0.90436 0.62413 0.68038 0.0
H611 H 0.97244 0.64261 0.74019 0.0
C612 C 0.98488 0.67345 0.71182 0.0
C613 C 0.98275 0.68333 0.685 0.0
C614 C 0.91082 0.61072 0.69661 0.0
C615 C 0.95491 0.63573 0.69977 0.0
C616 C 0.89261 0.59163 0.70708 0.0
C617 C 0.9003 0.57448 0.72853 0.0
C618 C 0.93664 0.61325 0.70823 0.0
C619 C 0.92669 0.57678 0.73882 0.0
C620 C 0.97136 0.64942 0.71916 0.0
C621 C 0.96769 0.66795 0.66569 0.0
N622 N 0.94383 0.59624 0.72892 0.0
N623 N 0.95381 0.64519 0.67361 0.0
H624 H 0.21068 0.21048 0.49909 0.0
H625 H 0.0608 0.20985 0.43864 0.0
H626 H 0.16417 0.13585 0.48774 0.0
H627 H 0.12311 0.26474 0.41029 0.0
H628 H 0.0939 0.18832 0.46898 0.0
H629 H 0.17358 0.23628 0.47886 0.0
C630 C 0.19245 0.1996 0.49288 0.0
C631 C 0.19053 0.17097 0.4949 0.0
C632 C 0.10013 0.20536 0.45639 0.0
C633 C 0.14811 0.20034 0.47205 0.0
C634 C 0.08128 0.21775 0.43925 0.0
C635 C 0.08933 0.23898 0.42185 0.0
C636 C 0.12696 0.21476 0.45655 0.0
C637 C 0.11617 0.24828 0.42324 0.0
C638 C 0.17141 0.21431 0.48122 0.0
C639 C 0.16651 0.15789 0.48636 0.0
N640 N 0.13404 0.23612 0.44029 0.0
N641 N 0.14621 0.17268 0.47525 0.0
H642 H 0.59467 0.42548 0.25112 0.0
H643 H 0.53372 0.34177 0.12412 0.0
H644 H 0.55408 0.46576 0.18461 0.0
H645 H 0.53412 0.3087 0.20575 0.0
H646 H 0.54762 0.38656 0.14342 0.0
H647 H 0.57947 0.381 0.23206 0.0
C648 C 0.58268 0.42495 0.23248 0.0
C649 C 0.57552 0.4493 0.21947 0.0
C650 C 0.54451 0.36948 0.15705 0.0
C651 C 0.55844 0.39874 0.19752 0.0
C652 C 0.53662 0.344 0.14608 0.0
C653 C 0.53271 0.32162 0.1634 0.0
C654 C 0.54911 0.37233 0.1854 0.0
C655 C 0.53677 0.32552 0.19172 0.0
C656 C 0.57391 0.39965 0.22174 0.0
C657 C 0.55986 0.44747 0.1954 0.0
N658 N 0.54504 0.35035 0.20184 0.0
N659 N 0.55201 0.42261 0.18508 0.0
H660 H 0.34928 0.8753 0.99298 0.0
H661 H 0.41189 0.76943 0.89602 0.0
H662 H 0.30371 0.80063 0.97848 0.0
H663 H 0.45889 0.79341 0.96723 0.0
H664 H 0.37122 0.78641 0.91906 0.0
H665 H 0.39012 0.85183 0.97717 0.0
C666 C 0.34799 0.85391 0.98672 0.0
C667 C 0.32327 0.83974 0.98713 0.0
C668 C 0.39045 0.78757 0.92967 0.0
C669 C 0.3693 0.81337 0.96832 0.0
C670 C 0.41354 0.77801 0.9166 0.0
C671 C 0.43859 0.77993 0.9299 0.0
C672 C 0.39274 0.80006 0.95568 0.0
C673 C 0.43982 0.79135 0.95647 0.0
C674 C 0.37118 0.8406 0.97782 0.0
C675 C 0.32251 0.81211 0.97869 0.0
N676 N 0.41725 0.80157 0.96834 0.0
N677 N 0.34514 0.79991 0.96904 0.0
H678 H 0.93947 0.43359 0.76035 0.0
H679 H 0.94073 0.33434 0.88881 0.0
H680 H 0.87065 0.42071 0.8125 0.0
H681 H 0.99329 0.32158 0.81972 0.0
H682 H 0.9185 0.37099 0.86386 0.0
H683 H 0.96261 0.39624 0.78379 0.0
C684 C 0.92911 0.42271 0.77646 0.0
C685 C 0.90307 0.43024 0.78443 0.0
C686 C 0.93495 0.36021 0.85419 0.0
C687 C 0.92961 0.38815 0.81171 0.0
C688 C 0.94779 0.33946 0.86851 0.0
C689 C 0.96883 0.32487 0.85628 0.0
C690 C 0.94345 0.3667 0.82759 0.0
C691 C 0.97707 0.33229 0.82985 0.0
C692 C 0.94235 0.4015 0.78987 0.0
C693 C 0.89066 0.41555 0.80557 0.0
N694 N 0.9644 0.35275 0.81637 0.0
N695 N 0.90414 0.39544 0.81864 0.0
H696 H 0.36734 0.12452 0.52539 0.0
H697 H 0.40601 0.23844 0.63672 0.0
H698 H 0.30933 0.18143 0.55798 0.0
H699 H 0.46508 0.20294 0.58263 0.0
H700 H 0.37027 0.21672 0.60912 0.0
H701 H 0.4035 0.15183 0.54698 0.0
C702 C 0.3622 0.14286 0.53693 0.0
C703 C 0.33521 0.15059 0.54002 0.0
C704 C 0.39103 0.21389 0.60312 0.0
C705 C 0.37653 0.18176 0.56501 0.0
C706 C 0.41146 0.2262 0.61893 0.0
C707 C 0.4386 0.22237 0.61208 0.0
C708 C 0.39773 0.1972 0.58054 0.0
C709 C 0.44444 0.20646 0.58866 0.0
C710 C 0.38288 0.15848 0.54916 0.0
C711 C 0.32982 0.17467 0.55505 0.0
N712 N 0.42418 0.19415 0.57393 0.0
N713 N 0.35025 0.18919 0.56727 0.0
H714 H 0.58541 0.71973 0.32794 0.0
H715 H 0.55694 0.56396 0.29097 0.0
H716 H 0.51553 0.67717 0.35897 0.0
H717 H 0.63799 0.59595 0.29951 0.0
H718 H 0.53982 0.60678 0.31064 0.0
H719 H 0.60381 0.67584 0.31267 0.0
C720 C 0.574 0.70108 0.33164 0.0
C721 C 0.54887 0.70201 0.34464 0.0
C722 C 0.56134 0.60435 0.30828 0.0
C723 C 0.56962 0.6519 0.32681 0.0
C724 C 0.57112 0.58007 0.29686 0.0
C725 C 0.59892 0.57651 0.29354 0.0
C726 C 0.57946 0.62542 0.31589 0.0
C727 C 0.61642 0.59792 0.30171 0.0
C728 C 0.58457 0.67609 0.32302 0.0
C729 C 0.53501 0.67727 0.3491 0.0
N730 N 0.60637 0.62162 0.31229 0.0
N731 N 0.54541 0.65317 0.33983 0.0
H732 H 0.07808 0.74931 0.06497 0.0
H733 H 0.16093 0.88706 0.05915 0.0
H734 H 0.08878 0.8025 0.13584 0.0
H735 H 0.19186 0.81598 0.01662 0.0
H736 H 0.12838 0.85766 0.0823 0.0
H737 H 0.11518 0.77401 0.04224 0.0
C738 C 0.08844 0.76585 0.07588 0.0
C739 C 0.08025 0.77392 0.10231 0.0
C740 C 0.1423 0.84849 0.0679 0.0
C741 C 0.12189 0.80245 0.07627 0.0
C742 C 0.16074 0.86527 0.05451 0.0
C743 C 0.17911 0.85395 0.0359 0.0
C744 C 0.14171 0.82022 0.06226 0.0
C745 C 0.17807 0.82548 0.03091 0.0
C746 C 0.10953 0.77987 0.06292 0.0
C747 C 0.09433 0.79555 0.11548 0.0
N748 N 0.15944 0.80953 0.04383 0.0
N749 N 0.11411 0.80933 0.10217 0.0
H750 H 0.75787 0.89191 0.59253 0.0
H751 H 0.65924 0.98883 0.67887 0.0
H752 H 0.71045 0.95616 0.55691 0.0
H753 H 0.7205 0.93906 0.71602 0.0
H754 H 0.674 0.9729 0.63363 0.0
H755 H 0.74059 0.90489 0.63785 0.0
C756 C 0.74379 0.90864 0.59419 0.0
C757 C 0.73578 0.92307 0.57088 0.0
C758 C 0.68416 0.96546 0.65172 0.0
C759 C 0.71586 0.9379 0.62254 0.0
C760 C 0.6757 0.97449 0.67755 0.0
C761 C 0.68874 0.96544 0.70131 0.0
C762 C 0.70566 0.94706 0.64963 0.0
C763 C 0.70998 0.94682 0.6983 0.0
C764 C 0.734 0.91609 0.62005 0.0
C765 C 0.71745 0.94459 0.57429 0.0
N766 N 0.71776 0.93826 0.67296 0.0
N767 N 0.70812 0.95132 0.59958 0.0
H768 H 0.8341 0.99914 0.32954 0.0
H769 H 0.82909 0.87207 0.43049 0.0
H770 H 0.89977 0.94287 0.33958 0.0
H771 H 0.78262 0.94485 0.44592 0.0
H772 H 0.8506 0.89493 0.39186 0.0
H773 H 0.81105 0.97744 0.36827 0.0
C774 C 0.84378 0.98246 0.34005 0.0
C775 C 0.86892 0.97284 0.33137 0.0
C776 C 0.83562 0.90586 0.40366 0.0
C777 C 0.84245 0.94761 0.37497 0.0
C778 C 0.82319 0.89275 0.42555 0.0
C779 C 0.80415 0.90664 0.44146 0.0
C780 C 0.8287 0.93292 0.3974 0.0
C781 C 0.79733 0.93347 0.43421 0.0
C782 C 0.8306 0.97007 0.36203 0.0
C783 C 0.88049 0.95106 0.34561 0.0
N784 N 0.80958 0.94577 0.41265 0.0
N785 N 0.86705 0.93902 0.3665 0.0
H786 H 0.79512 0.02784 0.05967 0.0
H787 H 0.85112 0.04995 0.21166 0.0
H788 H 0.79257 0.1083 0.0978 0.0
H789 H 0.88553 0.99502 0.15158 0.0
H790 H 0.82041 0.06716 0.17591 0.0
H791 H 0.81784 0.01066 0.09996 0.0
C792 C 0.79911 0.04195 0.07661 0.0
C793 C 0.7924 0.0698 0.07499 0.0
C794 C 0.83465 0.05126 0.17078 0.0
C795 C 0.8185 0.0499 0.12151 0.0
C796 C 0.852 0.04136 0.19107 0.0
C797 C 0.87091 0.02112 0.18445 0.0
C798 C 0.83587 0.04021 0.14407 0.0
C799 C 0.87141 0.01076 0.1575 0.0
C800 C 0.81214 0.03204 0.09963 0.0
C801 C 0.79762 0.08677 0.09804 0.0
N802 N 0.85408 0.0203 0.1384 0.0
N803 N 0.81066 0.07659 0.12037 0.0
H804 H 0.63438 0.06203 0.83905 0.0
H805 H 0.75481 0.0626 0.94747 0.0
H806 H 0.705 0.01221 0.82897 0.0
H807 H 0.7 0.13013 0.94006 0.0
H808 H 0.73483 0.04143 0.90633 0.0
H809 H 0.65549 0.0842 0.87926 0.0
C810 C 0.65421 0.05556 0.84548 0.0
C811 C 0.668 0.03527 0.83072 0.0
C812 C 0.72732 0.06099 0.91356 0.0
C813 C 0.69223 0.06059 0.87645 0.0
C814 C 0.73873 0.0731 0.937 0.0
C815 C 0.729 0.09814 0.94712 0.0
C816 C 0.70573 0.07379 0.90042 0.0
C817 C 0.70815 0.11087 0.9328 0.0
C818 C 0.66631 0.06839 0.86824 0.0
C819 C 0.6937 0.0278 0.83979 0.0
N820 N 0.69696 0.09839 0.91028 0.0
N821 N 0.70498 0.04042 0.86214 0.0
H822 H 0.61729 0.75913 0.89535 0.0
H823 H 0.66091 0.63389 0.98219 0.0
H824 H 0.55753 0.71315 0.9399 0.0
H825 H 0.70925 0.70798 0.98357 0.0
H826 H 0.6234 0.65973 0.96262 0.0
H827 H 0.65266 0.73811 0.92321 0.0
C828 C 0.61163 0.74481 0.91116 0.0
C829 C 0.58449 0.73788 0.9154 0.0
C830 C 0.64212 0.67034 0.96759 0.0
C831 C 0.62472 0.71336 0.94669 0.0
C832 C 0.66349 0.65565 0.97868 0.0
C833 C 0.68814 0.66887 0.98453 0.0
C834 C 0.64578 0.69819 0.96154 0.0
C835 C 0.69049 0.69707 0.97951 0.0
C836 C 0.63176 0.73293 0.92706 0.0
C837 C 0.57822 0.71918 0.93613 0.0
N838 N 0.66974 0.71072 0.96781 0.0
N839 N 0.59822 0.70717 0.9507 0.0
H840 H 0.05661 0.06151 0.79716 0.0
H841 H 0.08307 0.21833 0.83134 0.0
H842 H 0.13714 0.09478 0.80602 0.0
H843 H 0.0128 0.17592 0.86165 0.0
H844 H 0.10209 0.17431 0.81741 0.0
H845 H 0.0387 0.10449 0.81574 0.0
C846 C 0.07051 0.07792 0.8029 0.0
C847 C 0.0984 0.07467 0.79998 0.0
C848 C 0.08263 0.17461 0.82732 0.0
C849 C 0.07803 0.12377 0.82107 0.0
C850 C 0.07171 0.19968 0.83519 0.0
C851 C 0.04629 0.20071 0.84759 0.0
C852 C 0.06776 0.15039 0.83126 0.0
C853 C 0.0325 0.17596 0.85225 0.0
C854 C 0.06028 0.1023 0.81369 0.0
C855 C 0.11551 0.09648 0.80793 0.0
N856 N 0.04326 0.15175 0.84371 0.0
N857 N 0.10504 0.12024 0.81789 0.0
H858 H 0.94528 0.25722 0.45066 0.0
H859 H 0.83574 0.37411 0.44029 0.0
H860 H 0.93274 0.3057 0.37841 0.0
H861 H 0.82384 0.30568 0.49427 0.0
H862 H 0.87537 0.35191 0.42155 0.0
H863 H 0.90389 0.27632 0.47036 0.0
C864 C 0.9337 0.27161 0.43882 0.0
C865 C 0.94252 0.27992 0.41286 0.0
C866 C 0.86413 0.34171 0.4375 0.0
C867 C 0.89571 0.30217 0.43547 0.0
C868 C 0.84158 0.35448 0.4484 0.0
C869 C 0.82639 0.34173 0.46889 0.0
C870 C 0.87193 0.31607 0.44732 0.0
C871 C 0.83497 0.3162 0.47846 0.0
C872 C 0.91015 0.28249 0.45009 0.0
C873 C 0.92677 0.29866 0.39846 0.0
N874 N 0.85729 0.3042 0.46765 0.0
N875 N 0.90436 0.30935 0.41008 0.0
H876 H 0.64496 0.89887 0.79427 0.0
H877 H 0.52538 0.8568 0.8906 0.0
H878 H 0.58443 0.95795 0.81576 0.0
H879 H 0.55541 0.80056 0.82923 0.0
H880 H 0.55056 0.89423 0.86877 0.0
H881 H 0.616 0.86224 0.81193 0.0
C882 C 0.62545 0.90406 0.80258 0.0
C883 C 0.61698 0.9314 0.80354 0.0
C884 C 0.55146 0.8737 0.86006 0.0
C885 C 0.58413 0.88974 0.82438 0.0
C886 C 0.53732 0.85234 0.87258 0.0
C887 C 0.53841 0.82556 0.86172 0.0
C888 C 0.56734 0.86805 0.83699 0.0
C889 C 0.55401 0.82091 0.83824 0.0
C890 C 0.60896 0.88318 0.81257 0.0
C891 C 0.59154 0.93707 0.8145 0.0
N892 N 0.56815 0.84188 0.82685 0.0
N893 N 0.57612 0.91642 0.82493 0.0
H894 H 0.96441 0.19029 0.3644 0.0
H895 H 0.99159 0.05879 0.26844 0.0
H896 H 0.03388 0.17868 0.31276 0.0
H897 H 0.91438 0.07171 0.30656 0.0
H898 H 0.00831 0.10083 0.28966 0.0
H899 H 0.94643 0.14563 0.34789 0.0
C900 C 0.97589 0.17843 0.3497 0.0
C901 C 1.00066 0.18845 0.33987 0.0
C902 C 0.98769 0.09461 0.29351 0.0
C903 C 0.98037 0.13745 0.3212 0.0
C904 C 0.97806 0.07044 0.28135 0.0
C905 C 0.95136 0.06171 0.28538 0.0
C906 C 0.97061 0.11057 0.30992 0.0
C907 C 0.93507 0.07769 0.30276 0.0
C908 C 0.9656 0.15299 0.3403 0.0
C909 C 0.01463 0.17213 0.32085 0.0
N910 N 0.9449 0.1015 0.31427 0.0
N911 N 1.00433 0.14762 0.31226 0.0
H912 H 0.5795 0.04211 0.70203 0.0
H913 H 0.55683 0.19947 0.71937 0.0
H914 H 0.64077 0.09427 0.73916 0.0
H915 H 0.53935 0.16259 0.64026 0.0
H916 H 0.58133 0.15814 0.73217 0.0
H917 H 0.55797 0.08329 0.68329 0.0
C918 C 0.58852 0.06211 0.70601 0.0
C919 C 0.61196 0.06479 0.72212 0.0
C920 C 0.57224 0.1592 0.71196 0.0
C921 C 0.58723 0.11155 0.70154 0.0
C922 C 0.55829 0.18267 0.70469 0.0
C923 C 0.54632 0.18441 0.67869 0.0
C924 C 0.57346 0.13695 0.69346 0.0
C925 C 0.54862 0.16205 0.6604 0.0
C926 C 0.57631 0.08548 0.6953 0.0
C927 C 0.62281 0.0912 0.72674 0.0
N928 N 0.56164 0.13895 0.66827 0.0
N929 N 0.61012 0.11356 0.71692 0.0
H930 H 0.17561 0.40687 0.94803 0.0
H931 H 0.07663 0.27619 0.93566 0.0
H932 H 0.19583 0.32971 0.98495 0.0
H933 H 0.06685 0.35267 0.89366 0.0
H934 H 0.11729 0.29546 0.95858 0.0
H935 H 0.13341 0.3873 0.93237 0.0
C936 C 0.17129 0.38567 0.95291 0.0
C937 C 0.1897 0.36997 0.96785 0.0
C938 C 0.10599 0.30805 0.94459 0.0
C939 C 0.14039 0.34706 0.94953 0.0
C940 C 0.08266 0.29719 0.93176 0.0
C941 C 0.06836 0.31287 0.91269 0.0
C942 C 0.11479 0.3348 0.93843 0.0
C943 C 0.07728 0.33978 0.90807 0.0
C944 C 0.14692 0.37445 0.94388 0.0
C945 C 0.18242 0.3426 0.97341 0.0
N946 N 0.09983 0.34975 0.92069 0.0
N947 N 0.15834 0.33195 0.96417 0.0
H948 H 0.43067 0.70486 0.37836 0.0
H949 H 0.33503 0.67409 0.50648 0.0
H950 H 0.45403 0.72749 0.46105 0.0
H951 H 0.32772 0.63379 0.42741 0.0
H952 H 0.37546 0.69859 0.49003 0.0
H953 H 0.39031 0.68262 0.39596 0.0
C954 C 0.42741 0.70495 0.40032 0.0
C955 C 0.44589 0.71795 0.41825 0.0
C956 C 0.36484 0.6845 0.4763 0.0
C957 C 0.39909 0.69278 0.43867 0.0
C958 C 0.34161 0.67078 0.48556 0.0
C959 C 0.32794 0.65187 0.46828 0.0
C960 C 0.37416 0.67951 0.4495 0.0
C961 C 0.33761 0.64808 0.44149 0.0
C962 C 0.40426 0.69228 0.41038 0.0
C963 C 0.44046 0.71746 0.44653 0.0
N964 N 0.36 0.66171 0.43299 0.0
N965 N 0.41743 0.70524 0.45589 0.0
H966 H 0.87618 0.52073 0.85399 0.0
H967 H 0.77397 0.63174 0.91109 0.0
H968 H 0.81451 0.5552 0.80271 0.0
H969 H 0.80161 0.56552 0.96135 0.0
H970 H 0.79612 0.6106 0.87139 0.0
H971 H 0.85637 0.54389 0.89398 0.0
C972 C 0.85866 0.53341 0.85111 0.0
C973 C 0.8469 0.53604 0.82504 0.0
C974 C 0.79738 0.60079 0.89115 0.0
C975 C 0.82444 0.5627 0.87052 0.0
C976 C 0.78488 0.61286 0.91381 0.0
C977 C 0.78589 0.60027 0.9395 0.0
C978 C 0.81151 0.57629 0.89433 0.0
C979 C 0.80022 0.57578 0.94185 0.0
C980 C 0.8473 0.54644 0.87393 0.0
C981 C 0.82411 0.55257 0.82248 0.0
N982 N 0.81264 0.56464 0.91956 0.0
N983 N 0.81369 0.56542 0.84492 0.0
H984 H 0.67909 0.52263 0.19918 0.0
H985 H 0.70019 0.62279 0.07154 0.0
H986 H 0.62429 0.58717 0.17796 0.0
H987 H 0.74909 0.55175 0.08608 0.0
H988 H 0.67458 0.61245 0.11289 0.0
H989 H 0.70758 0.53566 0.1605 0.0
C990 C 0.67314 0.53968 0.1866 0.0
C991 C 0.6491 0.55367 0.19183 0.0
C992 C 0.69095 0.59916 0.10706 0.0
C993 C 0.68163 0.56864 0.14738 0.0
C994 C 0.70564 0.60507 0.08341 0.0
C995 C 0.72683 0.58808 0.07511 0.0
C996 C 0.69751 0.57613 0.12269 0.0
C997 C 0.73287 0.56539 0.09148 0.0
C998 C 0.68937 0.54703 0.16441 0.0
C999 C 0.64248 0.5756 0.17469 0.0
N1000 N 0.7183 0.56009 0.11441 0.0
N1001 N 0.65857 0.58231 0.15327 0.0
H1002 H 0.73358 0.36832 0.39838 0.0
H1003 H 0.6245 0.47633 0.35031 0.0
H1004 H 0.70189 0.43078 0.45233 0.0
H1005 H 0.68545 0.44687 0.29482 0.0
H1006 H 0.64599 0.45154 0.38756 0.0
H1007 H 0.70939 0.38904 0.35978 0.0
C1008 C 0.72127 0.38615 0.40215 0.0
C1009 C 0.71973 0.39792 0.42854 0.0
C1010 C 0.65456 0.45039 0.3672 0.0
C1011 C 0.69198 0.42138 0.38477 0.0
C1012 C 0.64227 0.46441 0.34587 0.0
C1013 C 0.65328 0.46376 0.31941 0.0
C1014 C 0.6778 0.43514 0.36202 0.0
C1015 C 0.6764 0.44803 0.31495 0.0
C1016 C 0.70767 0.39803 0.38014 0.0
C1017 C 0.7037 0.42114 0.43229 0.0
N1018 N 0.6879 0.43423 0.33606 0.0
N1019 N 0.69034 0.43203 0.41069 0.0
H1020 H 0.80369 0.51278 0.67491 0.0
H1021 H 0.79783 0.38455 0.57253 0.0
H1022 H 0.85111 0.44123 0.6918 0.0
H1023 H 0.77718 0.46741 0.55149 0.0
H1024 H 0.81691 0.40213 0.61637 0.0
H1025 H 0.79189 0.49355 0.6305 0.0
C1026 C 0.81159 0.49285 0.66937 0.0
C1027 C 0.82834 0.47857 0.68739 0.0
C1028 C 0.80848 0.41636 0.60189 0.0
C1029 C 0.81478 0.4562 0.63569 0.0
C1030 C 0.79767 0.40639 0.57687 0.0
C1031 C 0.78546 0.42446 0.55844 0.0
C1032 C 0.80688 0.4445 0.60838 0.0
C1033 C 0.78585 0.45255 0.56516 0.0
C1034 C 0.80496 0.48193 0.64373 0.0
C1035 C 0.83813 0.45295 0.67859 0.0
N1036 N 0.79606 0.46155 0.58953 0.0
N1037 N 0.83102 0.44241 0.65337 0.0
H1038 H 0.43574 0.06698 0.26295 0.0
H1039 H 0.46681 0.17401 0.14466 0.0
H1040 H 0.37571 0.09235 0.20459 0.0
H1041 H 0.49633 0.18727 0.22723 0.0
H1042 H 0.44335 0.13228 0.15984 0.0
H1043 H 0.46761 0.1005 0.24343 0.0
C1044 C 0.42943 0.07936 0.24585 0.0
C1045 C 0.40305 0.07724 0.23551 0.0
C1046 C 0.45551 0.14406 0.17441 0.0
C1047 C 0.43935 0.11461 0.21278 0.0
C1048 C 0.46906 0.16765 0.16575 0.0
C1049 C 0.48336 0.18408 0.1848 0.0
C1050 C 0.45686 0.13663 0.2021 0.0
C1051 C 0.48534 0.17517 0.21199 0.0
C1052 C 0.44753 0.09838 0.2348 0.0
C1053 C 0.39578 0.09368 0.21335 0.0
N1054 N 0.47213 0.15205 0.2199 0.0
N1055 N 0.41387 0.11163 0.20263 0.0
H1056 H 0.04202 0.83859 0.62922 0.0
H1057 H 0.09824 0.92291 0.75815 0.0
H1058 H 0.04197 0.80439 0.71036 0.0
H1059 H 0.05729 0.96217 0.69124 0.0
H1060 H 0.085 0.87804 0.73846 0.0
H1061 H 0.05471 0.88337 0.64928 0.0
C1062 C 0.04467 0.84054 0.65124 0.0
C1063 C 0.04089 0.81787 0.66821 0.0
C1064 C 0.07893 0.89655 0.7282 0.0
C1065 C 0.05584 0.86866 0.6911 0.0
C1066 C 0.08657 0.92208 0.7393 0.0
C1067 C 0.07874 0.94626 0.72635 0.0
C1068 C 0.06396 0.89527 0.70368 0.0
C1069 C 0.06356 0.94403 0.70201 0.0
C1070 C 0.05183 0.86604 0.66264 0.0
C1071 C 0.04455 0.82145 0.69661 0.0
N1072 N 0.05684 0.91898 0.69133 0.0
N1073 N 0.05208 0.84635 0.70719 0.0
H1074 H 0.4457 0.83529 0.39287 0.0
H1075 H 0.44073 0.93702 0.26647 0.0
H1076 H 0.49603 0.82419 0.32179 0.0
H1077 H 0.37407 0.92461 0.32156 0.0
H1078 H 0.4643 0.89909 0.28837 0.0
H1079 H 0.42286 0.87268 0.36967 0.0
C1080 C 0.45215 0.84093 0.3725 0.0
C1081 C 0.47274 0.82661 0.35919 0.0
C1082 C 0.44441 0.90457 0.29545 0.0
C1083 C 0.44663 0.86924 0.33251 0.0
C1084 C 0.43093 0.92613 0.28294 0.0
C1085 C 0.40539 0.93394 0.29218 0.0
C1086 C 0.43244 0.89114 0.31766 0.0
C1087 C 0.39368 0.91921 0.31368 0.0
C1088 C 0.43895 0.8621 0.35919 0.0
C1089 C 0.48019 0.83469 0.33273 0.0
N1090 N 0.40741 0.89872 0.32586 0.0
N1091 N 0.46716 0.85553 0.32024 0.0
H1092 H 0.8062 0.68339 0.04432 0.0
H1093 H 0.96363 0.70064 0.07786 0.0
H1094 H 0.86538 0.62398 0.01936 0.0
H1095 H 0.90109 0.74058 0.12418 0.0
H1096 H 0.9289 0.67902 0.04845 0.0
H1097 H 0.84208 0.71111 0.06579 0.0
C1098 C 0.82675 0.6763 0.04305 0.0
C1099 C 0.83271 0.65113 0.03026 0.0
C1100 C 0.92287 0.69274 0.06491 0.0
C1101 C 0.87387 0.68287 0.05475 0.0
C1102 C 0.94265 0.70519 0.08159 0.0
C1103 C 0.93522 0.72222 0.10368 0.0
C1104 C 0.89554 0.6977 0.07013 0.0
C1105 C 0.90772 0.72733 0.1076 0.0
C1106 C 0.8472 0.69211 0.05541 0.0
C1107 C 0.85979 0.64307 0.02927 0.0
N1108 N 0.8889 0.71508 0.09107 0.0
N1109 N 0.87935 0.65884 0.04145 0.0
H1110 H 0.59686 0.30006 0.63312 0.0
H1111 H 0.6935 0.31218 0.50484 0.0
H1112 H 0.57735 0.25341 0.55955 0.0
H1113 H 0.66897 0.38141 0.5544 0.0
H1114 H 0.66 0.28331 0.52881 0.0
H1115 H 0.63377 0.32223 0.60903 0.0
C1116 C 0.60054 0.29413 0.61198 0.0
C1117 C 0.58373 0.27502 0.59824 0.0
C1118 C 0.66213 0.30483 0.53429 0.0
C1119 C 0.62627 0.3004 0.57062 0.0
C1120 C 0.68121 0.32121 0.5208 0.0
C1121 C 0.68384 0.34922 0.52759 0.0
C1122 C 0.64642 0.31649 0.55519 0.0
C1123 C 0.66744 0.35999 0.54834 0.0
C1124 C 0.62158 0.30692 0.59825 0.0
C1125 C 0.5897 0.26818 0.57083 0.0
N1126 N 0.64965 0.34359 0.56154 0.0
N1127 N 0.61051 0.28097 0.55779 0.0
H1128 H 0.22132 0.38984 0.08237 0.0
H1129 H 0.23406 0.49627 0.20584 0.0
H1130 H 0.26342 0.46707 0.07367 0.0
H1131 H 0.15926 0.45266 0.19061 0.0
H1132 H 0.25102 0.47937 0.16172 0.0
H1133 H 0.2045 0.4058 0.12723 0.0
C1134 C 0.2274 0.4099 0.09015 0.0
C1135 C 0.24381 0.42719 0.07447 0.0
C1136 C 0.23088 0.47359 0.16804 0.0
C1137 C 0.22486 0.44533 0.12532 0.0
C1138 C 0.2212 0.48319 0.19311 0.0
C1139 C 0.19519 0.47594 0.20169 0.0
C1140 C 0.21474 0.45599 0.15178 0.0
C1141 C 0.17932 0.45891 0.18451 0.0
C1142 C 0.21758 0.41907 0.11548 0.0
C1143 C 0.2508 0.45317 0.0852 0.0
N1144 N 0.18948 0.44919 0.16041 0.0
N1145 N 0.24143 0.4614 0.11006 0.0
H1146 H 0.32408 0.49486 0.82441 0.0
H1147 H 0.31181 0.3659 0.92317 0.0
H1148 H 0.38399 0.43181 0.83051 0.0
H1149 H 0.27626 0.44363 0.94438 0.0
H1150 H 0.33069 0.38648 0.88192 0.0
H1151 H 0.29927 0.47331 0.86233 0.0
C1152 C 0.33195 0.47653 0.83367 0.0
C1153 C 0.35621 0.46523 0.82452 0.0
C1154 C 0.31855 0.39895 0.89551 0.0
C1155 C 0.32785 0.44031 0.86705 0.0
C1156 C 0.30766 0.38719 0.91894 0.0
C1157 C 0.29269 0.40316 0.93731 0.0
C1158 C 0.31416 0.42679 0.89022 0.0
C1159 C 0.28792 0.43068 0.93082 0.0
C1160 C 0.31785 0.4643 0.85522 0.0
C1161 C 0.36553 0.4414 0.83711 0.0
N1162 N 0.2987 0.4417 0.9078 0.0
N1163 N 0.35128 0.42969 0.85759 0.0
H1164 H 0.28112 0.59956 0.60207 0.0
H1165 H 0.41481 0.52707 0.65542 0.0
H1166 H 0.33925 0.5593 0.55026 0.0
H1167 H 0.34626 0.53773 0.70853 0.0
H1168 H 0.38921 0.54637 0.61793 0.0
H1169 H 0.30648 0.58406 0.64268 0.0
C1170 C 0.29919 0.58765 0.59924 0.0
C1171 C 0.30795 0.58052 0.57275 0.0
C1172 C 0.3797 0.54452 0.63777 0.0
C1173 C 0.33695 0.56316 0.61869 0.0
C1174 C 0.39436 0.53353 0.65929 0.0
C1175 C 0.38268 0.53056 0.68523 0.0
C1176 C 0.35307 0.55288 0.64203 0.0
C1177 C 0.35602 0.53942 0.68882 0.0
C1178 C 0.31352 0.57873 0.62233 0.0
C1179 C 0.33148 0.56503 0.57022 0.0
N1180 N 0.34207 0.55022 0.66743 0.0
N1181 N 0.3451 0.55699 0.59279 0.0
H1182 H 0.13551 0.56688 0.33948 0.0
H1183 H 0.25387 0.5636 0.45027 0.0
H1184 H 0.20751 0.51952 0.32775 0.0
H1185 H 0.19973 0.63181 0.44377 0.0
H1186 H 0.23412 0.54358 0.40837 0.0
H1187 H 0.15541 0.58703 0.38139 0.0
C1188 C 0.1554 0.56057 0.34585 0.0
C1189 C 0.16993 0.54156 0.33017 0.0
C1190 C 0.22668 0.56299 0.41605 0.0
C1191 C 0.1927 0.56441 0.3779 0.0
C1192 C 0.23791 0.57442 0.43993 0.0
C1193 C 0.22843 0.59941 0.45041 0.0
C1194 C 0.2055 0.57642 0.40284 0.0
C1195 C 0.2077 0.61257 0.43625 0.0
C1196 C 0.1668 0.5722 0.36961 0.0
C1197 C 0.19567 0.53418 0.33923 0.0
N1198 N 0.19674 0.60079 0.41326 0.0
N1199 N 0.20622 0.54555 0.36258 0.0
loop_
_geom_bond_atom_site_label_1
_geom_bond_atom_site_label_2
_geom_bond_distance
_geom_bond_site_symmetry_2
_ccdc_geom_bond_type
Co0 O1 2.216 1_455 S
Co0 O2 2.091 1_455 S
Co0 O4 2.004 . S
Co0 O10 2.021 1_455 S
Co0 O12 2.137 . S
Co0 O13 2.244 . S
O1 Co0 2.216 1_655 S
O1 C8 1.247 . S
O2 Co0 2.091 1_655 S
O2 C8 1.261 . S
C3 O12 1.247 . S
C3 O13 1.272 . S
O4 Co0 2.004 . S
O4 C9 1.259 . S
Co5 O6 2.061 . S
Co5 O11 2.052 . S
Co5 O13 2.135 . S
O6 Co5 2.061 . S
O6 C9 1.235 . S
C7 O10 1.238 . S
C7 O11 1.241 1_655 S
C8 O1 1.247 . S
C8 O2 1.261 . S
C9 O4 1.259 . S
C9 O6 1.235 . S
O10 Co0 2.021 1_655 S
O10 C7 1.238 . S
O11 Co5 2.052 . S
O11 C7 1.241 1_455 S
O12 Co0 2.137 . S
O12 C3 1.247 . S
O13 Co0 2.244 . S
O13 C3 1.272 . S
O13 Co5 2.135 . S
Co14 O15 2.216 . S
Co14 O16 2.091 . S
Co14 O18 2.004 1_455 S
Co14 O24 2.021 1_455 S
Co14 O26 2.137 . S
Co14 O27 2.244 . S
O15 Co14 2.216 . S
O15 C22 1.247 . S
O16 Co14 2.091 . S
O16 C22 1.261 . S
C17 O26 1.247 . S
C17 O27 1.272 . S
O18 Co14 2.004 1_655 S
O18 C23 1.259 . S
Co19 O20 2.061 . S
Co19 O25 2.052 . S
Co19 O27 2.135 1_655 S
O20 Co19 2.061 . S
O20 C23 1.235 . S
C21 O24 1.238 . S
C21 O25 1.241 . S
C22 O15 1.247 . S
C22 O16 1.261 . S
C23 O18 1.259 . S
C23 O20 1.235 . S
O24 Co14 2.021 1_655 S
O24 C21 1.238 . S
O25 Co19 2.052 . S
O25 C21 1.241 . S
O26 Co14 2.137 . S
O26 C17 1.247 . S
O27 Co14 2.244 . S
O27 C17 1.272 . S
O27 Co19 2.135 1_455 S
Co28 O29 2.216 . S
Co28 O30 2.091 . S
Co28 O32 2.004 . S
Co28 O38 2.021 . S
Co28 O40 2.137 . S
Co28 O41 2.244 . S
O29 Co28 2.216 . S
O29 C36 1.247 . S
O30 Co28 2.091 . S
O30 C36 1.261 . S
C31 O40 1.247 . S
C31 O41 1.272 . S
O32 Co28 2.004 . S
O32 C37 1.259 . S
Co33 O34 2.061 . S
Co33 O39 2.052 . S
Co33 O41 2.135 . S
O34 Co33 2.061 . S
O34 C37 1.235 . S
C35 O38 1.238 . S
C35 O39 1.241 . S
C36 O29 1.247 . S
C36 O30 1.261 . S
C37 O32 1.259 . S
C37 O34 1.235 . S
O38 Co28 2.021 . S
O38 C35 1.238 . S
O39 Co33 2.052 . S
O39 C35 1.241 . S
O40 Co28 2.137 . S
O40 C31 1.247 . S
O41 Co28 2.244 . S
O41 C31 1.272 . S
O41 Co33 2.135 . S
Co42 O43 2.216 . S
Co42 O44 2.091 . S
Co42 O46 2.004 . S
Co42 O52 2.021 . S
Co42 O54 2.137 . S
Co42 O55 2.244 . S
O43 Co42 2.216 . S
O43 C50 1.247 . S
O44 Co42 2.091 . S
O44 C50 1.261 . S
C45 O54 1.247 . S
C45 O55 1.272 . S
O46 Co42 2.004 . S
O46 C51 1.259 . S
Co47 O48 2.061 . S
Co47 O53 2.052 . S
Co47 O55 2.135 . S
O48 Co47 2.061 . S
O48 C51 1.235 . S
C49 O52 1.238 . S
C49 O53 1.241 . S
C50 O43 1.247 . S
C50 O44 1.261 . S
C51 O46 1.259 . S
C51 O48 1.235 . S
O52 Co42 2.021 . S
O52 C49 1.238 . S
O53 Co47 2.052 . S
O53 C49 1.241 . S
O54 Co42 2.137 . S
O54 C45 1.247 . S
O55 Co42 2.244 . S
O55 C45 1.272 . S
O55 Co47 2.135 . S
Co56 O57 2.216 . S
Co56 O58 2.091 . S
Co56 O60 2.004 1_455 S
Co56 O66 2.021 . S
Co56 O68 2.137 1_455 S
Co56 O69 2.244 1_455 S
O57 Co56 2.216 . S
O57 C64 1.247 . S
O58 Co56 2.091 . S
O58 C64 1.261 . S
C59 O68 1.247 . S
C59 O69 1.272 . S
O60 Co56 2.004 1_655 S
O60 C65 1.259 . S
Co61 O62 2.061 . S
Co61 O67 2.052 1_655 S
Co61 O69 2.135 . S
O62 Co61 2.061 . S
O62 C65 1.235 . S
C63 O66 1.238 . S
C63 O67 1.241 . S
C64 O57 1.247 . S
C64 O58 1.261 . S
C65 O60 1.259 . S
C65 O62 1.235 . S
O66 Co56 2.021 . S
O66 C63 1.238 . S
O67 Co61 2.052 1_455 S
O67 C63 1.241 . S
O68 Co56 2.137 1_655 S
O68 C59 1.247 . S
O69 Co56 2.244 1_655 S
O69 C59 1.272 . S
O69 Co61 2.135 . S
Co70 O71 2.216 . S
Co70 O72 2.091 . S
Co70 O74 2.004 . S
Co70 O80 2.021 . S
Co70 O82 2.137 . S
Co70 O83 2.244 . S
O71 Co70 2.216 . S
O71 C78 1.247 . S
O72 Co70 2.091 . S
O72 C78 1.261 . S
C73 O82 1.247 . S
C73 O83 1.272 . S
O74 Co70 2.004 . S
O74 C79 1.259 . S
Co75 O76 2.061 . S
Co75 O81 2.052 . S
Co75 O83 2.135 . S
O76 Co75 2.061 . S
O76 C79 1.235 . S
C77 O80 1.238 . S
C77 O81 1.241 . S
C78 O71 1.247 . S
C78 O72 1.261 . S
C79 O74 1.259 . S
C79 O76 1.235 . S
O80 Co70 2.021 . S
O80 C77 1.238 . S
O81 Co75 2.052 . S
O81 C77 1.241 . S
O82 Co70 2.137 . S
O82 C73 1.247 . S
O83 Co70 2.244 . S
O83 C73 1.272 . S
O83 Co75 2.135 . S
Co84 O85 2.216 . S
Co84 O86 2.091 . S
Co84 O88 2.004 . S
Co84 O94 2.021 . S
Co84 O96 2.137 . S
Co84 O97 2.244 . S
O85 Co84 2.216 . S
O85 C92 1.247 . S
O86 Co84 2.091 . S
O86 C92 1.261 . S
C87 O96 1.247 . S
C87 O97 1.272 . S
O88 Co84 2.004 . S
O88 C93 1.259 . S
Co89 O90 2.061 . S
Co89 O95 2.052 . S
Co89 O97 2.135 . S
O90 Co89 2.061 . S
O90 C93 1.235 . S
C91 O94 1.238 . S
C91 O95 1.241 . S
C92 O85 1.247 . S
C92 O86 1.261 . S
C93 O88 1.259 . S
C93 O90 1.235 . S
O94 Co84 2.021 . S
O94 C91 1.238 . S
O95 Co89 2.052 . S
O95 C91 1.241 . S
O96 Co84 2.137 . S
O96 C87 1.247 . S
O97 Co84 2.244 . S
O97 C87 1.272 . S
O97 Co89 2.135 . S
Co98 O99 2.216 . S
Co98 O100 2.091 . S
Co98 O102 2.004 1_655 S
Co98 O108 2.021 1_655 S
Co98 O110 2.137 . S
Co98 O111 2.244 1_655 S
O99 Co98 2.216 . S
O99 C106 1.247 . S
O100 Co98 2.091 . S
O100 C106 1.261 . S
C101 O110 1.247 . S
C101 O111 1.272 1_655 S
O102 Co98 2.004 1_455 S
O102 C107 1.259 . S
Co103 O104 2.061 . S
Co103 O109 2.052 . S
Co103 O111 2.135 . S
O104 Co103 2.061 . S
O104 C107 1.235 . S
C105 O108 1.238 . S
C105 O109 1.241 . S
C106 O99 1.247 . S
C106 O100 1.261 . S
C107 O102 1.259 . S
C107 O104 1.235 . S
O108 Co98 2.021 1_455 S
O108 C105 1.238 . S
O109 Co103 2.052 . S
O109 C105 1.241 . S
O110 Co98 2.137 . S
O110 C101 1.247 . S
O111 Co98 2.244 1_455 S
O111 C101 1.272 1_455 S
O111 Co103 2.135 . S
Co112 O113 2.216 . S
Co112 O114 2.091 . S
Co112 O116 2.004 1_565 S
Co112 O122 2.021 . S
Co112 O124 2.137 1_565 S
Co112 O125 2.244 1_565 S
O113 Co112 2.216 . S
O113 C120 1.247 . S
O114 Co112 2.091 . S
O114 C120 1.261 . S
C115 O124 1.247 . S
C115 O125 1.272 . S
O116 Co112 2.004 1_545 S
O116 C121 1.259 . S
Co117 O118 2.061 . S
Co117 O123 2.052 . S
Co117 O125 2.135 . S
O118 Co117 2.061 . S
O118 C121 1.235 . S
C119 O122 1.238 . S
C119 O123 1.241 1_565 S
C120 O113 1.247 . S
C120 O114 1.261 . S
C121 O116 1.259 . S
C121 O118 1.235 . S
O122 Co112 2.021 . S
O122 C119 1.238 . S
O123 Co117 2.052 . S
O123 C119 1.241 1_545 S
O124 Co112 2.137 1_545 S
O124 C115 1.247 . S
O125 Co112 2.244 1_545 S
O125 C115 1.272 . S
O125 Co117 2.135 . S
Co126 O127 2.216 . S
Co126 O128 2.091 . S
Co126 O130 2.004 . S
Co126 O136 2.021 . S
Co126 O138 2.137 . S
Co126 O139 2.244 . S
O127 Co126 2.216 . S
O127 C134 1.247 . S
O128 Co126 2.091 . S
O128 C134 1.261 . S
C129 O138 1.247 . S
C129 O139 1.272 . S
O130 Co126 2.004 . S
O130 C135 1.259 . S
Co131 O132 2.061 . S
Co131 O137 2.052 . S
Co131 O139 2.135 . S
O132 Co131 2.061 . S
O132 C135 1.235 . S
C133 O136 1.238 . S
C133 O137 1.241 . S
C134 O127 1.247 . S
C134 O128 1.261 . S
C135 O130 1.259 . S
C135 O132 1.235 . S
O136 Co126 2.021 . S
O136 C133 1.238 . S
O137 Co131 2.052 . S
O137 C133 1.241 . S
O138 Co126 2.137 . S
O138 C129 1.247 . S
O139 Co126 2.244 . S
O139 C129 1.272 . S
O139 Co131 2.135 . S
Co140 O141 2.216 1_545 S
Co140 O142 2.091 1_545 S
Co140 O144 2.004 . S
Co140 O150 2.021 1_545 S
Co140 O152 2.137 . S
Co140 O153 2.244 . S
O141 Co140 2.216 1_565 S
O141 C148 1.247 . S
O142 Co140 2.091 1_565 S
O142 C148 1.261 . S
C143 O152 1.247 . S
C143 O153 1.272 . S
O144 Co140 2.004 . S
O144 C149 1.259 . S
Co145 O146 2.061 . S
Co145 O151 2.052 1_545 S
Co145 O153 2.135 . S
O146 Co145 2.061 . S
O146 C149 1.235 . S
C147 O150 1.238 . S
C147 O151 1.241 . S
C148 O141 1.247 . S
C148 O142 1.261 . S
C149 O144 1.259 . S
C149 O146 1.235 . S
O150 Co140 2.021 1_565 S
O150 C147 1.238 . S
O151 Co145 2.052 1_565 S
O151 C147 1.241 . S
O152 Co140 2.137 . S
O152 C143 1.247 . S
O153 Co140 2.244 . S
O153 C143 1.272 . S
O153 Co145 2.135 . S
Co154 O155 2.216 1_554 S
Co154 O156 2.091 1_554 S
Co154 O158 2.004 . S
Co154 O164 2.021 . S
Co154 O166 2.137 1_554 S
Co154 O167 2.244 1_554 S
O155 Co154 2.216 1_556 S
O155 C162 1.247 . S
O156 Co154 2.091 1_556 S
O156 C162 1.261 . S
C157 O166 1.247 . S
C157 O167 1.272 . S
O158 Co154 2.004 . S
O158 C163 1.259 . S
Co159 O160 2.061 . S
Co159 O165 2.052 . S
Co159 O167 2.135 1_554 S
O160 Co159 2.061 . S
O160 C163 1.235 . S
C161 O164 1.238 . S
C161 O165 1.241 . S
C162 O155 1.247 . S
C162 O156 1.261 . S
C163 O158 1.259 . S
C163 O160 1.235 . S
O164 Co154 2.021 . S
O164 C161 1.238 . S
O165 Co159 2.052 . S
O165 C161 1.241 . S
O166 Co154 2.137 1_556 S
O166 C157 1.247 . S
O167 Co154 2.244 1_556 S
O167 C157 1.272 . S
O167 Co159 2.135 1_556 S
Co168 O169 2.216 . S
Co168 O170 2.091 . S
Co168 O172 2.004 1_554 S
Co168 O178 2.021 . S
Co168 O180 2.137 1_554 S
Co168 O181 2.244 1_554 S
O169 Co168 2.216 . S
O169 C176 1.247 . S
O170 Co168 2.091 . S
O170 C176 1.261 . S
C171 O180 1.247 . S
C171 O181 1.272 . S
O172 Co168 2.004 1_556 S
O172 C177 1.259 . S
Co173 O174 2.061 . S
Co173 O179 2.052 1_556 S
Co173 O181 2.135 . S
O174 Co173 2.061 . S
O174 C177 1.235 . S
C175 O178 1.238 . S
C175 O179 1.241 . S
C176 O169 1.247 . S
C176 O170 1.261 . S
C177 O172 1.259 . S
C177 O174 1.235 . S
O178 Co168 2.021 . S
O178 C175 1.238 . S
O179 Co173 2.052 1_554 S
O179 C175 1.241 . S
O180 Co168 2.137 1_556 S
O180 C171 1.247 . S
O181 Co168 2.244 1_556 S
O181 C171 1.272 . S
O181 Co173 2.135 . S
Co182 O183 2.216 . S
Co182 O184 2.091 . S
Co182 O186 2.004 1_554 S
Co182 O192 2.021 . S
Co182 O194 2.137 1_554 S
Co182 O195 2.244 1_554 S
O183 Co182 2.216 . S
O183 C190 1.247 . S
O184 Co182 2.091 . S
O184 C190 1.261 . S
C185 O194 1.247 . S
C185 O195 1.272 . S
O186 Co182 2.004 1_556 S
O186 C191 1.259 . S
Co187 O188 2.061 . S
Co187 O193 2.052 1_556 S
Co187 O195 2.135 . S
O188 Co187 2.061 . S
O188 C191 1.235 . S
C189 O192 1.238 . S
C189 O193 1.241 . S
C190 O183 1.247 . S
C190 O184 1.261 . S
C191 O186 1.259 . S
C191 O188 1.235 . S
O192 Co182 2.021 . S
O192 C189 1.238 . S
O193 Co187 2.052 1_554 S
O193 C189 1.241 . S
O194 Co182 2.137 1_556 S
O194 C185 1.247 . S
O195 Co182 2.244 1_556 S
O195 C185 1.272 . S
O195 Co187 2.135 . S
Co196 O197 2.216 . S
Co196 O198 2.091 . S
Co196 O200 2.004 . S
Co196 O206 2.021 . S
Co196 O208 2.137 . S
Co196 O209 2.244 . S
O197 Co196 2.216 . S
O197 C204 1.247 . S
O198 Co196 2.091 . S
O198 C204 1.261 . S
C199 O208 1.247 . S
C199 O209 1.272 . S
O200 Co196 2.004 . S
O200 C205 1.259 . S
Co201 O202 2.061 . S
Co201 O207 2.052 . S
Co201 O209 2.135 . S
O202 Co201 2.061 . S
O202 C205 1.235 . S
C203 O206 1.238 . S
C203 O207 1.241 . S
C204 O197 1.247 . S
C204 O198 1.261 . S
C205 O200 1.259 . S
C205 O202 1.235 . S
O206 Co196 2.021 . S
O206 C203 1.238 . S
O207 Co201 2.052 . S
O207 C203 1.241 . S
O208 Co196 2.137 . S
O208 C199 1.247 . S
O209 Co196 2.244 . S
O209 C199 1.272 . S
O209 Co201 2.135 . S
Co210 O211 2.216 . S
Co210 O212 2.091 . S
Co210 O214 2.004 . S
Co210 O220 2.021 . S
Co210 O222 2.137 . S
Co210 O223 2.244 . S
O211 Co210 2.216 . S
O211 C218 1.247 . S
O212 Co210 2.091 . S
O212 C218 1.261 . S
C213 O222 1.247 . S
C213 O223 1.272 . S
O214 Co210 2.004 . S
O214 C219 1.259 . S
Co215 O216 2.061 . S
Co215 O221 2.052 . S
Co215 O223 2.135 . S
O216 Co215 2.061 . S
O216 C219 1.235 . S
C217 O220 1.238 . S
C217 O221 1.241 . S
C218 O211 1.247 . S
C218 O212 1.261 . S
C219 O214 1.259 . S
C219 O216 1.235 . S
O220 Co210 2.021 . S
O220 C217 1.238 . S
O221 Co215 2.052 . S
O221 C217 1.241 . S
O222 Co210 2.137 . S
O222 C213 1.247 . S
O223 Co210 2.244 . S
O223 C213 1.272 . S
O223 Co215 2.135 . S
Co224 O225 2.216 . S
Co224 O226 2.091 . S
Co224 O228 2.004 1_565 S
Co224 O234 2.021 1_565 S
Co224 O236 2.137 . S
Co224 O237 2.244 . S
O225 Co224 2.216 . S
O225 C232 1.247 . S
O226 Co224 2.091 . S
O226 C232 1.261 . S
C227 O236 1.247 . S
C227 O237 1.272 . S
O228 Co224 2.004 1_545 S
O228 C233 1.259 . S
Co229 O230 2.061 . S
Co229 O235 2.052 . S
Co229 O237 2.135 1_545 S
O230 Co229 2.061 . S
O230 C233 1.235 . S
C231 O234 1.238 . S
C231 O235 1.241 . S
C232 O225 1.247 . S
C232 O226 1.261 . S
C233 O228 1.259 . S
C233 O230 1.235 . S
O234 Co224 2.021 1_545 S
O234 C231 1.238 . S
O235 Co229 2.052 . S
O235 C231 1.241 . S
O236 Co224 2.137 . S
O236 C227 1.247 . S
O237 Co224 2.244 . S
O237 C227 1.272 . S
O237 Co229 2.135 1_565 S
Co238 O239 2.216 . S
Co238 O240 2.091 . S
Co238 O242 2.004 . S
Co238 O248 2.021 . S
Co238 O250 2.137 . S
Co238 O251 2.244 . S
O239 Co238 2.216 . S
O239 C246 1.247 . S
O240 Co238 2.091 . S
O240 C246 1.261 . S
C241 O250 1.247 . S
C241 O251 1.272 . S
O242 Co238 2.004 . S
O242 C247 1.259 . S
Co243 O244 2.061 . S
Co243 O249 2.052 . S
Co243 O251 2.135 . S
O244 Co243 2.061 . S
O244 C247 1.235 . S
C245 O248 1.238 . S
C245 O249 1.241 . S
C246 O239 1.247 . S
C246 O240 1.261 . S
C247 O242 1.259 . S
C247 O244 1.235 . S
O248 Co238 2.021 . S
O248 C245 1.238 . S
O249 Co243 2.052 . S
O249 C245 1.241 . S
O250 Co238 2.137 . S
O250 C241 1.247 . S
O251 Co238 2.244 . S
O251 C241 1.272 . S
O251 Co243 2.135 . S
Co252 O253 2.216 . S
Co252 O254 2.091 . S
Co252 O256 2.004 . S
Co252 O262 2.021 . S
Co252 O264 2.137 . S
Co252 O265 2.244 . S
O253 Co252 2.216 . S
O253 C260 1.247 . S
O254 Co252 2.091 . S
O254 C260 1.261 . S
C255 O264 1.247 . S
C255 O265 1.272 . S
O256 Co252 2.004 . S
O256 C261 1.259 . S
Co257 O258 2.061 . S
Co257 O263 2.052 . S
Co257 O265 2.135 . S
O258 Co257 2.061 . S
O258 C261 1.235 . S
C259 O262 1.238 . S
C259 O263 1.241 . S
C260 O253 1.247 . S
C260 O254 1.261 . S
C261 O256 1.259 . S
C261 O258 1.235 . S
O262 Co252 2.021 . S
O262 C259 1.238 . S
O263 Co257 2.052 . S
O263 C259 1.241 . S
O264 Co252 2.137 . S
O264 C255 1.247 . S
O265 Co252 2.244 . S
O265 C255 1.272 . S
O265 Co257 2.135 . S
Co266 O267 2.216 . S
Co266 O268 2.091 . S
Co266 O270 2.004 1_545 S
Co266 O276 2.021 1_545 S
Co266 O278 2.137 . S
Co266 O279 2.244 . S
O267 Co266 2.216 . S
O267 C274 1.247 . S
O268 Co266 2.091 . S
O268 C274 1.261 . S
C269 O278 1.247 . S
C269 O279 1.272 . S
O270 Co266 2.004 1_565 S
O270 C275 1.259 . S
Co271 O272 2.061 . S
Co271 O277 2.052 . S
Co271 O279 2.135 1_565 S
O272 Co271 2.061 . S
O272 C275 1.235 . S
C273 O276 1.238 . S
C273 O277 1.241 . S
C274 O267 1.247 . S
C274 O268 1.261 . S
C275 O270 1.259 . S
C275 O272 1.235 . S
O276 Co266 2.021 1_565 S
O276 C273 1.238 . S
O277 Co271 2.052 . S
O277 C273 1.241 . S
O278 Co266 2.137 . S
O278 C269 1.247 . S
O279 Co266 2.244 . S
O279 C269 1.272 . S
O279 Co271 2.135 1_545 S
Co280 O281 2.228 . S
Co280 O282 2.097 . S
Co280 O284 1.994 1_556 S
Co280 O290 1.995 1_556 S
Co280 O292 2.164 . S
Co280 O293 2.251 . S
O281 Co280 2.228 . S
O281 C288 1.247 . S
O282 Co280 2.097 . S
O282 C288 1.261 . S
C283 O292 1.247 . S
C283 O293 1.272 . S
O284 Co280 1.994 1_554 S
O284 C289 1.259 . S
Co285 O286 2.061 . S
Co285 O291 2.052 . S
Co285 O293 2.135 1_554 S
O286 Co285 2.061 . S
O286 C289 1.235 . S
C287 O290 1.238 . S
C287 O291 1.241 . S
C288 O281 1.247 . S
C288 O282 1.261 . S
C289 O284 1.259 . S
C289 O286 1.235 . S
O290 Co280 1.995 1_554 S
O290 C287 1.238 . S
O291 Co285 2.052 . S
O291 C287 1.241 . S
O292 Co280 2.164 . S
O292 C283 1.247 . S
O293 Co280 2.251 . S
O293 C283 1.272 . S
O293 Co285 2.135 1_556 S
Co294 O295 2.216 . S
Co294 O296 2.091 . S
Co294 O298 2.004 . S
Co294 O304 2.021 . S
Co294 O306 2.137 . S
Co294 O307 2.244 . S
O295 Co294 2.216 . S
O295 C302 1.247 . S
O296 Co294 2.091 . S
O296 C302 1.261 . S
C297 O306 1.247 . S
C297 O307 1.272 . S
O298 Co294 2.004 . S
O298 C303 1.259 . S
Co299 O300 2.061 . S
Co299 O305 2.052 . S
Co299 O307 2.135 . S
O300 Co299 2.061 . S
O300 C303 1.235 . S
C301 O304 1.238 . S
C301 O305 1.241 . S
C302 O295 1.247 . S
C302 O296 1.261 . S
C303 O298 1.259 . S
C303 O300 1.235 . S
O304 Co294 2.021 . S
O304 C301 1.238 . S
O305 Co299 2.052 . S
O305 C301 1.241 . S
O306 Co294 2.137 . S
O306 C297 1.247 . S
O307 Co294 2.244 . S
O307 C297 1.272 . S
O307 Co299 2.135 . S
Co308 O309 2.216 . S
Co308 O310 2.091 . S
Co308 O312 2.004 . S
Co308 O318 2.021 . S
Co308 O320 2.137 . S
Co308 O321 2.244 . S
O309 Co308 2.216 . S
O309 C316 1.247 . S
O310 Co308 2.091 . S
O310 C316 1.261 . S
C311 O320 1.247 . S
C311 O321 1.272 . S
O312 Co308 2.004 . S
O312 C317 1.259 . S
Co313 O314 2.061 . S
Co313 O319 2.052 . S
Co313 O321 2.135 . S
O314 Co313 2.061 . S
O314 C317 1.235 . S
C315 O318 1.238 . S
C315 O319 1.241 . S
C316 O309 1.247 . S
C316 O310 1.261 . S
C317 O312 1.259 . S
C317 O314 1.235 . S
O318 Co308 2.021 . S
O318 C315 1.238 . S
O319 Co313 2.052 . S
O319 C315 1.241 . S
O320 Co308 2.137 . S
O320 C311 1.247 . S
O321 Co308 2.244 . S
O321 C311 1.272 . S
O321 Co313 2.135 . S
Co322 O323 2.216 . S
Co322 O324 2.091 . S
Co322 O326 2.004 . S
Co322 O332 2.021 . S
Co322 O334 2.137 . S
Co322 O335 2.244 . S
O323 Co322 2.216 . S
O323 C330 1.247 . S
O324 Co322 2.091 . S
O324 C330 1.261 . S
C325 O334 1.247 . S
C325 O335 1.272 . S
O326 Co322 2.004 . S
O326 C331 1.259 . S
Co327 O328 2.061 . S
Co327 O333 2.052 . S
Co327 O335 2.135 . S
O328 Co327 2.061 . S
O328 C331 1.235 . S
C329 O332 1.238 . S
C329 O333 1.241 . S
C330 O323 1.247 . S
C330 O324 1.261 . S
C331 O326 1.259 . S
C331 O328 1.235 . S
O332 Co322 2.021 . S
O332 C329 1.238 . S
O333 Co327 2.052 . S
O333 C329 1.241 . S
O334 Co322 2.137 . S
O334 C325 1.247 . S
O335 Co322 2.244 . S
O335 C325 1.272 . S
O335 Co327 2.135 . S
H336 C342 0.930 . S
H337 C346 0.930 . S
H338 C351 0.929 . S
H339 C349 0.929 . S
H340 C344 0.929 . S
H341 C350 0.929 . S
C342 H336 0.930 . S
C342 C343 1.367 . S
C342 C350 1.378 . S
C343 C342 1.367 . S
C343 C351 1.433 . S
C344 H340 0.929 . S
C344 C346 1.378 . S
C344 C348 1.350 . S
C345 C348 1.463 . S
C345 C350 1.350 . S
C345 N353 1.427 . S
C346 H337 0.930 . S
C346 C344 1.378 . S
C346 C347 1.367 . S
C347 C346 1.367 . S
C347 C349 1.433 . S
C348 C344 1.350 . S
C348 C345 1.463 . S
C348 N352 1.427 . S
C349 H339 0.929 . S
C349 C347 1.433 . S
C349 N352 1.384 . S
C350 H341 0.929 . S
C350 C342 1.378 . S
C350 C345 1.350 . S
C351 H338 0.929 . S
C351 C343 1.433 . S
C351 N353 1.384 . S
N352 C348 1.427 . S
N352 C349 1.384 . S
N353 C345 1.427 . S
N353 C351 1.384 . S
H354 C360 0.930 . S
H355 C364 0.930 . S
H356 C369 0.929 . S
H357 C367 0.929 . S
H358 C362 0.929 . S
H359 C368 0.929 . S
C360 H354 0.930 . S
C360 C361 1.367 . S
C360 C368 1.378 . S
C361 C360 1.367 . S
C361 C369 1.433 . S
C362 H358 0.929 . S
C362 C364 1.378 . S
C362 C366 1.350 . S
C363 C366 1.463 . S
C363 C368 1.350 . S
C363 N371 1.427 . S
C364 H355 0.930 . S
C364 C362 1.378 . S
C364 C365 1.367 . S
C365 C364 1.367 . S
C365 C367 1.433 . S
C366 C362 1.350 . S
C366 C363 1.463 . S
C366 N370 1.427 . S
C367 H357 0.929 . S
C367 C365 1.433 . S
C367 N370 1.384 . S
C368 H359 0.929 . S
C368 C360 1.378 . S
C368 C363 1.350 . S
C369 H356 0.929 . S
C369 C361 1.433 . S
C369 N371 1.384 . S
N370 C366 1.427 . S
N370 C367 1.384 . S
N371 C363 1.427 . S
N371 C369 1.384 . S
H372 C378 0.930 . S
H373 C382 0.930 . S
H374 C387 0.929 . S
H375 C385 0.929 . S
H376 C380 0.929 . S
H377 C386 0.929 . S
C378 H372 0.930 . S
C378 C379 1.367 . S
C378 C386 1.378 . S
C379 C378 1.367 . S
C379 C387 1.433 . S
C380 H376 0.929 . S
C380 C382 1.378 . S
C380 C384 1.350 . S
C381 C384 1.463 . S
C381 C386 1.350 . S
C381 N389 1.427 . S
C382 H373 0.930 . S
C382 C380 1.378 . S
C382 C383 1.367 . S
C383 C382 1.367 . S
C383 C385 1.433 . S
C384 C380 1.350 . S
C384 C381 1.463 . S
C384 N388 1.427 . S
C385 H375 0.929 . S
C385 C383 1.433 . S
C385 N388 1.384 . S
C386 H377 0.929 . S
C386 C378 1.378 . S
C386 C381 1.350 . S
C387 H374 0.929 . S
C387 C379 1.433 . S
C387 N389 1.384 . S
N388 C384 1.427 . S
N388 C385 1.384 . S
N389 C381 1.427 . S
N389 C387 1.384 . S
H390 C396 0.930 . S
H391 C400 0.930 . S
H392 C405 0.929 . S
H393 C403 0.929 . S
H394 C398 0.929 . S
H395 C404 0.929 . S
C396 H390 0.930 . S
C396 C397 1.367 . S
C396 C404 1.378 . S
C397 C396 1.367 . S
C397 C405 1.433 . S
C398 H394 0.929 . S
C398 C400 1.378 . S
C398 C402 1.350 . S
C399 C402 1.463 . S
C399 C404 1.350 . S
C399 N407 1.427 . S
C400 H391 0.930 . S
C400 C398 1.378 . S
C400 C401 1.367 . S
C401 C400 1.367 . S
C401 C403 1.433 . S
C402 C398 1.350 . S
C402 C399 1.463 . S
C402 N406 1.427 . S
C403 H393 0.929 . S
C403 C401 1.433 . S
C403 N406 1.384 . S
C404 H395 0.929 . S
C404 C396 1.378 . S
C404 C399 1.350 . S
C405 H392 0.929 . S
C405 C397 1.433 . S
C405 N407 1.384 . S
N406 C402 1.427 . S
N406 C403 1.384 . S
N407 C399 1.427 . S
N407 C405 1.384 . S
H408 C414 0.930 . S
H409 C418 0.930 . S
H410 C423 0.929 . S
H411 C421 0.929 . S
H412 C416 0.929 . S
H413 C422 0.929 . S
C414 H408 0.930 . S
C414 C415 1.367 . S
C414 C422 1.378 . S
C415 C414 1.367 . S
C415 C423 1.433 . S
C416 H412 0.929 . S
C416 C418 1.378 . S
C416 C420 1.350 . S
C417 C420 1.463 . S
C417 C422 1.350 . S
C417 N425 1.427 . S
C418 H409 0.930 . S
C418 C416 1.378 . S
C418 C419 1.367 . S
C419 C418 1.367 . S
C419 C421 1.433 . S
C420 C416 1.350 . S
C420 C417 1.463 . S
C420 N424 1.427 . S
C421 H411 0.929 . S
C421 C419 1.433 . S
C421 N424 1.384 . S
C422 H413 0.929 . S
C422 C414 1.378 . S
C422 C417 1.350 . S
C423 H410 0.929 . S
C423 C415 1.433 . S
C423 N425 1.384 . S
N424 C420 1.427 . S
N424 C421 1.384 . S
N425 C417 1.427 . S
N425 C423 1.384 . S
H426 C432 0.930 . S
H427 C436 0.930 . S
H428 C441 0.929 . S
H429 C439 0.929 . S
H430 C434 0.929 . S
H431 C440 0.929 . S
C432 H426 0.930 . S
C432 C433 1.367 . S
C432 C440 1.378 . S
C433 C432 1.367 . S
C433 C441 1.433 . S
C434 H430 0.929 . S
C434 C436 1.378 . S
C434 C438 1.350 . S
C435 C438 1.463 . S
C435 C440 1.350 . S
C435 N443 1.427 . S
C436 H427 0.930 . S
C436 C434 1.378 . S
C436 C437 1.367 . S
C437 C436 1.367 . S
C437 C439 1.433 . S
C438 C434 1.350 . S
C438 C435 1.463 . S
C438 N442 1.427 . S
C439 H429 0.929 . S
C439 C437 1.433 . S
C439 N442 1.384 . S
C440 H431 0.929 . S
C440 C432 1.378 . S
C440 C435 1.350 . S
C441 H428 0.929 . S
C441 C433 1.433 . S
C441 N443 1.384 . S
N442 C438 1.427 . S
N442 C439 1.384 . S
N443 C435 1.427 . S
N443 C441 1.384 . S
H444 C450 0.930 . S
H445 C454 0.930 . S
H446 C459 0.929 . S
H447 C457 0.929 . S
H448 C452 0.929 . S
H449 C458 0.929 . S
C450 H444 0.930 . S
C450 C451 1.367 . S
C450 C458 1.378 . S
C451 C450 1.367 . S
C451 C459 1.433 . S
C452 H448 0.929 . S
C452 C454 1.378 . S
C452 C456 1.350 . S
C453 C456 1.463 . S
C453 C458 1.350 . S
C453 N461 1.427 . S
C454 H445 0.930 . S
C454 C452 1.378 . S
C454 C455 1.367 . S
C455 C454 1.367 . S
C455 C457 1.433 . S
C456 C452 1.350 . S
C456 C453 1.463 . S
C456 N460 1.427 . S
C457 H447 0.929 . S
C457 C455 1.433 . S
C457 N460 1.384 . S
C458 H449 0.929 . S
C458 C450 1.378 . S
C458 C453 1.350 . S
C459 H446 0.929 . S
C459 C451 1.433 . S
C459 N461 1.384 . S
N460 C456 1.427 . S
N460 C457 1.384 . S
N461 C453 1.427 . S
N461 C459 1.384 . S
H462 C468 0.930 . S
H463 C472 0.930 . S
H464 C477 0.929 . S
H465 C475 0.929 1_554 S
H466 C470 0.929 . S
H467 C476 0.929 . S
C468 H462 0.930 . S
C468 C469 1.367 . S
C468 C476 1.378 . S
C469 C468 1.367 . S
C469 C477 1.433 . S
C470 H466 0.929 . S
C470 C472 1.378 . S
C470 C474 1.350 . S
C471 C474 1.463 . S
C471 C476 1.350 . S
C471 N479 1.427 . S
C472 H463 0.930 . S
C472 C470 1.378 . S
C472 C473 1.367 . S
C473 C472 1.367 . S
C473 C475 1.433 . S
C474 C470 1.350 . S
C474 C471 1.463 . S
C474 N478 1.427 . S
C475 H465 0.929 1_556 S
C475 C473 1.433 . S
C475 N478 1.384 . S
C476 H467 0.929 . S
C476 C468 1.378 . S
C476 C471 1.350 . S
C477 H464 0.929 . S
C477 C469 1.433 . S
C477 N479 1.384 . S
N478 C474 1.427 . S
N478 C475 1.384 . S
N479 C471 1.427 . S
N479 C477 1.384 . S
H480 C486 0.930 . S
H481 C490 0.930 . S
H482 C495 0.929 . S
H483 C493 0.929 . S
H484 C488 0.929 . S
H485 C494 0.929 . S
C486 H480 0.930 . S
C486 C487 1.367 . S
C486 C494 1.378 . S
C487 C486 1.367 . S
C487 C495 1.433 . S
C488 H484 0.929 . S
C488 C490 1.378 . S
C488 C492 1.350 . S
C489 C492 1.463 . S
C489 C494 1.350 . S
C489 N497 1.427 . S
C490 H481 0.930 . S
C490 C488 1.378 . S
C490 C491 1.367 . S
C491 C490 1.367 . S
C491 C493 1.433 . S
C492 C488 1.350 . S
C492 C489 1.463 . S
C492 N496 1.427 . S
C493 H483 0.929 . S
C493 C491 1.433 . S
C493 N496 1.384 . S
C494 H485 0.929 . S
C494 C486 1.378 . S
C494 C489 1.350 . S
C495 H482 0.929 . S
C495 C487 1.433 . S
C495 N497 1.384 . S
N496 C492 1.427 . S
N496 C493 1.384 . S
N497 C489 1.427 . S
N497 C495 1.384 . S
H498 C504 0.930 . S
H499 C508 0.930 . S
H500 C513 0.929 . S
H501 C511 0.929 . S
H502 C506 0.929 . S
H503 C512 0.929 . S
C504 H498 0.930 . S
C504 C505 1.367 . S
C504 C512 1.378 . S
C505 C504 1.367 . S
C505 C513 1.433 . S
C506 H502 0.929 . S
C506 C508 1.378 . S
C506 C510 1.350 . S
C507 C510 1.463 . S
C507 C512 1.350 . S
C507 N515 1.427 . S
C508 H499 0.930 . S
C508 C506 1.378 . S
C508 C509 1.367 . S
C509 C508 1.367 . S
C509 C511 1.433 . S
C510 C506 1.350 . S
C510 C507 1.463 . S
C510 N514 1.427 . S
C511 H501 0.929 . S
C511 C509 1.433 . S
C511 N514 1.384 . S
C512 H503 0.929 . S
C512 C504 1.378 . S
C512 C507 1.350 . S
C513 H500 0.929 . S
C513 C505 1.433 . S
C513 N515 1.384 . S
N514 C510 1.427 . S
N514 C511 1.384 . S
N515 C507 1.427 . S
N515 C513 1.384 . S
H516 C522 0.930 . S
H517 C526 0.930 . S
H518 C531 0.929 1_545 S
H519 C529 0.929 . S
H520 C524 0.929 . S
H521 C530 0.929 . S
C522 H516 0.930 . S
C522 C523 1.367 . S
C522 C530 1.378 . S
C523 C522 1.367 . S
C523 C531 1.433 . S
C524 H520 0.929 . S
C524 C526 1.378 . S
C524 C528 1.350 . S
C525 C528 1.463 . S
C525 C530 1.350 . S
C525 N533 1.427 . S
C526 H517 0.930 . S
C526 C524 1.378 . S
C526 C527 1.367 . S
C527 C526 1.367 . S
C527 C529 1.433 . S
C528 C524 1.350 . S
C528 C525 1.463 . S
C528 N532 1.427 . S
C529 H519 0.929 . S
C529 C527 1.433 . S
C529 N532 1.384 . S
C530 H521 0.929 . S
C530 C522 1.378 . S
C530 C525 1.350 . S
C531 H518 0.929 1_565 S
C531 C523 1.433 . S
C531 N533 1.384 . S
N532 C528 1.427 . S
N532 C529 1.384 . S
N533 C525 1.427 . S
N533 C531 1.384 . S
H534 C540 0.930 . S
H535 C544 0.930 . S
H536 C549 0.929 . S
H537 C547 0.929 1_545 S
H538 C542 0.929 . S
H539 C548 0.929 . S
C540 H534 0.930 . S
C540 C541 1.367 . S
C540 C548 1.378 . S
C541 C540 1.367 . S
C541 C549 1.433 . S
C542 H538 0.929 . S
C542 C544 1.378 . S
C542 C546 1.350 . S
C543 C546 1.463 . S
C543 C548 1.350 . S
C543 N551 1.427 . S
C544 H535 0.930 . S
C544 C542 1.378 . S
C544 C545 1.367 . S
C545 C544 1.367 . S
C545 C547 1.433 . S
C546 C542 1.350 . S
C546 C543 1.463 . S
C546 N550 1.427 . S
C547 H537 0.929 1_565 S
C547 C545 1.433 . S
C547 N550 1.384 . S
C548 H539 0.929 . S
C548 C540 1.378 . S
C548 C543 1.350 . S
C549 H536 0.929 . S
C549 C541 1.433 . S
C549 N551 1.384 . S
N550 C546 1.427 . S
N550 C547 1.384 . S
N551 C543 1.427 . S
N551 C549 1.384 . S
H552 C558 0.930 . S
H553 C562 0.930 . S
H554 C567 0.929 . S
H555 C565 0.929 . S
H556 C560 0.929 . S
H557 C566 0.929 . S
C558 H552 0.930 . S
C558 C559 1.367 . S
C558 C566 1.378 . S
C559 C558 1.367 . S
C559 C567 1.433 . S
C560 H556 0.929 . S
C560 C562 1.378 . S
C560 C564 1.350 . S
C561 C564 1.463 . S
C561 C566 1.350 . S
C561 N569 1.427 . S
C562 H553 0.930 . S
C562 C560 1.378 . S
C562 C563 1.367 . S
C563 C562 1.367 . S
C563 C565 1.433 . S
C564 C560 1.350 . S
C564 C561 1.463 . S
C564 N568 1.427 . S
C565 H555 0.929 . S
C565 C563 1.433 . S
C565 N568 1.384 . S
C566 H557 0.929 . S
C566 C558 1.378 . S
C566 C561 1.350 . S
C567 H554 0.929 . S
C567 C559 1.433 . S
C567 N569 1.384 . S
N568 C564 1.427 . S
N568 C565 1.384 . S
N569 C561 1.427 . S
N569 C567 1.384 . S
H570 C576 0.892 1_455 S
H571 C580 0.930 . S
H572 C585 0.929 . S
H573 C583 0.929 . S
H574 C578 0.929 . S
H575 C584 0.929 . S
C576 H570 0.892 1_655 S
C576 C577 1.367 . S
C576 C584 1.378 . S
C577 C576 1.367 . S
C577 C585 1.433 . S
C578 H574 0.929 . S
C578 C580 1.378 . S
C578 C582 1.350 . S
C579 C582 1.463 . S
C579 C584 1.350 . S
C579 N587 1.427 . S
C580 H571 0.930 . S
C580 C578 1.378 . S
C580 C581 1.367 . S
C581 C580 1.367 . S
C581 C583 1.433 . S
C582 C578 1.350 . S
C582 C579 1.463 . S
C582 N586 1.427 . S
C583 H573 0.929 . S
C583 C581 1.433 . S
C583 N586 1.384 . S
C584 H575 0.929 . S
C584 C576 1.378 . S
C584 C579 1.350 . S
C585 H572 0.929 . S
C585 C577 1.433 . S
C585 N587 1.384 . S
N586 C582 1.427 . S
N586 C583 1.384 . S
N587 C579 1.427 . S
N587 C585 1.384 . S
H588 C594 0.930 . S
H589 C598 0.930 . S
H590 C603 0.929 . S
H591 C601 0.929 . S
H592 C596 0.929 . S
H593 C602 0.929 . S
C594 H588 0.930 . S
C594 C595 1.367 . S
C594 C602 1.378 . S
C595 C594 1.367 . S
C595 C603 1.433 . S
C596 H592 0.929 . S
C596 C598 1.378 . S
C596 C600 1.350 . S
C597 C600 1.463 . S
C597 C602 1.350 . S
C597 N605 1.427 . S
C598 H589 0.930 . S
C598 C596 1.378 . S
C598 C599 1.367 . S
C599 C598 1.367 . S
C599 C601 1.433 . S
C600 C596 1.350 . S
C600 C597 1.463 . S
C600 N604 1.427 . S
C601 H591 0.929 . S
C601 C599 1.433 . S
C601 N604 1.384 . S
C602 H593 0.929 . S
C602 C594 1.378 . S
C602 C597 1.350 . S
C603 H590 0.929 . S
C603 C595 1.433 . S
C603 N605 1.384 . S
N604 C600 1.427 . S
N604 C601 1.384 . S
N605 C597 1.427 . S
N605 C603 1.384 . S
H606 C612 0.930 . S
H607 C616 0.930 . S
H608 C621 0.929 . S
H609 C619 0.929 . S
H610 C614 0.929 . S
H611 C620 0.929 . S
C612 H606 0.930 . S
C612 C613 1.367 . S
C612 C620 1.378 . S
C613 C612 1.367 . S
C613 C621 1.433 . S
C614 H610 0.929 . S
C614 C616 1.378 . S
C614 C618 1.350 . S
C615 C618 1.463 . S
C615 C620 1.350 . S
C615 N623 1.427 . S
C616 H607 0.930 . S
C616 C614 1.378 . S
C616 C617 1.367 . S
C617 C616 1.367 . S
C617 C619 1.433 . S
C618 C614 1.350 . S
C618 C615 1.463 . S
C618 N622 1.427 . S
C619 H609 0.929 . S
C619 C617 1.433 . S
C619 N622 1.384 . S
C620 H611 0.929 . S
C620 C612 1.378 . S
C620 C615 1.350 . S
C621 H608 0.929 . S
C621 C613 1.433 . S
C621 N623 1.384 . S
N622 C618 1.427 . S
N622 C619 1.384 . S
N623 C615 1.427 . S
N623 C621 1.384 . S
H624 C630 0.930 . S
H625 C634 0.930 . S
H626 C639 0.929 . S
H627 C637 0.929 . S
H628 C632 0.929 . S
H629 C638 0.929 . S
C630 H624 0.930 . S
C630 C631 1.367 . S
C630 C638 1.378 . S
C631 C630 1.367 . S
C631 C639 1.433 . S
C632 H628 0.929 . S
C632 C634 1.378 . S
C632 C636 1.350 . S
C633 C636 1.463 . S
C633 C638 1.350 . S
C633 N641 1.427 . S
C634 H625 0.930 . S
C634 C632 1.378 . S
C634 C635 1.367 . S
C635 C634 1.367 . S
C635 C637 1.433 . S
C636 C632 1.350 . S
C636 C633 1.463 . S
C636 N640 1.427 . S
C637 H627 0.929 . S
C637 C635 1.433 . S
C637 N640 1.384 . S
C638 H629 0.929 . S
C638 C630 1.378 . S
C638 C633 1.350 . S
C639 H626 0.929 . S
C639 C631 1.433 . S
C639 N641 1.384 . S
N640 C636 1.427 . S
N640 C637 1.384 . S
N641 C633 1.427 . S
N641 C639 1.384 . S
H642 C648 0.930 . S
H643 C652 0.930 . S
H644 C657 0.929 . S
H645 C655 0.929 . S
H646 C650 0.929 . S
H647 C656 0.929 . S
C648 H642 0.930 . S
C648 C649 1.367 . S
C648 C656 1.378 . S
C649 C648 1.367 . S
C649 C657 1.433 . S
C650 H646 0.929 . S
C650 C652 1.378 . S
C650 C654 1.350 . S
C651 C654 1.463 . S
C651 C656 1.350 . S
C651 N659 1.427 . S
C652 H643 0.930 . S
C652 C650 1.378 . S
C652 C653 1.367 . S
C653 C652 1.367 . S
C653 C655 1.433 . S
C654 C650 1.350 . S
C654 C651 1.463 . S
C654 N658 1.427 . S
C655 H645 0.929 . S
C655 C653 1.433 . S
C655 N658 1.384 . S
C656 H647 0.929 . S
C656 C648 1.378 . S
C656 C651 1.350 . S
C657 H644 0.929 . S
C657 C649 1.433 . S
C657 N659 1.384 . S
N658 C654 1.427 . S
N658 C655 1.384 . S
N659 C651 1.427 . S
N659 C657 1.384 . S
H660 C666 0.930 . S
H661 C670 0.930 . S
H662 C675 0.929 . S
H663 C673 0.929 . S
H664 C668 0.929 . S
H665 C674 0.929 . S
C666 H660 0.930 . S
C666 C667 1.367 . S
C666 C674 1.378 . S
C667 C666 1.367 . S
C667 C675 1.433 . S
C668 H664 0.929 . S
C668 C670 1.378 . S
C668 C672 1.350 . S
C669 C672 1.463 . S
C669 C674 1.350 . S
C669 N677 1.427 . S
C670 H661 0.930 . S
C670 C668 1.378 . S
C670 C671 1.367 . S
C671 C670 1.367 . S
C671 C673 1.433 . S
C672 C668 1.350 . S
C672 C669 1.463 . S
C672 N676 1.427 . S
C673 H663 0.929 . S
C673 C671 1.433 . S
C673 N676 1.384 . S
C674 H665 0.929 . S
C674 C666 1.378 . S
C674 C669 1.350 . S
C675 H662 0.929 . S
C675 C667 1.433 . S
C675 N677 1.384 . S
N676 C672 1.427 . S
N676 C673 1.384 . S
N677 C669 1.427 . S
N677 C675 1.384 . S
H678 C684 0.930 . S
H679 C688 0.930 . S
H680 C693 0.929 . S
H681 C691 0.929 1_455 S
H682 C686 0.929 . S
H683 C692 0.929 . S
C684 H678 0.930 . S
C684 C685 1.367 . S
C684 C692 1.378 . S
C685 C684 1.367 . S
C685 C693 1.433 . S
C686 H682 0.929 . S
C686 C688 1.378 . S
C686 C690 1.350 . S
C687 C690 1.463 . S
C687 C692 1.350 . S
C687 N695 1.427 . S
C688 H679 0.930 . S
C688 C686 1.378 . S
C688 C689 1.367 . S
C689 C688 1.367 . S
C689 C691 1.433 . S
C690 C686 1.350 . S
C690 C687 1.463 . S
C690 N694 1.427 . S
C691 H681 0.929 1_655 S
C691 C689 1.433 . S
C691 N694 1.384 . S
C692 H683 0.929 . S
C692 C684 1.378 . S
C692 C687 1.350 . S
C693 H680 0.929 . S
C693 C685 1.433 . S
C693 N695 1.384 . S
N694 C690 1.427 . S
N694 C691 1.384 . S
N695 C687 1.427 . S
N695 C693 1.384 . S
H696 C702 0.930 . S
H697 C706 0.930 . S
H698 C711 0.929 . S
H699 C709 0.929 . S
H700 C704 0.929 . S
H701 C710 0.929 . S
C702 H696 0.930 . S
C702 C703 1.367 . S
C702 C710 1.378 . S
C703 C702 1.367 . S
C703 C711 1.433 . S
C704 H700 0.929 . S
C704 C706 1.378 . S
C704 C708 1.350 . S
C705 C708 1.463 . S
C705 C710 1.350 . S
C705 N713 1.427 . S
C706 H697 0.930 . S
C706 C704 1.378 . S
C706 C707 1.367 . S
C707 C706 1.367 . S
C707 C709 1.433 . S
C708 C704 1.350 . S
C708 C705 1.463 . S
C708 N712 1.427 . S
C709 H699 0.929 . S
C709 C707 1.433 . S
C709 N712 1.384 . S
C710 H701 0.929 . S
C710 C702 1.378 . S
C710 C705 1.350 . S
C711 H698 0.929 . S
C711 C703 1.433 . S
C711 N713 1.384 . S
N712 C708 1.427 . S
N712 C709 1.384 . S
N713 C705 1.427 . S
N713 C711 1.384 . S
H714 C720 0.930 . S
H715 C724 0.930 . S
H716 C729 0.929 . S
H717 C727 0.929 . S
H718 C722 0.929 . S
H719 C728 0.929 . S
C720 H714 0.930 . S
C720 C721 1.367 . S
C720 C728 1.378 . S
C721 C720 1.367 . S
C721 C729 1.433 . S
C722 H718 0.929 . S
C722 C724 1.378 . S
C722 C726 1.350 . S
C723 C726 1.463 . S
C723 C728 1.350 . S
C723 N731 1.427 . S
C724 H715 0.930 . S
C724 C722 1.378 . S
C724 C725 1.367 . S
C725 C724 1.367 . S
C725 C727 1.433 . S
C726 C722 1.350 . S
C726 C723 1.463 . S
C726 N730 1.427 . S
C727 H717 0.929 . S
C727 C725 1.433 . S
C727 N730 1.384 . S
C728 H719 0.929 . S
C728 C720 1.378 . S
C728 C723 1.350 . S
C729 H716 0.929 . S
C729 C721 1.433 . S
C729 N731 1.384 . S
N730 C726 1.427 . S
N730 C727 1.384 . S
N731 C723 1.427 . S
N731 C729 1.384 . S
H732 C738 0.930 . S
H733 C742 0.930 . S
H734 C747 0.929 . S
H735 C745 0.929 . S
H736 C740 0.929 . S
H737 C746 0.929 . S
C738 H732 0.930 . S
C738 C739 1.367 . S
C738 C746 1.378 . S
C739 C738 1.367 . S
C739 C747 1.433 . S
C740 H736 0.929 . S
C740 C742 1.378 . S
C740 C744 1.350 . S
C741 C744 1.463 . S
C741 C746 1.350 . S
C741 N749 1.427 . S
C742 H733 0.930 . S
C742 C740 1.378 . S
C742 C743 1.367 . S
C743 C742 1.367 . S
C743 C745 1.433 . S
C744 C740 1.350 . S
C744 C741 1.463 . S
C744 N748 1.427 . S
C745 H735 0.929 . S
C745 C743 1.433 . S
C745 N748 1.384 . S
C746 H737 0.929 . S
C746 C738 1.378 . S
C746 C741 1.350 . S
C747 H734 0.929 . S
C747 C739 1.433 . S
C747 N749 1.384 . S
N748 C744 1.427 . S
N748 C745 1.384 . S
N749 C741 1.427 . S
N749 C747 1.384 . S
H750 C756 0.930 . S
H751 C760 0.930 . S
H752 C765 0.929 . S
H753 C763 0.929 . S
H754 C758 0.929 . S
H755 C764 0.929 . S
C756 H750 0.930 . S
C756 C757 1.367 . S
C756 C764 1.378 . S
C757 C756 1.367 . S
C757 C765 1.433 . S
C758 H754 0.929 . S
C758 C760 1.378 . S
C758 C762 1.350 . S
C759 C762 1.463 . S
C759 C764 1.350 . S
C759 N767 1.427 . S
C760 H751 0.930 . S
C760 C758 1.378 . S
C760 C761 1.367 . S
C761 C760 1.367 . S
C761 C763 1.433 . S
C762 C758 1.350 . S
C762 C759 1.463 . S
C762 N766 1.427 . S
C763 H753 0.929 . S
C763 C761 1.433 . S
C763 N766 1.384 . S
C764 H755 0.929 . S
C764 C756 1.378 . S
C764 C759 1.350 . S
C765 H752 0.929 . S
C765 C757 1.433 . S
C765 N767 1.384 . S
N766 C762 1.427 . S
N766 C763 1.384 . S
N767 C759 1.427 . S
N767 C765 1.384 . S
H768 C774 0.930 . S
H769 C778 0.930 . S
H770 C783 0.929 . S
H771 C781 0.929 . S
H772 C776 0.929 . S
H773 C782 0.929 . S
C774 H768 0.930 . S
C774 C775 1.367 . S
C774 C782 1.378 . S
C775 C774 1.367 . S
C775 C783 1.433 . S
C776 H772 0.929 . S
C776 C778 1.378 . S
C776 C780 1.350 . S
C777 C780 1.463 . S
C777 C782 1.350 . S
C777 N785 1.427 . S
C778 H769 0.930 . S
C778 C776 1.378 . S
C778 C779 1.367 . S
C779 C778 1.367 . S
C779 C781 1.433 . S
C780 C776 1.350 . S
C780 C777 1.463 . S
C780 N784 1.427 . S
C781 H771 0.929 . S
C781 C779 1.433 . S
C781 N784 1.384 . S
C782 H773 0.929 . S
C782 C774 1.378 . S
C782 C777 1.350 . S
C783 H770 0.929 . S
C783 C775 1.433 . S
C783 N785 1.384 . S
N784 C780 1.427 . S
N784 C781 1.384 . S
N785 C777 1.427 . S
N785 C783 1.384 . S
H786 C792 0.930 . S
H787 C796 0.930 . S
H788 C801 0.929 . S
H789 C799 0.929 . S
H790 C794 0.929 . S
H791 C800 0.929 . S
C792 H786 0.930 . S
C792 C793 1.367 . S
C792 C800 1.378 . S
C793 C792 1.367 . S
C793 C801 1.433 . S
C794 H790 0.929 . S
C794 C796 1.378 . S
C794 C798 1.350 . S
C795 C798 1.463 . S
C795 C800 1.350 . S
C795 N803 1.427 . S
C796 H787 0.930 . S
C796 C794 1.378 . S
C796 C797 1.367 . S
C797 C796 1.367 . S
C797 C799 1.433 . S
C798 C794 1.350 . S
C798 C795 1.463 . S
C798 N802 1.427 . S
C799 H789 0.929 . S
C799 C797 1.433 . S
C799 N802 1.384 . S
C800 H791 0.929 . S
C800 C792 1.378 . S
C800 C795 1.350 . S
C801 H788 0.929 . S
C801 C793 1.433 . S
C801 N803 1.384 . S
N802 C798 1.427 . S
N802 C799 1.384 . S
N803 C795 1.427 . S
N803 C801 1.384 . S
H804 C810 0.930 . S
H805 C814 0.930 . S
H806 C819 0.942 . S
H807 C817 0.929 . S
H808 C812 0.929 . S
H809 C818 0.929 . S
C810 H804 0.930 . S
C810 C811 1.367 . S
C810 C818 1.378 . S
C811 C810 1.367 . S
C811 C819 1.433 . S
C812 H808 0.929 . S
C812 C814 1.378 . S
C812 C816 1.350 . S
C813 C816 1.463 . S
C813 C818 1.350 . S
C813 N821 1.427 . S
C814 H805 0.930 . S
C814 C812 1.378 . S
C814 C815 1.367 . S
C815 C814 1.367 . S
C815 C817 1.433 . S
C816 C812 1.350 . S
C816 C813 1.463 . S
C816 N820 1.427 . S
C817 H807 0.929 . S
C817 C815 1.433 . S
C817 N820 1.384 . S
C818 H809 0.929 . S
C818 C810 1.378 . S
C818 C813 1.350 . S
C819 H806 0.942 . S
C819 C811 1.433 . S
C819 N821 1.384 . S
N820 C816 1.427 . S
N820 C817 1.384 . S
N821 C813 1.427 . S
N821 C819 1.384 . S
H822 C828 0.930 . S
H823 C832 0.940 . S
H824 C837 0.929 . S
H825 C835 0.929 . S
H826 C830 0.929 . S
H827 C836 0.929 . S
C828 H822 0.930 . S
C828 C829 1.367 . S
C828 C836 1.378 . S
C829 C828 1.367 . S
C829 C837 1.433 . S
C830 H826 0.929 . S
C830 C832 1.378 . S
C830 C834 1.350 . S
C831 C834 1.463 . S
C831 C836 1.350 . S
C831 N839 1.427 . S
C832 H823 0.940 . S
C832 C830 1.378 . S
C832 C833 1.367 . S
C833 C832 1.367 . S
C833 C835 1.433 . S
C834 C830 1.350 . S
C834 C831 1.463 . S
C834 N838 1.427 . S
C835 H825 0.929 . S
C835 C833 1.433 . S
C835 N838 1.384 . S
C836 H827 0.929 . S
C836 C828 1.378 . S
C836 C831 1.350 . S
C837 H824 0.929 . S
C837 C829 1.433 . S
C837 N839 1.384 . S
N838 C834 1.427 . S
N838 C835 1.384 . S
N839 C831 1.427 . S
N839 C837 1.384 . S
H840 C846 0.930 . S
H841 C850 0.930 . S
H842 C855 0.929 . S
H843 C853 0.929 . S
H844 C848 0.929 . S
H845 C854 0.929 . S
C846 H840 0.930 . S
C846 C847 1.367 . S
C846 C854 1.378 . S
C847 C846 1.367 . S
C847 C855 1.433 . S
C848 H844 0.929 . S
C848 C850 1.378 . S
C848 C852 1.350 . S
C849 C852 1.463 . S
C849 C854 1.350 . S
C849 N857 1.427 . S
C850 H841 0.930 . S
C850 C848 1.378 . S
C850 C851 1.367 . S
C851 C850 1.367 . S
C851 C853 1.433 . S
C852 C848 1.350 . S
C852 C849 1.463 . S
C852 N856 1.427 . S
C853 H843 0.929 . S
C853 C851 1.433 . S
C853 N856 1.384 . S
C854 H845 0.929 . S
C854 C846 1.378 . S
C854 C849 1.350 . S
C855 H842 0.929 . S
C855 C847 1.433 . S
C855 N857 1.384 . S
N856 C852 1.427 . S
N856 C853 1.384 . S
N857 C849 1.427 . S
N857 C855 1.384 . S
H858 C864 0.930 . S
H859 C868 0.930 . S
H860 C873 0.929 . S
H861 C871 0.929 . S
H862 C866 0.929 . S
H863 C872 0.929 . S
C864 H858 0.930 . S
C864 C865 1.367 . S
C864 C872 1.378 . S
C865 C864 1.367 . S
C865 C873 1.433 . S
C866 H862 0.929 . S
C866 C868 1.378 . S
C866 C870 1.350 . S
C867 C870 1.463 . S
C867 C872 1.350 . S
C867 N875 1.427 . S
C868 H859 0.930 . S
C868 C866 1.378 . S
C868 C869 1.367 . S
C869 C868 1.367 . S
C869 C871 1.433 . S
C870 C866 1.350 . S
C870 C867 1.463 . S
C870 N874 1.427 . S
C871 H861 0.929 . S
C871 C869 1.433 . S
C871 N874 1.384 . S
C872 H863 0.929 . S
C872 C864 1.378 . S
C872 C867 1.350 . S
C873 H860 0.929 . S
C873 C865 1.433 . S
C873 N875 1.384 . S
N874 C870 1.427 . S
N874 C871 1.384 . S
N875 C867 1.427 . S
N875 C873 1.384 . S
H876 C882 0.930 . S
H877 C886 0.930 . S
H878 C891 0.929 . S
H879 C889 0.929 . S
H880 C884 0.929 . S
H881 C890 0.929 . S
C882 H876 0.930 . S
C882 C883 1.367 . S
C882 C890 1.378 . S
C883 C882 1.367 . S
C883 C891 1.433 . S
C884 H880 0.929 . S
C884 C886 1.378 . S
C884 C888 1.350 . S
C885 C888 1.463 . S
C885 C890 1.350 . S
C885 N893 1.427 . S
C886 H877 0.930 . S
C886 C884 1.378 . S
C886 C887 1.367 . S
C887 C886 1.367 . S
C887 C889 1.433 . S
C888 C884 1.350 . S
C888 C885 1.463 . S
C888 N892 1.427 . S
C889 H879 0.929 . S
C889 C887 1.433 . S
C889 N892 1.384 . S
C890 H881 0.929 . S
C890 C882 1.378 . S
C890 C885 1.350 . S
C891 H878 0.929 . S
C891 C883 1.433 . S
C891 N893 1.384 . S
N892 C888 1.427 . S
N892 C889 1.384 . S
N893 C885 1.427 . S
N893 C891 1.384 . S
H894 C900 0.930 . S
H895 C904 0.930 . S
H896 C909 0.929 1_455 S
H897 C907 0.929 . S
H898 C902 0.929 . S
H899 C908 0.929 . S
C900 H894 0.930 . S
C900 C901 1.367 . S
C900 C908 1.378 . S
C901 C900 1.367 . S
C901 C909 1.433 . S
C902 H898 0.929 . S
C902 C904 1.378 . S
C902 C906 1.350 . S
C903 C906 1.463 . S
C903 C908 1.350 . S
C903 N911 1.427 . S
C904 H895 0.930 . S
C904 C902 1.378 . S
C904 C905 1.367 . S
C905 C904 1.367 . S
C905 C907 1.433 . S
C906 C902 1.350 . S
C906 C903 1.463 . S
C906 N910 1.427 . S
C907 H897 0.929 . S
C907 C905 1.433 . S
C907 N910 1.384 . S
C908 H899 0.929 . S
C908 C900 1.378 . S
C908 C903 1.350 . S
C909 H896 0.929 1_655 S
C909 C901 1.433 . S
C909 N911 1.384 . S
N910 C906 1.427 . S
N910 C907 1.384 . S
N911 C903 1.427 . S
N911 C909 1.384 . S
H912 C918 0.930 . S
H913 C922 0.930 . S
H914 C927 0.929 . S
H915 C925 0.929 . S
H916 C920 0.929 . S
H917 C926 0.929 . S
C918 H912 0.930 . S
C918 C919 1.367 . S
C918 C926 1.378 . S
C919 C918 1.367 . S
C919 C927 1.433 . S
C920 H916 0.929 . S
C920 C922 1.378 . S
C920 C924 1.350 . S
C921 C924 1.463 . S
C921 C926 1.350 . S
C921 N929 1.427 . S
C922 H913 0.930 . S
C922 C920 1.378 . S
C922 C923 1.367 . S
C923 C922 1.367 . S
C923 C925 1.433 . S
C924 C920 1.350 . S
C924 C921 1.463 . S
C924 N928 1.427 . S
C925 H915 0.929 . S
C925 C923 1.433 . S
C925 N928 1.384 . S
C926 H917 0.929 . S
C926 C918 1.378 . S
C926 C921 1.350 . S
C927 H914 0.929 . S
C927 C919 1.433 . S
C927 N929 1.384 . S
N928 C924 1.427 . S
N928 C925 1.384 . S
N929 C921 1.427 . S
N929 C927 1.384 . S
H930 C936 0.930 . S
H931 C940 0.930 . S
H932 C945 0.929 1_554 S
H933 C943 0.929 . S
H934 C938 0.929 . S
H935 C944 0.929 . S
C936 H930 0.930 . S
C936 C937 1.367 . S
C936 C944 1.378 . S
C937 C936 1.367 . S
C937 C945 1.433 . S
C938 H934 0.929 . S
C938 C940 1.378 . S
C938 C942 1.350 . S
C939 C942 1.463 . S
C939 C944 1.350 . S
C939 N947 1.427 . S
C940 H931 0.930 . S
C940 C938 1.378 . S
C940 C941 1.367 . S
C941 C940 1.367 . S
C941 C943 1.433 . S
C942 C938 1.350 . S
C942 C939 1.463 . S
C942 N946 1.427 . S
C943 H933 0.929 . S
C943 C941 1.433 . S
C943 N946 1.384 . S
C944 H935 0.929 . S
C944 C936 1.378 . S
C944 C939 1.350 . S
C945 H932 0.929 1_556 S
C945 C937 1.433 . S
C945 N947 1.384 . S
N946 C942 1.427 . S
N946 C943 1.384 . S
N947 C939 1.427 . S
N947 C945 1.384 . S
H948 C954 0.930 . S
H949 C958 0.930 . S
H950 C963 0.929 . S
H951 C961 0.929 . S
H952 C956 0.929 . S
H953 C962 0.929 . S
C954 H948 0.930 . S
C954 C955 1.367 . S
C954 C962 1.378 . S
C955 C954 1.367 . S
C955 C963 1.433 . S
C956 H952 0.929 . S
C956 C958 1.378 . S
C956 C960 1.350 . S
C957 C960 1.463 . S
C957 C962 1.350 . S
C957 N965 1.427 . S
C958 H949 0.930 . S
C958 C956 1.378 . S
C958 C959 1.367 . S
C959 C958 1.367 . S
C959 C961 1.433 . S
C960 C956 1.350 . S
C960 C957 1.463 . S
C960 N964 1.427 . S
C961 H951 0.929 . S
C961 C959 1.433 . S
C961 N964 1.384 . S
C962 H953 0.929 . S
C962 C954 1.378 . S
C962 C957 1.350 . S
C963 H950 0.929 . S
C963 C955 1.433 . S
C963 N965 1.384 . S
N964 C960 1.427 . S
N964 C961 1.384 . S
N965 C957 1.427 . S
N965 C963 1.384 . S
H966 C972 0.930 . S
H967 C976 0.930 . S
H968 C981 0.929 . S
H969 C979 0.929 . S
H970 C974 0.929 . S
H971 C980 0.929 . S
C972 H966 0.930 . S
C972 C973 1.367 . S
C972 C980 1.378 . S
C973 C972 1.367 . S
C973 C981 1.433 . S
C974 H970 0.929 . S
C974 C976 1.378 . S
C974 C978 1.350 . S
C975 C978 1.463 . S
C975 C980 1.350 . S
C975 N983 1.427 . S
C976 H967 0.930 . S
C976 C974 1.378 . S
C976 C977 1.367 . S
C977 C976 1.367 . S
C977 C979 1.433 . S
C978 C974 1.350 . S
C978 C975 1.463 . S
C978 N982 1.427 . S
C979 H969 0.929 . S
C979 C977 1.433 . S
C979 N982 1.384 . S
C980 H971 0.929 . S
C980 C972 1.378 . S
C980 C975 1.350 . S
C981 H968 0.929 . S
C981 C973 1.433 . S
C981 N983 1.384 . S
N982 C978 1.427 . S
N982 C979 1.384 . S
N983 C975 1.427 . S
N983 C981 1.384 . S
H984 C990 0.930 . S
H985 C994 0.930 . S
H986 C999 0.929 . S
H987 C997 0.929 . S
H988 C992 0.929 . S
H989 C998 0.929 . S
C990 H984 0.930 . S
C990 C991 1.367 . S
C990 C998 1.378 . S
C991 C990 1.367 . S
C991 C999 1.433 . S
C992 H988 0.929 . S
C992 C994 1.378 . S
C992 C996 1.350 . S
C993 C996 1.463 . S
C993 C998 1.350 . S
C993 N1001 1.427 . S
C994 H985 0.930 . S
C994 C992 1.378 . S
C994 C995 1.367 . S
C995 C994 1.367 . S
C995 C997 1.433 . S
C996 C992 1.350 . S
C996 C993 1.463 . S
C996 N1000 1.427 . S
C997 H987 0.929 . S
C997 C995 1.433 . S
C997 N1000 1.384 . S
C998 H989 0.929 . S
C998 C990 1.378 . S
C998 C993 1.350 . S
C999 H986 0.929 . S
C999 C991 1.433 . S
C999 N1001 1.384 . S
N1000 C996 1.427 . S
N1000 C997 1.384 . S
N1001 C993 1.427 . S
N1001 C999 1.384 . S
H1002 C1008 0.930 . S
H1003 C1012 0.930 . S
H1004 C1017 0.929 . S
H1005 C1015 0.929 . S
H1006 C1010 0.929 . S
H1007 C1016 0.929 . S
C1008 H1002 0.930 . S
C1008 C1009 1.367 . S
C1008 C1016 1.378 . S
C1009 C1008 1.367 . S
C1009 C1017 1.433 . S
C1010 H1006 0.929 . S
C1010 C1012 1.378 . S
C1010 C1014 1.350 . S
C1011 C1014 1.463 . S
C1011 C1016 1.350 . S
C1011 N1019 1.427 . S
C1012 H1003 0.930 . S
C1012 C1010 1.378 . S
C1012 C1013 1.367 . S
C1013 C1012 1.367 . S
C1013 C1015 1.433 . S
C1014 C1010 1.350 . S
C1014 C1011 1.463 . S
C1014 N1018 1.427 . S
C1015 H1005 0.929 . S
C1015 C1013 1.433 . S
C1015 N1018 1.384 . S
C1016 H1007 0.929 . S
C1016 C1008 1.378 . S
C1016 C1011 1.350 . S
C1017 H1004 0.929 . S
C1017 C1009 1.433 . S
C1017 N1019 1.384 . S
N1018 C1014 1.427 . S
N1018 C1015 1.384 . S
N1019 C1011 1.427 . S
N1019 C1017 1.384 . S
H1020 C1026 0.930 . S
H1021 C1030 0.930 . S
H1022 C1035 0.929 . S
H1023 C1033 0.929 . S
H1024 C1028 0.929 . S
H1025 C1034 0.929 . S
C1026 H1020 0.930 . S
C1026 C1027 1.367 . S
C1026 C1034 1.378 . S
C1027 C1026 1.367 . S
C1027 C1035 1.433 . S
C1028 H1024 0.929 . S
C1028 C1030 1.378 . S
C1028 C1032 1.350 . S
C1029 C1032 1.463 . S
C1029 C1034 1.350 . S
C1029 N1037 1.427 . S
C1030 H1021 0.930 . S
C1030 C1028 1.378 . S
C1030 C1031 1.367 . S
C1031 C1030 1.367 . S
C1031 C1033 1.433 . S
C1032 C1028 1.350 . S
C1032 C1029 1.463 . S
C1032 N1036 1.427 . S
C1033 H1023 0.929 . S
C1033 C1031 1.433 . S
C1033 N1036 1.384 . S
C1034 H1025 0.929 . S
C1034 C1026 1.378 . S
C1034 C1029 1.350 . S
C1035 H1022 0.929 . S
C1035 C1027 1.433 . S
C1035 N1037 1.384 . S
N1036 C1032 1.427 . S
N1036 C1033 1.384 . S
N1037 C1029 1.427 . S
N1037 C1035 1.384 . S
H1038 C1044 0.930 . S
H1039 C1048 0.930 . S
H1040 C1053 0.929 . S
H1041 C1051 0.929 . S
H1042 C1046 0.929 . S
H1043 C1052 0.929 . S
C1044 H1038 0.930 . S
C1044 C1045 1.367 . S
C1044 C1052 1.378 . S
C1045 C1044 1.367 . S
C1045 C1053 1.433 . S
C1046 H1042 0.929 . S
C1046 C1048 1.378 . S
C1046 C1050 1.350 . S
C1047 C1050 1.463 . S
C1047 C1052 1.350 . S
C1047 N1055 1.427 . S
C1048 H1039 0.930 . S
C1048 C1046 1.378 . S
C1048 C1049 1.367 . S
C1049 C1048 1.367 . S
C1049 C1051 1.433 . S
C1050 C1046 1.350 . S
C1050 C1047 1.463 . S
C1050 N1054 1.427 . S
C1051 H1041 0.929 . S
C1051 C1049 1.433 . S
C1051 N1054 1.384 . S
C1052 H1043 0.929 . S
C1052 C1044 1.378 . S
C1052 C1047 1.350 . S
C1053 H1040 0.929 . S
C1053 C1045 1.433 . S
C1053 N1055 1.384 . S
N1054 C1050 1.427 . S
N1054 C1051 1.384 . S
N1055 C1047 1.427 . S
N1055 C1053 1.384 . S
H1056 C1062 0.930 . S
H1057 C1066 0.930 . S
H1058 C1071 0.929 . S
H1059 C1069 0.929 . S
H1060 C1064 0.929 . S
H1061 C1070 0.929 . S
C1062 H1056 0.930 . S
C1062 C1063 1.367 . S
C1062 C1070 1.378 . S
C1063 C1062 1.367 . S
C1063 C1071 1.433 . S
C1064 H1060 0.929 . S
C1064 C1066 1.378 . S
C1064 C1068 1.350 . S
C1065 C1068 1.463 . S
C1065 C1070 1.350 . S
C1065 N1073 1.427 . S
C1066 H1057 0.930 . S
C1066 C1064 1.378 . S
C1066 C1067 1.367 . S
C1067 C1066 1.367 . S
C1067 C1069 1.433 . S
C1068 C1064 1.350 . S
C1068 C1065 1.463 . S
C1068 N1072 1.427 . S
C1069 H1059 0.929 . S
C1069 C1067 1.433 . S
C1069 N1072 1.384 . S
C1070 H1061 0.929 . S
C1070 C1062 1.378 . S
C1070 C1065 1.350 . S
C1071 H1058 0.929 . S
C1071 C1063 1.433 . S
C1071 N1073 1.384 . S
N1072 C1068 1.427 . S
N1072 C1069 1.384 . S
N1073 C1065 1.427 . S
N1073 C1071 1.384 . S
H1074 C1080 0.930 . S
H1075 C1084 0.930 . S
H1076 C1089 0.929 . S
H1077 C1087 0.929 . S
H1078 C1082 0.929 . S
H1079 C1088 0.929 . S
C1080 H1074 0.930 . S
C1080 C1081 1.367 . S
C1080 C1088 1.378 . S
C1081 C1080 1.367 . S
C1081 C1089 1.433 . S
C1082 H1078 0.929 . S
C1082 C1084 1.378 . S
C1082 C1086 1.350 . S
C1083 C1086 1.463 . S
C1083 C1088 1.350 . S
C1083 N1091 1.427 . S
C1084 H1075 0.930 . S
C1084 C1082 1.378 . S
C1084 C1085 1.367 . S
C1085 C1084 1.367 . S
C1085 C1087 1.433 . S
C1086 C1082 1.350 . S
C1086 C1083 1.463 . S
C1086 N1090 1.427 . S
C1087 H1077 0.929 . S
C1087 C1085 1.433 . S
C1087 N1090 1.384 . S
C1088 H1079 0.929 . S
C1088 C1080 1.378 . S
C1088 C1083 1.350 . S
C1089 H1076 0.929 . S
C1089 C1081 1.433 . S
C1089 N1091 1.384 . S
N1090 C1086 1.427 . S
N1090 C1087 1.384 . S
N1091 C1083 1.427 . S
N1091 C1089 1.384 . S
H1092 C1098 0.930 . S
H1093 C1102 0.930 . S
H1094 C1107 0.929 . S
H1095 C1105 0.929 . S
H1096 C1100 0.929 . S
H1097 C1106 0.929 . S
C1098 H1092 0.930 . S
C1098 C1099 1.367 . S
C1098 C1106 1.378 . S
C1099 C1098 1.367 . S
C1099 C1107 1.433 . S
C1100 H1096 0.929 . S
C1100 C1102 1.378 . S
C1100 C1104 1.350 . S
C1101 C1104 1.463 . S
C1101 C1106 1.350 . S
C1101 N1109 1.427 . S
C1102 H1093 0.930 . S
C1102 C1100 1.378 . S
C1102 C1103 1.367 . S
C1103 C1102 1.367 . S
C1103 C1105 1.433 . S
C1104 C1100 1.350 . S
C1104 C1101 1.463 . S
C1104 N1108 1.427 . S
C1105 H1095 0.929 . S
C1105 C1103 1.433 . S
C1105 N1108 1.384 . S
C1106 H1097 0.929 . S
C1106 C1098 1.378 . S
C1106 C1101 1.350 . S
C1107 H1094 0.929 . S
C1107 C1099 1.433 . S
C1107 N1109 1.384 . S
N1108 C1104 1.427 . S
N1108 C1105 1.384 . S
N1109 C1101 1.427 . S
N1109 C1107 1.384 . S
H1110 C1116 0.930 . S
H1111 C1120 0.930 . S
H1112 C1125 0.929 . S
H1113 C1123 0.929 . S
H1114 C1118 0.929 . S
H1115 C1124 0.929 . S
C1116 H1110 0.930 . S
C1116 C1117 1.367 . S
C1116 C1124 1.378 . S
C1117 C1116 1.367 . S
C1117 C1125 1.433 . S
C1118 H1114 0.929 . S
C1118 C1120 1.378 . S
C1118 C1122 1.350 . S
C1119 C1122 1.463 . S
C1119 C1124 1.350 . S
C1119 N1127 1.427 . S
C1120 H1111 0.930 . S
C1120 C1118 1.378 . S
C1120 C1121 1.367 . S
C1121 C1120 1.367 . S
C1121 C1123 1.433 . S
C1122 C1118 1.350 . S
C1122 C1119 1.463 . S
C1122 N1126 1.427 . S
C1123 H1113 0.929 . S
C1123 C1121 1.433 . S
C1123 N1126 1.384 . S
C1124 H1115 0.929 . S
C1124 C1116 1.378 . S
C1124 C1119 1.350 . S
C1125 H1112 0.929 . S
C1125 C1117 1.433 . S
C1125 N1127 1.384 . S
N1126 C1122 1.427 . S
N1126 C1123 1.384 . S
N1127 C1119 1.427 . S
N1127 C1125 1.384 . S
H1128 C1134 0.930 . S
H1129 C1138 0.930 . S
H1130 C1143 0.929 . S
H1131 C1141 0.929 . S
H1132 C1136 0.929 . S
H1133 C1142 0.929 . S
C1134 H1128 0.930 . S
C1134 C1135 1.367 . S
C1134 C1142 1.378 . S
C1135 C1134 1.367 . S
C1135 C1143 1.433 . S
C1136 H1132 0.929 . S
C1136 C1138 1.378 . S
C1136 C1140 1.350 . S
C1137 C1140 1.463 . S
C1137 C1142 1.350 . S
C1137 N1145 1.427 . S
C1138 H1129 0.930 . S
C1138 C1136 1.378 . S
C1138 C1139 1.367 . S
C1139 C1138 1.367 . S
C1139 C1141 1.433 . S
C1140 C1136 1.350 . S
C1140 C1137 1.463 . S
C1140 N1144 1.427 . S
C1141 H1131 0.929 . S
C1141 C1139 1.433 . S
C1141 N1144 1.384 . S
C1142 H1133 0.929 . S
C1142 C1134 1.378 . S
C1142 C1137 1.350 . S
C1143 H1130 0.929 . S
C1143 C1135 1.433 . S
C1143 N1145 1.384 . S
N1144 C1140 1.427 . S
N1144 C1141 1.384 . S
N1145 C1137 1.427 . S
N1145 C1143 1.384 . S
H1146 C1152 0.930 . S
H1147 C1156 0.930 . S
H1148 C1161 0.929 . S
H1149 C1159 0.929 . S
H1150 C1154 0.929 . S
H1151 C1160 0.929 . S
C1152 H1146 0.930 . S
C1152 C1153 1.367 . S
C1152 C1160 1.378 . S
C1153 C1152 1.367 . S
C1153 C1161 1.433 . S
C1154 H1150 0.929 . S
C1154 C1156 1.378 . S
C1154 C1158 1.350 . S
C1155 C1158 1.463 . S
C1155 C1160 1.350 . S
C1155 N1163 1.427 . S
C1156 H1147 0.930 . S
C1156 C1154 1.378 . S
C1156 C1157 1.367 . S
C1157 C1156 1.367 . S
C1157 C1159 1.433 . S
C1158 C1154 1.350 . S
C1158 C1155 1.463 . S
C1158 N1162 1.427 . S
C1159 H1149 0.929 . S
C1159 C1157 1.433 . S
C1159 N1162 1.384 . S
C1160 H1151 0.929 . S
C1160 C1152 1.378 . S
C1160 C1155 1.350 . S
C1161 H1148 0.929 . S
C1161 C1153 1.433 . S
C1161 N1163 1.384 . S
N1162 C1158 1.427 . S
N1162 C1159 1.384 . S
N1163 C1155 1.427 . S
N1163 C1161 1.384 . S
H1164 C1170 0.930 . S
H1165 C1174 0.930 . S
H1166 C1179 0.929 . S
H1167 C1177 0.929 . S
H1168 C1172 0.929 . S
H1169 C1178 0.929 . S
C1170 H1164 0.930 . S
C1170 C1171 1.367 . S
C1170 C1178 1.378 . S
C1171 C1170 1.367 . S
C1171 C1179 1.433 . S
C1172 H1168 0.929 . S
C1172 C1174 1.378 . S
C1172 C1176 1.350 . S
C1173 C1176 1.463 . S
C1173 C1178 1.350 . S
C1173 N1181 1.427 . S
C1174 H1165 0.930 . S
C1174 C1172 1.378 . S
C1174 C1175 1.367 . S
C1175 C1174 1.367 . S
C1175 C1177 1.433 . S
C1176 C1172 1.350 . S
C1176 C1173 1.463 . S
C1176 N1180 1.427 . S
C1177 H1167 0.929 . S
C1177 C1175 1.433 . S
C1177 N1180 1.384 . S
C1178 H1169 0.929 . S
C1178 C1170 1.378 . S
C1178 C1173 1.350 . S
C1179 H1166 0.929 . S
C1179 C1171 1.433 . S
C1179 N1181 1.384 . S
N1180 C1176 1.427 . S
N1180 C1177 1.384 . S
N1181 C1173 1.427 . S
N1181 C1179 1.384 . S
H1182 C1188 0.930 . S
H1183 C1192 0.930 . S
H1184 C1197 0.929 . S
H1185 C1195 0.929 . S
H1186 C1190 0.929 . S
H1187 C1196 0.929 . S
C1188 H1182 0.930 . S
C1188 C1189 1.367 . S
C1188 C1196 1.378 . S
C1189 C1188 1.367 . S
C1189 C1197 1.433 . S
C1190 H1186 0.929 . S
C1190 C1192 1.378 . S
C1190 C1194 1.350 . S
C1191 C1194 1.463 . S
C1191 C1196 1.350 . S
C1191 N1199 1.427 . S
C1192 H1183 0.930 . S
C1192 C1190 1.378 . S
C1192 C1193 1.367 . S
C1193 C1192 1.367 . S
C1193 C1195 1.433 . S
C1194 C1190 1.350 . S
C1194 C1191 1.463 . S
C1194 N1198 1.427 . S
C1195 H1185 0.929 . S
C1195 C1193 1.433 . S
C1195 N1198 1.384 . S
C1196 H1187 0.929 . S
C1196 C1188 1.378 . S
C1196 C1191 1.350 . S
C1197 H1184 0.929 . S
C1197 C1189 1.433 . S
C1197 N1199 1.384 . S
N1198 C1194 1.427 . S
N1198 C1195 1.384 . S
N1199 C1191 1.427 . S
N1199 C1197 1.384 . S
C343 C205 1.524 . S
C347 C3 1.532 . S
C361 C23 1.501 . S
C365 C218 1.514 . S
C379 C259 1.508 . S
C383 C35 1.513 . S
C397 C50 1.519 . S
C401 C190 1.516 . S
C415 C204 1.569 . S
C419 C63 1.545 . S
C433 C79 1.519 . S
C437 C219 1.523 . S
C451 C87 1.529 . S
C455 C255 1.533 . S
C469 C106 1.513 . S
C473 C191 1.502 . S
C487 C129 1.534 . S
C491 C115 1.535 . S
C505 C149 1.584 . S
C509 C133 1.573 . S
C523 C148 1.516 . S
C527 C157 1.514 . S
C541 C161 1.506 . S
C545 C119 1.509 . S
C559 C176 1.515 . S
C563 C51 1.505 . S
C577 C59 1.530 . S
C581 C227 1.533 . S
C595 C246 1.518 . S
C599 C22 1.516 . S
C613 C21 1.445 . S
C617 C303 1.456 . S
C631 C134 1.431 . S
C635 C9 1.421 . S
C649 C329 1.433 . S
C653 C45 1.444 . S
C667 C162 1.420 . S
C671 C36 1.420 . S
C685 C302 1.465 . S
C689 C101 1.458 . S
C703 C135 1.436 . S
C707 C93 1.440 . S
C721 C77 1.417 . S
C725 C325 1.444 . S
C739 C64 1.421 . S
C743 C163 1.409 . S
C757 C217 1.434 . S
C761 C273 1.433 . S
C775 C232 1.465 . S
C779 C213 1.460 . S
C793 C189 1.443 . S
C797 C233 1.460 . S
C811 C269 1.442 . S
C815 C185 1.442 . S
C829 C37 1.418 . S
C833 C288 1.433 . S
C847 C143 1.444 . S
C851 C105 1.417 . S
C865 C8 1.419 . S
C869 C316 1.419 . S
C883 C275 1.524 . S
C887 C31 1.532 . S
C901 C7 1.520 . S
C905 C231 1.503 . S
C919 C274 1.569 . S
C923 C91 1.547 . S
C937 C177 1.517 . S
C941 C107 1.524 . S
C955 C78 1.515 . S
C959 C247 1.507 . S
C973 C297 1.536 . S
C977 C283 1.533 . S
C991 C331 1.583 . S
C995 C287 1.570 . S
C1009 C311 1.509 . S
C1013 C330 1.514 . S
C1027 C301 1.502 . S
C1031 C315 1.509 . S
C1045 C121 1.459 . S
C1049 C49 1.447 . S
C1063 C17 1.447 . S
C1067 C147 1.435 . S
C1081 C73 1.461 . S
C1085 C120 1.464 . S
C1099 C289 1.444 . S
C1103 C65 1.441 . S
C1117 C92 1.422 . S
C1121 C317 1.411 . S
C1135 C175 1.427 . S
C1139 C203 1.428 . S
C1153 C260 1.466 . S
C1157 C171 1.459 . S
C1171 C245 1.453 . S
C1175 C261 1.454 . S
C1189 C199 1.442 . S
C1193 C241 1.442 . S
