# Generated by pormake.
# Topology sma, (6)-cn, num edge types: 1
# Building blocks:
#     Node 0, Type 0, BuildingBlock: BETDIP_clean_sbu_0, # of connection points: 6
#     Node 1, Type 0, BuildingBlock: BETDIP_clean_sbu_0, # of connection points: 6
#     Node 2, Type 0, BuildingBlock: BETDIP_clean_sbu_0, # of connection points: 6
#     Edge 3, Type (0, 0), BuildingBlock: KIFKEQ_clean_linker_1, # of connection points: 2
#     Edge 4, Type (0, 0), BuildingBlock: KIFKEQ_clean_linker_1, # of connection points: 2
#     Edge 5, Type (0, 0), BuildingBlock: KIFKEQ_clean_linker_1, # of connection points: 2
#     Edge 6, Type (0, 0), BuildingBlock: KIFKEQ_clean_linker_1, # of connection points: 2
#     Edge 7, Type (0, 0), BuildingBlock: KIFKEQ_clean_linker_1, # of connection points: 2
#     Edge 8, Type (0, 0), BuildingBlock: KIFKEQ_clean_linker_1, # of connection points: 2
#     Edge 9, Type (0, 0), BuildingBlock: KIFKEQ_clean_linker_1, # of connection points: 2
#     Edge 10, Type (0, 0), BuildingBlock: KIFKEQ_clean_linker_1, # of connection points: 2
#     Edge 11, Type (0, 0), BuildingBlock: KIFKEQ_clean_linker_1, # of connection points: 2
# Relax obj value: 0.074
# Max RMSD: 0.174
# Mean RMSD: 0.174
data_MOF--net-sma--node1-BETDIP_clean_sbu_0--edge1-KIFKEQ_clean_linker_1
_symmetry_space_group_name_H-M    P1
_symmetry_Int_Tables_number       1
_symmetry_cell_setting            triclinic
loop_
_symmetry_equiv_pos_as_xyz
'x, y, z'
_cell_length_a     39.5063
_cell_length_b     39.643747
_cell_length_c     14.383821
_cell_angle_alpha  89.436007
_cell_angle_beta   90.153287
_cell_angle_gamma 120.08059
loop_
_atom_site_label
_atom_site_type_symbol
_atom_site_fract_x
_atom_site_fract_y
_atom_site_fract_z
_atom_type_partial_charge
Tb0 Tb 0.08783 0.58574 0.08696 0.0
Tb1 Tb 1.03999 0.49893 0.0566 0.0
C2 C 0.1317 0.65321 0.14811 0.0
C3 C 0.17019 0.67729 0.19295 0.0
C4 C 0.17302 0.69997 0.27011 0.0
C5 C 0.20965 0.72825 0.30345 0.0
C6 C 0.24417 0.73466 0.25952 0.0
C7 C 0.2413 0.7104 0.18561 0.0
C8 C 0.20472 0.68191 0.15284 0.0
C9 C 1.0656 0.56604 0.91421 0.0
C10 C 0.13267 0.53949 0.0542 0.0
C11 C 1.00486 0.42722 0.02424 0.0
C12 C 0.96855 0.39428 0.06326 0.0
C13 C 0.94301 0.36327 0.00653 0.0
C14 C 0.90838 0.33227 0.04335 0.0
C15 C 0.89867 0.33169 0.1378 0.0
C16 C 0.92441 0.36288 0.19424 0.0
C17 C 0.95886 0.39377 0.15746 0.0
C18 C 1.04033 0.52249 0.22782 0.0
C19 C 0.99738 0.54707 0.05417 0.0
O20 O 0.10344 0.62538 0.19758 0.0
O21 O 0.13216 0.64291 0.06209 0.0
O22 O 0.07578 0.54808 -0.03001 0.0
O23 O 0.07027 0.59746 -0.0474 0.0
O24 O 0.13508 0.57231 0.08234 0.0
O25 O 0.09876 0.50843 0.03323 0.0
O26 O 1.00069 0.45241 -0.02738 0.0
O27 O 1.03417 0.44429 0.0824 0.0
O28 O 0.06884 0.53556 0.17304 0.0
O29 O 1.01055 0.49407 0.18853 0.0
O30 O 0.99824 0.51691 0.0184 0.0
O31 O 1.02773 0.57479 0.09987 0.0
H32 H 0.14685 0.69709 0.30191 0.0
H33 H 0.21088 0.74659 0.36018 0.0
H34 H 0.2674 0.71428 0.1512 0.0
H35 H 0.20356 0.66474 0.09354 0.0
H36 H 0.94985 0.36303 0.93373 0.0
H37 H 0.88941 0.30857 -0.00196 0.0
H38 H 0.91764 0.36381 0.26675 0.0
H39 H 0.97788 0.41731 0.20302 0.0
Tb40 Tb 0.58819 1.02782 0.44262 0.0
Tb41 Tb 0.54821 0.07304 0.39442 0.0
C42 C 0.60963 0.98645 0.5302 0.0
C43 C 0.59621 0.94527 0.5527 0.0
C44 C 0.60551 0.93593 0.63975 0.0
C45 C 0.59674 0.89784 0.66023 0.0
C46 C 0.57857 0.86828 0.59373 0.0
C47 C 0.56798 0.87746 0.50758 0.0
C48 C 0.57662 0.9156 0.4873 0.0
C49 C 0.58528 1.03945 0.26334 0.0
C50 C 0.49609 0.98276 0.40205 0.0
C51 C 0.52634 0.11958 0.33933 0.0
C52 C 0.53084 0.15546 0.38065 0.0
C53 C 0.52364 0.18104 0.32766 0.0
C54 C 0.52748 0.21489 0.3676 0.0
C55 C 0.53842 0.2236 0.46147 0.0
C56 C 0.54574 0.19785 0.51408 0.0
C57 C 0.54215 0.16422 0.47396 0.0
C58 C 0.55535 0.06318 0.57381 0.0
C59 C 0.64159 0.11548 0.39523 0.0
O60 O 0.5905 1.00175 0.56873 0.0
O61 O 0.61881 0.99742 0.44339 0.0
O62 O 0.55908 1.03304 0.32192 0.0
O63 O 0.61211 1.0345 0.30241 0.0
O64 O 0.52542 0.98254 0.44691 0.0
O65 O 0.50134 1.01484 0.35943 0.0
O66 O 0.55857 0.12124 0.31113 0.0
O67 O 0.50404 0.08753 0.38603 0.0
O68 O 0.58028 0.07046 0.51177 0.0
O69 O 0.52602 0.06404 0.53741 0.0
O70 O 0.60974 0.11481 0.36371 0.0
O71 O 0.63952 0.08594 0.4437 0.0
H72 H 0.62067 0.95843 0.69111 0.0
H73 H 0.60568 0.89194 0.7268 0.0
H74 H 0.55348 0.85526 0.45533 0.0
H75 H 0.56885 0.92206 0.41984 0.0
H76 H 0.5149 0.17477 0.25556 0.0
H77 H 0.52136 0.23396 0.32537 0.0
H78 H 0.55478 0.20395 0.58601 0.0
H79 H 0.54816 0.14497 0.51588 0.0
Tb80 Tb 0.53036 0.5232 0.7643 0.0
Tb81 Tb 0.61614 0.56638 0.71857 0.0
C82 C 0.4663 0.4987 0.84847 0.0
C83 C 0.43801 0.51078 0.87596 0.0
C84 C 0.42082 0.50006 -0.03561 0.0
C85 C 0.39075 0.50705 -0.01053 0.0
C86 C 0.37702 0.52479 0.92635 0.0
C87 C 0.39545 0.537 0.83893 0.0
C88 C 0.42569 0.53007 0.81394 0.0
C89 C 0.54599 0.52659 0.58617 0.0
C90 C 0.57443 0.61507 0.72294 0.0
C91 C 0.68542 0.59154 0.66533 0.0
C92 C 0.71787 0.58666 0.70137 0.0
C93 C 0.71318 0.54952 0.71773 0.0
C94 C 0.74335 0.54565 0.75809 0.0
C95 C 0.77869 0.57878 0.78386 0.0
C96 C 0.78344 0.61589 0.7666 0.0
C97 C 0.7534 0.61975 0.72543 0.0
C98 C 0.59836 0.55878 0.89706 0.0
C99 C 0.56882 0.47303 0.72363 0.0
O100 O 0.5003 0.51571 0.8902 0.0
O101 O 0.46919 0.49347 0.75977 0.0
O102 O 0.56457 0.55325 0.64401 0.0
O103 O 0.51489 0.49857 0.62522 0.0
O104 O 0.54534 0.58505 0.76751 0.0
O105 O 0.60233 0.6114 0.68172 0.0
O106 O 0.65525 0.56093 0.62965 0.0
O107 O 0.67485 0.61106 0.71896 0.0
O108 O 0.58174 0.53357 0.83569 0.0
O109 O 0.62794 0.58882 0.86063 0.0
O110 O 0.60001 0.50562 0.69492 0.0
O111 O 0.53945 0.47339 0.76686 0.0
H112 H 0.42999 0.4853 0.01344 0.0
H113 H 0.37783 0.49799 0.05799 0.0
H114 H 0.38551 0.55054 0.7884 0.0
H115 H 0.43859 0.53877 0.7453 0.0
H116 H 0.68599 0.5234 0.70097 0.0
H117 H 0.73863 0.51666 0.77127 0.0
H118 H 0.81046 0.64197 0.78465 0.0
H119 H 0.7577 0.64869 0.71378 0.0
H120 H 0.2087 0.59831 0.07703 0.0
H121 H 0.13942 0.47735 -0.00128 0.0
H122 H 0.26839 0.5958 0.04971 0.0
H123 H 0.19888 0.47514 -0.02992 0.0
H124 H 0.31032 0.47164 0.01679 0.0
H125 H 0.25279 0.47641 0.05294 0.0
H126 H 0.30622 0.59013 0.92176 0.0
H127 H 0.36469 0.58601 0.88856 0.0
C128 C 0.20613 0.57119 0.05412 0.0
C129 C 0.16915 0.53801 0.04026 0.0
C130 C 0.24039 0.56984 0.03785 0.0
C131 C 0.23847 0.53527 0.00778 0.0
C132 C 0.20149 0.50211 -0.00552 0.0
C133 C 0.16731 0.50346 0.01048 0.0
C134 C 0.31017 0.49798 -0.00314 0.0
C135 C 0.3423 0.5285 0.94997 0.0
C136 C 0.27689 0.50049 0.01659 0.0
C137 C 0.27473 0.53355 -0.01015 0.0
C138 C 0.30702 0.56436 0.94402 0.0
C139 C 0.34038 0.56183 0.9241 0.0
H140 H 0.71445 0.12421 0.42316 0.0
H141 H 0.65649 0.1824 0.30445 0.0
H142 H 0.77694 0.17597 0.36231 0.0
H143 H 0.71879 0.23418 0.24527 0.0
H144 H 0.82594 0.29431 0.05791 0.0
H145 H 0.76503 0.24262 0.12458 0.0
H146 H 0.82611 0.24472 0.37592 0.0
H147 H 0.88735 0.29545 0.30784 0.0
C148 C 0.71506 0.14828 0.38541 0.0
C149 C 0.68033 0.14896 0.36848 0.0
C150 C 0.75094 0.178 0.35052 0.0
C151 C 0.75288 0.20906 0.29784 0.0
C152 C 0.7183 0.21032 0.28374 0.0
C153 C 0.68255 0.1807 0.31851 0.0
C154 C 0.82652 0.28343 0.1269 0.0
C155 C 0.86162 0.29918 0.17745 0.0
C156 C 0.79146 0.25411 0.16571 0.0
C157 C 0.79053 0.23969 0.25608 0.0
C158 C 0.82574 0.25496 0.30605 0.0
C159 C 0.86081 0.28436 0.2673 0.0
H160 H 0.59223 0.82308 0.47485 0.0
H161 H 0.55355 0.82454 0.75462 0.0
H162 H 0.58866 0.761 0.5076 0.0
H163 H 0.55106 0.76273 0.78828 0.0
H164 H 0.51858 0.63246 0.78089 0.0
H165 H 0.51654 0.69224 0.7494 0.0
H166 H 0.62653 0.74033 0.60244 0.0
H167 H 0.62846 0.68097 0.63267 0.0
C168 C 0.58248 0.80992 0.54304 0.0
C169 C 0.57324 0.82886 0.61213 0.0
C170 C 0.5809 0.77454 0.5622 0.0
C171 C 0.56997 0.75709 0.65089 0.0
C172 C 0.55946 0.77532 0.71919 0.0
C173 C 0.56122 0.81089 0.70012 0.0
C174 C 0.54238 0.65587 0.74218 0.0
C175 C 0.57357 0.65177 0.7089 0.0
C176 C 0.54124 0.69014 0.72434 0.0
C177 C 0.57116 0.72089 0.67251 0.0
C178 C 0.6026 0.71693 0.64087 0.0
C179 C 0.60381 0.68289 0.65885 0.0
H180 H 0.82305 0.618 0.93483 0.0
H181 H 0.80586 0.53012 0.7355 0.0
H182 H 0.87413 0.61016 0.01071 0.0
H183 H 0.85728 0.52279 0.80964 0.0
H184 H 0.92461 0.4902 0.00393 0.0
H185 H 0.87098 0.49788 0.94612 0.0
H186 H 0.93955 0.62204 -0.00843 0.0
H187 H 0.99295 0.61402 0.05248 0.0
C188 C 0.83045 0.59725 0.90673 0.0
C189 C 0.8103 0.57458 0.8293 0.0
C190 C 0.85976 0.59277 -0.04981 0.0
C191 C 0.86977 0.56563 0.91694 0.0
C192 C 0.8498 0.5433 0.83879 0.0
C193 C 0.82037 0.54759 0.79588 0.0
C194 C 0.92808 0.5191 0.00282 0.0
C195 C 0.96315 0.55154 0.03232 0.0
C196 C 0.89741 0.52357 -0.03121 0.0
C197 C 0.90108 0.56069 -0.03772 0.0
C198 C 0.93553 0.59297 -0.00412 0.0
C199 C 0.9662 0.58841 0.03087 0.0
H200 H 0.43589 0.97026 0.28731 0.0
H201 H 0.47173 0.91126 0.48448 0.0
H202 H 0.37609 0.90918 0.25692 0.0
H203 H 0.41127 0.84982 0.45391 0.0
H204 H 0.27487 0.75995 0.43372 0.0
H205 H 0.33621 0.81929 0.4729 0.0
H206 H 0.36093 0.84591 0.18073 0.0
H207 H 0.29997 0.78708 0.14172 0.0
C208 C 0.43098 0.94433 0.32466 0.0
C209 C 0.45877 0.94571 0.38814 0.0
C210 C 0.39674 0.90925 0.30674 0.0
C211 C 0.38914 0.87466 0.35245 0.0
C212 C 0.41633 0.87607 0.41785 0.0
C213 C 0.45097 0.91122 0.43507 0.0
C214 C 0.29359 0.77842 0.37805 0.0
C215 C 0.28262 0.76879 0.28464 0.0
C216 C 0.32874 0.81221 0.40044 0.0
C217 C 0.35321 0.83733 0.32986 0.0
C218 C 0.3425 0.8273 0.23663 0.0
C219 C 0.30776 0.79339 0.2143 0.0
H220 H 0.62414 0.46153 0.63976 0.0
H221 H 0.50636 0.39899 0.74942 0.0
H222 H 0.61687 0.40092 0.58153 0.0
H223 H 0.49899 0.33816 0.68969 0.0
H224 H 0.51379 0.23152 0.6338 0.0
H225 H 0.52214 0.29092 0.70522 0.0
H226 H 0.57997 0.35614 0.4564 0.0
H227 H 0.57252 0.29708 0.3861 0.0
C228 C 0.59676 0.43483 0.65233 0.0
C229 C 0.56576 0.43528 0.69911 0.0
C230 C 0.59251 0.40005 0.61812 0.0
C231 C 0.55717 0.36473 0.62974 0.0
C232 C 0.52667 0.36483 0.67987 0.0
C233 C 0.5309 0.39974 0.71407 0.0
C234 C 0.52853 0.25862 0.59465 0.0
C235 C 0.54258 0.25956 0.50427 0.0
C236 C 0.533 0.29258 0.63529 0.0
C237 C 0.5519 0.32835 0.58679 0.0
C238 C 0.56576 0.3292 0.49626 0.0
C239 C 0.56108 0.29524 0.45547 0.0
H240 H 0.06824 0.61585 0.78069 0.0
H241 H 1.04951 0.49965 0.82326 0.0
H242 H 1.06184 0.60537 0.61286 0.0
H243 H 1.04182 0.48883 0.65475 0.0
H244 H 0.98397 0.48293 0.35718 0.0
H245 H 0.98908 0.49238 0.52562 0.0
H246 H 0.10733 0.58778 0.4927 0.0
H247 H 0.10301 0.57736 0.32446 0.0
C248 C 1.06239 0.58797 0.7541 0.0
C249 C 1.05944 0.55852 0.81431 0.0
C250 C 1.05889 0.58211 0.65844 0.0
C251 C 1.0515 0.54644 0.62198 0.0
C252 C 1.04749 0.51655 0.68211 0.0
C253 C 1.05186 0.52271 0.77789 0.0
C254 C 1.01103 0.50597 0.38593 0.0
C255 C 1.043 0.52976 0.3281 0.0
C256 C 1.01392 0.51118 0.48192 0.0
C257 C 1.04853 0.54073 0.52099 0.0
C258 C 0.08032 0.56494 0.46331 0.0
C259 C 0.07775 0.55916 0.36744 0.0
H260 H 0.53608 0.0584 0.17509 0.0
H261 H 0.62718 1.03089 0.12541 0.0
H262 H 0.53025 0.0656 0.00831 0.0
H263 H 0.62 1.03572 -0.04168 0.0
H264 H 0.49916 1.03562 0.70652 0.0
H265 H 0.50676 1.02956 0.87272 0.0
H266 H 0.63129 0.07812 0.83318 0.0
H267 H 0.62293 0.08204 0.66592 0.0
C268 C 0.55463 0.05361 0.12815 0.0
C269 C 0.582 1.04405 0.1627 0.0
C270 C 0.55113 0.05739 0.03248 0.0
C271 C 0.57445 0.05097 -0.03077 0.0
C272 C 0.60196 1.04152 0.00454 0.0
C273 C 0.60592 1.03844 0.10031 0.0
C274 C 0.52809 0.04482 0.73364 0.0
C275 C 0.56046 0.05929 0.67388 0.0
C276 C 0.53257 1.0417 0.82903 0.0
C277 C 0.56972 0.05365 0.86707 0.0
C278 C 0.60214 0.06809 0.80659 0.0
C279 C 0.59748 0.07059 0.71081 0.0
H280 H 0.49674 0.48222 0.44925 0.0
H281 H 0.61269 0.57921 0.49715 0.0
H282 H 0.50826 0.48993 0.28216 0.0
H283 H 0.62542 0.58565 0.3304 0.0
H284 H 0.55328 0.49049 -0.00896 0.0
H285 H 0.54144 0.48172 0.15836 0.0
H286 H 0.60991 0.60672 0.1936 0.0
H287 H 0.62332 0.61489 0.0274 0.0
C288 C 0.52491 0.5049 0.42378 0.0
C289 C 0.55379 0.53026 0.48565 0.0
C290 C 0.53167 0.50918 0.32801 0.0
C291 C 0.56778 0.53849 0.29222 0.0
C292 C 0.59695 0.56331 0.35495 0.0
C293 C 0.58987 0.55945 0.45062 0.0
C294 C 0.5657 0.51595 0.03501 0.0
C295 C 0.58931 0.55331 -0.00305 0.0
C296 C 0.55878 0.51104 0.13079 0.0
C297 C 0.57485 0.5435 0.19008 0.0
C298 C 0.59782 0.58094 0.15086 0.0
C299 C 0.60525 0.58573 0.05548 0.0
loop_
_geom_bond_atom_site_label_1
_geom_bond_atom_site_label_2
_geom_bond_distance
_geom_bond_site_symmetry_2
_ccdc_geom_bond_type
Tb0 C2 2.809 . S
Tb0 O20 2.484 . S
Tb0 O21 2.440 . S
Tb0 O22 2.658 1_455 S
Tb0 O23 2.409 1_554 S
Tb0 O24 2.378 . S
Tb0 O28 2.325 . S
Tb0 O31 2.341 1_455 S
Tb1 C11 2.809 . S
Tb1 O22 2.325 . S
Tb1 O25 2.341 1_655 S
Tb1 O26 2.484 . S
Tb1 O27 2.440 . S
Tb1 O28 2.658 1_655 S
Tb1 O29 2.409 . S
Tb1 O30 2.378 . S
C2 Tb0 2.809 . S
C2 C3 1.514 . S
C2 O20 1.248 . S
C2 O21 1.266 . S
C3 C2 1.514 . S
C3 C4 1.359 . S
C3 C8 1.348 . S
C4 C3 1.359 . S
C4 C5 1.380 . S
C4 H32 0.929 . S
C5 C4 1.380 . S
C5 C6 1.347 . S
C5 H33 0.931 . S
C6 C5 1.347 . S
C6 C7 1.369 . S
C7 C6 1.369 . S
C7 C8 1.408 . S
C7 H34 0.930 . S
C8 C3 1.348 . S
C8 C7 1.408 . S
C8 H35 0.930 . S
C9 O22 1.281 1_456 S
C9 O23 1.254 . S
C10 O24 1.236 . S
C10 O25 1.266 . S
C11 Tb1 2.809 . S
C11 C12 1.514 . S
C11 O26 1.248 . S
C11 O27 1.266 . S
C12 C11 1.514 . S
C12 C13 1.359 . S
C12 C17 1.348 . S
C13 C12 1.359 . S
C13 C14 1.380 . S
C13 H36 0.929 . S
C14 C13 1.380 . S
C14 C15 1.347 . S
C14 H37 0.931 1_554 S
C15 C14 1.347 . S
C15 C16 1.369 . S
C16 C15 1.369 . S
C16 C17 1.408 . S
C16 H38 0.930 . S
C17 C12 1.348 . S
C17 C16 1.408 . S
C17 H39 0.930 . S
C18 O28 1.277 1_655 S
C18 O29 1.256 . S
C19 O30 1.236 . S
C19 O31 1.266 . S
O20 Tb0 2.484 . S
O20 C2 1.248 . S
O21 Tb0 2.440 . S
O21 C2 1.266 . S
O22 Tb0 2.658 1_655 S
O22 Tb1 2.325 . S
O22 C9 1.281 1_654 S
O23 Tb0 2.409 1_556 S
O23 C9 1.254 . S
O24 Tb0 2.378 . S
O24 C10 1.236 . S
O25 Tb1 2.341 1_455 S
O25 C10 1.266 . S
O26 Tb1 2.484 . S
O26 C11 1.248 . S
O27 Tb1 2.440 . S
O27 C11 1.266 . S
O28 Tb0 2.325 . S
O28 Tb1 2.658 1_455 S
O28 C18 1.277 1_455 S
O29 Tb1 2.409 . S
O29 C18 1.256 . S
O30 Tb1 2.378 . S
O30 C19 1.236 . S
O31 Tb0 2.341 1_655 S
O31 C19 1.266 . S
H32 C4 0.929 . S
H33 C5 0.931 . S
H34 C7 0.930 . S
H35 C8 0.930 . S
H36 C13 0.929 . S
H37 C14 0.931 1_556 S
H38 C16 0.930 . S
H39 C17 0.930 . S
Tb40 C42 2.809 . S
Tb40 O60 2.484 . S
Tb40 O61 2.440 . S
Tb40 O62 2.658 1_565 S
Tb40 O63 2.409 . S
Tb40 O64 2.378 . S
Tb40 O68 2.325 . S
Tb40 O71 2.341 1_565 S
Tb41 C51 2.809 . S
Tb41 O62 2.325 . S
Tb41 O65 2.341 1_545 S
Tb41 O66 2.484 . S
Tb41 O67 2.440 . S
Tb41 O68 2.658 1_545 S
Tb41 O69 2.409 . S
Tb41 O70 2.378 . S
C42 Tb40 2.809 . S
C42 C43 1.514 . S
C42 O60 1.248 . S
C42 O61 1.266 . S
C43 C42 1.514 . S
C43 C44 1.359 . S
C43 C48 1.348 . S
C44 C43 1.359 . S
C44 C45 1.380 . S
C44 H72 0.929 . S
C45 C44 1.380 . S
C45 C46 1.347 . S
C45 H73 0.931 . S
C46 C45 1.347 . S
C46 C47 1.369 . S
C47 C46 1.369 . S
C47 C48 1.408 . S
C47 H74 0.930 . S
C48 C43 1.348 . S
C48 C47 1.408 . S
C48 H75 0.930 . S
C49 O62 1.274 1_565 S
C49 O63 1.267 . S
C50 O64 1.236 . S
C50 O65 1.266 . S
C51 Tb41 2.809 . S
C51 C52 1.514 . S
C51 O66 1.248 . S
C51 O67 1.266 . S
C52 C51 1.514 . S
C52 C53 1.359 . S
C52 C57 1.348 . S
C53 C52 1.359 . S
C53 C54 1.380 . S
C53 H76 0.929 . S
C54 C53 1.380 . S
C54 C55 1.347 . S
C54 H77 0.931 . S
C55 C54 1.347 . S
C55 C56 1.369 . S
C56 C55 1.369 . S
C56 C57 1.408 . S
C56 H78 0.930 . S
C57 C52 1.348 . S
C57 C56 1.408 . S
C57 H79 0.930 . S
C58 O68 1.281 1_545 S
C58 O69 1.254 . S
C59 O70 1.236 . S
C59 O71 1.266 . S
O60 Tb40 2.484 . S
O60 C42 1.248 . S
O61 Tb40 2.440 . S
O61 C42 1.266 . S
O62 Tb40 2.658 1_545 S
O62 Tb41 2.325 . S
O62 C49 1.274 1_545 S
O63 Tb40 2.409 . S
O63 C49 1.267 . S
O64 Tb40 2.378 . S
O64 C50 1.236 . S
O65 Tb41 2.341 1_565 S
O65 C50 1.266 . S
O66 Tb41 2.484 . S
O66 C51 1.248 . S
O67 Tb41 2.440 . S
O67 C51 1.266 . S
O68 Tb40 2.325 . S
O68 Tb41 2.658 1_565 S
O68 C58 1.281 1_565 S
O69 Tb41 2.409 . S
O69 C58 1.254 . S
O70 Tb41 2.378 . S
O70 C59 1.236 . S
O71 Tb40 2.341 1_545 S
O71 C59 1.266 . S
H72 C44 0.929 . S
H73 C45 0.931 . S
H74 C47 0.930 . S
H75 C48 0.930 . S
H76 C53 0.929 . S
H77 C54 0.931 . S
H78 C56 0.930 . S
H79 C57 0.930 . S
Tb80 C82 2.809 . S
Tb80 O100 2.484 . S
Tb80 O101 2.440 . S
Tb80 O102 2.658 . S
Tb80 O103 2.409 . S
Tb80 O104 2.378 . S
Tb80 O108 2.325 . S
Tb80 O111 2.341 . S
Tb81 C91 2.809 . S
Tb81 O102 2.325 . S
Tb81 O105 2.341 . S
Tb81 O106 2.484 . S
Tb81 O107 2.440 . S
Tb81 O108 2.658 . S
Tb81 O109 2.409 1_556 S
Tb81 O110 2.378 . S
C82 Tb80 2.809 . S
C82 C83 1.514 . S
C82 O100 1.248 . S
C82 O101 1.266 . S
C83 C82 1.514 . S
C83 C84 1.359 . S
C83 C88 1.348 . S
C84 C83 1.359 . S
C84 C85 1.380 . S
C84 H112 0.929 . S
C85 C84 1.380 . S
C85 C86 1.347 . S
C85 H113 0.931 1_556 S
C86 C85 1.347 . S
C86 C87 1.369 . S
C87 C86 1.369 . S
C87 C88 1.408 . S
C87 H114 0.930 . S
C88 C83 1.348 . S
C88 C87 1.408 . S
C88 H115 0.930 . S
C89 O102 1.281 . S
C89 O103 1.254 . S
C90 O104 1.236 . S
C90 O105 1.266 . S
C91 Tb81 2.809 . S
C91 C92 1.514 . S
C91 O106 1.248 . S
C91 O107 1.266 . S
C92 C91 1.514 . S
C92 C93 1.359 . S
C92 C97 1.348 . S
C93 C92 1.359 . S
C93 C94 1.380 . S
C93 H116 0.929 . S
C94 C93 1.380 . S
C94 C95 1.347 . S
C94 H117 0.931 . S
C95 C94 1.347 . S
C95 C96 1.369 . S
C96 C95 1.369 . S
C96 C97 1.408 . S
C96 H118 0.930 . S
C97 C92 1.348 . S
C97 C96 1.408 . S
C97 H119 0.930 . S
C98 O108 1.281 1_554 S
C98 O109 1.254 . S
C99 O110 1.236 . S
C99 O111 1.266 . S
O100 Tb80 2.484 . S
O100 C82 1.248 . S
O101 Tb80 2.440 . S
O101 C82 1.266 . S
O102 Tb80 2.658 . S
O102 Tb81 2.325 . S
O102 C89 1.281 . S
O103 Tb80 2.409 . S
O103 C89 1.254 . S
O104 Tb80 2.378 . S
O104 C90 1.236 . S
O105 Tb81 2.341 . S
O105 C90 1.266 . S
O106 Tb81 2.484 . S
O106 C91 1.248 . S
O107 Tb81 2.440 . S
O107 C91 1.266 . S
O108 Tb80 2.325 . S
O108 Tb81 2.658 . S
O108 C98 1.281 1_556 S
O109 Tb81 2.409 1_554 S
O109 C98 1.254 . S
O110 Tb81 2.378 . S
O110 C99 1.236 . S
O111 Tb80 2.341 . S
O111 C99 1.266 . S
H112 C84 0.929 . S
H113 C85 0.931 1_554 S
H114 C87 0.930 . S
H115 C88 0.930 . S
H116 C93 0.929 . S
H117 C94 0.931 . S
H118 C96 0.930 . S
H119 C97 0.930 . S
H120 C128 0.950 . S
H121 C133 0.950 . S
H122 C130 0.950 1_556 S
H123 C132 0.950 . S
H124 C134 0.950 1_554 S
H125 C136 0.950 . S
H126 C138 0.950 . S
H127 C139 0.950 . S
C128 H120 0.950 . S
C128 C129 1.386 . S
C128 C130 1.391 . S
C129 C128 1.386 . S
C129 C133 1.393 . S
C130 H122 0.950 1_554 S
C130 C128 1.391 . S
C130 C131 1.400 . S
C131 C130 1.400 . S
C131 C132 1.398 . S
C131 C137 1.491 1_554 S
C132 H123 0.950 . S
C132 C131 1.398 . S
C132 C133 1.391 . S
C133 H121 0.950 . S
C133 C129 1.393 . S
C133 C132 1.391 . S
C134 H124 0.950 1_556 S
C134 C135 1.386 . S
C134 C136 1.391 1_556 S
C135 C134 1.386 . S
C135 C139 1.393 . S
C136 H125 0.950 . S
C136 C134 1.391 1_554 S
C136 C137 1.400 1_554 S
C137 C131 1.491 1_556 S
C137 C136 1.400 1_556 S
C137 C138 1.398 . S
C138 H126 0.950 . S
C138 C137 1.398 . S
C138 C139 1.391 . S
C139 H127 0.950 . S
C139 C135 1.393 . S
C139 C138 1.391 . S
H140 C148 0.950 . S
H141 C153 0.950 . S
H142 C150 0.950 . S
H143 C152 0.950 . S
H144 C154 0.950 . S
H145 C156 0.950 . S
H146 C158 0.950 . S
H147 C159 0.950 . S
C148 H140 0.950 . S
C148 C149 1.386 . S
C148 C150 1.391 . S
C149 C148 1.386 . S
C149 C153 1.393 . S
C150 H142 0.950 . S
C150 C148 1.391 . S
C150 C151 1.400 . S
C151 C150 1.400 . S
C151 C152 1.398 . S
C151 C157 1.491 . S
C152 H143 0.950 . S
C152 C151 1.398 . S
C152 C153 1.391 . S
C153 H141 0.950 . S
C153 C149 1.393 . S
C153 C152 1.391 . S
C154 H144 0.950 . S
C154 C155 1.386 . S
C154 C156 1.391 . S
C155 C154 1.386 . S
C155 C159 1.393 . S
C156 H145 0.950 . S
C156 C154 1.391 . S
C156 C157 1.400 . S
C157 C151 1.491 . S
C157 C156 1.400 . S
C157 C158 1.398 . S
C158 H146 0.950 . S
C158 C157 1.398 . S
C158 C159 1.391 . S
C159 H147 0.950 . S
C159 C155 1.393 . S
C159 C158 1.391 . S
H160 C168 0.950 . S
H161 C173 0.950 . S
H162 C170 0.950 . S
H163 C172 0.950 . S
H164 C174 0.950 . S
H165 C176 0.950 . S
H166 C178 0.950 . S
H167 C179 0.950 . S
C168 H160 0.950 . S
C168 C169 1.386 . S
C168 C170 1.391 . S
C169 C168 1.386 . S
C169 C173 1.393 . S
C170 H162 0.950 . S
C170 C168 1.391 . S
C170 C171 1.400 . S
C171 C170 1.400 . S
C171 C172 1.398 . S
C171 C177 1.491 . S
C172 H163 0.950 . S
C172 C171 1.398 . S
C172 C173 1.391 . S
C173 H161 0.950 . S
C173 C169 1.393 . S
C173 C172 1.391 . S
C174 H164 0.950 . S
C174 C175 1.386 . S
C174 C176 1.391 . S
C175 C174 1.386 . S
C175 C179 1.393 . S
C176 H165 0.950 . S
C176 C174 1.391 . S
C176 C177 1.400 . S
C177 C171 1.491 . S
C177 C176 1.400 . S
C177 C178 1.398 . S
C178 H166 0.950 . S
C178 C177 1.398 . S
C178 C179 1.391 . S
C179 H167 0.950 . S
C179 C175 1.393 . S
C179 C178 1.391 . S
H180 C188 0.950 . S
H181 C193 0.950 . S
H182 C190 0.950 . S
H183 C192 0.950 . S
H184 C194 0.950 1_556 S
H185 C196 0.950 . S
H186 C198 0.950 . S
H187 C199 0.950 . S
C188 H180 0.950 . S
C188 C189 1.386 . S
C188 C190 1.391 1_556 S
C189 C188 1.386 . S
C189 C193 1.393 . S
C190 H182 0.950 . S
C190 C188 1.391 1_554 S
C190 C191 1.400 1_554 S
C191 C190 1.400 1_556 S
C191 C192 1.398 . S
C191 C197 1.491 1_556 S
C192 H183 0.950 . S
C192 C191 1.398 . S
C192 C193 1.391 . S
C193 H181 0.950 . S
C193 C189 1.393 . S
C193 C192 1.391 . S
C194 H184 0.950 1_554 S
C194 C195 1.386 . S
C194 C196 1.391 1_554 S
C195 C194 1.386 . S
C195 C199 1.393 . S
C196 H185 0.950 . S
C196 C194 1.391 1_556 S
C196 C197 1.400 1_556 S
C197 C191 1.491 1_554 S
C197 C196 1.400 1_554 S
C197 C198 1.398 . S
C198 H186 0.950 . S
C198 C197 1.398 . S
C198 C199 1.391 . S
C199 H187 0.950 . S
C199 C195 1.393 . S
C199 C198 1.391 . S
H200 C208 0.950 . S
H201 C213 0.950 . S
H202 C210 0.950 . S
H203 C212 0.950 . S
H204 C214 0.950 . S
H205 C216 0.950 . S
H206 C218 0.950 . S
H207 C219 0.950 . S
C208 H200 0.950 . S
C208 C209 1.386 . S
C208 C210 1.391 . S
C209 C208 1.386 . S
C209 C213 1.393 . S
C210 H202 0.950 . S
C210 C208 1.391 . S
C210 C211 1.400 . S
C211 C210 1.400 . S
C211 C212 1.398 . S
C211 C217 1.491 . S
C212 H203 0.950 . S
C212 C211 1.398 . S
C212 C213 1.391 . S
C213 H201 0.950 . S
C213 C209 1.393 . S
C213 C212 1.391 . S
C214 H204 0.950 . S
C214 C215 1.386 . S
C214 C216 1.391 . S
C215 C214 1.386 . S
C215 C219 1.393 . S
C216 H205 0.950 . S
C216 C214 1.391 . S
C216 C217 1.400 . S
C217 C211 1.491 . S
C217 C216 1.400 . S
C217 C218 1.398 . S
C218 H206 0.950 . S
C218 C217 1.398 . S
C218 C219 1.391 . S
C219 H207 0.950 . S
C219 C215 1.393 . S
C219 C218 1.391 . S
H220 C228 0.950 . S
H221 C233 0.950 . S
H222 C230 0.950 . S
H223 C232 0.950 . S
H224 C234 0.950 . S
H225 C236 0.950 . S
H226 C238 0.950 . S
H227 C239 0.950 . S
C228 H220 0.950 . S
C228 C229 1.386 . S
C228 C230 1.391 . S
C229 C228 1.386 . S
C229 C233 1.393 . S
C230 H222 0.950 . S
C230 C228 1.391 . S
C230 C231 1.400 . S
C231 C230 1.400 . S
C231 C232 1.398 . S
C231 C237 1.491 . S
C232 H223 0.950 . S
C232 C231 1.398 . S
C232 C233 1.391 . S
C233 H221 0.950 . S
C233 C229 1.393 . S
C233 C232 1.391 . S
C234 H224 0.950 . S
C234 C235 1.386 . S
C234 C236 1.391 . S
C235 C234 1.386 . S
C235 C239 1.393 . S
C236 H225 0.950 . S
C236 C234 1.391 . S
C236 C237 1.400 . S
C237 C231 1.491 . S
C237 C236 1.400 . S
C237 C238 1.398 . S
C238 H226 0.950 . S
C238 C237 1.398 . S
C238 C239 1.391 . S
C239 H227 0.950 . S
C239 C235 1.393 . S
C239 C238 1.391 . S
H240 C248 0.950 . S
H241 C253 0.950 . S
H242 C250 0.950 . S
H243 C252 0.950 . S
H244 C254 0.950 . S
H245 C256 0.950 . S
H246 C258 0.950 . S
H247 C259 0.950 . S
C248 H240 0.950 . S
C248 C249 1.386 1_455 S
C248 C250 1.391 . S
C249 C248 1.386 1_655 S
C249 C253 1.393 . S
C250 H242 0.950 . S
C250 C248 1.391 . S
C250 C251 1.399 . S
C251 C250 1.399 . S
C251 C252 1.399 1_455 S
C251 C257 1.491 . S
C252 H243 0.950 . S
C252 C251 1.399 1_655 S
C252 C253 1.391 . S
C253 H241 0.950 . S
C253 C249 1.393 . S
C253 C252 1.391 . S
C254 H244 0.950 . S
C254 C255 1.386 1_655 S
C254 C256 1.391 . S
C255 C254 1.386 1_455 S
C255 C259 1.393 . S
C256 H245 0.950 . S
C256 C254 1.391 . S
C256 C257 1.402 1_655 S
C257 C251 1.491 . S
C257 C256 1.402 1_455 S
C257 C258 1.396 . S
C258 H246 0.950 . S
C258 C257 1.396 . S
C258 C259 1.391 . S
C259 H247 0.950 . S
C259 C255 1.393 . S
C259 C258 1.391 . S
H260 C268 0.950 . S
H261 C273 0.950 . S
H262 C270 0.950 . S
H263 C272 0.950 . S
H264 C274 0.950 . S
H265 C276 0.950 . S
H266 C278 0.950 . S
H267 C279 0.950 . S
C268 H260 0.950 . S
C268 C269 1.386 . S
C268 C270 1.391 . S
C269 C268 1.386 . S
C269 C273 1.393 1_545 S
C270 H262 0.950 . S
C270 C268 1.391 . S
C270 C271 1.415 . S
C271 C270 1.415 . S
C271 C272 1.385 1_545 S
C271 C277 1.490 1_554 S
C272 H263 0.950 . S
C272 C271 1.385 1_565 S
C272 C273 1.391 . S
C273 H261 0.950 . S
C273 C269 1.393 1_565 S
C273 C272 1.391 . S
C274 H264 0.950 . S
C274 C275 1.386 . S
C274 C276 1.391 . S
C275 C274 1.386 . S
C275 C279 1.393 1_565 S
C276 H265 0.950 . S
C276 C274 1.391 . S
C276 C277 1.396 1_565 S
C277 C271 1.490 1_556 S
C277 C276 1.396 1_545 S
C277 C278 1.402 . S
C278 H266 0.950 . S
C278 C277 1.402 . S
C278 C279 1.391 . S
C279 H267 0.950 . S
C279 C275 1.393 1_545 S
C279 C278 1.391 . S
H280 C288 0.950 . S
H281 C293 0.950 . S
H282 C290 0.950 . S
H283 C292 0.950 . S
H284 C294 0.950 . S
H285 C296 0.950 . S
H286 C298 0.950 . S
H287 C299 0.950 . S
C288 H280 0.950 . S
C288 C289 1.386 . S
C288 C290 1.391 . S
C289 C288 1.386 . S
C289 C293 1.393 . S
C290 H282 0.950 . S
C290 C288 1.391 . S
C290 C291 1.400 . S
C291 C290 1.400 . S
C291 C292 1.398 . S
C291 C297 1.491 . S
C292 H283 0.950 . S
C292 C291 1.398 . S
C292 C293 1.391 . S
C293 H281 0.950 . S
C293 C289 1.393 . S
C293 C292 1.391 . S
C294 H284 0.950 . S
C294 C295 1.386 . S
C294 C296 1.391 . S
C295 C294 1.386 . S
C295 C299 1.393 . S
C296 H285 0.950 . S
C296 C294 1.391 . S
C296 C297 1.400 . S
C297 C291 1.491 . S
C297 C296 1.400 . S
C297 C298 1.398 . S
C298 H286 0.950 . S
C298 C297 1.398 . S
C298 C299 1.391 . S
C299 H287 0.950 . S
C299 C295 1.393 . S
C299 C298 1.391 . S
C129 C10 1.902 . S
C135 C86 1.950 . S
C149 C59 2.217 . S
C155 C15 2.155 . S
C169 C46 1.941 . S
C175 C90 1.882 . S
C189 C95 2.159 . S
C195 C19 2.219 . S
C209 C50 1.884 . S
C215 C6 1.941 . S
C229 C99 2.224 . S
C235 C55 2.165 . S
C249 C9 0.557 1_655 S
C255 C18 0.562 1_455 S
C269 C49 0.510 1_545 S
C275 C58 0.517 1_565 S
C289 C89 0.584 . S
C295 C98 0.584 . S
