# Generated by pormake.
# Topology dft, (4)-cn, num edge types: 1
# Building blocks:
#     Node 0, Type 0, BuildingBlock: ICAMEG_clean_sbu_1, # of connection points: 4
#     Node 1, Type 0, BuildingBlock: ICAMEG_clean_sbu_1, # of connection points: 4
#     Node 2, Type 0, BuildingBlock: ICAMEG_clean_sbu_1, # of connection points: 4
#     Node 3, Type 0, BuildingBlock: ICAMEG_clean_sbu_1, # of connection points: 4
#     Node 4, Type 0, BuildingBlock: ICAMEG_clean_sbu_1, # of connection points: 4
#     Node 5, Type 0, BuildingBlock: ICAMEG_clean_sbu_1, # of connection points: 4
#     Node 6, Type 0, BuildingBlock: ICAMEG_clean_sbu_1, # of connection points: 4
#     Node 7, Type 0, BuildingBlock: ICAMEG_clean_sbu_1, # of connection points: 4
#     Edge 8, Type (0, 0), BuildingBlock: KIFKEQ_clean_linker_1, # of connection points: 2
#     Edge 9, Type (0, 0), BuildingBlock: KIFKEQ_clean_linker_1, # of connection points: 2
#     Edge 10, Type (0, 0), BuildingBlock: KIFKEQ_clean_linker_1, # of connection points: 2
#     Edge 11, Type (0, 0), BuildingBlock: KIFKEQ_clean_linker_1, # of connection points: 2
#     Edge 12, Type (0, 0), BuildingBlock: KIFKEQ_clean_linker_1, # of connection points: 2
#     Edge 13, Type (0, 0), BuildingBlock: KIFKEQ_clean_linker_1, # of connection points: 2
#     Edge 14, Type (0, 0), BuildingBlock: KIFKEQ_clean_linker_1, # of connection points: 2
#     Edge 15, Type (0, 0), BuildingBlock: KIFKEQ_clean_linker_1, # of connection points: 2
#     Edge 16, Type (0, 0), BuildingBlock: KIFKEQ_clean_linker_1, # of connection points: 2
#     Edge 17, Type (0, 0), BuildingBlock: KIFKEQ_clean_linker_1, # of connection points: 2
#     Edge 18, Type (0, 0), BuildingBlock: KIFKEQ_clean_linker_1, # of connection points: 2
#     Edge 19, Type (0, 0), BuildingBlock: KIFKEQ_clean_linker_1, # of connection points: 2
#     Edge 20, Type (0, 0), BuildingBlock: KIFKEQ_clean_linker_1, # of connection points: 2
#     Edge 21, Type (0, 0), BuildingBlock: KIFKEQ_clean_linker_1, # of connection points: 2
#     Edge 22, Type (0, 0), BuildingBlock: KIFKEQ_clean_linker_1, # of connection points: 2
#     Edge 23, Type (0, 0), BuildingBlock: KIFKEQ_clean_linker_1, # of connection points: 2
# Relax obj value: 0.222
# Max RMSD: 0.220
# Mean RMSD: 0.220
data_MOF--net-dft--node1-ICAMEG_clean_sbu_1--edge1-KIFKEQ_clean_linker_1
_symmetry_space_group_name_H-M    P1
_symmetry_Int_Tables_number       1
_symmetry_cell_setting            triclinic
loop_
_symmetry_equiv_pos_as_xyz
'x, y, z'
_cell_length_a     35.045259
_cell_length_b     35.064639
_cell_length_c     48.075796
_cell_angle_alpha  89.994049
_cell_angle_beta   89.994335
_cell_angle_gamma 89.997058
loop_
_atom_site_label
_atom_site_type_symbol
_atom_site_fract_x
_atom_site_fract_y
_atom_site_fract_z
_atom_type_partial_charge
Co0 Co 0.27889 0.09242 0.15462 0.0
Co1 Co 0.34207 0.05754 0.202 0.0
O2 O 0.329 0.06992 0.16315 0.0
C3 C 0.30021 0.04617 0.10355 0.0
O4 O 0.32975 0.03098 0.11612 0.0
C5 C 0.41727 0.0796 0.1746 0.0
O6 O 0.40005 0.0922 0.1522 0.0
O7 O 0.33484 0.11222 0.21212 0.0
O8 O 0.27807 0.11932 0.19133 0.0
H9 H 0.32356 0.06383 0.3056 0.0
H10 H 0.34449 0.10502 0.11573 0.0
O11 O 0.27734 0.06777 0.11682 0.0
H12 H 0.29845 0.23338 0.14025 0.0
H13 H 0.17868 0.15425 0.09437 0.0
H14 H 0.20789 0.10272 0.1874 0.0
H15 H 0.26729 0.17638 0.15964 0.0
H16 H 0.24232 0.1279 0.10467 0.0
O17 O 0.398 0.06691 0.19511 0.0
H18 H 0.30784 0.07723 0.25659 0.0
H19 H 0.40439 0.01374 0.23 0.0
H20 H 0.14403 0.12923 0.17806 0.0
H21 H 0.37604 0.16115 0.09559 0.0
H22 H 0.12905 0.15521 0.13125 0.0
H23 H 0.35315 0.22604 0.10784 0.0
O24 O 0.25373 0.04691 0.17161 0.0
H25 H 0.38958 0.94907 0.1427 0.0
H26 H 0.31524 0.98376 0.22599 0.0
H27 H 0.32194 0.9161 0.21314 0.0
H28 H 0.35947 0.89831 0.17128 0.0
H29 H 0.38176 0.01633 0.15608 0.0
H30 H 0.42136 0.99995 0.27873 0.0
H31 H 0.38072 0.02493 0.31694 0.0
O32 O 0.28712 0.04681 0.21125 0.0
C33 C 0.30391 0.13054 0.20807 0.0
C34 C 0.34147 0.05274 0.28913 0.0
C35 C 0.39638 0.01694 0.27406 0.0
N36 N 0.35507 0.04626 0.24041 0.0
C37 C 0.33267 0.06021 0.26133 0.0
C38 C 0.38669 0.02497 0.24649 0.0
C39 C 0.37356 0.03094 0.29548 0.0
C40 C 0.33389 0.13292 0.12095 0.0
N41 N 0.30366 0.13709 0.13863 0.0
C42 C 0.35208 0.16474 0.10957 0.0
C43 C 0.33928 0.20113 0.11647 0.0
C44 C 0.30861 0.20527 0.13464 0.0
C45 C 0.29111 0.17279 0.1456 0.0
C46 C 0.18484 0.14298 0.11484 0.0
C47 C 0.20168 0.11404 0.16699 0.0
C48 C 0.22079 0.12783 0.12077 0.0
N49 N 0.22888 0.11371 0.14662 0.0
C50 C 0.16542 0.12899 0.16182 0.0
C51 C 0.15702 0.14354 0.13555 0.0
C52 C 0.25791 0.03728 0.19703 0.0
C53 C 0.37327 0.95643 0.16105 0.0
C54 C 0.3315 0.97636 0.20766 0.0
C55 C 0.33526 0.93794 0.20054 0.0
C56 C 0.35633 0.92798 0.17707 0.0
N57 N 0.34833 0.00418 0.19191 0.0
C58 C 0.36889 0.99457 0.16882 0.0
Co59 Co 0.02943 0.28249 0.65819 0.0
Co60 Co 0.06665 0.34678 0.70428 0.0
O61 O 0.05268 0.33255 0.66593 0.0
C62 C 0.0766 0.30138 0.6071 0.0
O63 O 0.093 0.33022 0.61968 0.0
C64 C 0.04315 0.42123 0.67635 0.0
O65 O 0.03106 0.40356 0.65398 0.0
O66 O 0.01257 0.33919 0.71605 0.0
O67 O 0.00295 0.28294 0.69499 0.0
H68 H 0.06591 0.33056 0.80817 0.0
H69 H 0.01783 0.34686 0.61822 0.0
O70 O 0.05375 0.27966 0.6203 0.0
H71 H 0.88868 0.3044 0.64419 0.0
H72 H 0.96532 0.18198 0.59952 0.0
H73 H 0.01831 0.21249 0.69189 0.0
H74 H 0.94528 0.27272 0.66383 0.0
H75 H 0.99296 0.24534 0.60884 0.0
O76 O 0.05609 0.40242 0.697 0.0
H77 H 0.0503 0.31353 0.75974 0.0
H78 H 0.11076 0.41043 0.73033 0.0
H79 H 0.99054 0.14895 0.68352 0.0
H80 H 0.96212 0.37894 0.59782 0.0
H81 H 0.96381 0.13332 0.63705 0.0
H82 H 0.89685 0.35785 0.6108 0.0
O83 O 0.07454 0.25679 0.67527 0.0
H84 H 0.17192 0.39449 0.64189 0.0
H85 H 0.14185 0.32152 0.72672 0.0
H86 H 0.20884 0.32884 0.71226 0.0
H87 H 0.22432 0.36571 0.66961 0.0
H88 H 0.10538 0.38601 0.65685 0.0
H89 H 0.12673 0.42872 0.77844 0.0
H90 H 0.1044 0.38857 0.81778 0.0
O91 O 0.0786 0.29226 0.71382 0.0
C92 C 0.99344 0.30868 0.71234 0.0
C93 C 0.07584 0.34827 0.79121 0.0
C94 C 0.10994 0.40338 0.77453 0.0
N95 N 0.07963 0.36085 0.74219 0.0
C96 C 0.06711 0.33873 0.76373 0.0
C97 C 0.10067 0.39294 0.74732 0.0
C98 C 0.09742 0.38083 0.79658 0.0
C99 C 0.98973 0.3371 0.62379 0.0
N100 N 0.98509 0.30762 0.64206 0.0
C101 C 0.95816 0.35557 0.61225 0.0
C102 C 0.92156 0.34377 0.61956 0.0
C103 C 0.91697 0.31381 0.63828 0.0
C104 C 0.94919 0.29602 0.6494 0.0
C105 C 0.97689 0.18844 0.61985 0.0
C106 C 0.00664 0.206 0.67163 0.0
C107 C 0.99275 0.22423 0.62523 0.0
N108 N 0.00722 0.2327 0.65092 0.0
C109 C 0.991 0.16992 0.66701 0.0
C110 C 0.97603 0.16116 0.64093 0.0
C111 C 0.08616 0.26197 0.70017 0.0
C112 C 0.16557 0.37848 0.66057 0.0
C113 C 0.14821 0.33742 0.70804 0.0
C114 C 0.18628 0.34157 0.70001 0.0
C115 C 0.19494 0.36228 0.6761 0.0
N116 N 0.11947 0.35351 0.69275 0.0
C117 C 0.12783 0.37374 0.66925 0.0
Co118 Co 0.83965 0.02773 0.16012 0.0
Co119 Co 0.77677 0.06377 0.20768 0.0
O120 O 0.79007 0.05128 0.16885 0.0
C121 C 0.82055 0.07686 0.11007 0.0
O122 O 0.79072 0.09163 0.12253 0.0
C123 C 0.70266 0.03544 0.18281 0.0
O124 O 0.72074 0.01185 0.16623 0.0
O125 O 0.78267 0.00894 0.21791 0.0
O126 O 0.83823 0.99829 0.19585 0.0
H127 H 0.79277 0.05738 0.3115 0.0
H128 H 0.77277 0.01991 0.12166 0.0
O129 O 0.84303 0.05469 0.12322 0.0
H130 H 0.81804 0.88891 0.13822 0.0
H131 H 0.94007 0.96733 0.09917 0.0
H132 H 0.90903 0.01269 0.19357 0.0
H133 H 0.84986 0.94335 0.16072 0.0
H134 H 0.87688 0.99484 0.10937 0.0
O135 O 0.72106 0.05616 0.1999 0.0
H136 H 0.8092 0.04342 0.26269 0.0
H137 H 0.71519 0.10952 0.23487 0.0
H138 H 0.97239 0.9849 0.18434 0.0
H139 H 0.74053 0.96646 0.09852 0.0
H140 H 0.98828 0.96201 0.13684 0.0
H141 H 0.76302 0.90024 0.10673 0.0
O142 O 0.86624 0.07125 0.17872 0.0
H143 H 0.73047 0.17223 0.14823 0.0
H144 H 0.80548 0.13738 0.23118 0.0
H145 H 0.80006 0.20497 0.21773 0.0
H146 H 0.76223 0.22281 0.17602 0.0
H147 H 0.73702 0.10492 0.16225 0.0
H148 H 0.6975 0.12398 0.28335 0.0
H149 H 0.7365 0.09795 0.32209 0.0
O150 O 0.83155 0.07309 0.21763 0.0
C151 C 0.81228 0.98875 0.21312 0.0
C152 C 0.77552 0.06886 0.29481 0.0
C153 C 0.72204 0.1062 0.27901 0.0
N154 N 0.76318 0.07547 0.24592 0.0
C155 C 0.7847 0.06101 0.26712 0.0
C156 C 0.73211 0.09776 0.25158 0.0
C157 C 0.74395 0.09162 0.30073 0.0
C158 C 0.78334 0.99146 0.12505 0.0
N159 N 0.81379 0.98512 0.14218 0.0
C160 C 0.76468 0.96115 0.11201 0.0
C161 C 0.77725 0.92401 0.11666 0.0
C162 C 0.8081 0.91764 0.13431 0.0
C163 C 0.82602 0.94866 0.147 0.0
C164 C 0.93349 0.97722 0.11995 0.0
C165 C 0.91563 0.00266 0.17287 0.0
C166 C 0.89781 0.99303 0.12582 0.0
N167 N 0.88918 0.00535 0.15208 0.0
C168 C 0.9516 0.98701 0.16776 0.0
C169 C 0.96051 0.97421 0.1411 0.0
C170 C 0.86151 0.08155 0.20394 0.0
C171 C 0.74705 0.16483 0.16644 0.0
C172 C 0.78929 0.14481 0.21284 0.0
C173 C 0.78616 0.18319 0.20541 0.0
C174 C 0.7649 0.19319 0.18203 0.0
N175 N 0.77177 0.11712 0.19741 0.0
C176 C 0.75081 0.12674 0.17451 0.0
Co177 Co 0.09443 0.84136 0.65499 0.0
Co178 Co 0.0608 0.78176 0.70569 0.0
O179 O 0.07084 0.79284 0.66606 0.0
C180 C 0.04257 0.82051 0.6068 0.0
O181 O 0.02965 0.79004 0.61954 0.0
C182 C 0.08797 0.70647 0.68254 0.0
O183 O 0.11349 0.72369 0.66701 0.0
O184 O 0.1164 0.78692 0.71388 0.0
O185 O 0.1275 0.84031 0.68913 0.0
H186 H 0.07255 0.80263 0.80885 0.0
H187 H 0.09814 0.77049 0.61993 0.0
O188 O 0.06411 0.84403 0.61951 0.0
H189 H 0.22997 0.81852 0.62403 0.0
H190 H 0.14939 0.9393 0.58922 0.0
H191 H 0.11423 0.91115 0.68639 0.0
H192 H 0.17849 0.85205 0.64873 0.0
H193 H 0.12236 0.87678 0.60186 0.0
O194 O 0.06648 0.72566 0.69864 0.0
H195 H 0.08374 0.81693 0.75933 0.0
H196 H 0.01635 0.72178 0.73567 0.0
H197 H 0.14178 0.97383 0.67471 0.0
H198 H 0.14854 0.73648 0.59474 0.0
H199 H 0.15952 0.98827 0.62581 0.0
H200 H 0.2152 0.76033 0.59663 0.0
O201 O 0.05294 0.8695 0.6749 0.0
H202 H 0.94728 0.73625 0.65112 0.0
H203 H 0.98962 0.81347 0.73107 0.0
H204 H 0.92107 0.80954 0.72006 0.0
H205 H 0.89946 0.77063 0.67986 0.0
H206 H 0.01563 0.7413 0.6627 0.0
H207 H 0.00455 0.70625 0.7849 0.0
H208 H 0.03269 0.74686 0.82193 0.0
O209 O 0.05373 0.83708 0.71484 0.0
C210 C 0.13734 0.81531 0.70713 0.0
C211 C 0.06028 0.7846 0.79292 0.0
C212 C 0.02215 0.7305 0.77949 0.0
N213 N 0.05125 0.76997 0.74457 0.0
C214 C 0.06665 0.79251 0.76483 0.0
C215 C 0.02915 0.73931 0.75161 0.0
C216 C 0.0379 0.75332 0.80024 0.0
C217 C 0.12667 0.78172 0.62058 0.0
N218 N 0.13482 0.81397 0.63541 0.0
C219 C 0.15532 0.76202 0.60638 0.0
C220 C 0.19271 0.77535 0.6075 0.0
C221 C 0.20099 0.80797 0.62284 0.0
C222 C 0.1716 0.82689 0.63678 0.0
C223 C 0.14174 0.93336 0.6106 0.0
C224 C 0.12207 0.91711 0.66509 0.0
C225 C 0.12617 0.89808 0.61787 0.0
N226 N 0.11673 0.89023 0.64488 0.0
C227 C 0.13757 0.95271 0.65859 0.0
C228 C 0.14747 0.96081 0.63114 0.0
C229 C 0.04453 0.86621 0.70058 0.0
C230 C 0.95633 0.7533 0.66869 0.0
C231 C 0.98054 0.79671 0.71341 0.0
C232 C 0.94163 0.79447 0.70735 0.0
C233 C 0.92952 0.77262 0.68481 0.0
N234 N 0.00669 0.77776 0.69745 0.0
C235 C 0.99501 0.75622 0.67537 0.0
Co236 Co 0.28429 0.02733 0.84627 0.0
Co237 Co 0.3457 0.06317 0.79729 0.0
O238 O 0.33306 0.05165 0.83643 0.0
C239 C 0.30274 0.07896 0.89505 0.0
O240 O 0.33292 0.093 0.88257 0.0
C241 C 0.42032 0.035 0.8213 0.0
O242 O 0.40264 0.00973 0.83676 0.0
O243 O 0.34037 0.00798 0.7877 0.0
O244 O 0.28668 0.9954 0.81173 0.0
H245 H 0.32835 0.05521 0.69362 0.0
H246 H 0.35329 0.02383 0.88322 0.0
O247 O 0.28018 0.05667 0.88211 0.0
H248 H 0.30869 0.89121 0.87483 0.0
H249 H 0.18535 0.96904 0.90965 0.0
H250 H 0.21554 0.00768 0.81352 0.0
H251 H 0.27513 0.94297 0.85044 0.0
H252 H 0.2478 0.99738 0.89837 0.0
O253 O 0.40157 0.0566 0.80502 0.0
H254 H 0.31245 0.04215 0.74265 0.0
H255 H 0.40673 0.10869 0.76929 0.0
H256 H 0.15294 0.97889 0.82384 0.0
H257 H 0.38725 0.97314 0.9082 0.0
H258 H 0.13748 0.95938 0.87221 0.0
H259 H 0.36513 0.9061 0.90412 0.0
O260 O 0.25611 0.06879 0.82635 0.0
H261 H 0.39099 0.17377 0.855 0.0
H262 H 0.31548 0.13571 0.77306 0.0
H263 H 0.31989 0.20368 0.78563 0.0
H264 H 0.35794 0.22314 0.82684 0.0
H265 H 0.38546 0.10604 0.84186 0.0
H266 H 0.42387 0.12234 0.72059 0.0
H267 H 0.38449 0.09561 0.68232 0.0
O268 O 0.29079 0.07133 0.78747 0.0
C269 C 0.31196 0.98664 0.79369 0.0
C270 C 0.34583 0.06691 0.7101 0.0
C271 C 0.39944 0.10456 0.72523 0.0
N272 N 0.35881 0.0742 0.75885 0.0
C273 C 0.337 0.05949 0.7379 0.0
C274 C 0.38972 0.09652 0.75279 0.0
C275 C 0.37732 0.08958 0.70377 0.0
C276 C 0.34282 0.99508 0.88162 0.0
N277 N 0.31157 0.98682 0.86572 0.0
C278 C 0.36249 0.9663 0.8957 0.0
C279 C 0.35013 0.9287 0.89337 0.0
C280 C 0.31849 0.92034 0.87696 0.0
C281 C 0.29957 0.94987 0.86318 0.0
C282 C 0.19174 0.97744 0.8885 0.0
C283 C 0.20913 0.99909 0.8346 0.0
C284 C 0.22699 0.99374 0.882 0.0
N285 N 0.23542 0.00415 0.85527 0.0
C286 C 0.17358 0.98289 0.84033 0.0
C287 C 0.16491 0.97199 0.86748 0.0
C288 C 0.26055 0.07887 0.80107 0.0
C289 C 0.3743 0.16566 0.83701 0.0
C290 C 0.3318 0.14384 0.79118 0.0
C291 C 0.33434 0.18244 0.79811 0.0
C292 C 0.35573 0.19334 0.82122 0.0
N293 N 0.35 0.11683 0.80682 0.0
C294 C 0.37111 0.12734 0.82944 0.0
Co295 Co 0.09457 0.28236 0.34714 0.0
Co296 Co 0.05842 0.34732 0.30118 0.0
O297 O 0.07202 0.33277 0.33952 0.0
C298 C 0.04778 0.30179 0.39829 0.0
O299 O 0.03177 0.33089 0.38576 0.0
C300 C 0.08226 0.4214 0.32942 0.0
O301 O 0.09361 0.4036 0.35194 0.0
O302 O 0.11249 0.33923 0.28962 0.0
O303 O 0.12102 0.28255 0.3103 0.0
H304 H 0.05981 0.33157 0.19726 0.0
H305 H 0.1072 0.34646 0.38716 0.0
O306 O 0.07027 0.27976 0.38504 0.0
H307 H 0.23565 0.30205 0.36109 0.0
H308 H 0.15719 0.18062 0.40555 0.0
H309 H 0.10457 0.21234 0.31329 0.0
H310 H 0.17856 0.27128 0.34145 0.0
H311 H 0.13055 0.24445 0.39638 0.0
O312 O 0.06957 0.40277 0.30861 0.0
H313 H 0.07482 0.31413 0.24571 0.0
H314 H 0.01526 0.41161 0.27508 0.0
H315 H 0.13133 0.14832 0.32151 0.0
H316 H 0.16343 0.37764 0.40754 0.0
H317 H 0.15788 0.13209 0.36793 0.0
H318 H 0.22835 0.35556 0.39452 0.0
O319 O 0.04905 0.25746 0.33004 0.0
H320 H 0.95317 0.39574 0.36331 0.0
H321 H 0.98313 0.32314 0.2783 0.0
H322 H 0.91611 0.33113 0.29248 0.0
H323 H 0.90068 0.36782 0.33522 0.0
H324 H 0.01973 0.38659 0.34862 0.0
H325 H 0.99991 0.43031 0.22695 0.0
H326 H 0.02209 0.39007 0.18762 0.0
O327 O 0.04592 0.29299 0.29147 0.0
C328 C 0.13112 0.3084 0.29321 0.0
C329 C 0.04994 0.34931 0.21421 0.0
C330 C 0.01636 0.40475 0.23087 0.0
N331 N 0.04589 0.36171 0.26324 0.0
C332 C 0.05833 0.33954 0.2417 0.0
C333 C 0.02527 0.39407 0.2581 0.0
C334 C 0.0288 0.38215 0.20882 0.0
C335 C 0.13515 0.33628 0.38156 0.0
N336 N 0.13931 0.30675 0.36328 0.0
C337 C 0.167 0.35424 0.3931 0.0
C338 C 0.20341 0.34188 0.38576 0.0
C339 C 0.20753 0.31188 0.36702 0.0
C340 C 0.17502 0.29461 0.35591 0.0
C341 C 0.1457 0.18735 0.38524 0.0
C342 C 0.11617 0.20559 0.33353 0.0
C343 C 0.1304 0.22341 0.37995 0.0
N344 N 0.11603 0.23221 0.35429 0.0
C345 C 0.13123 0.16924 0.33807 0.0
C346 C 0.1461 0.16014 0.36412 0.0
C347 C 0.03766 0.26287 0.30511 0.0
C348 C 0.9595 0.37982 0.34459 0.0
C349 C 0.97679 0.33896 0.29702 0.0
C350 C 0.93871 0.34349 0.30489 0.0
C351 C 0.93007 0.3641 0.32885 0.0
N352 N 0.00559 0.35458 0.3125 0.0
C353 C 0.99726 0.3747 0.33606 0.0
Co354 Co 0.84424 0.09179 0.85032 0.0
Co355 Co 0.78084 0.05807 0.8027 0.0
O356 O 0.79389 0.06996 0.84162 0.0
C357 C 0.82198 0.04577 0.90131 0.0
O358 O 0.79225 0.0311 0.88866 0.0
C359 C 0.70565 0.07998 0.83028 0.0
O360 O 0.72287 0.09121 0.85307 0.0
O361 O 0.78881 0.11277 0.79286 0.0
O362 O 0.84569 0.1187 0.81362 0.0
H363 H 0.80001 0.06513 0.6992 0.0
H364 H 0.77858 0.10528 0.88899 0.0
O365 O 0.84523 0.06707 0.88812 0.0
H366 H 0.82634 0.23301 0.86449 0.0
H367 H 0.94484 0.15231 0.91091 0.0
H368 H 0.91559 0.10118 0.81779 0.0
H369 H 0.85697 0.17559 0.84532 0.0
H370 H 0.88095 0.12673 0.90041 0.0
O371 O 0.72493 0.06811 0.8095 0.0
H372 H 0.81567 0.07778 0.74832 0.0
H373 H 0.718 0.01553 0.77429 0.0
H374 H 0.9797 0.1269 0.82733 0.0
H375 H 0.74753 0.16183 0.90891 0.0
H376 H 0.9947 0.15269 0.87419 0.0
H377 H 0.77129 0.22641 0.89667 0.0
O378 O 0.86886 0.04598 0.83335 0.0
H379 H 0.73214 0.94946 0.86143 0.0
H380 H 0.80661 0.98426 0.77823 0.0
H381 H 0.79907 0.91654 0.79062 0.0
H382 H 0.76145 0.89869 0.83243 0.0
H383 H 0.74079 0.01676 0.84851 0.0
H384 H 0.70108 0.00253 0.72544 0.0
H385 H 0.74231 0.02726 0.68748 0.0
O386 O 0.83575 0.04665 0.79357 0.0
C387 C 0.82005 0.13053 0.79694 0.0
C388 C 0.78184 0.05415 0.71555 0.0
C389 C 0.7263 0.01906 0.73028 0.0
N390 N 0.76788 0.04736 0.7642 0.0
C391 C 0.79061 0.06118 0.74342 0.0
C392 C 0.73596 0.02665 0.75791 0.0
C393 C 0.74945 0.03293 0.70899 0.0
C394 C 0.78955 0.13303 0.88378 0.0
N395 N 0.81997 0.13679 0.86623 0.0
C396 C 0.77164 0.1651 0.89504 0.0
C397 C 0.78493 0.20131 0.88813 0.0
C398 C 0.8158 0.20503 0.8701 0.0
C399 C 0.833 0.17232 0.85927 0.0
C400 C 0.93867 0.14112 0.89042 0.0
C401 C 0.92181 0.11241 0.83822 0.0
C402 C 0.90258 0.1264 0.88438 0.0
N403 N 0.89447 0.11241 0.85849 0.0
C404 C 0.95821 0.12691 0.84351 0.0
C405 C 0.96662 0.14135 0.8698 0.0
C406 C 0.86471 0.03655 0.80788 0.0
C407 C 0.74845 0.95685 0.84309 0.0
C408 C 0.79029 0.97684 0.79653 0.0
C409 C 0.78606 0.93838 0.8034 0.0
C410 C 0.76495 0.92838 0.82684 0.0
N411 N 0.77386 0.00467 0.81249 0.0
C412 C 0.7533 0.99502 0.83557 0.0
Co413 Co 0.02691 0.84174 0.34803 0.0
Co414 Co 0.06379 0.78166 0.29923 0.0
O415 O 0.05145 0.79311 0.3384 0.0
C416 C 0.0755 0.82162 0.39822 0.0
O417 O 0.09035 0.79187 0.3857 0.0
C418 C 0.03675 0.70632 0.32231 0.0
O419 O 0.01076 0.72341 0.3375 0.0
O420 O 0.00859 0.78601 0.28959 0.0
O421 O 0.99742 0.84095 0.31226 0.0
H422 H 0.05578 0.8007 0.19572 0.0
H423 H 0.02006 0.77275 0.38461 0.0
O424 O 0.05374 0.84441 0.385 0.0
H425 H 0.8884 0.81731 0.36978 0.0
H426 H 0.96459 0.93895 0.41068 0.0
H427 H 0.0106 0.91187 0.31579 0.0
H428 H 0.94231 0.85084 0.34792 0.0
H429 H 0.99322 0.87666 0.39939 0.0
O430 O 0.0584 0.72559 0.30638 0.0
H431 H 0.04197 0.81524 0.24486 0.0
H432 H 0.11103 0.7224 0.27077 0.0
H433 H 0.98163 0.97436 0.3261 0.0
H434 H 0.96715 0.73877 0.40705 0.0
H435 H 0.95843 0.98826 0.37385 0.0
H436 H 0.90059 0.7609 0.39973 0.0
O437 O 0.07016 0.86956 0.32998 0.0
H438 H 0.17493 0.73804 0.35713 0.0
H439 H 0.13588 0.81391 0.2756 0.0
H440 H 0.20386 0.81084 0.28849 0.0
H441 H 0.22382 0.77262 0.32949 0.0
H442 H 0.10717 0.74223 0.34368 0.0
H443 H 0.12541 0.7066 0.22194 0.0
H444 H 0.0978 0.74596 0.18399 0.0
O445 O 0.07078 0.83705 0.29004 0.0
C446 C 0.98792 0.81512 0.29487 0.0
C447 C 0.06793 0.78328 0.21206 0.0
C448 C 0.10697 0.73045 0.22677 0.0
N449 N 0.0754 0.76962 0.2607 0.0
C450 C 0.06015 0.79139 0.23993 0.0
C451 C 0.09855 0.73943 0.2544 0.0
C452 C 0.0915 0.75257 0.20549 0.0
C453 C 0.99149 0.78322 0.38166 0.0
N454 N 0.98469 0.8145 0.36544 0.0
C455 C 0.96146 0.76355 0.39428 0.0
C456 C 0.92414 0.77591 0.39012 0.0
C457 C 0.91729 0.80755 0.37335 0.0
C458 C 0.94803 0.82647 0.36104 0.0
C459 C 0.97464 0.93326 0.3898 0.0
C460 C 1.00045 0.91761 0.33659 0.0
C461 C 0.99111 0.89809 0.38331 0.0
N462 N 0.00362 0.89056 0.35693 0.0
C463 C 0.98413 0.95309 0.34232 0.0
C464 C 0.97115 0.96089 0.36912 0.0
C465 C 0.07954 0.86621 0.30447 0.0
C466 C 0.1666 0.7548 0.33923 0.0
C467 C 0.14424 0.79745 0.29361 0.0
C468 C 0.18283 0.7957 0.30073 0.0
C469 C 0.19401 0.77423 0.32372 0.0
N470 N 0.11749 0.77839 0.30897 0.0
C471 C 0.12827 0.75723 0.33149 0.0
H472 H 0.35527 0.02507 0.06593 0.0
H473 H 0.24048 0.06944 0.07129 0.0
H474 H 0.3547 0.03552 0.01568 0.0
H475 H 0.2403 0.0807 0.02139 0.0
H476 H 0.24127 0.05961 0.92695 0.0
H477 H 0.23987 0.04908 0.97693 0.0
H478 H 0.35599 0.08949 0.98323 0.0
H479 H 0.35775 0.09913 0.93292 0.0
C480 C 0.32973 0.03653 0.05638 0.0
C481 C 0.29796 0.04646 0.07271 0.0
C482 C 0.32961 0.04306 0.02762 0.0
C483 C 0.29766 0.05949 0.01451 0.0
C484 C 0.26535 0.06792 0.03071 0.0
C485 C 0.2655 0.06148 0.0594 0.0
C486 C 0.26639 0.06675 0.93899 0.0
C487 C 0.29968 0.0801 0.92584 0.0
C488 C 0.26556 0.06073 0.96773 0.0
C489 C 0.29799 0.06793 0.98411 0.0
C490 C 0.33075 0.08291 0.97115 0.0
C491 C 0.33156 0.08902 0.94235 0.0
H492 H 0.05335 0.24155 0.57495 0.0
H493 H 0.09923 0.35568 0.5695 0.0
H494 H 0.04406 0.2407 0.52473 0.0
H495 H 0.09027 0.35459 0.51909 0.0
H496 H 0.026 0.35634 0.43596 0.0
H497 H 0.03501 0.35502 0.48636 0.0
H498 H 0.0796 0.24049 0.48059 0.0
H499 H 0.07026 0.24158 0.43038 0.0
C500 C 0.06202 0.26627 0.56299 0.0
C501 C 0.07701 0.29872 0.5763 0.0
C502 C 0.05669 0.26574 0.53418 0.0
C503 C 0.06598 0.29774 0.51794 0.0
C504 C 0.0822 0.32973 0.53109 0.0
C505 C 0.08782 0.33015 0.55994 0.0
C506 C 0.03706 0.33063 0.44549 0.0
C507 C 0.0474 0.29908 0.4291 0.0
C508 C 0.04272 0.33007 0.47433 0.0
C509 C 0.05849 0.29783 0.48745 0.0
C510 C 0.06732 0.26573 0.47117 0.0
C511 C 0.06196 0.26639 0.44236 0.0
H512 H 0.88215 0.06753 0.93371 0.0
H513 H 0.76649 0.02544 0.93881 0.0
H514 H 0.88263 0.07795 0.98373 0.0
H515 H 0.7673 0.03517 0.98914 0.0
H516 H 0.76599 0.09845 0.07226 0.0
H517 H 0.76741 0.0891 0.02191 0.0
H518 H 0.88222 0.0451 0.02798 0.0
H519 H 0.88115 0.05518 0.07804 0.0
C520 C 0.85699 0.0599 0.94556 0.0
C521 C 0.82423 0.04572 0.93216 0.0
C522 C 0.85731 0.06586 0.9743 0.0
C523 C 0.82485 0.05784 0.99045 0.0
C524 C 0.79254 0.04233 0.97723 0.0
C525 C 0.79226 0.03623 0.94842 0.0
C526 C 0.79181 0.08752 0.06279 0.0
C527 C 0.82343 0.07753 0.07925 0.0
C528 C 0.79242 0.08162 0.03396 0.0
C529 C 0.82473 0.06582 0.02092 0.0
C530 C 0.8569 0.05741 0.03727 0.0
C531 C 0.85625 0.06317 0.06603 0.0
H532 H 0.05233 0.88148 0.43036 0.0
H533 H 0.09709 0.76694 0.43601 0.0
H534 H 0.04072 0.88175 0.48017 0.0
H535 H 0.08662 0.7677 0.48625 0.0
H536 H 0.02406 0.76442 0.56929 0.0
H537 H 0.03374 0.7658 0.51898 0.0
H538 H 0.07082 0.88306 0.52456 0.0
H539 H 0.05992 0.88207 0.57445 0.0
C540 C 0.06033 0.85654 0.4423 0.0
C541 C 0.07548 0.8241 0.42907 0.0
C542 C 0.05373 0.85675 0.47097 0.0
C543 C 0.06225 0.82457 0.48728 0.0
C544 C 0.07894 0.79269 0.47425 0.0
C545 C 0.08552 0.79247 0.44549 0.0
C546 C 0.0334 0.79075 0.55968 0.0
C547 C 0.04129 0.8231 0.57598 0.0
C548 C 0.03958 0.79137 0.53088 0.0
C549 C 0.05368 0.82436 0.51769 0.0
C550 C 0.05983 0.85718 0.53388 0.0
C551 C 0.05363 0.85658 0.56259 0.0
H552 H 0.46166 0.0614 0.21922 0.0
H553 H 0.46837 0.08675 0.13139 0.0
H554 H 0.52983 0.04916 0.22022 0.0
H555 H 0.5373 0.07496 0.13256 0.0
H556 H 0.65309 0.00975 0.14234 0.0
H557 H 0.58411 0.0213 0.13945 0.0
H558 H 0.58895 0.08499 0.21624 0.0
H559 H 0.65693 0.07311 0.21937 0.0
C560 C 0.47771 0.06466 0.20011 0.0
C561 C 0.45943 0.07519 0.17522 0.0
C562 C 0.51692 0.05774 0.20073 0.0
C563 C 0.53908 0.06107 0.17647 0.0
C564 C 0.52096 0.07176 0.15154 0.0
C565 C 0.48155 0.07893 0.15094 0.0
C566 C 0.63929 0.02595 0.15867 0.0
C567 C 0.66061 0.0404 0.18111 0.0
C568 C 0.59988 0.03288 0.15688 0.0
C569 C 0.581 0.05405 0.17764 0.0
C570 C 0.60241 0.06821 0.20006 0.0
C571 C 0.64157 0.06152 0.20176 0.0
H572 H 0.03804 0.4713 0.6324 0.0
H573 H 0.05835 0.46668 0.72099 0.0
H574 H 0.04967 0.54023 0.63306 0.0
H575 H 0.07023 0.53495 0.72152 0.0
H576 H 0.04652 0.66218 0.7179 0.0
H577 H 0.03427 0.59422 0.71526 0.0
H578 H 0.10379 0.58675 0.64131 0.0
H579 H 0.11589 0.65563 0.64374 0.0
C580 C 0.04465 0.48496 0.65202 0.0
C581 C 0.04709 0.46342 0.67665 0.0
C582 C 0.05172 0.52437 0.65233 0.0
C583 C 0.06095 0.54309 0.67733 0.0
C584 C 0.06284 0.52155 0.70195 0.0
C585 C 0.05609 0.4823 0.70161 0.0
C586 C 0.05931 0.64625 0.70102 0.0
C587 C 0.0823 0.66451 0.68105 0.0
C588 C 0.05238 0.60711 0.6996 0.0
C589 C 0.06809 0.58498 0.67812 0.0
C590 C 0.09101 0.60309 0.658 0.0
C591 C 0.09823 0.64246 0.65954 0.0
H592 H 0.661 0.06522 0.78509 0.0
H593 H 0.65476 0.08405 0.8738 0.0
H594 H 0.59277 0.05301 0.78384 0.0
H595 H 0.58587 0.07217 0.87241 0.0
H596 H 0.47049 0.00671 0.86047 0.0
H597 H 0.53941 0.0186 0.86353 0.0
H598 H 0.53334 0.08833 0.78963 0.0
H599 H 0.46541 0.07622 0.78634 0.0
C600 C 0.64504 0.06708 0.80434 0.0
C601 C 0.66346 0.07577 0.82955 0.0
C602 C 0.6058 0.06015 0.80359 0.0
C603 C 0.58381 0.06157 0.82803 0.0
C604 C 0.60208 0.07047 0.85327 0.0
C605 C 0.64147 0.07769 0.854 0.0
C606 C 0.48399 0.02436 0.84482 0.0
C607 C 0.46233 0.0404 0.82314 0.0
C608 C 0.52337 0.03145 0.8467 0.0
C609 C 0.5419 0.05439 0.82679 0.0
C610 C 0.52015 0.07018 0.80513 0.0
C611 C 0.48101 0.06334 0.80335 0.0
H612 H 0.06929 0.46698 0.28452 0.0
H613 H 0.0858 0.47131 0.37354 0.0
H614 H 0.05744 0.53525 0.28381 0.0
H615 H 0.0742 0.54026 0.37272 0.0
H616 H 0.00762 0.65531 0.36051 0.0
H617 H 0.02017 0.58653 0.36325 0.0
H618 H 0.09296 0.59457 0.29103 0.0
H619 H 0.08027 0.6624 0.28805 0.0
C620 C 0.07074 0.48255 0.30395 0.0
C621 C 0.07864 0.46359 0.32908 0.0
C622 C 0.06402 0.52178 0.30352 0.0
C623 C 0.06482 0.54323 0.32821 0.0
C624 C 0.07301 0.52445 0.35338 0.0
C625 C 0.08007 0.48505 0.3538 0.0
C626 C 0.02612 0.64228 0.34517 0.0
C627 C 0.04279 0.66444 0.32402 0.0
C628 C 0.03358 0.60299 0.34688 0.0
C629 C 0.05753 0.58507 0.32732 0.0
C630 C 0.07405 0.60732 0.30623 0.0
C631 C 0.06685 0.64638 0.30463 0.0
H632 H 0.12719 0.26675 0.24647 0.0
H633 H 0.2063 0.32346 0.30127 0.0
H634 H 0.17944 0.22911 0.22703 0.0
H635 H 0.25887 0.28524 0.28192 0.0
H636 H 0.32255 0.20513 0.20083 0.0
H637 H 0.2858 0.25933 0.21943 0.0
H638 H 0.22184 0.182 0.2713 0.0
H639 H 0.25807 0.12823 0.25267 0.0
C640 C 0.1561 0.27265 0.25321 0.0
C641 C 0.16299 0.29847 0.27488 0.0
C642 C 0.18586 0.25083 0.24237 0.0
C643 C 0.22291 0.25439 0.25313 0.0
C644 C 0.23052 0.28242 0.27318 0.0
C645 C 0.2006 0.30437 0.28405 0.0
C646 C 0.30196 0.20017 0.21725 0.0
C647 C 0.29358 0.16281 0.22588 0.0
C648 C 0.28082 0.231 0.22764 0.0
C649 C 0.25112 0.22451 0.24662 0.0
C650 C 0.24481 0.18752 0.25675 0.0
C651 C 0.2658 0.15689 0.24639 0.0
H652 H 0.91824 0.32367 0.70435 0.0
H653 H 0.99752 0.26735 0.75924 0.0
H654 H 0.86582 0.28525 0.72369 0.0
H655 H 0.94543 0.22948 0.77864 0.0
H656 H 0.86769 0.12804 0.75341 0.0
H657 H 0.90428 0.1818 0.73514 0.0
H658 H 0.83779 0.25941 0.78507 0.0
H659 H 0.80077 0.20517 0.80339 0.0
C660 C 0.924 0.30464 0.7216 0.0
C661 C 0.96163 0.2989 0.73079 0.0
C662 C 0.89416 0.28256 0.73246 0.0
C663 C 0.90188 0.25453 0.75249 0.0
C664 C 0.93892 0.25118 0.7633 0.0
C665 C 0.9686 0.27315 0.75249 0.0
C666 C 0.85959 0.15673 0.75936 0.0
C667 C 0.83096 0.16273 0.77924 0.0
C668 C 0.88077 0.18736 0.74921 0.0
C669 C 0.8738 0.22445 0.7589 0.0
C670 C 0.84332 0.23099 0.77722 0.0
C671 C 0.82201 0.20014 0.78743 0.0
H672 H 0.91468 0.80425 0.31101 0.0
H673 H 0.98367 0.84719 0.24371 0.0
H674 H 0.8597 0.84013 0.29322 0.0
H675 H 0.92831 0.881 0.22504 0.0
H676 H 0.8431 0.98496 0.26471 0.0
H677 H 0.87757 0.93012 0.28364 0.0
H678 H 0.83901 0.86106 0.215 0.0
H679 H 0.8026 0.91546 0.19691 0.0
C680 C 0.91759 0.81993 0.29176 0.0
C681 C 0.95328 0.82283 0.27863 0.0
C682 C 0.88621 0.84033 0.28163 0.0
C683 C 0.89002 0.86305 0.25782 0.0
C684 C 0.92474 0.86314 0.24325 0.0
C685 C 0.95629 0.84345 0.25373 0.0
C686 C 0.84003 0.95754 0.25463 0.0
C687 C 0.82 0.95426 0.2295 0.0
C688 C 0.86005 0.92629 0.26528 0.0
C689 C 0.86082 0.89164 0.25065 0.0
C690 C 0.83854 0.88751 0.22665 0.0
C691 C 0.81785 0.91856 0.21634 0.0
H692 H 0.20857 0.81773 0.68518 0.0
H693 H 0.14744 0.83125 0.76229 0.0
H694 H 0.26296 0.85212 0.70462 0.0
H695 H 0.20246 0.864 0.78232 0.0
H696 H 0.29422 0.97924 0.7387 0.0
H697 H 0.26065 0.92519 0.71806 0.0
H698 H 0.27624 0.86097 0.79378 0.0
H699 H 0.31151 0.91446 0.8138 0.0
C700 C 0.20708 0.82731 0.70646 0.0
C701 C 0.17341 0.82273 0.72195 0.0
C702 C 0.23831 0.84671 0.71764 0.0
C703 C 0.23668 0.86114 0.7448 0.0
C704 C 0.20452 0.85299 0.76132 0.0
C705 C 0.17301 0.83407 0.74991 0.0
C706 C 0.29219 0.95301 0.75041 0.0
C707 C 0.3049 0.95125 0.77803 0.0
C708 C 0.27273 0.92208 0.73868 0.0
C709 C 0.26532 0.88918 0.75457 0.0
C710 C 0.28111 0.8862 0.78126 0.0
C711 C 0.3011 0.91685 0.79274 0.0
H712 H 0.91071 0.9795 0.82782 0.0
H713 H 0.88735 0.04617 0.7544 0.0
H714 H 0.95597 0.94086 0.80148 0.0
H715 H 0.93424 0.00969 0.72842 0.0
H716 H 0.98638 0.91024 0.6803 0.0
H717 H 0.94495 0.95288 0.7066 0.0
H718 H 0.01384 0.93409 0.78006 0.0
H719 H 0.05329 0.88961 0.75403 0.0
C720 C 0.91595 0.98638 0.80618 0.0
C721 C 0.89536 0.01561 0.79314 0.0
C722 C 0.9421 0.96437 0.79097 0.0
C723 C 0.94897 0.97169 0.76249 0.0
C724 C 0.92925 0.00216 0.74994 0.0
C725 C 0.90252 0.02345 0.76495 0.0
C726 C 0.99284 0.91575 0.70197 0.0
C727 C 0.023 0.89663 0.71509 0.0
C728 C 0.96913 0.94034 0.71718 0.0
C729 C 0.97556 0.94709 0.74578 0.0
C730 C 0.00702 0.92908 0.75842 0.0
C731 C 0.03006 0.90386 0.74338 0.0
H732 H 0.23583 0.04678 0.25062 0.0
H733 H 0.21126 0.9808 0.17709 0.0
H734 H 0.18915 0.01025 0.27678 0.0
H735 H 0.16616 0.94215 0.20358 0.0
H736 H 0.06954 0.89074 0.2515 0.0
H737 H 0.10849 0.93567 0.22547 0.0
H738 H 0.17899 0.95295 0.29832 0.0
H739 H 0.13806 0.9098 0.32466 0.0
C740 C 0.2204 0.02423 0.24008 0.0
C741 C 0.22719 0.01657 0.21181 0.0
C742 C 0.19381 0.00293 0.25518 0.0
C743 C 0.17384 0.97263 0.24264 0.0
C744 C 0.18026 0.96552 0.21407 0.0
C745 C 0.20629 0.98754 0.19878 0.0
C746 C 0.09303 0.90476 0.26202 0.0
C747 C 0.10072 0.89696 0.29013 0.0
C748 C 0.11575 0.93023 0.24698 0.0
C749 C 0.14752 0.94791 0.25944 0.0
C750 C 0.15456 0.94063 0.2879 0.0
C751 C 0.13116 0.91578 0.30313 0.0
H752 H 0.11155 0.2626 0.7539 0.0
H753 H 0.11019 0.19218 0.6801 0.0
H754 H 0.14908 0.21493 0.77799 0.0
H755 H 0.14755 0.14378 0.70468 0.0
H756 H 0.25739 0.09621 0.74575 0.0
H757 H 0.21216 0.13672 0.72173 0.0
H758 H 0.14888 0.15151 0.79806 0.0
H759 H 0.19501 0.11118 0.82253 0.0
C760 C 0.11899 0.23681 0.74277 0.0
C761 C 0.10803 0.23155 0.71482 0.0
C762 C 0.1403 0.20919 0.7568 0.0
C763 C 0.15139 0.17539 0.74339 0.0
C764 C 0.13986 0.16967 0.71559 0.0
C765 C 0.11836 0.19739 0.70149 0.0
C766 C 0.23373 0.10775 0.75753 0.0
C767 C 0.2302 0.10063 0.78628 0.0
C768 C 0.2075 0.13084 0.74358 0.0
C769 C 0.17686 0.1476 0.75789 0.0
C770 C 0.17245 0.13947 0.78645 0.0
C771 C 0.19876 0.11617 0.80047 0.0
H772 H 0.0118 0.19379 0.32522 0.0
H773 H 0.01297 0.26383 0.25121 0.0
H774 H 0.97357 0.14617 0.30055 0.0
H775 H 0.97458 0.21695 0.22703 0.0
H776 H 0.92749 0.11321 0.18268 0.0
H777 H 0.97376 0.15328 0.20722 0.0
H778 H 0.90893 0.14072 0.28307 0.0
H779 H 0.86351 0.1005 0.25899 0.0
C780 C 0.004 0.19908 0.30377 0.0
C781 C 0.0153 0.2329 0.2904 0.0
C782 C 0.982 0.17182 0.28962 0.0
C783 C 0.97093 0.17768 0.26174 0.0
C784 C 0.98297 0.21112 0.24829 0.0
C785 C 0.00478 0.23828 0.26237 0.0
C786 C 0.92336 0.11872 0.20464 0.0
C787 C 0.89151 0.1038 0.21869 0.0
C788 C 0.94977 0.14183 0.2187 0.0
C789 C 0.94504 0.15039 0.24716 0.0
C790 C 0.91385 0.13444 0.26131 0.0
C791 C 0.88751 0.11154 0.24732 0.0
loop_
_geom_bond_atom_site_label_1
_geom_bond_atom_site_label_2
_geom_bond_distance
_geom_bond_site_symmetry_2
_ccdc_geom_bond_type
Co0 O2 2.143 . S
Co0 O8 2.074 . S
Co0 O11 2.093 . S
Co0 O24 2.097 . S
Co0 N41 2.151 . S
Co0 N49 2.214 . S
Co1 O2 2.160 . S
Co1 O7 2.058 . S
Co1 O17 2.057 . S
Co1 O32 2.037 . S
Co1 N36 2.145 . S
Co1 N57 2.257 . S
O2 Co0 2.143 . S
O2 Co1 2.160 . S
C3 O4 1.278 . S
C3 O11 1.224 . S
O4 C3 1.278 . S
C5 O6 1.245 . S
C5 O17 1.232 . S
O6 C5 1.245 . S
O7 Co1 2.058 . S
O7 C33 1.269 . S
O8 Co0 2.074 . S
O8 C33 1.257 . S
H9 C34 0.930 . S
H10 C40 0.930 . S
O11 Co0 2.093 . S
O11 C3 1.224 . S
H12 C44 0.929 . S
H13 C46 0.930 . S
H14 C47 0.930 . S
H15 C45 0.929 . S
H16 C48 0.928 . S
O17 Co1 2.057 . S
O17 C5 1.232 . S
H18 C37 0.929 . S
H19 C38 0.929 . S
H20 C50 0.931 . S
H21 C42 0.929 . S
H22 C51 0.930 . S
H23 C43 0.931 . S
O24 Co0 2.097 . S
O24 C52 1.214 . S
H25 C53 0.929 . S
H26 C54 0.929 . S
H27 C55 0.930 . S
H28 C56 0.929 . S
H29 C58 0.930 . S
H30 C35 0.930 . S
H31 C39 0.930 . S
O32 Co1 2.037 . S
O32 C52 1.234 . S
C33 O7 1.269 . S
C33 O8 1.257 . S
C34 H9 0.930 . S
C34 C37 1.388 . S
C34 C39 1.418 . S
C35 H30 0.930 . S
C35 C38 1.404 . S
C35 C39 1.353 . S
N36 Co1 2.145 . S
N36 C37 1.397 . S
N36 C38 1.334 . S
C37 H18 0.929 . S
C37 C34 1.388 . S
C37 N36 1.397 . S
C38 H19 0.929 . S
C38 C35 1.404 . S
C38 N36 1.334 . S
C39 H31 0.930 . S
C39 C34 1.418 . S
C39 C35 1.353 . S
C40 H10 0.930 . S
C40 N41 1.330 . S
C40 C42 1.446 . S
N41 Co0 2.151 . S
N41 C40 1.330 . S
N41 C45 1.418 . S
C42 H21 0.929 . S
C42 C40 1.446 . S
C42 C43 1.332 . S
C43 H23 0.931 . S
C43 C42 1.332 . S
C43 C44 1.267 . S
C44 H12 0.929 . S
C44 C43 1.267 . S
C44 C45 1.251 . S
C45 H15 0.929 . S
C45 N41 1.418 . S
C45 C44 1.251 . S
C46 H13 0.930 . S
C46 C48 1.406 . S
C46 C51 1.261 . S
C47 H14 0.930 . S
C47 N49 1.325 . S
C47 C50 1.357 . S
C48 H16 0.928 . S
C48 C46 1.406 . S
C48 N49 1.261 . S
N49 Co0 2.214 . S
N49 C47 1.325 . S
N49 C48 1.261 . S
C50 H20 0.931 . S
C50 C47 1.357 . S
C50 C51 1.312 . S
C51 H22 0.930 . S
C51 C46 1.261 . S
C51 C50 1.312 . S
C52 O24 1.214 . S
C52 O32 1.234 . S
C53 H25 0.929 . S
C53 C56 1.391 . S
C53 C58 1.391 1_565 S
C54 H26 0.929 . S
C54 C55 1.390 . S
C54 N57 1.391 1_565 S
C55 H27 0.930 . S
C55 C54 1.390 . S
C55 C56 1.392 . S
C56 H28 0.929 . S
C56 C53 1.391 . S
C56 C55 1.392 . S
N57 Co1 2.257 . S
N57 C54 1.391 1_545 S
N57 C58 1.388 . S
C58 H29 0.930 . S
C58 C53 1.391 1_545 S
C58 N57 1.388 . S
Co59 O61 2.143 . S
Co59 O67 2.074 1_455 S
Co59 O70 2.093 . S
Co59 O83 2.097 . S
Co59 N100 2.151 1_455 S
Co59 N108 2.214 . S
Co60 O61 2.160 . S
Co60 O66 2.058 . S
Co60 O76 2.057 . S
Co60 O91 2.037 . S
Co60 N95 2.145 . S
Co60 N116 2.257 . S
O61 Co59 2.143 . S
O61 Co60 2.160 . S
C62 O63 1.278 . S
C62 O70 1.224 . S
O63 C62 1.278 . S
C64 O65 1.245 . S
C64 O76 1.232 . S
O65 C64 1.245 . S
O66 Co60 2.058 . S
O66 C92 1.269 1_455 S
O67 Co59 2.074 1_655 S
O67 C92 1.257 . S
H68 C93 0.930 . S
H69 C99 0.930 . S
O70 Co59 2.093 . S
O70 C62 1.224 . S
H71 C103 0.929 . S
H72 C105 0.930 . S
H73 C106 0.930 . S
H74 C104 0.929 . S
H75 C107 0.928 . S
O76 Co60 2.057 . S
O76 C64 1.232 . S
H77 C96 0.929 . S
H78 C97 0.929 . S
H79 C109 0.928 1_455 S
H80 C101 0.929 . S
H81 C110 0.930 . S
H82 C102 0.931 . S
O83 Co59 2.097 . S
O83 C111 1.214 . S
H84 C112 0.929 . S
H85 C113 0.929 . S
H86 C114 0.930 . S
H87 C115 0.929 . S
H88 C117 0.930 . S
H89 C94 0.930 . S
H90 C98 0.930 . S
O91 Co60 2.037 . S
O91 C111 1.234 . S
C92 O66 1.269 1_655 S
C92 O67 1.257 . S
C93 H68 0.930 . S
C93 C96 1.388 . S
C93 C98 1.418 . S
C94 H89 0.930 . S
C94 C97 1.404 . S
C94 C98 1.353 . S
N95 Co60 2.145 . S
N95 C96 1.397 . S
N95 C97 1.334 . S
C96 H77 0.929 . S
C96 C93 1.388 . S
C96 N95 1.397 . S
C97 H78 0.929 . S
C97 C94 1.404 . S
C97 N95 1.334 . S
C98 H90 0.930 . S
C98 C93 1.418 . S
C98 C94 1.353 . S
C99 H69 0.930 . S
C99 N100 1.330 . S
C99 C101 1.446 . S
N100 Co59 2.151 1_655 S
N100 C99 1.330 . S
N100 C104 1.418 . S
C101 H80 0.929 . S
C101 C99 1.446 . S
C101 C102 1.332 . S
C102 H82 0.931 . S
C102 C101 1.332 . S
C102 C103 1.267 . S
C103 H71 0.929 . S
C103 C102 1.267 . S
C103 C104 1.251 . S
C104 H74 0.929 . S
C104 N100 1.418 . S
C104 C103 1.251 . S
C105 H72 0.930 . S
C105 C107 1.406 . S
C105 C110 1.261 . S
C106 H73 0.930 . S
C106 N108 1.325 . S
C106 C109 1.350 1_455 S
C107 H75 0.928 . S
C107 C105 1.406 . S
C107 N108 1.261 1_655 S
N108 Co59 2.214 . S
N108 C106 1.325 . S
N108 C107 1.261 1_455 S
C109 H79 0.928 1_655 S
C109 C106 1.350 1_655 S
C109 C110 1.323 . S
C110 H81 0.930 . S
C110 C105 1.261 . S
C110 C109 1.323 . S
C111 O83 1.214 . S
C111 O91 1.234 . S
C112 H84 0.929 . S
C112 C115 1.391 . S
C112 C117 1.391 . S
C113 H85 0.929 . S
C113 C114 1.390 . S
C113 N116 1.391 . S
C114 H86 0.930 . S
C114 C113 1.390 . S
C114 C115 1.392 . S
C115 H87 0.929 . S
C115 C112 1.391 . S
C115 C114 1.392 . S
N116 Co60 2.257 . S
N116 C113 1.391 . S
N116 C117 1.388 . S
C117 H88 0.930 . S
C117 C112 1.391 . S
C117 N116 1.388 . S
Co118 O120 2.143 . S
Co118 O126 2.074 1_545 S
Co118 O129 2.093 . S
Co118 O142 2.097 . S
Co118 N159 2.151 1_545 S
Co118 N167 2.214 . S
Co119 O120 2.160 . S
Co119 O125 2.058 . S
Co119 O135 2.057 . S
Co119 O150 2.037 . S
Co119 N154 2.145 . S
Co119 N175 2.257 . S
O120 Co118 2.143 . S
O120 Co119 2.160 . S
C121 O122 1.278 . S
C121 O129 1.224 . S
O122 C121 1.278 . S
C123 O124 1.245 . S
C123 O135 1.232 . S
O124 C123 1.245 . S
O125 Co119 2.058 . S
O125 C151 1.269 1_545 S
O126 Co118 2.074 1_565 S
O126 C151 1.257 . S
H127 C152 0.930 . S
H128 C158 0.930 . S
O129 Co118 2.093 . S
O129 C121 1.224 . S
H130 C162 0.929 . S
H131 C164 0.930 . S
H132 C165 0.930 . S
H133 C163 0.929 . S
H134 C166 0.928 . S
O135 Co119 2.057 . S
O135 C123 1.232 . S
H136 C155 0.929 . S
H137 C156 0.929 . S
H138 C168 0.928 1_545 S
H139 C160 0.929 . S
H140 C169 0.930 . S
H141 C161 0.931 . S
O142 Co118 2.097 . S
O142 C170 1.214 . S
H143 C171 0.929 . S
H144 C172 0.929 . S
H145 C173 0.930 . S
H146 C174 0.929 . S
H147 C176 0.930 . S
H148 C153 0.930 . S
H149 C157 0.930 . S
O150 Co119 2.037 . S
O150 C170 1.234 . S
C151 O125 1.269 1_565 S
C151 O126 1.257 . S
C152 H127 0.930 . S
C152 C155 1.388 . S
C152 C157 1.418 . S
C153 H148 0.930 . S
C153 C156 1.404 . S
C153 C157 1.353 . S
N154 Co119 2.145 . S
N154 C155 1.397 . S
N154 C156 1.334 . S
C155 H136 0.929 . S
C155 C152 1.388 . S
C155 N154 1.397 . S
C156 H137 0.929 . S
C156 C153 1.404 . S
C156 N154 1.334 . S
C157 H149 0.930 . S
C157 C152 1.418 . S
C157 C153 1.353 . S
C158 H128 0.930 . S
C158 N159 1.330 . S
C158 C160 1.446 . S
N159 Co118 2.151 1_565 S
N159 C158 1.330 . S
N159 C163 1.418 . S
C160 H139 0.929 . S
C160 C158 1.446 . S
C160 C161 1.332 . S
C161 H141 0.931 . S
C161 C160 1.332 . S
C161 C162 1.267 . S
C162 H130 0.929 . S
C162 C161 1.267 . S
C162 C163 1.251 . S
C163 H133 0.929 . S
C163 N159 1.418 . S
C163 C162 1.251 . S
C164 H131 0.930 . S
C164 C166 1.406 . S
C164 C169 1.261 . S
C165 H132 0.930 . S
C165 N167 1.325 . S
C165 C168 1.350 1_545 S
C166 H134 0.928 . S
C166 C164 1.406 . S
C166 N167 1.261 1_565 S
N167 Co118 2.214 . S
N167 C165 1.325 . S
N167 C166 1.261 1_545 S
C168 H138 0.928 1_565 S
C168 C165 1.350 1_565 S
C168 C169 1.323 . S
C169 H140 0.930 . S
C169 C164 1.261 . S
C169 C168 1.323 . S
C170 O142 1.214 . S
C170 O150 1.234 . S
C171 H143 0.929 . S
C171 C174 1.391 . S
C171 C176 1.391 . S
C172 H144 0.929 . S
C172 C173 1.390 . S
C172 N175 1.391 . S
C173 H145 0.930 . S
C173 C172 1.390 . S
C173 C174 1.392 . S
C174 H146 0.929 . S
C174 C171 1.391 . S
C174 C173 1.392 . S
N175 Co119 2.257 . S
N175 C172 1.391 . S
N175 C176 1.388 . S
C176 H147 0.930 . S
C176 C171 1.391 . S
C176 N175 1.388 . S
Co177 O179 2.143 . S
Co177 O185 2.074 . S
Co177 O188 2.093 . S
Co177 O201 2.097 . S
Co177 N218 2.151 . S
Co177 N226 2.214 . S
Co178 O179 2.160 . S
Co178 O184 2.058 . S
Co178 O194 2.057 . S
Co178 O209 2.037 . S
Co178 N213 2.145 . S
Co178 N234 2.257 . S
O179 Co177 2.143 . S
O179 Co178 2.160 . S
C180 O181 1.278 . S
C180 O188 1.224 . S
O181 C180 1.278 . S
C182 O183 1.245 . S
C182 O194 1.232 . S
O183 C182 1.245 . S
O184 Co178 2.058 . S
O184 C210 1.269 . S
O185 Co177 2.074 . S
O185 C210 1.257 . S
H186 C211 0.930 . S
H187 C217 0.930 . S
O188 Co177 2.093 . S
O188 C180 1.224 . S
H189 C221 0.929 . S
H190 C223 0.930 . S
H191 C224 0.930 . S
H192 C222 0.929 . S
H193 C225 0.928 . S
O194 Co178 2.057 . S
O194 C182 1.232 . S
H195 C214 0.929 . S
H196 C215 0.929 . S
H197 C227 0.931 . S
H198 C219 0.929 . S
H199 C228 0.930 . S
H200 C220 0.931 . S
O201 Co177 2.097 . S
O201 C229 1.214 . S
H202 C230 0.929 . S
H203 C231 0.929 . S
H204 C232 0.930 . S
H205 C233 0.929 . S
H206 C235 0.930 . S
H207 C212 0.930 . S
H208 C216 0.930 . S
O209 Co178 2.037 . S
O209 C229 1.234 . S
C210 O184 1.269 . S
C210 O185 1.257 . S
C211 H186 0.930 . S
C211 C214 1.388 . S
C211 C216 1.418 . S
C212 H207 0.930 . S
C212 C215 1.404 . S
C212 C216 1.353 . S
N213 Co178 2.145 . S
N213 C214 1.397 . S
N213 C215 1.334 . S
C214 H195 0.929 . S
C214 C211 1.388 . S
C214 N213 1.397 . S
C215 H196 0.929 . S
C215 C212 1.404 . S
C215 N213 1.334 . S
C216 H208 0.930 . S
C216 C211 1.418 . S
C216 C212 1.353 . S
C217 H187 0.930 . S
C217 N218 1.330 . S
C217 C219 1.446 . S
N218 Co177 2.151 . S
N218 C217 1.330 . S
N218 C222 1.418 . S
C219 H198 0.929 . S
C219 C217 1.446 . S
C219 C220 1.332 . S
C220 H200 0.931 . S
C220 C219 1.332 . S
C220 C221 1.267 . S
C221 H189 0.929 . S
C221 C220 1.267 . S
C221 C222 1.251 . S
C222 H192 0.929 . S
C222 N218 1.418 . S
C222 C221 1.251 . S
C223 H190 0.930 . S
C223 C225 1.406 . S
C223 C228 1.261 . S
C224 H191 0.930 . S
C224 N226 1.325 . S
C224 C227 1.357 . S
C225 H193 0.928 . S
C225 C223 1.406 . S
C225 N226 1.261 . S
N226 Co177 2.214 . S
N226 C224 1.325 . S
N226 C225 1.261 . S
C227 H197 0.931 . S
C227 C224 1.357 . S
C227 C228 1.312 . S
C228 H199 0.930 . S
C228 C223 1.261 . S
C228 C227 1.312 . S
C229 O201 1.214 . S
C229 O209 1.234 . S
C230 H202 0.929 . S
C230 C233 1.391 . S
C230 C235 1.391 1_655 S
C231 H203 0.929 . S
C231 C232 1.390 . S
C231 N234 1.391 1_655 S
C232 H204 0.930 . S
C232 C231 1.390 . S
C232 C233 1.392 . S
C233 H205 0.929 . S
C233 C230 1.391 . S
C233 C232 1.392 . S
N234 Co178 2.257 . S
N234 C231 1.391 1_455 S
N234 C235 1.388 . S
C235 H206 0.930 . S
C235 C230 1.391 1_455 S
C235 N234 1.388 . S
Co236 O238 2.143 . S
Co236 O244 2.074 1_545 S
Co236 O247 2.093 . S
Co236 O260 2.097 . S
Co236 N277 2.151 1_545 S
Co236 N285 2.214 . S
Co237 O238 2.160 . S
Co237 O243 2.058 . S
Co237 O253 2.057 . S
Co237 O268 2.037 . S
Co237 N272 2.145 . S
Co237 N293 2.257 . S
O238 Co236 2.143 . S
O238 Co237 2.160 . S
C239 O240 1.278 . S
C239 O247 1.224 . S
O240 C239 1.278 . S
C241 O242 1.245 . S
C241 O253 1.232 . S
O242 C241 1.245 . S
O243 Co237 2.058 . S
O243 C269 1.269 1_545 S
O244 Co236 2.074 1_565 S
O244 C269 1.257 . S
H245 C270 0.930 . S
H246 C276 0.930 . S
O247 Co236 2.093 . S
O247 C239 1.224 . S
H248 C280 0.929 . S
H249 C282 0.930 . S
H250 C283 0.930 . S
H251 C281 0.929 . S
H252 C284 0.928 . S
O253 Co237 2.057 . S
O253 C241 1.232 . S
H254 C273 0.929 . S
H255 C274 0.929 . S
H256 C286 0.928 1_545 S
H257 C278 0.929 . S
H258 C287 0.930 . S
H259 C279 0.931 . S
O260 Co236 2.097 . S
O260 C288 1.214 . S
H261 C289 0.929 . S
H262 C290 0.929 . S
H263 C291 0.930 . S
H264 C292 0.929 . S
H265 C294 0.930 . S
H266 C271 0.930 . S
H267 C275 0.930 . S
O268 Co237 2.037 . S
O268 C288 1.234 . S
C269 O243 1.269 1_565 S
C269 O244 1.257 . S
C270 H245 0.930 . S
C270 C273 1.388 . S
C270 C275 1.418 . S
C271 H266 0.930 . S
C271 C274 1.404 . S
C271 C275 1.353 . S
N272 Co237 2.145 . S
N272 C273 1.397 . S
N272 C274 1.334 . S
C273 H254 0.929 . S
C273 C270 1.388 . S
C273 N272 1.397 . S
C274 H255 0.929 . S
C274 C271 1.404 . S
C274 N272 1.334 . S
C275 H267 0.930 . S
C275 C270 1.418 . S
C275 C271 1.353 . S
C276 H246 0.930 . S
C276 N277 1.330 . S
C276 C278 1.446 . S
N277 Co236 2.151 1_565 S
N277 C276 1.330 . S
N277 C281 1.418 . S
C278 H257 0.929 . S
C278 C276 1.446 . S
C278 C279 1.332 . S
C279 H259 0.931 . S
C279 C278 1.332 . S
C279 C280 1.267 . S
C280 H248 0.929 . S
C280 C279 1.267 . S
C280 C281 1.251 . S
C281 H251 0.929 . S
C281 N277 1.418 . S
C281 C280 1.251 . S
C282 H249 0.930 . S
C282 C284 1.406 . S
C282 C287 1.261 . S
C283 H250 0.930 . S
C283 N285 1.325 . S
C283 C286 1.350 1_545 S
C284 H252 0.928 . S
C284 C282 1.406 . S
C284 N285 1.261 1_565 S
N285 Co236 2.214 . S
N285 C283 1.325 . S
N285 C284 1.261 1_545 S
C286 H256 0.928 1_565 S
C286 C283 1.350 1_565 S
C286 C287 1.323 . S
C287 H258 0.930 . S
C287 C282 1.261 . S
C287 C286 1.323 . S
C288 O260 1.214 . S
C288 O268 1.234 . S
C289 H261 0.929 . S
C289 C292 1.391 . S
C289 C294 1.391 . S
C290 H262 0.929 . S
C290 C291 1.390 . S
C290 N293 1.391 . S
C291 H263 0.930 . S
C291 C290 1.390 . S
C291 C292 1.392 . S
C292 H264 0.929 . S
C292 C289 1.391 . S
C292 C291 1.392 . S
N293 Co237 2.257 . S
N293 C290 1.391 . S
N293 C294 1.388 . S
C294 H265 0.930 . S
C294 C289 1.391 . S
C294 N293 1.388 . S
Co295 O297 2.143 . S
Co295 O303 2.074 . S
Co295 O306 2.093 . S
Co295 O319 2.097 . S
Co295 N336 2.151 . S
Co295 N344 2.214 . S
Co296 O297 2.160 . S
Co296 O302 2.058 . S
Co296 O312 2.057 . S
Co296 O327 2.037 . S
Co296 N331 2.145 . S
Co296 N352 2.257 . S
O297 Co295 2.143 . S
O297 Co296 2.160 . S
C298 O299 1.278 . S
C298 O306 1.224 . S
O299 C298 1.278 . S
C300 O301 1.245 . S
C300 O312 1.232 . S
O301 C300 1.245 . S
O302 Co296 2.058 . S
O302 C328 1.269 . S
O303 Co295 2.074 . S
O303 C328 1.257 . S
H304 C329 0.930 . S
H305 C335 0.930 . S
O306 Co295 2.093 . S
O306 C298 1.224 . S
H307 C339 0.929 . S
H308 C341 0.930 . S
H309 C342 0.930 . S
H310 C340 0.929 . S
H311 C343 0.928 . S
O312 Co296 2.057 . S
O312 C300 1.232 . S
H313 C332 0.929 . S
H314 C333 0.929 . S
H315 C345 0.931 . S
H316 C337 0.929 . S
H317 C346 0.930 . S
H318 C338 0.931 . S
O319 Co295 2.097 . S
O319 C347 1.214 . S
H320 C348 0.929 . S
H321 C349 0.929 . S
H322 C350 0.930 . S
H323 C351 0.929 . S
H324 C353 0.930 . S
H325 C330 0.930 . S
H326 C334 0.930 . S
O327 Co296 2.037 . S
O327 C347 1.234 . S
C328 O302 1.269 . S
C328 O303 1.257 . S
C329 H304 0.930 . S
C329 C332 1.388 . S
C329 C334 1.418 . S
C330 H325 0.930 . S
C330 C333 1.404 . S
C330 C334 1.353 . S
N331 Co296 2.145 . S
N331 C332 1.397 . S
N331 C333 1.334 . S
C332 H313 0.929 . S
C332 C329 1.388 . S
C332 N331 1.397 . S
C333 H314 0.929 . S
C333 C330 1.404 . S
C333 N331 1.334 . S
C334 H326 0.930 . S
C334 C329 1.418 . S
C334 C330 1.353 . S
C335 H305 0.930 . S
C335 N336 1.330 . S
C335 C337 1.446 . S
N336 Co295 2.151 . S
N336 C335 1.330 . S
N336 C340 1.418 . S
C337 H316 0.929 . S
C337 C335 1.446 . S
C337 C338 1.332 . S
C338 H318 0.931 . S
C338 C337 1.332 . S
C338 C339 1.267 . S
C339 H307 0.929 . S
C339 C338 1.267 . S
C339 C340 1.251 . S
C340 H310 0.929 . S
C340 N336 1.418 . S
C340 C339 1.251 . S
C341 H308 0.930 . S
C341 C343 1.406 . S
C341 C346 1.261 . S
C342 H309 0.930 . S
C342 N344 1.325 . S
C342 C345 1.357 . S
C343 H311 0.928 . S
C343 C341 1.406 . S
C343 N344 1.261 . S
N344 Co295 2.214 . S
N344 C342 1.325 . S
N344 C343 1.261 . S
C345 H315 0.931 . S
C345 C342 1.357 . S
C345 C346 1.312 . S
C346 H317 0.930 . S
C346 C341 1.261 . S
C346 C345 1.312 . S
C347 O319 1.214 . S
C347 O327 1.234 . S
C348 H320 0.929 . S
C348 C351 1.391 . S
C348 C353 1.391 1_655 S
C349 H321 0.929 . S
C349 C350 1.390 . S
C349 N352 1.391 1_655 S
C350 H322 0.930 . S
C350 C349 1.390 . S
C350 C351 1.392 . S
C351 H323 0.929 . S
C351 C348 1.391 . S
C351 C350 1.392 . S
N352 Co296 2.257 . S
N352 C349 1.391 1_455 S
N352 C353 1.388 . S
C353 H324 0.930 . S
C353 C348 1.391 1_455 S
C353 N352 1.388 . S
Co354 O356 2.143 . S
Co354 O362 2.074 . S
Co354 O365 2.093 . S
Co354 O378 2.097 . S
Co354 N395 2.151 . S
Co354 N403 2.214 . S
Co355 O356 2.160 . S
Co355 O361 2.058 . S
Co355 O371 2.057 . S
Co355 O386 2.037 . S
Co355 N390 2.145 . S
Co355 N411 2.257 . S
O356 Co354 2.143 . S
O356 Co355 2.160 . S
C357 O358 1.278 . S
C357 O365 1.224 . S
O358 C357 1.278 . S
C359 O360 1.245 . S
C359 O371 1.232 . S
O360 C359 1.245 . S
O361 Co355 2.058 . S
O361 C387 1.269 . S
O362 Co354 2.074 . S
O362 C387 1.257 . S
H363 C388 0.930 . S
H364 C394 0.930 . S
O365 Co354 2.093 . S
O365 C357 1.224 . S
H366 C398 0.929 . S
H367 C400 0.930 . S
H368 C401 0.930 . S
H369 C399 0.929 . S
H370 C402 0.928 . S
O371 Co355 2.057 . S
O371 C359 1.232 . S
H372 C391 0.929 . S
H373 C392 0.929 . S
H374 C404 0.931 . S
H375 C396 0.929 . S
H376 C405 0.930 . S
H377 C397 0.931 . S
O378 Co354 2.097 . S
O378 C406 1.214 . S
H379 C407 0.929 . S
H380 C408 0.929 . S
H381 C409 0.930 . S
H382 C410 0.929 . S
H383 C412 0.930 . S
H384 C389 0.930 . S
H385 C393 0.930 . S
O386 Co355 2.037 . S
O386 C406 1.234 . S
C387 O361 1.269 . S
C387 O362 1.257 . S
C388 H363 0.930 . S
C388 C391 1.388 . S
C388 C393 1.418 . S
C389 H384 0.930 . S
C389 C392 1.404 . S
C389 C393 1.353 . S
N390 Co355 2.145 . S
N390 C391 1.397 . S
N390 C392 1.334 . S
C391 H372 0.929 . S
C391 C388 1.388 . S
C391 N390 1.397 . S
C392 H373 0.929 . S
C392 C389 1.404 . S
C392 N390 1.334 . S
C393 H385 0.930 . S
C393 C388 1.418 . S
C393 C389 1.353 . S
C394 H364 0.930 . S
C394 N395 1.330 . S
C394 C396 1.446 . S
N395 Co354 2.151 . S
N395 C394 1.330 . S
N395 C399 1.418 . S
C396 H375 0.929 . S
C396 C394 1.446 . S
C396 C397 1.332 . S
C397 H377 0.931 . S
C397 C396 1.332 . S
C397 C398 1.267 . S
C398 H366 0.929 . S
C398 C397 1.267 . S
C398 C399 1.251 . S
C399 H369 0.929 . S
C399 N395 1.418 . S
C399 C398 1.251 . S
C400 H367 0.930 . S
C400 C402 1.406 . S
C400 C405 1.261 . S
C401 H368 0.930 . S
C401 N403 1.325 . S
C401 C404 1.357 . S
C402 H370 0.928 . S
C402 C400 1.406 . S
C402 N403 1.261 . S
N403 Co354 2.214 . S
N403 C401 1.325 . S
N403 C402 1.261 . S
C404 H374 0.931 . S
C404 C401 1.357 . S
C404 C405 1.312 . S
C405 H376 0.930 . S
C405 C400 1.261 . S
C405 C404 1.312 . S
C406 O378 1.214 . S
C406 O386 1.234 . S
C407 H379 0.929 . S
C407 C410 1.391 . S
C407 C412 1.391 1_565 S
C408 H380 0.929 . S
C408 C409 1.390 . S
C408 N411 1.391 1_565 S
C409 H381 0.930 . S
C409 C408 1.390 . S
C409 C410 1.392 . S
C410 H382 0.929 . S
C410 C407 1.391 . S
C410 C409 1.392 . S
N411 Co355 2.257 . S
N411 C408 1.391 1_545 S
N411 C412 1.388 . S
C412 H383 0.930 . S
C412 C407 1.391 1_545 S
C412 N411 1.388 . S
Co413 O415 2.143 . S
Co413 O421 2.074 1_455 S
Co413 O424 2.093 . S
Co413 O437 2.097 . S
Co413 N454 2.151 1_455 S
Co413 N462 2.214 . S
Co414 O415 2.160 . S
Co414 O420 2.058 . S
Co414 O430 2.057 . S
Co414 O445 2.037 . S
Co414 N449 2.145 . S
Co414 N470 2.257 . S
O415 Co413 2.143 . S
O415 Co414 2.160 . S
C416 O417 1.278 . S
C416 O424 1.224 . S
O417 C416 1.278 . S
C418 O419 1.245 . S
C418 O430 1.232 . S
O419 C418 1.245 . S
O420 Co414 2.058 . S
O420 C446 1.269 1_455 S
O421 Co413 2.074 1_655 S
O421 C446 1.257 . S
H422 C447 0.930 . S
H423 C453 0.930 . S
O424 Co413 2.093 . S
O424 C416 1.224 . S
H425 C457 0.929 . S
H426 C459 0.930 . S
H427 C460 0.930 . S
H428 C458 0.929 . S
H429 C461 0.928 . S
O430 Co414 2.057 . S
O430 C418 1.232 . S
H431 C450 0.929 . S
H432 C451 0.929 . S
H433 C463 0.928 1_455 S
H434 C455 0.929 . S
H435 C464 0.930 . S
H436 C456 0.931 . S
O437 Co413 2.097 . S
O437 C465 1.214 . S
H438 C466 0.929 . S
H439 C467 0.929 . S
H440 C468 0.930 . S
H441 C469 0.929 . S
H442 C471 0.930 . S
H443 C448 0.930 . S
H444 C452 0.930 . S
O445 Co414 2.037 . S
O445 C465 1.234 . S
C446 O420 1.269 1_655 S
C446 O421 1.257 . S
C447 H422 0.930 . S
C447 C450 1.388 . S
C447 C452 1.418 . S
C448 H443 0.930 . S
C448 C451 1.404 . S
C448 C452 1.353 . S
N449 Co414 2.145 . S
N449 C450 1.397 . S
N449 C451 1.334 . S
C450 H431 0.929 . S
C450 C447 1.388 . S
C450 N449 1.397 . S
C451 H432 0.929 . S
C451 C448 1.404 . S
C451 N449 1.334 . S
C452 H444 0.930 . S
C452 C447 1.418 . S
C452 C448 1.353 . S
C453 H423 0.930 . S
C453 N454 1.330 . S
C453 C455 1.446 . S
N454 Co413 2.151 1_655 S
N454 C453 1.330 . S
N454 C458 1.418 . S
C455 H434 0.929 . S
C455 C453 1.446 . S
C455 C456 1.332 . S
C456 H436 0.931 . S
C456 C455 1.332 . S
C456 C457 1.267 . S
C457 H425 0.929 . S
C457 C456 1.267 . S
C457 C458 1.251 . S
C458 H428 0.929 . S
C458 N454 1.418 . S
C458 C457 1.251 . S
C459 H426 0.930 . S
C459 C461 1.406 . S
C459 C464 1.261 . S
C460 H427 0.930 . S
C460 N462 1.325 . S
C460 C463 1.350 1_455 S
C461 H429 0.928 . S
C461 C459 1.406 . S
C461 N462 1.261 1_655 S
N462 Co413 2.214 . S
N462 C460 1.325 . S
N462 C461 1.261 1_455 S
C463 H433 0.928 1_655 S
C463 C460 1.350 1_655 S
C463 C464 1.323 . S
C464 H435 0.930 . S
C464 C459 1.261 . S
C464 C463 1.323 . S
C465 O437 1.214 . S
C465 O445 1.234 . S
C466 H438 0.929 . S
C466 C469 1.391 . S
C466 C471 1.391 . S
C467 H439 0.929 . S
C467 C468 1.390 . S
C467 N470 1.391 . S
C468 H440 0.930 . S
C468 C467 1.390 . S
C468 C469 1.392 . S
C469 H441 0.929 . S
C469 C466 1.391 . S
C469 C468 1.392 . S
N470 Co414 2.257 . S
N470 C467 1.391 . S
N470 C471 1.388 . S
C471 H442 0.930 . S
C471 C466 1.391 . S
C471 N470 1.388 . S
H472 C480 0.950 . S
H473 C485 0.950 . S
H474 C482 0.950 . S
H475 C484 0.950 . S
H476 C486 0.950 . S
H477 C488 0.950 . S
H478 C490 0.950 . S
H479 C491 0.950 . S
C480 H472 0.950 . S
C480 C481 1.386 . S
C480 C482 1.391 . S
C481 C480 1.386 . S
C481 C485 1.393 . S
C482 H474 0.950 . S
C482 C480 1.391 . S
C482 C483 1.400 . S
C483 C482 1.400 . S
C483 C484 1.398 . S
C483 C489 1.491 1_554 S
C484 H475 0.950 . S
C484 C483 1.398 . S
C484 C485 1.391 . S
C485 H473 0.950 . S
C485 C481 1.393 . S
C485 C484 1.391 . S
C486 H476 0.950 . S
C486 C487 1.386 . S
C486 C488 1.391 . S
C487 C486 1.386 . S
C487 C491 1.393 . S
C488 H477 0.950 . S
C488 C486 1.391 . S
C488 C489 1.400 . S
C489 C483 1.491 1_556 S
C489 C488 1.400 . S
C489 C490 1.398 . S
C490 H478 0.950 . S
C490 C489 1.398 . S
C490 C491 1.391 . S
C491 H479 0.950 . S
C491 C487 1.393 . S
C491 C490 1.391 . S
H492 C500 0.950 . S
H493 C505 0.950 . S
H494 C502 0.950 . S
H495 C504 0.950 . S
H496 C506 0.950 . S
H497 C508 0.950 . S
H498 C510 0.950 . S
H499 C511 0.950 . S
C500 H492 0.950 . S
C500 C501 1.386 . S
C500 C502 1.391 . S
C501 C500 1.386 . S
C501 C505 1.393 . S
C502 H494 0.950 . S
C502 C500 1.391 . S
C502 C503 1.400 . S
C503 C502 1.400 . S
C503 C504 1.398 . S
C503 C509 1.491 . S
C504 H495 0.950 . S
C504 C503 1.398 . S
C504 C505 1.391 . S
C505 H493 0.950 . S
C505 C501 1.393 . S
C505 C504 1.391 . S
C506 H496 0.950 . S
C506 C507 1.386 . S
C506 C508 1.391 . S
C507 C506 1.386 . S
C507 C511 1.393 . S
C508 H497 0.950 . S
C508 C506 1.391 . S
C508 C509 1.400 . S
C509 C503 1.491 . S
C509 C508 1.400 . S
C509 C510 1.398 . S
C510 H498 0.950 . S
C510 C509 1.398 . S
C510 C511 1.391 . S
C511 H499 0.950 . S
C511 C507 1.393 . S
C511 C510 1.391 . S
H512 C520 0.950 . S
H513 C525 0.950 . S
H514 C522 0.950 . S
H515 C524 0.950 . S
H516 C526 0.950 . S
H517 C528 0.950 . S
H518 C530 0.950 . S
H519 C531 0.950 . S
C520 H512 0.950 . S
C520 C521 1.386 . S
C520 C522 1.391 . S
C521 C520 1.386 . S
C521 C525 1.393 . S
C522 H514 0.950 . S
C522 C520 1.391 . S
C522 C523 1.400 . S
C523 C522 1.400 . S
C523 C524 1.398 . S
C523 C529 1.491 1_556 S
C524 H515 0.950 . S
C524 C523 1.398 . S
C524 C525 1.391 . S
C525 H513 0.950 . S
C525 C521 1.393 . S
C525 C524 1.391 . S
C526 H516 0.950 . S
C526 C527 1.386 . S
C526 C528 1.391 . S
C527 C526 1.386 . S
C527 C531 1.393 . S
C528 H517 0.950 . S
C528 C526 1.391 . S
C528 C529 1.400 . S
C529 C523 1.491 1_554 S
C529 C528 1.400 . S
C529 C530 1.398 . S
C530 H518 0.950 . S
C530 C529 1.398 . S
C530 C531 1.391 . S
C531 H519 0.950 . S
C531 C527 1.393 . S
C531 C530 1.391 . S
H532 C540 0.950 . S
H533 C545 0.950 . S
H534 C542 0.950 . S
H535 C544 0.950 . S
H536 C546 0.950 . S
H537 C548 0.950 . S
H538 C550 0.950 . S
H539 C551 0.950 . S
C540 H532 0.950 . S
C540 C541 1.386 . S
C540 C542 1.391 . S
C541 C540 1.386 . S
C541 C545 1.393 . S
C542 H534 0.950 . S
C542 C540 1.391 . S
C542 C543 1.400 . S
C543 C542 1.400 . S
C543 C544 1.398 . S
C543 C549 1.491 . S
C544 H535 0.950 . S
C544 C543 1.398 . S
C544 C545 1.391 . S
C545 H533 0.950 . S
C545 C541 1.393 . S
C545 C544 1.391 . S
C546 H536 0.950 . S
C546 C547 1.386 . S
C546 C548 1.391 . S
C547 C546 1.386 . S
C547 C551 1.393 . S
C548 H537 0.950 . S
C548 C546 1.391 . S
C548 C549 1.400 . S
C549 C543 1.491 . S
C549 C548 1.400 . S
C549 C550 1.398 . S
C550 H538 0.950 . S
C550 C549 1.398 . S
C550 C551 1.391 . S
C551 H539 0.950 . S
C551 C547 1.393 . S
C551 C550 1.391 . S
H552 C560 0.950 . S
H553 C565 0.950 . S
H554 C562 0.950 . S
H555 C564 0.950 . S
H556 C566 0.950 1_565 S
H557 C568 0.950 . S
H558 C570 0.950 . S
H559 C571 0.950 . S
C560 H552 0.950 . S
C560 C561 1.386 . S
C560 C562 1.391 . S
C561 C560 1.386 . S
C561 C565 1.393 . S
C562 H554 0.950 . S
C562 C560 1.391 . S
C562 C563 1.400 . S
C563 C562 1.400 . S
C563 C564 1.398 . S
C563 C569 1.491 . S
C564 H555 0.950 . S
C564 C563 1.398 . S
C564 C565 1.391 . S
C565 H553 0.950 . S
C565 C561 1.393 . S
C565 C564 1.391 . S
C566 H556 0.950 1_545 S
C566 C567 1.386 . S
C566 C568 1.391 . S
C567 C566 1.386 . S
C567 C571 1.393 . S
C568 H557 0.950 . S
C568 C566 1.391 . S
C568 C569 1.400 . S
C569 C563 1.491 . S
C569 C568 1.400 . S
C569 C570 1.398 . S
C570 H558 0.950 . S
C570 C569 1.398 . S
C570 C571 1.391 . S
C571 H559 0.950 . S
C571 C567 1.393 . S
C571 C570 1.391 . S
H572 C580 0.950 . S
H573 C585 0.950 1_655 S
H574 C582 0.950 . S
H575 C584 0.950 . S
H576 C586 0.950 . S
H577 C588 0.950 . S
H578 C590 0.950 . S
H579 C591 0.950 . S
C580 H572 0.950 . S
C580 C581 1.386 . S
C580 C582 1.391 . S
C581 C580 1.386 . S
C581 C585 1.393 . S
C582 H574 0.950 . S
C582 C580 1.391 . S
C582 C583 1.400 . S
C583 C582 1.400 . S
C583 C584 1.398 . S
C583 C589 1.491 . S
C584 H575 0.950 . S
C584 C583 1.398 . S
C584 C585 1.391 . S
C585 H573 0.950 1_455 S
C585 C581 1.393 . S
C585 C584 1.391 . S
C586 H576 0.950 . S
C586 C587 1.386 . S
C586 C588 1.391 . S
C587 C586 1.386 . S
C587 C591 1.393 . S
C588 H577 0.950 . S
C588 C586 1.391 . S
C588 C589 1.400 . S
C589 C583 1.491 . S
C589 C588 1.400 . S
C589 C590 1.398 . S
C590 H578 0.950 . S
C590 C589 1.398 . S
C590 C591 1.391 . S
C591 H579 0.950 . S
C591 C587 1.393 . S
C591 C590 1.391 . S
H592 C600 0.950 . S
H593 C605 0.950 . S
H594 C602 0.950 . S
H595 C604 0.950 . S
H596 C606 0.950 1_565 S
H597 C608 0.950 . S
H598 C610 0.950 . S
H599 C611 0.950 . S
C600 H592 0.950 . S
C600 C601 1.386 . S
C600 C602 1.391 . S
C601 C600 1.386 . S
C601 C605 1.393 . S
C602 H594 0.950 . S
C602 C600 1.391 . S
C602 C603 1.400 . S
C603 C602 1.400 . S
C603 C604 1.398 . S
C603 C609 1.491 . S
C604 H595 0.950 . S
C604 C603 1.398 . S
C604 C605 1.391 . S
C605 H593 0.950 . S
C605 C601 1.393 . S
C605 C604 1.391 . S
C606 H596 0.950 1_545 S
C606 C607 1.386 . S
C606 C608 1.391 . S
C607 C606 1.386 . S
C607 C611 1.393 . S
C608 H597 0.950 . S
C608 C606 1.391 . S
C608 C609 1.400 . S
C609 C603 1.491 . S
C609 C608 1.400 . S
C609 C610 1.398 . S
C610 H598 0.950 . S
C610 C609 1.398 . S
C610 C611 1.391 . S
C611 H599 0.950 . S
C611 C607 1.393 . S
C611 C610 1.391 . S
H612 C620 0.950 . S
H613 C625 0.950 . S
H614 C622 0.950 . S
H615 C624 0.950 . S
H616 C626 0.950 1_655 S
H617 C628 0.950 . S
H618 C630 0.950 . S
H619 C631 0.950 . S
C620 H612 0.950 . S
C620 C621 1.386 . S
C620 C622 1.391 . S
C621 C620 1.386 . S
C621 C625 1.393 . S
C622 H614 0.950 . S
C622 C620 1.391 . S
C622 C623 1.400 . S
C623 C622 1.400 . S
C623 C624 1.398 . S
C623 C629 1.491 . S
C624 H615 0.950 . S
C624 C623 1.398 . S
C624 C625 1.391 . S
C625 H613 0.950 . S
C625 C621 1.393 . S
C625 C624 1.391 . S
C626 H616 0.950 1_455 S
C626 C627 1.386 . S
C626 C628 1.391 . S
C627 C626 1.386 . S
C627 C631 1.393 . S
C628 H617 0.950 . S
C628 C626 1.391 . S
C628 C629 1.400 . S
C629 C623 1.491 . S
C629 C628 1.400 . S
C629 C630 1.398 . S
C630 H618 0.950 . S
C630 C629 1.398 . S
C630 C631 1.391 . S
C631 H619 0.950 . S
C631 C627 1.393 . S
C631 C630 1.391 . S
H632 C640 0.950 . S
H633 C645 0.950 . S
H634 C642 0.950 . S
H635 C644 0.950 . S
H636 C646 0.950 . S
H637 C648 0.950 . S
H638 C650 0.950 . S
H639 C651 0.950 . S
C640 H632 0.950 . S
C640 C641 1.386 . S
C640 C642 1.391 . S
C641 C640 1.386 . S
C641 C645 1.393 . S
C642 H634 0.950 . S
C642 C640 1.391 . S
C642 C643 1.400 . S
C643 C642 1.400 . S
C643 C644 1.398 . S
C643 C649 1.491 . S
C644 H635 0.950 . S
C644 C643 1.398 . S
C644 C645 1.391 . S
C645 H633 0.950 . S
C645 C641 1.393 . S
C645 C644 1.391 . S
C646 H636 0.950 . S
C646 C647 1.386 . S
C646 C648 1.391 . S
C647 C646 1.386 . S
C647 C651 1.393 . S
C648 H637 0.950 . S
C648 C646 1.391 . S
C648 C649 1.400 . S
C649 C643 1.491 . S
C649 C648 1.400 . S
C649 C650 1.398 . S
C650 H638 0.950 . S
C650 C649 1.398 . S
C650 C651 1.391 . S
C651 H639 0.950 . S
C651 C647 1.393 . S
C651 C650 1.391 . S
H652 C660 0.950 . S
H653 C665 0.950 1_455 S
H654 C662 0.950 . S
H655 C664 0.950 . S
H656 C666 0.950 . S
H657 C668 0.950 . S
H658 C670 0.950 . S
H659 C671 0.950 . S
C660 H652 0.950 . S
C660 C661 1.386 . S
C660 C662 1.391 . S
C661 C660 1.386 . S
C661 C665 1.393 . S
C662 H654 0.950 . S
C662 C660 1.391 . S
C662 C663 1.400 . S
C663 C662 1.400 . S
C663 C664 1.398 . S
C663 C669 1.491 . S
C664 H655 0.950 . S
C664 C663 1.398 . S
C664 C665 1.391 . S
C665 H653 0.950 1_655 S
C665 C661 1.393 . S
C665 C664 1.391 . S
C666 H656 0.950 . S
C666 C667 1.386 . S
C666 C668 1.391 . S
C667 C666 1.386 . S
C667 C671 1.393 . S
C668 H657 0.950 . S
C668 C666 1.391 . S
C668 C669 1.400 . S
C669 C663 1.491 . S
C669 C668 1.400 . S
C669 C670 1.398 . S
C670 H658 0.950 . S
C670 C669 1.398 . S
C670 C671 1.391 . S
C671 H659 0.950 . S
C671 C667 1.393 . S
C671 C670 1.391 . S
H672 C680 0.950 . S
H673 C685 0.950 1_455 S
H674 C682 0.950 . S
H675 C684 0.950 . S
H676 C686 0.950 . S
H677 C688 0.950 . S
H678 C690 0.950 . S
H679 C691 0.950 . S
C680 H672 0.950 . S
C680 C681 1.386 . S
C680 C682 1.391 . S
C681 C680 1.386 . S
C681 C685 1.393 . S
C682 H674 0.950 . S
C682 C680 1.391 . S
C682 C683 1.400 . S
C683 C682 1.400 . S
C683 C684 1.398 . S
C683 C689 1.491 . S
C684 H675 0.950 . S
C684 C683 1.398 . S
C684 C685 1.391 . S
C685 H673 0.950 1_655 S
C685 C681 1.393 . S
C685 C684 1.391 . S
C686 H676 0.950 . S
C686 C687 1.386 . S
C686 C688 1.391 . S
C687 C686 1.386 . S
C687 C691 1.393 . S
C688 H677 0.950 . S
C688 C686 1.391 . S
C688 C689 1.400 . S
C689 C683 1.491 . S
C689 C688 1.400 . S
C689 C690 1.398 . S
C690 H678 0.950 . S
C690 C689 1.398 . S
C690 C691 1.391 . S
C691 H679 0.950 . S
C691 C687 1.393 . S
C691 C690 1.391 . S
H692 C700 0.950 . S
H693 C705 0.950 . S
H694 C702 0.950 . S
H695 C704 0.950 . S
H696 C706 0.950 1_545 S
H697 C708 0.950 . S
H698 C710 0.950 . S
H699 C711 0.950 . S
C700 H692 0.950 . S
C700 C701 1.386 . S
C700 C702 1.391 . S
C701 C700 1.386 . S
C701 C705 1.393 . S
C702 H694 0.950 . S
C702 C700 1.391 . S
C702 C703 1.400 . S
C703 C702 1.400 . S
C703 C704 1.398 . S
C703 C709 1.491 . S
C704 H695 0.950 . S
C704 C703 1.398 . S
C704 C705 1.391 . S
C705 H693 0.950 . S
C705 C701 1.393 . S
C705 C704 1.391 . S
C706 H696 0.950 1_565 S
C706 C707 1.386 . S
C706 C708 1.391 . S
C707 C706 1.386 . S
C707 C711 1.393 . S
C708 H697 0.950 . S
C708 C706 1.391 . S
C708 C709 1.400 . S
C709 C703 1.491 . S
C709 C708 1.400 . S
C709 C710 1.398 . S
C710 H698 0.950 . S
C710 C709 1.398 . S
C710 C711 1.391 . S
C711 H699 0.950 . S
C711 C707 1.393 . S
C711 C710 1.391 . S
H712 C720 0.950 . S
H713 C725 0.950 . S
H714 C722 0.950 . S
H715 C724 0.950 1_545 S
H716 C726 0.950 . S
H717 C728 0.950 . S
H718 C730 0.950 . S
H719 C731 0.950 . S
C720 H712 0.950 . S
C720 C721 1.386 1_565 S
C720 C722 1.391 . S
C721 C720 1.386 1_545 S
C721 C725 1.393 . S
C722 H714 0.950 . S
C722 C720 1.391 . S
C722 C723 1.400 . S
C723 C722 1.400 . S
C723 C724 1.398 . S
C723 C729 1.491 . S
C724 H715 0.950 1_565 S
C724 C723 1.398 . S
C724 C725 1.391 1_565 S
C725 H713 0.950 . S
C725 C721 1.393 . S
C725 C724 1.391 1_545 S
C726 H716 0.950 . S
C726 C727 1.386 . S
C726 C728 1.391 1_455 S
C727 C726 1.386 . S
C727 C731 1.393 1_455 S
C728 H717 0.950 . S
C728 C726 1.391 1_655 S
C728 C729 1.400 . S
C729 C723 1.491 . S
C729 C728 1.400 . S
C729 C730 1.398 . S
C730 H718 0.950 . S
C730 C729 1.398 . S
C730 C731 1.391 . S
C731 H719 0.950 . S
C731 C727 1.393 1_655 S
C731 C730 1.391 . S
H732 C740 0.950 . S
H733 C745 0.950 . S
H734 C742 0.950 . S
H735 C744 0.950 . S
H736 C746 0.950 . S
H737 C748 0.950 . S
H738 C750 0.950 . S
H739 C751 0.950 . S
C740 H732 0.950 . S
C740 C741 1.386 1_565 S
C740 C742 1.391 . S
C741 C740 1.386 1_545 S
C741 C745 1.393 . S
C742 H734 0.950 . S
C742 C740 1.391 . S
C742 C743 1.400 . S
C743 C742 1.400 . S
C743 C744 1.398 . S
C743 C749 1.491 . S
C744 H735 0.950 . S
C744 C743 1.398 . S
C744 C745 1.391 1_565 S
C745 H733 0.950 . S
C745 C741 1.393 . S
C745 C744 1.391 1_545 S
C746 H736 0.950 . S
C746 C747 1.386 . S
C746 C748 1.391 . S
C747 C746 1.386 . S
C747 C751 1.393 . S
C748 H737 0.950 . S
C748 C746 1.391 . S
C748 C749 1.400 . S
C749 C743 1.491 . S
C749 C748 1.400 . S
C749 C750 1.398 . S
C750 H738 0.950 . S
C750 C749 1.398 . S
C750 C751 1.391 . S
C751 H739 0.950 . S
C751 C747 1.393 . S
C751 C750 1.391 . S
H752 C760 0.950 . S
H753 C765 0.950 . S
H754 C762 0.950 . S
H755 C764 0.950 . S
H756 C766 0.950 . S
H757 C768 0.950 . S
H758 C770 0.950 . S
H759 C771 0.950 . S
C760 H752 0.950 . S
C760 C761 1.386 . S
C760 C762 1.391 . S
C761 C760 1.386 . S
C761 C765 1.393 . S
C762 H754 0.950 . S
C762 C760 1.391 . S
C762 C763 1.400 . S
C763 C762 1.400 . S
C763 C764 1.398 . S
C763 C769 1.491 . S
C764 H755 0.950 . S
C764 C763 1.398 . S
C764 C765 1.391 . S
C765 H753 0.950 . S
C765 C761 1.393 . S
C765 C764 1.391 . S
C766 H756 0.950 . S
C766 C767 1.386 . S
C766 C768 1.391 . S
C767 C766 1.386 . S
C767 C771 1.393 . S
C768 H757 0.950 . S
C768 C766 1.391 . S
C768 C769 1.400 . S
C769 C763 1.491 . S
C769 C768 1.400 . S
C769 C770 1.398 . S
C770 H758 0.950 . S
C770 C769 1.398 . S
C770 C771 1.391 . S
C771 H759 0.950 . S
C771 C767 1.393 . S
C771 C770 1.391 . S
H772 C780 0.950 . S
H773 C785 0.950 . S
H774 C782 0.950 . S
H775 C784 0.950 1_455 S
H776 C786 0.950 . S
H777 C788 0.950 . S
H778 C790 0.950 . S
H779 C791 0.950 . S
C780 H772 0.950 . S
C780 C781 1.386 1_655 S
C780 C782 1.391 . S
C781 C780 1.386 1_455 S
C781 C785 1.393 . S
C782 H774 0.950 . S
C782 C780 1.391 . S
C782 C783 1.400 . S
C783 C782 1.400 . S
C783 C784 1.398 . S
C783 C789 1.491 . S
C784 H775 0.950 1_655 S
C784 C783 1.398 . S
C784 C785 1.391 1_655 S
C785 H773 0.950 . S
C785 C781 1.393 . S
C785 C784 1.391 1_455 S
C786 H776 0.950 . S
C786 C787 1.386 . S
C786 C788 1.391 . S
C787 C786 1.386 . S
C787 C791 1.393 . S
C788 H777 0.950 . S
C788 C786 1.391 . S
C788 C789 1.400 . S
C789 C783 1.491 . S
C789 C788 1.400 . S
C789 C790 1.398 . S
C790 H778 0.950 . S
C790 C789 1.398 . S
C790 C791 1.391 . S
C791 H779 0.950 . S
C791 C787 1.393 . S
C791 C790 1.391 . S
C481 C3 1.564 . S
C487 C239 1.564 . S
C501 C62 1.559 . S
C507 C298 1.559 . S
C521 C357 1.560 . S
C527 C121 1.558 . S
C541 C416 1.562 . S
C547 C180 1.557 . S
C561 C5 1.565 . S
C567 C123 1.563 . S
C581 C64 1.579 . S
C587 C182 1.582 . S
C601 C359 1.568 . S
C607 C241 1.565 . S
C621 C300 1.568 . S
C627 C418 1.565 . S
C641 C328 0.956 . S
C647 C33 0.941 . S
C661 C92 0.924 . S
C667 C387 0.932 . S
C681 C446 0.923 . S
C687 C151 0.936 . S
C701 C210 0.927 . S
C707 C269 0.926 . S
C721 C406 1.745 . S
C727 C229 1.746 . S
C741 C52 1.747 . S
C747 C465 1.745 . S
C761 C111 1.746 . S
C767 C288 1.745 . S
C781 C347 1.745 . S
C787 C170 1.748 . S
