# Generated by pormake.
# Topology crs, (6)-cn, num edge types: 1
# Building blocks:
#     Node 0, Type 0, BuildingBlock: MAKGUD_clean_sbu_1, # of connection points: 6
#     Node 1, Type 0, BuildingBlock: MAKGUD_clean_sbu_1, # of connection points: 6
#     Node 2, Type 0, BuildingBlock: MAKGUD_clean_sbu_1, # of connection points: 6
#     Node 3, Type 0, BuildingBlock: MAKGUD_clean_sbu_1, # of connection points: 6
#     Node 4, Type 0, BuildingBlock: MAKGUD_clean_sbu_1, # of connection points: 6
#     Node 5, Type 0, BuildingBlock: MAKGUD_clean_sbu_1, # of connection points: 6
#     Node 6, Type 0, BuildingBlock: MAKGUD_clean_sbu_1, # of connection points: 6
#     Node 7, Type 0, BuildingBlock: MAKGUD_clean_sbu_1, # of connection points: 6
#     Node 8, Type 0, BuildingBlock: MAKGUD_clean_sbu_1, # of connection points: 6
#     Node 9, Type 0, BuildingBlock: MAKGUD_clean_sbu_1, # of connection points: 6
#     Node 10, Type 0, BuildingBlock: MAKGUD_clean_sbu_1, # of connection points: 6
#     Node 11, Type 0, BuildingBlock: MAKGUD_clean_sbu_1, # of connection points: 6
#     Node 12, Type 0, BuildingBlock: MAKGUD_clean_sbu_1, # of connection points: 6
#     Node 13, Type 0, BuildingBlock: MAKGUD_clean_sbu_1, # of connection points: 6
#     Node 14, Type 0, BuildingBlock: MAKGUD_clean_sbu_1, # of connection points: 6
#     Node 15, Type 0, BuildingBlock: MAKGUD_clean_sbu_1, # of connection points: 6
#     Edge 16, Type (0, 0), BuildingBlock: OJICUG_clean_linker_0, # of connection points: 2
#     Edge 17, Type (0, 0), BuildingBlock: OJICUG_clean_linker_0, # of connection points: 2
#     Edge 18, Type (0, 0), BuildingBlock: OJICUG_clean_linker_0, # of connection points: 2
#     Edge 19, Type (0, 0), BuildingBlock: OJICUG_clean_linker_0, # of connection points: 2
#     Edge 20, Type (0, 0), BuildingBlock: OJICUG_clean_linker_0, # of connection points: 2
#     Edge 21, Type (0, 0), BuildingBlock: OJICUG_clean_linker_0, # of connection points: 2
#     Edge 22, Type (0, 0), BuildingBlock: OJICUG_clean_linker_0, # of connection points: 2
#     Edge 23, Type (0, 0), BuildingBlock: OJICUG_clean_linker_0, # of connection points: 2
#     Edge 24, Type (0, 0), BuildingBlock: OJICUG_clean_linker_0, # of connection points: 2
#     Edge 25, Type (0, 0), BuildingBlock: OJICUG_clean_linker_0, # of connection points: 2
#     Edge 26, Type (0, 0), BuildingBlock: OJICUG_clean_linker_0, # of connection points: 2
#     Edge 27, Type (0, 0), BuildingBlock: OJICUG_clean_linker_0, # of connection points: 2
#     Edge 28, Type (0, 0), BuildingBlock: OJICUG_clean_linker_0, # of connection points: 2
#     Edge 29, Type (0, 0), BuildingBlock: OJICUG_clean_linker_0, # of connection points: 2
#     Edge 30, Type (0, 0), BuildingBlock: OJICUG_clean_linker_0, # of connection points: 2
#     Edge 31, Type (0, 0), BuildingBlock: OJICUG_clean_linker_0, # of connection points: 2
#     Edge 32, Type (0, 0), BuildingBlock: OJICUG_clean_linker_0, # of connection points: 2
#     Edge 33, Type (0, 0), BuildingBlock: OJICUG_clean_linker_0, # of connection points: 2
#     Edge 34, Type (0, 0), BuildingBlock: OJICUG_clean_linker_0, # of connection points: 2
#     Edge 35, Type (0, 0), BuildingBlock: OJICUG_clean_linker_0, # of connection points: 2
#     Edge 36, Type (0, 0), BuildingBlock: OJICUG_clean_linker_0, # of connection points: 2
#     Edge 37, Type (0, 0), BuildingBlock: OJICUG_clean_linker_0, # of connection points: 2
#     Edge 38, Type (0, 0), BuildingBlock: OJICUG_clean_linker_0, # of connection points: 2
#     Edge 39, Type (0, 0), BuildingBlock: OJICUG_clean_linker_0, # of connection points: 2
#     Edge 40, Type (0, 0), BuildingBlock: OJICUG_clean_linker_0, # of connection points: 2
#     Edge 41, Type (0, 0), BuildingBlock: OJICUG_clean_linker_0, # of connection points: 2
#     Edge 42, Type (0, 0), BuildingBlock: OJICUG_clean_linker_0, # of connection points: 2
#     Edge 43, Type (0, 0), BuildingBlock: OJICUG_clean_linker_0, # of connection points: 2
#     Edge 44, Type (0, 0), BuildingBlock: OJICUG_clean_linker_0, # of connection points: 2
#     Edge 45, Type (0, 0), BuildingBlock: OJICUG_clean_linker_0, # of connection points: 2
#     Edge 46, Type (0, 0), BuildingBlock: OJICUG_clean_linker_0, # of connection points: 2
#     Edge 47, Type (0, 0), BuildingBlock: OJICUG_clean_linker_0, # of connection points: 2
#     Edge 48, Type (0, 0), BuildingBlock: OJICUG_clean_linker_0, # of connection points: 2
#     Edge 49, Type (0, 0), BuildingBlock: OJICUG_clean_linker_0, # of connection points: 2
#     Edge 50, Type (0, 0), BuildingBlock: OJICUG_clean_linker_0, # of connection points: 2
#     Edge 51, Type (0, 0), BuildingBlock: OJICUG_clean_linker_0, # of connection points: 2
#     Edge 52, Type (0, 0), BuildingBlock: OJICUG_clean_linker_0, # of connection points: 2
#     Edge 53, Type (0, 0), BuildingBlock: OJICUG_clean_linker_0, # of connection points: 2
#     Edge 54, Type (0, 0), BuildingBlock: OJICUG_clean_linker_0, # of connection points: 2
#     Edge 55, Type (0, 0), BuildingBlock: OJICUG_clean_linker_0, # of connection points: 2
#     Edge 56, Type (0, 0), BuildingBlock: OJICUG_clean_linker_0, # of connection points: 2
#     Edge 57, Type (0, 0), BuildingBlock: OJICUG_clean_linker_0, # of connection points: 2
#     Edge 58, Type (0, 0), BuildingBlock: OJICUG_clean_linker_0, # of connection points: 2
#     Edge 59, Type (0, 0), BuildingBlock: OJICUG_clean_linker_0, # of connection points: 2
#     Edge 60, Type (0, 0), BuildingBlock: OJICUG_clean_linker_0, # of connection points: 2
#     Edge 61, Type (0, 0), BuildingBlock: OJICUG_clean_linker_0, # of connection points: 2
#     Edge 62, Type (0, 0), BuildingBlock: OJICUG_clean_linker_0, # of connection points: 2
#     Edge 63, Type (0, 0), BuildingBlock: OJICUG_clean_linker_0, # of connection points: 2
# Relax obj value: 0.079
# Max RMSD: 0.254
# Mean RMSD: 0.241
data_MOF--net-crs--node1-MAKGUD_clean_sbu_1--edge1-OJICUG_clean_linker_0
_symmetry_space_group_name_H-M    P1
_symmetry_Int_Tables_number       1
_symmetry_cell_setting            triclinic
loop_
_symmetry_equiv_pos_as_xyz
'x, y, z'
_cell_length_a     31.460177
_cell_length_b     39.725455
_cell_length_c     36.265245
_cell_angle_alpha  90.804759
_cell_angle_beta   90.271595
_cell_angle_gamma 72.255758
loop_
_atom_site_label
_atom_site_type_symbol
_atom_site_fract_x
_atom_site_fract_y
_atom_site_fract_z
_atom_type_partial_charge
O0 O -0.01557 0.16836 1.06499 0.0
Tb1 Tb 0.9632 0.13492 0.10354 0.0
C2 C 0.01393 0.05625 0.12709 0.0
O3 O -0.03586 0.07588 1.05279 0.0
Tb4 Tb -0.01985 1.01961 1.06331 0.0
C5 C 0.01425 0.98018 1.00395 0.0
O6 O 0.91485 0.12918 1.06282 0.0
O7 O 0.92454 1.00009 1.07729 0.0
C8 C 0.90168 0.99329 1.04914 0.0
O9 O 0.90674 1.00638 1.01701 0.0
O10 O -0.02486 0.07991 0.12024 0.0
O11 O 0.02272 1.02512 0.11 0.0
O12 O 0.93476 0.17552 0.14495 0.0
C13 C 0.92441 0.09803 1.04658 0.0
C14 C 0.0271 0.15459 1.07014 0.0
O15 O -0.01053 1.01304 1.0039 0.0
O16 O 0.02315 0.97054 1.03811 0.0
C17 C 0.93176 0.17078 0.18052 0.0
O18 O 0.93918 0.13873 0.19333 0.0
O19 O 0.03399 0.12871 0.09334 0.0
O20 O -0.01964 0.3025 0.25523 0.0
Tb21 Tb 0.00763 0.31837 0.30586 0.0
C22 C 0.04234 0.26279 0.36434 0.0
O23 O 0.91292 0.35026 0.3446 0.0
Tb24 Tb 0.95448 0.3192 0.38774 0.0
C25 C 0.89867 0.31157 0.43951 0.0
O26 O -0.03376 0.37098 0.3204 0.0
O27 O -0.01255 0.35746 0.40633 0.0
C28 C 0.96326 0.39025 0.41378 0.0
O29 O 0.91989 0.39927 0.40873 0.0
O30 O 0.05299 0.28774 0.34673 0.0
O31 O 0.001 0.26743 0.37488 0.0
O32 O 0.05973 0.32438 0.26996 0.0
C33 C 0.92436 0.37561 0.32862 0.0
C34 C 0.96292 0.28035 0.27039 0.0
O35 O 0.8913 0.31195 0.40423 0.0
O36 O 0.93774 0.31524 0.44578 0.0
C37 C 0.08334 0.29776 0.24936 0.0
O38 O 0.07668 0.26681 0.2522 0.0
O39 O -0.02996 0.27999 0.3057 0.0
O40 O 0.71266 0.22872 0.561 0.0
Tb41 Tb 0.73849 0.25526 0.60477 0.0
C42 C 0.6891 0.33372 0.62905 0.0
O43 O 0.73623 0.31096 0.55193 0.0
Tb44 Tb 0.72254 0.36679 0.56493 0.0
C45 C 0.69406 0.40925 0.50747 0.0
O46 O 0.78722 0.25917 0.56439 0.0
O47 O 0.78302 0.37674 0.58391 0.0
C48 C 0.81036 0.38054 0.55823 0.0
O49 O 0.80106 0.37523 0.52374 0.0
O50 O 0.72809 0.31018 0.62207 0.0
O51 O 0.67896 0.36376 0.61081 0.0
O52 O 0.76629 0.21238 0.64287 0.0
C53 C 0.77639 0.28897 0.54639 0.0
C54 C 0.67079 0.24194 0.56976 0.0
O55 O 0.71439 0.37543 0.50572 0.0
O56 O 0.68701 0.41873 0.54207 0.0
C57 C 0.77456 0.21537 0.67812 0.0
O58 O 0.77118 0.24655 0.69268 0.0
O59 O 0.66697 0.26326 0.59797 0.0
O60 O 0.76464 0.07597 0.9391 0.0
Tb61 Tb 0.75113 0.07052 0.88034 0.0
C62 C 0.78725 1.00981 0.82455 0.0
O63 O 0.65567 0.1007 0.83382 0.0
Tb64 Tb 0.70514 0.06587 0.79748 0.0
C65 C 0.75173 0.10252 0.76365 0.0
O66 O 0.70568 0.12188 0.86505 0.0
O67 O 0.65727 0.05706 0.75806 0.0
C68 C 0.63316 0.08345 0.73804 0.0
O69 O 0.63637 0.11526 0.74425 0.0
O70 O 0.79683 1.03637 0.84066 0.0
O71 O 0.74613 1.01374 0.81398 0.0
O72 O 0.71674 1.03368 0.89882 0.0
C73 C 0.66524 0.12642 0.85196 0.0
C74 C 0.80397 0.07954 0.93451 0.0
O75 O 0.7447 0.10288 0.79893 0.0
O76 O 0.73347 0.08089 0.74769 0.0
C77 C 0.74087 1.00156 0.90798 0.0
O78 O 0.78444 0.99258 0.90444 0.0
O79 O 0.81301 0.07875 0.89956 0.0
O80 O 0.48319 0.80376 0.24087 0.0
Tb81 Tb 0.50864 0.81996 0.29216 0.0
C82 C 0.54322 0.76564 0.35297 0.0
O83 O 0.41266 0.85115 0.33181 0.0
Tb84 Tb 0.45317 0.82215 0.37654 0.0
C85 C 0.39892 0.81606 0.4308 0.0
O86 O 0.46602 0.87197 0.30759 0.0
O87 O 0.48072 0.8638 0.39467 0.0
C88 C 0.45181 0.89472 0.40298 0.0
O89 O 0.40918 0.89874 0.39783 0.0
O90 O 0.55412 0.78936 0.33325 0.0
O91 O 0.50216 0.77095 0.36494 0.0
O92 O 0.5584 0.82886 0.25521 0.0
C93 C 0.42415 0.87655 0.31588 0.0
C94 C 0.46644 0.78085 0.25525 0.0
O95 O 0.39316 0.81065 0.3959 0.0
O96 O 0.43564 0.82418 0.4351 0.0
C97 C 0.58617 0.80211 0.23737 0.0
O98 O 0.58566 0.76989 0.24453 0.0
O99 O 0.47277 0.78034 0.29073 0.0
O100 O 0.20594 0.72631 0.5531 0.0
Tb101 Tb 0.21294 0.77329 0.58109 0.0
C102 C 0.16897 0.8525 0.6049 0.0
O103 O 0.27026 0.82307 0.5774 0.0
Tb104 Tb 0.24065 0.88053 0.57588 0.0
C105 C 0.23399 0.9068 0.50829 0.0
O106 O 0.26858 0.77396 0.54626 0.0
O107 O 0.27006 0.91218 0.61044 0.0
C108 C 0.31145 0.90049 0.62194 0.0
O109 O 0.33433 0.86723 0.61587 0.0
O110 O 0.18678 0.8304 0.57794 0.0
O111 O 0.18138 0.88113 0.60737 0.0
O112 O 0.23332 0.75476 0.63625 0.0
C113 C 0.2833 0.80156 0.54872 0.0
C114 C 0.16265 0.73792 0.55037 0.0
O115 O 0.26984 0.8859 0.52305 0.0
O116 O 0.20095 0.91265 0.5316 0.0
C117 C 0.20371 0.7486 0.65836 0.0
O118 O 0.16226 0.75588 0.64713 0.0
O119 O 0.14792 0.76954 0.56467 0.0
O120 O 0.26929 0.54582 0.95147 0.0
Tb121 Tb 0.2288 0.55568 0.90147 0.0
C122 C 0.27974 0.51906 0.83231 0.0
O123 O 0.17073 0.5927 0.83592 0.0
Tb124 Tb 0.21883 0.58358 0.79105 0.0
C125 C 0.23516 0.64006 0.76329 0.0
O126 O 0.18229 0.60799 0.89421 0.0
O127 O 0.17859 0.56458 0.75159 0.0
C128 C 0.15108 0.58747 0.72984 0.0
O129 O 0.14965 0.62082 0.7323 0.0
O130 O 0.24347 0.52289 0.85173 0.0
O131 O 0.27958 0.54235 0.8068 0.0
O132 O 0.1947 0.5258 0.9336 0.0
C133 C 0.16576 0.61758 0.86137 0.0
C134 C 0.29897 0.56024 0.94082 0.0
O135 O 0.21503 0.63952 0.79442 0.0
O136 O 0.24639 0.60874 0.74817 0.0
C137 C 0.18779 0.49683 0.92047 0.0
O138 O 0.194 0.48901 0.88525 0.0
O139 O 0.28973 0.57164 0.90732 0.0
O140 O 0.00348 0.66623 0.55523 0.0
Tb141 Tb -0.00698 0.62564 0.59078 0.0
C142 C 0.03998 0.54711 0.62002 0.0
O143 O 0.94124 0.56836 0.58292 0.0
Tb144 Tb -0.01803 0.51251 0.57925 0.0
C145 C 0.01118 0.48459 0.51292 0.0
O146 O 0.94015 0.61956 0.555 0.0
O147 O 0.93861 0.48192 0.59539 0.0
C148 C 0.91815 0.47178 0.56766 0.0
O149 O 0.92102 0.48442 0.53489 0.0
O150 O 0.01823 0.56872 0.59452 0.0
O151 O 0.03415 0.51577 0.61843 0.0
O152 O -0.03117 0.65459 0.64169 0.0
C153 C 0.92897 0.5901 0.55491 0.0
C154 C 0.04686 0.65411 0.55527 0.0
O155 O -0.01639 0.5161 0.51903 0.0
O156 O 0.02472 0.47031 0.54465 0.0
C157 C 0.94203 0.68716 0.63926 0.0
O158 O 0.92676 0.69895 0.60659 0.0
O159 O 0.05984 0.62568 0.57497 0.0
O160 O 0.20066 0.21358 1.05459 0.0
Tb161 Tb 0.22121 0.25098 0.08988 0.0
C162 C 0.19162 0.32617 0.13241 0.0
O163 O 0.28175 0.30216 0.08565 0.0
Tb164 Tb 0.25158 0.35964 0.09238 0.0
C165 C 0.21335 0.39298 1.03201 0.0
O166 O 0.26924 0.25844 1.04989 0.0
O167 O 0.2882 0.39254 0.11738 0.0
C168 C 0.33156 0.38303 0.1226 0.0
O169 O 0.35554 0.3501 0.11639 0.0
O170 O 0.2035 0.30711 0.10219 0.0
O171 O 0.20394 0.3549 0.13407 0.0
O172 O 0.25317 0.21351 0.1321 0.0
C173 C 0.28655 0.2848 1.05378 0.0
C174 C 0.15798 0.22697 1.06037 0.0
O175 O 0.1951 0.39679 1.06455 0.0
O176 O 0.25266 0.36968 1.03339 0.0
C177 C 0.26164 0.22 0.16651 0.0
O178 O 0.25552 0.2526 0.17809 0.0
O179 O 0.15085 0.25485 0.08158 0.0
O180 O 0.283 0.06887 0.43354 0.0
Tb181 Tb 0.26481 0.07137 0.37521 0.0
C182 C 0.29435 1.01442 0.31591 0.0
O183 O 0.16169 0.10035 0.33625 0.0
Tb184 Tb 0.20774 0.06941 0.29518 0.0
C185 C 0.24819 0.10929 0.25927 0.0
O186 O 0.21358 0.12126 0.36556 0.0
O187 O 0.15879 0.05826 0.25828 0.0
C188 C 0.12982 0.08414 0.24083 0.0
O189 O 0.12885 0.11686 0.24817 0.0
O190 O 0.30585 1.04054 0.33114 0.0
O191 O 0.25215 1.01816 0.30952 0.0
O192 O 0.23623 1.03096 0.39321 0.0
C193 C 0.17209 0.12491 0.3558 0.0
C194 C 0.31702 0.08059 0.43007 0.0
O195 O 0.24258 0.10967 0.29473 0.0
O196 O 0.23168 0.08613 0.24427 0.0
C197 C 0.26448 1.00008 0.40164 0.0
O198 O 0.30732 0.99528 0.3969 0.0
O199 O 0.32155 0.08747 0.39557 0.0
O200 O 0.46817 0.31443 0.74521 0.0
Tb201 Tb 0.49657 0.32535 0.79746 0.0
C202 C 0.53518 0.26574 0.85246 0.0
O203 O 0.40228 0.3537 0.8414 0.0
Tb204 Tb 0.44657 0.31975 0.88103 0.0
C205 C 0.39522 0.30896 0.93516 0.0
O206 O 0.45329 0.37652 0.8162 0.0
O207 O 0.47918 0.35787 0.9006 0.0
C208 C 0.45316 0.38893 0.91194 0.0
O209 O 0.40974 0.39509 0.91034 0.0
O210 O 0.54459 0.29157 0.83519 0.0
O211 O 0.49463 0.26959 0.86475 0.0
O212 O 0.5459 0.33598 0.76151 0.0
C213 C 0.41232 0.38054 0.82719 0.0
C214 C 0.45635 0.28767 0.75634 0.0
O215 O 0.38943 0.30409 0.90018 0.0
O216 O 0.43032 0.31932 0.93962 0.0
C217 C 0.57482 0.30957 0.74415 0.0
O218 O 0.57536 0.2771 0.75128 0.0
O219 O 0.46609 0.2826 0.79111 0.0
O220 O -0.03379 0.81414 0.73999 0.0
Tb221 Tb 0.00621 0.82037 0.78778 0.0
C222 C 0.04598 0.75924 0.84256 0.0
O223 O 0.91474 0.84735 0.83517 0.0
Tb224 Tb 0.95924 0.81382 0.87509 0.0
C225 C 0.90573 0.80247 0.92729 0.0
O226 O -0.03417 0.87058 0.81127 0.0
O227 O -0.00713 0.85064 0.89643 0.0
C228 C -0.03114 0.88276 0.90644 0.0
O229 O 0.92536 0.89216 0.90211 0.0
O230 O 0.05526 0.78354 0.82241 0.0
O231 O 0.00634 0.76379 0.85729 0.0
O232 O 0.05375 0.83169 0.74974 0.0
C233 C 0.92452 0.8742 0.82095 0.0
C234 C 0.95865 0.78542 0.75071 0.0
O235 O 0.89708 0.8048 0.8922 0.0
O236 O 0.945 0.80596 0.93306 0.0
C237 C 0.06432 0.81396 0.71836 0.0
O238 O 0.04895 0.78727 0.71141 0.0
O239 O -0.02332 0.77711 0.7829 0.0
O240 O 0.77994 0.56157 0.44 0.0
Tb241 Tb 0.75789 0.56973 0.38254 0.0
C242 C 0.79224 0.51212 0.32416 0.0
O243 O 0.66195 0.60171 0.33419 0.0
Tb244 Tb 0.71184 0.56902 0.29675 0.0
C245 C 0.75949 0.60574 0.26437 0.0
O246 O 0.71036 0.62101 0.37029 0.0
O247 O 0.66556 0.56116 0.25533 0.0
C248 C 0.64406 0.5875 0.23412 0.0
O249 O 0.64824 0.61899 0.24048 0.0
O250 O 0.80251 0.53789 0.34112 0.0
O251 O 0.75104 0.51676 0.31365 0.0
O252 O 0.71952 0.53553 0.40088 0.0
C253 C 0.67073 0.62607 0.35525 0.0
C254 C 0.81139 0.57629 0.43754 0.0
O255 O 0.74743 0.60887 0.29882 0.0
O256 O 0.74553 0.58148 0.24867 0.0
C257 C 0.74073 0.50214 0.40788 0.0
O258 O 0.78379 0.49003 0.40144 0.0
O259 O 0.81195 0.58813 0.40438 0.0
O260 O 0.72002 0.7093 1.062 0.0
Tb261 Tb 0.74706 0.74483 0.0947 0.0
C262 C 0.70076 0.82427 0.12102 0.0
O263 O 0.74629 0.80419 1.04512 0.0
Tb264 Tb 0.73475 0.85996 1.05781 0.0
C265 C 0.70035 0.90128 1.00078 0.0
O266 O 0.79233 0.74913 1.05073 0.0
O267 O 0.79216 0.87704 1.07324 0.0
C268 C 0.8166 0.88253 1.04593 0.0
O269 O 0.81089 0.87016 1.01314 0.0
O270 O 0.73834 0.79956 0.11265 0.0
O271 O 0.69305 0.85539 0.10497 0.0
O272 O 0.77855 0.70618 0.1363 0.0
C273 C 0.78415 0.78056 1.03607 0.0
C274 C 0.67811 0.72555 1.06852 0.0
O275 O 0.72549 0.86856 0.99879 0.0
O276 O 0.69159 0.90983 1.03544 0.0
C277 C 0.78413 0.71284 0.17133 0.0
O278 O 0.7769 0.74559 0.18289 0.0
O279 O 0.67491 0.75364 0.08866 0.0
O280 O 0.49822 0.18336 0.56173 0.0
Tb281 Tb 0.48976 0.13659 0.58787 0.0
C282 C 0.53588 0.05598 0.6107 0.0
O283 O 0.43811 0.08186 0.57875 0.0
Tb284 Tb 0.47014 1.02457 0.57425 0.0
C285 C 0.47895 0.99559 0.50674 0.0
O286 O 0.43546 0.13341 0.55175 0.0
O287 O 0.44142 0.99257 0.60775 0.0
C288 C 0.401 1.0044 0.62139 0.0
O289 O 0.37829 1.03792 0.61776 0.0
O290 O 0.51697 0.07937 0.58564 0.0
O291 O 0.52834 1.02531 0.60716 0.0
O292 O 0.4692 0.15936 0.64224 0.0
C293 C 0.42391 0.10414 0.55148 0.0
C294 C 0.54118 0.17057 0.55723 0.0
O295 O 0.44292 1.01769 0.5204 0.0
O296 O 0.5111 0.99067 0.53091 0.0
C297 C 0.43883 0.1906 0.64334 0.0
O298 O 0.41832 0.2031 0.61249 0.0
O299 O 0.55494 0.13838 0.5693 0.0
O300 O 0.49347 0.68052 1.0669 0.0
Tb301 Tb 0.47095 0.63684 0.08578 0.0
C302 C 0.52939 0.56534 0.11753 0.0
O303 O 0.43396 0.57542 1.07432 0.0
Tb304 Tb 0.47889 0.52126 1.07472 0.0
C305 C 0.49402 0.48904 1.0085 0.0
O306 O 0.42843 0.625 1.04285 0.0
O307 O 0.45305 0.48647 0.10752 0.0
C308 C 0.41198 0.49492 0.12001 0.0
O309 O 0.38643 0.52788 0.11837 0.0
O310 O 0.48939 0.58852 0.11795 0.0
O311 O 0.53426 0.53365 0.10293 0.0
O312 O 0.43659 0.67553 0.12737 0.0
C313 C 0.42051 0.59433 1.04451 0.0
C314 C 0.53536 0.66277 1.06296 0.0
O315 O 0.46143 0.517 1.01699 0.0
O316 O 0.51991 0.48014 1.03716 0.0
C317 C 0.44162 0.67004 0.16307 0.0
O318 O 0.45913 0.6377 0.17499 0.0
O319 O 0.5409 0.62968 1.07051 0.0
C320 C 0.9266 0.2342 0.19064 0.0
C321 C 0.92989 0.20099 0.20564 0.0
H322 H 0.93463 0.28529 0.19954 0.0
C323 C 0.93774 0.19611 0.2437 0.0
H324 H 0.92018 0.23911 0.16153 0.0
C325 C 0.94543 0.22304 0.26563 0.0
C326 C 0.94581 0.255 0.24971 0.0
H327 H 0.94048 0.17091 0.25614 0.0
H328 H 0.95387 0.21799 0.29445 0.0
C329 C 0.93486 0.26077 0.21238 0.0
C330 C 0.8525 0.29088 0.52956 0.0
C331 C 0.8075 0.29671 0.52028 0.0
H332 H 0.91677 0.29221 0.51122 0.0
C333 C 0.79269 0.30773 0.48465 0.0
H334 H 0.86456 0.28203 0.55688 0.0
C335 C 0.82246 0.31276 0.45848 0.0
C336 C 0.86741 0.30724 0.46772 0.0
H337 H 0.75832 0.3115 0.47671 0.0
H338 H 0.81032 0.32087 0.431 0.0
C339 C 0.88217 0.29671 0.50357 0.0
C340 C 0.76894 0.15997 0.76115 0.0
C341 C 0.76782 0.12839 0.74378 0.0
H342 H 0.77217 0.21267 0.75392 0.0
C343 C 0.77595 0.12392 0.70581 0.0
H344 H 0.76262 0.16407 0.79047 0.0
C345 C 0.78177 0.15145 0.68501 0.0
C346 C 0.77901 0.18427 0.70168 0.0
H347 H 0.77552 0.09975 0.69181 0.0
H348 H 0.78586 0.14759 0.65546 0.0
C349 C 0.77438 0.1878 0.74022 0.0
C350 C 0.90955 0.07957 0.98376 0.0
C351 C 0.89393 0.0902 1.01949 0.0
H352 H 0.89292 0.0682 0.92868 0.0
C353 C 0.84854 0.09682 1.02756 0.0
H354 H 0.94422 0.07541 0.97674 0.0
C355 C 0.81914 0.09246 1.00012 0.0
C356 C 0.83469 0.08258 0.96412 0.0
H357 H 0.83587 0.10555 1.05493 0.0
H358 H 0.78416 0.09772 1.00677 0.0
C359 C 0.88013 0.07595 0.95623 0.0
C360 C 0.03835 0.09767 0.1691 0.0
C361 C 0.04511 0.06335 0.15496 0.0
H362 H 0.05932 0.13123 0.20696 0.0
C363 C 0.0803 1.03565 0.1694 0.0
H364 H 0.01198 0.11959 0.15858 0.0
C365 C 0.10754 1.0422 0.19764 0.0
C366 C 0.10045 0.07666 0.21174 0.0
H367 H 0.08634 1.00879 0.15938 0.0
H368 H 0.13426 1.02028 0.20824 0.0
C369 C 0.06569 0.10433 0.19693 0.0
C370 C -0.02701 0.47554 0.45491 0.0
C371 C 0.00835 0.46295 0.47994 0.0
H372 H 0.93073 0.46214 0.41448 0.0
C373 C 0.03356 0.42701 0.47827 0.0
H374 H 0.9527 0.50302 0.45563 0.0
C375 C 0.02114 0.40356 0.45439 0.0
C376 C -0.01715 0.41559 0.43226 0.0
H377 H 0.06083 0.41654 0.49737 0.0
H378 H 0.03943 0.37566 0.45543 0.0
C379 C 0.96008 0.45202 0.43159 0.0
C380 C 0.66737 0.29406 0.67359 0.0
C381 C 0.65877 0.32747 0.65763 0.0
H382 H 0.64783 0.26208 0.71307 0.0
C383 C 0.62241 0.3553 0.6708 0.0
H384 H 0.69482 0.27211 0.66408 0.0
C385 C 0.59557 0.34975 0.69941 0.0
C386 C 0.60419 0.31614 0.71509 0.0
H387 H 0.61502 0.38151 0.65939 0.0
H388 H 0.56778 0.37169 0.70893 0.0
C389 C 0.64029 0.28833 0.70171 0.0
C390 C 0.68939 0.98815 0.95422 0.0
C391 C 0.72107 0.9767 0.9259 0.0
H392 H 0.65764 0.97286 1.00073 0.0
C393 C 0.73912 0.94035 0.91865 0.0
H394 H 0.67528 1.01608 0.96051 0.0
C395 C 0.72814 0.91578 0.94084 0.0
C396 C 0.69991 0.92702 0.9715 0.0
H397 H 0.76357 0.93087 0.89692 0.0
H398 H 0.74477 0.88793 0.93573 0.0
C399 C 0.67926 0.96344 0.97718 0.0
C400 C 0.14935 0.34255 0.19131 0.0
C401 C 0.16651 0.31719 0.16335 0.0
H402 H 0.10985 0.35635 0.24024 0.0
C403 C 0.15794 0.2846 0.16509 0.0
H404 H 0.15523 0.36803 0.19096 0.0
C405 C 0.13214 0.27772 0.19368 0.0
C406 C 0.11387 0.30358 0.22092 0.0
H407 H 0.17152 0.26422 0.14474 0.0
H408 H 0.12581 0.25241 0.19398 0.0
C409 C 0.12322 0.3359 0.21963 0.0
C410 C 0.73395 0.44281 0.4219 0.0
C411 C 0.71924 0.47952 0.42803 0.0
H412 H 0.73584 0.39188 0.4415 0.0
C413 C 0.68964 0.4933 0.45732 0.0
H414 H 0.75678 0.43151 0.39952 0.0
C415 C 0.6783 0.47046 0.48202 0.0
C416 C 0.69559 0.4336 0.47724 0.0
H417 H 0.67814 0.5215 0.46285 0.0
H418 H 0.65827 0.48158 0.506 0.0
C419 C 0.72179 0.42013 0.44594 0.0
C420 C 0.56332 0.09752 0.65077 0.0
C421 C 0.55972 0.06369 0.64369 0.0
H422 H 0.58852 0.13057 0.68619 0.0
C423 C 0.57936 1.0366 0.66875 0.0
H424 H 0.54874 0.11894 0.63239 0.0
C425 C 0.60248 1.04311 0.69974 0.0
C426 C 0.60635 0.07694 0.70655 0.0
H427 H 0.5773 1.01012 0.66429 0.0
H428 H 0.61766 1.02151 0.71814 0.0
C429 C 0.58614 0.10416 0.68187 0.0
C430 C -0.01688 0.96755 0.944 0.0
C431 C 0.01294 0.95536 0.9734 0.0
H432 H 0.94534 0.9539 0.90012 0.0
C433 C 0.03348 0.91877 0.97686 0.0
H434 H -0.03353 0.99555 0.94063 0.0
C435 C 0.02196 0.89483 0.95293 0.0
C436 C -0.01107 0.90717 0.92586 0.0
H437 H 0.05626 0.90862 0.99942 0.0
H438 H 0.0363 0.86673 0.95743 0.0
C439 C -0.02926 0.94371 0.92087 0.0
C440 C 0.04751 0.20852 1.0544 0.0
C441 C 0.06073 0.1718 1.0598 0.0
H442 H 0.06835 0.25505 1.05085 0.0
C443 C 0.10638 0.15294 1.06013 0.0
H444 H 0.01248 0.22374 1.05434 0.0
C445 C 0.13831 0.17078 1.05681 0.0
C446 C 0.125 0.20784 1.0544 0.0
H447 H 0.11737 0.12466 1.06443 0.0
H448 H 0.17333 0.15585 1.05889 0.0
C449 C 0.07938 0.22647 1.0524 0.0
C450 C 0.59189 0.66605 0.35455 0.0
C451 C 0.63776 0.66165 0.35752 0.0
H452 H 0.52592 0.70259 0.35171 0.0
C453 C 0.65224 0.69178 0.36051 0.0
H454 H 0.57987 0.64331 0.35206 0.0
C455 C 0.62152 0.72568 0.35938 0.0
C456 C 0.57569 0.73006 0.35635 0.0
H457 H 0.68747 0.68918 0.36243 0.0
H458 H 0.63359 0.74846 0.36073 0.0
C459 C 0.56109 0.69995 0.35451 0.0
C460 C 0.30995 0.96266 0.63544 0.0
C461 C 0.33433 0.92657 0.63265 0.0
H462 H 0.31209 1.01596 0.63457 0.0
C463 C 0.3811 0.9166 0.63411 0.0
H464 H 0.2738 0.97121 0.63502 0.0
C465 C 0.40302 0.94231 0.63393 0.0
C466 C 0.37854 0.97839 0.63231 0.0
H467 H 0.40085 0.88902 0.63251 0.0
H468 H 0.43912 0.93376 0.63238 0.0
C469 C 0.33188 0.98839 0.63527 0.0
C470 C 0.09639 0.71257 0.88132 0.0
C471 C 0.07946 0.72426 0.84641 0.0
H472 H 0.13758 0.67013 0.91324 0.0
C473 C 0.09102 0.70092 0.81609 0.0
H474 H 0.08725 0.73 0.90516 0.0
C475 C 0.11862 0.6661 0.82083 0.0
C476 C 0.1362 0.65435 0.85575 0.0
H477 H 0.07749 0.70924 0.789 0.0
H478 H 0.12599 0.64837 0.79724 0.0
C479 C 0.12498 0.67819 0.88586 0.0
C480 C 0.87622 0.39708 0.53835 0.0
C481 C 0.84513 0.39748 0.56605 0.0
H482 H 0.92382 0.4204 0.51764 0.0
C483 C 0.84345 0.41865 0.59782 0.0
H484 H 0.8788 0.38065 0.51384 0.0
C485 C 0.86972 0.44153 0.60011 0.0
C486 C 0.89744 0.44341 0.57053 0.0
H487 H 0.81972 0.41939 0.61958 0.0
H488 H 0.86602 0.45936 0.62357 0.0
C489 C 0.9019 0.41994 0.54048 0.0
C490 C 0.37339 0.97566 0.31198 0.0
C491 C 0.32762 0.97924 0.31244 0.0
H492 H 0.43999 0.94014 0.31205 0.0
C493 C 0.31383 0.94875 0.31201 0.0
H494 H 0.38488 0.99875 0.31239 0.0
C495 C 0.34529 0.91529 0.3124 0.0
C496 C 0.39105 0.91171 0.31249 0.0
H497 H 0.27874 0.95072 0.31272 0.0
H498 H 0.33378 0.89223 0.31311 0.0
C499 C 0.40487 0.94215 0.31163 0.0
C500 C 0.30708 0.45511 0.84916 0.0
C501 C 0.31454 0.484 0.83132 0.0
H502 H 0.33118 0.40006 0.8611 0.0
C503 C 0.35466 0.47856 0.81179 0.0
H504 H 0.27676 0.45813 0.86454 0.0
C505 C 0.38649 0.44497 0.81021 0.0
C506 C 0.37852 0.41605 0.82765 0.0
H507 H 0.36154 0.50026 0.79783 0.0
H508 H 0.41721 0.44165 0.7952 0.0
C509 C 0.33835 0.42158 0.84703 0.0
C510 C 0.14838 0.85063 0.6715 0.0
C511 C 0.1417 0.84365 0.63415 0.0
H512 H 0.12922 0.84647 0.72772 0.0
C513 C 0.10781 0.82895 0.62477 0.0
H514 H 0.17386 0.86252 0.6794 0.0
C515 C 0.08265 0.81954 0.65224 0.0
C516 C 0.09038 0.8252 0.68971 0.0
H517 H 0.10043 0.82506 0.59616 0.0
H518 H 0.05707 0.80783 0.6441 0.0
C519 C 0.12287 0.8415 0.69909 0.0
C520 C 0.21016 0.98263 0.442 0.0
C521 C 0.2504 0.97335 0.42206 0.0
H522 H 0.17289 0.96822 0.48529 0.0
C523 C 0.28061 0.93931 0.42603 0.0
H524 H 0.18623 1.00867 0.43939 0.0
C525 C 0.27296 0.91634 0.45207 0.0
C526 C 0.23494 0.9269 0.47461 0.0
H527 H 0.31157 0.93117 0.41061 0.0
H528 H 0.29833 0.89118 0.45621 0.0
C529 C 0.20248 0.95949 0.4682 0.0
C530 C 0.95786 0.72465 0.73308 0.0
C531 C 0.9448 0.76103 0.72579 0.0
H532 H -0.03263 0.67245 0.7112 0.0
C533 C 0.92489 0.77303 0.69181 0.0
H534 H -0.02645 0.7147 0.75905 0.0
C535 C 0.92082 0.74893 0.66461 0.0
C536 C 0.9374 0.71231 0.67065 0.0
H537 H 0.91457 0.80094 0.68554 0.0
H538 H 0.90728 0.75902 0.63805 0.0
C539 C 0.9545 0.70045 0.70563 0.0
C540 C 0.34705 0.82101 0.52575 0.0
C541 C 0.3108 0.8083 0.51845 0.0
H542 H 0.40361 0.83333 0.50357 0.0
C543 C 0.30331 0.79882 0.48206 0.0
H544 H 0.35398 0.82789 0.55363 0.0
C545 C 0.33154 0.8019 0.45349 0.0
C546 C 0.36827 0.81396 0.46085 0.0
H547 H 0.27573 0.78874 0.47572 0.0
H548 H 0.32502 0.79426 0.42575 0.0
C549 C 0.37558 0.82381 0.49717 0.0
C550 C 0.25791 0.16925 0.25341 0.0
C551 C 0.26213 0.13559 0.23831 0.0
H552 H 0.25453 0.22298 0.24231 0.0
C553 C 0.27372 0.12879 0.20113 0.0
H554 H 0.24884 0.17508 0.28211 0.0
C555 C 0.27763 0.15582 0.17862 0.0
C556 C 0.26921 0.19045 0.19267 0.0
H557 H 0.27751 0.10298 0.18895 0.0
H558 H 0.28449 0.14997 0.14959 0.0
C559 C 0.26123 0.19662 0.23067 0.0
C560 C 0.86071 0.78085 1.01784 0.0
C561 C 0.81521 0.78812 1.00954 0.0
H562 H 0.92522 0.78065 0.99834 0.0
C563 C 0.79976 0.80023 0.97434 0.0
H564 H 0.87333 0.77111 1.04476 0.0
C565 C 0.82933 0.80484 0.94768 0.0
C566 C 0.87483 0.79785 0.95591 0.0
H567 H 0.76497 0.80515 0.96709 0.0
H568 H 0.81656 0.81389 0.92059 0.0
C569 C 0.89025 0.78626 0.99137 0.0
C570 C 0.26476 0.67027 0.71474 0.0
C571 C 0.23378 0.67208 0.74296 0.0
H572 H 0.2802 0.69433 0.66622 0.0
C573 C 0.19685 0.70247 0.74687 0.0
H574 H 0.29336 0.64695 0.71122 0.0
C575 C 0.18858 0.72906 0.72054 0.0
C576 C 0.21792 0.72603 0.69074 0.0
H577 H 0.17233 0.70427 0.76829 0.0
H578 H 0.15801 0.75095 0.72228 0.0
C579 C 0.25726 0.69739 0.68911 0.0
C580 C 0.3788 0.10167 0.45499 0.0
C581 C 0.34548 0.08555 0.4608 0.0
H582 H 0.42986 0.12021 0.47945 0.0
C583 C 0.33897 0.07464 0.49646 0.0
H584 H 0.38445 0.11034 0.42777 0.0
C585 C 0.36509 0.08006 0.52592 0.0
C586 C 0.39819 0.0964 0.52016 0.0
H587 H 0.31347 0.06213 0.50168 0.0
H588 H 0.35899 0.07195 0.55324 0.0
C589 C 0.4047 0.10732 0.48451 0.0
C590 C 0.85825 0.91922 1.01657 0.0
C591 C 0.84162 0.90879 1.04895 0.0
H592 H 0.8889 0.95396 0.99135 0.0
C593 C 0.84563 0.92613 0.08238 0.0
H594 H 0.85593 0.90666 0.99024 0.0
C595 C 0.86537 0.95361 0.08307 0.0
C596 C 0.88039 0.96466 1.05022 0.0
H597 H 0.83298 0.91885 0.10779 0.0
H598 H 0.8681 0.9666 0.10903 0.0
C599 C 0.87687 0.94682 1.01714 0.0
C600 C 0.59064 0.24499 0.56576 0.0
C601 C 0.63542 0.22742 0.55713 0.0
H602 H 0.52471 0.2407 0.57109 0.0
C603 C 0.64702 0.19311 0.54197 0.0
H604 H 0.58101 0.27147 0.57751 0.0
C605 C 0.61517 0.17523 0.53921 0.0
C606 C 0.57112 0.19185 0.55051 0.0
H607 H 0.68139 0.17898 0.53518 0.0
H608 H 0.62556 0.14777 0.53036 0.0
C609 C 0.55849 0.22744 0.56197 0.0
C610 C 0.81304 0.4463 0.32024 0.0
C611 C 0.82598 0.47713 0.32132 0.0
H612 H 0.83433 0.38975 0.32218 0.0
C613 C 0.87158 0.47426 0.32245 0.0
H614 H 0.77807 0.44782 0.3197 0.0
C615 C 0.90372 0.44111 0.32322 0.0
C616 C 0.89074 0.41031 0.32371 0.0
H617 H 0.88241 0.49767 0.32331 0.0
H618 H 0.93862 0.43967 0.32495 0.0
C619 C 0.84517 0.41314 0.32186 0.0
C620 C 0.05921 0.71078 0.5386 0.0
C621 C 0.07656 0.6742 0.54376 0.0
H622 H 0.07362 0.76006 0.53673 0.0
C623 C 0.12295 0.65821 0.54413 0.0
H624 H 0.02351 0.72368 0.53824 0.0
C625 C 0.15159 0.67894 0.54262 0.0
C626 C 0.13403 0.71589 0.54145 0.0
H627 H 0.13699 0.62998 0.54798 0.0
H628 H 0.18718 0.66628 0.54543 0.0
C629 C 0.08782 0.73158 0.53781 0.0
C630 C 0.64596 0.19251 0.85438 0.0
C631 C 0.63199 0.16204 0.85364 0.0
H632 H 0.62633 0.24926 0.85384 0.0
C633 C 0.58611 0.16603 0.85313 0.0
H634 H 0.68115 0.19026 0.85437 0.0
C635 C 0.55483 0.19976 0.85368 0.0
C636 C 0.56874 0.23025 0.85373 0.0
H637 H 0.57439 0.14306 0.85245 0.0
H638 H 0.51967 0.20192 0.85316 0.0
C639 C 0.61465 0.22628 0.8539 0.0
C640 C 0.77236 0.66467 0.25831 0.0
C641 C 0.77636 0.63084 0.24383 0.0
H642 H 0.77201 0.71756 0.24661 0.0
C643 C 0.79034 0.6229 0.20722 0.0
H644 H 0.76148 0.67145 0.2865 0.0
C645 C 0.79668 0.64905 0.18454 0.0
C646 C 0.7887 0.68385 0.19787 0.0
H647 H 0.79397 0.59695 0.19546 0.0
H648 H 0.80517 0.64241 0.15588 0.0
C649 C 0.7784 0.69105 0.23545 0.0
C650 C 0.90289 0.59907 0.48995 0.0
C651 C 0.90152 0.58344 0.52426 0.0
H652 H 0.87549 0.60888 0.43561 0.0
C653 C 0.87109 0.56446 0.52962 0.0
H654 H 0.92606 0.61387 0.48508 0.0
C655 C 0.84182 0.56184 0.50128 0.0
C656 C 0.84268 0.57815 0.46726 0.0
H657 H 0.86893 0.55267 0.55602 0.0
H658 H 0.81817 0.54746 0.50614 0.0
C659 C 0.87391 0.59631 0.46167 0.0
C660 C 0.09273 0.60214 0.6807 0.0
C661 C 0.12208 0.57654 0.70277 0.0
H662 H 0.04403 0.61302 0.63832 0.0
C663 C 0.12318 0.54103 0.69835 0.0
H664 H 0.09056 0.62981 0.68342 0.0
C665 C 0.09591 0.53148 0.67194 0.0
C666 C 0.06717 0.55722 0.64939 0.0
H667 H 0.14531 0.52062 0.715 0.0
H668 H 0.0979 0.50389 0.66879 0.0
C669 C 0.06581 0.59254 0.6545 0.0
C670 C 0.60939 0.84207 0.19374 0.0
C671 C 0.61546 0.8081 0.20781 0.0
H672 H 0.63092 0.87373 0.15488 0.0
C673 C 0.64892 0.77947 0.19238 0.0
H674 H 0.58369 0.8647 0.20481 0.0
C675 C 0.67593 0.78472 0.16392 0.0
C676 C 0.67007 0.81854 0.14973 0.0
H677 H 0.65448 0.7529 0.20238 0.0
H678 H 0.70125 0.76207 0.15292 0.0
C679 C 0.63625 0.8472 0.16489 0.0
C680 C 0.58798 0.61051 0.18415 0.0
C681 C 0.61693 0.58163 0.2026 0.0
H682 H 0.53816 0.62798 0.14252 0.0
C683 C 0.61996 0.54721 0.19038 0.0
H684 H 0.58508 0.63737 0.19264 0.0
C685 C 0.59352 0.54183 0.16107 0.0
C686 C 0.56306 0.57075 0.14376 0.0
H687 H 0.6424 0.5244 0.20373 0.0
H688 H 0.59557 0.515 0.1531 0.0
C689 C 0.5612 0.60511 0.15523 0.0
C690 C 0.41923 0.43056 0.12621 0.0
C691 C 0.39261 0.46617 0.12845 0.0
H692 H 0.42098 0.37626 0.12294 0.0
C693 C 0.3465 0.47368 0.13405 0.0
H694 H 0.45495 0.42376 0.12216 0.0
C695 C 0.32704 0.44637 0.1345 0.0
C696 C 0.35324 0.41092 0.1294 0.0
H697 H 0.32502 0.50074 0.13609 0.0
H698 H 0.2911 0.45326 0.13706 0.0
C699 C 0.39976 0.40324 0.12669 0.0
C700 C 0.12091 0.22363 0.36688 0.0
C701 C 0.07517 0.22735 0.36594 0.0
H702 H 0.18735 0.18822 0.36516 0.0
C703 C 0.06122 0.19695 0.36363 0.0
H704 H 0.13248 0.24666 0.36858 0.0
C705 C 0.09265 0.16341 0.36086 0.0
C706 C 0.13845 0.15976 0.36127 0.0
H707 H 0.02606 0.19916 0.36246 0.0
H708 H 0.08114 0.14043 0.35799 0.0
C709 C 0.15225 0.19014 0.36503 0.0
C710 C 0.21494 0.40808 0.96576 0.0
C711 C 0.198 0.41766 1.00137 0.0
H712 H 0.22351 0.42576 0.91164 0.0
C713 C 0.17201 0.4527 1.00864 0.0
H714 H 0.23529 0.38125 0.95961 0.0
C715 C 0.16631 0.47843 0.98154 0.0
C716 C 0.18534 0.46924 0.94648 0.0
H717 H 0.1589 0.46076 1.03603 0.0
H718 H 0.14875 0.50574 0.98849 0.0
C719 C 0.20808 0.43357 0.93834 0.0
C720 C 0.34592 0.30889 1.03012 0.0
C721 C 0.31219 0.29329 1.02306 0.0
H722 H 0.39894 0.3258 1.00788 0.0
C723 C 0.30527 0.2836 0.9866 0.0
H724 H 0.35248 0.31599 1.05792 0.0
C725 C 0.33181 0.28919 0.95787 0.0
C726 C 0.36616 0.30409 0.96517 0.0
H727 H 0.27953 0.27147 0.98031 0.0
H728 H 0.32591 0.28132 0.93007 0.0
C729 C 0.37275 0.31415 1.00149 0.0
C730 C 0.38691 0.59812 0.98077 0.0
C731 C 0.39225 0.58384 1.01641 0.0
H732 H 0.35372 0.60126 0.92832 0.0
C733 C 0.36849 0.56046 1.02582 0.0
H734 H 0.40472 0.61627 0.9727 0.0
C735 C 0.33961 0.55191 1.00064 0.0
C736 C 0.33355 0.56662 0.96533 0.0
H737 H 0.37153 0.54921 1.05298 0.0
H738 H 0.32119 0.53434 1.0092 0.0
C739 C 0.35797 0.5894 0.95533 0.0
C740 C 0.59666 0.73129 1.06599 0.0
C741 C 0.64119 0.71043 1.06136 0.0
H742 H 0.5282 0.73257 1.06908 0.0
C743 C 0.65037 0.67407 1.05377 0.0
H744 H 0.58865 0.75932 1.07201 0.0
C745 C 0.61584 0.65854 1.05289 0.0
C746 C 0.57143 0.67925 1.05874 0.0
H747 H 0.68446 0.65728 1.05036 0.0
H748 H 0.62401 0.63022 1.04872 0.0
C749 C 0.5621 0.71592 1.06427 0.0
C750 C 0.90102 0.9405 0.8201 0.0
C751 C 0.88958 0.90897 0.8192 0.0
H752 H 0.87756 0.99711 0.82299 0.0
C753 C 0.84418 0.91093 0.8185 0.0
H754 H 0.93569 0.93984 0.82102 0.0
C755 C 0.8109 0.9437 0.81892 0.0
C756 C 0.82232 0.9752 0.82091 0.0
H757 H 0.83433 0.88706 0.81784 0.0
H758 H 0.77623 0.94433 0.81888 0.0
C759 C 0.86773 0.97327 0.82139 0.0
C760 C 0.42193 0.2752 0.69806 0.0
C761 C 0.44382 0.26281 0.73118 0.0
H762 H 0.40177 0.26206 0.64491 0.0
C763 C 0.45928 0.22622 0.73729 0.0
H764 H 0.40986 0.30329 0.69272 0.0
C765 C 0.4558 0.20233 0.70941 0.0
C766 C 0.43583 0.21478 0.67543 0.0
H767 H 0.47672 0.21606 0.76255 0.0
H768 H 0.47036 0.17425 0.71388 0.0
C769 C 0.41736 0.25147 0.6707 0.0
C770 C 0.44491 0.45127 0.92959 0.0
C771 C 0.4708 0.41556 0.92995 0.0
H772 H 0.43313 0.50282 0.95337 0.0
C773 C 0.50962 0.40552 0.9517 0.0
H774 H 0.41505 0.45982 0.91279 0.0
C775 C 0.51985 0.43027 0.9754 0.0
C776 C 0.49168 0.46537 0.97719 0.0
H777 H 0.5301 0.37813 0.95252 0.0
H778 H 0.54793 0.42138 0.99405 0.0
C779 C 0.45542 0.47595 0.95274 0.0
C780 C 0.50464 0.91524 0.44356 0.0
C781 C 0.46482 0.92285 0.42307 0.0
H782 H 0.54083 0.93283 0.48632 0.0
C783 C 0.434 0.95688 0.42593 0.0
H784 H 0.52901 0.88926 0.44193 0.0
C785 C 0.44078 0.98166 0.4511 0.0
C786 C 0.47856 0.97304 0.474 0.0
H787 H 0.40329 0.96378 0.41014 0.0
H788 H 0.415 1.00685 0.4542 0.0
C789 C 0.51144 0.94019 0.46892 0.0
C790 C 0.44528 0.69557 0.22643 0.0
C791 C 0.43823 0.70052 0.18827 0.0
H792 H 0.45897 0.7176 0.2779 0.0
C793 C 0.43442 0.73395 0.17365 0.0
H794 H 0.44835 0.67019 0.23859 0.0
C795 C 0.44115 0.76079 0.19604 0.0
C796 C 0.45101 0.75505 0.23362 0.0
H797 H 0.42902 0.7388 0.14443 0.0
H798 H 0.44058 0.78555 0.18357 0.0
C799 C 0.45131 0.72271 0.24897 0.0
loop_
_geom_bond_atom_site_label_1
_geom_bond_atom_site_label_2
_geom_bond_distance
_geom_bond_site_symmetry_2
_ccdc_geom_bond_type
O0 Tb1 2.506 1_556 S
O0 C14 1.265 1_556 S
Tb1 O0 2.506 1_554 S
Tb1 O6 2.312 1_454 S
Tb1 O10 2.271 . S
Tb1 O12 2.338 1_455 S
Tb1 O19 2.441 . S
C2 O10 1.252 . S
C2 O11 1.253 1_545 S
O3 Tb4 2.271 1_656 S
O3 C13 1.252 1_565 S
Tb4 O3 2.271 1_454 S
Tb4 O7 2.338 1_455 S
Tb4 O11 2.312 . S
Tb4 O15 2.441 1_554 S
Tb4 O16 2.506 1_554 S
C5 O15 1.244 . S
C5 O16 1.265 . S
O6 Tb1 2.312 1_656 S
O6 C13 1.253 . S
O7 Tb4 2.338 1_655 S
O7 C8 1.258 1_554 S
C8 O7 1.258 1_556 S
C8 O9 1.251 1_556 S
O9 C8 1.251 1_554 S
O10 Tb1 2.271 . S
O10 C2 1.252 . S
O11 C2 1.253 1_565 S
O11 Tb4 2.312 . S
O12 Tb1 2.338 1_655 S
O12 C17 1.258 . S
C13 O3 1.252 1_545 S
C13 O6 1.253 . S
C14 O0 1.265 1_554 S
C14 O19 1.244 . S
O15 Tb4 2.441 1_556 S
O15 C5 1.244 . S
O16 Tb4 2.506 1_556 S
O16 C5 1.265 . S
C17 O12 1.258 . S
C17 O18 1.251 . S
O18 C17 1.251 . S
O19 Tb1 2.441 . S
O19 C14 1.244 . S
O20 Tb21 2.506 . S
O20 C34 1.265 . S
Tb21 O20 2.506 . S
Tb21 O26 2.312 1_455 S
Tb21 O30 2.271 . S
Tb21 O32 2.338 . S
Tb21 O39 2.441 . S
C22 O30 1.252 . S
C22 O31 1.253 . S
O23 Tb24 2.271 1_655 S
O23 C33 1.252 . S
Tb24 O23 2.271 1_455 S
Tb24 O27 2.338 . S
Tb24 O31 2.312 . S
Tb24 O35 2.441 1_455 S
Tb24 O36 2.500 1_455 S
C25 O35 1.244 . S
C25 O36 1.284 . S
O26 Tb21 2.312 1_655 S
O26 C33 1.253 . S
O27 Tb24 2.338 . S
O27 C28 1.258 . S
C28 O27 1.258 . S
C28 O29 1.251 . S
O29 C28 1.251 . S
O30 Tb21 2.271 . S
O30 C22 1.252 . S
O31 C22 1.253 . S
O31 Tb24 2.312 . S
O32 Tb21 2.338 . S
O32 C37 1.258 . S
C33 O23 1.252 . S
C33 O26 1.253 . S
C34 O20 1.265 . S
C34 O39 1.244 . S
O35 Tb24 2.441 1_655 S
O35 C25 1.244 . S
O36 Tb24 2.500 1_655 S
O36 C25 1.284 . S
C37 O32 1.258 . S
C37 O38 1.251 . S
O38 C37 1.251 . S
O39 Tb21 2.441 . S
O39 C34 1.244 . S
O40 Tb41 2.506 . S
O40 C54 1.265 . S
Tb41 O40 2.506 . S
Tb41 O46 2.312 . S
Tb41 O50 2.271 . S
Tb41 O52 2.338 . S
Tb41 O59 2.441 . S
C42 O50 1.252 . S
C42 O51 1.253 . S
O43 Tb44 2.271 . S
O43 C53 1.252 . S
Tb44 O43 2.271 . S
Tb44 O47 2.338 . S
Tb44 O51 2.312 . S
Tb44 O55 2.441 . S
Tb44 O56 2.506 . S
C45 O55 1.244 . S
C45 O56 1.265 . S
O46 Tb41 2.312 . S
O46 C53 1.253 . S
O47 Tb44 2.338 . S
O47 C48 1.258 . S
C48 O47 1.258 . S
C48 O49 1.251 . S
O49 C48 1.251 . S
O50 Tb41 2.271 . S
O50 C42 1.252 . S
O51 C42 1.253 . S
O51 Tb44 2.312 . S
O52 Tb41 2.338 . S
O52 C57 1.258 . S
C53 O43 1.252 . S
C53 O46 1.253 . S
C54 O40 1.265 . S
C54 O59 1.244 . S
O55 Tb44 2.441 . S
O55 C45 1.244 . S
O56 Tb44 2.506 . S
O56 C45 1.265 . S
C57 O52 1.258 . S
C57 O58 1.251 . S
O58 C57 1.251 . S
O59 Tb41 2.441 . S
O59 C54 1.244 . S
O60 Tb61 2.506 . S
O60 C74 1.265 . S
Tb61 O60 2.506 . S
Tb61 O66 2.312 . S
Tb61 O70 2.271 1_545 S
Tb61 O72 2.338 1_545 S
Tb61 O79 2.441 1_545 S
C62 O70 1.252 . S
C62 O71 1.253 . S
O63 Tb64 2.271 . S
O63 C73 1.252 . S
Tb64 O63 2.271 . S
Tb64 O67 2.338 . S
Tb64 O71 2.312 1_545 S
Tb64 O75 2.441 . S
Tb64 O76 2.506 . S
C65 O75 1.244 . S
C65 O76 1.265 . S
O66 Tb61 2.312 . S
O66 C73 1.253 . S
O67 Tb64 2.338 . S
O67 C68 1.258 . S
C68 O67 1.258 . S
C68 O69 1.251 . S
O69 C68 1.251 . S
O70 Tb61 2.271 1_565 S
O70 C62 1.252 . S
O71 C62 1.253 . S
O71 Tb64 2.312 1_565 S
O72 Tb61 2.338 1_565 S
O72 C77 1.258 . S
C73 O63 1.252 . S
C73 O66 1.253 . S
C74 O60 1.265 . S
C74 O79 1.244 1_545 S
O75 Tb64 2.441 . S
O75 C65 1.244 . S
O76 Tb64 2.506 . S
O76 C65 1.265 . S
C77 O72 1.258 . S
C77 O78 1.251 . S
O78 C77 1.251 . S
O79 Tb61 2.441 1_565 S
O79 C74 1.244 1_565 S
O80 Tb81 2.506 . S
O80 C94 1.265 . S
Tb81 O80 2.506 . S
Tb81 O86 2.312 . S
Tb81 O90 2.271 . S
Tb81 O92 2.338 . S
Tb81 O99 2.441 . S
C82 O90 1.252 . S
C82 O91 1.253 . S
O83 Tb84 2.271 . S
O83 C93 1.252 . S
Tb84 O83 2.271 . S
Tb84 O87 2.338 . S
Tb84 O91 2.312 . S
Tb84 O95 2.441 . S
Tb84 O96 2.506 . S
C85 O95 1.244 . S
C85 O96 1.265 . S
O86 Tb81 2.312 . S
O86 C93 1.253 . S
O87 Tb84 2.338 . S
O87 C88 1.258 . S
C88 O87 1.258 . S
C88 O89 1.251 . S
O89 C88 1.251 . S
O90 Tb81 2.271 . S
O90 C82 1.252 . S
O91 C82 1.253 . S
O91 Tb84 2.312 . S
O92 Tb81 2.338 . S
O92 C97 1.258 . S
C93 O83 1.252 . S
C93 O86 1.253 . S
C94 O80 1.265 . S
C94 O99 1.244 . S
O95 Tb84 2.441 . S
O95 C85 1.244 . S
O96 Tb84 2.506 . S
O96 C85 1.265 . S
C97 O92 1.258 . S
C97 O98 1.251 . S
O98 C97 1.251 . S
O99 Tb81 2.441 . S
O99 C94 1.244 . S
O100 Tb101 2.506 . S
O100 C114 1.265 . S
Tb101 O100 2.506 . S
Tb101 O106 2.312 . S
Tb101 O110 2.271 . S
Tb101 O112 2.338 . S
Tb101 O119 2.441 . S
C102 O110 1.252 . S
C102 O111 1.253 . S
O103 Tb104 2.271 . S
O103 C113 1.252 . S
Tb104 O103 2.271 . S
Tb104 O107 2.338 . S
Tb104 O111 2.312 . S
Tb104 O115 2.441 . S
Tb104 O116 2.506 . S
C105 O115 1.244 . S
C105 O116 1.265 . S
O106 Tb101 2.312 . S
O106 C113 1.253 . S
O107 Tb104 2.338 . S
O107 C108 1.258 . S
C108 O107 1.258 . S
C108 O109 1.251 . S
O109 C108 1.251 . S
O110 Tb101 2.271 . S
O110 C102 1.252 . S
O111 C102 1.253 . S
O111 Tb104 2.312 . S
O112 Tb101 2.338 . S
O112 C117 1.258 . S
C113 O103 1.252 . S
C113 O106 1.253 . S
C114 O100 1.265 . S
C114 O119 1.244 . S
O115 Tb104 2.441 . S
O115 C105 1.244 . S
O116 Tb104 2.506 . S
O116 C105 1.265 . S
C117 O112 1.258 . S
C117 O118 1.251 . S
O118 C117 1.251 . S
O119 Tb101 2.441 . S
O119 C114 1.244 . S
O120 Tb121 2.506 . S
O120 C134 1.265 . S
Tb121 O120 2.506 . S
Tb121 O126 2.312 . S
Tb121 O130 2.271 . S
Tb121 O132 2.338 . S
Tb121 O139 2.441 . S
C122 O130 1.252 . S
C122 O131 1.253 . S
O123 Tb124 2.271 . S
O123 C133 1.252 . S
Tb124 O123 2.271 . S
Tb124 O127 2.338 . S
Tb124 O131 2.312 . S
Tb124 O135 2.441 . S
Tb124 O136 2.506 . S
C125 O135 1.244 . S
C125 O136 1.265 . S
O126 Tb121 2.312 . S
O126 C133 1.253 . S
O127 Tb124 2.338 . S
O127 C128 1.258 . S
C128 O127 1.258 . S
C128 O129 1.251 . S
O129 C128 1.251 . S
O130 Tb121 2.271 . S
O130 C122 1.252 . S
O131 C122 1.253 . S
O131 Tb124 2.312 . S
O132 Tb121 2.338 . S
O132 C137 1.258 . S
C133 O123 1.252 . S
C133 O126 1.253 . S
C134 O120 1.265 . S
C134 O139 1.244 . S
O135 Tb124 2.441 . S
O135 C125 1.244 . S
O136 Tb124 2.506 . S
O136 C125 1.265 . S
C137 O132 1.258 . S
C137 O138 1.251 . S
O138 C137 1.251 . S
O139 Tb121 2.441 . S
O139 C134 1.244 . S
O140 Tb141 2.506 . S
O140 C154 1.265 . S
Tb141 O140 2.506 . S
Tb141 O146 2.312 1_455 S
Tb141 O150 2.271 . S
Tb141 O152 2.338 1_455 S
Tb141 O159 2.441 . S
C142 O150 1.252 . S
C142 O151 1.253 . S
O143 Tb144 2.271 1_655 S
O143 C153 1.252 . S
Tb144 O143 2.271 1_455 S
Tb144 O147 2.338 1_455 S
Tb144 O151 2.312 . S
Tb144 O155 2.441 . S
Tb144 O156 2.506 . S
C145 O155 1.244 . S
C145 O156 1.265 . S
O146 Tb141 2.312 1_655 S
O146 C153 1.253 . S
O147 Tb144 2.338 1_655 S
O147 C148 1.258 . S
C148 O147 1.258 . S
C148 O149 1.251 . S
O149 C148 1.251 . S
O150 Tb141 2.271 . S
O150 C142 1.252 . S
O151 C142 1.253 . S
O151 Tb144 2.312 . S
O152 Tb141 2.338 1_655 S
O152 C157 1.258 . S
C153 O143 1.252 . S
C153 O146 1.253 . S
C154 O140 1.265 . S
C154 O159 1.244 . S
O155 Tb144 2.441 . S
O155 C145 1.244 . S
O156 Tb144 2.506 . S
O156 C145 1.265 . S
C157 O152 1.258 . S
C157 O158 1.251 . S
O158 C157 1.251 . S
O159 Tb141 2.441 . S
O159 C154 1.244 . S
O160 Tb161 2.506 1_556 S
O160 C174 1.265 1_556 S
Tb161 O160 2.506 1_554 S
Tb161 O166 2.312 1_554 S
Tb161 O170 2.271 . S
Tb161 O172 2.338 . S
Tb161 O179 2.441 . S
C162 O170 1.252 . S
C162 O171 1.253 . S
O163 Tb164 2.271 1_556 S
O163 C173 1.252 . S
Tb164 O163 2.271 1_554 S
Tb164 O167 2.338 . S
Tb164 O171 2.312 . S
Tb164 O175 2.441 1_554 S
Tb164 O176 2.506 1_554 S
C165 O175 1.244 . S
C165 O176 1.265 . S
O166 Tb161 2.312 1_556 S
O166 C173 1.253 . S
O167 Tb164 2.338 . S
O167 C168 1.258 1_554 S
C168 O167 1.258 1_556 S
C168 O169 1.251 1_556 S
O169 C168 1.251 1_554 S
O170 Tb161 2.271 . S
O170 C162 1.252 . S
O171 C162 1.253 . S
O171 Tb164 2.312 . S
O172 Tb161 2.338 . S
O172 C177 1.258 . S
C173 O163 1.252 . S
C173 O166 1.253 . S
C174 O160 1.265 1_554 S
C174 O179 1.244 . S
O175 Tb164 2.441 1_556 S
O175 C165 1.244 . S
O176 Tb164 2.506 1_556 S
O176 C165 1.265 . S
C177 O172 1.258 . S
C177 O178 1.251 . S
O178 C177 1.251 . S
O179 Tb161 2.441 . S
O179 C174 1.244 . S
O180 Tb181 2.506 . S
O180 C194 1.265 . S
Tb181 O180 2.506 . S
Tb181 O186 2.312 . S
Tb181 O190 2.271 1_545 S
Tb181 O192 2.338 1_545 S
Tb181 O199 2.441 1_545 S
C182 O190 1.252 . S
C182 O191 1.253 . S
O183 Tb184 2.271 . S
O183 C193 1.252 . S
Tb184 O183 2.271 . S
Tb184 O187 2.338 . S
Tb184 O191 2.312 1_545 S
Tb184 O195 2.441 . S
Tb184 O196 2.506 . S
C185 O195 1.244 . S
C185 O196 1.265 . S
O186 Tb181 2.312 . S
O186 C193 1.253 . S
O187 Tb184 2.338 . S
O187 C188 1.258 . S
C188 O187 1.258 . S
C188 O189 1.251 . S
O189 C188 1.251 . S
O190 Tb181 2.271 1_565 S
O190 C182 1.252 . S
O191 C182 1.253 . S
O191 Tb184 2.312 1_565 S
O192 Tb181 2.338 1_565 S
O192 C197 1.258 . S
C193 O183 1.252 . S
C193 O186 1.253 . S
C194 O180 1.265 . S
C194 O199 1.244 1_545 S
O195 Tb184 2.441 . S
O195 C185 1.244 . S
O196 Tb184 2.506 . S
O196 C185 1.265 . S
C197 O192 1.258 . S
C197 O198 1.251 . S
O198 C197 1.251 . S
O199 Tb181 2.441 1_565 S
O199 C194 1.244 1_565 S
O200 Tb201 2.506 . S
O200 C214 1.265 . S
Tb201 O200 2.506 . S
Tb201 O206 2.312 . S
Tb201 O210 2.271 . S
Tb201 O212 2.338 . S
Tb201 O219 2.441 . S
C202 O210 1.252 . S
C202 O211 1.253 . S
O203 Tb204 2.271 . S
O203 C213 1.252 . S
Tb204 O203 2.271 . S
Tb204 O207 2.338 . S
Tb204 O211 2.312 . S
Tb204 O215 2.441 . S
Tb204 O216 2.506 . S
C205 O215 1.244 . S
C205 O216 1.265 . S
O206 Tb201 2.312 . S
O206 C213 1.253 . S
O207 Tb204 2.338 . S
O207 C208 1.258 . S
C208 O207 1.258 . S
C208 O209 1.251 . S
O209 C208 1.251 . S
O210 Tb201 2.271 . S
O210 C202 1.252 . S
O211 C202 1.253 . S
O211 Tb204 2.312 . S
O212 Tb201 2.338 . S
O212 C217 1.258 . S
C213 O203 1.252 . S
C213 O206 1.253 . S
C214 O200 1.265 . S
C214 O219 1.244 . S
O215 Tb204 2.441 . S
O215 C205 1.244 . S
O216 Tb204 2.506 . S
O216 C205 1.265 . S
C217 O212 1.258 . S
C217 O218 1.251 . S
O218 C217 1.251 . S
O219 Tb201 2.441 . S
O219 C214 1.244 . S
O220 Tb221 2.506 . S
O220 C234 1.265 . S
Tb221 O220 2.506 . S
Tb221 O226 2.312 1_455 S
Tb221 O230 2.271 . S
Tb221 O232 2.338 . S
Tb221 O239 2.441 . S
C222 O230 1.252 . S
C222 O231 1.253 . S
O223 Tb224 2.271 1_655 S
O223 C233 1.252 . S
Tb224 O223 2.271 1_455 S
Tb224 O227 2.338 . S
Tb224 O231 2.312 . S
Tb224 O235 2.441 1_455 S
Tb224 O236 2.500 1_455 S
C225 O235 1.244 . S
C225 O236 1.283 . S
O226 Tb221 2.312 1_655 S
O226 C233 1.253 . S
O227 Tb224 2.338 . S
O227 C228 1.258 . S
C228 O227 1.258 . S
C228 O229 1.251 . S
O229 C228 1.251 . S
O230 Tb221 2.271 . S
O230 C222 1.252 . S
O231 C222 1.253 . S
O231 Tb224 2.312 . S
O232 Tb221 2.338 . S
O232 C237 1.258 . S
C233 O223 1.252 . S
C233 O226 1.253 . S
C234 O220 1.265 . S
C234 O239 1.244 . S
O235 Tb224 2.441 1_655 S
O235 C225 1.244 . S
O236 Tb224 2.500 1_655 S
O236 C225 1.283 . S
C237 O232 1.258 . S
C237 O238 1.251 . S
O238 C237 1.251 . S
O239 Tb221 2.441 . S
O239 C234 1.244 . S
O240 Tb241 2.506 . S
O240 C254 1.265 . S
Tb241 O240 2.506 . S
Tb241 O246 2.312 . S
Tb241 O250 2.271 . S
Tb241 O252 2.338 . S
Tb241 O259 2.441 . S
C242 O250 1.252 . S
C242 O251 1.253 . S
O243 Tb244 2.271 . S
O243 C253 1.252 . S
Tb244 O243 2.271 . S
Tb244 O247 2.338 . S
Tb244 O251 2.312 . S
Tb244 O255 2.441 . S
Tb244 O256 2.506 . S
C245 O255 1.244 . S
C245 O256 1.265 . S
O246 Tb241 2.312 . S
O246 C253 1.253 . S
O247 Tb244 2.338 . S
O247 C248 1.258 . S
C248 O247 1.258 . S
C248 O249 1.251 . S
O249 C248 1.251 . S
O250 Tb241 2.271 . S
O250 C242 1.252 . S
O251 C242 1.253 . S
O251 Tb244 2.312 . S
O252 Tb241 2.338 . S
O252 C257 1.258 . S
C253 O243 1.252 . S
C253 O246 1.253 . S
C254 O240 1.265 . S
C254 O259 1.244 . S
O255 Tb244 2.441 . S
O255 C245 1.244 . S
O256 Tb244 2.506 . S
O256 C245 1.265 . S
C257 O252 1.258 . S
C257 O258 1.251 . S
O258 C257 1.251 . S
O259 Tb241 2.441 . S
O259 C254 1.244 . S
O260 Tb261 2.506 1_556 S
O260 C274 1.265 1_556 S
Tb261 O260 2.506 1_554 S
Tb261 O266 2.312 1_554 S
Tb261 O270 2.271 . S
Tb261 O272 2.338 . S
Tb261 O279 2.441 . S
C262 O270 1.252 . S
C262 O271 1.253 . S
O263 Tb264 2.271 1_556 S
O263 C273 1.252 . S
Tb264 O263 2.271 1_554 S
Tb264 O267 2.338 . S
Tb264 O271 2.312 . S
Tb264 O275 2.441 1_554 S
Tb264 O276 2.506 1_554 S
C265 O275 1.244 . S
C265 O276 1.265 . S
O266 Tb261 2.312 1_556 S
O266 C273 1.253 . S
O267 Tb264 2.338 . S
O267 C268 1.258 1_554 S
C268 O267 1.258 1_556 S
C268 O269 1.251 1_556 S
O269 C268 1.251 1_554 S
O270 Tb261 2.271 . S
O270 C262 1.252 . S
O271 C262 1.253 . S
O271 Tb264 2.312 . S
O272 Tb261 2.338 . S
O272 C277 1.258 . S
C273 O263 1.252 . S
C273 O266 1.253 . S
C274 O260 1.265 1_554 S
C274 O279 1.244 . S
O275 Tb264 2.441 1_556 S
O275 C265 1.244 . S
O276 Tb264 2.506 1_556 S
O276 C265 1.265 . S
C277 O272 1.258 . S
C277 O278 1.251 . S
O278 C277 1.251 . S
O279 Tb261 2.441 . S
O279 C274 1.244 . S
O280 Tb281 2.506 . S
O280 C294 1.265 . S
Tb281 O280 2.506 . S
Tb281 O286 2.312 . S
Tb281 O290 2.271 . S
Tb281 O292 2.338 . S
Tb281 O299 2.441 . S
C282 O290 1.252 . S
C282 O291 1.253 1_545 S
O283 Tb284 2.271 . S
O283 C293 1.252 1_565 S
Tb284 O283 2.271 . S
Tb284 O287 2.338 . S
Tb284 O291 2.312 . S
Tb284 O295 2.441 . S
Tb284 O296 2.506 . S
C285 O295 1.244 . S
C285 O296 1.265 . S
O286 Tb281 2.312 . S
O286 C293 1.253 . S
O287 Tb284 2.338 . S
O287 C288 1.258 . S
C288 O287 1.258 . S
C288 O289 1.251 . S
O289 C288 1.251 . S
O290 Tb281 2.271 . S
O290 C282 1.252 . S
O291 C282 1.253 1_565 S
O291 Tb284 2.312 . S
O292 Tb281 2.338 . S
O292 C297 1.258 . S
C293 O283 1.252 1_545 S
C293 O286 1.253 . S
C294 O280 1.265 . S
C294 O299 1.244 . S
O295 Tb284 2.441 . S
O295 C285 1.244 . S
O296 Tb284 2.506 . S
O296 C285 1.265 . S
C297 O292 1.258 . S
C297 O298 1.251 . S
O298 C297 1.251 . S
O299 Tb281 2.441 . S
O299 C294 1.244 . S
O300 Tb301 2.506 1_556 S
O300 C314 1.265 1_556 S
Tb301 O300 2.506 1_554 S
Tb301 O306 2.312 1_554 S
Tb301 O310 2.271 . S
Tb301 O312 2.338 . S
Tb301 O319 2.441 . S
C302 O310 1.252 . S
C302 O311 1.253 . S
O303 Tb304 2.271 1_556 S
O303 C313 1.252 . S
Tb304 O303 2.271 1_554 S
Tb304 O307 2.338 . S
Tb304 O311 2.312 . S
Tb304 O315 2.441 1_554 S
Tb304 O316 2.506 1_554 S
C305 O315 1.244 . S
C305 O316 1.265 . S
O306 Tb301 2.312 1_556 S
O306 C313 1.253 . S
O307 Tb304 2.338 . S
O307 C308 1.258 1_554 S
C308 O307 1.258 1_556 S
C308 O309 1.251 1_556 S
O309 C308 1.251 1_554 S
O310 Tb301 2.271 . S
O310 C302 1.252 . S
O311 C302 1.253 . S
O311 Tb304 2.312 . S
O312 Tb301 2.338 . S
O312 C317 1.258 . S
C313 O303 1.252 . S
C313 O306 1.253 . S
C314 O300 1.265 1_554 S
C314 O319 1.244 . S
O315 Tb304 2.441 1_556 S
O315 C305 1.244 . S
O316 Tb304 2.506 1_556 S
O316 C305 1.265 . S
C317 O312 1.258 . S
C317 O318 1.251 . S
O318 C317 1.251 . S
O319 Tb301 2.441 . S
O319 C314 1.244 . S
C320 C321 1.387 . S
C320 H324 0.950 . S
C320 C329 1.390 . S
C321 C320 1.387 . S
C321 C323 1.387 1_455 S
H322 C329 0.950 . S
C323 C321 1.387 1_655 S
C323 C325 1.390 . S
C323 H327 0.950 . S
H324 C320 0.950 . S
C325 C323 1.390 . S
C325 C326 1.387 1_655 S
C325 H328 0.950 . S
C326 C325 1.387 1_455 S
C326 C329 1.387 . S
H327 C323 0.950 . S
H328 C325 0.950 . S
C329 C320 1.390 . S
C329 H322 0.950 . S
C329 C326 1.387 . S
C330 C331 1.387 . S
C330 H334 0.950 . S
C330 C339 1.390 . S
C331 C330 1.387 . S
C331 C333 1.387 . S
H332 C339 0.950 . S
C333 C331 1.387 . S
C333 C335 1.390 . S
C333 H337 0.950 . S
H334 C330 0.950 . S
C335 C333 1.390 . S
C335 C336 1.387 . S
C335 H338 0.950 . S
C336 C335 1.387 . S
C336 C339 1.387 . S
H337 C333 0.950 . S
H338 C335 0.950 . S
C339 C330 1.390 . S
C339 H332 0.950 . S
C339 C336 1.387 . S
C340 C341 1.387 . S
C340 H344 0.950 . S
C340 C349 1.390 . S
C341 C340 1.387 . S
C341 C343 1.387 . S
H342 C349 0.950 . S
C343 C341 1.387 . S
C343 C345 1.390 . S
C343 H347 0.950 . S
H344 C340 0.950 . S
C345 C343 1.390 . S
C345 C346 1.387 . S
C345 H348 0.950 . S
C346 C345 1.387 . S
C346 C349 1.387 . S
H347 C343 0.950 . S
H348 C345 0.950 . S
C349 C340 1.390 . S
C349 H342 0.950 . S
C349 C346 1.387 . S
C350 C351 1.387 1_565 S
C350 H354 0.950 . S
C350 C359 1.390 . S
C351 C350 1.387 1_545 S
C351 C353 1.387 . S
H352 C359 0.950 . S
C353 C351 1.387 . S
C353 C355 1.390 . S
C353 H357 0.950 . S
H354 C350 0.950 . S
C355 C353 1.390 . S
C355 C356 1.387 . S
C355 H358 0.950 . S
C356 C355 1.387 . S
C356 C359 1.387 1_545 S
H357 C353 0.950 . S
H358 C355 0.950 . S
C359 C350 1.390 . S
C359 H352 0.950 . S
C359 C356 1.387 1_565 S
C360 C361 1.387 . S
C360 H364 0.950 . S
C360 C369 1.390 . S
C361 C360 1.387 . S
C361 C363 1.387 . S
H362 C369 0.950 . S
C363 C361 1.387 . S
C363 C365 1.390 . S
C363 H367 0.950 1_545 S
H364 C360 0.950 . S
C365 C363 1.390 . S
C365 C366 1.387 . S
C365 H368 0.950 . S
C366 C365 1.387 . S
C366 C369 1.387 . S
H367 C363 0.950 1_565 S
H368 C365 0.950 . S
C369 C360 1.390 . S
C369 H362 0.950 . S
C369 C366 1.387 . S
C370 C371 1.387 . S
C370 H374 0.950 . S
C370 C379 1.390 . S
C371 C370 1.387 . S
C371 C373 1.387 1_455 S
H372 C379 0.950 . S
C373 C371 1.387 1_655 S
C373 C375 1.390 . S
C373 H377 0.950 . S
H374 C370 0.950 . S
C375 C373 1.390 . S
C375 C376 1.387 1_655 S
C375 H378 0.950 . S
C376 C375 1.387 1_455 S
C376 C379 1.387 . S
H377 C373 0.950 . S
H378 C375 0.950 . S
C379 C370 1.390 . S
C379 H372 0.950 . S
C379 C376 1.387 . S
C380 C381 1.387 . S
C380 H384 0.950 . S
C380 C389 1.390 . S
C381 C380 1.387 . S
C381 C383 1.387 . S
H382 C389 0.950 . S
C383 C381 1.387 . S
C383 C385 1.390 . S
C383 H387 0.950 . S
H384 C380 0.950 . S
C385 C383 1.390 . S
C385 C386 1.387 . S
C385 H388 0.950 . S
C386 C385 1.387 . S
C386 C389 1.387 . S
H387 C383 0.950 . S
H388 C385 0.950 . S
C389 C380 1.390 . S
C389 H382 0.950 . S
C389 C386 1.387 . S
C390 C391 1.387 . S
C390 H394 0.950 . S
C390 C399 1.390 . S
C391 C390 1.387 . S
C391 C393 1.387 . S
H392 C399 0.950 . S
C393 C391 1.387 . S
C393 C395 1.390 . S
C393 H397 0.950 . S
H394 C390 0.950 . S
C395 C393 1.390 . S
C395 C396 1.387 . S
C395 H398 0.950 . S
C396 C395 1.387 . S
C396 C399 1.387 . S
H397 C393 0.950 . S
H398 C395 0.950 . S
C399 C390 1.390 . S
C399 H392 0.950 . S
C399 C396 1.387 . S
C400 C401 1.387 . S
C400 H404 0.950 . S
C400 C409 1.390 . S
C401 C400 1.387 . S
C401 C403 1.387 . S
H402 C409 0.950 . S
C403 C401 1.387 . S
C403 C405 1.390 . S
C403 H407 0.950 . S
H404 C400 0.950 . S
C405 C403 1.390 . S
C405 C406 1.387 . S
C405 H408 0.950 . S
C406 C405 1.387 . S
C406 C409 1.387 . S
H407 C403 0.950 . S
H408 C405 0.950 . S
C409 C400 1.390 . S
C409 H402 0.950 . S
C409 C406 1.387 . S
C410 C411 1.387 . S
C410 H414 0.950 . S
C410 C419 1.390 . S
C411 C410 1.387 . S
C411 C413 1.387 . S
H412 C419 0.950 . S
C413 C411 1.387 . S
C413 C415 1.390 . S
C413 H417 0.950 . S
H414 C410 0.950 . S
C415 C413 1.390 . S
C415 C416 1.387 . S
C415 H418 0.950 . S
C416 C415 1.387 . S
C416 C419 1.387 . S
H417 C413 0.950 . S
H418 C415 0.950 . S
C419 C410 1.390 . S
C419 H412 0.950 . S
C419 C416 1.387 . S
C420 C421 1.387 . S
C420 H424 0.950 . S
C420 C429 1.390 . S
C421 C420 1.387 . S
C421 C423 1.387 . S
H422 C429 0.950 . S
C423 C421 1.387 . S
C423 C425 1.390 . S
C423 H427 0.950 1_545 S
H424 C420 0.950 . S
C425 C423 1.390 . S
C425 C426 1.387 . S
C425 H428 0.950 . S
C426 C425 1.387 . S
C426 C429 1.387 . S
H427 C423 0.950 1_565 S
H428 C425 0.950 . S
C429 C420 1.390 . S
C429 H422 0.950 . S
C429 C426 1.387 . S
C430 C431 1.387 . S
C430 H434 0.950 . S
C430 C439 1.390 . S
C431 C430 1.387 . S
C431 C433 1.387 . S
H432 C439 0.950 . S
C433 C431 1.387 . S
C433 C435 1.390 . S
C433 H437 0.950 . S
H434 C430 0.950 . S
C435 C433 1.390 . S
C435 C436 1.387 . S
C435 H438 0.950 1_455 S
C436 C435 1.387 . S
C436 C439 1.387 . S
H437 C433 0.950 . S
H438 C435 0.950 1_655 S
C439 C430 1.390 . S
C439 H432 0.950 . S
C439 C436 1.387 . S
C440 C441 1.387 . S
C440 H444 0.950 . S
C440 C449 1.390 . S
C441 C440 1.387 . S
C441 C443 1.387 1_554 S
H442 C449 0.950 . S
C443 C441 1.387 1_556 S
C443 C445 1.390 . S
C443 H447 0.950 . S
H444 C440 0.950 . S
C445 C443 1.390 . S
C445 C446 1.387 1_556 S
C445 H448 0.950 . S
C446 C445 1.387 1_554 S
C446 C449 1.387 . S
H447 C443 0.950 . S
H448 C445 0.950 . S
C449 C440 1.390 . S
C449 H442 0.950 . S
C449 C446 1.387 . S
C450 C451 1.387 . S
C450 H454 0.950 . S
C450 C459 1.390 . S
C451 C450 1.387 . S
C451 C453 1.387 . S
H452 C459 0.950 . S
C453 C451 1.387 . S
C453 C455 1.390 . S
C453 H457 0.950 . S
H454 C450 0.950 . S
C455 C453 1.390 . S
C455 C456 1.387 . S
C455 H458 0.950 . S
C456 C455 1.387 . S
C456 C459 1.387 . S
H457 C453 0.950 . S
H458 C455 0.950 . S
C459 C450 1.390 . S
C459 H452 0.950 . S
C459 C456 1.387 . S
C460 C461 1.387 . S
C460 H464 0.950 . S
C460 C469 1.390 . S
C461 C460 1.387 . S
C461 C463 1.387 . S
H462 C469 0.950 . S
C463 C461 1.387 . S
C463 C465 1.390 . S
C463 H467 0.950 . S
H464 C460 0.950 . S
C465 C463 1.390 . S
C465 C466 1.387 . S
C465 H468 0.950 . S
C466 C465 1.387 . S
C466 C469 1.387 . S
H467 C463 0.950 . S
H468 C465 0.950 . S
C469 C460 1.390 . S
C469 H462 0.950 . S
C469 C466 1.387 . S
C470 C471 1.387 . S
C470 H474 0.950 . S
C470 C479 1.390 . S
C471 C470 1.387 . S
C471 C473 1.387 . S
H472 C479 0.950 . S
C473 C471 1.387 . S
C473 C475 1.390 . S
C473 H477 0.950 . S
H474 C470 0.950 . S
C475 C473 1.390 . S
C475 C476 1.387 . S
C475 H478 0.950 . S
C476 C475 1.387 . S
C476 C479 1.387 . S
H477 C473 0.950 . S
H478 C475 0.950 . S
C479 C470 1.390 . S
C479 H472 0.950 . S
C479 C476 1.387 . S
C480 C481 1.387 . S
C480 H484 0.950 . S
C480 C489 1.390 . S
C481 C480 1.387 . S
C481 C483 1.387 . S
H482 C489 0.950 . S
C483 C481 1.387 . S
C483 C485 1.390 . S
C483 H487 0.950 . S
H484 C480 0.950 . S
C485 C483 1.390 . S
C485 C486 1.387 . S
C485 H488 0.950 . S
C486 C485 1.387 . S
C486 C489 1.387 . S
H487 C483 0.950 . S
H488 C485 0.950 . S
C489 C480 1.390 . S
C489 H482 0.950 . S
C489 C486 1.387 . S
C490 C491 1.387 . S
C490 H494 0.950 . S
C490 C499 1.390 . S
C491 C490 1.387 . S
C491 C493 1.387 . S
H492 C499 0.950 . S
C493 C491 1.387 . S
C493 C495 1.390 . S
C493 H497 0.950 . S
H494 C490 0.950 . S
C495 C493 1.390 . S
C495 C496 1.387 . S
C495 H498 0.950 . S
C496 C495 1.387 . S
C496 C499 1.387 . S
H497 C493 0.950 . S
H498 C495 0.950 . S
C499 C490 1.390 . S
C499 H492 0.950 . S
C499 C496 1.387 . S
C500 C501 1.387 . S
C500 H504 0.950 . S
C500 C509 1.390 . S
C501 C500 1.387 . S
C501 C503 1.387 . S
H502 C509 0.950 . S
C503 C501 1.387 . S
C503 C505 1.390 . S
C503 H507 0.950 . S
H504 C500 0.950 . S
C505 C503 1.390 . S
C505 C506 1.387 . S
C505 H508 0.950 . S
C506 C505 1.387 . S
C506 C509 1.387 . S
H507 C503 0.950 . S
H508 C505 0.950 . S
C509 C500 1.390 . S
C509 H502 0.950 . S
C509 C506 1.387 . S
C510 C511 1.387 . S
C510 H514 0.950 . S
C510 C519 1.390 . S
C511 C510 1.387 . S
C511 C513 1.387 . S
H512 C519 0.950 . S
C513 C511 1.387 . S
C513 C515 1.390 . S
C513 H517 0.950 . S
H514 C510 0.950 . S
C515 C513 1.390 . S
C515 C516 1.387 . S
C515 H518 0.950 . S
C516 C515 1.387 . S
C516 C519 1.387 . S
H517 C513 0.950 . S
H518 C515 0.950 . S
C519 C510 1.390 . S
C519 H512 0.950 . S
C519 C516 1.387 . S
C520 C521 1.387 . S
C520 H524 0.950 . S
C520 C529 1.390 . S
C521 C520 1.387 . S
C521 C523 1.387 . S
H522 C529 0.950 . S
C523 C521 1.387 . S
C523 C525 1.390 . S
C523 H527 0.950 . S
H524 C520 0.950 . S
C525 C523 1.390 . S
C525 C526 1.387 . S
C525 H528 0.950 . S
C526 C525 1.387 . S
C526 C529 1.387 . S
H527 C523 0.950 . S
H528 C525 0.950 . S
C529 C520 1.390 . S
C529 H522 0.950 . S
C529 C526 1.387 . S
C530 C531 1.374 1_655 S
C530 H534 0.956 . S
C530 C539 1.398 . S
C531 C530 1.374 1_455 S
C531 C533 1.387 . S
H532 C539 0.950 . S
C533 C531 1.387 . S
C533 C535 1.390 . S
C533 H537 0.950 . S
H534 C530 0.956 . S
C535 C533 1.390 . S
C535 C536 1.387 . S
C535 H538 0.950 . S
C536 C535 1.387 . S
C536 C539 1.387 1_455 S
H537 C533 0.950 . S
H538 C535 0.950 . S
C539 C530 1.398 . S
C539 H532 0.950 . S
C539 C536 1.387 1_655 S
C540 C541 1.387 . S
C540 H544 0.950 . S
C540 C549 1.390 . S
C541 C540 1.387 . S
C541 C543 1.387 . S
H542 C549 0.950 . S
C543 C541 1.387 . S
C543 C545 1.390 . S
C543 H547 0.950 . S
H544 C540 0.950 . S
C545 C543 1.390 . S
C545 C546 1.387 . S
C545 H548 0.950 . S
C546 C545 1.387 . S
C546 C549 1.387 . S
H547 C543 0.950 . S
H548 C545 0.950 . S
C549 C540 1.390 . S
C549 H542 0.950 . S
C549 C546 1.387 . S
C550 C551 1.387 . S
C550 H554 0.950 . S
C550 C559 1.390 . S
C551 C550 1.387 . S
C551 C553 1.387 . S
H552 C559 0.950 . S
C553 C551 1.387 . S
C553 C555 1.390 . S
C553 H557 0.950 . S
H554 C550 0.950 . S
C555 C553 1.390 . S
C555 C556 1.387 . S
C555 H558 0.950 . S
C556 C555 1.387 . S
C556 C559 1.387 . S
H557 C553 0.950 . S
H558 C555 0.950 . S
C559 C550 1.390 . S
C559 H552 0.950 . S
C559 C556 1.387 . S
C560 C561 1.387 . S
C560 H564 0.950 . S
C560 C569 1.390 . S
C561 C560 1.387 . S
C561 C563 1.387 . S
H562 C569 0.950 . S
C563 C561 1.387 . S
C563 C565 1.390 . S
C563 H567 0.950 . S
H564 C560 0.950 . S
C565 C563 1.390 . S
C565 C566 1.387 . S
C565 H568 0.950 . S
C566 C565 1.387 . S
C566 C569 1.387 . S
H567 C563 0.950 . S
H568 C565 0.950 . S
C569 C560 1.390 . S
C569 H562 0.950 . S
C569 C566 1.387 . S
C570 C571 1.387 . S
C570 H574 0.950 . S
C570 C579 1.390 . S
C571 C570 1.387 . S
C571 C573 1.387 . S
H572 C579 0.950 . S
C573 C571 1.387 . S
C573 C575 1.390 . S
C573 H577 0.950 . S
H574 C570 0.950 . S
C575 C573 1.390 . S
C575 C576 1.387 . S
C575 H578 0.950 . S
C576 C575 1.387 . S
C576 C579 1.387 . S
H577 C573 0.950 . S
H578 C575 0.950 . S
C579 C570 1.390 . S
C579 H572 0.950 . S
C579 C576 1.387 . S
C580 C581 1.387 . S
C580 H584 0.950 . S
C580 C589 1.390 . S
C581 C580 1.387 . S
C581 C583 1.387 1_545 S
H582 C589 0.950 . S
C583 C581 1.387 1_565 S
C583 C585 1.390 . S
C583 H587 0.950 . S
H584 C580 0.950 . S
C585 C583 1.390 . S
C585 C586 1.387 1_565 S
C585 H588 0.950 . S
C586 C585 1.387 1_545 S
C586 C589 1.387 . S
H587 C583 0.950 . S
H588 C585 0.950 . S
C589 C580 1.390 . S
C589 H582 0.950 . S
C589 C586 1.387 . S
C590 C591 1.387 . S
C590 H594 0.950 . S
C590 C599 1.390 . S
C591 C590 1.387 . S
C591 C593 1.387 1_556 S
H592 C599 0.950 . S
C593 C591 1.387 1_554 S
C593 C595 1.390 . S
C593 H597 0.950 . S
H594 C590 0.950 . S
C595 C593 1.390 . S
C595 C596 1.387 1_554 S
C595 H598 0.950 . S
C596 C595 1.387 1_556 S
C596 C599 1.387 . S
H597 C593 0.950 . S
H598 C595 0.950 . S
C599 C590 1.390 . S
C599 H592 0.950 . S
C599 C596 1.387 . S
C600 C601 1.387 . S
C600 H604 0.950 . S
C600 C609 1.390 . S
C601 C600 1.387 . S
C601 C603 1.387 . S
H602 C609 0.950 . S
C603 C601 1.387 . S
C603 C605 1.390 . S
C603 H607 0.950 . S
H604 C600 0.950 . S
C605 C603 1.390 . S
C605 C606 1.387 . S
C605 H608 0.950 . S
C606 C605 1.387 . S
C606 C609 1.387 . S
H607 C603 0.950 . S
H608 C605 0.950 . S
C609 C600 1.390 . S
C609 H602 0.950 . S
C609 C606 1.387 . S
C610 C611 1.387 . S
C610 H614 0.950 . S
C610 C619 1.390 . S
C611 C610 1.387 . S
C611 C613 1.387 . S
H612 C619 0.950 . S
C613 C611 1.387 . S
C613 C615 1.390 . S
C613 H617 0.950 . S
H614 C610 0.950 . S
C615 C613 1.390 . S
C615 C616 1.387 . S
C615 H618 0.950 . S
C616 C615 1.387 . S
C616 C619 1.387 . S
H617 C613 0.950 . S
H618 C615 0.950 . S
C619 C610 1.390 . S
C619 H612 0.950 . S
C619 C616 1.387 . S
C620 C621 1.387 . S
C620 H624 0.950 . S
C620 C629 1.390 . S
C621 C620 1.387 . S
C621 C623 1.387 . S
H622 C629 0.950 . S
C623 C621 1.387 . S
C623 C625 1.390 . S
C623 H627 0.950 . S
H624 C620 0.950 . S
C625 C623 1.390 . S
C625 C626 1.387 . S
C625 H628 0.950 . S
C626 C625 1.387 . S
C626 C629 1.387 . S
H627 C623 0.950 . S
H628 C625 0.950 . S
C629 C620 1.390 . S
C629 H622 0.950 . S
C629 C626 1.387 . S
C630 C631 1.387 . S
C630 H634 0.950 . S
C630 C639 1.390 . S
C631 C630 1.387 . S
C631 C633 1.387 . S
H632 C639 0.950 . S
C633 C631 1.387 . S
C633 C635 1.390 . S
C633 H637 0.950 . S
H634 C630 0.950 . S
C635 C633 1.390 . S
C635 C636 1.387 . S
C635 H638 0.950 . S
C636 C635 1.387 . S
C636 C639 1.387 . S
H637 C633 0.950 . S
H638 C635 0.950 . S
C639 C630 1.390 . S
C639 H632 0.950 . S
C639 C636 1.387 . S
C640 C641 1.387 . S
C640 H644 0.950 . S
C640 C649 1.390 . S
C641 C640 1.387 . S
C641 C643 1.387 . S
H642 C649 0.950 . S
C643 C641 1.387 . S
C643 C645 1.390 . S
C643 H647 0.950 . S
H644 C640 0.950 . S
C645 C643 1.390 . S
C645 C646 1.387 . S
C645 H648 0.950 . S
C646 C645 1.387 . S
C646 C649 1.387 . S
H647 C643 0.950 . S
H648 C645 0.950 . S
C649 C640 1.390 . S
C649 H642 0.950 . S
C649 C646 1.387 . S
C650 C651 1.387 . S
C650 H654 0.950 . S
C650 C659 1.390 . S
C651 C650 1.387 . S
C651 C653 1.387 . S
H652 C659 0.950 . S
C653 C651 1.387 . S
C653 C655 1.390 . S
C653 H657 0.950 . S
H654 C650 0.950 . S
C655 C653 1.390 . S
C655 C656 1.387 . S
C655 H658 0.950 . S
C656 C655 1.387 . S
C656 C659 1.387 . S
H657 C653 0.950 . S
H658 C655 0.950 . S
C659 C650 1.390 . S
C659 H652 0.950 . S
C659 C656 1.387 . S
C660 C661 1.387 . S
C660 H664 0.950 . S
C660 C669 1.390 . S
C661 C660 1.387 . S
C661 C663 1.387 . S
H662 C669 0.950 . S
C663 C661 1.387 . S
C663 C665 1.390 . S
C663 H667 0.950 . S
H664 C660 0.950 . S
C665 C663 1.390 . S
C665 C666 1.387 . S
C665 H668 0.950 . S
C666 C665 1.387 . S
C666 C669 1.387 . S
H667 C663 0.950 . S
H668 C665 0.950 . S
C669 C660 1.390 . S
C669 H662 0.950 . S
C669 C666 1.387 . S
C670 C671 1.387 . S
C670 H674 0.950 . S
C670 C679 1.390 . S
C671 C670 1.387 . S
C671 C673 1.387 . S
H672 C679 0.950 . S
C673 C671 1.387 . S
C673 C675 1.390 . S
C673 H677 0.950 . S
H674 C670 0.950 . S
C675 C673 1.390 . S
C675 C676 1.387 . S
C675 H678 0.950 . S
C676 C675 1.387 . S
C676 C679 1.387 . S
H677 C673 0.950 . S
H678 C675 0.950 . S
C679 C670 1.390 . S
C679 H672 0.950 . S
C679 C676 1.387 . S
C680 C681 1.387 . S
C680 H684 0.950 . S
C680 C689 1.390 . S
C681 C680 1.387 . S
C681 C683 1.387 . S
H682 C689 0.950 . S
C683 C681 1.387 . S
C683 C685 1.390 . S
C683 H687 0.950 . S
H684 C680 0.950 . S
C685 C683 1.390 . S
C685 C686 1.387 . S
C685 H688 0.950 . S
C686 C685 1.387 . S
C686 C689 1.387 . S
H687 C683 0.950 . S
H688 C685 0.950 . S
C689 C680 1.390 . S
C689 H682 0.950 . S
C689 C686 1.387 . S
C690 C691 1.387 . S
C690 H694 0.950 . S
C690 C699 1.390 . S
C691 C690 1.387 . S
C691 C693 1.387 1_556 S
H692 C699 0.950 . S
C693 C691 1.387 1_554 S
C693 C695 1.390 . S
C693 H697 0.950 . S
H694 C690 0.950 . S
C695 C693 1.390 . S
C695 C696 1.387 1_554 S
C695 H698 0.950 . S
C696 C695 1.387 1_556 S
C696 C699 1.387 . S
H697 C693 0.950 . S
H698 C695 0.950 . S
C699 C690 1.390 . S
C699 H692 0.950 . S
C699 C696 1.387 . S
C700 C701 1.387 . S
C700 H704 0.950 . S
C700 C709 1.390 . S
C701 C700 1.387 . S
C701 C703 1.387 . S
H702 C709 0.950 . S
C703 C701 1.387 . S
C703 C705 1.390 . S
C703 H707 0.950 . S
H704 C700 0.950 . S
C705 C703 1.390 . S
C705 C706 1.387 . S
C705 H708 0.950 . S
C706 C705 1.387 . S
C706 C709 1.387 . S
H707 C703 0.950 . S
H708 C705 0.950 . S
C709 C700 1.390 . S
C709 H702 0.950 . S
C709 C706 1.387 . S
C710 C711 1.387 . S
C710 H714 0.950 . S
C710 C719 1.390 . S
C711 C710 1.387 . S
C711 C713 1.387 . S
H712 C719 0.950 . S
C713 C711 1.387 . S
C713 C715 1.390 . S
C713 H717 0.950 . S
H714 C710 0.950 . S
C715 C713 1.390 . S
C715 C716 1.387 . S
C715 H718 0.950 . S
C716 C715 1.387 . S
C716 C719 1.387 . S
H717 C713 0.950 . S
H718 C715 0.950 . S
C719 C710 1.390 . S
C719 H712 0.950 . S
C719 C716 1.387 . S
C720 C721 1.387 . S
C720 H724 0.950 . S
C720 C729 1.390 . S
C721 C720 1.387 . S
C721 C723 1.387 . S
H722 C729 0.950 . S
C723 C721 1.387 . S
C723 C725 1.390 . S
C723 H727 0.950 . S
H724 C720 0.950 . S
C725 C723 1.390 . S
C725 C726 1.387 . S
C725 H728 0.950 . S
C726 C725 1.387 . S
C726 C729 1.387 . S
H727 C723 0.950 . S
H728 C725 0.950 . S
C729 C720 1.390 . S
C729 H722 0.950 . S
C729 C726 1.387 . S
C730 C731 1.387 . S
C730 H734 0.950 . S
C730 C739 1.390 . S
C731 C730 1.387 . S
C731 C733 1.387 . S
H732 C739 0.950 . S
C733 C731 1.387 . S
C733 C735 1.390 . S
C733 H737 0.950 . S
H734 C730 0.950 . S
C735 C733 1.390 . S
C735 C736 1.387 . S
C735 H738 0.950 . S
C736 C735 1.387 . S
C736 C739 1.387 . S
H737 C733 0.950 . S
H738 C735 0.950 . S
C739 C730 1.390 . S
C739 H732 0.950 . S
C739 C736 1.387 . S
C740 C741 1.387 1_556 S
C740 H744 0.950 . S
C740 C749 1.390 . S
C741 C740 1.387 1_554 S
C741 C743 1.387 . S
H742 C749 0.950 . S
C743 C741 1.387 . S
C743 C745 1.390 . S
C743 H747 0.950 . S
H744 C740 0.950 . S
C745 C743 1.390 . S
C745 C746 1.387 . S
C745 H748 0.950 . S
C746 C745 1.387 . S
C746 C749 1.387 1_554 S
H747 C743 0.950 . S
H748 C745 0.950 . S
C749 C740 1.390 . S
C749 H742 0.950 . S
C749 C746 1.387 1_556 S
C750 C751 1.387 . S
C750 H754 0.950 . S
C750 C759 1.390 . S
C751 C750 1.387 . S
C751 C753 1.387 . S
H752 C759 0.950 . S
C753 C751 1.387 . S
C753 C755 1.390 . S
C753 H757 0.950 . S
H754 C750 0.950 . S
C755 C753 1.390 . S
C755 C756 1.387 . S
C755 H758 0.950 . S
C756 C755 1.387 . S
C756 C759 1.387 . S
H757 C753 0.950 . S
H758 C755 0.950 . S
C759 C750 1.390 . S
C759 H752 0.950 . S
C759 C756 1.387 . S
C760 C761 1.387 . S
C760 H764 0.950 . S
C760 C769 1.390 . S
C761 C760 1.387 . S
C761 C763 1.387 . S
H762 C769 0.950 . S
C763 C761 1.387 . S
C763 C765 1.390 . S
C763 H767 0.950 . S
H764 C760 0.950 . S
C765 C763 1.390 . S
C765 C766 1.387 . S
C765 H768 0.950 . S
C766 C765 1.387 . S
C766 C769 1.387 . S
H767 C763 0.950 . S
H768 C765 0.950 . S
C769 C760 1.390 . S
C769 H762 0.950 . S
C769 C766 1.387 . S
C770 C771 1.387 . S
C770 H774 0.950 . S
C770 C779 1.390 . S
C771 C770 1.387 . S
C771 C773 1.387 . S
H772 C779 0.950 . S
C773 C771 1.387 . S
C773 C775 1.390 . S
C773 H777 0.950 . S
H774 C770 0.950 . S
C775 C773 1.390 . S
C775 C776 1.387 . S
C775 H778 0.950 . S
C776 C775 1.387 . S
C776 C779 1.387 . S
H777 C773 0.950 . S
H778 C775 0.950 . S
C779 C770 1.390 . S
C779 H772 0.950 . S
C779 C776 1.387 . S
C780 C781 1.387 . S
C780 H784 0.950 . S
C780 C789 1.390 . S
C781 C780 1.387 . S
C781 C783 1.387 . S
H782 C789 0.950 . S
C783 C781 1.387 . S
C783 C785 1.390 . S
C783 H787 0.950 . S
H784 C780 0.950 . S
C785 C783 1.390 . S
C785 C786 1.387 . S
C785 H788 0.950 . S
C786 C785 1.387 . S
C786 C789 1.387 . S
H787 C783 0.950 . S
H788 C785 0.950 . S
C789 C780 1.390 . S
C789 H782 0.950 . S
C789 C786 1.387 . S
C790 C791 1.387 . S
C790 H794 0.950 . S
C790 C799 1.390 . S
C791 C790 1.387 . S
C791 C793 1.387 . S
H792 C799 0.950 . S
C793 C791 1.387 . S
C793 C795 1.390 . S
C793 H797 0.950 . S
H794 C790 0.950 . S
C795 C793 1.390 . S
C795 C796 1.387 . S
C795 H798 0.950 . S
C796 C795 1.387 . S
C796 C799 1.387 . S
H797 C793 0.950 . S
H798 C795 0.950 . S
C799 C790 1.390 . S
C799 H792 0.950 . S
C799 C796 1.387 . S
C321 C17 1.836 1_455 S
C326 C34 1.848 . S
C331 C53 1.750 . S
C336 C25 1.666 . S
C341 C65 1.847 . S
C346 C57 1.833 . S
C351 C13 1.751 . S
C356 C74 1.668 . S
C361 C2 2.163 . S
C366 C188 1.825 . S
C371 C145 1.807 . S
C376 C28 1.680 . S
C381 C42 2.163 . S
C386 C217 1.826 . S
C391 C77 1.685 . S
C396 C265 1.809 . S
C401 C162 2.163 . S
C406 C37 1.825 . S
C411 C257 1.681 . S
C416 C45 1.809 . S
C421 C282 2.164 . S
C426 C68 1.827 . S
C431 C5 1.808 . S
C436 C228 1.680 . S
C441 C14 1.465 . S
C446 C174 1.465 . S
C451 C253 1.978 . S
C456 C82 1.978 . S
C461 C108 1.544 . S
C466 C288 1.544 . S
C471 C222 1.979 . S
C476 C133 1.979 . S
C481 C48 1.544 . S
C486 C148 1.544 . S
C491 C182 2.354 . S
C496 C93 2.354 . S
C501 C122 2.355 . S
C506 C213 2.355 . S
C511 C102 2.162 . S
C516 C237 1.823 . S
C521 C197 1.682 . S
C526 C105 1.807 . S
C531 C234 1.847 . S
C536 C157 1.832 1_455 S
C541 C113 1.750 . S
C546 C85 1.667 . S
C551 C185 1.846 . S
C556 C177 1.832 . S
C561 C273 1.750 . S
C566 C225 1.666 . S
C571 C125 1.847 . S
C576 C117 1.835 . S
C581 C194 1.668 . S
C586 C293 1.751 . S
C591 C268 1.544 . S
C596 C8 1.544 . S
C601 C54 1.465 . S
C606 C294 1.465 . S
C611 C242 2.355 . S
C616 C33 2.355 . S
C621 C154 1.462 . S
C626 C114 1.462 . S
C631 C73 1.979 . S
C636 C202 1.979 . S
C641 C245 1.846 . S
C646 C277 1.832 . S
C651 C153 1.750 . S
C656 C254 1.667 . S
C661 C128 1.823 . S
C666 C142 2.162 . S
C671 C97 1.825 . S
C676 C262 2.163 . S
C681 C248 1.826 . S
C686 C302 2.163 . S
C691 C308 1.544 . S
C696 C168 1.544 . S
C701 C22 1.979 . S
C706 C193 1.979 . S
C711 C165 1.810 . S
C716 C137 1.684 . S
C721 C173 1.751 . S
C726 C205 1.667 . S
C731 C313 1.751 . S
C736 C134 1.668 . S
C741 C274 1.462 . S
C746 C314 1.462 . S
C751 C233 2.355 . S
C756 C62 2.355 . S
C761 C214 1.847 . S
C766 C297 1.835 . S
C771 C208 1.680 . S
C776 C305 1.808 . S
C781 C88 1.681 . S
C786 C285 1.807 . S
C791 C317 1.832 . S
C796 C94 1.846 . S
