# Generated by pormake.
# Topology atn, (4)-cn, num edge types: 1
# Building blocks:
#     Node 0, Type 0, BuildingBlock: TATPOV_clean_sbu_0, # of connection points: 4
#     Node 1, Type 0, BuildingBlock: TATPOV_clean_sbu_0, # of connection points: 4
#     Node 2, Type 0, BuildingBlock: TATPOV_clean_sbu_0, # of connection points: 4
#     Node 3, Type 0, BuildingBlock: TATPOV_clean_sbu_0, # of connection points: 4
#     Node 4, Type 0, BuildingBlock: TATPOV_clean_sbu_0, # of connection points: 4
#     Node 5, Type 0, BuildingBlock: TATPOV_clean_sbu_0, # of connection points: 4
#     Node 6, Type 0, BuildingBlock: TATPOV_clean_sbu_0, # of connection points: 4
#     Node 7, Type 0, BuildingBlock: TATPOV_clean_sbu_0, # of connection points: 4
#     Node 8, Type 0, BuildingBlock: TATPOV_clean_sbu_0, # of connection points: 4
#     Node 9, Type 0, BuildingBlock: TATPOV_clean_sbu_0, # of connection points: 4
#     Node 10, Type 0, BuildingBlock: TATPOV_clean_sbu_0, # of connection points: 4
#     Node 11, Type 0, BuildingBlock: TATPOV_clean_sbu_0, # of connection points: 4
#     Node 12, Type 0, BuildingBlock: TATPOV_clean_sbu_0, # of connection points: 4
#     Node 13, Type 0, BuildingBlock: TATPOV_clean_sbu_0, # of connection points: 4
#     Node 14, Type 0, BuildingBlock: TATPOV_clean_sbu_0, # of connection points: 4
#     Node 15, Type 0, BuildingBlock: TATPOV_clean_sbu_0, # of connection points: 4
#     Edge 16, Type (0, 0), BuildingBlock: XUDNAN_clean_linker_2, # of connection points: 2
#     Edge 17, Type (0, 0), BuildingBlock: XUDNAN_clean_linker_2, # of connection points: 2
#     Edge 18, Type (0, 0), BuildingBlock: XUDNAN_clean_linker_2, # of connection points: 2
#     Edge 19, Type (0, 0), BuildingBlock: XUDNAN_clean_linker_2, # of connection points: 2
#     Edge 20, Type (0, 0), BuildingBlock: XUDNAN_clean_linker_2, # of connection points: 2
#     Edge 21, Type (0, 0), BuildingBlock: XUDNAN_clean_linker_2, # of connection points: 2
#     Edge 22, Type (0, 0), BuildingBlock: XUDNAN_clean_linker_2, # of connection points: 2
#     Edge 23, Type (0, 0), BuildingBlock: XUDNAN_clean_linker_2, # of connection points: 2
#     Edge 24, Type (0, 0), BuildingBlock: XUDNAN_clean_linker_2, # of connection points: 2
#     Edge 25, Type (0, 0), BuildingBlock: XUDNAN_clean_linker_2, # of connection points: 2
#     Edge 26, Type (0, 0), BuildingBlock: XUDNAN_clean_linker_2, # of connection points: 2
#     Edge 27, Type (0, 0), BuildingBlock: XUDNAN_clean_linker_2, # of connection points: 2
#     Edge 28, Type (0, 0), BuildingBlock: XUDNAN_clean_linker_2, # of connection points: 2
#     Edge 29, Type (0, 0), BuildingBlock: XUDNAN_clean_linker_2, # of connection points: 2
#     Edge 30, Type (0, 0), BuildingBlock: XUDNAN_clean_linker_2, # of connection points: 2
#     Edge 31, Type (0, 0), BuildingBlock: XUDNAN_clean_linker_2, # of connection points: 2
#     Edge 32, Type (0, 0), BuildingBlock: XUDNAN_clean_linker_2, # of connection points: 2
#     Edge 33, Type (0, 0), BuildingBlock: XUDNAN_clean_linker_2, # of connection points: 2
#     Edge 34, Type (0, 0), BuildingBlock: XUDNAN_clean_linker_2, # of connection points: 2
#     Edge 35, Type (0, 0), BuildingBlock: XUDNAN_clean_linker_2, # of connection points: 2
#     Edge 36, Type (0, 0), BuildingBlock: XUDNAN_clean_linker_2, # of connection points: 2
#     Edge 37, Type (0, 0), BuildingBlock: XUDNAN_clean_linker_2, # of connection points: 2
#     Edge 38, Type (0, 0), BuildingBlock: XUDNAN_clean_linker_2, # of connection points: 2
#     Edge 39, Type (0, 0), BuildingBlock: XUDNAN_clean_linker_2, # of connection points: 2
#     Edge 40, Type (0, 0), BuildingBlock: XUDNAN_clean_linker_2, # of connection points: 2
#     Edge 41, Type (0, 0), BuildingBlock: XUDNAN_clean_linker_2, # of connection points: 2
#     Edge 42, Type (0, 0), BuildingBlock: XUDNAN_clean_linker_2, # of connection points: 2
#     Edge 43, Type (0, 0), BuildingBlock: XUDNAN_clean_linker_2, # of connection points: 2
#     Edge 44, Type (0, 0), BuildingBlock: XUDNAN_clean_linker_2, # of connection points: 2
#     Edge 45, Type (0, 0), BuildingBlock: XUDNAN_clean_linker_2, # of connection points: 2
#     Edge 46, Type (0, 0), BuildingBlock: XUDNAN_clean_linker_2, # of connection points: 2
#     Edge 47, Type (0, 0), BuildingBlock: XUDNAN_clean_linker_2, # of connection points: 2
# Relax obj value: 0.075
# Max RMSD: 0.103
# Mean RMSD: 0.103
data_MOF--net-atn--node1-TATPOV_clean_sbu_0--edge1-XUDNAN_clean_linker_2
_symmetry_space_group_name_H-M    P1
_symmetry_Int_Tables_number       1
_symmetry_cell_setting            triclinic
loop_
_symmetry_equiv_pos_as_xyz
'x, y, z'
_cell_length_a     60.578483
_cell_length_b     60.552894
_cell_length_c     26.892655
_cell_angle_alpha  90.307676
_cell_angle_beta   90.004068
_cell_angle_gamma 90.154867
loop_
_atom_site_label
_atom_site_type_symbol
_atom_site_fract_x
_atom_site_fract_y
_atom_site_fract_z
_atom_type_partial_charge
Zn0 Zn 0.18312 0.34165 0.05081 0.0
Zn1 Zn 0.19742 0.38195 0.02842 0.0
O2 O 0.17807 0.37224 0.96875 0.0
O3 O 0.16603 0.33897 -0.01209 0.0
O4 O 0.20516 0.41358 0.01134 0.0
O5 O 0.1672 0.35283 0.11007 0.0
O6 O 0.18051 0.38598 0.09492 0.0
C7 C 0.16661 0.35511 0.95833 0.0
C8 C 0.23084 0.34492 0.04467 0.0
O9 O 0.22713 0.36496 0.03291 0.0
O10 O 0.21488 0.33214 0.05474 0.0
C11 C 0.22178 0.42405 0.02837 0.0
O12 O 0.23575 0.41378 0.05753 0.0
C13 C 0.16885 0.37304 0.12147 0.0
Zn14 Zn 0.66798 0.18834 0.95969 0.0
Zn15 Zn 0.62812 0.20586 0.96751 0.0
O16 O 0.62919 0.19405 0.89534 0.0
O17 O 0.66292 0.18088 0.88858 0.0
O18 O 0.59662 0.21664 0.97418 0.0
O19 O 0.66141 0.16505 0.0093 0.0
O20 O 0.62952 0.18156 0.02155 0.0
C21 C 0.64418 0.18459 0.86972 0.0
C22 C 0.66897 0.23474 -0.01457 0.0
O23 O 0.64807 0.23338 0.98019 0.0
O24 O 0.68082 0.21767 0.98032 0.0
C25 C 0.58989 0.22606 0.01372 0.0
O26 O 0.60401 0.22976 0.04993 0.0
C27 C 0.64321 0.16628 0.03202 0.0
Zn28 Zn 0.8237 0.67377 0.00786 0.0
Zn29 Zn 0.80361 0.63449 0.00298 0.0
O30 O 0.82377 0.63559 0.94109 0.0
O31 O 0.83972 0.66827 0.94435 0.0
O32 O 0.79066 0.60353 -0.00046 0.0
O33 O 0.83865 0.66561 0.07105 0.0
O34 O 0.8212 0.63369 0.06865 0.0
C35 C 0.83714 0.64976 0.92313 0.0
C36 C 0.77614 0.67715 0.00591 0.0
O37 O 0.77674 0.6561 0.00254 0.0
O38 O 0.79395 0.68808 0.00889 0.0
C39 C 0.80418 0.58765 -0.00628 0.0
O40 O 0.82533 0.59221 -0.01021 0.0
C41 C 0.83464 0.64695 0.08992 0.0
Zn42 Zn 0.34177 0.83281 0.02229 0.0
Zn43 Zn 0.38229 0.81717 0.01027 0.0
O44 O 0.37888 0.84167 0.9574 0.0
O45 O 0.3465 0.85663 0.97295 0.0
O46 O 0.4141 0.80779 0.00125 0.0
O47 O 0.34777 0.84012 0.09297 0.0
O48 O 0.38195 0.8287 0.08263 0.0
C49 C 0.36432 0.85634 0.94856 0.0
C50 C 0.34248 0.78683 -0.007 0.0
O51 O 0.36338 0.789 -0.00316 0.0
O52 O 0.32997 0.80321 0.00085 0.0
C53 C 0.42099 0.79891 0.96123 0.0
O54 O 0.40685 0.79485 0.92526 0.0
C55 C 0.36705 0.83739 0.1098 0.0
Zn56 Zn 0.18682 0.66692 0.91918 0.0
Zn57 Zn 0.20616 0.62868 0.94091 0.0
O58 O 0.18443 0.63476 -0.00141 0.0
O59 O 0.16811 0.6661 0.9798 0.0
O60 O 0.21842 0.59853 0.95818 0.0
O61 O 0.17412 0.65426 0.85745 0.0
O62 O 0.19131 0.62303 0.87257 0.0
C63 C 0.1704 0.64984 0.00856 0.0
C64 C 0.23426 0.67059 0.93115 0.0
O65 O 0.23316 0.64995 0.94037 0.0
O66 O 0.21688 0.68114 0.92044 0.0
C67 C 0.20549 0.58201 0.95408 0.0
O68 O 0.18514 0.5853 0.93904 0.0
C69 C 0.1786 0.63458 0.8454 0.0
Zn70 Zn 0.34785 0.19248 0.97383 0.0
Zn71 Zn 0.38818 0.21014 0.9783 0.0
O72 O 0.3872 0.1862 0.03304 0.0
O73 O 0.35466 0.17029 0.02575 0.0
O74 O 0.42001 0.22036 -0.01801 0.0
O75 O 0.35217 0.18423 0.90262 0.0
O76 O 0.38568 0.19831 0.90654 0.0
C77 C 0.3733 0.17157 0.04671 0.0
C78 C 0.34804 0.23914 -0.00088 0.0
O79 O 0.36888 0.2378 -0.00717 0.0
O80 O 0.33596 0.22217 -0.00598 0.0
C81 C 0.42785 0.22941 0.02096 0.0
O82 O 0.41461 0.23331 0.0587 0.0
C83 C 0.3705 0.18842 0.8822 0.0
Zn84 Zn 0.83009 0.34453 0.96135 0.0
Zn85 Zn 0.81426 0.38511 0.96783 0.0
O86 O 0.83821 0.38287 0.0228 0.0
O87 O 0.85368 0.35041 0.01088 0.0
O88 O 0.80591 0.41754 0.97216 0.0
O89 O 0.83777 0.34819 0.89022 0.0
O90 O 0.82614 0.38252 0.89593 0.0
C91 C 0.853 0.3687 0.03361 0.0
C92 C 0.78363 0.3458 -0.01339 0.0
O93 O 0.78577 0.36662 0.9807 0.0
O94 O 0.80025 0.33328 -0.0179 0.0
C95 C 0.7873 0.42595 -0.01684 0.0
O96 O 0.77053 0.41291 -0.00694 0.0
C97 C 0.83489 0.36691 0.87079 0.0
Zn98 Zn 0.66067 0.84067 0.00315 0.0
Zn99 Zn 0.62192 0.82113 -0.00241 0.0
O100 O 0.62168 0.83811 0.06508 0.0
O101 O 0.65305 0.85664 0.06487 0.0
O102 O 0.5905 0.80975 -0.00685 0.0
O103 O 0.65669 0.85696 0.94048 0.0
O104 O 0.62447 0.84024 0.93371 0.0
C105 C 0.63482 0.85206 0.0851 0.0
C106 C 0.6632 0.79265 0.00183 0.0
O107 O 0.64222 0.79351 -0.00229 0.0
O108 O 0.67432 0.81036 0.00504 0.0
C109 C 0.5831 0.80027 0.95425 0.0
O110 O 0.59659 0.79658 0.91688 0.0
C111 C 0.63888 0.85375 0.91717 0.0
Zn112 Zn 0.69396 0.84058 0.50276 0.0
Zn113 Zn 0.71346 0.8802 0.49956 0.0
O114 O 0.69425 0.87843 0.43636 0.0
O115 O 0.6793 0.84526 0.43729 0.0
O116 O 0.72599 0.91128 0.49552 0.0
O117 O 0.6775 0.84919 0.56398 0.0
O118 O 0.69483 0.8812 0.56377 0.0
C119 C 0.6817 0.86385 0.41678 0.0
C120 C 0.74153 0.83806 0.5063 0.0
O121 O 0.74065 0.85904 0.50188 0.0
O122 O 0.72389 0.82683 0.50793 0.0
C123 C 0.7122 0.92711 0.49705 0.0
O124 O 0.69111 0.92243 0.50172 0.0
C125 C 0.68101 0.86793 0.58344 0.0
Zn126 Zn 0.17344 0.67946 0.43967 0.0
Zn127 Zn 0.13338 0.69629 0.45368 0.0
O128 O 0.13295 0.68516 0.38102 0.0
O129 O 0.1664 0.67193 0.36957 0.0
O130 O 0.10185 0.70644 0.46339 0.0
O131 O 0.16864 0.65611 0.49016 0.0
O132 O 0.13655 0.67158 0.50617 0.0
C133 C 0.14721 0.67574 0.35335 0.0
C134 C 0.17407 0.72568 0.46831 0.0
O135 O 0.15308 0.72391 0.46664 0.0
O136 O 0.18607 0.70904 0.45915 0.0
C137 C 0.09345 0.72136 0.43628 0.0
O138 O 0.10592 0.73116 0.40302 0.0
C139 C 0.15092 0.65672 0.51491 0.0
Zn140 Zn 0.33049 0.17363 0.44113 0.0
Zn141 Zn 0.31405 0.13383 0.46083 0.0
O142 O 0.33213 0.12949 0.39591 0.0
O143 O 0.34754 0.16205 0.38383 0.0
O144 O 0.30509 0.10234 0.47597 0.0
O145 O 0.3463 0.17522 0.5057 0.0
O146 O 0.33258 0.14237 0.52281 0.0
C147 C 0.34515 0.14202 0.37169 0.0
C148 C 0.28251 0.17234 0.44322 0.0
O149 O 0.28515 0.15205 0.45445 0.0
O150 O 0.29918 0.18442 0.43466 0.0
C151 C 0.28935 0.09188 0.45513 0.0
O152 O 0.27672 0.10218 0.42306 0.0
C153 C 0.34451 0.15898 0.53471 0.0
Zn154 Zn 0.84733 0.32582 0.43108 0.0
Zn155 Zn 0.88631 0.3079 0.4498 0.0
O156 O 0.89076 0.32605 0.38525 0.0
O157 O 0.8587 0.34211 0.37296 0.0
O158 O 0.91737 0.29676 0.46173 0.0
O159 O 0.84725 0.34172 0.49582 0.0
O160 O 0.87949 0.32664 0.51257 0.0
C161 C 0.87858 0.33916 0.36049 0.0
C162 C 0.84623 0.27804 0.43102 0.0
O163 O 0.8666 0.27983 0.44258 0.0
O164 O 0.83481 0.2952 0.42356 0.0
C165 C 0.92625 0.28371 0.43043 0.0
O166 O 0.91447 0.27663 0.39251 0.0
C167 C 0.86355 0.33934 0.52459 0.0
Zn168 Zn 0.68293 0.1681 0.43007 0.0
Zn169 Zn 0.69907 0.12849 0.44979 0.0
O170 O 0.68046 0.13705 0.51168 0.0
O171 O 0.66689 0.16985 0.49419 0.0
O172 O 0.70777 0.09679 0.46426 0.0
O173 O 0.66625 0.1571 0.37188 0.0
O174 O 0.68122 0.12453 0.38431 0.0
C175 C 0.66853 0.15364 0.52331 0.0
C176 C 0.73077 0.16693 0.4309 0.0
O177 O 0.72814 0.14671 0.4429 0.0
O178 O 0.71411 0.17901 0.42292 0.0
C179 C 0.72648 0.08792 0.45651 0.0
O180 O 0.74273 0.1 0.43902 0.0
C181 C 0.6686 0.13713 0.35927 0.0
Zn182 Zn 0.85561 0.67491 0.51503 0.0
Zn183 Zn 0.89471 0.69358 0.50634 0.0
O184 O 0.89596 0.67644 0.57318 0.0
O185 O 0.86419 0.65864 0.57532 0.0
O186 O 0.92615 0.70458 0.49935 0.0
O187 O 0.85818 0.65873 0.45139 0.0
O188 O 0.89074 0.67453 0.44238 0.0
C189 C 0.88291 0.6627 0.59386 0.0
C190 C 0.85399 0.72286 0.51467 0.0
O191 O 0.87484 0.72151 0.50846 0.0
O192 O 0.84254 0.70544 0.51908 0.0
C193 C 0.93192 0.71938 0.46857 0.0
O194 O 0.91677 0.7288 0.44097 0.0
C195 C 0.87568 0.66145 0.42669 0.0
Zn196 Zn 0.3295 0.84842 0.54158 0.0
Zn197 Zn 0.30877 0.8862 0.52284 0.0
O198 O 0.32375 0.89116 0.59136 0.0
O199 O 0.3416 0.86014 0.60471 0.0
O200 O 0.29558 0.91629 0.50833 0.0
O201 O 0.34837 0.85106 0.4816 0.0
O202 O 0.33036 0.88162 0.46412 0.0
C203 C 0.33667 0.87956 0.61794 0.0
C204 C 0.2822 0.84319 0.52897 0.0
O205 O 0.28245 0.86405 0.52222 0.0
O206 O 0.30002 0.8331 0.53819 0.0
C207 C 0.30782 0.93314 0.51555 0.0
O208 O 0.32805 0.93018 0.53179 0.0
C209 C 0.34516 0.86739 0.4535 0.0
Zn210 Zn 0.16407 0.32622 0.52127 0.0
Zn211 Zn 0.12461 0.30752 0.51169 0.0
O212 O 0.12536 0.31808 0.58487 0.0
O213 O 0.15863 0.33243 0.59281 0.0
O214 O 0.09321 0.29643 0.50352 0.0
O215 O 0.1572 0.34999 0.47308 0.0
O216 O 0.12596 0.3324 0.45902 0.0
C217 C 0.14004 0.32767 0.61129 0.0
C218 C 0.16596 0.28016 0.49127 0.0
O219 O 0.14504 0.28075 0.49675 0.0
O220 O 0.17739 0.29746 0.49808 0.0
C221 C 0.0874 0.28387 0.46779 0.0
O222 O 0.10243 0.27694 0.43619 0.0
C223 C 0.13923 0.34823 0.44953 0.0
H224 H 0.18269 0.54332 0.94104 0.0
H225 H 0.24504 0.56943 -0.00462 0.0
H226 H 0.25669 0.53164 0.01791 0.0
H227 H 0.17513 0.50288 0.03469 0.0
H228 H 0.16331 0.4826 -0.00686 0.0
H229 H 0.16033 0.51156 0.98003 0.0
H230 H 0.17788 0.50555 0.89311 0.0
H231 H 0.18092 0.47655 0.90596 0.0
H232 H 0.20464 0.49276 0.88834 0.0
H233 H 0.26073 0.49086 0.03763 0.0
H234 H 0.25711 0.45068 0.05157 0.0
H235 H 0.19235 0.45163 -0.0175 0.0
C236 C 0.19885 0.54115 0.95749 0.0
C237 C 0.21295 0.55938 0.9665 0.0
C238 C 0.23396 0.55573 -0.01195 0.0
C239 C 0.24072 0.53432 0.00097 0.0
C240 C 0.22633 0.51673 -0.00822 0.0
C241 C 0.20588 0.51994 0.97032 0.0
C242 C 0.19335 0.49839 0.96486 0.0
C243 C 0.17176 0.49889 -0.00501 0.0
C244 C 0.18895 0.493 0.90979 0.0
C245 C 0.20984 0.48253 -0.01287 0.0
C246 C 0.22877 0.49338 0.00243 0.0
C247 C 0.24604 0.48219 0.02546 0.0
C248 C 0.24382 0.45936 0.03325 0.0
C249 C 0.2245 0.44794 0.01795 0.0
C250 C 0.20742 0.45978 -0.00574 0.0
H251 H 0.46082 0.21738 0.95595 0.0
H252 H 0.44936 0.25092 0.09665 0.0
H253 H 0.48954 0.25587 0.10733 0.0
H254 H 0.50748 0.18749 -0.00556 0.0
H255 H 0.52194 0.18962 0.93608 0.0
H256 H 0.49225 0.19042 0.93725 0.0
H257 H 0.49283 0.22794 0.8914 0.0
H258 H 0.52256 0.22724 0.88996 0.0
H259 H 0.50856 0.25062 0.917 0.0
H260 H 0.53103 0.25495 0.10555 0.0
H261 H 0.57072 0.24829 0.09136 0.0
H262 H 0.55524 0.21531 0.95184 0.0
C263 C 0.46671 0.22609 -0.01136 0.0
C264 C 0.45188 0.23385 0.02538 0.0
C265 C 0.46035 0.24487 0.06792 0.0
C266 C 0.48317 0.2478 0.0743 0.0
C267 C 0.49734 0.23965 0.03777 0.0
C268 C 0.48945 0.22909 -0.00432 0.0
C269 C 0.50823 0.2209 0.96326 0.0
C270 C 0.50742 0.19561 0.95744 0.0
C271 C 0.50803 0.23236 0.91239 0.0
C272 C 0.52791 0.22817 -0.00589 0.0
C273 C 0.52127 0.23909 0.03678 0.0
C274 C 0.53643 0.24661 0.07203 0.0
C275 C 0.55896 0.24271 0.06366 0.0
C276 C 0.56616 0.23136 0.02041 0.0
C277 C 0.55034 0.22423 -0.01496 0.0
H278 H 0.81923 0.45735 0.96738 0.0
H279 H 0.74989 0.44984 0.00449 0.0
H280 H 0.74619 0.49046 0.00943 0.0
H281 H 0.83024 0.50264 0.04881 0.0
H282 H 0.84893 0.51612 0.00648 0.0
H283 H 0.84579 0.48656 0.00447 0.0
H284 H 0.83573 0.48853 0.91091 0.0
H285 H 0.83883 0.51812 0.91263 0.0
H286 H 0.81332 0.50596 0.8913 0.0
H287 H 0.7504 0.53236 0.01119 0.0
H288 H 0.76235 0.5715 0.01107 0.0
H289 H 0.82892 0.55094 0.97359 0.0
C290 C 0.80321 0.46419 0.97637 0.0
C291 C 0.78483 0.45034 -0.01453 0.0
C292 C 0.76421 0.46006 -0.00272 0.0
C293 C 0.76194 0.48314 0.00014 0.0
C294 C 0.78044 0.49629 -0.00894 0.0
C295 C 0.80067 0.48712 0.97943 0.0
C296 C 0.8181 0.50476 0.97211 0.0
C297 C 0.83687 0.50237 0.01025 0.0
C298 C 0.82701 0.50431 0.91856 0.0
C299 C 0.8046 0.52532 -0.01812 0.0
C300 C 0.78288 0.52017 -0.00754 0.0
C301 C 0.76738 0.53656 0.00288 0.0
C302 C 0.77431 0.55875 0.00268 0.0
C303 C 0.79658 0.56434 -0.00759 0.0
C304 C 0.81179 0.54729 0.9817 0.0
H305 H 0.54973 0.8108 0.01951 0.0
H306 H 0.56226 0.77886 0.8774 0.0
H307 H 0.52222 0.77299 0.86614 0.0
H308 H 0.50292 0.77592 0.05649 0.0
H309 H 0.48827 0.79865 0.08462 0.0
H310 H 0.51801 0.79877 0.08328 0.0
H311 H 0.51759 0.83674 0.0393 0.0
H312 H 0.48789 0.83671 0.04036 0.0
H313 H 0.50233 0.8398 -0.0178 0.0
H314 H 0.48066 0.77283 0.86769 0.0
H315 H 0.44078 0.77817 0.88223 0.0
H316 H 0.45535 0.81018 0.02336 0.0
C317 C 0.54412 0.80225 -0.01364 0.0
C318 C 0.5592 0.79521 0.94941 0.0
C319 C 0.55108 0.78435 0.90631 0.0
C320 C 0.52834 0.78092 0.89959 0.0
C321 C 0.51391 0.78837 0.93635 0.0
C322 C 0.52148 0.79873 0.979 0.0
C323 C 0.50247 0.80609 0.01172 0.0
C324 C 0.50295 0.79414 0.062 0.0
C325 C 0.50259 0.83133 0.01878 0.0
C326 C 0.48302 0.79858 0.98042 0.0
C327 C 0.48997 0.78828 0.93724 0.0
C328 C 0.47502 0.78069 0.9016 0.0
C329 C 0.45239 0.78383 0.91018 0.0
C330 C 0.44487 0.79452 0.95401 0.0
C331 C 0.46049 0.80177 -0.01032 0.0
H332 H 0.69471 0.05733 0.4801 0.0
H333 H 0.76483 0.06391 0.45016 0.0
H334 H 0.76927 0.02358 0.45999 0.0
H335 H 0.69887 0.01403 0.57233 0.0
H336 H 0.67423 1.00015 0.55106 0.0
H337 H 0.67692 0.02959 0.54397 0.0
H338 H 0.66978 0.02556 0.44932 0.0
H339 H 0.66712 0.99612 0.45608 0.0
H340 H 0.68691 0.00731 0.41293 0.0
H341 H 0.76567 0.982 0.47091 0.0
H342 H 0.75422 0.94299 0.48095 0.0
H343 H 0.68646 0.96413 0.50245 0.0
C344 C 0.71107 0.05038 0.47607 0.0
C345 C 0.72944 0.06386 0.46453 0.0
C346 C 0.7505 0.05397 0.45908 0.0
C347 C 0.75319 0.03106 0.46464 0.0
C348 C 0.73467 0.01824 0.47558 0.0
C349 C 0.71402 0.02759 0.48123 0.0
C350 C 0.69663 0.01018 0.49132 0.0
C351 C 0.68605 0.0137 0.54273 0.0
C352 C 0.67908 0.00977 0.44994 0.0
C353 C 0.71066 0.98954 0.49017 0.0
C354 C 0.73258 0.99448 0.4813 0.0
C355 C 0.74854 0.97797 0.47803 0.0
C356 C 0.74189 0.95585 0.48378 0.0
C357 C 0.71945 0.95045 0.49249 0.0
C358 C 0.70375 0.96764 0.49589 0.0
H359 H 0.96783 0.69914 0.5109 0.0
H360 H 0.94969 0.75177 0.40993 0.0
H361 H 0.98915 0.75954 0.39471 0.0
H362 H 0.01688 0.72596 0.56331 0.0
H363 H 0.03217 0.7005 0.56639 0.0
H364 H 1.00253 0.70015 0.57204 0.0
H365 H 1.0 0.67218 0.49896 0.0
H366 H 0.02959 0.67248 0.49305 0.0
H367 H 0.01255 0.67893 0.44017 0.0
H368 H 0.03059 0.76015 0.38676 0.0
H369 H 0.07077 0.75342 0.38627 0.0
H370 H 0.06184 0.70034 0.49235 0.0
C371 C 0.97212 0.71251 0.4861 0.0
C372 C 0.95561 0.72491 0.46175 0.0
C373 C 0.962 0.74207 0.42911 0.0
C374 C 0.98439 0.74664 0.42028 0.0
C375 C 1.00022 0.73392 0.44443 0.0
C376 C 0.99438 0.71724 0.47675 0.0
C377 C 0.01457 0.70534 0.49619 0.0
C378 C 0.01666 0.70817 0.55285 0.0
C379 C 0.01415 0.68078 0.48118 0.0
C380 C 0.03269 0.71773 0.46919 0.0
C381 C 0.02408 0.73425 0.43976 0.0
C382 C 0.03753 0.74738 0.40998 0.0
C383 C 0.06035 0.74341 0.40992 0.0
C384 C 0.06953 0.72641 0.43938 0.0
C385 C 0.05542 0.7136 0.46974 0.0
H386 H 0.31739 0.06426 0.50487 0.0
H387 H 0.25545 0.06496 0.42378 0.0
H388 H 0.25232 0.02448 0.43371 0.0
H389 H 0.33784 0.01516 0.45134 0.0
H390 H 0.35097 1.00564 0.50739 0.0
H391 H 0.34736 0.03476 0.49732 0.0
H392 H 0.32649 0.03821 0.58112 0.0
H393 H 0.33011 0.00908 0.59157 0.0
H394 H 0.30282 0.02086 0.59261 0.0
H395 H 0.25689 0.98337 0.44999 0.0
H396 H 0.26917 0.94543 0.46964 0.0
H397 H 0.32848 0.97215 0.53793 0.0
C398 C 0.30298 0.056 0.48978 0.0
C399 C 0.28659 0.06785 0.46378 0.0
C400 C 0.26818 0.05627 0.44399 0.0
C401 C 0.26625 0.03327 0.4495 0.0
C402 C 0.28288 0.02207 0.47478 0.0
C403 C 0.30088 0.03309 0.49459 0.0
C404 C 0.31704 0.0172 0.518 0.0
C405 C 0.33963 0.01826 0.49194 0.0
C406 C 0.31923 0.02161 0.57416 0.0
C407 C 0.30547 0.99547 0.50779 0.0
C408 C 0.2857 0.99857 0.48324 0.0
C409 C 0.27232 0.98078 0.46937 0.0
C410 C 0.27942 0.95929 0.48069 0.0
C411 C 0.2998 0.95578 0.50523 0.0
C412 C 0.31284 0.97421 0.51907 0.0
H413 H 0.0513 0.30122 0.51611 0.0
H414 H 0.06994 0.25467 0.40028 0.0
H415 H 0.03058 0.24749 0.3826 0.0
H416 H 1.00191 0.27148 0.55923 0.0
H417 H 0.98657 0.29655 0.56956 0.0
H418 H 0.01618 0.29659 0.57612 0.0
H419 H 0.01908 0.32835 0.51224 0.0
H420 H 0.98953 0.32839 0.50543 0.0
H421 H 0.00688 0.32489 0.45153 0.0
H422 H 0.98934 0.24727 0.37348 0.0
H423 H 0.94924 0.25427 0.37302 0.0
H424 H 0.95729 0.30107 0.4946 0.0
C425 C 0.04713 0.28924 0.48758 0.0
C426 C 0.06376 0.27843 0.45973 0.0
C427 C 0.05754 0.26312 0.42221 0.0
C428 C 0.03521 0.25889 0.41195 0.0
C429 C 0.01925 0.27006 0.43958 0.0
C430 C 0.02491 0.28488 0.47672 0.0
C431 C 1.00457 0.29562 0.499 0.0
C432 C 1.00217 0.2897 0.55426 0.0
C433 C 1.00505 0.3208 0.49158 0.0
C434 C 0.98662 0.28481 0.46796 0.0
C435 C 0.99543 0.26999 0.4342 0.0
C436 C 0.98223 0.25868 0.40008 0.0
C437 C 0.95944 0.2628 0.40008 0.0
C438 C 0.95005 0.27816 0.43388 0.0
C439 C 0.96388 0.28906 0.46864 0.0
H440 H 0.24377 0.3058 0.08365 0.0
H441 H 0.26882 0.36237 0.00289 0.0
H442 H 0.30473 0.34327 -0.0078 0.0
H443 H 0.29658 0.28961 0.14412 0.0
H444 H 0.29003 0.26071 0.13712 0.0
H445 H 0.26822 0.28055 0.14569 0.0
H446 H 0.24949 0.26659 0.06464 0.0
H447 H 0.2712 0.24685 0.05572 0.0
H448 H 0.26503 0.26642 0.00744 0.0
H449 H 0.33644 0.31518 0.98143 0.0
H450 H 0.3592 0.28141 0.96993 0.0
H451 H 0.31181 0.2441 0.05629 0.0
C452 C 0.25692 0.31448 0.06467 0.0
C453 C 0.25347 0.33559 0.0441 0.0
C454 C 0.27114 0.34625 0.01931 0.0
C455 C 0.29159 0.33551 0.01311 0.0
C456 C 0.29413 0.31429 0.03247 0.0
C457 C 0.27721 0.30406 0.05818 0.0
C458 C 0.28288 0.28054 0.07125 0.0
C459 C 0.28453 0.27769 0.12791 0.0
C460 C 0.26617 0.26416 0.04837 0.0
C461 C 0.30525 0.27863 0.04698 0.0
C462 C 0.31185 0.29831 0.02568 0.0
C463 C 0.33152 0.29982 -0.00135 0.0
C464 C 0.34438 0.28062 -0.00763 0.0
C465 C 0.33719 0.26022 0.0122 0.0
C466 C 0.3177 0.2595 0.04077 0.0
H467 H 0.7763 0.30547 0.02644 0.0
H468 H 0.74196 0.36217 0.96675 0.0
H469 H 0.70663 0.34131 0.97072 0.0
H470 H 0.74995 0.2664 0.95773 0.0
H471 H 0.74918 0.24564 0.0055 0.0
H472 H 0.77044 0.26634 0.00638 0.0
H473 H 0.75915 0.27781 0.09585 0.0
H474 H 0.73784 0.25697 0.0954 0.0
H475 H 0.73093 0.28533 0.1086 0.0
H476 H 0.67596 0.3116 0.9705 0.0
H477 H 0.65402 0.27693 0.96585 0.0
H478 H 0.70965 0.24074 0.02525 0.0
C479 C 0.76129 0.31377 0.01529 0.0
C480 C 0.76186 0.33543 -0.00375 0.0
C481 C 0.74185 0.34563 -0.01811 0.0
C482 C 0.72174 0.33388 -0.01601 0.0
C483 C 0.72194 0.31214 0.0013 0.0
C484 C 0.74128 0.30238 0.0173 0.0
C485 C 0.73788 0.27835 0.03001 0.0
C486 C 0.75273 0.26331 -0.00202 0.0
C487 C 0.74167 0.27439 0.08578 0.0
C488 C 0.71384 0.27567 0.01652 0.0
C489 C 0.70466 0.29534 0.00091 0.0
C490 C 0.68294 0.29624 -0.01654 0.0
C491 C 0.67057 0.27649 0.981 0.0
C492 C 0.68015 0.25615 -0.00487 0.0
C493 C 0.70184 0.25602 0.01423 0.0
H494 H 0.7706 0.72017 0.03115 0.0
H495 H 0.73395 0.66243 -0.01808 0.0
H496 H 0.69973 0.68501 0.97895 0.0
H497 H 0.72768 0.74382 0.10849 0.0
H498 H 0.73521 0.77165 0.09199 0.0
H499 H 0.75589 0.75034 0.09286 0.0
H500 H 0.76605 0.75923 0.00139 0.0
H501 H 0.74539 0.78048 0.00017 0.0
H502 H 0.74478 0.7586 0.95448 0.0
H503 H 0.66963 0.71584 0.97776 0.0
H504 H 0.64785 0.7506 0.97853 0.0
H505 H 0.70593 0.78647 0.02835 0.0
C506 C 0.75541 0.71208 0.01997 0.0
C507 C 0.755 0.68951 0.00655 0.0
C508 C 0.73466 0.67969 -0.00752 0.0
C509 C 0.71517 0.69241 -0.00933 0.0
C510 C 0.71635 0.7148 0.00349 0.0
C511 C 0.73605 0.72438 0.01816 0.0
C512 C 0.73357 0.74873 0.02877 0.0
C513 C 0.73837 0.75393 0.08379 0.0
C514 C 0.74831 0.76256 -0.00587 0.0
C515 C 0.70945 0.75168 0.01682 0.0
C516 C 0.69955 0.73203 0.00269 0.0
C517 C 0.67729 0.73123 -0.01094 0.0
C518 C 0.66503 0.75103 -0.01038 0.0
C519 C 0.67517 0.7713 0.00328 0.0
C520 C 0.69761 0.77135 0.01744 0.0
H521 H 0.24098 0.7139 0.90959 0.0
H522 H 0.27505 0.65584 0.9637 0.0
H523 H 0.30864 0.67858 0.97815 0.0
H524 H 0.28847 0.74055 0.8496 0.0
H525 H 0.2793 0.76765 0.86823 0.0
H526 H 0.2594 0.74608 0.85649 0.0
H527 H 0.24301 0.75194 0.94466 0.0
H528 H 0.26285 0.77341 0.95674 0.0
H529 H 0.26089 0.75017 -0.0019 0.0
H530 H 0.33778 0.7094 -0.00723 0.0
H531 H 0.35808 0.74451 0.00854 0.0
H532 H 0.30324 0.7811 0.94671 0.0
C533 C 0.25557 0.70573 0.92368 0.0
C534 C 0.25535 0.68303 0.93539 0.0
C535 C 0.27484 0.67319 0.95414 0.0
C536 C 0.294 0.68598 0.96242 0.0
C537 C 0.29338 0.70851 0.95148 0.0
C538 C 0.27459 0.71817 0.93229 0.0
C539 C 0.27719 0.74285 0.927 0.0
C540 C 0.27603 0.74967 0.87206 0.0
C541 C 0.25998 0.75531 0.95852 0.0
C542 C 0.30018 0.74582 0.94755 0.0
C543 C 0.30956 0.72591 0.96077 0.0
C544 C 0.33059 0.72501 -0.01786 0.0
C545 C 0.34202 0.74499 -0.00911 0.0
C546 C 0.33216 0.76549 0.97908 0.0
C547 C 0.31118 0.7657 0.95639 0.0
H548 H 0.81235 0.73054 0.54727 0.0
H549 H 0.86929 0.76391 0.4847 0.0
H550 H 0.84777 0.79877 0.48117 0.0
H551 H 0.77269 0.75502 0.47326 0.0
H552 H 0.75209 0.75657 0.52151 0.0
H553 H 0.77282 0.73542 0.5235 0.0
H554 H 0.78447 0.7484 0.61179 0.0
H555 H 0.76366 0.76959 0.61017 0.0
H556 H 0.79206 0.77687 0.622 0.0
H557 H 0.81781 0.82958 0.47914 0.0
H558 H 0.78344 0.85199 0.47848 0.0
H559 H 0.74764 0.79683 0.54209 0.0
C560 C 0.8205 0.74519 0.53329 0.0
C561 C 0.8425 0.74447 0.51612 0.0
C562 C 0.85246 0.7641 0.49828 0.0
C563 C 0.84035 0.78395 0.49613 0.0
C564 C 0.81844 0.78388 0.51249 0.0
C565 C 0.80878 0.76493 0.53109 0.0
C566 C 0.78484 0.76844 0.5442 0.0
C567 C 0.76974 0.75295 0.51378 0.0
C568 C 0.78104 0.76566 0.60038 0.0
C569 C 0.78215 0.79219 0.52877 0.0
C570 C 0.80164 0.80109 0.51111 0.0
C571 C 0.80255 0.82274 0.49332 0.0
C572 C 0.78299 0.83536 0.49311 0.0
C573 C 0.76283 0.82613 0.50997 0.0
C574 C 0.76271 0.8044 0.52864 0.0
H575 H 0.27802 0.79866 0.53756 0.0
H576 H 0.23983 0.85764 0.50754 0.0
H577 H 0.20656 0.83431 0.49388 0.0
H578 H 0.25463 0.76587 0.44437 0.0
H579 H 0.25557 0.74079 0.48008 0.0
H580 H 0.27534 0.76239 0.49181 0.0
H581 H 0.26376 0.76349 0.58466 0.0
H582 H 0.24396 0.74181 0.57324 0.0
H583 H 0.23515 0.76754 0.60063 0.0
H584 H 0.17762 0.80313 0.47965 0.0
H585 H 0.15722 0.76811 0.46373 0.0
H586 H 0.21601 0.73107 0.50149 0.0
C587 C 0.26266 0.80686 0.52878 0.0
C588 C 0.26157 0.83005 0.52385 0.0
C589 C 0.24107 0.83991 0.51177 0.0
C590 C 0.22209 0.82678 0.50399 0.0
C591 C 0.22393 0.80388 0.5085 0.0
C592 C 0.2438 0.79412 0.52068 0.0
C593 C 0.24216 0.76925 0.52068 0.0
C594 C 0.25784 0.75899 0.48192 0.0
C595 C 0.24651 0.75999 0.57291 0.0
C596 C 0.21832 0.76633 0.50582 0.0
C597 C 0.20784 0.78637 0.49944 0.0
C598 C 0.18572 0.7874 0.48477 0.0
C599 C 0.17425 0.76746 0.4759 0.0
C600 C 0.18505 0.74687 0.48109 0.0
C601 C 0.20727 0.7465 0.49683 0.0
H602 H 0.27247 0.21408 0.41439 0.0
H603 H 0.24258 0.15472 0.47429 0.0
H604 H 0.20716 0.17478 0.48432 0.0
H605 H 0.24944 0.25023 0.4976 0.0
H606 H 0.24589 0.27243 0.45397 0.0
H607 H 0.26731 0.25241 0.44422 0.0
H608 H 0.25171 0.24353 0.35655 0.0
H609 H 0.23023 0.26367 0.36592 0.0
H610 H 0.22315 0.23559 0.34987 0.0
H611 H 0.17588 0.20336 0.49563 0.0
H612 H 0.15325 0.23704 0.50918 0.0
H613 H 0.20525 0.27675 0.44392 0.0
C614 C 0.25841 0.20503 0.42865 0.0
C615 C 0.26034 0.18278 0.44344 0.0
C616 C 0.24148 0.17173 0.46233 0.0
C617 C 0.2213 0.18301 0.46814 0.0
C618 C 0.22024 0.20523 0.45451 0.0
C619 C 0.23837 0.21599 0.43484 0.0
C620 C 0.23396 0.24026 0.4271 0.0
C621 C 0.2501 0.25466 0.45756 0.0
C622 C 0.23481 0.2461 0.37156 0.0
C623 C 0.21074 0.2418 0.44708 0.0
C624 C 0.20279 0.22145 0.4619 0.0
C625 C 0.18192 0.2193 0.4836 0.0
C626 C 0.16916 0.23848 0.49109 0.0
C627 C 0.17755 0.25948 0.47775 0.0
C628 C 0.1984 0.26093 0.45462 0.0
H629 H 0.80831 0.2688 0.38174 0.0
H630 H 0.85852 0.23833 0.47326 0.0
H631 H 0.83629 0.2038 0.47548 0.0
H632 H 0.76351 0.24881 0.44404 0.0
H633 H 0.74645 0.24486 0.38977 0.0
H634 H 0.76789 0.2654 0.38942 0.0
H635 H 0.78502 0.2474 0.31071 0.0
H636 H 0.7635 0.22679 0.31065 0.0
H637 H 0.79205 0.21849 0.31123 0.0
H638 H 0.80542 0.17408 0.47551 0.0
H639 H 0.77006 0.15318 0.47328 0.0
H640 H 0.74142 0.20434 0.38158 0.0
C641 C 0.81492 0.25475 0.4015 0.0
C642 C 0.83512 0.25625 0.42742 0.0
C643 C 0.84314 0.23747 0.45283 0.0
C644 C 0.8306 0.21782 0.45429 0.0
C645 C 0.81032 0.21719 0.42947 0.0
C646 C 0.80277 0.23518 0.40305 0.0
C647 C 0.77988 0.23132 0.38257 0.0
C648 C 0.76348 0.24861 0.40268 0.0
C649 C 0.78014 0.23097 0.3254 0.0
C650 C 0.77518 0.20867 0.40322 0.0
C651 C 0.79294 0.20047 0.42954 0.0
C652 C 0.79158 0.18027 0.45434 0.0
C653 C 0.77147 0.16848 0.45285 0.0
C654 C 0.75298 0.17716 0.42738 0.0
C655 C 0.75522 0.19723 0.40143 0.0
H656 H 0.11509 0.33924 0.36678 0.0
H657 H 0.15656 0.38927 0.43485 0.0
H658 H 0.15965 0.40834 0.3546 0.0
H659 H 0.14548 0.33045 0.2723 0.0
H660 H 0.12472 0.32612 0.22515 0.0
H661 H 0.11803 0.32153 0.28901 0.0
H662 H 0.08569 0.34926 0.28343 0.0
H663 H 0.09211 0.3538 0.21878 0.0
H664 H 0.09066 0.37687 0.26128 0.0
H665 H 0.16789 0.41508 0.26656 0.0
H666 H 0.18023 0.40855 0.18017 0.0
H667 H 0.13406 0.35405 0.16753 0.0
C668 C 0.12372 0.3549 0.36521 0.0
C669 C 0.13552 0.36284 0.40672 0.0
C670 C 0.14733 0.38296 0.4033 0.0
C671 C 0.14905 0.394 0.35787 0.0
C672 C 0.13873 0.38479 0.31633 0.0
C673 C 0.12589 0.36585 0.31978 0.0
C674 C 0.12046 0.35663 0.26883 0.0
C675 C 0.12763 0.33228 0.26357 0.0
C676 C 0.09576 0.35931 0.25741 0.0
C677 C 0.13425 0.37179 0.23677 0.0
C678 C 0.14387 0.38855 0.26443 0.0
C679 C 0.15989 0.40251 0.24414 0.0
C680 C 0.16688 0.39867 0.19509 0.0
C681 C 0.15813 0.38074 0.16756 0.0
C682 C 0.14091 0.36794 0.1879 0.0
H683 H 0.63372 0.15584 0.31336 0.0
H684 H 0.68059 0.10228 0.29944 0.0
H685 H 0.66937 0.09688 0.212 0.0
H686 H 0.59184 0.1343 0.21277 0.0
H687 H 0.58728 0.16237 0.19339 0.0
H688 H 0.59232 0.15636 0.25803 0.0
H689 H 0.62462 0.18445 0.25837 0.0
H690 H 0.61989 0.19034 0.19419 0.0
H691 H 0.64676 0.18117 0.2141 0.0
H692 H 0.66267 0.10507 0.12426 0.0
H693 H 0.66089 0.12547 0.04552 0.0
H694 H 0.61809 0.17403 0.11411 0.0
C695 C 0.64087 0.14232 0.29244 0.0
C696 C 0.65807 0.12955 0.31278 0.0
C697 C 0.66726 0.11213 0.28456 0.0
C698 C 0.6609 0.10892 0.23487 0.0
C699 C 0.64506 0.123 0.21457 0.0
C700 C 0.63478 0.13909 0.24292 0.0
C701 C 0.62171 0.15486 0.21087 0.0
C702 C 0.59681 0.15177 0.21926 0.0
C703 C 0.6287 0.1791 0.2199 0.0
C704 C 0.62835 0.14678 0.15977 0.0
C705 C 0.64104 0.1278 0.16265 0.0
C706 C 0.65215 0.11942 0.12134 0.0
C707 C 0.65118 0.13122 0.07682 0.0
C708 C 0.63929 0.15127 0.07402 0.0
C709 C 0.62681 0.15845 0.11515 0.0
H710 H 0.89162 0.67913 0.34124 0.0
H711 H 0.86132 0.62041 0.40237 0.0
H712 H 0.85443 0.60618 0.31776 0.0
H713 H 0.85338 0.68829 0.25791 0.0
H714 H 0.8705 0.69825 0.20795 0.0
H715 H 0.8799 0.70063 0.27096 0.0
H716 H 0.91548 0.67903 0.2492 0.0
H717 H 0.90638 0.67688 0.18549 0.0
H718 H 0.91343 0.65233 0.21954 0.0
H719 H 0.84267 0.60268 0.23031 0.0
H720 H 0.82794 0.60981 0.14632 0.0
H721 H 0.86493 0.67127 0.1415 0.0
C722 C 0.88469 0.66275 0.33651 0.0
C723 C 0.87726 0.65067 0.37784 0.0
C724 C 0.86731 0.62973 0.37082 0.0
C725 C 0.86341 0.62149 0.32294 0.0
C726 C 0.8696 0.63442 0.28259 0.0
C727 C 0.88033 0.6545 0.2888 0.0
C728 C 0.88162 0.66696 0.24028 0.0
C729 C 0.87068 0.68986 0.24458 0.0
C730 C 0.90566 0.6689 0.22258 0.0
C731 C 0.86851 0.65158 0.20696 0.0
C732 C 0.86228 0.63259 0.23156 0.0
C733 C 0.84796 0.61717 0.21012 0.0
C734 C 0.83954 0.62143 0.16256 0.0
C735 C 0.84526 0.6411 0.13744 0.0
C736 C 0.86037 0.65599 0.15958 0.0
H737 H 0.33129 0.88626 0.36754 0.0
H738 H 0.38514 0.84914 0.43206 0.0
H739 H 0.40097 0.84324 0.3486 0.0
H740 H 0.3214 0.85122 0.27546 0.0
H741 H 0.31446 0.87096 0.22805 0.0
H742 H 0.31084 0.87805 0.29236 0.0
H743 H 0.33583 0.91251 0.28184 0.0
H744 H 0.33928 0.90574 0.21692 0.0
H745 H 0.36314 0.90944 0.25614 0.0
H746 H 0.40665 0.83488 0.25871 0.0
H747 H 0.40151 0.82496 0.17 0.0
H748 H 0.34322 0.86637 0.16489 0.0
C749 C 0.34697 0.87782 0.36421 0.0
C750 C 0.35711 0.8683 0.40598 0.0
C751 C 0.37719 0.85665 0.40029 0.0
C752 C 0.38637 0.85331 0.35309 0.0
C753 C 0.37528 0.86182 0.31212 0.0
C754 C 0.35612 0.87406 0.31727 0.0
C755 C 0.3454 0.87824 0.26748 0.0
C756 C 0.32164 0.86905 0.26578 0.0
C757 C 0.34596 0.90295 0.25485 0.0
C758 C 0.36069 0.86524 0.23406 0.0
C759 C 0.3782 0.85641 0.26009 0.0
C760 C 0.3933 0.84211 0.23765 0.0
C761 C 0.39022 0.83648 0.18742 0.0
C762 C 0.37192 0.84481 0.16086 0.0
C763 C 0.35736 0.85973 0.18433 0.0
H764 H 0.12504 0.66267 0.59644 0.0
H765 H 0.17277 0.61807 0.53086 0.0
H766 H 0.177 0.59932 0.61115 0.0
H767 H 0.15275 0.67471 0.69338 0.0
H768 H 0.13094 0.67625 0.73888 0.0
H769 H 0.12472 0.68028 0.6746 0.0
H770 H 0.0958 0.64874 0.67724 0.0
H771 H 0.10175 0.64472 0.74229 0.0
H772 H 0.10366 0.62184 0.69938 0.0
H773 H 0.18485 0.59343 0.69966 0.0
H774 H 0.19507 0.60108 0.78704 0.0
H775 H 0.14262 0.6494 0.79675 0.0
C776 C 0.13542 0.64817 0.59849 0.0
C777 C 0.14857 0.64183 0.55775 0.0
C778 C 0.16253 0.6232 0.56183 0.0
C779 C 0.16491 0.61232 0.60726 0.0
C780 C 0.15305 0.6201 0.6481 0.0
C781 C 0.13819 0.63738 0.6439 0.0
C782 C 0.13095 0.64563 0.69449 0.0
C783 C 0.13513 0.67067 0.70064 0.0
C784 C 0.10659 0.63988 0.7039 0.0
C785 C 0.14594 0.63213 0.72737 0.0
C786 C 0.15785 0.61678 0.70028 0.0
C787 C 0.17511 0.60483 0.72161 0.0
C788 C 0.18089 0.60932 0.77119 0.0
C789 C 0.16969 0.62592 0.79822 0.0
C790 C 0.15138 0.63657 0.77674 0.0
H791 H 0.3302 0.1419 0.62265 0.0
H792 H 0.38316 0.17983 0.55597 0.0
H793 H 0.39905 0.18688 0.63906 0.0
H794 H 0.32086 0.17785 0.71771 0.0
H795 H 0.31442 0.15761 0.76444 0.0
H796 H 0.30995 0.15123 0.69991 0.0
H797 H 0.33477 0.11661 0.70737 0.0
H798 H 0.33918 0.12277 0.77229 0.0
H799 H 0.36246 0.11944 0.73121 0.0
H800 H 0.40619 0.1942 0.72891 0.0
H801 H 0.40331 0.20213 0.81896 0.0
H802 H 0.34479 0.16074 0.82671 0.0
C803 C 0.34559 0.15095 0.62557 0.0
C804 C 0.35564 0.16011 0.5832 0.0
C805 C 0.37532 0.17259 0.58824 0.0
C806 C 0.38453 0.17657 0.63518 0.0
C807 C 0.37378 0.16801 0.67659 0.0
C808 C 0.35477 0.1554 0.67226 0.0
C809 C 0.34476 0.15075 0.72263 0.0
C810 C 0.32111 0.15992 0.72636 0.0
C811 C 0.34534 0.12591 0.73404 0.0
C812 C 0.36057 0.16347 0.75563 0.0
C813 C 0.37749 0.17288 0.72858 0.0
C814 C 0.39324 0.18662 0.75069 0.0
C815 C 0.39144 0.19108 0.80176 0.0
C816 C 0.37381 0.1821 0.82971 0.0
C817 C 0.35849 0.16782 0.80634 0.0
H818 H 0.86181 0.34045 0.81604 0.0
H819 H 0.82288 0.40039 0.8078 0.0
H820 H 0.83135 0.40303 0.71801 0.0
H821 H 0.9042 0.35645 0.72137 0.0
H822 H 0.9058 0.32855 0.69798 0.0
H823 H 0.89975 0.33353 0.76272 0.0
H824 H 0.86403 0.31012 0.75467 0.0
H825 H 0.86991 0.30511 0.69015 0.0
H826 H 0.84392 0.31721 0.708 0.0
H827 H 0.83859 0.3955 0.62827 0.0
H828 H 0.84477 0.379 0.54536 0.0
H829 H 0.88024 0.32473 0.61264 0.0
C830 C 0.85542 0.35442 0.79564 0.0
C831 C 0.84163 0.37019 0.8187 0.0
C832 C 0.83355 0.38818 0.79078 0.0
C833 C 0.83834 0.38984 0.73989 0.0
C834 C 0.85154 0.37362 0.71803 0.0
C835 C 0.86019 0.3564 0.7452 0.0
C836 C 0.87215 0.33997 0.71235 0.0
C837 C 0.89695 0.33962 0.72432 0.0
C838 C 0.86187 0.31675 0.71654 0.0
C839 C 0.8679 0.35001 0.66197 0.0
C840 C 0.85625 0.36958 0.6661 0.0
C841 C 0.84819 0.38053 0.62456 0.0
C842 C 0.85169 0.37099 0.57772 0.0
C843 C 0.86319 0.35077 0.57291 0.0
C844 C 0.87194 0.34051 0.61538 0.0
H845 H 0.62342 0.8351 0.83201 0.0
H846 H 0.65069 0.8955 0.89336 0.0
H847 H 0.65692 0.90971 0.80884 0.0
H848 H 0.66208 0.82725 0.75007 0.0
H849 H 0.6458 0.81625 0.69954 0.0
H850 H 0.63602 0.81384 0.76216 0.0
H851 H 0.59971 0.83376 0.73893 0.0
H852 H 0.60918 0.83589 0.67555 0.0
H853 H 0.60082 0.86033 0.70908 0.0
H854 H 0.66926 0.91308 0.72208 0.0
H855 H 0.68535 0.90585 0.63926 0.0
H856 H 0.651 0.84288 0.63343 0.0
C857 C 0.62945 0.85182 0.82731 0.0
C858 C 0.6363 0.8644 0.86868 0.0
C859 C 0.64513 0.8858 0.86176 0.0
C860 C 0.64866 0.89402 0.81392 0.0
C861 C 0.64322 0.8806 0.7735 0.0
C862 C 0.63345 0.86006 0.77961 0.0
C863 C 0.63308 0.84723 0.73116 0.0
C864 C 0.64496 0.82485 0.73607 0.0
C865 C 0.60928 0.84413 0.71258 0.0
C866 C 0.64575 0.86296 0.69818 0.0
C867 C 0.65086 0.8824 0.72274 0.0
C868 C 0.66481 0.89822 0.70186 0.0
C869 C 0.67402 0.89391 0.65498 0.0
C870 C 0.66946 0.8738 0.62996 0.0
C871 C 0.65465 0.85851 0.65141 0.0
H872 H 0.89544 0.6848 0.67671 0.0
H873 H 0.87827 0.61999 0.62038 0.0
H874 H 0.87233 0.60684 0.70586 0.0
H875 H 0.91813 0.66566 0.80626 0.0
H876 H 0.90561 0.68949 0.83501 0.0
H877 H 0.91669 0.69136 0.77292 0.0
H878 H 0.87891 0.7057 0.74212 0.0
H879 H 0.86748 0.7033 0.80329 0.0
H880 H 0.85451 0.68913 0.75186 0.0
H881 H 0.85764 0.604 0.79072 0.0
H882 H 0.83847 0.61082 0.87032 0.0
H883 H 0.8641 0.67783 0.87239 0.0
C884 C 0.89196 0.66749 0.68297 0.0
C885 C 0.88775 0.65322 0.64261 0.0
C886 C 0.88198 0.63094 0.65128 0.0
C887 C 0.87855 0.62337 0.6997 0.0
C888 C 0.88098 0.63832 0.73887 0.0
C889 C 0.88804 0.65985 0.73121 0.0
C890 C 0.8852 0.67373 0.77776 0.0
C891 C 0.90775 0.68045 0.79927 0.0
C892 C 0.87065 0.69413 0.76813 0.0
C893 C 0.8737 0.65724 0.81101 0.0
C894 C 0.87197 0.63675 0.78854 0.0
C895 C 0.85951 0.61975 0.80946 0.0
C896 C 0.84847 0.62384 0.85439 0.0
C897 C 0.84981 0.64484 0.87753 0.0
C898 C 0.86298 0.66151 0.85592 0.0
H899 H 0.37252 0.86448 0.66669 0.0
H900 H 0.31997 0.91266 0.67713 0.0
H901 H 0.33008 0.91996 0.76469 0.0
H902 H 0.36223 0.83888 0.76827 0.0
H903 H 0.39006 0.83312 0.78805 0.0
H904 H 0.38442 0.83757 0.72364 0.0
H905 H 0.41339 0.86911 0.72153 0.0
H906 H 0.41924 0.86464 0.78647 0.0
H907 H 0.41144 0.8917 0.76522 0.0
H908 H 0.33794 0.91385 0.8531 0.0
H909 H 0.3423 0.89492 0.93317 0.0
H910 H 0.39017 0.85065 0.86686 0.0
C911 C 0.36372 0.87721 0.68692 0.0
C912 C 0.3454 0.88791 0.66558 0.0
C913 C 0.33414 0.90438 0.69288 0.0
C914 C 0.33989 0.9087 0.74254 0.0
C915 C 0.35719 0.89674 0.76367 0.0
C916 C 0.36925 0.88159 0.73629 0.0
C917 C 0.38413 0.8679 0.76911 0.0
C918 C 0.37991 0.84292 0.76185 0.0
C919 C 0.4085 0.8737 0.76004 0.0
C920 C 0.37672 0.87588 0.81972 0.0
C921 C 0.36188 0.89319 0.81581 0.0
C922 C 0.35005 0.90085 0.85678 0.0
C923 C 0.35253 0.88989 0.90209 0.0
C924 C 0.36658 0.87133 0.90591 0.0
C925 C 0.37971 0.8651 0.86504 0.0
H926 H 0.1619 0.3581 0.66706 0.0
H927 H 0.10944 0.30931 0.67427 0.0
H928 H 0.10654 0.31557 0.76511 0.0
H929 H 0.18917 0.34263 0.77099 0.0
H930 H 0.19697 0.36998 0.79133 0.0
H931 H 0.19209 0.36463 0.72651 0.0
H932 H 0.16289 0.39583 0.72443 0.0
H933 H 0.16776 0.40137 0.78946 0.0
H934 H 0.14021 0.39538 0.76783 0.0
H935 H 0.11416 0.32219 0.85538 0.0
H936 H 0.13051 0.3297 0.93784 0.0
H937 H 0.17702 0.3753 0.87101 0.0
C938 C 0.14943 0.34908 0.68754 0.0
C939 C 0.13594 0.33316 0.66389 0.0
C940 C 0.11985 0.32166 0.6918 0.0
C941 C 0.11807 0.32516 0.74329 0.0
C942 C 0.13217 0.34052 0.76573 0.0
C943 C 0.14731 0.35254 0.73855 0.0
C944 C 0.16195 0.36653 0.77171 0.0
C945 C 0.18648 0.36057 0.76472 0.0
C946 C 0.15795 0.39125 0.76283 0.0
C947 C 0.15354 0.35958 0.82212 0.0
C948 C 0.13615 0.3448 0.81792 0.0
C949 C 0.12735 0.33418 0.85921 0.0
C950 C 0.13682 0.33845 0.90579 0.0
C951 C 0.15486 0.35324 0.91061 0.0
C952 C 0.16288 0.36436 0.86845 0.0
H953 H 0.66848 0.15579 0.81476 0.0
H954 H 0.61131 0.19868 0.80711 0.0
H955 H 0.60777 0.19029 0.71728 0.0
H956 H 0.69249 0.17191 0.7068 0.0
H957 H 0.70272 0.14512 0.68869 0.0
H958 H 0.69833 0.15138 0.75327 0.0
H959 H 0.67256 0.11733 0.76116 0.0
H960 H 0.67691 0.11091 0.69636 0.0
H961 H 0.64927 0.11443 0.71986 0.0
H962 H 0.61453 0.1825 0.62739 0.0
H963 H 0.6303 0.17513 0.54437 0.0
H964 H 0.68222 0.1361 0.61124 0.0
C965 C 0.6549 0.16308 0.79447 0.0
C966 C 0.6402 0.17795 0.81769 0.0
C967 C 0.62269 0.18717 0.78995 0.0
C968 C 0.62052 0.18244 0.73905 0.0
C969 C 0.63573 0.16815 0.717 0.0
C970 C 0.65242 0.15838 0.74402 0.0
C971 C 0.66787 0.14529 0.71102 0.0
C972 C 0.69175 0.15396 0.7152 0.0
C973 C 0.66656 0.12052 0.72281 0.0
C974 C 0.658 0.15018 0.66072 0.0
C975 C 0.63928 0.16314 0.66501 0.0
C976 C 0.62878 0.17189 0.62356 0.0
C977 C 0.63792 0.16771 0.57665 0.0
C978 C 0.6573 0.15486 0.57168 0.0
C979 C 0.66705 0.14547 0.61407 0.0
H980 H 0.86093 0.37481 0.31551 0.0
H981 H 0.91347 0.32679 0.30147 0.0
H982 H 0.91999 0.3389 0.21522 0.0
H983 H 0.83635 0.36368 0.21347 0.0
H984 H 0.82809 0.39107 0.1953 0.0
H985 H 0.83315 0.38527 0.25938 0.0
H986 H 0.86202 0.41686 0.26353 0.0
H987 H 0.85688 0.42293 0.19896 0.0
H988 H 0.88457 0.41736 0.21984 0.0
H989 H 0.91295 0.34697 0.12757 0.0
H990 H 0.89336 0.35015 0.04782 0.0
H991 H 0.84524 0.39335 0.11653 0.0
C992 C 0.87445 0.36753 0.29489 0.0
C993 C 0.88661 0.34982 0.31477 0.0
C994 C 0.90406 0.34051 0.28693 0.0
C995 C 0.90792 0.34739 0.23795 0.0
C996 C 0.89448 0.36384 0.218 0.0
C997 C 0.87835 0.37416 0.24608 0.0
C998 C 0.86329 0.38808 0.2141 0.0
C999 C 0.83881 0.3816 0.22095 0.0
C1000 C 0.86692 0.41277 0.22474 0.0
C1001 C 0.87178 0.38192 0.16304 0.0
C1002 C 0.89038 0.3687 0.16614 0.0
C1003 C 0.89891 0.3579 0.12454 0.0
C1004 C 0.88759 0.35968 0.07942 0.0
C1005 C 0.86786 0.37207 0.07632 0.0
C1006 C 0.86061 0.38428 0.11785 0.0
H1007 H 0.62386 0.82911 0.16741 0.0
H1008 H 0.6397 0.89456 0.11432 0.0
H1009 H 0.64648 0.90709 0.20032 0.0
H1010 H 0.60201 0.84673 0.29828 0.0
H1011 H 0.61511 0.82293 0.32525 0.0
H1012 H 0.60381 0.82132 0.26328 0.0
H1013 H 0.64176 0.808 0.23081 0.0
H1014 H 0.65339 0.81017 0.29194 0.0
H1015 H 0.66586 0.82498 0.24116 0.0
H1016 H 0.66135 0.90964 0.28537 0.0
H1017 H 0.68022 0.90283 0.36517 0.0
H1018 H 0.65596 0.8353 0.36336 0.0
C1019 C 0.62728 0.8464 0.17455 0.0
C1020 C 0.63081 0.86106 0.13491 0.0
C1021 C 0.63651 0.88331 0.14469 0.0
C1022 C 0.64042 0.89053 0.19339 0.0
C1023 C 0.63856 0.87525 0.23169 0.0
C1024 C 0.63168 0.8537 0.22302 0.0
C1025 C 0.63497 0.83954 0.26864 0.0
C1026 C 0.61264 0.83221 0.29014 0.0
C1027 C 0.64989 0.81952 0.25742 0.0
C1028 C 0.6463 0.85599 0.30267 0.0
C1029 C 0.64771 0.87662 0.28126 0.0
C1030 C 0.65976 0.89375 0.30324 0.0
C1031 C 0.67062 0.88967 0.34829 0.0
C1032 C 0.66954 0.86855 0.37048 0.0
C1033 C 0.6569 0.8517 0.34762 0.0
H1034 H 0.16836 0.64507 0.29751 0.0
H1035 H 0.11446 0.69202 0.29321 0.0
H1036 H 0.1096 0.68435 0.20335 0.0
H1037 H 0.19304 0.66045 0.19233 0.0
H1038 H 0.20145 0.63336 0.17175 0.0
H1039 H 0.19725 0.63864 0.23673 0.0
H1040 H 0.16908 0.60639 0.24089 0.0
H1041 H 0.17326 0.60094 0.17558 0.0
H1042 H 0.14584 0.60592 0.19903 0.0
H1043 H 0.11594 0.67758 0.11305 0.0
H1044 H 0.13236 0.67194 0.03008 0.0
H1045 H 0.18145 0.62846 0.09379 0.0
C1046 C 0.15512 0.65331 0.27795 0.0
C1047 C 0.14184 0.6692 0.30198 0.0
C1048 C 0.12473 0.6797 0.27535 0.0
C1049 C 0.12181 0.67536 0.22445 0.0
C1050 C 0.13581 0.66015 0.2014 0.0
C1051 C 0.15192 0.64903 0.22756 0.0
C1052 C 0.16658 0.63557 0.19355 0.0
C1053 C 0.191 0.64244 0.19891 0.0
C1054 C 0.16349 0.61073 0.20282 0.0
C1055 C 0.15726 0.64209 0.14371 0.0
C1056 C 0.1392 0.65588 0.149 0.0
C1057 C 0.12963 0.66632 0.10838 0.0
C1058 C 0.13915 0.66311 0.06147 0.0
C1059 C 0.15808 0.64965 0.05571 0.0
C1060 C 0.16668 0.63839 0.09704 0.0
H1061 H 0.32761 0.12344 0.2889 0.0
H1062 H 0.38889 0.14546 0.35504 0.0
H1063 H 0.40692 0.14445 0.27307 0.0
H1064 H 0.35426 0.09152 0.17455 0.0
H1065 H 0.33225 0.10139 0.13551 0.0
H1066 H 0.32684 0.09459 0.19961 0.0
H1067 H 0.31069 0.13367 0.21354 0.0
H1068 H 0.31628 0.14069 0.15028 0.0
H1069 H 0.32748 0.15752 0.19976 0.0
H1070 H 0.4144 0.15334 0.18662 0.0
H1071 H 0.41089 0.17007 0.10371 0.0
H1072 H 0.34492 0.14266 0.09034 0.0
C1073 C 0.34517 0.12654 0.28611 0.0
C1074 C 0.35708 0.13408 0.32777 0.0
C1075 C 0.37973 0.13925 0.32327 0.0
C1076 C 0.39009 0.13865 0.27686 0.0
C1077 C 0.37752 0.13289 0.23535 0.0
C1078 C 0.35559 0.12646 0.23958 0.0
C1079 C 0.34446 0.1258 0.18915 0.0
C1080 C 0.33915 0.1019 0.1738 0.0
C1081 C 0.32354 0.1403 0.18818 0.0
C1082 C 0.3627 0.13527 0.15712 0.0
C1083 C 0.38193 0.13839 0.18396 0.0
C1084 C 0.39974 0.15026 0.16464 0.0
C1085 C 0.39756 0.15985 0.11758 0.0
C1086 C 0.37763 0.15768 0.09064 0.0
C1087 C 0.36049 0.14434 0.10979 0.0
loop_
_geom_bond_atom_site_label_1
_geom_bond_atom_site_label_2
_geom_bond_distance
_geom_bond_site_symmetry_2
_ccdc_geom_bond_type
Zn0 O3 2.031 1_554 S
Zn0 O5 2.049 . S
Zn0 O10 2.067 . S
Zn1 O2 1.962 . S
Zn1 O4 1.986 1_556 S
Zn1 O6 1.996 1_556 S
Zn1 O9 1.942 1_556 S
O2 Zn1 1.962 . S
O2 C7 1.254 . S
O3 Zn0 2.031 1_556 S
O3 C7 1.269 . S
O4 Zn1 1.986 1_554 S
O4 C11 1.262 1_554 S
O5 Zn0 2.049 . S
O5 C13 1.260 . S
O6 Zn1 1.996 1_554 S
O6 C13 1.257 . S
C7 O2 1.254 . S
C7 O3 1.269 . S
C8 O9 1.250 . S
C8 O10 1.270 . S
O9 Zn1 1.942 1_554 S
O9 C8 1.250 . S
O10 Zn0 2.067 . S
O10 C8 1.270 . S
C11 O4 1.262 1_556 S
C11 O12 1.232 . S
O12 C11 1.232 . S
C13 O5 1.260 . S
C13 O6 1.257 . S
Zn14 O17 2.031 1_554 S
Zn14 O19 2.049 . S
Zn14 O24 2.067 . S
Zn15 O16 1.962 . S
Zn15 O18 1.986 1_556 S
Zn15 O20 1.996 1_556 S
Zn15 O23 1.942 1_556 S
O16 Zn15 1.962 . S
O16 C21 1.254 . S
O17 Zn14 2.031 1_556 S
O17 C21 1.269 . S
O18 Zn15 1.986 1_554 S
O18 C25 1.262 1_554 S
O19 Zn14 2.049 . S
O19 C27 1.260 . S
O20 Zn15 1.996 1_554 S
O20 C27 1.257 . S
C21 O16 1.254 . S
C21 O17 1.269 . S
C22 O23 1.250 . S
C22 O24 1.270 . S
O23 Zn15 1.942 1_554 S
O23 C22 1.250 . S
O24 Zn14 2.067 . S
O24 C22 1.270 . S
C25 O18 1.262 1_556 S
C25 O26 1.232 . S
O26 C25 1.232 . S
C27 O19 1.260 . S
C27 O20 1.257 . S
Zn28 O31 2.031 1_554 S
Zn28 O33 2.049 . S
Zn28 O38 2.067 . S
Zn29 O30 1.962 . S
Zn29 O32 1.986 1_556 S
Zn29 O34 1.996 1_556 S
Zn29 O37 1.942 1_556 S
O30 Zn29 1.962 . S
O30 C35 1.254 . S
O31 Zn28 2.031 1_556 S
O31 C35 1.269 . S
O32 Zn29 1.986 1_554 S
O32 C39 1.262 1_554 S
O33 Zn28 2.049 . S
O33 C41 1.260 . S
O34 Zn29 1.996 1_554 S
O34 C41 1.257 . S
C35 O30 1.254 . S
C35 O31 1.269 . S
C36 O37 1.250 . S
C36 O38 1.270 . S
O37 Zn29 1.942 1_554 S
O37 C36 1.250 . S
O38 Zn28 2.067 . S
O38 C36 1.270 . S
C39 O32 1.262 1_556 S
C39 O40 1.232 . S
O40 C39 1.232 . S
C41 O33 1.260 . S
C41 O34 1.257 . S
Zn42 O45 2.031 1_554 S
Zn42 O47 2.049 . S
Zn42 O52 2.067 . S
Zn43 O44 1.962 . S
Zn43 O46 1.986 1_556 S
Zn43 O48 1.996 1_556 S
Zn43 O51 1.942 1_556 S
O44 Zn43 1.962 . S
O44 C49 1.254 . S
O45 Zn42 2.031 1_556 S
O45 C49 1.269 . S
O46 Zn43 1.986 1_554 S
O46 C53 1.262 1_554 S
O47 Zn42 2.049 . S
O47 C55 1.260 . S
O48 Zn43 1.996 1_554 S
O48 C55 1.257 . S
C49 O44 1.254 . S
C49 O45 1.269 . S
C50 O51 1.250 . S
C50 O52 1.270 . S
O51 Zn43 1.942 1_554 S
O51 C50 1.250 . S
O52 Zn42 2.067 . S
O52 C50 1.270 . S
C53 O46 1.262 1_556 S
C53 O54 1.232 . S
O54 C53 1.232 . S
C55 O47 1.260 . S
C55 O48 1.257 . S
Zn56 O59 2.031 1_556 S
Zn56 O61 2.049 . S
Zn56 O66 2.067 . S
Zn57 O58 1.962 . S
Zn57 O60 1.986 1_554 S
Zn57 O62 1.996 1_554 S
Zn57 O65 1.943 . S
O58 Zn57 1.962 . S
O58 C63 1.254 . S
O59 Zn56 2.031 1_554 S
O59 C63 1.269 . S
O60 Zn57 1.986 1_556 S
O60 C67 1.262 1_556 S
O61 Zn56 2.049 . S
O61 C69 1.260 . S
O62 Zn57 1.996 1_556 S
O62 C69 1.257 . S
C63 O58 1.254 . S
C63 O59 1.269 . S
C64 O65 1.248 1_556 S
C64 O66 1.270 . S
O65 Zn57 1.943 . S
O65 C64 1.248 1_554 S
O66 Zn56 2.067 . S
O66 C64 1.270 . S
C67 O60 1.262 1_554 S
C67 O68 1.232 . S
O68 C67 1.232 . S
C69 O61 1.260 . S
C69 O62 1.257 . S
Zn70 O73 2.031 1_556 S
Zn70 O75 2.049 . S
Zn70 O80 2.067 . S
Zn71 O72 1.962 . S
Zn71 O74 1.986 1_554 S
Zn71 O76 1.996 1_554 S
Zn71 O79 1.943 . S
O72 Zn71 1.962 . S
O72 C77 1.254 . S
O73 Zn70 2.031 1_554 S
O73 C77 1.269 . S
O74 Zn71 1.986 1_556 S
O74 C81 1.262 1_556 S
O75 Zn70 2.049 . S
O75 C83 1.260 . S
O76 Zn71 1.996 1_556 S
O76 C83 1.257 . S
C77 O72 1.254 . S
C77 O73 1.269 . S
C78 O79 1.248 1_556 S
C78 O80 1.270 . S
O79 Zn71 1.943 . S
O79 C78 1.248 1_554 S
O80 Zn70 2.067 . S
O80 C78 1.270 . S
C81 O74 1.262 1_554 S
C81 O82 1.232 . S
O82 C81 1.232 . S
C83 O75 1.260 . S
C83 O76 1.257 . S
Zn84 O87 2.031 1_556 S
Zn84 O89 2.049 . S
Zn84 O94 2.067 . S
Zn85 O86 1.962 . S
Zn85 O88 1.986 1_554 S
Zn85 O90 1.996 1_554 S
Zn85 O93 1.943 . S
O86 Zn85 1.962 . S
O86 C91 1.254 . S
O87 Zn84 2.031 1_554 S
O87 C91 1.269 . S
O88 Zn85 1.986 1_556 S
O88 C95 1.262 1_556 S
O89 Zn84 2.049 . S
O89 C97 1.260 . S
O90 Zn85 1.996 1_556 S
O90 C97 1.257 . S
C91 O86 1.254 . S
C91 O87 1.269 . S
C92 O93 1.248 1_556 S
C92 O94 1.270 . S
O93 Zn85 1.943 . S
O93 C92 1.248 1_554 S
O94 Zn84 2.067 . S
O94 C92 1.270 . S
C95 O88 1.262 1_554 S
C95 O96 1.232 . S
O96 C95 1.232 . S
C97 O89 1.260 . S
C97 O90 1.257 . S
Zn98 O101 2.031 1_556 S
Zn98 O103 2.049 . S
Zn98 O108 2.067 . S
Zn99 O100 1.962 . S
Zn99 O102 1.986 1_554 S
Zn99 O104 1.996 1_554 S
Zn99 O107 1.943 . S
O100 Zn99 1.962 . S
O100 C105 1.254 . S
O101 Zn98 2.031 1_554 S
O101 C105 1.269 . S
O102 Zn99 1.986 1_556 S
O102 C109 1.262 1_556 S
O103 Zn98 2.049 . S
O103 C111 1.260 . S
O104 Zn99 1.996 1_556 S
O104 C111 1.257 . S
C105 O100 1.254 . S
C105 O101 1.269 . S
C106 O107 1.248 1_556 S
C106 O108 1.270 . S
O107 Zn99 1.943 . S
O107 C106 1.248 1_554 S
O108 Zn98 2.067 . S
O108 C106 1.270 . S
C109 O102 1.262 1_554 S
C109 O110 1.232 . S
O110 C109 1.232 . S
C111 O103 1.260 . S
C111 O104 1.257 . S
Zn112 O115 2.031 . S
Zn112 O117 2.049 . S
Zn112 O122 2.067 . S
Zn113 O114 1.962 . S
Zn113 O116 1.986 . S
Zn113 O118 1.996 . S
Zn113 O121 1.943 . S
O114 Zn113 1.962 . S
O114 C119 1.254 . S
O115 Zn112 2.031 . S
O115 C119 1.269 . S
O116 Zn113 1.986 . S
O116 C123 1.262 . S
O117 Zn112 2.049 . S
O117 C125 1.260 . S
O118 Zn113 1.996 . S
O118 C125 1.257 . S
C119 O114 1.254 . S
C119 O115 1.269 . S
C120 O121 1.249 . S
C120 O122 1.270 . S
O121 Zn113 1.943 . S
O121 C120 1.249 . S
O122 Zn112 2.067 . S
O122 C120 1.270 . S
C123 O116 1.262 . S
C123 O124 1.232 . S
O124 C123 1.232 . S
C125 O117 1.260 . S
C125 O118 1.257 . S
Zn126 O129 2.031 . S
Zn126 O131 2.049 . S
Zn126 O136 2.067 . S
Zn127 O128 1.962 . S
Zn127 O130 1.986 . S
Zn127 O132 1.996 . S
Zn127 O135 1.943 . S
O128 Zn127 1.962 . S
O128 C133 1.254 . S
O129 Zn126 2.031 . S
O129 C133 1.269 . S
O130 Zn127 1.986 . S
O130 C137 1.262 . S
O131 Zn126 2.049 . S
O131 C139 1.260 . S
O132 Zn127 1.996 . S
O132 C139 1.257 . S
C133 O128 1.254 . S
C133 O129 1.269 . S
C134 O135 1.249 . S
C134 O136 1.270 . S
O135 Zn127 1.943 . S
O135 C134 1.249 . S
O136 Zn126 2.067 . S
O136 C134 1.270 . S
C137 O130 1.262 . S
C137 O138 1.232 . S
O138 C137 1.232 . S
C139 O131 1.260 . S
C139 O132 1.257 . S
Zn140 O143 2.031 . S
Zn140 O145 2.049 . S
Zn140 O150 2.067 . S
Zn141 O142 1.962 . S
Zn141 O144 1.986 . S
Zn141 O146 1.996 . S
Zn141 O149 1.943 . S
O142 Zn141 1.962 . S
O142 C147 1.254 . S
O143 Zn140 2.031 . S
O143 C147 1.269 . S
O144 Zn141 1.986 . S
O144 C151 1.262 . S
O145 Zn140 2.049 . S
O145 C153 1.260 . S
O146 Zn141 1.996 . S
O146 C153 1.257 . S
C147 O142 1.254 . S
C147 O143 1.269 . S
C148 O149 1.249 . S
C148 O150 1.270 . S
O149 Zn141 1.943 . S
O149 C148 1.249 . S
O150 Zn140 2.067 . S
O150 C148 1.270 . S
C151 O144 1.262 . S
C151 O152 1.232 . S
O152 C151 1.232 . S
C153 O145 1.260 . S
C153 O146 1.257 . S
Zn154 O157 2.031 . S
Zn154 O159 2.049 . S
Zn154 O164 2.067 . S
Zn155 O156 1.962 . S
Zn155 O158 1.986 . S
Zn155 O160 1.996 . S
Zn155 O163 1.943 . S
O156 Zn155 1.962 . S
O156 C161 1.254 . S
O157 Zn154 2.031 . S
O157 C161 1.269 . S
O158 Zn155 1.986 . S
O158 C165 1.262 . S
O159 Zn154 2.049 . S
O159 C167 1.260 . S
O160 Zn155 1.996 . S
O160 C167 1.257 . S
C161 O156 1.254 . S
C161 O157 1.269 . S
C162 O163 1.249 . S
C162 O164 1.270 . S
O163 Zn155 1.943 . S
O163 C162 1.249 . S
O164 Zn154 2.067 . S
O164 C162 1.270 . S
C165 O158 1.262 . S
C165 O166 1.232 . S
O166 C165 1.232 . S
C167 O159 1.260 . S
C167 O160 1.257 . S
Zn168 O171 2.031 . S
Zn168 O173 2.049 . S
Zn168 O178 2.067 . S
Zn169 O170 1.962 . S
Zn169 O172 1.986 . S
Zn169 O174 1.996 . S
Zn169 O177 1.943 . S
O170 Zn169 1.962 . S
O170 C175 1.254 . S
O171 Zn168 2.031 . S
O171 C175 1.269 . S
O172 Zn169 1.986 . S
O172 C179 1.262 . S
O173 Zn168 2.049 . S
O173 C181 1.260 . S
O174 Zn169 1.996 . S
O174 C181 1.257 . S
C175 O170 1.254 . S
C175 O171 1.269 . S
C176 O177 1.249 . S
C176 O178 1.270 . S
O177 Zn169 1.943 . S
O177 C176 1.249 . S
O178 Zn168 2.067 . S
O178 C176 1.270 . S
C179 O172 1.262 . S
C179 O180 1.232 . S
O180 C179 1.232 . S
C181 O173 1.260 . S
C181 O174 1.257 . S
Zn182 O185 2.031 . S
Zn182 O187 2.049 . S
Zn182 O192 2.067 . S
Zn183 O184 1.962 . S
Zn183 O186 1.986 . S
Zn183 O188 1.996 . S
Zn183 O191 1.943 . S
O184 Zn183 1.962 . S
O184 C189 1.254 . S
O185 Zn182 2.031 . S
O185 C189 1.269 . S
O186 Zn183 1.986 . S
O186 C193 1.262 . S
O187 Zn182 2.049 . S
O187 C195 1.260 . S
O188 Zn183 1.996 . S
O188 C195 1.257 . S
C189 O184 1.254 . S
C189 O185 1.269 . S
C190 O191 1.249 . S
C190 O192 1.270 . S
O191 Zn183 1.943 . S
O191 C190 1.249 . S
O192 Zn182 2.067 . S
O192 C190 1.270 . S
C193 O186 1.262 . S
C193 O194 1.232 . S
O194 C193 1.232 . S
C195 O187 1.260 . S
C195 O188 1.257 . S
Zn196 O199 2.031 . S
Zn196 O201 2.049 . S
Zn196 O206 2.067 . S
Zn197 O198 1.962 . S
Zn197 O200 1.986 . S
Zn197 O202 1.996 . S
Zn197 O205 1.943 . S
O198 Zn197 1.962 . S
O198 C203 1.254 . S
O199 Zn196 2.031 . S
O199 C203 1.269 . S
O200 Zn197 1.986 . S
O200 C207 1.262 . S
O201 Zn196 2.049 . S
O201 C209 1.260 . S
O202 Zn197 1.996 . S
O202 C209 1.257 . S
C203 O198 1.254 . S
C203 O199 1.269 . S
C204 O205 1.249 . S
C204 O206 1.270 . S
O205 Zn197 1.943 . S
O205 C204 1.249 . S
O206 Zn196 2.067 . S
O206 C204 1.270 . S
C207 O200 1.262 . S
C207 O208 1.232 . S
O208 C207 1.232 . S
C209 O201 1.260 . S
C209 O202 1.257 . S
Zn210 O213 2.031 . S
Zn210 O215 2.049 . S
Zn210 O220 2.067 . S
Zn211 O212 1.962 . S
Zn211 O214 1.986 . S
Zn211 O216 1.996 . S
Zn211 O219 1.943 . S
O212 Zn211 1.962 . S
O212 C217 1.254 . S
O213 Zn210 2.031 . S
O213 C217 1.269 . S
O214 Zn211 1.986 . S
O214 C221 1.262 . S
O215 Zn210 2.049 . S
O215 C223 1.260 . S
O216 Zn211 1.996 . S
O216 C223 1.257 . S
C217 O212 1.254 . S
C217 O213 1.269 . S
C218 O219 1.249 . S
C218 O220 1.270 . S
O219 Zn211 1.943 . S
O219 C218 1.249 . S
O220 Zn210 2.067 . S
O220 C218 1.270 . S
C221 O214 1.262 . S
C221 O222 1.232 . S
O222 C221 1.232 . S
C223 O215 1.260 . S
C223 O216 1.257 . S
H224 C236 0.930 . S
H225 C238 0.930 . S
H226 C239 0.930 . S
H227 C243 0.959 . S
H228 C243 0.959 . S
H229 C243 0.961 . S
H230 C244 0.960 . S
H231 C244 0.961 . S
H232 C244 0.959 . S
H233 C247 0.929 . S
H234 C248 0.931 . S
H235 C250 0.930 . S
C236 H224 0.930 . S
C236 C237 1.399 1_554 S
C236 C241 1.399 . S
C237 C236 1.399 1_556 S
C237 C238 1.376 . S
C238 H225 0.930 . S
C238 C237 1.376 . S
C238 C239 1.388 . S
C239 H226 0.930 . S
C239 C238 1.388 . S
C239 C240 1.390 . S
C240 C239 1.390 . S
C240 C241 1.394 1_556 S
C240 C246 1.465 . S
C241 C236 1.399 . S
C241 C240 1.394 1_554 S
C241 C242 1.516 . S
C242 C241 1.516 . S
C242 C243 1.502 . S
C242 C244 1.561 . S
C242 C245 1.526 . S
C243 H227 0.959 . S
C243 H228 0.959 . S
C243 H229 0.961 . S
C243 C242 1.502 . S
C244 H230 0.960 . S
C244 H231 0.961 . S
C244 H232 0.959 . S
C244 C242 1.561 . S
C245 C242 1.526 . S
C245 C246 1.396 1_554 S
C245 C250 1.390 . S
C246 C240 1.465 . S
C246 C245 1.396 1_556 S
C246 C247 1.399 . S
C247 H233 0.929 . S
C247 C246 1.399 . S
C247 C248 1.385 . S
C248 H234 0.931 . S
C248 C247 1.385 . S
C248 C249 1.389 . S
C249 C248 1.389 . S
C249 C250 1.387 1_556 S
C250 H235 0.930 . S
C250 C245 1.390 . S
C250 C249 1.387 1_554 S
H251 C263 0.930 . S
H252 C265 0.930 . S
H253 C266 0.930 . S
H254 C270 0.959 . S
H255 C270 0.959 . S
H256 C270 0.961 . S
H257 C271 0.960 . S
H258 C271 0.961 . S
H259 C271 0.959 . S
H260 C274 0.929 . S
H261 C275 0.931 . S
H262 C277 0.930 . S
C263 H251 0.930 . S
C263 C264 1.399 1_554 S
C263 C268 1.399 . S
C264 C263 1.399 1_556 S
C264 C265 1.376 . S
C265 H252 0.930 . S
C265 C264 1.376 . S
C265 C266 1.388 . S
C266 H253 0.930 . S
C266 C265 1.388 . S
C266 C267 1.390 . S
C267 C266 1.390 . S
C267 C268 1.394 1_556 S
C267 C273 1.465 . S
C268 C263 1.399 . S
C268 C267 1.394 1_554 S
C268 C269 1.516 . S
C269 C268 1.516 . S
C269 C270 1.502 . S
C269 C271 1.561 1_554 S
C269 C272 1.526 . S
C270 H254 0.959 . S
C270 H255 0.959 . S
C270 H256 0.961 . S
C270 C269 1.502 . S
C271 H257 0.960 . S
C271 H258 0.961 . S
C271 H259 0.959 . S
C271 C269 1.561 1_556 S
C272 C269 1.526 . S
C272 C273 1.396 1_554 S
C272 C277 1.390 . S
C273 C267 1.465 . S
C273 C272 1.396 1_556 S
C273 C274 1.399 . S
C274 H260 0.929 . S
C274 C273 1.399 . S
C274 C275 1.385 . S
C275 H261 0.931 . S
C275 C274 1.385 . S
C275 C276 1.389 . S
C276 C275 1.389 . S
C276 C277 1.387 1_556 S
C277 H262 0.930 . S
C277 C272 1.390 . S
C277 C276 1.387 1_554 S
H278 C290 0.930 . S
H279 C292 0.930 . S
H280 C293 0.930 . S
H281 C297 0.959 . S
H282 C297 0.959 . S
H283 C297 0.961 . S
H284 C298 0.960 . S
H285 C298 0.961 . S
H286 C298 0.959 . S
H287 C301 0.929 . S
H288 C302 0.931 . S
H289 C304 0.930 . S
C290 H278 0.930 . S
C290 C291 1.399 1_556 S
C290 C295 1.399 . S
C291 C290 1.399 1_554 S
C291 C292 1.376 . S
C292 H279 0.930 . S
C292 C291 1.376 . S
C292 C293 1.388 . S
C293 H280 0.930 . S
C293 C292 1.388 . S
C293 C294 1.390 . S
C294 C293 1.390 . S
C294 C295 1.394 1_554 S
C294 C300 1.465 . S
C295 C290 1.399 . S
C295 C294 1.394 1_556 S
C295 C296 1.516 . S
C296 C295 1.516 . S
C296 C297 1.502 . S
C296 C298 1.561 . S
C296 C299 1.526 . S
C297 H281 0.959 . S
C297 H282 0.959 . S
C297 H283 0.961 . S
C297 C296 1.502 . S
C298 H284 0.960 . S
C298 H285 0.961 . S
C298 H286 0.959 . S
C298 C296 1.561 . S
C299 C296 1.526 . S
C299 C300 1.396 1_556 S
C299 C304 1.390 . S
C300 C294 1.465 . S
C300 C299 1.396 1_554 S
C300 C301 1.399 . S
C301 H287 0.929 . S
C301 C300 1.399 . S
C301 C302 1.385 . S
C302 H288 0.931 . S
C302 C301 1.385 . S
C302 C303 1.389 . S
C303 C302 1.389 . S
C303 C304 1.387 1_554 S
C304 H289 0.930 . S
C304 C299 1.390 . S
C304 C303 1.387 1_556 S
H305 C317 0.930 . S
H306 C319 0.930 . S
H307 C320 0.930 . S
H308 C324 0.959 . S
H309 C324 0.959 . S
H310 C324 0.961 . S
H311 C325 0.960 . S
H312 C325 0.961 . S
H313 C325 0.959 . S
H314 C328 0.929 . S
H315 C329 0.931 . S
H316 C331 0.930 . S
C317 H305 0.930 . S
C317 C318 1.399 1_554 S
C317 C322 1.399 . S
C318 C317 1.399 1_556 S
C318 C319 1.376 . S
C319 H306 0.930 . S
C319 C318 1.376 . S
C319 C320 1.388 . S
C320 H307 0.930 . S
C320 C319 1.388 . S
C320 C321 1.390 . S
C321 C320 1.390 . S
C321 C322 1.394 1_556 S
C321 C327 1.465 . S
C322 C317 1.399 . S
C322 C321 1.394 1_554 S
C322 C323 1.516 . S
C323 C322 1.516 . S
C323 C324 1.502 . S
C323 C325 1.561 1_554 S
C323 C326 1.526 . S
C324 H308 0.959 . S
C324 H309 0.959 . S
C324 H310 0.961 . S
C324 C323 1.502 . S
C325 H311 0.960 . S
C325 H312 0.961 . S
C325 H313 0.959 . S
C325 C323 1.561 1_556 S
C326 C323 1.526 . S
C326 C327 1.396 1_554 S
C326 C331 1.390 . S
C327 C321 1.465 . S
C327 C326 1.396 1_556 S
C327 C328 1.399 . S
C328 H314 0.929 . S
C328 C327 1.399 . S
C328 C329 1.385 . S
C329 H315 0.931 . S
C329 C328 1.385 . S
C329 C330 1.389 . S
C330 C329 1.389 . S
C330 C331 1.387 1_556 S
C331 H316 0.930 . S
C331 C326 1.390 . S
C331 C330 1.387 1_554 S
H332 C344 0.930 . S
H333 C346 0.930 . S
H334 C347 0.930 . S
H335 C351 0.959 . S
H336 C351 0.959 . S
H337 C351 0.961 1_545 S
H338 C352 0.923 1_545 S
H339 C352 0.996 . S
H340 C352 0.963 . S
H341 C355 0.929 . S
H342 C356 0.931 . S
H343 C358 0.930 . S
C344 H332 0.930 . S
C344 C345 1.399 . S
C344 C349 1.399 . S
C345 C344 1.399 . S
C345 C346 1.376 . S
C346 H333 0.930 . S
C346 C345 1.376 . S
C346 C347 1.388 . S
C347 H334 0.930 . S
C347 C346 1.388 . S
C347 C348 1.390 . S
C348 C347 1.390 . S
C348 C349 1.394 . S
C348 C354 1.465 1_545 S
C349 C344 1.399 . S
C349 C348 1.394 . S
C349 C350 1.498 1_545 S
C350 C349 1.498 1_565 S
C350 C351 1.503 . S
C350 C352 1.561 . S
C350 C353 1.544 . S
C351 H335 0.959 . S
C351 H336 0.959 . S
C351 H337 0.961 1_565 S
C351 C350 1.503 . S
C352 H338 0.923 1_565 S
C352 H339 0.996 . S
C352 H340 0.963 . S
C352 C350 1.561 . S
C353 C350 1.544 . S
C353 C354 1.396 . S
C353 C358 1.390 . S
C354 C348 1.465 1_565 S
C354 C353 1.396 . S
C354 C355 1.399 . S
C355 H341 0.929 . S
C355 C354 1.399 . S
C355 C356 1.385 . S
C356 H342 0.931 . S
C356 C355 1.385 . S
C356 C357 1.389 . S
C357 C356 1.389 . S
C357 C358 1.387 . S
C358 H343 0.930 . S
C358 C353 1.390 . S
C358 C357 1.387 . S
H359 C371 0.930 . S
H360 C373 0.930 . S
H361 C374 0.930 . S
H362 C378 0.960 1_455 S
H363 C378 0.960 1_455 S
H364 C378 0.960 . S
H365 C379 0.958 1_655 S
H366 C379 0.962 . S
H367 C379 0.959 . S
H368 C382 0.929 . S
H369 C383 0.931 . S
H370 C385 0.930 . S
C371 H359 0.930 . S
C371 C372 1.399 . S
C371 C376 1.399 . S
C372 C371 1.399 . S
C372 C373 1.376 . S
C373 H360 0.930 . S
C373 C372 1.376 . S
C373 C374 1.388 . S
C374 H361 0.930 . S
C374 C373 1.388 . S
C374 C375 1.390 . S
C375 C374 1.390 . S
C375 C376 1.394 . S
C375 C381 1.465 1_655 S
C376 C371 1.399 . S
C376 C375 1.394 . S
C376 C377 1.517 . S
C377 C376 1.517 . S
C377 C378 1.502 . S
C377 C379 1.561 1_655 S
C377 C380 1.525 1_655 S
C378 H362 0.960 1_655 S
C378 H363 0.960 1_655 S
C378 H364 0.960 . S
C378 C377 1.502 . S
C379 H365 0.958 1_455 S
C379 H366 0.962 . S
C379 H367 0.959 . S
C379 C377 1.561 1_455 S
C380 C377 1.525 1_455 S
C380 C381 1.396 . S
C380 C385 1.390 . S
C381 C375 1.465 1_455 S
C381 C380 1.396 . S
C381 C382 1.399 . S
C382 H368 0.929 . S
C382 C381 1.399 . S
C382 C383 1.385 . S
C383 H369 0.931 . S
C383 C382 1.385 . S
C383 C384 1.389 . S
C384 C383 1.389 . S
C384 C385 1.387 . S
C385 H370 0.930 . S
C385 C380 1.390 . S
C385 C384 1.387 . S
H386 C398 0.930 . S
H387 C400 0.930 . S
H388 C401 0.930 . S
H389 C405 0.959 . S
H390 C405 0.959 . S
H391 C405 0.961 1_545 S
H392 C406 0.922 1_545 S
H393 C406 0.997 . S
H394 C406 0.963 . S
H395 C409 0.929 . S
H396 C410 0.931 . S
H397 C412 0.930 . S
C398 H386 0.930 . S
C398 C399 1.399 . S
C398 C403 1.399 . S
C399 C398 1.399 . S
C399 C400 1.376 . S
C400 H387 0.930 . S
C400 C399 1.376 . S
C400 C401 1.388 . S
C401 H388 0.930 . S
C401 C400 1.388 . S
C401 C402 1.390 . S
C402 C401 1.390 . S
C402 C403 1.394 . S
C402 C408 1.465 1_545 S
C403 C398 1.399 . S
C403 C402 1.394 . S
C403 C404 1.498 1_545 S
C404 C403 1.498 1_565 S
C404 C405 1.502 . S
C404 C406 1.561 . S
C404 C407 1.544 . S
C405 H389 0.959 . S
C405 H390 0.959 . S
C405 H391 0.961 1_565 S
C405 C404 1.502 . S
C406 H392 0.922 1_565 S
C406 H393 0.997 . S
C406 H394 0.963 . S
C406 C404 1.561 . S
C407 C404 1.544 . S
C407 C408 1.396 . S
C407 C412 1.390 . S
C408 C402 1.465 1_565 S
C408 C407 1.396 . S
C408 C409 1.399 . S
C409 H395 0.929 . S
C409 C408 1.399 . S
C409 C410 1.385 . S
C410 H396 0.931 . S
C410 C409 1.385 . S
C410 C411 1.389 . S
C411 C410 1.389 . S
C411 C412 1.387 . S
C412 H397 0.930 . S
C412 C407 1.390 . S
C412 C411 1.387 . S
H413 C425 0.930 . S
H414 C427 0.930 . S
H415 C428 0.930 . S
H416 C432 0.959 1_655 S
H417 C432 0.958 1_655 S
H418 C432 0.962 . S
H419 C433 0.962 1_455 S
H420 C433 0.959 . S
H421 C433 0.959 . S
H422 C436 0.929 . S
H423 C437 0.931 . S
H424 C439 0.930 . S
C425 H413 0.930 . S
C425 C426 1.399 . S
C425 C430 1.399 . S
C426 C425 1.399 . S
C426 C427 1.376 . S
C427 H414 0.930 . S
C427 C426 1.376 . S
C427 C428 1.388 . S
C428 H415 0.930 . S
C428 C427 1.388 . S
C428 C429 1.390 . S
C429 C428 1.390 . S
C429 C430 1.394 . S
C429 C435 1.465 1_455 S
C430 C425 1.399 . S
C430 C429 1.394 . S
C430 C431 1.519 . S
C431 C430 1.519 . S
C431 C432 1.502 . S
C431 C433 1.561 1_455 S
C431 C434 1.523 1_455 S
C432 H416 0.959 1_455 S
C432 H417 0.958 1_455 S
C432 H418 0.962 . S
C432 C431 1.502 . S
C433 H419 0.962 1_655 S
C433 H420 0.959 . S
C433 H421 0.959 . S
C433 C431 1.561 1_655 S
C434 C431 1.523 1_655 S
C434 C435 1.396 . S
C434 C439 1.390 . S
C435 C429 1.465 1_655 S
C435 C434 1.396 . S
C435 C436 1.399 . S
C436 H422 0.929 . S
C436 C435 1.399 . S
C436 C437 1.385 . S
C437 H423 0.931 . S
C437 C436 1.385 . S
C437 C438 1.389 . S
C438 C437 1.389 . S
C438 C439 1.387 . S
C439 H424 0.930 . S
C439 C434 1.390 . S
C439 C438 1.387 . S
H440 C452 0.930 . S
H441 C454 0.930 . S
H442 C455 0.930 . S
H443 C459 0.959 . S
H444 C459 0.959 . S
H445 C459 0.961 . S
H446 C460 0.960 . S
H447 C460 0.961 . S
H448 C460 0.959 . S
H449 C463 0.929 . S
H450 C464 0.931 . S
H451 C466 0.930 . S
C452 H440 0.930 . S
C452 C453 1.399 1_554 S
C452 C457 1.399 . S
C453 C452 1.399 1_556 S
C453 C454 1.376 . S
C454 H441 0.930 . S
C454 C453 1.376 . S
C454 C455 1.388 . S
C455 H442 0.930 . S
C455 C454 1.388 . S
C455 C456 1.390 . S
C456 C455 1.390 . S
C456 C457 1.394 1_556 S
C456 C462 1.465 . S
C457 C452 1.399 . S
C457 C456 1.394 1_554 S
C457 C458 1.516 . S
C458 C457 1.516 . S
C458 C459 1.502 . S
C458 C460 1.561 . S
C458 C461 1.526 . S
C459 H443 0.959 . S
C459 H444 0.959 . S
C459 H445 0.961 . S
C459 C458 1.502 . S
C460 H446 0.960 . S
C460 H447 0.961 . S
C460 H448 0.959 . S
C460 C458 1.561 . S
C461 C458 1.526 . S
C461 C462 1.396 1_554 S
C461 C466 1.390 . S
C462 C456 1.465 . S
C462 C461 1.396 1_556 S
C462 C463 1.399 . S
C463 H449 0.929 . S
C463 C462 1.399 . S
C463 C464 1.385 . S
C464 H450 0.931 . S
C464 C463 1.385 . S
C464 C465 1.386 1_556 S
C465 C464 1.386 1_554 S
C465 C466 1.389 . S
C466 H451 0.930 . S
C466 C461 1.390 . S
C466 C465 1.389 . S
H467 C479 0.930 . S
H468 C481 0.930 . S
H469 C482 0.930 . S
H470 C486 0.959 . S
H471 C486 0.959 . S
H472 C486 0.961 . S
H473 C487 0.960 . S
H474 C487 0.961 . S
H475 C487 0.959 . S
H476 C490 0.929 . S
H477 C491 0.931 . S
H478 C493 0.930 . S
C479 H467 0.930 . S
C479 C480 1.399 . S
C479 C484 1.399 . S
C480 C479 1.399 . S
C480 C481 1.376 . S
C481 H468 0.930 . S
C481 C480 1.376 . S
C481 C482 1.388 . S
C482 H469 0.930 . S
C482 C481 1.388 . S
C482 C483 1.390 . S
C483 C482 1.390 . S
C483 C484 1.394 . S
C483 C489 1.465 . S
C484 C479 1.399 . S
C484 C483 1.394 . S
C484 C485 1.516 . S
C485 C484 1.516 . S
C485 C486 1.502 1_554 S
C485 C487 1.561 . S
C485 C488 1.526 . S
C486 H470 0.959 . S
C486 H471 0.959 . S
C486 H472 0.961 . S
C486 C485 1.502 1_556 S
C487 H473 0.960 . S
C487 H474 0.961 . S
C487 H475 0.959 . S
C487 C485 1.561 . S
C488 C485 1.526 . S
C488 C489 1.396 . S
C488 C493 1.390 1_554 S
C489 C483 1.465 . S
C489 C488 1.396 . S
C489 C490 1.399 . S
C490 H476 0.929 . S
C490 C489 1.399 . S
C490 C491 1.385 . S
C491 H477 0.931 . S
C491 C490 1.385 . S
C491 C492 1.389 1_554 S
C492 C491 1.389 1_556 S
C492 C493 1.387 . S
C493 H478 0.930 . S
C493 C488 1.390 1_556 S
C493 C492 1.387 . S
H494 C506 0.930 . S
H495 C508 0.930 . S
H496 C509 0.930 . S
H497 C513 0.959 . S
H498 C513 0.959 . S
H499 C513 0.961 . S
H500 C514 0.960 . S
H501 C514 0.961 . S
H502 C514 0.959 . S
H503 C517 0.929 . S
H504 C518 0.931 . S
H505 C520 0.930 . S
C506 H494 0.930 . S
C506 C507 1.399 1_554 S
C506 C511 1.399 . S
C507 C506 1.399 1_556 S
C507 C508 1.376 . S
C508 H495 0.930 . S
C508 C507 1.376 . S
C508 C509 1.388 . S
C509 H496 0.930 . S
C509 C508 1.388 . S
C509 C510 1.390 . S
C510 C509 1.390 . S
C510 C511 1.394 1_556 S
C510 C516 1.465 . S
C511 C506 1.399 . S
C511 C510 1.394 1_554 S
C511 C512 1.516 . S
C512 C511 1.516 . S
C512 C513 1.502 . S
C512 C514 1.561 . S
C512 C515 1.526 . S
C513 H497 0.959 . S
C513 H498 0.959 . S
C513 H499 0.961 . S
C513 C512 1.502 . S
C514 H500 0.960 . S
C514 H501 0.961 . S
C514 H502 0.959 . S
C514 C512 1.561 . S
C515 C512 1.526 . S
C515 C516 1.396 1_554 S
C515 C520 1.390 . S
C516 C510 1.465 . S
C516 C515 1.396 1_556 S
C516 C517 1.399 . S
C517 H503 0.929 . S
C517 C516 1.399 . S
C517 C518 1.385 . S
C518 H504 0.931 . S
C518 C517 1.385 . S
C518 C519 1.384 1_556 S
C519 C518 1.384 1_554 S
C519 C520 1.391 . S
C520 H505 0.930 . S
C520 C515 1.390 . S
C520 C519 1.391 . S
H521 C533 0.930 . S
H522 C535 0.930 . S
H523 C536 0.930 . S
H524 C540 0.959 . S
H525 C540 0.959 . S
H526 C540 0.961 . S
H527 C541 0.960 . S
H528 C541 0.961 . S
H529 C541 0.959 . S
H530 C544 0.929 . S
H531 C545 0.931 . S
H532 C547 0.930 . S
C533 H521 0.930 . S
C533 C534 1.399 1_556 S
C533 C538 1.399 . S
C534 C533 1.399 1_554 S
C534 C535 1.376 . S
C535 H522 0.930 . S
C535 C534 1.376 . S
C535 C536 1.388 . S
C536 H523 0.930 . S
C536 C535 1.388 . S
C536 C537 1.390 . S
C537 C536 1.390 . S
C537 C538 1.394 1_554 S
C537 C543 1.465 . S
C538 C533 1.399 . S
C538 C537 1.394 1_556 S
C538 C539 1.516 . S
C539 C538 1.516 . S
C539 C540 1.502 . S
C539 C541 1.561 . S
C539 C542 1.526 . S
C540 H524 0.959 . S
C540 H525 0.959 . S
C540 H526 0.961 . S
C540 C539 1.502 . S
C541 H527 0.960 . S
C541 H528 0.961 . S
C541 H529 0.959 . S
C541 C539 1.561 . S
C542 C539 1.526 . S
C542 C543 1.396 1_556 S
C542 C547 1.390 . S
C543 C537 1.465 . S
C543 C542 1.396 1_554 S
C543 C544 1.399 . S
C544 H530 0.929 . S
C544 C543 1.399 . S
C544 C545 1.385 . S
C545 H531 0.931 . S
C545 C544 1.385 . S
C545 C546 1.402 . S
C546 C545 1.402 . S
C546 C547 1.377 1_554 S
C547 H532 0.930 . S
C547 C542 1.390 . S
C547 C546 1.377 1_556 S
H548 C560 0.930 . S
H549 C562 0.930 . S
H550 C563 0.930 . S
H551 C567 0.959 . S
H552 C567 0.959 . S
H553 C567 0.961 . S
H554 C568 0.960 . S
H555 C568 0.961 . S
H556 C568 0.959 . S
H557 C571 0.929 . S
H558 C572 0.931 . S
H559 C574 0.930 . S
C560 H548 0.930 . S
C560 C561 1.399 . S
C560 C565 1.399 . S
C561 C560 1.399 . S
C561 C562 1.376 . S
C562 H549 0.930 . S
C562 C561 1.376 . S
C562 C563 1.388 . S
C563 H550 0.930 . S
C563 C562 1.388 . S
C563 C564 1.390 . S
C564 C563 1.390 . S
C564 C565 1.394 . S
C564 C570 1.465 . S
C565 C560 1.399 . S
C565 C564 1.394 . S
C565 C566 1.516 . S
C566 C565 1.516 . S
C566 C567 1.502 . S
C566 C568 1.561 . S
C566 C569 1.526 . S
C567 H551 0.959 . S
C567 H552 0.959 . S
C567 H553 0.961 . S
C567 C566 1.502 . S
C568 H554 0.960 . S
C568 H555 0.961 . S
C568 H556 0.959 . S
C568 C566 1.561 . S
C569 C566 1.526 . S
C569 C570 1.396 . S
C569 C574 1.390 . S
C570 C564 1.465 . S
C570 C569 1.396 . S
C570 C571 1.399 . S
C571 H557 0.929 . S
C571 C570 1.399 . S
C571 C572 1.385 . S
C572 H558 0.931 . S
C572 C571 1.385 . S
C572 C573 1.389 . S
C573 C572 1.389 . S
C573 C574 1.387 . S
C574 H559 0.930 . S
C574 C569 1.390 . S
C574 C573 1.387 . S
H575 C587 0.930 . S
H576 C589 0.930 . S
H577 C590 0.930 . S
H578 C594 0.959 . S
H579 C594 0.959 . S
H580 C594 0.961 . S
H581 C595 0.960 . S
H582 C595 0.961 . S
H583 C595 0.959 . S
H584 C598 0.929 . S
H585 C599 0.931 . S
H586 C601 0.930 . S
C587 H575 0.930 . S
C587 C588 1.399 . S
C587 C592 1.399 . S
C588 C587 1.399 . S
C588 C589 1.376 . S
C589 H576 0.930 . S
C589 C588 1.376 . S
C589 C590 1.388 . S
C590 H577 0.930 . S
C590 C589 1.388 . S
C590 C591 1.390 . S
C591 C590 1.390 . S
C591 C592 1.394 . S
C591 C597 1.465 . S
C592 C587 1.399 . S
C592 C591 1.394 . S
C592 C593 1.516 . S
C593 C592 1.516 . S
C593 C594 1.502 . S
C593 C595 1.561 . S
C593 C596 1.526 . S
C594 H578 0.959 . S
C594 H579 0.959 . S
C594 H580 0.961 . S
C594 C593 1.502 . S
C595 H581 0.960 . S
C595 H582 0.961 . S
C595 H583 0.959 . S
C595 C593 1.561 . S
C596 C593 1.526 . S
C596 C597 1.396 . S
C596 C601 1.390 . S
C597 C591 1.465 . S
C597 C596 1.396 . S
C597 C598 1.399 . S
C598 H584 0.929 . S
C598 C597 1.399 . S
C598 C599 1.385 . S
C599 H585 0.931 . S
C599 C598 1.385 . S
C599 C600 1.389 . S
C600 C599 1.389 . S
C600 C601 1.387 . S
C601 H586 0.930 . S
C601 C596 1.390 . S
C601 C600 1.387 . S
H602 C614 0.930 . S
H603 C616 0.930 . S
H604 C617 0.930 . S
H605 C621 0.959 . S
H606 C621 0.959 . S
H607 C621 0.961 . S
H608 C622 0.960 . S
H609 C622 0.961 . S
H610 C622 0.959 . S
H611 C625 0.929 . S
H612 C626 0.931 . S
H613 C628 0.930 . S
C614 H602 0.930 . S
C614 C615 1.399 . S
C614 C619 1.399 . S
C615 C614 1.399 . S
C615 C616 1.376 . S
C616 H603 0.930 . S
C616 C615 1.376 . S
C616 C617 1.388 . S
C617 H604 0.930 . S
C617 C616 1.388 . S
C617 C618 1.390 . S
C618 C617 1.390 . S
C618 C619 1.394 . S
C618 C624 1.465 . S
C619 C614 1.399 . S
C619 C618 1.394 . S
C619 C620 1.516 . S
C620 C619 1.516 . S
C620 C621 1.502 . S
C620 C622 1.561 . S
C620 C623 1.526 . S
C621 H605 0.959 . S
C621 H606 0.959 . S
C621 H607 0.961 . S
C621 C620 1.502 . S
C622 H608 0.960 . S
C622 H609 0.961 . S
C622 H610 0.959 . S
C622 C620 1.561 . S
C623 C620 1.526 . S
C623 C624 1.396 . S
C623 C628 1.390 . S
C624 C618 1.465 . S
C624 C623 1.396 . S
C624 C625 1.399 . S
C625 H611 0.929 . S
C625 C624 1.399 . S
C625 C626 1.385 . S
C626 H612 0.931 . S
C626 C625 1.385 . S
C626 C627 1.389 . S
C627 C626 1.389 . S
C627 C628 1.387 . S
C628 H613 0.930 . S
C628 C623 1.390 . S
C628 C627 1.387 . S
H629 C641 0.930 . S
H630 C643 0.930 . S
H631 C644 0.930 . S
H632 C648 0.959 . S
H633 C648 0.959 . S
H634 C648 0.961 . S
H635 C649 0.960 . S
H636 C649 0.961 . S
H637 C649 0.959 . S
H638 C652 0.929 . S
H639 C653 0.931 . S
H640 C655 0.930 . S
C641 H629 0.930 . S
C641 C642 1.399 . S
C641 C646 1.399 . S
C642 C641 1.399 . S
C642 C643 1.376 . S
C643 H630 0.930 . S
C643 C642 1.376 . S
C643 C644 1.388 . S
C644 H631 0.930 . S
C644 C643 1.388 . S
C644 C645 1.390 . S
C645 C644 1.390 . S
C645 C646 1.394 . S
C645 C651 1.465 . S
C646 C641 1.399 . S
C646 C645 1.394 . S
C646 C647 1.516 . S
C647 C646 1.516 . S
C647 C648 1.502 . S
C647 C649 1.561 . S
C647 C650 1.526 . S
C648 H632 0.959 . S
C648 H633 0.959 . S
C648 H634 0.961 . S
C648 C647 1.502 . S
C649 H635 0.960 . S
C649 H636 0.961 . S
C649 H637 0.959 . S
C649 C647 1.561 . S
C650 C647 1.526 . S
C650 C651 1.396 . S
C650 C655 1.390 . S
C651 C645 1.465 . S
C651 C650 1.396 . S
C651 C652 1.399 . S
C652 H638 0.929 . S
C652 C651 1.399 . S
C652 C653 1.385 . S
C653 H639 0.931 . S
C653 C652 1.385 . S
C653 C654 1.389 . S
C654 C653 1.389 . S
C654 C655 1.387 . S
C655 H640 0.930 . S
C655 C650 1.390 . S
C655 C654 1.387 . S
H656 C668 0.930 . S
H657 C670 0.930 . S
H658 C671 0.930 . S
H659 C675 0.959 . S
H660 C675 0.959 . S
H661 C675 0.961 . S
H662 C676 0.960 . S
H663 C676 0.961 . S
H664 C676 0.959 . S
H665 C679 0.929 . S
H666 C680 0.931 . S
H667 C682 0.930 . S
C668 H656 0.930 . S
C668 C669 1.399 . S
C668 C673 1.399 . S
C669 C668 1.399 . S
C669 C670 1.376 . S
C670 H657 0.930 . S
C670 C669 1.376 . S
C670 C671 1.388 . S
C671 H658 0.930 . S
C671 C670 1.388 . S
C671 C672 1.390 . S
C672 C671 1.390 . S
C672 C673 1.394 . S
C672 C678 1.465 . S
C673 C668 1.399 . S
C673 C672 1.394 . S
C673 C674 1.516 . S
C674 C673 1.516 . S
C674 C675 1.502 . S
C674 C676 1.561 . S
C674 C677 1.526 . S
C675 H659 0.959 . S
C675 H660 0.959 . S
C675 H661 0.961 . S
C675 C674 1.502 . S
C676 H662 0.960 . S
C676 H663 0.961 . S
C676 H664 0.959 . S
C676 C674 1.561 . S
C677 C674 1.526 . S
C677 C678 1.396 . S
C677 C682 1.390 . S
C678 C672 1.465 . S
C678 C677 1.396 . S
C678 C679 1.399 . S
C679 H665 0.929 . S
C679 C678 1.399 . S
C679 C680 1.385 . S
C680 H666 0.931 . S
C680 C679 1.385 . S
C680 C681 1.389 . S
C681 C680 1.389 . S
C681 C682 1.387 . S
C682 H667 0.930 . S
C682 C677 1.390 . S
C682 C681 1.387 . S
H683 C695 0.930 . S
H684 C697 0.930 . S
H685 C698 0.930 . S
H686 C702 0.959 . S
H687 C702 0.959 . S
H688 C702 0.961 . S
H689 C703 0.960 . S
H690 C703 0.961 . S
H691 C703 0.959 . S
H692 C706 0.929 . S
H693 C707 0.931 . S
H694 C709 0.930 . S
C695 H683 0.930 . S
C695 C696 1.399 . S
C695 C700 1.399 . S
C696 C695 1.399 . S
C696 C697 1.376 . S
C697 H684 0.930 . S
C697 C696 1.376 . S
C697 C698 1.388 . S
C698 H685 0.930 . S
C698 C697 1.388 . S
C698 C699 1.390 . S
C699 C698 1.390 . S
C699 C700 1.394 . S
C699 C705 1.465 . S
C700 C695 1.399 . S
C700 C699 1.394 . S
C700 C701 1.516 . S
C701 C700 1.516 . S
C701 C702 1.502 . S
C701 C703 1.561 . S
C701 C704 1.526 . S
C702 H686 0.959 . S
C702 H687 0.959 . S
C702 H688 0.961 . S
C702 C701 1.502 . S
C703 H689 0.960 . S
C703 H690 0.961 . S
C703 H691 0.959 . S
C703 C701 1.561 . S
C704 C701 1.526 . S
C704 C705 1.396 . S
C704 C709 1.390 . S
C705 C699 1.465 . S
C705 C704 1.396 . S
C705 C706 1.399 . S
C706 H692 0.929 . S
C706 C705 1.399 . S
C706 C707 1.385 . S
C707 H693 0.931 . S
C707 C706 1.385 . S
C707 C708 1.389 . S
C708 C707 1.389 . S
C708 C709 1.387 . S
C709 H694 0.930 . S
C709 C704 1.390 . S
C709 C708 1.387 . S
H710 C722 0.930 . S
H711 C724 0.930 . S
H712 C725 0.930 . S
H713 C729 0.959 . S
H714 C729 0.959 . S
H715 C729 0.961 . S
H716 C730 0.960 . S
H717 C730 0.961 . S
H718 C730 0.959 . S
H719 C733 0.929 . S
H720 C734 0.931 . S
H721 C736 0.930 . S
C722 H710 0.930 . S
C722 C723 1.399 . S
C722 C727 1.399 . S
C723 C722 1.399 . S
C723 C724 1.376 . S
C724 H711 0.930 . S
C724 C723 1.376 . S
C724 C725 1.388 . S
C725 H712 0.930 . S
C725 C724 1.388 . S
C725 C726 1.390 . S
C726 C725 1.390 . S
C726 C727 1.394 . S
C726 C732 1.465 . S
C727 C722 1.399 . S
C727 C726 1.394 . S
C727 C728 1.516 . S
C728 C727 1.516 . S
C728 C729 1.502 . S
C728 C730 1.561 . S
C728 C731 1.526 . S
C729 H713 0.959 . S
C729 H714 0.959 . S
C729 H715 0.961 . S
C729 C728 1.502 . S
C730 H716 0.960 . S
C730 H717 0.961 . S
C730 H718 0.959 . S
C730 C728 1.561 . S
C731 C728 1.526 . S
C731 C732 1.396 . S
C731 C736 1.390 . S
C732 C726 1.465 . S
C732 C731 1.396 . S
C732 C733 1.399 . S
C733 H719 0.929 . S
C733 C732 1.399 . S
C733 C734 1.385 . S
C734 H720 0.931 . S
C734 C733 1.385 . S
C734 C735 1.389 . S
C735 C734 1.389 . S
C735 C736 1.387 . S
C736 H721 0.930 . S
C736 C731 1.390 . S
C736 C735 1.387 . S
H737 C749 0.930 . S
H738 C751 0.930 . S
H739 C752 0.930 . S
H740 C756 0.959 . S
H741 C756 0.959 . S
H742 C756 0.961 . S
H743 C757 0.960 . S
H744 C757 0.961 . S
H745 C757 0.959 . S
H746 C760 0.929 . S
H747 C761 0.931 . S
H748 C763 0.930 . S
C749 H737 0.930 . S
C749 C750 1.399 . S
C749 C754 1.399 . S
C750 C749 1.399 . S
C750 C751 1.376 . S
C751 H738 0.930 . S
C751 C750 1.376 . S
C751 C752 1.388 . S
C752 H739 0.930 . S
C752 C751 1.388 . S
C752 C753 1.390 . S
C753 C752 1.390 . S
C753 C754 1.394 . S
C753 C759 1.465 . S
C754 C749 1.399 . S
C754 C753 1.394 . S
C754 C755 1.516 . S
C755 C754 1.516 . S
C755 C756 1.502 . S
C755 C757 1.561 . S
C755 C758 1.526 . S
C756 H740 0.959 . S
C756 H741 0.959 . S
C756 H742 0.961 . S
C756 C755 1.502 . S
C757 H743 0.960 . S
C757 H744 0.961 . S
C757 H745 0.959 . S
C757 C755 1.561 . S
C758 C755 1.526 . S
C758 C759 1.396 . S
C758 C763 1.390 . S
C759 C753 1.465 . S
C759 C758 1.396 . S
C759 C760 1.399 . S
C760 H746 0.929 . S
C760 C759 1.399 . S
C760 C761 1.385 . S
C761 H747 0.931 . S
C761 C760 1.385 . S
C761 C762 1.389 . S
C762 C761 1.389 . S
C762 C763 1.387 . S
C763 H748 0.930 . S
C763 C758 1.390 . S
C763 C762 1.387 . S
H764 C776 0.930 . S
H765 C778 0.930 . S
H766 C779 0.930 . S
H767 C783 0.959 . S
H768 C783 0.959 . S
H769 C783 0.961 . S
H770 C784 0.960 . S
H771 C784 0.961 . S
H772 C784 0.959 . S
H773 C787 0.929 . S
H774 C788 0.931 . S
H775 C790 0.930 . S
C776 H764 0.930 . S
C776 C777 1.399 . S
C776 C781 1.399 . S
C777 C776 1.399 . S
C777 C778 1.376 . S
C778 H765 0.930 . S
C778 C777 1.376 . S
C778 C779 1.388 . S
C779 H766 0.930 . S
C779 C778 1.388 . S
C779 C780 1.390 . S
C780 C779 1.390 . S
C780 C781 1.394 . S
C780 C786 1.465 . S
C781 C776 1.399 . S
C781 C780 1.394 . S
C781 C782 1.516 . S
C782 C781 1.516 . S
C782 C783 1.502 . S
C782 C784 1.561 . S
C782 C785 1.526 . S
C783 H767 0.959 . S
C783 H768 0.959 . S
C783 H769 0.961 . S
C783 C782 1.502 . S
C784 H770 0.960 . S
C784 H771 0.961 . S
C784 H772 0.959 . S
C784 C782 1.561 . S
C785 C782 1.526 . S
C785 C786 1.396 . S
C785 C790 1.390 . S
C786 C780 1.465 . S
C786 C785 1.396 . S
C786 C787 1.399 . S
C787 H773 0.929 . S
C787 C786 1.399 . S
C787 C788 1.385 . S
C788 H774 0.931 . S
C788 C787 1.385 . S
C788 C789 1.389 . S
C789 C788 1.389 . S
C789 C790 1.387 . S
C790 H775 0.930 . S
C790 C785 1.390 . S
C790 C789 1.387 . S
H791 C803 0.930 . S
H792 C805 0.930 . S
H793 C806 0.930 . S
H794 C810 0.959 . S
H795 C810 0.959 . S
H796 C810 0.961 . S
H797 C811 0.960 . S
H798 C811 0.961 . S
H799 C811 0.959 . S
H800 C814 0.929 . S
H801 C815 0.931 . S
H802 C817 0.930 . S
C803 H791 0.930 . S
C803 C804 1.399 . S
C803 C808 1.399 . S
C804 C803 1.399 . S
C804 C805 1.376 . S
C805 H792 0.930 . S
C805 C804 1.376 . S
C805 C806 1.388 . S
C806 H793 0.930 . S
C806 C805 1.388 . S
C806 C807 1.390 . S
C807 C806 1.390 . S
C807 C808 1.394 . S
C807 C813 1.465 . S
C808 C803 1.399 . S
C808 C807 1.394 . S
C808 C809 1.516 . S
C809 C808 1.516 . S
C809 C810 1.502 . S
C809 C811 1.561 . S
C809 C812 1.526 . S
C810 H794 0.959 . S
C810 H795 0.959 . S
C810 H796 0.961 . S
C810 C809 1.502 . S
C811 H797 0.960 . S
C811 H798 0.961 . S
C811 H799 0.959 . S
C811 C809 1.561 . S
C812 C809 1.526 . S
C812 C813 1.396 . S
C812 C817 1.390 . S
C813 C807 1.465 . S
C813 C812 1.396 . S
C813 C814 1.399 . S
C814 H800 0.929 . S
C814 C813 1.399 . S
C814 C815 1.385 . S
C815 H801 0.931 . S
C815 C814 1.385 . S
C815 C816 1.389 . S
C816 C815 1.389 . S
C816 C817 1.387 . S
C817 H802 0.930 . S
C817 C812 1.390 . S
C817 C816 1.387 . S
H818 C830 0.930 . S
H819 C832 0.930 . S
H820 C833 0.930 . S
H821 C837 0.959 . S
H822 C837 0.959 . S
H823 C837 0.961 . S
H824 C838 0.960 . S
H825 C838 0.961 . S
H826 C838 0.959 . S
H827 C841 0.929 . S
H828 C842 0.931 . S
H829 C844 0.930 . S
C830 H818 0.930 . S
C830 C831 1.399 . S
C830 C835 1.399 . S
C831 C830 1.399 . S
C831 C832 1.376 . S
C832 H819 0.930 . S
C832 C831 1.376 . S
C832 C833 1.388 . S
C833 H820 0.930 . S
C833 C832 1.388 . S
C833 C834 1.390 . S
C834 C833 1.390 . S
C834 C835 1.394 . S
C834 C840 1.465 . S
C835 C830 1.399 . S
C835 C834 1.394 . S
C835 C836 1.516 . S
C836 C835 1.516 . S
C836 C837 1.502 . S
C836 C838 1.561 . S
C836 C839 1.526 . S
C837 H821 0.959 . S
C837 H822 0.959 . S
C837 H823 0.961 . S
C837 C836 1.502 . S
C838 H824 0.960 . S
C838 H825 0.961 . S
C838 H826 0.959 . S
C838 C836 1.561 . S
C839 C836 1.526 . S
C839 C840 1.396 . S
C839 C844 1.390 . S
C840 C834 1.465 . S
C840 C839 1.396 . S
C840 C841 1.399 . S
C841 H827 0.929 . S
C841 C840 1.399 . S
C841 C842 1.385 . S
C842 H828 0.931 . S
C842 C841 1.385 . S
C842 C843 1.389 . S
C843 C842 1.389 . S
C843 C844 1.387 . S
C844 H829 0.930 . S
C844 C839 1.390 . S
C844 C843 1.387 . S
H845 C857 0.930 . S
H846 C859 0.930 . S
H847 C860 0.930 . S
H848 C864 0.959 . S
H849 C864 0.959 . S
H850 C864 0.961 . S
H851 C865 0.960 . S
H852 C865 0.961 . S
H853 C865 0.959 . S
H854 C868 0.929 . S
H855 C869 0.931 . S
H856 C871 0.930 . S
C857 H845 0.930 . S
C857 C858 1.399 . S
C857 C862 1.399 . S
C858 C857 1.399 . S
C858 C859 1.376 . S
C859 H846 0.930 . S
C859 C858 1.376 . S
C859 C860 1.388 . S
C860 H847 0.930 . S
C860 C859 1.388 . S
C860 C861 1.390 . S
C861 C860 1.390 . S
C861 C862 1.394 . S
C861 C867 1.465 . S
C862 C857 1.399 . S
C862 C861 1.394 . S
C862 C863 1.516 . S
C863 C862 1.516 . S
C863 C864 1.502 . S
C863 C865 1.561 . S
C863 C866 1.526 . S
C864 H848 0.959 . S
C864 H849 0.959 . S
C864 H850 0.961 . S
C864 C863 1.502 . S
C865 H851 0.960 . S
C865 H852 0.961 . S
C865 H853 0.959 . S
C865 C863 1.561 . S
C866 C863 1.526 . S
C866 C867 1.396 . S
C866 C871 1.390 . S
C867 C861 1.465 . S
C867 C866 1.396 . S
C867 C868 1.399 . S
C868 H854 0.929 . S
C868 C867 1.399 . S
C868 C869 1.385 . S
C869 H855 0.931 . S
C869 C868 1.385 . S
C869 C870 1.389 . S
C870 C869 1.389 . S
C870 C871 1.387 . S
C871 H856 0.930 . S
C871 C866 1.390 . S
C871 C870 1.387 . S
H872 C884 0.930 . S
H873 C886 0.930 . S
H874 C887 0.930 . S
H875 C891 0.959 . S
H876 C891 0.959 . S
H877 C891 0.961 . S
H878 C892 0.960 . S
H879 C892 0.961 . S
H880 C892 0.959 . S
H881 C895 0.929 . S
H882 C896 0.931 . S
H883 C898 0.930 . S
C884 H872 0.930 . S
C884 C885 1.399 . S
C884 C889 1.399 . S
C885 C884 1.399 . S
C885 C886 1.376 . S
C886 H873 0.930 . S
C886 C885 1.376 . S
C886 C887 1.388 . S
C887 H874 0.930 . S
C887 C886 1.388 . S
C887 C888 1.390 . S
C888 C887 1.390 . S
C888 C889 1.394 . S
C888 C894 1.465 . S
C889 C884 1.399 . S
C889 C888 1.394 . S
C889 C890 1.516 . S
C890 C889 1.516 . S
C890 C891 1.502 . S
C890 C892 1.561 . S
C890 C893 1.526 . S
C891 H875 0.959 . S
C891 H876 0.959 . S
C891 H877 0.961 . S
C891 C890 1.502 . S
C892 H878 0.960 . S
C892 H879 0.961 . S
C892 H880 0.959 . S
C892 C890 1.561 . S
C893 C890 1.526 . S
C893 C894 1.396 . S
C893 C898 1.390 . S
C894 C888 1.465 . S
C894 C893 1.396 . S
C894 C895 1.399 . S
C895 H881 0.929 . S
C895 C894 1.399 . S
C895 C896 1.385 . S
C896 H882 0.931 . S
C896 C895 1.385 . S
C896 C897 1.389 . S
C897 C896 1.389 . S
C897 C898 1.387 . S
C898 H883 0.930 . S
C898 C893 1.390 . S
C898 C897 1.387 . S
H899 C911 0.930 . S
H900 C913 0.930 . S
H901 C914 0.930 . S
H902 C918 0.959 . S
H903 C918 0.959 . S
H904 C918 0.961 . S
H905 C919 0.960 . S
H906 C919 0.961 . S
H907 C919 0.959 . S
H908 C922 0.929 . S
H909 C923 0.931 . S
H910 C925 0.930 . S
C911 H899 0.930 . S
C911 C912 1.399 . S
C911 C916 1.399 . S
C912 C911 1.399 . S
C912 C913 1.376 . S
C913 H900 0.930 . S
C913 C912 1.376 . S
C913 C914 1.388 . S
C914 H901 0.930 . S
C914 C913 1.388 . S
C914 C915 1.390 . S
C915 C914 1.390 . S
C915 C916 1.394 . S
C915 C921 1.465 . S
C916 C911 1.399 . S
C916 C915 1.394 . S
C916 C917 1.516 . S
C917 C916 1.516 . S
C917 C918 1.502 . S
C917 C919 1.561 . S
C917 C920 1.526 . S
C918 H902 0.959 . S
C918 H903 0.959 . S
C918 H904 0.961 . S
C918 C917 1.502 . S
C919 H905 0.960 . S
C919 H906 0.961 . S
C919 H907 0.959 . S
C919 C917 1.561 . S
C920 C917 1.526 . S
C920 C921 1.396 . S
C920 C925 1.390 . S
C921 C915 1.465 . S
C921 C920 1.396 . S
C921 C922 1.399 . S
C922 H908 0.929 . S
C922 C921 1.399 . S
C922 C923 1.385 . S
C923 H909 0.931 . S
C923 C922 1.385 . S
C923 C924 1.389 . S
C924 C923 1.389 . S
C924 C925 1.387 . S
C925 H910 0.930 . S
C925 C920 1.390 . S
C925 C924 1.387 . S
H926 C938 0.930 . S
H927 C940 0.930 . S
H928 C941 0.930 . S
H929 C945 0.959 . S
H930 C945 0.959 . S
H931 C945 0.961 . S
H932 C946 0.960 . S
H933 C946 0.961 . S
H934 C946 0.959 . S
H935 C949 0.929 . S
H936 C950 0.931 . S
H937 C952 0.930 . S
C938 H926 0.930 . S
C938 C939 1.399 . S
C938 C943 1.399 . S
C939 C938 1.399 . S
C939 C940 1.376 . S
C940 H927 0.930 . S
C940 C939 1.376 . S
C940 C941 1.388 . S
C941 H928 0.930 . S
C941 C940 1.388 . S
C941 C942 1.390 . S
C942 C941 1.390 . S
C942 C943 1.394 . S
C942 C948 1.465 . S
C943 C938 1.399 . S
C943 C942 1.394 . S
C943 C944 1.516 . S
C944 C943 1.516 . S
C944 C945 1.502 . S
C944 C946 1.561 . S
C944 C947 1.526 . S
C945 H929 0.959 . S
C945 H930 0.959 . S
C945 H931 0.961 . S
C945 C944 1.502 . S
C946 H932 0.960 . S
C946 H933 0.961 . S
C946 H934 0.959 . S
C946 C944 1.561 . S
C947 C944 1.526 . S
C947 C948 1.396 . S
C947 C952 1.390 . S
C948 C942 1.465 . S
C948 C947 1.396 . S
C948 C949 1.399 . S
C949 H935 0.929 . S
C949 C948 1.399 . S
C949 C950 1.385 . S
C950 H936 0.931 . S
C950 C949 1.385 . S
C950 C951 1.389 . S
C951 C950 1.389 . S
C951 C952 1.387 . S
C952 H937 0.930 . S
C952 C947 1.390 . S
C952 C951 1.387 . S
H953 C965 0.930 . S
H954 C967 0.930 . S
H955 C968 0.930 . S
H956 C972 0.959 . S
H957 C972 0.959 . S
H958 C972 0.961 . S
H959 C973 0.960 . S
H960 C973 0.961 . S
H961 C973 0.959 . S
H962 C976 0.929 . S
H963 C977 0.931 . S
H964 C979 0.930 . S
C965 H953 0.930 . S
C965 C966 1.399 . S
C965 C970 1.399 . S
C966 C965 1.399 . S
C966 C967 1.376 . S
C967 H954 0.930 . S
C967 C966 1.376 . S
C967 C968 1.388 . S
C968 H955 0.930 . S
C968 C967 1.388 . S
C968 C969 1.390 . S
C969 C968 1.390 . S
C969 C970 1.394 . S
C969 C975 1.465 . S
C970 C965 1.399 . S
C970 C969 1.394 . S
C970 C971 1.516 . S
C971 C970 1.516 . S
C971 C972 1.502 . S
C971 C973 1.561 . S
C971 C974 1.526 . S
C972 H956 0.959 . S
C972 H957 0.959 . S
C972 H958 0.961 . S
C972 C971 1.502 . S
C973 H959 0.960 . S
C973 H960 0.961 . S
C973 H961 0.959 . S
C973 C971 1.561 . S
C974 C971 1.526 . S
C974 C975 1.396 . S
C974 C979 1.390 . S
C975 C969 1.465 . S
C975 C974 1.396 . S
C975 C976 1.399 . S
C976 H962 0.929 . S
C976 C975 1.399 . S
C976 C977 1.385 . S
C977 H963 0.931 . S
C977 C976 1.385 . S
C977 C978 1.389 . S
C978 C977 1.389 . S
C978 C979 1.387 . S
C979 H964 0.930 . S
C979 C974 1.390 . S
C979 C978 1.387 . S
H980 C992 0.930 . S
H981 C994 0.930 . S
H982 C995 0.930 . S
H983 C999 0.959 . S
H984 C999 0.959 . S
H985 C999 0.961 . S
H986 C1000 0.960 . S
H987 C1000 0.961 . S
H988 C1000 0.959 . S
H989 C1003 0.929 . S
H990 C1004 0.931 . S
H991 C1006 0.930 . S
C992 H980 0.930 . S
C992 C993 1.399 . S
C992 C997 1.399 . S
C993 C992 1.399 . S
C993 C994 1.376 . S
C994 H981 0.930 . S
C994 C993 1.376 . S
C994 C995 1.388 . S
C995 H982 0.930 . S
C995 C994 1.388 . S
C995 C996 1.390 . S
C996 C995 1.390 . S
C996 C997 1.394 . S
C996 C1002 1.465 . S
C997 C992 1.399 . S
C997 C996 1.394 . S
C997 C998 1.516 . S
C998 C997 1.516 . S
C998 C999 1.502 . S
C998 C1000 1.561 . S
C998 C1001 1.526 . S
C999 H983 0.959 . S
C999 H984 0.959 . S
C999 H985 0.961 . S
C999 C998 1.502 . S
C1000 H986 0.960 . S
C1000 H987 0.961 . S
C1000 H988 0.959 . S
C1000 C998 1.561 . S
C1001 C998 1.526 . S
C1001 C1002 1.396 . S
C1001 C1006 1.390 . S
C1002 C996 1.465 . S
C1002 C1001 1.396 . S
C1002 C1003 1.399 . S
C1003 H989 0.929 . S
C1003 C1002 1.399 . S
C1003 C1004 1.385 . S
C1004 H990 0.931 . S
C1004 C1003 1.385 . S
C1004 C1005 1.389 . S
C1005 C1004 1.389 . S
C1005 C1006 1.387 . S
C1006 H991 0.930 . S
C1006 C1001 1.390 . S
C1006 C1005 1.387 . S
H1007 C1019 0.930 . S
H1008 C1021 0.930 . S
H1009 C1022 0.930 . S
H1010 C1026 0.959 . S
H1011 C1026 0.959 . S
H1012 C1026 0.961 . S
H1013 C1027 0.960 . S
H1014 C1027 0.961 . S
H1015 C1027 0.959 . S
H1016 C1030 0.929 . S
H1017 C1031 0.931 . S
H1018 C1033 0.930 . S
C1019 H1007 0.930 . S
C1019 C1020 1.399 . S
C1019 C1024 1.399 . S
C1020 C1019 1.399 . S
C1020 C1021 1.376 . S
C1021 H1008 0.930 . S
C1021 C1020 1.376 . S
C1021 C1022 1.388 . S
C1022 H1009 0.930 . S
C1022 C1021 1.388 . S
C1022 C1023 1.390 . S
C1023 C1022 1.390 . S
C1023 C1024 1.394 . S
C1023 C1029 1.465 . S
C1024 C1019 1.399 . S
C1024 C1023 1.394 . S
C1024 C1025 1.516 . S
C1025 C1024 1.516 . S
C1025 C1026 1.502 . S
C1025 C1027 1.561 . S
C1025 C1028 1.526 . S
C1026 H1010 0.959 . S
C1026 H1011 0.959 . S
C1026 H1012 0.961 . S
C1026 C1025 1.502 . S
C1027 H1013 0.960 . S
C1027 H1014 0.961 . S
C1027 H1015 0.959 . S
C1027 C1025 1.561 . S
C1028 C1025 1.526 . S
C1028 C1029 1.396 . S
C1028 C1033 1.390 . S
C1029 C1023 1.465 . S
C1029 C1028 1.396 . S
C1029 C1030 1.399 . S
C1030 H1016 0.929 . S
C1030 C1029 1.399 . S
C1030 C1031 1.385 . S
C1031 H1017 0.931 . S
C1031 C1030 1.385 . S
C1031 C1032 1.389 . S
C1032 C1031 1.389 . S
C1032 C1033 1.387 . S
C1033 H1018 0.930 . S
C1033 C1028 1.390 . S
C1033 C1032 1.387 . S
H1034 C1046 0.930 . S
H1035 C1048 0.930 . S
H1036 C1049 0.930 . S
H1037 C1053 0.959 . S
H1038 C1053 0.959 . S
H1039 C1053 0.961 . S
H1040 C1054 0.960 . S
H1041 C1054 0.961 . S
H1042 C1054 0.959 . S
H1043 C1057 0.929 . S
H1044 C1058 0.931 . S
H1045 C1060 0.930 . S
C1046 H1034 0.930 . S
C1046 C1047 1.399 . S
C1046 C1051 1.399 . S
C1047 C1046 1.399 . S
C1047 C1048 1.376 . S
C1048 H1035 0.930 . S
C1048 C1047 1.376 . S
C1048 C1049 1.388 . S
C1049 H1036 0.930 . S
C1049 C1048 1.388 . S
C1049 C1050 1.390 . S
C1050 C1049 1.390 . S
C1050 C1051 1.394 . S
C1050 C1056 1.465 . S
C1051 C1046 1.399 . S
C1051 C1050 1.394 . S
C1051 C1052 1.516 . S
C1052 C1051 1.516 . S
C1052 C1053 1.502 . S
C1052 C1054 1.561 . S
C1052 C1055 1.526 . S
C1053 H1037 0.959 . S
C1053 H1038 0.959 . S
C1053 H1039 0.961 . S
C1053 C1052 1.502 . S
C1054 H1040 0.960 . S
C1054 H1041 0.961 . S
C1054 H1042 0.959 . S
C1054 C1052 1.561 . S
C1055 C1052 1.526 . S
C1055 C1056 1.396 . S
C1055 C1060 1.390 . S
C1056 C1050 1.465 . S
C1056 C1055 1.396 . S
C1056 C1057 1.399 . S
C1057 H1043 0.929 . S
C1057 C1056 1.399 . S
C1057 C1058 1.385 . S
C1058 H1044 0.931 . S
C1058 C1057 1.385 . S
C1058 C1059 1.389 . S
C1059 C1058 1.389 . S
C1059 C1060 1.387 . S
C1060 H1045 0.930 . S
C1060 C1055 1.390 . S
C1060 C1059 1.387 . S
H1061 C1073 0.930 . S
H1062 C1075 0.930 . S
H1063 C1076 0.930 . S
H1064 C1080 0.959 . S
H1065 C1080 0.959 . S
H1066 C1080 0.961 . S
H1067 C1081 0.960 . S
H1068 C1081 0.961 . S
H1069 C1081 0.959 . S
H1070 C1084 0.929 . S
H1071 C1085 0.931 . S
H1072 C1087 0.930 . S
C1073 H1061 0.930 . S
C1073 C1074 1.399 . S
C1073 C1078 1.399 . S
C1074 C1073 1.399 . S
C1074 C1075 1.376 . S
C1075 H1062 0.930 . S
C1075 C1074 1.376 . S
C1075 C1076 1.388 . S
C1076 H1063 0.930 . S
C1076 C1075 1.388 . S
C1076 C1077 1.390 . S
C1077 C1076 1.390 . S
C1077 C1078 1.394 . S
C1077 C1083 1.465 . S
C1078 C1073 1.399 . S
C1078 C1077 1.394 . S
C1078 C1079 1.516 . S
C1079 C1078 1.516 . S
C1079 C1080 1.502 . S
C1079 C1081 1.561 . S
C1079 C1082 1.526 . S
C1080 H1064 0.959 . S
C1080 H1065 0.959 . S
C1080 H1066 0.961 . S
C1080 C1079 1.502 . S
C1081 H1067 0.960 . S
C1081 H1068 0.961 . S
C1081 H1069 0.959 . S
C1081 C1079 1.561 . S
C1082 C1079 1.526 . S
C1082 C1083 1.396 . S
C1082 C1087 1.390 . S
C1083 C1077 1.465 . S
C1083 C1082 1.396 . S
C1083 C1084 1.399 . S
C1084 H1070 0.929 . S
C1084 C1083 1.399 . S
C1084 C1085 1.385 . S
C1085 H1071 0.931 . S
C1085 C1084 1.385 . S
C1085 C1086 1.389 . S
C1086 C1085 1.389 . S
C1086 C1087 1.387 . S
C1087 H1072 0.930 . S
C1087 C1082 1.390 . S
C1087 C1086 1.387 . S
C237 C67 1.243 1_556 S
C249 C11 1.218 . S
C264 C81 1.261 1_556 S
C276 C25 1.243 . S
C291 C95 1.244 . S
C303 C39 1.261 1_554 S
C318 C109 1.261 1_556 S
C330 C53 1.243 . S
C345 C179 1.235 . S
C357 C123 1.259 . S
C372 C193 1.261 . S
C384 C137 1.238 . S
C399 C151 1.237 . S
C411 C207 1.260 . S
C426 C221 1.260 . S
C438 C165 1.236 . S
C453 C8 1.160 1_556 S
C465 C78 1.121 1_554 S
C480 C92 1.228 1_554 S
C492 C22 1.213 1_556 S
C507 C36 1.158 1_556 S
C519 C106 1.120 1_554 S
C534 C64 1.154 1_554 S
C546 C50 1.120 . S
C561 C190 1.180 . S
C573 C120 1.218 . S
C588 C204 1.208 . S
C600 C134 1.228 . S
C615 C148 1.212 . S
C627 C218 1.228 . S
C642 C162 1.228 . S
C654 C176 1.212 . S
C669 C223 1.383 . S
C681 C13 1.367 . S
C696 C181 1.387 . S
C708 C27 1.317 . S
C723 C195 1.373 . S
C735 C41 1.379 . S
C750 C209 1.297 . S
C762 C55 1.376 . S
C777 C139 1.382 . S
C789 C69 1.368 . S
C804 C153 1.301 . S
C816 C83 1.379 . S
C831 C97 1.287 . S
C843 C167 1.290 . S
C858 C111 1.338 . S
C870 C125 1.390 . S
C885 C189 1.520 . S
C897 C35 1.549 . S
C912 C203 1.538 . S
C924 C49 1.515 . S
C939 C217 1.545 . S
C951 C7 1.515 . S
C966 C21 1.549 . S
C978 C175 1.521 . S
C993 C161 1.542 . S
C1005 C91 1.514 . S
C1020 C105 1.529 . S
C1032 C119 1.547 . S
C1047 C133 1.543 . S
C1059 C63 1.514 . S
C1074 C147 1.534 . S
C1086 C77 1.544 . S
