# Generated by pormake.
# Topology smm, (6)-cn, num edge types: 1
# Building blocks:
#     Node 0, Type 0, BuildingBlock: KUMBUR_clean_sbu_1, # of connection points: 6
#     Node 1, Type 0, BuildingBlock: KUMBUR_clean_sbu_1, # of connection points: 6
#     Node 2, Type 0, BuildingBlock: KUMBUR_clean_sbu_1, # of connection points: 6
#     Node 3, Type 0, BuildingBlock: KUMBUR_clean_sbu_1, # of connection points: 6
#     Node 4, Type 0, BuildingBlock: KUMBUR_clean_sbu_1, # of connection points: 6
#     Node 5, Type 0, BuildingBlock: KUMBUR_clean_sbu_1, # of connection points: 6
#     Node 6, Type 0, BuildingBlock: KUMBUR_clean_sbu_1, # of connection points: 6
#     Node 7, Type 0, BuildingBlock: KUMBUR_clean_sbu_1, # of connection points: 6
#     Node 8, Type 0, BuildingBlock: KUMBUR_clean_sbu_1, # of connection points: 6
#     Edge 9, Type (0, 0), BuildingBlock: XIVTED_clean_linker_0, # of connection points: 2
#     Edge 10, Type (0, 0), BuildingBlock: XIVTED_clean_linker_0, # of connection points: 2
#     Edge 11, Type (0, 0), BuildingBlock: XIVTED_clean_linker_0, # of connection points: 2
#     Edge 12, Type (0, 0), BuildingBlock: XIVTED_clean_linker_0, # of connection points: 2
#     Edge 13, Type (0, 0), BuildingBlock: XIVTED_clean_linker_0, # of connection points: 2
#     Edge 14, Type (0, 0), BuildingBlock: XIVTED_clean_linker_0, # of connection points: 2
#     Edge 15, Type (0, 0), BuildingBlock: XIVTED_clean_linker_0, # of connection points: 2
#     Edge 16, Type (0, 0), BuildingBlock: XIVTED_clean_linker_0, # of connection points: 2
#     Edge 17, Type (0, 0), BuildingBlock: XIVTED_clean_linker_0, # of connection points: 2
#     Edge 18, Type (0, 0), BuildingBlock: XIVTED_clean_linker_0, # of connection points: 2
#     Edge 19, Type (0, 0), BuildingBlock: XIVTED_clean_linker_0, # of connection points: 2
#     Edge 20, Type (0, 0), BuildingBlock: XIVTED_clean_linker_0, # of connection points: 2
#     Edge 21, Type (0, 0), BuildingBlock: XIVTED_clean_linker_0, # of connection points: 2
#     Edge 22, Type (0, 0), BuildingBlock: XIVTED_clean_linker_0, # of connection points: 2
#     Edge 23, Type (0, 0), BuildingBlock: XIVTED_clean_linker_0, # of connection points: 2
#     Edge 24, Type (0, 0), BuildingBlock: XIVTED_clean_linker_0, # of connection points: 2
#     Edge 25, Type (0, 0), BuildingBlock: XIVTED_clean_linker_0, # of connection points: 2
#     Edge 26, Type (0, 0), BuildingBlock: XIVTED_clean_linker_0, # of connection points: 2
#     Edge 27, Type (0, 0), BuildingBlock: XIVTED_clean_linker_0, # of connection points: 2
#     Edge 28, Type (0, 0), BuildingBlock: XIVTED_clean_linker_0, # of connection points: 2
#     Edge 29, Type (0, 0), BuildingBlock: XIVTED_clean_linker_0, # of connection points: 2
#     Edge 30, Type (0, 0), BuildingBlock: XIVTED_clean_linker_0, # of connection points: 2
#     Edge 31, Type (0, 0), BuildingBlock: XIVTED_clean_linker_0, # of connection points: 2
#     Edge 32, Type (0, 0), BuildingBlock: XIVTED_clean_linker_0, # of connection points: 2
#     Edge 33, Type (0, 0), BuildingBlock: XIVTED_clean_linker_0, # of connection points: 2
#     Edge 34, Type (0, 0), BuildingBlock: XIVTED_clean_linker_0, # of connection points: 2
#     Edge 35, Type (0, 0), BuildingBlock: XIVTED_clean_linker_0, # of connection points: 2
# Relax obj value: 0.109
# Max RMSD: 0.221
# Mean RMSD: 0.175
data_MOF--net-smm--node1-KUMBUR_clean_sbu_1--edge1-XIVTED_clean_linker_0
_symmetry_space_group_name_H-M    P1
_symmetry_Int_Tables_number       1
_symmetry_cell_setting            triclinic
loop_
_symmetry_equiv_pos_as_xyz
'x, y, z'
_cell_length_a     59.716159
_cell_length_b     74.589483
_cell_length_c     15.017035
_cell_angle_alpha  96.291832
_cell_angle_beta   96.984862
_cell_angle_gamma 121.62215
loop_
_atom_site_label
_atom_site_type_symbol
_atom_site_fract_x
_atom_site_fract_y
_atom_site_fract_z
_atom_type_partial_charge
Tb0 Tb 1.02691 0.18098 0.08848 0.0
C1 C 0.14939 0.23907 0.22714 0.0
N2 N 0.13043 0.24151 0.25803 0.0
C3 C 0.15379 0.24999 0.41343 0.0
C4 C 0.17109 0.24161 0.28888 0.0
C5 C 0.13254 0.24723 0.34971 0.0
C6 C 0.1731 0.24712 0.38298 0.0
C7 C 0.16508 0.22967 0.09898 0.0
C8 C 0.14638 0.23312 0.13302 0.0
C9 C 0.18685 0.23237 0.16037 0.0
C10 C 0.18985 0.23833 0.25498 0.0
Tb11 Tb 0.09792 0.23765 0.14613 0.0
N12 N 0.12451 0.2299 0.07542 0.0
C13 C 0.16127 0.22348 0.00421 0.0
C14 C 0.12145 0.22484 0.98284 0.0
C15 C 0.13948 0.22123 0.94593 0.0
H16 H 0.11834 0.25025 0.37415 0.0
H17 H 0.13676 0.21699 0.8724 0.0
H18 H 1.00887 0.16245 0.86295 0.0
H19 H 0.97149 0.18705 0.3355 0.0
H20 H 0.10572 0.22414 0.93688 0.0
H21 H 0.17519 0.22067 0.97531 0.0
H22 H 1.00937 0.18731 0.28488 0.0
H23 H 0.15538 0.2545 0.48601 0.0
H24 H 0.20141 0.22978 0.1354 0.0
H25 H 0.20665 0.24021 0.30142 0.0
H26 H 0.97127 0.15281 0.73765 0.0
H27 H 0.1895 0.24924 0.43262 0.0
H28 H 0.93222 0.17882 0.22053 0.0
N29 N 0.9925 0.17024 0.96722 0.0
C30 C 0.97079 0.16989 0.98805 0.0
C31 C 0.971 0.15782 0.80773 0.0
C32 C 0.94848 0.16393 0.91916 0.0
C33 C 0.99256 0.1637 0.87872 0.0
C34 C 0.94896 0.15812 0.8279 0.0
N35 N 0.99273 0.18074 0.14313 0.0
C36 C 0.99282 0.18433 0.23428 0.0
C37 C 0.94842 0.17439 0.10468 0.0
C38 C 0.97072 0.17502 0.07925 0.0
C39 C 0.94898 0.17915 0.19802 0.0
C40 C 0.97116 0.18389 0.2631 0.0
H41 H 0.93222 0.15342 0.77286 0.0
H42 H 0.90905 0.15921 0.89176 0.0
H43 H 0.90901 0.16839 0.05438 0.0
O44 O 1.02606 0.15979 0.17198 0.0
O45 O 1.02263 0.20892 0.10484 0.0
O46 O 0.0642 0.2415 0.16105 0.0
O47 O 1.00355 0.14778 0.0326 0.0
O48 O 0.05156 0.1944 0.2292 0.0
O49 O 0.07662 0.23164 0.25857 0.0
O50 O 0.1188 0.26218 0.07443 0.0
O51 O 0.09573 0.20726 0.16225 0.0
O52 O 0.0616 0.18351 0.04347 0.0
O53 O 0.12332 0.26961 0.22018 0.0
O54 O 0.07159 0.22906 0.0113 0.0
O55 O 0.04802 0.19214 0.97721 0.0
C56 C 0.03754 0.22999 0.13642 0.0
C57 C 0.98835 0.12379 0.1337 0.0
C58 C 0.96934 0.08665 0.1523 0.0
C59 C 0.94713 0.08635 0.17682 0.0
C60 C 0.96609 0.12317 0.15801 0.0
C61 C 0.94561 0.1045 0.1798 0.0
C62 C 0.98997 0.10564 0.13142 0.0
C63 C 0.06245 0.21323 0.28456 0.0
C64 C 1.00992 0.14279 0.10752 0.0
C65 C 0.92635 0.16366 0.94373 0.0
C66 C 0.92631 0.16887 0.03633 0.0
C67 C 0.083 0.18876 0.10306 0.0
C68 C 0.12827 0.29631 0.13751 0.0
C69 C 0.14806 0.33152 0.09495 0.0
C70 C 0.12624 0.33237 0.11587 0.0
C71 C 0.10668 0.29747 0.15741 0.0
C72 C 0.14882 0.31329 0.10609 0.0
C73 C 0.10573 0.31543 0.14675 0.0
C74 C 0.05683 0.21065 0.95182 0.0
C75 C 0.12956 0.27741 0.1472 0.0
H76 H 0.93067 0.07198 0.19215 0.0
H77 H 0.96444 0.13696 0.15951 0.0
H78 H 0.92836 0.10401 0.19822 0.0
H79 H 1.00749 0.10643 0.11361 0.0
H80 H 0.12513 0.34621 0.10941 0.0
H81 H 0.09062 0.28451 0.1811 0.0
H82 H 0.16516 0.31208 0.08895 0.0
H83 H 0.08905 0.31626 0.16263 0.0
Tb84 Tb 0.92141 0.85892 0.05848 0.0
C85 C 0.97384 0.80821 0.9355 0.0
N86 N 0.94853 0.80333 0.90484 0.0
C87 C 0.951 0.79352 0.75038 0.0
C88 C 0.98903 0.80642 0.87436 0.0
C89 C 0.9366 0.79522 0.814 0.0
C90 C 0.97745 0.79937 0.78055 0.0
C91 C 1.00969 0.8183 0.06451 0.0
C92 C 0.98408 0.81408 0.02907 0.0
C93 C 1.02522 0.81708 0.00387 0.0
C94 C 1.01493 0.81119 0.90898 0.0
Tb95 Tb 0.92719 0.80687 0.01539 0.0
N96 N 0.96859 0.81538 0.08551 0.0
C97 C 1.01867 0.82326 0.15977 0.0
C98 C 0.97662 0.81909 0.17841 0.0
C99 C 1.00194 0.82343 0.21691 0.0
H100 H 0.9157 0.78943 0.79073 0.0
H101 H 1.00844 0.82673 0.2906 0.0
H102 H 0.90674 0.85822 0.26178 0.0
H103 H 0.86894 0.85638 0.7298 0.0
H104 H 0.96356 0.8187 0.22287 0.0
H105 H 0.03822 0.82657 0.18983 0.0
H106 H 0.90811 0.86386 0.83926 0.0
H107 H 0.94152 0.78734 0.67833 0.0
H108 H 0.04503 0.82036 0.02968 0.0
H109 H 1.02696 0.80998 0.86307 0.0
H110 H 0.86835 0.85259 0.32984 0.0
H111 H 0.98845 0.79777 0.73125 0.0
H112 H 0.82642 0.84564 0.77958 0.0
N113 N 0.88652 0.85265 0.12564 0.0
C114 C 0.86459 0.84972 0.07066 0.0
C115 C 0.86691 0.85151 0.25668 0.0
C116 C 0.84228 0.84658 0.10614 0.0
C117 C 0.88848 0.85445 0.21807 0.0
C118 C 0.84358 0.84734 0.20034 0.0
N119 N 0.88725 0.85417 0.94848 0.0
C120 C 0.88935 0.85766 0.86135 0.0
C121 C 0.84206 0.84657 0.91899 0.0
C122 C 0.86464 0.84984 0.97855 0.0
C123 C 0.84335 0.84811 0.82761 0.0
C124 C 0.86727 0.85406 0.79916 0.0
H125 H 0.82686 0.845 0.23033 0.0
H126 H 0.80196 0.83997 0.07223 0.0
H127 H 0.80169 0.83983 0.90816 0.0
O128 O 0.92529 0.8882 0.04512 0.0
O129 O 0.88938 0.82705 0.07569 0.0
O130 O 0.88741 0.80252 0.96454 0.0
O131 O 0.94603 0.88592 0.166 0.0
O132 O 0.92978 0.851 0.92571 0.0
O133 O 0.91053 0.81406 0.89506 0.0
O134 O 0.91054 0.78246 0.09407 0.0
O135 O 0.96679 0.8407 0.05316 0.0
O136 O 0.95755 0.86547 0.00869 0.0
O137 O 0.91209 0.77434 0.95676 0.0
O138 O 0.92028 0.81579 0.14794 0.0
O139 O 0.94114 0.8527 0.17397 0.0
C140 C 0.87515 0.80978 0.01014 0.0
C141 C 0.96588 0.91994 0.1235 0.0
C142 C 0.98516 0.95806 0.12237 0.0
C143 C 1.01038 0.96083 0.12293 0.0
C144 C 0.9913 0.92316 0.12578 0.0
C145 C 1.01337 0.94349 0.12482 0.0
C146 C 0.96294 0.93743 0.12222 0.0
C147 C 0.92067 0.83265 0.86874 0.0
C148 C 0.94214 0.89861 0.12312 0.0
C149 C 0.81948 0.84273 0.04661 0.0
C150 C 0.8193 0.84257 0.95311 0.0
C151 C 0.97493 0.86007 0.03243 0.0
C152 C 0.91171 0.75062 0.05409 0.0
C153 C 0.89948 0.71421 0.08294 0.0
C154 C 0.92706 0.72193 0.09562 0.0
C155 C 0.9387 0.75702 0.069 0.0
C156 C 0.89182 0.72886 0.06045 0.0
C157 C 0.9462 0.74287 0.08902 0.0
C158 C 0.93143 0.83455 0.20366 0.0
C159 C 0.90503 0.76673 0.02943 0.0
H160 H 1.02793 0.9765 0.12387 0.0
H161 H 0.99407 0.91001 0.12882 0.0
H162 H 0.03293 0.94586 0.12632 0.0
H163 H 0.94327 0.93491 0.12046 0.0
H164 H 0.93409 0.71157 0.10978 0.0
H165 H 0.95417 0.77305 0.06412 0.0
H166 H 0.87081 0.72354 0.04909 0.0
H167 H 0.9672 0.74819 0.09919 0.0
Tb168 Tb 0.20786 0.04131 0.04103 0.0
C169 C 0.19828 0.95313 0.07944 0.0
N170 N 0.21576 0.97366 0.12775 0.0
C171 C 0.2144 0.96083 0.2678 0.0
C172 C 0.18776 0.93563 0.12436 0.0
C173 C 0.2244 0.97766 0.22035 0.0
C174 C 0.19595 0.93973 0.2197 0.0
C175 C 0.17098 0.92874 0.93348 0.0
C176 C 0.19 0.94968 0.98468 0.0
C177 C 0.16075 0.91128 0.97806 0.0
C178 C 0.16912 0.91471 0.0731 0.0
Tb179 Tb 0.23234 0.99877 0.03921 0.0
N180 N 0.19958 0.96706 0.94385 0.0
C181 C 0.1626 0.92598 0.83907 0.0
C182 C 0.19207 0.96436 0.85136 0.0
C183 C 0.17327 0.94385 0.79788 0.0
H184 H 0.23995 0.99363 0.25711 0.0
H185 H 0.16725 0.9418 0.72464 0.0
H186 H 0.2287 0.0572 0.85155 0.0
H187 H 0.23535 0.08474 0.39142 0.0
H188 H 0.20086 0.97774 0.81772 0.0
H189 H 0.14803 0.91013 0.7973 0.0
H190 H 0.20953 0.05301 0.26637 0.0
H191 H 0.2213 0.96409 0.34126 0.0
H192 H 0.14616 0.89506 0.93973 0.0
H193 H 0.16083 0.90108 0.10647 0.0
H194 H 0.26083 0.09112 0.80838 0.0
H195 H 0.1883 0.92673 0.25672 0.0
H196 H 0.26898 0.11996 0.36063 0.0
N197 N 0.23815 0.07121 0.99267 0.0
C198 C 0.25152 0.08983 0.05735 0.0
C199 C 0.25865 0.09091 0.87882 0.0
C200 C 0.26967 0.10966 0.03533 0.0
C201 C 0.24085 0.07159 0.90371 0.0
C202 C 0.27318 0.11001 0.94489 0.0
N203 N 0.23071 0.06908 0.16641 0.0
C204 C 0.2254 0.06777 0.2524 0.0
C205 C 0.26252 0.10745 0.21641 0.0
C206 C 0.24812 0.08861 0.14717 0.0
C207 C 0.2583 0.10586 0.30557 0.0
C208 C 0.23948 0.08598 0.32337 0.0
H209 H 0.28695 0.12494 0.92529 0.0
H210 H 0.29805 0.14379 0.08871 0.0
H211 H 0.29168 0.1419 0.24692 0.0
O212 O 0.18528 0.0536 0.08767 0.0
O213 O 0.25203 0.05497 0.04591 0.0
O214 O 0.26725 0.03219 0.06307 0.0
O215 O 0.18192 0.04457 0.94494 0.0
O216 O 0.20493 0.02512 0.15677 0.0
O217 O 0.24043 1.02032 0.16869 0.0
O218 O 0.25108 0.98828 0.95554 0.0
O219 O 0.18825 0.98434 0.03491 0.0
O220 O 0.17322 1.00771 0.03638 0.0
O221 O 0.26018 0.99226 0.10128 0.0
O222 O 0.23432 1.01375 0.9203 0.0
O223 O 0.20053 1.02056 0.91051 0.0
C224 C 0.27163 0.05129 0.05719 0.0
C225 C 0.17773 0.07442 0.99157 0.0
C226 C 0.16581 0.10158 0.01607 0.0
C227 C 0.18348 0.11322 0.9608 0.0
C228 C 0.19417 0.0863 0.93349 0.0
C229 C 0.19735 0.10559 0.91965 0.0
C230 C 0.16305 0.08207 0.03215 0.0
C231 C 0.2225 0.02228 0.2045 0.0
C232 C 0.17555 0.05392 0.00622 0.0
C233 C 0.28402 0.12838 0.1043 0.0
C234 C 0.28046 0.12728 0.19451 0.0
C235 C 0.16876 0.9881 0.0336 0.0
C236 C 0.29417 0.99599 0.02347 0.0
C237 C 0.33027 0.99071 0.9947 0.0
C238 C 0.34906 1.01279 0.03047 0.0
C239 C 0.3136 1.01776 0.06097 0.0
C240 C 0.30259 0.98245 0.98976 0.0
C241 C 0.34076 0.02614 0.063 0.0
C242 C 0.21813 1.01817 0.87464 0.0
C243 C 0.26541 0.98712 0.02449 0.0
H244 H 0.18606 0.12812 0.94748 0.0
H245 H 0.20437 0.0806 0.89701 0.0
H246 H 0.2104 0.11454 0.8754 0.0
H247 H 0.14961 0.07295 0.07511 0.0
H248 H 0.37035 1.01977 0.03381 0.0
H249 H 0.30783 0.02826 0.09005 0.0
H250 H 0.2878 0.96548 0.9629 0.0
H251 H 0.35553 0.04303 0.09129 0.0
Tb252 Tb 0.793 0.50964 0.12972 0.0
C253 C 0.67482 0.47459 0.03487 0.0
N254 N 0.69596 0.49049 0.00636 0.0
C255 C 0.67192 0.47415 0.84979 0.0
C256 C 0.65205 0.4573 0.97175 0.0
C257 C 0.69381 0.49116 0.91509 0.0
C258 C 0.6512 0.45692 0.8781 0.0
C259 C 0.65324 0.46101 0.16068 0.0
C260 C 0.67525 0.47635 0.12787 0.0
C261 C 0.63102 0.4433 0.09831 0.0
C262 C 0.63046 0.44142 0.00403 0.0
Tb263 Tb 0.73082 0.51695 0.12234 0.0
N264 N 0.69743 0.49329 0.18644 0.0
C265 C 0.65422 0.46405 0.25515 0.0
C266 C 0.69807 0.49692 0.27802 0.0
C267 C 0.67662 0.48223 0.31396 0.0
H268 H 0.70826 0.50501 0.89137 0.0
H269 H 0.67735 0.48496 0.38684 0.0
H270 H 0.82335 0.53504 0.34528 0.0
H271 H 0.82946 0.52035 0.81448 0.0
H272 H 0.71512 0.51115 0.32306 0.0
H273 H 0.63769 0.45264 0.28315 0.0
H274 H 0.79836 0.50079 0.91296 0.0
H275 H 0.67074 0.47462 0.77766 0.0
H276 H 0.61401 0.43117 0.12213 0.0
H277 H 0.61292 0.42793 0.95652 0.0
H278 H 0.86676 0.56732 0.42817 0.0
H279 H 0.63408 0.44393 0.82736 0.0
H280 H 0.87212 0.55519 0.88201 0.0
N281 N 0.83203 0.53963 0.21324 0.0
C282 C 0.85101 0.55107 0.16529 0.0
C283 C 0.86245 0.56305 0.35411 0.0
C284 C 0.87618 0.5695 0.2098 0.0
C285 C 0.83772 0.54488 0.30682 0.0
C286 C 0.88168 0.57554 0.3054 0.0
N287 N 0.82089 0.52564 0.03191 0.0
C288 C 0.81581 0.51665 0.94169 0.0
C289 C 0.86411 0.55532 0.01882 0.0
C290 C 0.84498 0.54405 0.07124 0.0
C291 C 0.85798 0.54703 0.92476 0.0
C292 C 0.83387 0.52742 0.88631 0.0
H293 H 0.90082 0.58958 0.34228 0.0
H294 H 0.91444 0.59545 0.19048 0.0
H295 H 0.90389 0.58302 0.02313 0.0
O296 O 0.81016 0.49268 0.084 0.0
O297 O 0.80195 0.54372 0.15986 0.0
O298 O 0.76562 0.54268 0.07969 0.0
O299 O 0.80241 0.49322 0.21865 0.0
O300 O 0.76459 0.49818 0.99713 0.0
O301 O 0.74835 0.52027 -0.00033 0.0
O302 O 0.73076 0.54141 0.20997 0.0
O303 O 0.72729 0.48811 0.16346 0.0
O304 O 0.75155 0.48042 0.07823 0.0
O305 O 0.70418 0.52573 0.07504 0.0
O306 O 0.76042 0.52942 0.25312 0.0
O307 O 0.77674 0.50732 0.25401 0.0
C308 C 0.79131 0.55346 0.11961 0.0
C309 C 0.83737 0.4877 0.19386 0.0
C310 C 0.8627 0.47034 0.21435 0.0
C311 C 0.88632 0.49083 0.24748 0.0
C312 C 0.86137 0.5078 0.2278 0.0
C313 C 0.88559 0.50932 0.25465 0.0
C314 C 0.83804 0.46885 0.18821 0.0
C315 C 0.75645 0.50909 0.95597 0.0
C316 C 0.81195 0.48634 0.16003 0.0
C317 C 0.89503 0.58114 0.15766 0.0
C318 C 0.88899 0.57409 0.06233 0.0
C319 C 0.73122 0.47398 0.12045 0.0
C320 C 0.69992 0.55273 0.16208 0.0
C321 C 0.69187 0.57635 0.2593 0.0
C322 C 0.67363 0.57445 0.18459 0.0
C323 C 0.68175 0.55125 0.08811 0.0
C324 C 0.70528 0.56564 0.24763 0.0
C325 C 0.6688 0.56212 0.09941 0.0
C326 C 0.76903 0.51896 0.29634 0.0
C327 C 0.71175 0.53973 0.14992 0.0
H328 H 0.90548 0.49253 0.26832 0.0
H329 H 0.86152 0.52239 0.23281 0.0
H330 H 0.90399 0.52496 0.28044 0.0
H331 H 0.81968 0.45321 0.16133 0.0
H332 H 0.66321 0.58265 0.19214 0.0
H333 H 0.67726 0.54148 0.02151 0.0
H334 H 0.71908 0.56683 0.30551 0.0
H335 H 0.65477 0.5608 0.04211 0.0
Tb336 Tb 0.52525 0.21861 0.11171 0.0
C337 C 0.57075 0.1646 0.02465 0.0
N338 N 0.54595 0.16011 0.98786 0.0
C339 C 0.55198 0.15158 0.83717 0.0
C340 C 0.58768 0.16381 0.96869 0.0
C341 C 0.53575 0.15211 0.89581 0.0
C342 C 0.57828 0.15789 0.87361 0.0
C343 C 0.60301 0.1716 0.16029 0.0
C344 C 0.57844 0.16852 0.119 0.0
C345 C 0.62049 0.17182 0.10507 0.0
C346 C 0.61289 0.16804 0.00945 0.0
Tb347 Tb 0.52194 0.16256 0.09189 0.0
N348 N 0.56149 0.169 0.17044 0.0
C349 C 0.60908 0.17412 0.25569 0.0
C350 C 0.56654 0.17022 0.26298 0.0
C351 C 0.59058 0.17312 0.30709 0.0
H352 H 0.51489 0.14559 0.86705 0.0
H353 H 0.59483 0.1746 0.38061 0.0
H354 H 0.5244 0.23178 0.32923 0.0
H355 H 0.46361 0.20986 0.79323 0.0
H356 H 0.55216 0.16933 0.30256 0.0
H357 H 0.62775 0.17649 0.29007 0.0
H358 H 0.50296 0.21378 0.88804 0.0
H359 H 0.54396 0.1458 0.76408 0.0
H360 H 0.63967 0.1745 0.13549 0.0
H361 H 0.62628 0.16773 0.96755 0.0
H362 H 0.49424 0.23612 0.41427 0.0
H363 H 0.59066 0.15712 0.82817 0.0
H364 H 0.42978 0.21183 0.8661 0.0
N365 N 0.49953 0.22363 0.19823 0.0
C366 C 0.47762 0.22222 0.15066 0.0
C367 C 0.48914 0.23194 0.34013 0.0
C368 C 0.46002 0.22493 0.19639 0.0
C369 C 0.50598 0.22907 0.29166 0.0
C370 C 0.46592 0.22966 0.29235 0.0
N371 N 0.49061 0.21587 0.01401 0.0
C372 C 0.48789 0.21361 0.9211 0.0
C373 C 0.45041 0.21654 0.00385 0.0
C374 C 0.47291 0.21806 0.05555 0.0
C375 C 0.44679 0.21308 0.90831 0.0
C376 C 0.46578 0.21185 0.8669 0.0
H377 H 0.45294 0.23193 0.33009 0.0
H378 H 0.4235 0.22499 0.17896 0.0
H379 H 0.41507 0.21764 0.01043 0.0
O380 O 0.53733 0.24783 0.06674 0.0
O381 O 0.48498 0.18833 0.11524 0.0
O382 O 0.48381 0.1593 0.03489 0.0
O383 O 0.55759 0.24811 0.19487 0.0
O384 O 0.53048 0.20569 0.9836 0.0
O385 O 0.5072 0.16846 0.96284 0.0
O386 O 0.50488 0.14033 0.17732 0.0
O387 O 0.55938 0.19412 0.15467 0.0
O388 O 0.55818 0.21683 0.0685 0.0
O389 O 0.50847 0.13013 0.04316 0.0
O390 O 0.51077 0.17334 0.20946 0.0
O391 O 0.53693 0.21057 0.23945 0.0
C392 C 0.47144 0.16755 0.07308 0.0
C393 C 0.56409 0.28198 0.17322 0.0
C394 C 0.59139 0.32179 0.1843 0.0
C395 C 0.57781 0.32342 0.25236 0.0
C396 C 0.55087 0.28475 0.23891 0.0
C397 C 0.55781 0.30525 0.27835 0.0
C398 C 0.5845 0.30065 0.1457 0.0
C399 C 0.51815 0.18641 0.93091 0.0
C400 C 0.55731 0.25979 0.13652 0.0
C401 C 0.43733 0.22304 0.14506 0.0
C402 C 0.43252 0.21883 0.04906 0.0
C403 C 0.57178 0.21014 0.11291 0.0
C404 C 0.4795 0.10257 0.1184 0.0
C405 C 0.46324 0.07079 0.18734 0.0
C406 C 0.43986 0.05964 0.1174 0.0
C407 C 0.45605 0.09128 0.04943 0.0
C408 C 0.48289 0.09231 0.18706 0.0
C409 C 0.43627 0.0699 0.04937 0.0
C410 C 0.52401 0.19205 0.26663 0.0
C411 C 0.50182 0.12457 0.11952 0.0
H412 H 0.58281 0.33894 0.28729 0.0
H413 H 0.53536 0.27103 0.26093 0.0
H414 H 0.5477 0.30711 0.33033 0.0
H415 H 0.59471 0.29866 0.09435 0.0
H416 H 0.42426 0.04311 0.11585 0.0
H417 H 0.45319 0.09886 0.99551 0.0
H418 H 0.50133 0.10101 0.23921 0.0
H419 H 0.41816 0.06119 0.99606 0.0
Tb420 Tb 0.89078 0.31058 0.20118 0.0
C421 C 0.96974 0.40616 0.24841 0.0
N422 N 0.97007 0.39047 0.19439 0.0
C423 C 0.97619 0.40906 0.07015 0.0
C424 C 0.97136 0.42351 0.21366 0.0
C425 C 0.9742 0.39202 0.1074 0.0
C426 C 0.97451 0.42477 0.12317 0.0
C427 C 0.96573 0.41997 0.39523 0.0
C428 C 0.96681 0.40428 0.33788 0.0
C429 C 0.96663 0.43702 0.36029 0.0
C430 C 0.96951 0.43881 0.26983 0.0
Tb431 Tb 0.96764 0.36391 0.26253 0.0
N432 N 0.96581 0.38743 0.36919 0.0
C433 C 0.9645 0.41838 0.48663 0.0
C434 C 0.96743 0.38719 0.46058 0.0
C435 C 0.96593 0.40218 0.51987 0.0
H436 H 0.97598 0.38013 0.0668 0.0
H437 H 0.96657 0.40154 0.59174 0.0
H438 H 0.87906 0.30039 0.40803 0.0
H439 H 0.87766 0.25794 0.89602 0.0
H440 H 0.97106 0.37616 0.48949 0.0
H441 H 0.96363 0.4301 0.53297 0.0
H442 H 0.88321 0.29043 0.98502 0.0
H443 H 0.97907 0.4101 0.00067 0.0
H444 H 0.96558 0.44911 0.40318 0.0
H445 H 0.97042 0.45215 0.24413 0.0
H446 H 0.87693 0.27443 0.5004 0.0
H447 H 0.97585 0.43786 0.09388 0.0
H448 H 0.87617 0.23002 0.97523 0.0
N449 N 0.88624 0.28661 0.29232 0.0
C450 C 0.88458 0.2687 0.25044 0.0
C451 C 0.87971 0.27287 0.43072 0.0
C452 C 0.88187 0.25271 0.29861 0.0
C453 C 0.88186 0.28803 0.37921 0.0
C454 C 0.88028 0.25534 0.39082 0.0
N455 N 0.88598 0.28137 0.11332 0.0
C456 C 0.88298 0.2785 0.02025 0.0
C457 C 0.88058 0.24692 0.10954 0.0
C458 C 0.88378 0.26573 0.15729 0.0
C459 C 0.87871 0.24427 0.01457 0.0
C460 C 0.87962 0.26003 0.96963 0.0
H461 H 0.87819 0.24344 0.43037 0.0
H462 H 0.87787 0.22189 0.28836 0.0
H463 H 0.87684 0.21687 0.1227 0.0
O464 O 0.85873 0.30603 0.10319 0.0
O465 O 0.92458 0.30696 0.17669 0.0
O466 O 0.963 0.33332 0.28318 0.0
O467 O 0.85063 0.29078 0.21748 0.0
O468 O 0.90648 0.32716 0.08914 0.0
O469 O 0.95358 0.34465 0.12189 0.0
O470 O 1.0057 0.38723 0.34634 0.0
O471 O 0.93255 0.36407 0.1971 0.0
O472 O 0.89798 0.34196 0.26209 0.0
O473 O 1.00272 0.37161 0.21342 0.0
O474 O 0.95379 0.34515 0.36951 0.0
O475 O 0.90789 0.33064 0.3403 0.0
C476 C 0.94857 0.3142 0.22751 0.0
C477 C 0.81986 0.29985 0.15807 0.0
C478 C 0.77304 0.28995 0.1519 0.0
C479 C 0.78285 0.31194 0.17588 0.0
C480 C 0.8286 0.32155 0.18206 0.0
C481 C 0.81032 0.32752 0.19126 0.0
C482 C 0.79181 0.28389 0.14382 0.0
C483 C 0.92997 0.3352 0.06396 0.0
C484 C 0.84008 0.29422 0.14595 0.0
C485 C 0.87973 0.23427 0.25232 0.0
C486 C 0.87905 0.23136 0.15791 0.0
C487 C 0.91118 0.3596 0.22988 0.0
C488 C 0.04295 0.38519 0.32554 0.0
C489 C 0.0912 0.40434 0.39606 0.0
C490 C 0.0883 0.38428 0.39278 0.0
C491 C 0.04088 0.36554 0.32348 0.0
C492 C 0.06817 0.40465 0.36311 0.0
C493 C 0.06337 0.36512 0.35731 0.0
C494 C 0.93057 0.33653 0.39555 0.0
C495 C 1.01908 0.38556 0.28779 0.0
H496 H 0.76911 0.31709 0.18286 0.0
H497 H 0.84966 0.33395 0.1926 0.0
H498 H 0.81748 0.34439 0.20965 0.0
H499 H 0.78464 0.26703 0.12474 0.0
H500 H 0.10543 0.38342 0.41806 0.0
H501 H 1.02187 0.35053 0.29498 0.0
H502 H 0.07 0.41993 0.36448 0.0
H503 H 0.06154 0.34985 0.35536 0.0
Tb504 Tb 0.40702 0.8682 0.73571 0.0
C505 C 0.53191 0.92882 0.9005 0.0
N506 N 0.51165 0.93075 0.92114 0.0
C507 C 0.53259 0.94162 0.08107 0.0
C508 C 0.55301 0.93267 0.96973 0.0
C509 C 0.5124 0.93804 0.00977 0.0
C510 C 0.55279 0.93864 0.06111 0.0
C511 C 0.55404 0.92379 0.78407 0.0
C512 C 0.5324 0.92434 0.80918 0.0
C513 C 0.57461 0.92681 0.85268 0.0
C514 C 0.57405 0.93116 0.94536 0.0
Tb515 Tb 0.47931 0.92354 0.79841 0.0
N516 N 0.51196 0.9212 0.74476 0.0
C517 C 0.55456 0.92067 0.69085 0.0
C518 C 0.51315 0.91946 0.6542 0.0
C519 C 0.53419 0.91877 0.62573 0.0
H520 H 0.49783 0.94158 0.02582 0.0
H521 H 0.5348 0.91694 0.55373 0.0
H522 H 0.38618 0.87704 0.54171 0.0
H523 H 0.35987 0.84392 0.02414 0.0
H524 H 0.49782 0.9185 0.60408 0.0
H525 H 0.57087 0.92019 0.66865 0.0
H526 H 0.39121 0.84813 0.92349 0.0
H527 H 0.53281 0.94705 0.15123 0.0
H528 H 0.5913 0.92623 0.83486 0.0
H529 H 0.59035 0.93392 0.9976 0.0
H530 H 0.34946 0.88115 0.47546 0.0
H531 H 0.56862 0.94172 0.11638 0.0
H532 H 0.32585 0.85268 0.98201 0.0
N533 N 0.37479 0.8734 0.67059 0.0
C534 C 0.35613 0.87092 0.71991 0.0
C535 C 0.35126 0.87848 0.54463 0.0
C536 C 0.33494 0.87321 0.68536 0.0
C537 C 0.37203 0.8762 0.58227 0.0
C538 C 0.33282 0.87725 0.59683 0.0
N539 N 0.37744 0.86167 0.83069 0.0
C540 C 0.37749 0.85313 0.90669 0.0
C541 C 0.33878 0.8623 0.85723 0.0
C542 C 0.35793 0.86537 0.80396 0.0
C543 C 0.34013 0.85519 0.93895 0.0
C544 C 0.35933 0.85027 0.96303 0.0
H545 H 0.31678 0.87906 0.56762 0.0
H546 H 0.30018 0.873 0.71489 0.0
H547 H 0.30364 0.86357 0.8659 0.0
O548 O 0.38171 0.83468 0.72721 0.0
O549 O 0.4117 0.89966 0.73274 0.0
O550 O 0.44684 0.9242 0.84974 0.0
O551 O 0.39357 0.8476 0.60817 0.0
O552 O 0.42958 0.87617 0.87733 0.0
O553 O 0.45909 0.91346 0.91375 0.0
O554 O 0.4812 0.94567 0.71764 0.0
O555 O 0.47782 0.89323 0.75413 0.0
O556 O 0.44084 0.8665 0.79888 0.0
O557 O 0.50906 0.95647 0.84882 0.0
O558 O 0.45429 0.91349 0.66132 0.0
O559 O 0.43244 0.87696 0.63529 0.0
C560 C 0.42218 0.91575 0.80334 0.0
C561 C 0.39093 0.81551 0.61488 0.0
C562 C 0.4066 0.7923 0.65163 0.0
C563 C 0.40998 0.78958 0.5611 0.0
C564 C 0.39398 0.81219 0.52432 0.0
C565 C 0.40366 0.79946 0.49802 0.0
C566 C 0.39722 0.80545 0.67834 0.0
C567 C 0.44474 0.89464 0.93717 0.0
C568 C 0.38245 0.83034 0.64166 0.0
C569 C 0.31641 0.87102 0.73957 0.0
C570 C 0.31841 0.86568 0.82561 0.0
C571 C 0.46505 0.87464 0.78097 0.0
C572 C 0.51457 0.98443 0.76575 0.0
C573 C 0.51599 1.01191 0.686 0.0
C574 C 0.54009 0.02757 0.74834 0.0
C575 C 0.53853 1.00049 0.82709 0.0
C576 C 0.50343 0.99021 0.6946 0.0
C577 C 0.5512 0.02187 0.81807 0.0
C578 C 0.44281 0.89488 0.60527 0.0
C579 C 0.50141 0.96187 0.7774 0.0
H580 H 0.41672 0.77927 0.53813 0.0
H581 H 0.38918 0.81968 0.47398 0.0
H582 H 0.40606 0.7971 0.42825 0.0
H583 H 0.39501 0.80791 0.74838 0.0
H584 H 0.55055 0.04431 0.74277 0.0
H585 H 0.54758 0.99653 0.88209 0.0
H586 H 0.48478 0.97797 0.64751 0.0
H587 H 0.56975 0.0341 0.86546 0.0
Tb588 Tb 0.32109 0.57758 0.75732 0.0
C589 C 0.39737 0.54759 0.70875 0.0
N590 N 0.37216 0.53918 0.65894 0.0
C591 C 0.38772 0.53764 0.5198 0.0
C592 C 0.41898 0.55212 0.66579 0.0
C593 C 0.36688 0.53318 0.56561 0.0
C594 C 0.41396 0.54746 0.57 0.0
C595 C 0.42671 0.55849 0.85778 0.0
C596 C 0.40127 0.55075 0.80337 0.0
C597 C 0.44851 0.56371 0.81548 0.0
C598 C 0.44466 0.56059 0.71969 0.0
Tb599 Tb 0.34026 0.53344 0.74327 0.0
N600 N 0.37995 0.54625 0.84211 0.0
C601 C 0.42937 0.56061 0.95295 0.0
C602 C 0.38202 0.54717 0.93428 0.0
C603 C 0.40684 0.55467 0.99122 0.0
H604 H 0.34658 0.52441 0.52584 0.0
H605 H 0.40855 0.55578 0.06447 0.0
H606 H 0.29034 0.56543 0.92984 0.0
H607 H 0.29226 0.59184 0.42988 0.0
H608 H 0.36457 0.54216 0.9638 0.0
H609 H 0.44858 0.56647 0.99723 0.0
H610 H 0.32411 0.59486 0.56062 0.0
H611 H 0.38343 0.53315 0.44581 0.0
H612 H 0.46832 0.56992 0.8561 0.0
H613 H 0.46157 0.56436 0.68791 0.0
H614 H 0.24497 0.55289 0.95903 0.0
H615 H 0.43 0.55068 0.53432 0.0
H616 H 0.24418 0.57495 0.43549 0.0
N617 N 0.27969 0.56555 0.78971 0.0
C618 C 0.26072 0.56355 0.72249 0.0
C619 C 0.24905 0.55562 0.89186 0.0
C620 C 0.23461 0.55647 0.73564 0.0
C621 C 0.27466 0.56262 0.87512 0.0
C622 C 0.22881 0.55225 0.82143 0.0
N623 N 0.29399 0.57765 0.63552 0.0
C624 C 0.303 0.58647 0.56214 0.0
C625 C 0.24924 0.56812 0.57031 0.0
C626 C 0.26801 0.56941 0.64168 0.0
C627 C 0.25796 0.57567 0.49202 0.0
C628 C 0.28507 0.58518 0.48855 0.0
H629 H 0.209 0.54684 0.8345 0.0
H630 H 0.19514 0.54864 0.67175 0.0
H631 H 0.20794 0.55876 0.5265 0.0
O632 O 0.33073 0.6092 0.75648 0.0
O633 O 0.28886 0.54338 0.74831 0.0
O634 O 0.30063 0.52317 0.66323 0.0
O635 O 0.33533 0.59926 0.88253 0.0
O636 O 0.33539 0.57256 0.63382 0.0
O637 O 0.32524 0.5375 0.61044 0.0
O638 O 0.32143 0.50721 0.81023 0.0
O639 O 0.37116 0.56782 0.80724 0.0
O640 O 0.36015 0.58709 0.72437 0.0
O641 O 0.33944 0.50548 0.69449 0.0
O642 O 0.3217 0.53642 0.85597 0.0
O643 O 0.3379 0.57233 0.88158 0.0
C644 C 0.28227 0.52638 0.68718 0.0
C645 C 0.36853 0.63443 0.87433 0.0
C646 C 0.40053 0.67312 0.89393 0.0
C647 C 0.42136 0.67072 0.93107 0.0
C648 C 0.38964 0.63242 0.91244 0.0
C649 C 0.41587 0.65046 0.94022 0.0
C650 C 0.37411 0.6548 0.86541 0.0
C651 C 0.32979 0.55485 0.5801 0.0
C652 C 0.34072 0.61546 0.84421 0.0
C653 C 0.21544 0.5543 0.66356 0.0
C654 C 0.22272 0.56004 0.58084 0.0
C655 C 0.37838 0.58461 0.7688 0.0
C656 C 0.31928 0.47376 0.76236 0.0
C657 C 0.29387 0.44083 0.82089 0.0
C658 C 0.3069 0.43246 0.77679 0.0
C659 C 0.33182 0.46492 0.71858 0.0
C660 C 0.30012 0.46158 0.81319 0.0
C661 C 0.32565 0.44441 0.7259 0.0
C662 C 0.32837 0.55423 0.91025 0.0
C663 C 0.32681 0.4958 0.75595 0.0
H664 H 0.44183 0.68452 0.95393 0.0
H665 H 0.38591 0.61692 0.92103 0.0
H666 H 0.43199 0.64874 0.9692 0.0
H667 H 0.3579 0.65629 0.83492 0.0
H668 H 0.30228 0.41649 0.7806 0.0
H669 H 0.34665 0.47395 0.6793 0.0
H670 H 0.29034 0.46826 0.84738 0.0
H671 H 0.33547 0.43776 0.69202 0.0
Tb672 Tb 0.6224 0.7527 0.86896 0.0
C673 C 0.57069 0.65611 0.84629 0.0
N674 N 0.59182 0.67256 0.91008 0.0
C675 C 0.57255 0.65493 0.03019 0.0
C676 C 0.54886 0.63882 0.87213 0.0
C677 C 0.59364 0.67183 0.00094 0.0
C678 C 0.54987 0.63848 0.96558 0.0
C679 C 0.5501 0.6397 0.68625 0.0
C680 C 0.57137 0.65665 0.75498 0.0
C681 C 0.52757 0.6229 0.71119 0.0
C682 C 0.52697 0.62243 0.80403 0.0
Tb683 Tb 0.62514 0.69952 0.85672 0.0
N684 N 0.5937 0.67305 0.73396 0.0
C685 C 0.55262 0.63972 0.59489 0.0
C686 C 0.59729 0.67188 0.64577 0.0
C687 C 0.57658 0.65564 0.57481 0.0
H688 H 0.61125 0.68441 0.05069 0.0
H689 H 0.57933 0.65517 0.50485 0.0
H690 H 0.62075 0.75969 0.65193 0.0
H691 H 0.69122 0.80692 0.18217 0.0
H692 H 0.61625 0.68312 0.62948 0.0
H693 H 0.53676 0.62701 0.53993 0.0
H694 H 0.64873 0.77529 0.08864 0.0
H695 H 0.57378 0.65459 0.10243 0.0
H696 H 0.51087 0.60987 0.65932 0.0
H697 H 0.50976 0.60915 0.82235 0.0
H698 H 0.65282 0.78241 0.56275 0.0
H699 H 0.53351 0.62547 0.98838 0.0
H700 H 0.72677 0.83161 0.10659 0.0
N701 N 0.64933 0.77388 0.77842 0.0
C702 C 0.67362 0.79137 0.82404 0.0
C703 C 0.65918 0.78482 0.63605 0.0
C704 C 0.69229 0.80556 0.77676 0.0
C705 C 0.64127 0.77142 0.6864 0.0
C706 C 0.68504 0.80172 0.68121 0.0
N707 N 0.66062 0.7816 0.96184 0.0
C708 C 0.66423 0.78582 0.05509 0.0
C709 C 0.70375 0.81388 0.9694 0.0
C710 C 0.67923 0.79567 0.91897 0.0
C711 C 0.70819 0.81775 0.06525 0.0
C712 C 0.6882 0.80381 0.10819 0.0
H713 H 0.69878 0.81224 0.64222 0.0
H714 H 0.73185 0.83444 0.79127 0.0
H715 H 0.74196 0.84162 0.96004 0.0
O716 O 0.60047 0.76125 0.94432 0.0
O717 O 0.6613 0.75492 0.91828 0.0
O718 O 0.65762 0.72774 0.81865 0.0
O719 O 0.61108 0.77332 0.824 0.0
O720 O 0.61559 0.73829 0.99077 0.0
O721 O 0.63862 0.72087 0.99238 0.0
O722 O 0.63493 0.67684 0.81964 0.0
O723 O 0.5906 0.69927 0.89401 0.0
O724 O 0.58452 0.72083 0.81019 0.0
O725 O 0.65524 0.69982 0.94694 0.0
O726 O 0.6313 0.71503 0.73739 0.0
O727 O 0.60648 0.73064 0.73428 0.0
C728 C 0.67275 0.7465 0.87475 0.0
C729 C 0.57019 0.76759 0.85625 0.0
C730 C 0.53837 0.77917 0.82908 0.0
C731 C 0.51751 0.7574 0.7968 0.0
C732 C 0.54866 0.74615 0.82405 0.0
C733 C 0.52264 0.74115 0.79437 0.0
C734 C 0.565 0.78421 0.85791 0.0
C735 C 0.62759 0.72998 0.03364 0.0
C736 C 0.5978 0.77231 0.88742 0.0
C737 C 0.71714 0.82346 0.82646 0.0
C738 C 0.72287 0.82761 0.92259 0.0
C739 C 0.57466 0.70334 0.84528 0.0
C740 C 0.68056 0.68903 0.87225 0.0
C741 C 0.705 0.67697 0.79037 0.0
C742 C 0.72941 0.69536 0.84043 0.0
C743 C 0.70523 0.70723 0.92128 0.0
C744 C 0.68066 0.67404 0.80695 0.0
C745 C 0.72944 0.71035 0.90504 0.0
C746 C 0.61733 0.72153 0.69262 0.0
C747 C 0.65461 0.68496 0.89038 0.0
H748 H 0.49704 0.75285 0.7724 0.0
H749 H 0.55193 0.73318 0.82189 0.0
H750 H 0.50626 0.72452 0.76938 0.0
H751 H 0.58143 0.80083 0.883 0.0
H752 H 0.74854 0.69806 0.83084 0.0
H753 H 0.7059 0.71904 0.97232 0.0
H754 H 0.66163 0.66015 0.76839 0.0
H755 H 0.74835 0.72441 0.94318 0.0
H756 H 0.14353 0.35564 0.97611 0.0
H757 H 0.29862 0.41853 0.94646 0.0
H758 H 0.20246 0.34856 0.1366 0.0
H759 H 0.24306 0.43266 0.8141 0.0
H760 H 0.26374 0.39357 0.01986 0.0
H761 H 0.17952 0.38444 0.91902 0.0
C762 C 0.16403 0.36023 9e-05 0.0
C763 C 0.16985 0.34949 0.0611 0.0
C764 C 0.25915 0.40221 0.97534 0.0
C765 C 0.21121 0.38237 0.99479 0.0
C766 C 0.27907 0.41644 0.93328 0.0
C767 C 0.27366 0.42756 0.8735 0.0
C768 C 0.23343 0.39882 0.95697 0.0
C769 C 0.24809 0.42446 0.8599 0.0
C770 C 0.18458 0.37665 0.96707 0.0
C771 C 0.19684 0.35602 0.08843 0.0
N772 N 0.22881 0.4102 0.90051 0.0
N773 N 0.21642 0.37193 0.05484 0.0
H774 H 0.84275 0.80598 0.13133 0.0
H775 H 0.70213 0.73974 0.76466 0.0
H776 H 0.83796 0.78779 0.84421 0.0
H777 H 0.71257 0.77644 0.02614 0.0
H778 H 0.75042 0.75415 0.79583 0.0
H779 H 0.79449 0.7919 0.09856 0.0
C780 C 0.83154 0.7989 0.06119 0.0
C781 C 0.84483 0.79844 0.99045 0.0
C782 C 0.74229 0.75921 0.84631 0.0
C783 C 0.78873 0.78177 0.95215 0.0
C784 C 0.71455 0.75095 0.82866 0.0
C785 C 0.70289 0.75682 0.89265 0.0
C786 C 0.75895 0.7733 0.92973 0.0
C787 C 0.7204 0.77146 0.97428 0.0
C788 C 0.80386 0.79087 0.04254 0.0
C789 C 0.82882 0.78859 0.90124 0.0
N790 N 0.74732 0.77897 0.9907 0.0
N791 N 0.80181 0.78074 0.88476 0.0
H792 H 0.31256 0.96014 0.83546 0.0
H793 H 0.4275 0.93625 0.97378 0.0
H794 H 0.37136 0.98963 0.09012 0.0
H795 H 0.38224 0.91736 0.69716 0.0
H796 H 0.40301 0.95222 0.02103 0.0
H797 H 0.33313 0.94034 0.78766 0.0
C798 C 0.32955 0.96227 0.8817 0.0
C799 C 0.34035 0.97674 0.96669 0.0
C800 C 0.39819 0.94445 0.94997 0.0
C801 C 0.36401 0.95418 0.9125 0.0
C802 C 0.41226 0.93533 0.92286 0.0
C803 C 0.40669 0.92511 0.83147 0.0
C804 C 0.3783 0.94353 0.88533 0.0
C805 C 0.38668 0.92451 0.76874 0.0
C806 C 0.34141 0.95108 0.85413 0.0
C807 C 0.36252 0.9789 0.02353 0.0
N808 N 0.3732 0.93356 0.79668 0.0
N809 N 0.37354 0.96784 0.99549 0.0
H810 H 0.43452 0.17388 0.15103 0.0
H811 H 0.30914 0.04911 0.97409 0.0
H812 H 0.43822 0.12461 0.98805 0.0
H813 H 0.30143 0.09541 0.14119 0.0
H814 H 0.35608 0.07715 0.97874 0.0
H815 H 0.38654 0.14694 0.14727 0.0
C816 C 0.42547 0.15755 0.11409 0.0
C817 C 0.44122 0.15194 0.06987 0.0
C818 C 0.34428 0.08138 0.01451 0.0
C819 C 0.38533 0.12041 0.06571 0.0
C820 C 0.31724 0.06514 0.01256 0.0
C821 C 0.30067 0.06942 0.0579 0.0
C822 C 0.35572 0.10268 0.06206 0.0
C823 C 0.3128 0.09104 0.1039 0.0
C824 C 0.39785 0.14203 0.11218 0.0
C825 C 0.4276 0.13017 0.0237 0.0
N826 N 0.33926 0.10662 0.10502 0.0
N827 N 0.40103 0.11555 0.02311 0.0
H828 H 0.99089 0.3177 0.34372 0.0
H829 H 0.98758 0.21928 0.04517 0.0
H830 H 0.93497 0.28064 0.08656 0.0
H831 H 0.05458 0.26702 0.261 0.0
H832 H 0.96539 0.23891 0.06805 0.0
H833 H 1.01201 0.29729 0.32239 0.0
C834 C 0.98294 0.30527 0.28264 0.0
C835 C 0.96091 0.30103 0.21695 0.0
C836 C 0.98499 0.24515 0.11023 0.0
C837 C 0.98494 0.27698 0.19279 0.0
C838 C 0.99768 0.23385 0.09747 0.0
C839 C 1.02332 0.24155 0.15024 0.0
C840 C 0.99771 0.26425 0.17736 0.0
C841 C 0.03519 0.26062 0.217 0.0
C842 C 0.99502 0.29351 0.27068 0.0
C843 C 0.95146 0.28435 0.1401 0.0
N844 N 1.02237 0.27118 0.22864 0.0
N845 N 0.96339 0.27299 0.13033 0.0
H846 H 0.84823 0.68125 0.97816 0.0
H847 H 0.84254 0.58693 0.22114 0.0
H848 H 0.90706 0.69313 0.21254 0.0
H849 H 0.77797 0.5755 0.01106 0.0
H850 H 0.86708 0.62543 0.21463 0.0
H851 H 0.82228 0.6428 0.98727 0.0
C852 C 0.85564 0.67601 0.03226 0.0
C853 C 0.88035 0.69096 0.09389 0.0
C854 C 0.84754 0.6145 0.1697 0.0
C855 C 0.85063 0.64617 0.10374 0.0
C856 C 0.83354 0.5923 0.17294 0.0
C857 C 0.80795 0.5774 0.11631 0.0
C858 C 0.83618 0.6223 0.10909 0.0
C859 C 0.7975 0.58599 0.05659 0.0
C860 C 0.84086 0.65385 0.03696 0.0
C861 C 0.88858 0.68256 0.16185 0.0
N862 N 0.81147 0.60751 0.05453 0.0
N863 N 0.87411 0.66109 0.1643 0.0
H864 H 0.23612 0.51808 0.74649 0.0
H865 H 0.13785 0.41444 0.34321 0.0
H866 H 0.26231 0.49661 0.52733 0.0
H867 H 0.10726 0.43982 0.5307 0.0
H868 H 0.18344 0.44502 0.41082 0.0
H869 H 0.18912 0.4905 0.67098 0.0
C870 C 0.23204 0.50785 0.68193 0.0
C871 C 0.25338 0.50996 0.64307 0.0
C872 C 0.16686 0.4441 0.43721 0.0
C873 C 0.19948 0.47781 0.55712 0.0
C874 C 0.14074 0.42658 0.39843 0.0
C875 C 0.1186 0.42446 0.43134 0.0
C876 C 0.17131 0.45974 0.51091 0.0
C877 C 0.12368 0.44084 0.50281 0.0
C878 C 0.20516 0.49195 0.63913 0.0
C879 C 0.24672 0.49566 0.56054 0.0
N880 N 0.14949 0.45765 0.54085 0.0
N881 N 0.22056 0.48028 0.52089 0.0
H882 H 0.66969 0.63292 0.74747 0.0
H883 H 0.73889 0.61179 0.36066 0.0
H884 H 0.74001 0.6842 0.6742 0.0
H885 H 0.65449 0.57062 0.35943 0.0
H886 H 0.74401 0.63578 0.49898 0.0
H887 H 0.66809 0.60731 0.62666 0.0
C888 C 0.68477 0.63889 0.70607 0.0
C889 C 0.70481 0.66094 0.72075 0.0
C890 C 0.72446 0.62136 0.46885 0.0
C891 C 0.70346 0.63142 0.58381 0.0
C892 C 0.7216 0.60766 0.39066 0.0
C893 C 0.69623 0.58935 0.34899 0.0
C894 C 0.70186 0.61645 0.50599 0.0
C895 C 0.67434 0.58469 0.38963 0.0
C896 C 0.68393 0.62418 0.63754 0.0
C897 C 0.72429 0.66742 0.66638 0.0
N898 N 0.67764 0.59815 0.46588 0.0
N899 N 0.72309 0.65275 0.60027 0.0
H900 H 0.45385 0.03007 0.16962 0.0
H901 H 0.51185 0.04688 0.70366 0.0
H902 H 0.48264 0.08739 0.37151 0.0
H903 H 0.49344 0.99242 0.50306 0.0
H904 H 0.49674 0.05988 0.58331 0.0
H905 H 0.46376 1.01407 0.29076 0.0
C906 C 0.462 0.03921 0.23947 0.0
C907 C 0.46757 0.06018 0.26025 0.0
C908 C 0.4959 0.04505 0.56528 0.0
C909 C 0.47901 0.04199 0.39907 0.0
C910 C 0.50462 0.03762 0.63412 0.0
C911 C 0.5043 1.01865 0.61347 0.0
C912 C 0.48665 0.03348 0.47436 0.0
C913 C 0.49403 1.0071 0.52224 0.0
C914 C 0.46779 0.03011 0.30846 0.0
C915 C 0.47837 0.07132 0.3519 0.0
N916 N 0.4858 1.01478 0.45591 0.0
N917 N 0.48374 0.06212 0.41754 0.0
H918 H 0.18406 0.13615 0.15476 0.0
H919 H 0.0627 0.15055 0.98277 0.0
H920 H 0.11366 0.08893 0.94979 0.0
H921 H 0.1274 0.19354 0.21413 0.0
H922 H 0.08042 0.1275 0.97309 0.0
H923 H 0.16301 0.15646 0.18308 0.0
C924 C 0.16375 0.12966 0.11795 0.0
C925 C 0.15034 0.11042 0.05161 0.0
C926 C 0.09079 0.14196 0.02614 0.0
C927 C 0.12642 0.13428 0.08044 0.0
C928 C 0.08068 0.15524 0.0317 0.0
C929 C 0.09366 0.17436 0.09878 0.0
C930 C 0.1143 0.14767 0.08778 0.0
C931 C 0.11683 0.17926 0.1603 0.0
C932 C 0.15184 0.14143 0.13326 0.0
C933 C 0.12446 0.1033 0.00337 0.0
N934 N 0.12644 0.16617 0.15294 0.0
N935 N 0.11352 0.11526 0.01807 0.0
H936 H 1.00668 0.99002 0.02389 0.0
H937 H 0.9532 0.05728 0.26515 0.0
H938 H 0.95701 0.9687 0.22388 0.0
H939 H 0.98909 0.07154 0.02845 0.0
H940 H 0.95611 0.02567 0.2558 0.0
H941 H 1.00255 1.02106 0.03023 0.0
C942 C 0.99495 0.99188 0.0693 0.0
C943 C 0.98219 0.9767 0.12349 0.0
C944 C 0.96331 0.03571 0.20584 0.0
C945 C 0.97732 1.01225 0.13098 0.0
C946 C 0.96153 0.05374 0.2108 0.0
C947 C 0.97093 0.06724 0.14758 0.0
C948 C 0.97472 0.03111 0.13748 0.0
C949 C 0.98199 0.06192 0.07979 0.0
C950 C 0.99248 1.00956 0.07252 0.0
C951 C 0.96696 0.97985 0.18019 0.0
N952 N 0.98362 0.04435 0.07672 0.0
N953 N 0.96506 0.99729 0.18277 0.0
H954 H 1.02479 0.86496 0.10676 0.0
H955 H 0.11845 0.98226 0.97496 0.0
H956 H 0.99381 0.89568 0.9532 0.0
H957 H 0.15225 0.94975 0.09577 0.0
H958 H 0.07313 0.95128 0.9735 0.0
H959 H 0.07107 0.89513 0.10738 0.0
C960 C 1.0274 0.87777 0.07264 0.0
C961 C 1.00449 0.87725 0.03038 0.0
C962 C 0.09042 0.95074 -0.0002 0.0
C963 C 0.05852 0.91276 0.0321 0.0
C964 C 0.11662 0.96867 0.00091 0.0
C965 C 0.14007 0.96897 0.03356 0.0
C966 C 0.08683 0.93249 0.03267 0.0
C967 C 0.1354 0.95042 0.06668 0.0
C968 C 0.0541 0.89524 0.07345 0.0
C969 C 1.01016 0.89489 0.98783 0.0
N970 N 0.10983 0.93329 0.06549 0.0
N971 N 0.03599 0.91157 0.99045 0.0
H972 H 0.83733 0.43471 0.29311 0.0
H973 H 0.91649 0.38392 0.10114 0.0
H974 H 0.89402 0.46271 0.11946 0.0
H975 H 0.8816 0.36756 0.33794 0.0
H976 H 0.90234 0.40912 0.09197 0.0
H977 H 0.84678 0.4062 0.29436 0.0
C978 C 0.85135 0.43463 0.2539 0.0
C979 C 0.86484 0.4511 0.20587 0.0
C980 C 0.89764 0.4 0.14589 0.0
C981 C 0.87588 0.41865 0.20734 0.0
C982 C 0.90584 0.38563 0.15143 0.0
C983 C 0.90063 0.37377 0.22125 0.0
C984 C 0.88361 0.40248 0.20979 0.0
C985 C 0.88614 0.37639 0.28309 0.0
C986 C 0.85695 0.41849 0.25536 0.0
C987 C 0.88315 0.45036 0.15739 0.0
N988 N 0.87816 0.39045 0.27602 0.0
N989 N 0.88807 0.4345 0.15932 0.0
H990 H 0.69885 0.4579 0.24287 0.0
H991 H 0.64031 0.33344 0.13087 0.0
H992 H 0.72194 0.43603 0.01525 0.0
H993 H 0.59064 0.35826 0.1745 0.0
H994 H 0.67545 0.36931 0.10848 0.0
H995 H 0.66522 0.42072 0.24537 0.0
C996 C 0.69673 0.44534 0.19233 0.0
C997 C 0.71278 0.45055 0.1262 0.0
C998 C 0.65673 0.36673 0.12261 0.0
C999 C 0.67472 0.40697 0.13283 0.0
C1000 C 0.63651 0.34616 0.13513 0.0
C1001 C 0.6123 0.3425 0.15745 0.0
C1002 C 0.65305 0.38398 0.13384 0.0
C1003 C 0.60905 0.36003 0.16149 0.0
C1004 C 0.67758 0.42394 0.19465 0.0
C1005 C 0.70987 0.43305 0.06667 0.0
N1006 N 0.6291 0.37976 0.15175 0.0
N1007 N 0.69129 0.41211 0.07141 0.0
H1008 H 0.61067 0.21464 0.24931 0.0
H1009 H 0.7348 0.2855 0.01546 0.0
H1010 H 0.60098 0.23092 0.98724 0.0
H1011 H 0.74306 0.26003 0.25212 0.0
H1012 H 0.68592 0.2652 0.0028 0.0
H1013 H 0.65875 0.23091 0.25216 0.0
C1014 C 0.61858 0.22145 0.19182 0.0
C1015 C 0.60146 0.22097 0.11715 0.0
C1016 C 0.69826 0.26373 0.05684 0.0
C1017 C 0.65712 0.24038 0.12102 0.0
C1018 C 0.72622 0.27522 0.06363 0.0
C1019 C 0.74312 0.27423 0.13406 0.0
C1020 C 0.68681 0.25135 0.12208 0.0
C1021 C 0.73084 0.26098 0.19574 0.0
C1022 C 0.64616 0.23087 0.19371 0.0
C1023 C 0.61324 0.2308 0.04622 0.0
N1024 N 0.70356 0.25027 0.18887 0.0
N1025 N 0.64018 0.24005 0.04994 0.0
H1026 H 0.56343 0.81835 0.77248 0.0
H1027 H 0.44794 0.83955 0.86058 0.0
H1028 H 0.49633 0.77785 0.89115 0.0
H1029 H 0.51033 0.87952 0.72338 0.0
H1030 H 0.46736 0.81817 0.87745 0.0
H1031 H 0.54711 0.84255 0.76223 0.0
C1032 C 0.54554 0.81467 0.79757 0.0
C1033 C 0.53124 0.79585 0.83227 0.0
C1034 C 0.47706 0.8317 0.84414 0.0
C1035 C 0.51221 0.82344 0.81988 0.0
C1036 C 0.46588 0.84402 0.83422 0.0
C1037 C 0.47762 0.86177 0.79139 0.0
C1038 C 0.50036 0.8369 0.81107 0.0
C1039 C 0.50087 0.86641 0.75871 0.0
C1040 C 0.53607 0.82842 0.79094 0.0
C1041 C 0.50796 0.79194 0.86281 0.0
N1042 N 0.51145 0.85412 0.76918 0.0
N1043 N 0.49926 0.80545 0.85567 0.0
H1044 H 0.44327 0.70459 0.835 0.0
H1045 H 0.3751 0.77081 0.76882 0.0
H1046 H 0.37102 0.69049 0.92699 0.0
H1047 H 0.44779 0.78567 0.67843 0.0
H1048 H 0.37808 0.74563 0.85222 0.0
H1049 H 0.44974 0.7381 0.80145 0.0
C1050 C 0.42898 0.70868 0.84945 0.0
C1051 C 0.4063 0.69453 0.88235 0.0
C1052 C 0.39361 0.75461 0.81523 0.0
C1053 C 0.41341 0.73272 0.843 0.0
C1054 C 0.39202 0.76912 0.7681 0.0
C1055 C 0.41094 0.78004 0.71516 0.0
C1056 C 0.41416 0.75088 0.80888 0.0
C1057 C 0.43234 0.7771 0.71634 0.0
C1058 C 0.43264 0.72779 0.82994 0.0
C1059 C 0.3884 0.70065 0.8994 0.0
N1060 N 0.43317 0.76257 0.76135 0.0
N1061 N 0.39218 0.71917 0.87856 0.0
H1062 H 0.53302 0.69194 0.70052 0.0
H1063 H 0.42165 0.59536 0.90383 0.0
H1064 H 0.54852 0.6797 0.96751 0.0
H1065 H 0.40132 0.6147 0.6629 0.0
H1066 H 0.46879 0.62478 0.92238 0.0
H1067 H 0.48511 0.66329 0.68139 0.0
C1068 C 0.52634 0.6834 0.75541 0.0
C1069 C 0.54498 0.68806 0.83518 0.0
C1070 C 0.45405 0.6226 0.86525 0.0
C1071 C 0.49022 0.65499 0.81338 0.0
C1072 C 0.42712 0.60556 0.854 0.0
C1073 C 0.40741 0.60219 0.78079 0.0
C1074 C 0.46156 0.63657 0.80297 0.0
C1075 C 0.41574 0.61656 0.72026 0.0
C1076 C 0.49902 0.66693 0.74429 0.0
C1077 C 0.53506 0.6764 0.90399 0.0
N1078 N 0.44206 0.63298 0.73244 0.0
N1079 N 0.50861 0.66038 0.89126 0.0
H1080 H 0.04993 0.17944 0.81646 0.0
H1081 H 0.07348 0.24684 0.41835 0.0
H1082 H 0.06438 0.24311 0.86155 0.0
H1083 H 0.04956 0.18047 0.37651 0.0
H1084 H 0.07163 0.24665 0.58076 0.0
H1085 H 0.05063 0.18026 0.65562 0.0
C1086 C 0.05265 0.19345 0.79225 0.0
C1087 C 0.05632 0.21099 0.85262 0.0
C1088 C 0.06679 0.23215 0.5359 0.0
C1089 C 0.0582 0.21237 0.66729 0.0
C1090 C 0.06795 0.23226 0.44325 0.0
C1091 C 0.06176 0.21366 0.38347 0.0
C1092 C 0.05949 0.21333 0.56919 0.0
C1093 C 0.05448 0.1952 0.4196 0.0
C1094 C 0.05339 0.19401 0.70013 0.0
C1095 C 0.06113 0.22912 0.81736 0.0
N1096 N 0.05361 0.19554 0.50975 0.0
N1097 N 0.06193 0.22935 0.72702 0.0
H1098 H 0.95583 0.86661 0.79859 0.0
H1099 H 0.90211 0.80005 0.28114 0.0
H1100 H 0.88863 0.80067 0.71542 0.0
H1101 H 0.95843 0.86888 0.3521 0.0
H1102 H 0.89931 0.7998 0.44138 0.0
H1103 H 0.95891 0.86765 0.6379 0.0
C1104 C 0.94168 0.85233 0.74652 0.0
C1105 C 0.92215 0.8334 0.77086 0.0
C1106 C 0.91231 0.81499 0.4222 0.0
C1107 C 0.92571 0.83447 0.58629 0.0
C1108 C 0.91406 0.81516 0.33041 0.0
C1109 C 0.93059 0.83455 0.3025 0.0
C1110 C 0.92733 0.83431 0.48774 0.0
C1111 C 0.94541 0.85356 0.37017 0.0
C1112 C 0.94351 0.85294 0.65472 0.0
C1113 C 0.90439 0.81544 0.70026 0.0
N1114 N 0.94346 0.85296 0.45958 0.0
N1115 N 0.90667 0.81639 0.61147 0.0
H1116 H 0.25757 0.02241 0.78544 0.0
H1117 H 0.17986 1.01114 0.28725 0.0
H1118 H 0.18041 1.01541 0.73725 0.0
H1119 H 0.26341 0.03197 0.34776 0.0
H1120 H 0.17862 1.01035 0.44909 0.0
H1121 H 0.25886 0.02351 0.62399 0.0
C1122 C 0.24079 1.021 0.74094 0.0
C1123 C 0.21876 1.01872 0.77556 0.0
C1124 C 0.19725 1.0151 0.42716 0.0
C1125 C 0.22019 1.01998 0.58919 0.0
C1126 C 0.198 1.01557 0.33457 0.0
C1127 C 0.22178 1.02157 0.3033 0.0
C1128 C 0.2204 1.02051 0.48978 0.0
C1129 C 0.24456 0.02704 0.36825 0.0
C1130 C 0.24163 0.02173 0.64856 0.0
C1131 C 0.19779 1.01717 0.71406 0.0
N1132 N 0.24328 0.0263 0.45804 0.0
N1133 N 0.19898 1.01774 0.62409 0.0
H1134 H 0.76447 0.54591 0.42367 0.0
H1135 H 0.75195 0.47875 0.81947 0.0
H1136 H 0.77008 0.49028 0.39309 0.0
H1137 H 0.76203 0.54087 0.86737 0.0
H1138 H 0.75531 0.48141 0.65963 0.0
H1139 H 0.7606 0.54326 0.58332 0.0
C1140 C 0.76498 0.5332 0.45046 0.0
C1141 C 0.76768 0.51835 0.39456 0.0
C1142 C 0.75681 0.49448 0.70511 0.0
C1143 C 0.76304 0.51509 0.57731 0.0
C1144 C 0.75493 0.49296 0.79643 0.0
C1145 C 0.75712 0.50974 0.85743 0.0
C1146 C 0.76051 0.51278 0.67384 0.0
C1147 C 0.76034 0.52757 0.82303 0.0
C1148 C 0.76276 0.53168 0.54165 0.0
C1149 C 0.76821 0.5022 0.43336 0.0
N1150 N 0.76199 0.52864 0.73388 0.0
N1151 N 0.7658 0.50096 0.5218 0.0
H1152 H 0.55732 0.22445 0.41778 0.0
H1153 H 0.48308 0.15396 0.78086 0.0
H1154 H 0.48957 0.15855 0.34016 0.0
H1155 H 0.55504 0.21786 0.85598 0.0
H1156 H 0.48465 0.15517 0.61858 0.0
H1157 H 0.55603 0.22255 0.57916 0.0
C1158 C 0.5421 0.20965 0.43454 0.0
C1159 C 0.5235 0.1917 0.36511 0.0
C1160 C 0.50013 0.16888 0.67078 0.0
C1161 C 0.522 0.18928 0.54978 0.0
C1162 C 0.49929 0.16813 0.76332 0.0
C1163 C 0.51892 0.1858 0.83215 0.0
C1164 C 0.52067 0.18749 0.6471 0.0
C1165 C 0.53932 0.20388 0.80538 0.0
C1166 C 0.54143 0.2085 0.52672 0.0
C1167 C 0.5044 0.17282 0.39117 0.0
N1168 N 0.53961 0.20427 0.71536 0.0
N1169 N 0.50412 0.17212 0.48112 0.0
H1170 H 0.96637 0.33478 0.52077 0.0
H1171 H 0.88975 0.32868 0.9291 0.0
H1172 H 0.89589 0.338 0.49536 0.0
H1173 H 0.96994 0.34122 0.97312 0.0
H1174 H 0.89002 0.32891 0.767 0.0
H1175 H 0.96665 0.3344 0.68395 0.0
C1176 C 0.95094 0.33537 0.54954 0.0
C1177 C 0.93088 0.33616 0.4942 0.0
C1178 C 0.90758 0.33163 0.81204 0.0
C1179 C 0.93102 0.33567 0.68051 0.0
C1180 C 0.90741 0.33141 0.90471 0.0
C1181 C 0.92988 0.33495 0.96507 0.0
C1182 C 0.93029 0.33524 0.77884 0.0
C1183 C 0.95221 0.33851 0.92924 0.0
C1184 C 0.95111 0.33516 0.64258 0.0
C1185 C 0.91146 0.33701 0.53511 0.0
N1186 N 0.95183 0.3385 0.83841 0.0
N1187 N 0.91193 0.33663 0.62556 0.0
H1188 H 0.42785 0.86033 0.47044 0.0
H1189 H 0.45485 0.92736 0.07093 0.0
H1190 H 0.45719 0.92792 0.51406 0.0
H1191 H 0.43412 0.86182 0.02777 0.0
H1192 H 0.45426 0.92725 0.23262 0.0
H1193 H 0.42811 0.85987 0.30745 0.0
C1194 C 0.43426 0.87506 0.44581 0.0
C1195 C 0.4425 0.8942 0.50618 0.0
C1196 C 0.44983 0.91286 0.188 0.0
C1197 C 0.44289 0.89377 0.31963 0.0
C1198 C 0.45028 0.91294 0.0955 0.0
C1199 C 0.4445 0.89456 0.03554 0.0
C1200 C 0.4435 0.89423 0.22128 0.0
C1201 C 0.43836 0.87626 0.07135 0.0
C1202 C 0.43448 0.87479 0.35273 0.0
C1203 C 0.45072 0.9128 0.47029 0.0
N1204 N 0.438 0.87654 0.16195 0.0
N1205 N 0.45068 0.9121 0.3795 0.0
H1206 H 0.35021 0.58925 0.05037 0.0
H1207 H 0.30223 0.51985 0.43858 0.0
H1208 H 0.30603 0.51985 0.99538 0.0
H1209 H 0.35584 0.58896 0.4964 0.0
H1210 H 0.30145 0.5195 0.27517 0.0
H1211 H 0.35023 0.58943 0.2129 0.0
C1212 C 0.34041 0.57402 0.0723 0.0
C1213 C 0.32809 0.55448 0.0089 0.0
C1214 C 0.31334 0.53475 0.32355 0.0
C1215 C 0.3281 0.55462 0.1955 0.0
C1216 C 0.31384 0.53496 0.41684 0.0
C1217 C 0.32901 0.55448 0.48111 0.0
C1218 C 0.32807 0.55422 0.29415 0.0
C1219 C 0.34352 0.57357 0.4491 0.0
C1220 C 0.34051 0.57415 0.16534 0.0
C1221 C 0.31583 0.53529 0.04173 0.0
N1222 N 0.34268 0.57297 0.35789 0.0
N1223 N 0.31613 0.53584 0.13272 0.0
H1224 H 0.58065 0.721 0.56073 0.0
H1225 H 0.65789 0.72255 0.15775 0.0
H1226 H 0.65385 0.72163 0.59922 0.0
H1227 H 0.59495 0.73525 0.13244 0.0
H1228 H 0.65447 0.71945 0.31654 0.0
H1229 H 0.58301 0.72317 0.39986 0.0
C1230 C 0.59712 0.72149 0.53518 0.0
C1231 C 0.61715 0.72126 0.59359 0.0
C1232 C 0.64146 0.72299 0.27638 0.0
C1233 C 0.61993 0.72362 0.40983 0.0
C1234 C 0.64341 0.72476 0.18562 0.0
C1235 C 0.62673 0.72921 0.13154 0.0
C1236 C 0.62255 0.72552 0.31353 0.0
C1237 C 0.60835 0.73194 0.17162 0.0
C1238 C 0.59851 0.72278 0.44354 0.0
C1239 C 0.63793 0.72172 0.55673 0.0
N1240 N 0.60668 0.72996 0.25998 0.0
N1241 N 0.63879 0.72291 0.46745 0.0
loop_
_geom_bond_atom_site_label_1
_geom_bond_atom_site_label_2
_geom_bond_distance
_geom_bond_site_symmetry_2
_ccdc_geom_bond_type
Tb0 N29 2.617 1_454 S
Tb0 N35 2.572 1_455 S
Tb0 O44 2.465 1_455 S
Tb0 O45 2.387 . S
Tb0 O47 2.428 1_455 S
Tb0 O48 2.308 . S
Tb0 O52 2.349 . S
Tb0 O55 2.393 1_554 S
Tb0 C64 2.802 1_455 S
C1 N2 1.379 . S
C1 C4 1.416 . S
C1 C8 1.424 . S
N2 C1 1.379 . S
N2 C5 1.334 . S
N2 Tb11 2.617 . S
C3 C5 1.390 . S
C3 C6 1.339 . S
C3 H23 0.930 . S
C4 C1 1.416 . S
C4 C6 1.416 . S
C4 C10 1.448 . S
C5 N2 1.334 . S
C5 C3 1.390 . S
C5 H16 0.930 . S
C6 C3 1.339 . S
C6 C4 1.416 . S
C6 H27 0.930 . S
C7 C8 1.413 . S
C7 C9 1.427 . S
C7 C13 1.416 . S
C8 C1 1.424 . S
C8 C7 1.413 . S
C8 N12 1.361 . S
C9 C7 1.427 . S
C9 C10 1.328 . S
C9 H24 0.929 . S
C10 C4 1.448 . S
C10 C9 1.328 . S
C10 H25 0.930 . S
Tb11 N2 2.617 . S
Tb11 N12 2.572 . S
Tb11 O46 2.349 . S
Tb11 O49 2.393 . S
Tb11 O50 2.465 . S
Tb11 O51 2.387 . S
Tb11 O53 2.428 . S
Tb11 O54 2.308 . S
Tb11 C75 2.802 . S
N12 C8 1.361 . S
N12 Tb11 2.572 . S
N12 C14 1.340 . S
C13 C7 1.416 . S
C13 C15 1.332 . S
C13 H21 0.931 . S
C14 N12 1.340 . S
C14 C15 1.407 . S
C14 H20 0.930 . S
C15 C13 1.332 . S
C15 C14 1.407 . S
C15 H17 0.929 1_554 S
H16 C5 0.930 . S
H17 C15 0.929 1_556 S
H18 C33 0.930 . S
H19 C40 0.929 . S
H20 C14 0.930 . S
H21 C13 0.931 . S
H22 C36 0.930 . S
H23 C3 0.930 . S
H24 C9 0.929 . S
H25 C10 0.930 . S
H26 C31 0.930 . S
H27 C6 0.930 . S
H28 C39 0.931 . S
N29 Tb0 2.617 1_656 S
N29 C30 1.379 . S
N29 C33 1.334 . S
C30 N29 1.379 . S
C30 C32 1.416 . S
C30 C38 1.424 1_556 S
C31 H26 0.930 . S
C31 C33 1.390 . S
C31 C34 1.339 . S
C32 C30 1.416 . S
C32 C34 1.416 . S
C32 C65 1.448 . S
C33 H18 0.930 . S
C33 N29 1.334 . S
C33 C31 1.390 . S
C34 C31 1.339 . S
C34 C32 1.416 . S
C34 H41 0.930 . S
N35 Tb0 2.572 1_655 S
N35 C36 1.340 . S
N35 C38 1.361 . S
C36 H22 0.930 . S
C36 N35 1.340 . S
C36 C40 1.407 . S
C37 C38 1.413 . S
C37 C39 1.416 . S
C37 C66 1.427 . S
C38 C30 1.424 1_554 S
C38 N35 1.361 . S
C38 C37 1.413 . S
C39 H28 0.931 . S
C39 C37 1.416 . S
C39 C40 1.332 . S
C40 H19 0.929 . S
C40 C36 1.407 . S
C40 C39 1.332 . S
H41 C34 0.930 . S
H42 C65 0.930 . S
H43 C66 0.929 . S
O44 Tb0 2.465 1_655 S
O44 C64 1.264 . S
O45 Tb0 2.387 . S
O45 C56 1.264 . S
O46 Tb11 2.349 . S
O46 C56 1.243 . S
O47 Tb0 2.428 1_655 S
O47 C64 1.256 . S
O48 Tb0 2.308 . S
O48 C63 1.266 . S
O49 Tb11 2.393 . S
O49 C63 1.248 . S
O50 Tb11 2.465 . S
O50 C75 1.264 . S
O51 Tb11 2.387 . S
O51 C67 1.264 . S
O52 Tb0 2.349 . S
O52 C67 1.243 . S
O53 Tb11 2.428 . S
O53 C75 1.256 . S
O54 Tb11 2.308 . S
O54 C74 1.266 1_554 S
O55 Tb0 2.393 1_556 S
O55 C74 1.248 . S
C56 O45 1.264 . S
C56 O46 1.243 . S
C57 C60 1.399 . S
C57 C62 1.383 . S
C57 C64 1.496 . S
C58 C59 1.399 . S
C58 C62 1.389 . S
C59 C58 1.399 . S
C59 C61 1.380 . S
C59 H76 0.929 . S
C60 C57 1.399 . S
C60 C61 1.392 . S
C60 H77 0.929 1_554 S
C61 C59 1.380 . S
C61 C60 1.392 . S
C61 H78 0.929 1_554 S
C62 C57 1.383 . S
C62 C58 1.389 . S
C62 H79 0.931 . S
C63 O48 1.266 . S
C63 O49 1.248 . S
C64 Tb0 2.802 1_655 S
C64 O44 1.264 . S
C64 O47 1.256 . S
C64 C57 1.496 . S
C65 C32 1.448 . S
C65 H42 0.930 . S
C65 C66 1.328 1_556 S
C66 C37 1.427 . S
C66 H43 0.929 . S
C66 C65 1.328 1_554 S
C67 O51 1.264 . S
C67 O52 1.243 . S
C68 C71 1.399 . S
C68 C72 1.383 . S
C68 C75 1.496 . S
C69 C70 1.399 . S
C69 C72 1.389 . S
C70 C69 1.399 . S
C70 C73 1.380 . S
C70 H80 0.929 . S
C71 C68 1.399 . S
C71 C73 1.392 . S
C71 H81 0.929 . S
C72 C68 1.383 . S
C72 C69 1.389 . S
C72 H82 0.931 . S
C73 C70 1.380 . S
C73 C71 1.392 . S
C73 H83 0.929 . S
C74 O54 1.266 1_556 S
C74 O55 1.248 . S
C75 Tb11 2.802 . S
C75 O50 1.264 . S
C75 O53 1.256 . S
C75 C68 1.496 . S
H76 C59 0.929 . S
H77 C60 0.929 1_556 S
H78 C61 0.929 1_556 S
H79 C62 0.931 . S
H80 C70 0.929 . S
H81 C71 0.929 . S
H82 C72 0.931 . S
H83 C73 0.929 . S
Tb84 N113 2.617 . S
Tb84 N119 2.572 . S
Tb84 O128 2.465 . S
Tb84 O129 2.387 . S
Tb84 O131 2.428 . S
Tb84 O132 2.308 1_554 S
Tb84 O136 2.349 . S
Tb84 O139 2.393 . S
Tb84 C148 2.802 . S
C85 N86 1.379 1_554 S
C85 C88 1.416 1_554 S
C85 C92 1.424 . S
N86 C85 1.379 1_556 S
N86 C89 1.334 . S
N86 Tb95 2.617 1_556 S
C87 C89 1.390 . S
C87 C90 1.339 . S
C87 H107 0.930 . S
C88 C85 1.416 1_556 S
C88 C90 1.416 . S
C88 C94 1.448 . S
C89 N86 1.334 . S
C89 C87 1.390 . S
C89 H100 0.930 . S
C90 C87 1.339 . S
C90 C88 1.416 . S
C90 H111 0.930 . S
C91 C92 1.413 . S
C91 C93 1.427 . S
C91 C97 1.416 . S
C92 C85 1.424 . S
C92 C91 1.413 . S
C92 N96 1.361 . S
C93 C91 1.427 . S
C93 C94 1.328 1_554 S
C93 H108 0.929 1_655 S
C94 C88 1.448 . S
C94 C93 1.328 1_556 S
C94 H109 0.930 . S
Tb95 N86 2.617 1_554 S
Tb95 N96 2.572 . S
Tb95 O130 2.349 . S
Tb95 O133 2.393 1_554 S
Tb95 O134 2.465 . S
Tb95 O135 2.387 . S
Tb95 O137 2.428 1_554 S
Tb95 O138 2.308 . S
Tb95 C159 2.802 . S
N96 C92 1.361 . S
N96 Tb95 2.572 . S
N96 C98 1.340 . S
C97 C91 1.416 . S
C97 C99 1.332 . S
C97 H105 0.931 . S
C98 N96 1.340 . S
C98 C99 1.407 . S
C98 H104 0.930 . S
C99 C97 1.332 . S
C99 C98 1.407 . S
C99 H101 0.929 . S
H100 C89 0.930 . S
H101 C99 0.929 . S
H102 C117 0.930 . S
H103 C124 0.929 . S
H104 C98 0.930 . S
H105 C97 0.931 . S
H106 C120 0.930 . S
H107 C87 0.930 . S
H108 C93 0.929 1_455 S
H109 C94 0.930 . S
H110 C115 0.930 . S
H111 C90 0.930 . S
H112 C123 0.931 . S
N113 Tb84 2.617 . S
N113 C114 1.379 . S
N113 C117 1.334 . S
C114 N113 1.379 . S
C114 C116 1.416 . S
C114 C122 1.424 . S
C115 H110 0.930 . S
C115 C117 1.390 . S
C115 C118 1.339 . S
C116 C114 1.416 . S
C116 C118 1.416 . S
C116 C149 1.448 . S
C117 H102 0.930 . S
C117 N113 1.334 . S
C117 C115 1.390 . S
C118 C115 1.339 . S
C118 C116 1.416 . S
C118 H125 0.930 . S
N119 Tb84 2.572 . S
N119 C120 1.340 1_554 S
N119 C122 1.361 . S
C120 H106 0.930 . S
C120 N119 1.340 1_556 S
C120 C124 1.407 . S
C121 C122 1.413 . S
C121 C123 1.416 1_554 S
C121 C150 1.427 . S
C122 C114 1.424 . S
C122 N119 1.361 . S
C122 C121 1.413 . S
C123 H112 0.931 . S
C123 C121 1.416 1_556 S
C123 C124 1.332 . S
C124 H103 0.929 . S
C124 C120 1.407 . S
C124 C123 1.332 . S
H125 C118 0.930 . S
H126 C149 0.930 . S
H127 C150 0.929 . S
O128 Tb84 2.465 . S
O128 C148 1.264 . S
O129 Tb84 2.387 . S
O129 C140 1.264 . S
O130 Tb95 2.349 . S
O130 C140 1.243 . S
O131 Tb84 2.428 . S
O131 C148 1.256 . S
O132 Tb84 2.308 1_556 S
O132 C147 1.266 . S
O133 Tb95 2.393 1_556 S
O133 C147 1.248 . S
O134 Tb95 2.465 . S
O134 C159 1.264 . S
O135 Tb95 2.387 . S
O135 C151 1.264 . S
O136 Tb84 2.349 . S
O136 C151 1.243 . S
O137 Tb95 2.428 1_556 S
O137 C159 1.256 1_556 S
O138 Tb95 2.308 . S
O138 C158 1.266 . S
O139 Tb84 2.393 . S
O139 C158 1.248 . S
C140 O129 1.264 . S
C140 O130 1.243 . S
C141 C144 1.399 . S
C141 C146 1.383 . S
C141 C148 1.496 . S
C142 C143 1.399 . S
C142 C146 1.389 . S
C143 C142 1.399 . S
C143 C145 1.380 . S
C143 H160 0.929 . S
C144 C141 1.399 . S
C144 C145 1.392 . S
C144 H161 0.929 . S
C145 C143 1.380 . S
C145 C144 1.392 . S
C145 H162 0.929 . S
C146 C141 1.383 . S
C146 C142 1.389 . S
C146 H163 0.931 . S
C147 O132 1.266 . S
C147 O133 1.248 . S
C148 Tb84 2.802 . S
C148 O128 1.264 . S
C148 O131 1.256 . S
C148 C141 1.496 . S
C149 C116 1.448 . S
C149 H126 0.930 . S
C149 C150 1.328 . S
C150 C121 1.427 . S
C150 H127 0.929 . S
C150 C149 1.328 . S
C151 O135 1.264 . S
C151 O136 1.243 . S
C152 C155 1.399 1_554 S
C152 C156 1.383 . S
C152 C159 1.496 . S
C153 C154 1.399 . S
C153 C156 1.389 . S
C154 C153 1.399 . S
C154 C157 1.380 1_554 S
C154 H164 0.929 . S
C155 C152 1.399 1_556 S
C155 C157 1.392 . S
C155 H165 0.929 . S
C156 C152 1.383 . S
C156 C153 1.389 . S
C156 H166 0.931 . S
C157 C154 1.380 1_556 S
C157 C155 1.392 . S
C157 H167 0.929 . S
C158 O138 1.266 . S
C158 O139 1.248 . S
C159 Tb95 2.802 . S
C159 O134 1.264 . S
C159 O137 1.256 1_554 S
C159 C152 1.496 . S
H160 C143 0.929 . S
H161 C144 0.929 . S
H162 C145 0.929 . S
H163 C146 0.931 . S
H164 C154 0.929 . S
H165 C155 0.929 . S
H166 C156 0.931 . S
H167 C157 0.929 . S
Tb168 N197 2.617 . S
Tb168 N203 2.572 1_556 S
Tb168 O212 2.465 1_556 S
Tb168 O213 2.387 . S
Tb168 O215 2.428 . S
Tb168 O216 2.308 1_556 S
Tb168 O220 2.378 . S
Tb168 O223 2.393 . S
Tb168 C232 2.802 1_556 S
C169 N170 1.379 . S
C169 C172 1.416 . S
C169 C176 1.424 1_554 S
N170 C169 1.379 . S
N170 C173 1.334 . S
N170 Tb179 2.617 . S
C171 C173 1.390 . S
C171 C174 1.339 . S
C171 H191 0.930 . S
C172 C169 1.416 . S
C172 C174 1.416 . S
C172 C178 1.448 . S
C173 N170 1.334 . S
C173 C171 1.390 . S
C173 H184 0.930 . S
C174 C171 1.339 . S
C174 C172 1.416 . S
C174 H195 0.930 . S
C175 C176 1.413 . S
C175 C177 1.427 . S
C175 C181 1.416 . S
C176 C169 1.424 1_556 S
C176 C175 1.413 . S
C176 N180 1.361 . S
C177 C175 1.427 . S
C177 C178 1.328 1_556 S
C177 H192 0.929 . S
C178 C172 1.448 . S
C178 C177 1.328 1_554 S
C178 H193 0.930 . S
Tb179 N170 2.617 . S
Tb179 N180 2.572 1_554 S
Tb179 O214 2.349 1_565 S
Tb179 O217 2.393 1_565 S
Tb179 O218 2.465 1_554 S
Tb179 O219 2.387 . S
Tb179 O221 2.428 . S
Tb179 O222 2.308 1_554 S
Tb179 C243 2.802 1_554 S
N180 C176 1.361 . S
N180 Tb179 2.572 1_556 S
N180 C182 1.340 . S
C181 C175 1.416 . S
C181 C183 1.332 . S
C181 H189 0.931 . S
C182 N180 1.340 . S
C182 C183 1.407 . S
C182 H188 0.930 . S
C183 C181 1.332 . S
C183 C182 1.407 . S
C183 H185 0.929 . S
H184 C173 0.930 . S
H185 C183 0.929 . S
H186 C201 0.930 . S
H187 C208 0.929 . S
H188 C182 0.930 . S
H189 C181 0.931 . S
H190 C204 0.930 . S
H191 C171 0.930 . S
H192 C177 0.929 . S
H193 C178 0.930 . S
H194 C199 0.930 . S
H195 C174 0.930 . S
H196 C207 0.931 . S
N197 Tb168 2.617 . S
N197 C198 1.379 . S
N197 C201 1.334 . S
C198 N197 1.379 . S
C198 C200 1.416 . S
C198 C206 1.424 1_556 S
C199 H194 0.930 . S
C199 C201 1.390 . S
C199 C202 1.339 . S
C200 C198 1.416 . S
C200 C202 1.416 . S
C200 C233 1.448 . S
C201 H186 0.930 . S
C201 N197 1.334 . S
C201 C199 1.390 . S
C202 C199 1.339 . S
C202 C200 1.416 . S
C202 H209 0.930 . S
N203 Tb168 2.572 1_554 S
N203 C204 1.340 . S
N203 C206 1.361 . S
C204 H190 0.930 . S
C204 N203 1.340 . S
C204 C208 1.407 . S
C205 C206 1.413 . S
C205 C207 1.416 . S
C205 C234 1.427 . S
C206 C198 1.424 1_554 S
C206 N203 1.361 . S
C206 C205 1.413 . S
C207 H196 0.931 . S
C207 C205 1.416 . S
C207 C208 1.332 . S
C208 H187 0.929 . S
C208 C204 1.407 . S
C208 C207 1.332 . S
H209 C202 0.930 . S
H210 C233 0.930 . S
H211 C234 0.929 . S
O212 Tb168 2.465 1_554 S
O212 C232 1.264 . S
O213 Tb168 2.387 . S
O213 C224 1.264 1_556 S
O214 Tb179 2.349 1_545 S
O214 C224 1.243 . S
O215 Tb168 2.428 . S
O215 C232 1.256 1_556 S
O216 Tb168 2.308 1_554 S
O216 C231 1.266 . S
O217 Tb179 2.393 1_545 S
O217 C231 1.248 . S
O218 Tb179 2.465 1_556 S
O218 C243 1.264 . S
O219 Tb179 2.387 . S
O219 C235 1.264 1_554 S
O220 Tb168 2.378 . S
O220 C235 1.196 1_545 S
O221 Tb179 2.428 . S
O221 C243 1.256 1_554 S
O222 Tb179 2.308 1_556 S
O222 C242 1.266 1_565 S
O223 Tb168 2.393 . S
O223 C242 1.248 . S
C224 O213 1.264 1_554 S
C224 O214 1.243 . S
C225 C228 1.399 1_554 S
C225 C230 1.383 . S
C225 C232 1.496 . S
C226 C227 1.399 . S
C226 C230 1.389 . S
C227 C226 1.399 . S
C227 C229 1.380 1_554 S
C227 H244 0.929 . S
C228 C225 1.399 1_556 S
C228 C229 1.392 . S
C228 H245 0.929 . S
C229 C227 1.380 1_556 S
C229 C228 1.392 . S
C229 H246 0.929 . S
C230 C225 1.383 . S
C230 C226 1.389 . S
C230 H247 0.931 . S
C231 O216 1.266 . S
C231 O217 1.248 . S
C232 Tb168 2.802 1_554 S
C232 O212 1.264 . S
C232 O215 1.256 1_554 S
C232 C225 1.496 . S
C233 C200 1.448 . S
C233 H210 0.930 . S
C233 C234 1.328 1_556 S
C234 C205 1.427 . S
C234 H211 0.929 . S
C234 C233 1.328 1_554 S
C235 O219 1.264 1_556 S
C235 O220 1.196 1_565 S
C236 C239 1.399 1_556 S
C236 C240 1.383 . S
C236 C243 1.496 . S
C237 C238 1.399 . S
C237 C240 1.389 . S
C238 C237 1.399 . S
C238 C241 1.380 1_556 S
C238 H248 0.929 . S
C239 C236 1.399 1_554 S
C239 C241 1.392 . S
C239 H249 0.929 . S
C240 C236 1.383 . S
C240 C237 1.389 . S
C240 H250 0.931 . S
C241 C238 1.380 1_554 S
C241 C239 1.392 . S
C241 H251 0.929 . S
C242 O222 1.266 1_545 S
C242 O223 1.248 . S
C243 Tb179 2.802 1_556 S
C243 O218 1.264 . S
C243 O221 1.256 1_556 S
C243 C236 1.496 . S
H244 C227 0.929 . S
H245 C228 0.929 . S
H246 C229 0.929 . S
H247 C230 0.931 . S
H248 C238 0.929 . S
H249 C239 0.929 . S
H250 C240 0.931 . S
H251 C241 0.929 . S
Tb252 N281 2.617 . S
Tb252 N287 2.572 . S
Tb252 O296 2.465 . S
Tb252 O297 2.387 . S
Tb252 O299 2.428 . S
Tb252 O300 2.308 . S
Tb252 O304 2.349 . S
Tb252 O307 2.393 . S
Tb252 C316 2.802 . S
C253 N254 1.379 1_554 S
C253 C256 1.416 1_554 S
C253 C260 1.424 . S
N254 C253 1.379 1_556 S
N254 C257 1.334 . S
N254 Tb263 2.617 1_556 S
C255 C257 1.390 . S
C255 C258 1.339 . S
C255 H275 0.930 . S
C256 C253 1.416 1_556 S
C256 C258 1.416 . S
C256 C262 1.448 . S
C257 N254 1.334 . S
C257 C255 1.390 . S
C257 H268 0.930 . S
C258 C255 1.339 . S
C258 C256 1.416 . S
C258 H279 0.930 . S
C259 C260 1.413 . S
C259 C261 1.427 . S
C259 C265 1.416 . S
C260 C253 1.424 . S
C260 C259 1.413 . S
C260 N264 1.361 . S
C261 C259 1.427 . S
C261 C262 1.328 1_554 S
C261 H276 0.929 . S
C262 C256 1.448 . S
C262 C261 1.328 1_556 S
C262 H277 0.930 . S
Tb263 N254 2.617 1_554 S
Tb263 N264 2.572 . S
Tb263 O298 2.349 . S
Tb263 O301 2.393 1_554 S
Tb263 O302 2.465 . S
Tb263 O303 2.387 . S
Tb263 O305 2.428 . S
Tb263 O306 2.308 . S
Tb263 C327 2.802 . S
N264 C260 1.361 . S
N264 Tb263 2.572 . S
N264 C266 1.340 . S
C265 C259 1.416 . S
C265 C267 1.332 . S
C265 H273 0.931 . S
C266 N264 1.340 . S
C266 C267 1.407 . S
C266 H272 0.930 . S
C267 C265 1.332 . S
C267 C266 1.407 . S
C267 H269 0.929 . S
H268 C257 0.930 . S
H269 C267 0.929 . S
H270 C285 0.930 . S
H271 C292 0.929 1_556 S
H272 C266 0.930 . S
H273 C265 0.931 . S
H274 C288 0.935 . S
H275 C255 0.930 . S
H276 C261 0.929 . S
H277 C262 0.930 . S
H278 C283 0.930 . S
H279 C258 0.930 . S
H280 C291 0.931 . S
N281 Tb252 2.617 . S
N281 C282 1.379 . S
N281 C285 1.334 . S
C282 N281 1.379 . S
C282 C284 1.416 . S
C282 C290 1.424 . S
C283 H278 0.930 . S
C283 C285 1.390 . S
C283 C286 1.339 . S
C284 C282 1.416 . S
C284 C286 1.416 . S
C284 C317 1.448 . S
C285 H270 0.930 . S
C285 N281 1.334 . S
C285 C283 1.390 . S
C286 C283 1.339 . S
C286 C284 1.416 . S
C286 H293 0.930 . S
N287 Tb252 2.572 . S
N287 C288 1.340 . S
N287 C290 1.361 . S
C288 H274 0.935 . S
C288 N287 1.340 . S
C288 C292 1.407 . S
C289 C290 1.413 . S
C289 C291 1.416 . S
C289 C318 1.427 . S
C290 C282 1.424 . S
C290 N287 1.361 . S
C290 C289 1.413 . S
C291 H280 0.931 . S
C291 C289 1.416 . S
C291 C292 1.332 . S
C292 H271 0.929 1_554 S
C292 C288 1.407 . S
C292 C291 1.332 . S
H293 C286 0.930 . S
H294 C317 0.930 . S
H295 C318 0.929 . S
O296 Tb252 2.465 . S
O296 C316 1.264 . S
O297 Tb252 2.387 . S
O297 C308 1.264 . S
O298 Tb263 2.349 . S
O298 C308 1.243 . S
O299 Tb252 2.428 . S
O299 C316 1.256 . S
O300 Tb252 2.308 . S
O300 C315 1.266 1_554 S
O301 Tb263 2.393 1_556 S
O301 C315 1.248 . S
O302 Tb263 2.465 . S
O302 C327 1.264 . S
O303 Tb263 2.387 . S
O303 C319 1.264 . S
O304 Tb252 2.349 . S
O304 C319 1.243 . S
O305 Tb263 2.428 . S
O305 C327 1.256 . S
O306 Tb263 2.308 . S
O306 C326 1.266 . S
O307 Tb252 2.393 . S
O307 C326 1.248 . S
C308 O297 1.264 . S
C308 O298 1.243 . S
C309 C312 1.399 . S
C309 C314 1.383 . S
C309 C316 1.496 . S
C310 C311 1.399 . S
C310 C314 1.389 . S
C311 C310 1.399 . S
C311 C313 1.380 . S
C311 H328 0.929 . S
C312 C309 1.399 . S
C312 C313 1.392 . S
C312 H329 0.929 . S
C313 C311 1.380 . S
C313 C312 1.392 . S
C313 H330 0.929 . S
C314 C309 1.383 . S
C314 C310 1.389 . S
C314 H331 0.931 1_554 S
C315 O300 1.266 1_556 S
C315 O301 1.248 . S
C316 Tb252 2.802 . S
C316 O296 1.264 . S
C316 O299 1.256 . S
C316 C309 1.496 . S
C317 C284 1.448 . S
C317 H294 0.930 . S
C317 C318 1.328 . S
C318 C289 1.427 . S
C318 H295 0.929 . S
C318 C317 1.328 . S
C319 O303 1.264 . S
C319 O304 1.243 . S
C320 C323 1.399 . S
C320 C324 1.383 . S
C320 C327 1.496 . S
C321 C322 1.399 . S
C321 C324 1.389 . S
C322 C321 1.399 . S
C322 C325 1.380 . S
C322 H332 0.929 . S
C323 C320 1.399 . S
C323 C325 1.392 . S
C323 H333 0.929 . S
C324 C320 1.383 . S
C324 C321 1.389 . S
C324 H334 0.931 . S
C325 C322 1.380 . S
C325 C323 1.392 . S
C325 H335 0.929 . S
C326 O306 1.266 . S
C326 O307 1.248 . S
C327 Tb263 2.802 . S
C327 O302 1.264 . S
C327 O305 1.256 . S
C327 C320 1.496 . S
H328 C311 0.929 . S
H329 C312 0.929 . S
H330 C313 0.929 . S
H331 C314 0.931 1_556 S
H332 C322 0.929 . S
H333 C323 0.929 . S
H334 C324 0.931 . S
H335 C325 0.929 . S
Tb336 N365 2.617 . S
Tb336 N371 2.572 . S
Tb336 O380 2.465 . S
Tb336 O381 2.387 . S
Tb336 O383 2.428 . S
Tb336 O384 2.308 1_554 S
Tb336 O388 2.349 . S
Tb336 O391 2.393 . S
Tb336 C400 2.802 . S
C337 N338 1.379 . S
C337 C340 1.416 . S
C337 C344 1.424 1_556 S
N338 C337 1.379 . S
N338 C341 1.334 . S
N338 Tb347 2.617 1_556 S
C339 C341 1.390 . S
C339 C342 1.339 . S
C339 H359 0.930 . S
C340 C337 1.416 . S
C340 C342 1.416 . S
C340 C346 1.448 . S
C341 N338 1.334 . S
C341 C339 1.390 . S
C341 H352 0.930 . S
C342 C339 1.339 . S
C342 C340 1.416 . S
C342 H363 0.930 . S
C343 C344 1.413 . S
C343 C345 1.427 . S
C343 C349 1.416 . S
C344 C337 1.424 1_554 S
C344 C343 1.413 . S
C344 N348 1.361 . S
C345 C343 1.427 . S
C345 C346 1.328 1_554 S
C345 H360 0.929 . S
C346 C340 1.448 . S
C346 C345 1.328 1_556 S
C346 H361 0.930 . S
Tb347 N338 2.617 1_554 S
Tb347 N348 2.572 . S
Tb347 O382 2.349 . S
Tb347 O385 2.393 1_554 S
Tb347 O386 2.465 . S
Tb347 O387 2.387 . S
Tb347 O389 2.428 1_554 S
Tb347 O390 2.308 . S
Tb347 C411 2.802 . S
N348 C344 1.361 . S
N348 Tb347 2.572 . S
N348 C350 1.340 . S
C349 C343 1.416 . S
C349 C351 1.332 . S
C349 H357 0.931 . S
C350 N348 1.340 . S
C350 C351 1.407 . S
C350 H356 0.930 . S
C351 C349 1.332 . S
C351 C350 1.407 . S
C351 H353 0.929 . S
H352 C341 0.930 . S
H353 C351 0.929 . S
H354 C369 0.930 . S
H355 C376 0.929 . S
H356 C350 0.930 . S
H357 C349 0.931 . S
H358 C372 0.930 . S
H359 C339 0.930 . S
H360 C345 0.929 . S
H361 C346 0.930 . S
H362 C367 0.930 . S
H363 C342 0.930 . S
H364 C375 0.931 . S
N365 Tb336 2.617 . S
N365 C366 1.379 . S
N365 C369 1.334 . S
C366 N365 1.379 . S
C366 C368 1.416 . S
C366 C374 1.424 . S
C367 H362 0.930 . S
C367 C369 1.390 . S
C367 C370 1.339 . S
C368 C366 1.416 . S
C368 C370 1.416 . S
C368 C401 1.448 . S
C369 H354 0.930 . S
C369 N365 1.334 . S
C369 C367 1.390 . S
C370 C367 1.339 . S
C370 C368 1.416 . S
C370 H377 0.930 . S
N371 Tb336 2.572 . S
N371 C372 1.340 1_554 S
N371 C374 1.361 . S
C372 H358 0.930 . S
C372 N371 1.340 1_556 S
C372 C376 1.407 . S
C373 C374 1.413 . S
C373 C375 1.416 1_554 S
C373 C402 1.427 . S
C374 C366 1.424 . S
C374 N371 1.361 . S
C374 C373 1.413 . S
C375 H364 0.931 . S
C375 C373 1.416 1_556 S
C375 C376 1.332 . S
C376 H355 0.929 . S
C376 C372 1.407 . S
C376 C375 1.332 . S
H377 C370 0.930 . S
H378 C401 0.930 . S
H379 C402 0.929 . S
O380 Tb336 2.465 . S
O380 C400 1.264 . S
O381 Tb336 2.387 . S
O381 C392 1.264 . S
O382 Tb347 2.349 . S
O382 C392 1.243 . S
O383 Tb336 2.428 . S
O383 C400 1.256 . S
O384 Tb336 2.308 1_556 S
O384 C399 1.266 . S
O385 Tb347 2.393 1_556 S
O385 C399 1.248 . S
O386 Tb347 2.465 . S
O386 C411 1.264 . S
O387 Tb347 2.387 . S
O387 C403 1.264 . S
O388 Tb336 2.349 . S
O388 C403 1.243 . S
O389 Tb347 2.428 1_556 S
O389 C411 1.256 1_556 S
O390 Tb347 2.308 . S
O390 C410 1.266 . S
O391 Tb336 2.393 . S
O391 C410 1.248 . S
C392 O381 1.264 . S
C392 O382 1.243 . S
C393 C396 1.399 . S
C393 C398 1.383 1_554 S
C393 C400 1.496 . S
C394 C395 1.399 1_556 S
C394 C398 1.389 . S
C395 C394 1.399 1_554 S
C395 C397 1.380 . S
C395 H412 0.929 . S
C396 C393 1.399 . S
C396 C397 1.392 . S
C396 H413 0.929 . S
C397 C395 1.380 . S
C397 C396 1.392 . S
C397 H414 0.929 . S
C398 C393 1.383 1_556 S
C398 C394 1.389 . S
C398 H415 0.931 . S
C399 O384 1.266 . S
C399 O385 1.248 . S
C400 Tb336 2.802 . S
C400 O380 1.264 . S
C400 O383 1.256 . S
C400 C393 1.496 . S
C401 C368 1.448 . S
C401 H378 0.930 . S
C401 C402 1.328 . S
C402 C373 1.427 . S
C402 H379 0.929 . S
C402 C401 1.328 . S
C403 O387 1.264 . S
C403 O388 1.243 . S
C404 C407 1.399 1_554 S
C404 C408 1.383 . S
C404 C411 1.496 . S
C405 C406 1.399 . S
C405 C408 1.389 . S
C406 C405 1.399 . S
C406 C409 1.380 1_554 S
C406 H416 0.929 . S
C407 C404 1.399 1_556 S
C407 C409 1.392 . S
C407 H417 0.929 . S
C408 C404 1.383 . S
C408 C405 1.389 . S
C408 H418 0.931 . S
C409 C406 1.380 1_556 S
C409 C407 1.392 . S
C409 H419 0.929 . S
C410 O390 1.266 . S
C410 O391 1.248 . S
C411 Tb347 2.802 . S
C411 O386 1.264 . S
C411 O389 1.256 1_554 S
C411 C404 1.496 . S
H412 C395 0.929 . S
H413 C396 0.929 . S
H414 C397 0.929 . S
H415 C398 0.931 . S
H416 C406 0.929 . S
H417 C407 0.929 . S
H418 C408 0.931 . S
H419 C409 0.929 . S
Tb420 N449 2.617 . S
Tb420 N455 2.572 . S
Tb420 O464 2.465 . S
Tb420 O465 2.387 . S
Tb420 O467 2.428 . S
Tb420 O468 2.308 . S
Tb420 O472 2.349 . S
Tb420 O475 2.393 . S
Tb420 C484 2.802 . S
C421 N422 1.379 . S
C421 C424 1.416 . S
C421 C428 1.424 . S
N422 C421 1.379 . S
N422 C425 1.334 . S
N422 Tb431 2.617 . S
C423 C425 1.390 1_556 S
C423 C426 1.340 . S
C423 H443 0.930 . S
C424 C421 1.416 . S
C424 C426 1.412 1_554 S
C424 C430 1.448 . S
C425 N422 1.334 . S
C425 C423 1.390 1_554 S
C425 H436 0.930 1_554 S
C426 C423 1.340 . S
C426 C424 1.412 1_556 S
C426 H447 0.932 . S
C427 C428 1.413 . S
C427 C429 1.427 . S
C427 C433 1.416 . S
C428 C421 1.424 . S
C428 C427 1.413 . S
C428 N432 1.361 . S
C429 C427 1.427 . S
C429 C430 1.328 . S
C429 H444 0.929 . S
C430 C424 1.448 . S
C430 C429 1.328 . S
C430 H445 0.930 . S
Tb431 N422 2.617 . S
Tb431 N432 2.572 . S
Tb431 O466 2.349 . S
Tb431 O469 2.393 . S
Tb431 O470 2.465 . S
Tb431 O471 2.387 . S
Tb431 O473 2.428 . S
Tb431 O474 2.308 . S
Tb431 C495 2.835 . S
N432 C428 1.361 . S
N432 Tb431 2.572 . S
N432 C434 1.340 . S
C433 C427 1.416 . S
C433 C435 1.332 . S
C433 H441 0.931 . S
C434 N432 1.340 . S
C434 C435 1.407 . S
C434 H440 0.930 . S
C435 C433 1.332 . S
C435 C434 1.407 . S
C435 H437 0.929 . S
H436 C425 0.930 1_556 S
H437 C435 0.929 . S
H438 C453 0.930 . S
H439 C460 0.929 . S
H440 C434 0.930 . S
H441 C433 0.931 . S
H442 C456 0.930 1_556 S
H443 C423 0.930 . S
H444 C429 0.929 . S
H445 C430 0.930 . S
H446 C451 0.930 . S
H447 C426 0.932 . S
H448 C459 0.936 . S
N449 Tb420 2.617 . S
N449 C450 1.379 . S
N449 C453 1.334 . S
C450 N449 1.379 . S
C450 C452 1.416 . S
C450 C458 1.424 . S
C451 H446 0.930 . S
C451 C453 1.390 . S
C451 C454 1.339 . S
C452 C450 1.416 . S
C452 C454 1.416 . S
C452 C485 1.448 . S
C453 H438 0.930 . S
C453 N449 1.334 . S
C453 C451 1.390 . S
C454 C451 1.339 . S
C454 C452 1.416 . S
C454 H461 0.930 . S
N455 Tb420 2.572 . S
N455 C456 1.340 . S
N455 C458 1.361 . S
C456 H442 0.930 1_554 S
C456 N455 1.340 . S
C456 C460 1.407 1_554 S
C457 C458 1.413 . S
C457 C459 1.404 1_554 S
C457 C486 1.427 . S
C458 C450 1.424 . S
C458 N455 1.361 . S
C458 C457 1.413 . S
C459 H448 0.936 . S
C459 C457 1.404 1_556 S
C459 C460 1.340 . S
C460 H439 0.929 . S
C460 C456 1.407 1_556 S
C460 C459 1.340 . S
H461 C454 0.930 . S
H462 C485 0.930 . S
H463 C486 0.929 . S
O464 Tb420 2.465 . S
O464 C484 1.264 . S
O465 Tb420 2.387 . S
O465 C476 1.264 . S
O466 Tb431 2.349 . S
O466 C476 1.243 . S
O467 Tb420 2.428 . S
O467 C484 1.256 . S
O468 Tb420 2.308 . S
O468 C483 1.266 . S
O469 Tb431 2.393 . S
O469 C483 1.248 . S
O470 Tb431 2.465 . S
O470 C495 1.287 . S
O471 Tb431 2.387 . S
O471 C487 1.264 . S
O472 Tb420 2.349 . S
O472 C487 1.243 . S
O473 Tb431 2.428 . S
O473 C495 1.265 . S
O474 Tb431 2.308 . S
O474 C494 1.266 . S
O475 Tb420 2.393 . S
O475 C494 1.248 . S
C476 O465 1.264 . S
C476 O466 1.243 . S
C477 C480 1.399 . S
C477 C482 1.383 1_554 S
C477 C484 1.496 . S
C478 C479 1.399 1_556 S
C478 C482 1.389 . S
C479 C478 1.399 1_554 S
C479 C481 1.380 . S
C479 H496 0.929 . S
C480 C477 1.399 . S
C480 C481 1.392 . S
C480 H497 0.929 . S
C481 C479 1.380 . S
C481 C480 1.392 . S
C481 H498 0.929 . S
C482 C477 1.383 1_556 S
C482 C478 1.389 . S
C482 H499 0.931 . S
C483 O468 1.266 . S
C483 O469 1.248 . S
C484 Tb420 2.802 . S
C484 O464 1.264 . S
C484 O467 1.256 . S
C484 C477 1.496 . S
C485 C452 1.448 . S
C485 H462 0.930 . S
C485 C486 1.328 . S
C486 C457 1.427 . S
C486 H463 0.929 . S
C486 C485 1.328 . S
C487 O471 1.264 . S
C487 O472 1.243 . S
C488 C491 1.399 . S
C488 C492 1.383 . S
C488 C495 1.463 1_455 S
C489 C490 1.399 . S
C489 C492 1.389 . S
C490 C489 1.399 . S
C490 C493 1.380 . S
C490 H500 0.929 . S
C491 C488 1.399 . S
C491 C493 1.392 . S
C491 H501 0.929 . S
C492 C488 1.383 . S
C492 C489 1.389 . S
C492 H502 0.931 . S
C493 C490 1.380 . S
C493 C491 1.392 . S
C493 H503 0.929 . S
C494 O474 1.266 . S
C494 O475 1.248 . S
C495 Tb431 2.835 . S
C495 O470 1.287 . S
C495 O473 1.265 . S
C495 C488 1.463 1_655 S
H496 C479 0.929 . S
H497 C480 0.929 . S
H498 C481 0.929 . S
H499 C482 0.931 . S
H500 C490 0.929 . S
H501 C491 0.929 . S
H502 C492 0.931 . S
H503 C493 0.929 . S
Tb504 N533 2.617 . S
Tb504 N539 2.572 . S
Tb504 O548 2.465 . S
Tb504 O549 2.387 . S
Tb504 O551 2.428 . S
Tb504 O552 2.308 . S
Tb504 O556 2.349 . S
Tb504 O559 2.393 . S
Tb504 C568 2.802 . S
C505 N506 1.379 . S
C505 C508 1.416 . S
C505 C512 1.424 . S
N506 C505 1.379 . S
N506 C509 1.342 . S
N506 Tb515 2.617 . S
C507 C509 1.386 1_554 S
C507 C510 1.339 . S
C507 H527 0.930 . S
C508 C505 1.416 . S
C508 C510 1.416 1_556 S
C508 C514 1.448 . S
C509 N506 1.342 . S
C509 C507 1.386 1_556 S
C509 H520 0.927 1_556 S
C510 C507 1.339 . S
C510 C508 1.416 1_554 S
C510 H531 0.930 . S
C511 C512 1.413 . S
C511 C513 1.427 . S
C511 C517 1.416 . S
C512 C505 1.424 . S
C512 C511 1.413 . S
C512 N516 1.361 . S
C513 C511 1.427 . S
C513 C514 1.328 . S
C513 H528 0.929 . S
C514 C508 1.448 . S
C514 C513 1.328 . S
C514 H529 0.930 . S
Tb515 N506 2.617 . S
Tb515 N516 2.572 . S
Tb515 O550 2.349 . S
Tb515 O553 2.393 . S
Tb515 O554 2.465 . S
Tb515 O555 2.387 . S
Tb515 O557 2.428 . S
Tb515 O558 2.308 . S
Tb515 C579 2.802 . S
N516 C512 1.361 . S
N516 Tb515 2.572 . S
N516 C518 1.340 . S
C517 C511 1.416 . S
C517 C519 1.332 . S
C517 H525 0.931 . S
C518 N516 1.340 . S
C518 C519 1.407 . S
C518 H524 0.930 . S
C519 C517 1.332 . S
C519 C518 1.407 . S
C519 H521 0.929 . S
H520 C509 0.927 1_554 S
H521 C519 0.929 . S
H522 C537 0.930 . S
H523 C544 0.929 . S
H524 C518 0.930 . S
H525 C517 0.931 . S
H526 C540 0.930 . S
H527 C507 0.930 . S
H528 C513 0.929 . S
H529 C514 0.930 . S
H530 C535 0.930 . S
H531 C510 0.930 . S
H532 C543 0.931 . S
N533 Tb504 2.617 . S
N533 C534 1.379 . S
N533 C537 1.334 . S
C534 N533 1.379 . S
C534 C536 1.416 . S
C534 C542 1.424 . S
C535 H530 0.930 . S
C535 C537 1.390 . S
C535 C538 1.339 . S
C536 C534 1.416 . S
C536 C538 1.416 . S
C536 C569 1.448 . S
C537 H522 0.930 . S
C537 N533 1.334 . S
C537 C535 1.390 . S
C538 C535 1.339 . S
C538 C536 1.416 . S
C538 H545 0.930 . S
N539 Tb504 2.572 . S
N539 C540 1.340 . S
N539 C542 1.361 . S
C540 H526 0.930 . S
C540 N539 1.340 . S
C540 C544 1.407 . S
C541 C542 1.413 . S
C541 C543 1.416 . S
C541 C570 1.427 . S
C542 C534 1.424 . S
C542 N539 1.361 . S
C542 C541 1.413 . S
C543 H532 0.931 . S
C543 C541 1.416 . S
C543 C544 1.332 . S
C544 H523 0.929 . S
C544 C540 1.407 . S
C544 C543 1.332 . S
H545 C538 0.930 . S
H546 C569 0.930 . S
H547 C570 0.929 . S
O548 Tb504 2.465 . S
O548 C568 1.264 . S
O549 Tb504 2.387 . S
O549 C560 1.264 . S
O550 Tb515 2.349 . S
O550 C560 1.243 . S
O551 Tb504 2.428 . S
O551 C568 1.256 . S
O552 Tb504 2.308 . S
O552 C567 1.266 . S
O553 Tb515 2.393 . S
O553 C567 1.248 . S
O554 Tb515 2.465 . S
O554 C579 1.264 . S
O555 Tb515 2.387 . S
O555 C571 1.264 . S
O556 Tb504 2.349 . S
O556 C571 1.243 . S
O557 Tb515 2.428 . S
O557 C579 1.256 . S
O558 Tb515 2.308 . S
O558 C578 1.266 . S
O559 Tb504 2.393 . S
O559 C578 1.248 . S
C560 O549 1.264 . S
C560 O550 1.243 . S
C561 C564 1.399 . S
C561 C566 1.383 . S
C561 C568 1.496 . S
C562 C563 1.399 . S
C562 C566 1.389 . S
C563 C562 1.399 . S
C563 C565 1.380 . S
C563 H580 0.929 . S
C564 C561 1.399 . S
C564 C565 1.392 . S
C564 H581 0.929 . S
C565 C563 1.380 . S
C565 C564 1.392 . S
C565 H582 0.929 . S
C566 C561 1.383 . S
C566 C562 1.389 . S
C566 H583 0.931 . S
C567 O552 1.266 . S
C567 O553 1.248 . S
C568 Tb504 2.802 . S
C568 O548 1.264 . S
C568 O551 1.256 . S
C568 C561 1.496 . S
C569 C536 1.448 . S
C569 H546 0.930 . S
C569 C570 1.328 . S
C570 C541 1.427 . S
C570 H547 0.929 . S
C570 C569 1.328 . S
C571 O555 1.264 . S
C571 O556 1.243 . S
C572 C575 1.399 . S
C572 C576 1.383 . S
C572 C579 1.496 . S
C573 C574 1.399 1_565 S
C573 C576 1.389 . S
C574 C573 1.399 1_545 S
C574 C577 1.392 . S
C574 H584 0.929 . S
C575 C572 1.399 . S
C575 C577 1.363 1_565 S
C575 H585 0.929 . S
C576 C572 1.383 . S
C576 C573 1.389 . S
C576 H586 0.931 . S
C577 C574 1.392 . S
C577 C575 1.363 1_545 S
C577 H587 0.946 . S
C578 O558 1.266 . S
C578 O559 1.248 . S
C579 Tb515 2.802 . S
C579 O554 1.264 . S
C579 O557 1.256 . S
C579 C572 1.496 . S
H580 C563 0.929 . S
H581 C564 0.929 . S
H582 C565 0.929 . S
H583 C566 0.931 . S
H584 C574 0.929 . S
H585 C575 0.929 . S
H586 C576 0.931 . S
H587 C577 0.946 . S
Tb588 N617 2.617 . S
Tb588 N623 2.572 . S
Tb588 O632 2.465 . S
Tb588 O633 2.387 . S
Tb588 O635 2.428 . S
Tb588 O636 2.308 . S
Tb588 O640 2.349 . S
Tb588 O643 2.393 1_556 S
Tb588 C652 2.802 . S
C589 N590 1.379 . S
C589 C592 1.416 . S
C589 C596 1.424 . S
N590 C589 1.379 . S
N590 C593 1.334 . S
N590 Tb599 2.617 . S
C591 C593 1.390 . S
C591 C594 1.339 . S
C591 H611 0.930 . S
C592 C589 1.416 . S
C592 C594 1.416 . S
C592 C598 1.448 . S
C593 N590 1.334 . S
C593 C591 1.390 . S
C593 H604 0.930 . S
C594 C591 1.339 . S
C594 C592 1.416 . S
C594 H615 0.930 . S
C595 C596 1.413 . S
C595 C597 1.427 . S
C595 C601 1.416 1_556 S
C596 C589 1.424 . S
C596 C595 1.413 . S
C596 N600 1.361 . S
C597 C595 1.427 . S
C597 C598 1.328 . S
C597 H612 0.929 . S
C598 C592 1.448 . S
C598 C597 1.328 . S
C598 H613 0.930 . S
Tb599 N590 2.617 . S
Tb599 N600 2.572 . S
Tb599 O634 2.349 . S
Tb599 O637 2.393 . S
Tb599 O638 2.465 . S
Tb599 O639 2.387 . S
Tb599 O641 2.428 . S
Tb599 O642 2.308 . S
Tb599 C663 2.802 . S
N600 C596 1.361 . S
N600 Tb599 2.572 . S
N600 C602 1.340 1_556 S
C601 C595 1.416 1_554 S
C601 C603 1.332 . S
C601 H609 0.931 . S
C602 N600 1.340 1_554 S
C602 C603 1.407 . S
C602 H608 0.930 . S
C603 C601 1.332 . S
C603 C602 1.407 . S
C603 H605 0.929 . S
H604 C593 0.930 . S
H605 C603 0.929 . S
H606 C621 0.930 . S
H607 C628 0.929 . S
H608 C602 0.930 . S
H609 C601 0.931 . S
H610 C624 0.930 . S
H611 C591 0.930 . S
H612 C597 0.929 . S
H613 C598 0.930 . S
H614 C619 0.930 . S
H615 C594 0.930 . S
H616 C627 0.931 . S
N617 Tb588 2.617 . S
N617 C618 1.379 . S
N617 C621 1.334 1_556 S
C618 N617 1.379 . S
C618 C620 1.416 . S
C618 C626 1.424 . S
C619 H614 0.930 . S
C619 C621 1.390 . S
C619 C622 1.339 . S
C620 C618 1.416 . S
C620 C622 1.416 1_556 S
C620 C653 1.448 . S
C621 H606 0.930 . S
C621 N617 1.334 1_554 S
C621 C619 1.390 . S
C622 C619 1.339 . S
C622 C620 1.416 1_554 S
C622 H629 0.930 . S
N623 Tb588 2.572 . S
N623 C624 1.340 . S
N623 C626 1.361 . S
C624 H610 0.930 . S
C624 N623 1.340 . S
C624 C628 1.407 . S
C625 C626 1.413 . S
C625 C627 1.416 . S
C625 C654 1.427 . S
C626 C618 1.424 . S
C626 N623 1.361 . S
C626 C625 1.413 . S
C627 H616 0.931 . S
C627 C625 1.416 . S
C627 C628 1.332 . S
C628 H607 0.929 . S
C628 C624 1.407 . S
C628 C627 1.332 . S
H629 C622 0.930 . S
H630 C653 0.930 . S
H631 C654 0.929 . S
O632 Tb588 2.465 . S
O632 C652 1.264 . S
O633 Tb588 2.387 . S
O633 C644 1.264 . S
O634 Tb599 2.349 . S
O634 C644 1.243 . S
O635 Tb588 2.428 . S
O635 C652 1.256 . S
O636 Tb588 2.308 . S
O636 C651 1.266 . S
O637 Tb599 2.393 . S
O637 C651 1.248 . S
O638 Tb599 2.465 . S
O638 C663 1.264 . S
O639 Tb599 2.387 . S
O639 C655 1.264 . S
O640 Tb588 2.349 . S
O640 C655 1.243 . S
O641 Tb599 2.428 . S
O641 C663 1.256 . S
O642 Tb599 2.308 . S
O642 C662 1.266 1_556 S
O643 Tb588 2.393 1_554 S
O643 C662 1.248 . S
C644 O633 1.264 . S
C644 O634 1.243 . S
C645 C648 1.399 . S
C645 C650 1.383 . S
C645 C652 1.496 . S
C646 C647 1.399 . S
C646 C650 1.389 . S
C647 C646 1.399 . S
C647 C649 1.380 . S
C647 H664 0.929 . S
C648 C645 1.399 . S
C648 C649 1.392 . S
C648 H665 0.929 . S
C649 C647 1.380 . S
C649 C648 1.392 . S
C649 H666 0.929 . S
C650 C645 1.383 . S
C650 C646 1.389 . S
C650 H667 0.931 . S
C651 O636 1.266 . S
C651 O637 1.248 . S
C652 Tb588 2.802 . S
C652 O632 1.264 . S
C652 O635 1.256 . S
C652 C645 1.496 . S
C653 C620 1.448 . S
C653 H630 0.930 . S
C653 C654 1.328 . S
C654 C625 1.427 . S
C654 H631 0.929 . S
C654 C653 1.328 . S
C655 O639 1.264 . S
C655 O640 1.243 . S
C656 C659 1.399 . S
C656 C660 1.383 . S
C656 C663 1.496 . S
C657 C658 1.399 . S
C657 C660 1.389 . S
C658 C657 1.399 . S
C658 C661 1.380 . S
C658 H668 0.929 . S
C659 C656 1.399 . S
C659 C661 1.392 . S
C659 H669 0.929 . S
C660 C656 1.383 . S
C660 C657 1.389 . S
C660 H670 0.931 . S
C661 C658 1.380 . S
C661 C659 1.392 . S
C661 H671 0.929 . S
C662 O642 1.266 1_554 S
C662 O643 1.248 . S
C663 Tb599 2.802 . S
C663 O638 1.264 . S
C663 O641 1.256 . S
C663 C656 1.496 . S
H664 C647 0.929 . S
H665 C648 0.929 . S
H666 C649 0.929 . S
H667 C650 0.931 . S
H668 C658 0.929 . S
H669 C659 0.929 . S
H670 C660 0.931 . S
H671 C661 0.929 . S
Tb672 N701 2.617 . S
Tb672 N707 2.572 . S
Tb672 O716 2.465 . S
Tb672 O717 2.387 . S
Tb672 O719 2.428 . S
Tb672 O720 2.308 . S
Tb672 O724 2.349 . S
Tb672 O727 2.393 . S
Tb672 C736 2.802 . S
C673 N674 1.379 . S
C673 C676 1.416 . S
C673 C680 1.424 . S
N674 C673 1.379 . S
N674 C677 1.334 1_556 S
N674 Tb683 2.617 . S
C675 C677 1.390 . S
C675 C678 1.339 . S
C675 H695 0.930 . S
C676 C673 1.416 . S
C676 C678 1.416 1_556 S
C676 C682 1.448 . S
C677 N674 1.334 1_554 S
C677 C675 1.390 . S
C677 H688 0.930 . S
C678 C675 1.339 . S
C678 C676 1.416 1_554 S
C678 H699 0.930 . S
C679 C680 1.413 . S
C679 C681 1.427 . S
C679 C685 1.416 . S
C680 C673 1.424 . S
C680 C679 1.413 . S
C680 N684 1.361 . S
C681 C679 1.427 . S
C681 C682 1.328 . S
C681 H696 0.929 . S
C682 C676 1.448 . S
C682 C681 1.328 . S
C682 H697 0.930 . S
Tb683 N674 2.617 . S
Tb683 N684 2.572 . S
Tb683 O718 2.349 . S
Tb683 O721 2.393 . S
Tb683 O722 2.465 . S
Tb683 O723 2.387 . S
Tb683 O725 2.428 . S
Tb683 O726 2.308 . S
Tb683 C747 2.802 . S
N684 C680 1.361 . S
N684 Tb683 2.572 . S
N684 C686 1.340 . S
C685 C679 1.416 . S
C685 C687 1.332 . S
C685 H693 0.931 . S
C686 N684 1.340 . S
C686 C687 1.407 . S
C686 H692 0.930 . S
C687 C685 1.332 . S
C687 C686 1.407 . S
C687 H689 0.929 . S
H688 C677 0.930 . S
H689 C687 0.929 . S
H690 C705 0.930 . S
H691 C712 0.929 . S
H692 C686 0.930 . S
H693 C685 0.931 . S
H694 C708 0.930 . S
H695 C675 0.930 . S
H696 C681 0.929 . S
H697 C682 0.930 . S
H698 C703 0.930 . S
H699 C678 0.930 . S
H700 C711 0.931 . S
N701 Tb672 2.617 . S
N701 C702 1.379 . S
N701 C705 1.334 . S
C702 N701 1.379 . S
C702 C704 1.416 . S
C702 C710 1.424 . S
C703 H698 0.930 . S
C703 C705 1.390 . S
C703 C706 1.339 . S
C704 C702 1.416 . S
C704 C706 1.416 . S
C704 C737 1.448 . S
C705 H690 0.930 . S
C705 N701 1.334 . S
C705 C703 1.390 . S
C706 C703 1.339 . S
C706 C704 1.416 . S
C706 H713 0.930 . S
N707 Tb672 2.572 . S
N707 C708 1.340 1_556 S
N707 C710 1.361 . S
C708 H694 0.930 . S
C708 N707 1.340 1_554 S
C708 C712 1.407 . S
C709 C710 1.413 . S
C709 C711 1.416 1_556 S
C709 C738 1.427 . S
C710 C702 1.424 . S
C710 N707 1.361 . S
C710 C709 1.413 . S
C711 H700 0.931 . S
C711 C709 1.416 1_554 S
C711 C712 1.332 . S
C712 H691 0.929 . S
C712 C708 1.407 . S
C712 C711 1.332 . S
H713 C706 0.930 . S
H714 C737 0.930 . S
H715 C738 0.929 . S
O716 Tb672 2.465 . S
O716 C736 1.264 . S
O717 Tb672 2.387 . S
O717 C728 1.264 . S
O718 Tb683 2.349 . S
O718 C728 1.243 . S
O719 Tb672 2.428 . S
O719 C736 1.256 . S
O720 Tb672 2.308 . S
O720 C735 1.266 1_556 S
O721 Tb683 2.393 . S
O721 C735 1.248 1_556 S
O722 Tb683 2.465 . S
O722 C747 1.264 . S
O723 Tb683 2.387 . S
O723 C739 1.264 . S
O724 Tb672 2.349 . S
O724 C739 1.243 . S
O725 Tb683 2.428 . S
O725 C747 1.256 . S
O726 Tb683 2.308 . S
O726 C746 1.266 . S
O727 Tb672 2.393 . S
O727 C746 1.248 . S
C728 O717 1.264 . S
C728 O718 1.243 . S
C729 C732 1.399 . S
C729 C734 1.383 . S
C729 C736 1.496 . S
C730 C731 1.399 . S
C730 C734 1.389 . S
C731 C730 1.399 . S
C731 C733 1.380 . S
C731 H748 0.929 . S
C732 C729 1.399 . S
C732 C733 1.392 . S
C732 H749 0.929 . S
C733 C731 1.380 . S
C733 C732 1.392 . S
C733 H750 0.929 . S
C734 C729 1.383 . S
C734 C730 1.389 . S
C734 H751 0.931 1_556 S
C735 O720 1.266 1_554 S
C735 O721 1.248 1_554 S
C736 Tb672 2.802 . S
C736 O716 1.264 . S
C736 O719 1.256 . S
C736 C729 1.496 . S
C737 C704 1.448 . S
C737 H714 0.930 . S
C737 C738 1.328 . S
C738 C709 1.427 . S
C738 H715 0.929 . S
C738 C737 1.328 . S
C739 O723 1.264 . S
C739 O724 1.243 . S
C740 C743 1.399 . S
C740 C744 1.383 . S
C740 C747 1.496 . S
C741 C742 1.399 . S
C741 C744 1.389 . S
C742 C741 1.399 . S
C742 C745 1.380 . S
C742 H752 0.929 . S
C743 C740 1.399 . S
C743 C745 1.392 . S
C743 H753 0.929 . S
C744 C740 1.383 . S
C744 C741 1.389 . S
C744 H754 0.931 . S
C745 C742 1.380 . S
C745 C743 1.392 . S
C745 H755 0.929 . S
C746 O726 1.266 . S
C746 O727 1.248 . S
C747 Tb683 2.802 . S
C747 O722 1.264 . S
C747 O725 1.256 . S
C747 C740 1.496 . S
H748 C731 0.929 . S
H749 C732 0.929 . S
H750 C733 0.929 . S
H751 C734 0.931 1_554 S
H752 C742 0.929 . S
H753 C743 0.929 . S
H754 C744 0.931 . S
H755 C745 0.929 . S
H756 C762 0.930 . S
H757 C766 0.930 . S
H758 C771 0.929 . S
H759 C769 0.929 . S
H760 C764 0.929 . S
H761 C770 0.929 . S
C762 H756 0.930 . S
C762 C763 1.367 1_556 S
C762 C770 1.378 . S
C763 C762 1.367 1_554 S
C763 C771 1.433 . S
C764 H760 0.929 . S
C764 C766 1.378 . S
C764 C768 1.350 . S
C765 C768 1.463 . S
C765 C770 1.350 1_554 S
C765 N773 1.427 . S
C766 H757 0.930 . S
C766 C764 1.378 . S
C766 C767 1.367 1_554 S
C767 C766 1.367 1_556 S
C767 C769 1.433 . S
C768 C764 1.350 . S
C768 C765 1.463 . S
C768 N772 1.427 1_554 S
C769 H759 0.929 . S
C769 C767 1.433 . S
C769 N772 1.384 . S
C770 H761 0.929 . S
C770 C762 1.378 . S
C770 C765 1.350 1_556 S
C771 H758 0.929 . S
C771 C763 1.433 . S
C771 N773 1.384 . S
N772 C768 1.427 1_556 S
N772 C769 1.384 . S
N773 C765 1.427 . S
N773 C771 1.384 . S
H774 C780 0.930 . S
H775 C784 0.930 . S
H776 C789 0.929 . S
H777 C787 0.929 1_554 S
H778 C782 0.929 . S
H779 C788 0.929 . S
C780 H774 0.930 . S
C780 C781 1.367 . S
C780 C788 1.378 . S
C781 C780 1.367 . S
C781 C789 1.433 1_554 S
C782 H778 0.929 . S
C782 C784 1.378 . S
C782 C786 1.350 . S
C783 C786 1.463 . S
C783 C788 1.350 1_556 S
C783 N791 1.427 . S
C784 H775 0.930 . S
C784 C782 1.378 . S
C784 C785 1.367 . S
C785 C784 1.367 . S
C785 C787 1.433 . S
C786 C782 1.350 . S
C786 C783 1.463 . S
C786 N790 1.427 1_556 S
C787 H777 0.929 1_556 S
C787 C785 1.433 . S
C787 N790 1.384 1_556 S
C788 H779 0.929 . S
C788 C780 1.378 . S
C788 C783 1.350 1_554 S
C789 H776 0.929 . S
C789 C781 1.433 1_556 S
C789 N791 1.384 . S
N790 C786 1.427 1_554 S
N790 C787 1.384 1_554 S
N791 C783 1.427 . S
N791 C789 1.384 . S
H792 C798 0.930 . S
H793 C802 0.930 . S
H794 C807 0.929 . S
H795 C805 0.929 . S
H796 C800 0.929 . S
H797 C806 0.929 . S
C798 H792 0.930 . S
C798 C799 1.367 . S
C798 C806 1.378 . S
C799 C798 1.367 . S
C799 C807 1.433 . S
C800 H796 0.929 . S
C800 C802 1.378 . S
C800 C804 1.350 . S
C801 C804 1.463 . S
C801 C806 1.350 . S
C801 N809 1.427 . S
C802 H793 0.930 . S
C802 C800 1.378 . S
C802 C803 1.367 . S
C803 C802 1.367 . S
C803 C805 1.433 . S
C804 C800 1.350 . S
C804 C801 1.463 . S
C804 N808 1.427 . S
C805 H795 0.929 . S
C805 C803 1.433 . S
C805 N808 1.384 . S
C806 H797 0.929 . S
C806 C798 1.378 . S
C806 C801 1.350 . S
C807 H794 0.929 . S
C807 C799 1.433 . S
C807 N809 1.384 . S
N808 C804 1.427 . S
N808 C805 1.384 . S
N809 C801 1.427 . S
N809 C807 1.384 . S
H810 C816 0.930 . S
H811 C820 0.930 . S
H812 C825 0.929 . S
H813 C823 0.929 . S
H814 C818 0.929 . S
H815 C824 0.929 . S
C816 H810 0.930 . S
C816 C817 1.367 1_556 S
C816 C824 1.378 . S
C817 C816 1.367 1_554 S
C817 C825 1.433 . S
C818 H814 0.929 . S
C818 C820 1.378 . S
C818 C822 1.350 . S
C819 C822 1.463 . S
C819 C824 1.350 1_554 S
C819 N827 1.427 . S
C820 H811 0.930 . S
C820 C818 1.378 . S
C820 C821 1.367 . S
C821 C820 1.367 . S
C821 C823 1.433 1_554 S
C822 C818 1.350 . S
C822 C819 1.463 . S
C822 N826 1.427 1_554 S
C823 H813 0.929 . S
C823 C821 1.433 1_556 S
C823 N826 1.384 . S
C824 H815 0.929 . S
C824 C816 1.378 . S
C824 C819 1.350 1_556 S
C825 H812 0.929 . S
C825 C817 1.433 . S
C825 N827 1.384 . S
N826 C822 1.427 1_556 S
N826 C823 1.384 . S
N827 C819 1.427 . S
N827 C825 1.384 . S
H828 C834 0.930 . S
H829 C838 0.930 . S
H830 C843 0.929 . S
H831 C841 0.929 . S
H832 C836 0.929 . S
H833 C842 0.929 1_455 S
C834 H828 0.930 . S
C834 C835 1.367 . S
C834 C842 1.378 . S
C835 C834 1.367 . S
C835 C843 1.433 . S
C836 H832 0.929 . S
C836 C838 1.378 . S
C836 C840 1.350 . S
C837 C840 1.463 . S
C837 C842 1.350 . S
C837 N845 1.427 . S
C838 H829 0.930 . S
C838 C836 1.378 . S
C838 C839 1.357 1_655 S
C839 C838 1.357 1_455 S
C839 C841 1.435 . S
C840 C836 1.350 . S
C840 C837 1.463 . S
C840 N844 1.427 1_655 S
C841 H831 0.929 . S
C841 C839 1.435 . S
C841 N844 1.384 . S
C842 H833 0.929 1_655 S
C842 C834 1.378 . S
C842 C837 1.350 . S
C843 H830 0.929 . S
C843 C835 1.433 . S
C843 N845 1.384 . S
N844 C840 1.427 1_455 S
N844 C841 1.384 . S
N845 C837 1.427 . S
N845 C843 1.384 . S
H846 C852 0.930 . S
H847 C856 0.930 . S
H848 C861 0.929 . S
H849 C859 0.929 . S
H850 C854 0.929 . S
H851 C860 0.929 . S
C852 H846 0.930 . S
C852 C853 1.367 . S
C852 C860 1.378 . S
C853 C852 1.367 . S
C853 C861 1.433 . S
C854 H850 0.929 . S
C854 C856 1.378 . S
C854 C858 1.350 . S
C855 C858 1.463 . S
C855 C860 1.350 . S
C855 N863 1.427 . S
C856 H847 0.930 . S
C856 C854 1.378 . S
C856 C857 1.367 . S
C857 C856 1.367 . S
C857 C859 1.433 . S
C858 C854 1.350 . S
C858 C855 1.463 . S
C858 N862 1.427 . S
C859 H849 0.929 . S
C859 C857 1.433 . S
C859 N862 1.384 . S
C860 H851 0.929 . S
C860 C852 1.378 . S
C860 C855 1.350 . S
C861 H848 0.929 . S
C861 C853 1.433 . S
C861 N863 1.384 . S
N862 C858 1.427 . S
N862 C859 1.384 . S
N863 C855 1.427 . S
N863 C861 1.384 . S
H864 C870 0.930 . S
H865 C874 0.930 . S
H866 C879 0.929 . S
H867 C877 0.929 . S
H868 C872 0.929 . S
H869 C878 0.929 . S
C870 H864 0.930 . S
C870 C871 1.367 . S
C870 C878 1.378 . S
C871 C870 1.367 . S
C871 C879 1.433 . S
C872 H868 0.929 . S
C872 C874 1.378 . S
C872 C876 1.350 . S
C873 C876 1.463 . S
C873 C878 1.350 . S
C873 N881 1.427 . S
C874 H865 0.930 . S
C874 C872 1.378 . S
C874 C875 1.367 . S
C875 C874 1.367 . S
C875 C877 1.433 . S
C876 C872 1.350 . S
C876 C873 1.463 . S
C876 N880 1.427 . S
C877 H867 0.929 . S
C877 C875 1.433 . S
C877 N880 1.384 . S
C878 H869 0.929 . S
C878 C870 1.378 . S
C878 C873 1.350 . S
C879 H866 0.929 . S
C879 C871 1.433 . S
C879 N881 1.384 . S
N880 C876 1.427 . S
N880 C877 1.384 . S
N881 C873 1.427 . S
N881 C879 1.384 . S
H882 C888 0.930 . S
H883 C892 0.930 . S
H884 C897 0.929 . S
H885 C895 0.929 . S
H886 C890 0.929 . S
H887 C896 0.929 . S
C888 H882 0.930 . S
C888 C889 1.367 . S
C888 C896 1.378 . S
C889 C888 1.367 . S
C889 C897 1.433 . S
C890 H886 0.929 . S
C890 C892 1.378 . S
C890 C894 1.350 . S
C891 C894 1.463 . S
C891 C896 1.350 . S
C891 N899 1.427 . S
C892 H883 0.930 . S
C892 C890 1.378 . S
C892 C893 1.367 . S
C893 C892 1.367 . S
C893 C895 1.433 . S
C894 C890 1.350 . S
C894 C891 1.463 . S
C894 N898 1.427 . S
C895 H885 0.929 . S
C895 C893 1.433 . S
C895 N898 1.384 . S
C896 H887 0.929 . S
C896 C888 1.378 . S
C896 C891 1.350 . S
C897 H884 0.929 . S
C897 C889 1.433 . S
C897 N899 1.384 . S
N898 C894 1.427 . S
N898 C895 1.384 . S
N899 C891 1.427 . S
N899 C897 1.384 . S
H900 C906 0.930 . S
H901 C910 0.930 . S
H902 C915 0.929 . S
H903 C913 0.929 . S
H904 C908 0.929 . S
H905 C914 0.929 . S
C906 H900 0.930 . S
C906 C907 1.367 . S
C906 C914 1.378 . S
C907 C906 1.367 . S
C907 C915 1.433 . S
C908 H904 0.929 . S
C908 C910 1.378 . S
C908 C912 1.350 . S
C909 C912 1.463 . S
C909 C914 1.350 . S
C909 N917 1.427 . S
C910 H901 0.930 . S
C910 C908 1.378 . S
C910 C911 1.340 1_545 S
C911 C910 1.340 1_565 S
C911 C913 1.441 . S
C912 C908 1.350 . S
C912 C909 1.463 . S
C912 N916 1.427 . S
C913 H903 0.929 . S
C913 C911 1.441 . S
C913 N916 1.384 1_565 S
C914 H905 0.929 . S
C914 C906 1.378 . S
C914 C909 1.350 . S
C915 H902 0.929 . S
C915 C907 1.433 . S
C915 N917 1.384 . S
N916 C912 1.427 . S
N916 C913 1.384 1_545 S
N917 C909 1.427 . S
N917 C915 1.384 . S
H918 C924 0.930 . S
H919 C928 0.930 . S
H920 C933 0.929 . S
H921 C931 0.929 . S
H922 C926 0.929 . S
H923 C932 0.929 . S
C924 H918 0.930 . S
C924 C925 1.367 . S
C924 C932 1.378 . S
C925 C924 1.367 . S
C925 C933 1.433 . S
C926 H922 0.929 . S
C926 C928 1.378 . S
C926 C930 1.350 . S
C927 C930 1.463 . S
C927 C932 1.350 . S
C927 N935 1.427 . S
C928 H919 0.930 . S
C928 C926 1.378 . S
C928 C929 1.367 . S
C929 C928 1.367 . S
C929 C931 1.433 . S
C930 C926 1.350 . S
C930 C927 1.463 . S
C930 N934 1.427 . S
C931 H921 0.929 . S
C931 C929 1.433 . S
C931 N934 1.384 . S
C932 H923 0.929 . S
C932 C924 1.378 . S
C932 C927 1.350 . S
C933 H920 0.929 . S
C933 C925 1.433 . S
C933 N935 1.384 . S
N934 C930 1.427 . S
N934 C931 1.384 . S
N935 C927 1.427 . S
N935 C933 1.384 . S
H936 C942 0.930 1_556 S
H937 C946 0.930 . S
H938 C951 0.929 . S
H939 C949 0.929 . S
H940 C944 0.929 1_565 S
H941 C950 0.929 . S
C942 H936 0.930 1_554 S
C942 C943 1.367 . S
C942 C950 1.378 . S
C943 C942 1.367 . S
C943 C951 1.433 . S
C944 H940 0.929 1_545 S
C944 C946 1.378 . S
C944 C948 1.350 . S
C945 C948 1.463 1_565 S
C945 C950 1.350 . S
C945 N953 1.427 . S
C946 H937 0.930 . S
C946 C944 1.378 . S
C946 C947 1.367 . S
C947 C946 1.367 . S
C947 C949 1.433 . S
C948 C944 1.350 . S
C948 C945 1.463 1_545 S
C948 N952 1.427 . S
C949 H939 0.929 . S
C949 C947 1.433 . S
C949 N952 1.384 . S
C950 H941 0.929 . S
C950 C942 1.378 . S
C950 C945 1.350 . S
C951 H938 0.929 . S
C951 C943 1.433 . S
C951 N953 1.384 . S
N952 C948 1.427 . S
N952 C949 1.384 . S
N953 C945 1.427 . S
N953 C951 1.384 . S
H954 C960 0.930 1_556 S
H955 C964 0.930 . S
H956 C969 0.929 . S
H957 C967 0.929 . S
H958 C962 0.929 . S
H959 C968 0.929 1_556 S
C960 H954 0.930 1_554 S
C960 C961 1.367 . S
C960 C968 1.378 1_655 S
C961 C960 1.367 . S
C961 C969 1.433 1_655 S
C962 H958 0.929 . S
C962 C964 1.378 . S
C962 C966 1.350 . S
C963 C966 1.463 . S
C963 C968 1.350 . S
C963 N971 1.427 . S
C964 H955 0.930 . S
C964 C962 1.378 . S
C964 C965 1.367 . S
C965 C964 1.367 . S
C965 C967 1.433 1_554 S
C966 C962 1.350 . S
C966 C963 1.463 . S
C966 N970 1.427 1_554 S
C967 H957 0.929 . S
C967 C965 1.433 1_556 S
C967 N970 1.384 . S
C968 H959 0.929 1_554 S
C968 C960 1.378 1_455 S
C968 C963 1.350 . S
C969 H956 0.929 . S
C969 C961 1.433 1_455 S
C969 N971 1.384 . S
N970 C966 1.427 1_556 S
N970 C967 1.384 . S
N971 C963 1.427 . S
N971 C969 1.384 . S
H972 C978 0.930 . S
H973 C982 0.930 . S
H974 C987 0.929 . S
H975 C985 0.929 . S
H976 C980 0.929 . S
H977 C986 0.929 . S
C978 H972 0.930 . S
C978 C979 1.367 1_556 S
C978 C986 1.378 1_556 S
C979 C978 1.367 1_554 S
C979 C987 1.433 . S
C980 H976 0.929 . S
C980 C982 1.378 . S
C980 C984 1.350 . S
C981 C984 1.463 . S
C981 C986 1.350 . S
C981 N989 1.427 . S
C982 H973 0.930 . S
C982 C980 1.378 . S
C982 C983 1.367 . S
C983 C982 1.367 . S
C983 C985 1.433 . S
C984 C980 1.350 . S
C984 C981 1.463 . S
C984 N988 1.427 . S
C985 H975 0.929 . S
C985 C983 1.433 . S
C985 N988 1.384 . S
C986 H977 0.929 . S
C986 C978 1.378 1_554 S
C986 C981 1.350 . S
C987 H974 0.929 . S
C987 C979 1.433 . S
C987 N989 1.384 . S
N988 C984 1.427 . S
N988 C985 1.384 . S
N989 C981 1.427 . S
N989 C987 1.384 . S
H990 C996 0.930 . S
H991 C1000 0.930 . S
H992 C1005 0.929 . S
H993 C1003 0.929 1_554 S
H994 C998 0.929 . S
H995 C1004 0.929 . S
C996 H990 0.930 . S
C996 C997 1.367 . S
C996 C1004 1.378 . S
C997 C996 1.367 . S
C997 C1005 1.433 . S
C998 H994 0.929 . S
C998 C1000 1.378 . S
C998 C1002 1.350 1_556 S
C999 C1002 1.463 . S
C999 C1004 1.350 . S
C999 N1007 1.427 . S
C1000 H991 0.930 . S
C1000 C998 1.378 . S
C1000 C1001 1.367 . S
C1001 C1000 1.367 . S
C1001 C1003 1.433 . S
C1002 C998 1.350 1_554 S
C1002 C999 1.463 . S
C1002 N1006 1.427 . S
C1003 H993 0.929 1_556 S
C1003 C1001 1.433 . S
C1003 N1006 1.384 1_556 S
C1004 H995 0.929 . S
C1004 C996 1.378 . S
C1004 C999 1.350 . S
C1005 H992 0.929 . S
C1005 C997 1.433 . S
C1005 N1007 1.384 . S
N1006 C1002 1.427 . S
N1006 C1003 1.384 1_554 S
N1007 C999 1.427 . S
N1007 C1005 1.384 . S
H1008 C1014 0.930 . S
H1009 C1018 0.930 . S
H1010 C1023 0.929 1_556 S
H1011 C1021 0.929 . S
H1012 C1016 0.929 . S
H1013 C1022 0.929 . S
C1014 H1008 0.930 . S
C1014 C1015 1.367 . S
C1014 C1022 1.378 . S
C1015 C1014 1.367 . S
C1015 C1023 1.433 . S
C1016 H1012 0.929 . S
C1016 C1018 1.378 . S
C1016 C1020 1.350 . S
C1017 C1020 1.463 1_554 S
C1017 C1022 1.350 . S
C1017 N1025 1.427 1_554 S
C1018 H1009 0.930 . S
C1018 C1016 1.378 . S
C1018 C1019 1.367 . S
C1019 C1018 1.367 . S
C1019 C1021 1.433 1_556 S
C1020 C1016 1.350 . S
C1020 C1017 1.463 1_556 S
C1020 N1024 1.427 1_556 S
C1021 H1011 0.929 . S
C1021 C1019 1.433 1_554 S
C1021 N1024 1.384 . S
C1022 H1013 0.929 . S
C1022 C1014 1.378 . S
C1022 C1017 1.350 . S
C1023 H1010 0.929 1_554 S
C1023 C1015 1.433 . S
C1023 N1025 1.384 1_554 S
N1024 C1020 1.427 1_554 S
N1024 C1021 1.384 . S
N1025 C1017 1.427 1_556 S
N1025 C1023 1.384 1_556 S
H1026 C1032 0.930 . S
H1027 C1036 0.930 . S
H1028 C1041 0.929 . S
H1029 C1039 0.929 . S
H1030 C1034 0.929 . S
H1031 C1040 0.929 . S
C1032 H1026 0.930 . S
C1032 C1033 1.367 . S
C1032 C1040 1.378 . S
C1033 C1032 1.367 . S
C1033 C1041 1.433 . S
C1034 H1030 0.929 . S
C1034 C1036 1.378 . S
C1034 C1038 1.350 . S
C1035 C1038 1.463 . S
C1035 C1040 1.350 . S
C1035 N1043 1.427 . S
C1036 H1027 0.930 . S
C1036 C1034 1.378 . S
C1036 C1037 1.367 . S
C1037 C1036 1.367 . S
C1037 C1039 1.433 . S
C1038 C1034 1.350 . S
C1038 C1035 1.463 . S
C1038 N1042 1.427 . S
C1039 H1029 0.929 . S
C1039 C1037 1.433 . S
C1039 N1042 1.384 . S
C1040 H1031 0.929 . S
C1040 C1032 1.378 . S
C1040 C1035 1.350 . S
C1041 H1028 0.929 . S
C1041 C1033 1.433 . S
C1041 N1043 1.384 . S
N1042 C1038 1.427 . S
N1042 C1039 1.384 . S
N1043 C1035 1.427 . S
N1043 C1041 1.384 . S
H1044 C1050 0.930 . S
H1045 C1054 0.930 . S
H1046 C1059 0.929 . S
H1047 C1057 0.935 . S
H1048 C1052 0.929 . S
H1049 C1058 0.929 . S
C1050 H1044 0.930 . S
C1050 C1051 1.367 . S
C1050 C1058 1.378 . S
C1051 C1050 1.367 . S
C1051 C1059 1.433 . S
C1052 H1048 0.929 . S
C1052 C1054 1.378 . S
C1052 C1056 1.350 . S
C1053 C1056 1.463 . S
C1053 C1058 1.350 . S
C1053 N1061 1.427 . S
C1054 H1045 0.930 . S
C1054 C1052 1.378 . S
C1054 C1055 1.367 . S
C1055 C1054 1.367 . S
C1055 C1057 1.433 . S
C1056 C1052 1.350 . S
C1056 C1053 1.463 . S
C1056 N1060 1.427 . S
C1057 H1047 0.935 . S
C1057 C1055 1.433 . S
C1057 N1060 1.384 . S
C1058 H1049 0.929 . S
C1058 C1050 1.378 . S
C1058 C1053 1.350 . S
C1059 H1046 0.929 . S
C1059 C1051 1.433 . S
C1059 N1061 1.384 . S
N1060 C1056 1.427 . S
N1060 C1057 1.384 . S
N1061 C1053 1.427 . S
N1061 C1059 1.384 . S
H1062 C1068 0.930 . S
H1063 C1072 0.930 . S
H1064 C1077 0.929 . S
H1065 C1075 0.929 . S
H1066 C1070 0.929 . S
H1067 C1076 0.929 . S
C1068 H1062 0.930 . S
C1068 C1069 1.367 . S
C1068 C1076 1.378 . S
C1069 C1068 1.367 . S
C1069 C1077 1.433 . S
C1070 H1066 0.929 . S
C1070 C1072 1.378 . S
C1070 C1074 1.350 . S
C1071 C1074 1.463 . S
C1071 C1076 1.350 . S
C1071 N1079 1.427 . S
C1072 H1063 0.930 . S
C1072 C1070 1.378 . S
C1072 C1073 1.367 . S
C1073 C1072 1.367 . S
C1073 C1075 1.433 . S
C1074 C1070 1.350 . S
C1074 C1071 1.463 . S
C1074 N1078 1.427 . S
C1075 H1065 0.929 . S
C1075 C1073 1.433 . S
C1075 N1078 1.384 . S
C1076 H1067 0.929 . S
C1076 C1068 1.378 . S
C1076 C1071 1.350 . S
C1077 H1064 0.929 . S
C1077 C1069 1.433 . S
C1077 N1079 1.384 . S
N1078 C1074 1.427 . S
N1078 C1075 1.384 . S
N1079 C1071 1.427 . S
N1079 C1077 1.384 . S
H1080 C1086 0.930 . S
H1081 C1090 0.930 . S
H1082 C1095 0.929 . S
H1083 C1093 0.929 . S
H1084 C1088 0.929 . S
H1085 C1094 0.929 . S
C1086 H1080 0.930 . S
C1086 C1087 1.367 . S
C1086 C1094 1.378 . S
C1087 C1086 1.367 . S
C1087 C1095 1.433 . S
C1088 H1084 0.929 . S
C1088 C1090 1.378 . S
C1088 C1092 1.350 . S
C1089 C1092 1.463 . S
C1089 C1094 1.350 . S
C1089 N1097 1.427 . S
C1090 H1081 0.930 . S
C1090 C1088 1.378 . S
C1090 C1091 1.367 . S
C1091 C1090 1.367 . S
C1091 C1093 1.433 . S
C1092 C1088 1.350 . S
C1092 C1089 1.463 . S
C1092 N1096 1.427 . S
C1093 H1083 0.929 . S
C1093 C1091 1.433 . S
C1093 N1096 1.384 . S
C1094 H1085 0.929 . S
C1094 C1086 1.378 . S
C1094 C1089 1.350 . S
C1095 H1082 0.929 . S
C1095 C1087 1.433 . S
C1095 N1097 1.384 . S
N1096 C1092 1.427 . S
N1096 C1093 1.384 . S
N1097 C1089 1.427 . S
N1097 C1095 1.384 . S
H1098 C1104 0.930 . S
H1099 C1108 0.930 . S
H1100 C1113 0.929 . S
H1101 C1111 0.929 . S
H1102 C1106 0.929 . S
H1103 C1112 0.929 . S
C1104 H1098 0.930 . S
C1104 C1105 1.367 . S
C1104 C1112 1.378 . S
C1105 C1104 1.367 . S
C1105 C1113 1.433 . S
C1106 H1102 0.929 . S
C1106 C1108 1.378 . S
C1106 C1110 1.350 . S
C1107 C1110 1.463 . S
C1107 C1112 1.350 . S
C1107 N1115 1.427 . S
C1108 H1099 0.930 . S
C1108 C1106 1.378 . S
C1108 C1109 1.367 . S
C1109 C1108 1.367 . S
C1109 C1111 1.433 . S
C1110 C1106 1.350 . S
C1110 C1107 1.463 . S
C1110 N1114 1.427 . S
C1111 H1101 0.929 . S
C1111 C1109 1.433 . S
C1111 N1114 1.384 . S
C1112 H1103 0.929 . S
C1112 C1104 1.378 . S
C1112 C1107 1.350 . S
C1113 H1100 0.929 . S
C1113 C1105 1.433 . S
C1113 N1115 1.384 . S
N1114 C1110 1.427 . S
N1114 C1111 1.384 . S
N1115 C1107 1.427 . S
N1115 C1113 1.384 . S
H1116 C1122 0.930 . S
H1117 C1126 0.930 . S
H1118 C1131 0.929 . S
H1119 C1129 0.929 . S
H1120 C1124 0.929 . S
H1121 C1130 0.929 . S
C1122 H1116 0.930 . S
C1122 C1123 1.367 . S
C1122 C1130 1.378 . S
C1123 C1122 1.367 . S
C1123 C1131 1.433 1_545 S
C1124 H1120 0.929 . S
C1124 C1126 1.378 . S
C1124 C1128 1.350 1_565 S
C1125 C1128 1.463 . S
C1125 C1130 1.350 . S
C1125 N1133 1.427 1_545 S
C1126 H1117 0.930 . S
C1126 C1124 1.378 . S
C1126 C1127 1.367 1_565 S
C1127 C1126 1.367 1_545 S
C1127 C1129 1.433 . S
C1128 C1124 1.350 1_545 S
C1128 C1125 1.463 . S
C1128 N1132 1.427 . S
C1129 H1119 0.929 . S
C1129 C1127 1.433 . S
C1129 N1132 1.384 . S
C1130 H1121 0.929 . S
C1130 C1122 1.378 . S
C1130 C1125 1.350 . S
C1131 H1118 0.929 . S
C1131 C1123 1.433 1_565 S
C1131 N1133 1.384 . S
N1132 C1128 1.427 . S
N1132 C1129 1.384 . S
N1133 C1125 1.427 1_565 S
N1133 C1131 1.384 . S
H1134 C1140 0.930 . S
H1135 C1144 0.930 . S
H1136 C1149 0.929 . S
H1137 C1147 0.929 . S
H1138 C1142 0.929 . S
H1139 C1148 0.929 . S
C1140 H1134 0.930 . S
C1140 C1141 1.367 . S
C1140 C1148 1.378 . S
C1141 C1140 1.367 . S
C1141 C1149 1.433 . S
C1142 H1138 0.929 . S
C1142 C1144 1.378 . S
C1142 C1146 1.350 . S
C1143 C1146 1.463 . S
C1143 C1148 1.350 . S
C1143 N1151 1.427 . S
C1144 H1135 0.930 . S
C1144 C1142 1.378 . S
C1144 C1145 1.367 . S
C1145 C1144 1.367 . S
C1145 C1147 1.433 . S
C1146 C1142 1.350 . S
C1146 C1143 1.463 . S
C1146 N1150 1.427 . S
C1147 H1137 0.929 . S
C1147 C1145 1.433 . S
C1147 N1150 1.384 . S
C1148 H1139 0.929 . S
C1148 C1140 1.378 . S
C1148 C1143 1.350 . S
C1149 H1136 0.929 . S
C1149 C1141 1.433 . S
C1149 N1151 1.384 . S
N1150 C1146 1.427 . S
N1150 C1147 1.384 . S
N1151 C1143 1.427 . S
N1151 C1149 1.384 . S
H1152 C1158 0.930 . S
H1153 C1162 0.930 . S
H1154 C1167 0.929 . S
H1155 C1165 0.929 . S
H1156 C1160 0.929 . S
H1157 C1166 0.929 . S
C1158 H1152 0.930 . S
C1158 C1159 1.367 . S
C1158 C1166 1.378 . S
C1159 C1158 1.367 . S
C1159 C1167 1.433 . S
C1160 H1156 0.929 . S
C1160 C1162 1.378 . S
C1160 C1164 1.350 . S
C1161 C1164 1.463 . S
C1161 C1166 1.350 . S
C1161 N1169 1.427 . S
C1162 H1153 0.930 . S
C1162 C1160 1.378 . S
C1162 C1163 1.367 . S
C1163 C1162 1.367 . S
C1163 C1165 1.433 . S
C1164 C1160 1.350 . S
C1164 C1161 1.463 . S
C1164 N1168 1.427 . S
C1165 H1155 0.929 . S
C1165 C1163 1.433 . S
C1165 N1168 1.384 . S
C1166 H1157 0.929 . S
C1166 C1158 1.378 . S
C1166 C1161 1.350 . S
C1167 H1154 0.929 . S
C1167 C1159 1.433 . S
C1167 N1169 1.384 . S
N1168 C1164 1.427 . S
N1168 C1165 1.384 . S
N1169 C1161 1.427 . S
N1169 C1167 1.384 . S
H1170 C1176 0.930 . S
H1171 C1180 0.930 . S
H1172 C1185 0.929 . S
H1173 C1183 0.929 . S
H1174 C1178 0.929 . S
H1175 C1184 0.929 . S
C1176 H1170 0.930 . S
C1176 C1177 1.367 . S
C1176 C1184 1.378 . S
C1177 C1176 1.367 . S
C1177 C1185 1.433 . S
C1178 H1174 0.929 . S
C1178 C1180 1.378 . S
C1178 C1182 1.350 . S
C1179 C1182 1.463 . S
C1179 C1184 1.350 . S
C1179 N1187 1.427 . S
C1180 H1171 0.930 . S
C1180 C1178 1.378 . S
C1180 C1181 1.367 . S
C1181 C1180 1.367 . S
C1181 C1183 1.433 . S
C1182 C1178 1.350 . S
C1182 C1179 1.463 . S
C1182 N1186 1.427 . S
C1183 H1173 0.929 . S
C1183 C1181 1.433 . S
C1183 N1186 1.384 . S
C1184 H1175 0.929 . S
C1184 C1176 1.378 . S
C1184 C1179 1.350 . S
C1185 H1172 0.929 . S
C1185 C1177 1.433 . S
C1185 N1187 1.384 . S
N1186 C1182 1.427 . S
N1186 C1183 1.384 . S
N1187 C1179 1.427 . S
N1187 C1185 1.384 . S
H1188 C1194 0.930 . S
H1189 C1198 0.930 . S
H1190 C1203 0.929 . S
H1191 C1201 0.929 . S
H1192 C1196 0.929 . S
H1193 C1202 0.929 . S
C1194 H1188 0.930 . S
C1194 C1195 1.367 . S
C1194 C1202 1.378 . S
C1195 C1194 1.367 . S
C1195 C1203 1.433 . S
C1196 H1192 0.929 . S
C1196 C1198 1.378 . S
C1196 C1200 1.350 . S
C1197 C1200 1.463 . S
C1197 C1202 1.350 . S
C1197 N1205 1.427 . S
C1198 H1189 0.930 . S
C1198 C1196 1.378 . S
C1198 C1199 1.367 . S
C1199 C1198 1.367 . S
C1199 C1201 1.433 . S
C1200 C1196 1.350 . S
C1200 C1197 1.463 . S
C1200 N1204 1.427 . S
C1201 H1191 0.929 . S
C1201 C1199 1.433 . S
C1201 N1204 1.384 . S
C1202 H1193 0.929 . S
C1202 C1194 1.378 . S
C1202 C1197 1.350 . S
C1203 H1190 0.929 . S
C1203 C1195 1.433 . S
C1203 N1205 1.384 . S
N1204 C1200 1.427 . S
N1204 C1201 1.384 . S
N1205 C1197 1.427 . S
N1205 C1203 1.384 . S
H1206 C1212 0.930 . S
H1207 C1216 0.930 . S
H1208 C1221 0.929 . S
H1209 C1219 0.929 . S
H1210 C1214 0.929 . S
H1211 C1220 0.929 . S
C1212 H1206 0.930 . S
C1212 C1213 1.367 . S
C1212 C1220 1.378 . S
C1213 C1212 1.367 . S
C1213 C1221 1.433 . S
C1214 H1210 0.929 . S
C1214 C1216 1.378 . S
C1214 C1218 1.350 . S
C1215 C1218 1.463 . S
C1215 C1220 1.350 . S
C1215 N1223 1.427 . S
C1216 H1207 0.930 . S
C1216 C1214 1.378 . S
C1216 C1217 1.367 . S
C1217 C1216 1.367 . S
C1217 C1219 1.433 . S
C1218 C1214 1.350 . S
C1218 C1215 1.463 . S
C1218 N1222 1.427 . S
C1219 H1209 0.929 . S
C1219 C1217 1.433 . S
C1219 N1222 1.384 . S
C1220 H1211 0.929 . S
C1220 C1212 1.378 . S
C1220 C1215 1.350 . S
C1221 H1208 0.929 . S
C1221 C1213 1.433 . S
C1221 N1223 1.384 . S
N1222 C1218 1.427 . S
N1222 C1219 1.384 . S
N1223 C1215 1.427 . S
N1223 C1221 1.384 . S
H1224 C1230 0.930 . S
H1225 C1234 0.930 . S
H1226 C1239 0.929 . S
H1227 C1237 0.929 . S
H1228 C1232 0.929 . S
H1229 C1238 0.929 . S
C1230 H1224 0.930 . S
C1230 C1231 1.367 . S
C1230 C1238 1.378 . S
C1231 C1230 1.367 . S
C1231 C1239 1.433 . S
C1232 H1228 0.929 . S
C1232 C1234 1.378 . S
C1232 C1236 1.350 . S
C1233 C1236 1.463 . S
C1233 C1238 1.350 . S
C1233 N1241 1.427 . S
C1234 H1225 0.930 . S
C1234 C1232 1.378 . S
C1234 C1235 1.367 . S
C1235 C1234 1.367 . S
C1235 C1237 1.433 . S
C1236 C1232 1.350 . S
C1236 C1233 1.463 . S
C1236 N1240 1.427 . S
C1237 H1227 0.929 . S
C1237 C1235 1.433 . S
C1237 N1240 1.384 . S
C1238 H1229 0.929 . S
C1238 C1230 1.378 . S
C1238 C1233 1.350 . S
C1239 H1226 0.929 . S
C1239 C1231 1.433 . S
C1239 N1241 1.384 . S
N1240 C1236 1.427 . S
N1240 C1237 1.384 . S
N1241 C1233 1.427 . S
N1241 C1239 1.384 . S
C763 C69 1.126 . S
C767 C657 1.144 . S
C781 C140 2.228 . S
C785 C728 2.233 . S
C799 C237 1.310 . S
C803 C560 1.495 . S
C817 C392 2.377 . S
C821 C224 2.392 . S
C835 C476 2.269 . S
C839 C56 2.272 . S
C853 C153 1.904 . S
C857 C308 2.165 . S
C871 C644 1.593 . S
C875 C489 1.443 . S
C889 C741 1.227 . S
C893 C321 1.253 . S
C907 C405 1.566 . S
C911 C573 1.620 . S
C925 C226 1.407 . S
C929 C67 1.755 . S
C943 C142 1.223 . S
C947 C58 1.246 . S
C961 C151 2.966 . S
C965 C235 2.994 1_554 S
C979 C310 1.620 . S
C983 C487 2.068 . S
C997 C319 2.041 . S
C1001 C394 1.654 . S
C1015 C403 2.003 . S
C1019 C478 1.522 . S
C1033 C730 1.746 . S
C1037 C571 2.276 . S
C1051 C646 0.796 . S
C1055 C562 0.806 . S
C1069 C739 2.052 . S
C1073 C655 2.043 . S
C1087 C74 1.452 . S
C1091 C63 1.452 . S
C1105 C147 1.489 . S
C1109 C158 1.489 . S
C1123 C242 1.526 . S
C1127 C231 1.526 . S
C1141 C326 1.489 . S
C1145 C315 1.489 . S
C1159 C410 1.467 . S
C1163 C399 1.467 . S
C1177 C494 1.505 . S
C1181 C483 1.505 1_556 S
C1195 C578 1.461 . S
C1199 C567 1.461 1_554 S
C1213 C662 1.448 . S
C1217 C651 1.448 . S
C1231 C746 1.481 . S
C1235 C735 1.481 . S
