# Generated by pormake.
# Topology gme, (4)-cn, num edge types: 1
# Building blocks:
#     Node 0, Type 0, BuildingBlock: GALJAG_clean_sbu_0, # of connection points: 4
#     Node 1, Type 0, BuildingBlock: GALJAG_clean_sbu_0, # of connection points: 4
#     Node 2, Type 0, BuildingBlock: GALJAG_clean_sbu_0, # of connection points: 4
#     Node 3, Type 0, BuildingBlock: GALJAG_clean_sbu_0, # of connection points: 4
#     Node 4, Type 0, BuildingBlock: GALJAG_clean_sbu_0, # of connection points: 4
#     Node 5, Type 0, BuildingBlock: GALJAG_clean_sbu_0, # of connection points: 4
#     Node 6, Type 0, BuildingBlock: GALJAG_clean_sbu_0, # of connection points: 4
#     Node 7, Type 0, BuildingBlock: GALJAG_clean_sbu_0, # of connection points: 4
#     Node 8, Type 0, BuildingBlock: GALJAG_clean_sbu_0, # of connection points: 4
#     Node 9, Type 0, BuildingBlock: GALJAG_clean_sbu_0, # of connection points: 4
#     Node 10, Type 0, BuildingBlock: GALJAG_clean_sbu_0, # of connection points: 4
#     Node 11, Type 0, BuildingBlock: GALJAG_clean_sbu_0, # of connection points: 4
#     Node 12, Type 0, BuildingBlock: GALJAG_clean_sbu_0, # of connection points: 4
#     Node 13, Type 0, BuildingBlock: GALJAG_clean_sbu_0, # of connection points: 4
#     Node 14, Type 0, BuildingBlock: GALJAG_clean_sbu_0, # of connection points: 4
#     Node 15, Type 0, BuildingBlock: GALJAG_clean_sbu_0, # of connection points: 4
#     Node 16, Type 0, BuildingBlock: GALJAG_clean_sbu_0, # of connection points: 4
#     Node 17, Type 0, BuildingBlock: GALJAG_clean_sbu_0, # of connection points: 4
#     Node 18, Type 0, BuildingBlock: GALJAG_clean_sbu_0, # of connection points: 4
#     Node 19, Type 0, BuildingBlock: GALJAG_clean_sbu_0, # of connection points: 4
#     Node 20, Type 0, BuildingBlock: GALJAG_clean_sbu_0, # of connection points: 4
#     Node 21, Type 0, BuildingBlock: GALJAG_clean_sbu_0, # of connection points: 4
#     Node 22, Type 0, BuildingBlock: GALJAG_clean_sbu_0, # of connection points: 4
#     Node 23, Type 0, BuildingBlock: GALJAG_clean_sbu_0, # of connection points: 4
#     Edge 24, Type (0, 0), BuildingBlock: ZUJKAS_clean_linker_0, # of connection points: 2
#     Edge 25, Type (0, 0), BuildingBlock: ZUJKAS_clean_linker_0, # of connection points: 2
#     Edge 26, Type (0, 0), BuildingBlock: ZUJKAS_clean_linker_0, # of connection points: 2
#     Edge 27, Type (0, 0), BuildingBlock: ZUJKAS_clean_linker_0, # of connection points: 2
#     Edge 28, Type (0, 0), BuildingBlock: ZUJKAS_clean_linker_0, # of connection points: 2
#     Edge 29, Type (0, 0), BuildingBlock: ZUJKAS_clean_linker_0, # of connection points: 2
#     Edge 30, Type (0, 0), BuildingBlock: ZUJKAS_clean_linker_0, # of connection points: 2
#     Edge 31, Type (0, 0), BuildingBlock: ZUJKAS_clean_linker_0, # of connection points: 2
#     Edge 32, Type (0, 0), BuildingBlock: ZUJKAS_clean_linker_0, # of connection points: 2
#     Edge 33, Type (0, 0), BuildingBlock: ZUJKAS_clean_linker_0, # of connection points: 2
#     Edge 34, Type (0, 0), BuildingBlock: ZUJKAS_clean_linker_0, # of connection points: 2
#     Edge 35, Type (0, 0), BuildingBlock: ZUJKAS_clean_linker_0, # of connection points: 2
#     Edge 36, Type (0, 0), BuildingBlock: ZUJKAS_clean_linker_0, # of connection points: 2
#     Edge 37, Type (0, 0), BuildingBlock: ZUJKAS_clean_linker_0, # of connection points: 2
#     Edge 38, Type (0, 0), BuildingBlock: ZUJKAS_clean_linker_0, # of connection points: 2
#     Edge 39, Type (0, 0), BuildingBlock: ZUJKAS_clean_linker_0, # of connection points: 2
#     Edge 40, Type (0, 0), BuildingBlock: ZUJKAS_clean_linker_0, # of connection points: 2
#     Edge 41, Type (0, 0), BuildingBlock: ZUJKAS_clean_linker_0, # of connection points: 2
#     Edge 42, Type (0, 0), BuildingBlock: ZUJKAS_clean_linker_0, # of connection points: 2
#     Edge 43, Type (0, 0), BuildingBlock: ZUJKAS_clean_linker_0, # of connection points: 2
#     Edge 44, Type (0, 0), BuildingBlock: ZUJKAS_clean_linker_0, # of connection points: 2
#     Edge 45, Type (0, 0), BuildingBlock: ZUJKAS_clean_linker_0, # of connection points: 2
#     Edge 46, Type (0, 0), BuildingBlock: ZUJKAS_clean_linker_0, # of connection points: 2
#     Edge 47, Type (0, 0), BuildingBlock: ZUJKAS_clean_linker_0, # of connection points: 2
#     Edge 48, Type (0, 0), BuildingBlock: ZUJKAS_clean_linker_0, # of connection points: 2
#     Edge 49, Type (0, 0), BuildingBlock: ZUJKAS_clean_linker_0, # of connection points: 2
#     Edge 50, Type (0, 0), BuildingBlock: ZUJKAS_clean_linker_0, # of connection points: 2
#     Edge 51, Type (0, 0), BuildingBlock: ZUJKAS_clean_linker_0, # of connection points: 2
#     Edge 52, Type (0, 0), BuildingBlock: ZUJKAS_clean_linker_0, # of connection points: 2
#     Edge 53, Type (0, 0), BuildingBlock: ZUJKAS_clean_linker_0, # of connection points: 2
#     Edge 54, Type (0, 0), BuildingBlock: ZUJKAS_clean_linker_0, # of connection points: 2
#     Edge 55, Type (0, 0), BuildingBlock: ZUJKAS_clean_linker_0, # of connection points: 2
#     Edge 56, Type (0, 0), BuildingBlock: ZUJKAS_clean_linker_0, # of connection points: 2
#     Edge 57, Type (0, 0), BuildingBlock: ZUJKAS_clean_linker_0, # of connection points: 2
#     Edge 58, Type (0, 0), BuildingBlock: ZUJKAS_clean_linker_0, # of connection points: 2
#     Edge 59, Type (0, 0), BuildingBlock: ZUJKAS_clean_linker_0, # of connection points: 2
#     Edge 60, Type (0, 0), BuildingBlock: ZUJKAS_clean_linker_0, # of connection points: 2
#     Edge 61, Type (0, 0), BuildingBlock: ZUJKAS_clean_linker_0, # of connection points: 2
#     Edge 62, Type (0, 0), BuildingBlock: ZUJKAS_clean_linker_0, # of connection points: 2
#     Edge 63, Type (0, 0), BuildingBlock: ZUJKAS_clean_linker_0, # of connection points: 2
#     Edge 64, Type (0, 0), BuildingBlock: ZUJKAS_clean_linker_0, # of connection points: 2
#     Edge 65, Type (0, 0), BuildingBlock: ZUJKAS_clean_linker_0, # of connection points: 2
#     Edge 66, Type (0, 0), BuildingBlock: ZUJKAS_clean_linker_0, # of connection points: 2
#     Edge 67, Type (0, 0), BuildingBlock: ZUJKAS_clean_linker_0, # of connection points: 2
#     Edge 68, Type (0, 0), BuildingBlock: ZUJKAS_clean_linker_0, # of connection points: 2
#     Edge 69, Type (0, 0), BuildingBlock: ZUJKAS_clean_linker_0, # of connection points: 2
#     Edge 70, Type (0, 0), BuildingBlock: ZUJKAS_clean_linker_0, # of connection points: 2
#     Edge 71, Type (0, 0), BuildingBlock: ZUJKAS_clean_linker_0, # of connection points: 2
# Relax obj value: 0.080
# Max RMSD: 0.062
# Mean RMSD: 0.062
data_MOF--net-gme--node1-GALJAG_clean_sbu_0--edge1-ZUJKAS_clean_linker_0
_symmetry_space_group_name_H-M    P1
_symmetry_Int_Tables_number       1
_symmetry_cell_setting            triclinic
loop_
_symmetry_equiv_pos_as_xyz
'x, y, z'
_cell_length_a     74.998156
_cell_length_b     75.004063
_cell_length_c     72.304439
_cell_angle_alpha  90.015696
_cell_angle_beta   89.980659
_cell_angle_gamma 119.99361
loop_
_atom_site_label
_atom_site_type_symbol
_atom_site_fract_x
_atom_site_fract_y
_atom_site_fract_z
_atom_type_partial_charge
In0 In 0.40629 0.07153 0.11701 0.0
O1 O 0.38469 0.05065 0.13993 0.0
O2 O 0.41358 0.07615 0.14759 0.0
C3 C 0.38613 0.05158 0.08602 0.0
C4 C 0.40331 0.10588 0.11643 0.0
C5 C 0.44135 0.07004 0.11338 0.0
O6 O 0.38087 0.04346 0.10184 0.0
O7 O 0.40129 0.06963 0.08596 0.0
O8 O 0.44076 0.08647 0.11161 0.0
O9 O 0.4242 0.05429 0.11683 0.0
C10 C 0.39694 0.06083 0.15284 0.0
O11 O 0.42015 0.10617 0.11432 0.0
O12 O 0.38786 0.0882 0.11875 0.0
In13 In 0.332 0.40278 0.61887 0.0
O14 O 0.31245 0.41821 0.61789 0.0
O15 O 0.29711 0.38589 0.62245 0.0
C16 C 0.3676 0.43848 0.61396 0.0
C17 C 0.33433 0.39114 0.65376 0.0
C18 C 0.33124 0.38293 0.58741 0.0
O19 O 0.35031 0.43751 0.61449 0.0
O20 O 0.36691 0.42141 0.61577 0.0
O21 O 0.33866 0.3807 0.60231 0.0
O22 O 0.32401 0.39486 0.58849 0.0
C23 C 0.29561 0.40182 0.62059 0.0
O24 O 0.32616 0.37827 0.64081 0.0
O25 O 0.3413 0.40962 0.64904 0.0
In26 In 0.93034 0.3344 0.11939 0.0
O27 O 0.9494 0.32817 0.14059 0.0
O28 O 0.93131 0.34086 0.1501 0.0
C29 C 0.95002 0.33552 0.08772 0.0
C30 C 0.8953 0.29766 0.11996 0.0
C31 C 0.92997 0.37006 0.11639 0.0
O32 O 0.95948 0.34246 0.10279 0.0
O33 O 0.93082 0.32798 0.08873 0.0
O34 O 0.91404 0.35272 0.11413 0.0
O35 O 0.94611 0.36941 0.11994 0.0
C36 C 0.94362 0.33463 0.15415 0.0
O37 O 0.8954 0.31451 0.1191 0.0
O38 O 0.91289 0.29934 0.12064 0.0
In39 In 0.59293 0.93014 0.62059 0.0
O40 O 0.57779 0.8952 0.61894 0.0
O41 O 0.61016 0.91233 0.62293 0.0
C42 C 0.55781 0.93143 0.61704 0.0
C43 C 0.60447 0.94328 0.65565 0.0
C44 C 0.61223 0.94934 0.58903 0.0
O45 O 0.55814 0.91477 0.61719 0.0
O46 O 0.57523 0.94747 0.61851 0.0
O47 O 0.61671 0.95837 0.60449 0.0
O48 O 0.59825 0.93072 0.58959 0.0
C49 C 0.59431 0.89487 0.62105 0.0
O50 O 0.61727 0.94917 0.64252 0.0
O51 O 0.58614 0.93095 0.65103 0.0
In52 In 0.66658 0.59359 0.11678 0.0
O53 O 0.6719 0.6179 0.13874 0.0
O54 O 0.65786 0.58658 0.14703 0.0
C55 C 0.66937 0.61535 0.08601 0.0
C56 C 0.70221 0.59294 0.11738 0.0
C57 C 0.63025 0.55846 0.11236 0.0
O58 O 0.66163 0.61726 0.10086 0.0
O59 O 0.67594 0.60287 0.08688 0.0
O60 O 0.64686 0.5586 0.11552 0.0
O61 O 0.63196 0.57605 0.11135 0.0
C62 C 0.66427 0.60498 0.15174 0.0
O63 O 0.68606 0.57898 0.10986 0.0
O64 O 0.70041 0.60727 0.12464 0.0
In65 In 0.06711 0.66357 0.61695 0.0
O66 O 0.0473 0.66815 0.63863 0.0
O67 O 0.0673 0.65752 0.64761 0.0
C68 C 0.04862 0.66425 0.58515 0.0
C69 C 0.10231 0.70017 0.61692 0.0
C70 C 0.06602 0.62723 0.61337 0.0
O71 O 0.03884 0.65801 0.60018 0.0
O72 O 0.06754 0.67021 0.58629 0.0
O73 O 0.08263 0.6442 0.61427 0.0
O74 O 0.04993 0.62858 0.61414 0.0
C75 C 0.05417 0.66255 0.65201 0.0
O76 O 0.10192 0.68331 0.61452 0.0
O77 O 0.08491 0.69857 0.61944 0.0
In78 In 0.92973 0.59574 0.37787 0.0
O79 O 0.95224 0.61793 0.35615 0.0
O80 O 0.92432 0.59221 0.34692 0.0
C81 C 0.94935 0.61367 0.40966 0.0
C82 C 0.89591 0.59945 0.38085 0.0
C83 C 0.93059 0.56016 0.37872 0.0
O84 O 0.95725 0.62061 0.394 0.0
O85 O 0.93172 0.59786 0.40917 0.0
O86 O 0.91417 0.5608 0.38026 0.0
O87 O 0.94662 0.57747 0.37678 0.0
C88 C 0.94103 0.60803 0.3426 0.0
O89 O 0.89522 0.5823 0.38121 0.0
O90 O 0.91372 0.61484 0.37891 0.0
In91 In 0.33259 0.93159 0.87996 0.0
O92 O 0.31281 0.8967 0.88092 0.0
O93 O 0.29756 0.91393 0.87742 0.0
C94 C 0.36833 0.93166 0.88435 0.0
C95 C 0.33445 0.94497 0.84491 0.0
C96 C 0.33196 0.95037 0.91166 0.0
O97 O 0.35103 0.91536 0.88441 0.0
O98 O 0.36761 0.94799 0.88225 0.0
O99 O 0.33879 0.96013 0.8967 0.0
O100 O 0.32536 0.93132 0.9105 0.0
C101 C 0.29596 0.89642 0.87898 0.0
O102 O 0.32773 0.95103 0.85807 0.0
O103 O 0.34016 0.93241 0.84951 0.0
In104 In 0.40478 0.33343 0.38208 0.0
O105 O 0.41905 0.31335 0.38704 0.0
O106 O 0.38651 0.29835 0.38404 0.0
C107 C 0.4403 0.36996 0.38087 0.0
C108 C 0.39141 0.33034 0.34691 0.0
C109 C 0.38667 0.33559 0.41362 0.0
O110 O 0.43979 0.35302 0.38288 0.0
O111 O 0.42287 0.36852 0.37949 0.0
O112 O 0.37869 0.33417 0.39792 0.0
O113 O 0.40363 0.33593 0.41331 0.0
C114 C 0.4022 0.29657 0.38664 0.0
O115 O 0.38349 0.335 0.36012 0.0
O116 O 0.40587 0.32728 0.35151 0.0
In117 In 0.06944 0.40442 0.88014 0.0
O118 O 0.10408 0.41868 0.88313 0.0
O119 O 0.08607 0.386 0.88211 0.0
C120 C 0.06789 0.43965 0.87907 0.0
C121 C 0.05816 0.39023 0.84533 0.0
C122 C 0.05051 0.38733 0.9124 0.0
O123 O 0.08445 0.4394 0.8812 0.0
O124 O 0.05207 0.42212 0.87748 0.0
O125 O 0.04308 0.37906 0.89697 0.0
O126 O 0.06735 0.40404 0.91147 0.0
C127 C 0.10378 0.40171 0.88335 0.0
O128 O 0.04612 0.38223 0.8589 0.0
O129 O 0.07558 0.40521 0.8494 0.0
In130 In 0.66622 0.06672 0.38115 0.0
O131 O 0.68561 0.10171 0.38135 0.0
O132 O 0.70127 0.08475 0.3793 0.0
C133 C 0.63032 0.06642 0.38494 0.0
C134 C 0.66487 0.05266 0.34646 0.0
C135 C 0.66622 0.04822 0.41319 0.0
O136 O 0.64753 0.08284 0.38468 0.0
O137 O 0.63122 0.05012 0.38341 0.0
O138 O 0.66004 0.0384 0.39818 0.0
O139 O 0.67252 0.06719 0.41191 0.0
C140 C 0.70262 0.10218 0.38013 0.0
O141 O 0.67294 0.04821 0.35967 0.0
O142 O 0.65753 0.06394 0.35082 0.0
In143 In 0.59669 0.66464 0.88115 0.0
O144 O 0.61979 0.66888 0.85822 0.0
O145 O 0.58856 0.65762 0.85083 0.0
C146 C 0.61697 0.66485 0.91209 0.0
C147 C 0.59829 0.70138 0.88111 0.0
C148 C 0.56155 0.62847 0.88585 0.0
O149 O 0.62104 0.66031 0.89643 0.0
O150 O 0.60294 0.66944 0.912 0.0
O151 O 0.56224 0.64561 0.88661 0.0
O152 O 0.57866 0.62955 0.88288 0.0
C153 C 0.60648 0.66272 0.8455 0.0
O154 O 0.58171 0.68452 0.8829 0.0
O155 O 0.61415 0.69976 0.87931 0.0
In156 In 0.59272 0.92557 0.8835 0.0
O157 O 0.61424 0.94829 0.86159 0.0
O158 O 0.58931 0.91966 0.85261 0.0
C159 C 0.6118 0.94504 0.91499 0.0
C160 C 0.59572 0.8913 0.88543 0.0
C161 C 0.55754 0.92719 0.88508 0.0
O162 O 0.61857 0.95263 0.89922 0.0
O163 O 0.5956 0.92771 0.9148 0.0
O164 O 0.55789 0.91064 0.8868 0.0
O165 O 0.57493 0.94294 0.88254 0.0
C166 C 0.60473 0.93662 0.84815 0.0
O167 O 0.57873 0.89093 0.88627 0.0
O168 O 0.61129 0.90903 0.8838 0.0
In169 In 0.66834 0.59692 0.37978 0.0
O170 O 0.66529 0.61742 0.3578 0.0
O171 O 0.67516 0.59662 0.34932 0.0
C172 C 0.66519 0.61344 0.41195 0.0
C173 C 0.70564 0.60047 0.38417 0.0
C174 C 0.63211 0.5612 0.37839 0.0
O175 O 0.66848 0.6229 0.39675 0.0
O176 O 0.6636 0.59594 0.41079 0.0
O177 O 0.64911 0.56189 0.38073 0.0
O178 O 0.63338 0.57854 0.37666 0.0
C179 C 0.67089 0.61023 0.34465 0.0
O180 O 0.6892 0.5833 0.38351 0.0
O181 O 0.70327 0.61594 0.38277 0.0
In182 In 0.06996 0.66813 0.87955 0.0
O183 O 0.10474 0.68784 0.88241 0.0
O184 O 0.08745 0.70322 0.88075 0.0
C185 C 0.06792 0.63115 0.87906 0.0
C186 C 0.05825 0.66959 0.84455 0.0
C187 C 0.0516 0.6677 0.9118 0.0
O188 O 0.08459 0.64789 0.8811 0.0
O189 O 0.0522 0.63304 0.87727 0.0
O190 O 0.04581 0.67126 0.89654 0.0
O191 O 0.06644 0.66434 0.91068 0.0
C192 C 0.10495 0.70477 0.88211 0.0
O193 O 0.04602 0.66513 0.85803 0.0
O194 O 0.07603 0.67319 0.84882 0.0
In195 In 0.40541 0.07134 0.38299 0.0
O196 O 0.41982 0.10578 0.38801 0.0
O197 O 0.38748 0.08854 0.38373 0.0
C198 C 0.44058 0.06987 0.38398 0.0
C199 C 0.39526 0.06102 0.34719 0.0
C200 C 0.38593 0.051 0.41407 0.0
O201 O 0.44018 0.0864 0.38588 0.0
O202 O 0.42319 0.05401 0.38158 0.0
O203 O 0.37691 0.04696 0.3986 0.0
O204 O 0.40453 0.06504 0.4137 0.0
C205 C 0.4031 0.1059 0.38678 0.0
O206 O 0.38585 0.04852 0.36017 0.0
O207 O 0.40942 0.07843 0.35237 0.0
In208 In 0.33172 0.40368 0.88201 0.0
O209 O 0.31127 0.41789 0.88439 0.0
O210 O 0.29661 0.38526 0.88227 0.0
C211 C 0.36845 0.43886 0.8842 0.0
C212 C 0.33033 0.3917 0.84658 0.0
C213 C 0.33198 0.38476 0.91366 0.0
O214 O 0.35151 0.43839 0.88607 0.0
O215 O 0.3669 0.42158 0.88121 0.0
O216 O 0.33543 0.37938 0.89812 0.0
O217 O 0.32834 0.39943 0.91309 0.0
C218 C 0.29459 0.40094 0.88375 0.0
O219 O 0.33086 0.38116 0.85997 0.0
O220 O 0.33065 0.40807 0.85113 0.0
In221 In 0.92783 0.33121 0.38049 0.0
O222 O 0.9499 0.32984 0.35924 0.0
O223 O 0.9227 0.3289 0.34953 0.0
C224 C 0.94667 0.33218 0.41258 0.0
C225 C 0.89323 0.29424 0.38221 0.0
C226 C 0.92948 0.36807 0.38113 0.0
O227 O 0.95563 0.3353 0.39715 0.0
O228 O 0.92835 0.32849 0.41172 0.0
O229 O 0.91301 0.35124 0.38349 0.0
O230 O 0.94516 0.36634 0.37847 0.0
C231 C 0.93891 0.32862 0.34553 0.0
O232 O 0.8931 0.31101 0.38257 0.0
O233 O 0.9109 0.29611 0.38115 0.0
In234 In 0.0678 0.40108 0.6187 0.0
O235 O 0.10273 0.41651 0.61686 0.0
O236 O 0.08598 0.38432 0.62203 0.0
C237 C 0.06679 0.43629 0.61438 0.0
C238 C 0.05398 0.38938 0.6536 0.0
C239 C 0.04866 0.38133 0.58726 0.0
O240 O 0.0834 0.43592 0.61548 0.0
O241 O 0.05068 0.41887 0.61538 0.0
O242 O 0.03937 0.37785 0.60254 0.0
O243 O 0.06757 0.39447 0.58794 0.0
C244 C 0.10333 0.40022 0.61971 0.0
O245 O 0.0487 0.3766 0.6405 0.0
O246 O 0.06607 0.40779 0.64905 0.0
In247 In 0.66866 0.06998 0.11892 0.0
O248 O 0.67136 0.04916 0.1407 0.0
O249 O 0.66792 0.07418 0.14989 0.0
C250 C 0.6685 0.05011 0.08771 0.0
C251 C 0.70532 0.10499 0.11817 0.0
C252 C 0.63217 0.06885 0.11575 0.0
O253 O 0.66254 0.041 0.10306 0.0
O254 O 0.67468 0.0691 0.08823 0.0
O255 O 0.64922 0.08495 0.113 0.0
O256 O 0.63349 0.05327 0.12009 0.0
C257 C 0.67009 0.0591 0.15424 0.0
O258 O 0.68839 0.10477 0.11737 0.0
O259 O 0.70378 0.08747 0.11925 0.0
In260 In 0.5932 0.66702 0.61657 0.0
O261 O 0.61678 0.67053 0.63872 0.0
O262 O 0.58605 0.6605 0.64708 0.0
C263 C 0.61234 0.66719 0.58485 0.0
C264 C 0.59509 0.70389 0.61724 0.0
C265 C 0.55801 0.63073 0.61249 0.0
O266 O 0.61719 0.66297 0.60029 0.0
O267 O 0.59819 0.6716 0.58556 0.0
O268 O 0.55851 0.64781 0.6124 0.0
O269 O 0.5753 0.63195 0.61456 0.0
C270 C 0.60397 0.66497 0.65184 0.0
O271 O 0.57845 0.68713 0.61522 0.0
O272 O 0.61087 0.7021 0.61887 0.0
In273 In 0.93238 0.59854 0.11788 0.0
O274 O 0.89951 0.58563 0.12816 0.0
O275 O 0.90883 0.60538 0.10466 0.0
C276 C 0.92924 0.56108 0.12041 0.0
C277 C 0.94935 0.61916 0.14973 0.0
C278 C 0.95271 0.61644 0.08624 0.0
O279 O 0.91502 0.56358 0.11397 0.0
O280 O 0.94487 0.57739 0.12579 0.0
O281 O 0.95288 0.62692 0.09998 0.0
O282 O 0.94253 0.59725 0.08862 0.0
C283 C 0.8947 0.59459 0.11603 0.0
O284 O 0.95876 0.6134 0.13901 0.0
O285 O 0.93193 0.61526 0.14401 0.0
In286 In 0.32858 0.9278 0.6174 0.0
O287 O 0.33251 0.95197 0.63908 0.0
O288 O 0.32222 0.92138 0.64802 0.0
C289 C 0.32961 0.94675 0.58535 0.0
C290 C 0.2923 0.89265 0.61356 0.0
C291 C 0.36535 0.92947 0.61809 0.0
O292 O 0.32398 0.95104 0.60036 0.0
O293 O 0.33466 0.93312 0.58664 0.0
O294 O 0.34852 0.91282 0.61641 0.0
O295 O 0.36366 0.94532 0.61959 0.0
C296 C 0.32688 0.93945 0.65242 0.0
O297 O 0.30934 0.89311 0.61357 0.0
O298 O 0.29354 0.90998 0.61532 0.0
In299 In 0.40238 0.33265 0.11893 0.0
O300 O 0.37836 0.32756 0.14115 0.0
O301 O 0.40965 0.34093 0.14924 0.0
C302 C 0.38254 0.33237 0.08769 0.0
C303 C 0.401 0.29601 0.11929 0.0
C304 C 0.4377 0.36869 0.11442 0.0
O305 O 0.37887 0.33774 0.10312 0.0
O306 O 0.39593 0.32692 0.08813 0.0
O307 O 0.43723 0.35167 0.1158 0.0
O308 O 0.42033 0.36752 0.11524 0.0
C309 C 0.39136 0.33482 0.1541 0.0
O310 O 0.41742 0.31283 0.11665 0.0
O311 O 0.38522 0.29764 0.12174 0.0
H312 H 0.36521 0.02489 0.33173 0.0
H313 H 0.35903 0.01664 0.29853 0.0
H314 H 0.40905 0.07711 0.2851 0.0
H315 H 0.41523 0.08551 0.31791 0.0
H316 H 0.35587 0.04773 0.26743 0.0
H317 H 0.41728 0.02717 0.26058 0.0
H318 H 0.40314 0.02358 0.28183 0.0
H319 H 0.42287 0.04887 0.2751 0.0
C320 C 0.37479 0.03642 0.32166 0.0
C321 C 0.39073 0.05583 0.32739 0.0
C322 C 0.37123 0.03169 0.30277 0.0
C323 C 0.38366 0.04628 0.2895 0.0
C324 C 0.39936 0.06568 0.29521 0.0
H325 H 0.42159 0.08102 0.18198 0.0
H326 H 0.41473 0.07289 0.21473 0.0
C327 C 0.40285 0.07043 0.31396 0.0
C328 C 0.3809 0.0416 0.26954 0.0
H329 H 0.40594 0.03551 0.23287 0.0
C330 C 0.36637 0.04448 0.2598 0.0
C331 C 0.39473 0.03745 0.25979 0.0
C332 C 0.41035 0.03394 0.26979 0.0
C333 C 0.36631 0.04476 0.24036 0.0
C334 C 0.38105 0.04191 0.23059 0.0
C335 C 0.39466 0.03769 0.24041 0.0
C336 C 0.38463 0.04617 0.21054 0.0
C337 C 0.35152 0.04956 0.23043 0.0
C338 C 0.36996 0.03376 0.19728 0.0
C339 C 0.37385 0.03842 0.17842 0.0
C340 C 0.39246 0.05551 0.17262 0.0
C341 C 0.40709 0.06776 0.18598 0.0
C342 C 0.40322 0.06311 0.20471 0.0
H343 H 0.34266 0.05368 0.24014 0.0
H344 H 0.35997 0.06249 0.2206 0.0
H345 H 0.34045 0.03591 0.22232 0.0
H346 H 0.35561 0.02047 0.20151 0.0
H347 H 0.36233 0.02867 0.1684 0.0
H348 H 0.35614 0.41652 0.68202 0.0
H349 H 0.35508 0.40776 0.71462 0.0
H350 H 0.31273 0.34396 0.70218 0.0
H351 H 0.31375 0.35266 0.66927 0.0
H352 H 0.29948 0.36076 0.73038 0.0
H353 H 0.37892 0.37726 0.74368 0.0
H354 H 0.37836 0.39769 0.73126 0.0
H355 H 0.36796 0.37271 0.72071 0.0
C356 C 0.34684 0.40056 0.68615 0.0
C357 C 0.335 0.38527 0.67312 0.0
C358 C 0.34638 0.39555 0.70477 0.0
C359 C 0.33408 0.37517 0.71077 0.0
C360 C 0.3225 0.35975 0.69777 0.0
H361 H 0.33511 0.36044 0.8322 0.0
H362 H 0.33417 0.35137 0.79935 0.0
C363 C 0.3231 0.36473 0.67902 0.0
C364 C 0.33186 0.3707 0.73084 0.0
H365 H 0.36032 0.37966 0.77014 0.0
C366 C 0.31266 0.36437 0.73907 0.0
C367 C 0.34899 0.37517 0.74214 0.0
C368 C 0.36967 0.38088 0.73398 0.0
C369 C 0.31055 0.36406 0.75836 0.0
C370 C 0.32811 0.37037 0.76961 0.0
C371 C 0.34692 0.37503 0.76144 0.0
C372 C 0.32786 0.37489 0.78949 0.0
C373 C 0.28976 0.35788 0.76655 0.0
C374 C 0.32487 0.39121 0.79468 0.0
C375 C 0.3256 0.39652 0.81324 0.0
C376 C 0.32929 0.38556 0.82703 0.0
C377 C 0.33217 0.36909 0.82185 0.0
C378 C 0.33164 0.3639 0.80316 0.0
H379 H 0.2771 0.3479 0.75693 0.0
H380 H 0.28747 0.34962 0.77986 0.0
H381 H 0.28874 0.37191 0.76925 0.0
H382 H 0.3223 0.4001 0.78429 0.0
H383 H 0.32334 0.40928 0.81678 0.0
H384 H 0.93832 0.35382 0.18364 0.0
H385 H 0.94658 0.35191 0.21592 0.0
H386 H 0.97143 0.31305 0.20074 0.0
H387 H 0.96324 0.31499 0.16811 0.0
H388 H 0.94132 0.29743 0.22965 0.0
H389 H 0.0021 0.37761 0.24376 0.0
H390 H 0.98056 0.3763 0.2317 0.0
H391 H 0.99587 0.36701 0.22065 0.0
C392 C 0.94579 0.34508 0.1871 0.0
C393 C 0.95013 0.33453 0.17338 0.0
C394 C 0.95066 0.34414 0.20553 0.0
C395 C 0.95991 0.33262 0.21065 0.0
C396 C 0.96451 0.32222 0.19699 0.0
H397 H 0.9757 0.33458 0.33197 0.0
H398 H 0.98447 0.33325 0.29938 0.0
C399 C 0.95982 0.32333 0.17842 0.0
C400 C 0.96275 0.33005 0.23052 0.0
H401 H 0.98151 0.35808 0.27011 0.0
C402 C 0.95056 0.31057 0.23849 0.0
C403 C 0.97502 0.34714 0.242 0.0
C404 C 0.9893 0.36816 0.23407 0.0
C405 C 0.94886 0.30812 0.25776 0.0
C406 C 0.9595 0.32561 0.26922 0.0
C407 C 0.97318 0.34472 0.26127 0.0
C408 C 0.95426 0.32502 0.289 0.0
C409 C 0.93488 0.28702 0.26569 0.0
C410 C 0.9345 0.32104 0.29383 0.0
C411 C 0.92957 0.32203 0.31223 0.0
C412 C 0.9443 0.32697 0.32622 0.0
C413 C 0.96405 0.33068 0.32145 0.0
C414 C 0.96906 0.3299 0.3029 0.0
H415 H 0.93314 0.27473 0.25604 0.0
H416 H 0.9408 0.28499 0.27914 0.0
H417 H 0.91939 0.2851 0.26804 0.0
H418 H 0.92299 0.31765 0.28326 0.0
H419 H 0.91422 0.31908 0.31547 0.0
H420 H 0.57875 0.93713 0.68436 0.0
H421 H 0.58761 0.9448 0.71694 0.0
H422 H 0.65198 0.97094 0.70371 0.0
H423 H 0.64317 0.96329 0.67081 0.0
H424 H 0.63748 0.94064 0.7318 0.0
H425 H 0.61498 0.99911 0.74622 0.0
H426 H 0.59538 0.97744 0.73379 0.0
H427 H 0.62003 0.99356 0.7231 0.0
C428 C 0.59483 0.94478 0.68832 0.0
C429 C 0.61028 0.94959 0.67507 0.0
C430 C 0.59988 0.94931 0.70693 0.0
C431 C 0.62047 0.95874 0.71269 0.0
C432 C 0.63602 0.96387 0.69948 0.0
H433 H 0.6337 0.97401 0.83407 0.0
H434 H 0.64274 0.98285 0.80133 0.0
C435 C 0.63097 0.95949 0.68074 0.0
C436 C 0.62515 0.96113 0.73272 0.0
H437 H 0.61426 0.97847 0.77238 0.0
C438 C 0.63292 0.94934 0.74067 0.0
C439 C 0.61947 0.9727 0.74425 0.0
C440 C 0.6122 0.98659 0.73638 0.0
C441 C 0.63347 0.94743 0.75993 0.0
C442 C 0.6259 0.95742 0.77141 0.0
C443 C 0.61983 0.97063 0.76351 0.0
C444 C 0.62162 0.95222 0.79125 0.0
C445 C 0.64129 0.934 0.76781 0.0
C446 C 0.60663 0.93219 0.79629 0.0
C447 C 0.60133 0.92719 0.8148 0.0
C448 C 0.61094 0.94212 0.82867 0.0
C449 C 0.62611 0.96218 0.82365 0.0
C450 C 0.63129 0.96725 0.80501 0.0
H451 H 0.65215 0.93276 0.75816 0.0
H452 H 0.64915 0.94008 0.78127 0.0
H453 H 0.62809 0.91828 0.77012 0.0
H454 H 0.5987 0.92049 0.78583 0.0
H455 H 0.58958 0.91161 0.81823 0.0
H456 H 0.6872 0.60016 0.31576 0.0
H457 H 0.68681 0.60813 0.28317 0.0
H458 H 0.65621 0.64222 0.29651 0.0
H459 H 0.65649 0.63419 0.32946 0.0
H460 H 0.63702 0.61318 0.26831 0.0
H461 H 0.72016 0.66149 0.25394 0.0
H462 H 0.71458 0.63835 0.26598 0.0
H463 H 0.70974 0.657 0.27711 0.0
C464 C 0.6806 0.60958 0.31184 0.0
C465 C 0.67186 0.61656 0.32516 0.0
C466 C 0.68055 0.61427 0.29319 0.0
C467 C 0.67181 0.62607 0.28745 0.0
C468 C 0.66324 0.63329 0.30071 0.0
H469 H 0.68043 0.64373 0.1665 0.0
H470 H 0.68082 0.65274 0.19924 0.0
C471 C 0.66341 0.6287 0.31948 0.0
C472 C 0.67016 0.62908 0.2674 0.0
H473 H 0.69863 0.6428 0.22775 0.0
C474 C 0.65049 0.62011 0.25944 0.0
C475 C 0.68773 0.63844 0.25586 0.0
C476 C 0.70924 0.64956 0.26369 0.0
C477 C 0.64792 0.61872 0.24017 0.0
C478 C 0.66547 0.62622 0.22864 0.0
C479 C 0.68516 0.63677 0.23659 0.0
C480 C 0.66375 0.62115 0.20867 0.0
C481 C 0.62641 0.60858 0.23235 0.0
C482 C 0.65414 0.60046 0.20317 0.0
C483 C 0.65396 0.59531 0.18461 0.0
C484 C 0.6635 0.61076 0.17115 0.0
C485 C 0.67289 0.63151 0.17659 0.0
C486 C 0.67312 0.63667 0.19525 0.0
H487 H 0.61575 0.61037 0.24184 0.0
H488 H 0.6261 0.61511 0.21865 0.0
H489 H 0.62058 0.59186 0.23066 0.0
H490 H 0.64728 0.58823 0.21333 0.0
H491 H 0.64667 0.57919 0.18088 0.0
H492 H 0.0292 0.67634 0.66615 0.0
H493 H 0.02103 0.67761 0.69892 0.0
H494 H 0.05726 0.64983 0.7142 0.0
H495 H 0.06532 0.6484 0.68178 0.0
H496 H 0.01787 0.63308 0.73255 0.0
H497 H 0.0651 0.71871 0.7361 0.0
H498 H 0.04551 0.70729 0.71856 0.0
H499 H 0.06779 0.70435 0.71733 0.0
C500 C 0.03526 0.67038 0.67653 0.0
C501 C 0.048 0.66239 0.67144 0.0
C502 C 0.03064 0.67116 0.6952 0.0
C503 C 0.03867 0.66394 0.70894 0.0
C504 C 0.05088 0.65545 0.70378 0.0
H505 H 0.08345 0.68198 0.81467 0.0
H506 H 0.07414 0.68134 0.78231 0.0
C507 C 0.05554 0.65472 0.68525 0.0
C508 C 0.03547 0.66591 0.72886 0.0
H509 H 0.05397 0.70082 0.76411 0.0
C510 C 0.02528 0.64789 0.73949 0.0
C511 C 0.04525 0.68528 0.73777 0.0
C512 C 0.05664 0.70508 0.72697 0.0
C513 C 0.02576 0.64865 0.75889 0.0
C514 C 0.03661 0.66798 0.7678 0.0
C515 C 0.04561 0.68606 0.75717 0.0
C516 C 0.04178 0.66957 0.7877 0.0
C517 C 0.01605 0.62878 0.7697 0.0
C518 C 0.02665 0.6634 0.80151 0.0
C519 C 0.03195 0.66373 0.82015 0.0
C520 C 0.05242 0.67019 0.82514 0.0
C521 C 0.06753 0.67682 0.81127 0.0
C522 C 0.06226 0.67655 0.79277 0.0
H523 H 0.00989 0.61505 0.76056 0.0
H524 H 0.02748 0.62851 0.77927 0.0
H525 H 0.00318 0.62766 0.77816 0.0
H526 H 0.01078 0.65812 0.79785 0.0
H527 H 0.02002 0.65861 0.83058 0.0
H528 H 0.98456 0.62528 0.16691 0.0
H529 H 0.99241 0.63126 0.20003 0.0
H530 H 0.93765 0.6354 0.20841 0.0
H531 H 0.93003 0.63 0.17544 0.0
H532 H 0.9699 0.66207 0.23118 0.0
H533 H 0.95743 0.58238 0.23364 0.0
H534 H 0.97793 0.60022 0.21895 0.0
H535 H 0.95172 0.59254 0.21334 0.0
C536 C 0.9745 0.62799 0.17576 0.0
C537 C 0.95651 0.62685 0.16865 0.0
C538 C 0.97894 0.63129 0.19468 0.0
C539 C 0.96534 0.63328 0.20673 0.0
C540 C 0.9483 0.6338 0.19938 0.0
H541 H 0.91801 0.58971 0.31211 0.0
H542 H 0.92761 0.59853 0.27979 0.0
C543 C 0.94393 0.63064 0.18052 0.0
C544 C 0.9672 0.63239 0.22707 0.0
H545 H 0.96106 0.59901 0.26185 0.0
C546 C 0.96834 0.64846 0.23795 0.0
C547 C 0.96494 0.61449 0.23582 0.0
C548 C 0.96277 0.59633 0.22491 0.0
C549 C 0.96638 0.64672 0.25729 0.0
C550 C 0.96346 0.62853 0.26592 0.0
C551 C 0.96335 0.61294 0.25514 0.0
C552 C 0.95795 0.62415 0.28573 0.0
C553 C 0.96623 0.66376 0.26826 0.0
C554 C 0.97183 0.63571 0.29982 0.0
C555 C 0.96632 0.63072 0.31842 0.0
C556 C 0.94692 0.61403 0.32312 0.0
C557 C 0.93308 0.60263 0.30894 0.0
C558 C 0.93855 0.60763 0.29046 0.0
H559 H 0.96568 0.67544 0.2592 0.0
H560 H 0.95281 0.65738 0.27776 0.0
H561 H 0.9804 0.6716 0.2768 0.0
H562 H 0.98699 0.64834 0.29643 0.0
H563 H 0.97732 0.63972 0.32907 0.0
H564 H 0.3522 0.93686 0.81587 0.0
H565 H 0.35133 0.94492 0.78337 0.0
H566 H 0.31714 0.97529 0.79719 0.0
H567 H 0.31787 0.96714 0.83003 0.0
H568 H 0.29941 0.94647 0.7689 0.0
H569 H 0.3819 0.99866 0.75436 0.0
H570 H 0.37778 0.97587 0.76614 0.0
H571 H 0.37157 0.99342 0.77758 0.0
C572 C 0.34471 0.94549 0.81207 0.0
C573 C 0.33509 0.95137 0.82549 0.0
C574 C 0.34439 0.95025 0.79348 0.0
C575 C 0.3345 0.96103 0.7879 0.0
C576 C 0.32506 0.96716 0.80127 0.0
H577 H 0.34068 0.97809 0.66674 0.0
H578 H 0.34095 0.98723 0.69945 0.0
C579 C 0.32548 0.9625 0.81997 0.0
C580 C 0.33255 0.96398 0.7679 0.0
H581 H 0.36084 0.97918 0.72815 0.0
C582 C 0.31282 0.95407 0.76 0.0
C583 C 0.35 0.97422 0.7563 0.0
C584 C 0.37149 0.98634 0.76406 0.0
C585 C 0.31018 0.9526 0.74074 0.0
C586 C 0.32774 0.961 0.72917 0.0
C587 C 0.34738 0.97248 0.73704 0.0
C588 C 0.32619 0.95578 0.70925 0.0
C589 C 0.28864 0.94135 0.73298 0.0
C590 C 0.31798 0.93514 0.704 0.0
C591 C 0.31792 0.92993 0.68549 0.0
C592 C 0.32615 0.94526 0.67181 0.0
C593 C 0.33416 0.96595 0.677 0.0
C594 C 0.33432 0.97119 0.69564 0.0
H595 H 0.27752 0.94223 0.74255 0.0
H596 H 0.28783 0.9477 0.71933 0.0
H597 H 0.28382 0.92485 0.73115 0.0
H598 H 0.31209 0.92304 0.71432 0.0
H599 H 0.31168 0.91386 0.68195 0.0
H600 H 0.36455 0.34136 0.33228 0.0
H601 H 0.35546 0.34069 0.29952 0.0
H602 H 0.39454 0.31583 0.28517 0.0
H603 H 0.4036 0.31642 0.31762 0.0
H604 H 0.38354 0.36187 0.27074 0.0
H605 H 0.34103 0.27813 0.25718 0.0
H606 H 0.34514 0.28875 0.28026 0.0
H607 H 0.36499 0.28607 0.26879 0.0
C608 C 0.37097 0.33552 0.32213 0.0
C609 C 0.38478 0.32894 0.32748 0.0
C610 C 0.36577 0.33514 0.30347 0.0
C611 C 0.37406 0.32788 0.28999 0.0
C612 C 0.3876 0.32105 0.29539 0.0
H613 H 0.4175 0.35379 0.18271 0.0
H614 H 0.40896 0.35304 0.21533 0.0
C615 C 0.3929 0.32156 0.31393 0.0
C616 C 0.37016 0.3289 0.27006 0.0
H617 H 0.35731 0.30011 0.23064 0.0
C618 C 0.37733 0.34832 0.26198 0.0
C619 C 0.36174 0.3112 0.25868 0.0
C620 C 0.35258 0.28984 0.2667 0.0
C621 C 0.37792 0.35065 0.2427 0.0
C622 C 0.37138 0.33315 0.2313 0.0
C623 C 0.36257 0.31356 0.2394 0.0
C624 C 0.37599 0.33504 0.21125 0.0
C625 C 0.38625 0.37193 0.2347 0.0
C626 C 0.36028 0.32496 0.19812 0.0
C627 C 0.36515 0.32534 0.17936 0.0
C628 C 0.38582 0.33554 0.17357 0.0
C629 C 0.40144 0.34583 0.18674 0.0
C630 C 0.39657 0.34556 0.20538 0.0
H631 H 0.38396 0.38212 0.24438 0.0
H632 H 0.40304 0.37886 0.2323 0.0
H633 H 0.37877 0.37142 0.2213 0.0
H634 H 0.34431 0.31656 0.20242 0.0
H635 H 0.35281 0.31722 0.16949 0.0
H636 H 0.03297 0.35054 0.66839 0.0
H637 H 0.02429 0.3414 0.70111 0.0
H638 H 0.0515 0.40575 0.71488 0.0
H639 H 0.0601 0.41493 0.68247 0.0
H640 H 0.05295 0.354 0.72976 0.0
H641 H 0.99701 0.37994 0.74316 0.0
H642 H 0.003 0.37522 0.72009 0.0
H643 H 0.01942 0.39938 0.73145 0.0
C644 C 0.03679 0.36267 0.6784 0.0
C645 C 0.04723 0.38344 0.67292 0.0
C646 C 0.03182 0.35744 0.69704 0.0
C647 C 0.03693 0.37288 0.71035 0.0
C648 C 0.04696 0.39356 0.70478 0.0
H649 H 0.08355 0.40195 0.81559 0.0
H650 H 0.07443 0.39192 0.78341 0.0
C651 C 0.05204 0.39879 0.68627 0.0
C652 C 0.03386 0.36794 0.73033 0.0
H653 H 0.01704 0.37998 0.76967 0.0
C654 C 0.04464 0.35916 0.73848 0.0
C655 C 0.02271 0.37432 0.74167 0.0
C656 C 0.0097 0.38254 0.73361 0.0
C657 C 0.04613 0.35837 0.75777 0.0
C658 C 0.03681 0.3668 0.76908 0.0
C659 C 0.02443 0.37379 0.76096 0.0
C660 C 0.0421 0.37122 0.7889 0.0
C661 C 0.05845 0.34938 0.76585 0.0
C662 C 0.02685 0.36311 0.80266 0.0
C663 C 0.03205 0.36886 0.82119 0.0
C664 C 0.0525 0.38305 0.82609 0.0
C665 C 0.06767 0.39098 0.81226 0.0
C666 C 0.06252 0.38513 0.79387 0.0
H667 H 0.05856 0.33772 0.75644 0.0
H668 H 0.07463 0.36185 0.76779 0.0
H669 H 0.05224 0.34212 0.7795 0.0
H670 H 0.01096 0.35253 0.79904 0.0
H671 H 0.02004 0.36257 0.83158 0.0
H672 H 0.64232 0.05448 0.31799 0.0
H673 H 0.64423 0.04706 0.28546 0.0
H674 H 0.68922 0.02917 0.29849 0.0
H675 H 0.6873 0.03652 0.33135 0.0
H676 H 0.7011 0.05957 0.27032 0.0
H677 H 0.62389 0.99299 0.25629 0.0
H678 H 0.62271 0.01298 0.26893 0.0
H679 H 0.63461 -0.00029 0.27932 0.0
C680 C 0.65238 0.04865 0.31401 0.0
C681 C 0.6647 0.04611 0.32718 0.0
C682 C 0.65333 0.04425 0.29543 0.0
C683 C 0.66663 0.03728 0.28962 0.0
C684 C 0.67868 0.03431 0.30276 0.0
H685 H 0.66886 0.02438 0.16798 0.0
H686 H 0.67019 0.01603 0.2007 0.0
C687 C 0.67757 0.03851 0.32148 0.0
C688 C 0.66935 0.03541 0.26958 0.0
H689 H 0.6417 0.01491 0.23005 0.0
C690 C 0.68829 0.04941 0.26152 0.0
C691 C 0.6527 0.02201 0.25813 0.0
C692 C 0.63238 0.00592 0.26612 0.0
C693 C 0.69045 0.05158 0.24225 0.0
C694 C 0.67323 0.03951 0.23087 0.0
C695 C 0.65483 0.02428 0.23885 0.0
C696 C 0.67319 0.04445 0.21109 0.0
C697 C 0.71085 0.06747 0.23422 0.0
C698 C 0.67417 0.06302 0.20625 0.0
C699 C 0.67319 0.06768 0.18777 0.0
C700 C 0.67127 0.05389 0.17372 0.0
C701 C 0.67039 0.0353 0.17855 0.0
C702 C 0.67116 0.03053 0.19716 0.0
H703 H 0.72373 0.07119 0.24393 0.0
H704 H 0.71392 0.06207 0.22093 0.0
H705 H 0.71047 0.08184 0.2315 0.0
H706 H 0.67541 0.0738 0.21685 0.0
H707 H 0.67391 0.08212 0.18449 0.0
H708 H 0.5777 0.65024 0.68095 0.0
H709 H 0.58599 0.6495 0.71343 0.0
H710 H 0.65032 0.67657 0.69965 0.0
H711 H 0.6421 0.67742 0.66682 0.0
H712 H 0.6079 0.62999 0.72986 0.0
H713 H 0.6468 0.71499 0.74034 0.0
H714 H 0.62978 0.70262 0.721 0.0
H715 H 0.65479 0.70505 0.72136 0.0
C716 C 0.59363 0.656 0.68476 0.0
C717 C 0.60927 0.66398 0.67135 0.0
C718 C 0.59832 0.65551 0.70333 0.0
C719 C 0.61875 0.66309 0.70892 0.0
C720 C 0.63446 0.67081 0.69559 0.0
H721 H 0.64438 0.67776 0.8291 0.0
H722 H 0.65153 0.67714 0.79595 0.0
C723 C 0.62975 0.67123 0.67688 0.0
C724 C 0.62317 0.66308 0.72886 0.0
H725 H 0.63898 0.69434 0.76682 0.0
C726 C 0.6151 0.64407 0.73793 0.0
C727 C 0.63271 0.68149 0.73929 0.0
C728 C 0.6415 0.70226 0.73013 0.0
C729 C 0.61523 0.64292 0.75728 0.0
C730 C 0.6233 0.66124 0.76778 0.0
C731 C 0.63274 0.68032 0.75869 0.0
C732 C 0.61945 0.66075 0.78791 0.0
C733 C 0.606 0.62205 0.76634 0.0
C734 C 0.59911 0.65195 0.79426 0.0
C735 C 0.59502 0.6524 0.813 0.0
C736 C 0.6112 0.66171 0.82582 0.0
C737 C 0.63162 0.6704 0.81952 0.0
C738 C 0.63572 0.67007 0.80063 0.0
H739 H 0.60684 0.61067 0.75708 0.0
H740 H 0.61394 0.62284 0.77954 0.0
H741 H 0.58953 0.6164 0.76939 0.0
H742 H 0.58635 0.64508 0.78462 0.0
H743 H 0.57914 0.64562 0.8174 0.0
H744 H 0.36897 0.10926 0.12123 0.0
H745 H 0.36704 0.14092 0.12199 0.0
H746 H 0.43249 0.17681 0.11244 0.0
H747 H 0.43458 0.14531 0.11187 0.0
H748 H 0.41832 0.19119 0.14178 0.0
H749 H 0.37186 0.17794 0.07803 0.0
H750 H 0.36111 0.15734 0.09461 0.0
H751 H 0.38479 0.16367 0.08312 0.0
C752 C 0.38292 0.1239 0.11919 0.0
C753 C 0.40192 0.12483 0.11644 0.0
C754 C 0.38177 0.14194 0.11954 0.0
C755 C 0.39959 0.16115 0.11704 0.0
C756 C 0.41856 0.16211 0.11432 0.0
H757 H 0.43311 0.28912 0.1146 0.0
H758 H 0.43209 0.25602 0.11469 0.0
C759 C 0.41972 0.14411 0.11398 0.0
C760 C 0.39866 0.18038 0.11782 0.0
H761 H 0.37902 0.20715 0.09599 0.0
C762 C 0.40974 0.19471 0.13177 0.0
C763 C 0.38736 0.18483 0.10479 0.0
C764 C 0.37572 0.17025 0.08918 0.0
C765 C 0.40981 0.2134 0.13306 0.0
C766 C 0.39879 0.21799 0.11985 0.0
C767 C 0.38745 0.20355 0.10607 0.0
C768 C 0.39932 0.23797 0.11982 0.0
C769 C 0.42151 0.22797 0.14866 0.0
C770 C 0.38114 0.23871 0.12225 0.0
C771 C 0.38166 0.2576 0.12212 0.0
C772 C 0.40036 0.27602 0.11943 0.0
C773 C 0.4185 0.27519 0.11681 0.0
C774 C 0.41796 0.25632 0.11695 0.0
H775 H 0.42439 0.21997 0.1602 0.0
H776 H 0.43664 0.24021 0.14343 0.0
H777 H 0.413 0.23544 0.15412 0.0
H778 H 0.36659 0.22468 0.12436 0.0
H779 H 0.36744 0.25778 0.12412 0.0
H780 H 0.14224 0.43251 0.61488 0.0
H781 H 0.17453 0.43183 0.61551 0.0
H782 H 0.14082 0.36662 0.62663 0.0
H783 H 0.10842 0.36711 0.62582 0.0
H784 H 0.19085 0.41939 0.64463 0.0
H785 H 0.17671 0.37139 0.58182 0.0
H786 H 0.16189 0.38369 0.58714 0.0
H787 H 0.15668 0.36048 0.59893 0.0
C788 C 0.1417 0.41801 0.6174 0.0
C789 C 0.12281 0.39983 0.62021 0.0
C790 C 0.16014 0.41766 0.61777 0.0
C791 C 0.16001 0.39913 0.62086 0.0
C792 C 0.1412 0.381 0.62388 0.0
H793 H 0.25748 0.36847 0.62634 0.0
H794 H 0.22446 0.36773 0.62728 0.0
C795 C 0.12274 0.38133 0.6235 0.0
C796 C 0.17963 0.39891 0.62124 0.0
H797 H 0.20643 0.37932 0.59935 0.0
C798 C 0.1943 0.41067 0.63472 0.0
C799 C 0.18401 0.38746 0.60831 0.0
C800 C 0.1691 0.37516 0.59312 0.0
C801 C 0.21322 0.41114 0.63574 0.0
C802 C 0.21767 0.39983 0.62271 0.0
C803 C 0.20293 0.38795 0.60932 0.0
C804 C 0.23769 0.40042 0.62252 0.0
C805 C 0.22812 0.42346 0.65093 0.0
C806 C 0.25601 0.419 0.61935 0.0
C807 C 0.27486 0.41948 0.61883 0.0
C808 C 0.27569 0.40133 0.62135 0.0
C809 C 0.25731 0.3827 0.62441 0.0
C810 C 0.23846 0.38225 0.62493 0.0
H811 H 0.22031 0.42655 0.66252 0.0
H812 H 0.23595 0.41535 0.65646 0.0
H813 H 0.24005 0.4385 0.64527 0.0
H814 H 0.2557 0.43312 0.61707 0.0
H815 H 0.28876 0.43404 0.61634 0.0
H816 H 0.89137 0.25949 0.12145 0.0
H817 H 0.85948 0.22613 0.12049 0.0
H818 H 0.82412 0.25703 0.11742 0.0
H819 H 0.8559 0.29041 0.11817 0.0
H820 H 0.82566 0.21051 0.14497 0.0
H821 H 0.80288 0.21706 0.07336 0.0
H822 H 0.82855 0.23354 0.08217 0.0
H823 H 0.80812 0.23847 0.08802 0.0
C824 C 0.8768 0.25916 0.12053 0.0
C825 C 0.87611 0.27753 0.11979 0.0
C826 C 0.85863 0.24012 0.12 0.0
C827 C 0.83951 0.23916 0.11859 0.0
C828 C 0.83876 0.25747 0.11813 0.0
H829 H 0.71198 0.14413 0.11631 0.0
H830 H 0.74505 0.17625 0.11655 0.0
C831 C 0.85691 0.27651 0.11867 0.0
C832 C 0.82029 0.21899 0.11798 0.0
H833 H 0.77792 0.18937 0.09148 0.0
C834 C 0.81527 0.20578 0.13324 0.0
C835 C 0.80683 0.21293 0.10262 0.0
C836 C 0.8119 0.22614 0.08553 0.0
C837 C 0.7968 0.18685 0.13378 0.0
C838 C 0.78322 0.18091 0.11852 0.0
C839 C 0.78837 0.19402 0.10317 0.0
C840 C 0.76334 0.16135 0.11836 0.0
C841 C 0.79167 0.17367 0.1509 0.0
C842 C 0.76273 0.14235 0.11907 0.0
C843 C 0.74385 0.12397 0.11896 0.0
C844 C 0.72531 0.12433 0.11803 0.0
C845 C 0.72601 0.14338 0.11708 0.0
C846 C 0.74487 0.16172 0.1172 0.0
H847 H 0.80126 0.18252 0.16291 0.0
H848 H 0.77519 0.167 0.15464 0.0
H849 H 0.79457 0.16078 0.14817 0.0
H850 H 0.77685 0.14175 0.11961 0.0
H851 H 0.74378 0.1095 0.11961 0.0
H852 H 0.56303 0.71108 0.61401 0.0
H853 H 0.56429 0.7443 0.61493 0.0
H854 H 0.63006 0.77517 0.62287 0.0
H855 H 0.62897 0.74199 0.62175 0.0
H856 H 0.57876 0.77332 0.64386 0.0
H857 H 0.62314 0.80615 0.57904 0.0
H858 H 0.61088 0.77906 0.58449 0.0
H859 H 0.63477 0.79698 0.59536 0.0
C860 C 0.57778 0.72495 0.61587 0.0
C861 C 0.59592 0.72397 0.61773 0.0
C862 C 0.57846 0.74389 0.61642 0.0
C863 C 0.59729 0.76218 0.61873 0.0
C864 C 0.61543 0.76125 0.62073 0.0
H865 H 0.62811 0.89045 0.62501 0.0
H866 H 0.62917 0.85832 0.62524 0.0
C867 C 0.61476 0.7423 0.62018 0.0
C868 C 0.59779 0.78214 0.61948 0.0
H869 H 0.61615 0.82817 0.59723 0.0
C870 C 0.5869 0.78532 0.63366 0.0
C871 C 0.60851 0.79775 0.60619 0.0
C872 C 0.61986 0.79484 0.5903 0.0
C873 C 0.58653 0.80379 0.63497 0.0
C874 C 0.59703 0.8193 0.62155 0.0
C875 C 0.60812 0.81622 0.60749 0.0
C876 C 0.59632 0.83866 0.62162 0.0
C877 C 0.57512 0.80665 0.65084 0.0
C878 C 0.57752 0.83821 0.61928 0.0
C879 C 0.57687 0.8565 0.61915 0.0
C880 C 0.59503 0.87555 0.62124 0.0
C881 C 0.61386 0.87598 0.62342 0.0
C882 C 0.6145 0.85767 0.62354 0.0
H883 H 0.57267 0.79592 0.66242 0.0
H884 H 0.5836 0.82268 0.65616 0.0
H885 H 0.55979 0.80352 0.64595 0.0
H886 H 0.56338 0.82371 0.61741 0.0
H887 H 0.56215 0.8557 0.61734 0.0
H888 H 0.71183 0.5683 0.09707 0.0
H889 H 0.74436 0.56817 0.09683 0.0
H890 H 0.76891 0.61629 0.13798 0.0
H891 H 0.73665 0.61702 0.13774 0.0
H892 H 0.79619 0.62424 0.11151 0.0
H893 H 0.76507 0.54357 0.13428 0.0
H894 H 0.75273 0.54539 0.11372 0.0
H895 H 0.75006 0.55628 0.13502 0.0
C896 C 0.72415 0.57879 0.10612 0.0
C897 C 0.72171 0.59261 0.11749 0.0
C898 C 0.74268 0.57859 0.10607 0.0
C899 C 0.75893 0.59191 0.11768 0.0
C900 C 0.75653 0.6058 0.12898 0.0
H901 H 0.86555 0.57994 0.1431 0.0
H902 H 0.83284 0.57972 0.14341 0.0
C903 C 0.73811 0.60619 0.12885 0.0
C904 C 0.77868 0.59183 0.11763 0.0
H905 H 0.79946 0.5607 0.12272 0.0
C906 C 0.79692 0.61037 0.11407 0.0
C907 C 0.77966 0.57379 0.12124 0.0
C908 C 0.76086 0.55369 0.12647 0.0
C909 C 0.8161 0.61135 0.11379 0.0
C910 C 0.81697 0.59311 0.11656 0.0
C911 C 0.79875 0.57462 0.12035 0.0
C912 C 0.83667 0.59296 0.11608 0.0
C913 C 0.83523 0.63202 0.11101 0.0
C914 C 0.84954 0.60011 0.10048 0.0
C915 C 0.86838 0.60053 0.10039 0.0
C916 C 0.87445 0.59336 0.11574 0.0
C917 C 0.86125 0.58555 0.13108 0.0
C918 C 0.84257 0.58543 0.13127 0.0
H919 H 0.83255 0.64487 0.11473 0.0
H920 H 0.84825 0.63342 0.11942 0.0
H921 H 0.83974 0.63382 0.09621 0.0
H922 H 0.84504 0.60542 0.08838 0.0
H923 H 0.87818 0.60644 0.08831 0.0
H924 H 0.2861 0.85386 0.60923 0.0
H925 H 0.25322 0.82153 0.60871 0.0
H926 H 0.22085 0.85518 0.61518 0.0
H927 H 0.25368 0.88762 0.61543 0.0
H928 H 0.22408 0.80651 0.63684 0.0
H929 H 0.19062 0.81669 0.5719 0.0
H930 H 0.21759 0.83232 0.57752 0.0
H931 H 0.19897 0.83755 0.58806 0.0
C932 C 0.27197 0.85439 0.61035 0.0
C933 C 0.27243 0.87325 0.61233 0.0
C934 C 0.25322 0.83592 0.61007 0.0
C935 C 0.23462 0.83599 0.61169 0.0
C936 C 0.23502 0.85482 0.61354 0.0
H937 H 0.1069 0.73847 0.62083 0.0
H938 H 0.13905 0.77163 0.61995 0.0
C939 C 0.25378 0.87331 0.61378 0.0
C940 C 0.21489 0.81629 0.61242 0.0
H941 H 0.16858 0.78811 0.59071 0.0
C942 C 0.21197 0.80244 0.62671 0.0
C943 C 0.19911 0.81111 0.59923 0.0
C944 C 0.20173 0.82509 0.5832 0.0
C945 C 0.19359 0.78357 0.62829 0.0
C946 C 0.17787 0.77833 0.61506 0.0
C947 C 0.1807 0.79223 0.60083 0.0
C948 C 0.15849 0.75831 0.61559 0.0
C949 C 0.19101 0.76954 0.64428 0.0
C950 C 0.15883 0.73992 0.61323 0.0
C951 C 0.14055 0.72101 0.61373 0.0
C952 C 0.12161 0.72018 0.61653 0.0
C953 C 0.12129 0.73864 0.61873 0.0
C954 C 0.1396 0.75757 0.61819 0.0
H955 H 0.20211 0.77792 0.6556 0.0
H956 H 0.17514 0.76227 0.64996 0.0
H957 H 0.19379 0.75711 0.63938 0.0
H958 H 0.17325 0.74022 0.61087 0.0
H959 H 0.14126 0.70704 0.61188 0.0
H960 H 0.8934 0.63459 0.38049 0.0
H961 H 0.86228 0.63734 0.38336 0.0
H962 H 0.82537 0.57127 0.3877 0.0
H963 H 0.85633 0.56841 0.38507 0.0
H964 H 0.82773 0.61996 0.36029 0.0
H965 H 0.80634 0.59128 0.43212 0.0
H966 H 0.83157 0.59953 0.42265 0.0
H967 H 0.8104 0.57432 0.41746 0.0
C968 C 0.87866 0.62067 0.38216 0.0
C969 C 0.87728 0.60129 0.38263 0.0
C970 C 0.86093 0.62227 0.3838 0.0
C971 C 0.8416 0.60454 0.38605 0.0
C972 C 0.8402 0.58518 0.38639 0.0
H973 H 0.71414 0.56926 0.38703 0.0
H974 H 0.748 0.572 0.38817 0.0
C975 C 0.85788 0.58356 0.38476 0.0
C976 C 0.82272 0.60609 0.38725 0.0
H977 H 0.78046 0.59287 0.41409 0.0
C978 C 0.8175 0.6143 0.37214 0.0
C979 C 0.80946 0.59869 0.40275 0.0
C980 C 0.81479 0.59064 0.41975 0.0
C981 C 0.7989 0.61451 0.37177 0.0
C982 C 0.78538 0.6066 0.38707 0.0
C983 C 0.79085 0.59887 0.40237 0.0
C984 C 0.76503 0.60528 0.38706 0.0
C985 C 0.79348 0.62244 0.35474 0.0
C986 C 0.76343 0.62312 0.38638 0.0
C987 C 0.74409 0.62161 0.3857 0.0
C988 C 0.72607 0.60222 0.38577 0.0
C989 C 0.72775 0.58441 0.3869 0.0
C990 C 0.74706 0.58594 0.38758 0.0
H991 H 0.80345 0.62396 0.34279 0.0
H992 H 0.77716 0.61207 0.35077 0.0
H993 H 0.79549 0.63786 0.35772 0.0
H994 H 0.77714 0.6382 0.38629 0.0
H995 H 0.74326 0.6356 0.38493 0.0
H996 H 0.10931 0.74311 0.88018 0.0
H997 H 0.14149 0.77623 0.87936 0.0
H998 H 0.17617 0.74476 0.88439 0.0
H999 H 0.14412 0.71163 0.885 0.0
H1000 H 0.17365 0.79392 0.90543 0.0
H1001 H 0.20069 0.78055 0.83814 0.0
H1002 H 0.17447 0.765 0.84603 0.0
H1003 H 0.19432 0.76057 0.85487 0.0
C1004 C 0.1238 0.74327 0.88114 0.0
C1005 C 0.12423 0.7248 0.88254 0.0
C1006 C 0.14214 0.76217 0.88067 0.0
C1007 C 0.16117 0.76288 0.88149 0.0
C1008 C 0.16163 0.7445 0.88334 0.0
H1009 H 0.28911 0.85728 0.88204 0.0
H1010 H 0.25593 0.82528 0.88272 0.0
C1011 C 0.14332 0.7256 0.8838 0.0
C1012 C 0.18058 0.78286 0.88052 0.0
H1013 H 0.22471 0.80974 0.85537 0.0
C1014 C 0.18477 0.79748 0.89443 0.0
C1015 C 0.195 0.7874 0.86611 0.0
C1016 C 0.19087 0.77265 0.85033 0.0
C1017 C 0.20331 0.81635 0.89461 0.0
C1018 C 0.21783 0.82077 0.88033 0.0
C1019 C 0.21354 0.80624 0.86631 0.0
C1020 C 0.23778 0.84024 0.87986 0.0
C1021 C 0.20747 0.83117 0.91033 0.0
C1022 C 0.23853 0.8592 0.87777 0.0
C1023 C 0.25746 0.87751 0.87737 0.0
C1024 C 0.27594 0.87711 0.87897 0.0
C1025 C 0.27513 0.85807 0.88082 0.0
C1026 C 0.25621 0.83979 0.8812 0.0
H1027 H 0.197 0.82358 0.92223 0.0
H1028 H 0.22363 0.83805 0.91517 0.0
H1029 H 0.20507 0.84384 0.90545 0.0
H1030 H 0.22447 0.85981 0.87637 0.0
H1031 H 0.25763 0.89196 0.87585 0.0
H1032 H 0.36906 0.11009 0.38391 0.0
H1033 H 0.36778 0.1421 0.38485 0.0
H1034 H 0.43335 0.17663 0.39401 0.0
H1035 H 0.43481 0.14479 0.39292 0.0
H1036 H 0.38067 0.17266 0.41325 0.0
H1037 H 0.42446 0.20376 0.34798 0.0
H1038 H 0.41318 0.17704 0.35449 0.0
H1039 H 0.43701 0.19609 0.36473 0.0
C1040 C 0.38319 0.12451 0.38616 0.0
C1041 C 0.40206 0.12499 0.3882 0.0
C1042 C 0.38242 0.14274 0.38672 0.0
C1043 C 0.40051 0.1617 0.38921 0.0
C1044 C 0.41928 0.16216 0.39173 0.0
H1045 H 0.434 0.28948 0.39237 0.0
H1046 H 0.43256 0.25623 0.39394 0.0
C1047 C 0.42007 0.14396 0.39118 0.0
C1048 C 0.39986 0.18108 0.38901 0.0
H1049 H 0.41814 0.22654 0.36585 0.0
C1050 C 0.38874 0.18442 0.40285 0.0
C1051 C 0.41038 0.1963 0.37536 0.0
C1052 C 0.42179 0.19312 0.35968 0.0
C1053 C 0.38835 0.20293 0.40372 0.0
C1054 C 0.3991 0.21826 0.39021 0.0
C1055 C 0.41 0.21478 0.37624 0.0
C1056 C 0.39954 0.23819 0.39034 0.0
C1057 C 0.37692 0.20616 0.41934 0.0
C1058 C 0.38142 0.23903 0.3878 0.0
C1059 C 0.38219 0.25803 0.38692 0.0
C1060 C 0.40111 0.27645 0.38845 0.0
C1061 C 0.41919 0.27554 0.39116 0.0
C1062 C 0.4184 0.25657 0.39205 0.0
H1063 H 0.37365 0.19513 0.43085 0.0
H1064 H 0.38584 0.22208 0.42485 0.0
H1065 H 0.362 0.20385 0.4141 0.0
H1066 H 0.36676 0.22502 0.38611 0.0
H1067 H 0.36803 0.25828 0.38474 0.0
H1068 H 0.28691 0.43272 0.88622 0.0
H1069 H 0.2534 0.4308 0.8868 0.0
H1070 H 0.22301 0.36461 0.88312 0.0
H1071 H 0.25654 0.36637 0.88269 0.0
H1072 H 0.22252 0.41315 0.85917 0.0
H1073 H 0.19458 0.37506 0.92745 0.0
H1074 H 0.22134 0.38737 0.92076 0.0
H1075 H 0.20327 0.36247 0.91168 0.0
C1076 C 0.2731 0.41774 0.88565 0.0
C1077 C 0.27432 0.39968 0.88445 0.0
C1078 C 0.25399 0.41668 0.88597 0.0
C1079 C 0.23578 0.39757 0.88522 0.0
C1080 C 0.23691 0.37949 0.88404 0.0
H1081 H 0.1072 0.36709 0.88308 0.0
H1082 H 0.13897 0.36532 0.88325 0.0
C1083 C 0.25605 0.38053 0.88369 0.0
C1084 C 0.21566 0.39674 0.885 0.0
H1085 H 0.17141 0.38073 0.90968 0.0
C1086 C 0.21133 0.40607 0.8702 0.0
C1087 C 0.2011 0.38736 0.89937 0.0
C1088 C 0.20527 0.37761 0.91581 0.0
C1089 C 0.19278 0.40631 0.86939 0.0
C1090 C 0.17839 0.39732 0.88395 0.0
C1091 C 0.18254 0.38765 0.89858 0.0
C1092 C 0.1592 0.39832 0.88442 0.0
C1093 C 0.18867 0.41602 0.85287 0.0
C1094 C 0.16011 0.41743 0.8854 0.0
C1095 C 0.14206 0.41849 0.88529 0.0
C1096 C 0.12276 0.40043 0.88431 0.0
C1097 C 0.12186 0.38126 0.88379 0.0
C1098 C 0.13996 0.38022 0.8839 0.0
H1099 H 0.19841 0.41714 0.84085 0.0
H1100 H 0.17224 0.4071 0.84867 0.0
H1101 H 0.19223 0.43184 0.85654 0.0
H1102 H 0.17482 0.43155 0.88618 0.0
H1103 H 0.14323 0.43348 0.88582 0.0
H1104 H 0.74112 0.10692 0.37836 0.0
H1105 H 0.77414 0.13919 0.37934 0.0
H1106 H 0.74211 0.17345 0.38266 0.0
H1107 H 0.70907 0.14129 0.38191 0.0
H1108 H 0.78939 0.17313 0.35516 0.0
H1109 H 0.78176 0.19503 0.42683 0.0
H1110 H 0.76567 0.16937 0.41785 0.0
H1111 H 0.76036 0.18957 0.41209 0.0
C1112 C 0.74113 0.12133 0.37932 0.0
C1113 C 0.72254 0.1216 0.38017 0.0
C1114 C 0.75998 0.13972 0.37987 0.0
C1115 C 0.76053 0.15864 0.38138 0.0
C1116 C 0.74199 0.15897 0.38189 0.0
H1117 H 0.85382 0.28683 0.3841 0.0
H1118 H 0.82207 0.25343 0.38383 0.0
C1119 C 0.72315 0.1406 0.38135 0.0
C1120 C 0.78049 0.17809 0.38213 0.0
H1121 H 0.80931 0.22047 0.40889 0.0
C1122 C 0.79385 0.18344 0.36695 0.0
C1123 C 0.78621 0.19143 0.39756 0.0
C1124 C 0.77286 0.18603 0.41459 0.0
C1125 C 0.81259 0.20211 0.36655 0.0
C1126 C 0.81818 0.21557 0.38188 0.0
C1127 C 0.80492 0.21011 0.39715 0.0
C1128 C 0.83752 0.23565 0.38219 0.0
C1129 C 0.82595 0.20757 0.34951 0.0
C1130 C 0.85671 0.23666 0.38162 0.0
C1131 C 0.87488 0.25572 0.38175 0.0
C1132 C 0.87412 0.27405 0.38257 0.0
C1133 C 0.85488 0.27296 0.38343 0.0
C1134 C 0.83674 0.25392 0.38329 0.0
H1135 H 0.81732 0.19795 0.33744 0.0
H1136 H 0.83232 0.22403 0.34583 0.0
H1137 H 0.83904 0.20501 0.35231 0.0
H1138 H 0.85762 0.2227 0.38111 0.0
H1139 H 0.8895 0.2561 0.38116 0.0
H1140 H 0.56598 0.70817 0.88439 0.0
H1141 H 0.56706 0.74129 0.88479 0.0
H1142 H 0.63307 0.7729 0.87853 0.0
H1143 H 0.63216 0.73976 0.87828 0.0
H1144 H 0.6187 0.78913 0.90663 0.0
H1145 H 0.57785 0.77942 0.84014 0.0
H1146 H 0.56451 0.75838 0.85598 0.0
H1147 H 0.58886 0.76369 0.84653 0.0
C1148 C 0.58073 0.72217 0.88303 0.0
C1149 C 0.59899 0.7214 0.88122 0.0
C1150 C 0.5813 0.74105 0.88317 0.0
C1151 C 0.6001 0.75948 0.88141 0.0
C1152 C 0.6184 0.7588 0.87979 0.0
H1153 H 0.63037 0.8881 0.8829 0.0
H1154 H 0.63236 0.85649 0.8822 0.0
C1155 C 0.61784 0.73989 0.87963 0.0
C1156 C 0.60064 0.77946 0.88168 0.0
H1157 H 0.58259 0.80727 0.85924 0.0
C1158 C 0.61097 0.79322 0.8962 0.0
C1159 C 0.59053 0.78468 0.86803 0.0
C1160 C 0.57996 0.77087 0.85168 0.0
C1161 C 0.61092 0.81185 0.89777 0.0
C1162 C 0.60052 0.8169 0.88428 0.0
C1163 C 0.59046 0.80328 0.8696 0.0
C1164 C 0.59954 0.83609 0.88526 0.0
C1165 C 0.62143 0.82566 0.91413 0.0
C1166 C 0.58041 0.83505 0.88694 0.0
C1167 C 0.57921 0.85303 0.88725 0.0
C1168 C 0.59714 0.87238 0.88578 0.0
C1169 C 0.61631 0.87341 0.88416 0.0
C1170 C 0.61749 0.85539 0.88384 0.0
H1171 H 0.6245 0.81743 0.92534 0.0
H1172 H 0.63639 0.8388 0.90962 0.0
H1173 H 0.61194 0.83195 0.91981 0.0
H1174 H 0.56638 0.82028 0.88798 0.0
H1175 H 0.56422 0.85175 0.88848 0.0
H1176 H 0.31503 0.93171 0.94441 0.0
H1177 H 0.31879 0.94803 0.97451 0.0
H1178 H 0.35491 0.00784 0.94939 0.0
H1179 H 0.35081 0.9916 0.91912 0.0
H1180 H 0.35507 0.97115 0.99194 0.0
H1181 H 0.31651 0.01708 0.9823 0.0
H1182 H 0.31297 0.99692 0.9665 0.0
H1183 H 0.33551 0.02204 0.96491 0.0
C1184 C 0.32349 0.94836 0.94524 0.0
C1185 C 0.33267 0.9604 0.92943 0.0
C1186 C 0.32561 0.95765 0.96245 0.0
C1187 C 0.33693 0.97915 0.96418 0.0
C1188 C 0.3457 0.99125 0.94832 0.0
H1189 H 0.39472 0.06682 0.05099 0.0
H1190 H 0.38034 0.04817 0.02212 0.0
C1191 C 0.34348 0.98195 0.93105 0.0
C1192 C 0.34119 0.98874 0.98278 0.0
H1193 H 0.33863 0.02546 0.0087 0.0
C1194 C 0.35121 0.98282 0.9957 0.0
C1195 C 0.33617 0.00398 0.98763 0.0
C1196 C 0.32451 0.01025 0.97467 0.0
C1197 C 0.35704 0.99224 0.01311 0.0
C1198 C 0.35245 0.00781 0.0178 0.0
C1199 C 0.34207 0.01348 0.00504 0.0
C1200 C 0.35957 0.01926 0.03542 0.0
C1201 C 0.36877 0.98602 0.02606 0.0
C1202 C 0.35228 0.00925 0.05247 0.0
C1203 C 0.36051 0.01987 0.06903 0.0
C1204 C 0.37611 0.04065 0.06875 0.0
C1205 C 0.38279 0.05079 0.05165 0.0
C1206 C 0.37455 0.04019 0.03514 0.0
H1207 H 0.3745 0.97671 0.01897 0.0
H1208 H 0.38209 -0.00019 0.03222 0.0
H1209 H 0.35848 0.97665 0.0375 0.0
H1210 H 0.3405 0.99315 0.05294 0.0
H1211 H 0.35499 0.0117 0.08201 0.0
H1212 H 0.35248 0.33943 0.41788 0.0
H1213 H 0.33818 0.3438 0.44696 0.0
H1214 H 0.3853 0.33965 0.47757 0.0
H1215 H 0.39969 0.33532 0.44868 0.0
H1216 H 0.34207 0.31536 0.49178 0.0
H1217 H 0.36986 0.39838 0.47854 0.0
H1218 H 0.35549 0.3804 0.46044 0.0
H1219 H 0.38044 0.38457 0.46666 0.0
C1220 C 0.3597 0.33934 0.43082 0.0
C1221 C 0.37727 0.33718 0.43103 0.0
C1222 C 0.35155 0.34185 0.44738 0.0
C1223 C 0.36081 0.34217 0.46432 0.0
C1224 C 0.37797 0.33944 0.46459 0.0
H1225 H 0.35202 0.36247 0.58005 0.0
H1226 H 0.35658 0.35042 0.54993 0.0
C1227 C 0.3862 0.33705 0.44808 0.0
C1228 C 0.35324 0.34619 0.48181 0.0
H1229 H 0.35258 0.38457 0.50652 0.0
C1230 C 0.34419 0.33043 0.49501 0.0
C1231 C 0.35603 0.36585 0.48587 0.0
C1232 C 0.36609 0.38338 0.47224 0.0
C1233 C 0.33794 0.33386 0.51232 0.0
C1234 C 0.34133 0.35373 0.51662 0.0
C1235 C 0.34998 0.36934 0.50321 0.0
C1236 C 0.33693 0.35908 0.53516 0.0
C1237 C 0.32764 0.31615 0.52573 0.0
C1238 C 0.32456 0.36815 0.53686 0.0
C1239 C 0.3222 0.37533 0.554 0.0
C1240 C 0.33216 0.37354 0.56975 0.0
C1241 C 0.34404 0.3639 0.56816 0.0
C1242 C 0.34654 0.35688 0.55098 0.0
H1243 H 0.32023 0.30111 0.51842 0.0
H1244 H 0.3394 0.31646 0.53523 0.0
H1245 H 0.3158 0.31721 0.53412 0.0
H1246 H 0.31708 0.37009 0.52483 0.0
H1247 H 0.31293 0.38267 0.55481 0.0
H1248 H 0.01248 0.35361 0.91805 0.0
H1249 H 0.99475 0.34063 0.94772 0.0
H1250 H 0.04742 0.38836 0.97643 0.0
H1251 H 0.06522 0.40141 0.94694 0.0
H1252 H 0.02863 0.34635 0.9923 0.0
H1253 H 0.97329 0.3738 0.97836 0.0
H1254 H 0.97584 0.35822 0.9608 0.0
H1255 H 0.99713 0.38334 0.96574 0.0
C1256 C 0.02031 0.36124 0.9307 0.0
C1257 C 0.04016 0.37861 0.93019 0.0
C1258 C 0.01017 0.35384 0.94759 0.0
C1259 C 0.01976 0.36368 0.96418 0.0
C1260 C 0.0398 0.3806 0.96374 0.0
H1261 H 0.99129 0.3573 0.08045 0.0
H1262 H 0.0081 0.36209 0.05037 0.0
C1263 C 0.04989 0.38805 0.94689 0.0
C1264 C 0.00867 0.35699 0.98197 0.0
H1265 H 0.96992 0.35699 0.00663 0.0
C1266 C 0.01571 0.34854 0.99546 0.0
C1267 C 0.99186 0.35991 0.98595 0.0
C1268 C 0.98408 0.36943 0.97205 0.0
C1269 C 0.0063 0.34285 0.01292 0.0
C1270 C 0.98977 0.34621 0.01706 0.0
C1271 C 0.98257 0.3544 0.00343 0.0
C1272 C 0.97996 0.34195 0.03557 0.0
C1273 C 0.014 0.3331 0.02664 0.0
C1274 C 0.95856 0.32929 0.03721 0.0
C1275 C 0.94892 0.32682 0.05429 0.0
C1276 C 0.96051 0.33694 0.07007 0.0
C1277 C 0.982 0.3492 0.06853 0.0
C1278 C 0.99163 0.35182 0.05138 0.0
H1279 H 0.02189 0.32578 0.0196 0.0
H1280 H 0.0253 0.34517 0.03603 0.0
H1281 H 0.00121 0.3213 0.03514 0.0
H1282 H 0.94925 0.3216 0.02518 0.0
H1283 H 0.93233 0.31724 0.05507 0.0
H1284 H 0.68105 0.06702 0.44633 0.0
H1285 H 0.67652 0.05074 0.47655 0.0
H1286 H 0.64366 0.99083 0.45098 0.0
H1287 H 0.64849 0.00705 0.42059 0.0
H1288 H 0.63921 0.02586 0.49254 0.0
H1289 H 0.68251 0.9841 0.48586 0.0
H1290 H 0.68583 0.00412 0.46997 0.0
H1291 H 0.66418 0.97852 0.46765 0.0
C1292 C 0.67315 0.05037 0.4471 0.0
C1293 C 0.66509 0.03828 0.43111 0.0
C1294 C 0.67058 0.04111 0.46437 0.0
C1295 C 0.65996 0.01959 0.466 0.0
C1296 C 0.65231 0.00746 0.45 0.0
H1297 H 0.60483 0.93257 0.55453 0.0
H1298 H 0.61834 0.95045 0.52515 0.0
C1299 C 0.65496 0.01674 0.43267 0.0
C1300 C 0.65527 0.00996 0.48456 0.0
H1301 H 0.65981 0.97523 0.51177 0.0
C1302 C 0.64392 0.01497 0.49683 0.0
C1303 C 0.66137 0.99571 0.49007 0.0
C1304 C 0.67431 0.99041 0.47777 0.0
C1305 C 0.63801 0.00569 0.51428 0.0
C1306 C 0.64388 0.99125 0.5197 0.0
C1307 C 0.65541 0.98637 0.50754 0.0
C1308 C 0.63728 0.98036 0.53762 0.0
C1309 C 0.62495 0.01091 0.52652 0.0
C1310 C 0.64385 0.99122 0.55436 0.0
C1311 C 0.63612 0.98106 0.57119 0.0
C1312 C 0.62175 0.95987 0.57149 0.0
C1313 C 0.61581 0.94892 0.55473 0.0
C1314 C 0.62355 0.95908 0.53794 0.0
H1315 H 0.61821 0.01893 0.51879 0.0
H1316 H 0.61224 0.99679 0.53289 0.0
H1317 H 0.63461 0.02121 0.53783 0.0
H1318 H 0.65468 0.00762 0.55438 0.0
H1319 H 0.64106 0.98986 0.5839 0.0
H1320 H 0.68671 0.61435 0.05326 0.0
H1321 H 0.68315 0.62745 0.02337 0.0
H1322 H 0.64763 0.6515 0.04907 0.0
H1323 H 0.65139 0.63869 0.07913 0.0
H1324 H 0.64579 0.61433 0.00669 0.0
H1325 H 0.68675 0.69908 0.01573 0.0
H1326 H 0.69042 0.68224 0.03114 0.0
H1327 H 0.6682 0.68523 0.03353 0.0
C1328 C 0.67846 0.62277 0.05262 0.0
C1329 C 0.66927 0.62546 0.06851 0.0
C1330 C 0.67646 0.63024 0.03553 0.0
C1331 C 0.6653 0.6406 0.03402 0.0
C1332 C 0.65667 0.64392 0.04998 0.0
H1333 H 0.60992 0.67366 0.94692 0.0
H1334 H 0.62387 0.66903 0.97591 0.0
C1335 C 0.65873 0.63649 0.06713 0.0
C1336 C 0.6609 0.64598 0.01551 0.0
H1337 H 0.66473 0.68564 0.98935 0.0
C1338 C 0.65016 0.62996 0.0028 0.0
C1339 C 0.66654 0.66636 0.01054 0.0
C1340 C 0.67878 0.68426 0.02338 0.0
C1341 C 0.64432 0.63365 0.98544 0.0
C1342 C 0.6497 0.65398 0.98055 0.0
C1343 C 0.66071 0.67008 0.99315 0.0
C1344 C 0.64294 0.65855 0.96283 0.0
C1345 C 0.63175 0.61562 0.97278 0.0
C1346 C 0.64946 0.65468 0.94585 0.0
C1347 C 0.64145 0.65724 0.92923 0.0
C1348 C 0.62688 0.6638 0.92938 0.0
C1349 C 0.62105 0.66848 0.94637 0.0
C1350 C 0.62904 0.6659 0.96294 0.0
H1351 H 0.62518 0.60067 0.98019 0.0
H1352 H 0.61894 0.61687 0.96641 0.0
H1353 H 0.64173 0.61554 0.9615 0.0
H1354 H 0.66044 0.64931 0.94548 0.0
H1355 H 0.64631 0.65365 0.91633 0.0
H1356 H 0.0675 0.68083 0.55242 0.0
H1357 H 0.05135 0.67726 0.52227 0.0
H1358 H 0.99136 0.64194 0.5473 0.0
H1359 H 0.00745 0.64591 0.57763 0.0
H1360 H 0.02806 0.64139 0.50472 0.0
H1361 H 0.98278 0.68063 0.51447 0.0
H1362 H 0.00268 0.68376 0.53039 0.0
H1363 H 0.9774 0.66139 0.53172 0.0
C1364 C 0.05086 0.67259 0.55155 0.0
C1365 C 0.03871 0.66362 0.56735 0.0
C1366 C 0.04165 0.67058 0.53432 0.0
C1367 C 0.02015 0.65954 0.53256 0.0
C1368 C 0.00796 0.65094 0.5484 0.0
H1369 H 0.93383 0.60263 0.44443 0.0
H1370 H 0.95195 0.616 0.47373 0.0
C1371 C 0.01717 0.65309 0.56569 0.0
C1372 C 0.01063 0.65545 0.51394 0.0
H1373 H 0.97435 0.65868 0.48793 0.0
C1374 C 0.01653 0.64543 0.50096 0.0
C1375 C 0.99556 0.6607 0.50909 0.0
C1376 C 0.98937 0.6724 0.52209 0.0
C1377 C 0.00729 0.63993 0.48347 0.0
C1378 C 0.9919 0.64475 0.47879 0.0
C1379 C 0.9862 0.65505 0.49161 0.0
C1380 C 0.98075 0.63808 0.46102 0.0
C1381 C 0.01354 0.62836 0.47034 0.0
C1382 C 0.99091 0.6464 0.44422 0.0
C1383 C 0.98059 0.6388 0.42743 0.0
C1384 C 0.96 0.62277 0.42725 0.0
C1385 C 0.94974 0.61492 0.44414 0.0
C1386 C 0.96002 0.62257 0.46088 0.0
H1387 H 0.0231 0.62281 0.47724 0.0
H1388 H -0.00028 0.61494 0.46432 0.0
H1389 H 0.02261 0.63867 0.4588 0.0
H1390 H 0.00689 0.65852 0.44411 0.0
H1391 H 0.98884 0.64518 0.41462 0.0
H1392 H 0.60085 0.93048 0.95009 0.0
H1393 H 0.61509 0.94915 0.97903 0.0
H1394 H 0.65868 0.00259 0.94828 0.0
H1395 H 0.64449 0.98401 0.91919 0.0
H1396 H 0.658 0.97072 0.99288 0.0
H1397 H 0.62469 0.02149 0.98079 0.0
H1398 H 0.61593 0.99761 0.96844 0.0
H1399 H 0.63999 0.01986 0.96241 0.0
C1400 C 0.61358 0.94615 0.94948 0.0
C1401 C 0.62147 0.95586 0.93239 0.0
C1402 C 0.62172 0.95675 0.96601 0.0
C1403 C 0.63777 0.97726 0.96573 0.0
C1404 C 0.64615 0.98681 0.94873 0.0
H1405 H 0.68478 0.0674 0.05438 0.0
H1406 H 0.68005 0.04985 0.02477 0.0
C1407 C 0.63806 0.97618 0.93216 0.0
C1408 C 0.64495 0.98888 0.98323 0.0
H1409 H 0.64374 0.02691 0.00805 0.0
C1410 C 0.65502 0.98309 0.99622 0.0
C1411 C 0.64098 0.00496 0.98745 0.0
C1412 C 0.62969 0.01134 0.97415 0.0
C1413 C 0.66132 0.99308 0.0134 0.0
C1414 C 0.65695 0.00889 0.01779 0.0
C1415 C 0.64712 0.01482 0.00465 0.0
C1416 C 0.66179 0.01919 0.03608 0.0
C1417 C 0.67276 0.98675 0.02656 0.0
C1418 C 0.65329 0.00776 0.05232 0.0
C1419 C 0.65614 0.01776 0.0693 0.0
C1420 C 0.66724 0.03935 0.07025 0.0
C1421 C 0.6761 0.05073 0.05406 0.0
C1422 C 0.67342 0.04073 0.03714 0.0
H1423 H 0.6804 0.97942 0.01912 0.0
H1424 H 0.68458 0.00015 0.03448 0.0
H1425 H 0.66168 0.97534 0.03652 0.0
H1426 H 0.64384 0.99116 0.05178 0.0
H1427 H 0.64901 0.00862 0.08155 0.0
H1428 H 0.66765 0.65063 0.41856 0.0
H1429 H 0.66181 0.66309 0.44809 0.0
H1430 H 0.65139 0.6073 0.47483 0.0
H1431 H 0.6571 0.59475 0.44553 0.0
H1432 H 0.62006 0.61771 0.48049 0.0
H1433 H 0.69849 0.68296 0.49562 0.0
H1434 H 0.68848 0.68241 0.47288 0.0
H1435 H 0.69397 0.66262 0.4796 0.0
C1436 C 0.6643 0.64114 0.43078 0.0
C1437 C 0.66279 0.62171 0.42974 0.0
C1438 C 0.66108 0.64831 0.44764 0.0
C1439 C 0.65636 0.63617 0.46364 0.0
C1440 C 0.65511 0.61691 0.46264 0.0
H1441 H 0.64172 0.65625 0.57928 0.0
H1442 H 0.65368 0.65038 0.5495 0.0
C1443 C 0.65836 0.60978 0.44588 0.0
C1444 C 0.65136 0.64276 0.48123 0.0
H1445 H 0.67175 0.67813 0.5161 0.0
C1446 C 0.63134 0.63095 0.48826 0.0
C1447 C 0.66619 0.65992 0.49137 0.0
C1448 C 0.68806 0.67269 0.48463 0.0
C1449 C 0.62569 0.63587 0.50515 0.0
C1450 C 0.64042 0.65317 0.51518 0.0
C1451 C 0.6605 0.66496 0.50826 0.0
C1452 C 0.63507 0.65895 0.53302 0.0
C1453 C 0.60409 0.62234 0.51232 0.0
C1454 C 0.6211 0.66619 0.5335 0.0
C1455 C 0.61427 0.66954 0.5504 0.0
C1456 C 0.62131 0.6657 0.56713 0.0
C1457 C 0.63599 0.65927 0.56661 0.0
C1458 C 0.64286 0.65597 0.54964 0.0
H1459 H 0.59588 0.60749 0.50473 0.0
H1460 H 0.60432 0.61908 0.52727 0.0
H1461 H 0.59523 0.63046 0.51064 0.0
H1462 H 0.61506 0.66872 0.52077 0.0
H1463 H 0.60303 0.67459 0.55035 0.0
H1464 H 0.9717 0.65698 0.07562 0.0
H1465 H 0.98753 0.67134 0.04547 0.0
H1466 H 0.97311 0.61083 0.02715 0.0
H1467 H 0.957 0.59643 0.05685 0.0
H1468 H 0.01989 0.67181 0.02791 0.0
H1469 H 0.94987 0.62888 0.98545 0.0
H1470 H 0.94893 0.63051 0.01031 0.0
H1471 H 0.95398 0.61173 -0.00028 0.0
C1472 C 0.97189 0.64678 0.06511 0.0
C1473 C 0.96299 0.62557 0.06851 0.0
C1474 C 0.98088 0.65498 0.04792 0.0
C1475 C 0.98102 0.64206 0.03392 0.0
C1476 C 0.9726 0.62099 0.03753 0.0
H1477 H 0.06018 0.65758 0.94539 0.0
H1478 H 0.04326 0.65517 0.9748 0.0
C1479 C 0.96355 0.6128 0.05458 0.0
C1480 C 0.99065 0.65044 0.01571 0.0
H1481 H 0.9823 0.64135 0.96941 0.0
C1482 C 0.0116 0.66544 0.01509 0.0
C1483 C 0.97972 0.64254 0.99897 0.0
C1484 C 0.95683 0.6277 0.99863 0.0
C1485 C 0.02223 0.67164 0.99821 0.0
C1486 C 0.01173 0.66221 0.98161 0.0
C1487 C 0.99046 0.64833 0.98215 0.0
C1488 C 0.02273 0.66506 0.96385 0.0
C1489 C 0.04469 0.68798 0.99839 0.0
C1490 C 0.01644 0.67086 0.94774 0.0
C1491 C 0.02592 0.67194 0.93077 0.0
C1492 C 0.04178 0.66717 0.92966 0.0
C1493 C 0.0481 0.66149 0.94582 0.0
C1494 C 0.03857 0.66031 0.9627 0.0
H1495 H 0.04825 0.69862 0.01029 0.0
H1496 H 0.0542 0.68053 -0.00011 0.0
H1497 H 0.04922 0.69713 0.98542 0.0
H1498 H 0.00409 0.67437 0.94829 0.0
H1499 H 0.02073 0.67634 0.91852 0.0
H1500 H 0.31511 0.97299 0.57745 0.0
H1501 H 0.31714 0.98974 0.54772 0.0
H1502 H 0.34897 0.96065 0.52394 0.0
H1503 H 0.34639 0.94348 0.55319 0.0
H1504 H 0.34963 0.01675 0.5291 0.0
H1505 H 0.30715 0.94866 0.4846 0.0
H1506 H 0.30641 0.94684 0.50951 0.0
H1507 H 0.32708 0.94694 0.49666 0.0
C1508 C 0.32233 0.97004 0.56578 0.0
C1509 C 0.33049 0.95686 0.56759 0.0
C1510 C 0.32345 0.97957 0.54882 0.0
C1511 C 0.33275 0.97605 0.53345 0.0
C1512 C 0.34107 0.96305 0.53537 0.0
H1513 H 0.4043 0.05321 0.44695 0.0
H1514 H 0.38813 0.0356 0.47567 0.0
C1515 C 0.33978 0.9534 0.55219 0.0
C1516 C 0.33533 0.98709 0.51574 0.0
H1517 H 0.3326 0.97995 0.46899 0.0
C1518 C 0.34552 0.00868 0.51597 0.0
C1519 C 0.32947 0.97663 0.49857 0.0
C1520 C 0.3167 0.95348 0.49734 0.0
C1521 C 0.35141 0.02008 0.4995 0.0
C1522 C 0.34758 0.0096 0.48238 0.0
C1523 C 0.33596 0.98802 0.48211 0.0
C1524 C 0.35703 0.02062 0.46488 0.0
C1525 C 0.36198 0.04324 0.50067 0.0
C1526 C 0.34505 0.01742 0.44896 0.0
C1527 C 0.35436 0.0272 0.43232 0.0
C1528 C 0.37579 0.04033 0.43138 0.0
C1529 C 0.38772 0.04336 0.44729 0.0
C1530 C 0.37846 0.03346 0.46379 0.0
H1531 H 0.35675 0.04817 0.51303 0.0
H1532 H 0.37883 0.04959 0.50205 0.0
H1533 H 0.35905 0.04997 0.48816 0.0
H1534 H 0.3285 0.00738 0.44942 0.0
H1535 H 0.34482 0.02457 0.42024 0.0
H1536 H 0.38808 0.3212 0.05324 0.0
H1537 H 0.37535 0.32675 0.0239 0.0
H1538 H 0.34302 0.3521 0.05322 0.0
H1539 H 0.3558 0.34673 0.08268 0.0
H1540 H 0.33373 0.3136 0.01071 0.0
H1541 H 0.38338 0.39851 0.01758 0.0
H1542 H 0.3872 0.38064 0.03137 0.0
H1543 H 0.36672 0.38559 0.03685 0.0
C1544 C 0.37809 0.32776 0.05347 0.0
C1545 C 0.37309 0.33372 0.07023 0.0
C1546 C 0.37079 0.33086 0.0367 0.0
C1547 C 0.35848 0.34005 0.03643 0.0
C1548 C 0.35272 0.3452 0.05318 0.0
H1549 H 0.32069 0.39109 0.94765 0.0
H1550 H 0.32487 0.37807 0.97731 0.0
C1551 C 0.35998 0.34208 0.06997 0.0
C1552 C 0.35275 0.34536 0.01856 0.0
H1553 H 0.36153 0.3863 0.99167 0.0
C1554 C 0.33973 0.32947 0.00651 0.0
C1555 C 0.36073 0.36609 0.01317 0.0
C1556 C 0.37542 0.38374 0.02531 0.0
C1557 C 0.3342 0.33381 0.98923 0.0
C1558 C 0.34229 0.35456 0.98379 0.0
C1559 C 0.35528 0.3704 0.9959 0.0
C1560 C 0.33775 0.36043 0.96558 0.0
C1561 C 0.31952 0.31617 0.9771 0.0
C1562 C 0.34343 0.35466 0.94909 0.0
C1563 C 0.34093 0.36199 0.93205 0.0
C1564 C 0.33298 0.37543 0.93131 0.0
C1565 C 0.32692 0.38081 0.9478 0.0
C1566 C 0.32928 0.37338 0.96476 0.0
H1567 H 0.31036 0.30183 0.98523 0.0
H1568 H 0.30879 0.3199 0.96976 0.0
H1569 H 0.32844 0.31311 0.96659 0.0
H1570 H 0.35043 0.34506 0.94942 0.0
H1571 H 0.34583 0.35769 0.91956 0.0
H1572 H 0.00741 0.35629 0.58161 0.0
H1573 H 0.98971 0.34385 0.55192 0.0
H1574 H 0.04817 0.37316 0.52364 0.0
H1575 H 0.06598 0.3856 0.55322 0.0
H1576 H 0.99394 0.3715 0.52277 0.0
H1577 H 0.01675 0.31488 0.5002 0.0
H1578 H 0.01821 0.32279 0.52403 0.0
H1579 H 0.03749 0.33936 0.50774 0.0
C1580 C 0.0165 0.35978 0.5691 0.0
C1581 C 0.03806 0.37195 0.56971 0.0
C1582 C 0.00638 0.35267 0.55218 0.0
C1583 C 0.01767 0.35742 0.53565 0.0
C1584 C 0.03922 0.36902 0.53628 0.0
H1585 H 0.98757 0.3463 0.41886 0.0
H1586 H 0.00462 0.35144 0.44894 0.0
C1587 C 0.04935 0.37622 0.55318 0.0
C1588 C 0.00687 0.352 0.51765 0.0
H1589 H -0.0 0.32472 0.4779 0.0
C1590 C 0.9951 0.36113 0.51301 0.0
C1591 C 0.00868 0.3387 0.50492 0.0
C1592 C 0.02083 0.3282 0.50946 0.0
C1593 C 0.98532 0.35759 0.49579 0.0
C1594 C 0.98694 0.34412 0.48307 0.0
C1595 C 0.99873 0.33498 0.48771 0.0
C1596 C 0.97652 0.33948 0.46488 0.0
C1597 C 0.97385 0.36879 0.4912 0.0
C1598 C 0.95505 0.33052 0.46389 0.0
C1599 C 0.94534 0.32776 0.44682 0.0
C1600 C 0.9569 0.33364 0.4304 0.0
C1601 C 0.9783 0.3417 0.43132 0.0
C1602 C 0.98804 0.34462 0.44846 0.0
H1603 H 0.97881 0.38256 0.5001 0.0
H1604 H 0.97616 0.37376 0.4765 0.0
H1605 H 0.95714 0.35832 0.49351 0.0
H1606 H 0.94583 0.32599 0.47638 0.0
H1607 H 0.9288 0.32128 0.44652 0.0
H1608 H 0.44666 0.03694 0.11864 0.0
H1609 H 0.47909 0.03647 0.11815 0.0
H1610 H 0.512 0.10114 0.10463 0.0
H1611 H 0.47972 0.1018 0.10537 0.0
H1612 H 0.50821 0.04669 0.08979 0.0
H1613 H 0.54205 0.09793 0.15066 0.0
H1614 H 0.51507 0.08599 0.1449 0.0
H1615 H 0.53368 0.10851 0.13262 0.0
C1616 C 0.46081 0.05104 0.11554 0.0
C1617 C 0.4607 0.06945 0.11218 0.0
C1618 C 0.4793 0.05075 0.11525 0.0
C1619 C 0.49796 0.06884 0.11167 0.0
C1620 C 0.49781 0.0871 0.10781 0.0
H1621 H 0.62589 0.10066 0.10704 0.0
H1622 H 0.59301 0.10007 0.10522 0.0
C1623 C 0.47935 0.08743 0.10814 0.0
C1624 C 0.5176 0.06865 0.11204 0.0
H1625 H 0.56411 0.08964 0.13388 0.0
C1626 C 0.52042 0.05601 0.09946 0.0
C1627 C 0.53345 0.0808 0.12472 0.0
C1628 C 0.53091 0.09394 0.13911 0.0
C1629 C 0.53888 0.05551 0.09898 0.0
C1630 C 0.55476 0.06776 0.11159 0.0
C1631 C 0.55191 0.08034 0.12419 0.0
C1632 C 0.57449 0.06775 0.11202 0.0
C1633 C 0.54141 0.04223 0.08474 0.0
C1634 C 0.57494 0.0498 0.11657 0.0
C1635 C 0.5937 0.05008 0.11762 0.0
C1636 C 0.61231 0.06838 0.11425 0.0
C1637 C 0.6118 0.08633 0.10968 0.0
C1638 C 0.59305 0.08603 0.10864 0.0
H1639 H 0.53007 0.03786 0.07332 0.0
H1640 H 0.55717 0.05027 0.07878 0.0
H1641 H 0.539 0.02788 0.09145 0.0
H1642 H 0.56081 0.03563 0.11958 0.0
H1643 H 0.59363 0.03604 0.12125 0.0
H1644 H 0.55305 0.59209 0.61293 0.0
H1645 H 0.52069 0.55923 0.61148 0.0
H1646 H 0.4869 0.59165 0.60692 0.0
H1647 H 0.51916 0.62456 0.60855 0.0
H1648 H 0.47166 0.56073 0.63395 0.0
H1649 H 0.48286 0.53153 0.56688 0.0
H1650 H 0.50364 0.5393 0.58304 0.0
H1651 H 0.49808 0.55819 0.5737 0.0
C1652 C 0.53874 0.59221 0.61146 0.0
C1653 C 0.53862 0.61088 0.61083 0.0
C1654 C 0.52028 0.57343 0.61053 0.0
C1655 C 0.50144 0.57303 0.60884 0.0
C1656 C 0.50131 0.59165 0.60812 0.0
H1657 H 0.37272 0.47691 0.60968 0.0
H1658 H 0.40518 0.50962 0.60791 0.0
C1659 C 0.51973 0.61042 0.60904 0.0
C1660 C 0.48178 0.55322 0.60878 0.0
H1661 H 0.45426 0.50813 0.58505 0.0
C1662 C 0.46778 0.54927 0.62321 0.0
C1663 C 0.47686 0.53829 0.59478 0.0
C1664 C 0.49105 0.54204 0.57862 0.0
C1665 C 0.44908 0.53062 0.62421 0.0
C1666 C 0.44411 0.5157 0.61019 0.0
C1667 C 0.45812 0.51963 0.59575 0.0
C1668 C 0.42448 0.49586 0.61037 0.0
C1669 C 0.43504 0.52685 0.6405 0.0
C1670 C 0.4246 0.47726 0.61172 0.0
C1671 C 0.40608 0.45855 0.61261 0.0
C1672 C 0.38715 0.45814 0.61208 0.0
C1673 C 0.38708 0.47676 0.61025 0.0
C1674 C 0.40559 0.49545 0.60933 0.0
H1675 H 0.44332 0.53734 0.65221 0.0
H1676 H 0.4224 0.52959 0.63623 0.0
H1677 H 0.42806 0.5107 0.64542 0.0
H1678 H 0.43903 0.47726 0.61244 0.0
H1679 H 0.40661 0.44444 0.61396 0.0
H1680 H 0.89783 0.37556 0.10677 0.0
H1681 H 0.89711 0.40786 0.10655 0.0
H1682 H 0.96029 0.44063 0.12491 0.0
H1683 H 0.96126 0.40854 0.12474 0.0
H1684 H 0.903 0.43379 0.1354 0.0
H1685 H 0.96187 0.47516 0.08129 0.0
H1686 H 0.95046 0.44782 0.0851 0.0
H1687 H 0.971 0.46584 0.09974 0.0
C1688 C 0.91162 0.38969 0.11059 0.0
C1689 C 0.92964 0.38957 0.11566 0.0
C1690 C 0.91118 0.40811 0.11048 0.0
C1691 C 0.92874 0.42669 0.11542 0.0
C1692 C 0.94671 0.42656 0.12059 0.0
H1693 H 0.95863 0.55258 0.13246 0.0
H1694 H 0.95751 0.51941 0.13165 0.0
C1695 C 0.94721 0.40819 0.12059 0.0
C1696 C 0.92806 0.4461 0.11587 0.0
H1697 H 0.95176 0.49528 0.09925 0.0
C1698 C 0.91354 0.44719 0.12738 0.0
C1699 C 0.94182 0.46355 0.10539 0.0
C1700 C 0.95703 0.46302 0.09205 0.0
C1701 C 0.91277 0.46544 0.12905 0.0
C1702 C 0.92676 0.48296 0.11881 0.0
C1703 C 0.94114 0.48182 0.10717 0.0
C1704 C 0.92688 0.50271 0.12001 0.0
C1705 C 0.89737 0.46602 0.14211 0.0
C1706 C 0.91 0.50425 0.11372 0.0
C1707 C 0.91059 0.52317 0.11416 0.0
C1708 C 0.92811 0.54086 0.12083 0.0
C1709 C 0.94491 0.53921 0.12728 0.0
C1710 C 0.94431 0.5203 0.1268 0.0
H1711 H 0.89093 0.45287 0.15193 0.0
H1712 H 0.90453 0.4806 0.15013 0.0
H1713 H 0.88444 0.46523 0.13399 0.0
H1714 H 0.89654 0.4909 0.10815 0.0
H1715 H 0.89747 0.52401 0.10902 0.0
H1716 H 0.40363 0.96354 0.62048 0.0
H1717 H 0.43692 0.96486 0.61923 0.0
H1718 H 0.40576 0.89874 0.61418 0.0
H1719 H 0.37247 0.89731 0.61517 0.0
H1720 H 0.45239 0.94614 0.64272 0.0
H1721 H 0.44603 0.91822 0.57062 0.0
H1722 H 0.42943 0.92709 0.57978 0.0
H1723 H 0.42457 0.90161 0.58504 0.0
C1724 C 0.40389 0.94929 0.61907 0.0
C1725 C 0.38546 0.93033 0.61783 0.0
C1726 C 0.42289 0.95007 0.61836 0.0
C1727 C 0.42378 0.93193 0.61629 0.0
C1728 C 0.40541 0.91295 0.61536 0.0
H1729 H 0.51869 0.89893 0.6142 0.0
H1730 H 0.48655 0.89991 0.61384 0.0
C1731 C 0.38641 0.91216 0.61605 0.0
C1732 C 0.44392 0.93276 0.61555 0.0
H1733 H 0.47345 0.92015 0.5887 0.0
C1734 C 0.45709 0.94062 0.63087 0.0
C1735 C 0.44997 0.92554 0.60004 0.0
C1736 C 0.43686 0.91781 0.58286 0.0
C1737 C 0.47595 0.94092 0.63132 0.0
C1738 C 0.48188 0.93346 0.6159 0.0
C1739 C 0.46881 0.92581 0.6005 0.0
C1740 C 0.50143 0.93309 0.61565 0.0
C1741 C 0.48911 0.94867 0.64848 0.0
C1742 C 0.52042 0.95147 0.61645 0.0
C1743 C 0.5388 0.95096 0.61666 0.0
C1744 C 0.53846 0.93206 0.61598 0.0
C1745 C 0.51943 0.91371 0.61478 0.0
C1746 C 0.50107 0.91424 0.61456 0.0
H1747 H 0.48028 0.94936 0.66053 0.0
H1748 H 0.49561 0.93868 0.65207 0.0
H1749 H 0.50212 0.96443 0.64589 0.0
H1750 H 0.52102 0.96619 0.61694 0.0
H1751 H 0.55325 0.96535 0.6175 0.0
H1752 H 0.62311 0.51907 0.1133 0.0
H1753 H 0.58986 0.4872 0.11159 0.0
H1754 H 0.55909 0.52245 0.10575 0.0
H1755 H 0.5923 0.55444 0.10756 0.0
H1756 H 0.54226 0.49132 0.13324 0.0
H1757 H 0.5522 0.4611 0.06626 0.0
H1758 H 0.57292 0.4683 0.08239 0.0
H1759 H 0.56808 0.48769 0.07306 0.0
C1760 C 0.60928 0.52003 0.1115 0.0
C1761 C 0.61029 0.53923 0.11054 0.0
C1762 C 0.59032 0.50182 0.11042 0.0
C1763 C 0.57208 0.5025 0.1083 0.0
C1764 C 0.57304 0.52164 0.10727 0.0
H1765 H 0.44244 0.40702 0.11045 0.0
H1766 H 0.47474 0.43986 0.10828 0.0
C1767 C 0.592 0.53987 0.1083 0.0
C1768 C 0.55192 0.48324 0.10811 0.0
H1769 H 0.52353 0.43814 0.08465 0.0
C1770 C 0.53805 0.47975 0.12255 0.0
C1771 C 0.54659 0.46819 0.09416 0.0
C1772 C 0.56063 0.47151 0.07798 0.0
C1773 C 0.51915 0.46131 0.1237 0.0
C1774 C 0.51386 0.44618 0.10982 0.0
C1775 C 0.52765 0.44977 0.09527 0.0
C1776 C 0.49426 0.42632 0.11039 0.0
C1777 C 0.50532 0.45793 0.14008 0.0
C1778 C 0.49454 0.4078 0.11171 0.0
C1779 C 0.47613 0.38903 0.1128 0.0
C1780 C 0.45712 0.38846 0.11254 0.0
C1781 C 0.45687 0.407 0.11082 0.0
C1782 C 0.47529 0.42577 0.10968 0.0
H1783 H 0.51378 0.46861 0.15163 0.0
H1784 H 0.4927 0.46069 0.1358 0.0
H1785 H 0.49832 0.44187 0.14523 0.0
H1786 H 0.50904 0.40791 0.11219 0.0
H1787 H 0.47681 0.37498 0.11406 0.0
H1788 H 0.03291 0.44078 0.61225 0.0
H1789 H 0.03207 0.47294 0.61026 0.0
H1790 H 0.09844 0.50753 0.61098 0.0
H1791 H 0.09942 0.47545 0.61276 0.0
H1792 H 0.0485 0.50533 0.63576 0.0
H1793 H 0.08399 0.53178 0.56652 0.0
H1794 H 0.07395 0.50564 0.57441 0.0
H1795 H 0.0988 0.52561 0.58207 0.0
C1796 C 0.04732 0.45523 0.61183 0.0
C1797 C 0.06624 0.45562 0.6126 0.0
C1798 C 0.04681 0.47357 0.61071 0.0
C1799 C 0.06519 0.49258 0.61021 0.0
C1800 C 0.08409 0.493 0.61095 0.0
H1801 H 0.09866 0.62067 0.61249 0.0
H1802 H 0.0977 0.58758 0.6115 0.0
C1803 C 0.08462 0.47467 0.61208 0.0
C1804 C 0.06459 0.51201 0.60977 0.0
H1805 H 0.08012 0.556 0.58483 0.0
C1806 C 0.05525 0.51635 0.62456 0.0
C1807 C 0.07347 0.52633 0.59515 0.0
C1808 C 0.08296 0.52208 0.57854 0.0
C1809 C 0.05501 0.53492 0.62538 0.0
C1810 C 0.06404 0.54933 0.61083 0.0
C1811 C 0.07323 0.54491 0.59596 0.0
C1812 C 0.06445 0.56927 0.61098 0.0
C1813 C 0.04563 0.53922 0.64205 0.0
C1814 C 0.04607 0.5699 0.61071 0.0
C1815 C 0.04656 0.58877 0.61131 0.0
C1816 C 0.06547 0.60731 0.61207 0.0
C1817 C 0.08386 0.60663 0.61195 0.0
C1818 C 0.08334 0.58776 0.61137 0.0
H1819 H 0.04391 0.529 0.65386 0.0
H1820 H 0.05515 0.55548 0.64657 0.0
H1821 H 0.03011 0.53652 0.63839 0.0
H1822 H 0.03134 0.5558 0.61005 0.0
H1823 H 0.03215 0.58883 0.61128 0.0
H1824 H 0.96393 0.55494 0.37486 0.0
H1825 H 0.96431 0.52246 0.37498 0.0
H1826 H 0.89865 0.48903 0.38383 0.0
H1827 H 0.89809 0.52135 0.38346 0.0
H1828 H 0.95173 0.49267 0.40287 0.0
H1829 H 0.9059 0.4601 0.33888 0.0
H1830 H 0.91724 0.48693 0.345 0.0
H1831 H 0.89368 0.468 0.35576 0.0
C1832 C 0.94957 0.54065 0.37677 0.0
C1833 C 0.93095 0.54065 0.37904 0.0
C1834 C 0.94982 0.52214 0.37686 0.0
C1835 C 0.93147 0.50334 0.37912 0.0
C1836 C 0.91292 0.50334 0.38166 0.0
H1837 H 0.89756 0.37522 0.38621 0.0
H1838 H 0.89879 0.40845 0.38613 0.0
C1839 C 0.91264 0.52182 0.38156 0.0
C1840 C 0.93175 0.48374 0.37914 0.0
H1841 H 0.91219 0.43745 0.3571 0.0
C1842 C 0.9432 0.48063 0.3928 0.0
C1843 C 0.92061 0.4681 0.36597 0.0
C1844 C 0.90881 0.47096 0.35046 0.0
C1845 C 0.94341 0.46204 0.39393 0.0
C1846 C 0.93209 0.44633 0.38087 0.0
C1847 C 0.92078 0.44951 0.36713 0.0
C1848 C 0.93162 0.42636 0.3813 0.0
C1849 C 0.95529 0.45917 0.40935 0.0
C1850 C 0.94965 0.42545 0.37846 0.0
C1851 C 0.949 0.40649 0.3785 0.0
C1852 C 0.93027 0.38814 0.3813 0.0
C1853 C 0.91222 0.38911 0.38407 0.0
C1854 C 0.91289 0.40806 0.38401 0.0
H1855 H 0.959 0.47054 0.42064 0.0
H1856 H 0.94648 0.44342 0.41526 0.0
H1857 H 0.97 0.46124 0.40378 0.0
H1858 H 0.96419 0.43938 0.376 0.0
H1859 H 0.96313 0.40621 0.37624 0.0
H1860 H 0.55315 0.96108 0.88206 0.0
H1861 H 0.52113 0.96228 0.88301 0.0
H1862 H 0.48654 0.89651 0.89096 0.0
H1863 H 0.51846 0.89515 0.88985 0.0
H1864 H 0.47086 0.91126 0.86311 0.0
H1865 H 0.48513 0.95533 0.92848 0.0
H1866 H 0.50541 0.967 0.91165 0.0
H1867 H 0.49957 0.94292 0.92205 0.0
C1868 C 0.53873 0.94689 0.88409 0.0
C1869 C 0.5383 0.92802 0.88592 0.0
C1870 C 0.52048 0.94762 0.88474 0.0
C1871 C 0.50153 0.92953 0.88732 0.0
C1872 C 0.50104 0.91066 0.88907 0.0
H1873 H 0.37341 0.89843 0.88939 0.0
H1874 H 0.4058 0.89801 0.89048 0.0
C1875 C 0.51928 0.90991 0.88844 0.0
C1876 C 0.48209 0.93012 0.88751 0.0
H1877 H 0.45595 0.94945 0.91095 0.0
C1878 C 0.46754 0.91952 0.87361 0.0
C1879 C 0.4779 0.941 0.90119 0.0
C1880 C 0.49272 0.95208 0.9168 0.0
C1881 C 0.44896 0.91974 0.87284 0.0
C1882 C 0.44469 0.93052 0.88658 0.0
C1883 C 0.45928 0.94119 0.90046 0.0
C1884 C 0.42514 0.93089 0.88675 0.0
C1885 C 0.43427 0.9088 0.85711 0.0
C1886 C 0.42533 0.94961 0.88493 0.0
C1887 C 0.40685 0.94992 0.88444 0.0
C1888 C 0.3879 0.93151 0.88584 0.0
C1889 C 0.38778 0.91285 0.88815 0.0
C1890 C 0.40625 0.91256 0.88867 0.0
H1891 H 0.44206 0.90599 0.84532 0.0
H1892 H 0.42176 0.89366 0.86202 0.0
H1893 H 0.42718 0.91782 0.85205 0.0
H1894 H 0.43977 0.96394 0.88354 0.0
H1895 H 0.40741 0.96454 0.8827 0.0
H1896 H 0.44521 0.40836 0.37661 0.0
H1897 H 0.47759 0.44126 0.37573 0.0
H1898 H 0.51163 0.40936 0.38261 0.0
H1899 H 0.47934 0.37644 0.38371 0.0
H1900 H 0.52424 0.44339 0.40627 0.0
H1901 H 0.51963 0.46371 0.33321 0.0
H1902 H 0.49741 0.45765 0.34706 0.0
H1903 H 0.50381 0.43802 0.34222 0.0
C1904 C 0.4596 0.40836 0.37787 0.0
C1905 C 0.45977 0.38984 0.38018 0.0
C1906 C 0.47807 0.42714 0.37726 0.0
C1907 C 0.49699 0.42769 0.37884 0.0
C1908 C 0.49718 0.40923 0.38127 0.0
H1909 H 0.62581 0.52225 0.3818 0.0
H1910 H 0.59289 0.48994 0.38194 0.0
C1911 C 0.47874 0.39046 0.38188 0.0
C1912 C 0.51661 0.44753 0.3785 0.0
H1913 H 0.54678 0.48913 0.35132 0.0
C1914 C 0.52922 0.45338 0.39424 0.0
C1915 C 0.52299 0.46052 0.3628 0.0
C1916 C 0.51037 0.45465 0.34528 0.0
C1917 C 0.54797 0.47201 0.3948 0.0
C1918 C 0.55443 0.48493 0.37906 0.0
C1919 C 0.54177 0.47916 0.36335 0.0
C1920 C 0.57437 0.50446 0.3786 0.0
C1921 C 0.56053 0.47788 0.41236 0.0
C1922 C 0.57488 0.52326 0.37614 0.0
C1923 C 0.59367 0.54173 0.37594 0.0
C1924 C 0.61227 0.54167 0.3781 0.0
C1925 C 0.61173 0.52278 0.38022 0.0
C1926 C 0.59294 0.50433 0.38041 0.0
H1927 H 0.55108 0.46916 0.42448 0.0
H1928 H 0.57316 0.47433 0.41081 0.0
H1929 H 0.56752 0.4946 0.41521 0.0
H1930 H 0.56071 0.52365 0.37461 0.0
H1931 H 0.59362 0.55605 0.37423 0.0
H1932 H 0.03404 0.44395 0.87483 0.0
H1933 H 0.03296 0.47607 0.87384 0.0
H1934 H 0.09879 0.51087 0.88136 0.0
H1935 H 0.10003 0.47891 0.88217 0.0
H1936 H 0.04596 0.50689 0.90107 0.0
H1937 H 0.08948 0.53764 0.8357 0.0
H1938 H 0.07861 0.51105 0.84251 0.0
H1939 H 0.10243 0.5305 0.85248 0.0
C1940 C 0.04828 0.45846 0.87619 0.0
C1941 C 0.06713 0.45895 0.87848 0.0
C1942 C 0.04764 0.47677 0.87564 0.0
C1943 C 0.06583 0.49583 0.87724 0.0
C1944 C 0.08463 0.49633 0.87972 0.0
H1945 H 0.0998 0.6237 0.88263 0.0
H1946 H 0.09826 0.59034 0.88225 0.0
C1947 C 0.08529 0.47806 0.88028 0.0
C1948 C 0.06513 0.51521 0.87682 0.0
H1949 H 0.08366 0.56078 0.85374 0.0
C1950 C 0.05404 0.51863 0.89065 0.0
C1951 C 0.0757 0.53044 0.86319 0.0
C1952 C 0.08708 0.52721 0.84751 0.0
C1953 C 0.05376 0.53718 0.89154 0.0
C1954 C 0.06458 0.55254 0.87806 0.0
C1955 C 0.07543 0.54899 0.86409 0.0
C1956 C 0.06525 0.5726 0.87842 0.0
C1957 C 0.0424 0.54046 0.90721 0.0
C1958 C 0.04721 0.57366 0.87622 0.0
C1959 C 0.04804 0.59271 0.87645 0.0
C1960 C 0.06695 0.61099 0.8788 0.0
C1961 C 0.085 0.60987 0.88085 0.0
C1962 C 0.08415 0.59085 0.88061 0.0
H1963 H 0.03901 0.52932 0.91866 0.0
H1964 H 0.05145 0.55632 0.91282 0.0
H1965 H 0.02755 0.53834 0.90199 0.0
H1966 H 0.03253 0.55978 0.87417 0.0
H1967 H 0.0339 0.59311 0.87475 0.0
H1968 H 0.62476 0.09949 0.38881 0.0
H1969 H 0.59211 0.09945 0.38981 0.0
H1970 H 0.55887 0.03332 0.38444 0.0
H1971 H 0.59144 0.0332 0.38373 0.0
H1972 H 0.56208 0.08526 0.3626 0.0
H1973 H 0.53027 0.04274 0.4283 0.0
H1974 H 0.55701 0.05362 0.42197 0.0
H1975 H 0.53782 0.02968 0.41199 0.0
C1976 C 0.61049 0.08493 0.38802 0.0
C1977 C 0.61063 0.06634 0.38626 0.0
C1978 C 0.59187 0.08493 0.38857 0.0
C1979 C 0.57308 0.06637 0.38745 0.0
C1980 C 0.57318 0.04778 0.38573 0.0
H1981 H 0.4453 0.03617 0.38064 0.0
H1982 H 0.47755 0.03533 0.38123 0.0
C1983 C 0.5918 0.04775 0.38522 0.0
C1984 C 0.55345 0.06659 0.3872 0.0
H1985 H 0.5077 0.0489 0.40985 0.0
C1986 C 0.55022 0.0774 0.37298 0.0
C1987 C 0.538 0.05624 0.40072 0.0
C1988 C 0.54095 0.04506 0.41671 0.0
C1989 C 0.53183 0.07794 0.37177 0.0
C1990 C 0.51641 0.06763 0.38531 0.0
C1991 C 0.51957 0.05675 0.39949 0.0
C1992 C 0.49695 0.06817 0.38508 0.0
C1993 C 0.5289 0.0892 0.35583 0.0
C1994 C 0.49722 0.08689 0.38729 0.0
C1995 C 0.47888 0.08742 0.38695 0.0
C1996 C 0.45993 0.06922 0.38449 0.0
C1997 C 0.45968 0.05045 0.38251 0.0
C1998 C 0.47805 0.04993 0.38286 0.0
H1999 H 0.53975 0.0918 0.34431 0.0
H2000 H 0.51291 0.08053 0.35043 0.0
H2001 H 0.53176 0.10445 0.36068 0.0
H2002 H 0.51164 0.10108 0.38935 0.0
H2003 H 0.47955 0.1021 0.38862 0.0
H2004 H 0.52315 0.62265 0.89211 0.0
H2005 H 0.49066 0.58995 0.89338 0.0
H2006 H 0.52335 0.55702 0.88417 0.0
H2007 H 0.55596 0.58967 0.88313 0.0
H2008 H 0.47414 0.56089 0.8651 0.0
H2009 H 0.48659 0.52685 0.92857 0.0
H2010 H 0.50212 0.55384 0.92297 0.0
H2011 H 0.50677 0.53519 0.91168 0.0
C2012 C 0.52344 0.60843 0.89055 0.0
C2013 C 0.54209 0.60869 0.88755 0.0
C2014 C 0.50488 0.58978 0.89126 0.0
C2015 C 0.50463 0.57107 0.88909 0.0
C2016 C 0.52324 0.57127 0.88625 0.0
H2017 H 0.40683 0.44364 0.8803 0.0
H2018 H 0.43995 0.47582 0.88145 0.0
C2019 C 0.54184 0.58993 0.88555 0.0
C2020 C 0.48477 0.55146 0.88879 0.0
H2021 H 0.45721 0.50503 0.91047 0.0
C2022 C 0.47038 0.54871 0.87507 0.0
C2023 C 0.47999 0.53558 0.90177 0.0
C2024 C 0.49458 0.538 0.9172 0.0
C2025 C 0.45141 0.53039 0.87382 0.0
C2026 C 0.44658 0.51454 0.88684 0.0
C2027 C 0.46099 0.51723 0.90052 0.0
C2028 C 0.42657 0.4951 0.88651 0.0
C2029 C 0.43686 0.52798 0.85835 0.0
C2030 C 0.40815 0.4953 0.88926 0.0
C2031 C 0.38926 0.47699 0.88858 0.0
C2032 C 0.38847 0.45815 0.88525 0.0
C2033 C 0.40696 0.45794 0.88283 0.0
C2034 C 0.42587 0.47628 0.88351 0.0
H2035 H 0.44489 0.53913 0.84697 0.0
H2036 H 0.42932 0.51215 0.85257 0.0
H2037 H 0.42467 0.53082 0.86382 0.0
H2038 H 0.4084 0.50963 0.89195 0.0
H2039 H 0.37527 0.47761 0.89062 0.0
loop_
_geom_bond_atom_site_label_1
_geom_bond_atom_site_label_2
_geom_bond_distance
_geom_bond_site_symmetry_2
_ccdc_geom_bond_type
In0 O1 2.294 . S
In0 O2 2.326 . S
In0 O6 2.266 . S
In0 O7 2.326 . S
In0 O8 2.266 . S
In0 O9 2.326 . S
In0 O11 2.294 . S
In0 O12 2.326 . S
O1 In0 2.294 . S
O1 C10 1.240 . S
O2 In0 2.326 . S
O2 C10 1.252 . S
C3 O6 1.252 . S
C3 O7 1.260 . S
C4 O11 1.240 . S
C4 O12 1.252 . S
C5 O8 1.252 . S
C5 O9 1.260 . S
O6 In0 2.266 . S
O6 C3 1.252 . S
O7 In0 2.326 . S
O7 C3 1.260 . S
O8 In0 2.266 . S
O8 C5 1.252 . S
O9 In0 2.326 . S
O9 C5 1.260 . S
C10 O1 1.240 . S
C10 O2 1.252 . S
O11 In0 2.294 . S
O11 C4 1.240 . S
O12 In0 2.326 . S
O12 C4 1.252 . S
In13 O14 2.294 . S
In13 O15 2.326 . S
In13 O19 2.266 . S
In13 O20 2.326 . S
In13 O21 2.266 . S
In13 O22 2.326 . S
In13 O24 2.294 . S
In13 O25 2.326 . S
O14 In13 2.294 . S
O14 C23 1.240 . S
O15 In13 2.326 . S
O15 C23 1.252 . S
C16 O19 1.252 . S
C16 O20 1.260 . S
C17 O24 1.240 . S
C17 O25 1.252 . S
C18 O21 1.252 . S
C18 O22 1.260 . S
O19 In13 2.266 . S
O19 C16 1.252 . S
O20 In13 2.326 . S
O20 C16 1.260 . S
O21 In13 2.266 . S
O21 C18 1.252 . S
O22 In13 2.326 . S
O22 C18 1.260 . S
C23 O14 1.240 . S
C23 O15 1.252 . S
O24 In13 2.294 . S
O24 C17 1.240 . S
O25 In13 2.326 . S
O25 C17 1.252 . S
In26 O27 2.294 . S
In26 O28 2.326 . S
In26 O32 2.266 . S
In26 O33 2.326 . S
In26 O34 2.266 . S
In26 O35 2.326 . S
In26 O37 2.294 . S
In26 O38 2.326 . S
O27 In26 2.294 . S
O27 C36 1.240 . S
O28 In26 2.326 . S
O28 C36 1.252 . S
C29 O32 1.252 . S
C29 O33 1.260 . S
C30 O37 1.240 . S
C30 O38 1.252 . S
C31 O34 1.252 . S
C31 O35 1.260 . S
O32 In26 2.266 . S
O32 C29 1.252 . S
O33 In26 2.326 . S
O33 C29 1.260 . S
O34 In26 2.266 . S
O34 C31 1.252 . S
O35 In26 2.326 . S
O35 C31 1.260 . S
C36 O27 1.240 . S
C36 O28 1.252 . S
O37 In26 2.294 . S
O37 C30 1.240 . S
O38 In26 2.326 . S
O38 C30 1.252 . S
In39 O40 2.294 . S
In39 O41 2.326 . S
In39 O45 2.266 . S
In39 O46 2.326 . S
In39 O47 2.266 . S
In39 O48 2.326 . S
In39 O50 2.294 . S
In39 O51 2.326 . S
O40 In39 2.294 . S
O40 C49 1.240 . S
O41 In39 2.326 . S
O41 C49 1.252 . S
C42 O45 1.252 . S
C42 O46 1.260 . S
C43 O50 1.240 . S
C43 O51 1.252 . S
C44 O47 1.252 . S
C44 O48 1.260 . S
O45 In39 2.266 . S
O45 C42 1.252 . S
O46 In39 2.326 . S
O46 C42 1.260 . S
O47 In39 2.266 . S
O47 C44 1.252 . S
O48 In39 2.326 . S
O48 C44 1.260 . S
C49 O40 1.240 . S
C49 O41 1.252 . S
O50 In39 2.294 . S
O50 C43 1.240 . S
O51 In39 2.326 . S
O51 C43 1.252 . S
In52 O53 2.294 . S
In52 O54 2.326 . S
In52 O58 2.266 . S
In52 O59 2.326 . S
In52 O60 2.266 . S
In52 O61 2.326 . S
In52 O63 2.294 . S
In52 O64 2.326 . S
O53 In52 2.294 . S
O53 C62 1.240 . S
O54 In52 2.326 . S
O54 C62 1.252 . S
C55 O58 1.252 . S
C55 O59 1.260 . S
C56 O63 1.240 . S
C56 O64 1.252 . S
C57 O60 1.252 . S
C57 O61 1.260 . S
O58 In52 2.266 . S
O58 C55 1.252 . S
O59 In52 2.326 . S
O59 C55 1.260 . S
O60 In52 2.266 . S
O60 C57 1.252 . S
O61 In52 2.326 . S
O61 C57 1.260 . S
C62 O53 1.240 . S
C62 O54 1.252 . S
O63 In52 2.294 . S
O63 C56 1.240 . S
O64 In52 2.326 . S
O64 C56 1.252 . S
In65 O66 2.294 . S
In65 O67 2.326 . S
In65 O71 2.266 . S
In65 O72 2.326 . S
In65 O73 2.266 . S
In65 O74 2.326 . S
In65 O76 2.294 . S
In65 O77 2.326 . S
O66 In65 2.294 . S
O66 C75 1.240 . S
O67 In65 2.326 . S
O67 C75 1.252 . S
C68 O71 1.252 . S
C68 O72 1.260 . S
C69 O76 1.240 . S
C69 O77 1.252 . S
C70 O73 1.252 . S
C70 O74 1.260 . S
O71 In65 2.266 . S
O71 C68 1.252 . S
O72 In65 2.326 . S
O72 C68 1.260 . S
O73 In65 2.266 . S
O73 C70 1.252 . S
O74 In65 2.326 . S
O74 C70 1.260 . S
C75 O66 1.240 . S
C75 O67 1.252 . S
O76 In65 2.294 . S
O76 C69 1.240 . S
O77 In65 2.326 . S
O77 C69 1.252 . S
In78 O79 2.294 . S
In78 O80 2.326 . S
In78 O84 2.266 . S
In78 O85 2.326 . S
In78 O86 2.266 . S
In78 O87 2.326 . S
In78 O89 2.294 . S
In78 O90 2.326 . S
O79 In78 2.294 . S
O79 C88 1.240 . S
O80 In78 2.326 . S
O80 C88 1.252 . S
C81 O84 1.252 . S
C81 O85 1.260 . S
C82 O89 1.240 . S
C82 O90 1.252 . S
C83 O86 1.252 . S
C83 O87 1.260 . S
O84 In78 2.266 . S
O84 C81 1.252 . S
O85 In78 2.326 . S
O85 C81 1.260 . S
O86 In78 2.266 . S
O86 C83 1.252 . S
O87 In78 2.326 . S
O87 C83 1.260 . S
C88 O79 1.240 . S
C88 O80 1.252 . S
O89 In78 2.294 . S
O89 C82 1.240 . S
O90 In78 2.326 . S
O90 C82 1.252 . S
In91 O92 2.294 . S
In91 O93 2.326 . S
In91 O97 2.266 . S
In91 O98 2.326 . S
In91 O99 2.266 . S
In91 O100 2.326 . S
In91 O102 2.294 . S
In91 O103 2.326 . S
O92 In91 2.294 . S
O92 C101 1.240 . S
O93 In91 2.326 . S
O93 C101 1.252 . S
C94 O97 1.252 . S
C94 O98 1.260 . S
C95 O102 1.240 . S
C95 O103 1.252 . S
C96 O99 1.252 . S
C96 O100 1.260 . S
O97 In91 2.266 . S
O97 C94 1.252 . S
O98 In91 2.326 . S
O98 C94 1.260 . S
O99 In91 2.266 . S
O99 C96 1.252 . S
O100 In91 2.326 . S
O100 C96 1.260 . S
C101 O92 1.240 . S
C101 O93 1.252 . S
O102 In91 2.294 . S
O102 C95 1.240 . S
O103 In91 2.326 . S
O103 C95 1.252 . S
In104 O105 2.294 . S
In104 O106 2.326 . S
In104 O110 2.266 . S
In104 O111 2.326 . S
In104 O112 2.266 . S
In104 O113 2.326 . S
In104 O115 2.294 . S
In104 O116 2.326 . S
O105 In104 2.294 . S
O105 C114 1.240 . S
O106 In104 2.326 . S
O106 C114 1.252 . S
C107 O110 1.252 . S
C107 O111 1.260 . S
C108 O115 1.240 . S
C108 O116 1.252 . S
C109 O112 1.252 . S
C109 O113 1.260 . S
O110 In104 2.266 . S
O110 C107 1.252 . S
O111 In104 2.326 . S
O111 C107 1.260 . S
O112 In104 2.266 . S
O112 C109 1.252 . S
O113 In104 2.326 . S
O113 C109 1.260 . S
C114 O105 1.240 . S
C114 O106 1.252 . S
O115 In104 2.294 . S
O115 C108 1.240 . S
O116 In104 2.326 . S
O116 C108 1.252 . S
In117 O118 2.294 . S
In117 O119 2.326 . S
In117 O123 2.266 . S
In117 O124 2.326 . S
In117 O125 2.266 . S
In117 O126 2.326 . S
In117 O128 2.294 . S
In117 O129 2.326 . S
O118 In117 2.294 . S
O118 C127 1.240 . S
O119 In117 2.326 . S
O119 C127 1.252 . S
C120 O123 1.252 . S
C120 O124 1.260 . S
C121 O128 1.240 . S
C121 O129 1.252 . S
C122 O125 1.252 . S
C122 O126 1.260 . S
O123 In117 2.266 . S
O123 C120 1.252 . S
O124 In117 2.326 . S
O124 C120 1.260 . S
O125 In117 2.266 . S
O125 C122 1.252 . S
O126 In117 2.326 . S
O126 C122 1.260 . S
C127 O118 1.240 . S
C127 O119 1.252 . S
O128 In117 2.294 . S
O128 C121 1.240 . S
O129 In117 2.326 . S
O129 C121 1.252 . S
In130 O131 2.294 . S
In130 O132 2.326 . S
In130 O136 2.266 . S
In130 O137 2.326 . S
In130 O138 2.266 . S
In130 O139 2.326 . S
In130 O141 2.294 . S
In130 O142 2.326 . S
O131 In130 2.294 . S
O131 C140 1.240 . S
O132 In130 2.326 . S
O132 C140 1.252 . S
C133 O136 1.252 . S
C133 O137 1.260 . S
C134 O141 1.240 . S
C134 O142 1.252 . S
C135 O138 1.252 . S
C135 O139 1.260 . S
O136 In130 2.266 . S
O136 C133 1.252 . S
O137 In130 2.326 . S
O137 C133 1.260 . S
O138 In130 2.266 . S
O138 C135 1.252 . S
O139 In130 2.326 . S
O139 C135 1.260 . S
C140 O131 1.240 . S
C140 O132 1.252 . S
O141 In130 2.294 . S
O141 C134 1.240 . S
O142 In130 2.326 . S
O142 C134 1.252 . S
In143 O144 2.294 . S
In143 O145 2.326 . S
In143 O149 2.266 . S
In143 O150 2.326 . S
In143 O151 2.266 . S
In143 O152 2.326 . S
In143 O154 2.294 . S
In143 O155 2.326 . S
O144 In143 2.294 . S
O144 C153 1.240 . S
O145 In143 2.326 . S
O145 C153 1.252 . S
C146 O149 1.252 . S
C146 O150 1.260 . S
C147 O154 1.240 . S
C147 O155 1.252 . S
C148 O151 1.252 . S
C148 O152 1.260 . S
O149 In143 2.266 . S
O149 C146 1.252 . S
O150 In143 2.326 . S
O150 C146 1.260 . S
O151 In143 2.266 . S
O151 C148 1.252 . S
O152 In143 2.326 . S
O152 C148 1.260 . S
C153 O144 1.240 . S
C153 O145 1.252 . S
O154 In143 2.294 . S
O154 C147 1.240 . S
O155 In143 2.326 . S
O155 C147 1.252 . S
In156 O157 2.294 . S
In156 O158 2.326 . S
In156 O162 2.266 . S
In156 O163 2.326 . S
In156 O164 2.266 . S
In156 O165 2.326 . S
In156 O167 2.294 . S
In156 O168 2.326 . S
O157 In156 2.294 . S
O157 C166 1.240 . S
O158 In156 2.326 . S
O158 C166 1.252 . S
C159 O162 1.252 . S
C159 O163 1.260 . S
C160 O167 1.240 . S
C160 O168 1.252 . S
C161 O164 1.252 . S
C161 O165 1.260 . S
O162 In156 2.266 . S
O162 C159 1.252 . S
O163 In156 2.326 . S
O163 C159 1.260 . S
O164 In156 2.266 . S
O164 C161 1.252 . S
O165 In156 2.326 . S
O165 C161 1.260 . S
C166 O157 1.240 . S
C166 O158 1.252 . S
O167 In156 2.294 . S
O167 C160 1.240 . S
O168 In156 2.326 . S
O168 C160 1.252 . S
In169 O170 2.294 . S
In169 O171 2.326 . S
In169 O175 2.266 . S
In169 O176 2.326 . S
In169 O177 2.266 . S
In169 O178 2.326 . S
In169 O180 2.294 . S
In169 O181 2.326 . S
O170 In169 2.294 . S
O170 C179 1.240 . S
O171 In169 2.326 . S
O171 C179 1.252 . S
C172 O175 1.252 . S
C172 O176 1.260 . S
C173 O180 1.240 . S
C173 O181 1.252 . S
C174 O177 1.252 . S
C174 O178 1.260 . S
O175 In169 2.266 . S
O175 C172 1.252 . S
O176 In169 2.326 . S
O176 C172 1.260 . S
O177 In169 2.266 . S
O177 C174 1.252 . S
O178 In169 2.326 . S
O178 C174 1.260 . S
C179 O170 1.240 . S
C179 O171 1.252 . S
O180 In169 2.294 . S
O180 C173 1.240 . S
O181 In169 2.326 . S
O181 C173 1.252 . S
In182 O183 2.294 . S
In182 O184 2.326 . S
In182 O188 2.266 . S
In182 O189 2.326 . S
In182 O190 2.266 . S
In182 O191 2.326 . S
In182 O193 2.294 . S
In182 O194 2.326 . S
O183 In182 2.294 . S
O183 C192 1.240 . S
O184 In182 2.326 . S
O184 C192 1.252 . S
C185 O188 1.252 . S
C185 O189 1.260 . S
C186 O193 1.240 . S
C186 O194 1.252 . S
C187 O190 1.252 . S
C187 O191 1.260 . S
O188 In182 2.266 . S
O188 C185 1.252 . S
O189 In182 2.326 . S
O189 C185 1.260 . S
O190 In182 2.266 . S
O190 C187 1.252 . S
O191 In182 2.326 . S
O191 C187 1.260 . S
C192 O183 1.240 . S
C192 O184 1.252 . S
O193 In182 2.294 . S
O193 C186 1.240 . S
O194 In182 2.326 . S
O194 C186 1.252 . S
In195 O196 2.294 . S
In195 O197 2.326 . S
In195 O201 2.266 . S
In195 O202 2.326 . S
In195 O203 2.266 . S
In195 O204 2.326 . S
In195 O206 2.294 . S
In195 O207 2.326 . S
O196 In195 2.294 . S
O196 C205 1.240 . S
O197 In195 2.326 . S
O197 C205 1.252 . S
C198 O201 1.252 . S
C198 O202 1.260 . S
C199 O206 1.240 . S
C199 O207 1.252 . S
C200 O203 1.252 . S
C200 O204 1.260 . S
O201 In195 2.266 . S
O201 C198 1.252 . S
O202 In195 2.326 . S
O202 C198 1.260 . S
O203 In195 2.266 . S
O203 C200 1.252 . S
O204 In195 2.326 . S
O204 C200 1.260 . S
C205 O196 1.240 . S
C205 O197 1.252 . S
O206 In195 2.294 . S
O206 C199 1.240 . S
O207 In195 2.326 . S
O207 C199 1.252 . S
In208 O209 2.294 . S
In208 O210 2.326 . S
In208 O214 2.266 . S
In208 O215 2.326 . S
In208 O216 2.266 . S
In208 O217 2.326 . S
In208 O219 2.294 . S
In208 O220 2.326 . S
O209 In208 2.294 . S
O209 C218 1.240 . S
O210 In208 2.326 . S
O210 C218 1.252 . S
C211 O214 1.252 . S
C211 O215 1.260 . S
C212 O219 1.240 . S
C212 O220 1.252 . S
C213 O216 1.252 . S
C213 O217 1.260 . S
O214 In208 2.266 . S
O214 C211 1.252 . S
O215 In208 2.326 . S
O215 C211 1.260 . S
O216 In208 2.266 . S
O216 C213 1.252 . S
O217 In208 2.326 . S
O217 C213 1.260 . S
C218 O209 1.240 . S
C218 O210 1.252 . S
O219 In208 2.294 . S
O219 C212 1.240 . S
O220 In208 2.326 . S
O220 C212 1.252 . S
In221 O222 2.294 . S
In221 O223 2.326 . S
In221 O227 2.266 . S
In221 O228 2.326 . S
In221 O229 2.266 . S
In221 O230 2.326 . S
In221 O232 2.294 . S
In221 O233 2.326 . S
O222 In221 2.294 . S
O222 C231 1.240 . S
O223 In221 2.326 . S
O223 C231 1.252 . S
C224 O227 1.252 . S
C224 O228 1.260 . S
C225 O232 1.240 . S
C225 O233 1.252 . S
C226 O229 1.252 . S
C226 O230 1.260 . S
O227 In221 2.266 . S
O227 C224 1.252 . S
O228 In221 2.326 . S
O228 C224 1.260 . S
O229 In221 2.266 . S
O229 C226 1.252 . S
O230 In221 2.326 . S
O230 C226 1.260 . S
C231 O222 1.240 . S
C231 O223 1.252 . S
O232 In221 2.294 . S
O232 C225 1.240 . S
O233 In221 2.326 . S
O233 C225 1.252 . S
In234 O235 2.294 . S
In234 O236 2.326 . S
In234 O240 2.266 . S
In234 O241 2.326 . S
In234 O242 2.266 . S
In234 O243 2.326 . S
In234 O245 2.294 . S
In234 O246 2.326 . S
O235 In234 2.294 . S
O235 C244 1.240 . S
O236 In234 2.326 . S
O236 C244 1.252 . S
C237 O240 1.252 . S
C237 O241 1.260 . S
C238 O245 1.240 . S
C238 O246 1.252 . S
C239 O242 1.252 . S
C239 O243 1.260 . S
O240 In234 2.266 . S
O240 C237 1.252 . S
O241 In234 2.326 . S
O241 C237 1.260 . S
O242 In234 2.266 . S
O242 C239 1.252 . S
O243 In234 2.326 . S
O243 C239 1.260 . S
C244 O235 1.240 . S
C244 O236 1.252 . S
O245 In234 2.294 . S
O245 C238 1.240 . S
O246 In234 2.326 . S
O246 C238 1.252 . S
In247 O248 2.294 . S
In247 O249 2.326 . S
In247 O253 2.266 . S
In247 O254 2.326 . S
In247 O255 2.266 . S
In247 O256 2.326 . S
In247 O258 2.294 . S
In247 O259 2.326 . S
O248 In247 2.294 . S
O248 C257 1.240 . S
O249 In247 2.326 . S
O249 C257 1.252 . S
C250 O253 1.252 . S
C250 O254 1.260 . S
C251 O258 1.240 . S
C251 O259 1.252 . S
C252 O255 1.252 . S
C252 O256 1.260 . S
O253 In247 2.266 . S
O253 C250 1.252 . S
O254 In247 2.326 . S
O254 C250 1.260 . S
O255 In247 2.266 . S
O255 C252 1.252 . S
O256 In247 2.326 . S
O256 C252 1.260 . S
C257 O248 1.240 . S
C257 O249 1.252 . S
O258 In247 2.294 . S
O258 C251 1.240 . S
O259 In247 2.326 . S
O259 C251 1.252 . S
In260 O261 2.294 . S
In260 O262 2.326 . S
In260 O266 2.266 . S
In260 O267 2.326 . S
In260 O268 2.266 . S
In260 O269 2.326 . S
In260 O271 2.294 . S
In260 O272 2.326 . S
O261 In260 2.294 . S
O261 C270 1.240 . S
O262 In260 2.326 . S
O262 C270 1.252 . S
C263 O266 1.252 . S
C263 O267 1.260 . S
C264 O271 1.240 . S
C264 O272 1.252 . S
C265 O268 1.252 . S
C265 O269 1.260 . S
O266 In260 2.266 . S
O266 C263 1.252 . S
O267 In260 2.326 . S
O267 C263 1.260 . S
O268 In260 2.266 . S
O268 C265 1.252 . S
O269 In260 2.326 . S
O269 C265 1.260 . S
C270 O261 1.240 . S
C270 O262 1.252 . S
O271 In260 2.294 . S
O271 C264 1.240 . S
O272 In260 2.326 . S
O272 C264 1.252 . S
In273 O274 2.294 . S
In273 O275 2.326 . S
In273 O279 2.266 . S
In273 O280 2.326 . S
In273 O281 2.266 . S
In273 O282 2.326 . S
In273 O284 2.294 . S
In273 O285 2.326 . S
O274 In273 2.294 . S
O274 C283 1.240 . S
O275 In273 2.326 . S
O275 C283 1.252 . S
C276 O279 1.252 . S
C276 O280 1.260 . S
C277 O284 1.240 . S
C277 O285 1.252 . S
C278 O281 1.252 . S
C278 O282 1.260 . S
O279 In273 2.266 . S
O279 C276 1.252 . S
O280 In273 2.326 . S
O280 C276 1.260 . S
O281 In273 2.266 . S
O281 C278 1.252 . S
O282 In273 2.326 . S
O282 C278 1.260 . S
C283 O274 1.240 . S
C283 O275 1.252 . S
O284 In273 2.294 . S
O284 C277 1.240 . S
O285 In273 2.326 . S
O285 C277 1.252 . S
In286 O287 2.294 . S
In286 O288 2.326 . S
In286 O292 2.266 . S
In286 O293 2.326 . S
In286 O294 2.266 . S
In286 O295 2.326 . S
In286 O297 2.294 . S
In286 O298 2.326 . S
O287 In286 2.294 . S
O287 C296 1.240 . S
O288 In286 2.326 . S
O288 C296 1.252 . S
C289 O292 1.252 . S
C289 O293 1.260 . S
C290 O297 1.240 . S
C290 O298 1.252 . S
C291 O294 1.252 . S
C291 O295 1.260 . S
O292 In286 2.266 . S
O292 C289 1.252 . S
O293 In286 2.326 . S
O293 C289 1.260 . S
O294 In286 2.266 . S
O294 C291 1.252 . S
O295 In286 2.326 . S
O295 C291 1.260 . S
C296 O287 1.240 . S
C296 O288 1.252 . S
O297 In286 2.294 . S
O297 C290 1.240 . S
O298 In286 2.326 . S
O298 C290 1.252 . S
In299 O300 2.294 . S
In299 O301 2.326 . S
In299 O305 2.266 . S
In299 O306 2.326 . S
In299 O307 2.266 . S
In299 O308 2.326 . S
In299 O310 2.294 . S
In299 O311 2.326 . S
O300 In299 2.294 . S
O300 C309 1.240 . S
O301 In299 2.326 . S
O301 C309 1.252 . S
C302 O305 1.252 . S
C302 O306 1.260 . S
C303 O310 1.240 . S
C303 O311 1.252 . S
C304 O307 1.252 . S
C304 O308 1.260 . S
O305 In299 2.266 . S
O305 C302 1.252 . S
O306 In299 2.326 . S
O306 C302 1.260 . S
O307 In299 2.266 . S
O307 C304 1.252 . S
O308 In299 2.326 . S
O308 C304 1.260 . S
C309 O300 1.240 . S
C309 O301 1.252 . S
O310 In299 2.294 . S
O310 C303 1.240 . S
O311 In299 2.326 . S
O311 C303 1.252 . S
H312 C320 0.929 . S
H313 C322 0.930 . S
H314 C324 0.930 . S
H315 C327 0.929 . S
H316 C330 0.930 . S
H317 C332 0.960 . S
H318 C332 0.960 . S
H319 C332 0.960 . S
C320 H312 0.929 . S
C320 C321 1.377 . S
C320 C322 1.384 . S
C321 C320 1.377 . S
C321 C327 1.390 . S
C322 H313 0.930 . S
C322 C320 1.384 . S
C322 C323 1.372 . S
C323 C322 1.372 . S
C323 C324 1.400 . S
C323 C328 1.490 . S
C324 H314 0.930 . S
C324 C323 1.400 . S
C324 C327 1.386 . S
H325 C341 0.930 . S
H326 C342 0.931 . S
C327 H315 0.929 . S
C327 C321 1.390 . S
C327 C324 1.386 . S
C328 C323 1.490 . S
C328 C330 1.395 . S
C328 C331 1.403 . S
H329 C335 0.930 . S
C330 H316 0.930 . S
C330 C328 1.395 . S
C330 C333 1.403 . S
C331 C328 1.403 . S
C331 C332 1.524 . S
C331 C335 1.400 . S
C332 H317 0.960 . S
C332 H318 0.960 . S
C332 H319 0.960 . S
C332 C331 1.524 . S
C333 C330 1.403 . S
C333 C334 1.392 . S
C333 C337 1.495 . S
C334 C333 1.392 . S
C334 C335 1.385 . S
C334 C336 1.478 . S
C335 H329 0.930 . S
C335 C331 1.400 . S
C335 C334 1.385 . S
C336 C334 1.478 . S
C336 C338 1.381 . S
C336 C342 1.383 . S
C337 C333 1.495 . S
C337 H343 0.959 . S
C337 H344 0.961 . S
C337 H345 0.960 . S
C338 C336 1.381 . S
C338 C339 1.394 . S
C338 H346 0.930 . S
C339 C338 1.394 . S
C339 C340 1.383 . S
C339 H347 0.929 . S
C340 C339 1.383 . S
C340 C341 1.377 . S
C341 H325 0.930 . S
C341 C340 1.377 . S
C341 C342 1.379 . S
C342 H326 0.931 . S
C342 C336 1.383 . S
C342 C341 1.379 . S
H343 C337 0.959 . S
H344 C337 0.961 . S
H345 C337 0.960 . S
H346 C338 0.930 . S
H347 C339 0.929 . S
H348 C356 0.929 . S
H349 C358 0.930 . S
H350 C360 0.930 . S
H351 C363 0.929 . S
H352 C366 0.930 . S
H353 C368 0.960 . S
H354 C368 0.960 . S
H355 C368 0.960 . S
C356 H348 0.929 . S
C356 C357 1.377 . S
C356 C358 1.384 . S
C357 C356 1.377 . S
C357 C363 1.390 . S
C358 H349 0.930 . S
C358 C356 1.384 . S
C358 C359 1.372 . S
C359 C358 1.372 . S
C359 C360 1.400 . S
C359 C364 1.490 . S
C360 H350 0.930 . S
C360 C359 1.400 . S
C360 C363 1.386 . S
H361 C377 0.930 . S
H362 C378 0.931 . S
C363 H351 0.929 . S
C363 C357 1.390 . S
C363 C360 1.386 . S
C364 C359 1.490 . S
C364 C366 1.395 . S
C364 C367 1.403 . S
H365 C371 0.930 . S
C366 H352 0.930 . S
C366 C364 1.395 . S
C366 C369 1.403 . S
C367 C364 1.403 . S
C367 C368 1.524 . S
C367 C371 1.400 . S
C368 H353 0.960 . S
C368 H354 0.960 . S
C368 H355 0.960 . S
C368 C367 1.524 . S
C369 C366 1.403 . S
C369 C370 1.392 . S
C369 C373 1.495 . S
C370 C369 1.392 . S
C370 C371 1.385 . S
C370 C372 1.478 . S
C371 H365 0.930 . S
C371 C367 1.400 . S
C371 C370 1.385 . S
C372 C370 1.478 . S
C372 C374 1.381 . S
C372 C378 1.383 . S
C373 C369 1.495 . S
C373 H379 0.959 . S
C373 H380 0.961 . S
C373 H381 0.960 . S
C374 C372 1.381 . S
C374 C375 1.394 . S
C374 H382 0.930 . S
C375 C374 1.394 . S
C375 C376 1.383 . S
C375 H383 0.929 . S
C376 C375 1.383 . S
C376 C377 1.377 . S
C377 H361 0.930 . S
C377 C376 1.377 . S
C377 C378 1.379 . S
C378 H362 0.931 . S
C378 C372 1.383 . S
C378 C377 1.379 . S
H379 C373 0.959 . S
H380 C373 0.961 . S
H381 C373 0.960 . S
H382 C374 0.930 . S
H383 C375 0.929 . S
H384 C392 0.929 . S
H385 C394 0.930 . S
H386 C396 0.930 . S
H387 C399 0.929 . S
H388 C402 0.930 . S
H389 C404 0.960 . S
H390 C404 0.960 . S
H391 C404 0.960 . S
C392 H384 0.929 . S
C392 C393 1.377 . S
C392 C394 1.384 . S
C393 C392 1.377 . S
C393 C399 1.390 . S
C394 H385 0.930 . S
C394 C392 1.384 . S
C394 C395 1.372 . S
C395 C394 1.372 . S
C395 C396 1.400 . S
C395 C400 1.490 . S
C396 H386 0.930 . S
C396 C395 1.400 . S
C396 C399 1.386 . S
H397 C413 0.930 . S
H398 C414 0.931 . S
C399 H387 0.929 . S
C399 C393 1.390 . S
C399 C396 1.386 . S
C400 C395 1.490 . S
C400 C402 1.395 . S
C400 C403 1.403 . S
H401 C407 0.930 . S
C402 H388 0.930 . S
C402 C400 1.395 . S
C402 C405 1.403 . S
C403 C400 1.403 . S
C403 C404 1.524 . S
C403 C407 1.400 . S
C404 H389 0.960 . S
C404 H390 0.960 . S
C404 H391 0.960 . S
C404 C403 1.524 . S
C405 C402 1.403 . S
C405 C406 1.392 . S
C405 C409 1.495 . S
C406 C405 1.392 . S
C406 C407 1.385 . S
C406 C408 1.478 . S
C407 H401 0.930 . S
C407 C403 1.400 . S
C407 C406 1.385 . S
C408 C406 1.478 . S
C408 C410 1.381 . S
C408 C414 1.383 . S
C409 C405 1.495 . S
C409 H415 0.959 . S
C409 H416 0.961 . S
C409 H417 0.960 . S
C410 C408 1.381 . S
C410 C411 1.394 . S
C410 H418 0.930 . S
C411 C410 1.394 . S
C411 C412 1.383 . S
C411 H419 0.929 . S
C412 C411 1.383 . S
C412 C413 1.377 . S
C413 H397 0.930 . S
C413 C412 1.377 . S
C413 C414 1.379 . S
C414 H398 0.931 . S
C414 C408 1.383 . S
C414 C413 1.379 . S
H415 C409 0.959 . S
H416 C409 0.961 . S
H417 C409 0.960 . S
H418 C410 0.930 . S
H419 C411 0.929 . S
H420 C428 0.929 . S
H421 C430 0.930 . S
H422 C432 0.930 . S
H423 C435 0.929 . S
H424 C438 0.930 . S
H425 C440 0.960 . S
H426 C440 0.960 . S
H427 C440 0.960 . S
C428 H420 0.929 . S
C428 C429 1.377 . S
C428 C430 1.384 . S
C429 C428 1.377 . S
C429 C435 1.390 . S
C430 H421 0.930 . S
C430 C428 1.384 . S
C430 C431 1.372 . S
C431 C430 1.372 . S
C431 C432 1.400 . S
C431 C436 1.490 . S
C432 H422 0.930 . S
C432 C431 1.400 . S
C432 C435 1.386 . S
H433 C449 0.930 . S
H434 C450 0.931 . S
C435 H423 0.929 . S
C435 C429 1.390 . S
C435 C432 1.386 . S
C436 C431 1.490 . S
C436 C438 1.395 . S
C436 C439 1.403 . S
H437 C443 0.930 . S
C438 H424 0.930 . S
C438 C436 1.395 . S
C438 C441 1.403 . S
C439 C436 1.403 . S
C439 C440 1.524 . S
C439 C443 1.400 . S
C440 H425 0.960 . S
C440 H426 0.960 . S
C440 H427 0.960 . S
C440 C439 1.524 . S
C441 C438 1.403 . S
C441 C442 1.392 . S
C441 C445 1.495 . S
C442 C441 1.392 . S
C442 C443 1.385 . S
C442 C444 1.478 . S
C443 H437 0.930 . S
C443 C439 1.400 . S
C443 C442 1.385 . S
C444 C442 1.478 . S
C444 C446 1.381 . S
C444 C450 1.383 . S
C445 C441 1.495 . S
C445 H451 0.959 . S
C445 H452 0.961 . S
C445 H453 0.960 . S
C446 C444 1.381 . S
C446 C447 1.394 . S
C446 H454 0.930 . S
C447 C446 1.394 . S
C447 C448 1.383 . S
C447 H455 0.929 . S
C448 C447 1.383 . S
C448 C449 1.377 . S
C449 H433 0.930 . S
C449 C448 1.377 . S
C449 C450 1.379 . S
C450 H434 0.931 . S
C450 C444 1.383 . S
C450 C449 1.379 . S
H451 C445 0.959 . S
H452 C445 0.961 . S
H453 C445 0.960 . S
H454 C446 0.930 . S
H455 C447 0.929 . S
H456 C464 0.929 . S
H457 C466 0.930 . S
H458 C468 0.930 . S
H459 C471 0.929 . S
H460 C474 0.930 . S
H461 C476 0.960 . S
H462 C476 0.960 . S
H463 C476 0.960 . S
C464 H456 0.929 . S
C464 C465 1.377 . S
C464 C466 1.384 . S
C465 C464 1.377 . S
C465 C471 1.390 . S
C466 H457 0.930 . S
C466 C464 1.384 . S
C466 C467 1.372 . S
C467 C466 1.372 . S
C467 C468 1.400 . S
C467 C472 1.490 . S
C468 H458 0.930 . S
C468 C467 1.400 . S
C468 C471 1.386 . S
H469 C485 0.930 . S
H470 C486 0.931 . S
C471 H459 0.929 . S
C471 C465 1.390 . S
C471 C468 1.386 . S
C472 C467 1.490 . S
C472 C474 1.395 . S
C472 C475 1.403 . S
H473 C479 0.930 . S
C474 H460 0.930 . S
C474 C472 1.395 . S
C474 C477 1.403 . S
C475 C472 1.403 . S
C475 C476 1.524 . S
C475 C479 1.400 . S
C476 H461 0.960 . S
C476 H462 0.960 . S
C476 H463 0.960 . S
C476 C475 1.524 . S
C477 C474 1.403 . S
C477 C478 1.392 . S
C477 C481 1.495 . S
C478 C477 1.392 . S
C478 C479 1.385 . S
C478 C480 1.478 . S
C479 H473 0.930 . S
C479 C475 1.400 . S
C479 C478 1.385 . S
C480 C478 1.478 . S
C480 C482 1.381 . S
C480 C486 1.383 . S
C481 C477 1.495 . S
C481 H487 0.959 . S
C481 H488 0.961 . S
C481 H489 0.960 . S
C482 C480 1.381 . S
C482 C483 1.394 . S
C482 H490 0.930 . S
C483 C482 1.394 . S
C483 C484 1.383 . S
C483 H491 0.929 . S
C484 C483 1.383 . S
C484 C485 1.377 . S
C485 H469 0.930 . S
C485 C484 1.377 . S
C485 C486 1.379 . S
C486 H470 0.931 . S
C486 C480 1.383 . S
C486 C485 1.379 . S
H487 C481 0.959 . S
H488 C481 0.961 . S
H489 C481 0.960 . S
H490 C482 0.930 . S
H491 C483 0.929 . S
H492 C500 0.929 . S
H493 C502 0.930 . S
H494 C504 0.930 . S
H495 C507 0.929 . S
H496 C510 0.930 . S
H497 C512 0.960 . S
H498 C512 0.960 . S
H499 C512 0.960 . S
C500 H492 0.929 . S
C500 C501 1.377 . S
C500 C502 1.384 . S
C501 C500 1.377 . S
C501 C507 1.390 . S
C502 H493 0.930 . S
C502 C500 1.384 . S
C502 C503 1.372 . S
C503 C502 1.372 . S
C503 C504 1.400 . S
C503 C508 1.490 . S
C504 H494 0.930 . S
C504 C503 1.400 . S
C504 C507 1.386 . S
H505 C521 0.930 . S
H506 C522 0.931 . S
C507 H495 0.929 . S
C507 C501 1.390 . S
C507 C504 1.386 . S
C508 C503 1.490 . S
C508 C510 1.395 . S
C508 C511 1.403 . S
H509 C515 0.930 . S
C510 H496 0.930 . S
C510 C508 1.395 . S
C510 C513 1.403 . S
C511 C508 1.403 . S
C511 C512 1.524 . S
C511 C515 1.400 . S
C512 H497 0.960 . S
C512 H498 0.960 . S
C512 H499 0.960 . S
C512 C511 1.524 . S
C513 C510 1.403 . S
C513 C514 1.392 . S
C513 C517 1.495 . S
C514 C513 1.392 . S
C514 C515 1.385 . S
C514 C516 1.478 . S
C515 H509 0.930 . S
C515 C511 1.400 . S
C515 C514 1.385 . S
C516 C514 1.478 . S
C516 C518 1.381 . S
C516 C522 1.383 . S
C517 C513 1.495 . S
C517 H523 0.959 . S
C517 H524 0.961 . S
C517 H525 0.960 . S
C518 C516 1.381 . S
C518 C519 1.394 . S
C518 H526 0.930 . S
C519 C518 1.394 . S
C519 C520 1.383 . S
C519 H527 0.929 . S
C520 C519 1.383 . S
C520 C521 1.377 . S
C521 H505 0.930 . S
C521 C520 1.377 . S
C521 C522 1.379 . S
C522 H506 0.931 . S
C522 C516 1.383 . S
C522 C521 1.379 . S
H523 C517 0.959 . S
H524 C517 0.961 . S
H525 C517 0.960 . S
H526 C518 0.930 . S
H527 C519 0.929 . S
H528 C536 0.929 . S
H529 C538 0.930 . S
H530 C540 0.930 . S
H531 C543 0.929 . S
H532 C546 0.930 . S
H533 C548 0.960 . S
H534 C548 0.960 . S
H535 C548 0.960 . S
C536 H528 0.929 . S
C536 C537 1.377 . S
C536 C538 1.384 . S
C537 C536 1.377 . S
C537 C543 1.390 . S
C538 H529 0.930 . S
C538 C536 1.384 . S
C538 C539 1.372 . S
C539 C538 1.372 . S
C539 C540 1.400 . S
C539 C544 1.490 . S
C540 H530 0.930 . S
C540 C539 1.400 . S
C540 C543 1.386 . S
H541 C557 0.930 . S
H542 C558 0.931 . S
C543 H531 0.929 . S
C543 C537 1.390 . S
C543 C540 1.386 . S
C544 C539 1.490 . S
C544 C546 1.395 . S
C544 C547 1.403 . S
H545 C551 0.930 . S
C546 H532 0.930 . S
C546 C544 1.395 . S
C546 C549 1.403 . S
C547 C544 1.403 . S
C547 C548 1.524 . S
C547 C551 1.400 . S
C548 H533 0.960 . S
C548 H534 0.960 . S
C548 H535 0.960 . S
C548 C547 1.524 . S
C549 C546 1.403 . S
C549 C550 1.392 . S
C549 C553 1.495 . S
C550 C549 1.392 . S
C550 C551 1.385 . S
C550 C552 1.478 . S
C551 H545 0.930 . S
C551 C547 1.400 . S
C551 C550 1.385 . S
C552 C550 1.478 . S
C552 C554 1.381 . S
C552 C558 1.383 . S
C553 C549 1.495 . S
C553 H559 0.959 . S
C553 H560 0.961 . S
C553 H561 0.960 . S
C554 C552 1.381 . S
C554 C555 1.394 . S
C554 H562 0.930 . S
C555 C554 1.394 . S
C555 C556 1.383 . S
C555 H563 0.929 . S
C556 C555 1.383 . S
C556 C557 1.377 . S
C557 H541 0.930 . S
C557 C556 1.377 . S
C557 C558 1.379 . S
C558 H542 0.931 . S
C558 C552 1.383 . S
C558 C557 1.379 . S
H559 C553 0.959 . S
H560 C553 0.961 . S
H561 C553 0.960 . S
H562 C554 0.930 . S
H563 C555 0.929 . S
H564 C572 0.929 . S
H565 C574 0.930 . S
H566 C576 0.930 . S
H567 C579 0.929 . S
H568 C582 0.930 . S
H569 C584 0.960 . S
H570 C584 0.960 . S
H571 C584 0.960 . S
C572 H564 0.929 . S
C572 C573 1.377 . S
C572 C574 1.384 . S
C573 C572 1.377 . S
C573 C579 1.390 . S
C574 H565 0.930 . S
C574 C572 1.384 . S
C574 C575 1.372 . S
C575 C574 1.372 . S
C575 C576 1.400 . S
C575 C580 1.490 . S
C576 H566 0.930 . S
C576 C575 1.400 . S
C576 C579 1.386 . S
H577 C593 0.930 . S
H578 C594 0.931 . S
C579 H567 0.929 . S
C579 C573 1.390 . S
C579 C576 1.386 . S
C580 C575 1.490 . S
C580 C582 1.395 . S
C580 C583 1.403 . S
H581 C587 0.930 . S
C582 H568 0.930 . S
C582 C580 1.395 . S
C582 C585 1.403 . S
C583 C580 1.403 . S
C583 C584 1.524 . S
C583 C587 1.400 . S
C584 H569 0.960 . S
C584 H570 0.960 . S
C584 H571 0.960 . S
C584 C583 1.524 . S
C585 C582 1.403 . S
C585 C586 1.392 . S
C585 C589 1.495 . S
C586 C585 1.392 . S
C586 C587 1.385 . S
C586 C588 1.478 . S
C587 H581 0.930 . S
C587 C583 1.400 . S
C587 C586 1.385 . S
C588 C586 1.478 . S
C588 C590 1.381 . S
C588 C594 1.383 . S
C589 C585 1.495 . S
C589 H595 0.959 . S
C589 H596 0.961 . S
C589 H597 0.960 . S
C590 C588 1.381 . S
C590 C591 1.394 . S
C590 H598 0.930 . S
C591 C590 1.394 . S
C591 C592 1.383 . S
C591 H599 0.929 . S
C592 C591 1.383 . S
C592 C593 1.377 . S
C593 H577 0.930 . S
C593 C592 1.377 . S
C593 C594 1.379 . S
C594 H578 0.931 . S
C594 C588 1.383 . S
C594 C593 1.379 . S
H595 C589 0.959 . S
H596 C589 0.961 . S
H597 C589 0.960 . S
H598 C590 0.930 . S
H599 C591 0.929 . S
H600 C608 0.929 . S
H601 C610 0.930 . S
H602 C612 0.930 . S
H603 C615 0.929 . S
H604 C618 0.930 . S
H605 C620 0.960 . S
H606 C620 0.960 . S
H607 C620 0.960 . S
C608 H600 0.929 . S
C608 C609 1.377 . S
C608 C610 1.384 . S
C609 C608 1.377 . S
C609 C615 1.390 . S
C610 H601 0.930 . S
C610 C608 1.384 . S
C610 C611 1.372 . S
C611 C610 1.372 . S
C611 C612 1.400 . S
C611 C616 1.490 . S
C612 H602 0.930 . S
C612 C611 1.400 . S
C612 C615 1.386 . S
H613 C629 0.930 . S
H614 C630 0.931 . S
C615 H603 0.929 . S
C615 C609 1.390 . S
C615 C612 1.386 . S
C616 C611 1.490 . S
C616 C618 1.395 . S
C616 C619 1.403 . S
H617 C623 0.930 . S
C618 H604 0.930 . S
C618 C616 1.395 . S
C618 C621 1.403 . S
C619 C616 1.403 . S
C619 C620 1.524 . S
C619 C623 1.400 . S
C620 H605 0.960 . S
C620 H606 0.960 . S
C620 H607 0.960 . S
C620 C619 1.524 . S
C621 C618 1.403 . S
C621 C622 1.392 . S
C621 C625 1.495 . S
C622 C621 1.392 . S
C622 C623 1.385 . S
C622 C624 1.478 . S
C623 H617 0.930 . S
C623 C619 1.400 . S
C623 C622 1.385 . S
C624 C622 1.478 . S
C624 C626 1.381 . S
C624 C630 1.383 . S
C625 C621 1.495 . S
C625 H631 0.959 . S
C625 H632 0.961 . S
C625 H633 0.960 . S
C626 C624 1.381 . S
C626 C627 1.394 . S
C626 H634 0.930 . S
C627 C626 1.394 . S
C627 C628 1.383 . S
C627 H635 0.929 . S
C628 C627 1.383 . S
C628 C629 1.377 . S
C629 H613 0.930 . S
C629 C628 1.377 . S
C629 C630 1.379 . S
C630 H614 0.931 . S
C630 C624 1.383 . S
C630 C629 1.379 . S
H631 C625 0.959 . S
H632 C625 0.961 . S
H633 C625 0.960 . S
H634 C626 0.930 . S
H635 C627 0.929 . S
H636 C644 0.929 . S
H637 C646 0.930 . S
H638 C648 0.930 . S
H639 C651 0.929 . S
H640 C654 0.930 . S
H641 C656 0.960 . S
H642 C656 0.960 . S
H643 C656 0.960 . S
C644 H636 0.929 . S
C644 C645 1.377 . S
C644 C646 1.384 . S
C645 C644 1.377 . S
C645 C651 1.390 . S
C646 H637 0.930 . S
C646 C644 1.384 . S
C646 C647 1.372 . S
C647 C646 1.372 . S
C647 C648 1.400 . S
C647 C652 1.490 . S
C648 H638 0.930 . S
C648 C647 1.400 . S
C648 C651 1.386 . S
H649 C665 0.930 . S
H650 C666 0.931 . S
C651 H639 0.929 . S
C651 C645 1.390 . S
C651 C648 1.386 . S
C652 C647 1.490 . S
C652 C654 1.395 . S
C652 C655 1.403 . S
H653 C659 0.930 . S
C654 H640 0.930 . S
C654 C652 1.395 . S
C654 C657 1.403 . S
C655 C652 1.403 . S
C655 C656 1.524 . S
C655 C659 1.400 . S
C656 H641 0.960 . S
C656 H642 0.960 . S
C656 H643 0.960 . S
C656 C655 1.524 . S
C657 C654 1.403 . S
C657 C658 1.392 . S
C657 C661 1.495 . S
C658 C657 1.392 . S
C658 C659 1.385 . S
C658 C660 1.478 . S
C659 H653 0.930 . S
C659 C655 1.400 . S
C659 C658 1.385 . S
C660 C658 1.478 . S
C660 C662 1.381 . S
C660 C666 1.383 . S
C661 C657 1.495 . S
C661 H667 0.959 . S
C661 H668 0.961 . S
C661 H669 0.960 . S
C662 C660 1.381 . S
C662 C663 1.394 . S
C662 H670 0.930 . S
C663 C662 1.394 . S
C663 C664 1.383 . S
C663 H671 0.929 . S
C664 C663 1.383 . S
C664 C665 1.377 . S
C665 H649 0.930 . S
C665 C664 1.377 . S
C665 C666 1.379 . S
C666 H650 0.931 . S
C666 C660 1.383 . S
C666 C665 1.379 . S
H667 C661 0.959 . S
H668 C661 0.961 . S
H669 C661 0.960 . S
H670 C662 0.930 . S
H671 C663 0.929 . S
H672 C680 0.929 . S
H673 C682 0.930 . S
H674 C684 0.930 . S
H675 C687 0.929 . S
H676 C690 0.930 . S
H677 C692 0.960 . S
H678 C692 0.960 . S
H679 C692 0.960 . S
C680 H672 0.929 . S
C680 C681 1.377 . S
C680 C682 1.384 . S
C681 C680 1.377 . S
C681 C687 1.390 . S
C682 H673 0.930 . S
C682 C680 1.384 . S
C682 C683 1.372 . S
C683 C682 1.372 . S
C683 C684 1.400 . S
C683 C688 1.490 . S
C684 H674 0.930 . S
C684 C683 1.400 . S
C684 C687 1.386 . S
H685 C701 0.930 . S
H686 C702 0.931 . S
C687 H675 0.929 . S
C687 C681 1.390 . S
C687 C684 1.386 . S
C688 C683 1.490 . S
C688 C690 1.395 . S
C688 C691 1.403 . S
H689 C695 0.930 . S
C690 H676 0.930 . S
C690 C688 1.395 . S
C690 C693 1.403 . S
C691 C688 1.403 . S
C691 C692 1.524 . S
C691 C695 1.400 . S
C692 H677 0.960 . S
C692 H678 0.960 . S
C692 H679 0.960 . S
C692 C691 1.524 . S
C693 C690 1.403 . S
C693 C694 1.392 . S
C693 C697 1.495 . S
C694 C693 1.392 . S
C694 C695 1.385 . S
C694 C696 1.478 . S
C695 H689 0.930 . S
C695 C691 1.400 . S
C695 C694 1.385 . S
C696 C694 1.478 . S
C696 C698 1.381 . S
C696 C702 1.383 . S
C697 C693 1.495 . S
C697 H703 0.959 . S
C697 H704 0.961 . S
C697 H705 0.960 . S
C698 C696 1.381 . S
C698 C699 1.394 . S
C698 H706 0.930 . S
C699 C698 1.394 . S
C699 C700 1.383 . S
C699 H707 0.929 . S
C700 C699 1.383 . S
C700 C701 1.377 . S
C701 H685 0.930 . S
C701 C700 1.377 . S
C701 C702 1.379 . S
C702 H686 0.931 . S
C702 C696 1.383 . S
C702 C701 1.379 . S
H703 C697 0.959 . S
H704 C697 0.961 . S
H705 C697 0.960 . S
H706 C698 0.930 . S
H707 C699 0.929 . S
H708 C716 0.929 . S
H709 C718 0.930 . S
H710 C720 0.930 . S
H711 C723 0.929 . S
H712 C726 0.930 . S
H713 C728 0.960 . S
H714 C728 0.960 . S
H715 C728 0.960 . S
C716 H708 0.929 . S
C716 C717 1.377 . S
C716 C718 1.384 . S
C717 C716 1.377 . S
C717 C723 1.390 . S
C718 H709 0.930 . S
C718 C716 1.384 . S
C718 C719 1.372 . S
C719 C718 1.372 . S
C719 C720 1.400 . S
C719 C724 1.490 . S
C720 H710 0.930 . S
C720 C719 1.400 . S
C720 C723 1.386 . S
H721 C737 0.930 . S
H722 C738 0.931 . S
C723 H711 0.929 . S
C723 C717 1.390 . S
C723 C720 1.386 . S
C724 C719 1.490 . S
C724 C726 1.395 . S
C724 C727 1.403 . S
H725 C731 0.930 . S
C726 H712 0.930 . S
C726 C724 1.395 . S
C726 C729 1.403 . S
C727 C724 1.403 . S
C727 C728 1.524 . S
C727 C731 1.400 . S
C728 H713 0.960 . S
C728 H714 0.960 . S
C728 H715 0.960 . S
C728 C727 1.524 . S
C729 C726 1.403 . S
C729 C730 1.392 . S
C729 C733 1.495 . S
C730 C729 1.392 . S
C730 C731 1.385 . S
C730 C732 1.478 . S
C731 H725 0.930 . S
C731 C727 1.400 . S
C731 C730 1.385 . S
C732 C730 1.478 . S
C732 C734 1.381 . S
C732 C738 1.383 . S
C733 C729 1.495 . S
C733 H739 0.959 . S
C733 H740 0.961 . S
C733 H741 0.960 . S
C734 C732 1.381 . S
C734 C735 1.394 . S
C734 H742 0.930 . S
C735 C734 1.394 . S
C735 C736 1.383 . S
C735 H743 0.929 . S
C736 C735 1.383 . S
C736 C737 1.377 . S
C737 H721 0.930 . S
C737 C736 1.377 . S
C737 C738 1.379 . S
C738 H722 0.931 . S
C738 C732 1.383 . S
C738 C737 1.379 . S
H739 C733 0.959 . S
H740 C733 0.961 . S
H741 C733 0.960 . S
H742 C734 0.930 . S
H743 C735 0.929 . S
H744 C752 0.929 . S
H745 C754 0.930 . S
H746 C756 0.930 . S
H747 C759 0.929 . S
H748 C762 0.930 . S
H749 C764 0.960 . S
H750 C764 0.960 . S
H751 C764 0.960 . S
C752 H744 0.929 . S
C752 C753 1.377 . S
C752 C754 1.384 . S
C753 C752 1.377 . S
C753 C759 1.390 . S
C754 H745 0.930 . S
C754 C752 1.384 . S
C754 C755 1.372 . S
C755 C754 1.372 . S
C755 C756 1.400 . S
C755 C760 1.490 . S
C756 H746 0.930 . S
C756 C755 1.400 . S
C756 C759 1.386 . S
H757 C773 0.930 . S
H758 C774 0.931 . S
C759 H747 0.929 . S
C759 C753 1.390 . S
C759 C756 1.386 . S
C760 C755 1.490 . S
C760 C762 1.395 . S
C760 C763 1.403 . S
H761 C767 0.930 . S
C762 H748 0.930 . S
C762 C760 1.395 . S
C762 C765 1.403 . S
C763 C760 1.403 . S
C763 C764 1.524 . S
C763 C767 1.400 . S
C764 H749 0.960 . S
C764 H750 0.960 . S
C764 H751 0.960 . S
C764 C763 1.524 . S
C765 C762 1.403 . S
C765 C766 1.392 . S
C765 C769 1.495 . S
C766 C765 1.392 . S
C766 C767 1.385 . S
C766 C768 1.478 . S
C767 H761 0.930 . S
C767 C763 1.400 . S
C767 C766 1.385 . S
C768 C766 1.478 . S
C768 C770 1.381 . S
C768 C774 1.383 . S
C769 C765 1.495 . S
C769 H775 0.959 . S
C769 H776 0.961 . S
C769 H777 0.960 . S
C770 C768 1.381 . S
C770 C771 1.394 . S
C770 H778 0.930 . S
C771 C770 1.394 . S
C771 C772 1.383 . S
C771 H779 0.929 . S
C772 C771 1.383 . S
C772 C773 1.377 . S
C773 H757 0.930 . S
C773 C772 1.377 . S
C773 C774 1.379 . S
C774 H758 0.931 . S
C774 C768 1.383 . S
C774 C773 1.379 . S
H775 C769 0.959 . S
H776 C769 0.961 . S
H777 C769 0.960 . S
H778 C770 0.930 . S
H779 C771 0.929 . S
H780 C788 0.929 . S
H781 C790 0.930 . S
H782 C792 0.930 . S
H783 C795 0.929 . S
H784 C798 0.930 . S
H785 C800 0.960 . S
H786 C800 0.960 . S
H787 C800 0.960 . S
C788 H780 0.929 . S
C788 C789 1.377 . S
C788 C790 1.384 . S
C789 C788 1.377 . S
C789 C795 1.390 . S
C790 H781 0.930 . S
C790 C788 1.384 . S
C790 C791 1.372 . S
C791 C790 1.372 . S
C791 C792 1.400 . S
C791 C796 1.490 . S
C792 H782 0.930 . S
C792 C791 1.400 . S
C792 C795 1.386 . S
H793 C809 0.930 . S
H794 C810 0.931 . S
C795 H783 0.929 . S
C795 C789 1.390 . S
C795 C792 1.386 . S
C796 C791 1.490 . S
C796 C798 1.395 . S
C796 C799 1.403 . S
H797 C803 0.930 . S
C798 H784 0.930 . S
C798 C796 1.395 . S
C798 C801 1.403 . S
C799 C796 1.403 . S
C799 C800 1.524 . S
C799 C803 1.400 . S
C800 H785 0.960 . S
C800 H786 0.960 . S
C800 H787 0.960 . S
C800 C799 1.524 . S
C801 C798 1.403 . S
C801 C802 1.392 . S
C801 C805 1.495 . S
C802 C801 1.392 . S
C802 C803 1.385 . S
C802 C804 1.478 . S
C803 H797 0.930 . S
C803 C799 1.400 . S
C803 C802 1.385 . S
C804 C802 1.478 . S
C804 C806 1.381 . S
C804 C810 1.383 . S
C805 C801 1.495 . S
C805 H811 0.959 . S
C805 H812 0.961 . S
C805 H813 0.960 . S
C806 C804 1.381 . S
C806 C807 1.394 . S
C806 H814 0.930 . S
C807 C806 1.394 . S
C807 C808 1.383 . S
C807 H815 0.929 . S
C808 C807 1.383 . S
C808 C809 1.377 . S
C809 H793 0.930 . S
C809 C808 1.377 . S
C809 C810 1.379 . S
C810 H794 0.931 . S
C810 C804 1.383 . S
C810 C809 1.379 . S
H811 C805 0.959 . S
H812 C805 0.961 . S
H813 C805 0.960 . S
H814 C806 0.930 . S
H815 C807 0.929 . S
H816 C824 0.929 . S
H817 C826 0.930 . S
H818 C828 0.930 . S
H819 C831 0.929 . S
H820 C834 0.930 . S
H821 C836 0.960 . S
H822 C836 0.960 . S
H823 C836 0.960 . S
C824 H816 0.929 . S
C824 C825 1.377 . S
C824 C826 1.384 . S
C825 C824 1.377 . S
C825 C831 1.390 . S
C826 H817 0.930 . S
C826 C824 1.384 . S
C826 C827 1.372 . S
C827 C826 1.372 . S
C827 C828 1.400 . S
C827 C832 1.490 . S
C828 H818 0.930 . S
C828 C827 1.400 . S
C828 C831 1.386 . S
H829 C845 0.930 . S
H830 C846 0.931 . S
C831 H819 0.929 . S
C831 C825 1.390 . S
C831 C828 1.386 . S
C832 C827 1.490 . S
C832 C834 1.395 . S
C832 C835 1.403 . S
H833 C839 0.930 . S
C834 H820 0.930 . S
C834 C832 1.395 . S
C834 C837 1.403 . S
C835 C832 1.403 . S
C835 C836 1.524 . S
C835 C839 1.400 . S
C836 H821 0.960 . S
C836 H822 0.960 . S
C836 H823 0.960 . S
C836 C835 1.524 . S
C837 C834 1.403 . S
C837 C838 1.392 . S
C837 C841 1.495 . S
C838 C837 1.392 . S
C838 C839 1.385 . S
C838 C840 1.478 . S
C839 H833 0.930 . S
C839 C835 1.400 . S
C839 C838 1.385 . S
C840 C838 1.478 . S
C840 C842 1.381 . S
C840 C846 1.383 . S
C841 C837 1.495 . S
C841 H847 0.959 . S
C841 H848 0.961 . S
C841 H849 0.960 . S
C842 C840 1.381 . S
C842 C843 1.394 . S
C842 H850 0.930 . S
C843 C842 1.394 . S
C843 C844 1.383 . S
C843 H851 0.929 . S
C844 C843 1.383 . S
C844 C845 1.377 . S
C845 H829 0.930 . S
C845 C844 1.377 . S
C845 C846 1.379 . S
C846 H830 0.931 . S
C846 C840 1.383 . S
C846 C845 1.379 . S
H847 C841 0.959 . S
H848 C841 0.961 . S
H849 C841 0.960 . S
H850 C842 0.930 . S
H851 C843 0.929 . S
H852 C860 0.929 . S
H853 C862 0.930 . S
H854 C864 0.930 . S
H855 C867 0.929 . S
H856 C870 0.930 . S
H857 C872 0.960 . S
H858 C872 0.960 . S
H859 C872 0.960 . S
C860 H852 0.929 . S
C860 C861 1.377 . S
C860 C862 1.384 . S
C861 C860 1.377 . S
C861 C867 1.390 . S
C862 H853 0.930 . S
C862 C860 1.384 . S
C862 C863 1.372 . S
C863 C862 1.372 . S
C863 C864 1.400 . S
C863 C868 1.490 . S
C864 H854 0.930 . S
C864 C863 1.400 . S
C864 C867 1.386 . S
H865 C881 0.930 . S
H866 C882 0.931 . S
C867 H855 0.929 . S
C867 C861 1.390 . S
C867 C864 1.386 . S
C868 C863 1.490 . S
C868 C870 1.395 . S
C868 C871 1.403 . S
H869 C875 0.930 . S
C870 H856 0.930 . S
C870 C868 1.395 . S
C870 C873 1.403 . S
C871 C868 1.403 . S
C871 C872 1.524 . S
C871 C875 1.400 . S
C872 H857 0.960 . S
C872 H858 0.960 . S
C872 H859 0.960 . S
C872 C871 1.524 . S
C873 C870 1.403 . S
C873 C874 1.392 . S
C873 C877 1.495 . S
C874 C873 1.392 . S
C874 C875 1.385 . S
C874 C876 1.478 . S
C875 H869 0.930 . S
C875 C871 1.400 . S
C875 C874 1.385 . S
C876 C874 1.478 . S
C876 C878 1.381 . S
C876 C882 1.383 . S
C877 C873 1.495 . S
C877 H883 0.959 . S
C877 H884 0.961 . S
C877 H885 0.960 . S
C878 C876 1.381 . S
C878 C879 1.394 . S
C878 H886 0.930 . S
C879 C878 1.394 . S
C879 C880 1.383 . S
C879 H887 0.929 . S
C880 C879 1.383 . S
C880 C881 1.377 . S
C881 H865 0.930 . S
C881 C880 1.377 . S
C881 C882 1.379 . S
C882 H866 0.931 . S
C882 C876 1.383 . S
C882 C881 1.379 . S
H883 C877 0.959 . S
H884 C877 0.961 . S
H885 C877 0.960 . S
H886 C878 0.930 . S
H887 C879 0.929 . S
H888 C896 0.929 . S
H889 C898 0.930 . S
H890 C900 0.930 . S
H891 C903 0.929 . S
H892 C906 0.930 . S
H893 C908 0.960 . S
H894 C908 0.960 . S
H895 C908 0.960 . S
C896 H888 0.929 . S
C896 C897 1.377 . S
C896 C898 1.384 . S
C897 C896 1.377 . S
C897 C903 1.390 . S
C898 H889 0.930 . S
C898 C896 1.384 . S
C898 C899 1.372 . S
C899 C898 1.372 . S
C899 C900 1.400 . S
C899 C904 1.490 . S
C900 H890 0.930 . S
C900 C899 1.400 . S
C900 C903 1.386 . S
H901 C917 0.930 . S
H902 C918 0.931 . S
C903 H891 0.929 . S
C903 C897 1.390 . S
C903 C900 1.386 . S
C904 C899 1.490 . S
C904 C906 1.395 . S
C904 C907 1.403 . S
H905 C911 0.930 . S
C906 H892 0.930 . S
C906 C904 1.395 . S
C906 C909 1.403 . S
C907 C904 1.403 . S
C907 C908 1.524 . S
C907 C911 1.400 . S
C908 H893 0.960 . S
C908 H894 0.960 . S
C908 H895 0.960 . S
C908 C907 1.524 . S
C909 C906 1.403 . S
C909 C910 1.392 . S
C909 C913 1.495 . S
C910 C909 1.392 . S
C910 C911 1.385 . S
C910 C912 1.478 . S
C911 H905 0.930 . S
C911 C907 1.400 . S
C911 C910 1.385 . S
C912 C910 1.478 . S
C912 C914 1.381 . S
C912 C918 1.383 . S
C913 C909 1.495 . S
C913 H919 0.959 . S
C913 H920 0.961 . S
C913 H921 0.960 . S
C914 C912 1.381 . S
C914 C915 1.394 . S
C914 H922 0.930 . S
C915 C914 1.394 . S
C915 C916 1.383 . S
C915 H923 0.929 . S
C916 C915 1.383 . S
C916 C917 1.377 . S
C917 H901 0.930 . S
C917 C916 1.377 . S
C917 C918 1.379 . S
C918 H902 0.931 . S
C918 C912 1.383 . S
C918 C917 1.379 . S
H919 C913 0.959 . S
H920 C913 0.961 . S
H921 C913 0.960 . S
H922 C914 0.930 . S
H923 C915 0.929 . S
H924 C932 0.929 . S
H925 C934 0.930 . S
H926 C936 0.930 . S
H927 C939 0.929 . S
H928 C942 0.930 . S
H929 C944 0.960 . S
H930 C944 0.960 . S
H931 C944 0.960 . S
C932 H924 0.929 . S
C932 C933 1.377 . S
C932 C934 1.384 . S
C933 C932 1.377 . S
C933 C939 1.390 . S
C934 H925 0.930 . S
C934 C932 1.384 . S
C934 C935 1.372 . S
C935 C934 1.372 . S
C935 C936 1.400 . S
C935 C940 1.490 . S
C936 H926 0.930 . S
C936 C935 1.400 . S
C936 C939 1.386 . S
H937 C953 0.930 . S
H938 C954 0.931 . S
C939 H927 0.929 . S
C939 C933 1.390 . S
C939 C936 1.386 . S
C940 C935 1.490 . S
C940 C942 1.395 . S
C940 C943 1.403 . S
H941 C947 0.930 . S
C942 H928 0.930 . S
C942 C940 1.395 . S
C942 C945 1.403 . S
C943 C940 1.403 . S
C943 C944 1.524 . S
C943 C947 1.400 . S
C944 H929 0.960 . S
C944 H930 0.960 . S
C944 H931 0.960 . S
C944 C943 1.524 . S
C945 C942 1.403 . S
C945 C946 1.392 . S
C945 C949 1.495 . S
C946 C945 1.392 . S
C946 C947 1.385 . S
C946 C948 1.478 . S
C947 H941 0.930 . S
C947 C943 1.400 . S
C947 C946 1.385 . S
C948 C946 1.478 . S
C948 C950 1.381 . S
C948 C954 1.383 . S
C949 C945 1.495 . S
C949 H955 0.959 . S
C949 H956 0.961 . S
C949 H957 0.960 . S
C950 C948 1.381 . S
C950 C951 1.394 . S
C950 H958 0.930 . S
C951 C950 1.394 . S
C951 C952 1.383 . S
C951 H959 0.929 . S
C952 C951 1.383 . S
C952 C953 1.377 . S
C953 H937 0.930 . S
C953 C952 1.377 . S
C953 C954 1.379 . S
C954 H938 0.931 . S
C954 C948 1.383 . S
C954 C953 1.379 . S
H955 C949 0.959 . S
H956 C949 0.961 . S
H957 C949 0.960 . S
H958 C950 0.930 . S
H959 C951 0.929 . S
H960 C968 0.929 . S
H961 C970 0.930 . S
H962 C972 0.930 . S
H963 C975 0.929 . S
H964 C978 0.930 . S
H965 C980 0.960 . S
H966 C980 0.960 . S
H967 C980 0.960 . S
C968 H960 0.929 . S
C968 C969 1.377 . S
C968 C970 1.384 . S
C969 C968 1.377 . S
C969 C975 1.390 . S
C970 H961 0.930 . S
C970 C968 1.384 . S
C970 C971 1.372 . S
C971 C970 1.372 . S
C971 C972 1.400 . S
C971 C976 1.490 . S
C972 H962 0.930 . S
C972 C971 1.400 . S
C972 C975 1.386 . S
H973 C989 0.930 . S
H974 C990 0.931 . S
C975 H963 0.929 . S
C975 C969 1.390 . S
C975 C972 1.386 . S
C976 C971 1.490 . S
C976 C978 1.395 . S
C976 C979 1.403 . S
H977 C983 0.930 . S
C978 H964 0.930 . S
C978 C976 1.395 . S
C978 C981 1.403 . S
C979 C976 1.403 . S
C979 C980 1.524 . S
C979 C983 1.400 . S
C980 H965 0.960 . S
C980 H966 0.960 . S
C980 H967 0.960 . S
C980 C979 1.524 . S
C981 C978 1.403 . S
C981 C982 1.392 . S
C981 C985 1.495 . S
C982 C981 1.392 . S
C982 C983 1.385 . S
C982 C984 1.478 . S
C983 H977 0.930 . S
C983 C979 1.400 . S
C983 C982 1.385 . S
C984 C982 1.478 . S
C984 C986 1.381 . S
C984 C990 1.383 . S
C985 C981 1.495 . S
C985 H991 0.959 . S
C985 H992 0.961 . S
C985 H993 0.960 . S
C986 C984 1.381 . S
C986 C987 1.394 . S
C986 H994 0.930 . S
C987 C986 1.394 . S
C987 C988 1.383 . S
C987 H995 0.929 . S
C988 C987 1.383 . S
C988 C989 1.377 . S
C989 H973 0.930 . S
C989 C988 1.377 . S
C989 C990 1.379 . S
C990 H974 0.931 . S
C990 C984 1.383 . S
C990 C989 1.379 . S
H991 C985 0.959 . S
H992 C985 0.961 . S
H993 C985 0.960 . S
H994 C986 0.930 . S
H995 C987 0.929 . S
H996 C1004 0.929 . S
H997 C1006 0.930 . S
H998 C1008 0.930 . S
H999 C1011 0.929 . S
H1000 C1014 0.930 . S
H1001 C1016 0.960 . S
H1002 C1016 0.960 . S
H1003 C1016 0.960 . S
C1004 H996 0.929 . S
C1004 C1005 1.377 . S
C1004 C1006 1.384 . S
C1005 C1004 1.377 . S
C1005 C1011 1.390 . S
C1006 H997 0.930 . S
C1006 C1004 1.384 . S
C1006 C1007 1.372 . S
C1007 C1006 1.372 . S
C1007 C1008 1.400 . S
C1007 C1012 1.490 . S
C1008 H998 0.930 . S
C1008 C1007 1.400 . S
C1008 C1011 1.386 . S
H1009 C1025 0.930 . S
H1010 C1026 0.931 . S
C1011 H999 0.929 . S
C1011 C1005 1.390 . S
C1011 C1008 1.386 . S
C1012 C1007 1.490 . S
C1012 C1014 1.395 . S
C1012 C1015 1.403 . S
H1013 C1019 0.930 . S
C1014 H1000 0.930 . S
C1014 C1012 1.395 . S
C1014 C1017 1.403 . S
C1015 C1012 1.403 . S
C1015 C1016 1.524 . S
C1015 C1019 1.400 . S
C1016 H1001 0.960 . S
C1016 H1002 0.960 . S
C1016 H1003 0.960 . S
C1016 C1015 1.524 . S
C1017 C1014 1.403 . S
C1017 C1018 1.392 . S
C1017 C1021 1.495 . S
C1018 C1017 1.392 . S
C1018 C1019 1.385 . S
C1018 C1020 1.478 . S
C1019 H1013 0.930 . S
C1019 C1015 1.400 . S
C1019 C1018 1.385 . S
C1020 C1018 1.478 . S
C1020 C1022 1.381 . S
C1020 C1026 1.383 . S
C1021 C1017 1.495 . S
C1021 H1027 0.959 . S
C1021 H1028 0.961 . S
C1021 H1029 0.960 . S
C1022 C1020 1.381 . S
C1022 C1023 1.394 . S
C1022 H1030 0.930 . S
C1023 C1022 1.394 . S
C1023 C1024 1.383 . S
C1023 H1031 0.929 . S
C1024 C1023 1.383 . S
C1024 C1025 1.377 . S
C1025 H1009 0.930 . S
C1025 C1024 1.377 . S
C1025 C1026 1.379 . S
C1026 H1010 0.931 . S
C1026 C1020 1.383 . S
C1026 C1025 1.379 . S
H1027 C1021 0.959 . S
H1028 C1021 0.961 . S
H1029 C1021 0.960 . S
H1030 C1022 0.930 . S
H1031 C1023 0.929 . S
H1032 C1040 0.929 . S
H1033 C1042 0.930 . S
H1034 C1044 0.930 . S
H1035 C1047 0.929 . S
H1036 C1050 0.930 . S
H1037 C1052 0.960 . S
H1038 C1052 0.960 . S
H1039 C1052 0.960 . S
C1040 H1032 0.929 . S
C1040 C1041 1.377 . S
C1040 C1042 1.384 . S
C1041 C1040 1.377 . S
C1041 C1047 1.390 . S
C1042 H1033 0.930 . S
C1042 C1040 1.384 . S
C1042 C1043 1.372 . S
C1043 C1042 1.372 . S
C1043 C1044 1.400 . S
C1043 C1048 1.490 . S
C1044 H1034 0.930 . S
C1044 C1043 1.400 . S
C1044 C1047 1.386 . S
H1045 C1061 0.930 . S
H1046 C1062 0.931 . S
C1047 H1035 0.929 . S
C1047 C1041 1.390 . S
C1047 C1044 1.386 . S
C1048 C1043 1.490 . S
C1048 C1050 1.395 . S
C1048 C1051 1.403 . S
H1049 C1055 0.930 . S
C1050 H1036 0.930 . S
C1050 C1048 1.395 . S
C1050 C1053 1.403 . S
C1051 C1048 1.403 . S
C1051 C1052 1.524 . S
C1051 C1055 1.400 . S
C1052 H1037 0.960 . S
C1052 H1038 0.960 . S
C1052 H1039 0.960 . S
C1052 C1051 1.524 . S
C1053 C1050 1.403 . S
C1053 C1054 1.392 . S
C1053 C1057 1.495 . S
C1054 C1053 1.392 . S
C1054 C1055 1.385 . S
C1054 C1056 1.478 . S
C1055 H1049 0.930 . S
C1055 C1051 1.400 . S
C1055 C1054 1.385 . S
C1056 C1054 1.478 . S
C1056 C1058 1.381 . S
C1056 C1062 1.383 . S
C1057 C1053 1.495 . S
C1057 H1063 0.959 . S
C1057 H1064 0.961 . S
C1057 H1065 0.960 . S
C1058 C1056 1.381 . S
C1058 C1059 1.394 . S
C1058 H1066 0.930 . S
C1059 C1058 1.394 . S
C1059 C1060 1.383 . S
C1059 H1067 0.929 . S
C1060 C1059 1.383 . S
C1060 C1061 1.377 . S
C1061 H1045 0.930 . S
C1061 C1060 1.377 . S
C1061 C1062 1.379 . S
C1062 H1046 0.931 . S
C1062 C1056 1.383 . S
C1062 C1061 1.379 . S
H1063 C1057 0.959 . S
H1064 C1057 0.961 . S
H1065 C1057 0.960 . S
H1066 C1058 0.930 . S
H1067 C1059 0.929 . S
H1068 C1076 0.929 . S
H1069 C1078 0.930 . S
H1070 C1080 0.930 . S
H1071 C1083 0.929 . S
H1072 C1086 0.930 . S
H1073 C1088 0.960 . S
H1074 C1088 0.960 . S
H1075 C1088 0.960 . S
C1076 H1068 0.929 . S
C1076 C1077 1.377 . S
C1076 C1078 1.384 . S
C1077 C1076 1.377 . S
C1077 C1083 1.390 . S
C1078 H1069 0.930 . S
C1078 C1076 1.384 . S
C1078 C1079 1.372 . S
C1079 C1078 1.372 . S
C1079 C1080 1.400 . S
C1079 C1084 1.490 . S
C1080 H1070 0.930 . S
C1080 C1079 1.400 . S
C1080 C1083 1.386 . S
H1081 C1097 0.930 . S
H1082 C1098 0.931 . S
C1083 H1071 0.929 . S
C1083 C1077 1.390 . S
C1083 C1080 1.386 . S
C1084 C1079 1.490 . S
C1084 C1086 1.395 . S
C1084 C1087 1.403 . S
H1085 C1091 0.930 . S
C1086 H1072 0.930 . S
C1086 C1084 1.395 . S
C1086 C1089 1.403 . S
C1087 C1084 1.403 . S
C1087 C1088 1.524 . S
C1087 C1091 1.400 . S
C1088 H1073 0.960 . S
C1088 H1074 0.960 . S
C1088 H1075 0.960 . S
C1088 C1087 1.524 . S
C1089 C1086 1.403 . S
C1089 C1090 1.392 . S
C1089 C1093 1.495 . S
C1090 C1089 1.392 . S
C1090 C1091 1.385 . S
C1090 C1092 1.478 . S
C1091 H1085 0.930 . S
C1091 C1087 1.400 . S
C1091 C1090 1.385 . S
C1092 C1090 1.478 . S
C1092 C1094 1.381 . S
C1092 C1098 1.383 . S
C1093 C1089 1.495 . S
C1093 H1099 0.959 . S
C1093 H1100 0.961 . S
C1093 H1101 0.960 . S
C1094 C1092 1.381 . S
C1094 C1095 1.394 . S
C1094 H1102 0.930 . S
C1095 C1094 1.394 . S
C1095 C1096 1.383 . S
C1095 H1103 0.929 . S
C1096 C1095 1.383 . S
C1096 C1097 1.377 . S
C1097 H1081 0.930 . S
C1097 C1096 1.377 . S
C1097 C1098 1.379 . S
C1098 H1082 0.931 . S
C1098 C1092 1.383 . S
C1098 C1097 1.379 . S
H1099 C1093 0.959 . S
H1100 C1093 0.961 . S
H1101 C1093 0.960 . S
H1102 C1094 0.930 . S
H1103 C1095 0.929 . S
H1104 C1112 0.929 . S
H1105 C1114 0.930 . S
H1106 C1116 0.930 . S
H1107 C1119 0.929 . S
H1108 C1122 0.930 . S
H1109 C1124 0.960 . S
H1110 C1124 0.960 . S
H1111 C1124 0.960 . S
C1112 H1104 0.929 . S
C1112 C1113 1.377 . S
C1112 C1114 1.384 . S
C1113 C1112 1.377 . S
C1113 C1119 1.390 . S
C1114 H1105 0.930 . S
C1114 C1112 1.384 . S
C1114 C1115 1.372 . S
C1115 C1114 1.372 . S
C1115 C1116 1.400 . S
C1115 C1120 1.490 . S
C1116 H1106 0.930 . S
C1116 C1115 1.400 . S
C1116 C1119 1.386 . S
H1117 C1133 0.930 . S
H1118 C1134 0.931 . S
C1119 H1107 0.929 . S
C1119 C1113 1.390 . S
C1119 C1116 1.386 . S
C1120 C1115 1.490 . S
C1120 C1122 1.395 . S
C1120 C1123 1.403 . S
H1121 C1127 0.930 . S
C1122 H1108 0.930 . S
C1122 C1120 1.395 . S
C1122 C1125 1.403 . S
C1123 C1120 1.403 . S
C1123 C1124 1.524 . S
C1123 C1127 1.400 . S
C1124 H1109 0.960 . S
C1124 H1110 0.960 . S
C1124 H1111 0.960 . S
C1124 C1123 1.524 . S
C1125 C1122 1.403 . S
C1125 C1126 1.392 . S
C1125 C1129 1.495 . S
C1126 C1125 1.392 . S
C1126 C1127 1.385 . S
C1126 C1128 1.478 . S
C1127 H1121 0.930 . S
C1127 C1123 1.400 . S
C1127 C1126 1.385 . S
C1128 C1126 1.478 . S
C1128 C1130 1.381 . S
C1128 C1134 1.383 . S
C1129 C1125 1.495 . S
C1129 H1135 0.959 . S
C1129 H1136 0.961 . S
C1129 H1137 0.960 . S
C1130 C1128 1.381 . S
C1130 C1131 1.394 . S
C1130 H1138 0.930 . S
C1131 C1130 1.394 . S
C1131 C1132 1.383 . S
C1131 H1139 0.929 . S
C1132 C1131 1.383 . S
C1132 C1133 1.377 . S
C1133 H1117 0.930 . S
C1133 C1132 1.377 . S
C1133 C1134 1.379 . S
C1134 H1118 0.931 . S
C1134 C1128 1.383 . S
C1134 C1133 1.379 . S
H1135 C1129 0.959 . S
H1136 C1129 0.961 . S
H1137 C1129 0.960 . S
H1138 C1130 0.930 . S
H1139 C1131 0.929 . S
H1140 C1148 0.929 . S
H1141 C1150 0.930 . S
H1142 C1152 0.930 . S
H1143 C1155 0.929 . S
H1144 C1158 0.930 . S
H1145 C1160 0.960 . S
H1146 C1160 0.960 . S
H1147 C1160 0.960 . S
C1148 H1140 0.929 . S
C1148 C1149 1.377 . S
C1148 C1150 1.384 . S
C1149 C1148 1.377 . S
C1149 C1155 1.390 . S
C1150 H1141 0.930 . S
C1150 C1148 1.384 . S
C1150 C1151 1.372 . S
C1151 C1150 1.372 . S
C1151 C1152 1.400 . S
C1151 C1156 1.490 . S
C1152 H1142 0.930 . S
C1152 C1151 1.400 . S
C1152 C1155 1.386 . S
H1153 C1169 0.930 . S
H1154 C1170 0.931 . S
C1155 H1143 0.929 . S
C1155 C1149 1.390 . S
C1155 C1152 1.386 . S
C1156 C1151 1.490 . S
C1156 C1158 1.395 . S
C1156 C1159 1.403 . S
H1157 C1163 0.930 . S
C1158 H1144 0.930 . S
C1158 C1156 1.395 . S
C1158 C1161 1.403 . S
C1159 C1156 1.403 . S
C1159 C1160 1.524 . S
C1159 C1163 1.400 . S
C1160 H1145 0.960 . S
C1160 H1146 0.960 . S
C1160 H1147 0.960 . S
C1160 C1159 1.524 . S
C1161 C1158 1.403 . S
C1161 C1162 1.392 . S
C1161 C1165 1.495 . S
C1162 C1161 1.392 . S
C1162 C1163 1.385 . S
C1162 C1164 1.478 . S
C1163 H1157 0.930 . S
C1163 C1159 1.400 . S
C1163 C1162 1.385 . S
C1164 C1162 1.478 . S
C1164 C1166 1.381 . S
C1164 C1170 1.383 . S
C1165 C1161 1.495 . S
C1165 H1171 0.959 . S
C1165 H1172 0.961 . S
C1165 H1173 0.960 . S
C1166 C1164 1.381 . S
C1166 C1167 1.394 . S
C1166 H1174 0.930 . S
C1167 C1166 1.394 . S
C1167 C1168 1.383 . S
C1167 H1175 0.929 . S
C1168 C1167 1.383 . S
C1168 C1169 1.377 . S
C1169 H1153 0.930 . S
C1169 C1168 1.377 . S
C1169 C1170 1.379 . S
C1170 H1154 0.931 . S
C1170 C1164 1.383 . S
C1170 C1169 1.379 . S
H1171 C1165 0.959 . S
H1172 C1165 0.961 . S
H1173 C1165 0.960 . S
H1174 C1166 0.930 . S
H1175 C1167 0.929 . S
H1176 C1184 0.929 . S
H1177 C1186 0.930 . S
H1178 C1188 0.930 1_545 S
H1179 C1191 0.929 . S
H1180 C1194 0.930 . S
H1181 C1196 0.960 . S
H1182 C1196 0.960 . S
H1183 C1196 0.960 . S
C1184 H1176 0.929 . S
C1184 C1185 1.377 . S
C1184 C1186 1.384 . S
C1185 C1184 1.377 . S
C1185 C1191 1.390 . S
C1186 H1177 0.930 . S
C1186 C1184 1.384 . S
C1186 C1187 1.372 . S
C1187 C1186 1.372 . S
C1187 C1188 1.400 . S
C1187 C1192 1.490 . S
C1188 H1178 0.930 1_565 S
C1188 C1187 1.400 . S
C1188 C1191 1.386 . S
H1189 C1205 0.930 . S
H1190 C1206 0.931 . S
C1191 H1179 0.929 . S
C1191 C1185 1.390 . S
C1191 C1188 1.386 . S
C1192 C1187 1.490 . S
C1192 C1194 1.395 . S
C1192 C1195 1.403 1_565 S
H1193 C1199 0.930 . S
C1194 H1180 0.930 . S
C1194 C1192 1.395 . S
C1194 C1197 1.403 1_556 S
C1195 C1192 1.403 1_545 S
C1195 C1196 1.524 . S
C1195 C1199 1.400 1_556 S
C1196 H1181 0.960 . S
C1196 H1182 0.960 . S
C1196 H1183 0.960 . S
C1196 C1195 1.524 . S
C1197 C1194 1.403 1_554 S
C1197 C1198 1.392 1_565 S
C1197 C1201 1.495 . S
C1198 C1197 1.392 1_545 S
C1198 C1199 1.385 . S
C1198 C1200 1.478 . S
C1199 H1193 0.930 . S
C1199 C1195 1.400 1_554 S
C1199 C1198 1.385 . S
C1200 C1198 1.478 . S
C1200 C1202 1.381 . S
C1200 C1206 1.383 . S
C1201 C1197 1.495 . S
C1201 H1207 0.959 . S
C1201 H1208 0.961 . S
C1201 H1209 0.960 . S
C1202 C1200 1.381 . S
C1202 C1203 1.394 . S
C1202 H1210 0.930 1_545 S
C1203 C1202 1.394 . S
C1203 C1204 1.383 . S
C1203 H1211 0.929 . S
C1204 C1203 1.383 . S
C1204 C1205 1.377 . S
C1205 H1189 0.930 . S
C1205 C1204 1.377 . S
C1205 C1206 1.379 . S
C1206 H1190 0.931 . S
C1206 C1200 1.383 . S
C1206 C1205 1.379 . S
H1207 C1201 0.959 . S
H1208 C1201 0.961 . S
H1209 C1201 0.960 . S
H1210 C1202 0.930 1_565 S
H1211 C1203 0.929 . S
H1212 C1220 0.929 . S
H1213 C1222 0.930 . S
H1214 C1224 0.930 . S
H1215 C1227 0.929 . S
H1216 C1230 0.930 . S
H1217 C1232 0.960 . S
H1218 C1232 0.960 . S
H1219 C1232 0.960 . S
C1220 H1212 0.929 . S
C1220 C1221 1.377 . S
C1220 C1222 1.384 . S
C1221 C1220 1.377 . S
C1221 C1227 1.390 . S
C1222 H1213 0.930 . S
C1222 C1220 1.384 . S
C1222 C1223 1.372 . S
C1223 C1222 1.372 . S
C1223 C1224 1.400 . S
C1223 C1228 1.490 . S
C1224 H1214 0.930 . S
C1224 C1223 1.400 . S
C1224 C1227 1.386 . S
H1225 C1241 0.930 . S
H1226 C1242 0.931 . S
C1227 H1215 0.929 . S
C1227 C1221 1.390 . S
C1227 C1224 1.386 . S
C1228 C1223 1.490 . S
C1228 C1230 1.395 . S
C1228 C1231 1.403 . S
H1229 C1235 0.930 . S
C1230 H1216 0.930 . S
C1230 C1228 1.395 . S
C1230 C1233 1.403 . S
C1231 C1228 1.403 . S
C1231 C1232 1.524 . S
C1231 C1235 1.400 . S
C1232 H1217 0.960 . S
C1232 H1218 0.960 . S
C1232 H1219 0.960 . S
C1232 C1231 1.524 . S
C1233 C1230 1.403 . S
C1233 C1234 1.392 . S
C1233 C1237 1.495 . S
C1234 C1233 1.392 . S
C1234 C1235 1.385 . S
C1234 C1236 1.478 . S
C1235 H1229 0.930 . S
C1235 C1231 1.400 . S
C1235 C1234 1.385 . S
C1236 C1234 1.478 . S
C1236 C1238 1.381 . S
C1236 C1242 1.383 . S
C1237 C1233 1.495 . S
C1237 H1243 0.959 . S
C1237 H1244 0.961 . S
C1237 H1245 0.960 . S
C1238 C1236 1.381 . S
C1238 C1239 1.394 . S
C1238 H1246 0.930 . S
C1239 C1238 1.394 . S
C1239 C1240 1.383 . S
C1239 H1247 0.929 . S
C1240 C1239 1.383 . S
C1240 C1241 1.377 . S
C1241 H1225 0.930 . S
C1241 C1240 1.377 . S
C1241 C1242 1.379 . S
C1242 H1226 0.931 . S
C1242 C1236 1.383 . S
C1242 C1241 1.379 . S
H1243 C1237 0.959 . S
H1244 C1237 0.961 . S
H1245 C1237 0.960 . S
H1246 C1238 0.930 . S
H1247 C1239 0.929 . S
H1248 C1256 0.929 . S
H1249 C1258 0.930 . S
H1250 C1260 0.930 . S
H1251 C1263 0.929 . S
H1252 C1266 0.930 . S
H1253 C1268 0.960 . S
H1254 C1268 0.960 . S
H1255 C1268 0.960 . S
C1256 H1248 0.929 . S
C1256 C1257 1.377 . S
C1256 C1258 1.384 . S
C1257 C1256 1.377 . S
C1257 C1263 1.390 . S
C1258 H1249 0.930 . S
C1258 C1256 1.384 . S
C1258 C1259 1.372 . S
C1259 C1258 1.372 . S
C1259 C1260 1.400 . S
C1259 C1264 1.490 . S
C1260 H1250 0.930 . S
C1260 C1259 1.400 . S
C1260 C1263 1.386 . S
H1261 C1277 0.930 . S
H1262 C1278 0.931 . S
C1263 H1251 0.929 . S
C1263 C1257 1.390 . S
C1263 C1260 1.386 . S
C1264 C1259 1.490 . S
C1264 C1266 1.395 . S
C1264 C1267 1.403 1_455 S
H1265 C1271 0.930 . S
C1266 H1252 0.930 . S
C1266 C1264 1.395 . S
C1266 C1269 1.403 1_556 S
C1267 C1264 1.403 1_655 S
C1267 C1268 1.524 . S
C1267 C1271 1.400 1_556 S
C1268 H1253 0.960 . S
C1268 H1254 0.960 . S
C1268 H1255 0.960 . S
C1268 C1267 1.524 . S
C1269 C1266 1.403 1_554 S
C1269 C1270 1.392 1_455 S
C1269 C1273 1.495 . S
C1270 C1269 1.392 1_655 S
C1270 C1271 1.385 . S
C1270 C1272 1.478 . S
C1271 H1265 0.930 . S
C1271 C1267 1.400 1_554 S
C1271 C1270 1.385 . S
C1272 C1270 1.478 . S
C1272 C1274 1.381 . S
C1272 C1278 1.383 . S
C1273 C1269 1.495 . S
C1273 H1279 0.959 . S
C1273 H1280 0.961 . S
C1273 H1281 0.960 . S
C1274 C1272 1.381 . S
C1274 C1275 1.394 . S
C1274 H1282 0.930 . S
C1275 C1274 1.394 . S
C1275 C1276 1.383 . S
C1275 H1283 0.929 . S
C1276 C1275 1.383 . S
C1276 C1277 1.377 . S
C1277 H1261 0.930 . S
C1277 C1276 1.377 . S
C1277 C1278 1.379 . S
C1278 H1262 0.931 . S
C1278 C1272 1.383 . S
C1278 C1277 1.379 . S
H1279 C1273 0.959 . S
H1280 C1273 0.961 . S
H1281 C1273 0.960 . S
H1282 C1274 0.930 . S
H1283 C1275 0.929 . S
H1284 C1292 0.929 . S
H1285 C1294 0.930 . S
H1286 C1296 0.930 1_565 S
H1287 C1299 0.929 . S
H1288 C1302 0.930 . S
H1289 C1304 0.960 . S
H1290 C1304 0.960 . S
H1291 C1304 0.960 . S
C1292 H1284 0.929 . S
C1292 C1293 1.377 . S
C1292 C1294 1.384 . S
C1293 C1292 1.377 . S
C1293 C1299 1.390 . S
C1294 H1285 0.930 . S
C1294 C1292 1.384 . S
C1294 C1295 1.372 . S
C1295 C1294 1.372 . S
C1295 C1296 1.400 . S
C1295 C1300 1.490 . S
C1296 H1286 0.930 1_545 S
C1296 C1295 1.400 . S
C1296 C1299 1.386 . S
H1297 C1313 0.930 . S
H1298 C1314 0.931 . S
C1299 H1287 0.929 . S
C1299 C1293 1.390 . S
C1299 C1296 1.386 . S
C1300 C1295 1.490 . S
C1300 C1302 1.395 . S
C1300 C1303 1.403 1_545 S
H1301 C1307 0.930 . S
C1302 H1288 0.930 . S
C1302 C1300 1.395 . S
C1302 C1305 1.403 . S
C1303 C1300 1.403 1_565 S
C1303 C1304 1.524 . S
C1303 C1307 1.400 . S
C1304 H1289 0.960 . S
C1304 H1290 0.960 . S
C1304 H1291 0.960 . S
C1304 C1303 1.524 . S
C1305 C1302 1.403 . S
C1305 C1306 1.392 1_545 S
C1305 C1309 1.495 . S
C1306 C1305 1.392 1_565 S
C1306 C1307 1.385 . S
C1306 C1308 1.478 . S
C1307 H1301 0.930 . S
C1307 C1303 1.400 . S
C1307 C1306 1.385 . S
C1308 C1306 1.478 . S
C1308 C1310 1.381 . S
C1308 C1314 1.383 . S
C1309 C1305 1.495 . S
C1309 H1315 0.959 . S
C1309 H1316 0.961 . S
C1309 H1317 0.960 . S
C1310 C1308 1.381 . S
C1310 C1311 1.394 . S
C1310 H1318 0.930 1_565 S
C1311 C1310 1.394 . S
C1311 C1312 1.383 . S
C1311 H1319 0.929 . S
C1312 C1311 1.383 . S
C1312 C1313 1.377 . S
C1313 H1297 0.930 . S
C1313 C1312 1.377 . S
C1313 C1314 1.379 . S
C1314 H1298 0.931 . S
C1314 C1308 1.383 . S
C1314 C1313 1.379 . S
H1315 C1309 0.959 . S
H1316 C1309 0.961 . S
H1317 C1309 0.960 . S
H1318 C1310 0.930 1_545 S
H1319 C1311 0.929 . S
H1320 C1328 0.929 . S
H1321 C1330 0.930 . S
H1322 C1332 0.930 . S
H1323 C1335 0.929 . S
H1324 C1338 0.930 . S
H1325 C1340 0.960 . S
H1326 C1340 0.960 . S
H1327 C1340 0.960 . S
C1328 H1320 0.929 . S
C1328 C1329 1.377 . S
C1328 C1330 1.384 . S
C1329 C1328 1.377 . S
C1329 C1335 1.390 . S
C1330 H1321 0.930 . S
C1330 C1328 1.384 . S
C1330 C1331 1.372 . S
C1331 C1330 1.372 . S
C1331 C1332 1.400 . S
C1331 C1336 1.490 . S
C1332 H1322 0.930 . S
C1332 C1331 1.400 . S
C1332 C1335 1.386 . S
H1333 C1349 0.930 . S
H1334 C1350 0.931 . S
C1335 H1323 0.929 . S
C1335 C1329 1.390 . S
C1335 C1332 1.386 . S
C1336 C1331 1.490 . S
C1336 C1338 1.395 . S
C1336 C1339 1.403 . S
H1337 C1343 0.930 . S
C1338 H1324 0.930 . S
C1338 C1336 1.395 . S
C1338 C1341 1.403 1_554 S
C1339 C1336 1.403 . S
C1339 C1340 1.524 . S
C1339 C1343 1.400 1_554 S
C1340 H1325 0.960 . S
C1340 H1326 0.960 . S
C1340 H1327 0.960 . S
C1340 C1339 1.524 . S
C1341 C1338 1.403 1_556 S
C1341 C1342 1.392 . S
C1341 C1345 1.495 . S
C1342 C1341 1.392 . S
C1342 C1343 1.385 . S
C1342 C1344 1.478 . S
C1343 H1337 0.930 . S
C1343 C1339 1.400 1_556 S
C1343 C1342 1.385 . S
C1344 C1342 1.478 . S
C1344 C1346 1.381 . S
C1344 C1350 1.383 . S
C1345 C1341 1.495 . S
C1345 H1351 0.959 . S
C1345 H1352 0.961 . S
C1345 H1353 0.960 . S
C1346 C1344 1.381 . S
C1346 C1347 1.394 . S
C1346 H1354 0.930 . S
C1347 C1346 1.394 . S
C1347 C1348 1.383 . S
C1347 H1355 0.929 . S
C1348 C1347 1.383 . S
C1348 C1349 1.377 . S
C1349 H1333 0.930 . S
C1349 C1348 1.377 . S
C1349 C1350 1.379 . S
C1350 H1334 0.931 . S
C1350 C1344 1.383 . S
C1350 C1349 1.379 . S
H1351 C1345 0.959 . S
H1352 C1345 0.961 . S
H1353 C1345 0.960 . S
H1354 C1346 0.930 . S
H1355 C1347 0.929 . S
H1356 C1364 0.929 . S
H1357 C1366 0.930 . S
H1358 C1368 0.930 1_655 S
H1359 C1371 0.929 . S
H1360 C1374 0.930 . S
H1361 C1376 0.960 . S
H1362 C1376 0.960 . S
H1363 C1376 0.960 . S
C1364 H1356 0.929 . S
C1364 C1365 1.377 . S
C1364 C1366 1.384 . S
C1365 C1364 1.377 . S
C1365 C1371 1.390 . S
C1366 H1357 0.930 . S
C1366 C1364 1.384 . S
C1366 C1367 1.372 . S
C1367 C1366 1.372 . S
C1367 C1368 1.400 . S
C1367 C1372 1.490 . S
C1368 H1358 0.930 1_455 S
C1368 C1367 1.400 . S
C1368 C1371 1.386 . S
H1369 C1385 0.930 . S
H1370 C1386 0.931 . S
C1371 H1359 0.929 . S
C1371 C1365 1.390 . S
C1371 C1368 1.386 . S
C1372 C1367 1.490 . S
C1372 C1374 1.395 . S
C1372 C1375 1.403 1_455 S
H1373 C1379 0.930 . S
C1374 H1360 0.930 . S
C1374 C1372 1.395 . S
C1374 C1377 1.403 . S
C1375 C1372 1.403 1_655 S
C1375 C1376 1.524 . S
C1375 C1379 1.400 . S
C1376 H1361 0.960 . S
C1376 H1362 0.960 . S
C1376 H1363 0.960 . S
C1376 C1375 1.524 . S
C1377 C1374 1.403 . S
C1377 C1378 1.392 1_455 S
C1377 C1381 1.495 . S
C1378 C1377 1.392 1_655 S
C1378 C1379 1.385 . S
C1378 C1380 1.478 . S
C1379 H1373 0.930 . S
C1379 C1375 1.400 . S
C1379 C1378 1.385 . S
C1380 C1378 1.478 . S
C1380 C1382 1.381 . S
C1380 C1386 1.383 . S
C1381 C1377 1.495 . S
C1381 H1387 0.959 . S
C1381 H1388 0.961 . S
C1381 H1389 0.960 . S
C1382 C1380 1.381 . S
C1382 C1383 1.394 . S
C1382 H1390 0.930 1_655 S
C1383 C1382 1.394 . S
C1383 C1384 1.383 . S
C1383 H1391 0.929 . S
C1384 C1383 1.383 . S
C1384 C1385 1.377 . S
C1385 H1369 0.930 . S
C1385 C1384 1.377 . S
C1385 C1386 1.379 . S
C1386 H1370 0.931 . S
C1386 C1380 1.383 . S
C1386 C1385 1.379 . S
H1387 C1381 0.959 . S
H1388 C1381 0.961 . S
H1389 C1381 0.960 . S
H1390 C1382 0.930 1_455 S
H1391 C1383 0.929 . S
H1392 C1400 0.929 . S
H1393 C1402 0.930 . S
H1394 C1404 0.925 1_545 S
H1395 C1407 0.929 . S
H1396 C1410 0.930 . S
H1397 C1412 0.960 . S
H1398 C1412 0.960 . S
H1399 C1412 0.960 . S
C1400 H1392 0.929 . S
C1400 C1401 1.377 . S
C1400 C1402 1.384 . S
C1401 C1400 1.377 . S
C1401 C1407 1.390 . S
C1402 H1393 0.930 . S
C1402 C1400 1.384 . S
C1402 C1403 1.372 . S
C1403 C1402 1.372 . S
C1403 C1404 1.400 . S
C1403 C1408 1.490 . S
C1404 H1394 0.925 1_565 S
C1404 C1403 1.400 . S
C1404 C1407 1.386 . S
H1405 C1421 0.930 . S
H1406 C1422 0.931 . S
C1407 H1395 0.929 . S
C1407 C1401 1.390 . S
C1407 C1404 1.386 . S
C1408 C1403 1.490 . S
C1408 C1410 1.395 . S
C1408 C1411 1.403 1_565 S
H1409 C1415 0.930 . S
C1410 H1396 0.930 . S
C1410 C1408 1.395 . S
C1410 C1413 1.403 1_556 S
C1411 C1408 1.403 1_545 S
C1411 C1412 1.524 . S
C1411 C1415 1.400 1_556 S
C1412 H1397 0.960 . S
C1412 H1398 0.960 . S
C1412 H1399 0.960 . S
C1412 C1411 1.524 . S
C1413 C1410 1.403 1_554 S
C1413 C1414 1.392 1_565 S
C1413 C1417 1.495 . S
C1414 C1413 1.392 1_545 S
C1414 C1415 1.385 . S
C1414 C1416 1.478 . S
C1415 H1409 0.930 . S
C1415 C1411 1.400 1_554 S
C1415 C1414 1.385 . S
C1416 C1414 1.478 . S
C1416 C1418 1.381 . S
C1416 C1422 1.383 . S
C1417 C1413 1.495 . S
C1417 H1423 0.959 . S
C1417 H1424 0.961 . S
C1417 H1425 0.960 . S
C1418 C1416 1.381 . S
C1418 C1419 1.394 . S
C1418 H1426 0.930 1_545 S
C1419 C1418 1.394 . S
C1419 C1420 1.383 . S
C1419 H1427 0.929 . S
C1420 C1419 1.383 . S
C1420 C1421 1.377 . S
C1421 H1405 0.930 . S
C1421 C1420 1.377 . S
C1421 C1422 1.379 . S
C1422 H1406 0.931 . S
C1422 C1416 1.383 . S
C1422 C1421 1.379 . S
H1423 C1417 0.959 . S
H1424 C1417 0.961 . S
H1425 C1417 0.960 . S
H1426 C1418 0.930 1_565 S
H1427 C1419 0.929 . S
H1428 C1436 0.929 . S
H1429 C1438 0.930 . S
H1430 C1440 0.930 . S
H1431 C1443 0.929 . S
H1432 C1446 0.930 . S
H1433 C1448 0.960 . S
H1434 C1448 0.960 . S
H1435 C1448 0.960 . S
C1436 H1428 0.929 . S
C1436 C1437 1.377 . S
C1436 C1438 1.384 . S
C1437 C1436 1.377 . S
C1437 C1443 1.390 . S
C1438 H1429 0.930 . S
C1438 C1436 1.384 . S
C1438 C1439 1.372 . S
C1439 C1438 1.372 . S
C1439 C1440 1.400 . S
C1439 C1444 1.490 . S
C1440 H1430 0.930 . S
C1440 C1439 1.400 . S
C1440 C1443 1.386 . S
H1441 C1457 0.930 . S
H1442 C1458 0.931 . S
C1443 H1431 0.929 . S
C1443 C1437 1.390 . S
C1443 C1440 1.386 . S
C1444 C1439 1.490 . S
C1444 C1446 1.395 . S
C1444 C1447 1.403 . S
H1445 C1451 0.930 . S
C1446 H1432 0.930 . S
C1446 C1444 1.395 . S
C1446 C1449 1.403 . S
C1447 C1444 1.403 . S
C1447 C1448 1.524 . S
C1447 C1451 1.400 . S
C1448 H1433 0.960 . S
C1448 H1434 0.960 . S
C1448 H1435 0.960 . S
C1448 C1447 1.524 . S
C1449 C1446 1.403 . S
C1449 C1450 1.392 . S
C1449 C1453 1.495 . S
C1450 C1449 1.392 . S
C1450 C1451 1.385 . S
C1450 C1452 1.478 . S
C1451 H1445 0.930 . S
C1451 C1447 1.400 . S
C1451 C1450 1.385 . S
C1452 C1450 1.478 . S
C1452 C1454 1.381 . S
C1452 C1458 1.383 . S
C1453 C1449 1.495 . S
C1453 H1459 0.959 . S
C1453 H1460 0.961 . S
C1453 H1461 0.960 . S
C1454 C1452 1.381 . S
C1454 C1455 1.394 . S
C1454 H1462 0.930 . S
C1455 C1454 1.394 . S
C1455 C1456 1.383 . S
C1455 H1463 0.929 . S
C1456 C1455 1.383 . S
C1456 C1457 1.377 . S
C1457 H1441 0.930 . S
C1457 C1456 1.377 . S
C1457 C1458 1.379 . S
C1458 H1442 0.931 . S
C1458 C1452 1.383 . S
C1458 C1457 1.379 . S
H1459 C1453 0.959 . S
H1460 C1453 0.961 . S
H1461 C1453 0.960 . S
H1462 C1454 0.930 . S
H1463 C1455 0.929 . S
H1464 C1472 0.929 . S
H1465 C1474 0.930 . S
H1466 C1476 0.930 . S
H1467 C1479 0.929 . S
H1468 C1482 0.930 . S
H1469 C1484 0.960 1_556 S
H1470 C1484 0.960 . S
H1471 C1484 0.960 . S
C1472 H1464 0.929 . S
C1472 C1473 1.377 . S
C1472 C1474 1.384 . S
C1473 C1472 1.377 . S
C1473 C1479 1.390 . S
C1474 H1465 0.930 . S
C1474 C1472 1.384 . S
C1474 C1475 1.372 . S
C1475 C1474 1.372 . S
C1475 C1476 1.400 . S
C1475 C1480 1.490 . S
C1476 H1466 0.930 . S
C1476 C1475 1.400 . S
C1476 C1479 1.386 . S
H1477 C1493 0.930 . S
H1478 C1494 0.931 . S
C1479 H1467 0.929 . S
C1479 C1473 1.390 . S
C1479 C1476 1.386 . S
C1480 C1475 1.490 . S
C1480 C1482 1.395 1_655 S
C1480 C1483 1.403 . S
H1481 C1487 0.930 . S
C1482 H1468 0.930 . S
C1482 C1480 1.395 1_455 S
C1482 C1485 1.360 1_554 S
C1483 C1480 1.403 . S
C1483 C1484 1.524 . S
C1483 C1487 1.400 1_554 S
C1484 H1469 0.960 1_554 S
C1484 H1470 0.960 . S
C1484 H1471 0.960 . S
C1484 C1483 1.524 . S
C1485 C1482 1.360 1_556 S
C1485 C1486 1.433 . S
C1485 C1489 1.498 . S
C1486 C1485 1.433 . S
C1486 C1487 1.385 1_455 S
C1486 C1488 1.478 . S
C1487 H1481 0.930 . S
C1487 C1483 1.400 1_556 S
C1487 C1486 1.385 1_655 S
C1488 C1486 1.478 . S
C1488 C1490 1.381 . S
C1488 C1494 1.383 . S
C1489 C1485 1.498 . S
C1489 H1495 0.959 1_556 S
C1489 H1496 0.961 . S
C1489 H1497 0.960 . S
C1490 C1488 1.381 . S
C1490 C1491 1.394 . S
C1490 H1498 0.930 . S
C1491 C1490 1.394 . S
C1491 C1492 1.383 . S
C1491 H1499 0.929 . S
C1492 C1491 1.383 . S
C1492 C1493 1.377 . S
C1493 H1477 0.930 . S
C1493 C1492 1.377 . S
C1493 C1494 1.379 . S
C1494 H1478 0.931 . S
C1494 C1488 1.383 . S
C1494 C1493 1.379 . S
H1495 C1489 0.959 1_554 S
H1496 C1489 0.961 . S
H1497 C1489 0.960 . S
H1498 C1490 0.930 . S
H1499 C1491 0.929 . S
H1500 C1508 0.929 . S
H1501 C1510 0.930 . S
H1502 C1512 0.930 . S
H1503 C1515 0.929 . S
H1504 C1518 0.930 . S
H1505 C1520 0.960 . S
H1506 C1520 0.960 . S
H1507 C1520 0.960 . S
C1508 H1500 0.929 . S
C1508 C1509 1.377 . S
C1508 C1510 1.384 . S
C1509 C1508 1.377 . S
C1509 C1515 1.390 . S
C1510 H1501 0.930 . S
C1510 C1508 1.384 . S
C1510 C1511 1.372 . S
C1511 C1510 1.372 . S
C1511 C1512 1.400 . S
C1511 C1516 1.490 . S
C1512 H1502 0.930 . S
C1512 C1511 1.400 . S
C1512 C1515 1.386 . S
H1513 C1529 0.930 . S
H1514 C1530 0.931 . S
C1515 H1503 0.929 . S
C1515 C1509 1.390 . S
C1515 C1512 1.386 . S
C1516 C1511 1.490 . S
C1516 C1518 1.395 1_565 S
C1516 C1519 1.403 . S
H1517 C1523 0.930 . S
C1518 H1504 0.930 . S
C1518 C1516 1.395 1_545 S
C1518 C1521 1.403 . S
C1519 C1516 1.403 . S
C1519 C1520 1.524 . S
C1519 C1523 1.400 . S
C1520 H1505 0.960 . S
C1520 H1506 0.960 . S
C1520 H1507 0.960 . S
C1520 C1519 1.524 . S
C1521 C1518 1.403 . S
C1521 C1522 1.392 . S
C1521 C1525 1.495 . S
C1522 C1521 1.392 . S
C1522 C1523 1.385 1_545 S
C1522 C1524 1.478 . S
C1523 H1517 0.930 . S
C1523 C1519 1.400 . S
C1523 C1522 1.385 1_565 S
C1524 C1522 1.478 . S
C1524 C1526 1.381 . S
C1524 C1530 1.383 . S
C1525 C1521 1.495 . S
C1525 H1531 0.959 . S
C1525 H1532 0.961 . S
C1525 H1533 0.960 . S
C1526 C1524 1.381 . S
C1526 C1527 1.394 . S
C1526 H1534 0.930 . S
C1527 C1526 1.394 . S
C1527 C1528 1.383 . S
C1527 H1535 0.929 . S
C1528 C1527 1.383 . S
C1528 C1529 1.377 . S
C1529 H1513 0.930 . S
C1529 C1528 1.377 . S
C1529 C1530 1.379 . S
C1530 H1514 0.931 . S
C1530 C1524 1.383 . S
C1530 C1529 1.379 . S
H1531 C1525 0.959 . S
H1532 C1525 0.961 . S
H1533 C1525 0.960 . S
H1534 C1526 0.930 . S
H1535 C1527 0.929 . S
H1536 C1544 0.929 . S
H1537 C1546 0.930 . S
H1538 C1548 0.930 . S
H1539 C1551 0.929 . S
H1540 C1554 0.930 . S
H1541 C1556 0.960 . S
H1542 C1556 0.960 . S
H1543 C1556 0.960 . S
C1544 H1536 0.929 . S
C1544 C1545 1.377 . S
C1544 C1546 1.384 . S
C1545 C1544 1.377 . S
C1545 C1551 1.390 . S
C1546 H1537 0.930 . S
C1546 C1544 1.384 . S
C1546 C1547 1.372 . S
C1547 C1546 1.372 . S
C1547 C1548 1.400 . S
C1547 C1552 1.490 . S
C1548 H1538 0.930 . S
C1548 C1547 1.400 . S
C1548 C1551 1.386 . S
H1549 C1565 0.930 . S
H1550 C1566 0.931 . S
C1551 H1539 0.929 . S
C1551 C1545 1.390 . S
C1551 C1548 1.386 . S
C1552 C1547 1.490 . S
C1552 C1554 1.395 . S
C1552 C1555 1.403 . S
H1553 C1559 0.930 . S
C1554 H1540 0.930 . S
C1554 C1552 1.395 . S
C1554 C1557 1.403 1_554 S
C1555 C1552 1.403 . S
C1555 C1556 1.524 . S
C1555 C1559 1.400 1_554 S
C1556 H1541 0.960 . S
C1556 H1542 0.960 . S
C1556 H1543 0.960 . S
C1556 C1555 1.524 . S
C1557 C1554 1.403 1_556 S
C1557 C1558 1.392 . S
C1557 C1561 1.495 . S
C1558 C1557 1.392 . S
C1558 C1559 1.385 . S
C1558 C1560 1.478 . S
C1559 H1553 0.930 . S
C1559 C1555 1.400 1_556 S
C1559 C1558 1.385 . S
C1560 C1558 1.478 . S
C1560 C1562 1.381 . S
C1560 C1566 1.383 . S
C1561 C1557 1.495 . S
C1561 H1567 0.959 . S
C1561 H1568 0.961 . S
C1561 H1569 0.960 . S
C1562 C1560 1.381 . S
C1562 C1563 1.394 . S
C1562 H1570 0.930 . S
C1563 C1562 1.394 . S
C1563 C1564 1.383 . S
C1563 H1571 0.929 . S
C1564 C1563 1.383 . S
C1564 C1565 1.377 . S
C1565 H1549 0.930 . S
C1565 C1564 1.377 . S
C1565 C1566 1.379 . S
C1566 H1550 0.931 . S
C1566 C1560 1.383 . S
C1566 C1565 1.379 . S
H1567 C1561 0.959 . S
H1568 C1561 0.961 . S
H1569 C1561 0.960 . S
H1570 C1562 0.930 . S
H1571 C1563 0.929 . S
H1572 C1580 0.929 . S
H1573 C1582 0.930 1_655 S
H1574 C1584 0.930 . S
H1575 C1587 0.929 . S
H1576 C1590 0.930 . S
H1577 C1592 0.960 . S
H1578 C1592 0.960 . S
H1579 C1592 0.960 . S
C1580 H1572 0.929 . S
C1580 C1581 1.377 . S
C1580 C1582 1.384 . S
C1581 C1580 1.377 . S
C1581 C1587 1.390 . S
C1582 H1573 0.930 1_455 S
C1582 C1580 1.384 . S
C1582 C1583 1.372 . S
C1583 C1582 1.372 . S
C1583 C1584 1.400 . S
C1583 C1588 1.490 . S
C1584 H1574 0.930 . S
C1584 C1583 1.400 . S
C1584 C1587 1.386 . S
H1585 C1601 0.930 . S
H1586 C1602 0.931 . S
C1587 H1575 0.929 . S
C1587 C1581 1.390 . S
C1587 C1584 1.386 . S
C1588 C1583 1.490 . S
C1588 C1590 1.395 1_455 S
C1588 C1591 1.403 . S
H1589 C1595 0.930 . S
C1590 H1576 0.930 . S
C1590 C1588 1.395 1_655 S
C1590 C1593 1.403 . S
C1591 C1588 1.403 . S
C1591 C1592 1.524 . S
C1591 C1595 1.400 . S
C1592 H1577 0.960 . S
C1592 H1578 0.960 . S
C1592 H1579 0.960 . S
C1592 C1591 1.524 . S
C1593 C1590 1.403 . S
C1593 C1594 1.392 . S
C1593 C1597 1.495 . S
C1594 C1593 1.392 . S
C1594 C1595 1.385 1_655 S
C1594 C1596 1.478 . S
C1595 H1589 0.930 . S
C1595 C1591 1.400 . S
C1595 C1594 1.385 1_455 S
C1596 C1594 1.478 . S
C1596 C1598 1.381 . S
C1596 C1602 1.383 . S
C1597 C1593 1.495 . S
C1597 H1603 0.959 . S
C1597 H1604 0.961 . S
C1597 H1605 0.960 . S
C1598 C1596 1.381 . S
C1598 C1599 1.394 . S
C1598 H1606 0.930 . S
C1599 C1598 1.394 . S
C1599 C1600 1.383 . S
C1599 H1607 0.929 . S
C1600 C1599 1.383 . S
C1600 C1601 1.377 . S
C1601 H1585 0.930 . S
C1601 C1600 1.377 . S
C1601 C1602 1.379 . S
C1602 H1586 0.931 . S
C1602 C1596 1.383 . S
C1602 C1601 1.379 . S
H1603 C1597 0.959 . S
H1604 C1597 0.961 . S
H1605 C1597 0.960 . S
H1606 C1598 0.930 . S
H1607 C1599 0.929 . S
H1608 C1616 0.929 . S
H1609 C1618 0.930 . S
H1610 C1620 0.930 . S
H1611 C1623 0.929 . S
H1612 C1626 0.930 . S
H1613 C1628 0.960 . S
H1614 C1628 0.960 . S
H1615 C1628 0.960 . S
C1616 H1608 0.929 . S
C1616 C1617 1.377 . S
C1616 C1618 1.384 . S
C1617 C1616 1.377 . S
C1617 C1623 1.390 . S
C1618 H1609 0.930 . S
C1618 C1616 1.384 . S
C1618 C1619 1.372 . S
C1619 C1618 1.372 . S
C1619 C1620 1.400 . S
C1619 C1624 1.490 . S
C1620 H1610 0.930 . S
C1620 C1619 1.400 . S
C1620 C1623 1.386 . S
H1621 C1637 0.930 . S
H1622 C1638 0.931 . S
C1623 H1611 0.929 . S
C1623 C1617 1.390 . S
C1623 C1620 1.386 . S
C1624 C1619 1.490 . S
C1624 C1626 1.395 . S
C1624 C1627 1.403 . S
H1625 C1631 0.930 . S
C1626 H1612 0.930 . S
C1626 C1624 1.395 . S
C1626 C1629 1.403 . S
C1627 C1624 1.403 . S
C1627 C1628 1.524 . S
C1627 C1631 1.400 . S
C1628 H1613 0.960 . S
C1628 H1614 0.960 . S
C1628 H1615 0.960 . S
C1628 C1627 1.524 . S
C1629 C1626 1.403 . S
C1629 C1630 1.392 . S
C1629 C1633 1.495 . S
C1630 C1629 1.392 . S
C1630 C1631 1.385 . S
C1630 C1632 1.478 . S
C1631 H1625 0.930 . S
C1631 C1627 1.400 . S
C1631 C1630 1.385 . S
C1632 C1630 1.478 . S
C1632 C1634 1.381 . S
C1632 C1638 1.383 . S
C1633 C1629 1.495 . S
C1633 H1639 0.959 . S
C1633 H1640 0.961 . S
C1633 H1641 0.960 . S
C1634 C1632 1.381 . S
C1634 C1635 1.394 . S
C1634 H1642 0.930 . S
C1635 C1634 1.394 . S
C1635 C1636 1.383 . S
C1635 H1643 0.929 . S
C1636 C1635 1.383 . S
C1636 C1637 1.377 . S
C1637 H1621 0.930 . S
C1637 C1636 1.377 . S
C1637 C1638 1.379 . S
C1638 H1622 0.931 . S
C1638 C1632 1.383 . S
C1638 C1637 1.379 . S
H1639 C1633 0.959 . S
H1640 C1633 0.961 . S
H1641 C1633 0.960 . S
H1642 C1634 0.930 . S
H1643 C1635 0.929 . S
H1644 C1652 0.929 . S
H1645 C1654 0.930 . S
H1646 C1656 0.930 . S
H1647 C1659 0.929 . S
H1648 C1662 0.930 . S
H1649 C1664 0.960 . S
H1650 C1664 0.960 . S
H1651 C1664 0.960 . S
C1652 H1644 0.929 . S
C1652 C1653 1.377 . S
C1652 C1654 1.384 . S
C1653 C1652 1.377 . S
C1653 C1659 1.390 . S
C1654 H1645 0.930 . S
C1654 C1652 1.384 . S
C1654 C1655 1.372 . S
C1655 C1654 1.372 . S
C1655 C1656 1.400 . S
C1655 C1660 1.490 . S
C1656 H1646 0.930 . S
C1656 C1655 1.400 . S
C1656 C1659 1.386 . S
H1657 C1673 0.930 . S
H1658 C1674 0.931 . S
C1659 H1647 0.929 . S
C1659 C1653 1.390 . S
C1659 C1656 1.386 . S
C1660 C1655 1.490 . S
C1660 C1662 1.395 . S
C1660 C1663 1.403 . S
H1661 C1667 0.930 . S
C1662 H1648 0.930 . S
C1662 C1660 1.395 . S
C1662 C1665 1.403 . S
C1663 C1660 1.403 . S
C1663 C1664 1.524 . S
C1663 C1667 1.400 . S
C1664 H1649 0.960 . S
C1664 H1650 0.960 . S
C1664 H1651 0.960 . S
C1664 C1663 1.524 . S
C1665 C1662 1.403 . S
C1665 C1666 1.392 . S
C1665 C1669 1.495 . S
C1666 C1665 1.392 . S
C1666 C1667 1.385 . S
C1666 C1668 1.478 . S
C1667 H1661 0.930 . S
C1667 C1663 1.400 . S
C1667 C1666 1.385 . S
C1668 C1666 1.478 . S
C1668 C1670 1.381 . S
C1668 C1674 1.383 . S
C1669 C1665 1.495 . S
C1669 H1675 0.959 . S
C1669 H1676 0.961 . S
C1669 H1677 0.960 . S
C1670 C1668 1.381 . S
C1670 C1671 1.394 . S
C1670 H1678 0.930 . S
C1671 C1670 1.394 . S
C1671 C1672 1.383 . S
C1671 H1679 0.929 . S
C1672 C1671 1.383 . S
C1672 C1673 1.377 . S
C1673 H1657 0.930 . S
C1673 C1672 1.377 . S
C1673 C1674 1.379 . S
C1674 H1658 0.931 . S
C1674 C1668 1.383 . S
C1674 C1673 1.379 . S
H1675 C1669 0.959 . S
H1676 C1669 0.961 . S
H1677 C1669 0.960 . S
H1678 C1670 0.930 . S
H1679 C1671 0.929 . S
H1680 C1688 0.929 . S
H1681 C1690 0.930 . S
H1682 C1692 0.930 . S
H1683 C1695 0.929 . S
H1684 C1698 0.930 . S
H1685 C1700 0.960 . S
H1686 C1700 0.960 . S
H1687 C1700 0.960 . S
C1688 H1680 0.929 . S
C1688 C1689 1.377 . S
C1688 C1690 1.384 . S
C1689 C1688 1.377 . S
C1689 C1695 1.390 . S
C1690 H1681 0.930 . S
C1690 C1688 1.384 . S
C1690 C1691 1.372 . S
C1691 C1690 1.372 . S
C1691 C1692 1.400 . S
C1691 C1696 1.490 . S
C1692 H1682 0.930 . S
C1692 C1691 1.400 . S
C1692 C1695 1.386 . S
H1693 C1709 0.930 . S
H1694 C1710 0.931 . S
C1695 H1683 0.929 . S
C1695 C1689 1.390 . S
C1695 C1692 1.386 . S
C1696 C1691 1.490 . S
C1696 C1698 1.395 . S
C1696 C1699 1.403 . S
H1697 C1703 0.930 . S
C1698 H1684 0.930 . S
C1698 C1696 1.395 . S
C1698 C1701 1.403 . S
C1699 C1696 1.403 . S
C1699 C1700 1.524 . S
C1699 C1703 1.400 . S
C1700 H1685 0.960 . S
C1700 H1686 0.960 . S
C1700 H1687 0.960 . S
C1700 C1699 1.524 . S
C1701 C1698 1.403 . S
C1701 C1702 1.392 . S
C1701 C1705 1.495 . S
C1702 C1701 1.392 . S
C1702 C1703 1.385 . S
C1702 C1704 1.478 . S
C1703 H1697 0.930 . S
C1703 C1699 1.400 . S
C1703 C1702 1.385 . S
C1704 C1702 1.478 . S
C1704 C1706 1.381 . S
C1704 C1710 1.383 . S
C1705 C1701 1.495 . S
C1705 H1711 0.959 . S
C1705 H1712 0.961 . S
C1705 H1713 0.960 . S
C1706 C1704 1.381 . S
C1706 C1707 1.394 . S
C1706 H1714 0.930 . S
C1707 C1706 1.394 . S
C1707 C1708 1.383 . S
C1707 H1715 0.929 . S
C1708 C1707 1.383 . S
C1708 C1709 1.377 . S
C1709 H1693 0.930 . S
C1709 C1708 1.377 . S
C1709 C1710 1.379 . S
C1710 H1694 0.931 . S
C1710 C1704 1.383 . S
C1710 C1709 1.379 . S
H1711 C1705 0.959 . S
H1712 C1705 0.961 . S
H1713 C1705 0.960 . S
H1714 C1706 0.930 . S
H1715 C1707 0.929 . S
H1716 C1724 0.929 . S
H1717 C1726 0.930 . S
H1718 C1728 0.930 . S
H1719 C1731 0.929 . S
H1720 C1734 0.930 . S
H1721 C1736 0.960 . S
H1722 C1736 0.960 . S
H1723 C1736 0.960 . S
C1724 H1716 0.929 . S
C1724 C1725 1.377 . S
C1724 C1726 1.384 . S
C1725 C1724 1.377 . S
C1725 C1731 1.390 . S
C1726 H1717 0.930 . S
C1726 C1724 1.384 . S
C1726 C1727 1.372 . S
C1727 C1726 1.372 . S
C1727 C1728 1.400 . S
C1727 C1732 1.490 . S
C1728 H1718 0.930 . S
C1728 C1727 1.400 . S
C1728 C1731 1.386 . S
H1729 C1745 0.930 . S
H1730 C1746 0.931 . S
C1731 H1719 0.929 . S
C1731 C1725 1.390 . S
C1731 C1728 1.386 . S
C1732 C1727 1.490 . S
C1732 C1734 1.395 . S
C1732 C1735 1.403 . S
H1733 C1739 0.930 . S
C1734 H1720 0.930 . S
C1734 C1732 1.395 . S
C1734 C1737 1.403 . S
C1735 C1732 1.403 . S
C1735 C1736 1.524 . S
C1735 C1739 1.400 . S
C1736 H1721 0.960 . S
C1736 H1722 0.960 . S
C1736 H1723 0.960 . S
C1736 C1735 1.524 . S
C1737 C1734 1.403 . S
C1737 C1738 1.392 . S
C1737 C1741 1.495 . S
C1738 C1737 1.392 . S
C1738 C1739 1.385 . S
C1738 C1740 1.478 . S
C1739 H1733 0.930 . S
C1739 C1735 1.400 . S
C1739 C1738 1.385 . S
C1740 C1738 1.478 . S
C1740 C1742 1.381 . S
C1740 C1746 1.383 . S
C1741 C1737 1.495 . S
C1741 H1747 0.959 . S
C1741 H1748 0.961 . S
C1741 H1749 0.960 . S
C1742 C1740 1.381 . S
C1742 C1743 1.394 . S
C1742 H1750 0.930 . S
C1743 C1742 1.394 . S
C1743 C1744 1.383 . S
C1743 H1751 0.929 . S
C1744 C1743 1.383 . S
C1744 C1745 1.377 . S
C1745 H1729 0.930 . S
C1745 C1744 1.377 . S
C1745 C1746 1.379 . S
C1746 H1730 0.931 . S
C1746 C1740 1.383 . S
C1746 C1745 1.379 . S
H1747 C1741 0.959 . S
H1748 C1741 0.961 . S
H1749 C1741 0.960 . S
H1750 C1742 0.930 . S
H1751 C1743 0.929 . S
H1752 C1760 0.929 . S
H1753 C1762 0.930 . S
H1754 C1764 0.930 . S
H1755 C1767 0.929 . S
H1756 C1770 0.930 . S
H1757 C1772 0.960 . S
H1758 C1772 0.960 . S
H1759 C1772 0.960 . S
C1760 H1752 0.929 . S
C1760 C1761 1.377 . S
C1760 C1762 1.384 . S
C1761 C1760 1.377 . S
C1761 C1767 1.390 . S
C1762 H1753 0.930 . S
C1762 C1760 1.384 . S
C1762 C1763 1.372 . S
C1763 C1762 1.372 . S
C1763 C1764 1.400 . S
C1763 C1768 1.490 . S
C1764 H1754 0.930 . S
C1764 C1763 1.400 . S
C1764 C1767 1.386 . S
H1765 C1781 0.930 . S
H1766 C1782 0.931 . S
C1767 H1755 0.929 . S
C1767 C1761 1.390 . S
C1767 C1764 1.386 . S
C1768 C1763 1.490 . S
C1768 C1770 1.395 . S
C1768 C1771 1.403 . S
H1769 C1775 0.930 . S
C1770 H1756 0.930 . S
C1770 C1768 1.395 . S
C1770 C1773 1.403 . S
C1771 C1768 1.403 . S
C1771 C1772 1.524 . S
C1771 C1775 1.400 . S
C1772 H1757 0.960 . S
C1772 H1758 0.960 . S
C1772 H1759 0.960 . S
C1772 C1771 1.524 . S
C1773 C1770 1.403 . S
C1773 C1774 1.392 . S
C1773 C1777 1.495 . S
C1774 C1773 1.392 . S
C1774 C1775 1.385 . S
C1774 C1776 1.478 . S
C1775 H1769 0.930 . S
C1775 C1771 1.400 . S
C1775 C1774 1.385 . S
C1776 C1774 1.478 . S
C1776 C1778 1.381 . S
C1776 C1782 1.383 . S
C1777 C1773 1.495 . S
C1777 H1783 0.959 . S
C1777 H1784 0.961 . S
C1777 H1785 0.960 . S
C1778 C1776 1.381 . S
C1778 C1779 1.394 . S
C1778 H1786 0.930 . S
C1779 C1778 1.394 . S
C1779 C1780 1.383 . S
C1779 H1787 0.929 . S
C1780 C1779 1.383 . S
C1780 C1781 1.377 . S
C1781 H1765 0.930 . S
C1781 C1780 1.377 . S
C1781 C1782 1.379 . S
C1782 H1766 0.931 . S
C1782 C1776 1.383 . S
C1782 C1781 1.379 . S
H1783 C1777 0.959 . S
H1784 C1777 0.961 . S
H1785 C1777 0.960 . S
H1786 C1778 0.930 . S
H1787 C1779 0.929 . S
H1788 C1796 0.929 . S
H1789 C1798 0.930 . S
H1790 C1800 0.930 . S
H1791 C1803 0.929 . S
H1792 C1806 0.930 . S
H1793 C1808 0.960 . S
H1794 C1808 0.960 . S
H1795 C1808 0.960 . S
C1796 H1788 0.929 . S
C1796 C1797 1.377 . S
C1796 C1798 1.384 . S
C1797 C1796 1.377 . S
C1797 C1803 1.390 . S
C1798 H1789 0.930 . S
C1798 C1796 1.384 . S
C1798 C1799 1.372 . S
C1799 C1798 1.372 . S
C1799 C1800 1.400 . S
C1799 C1804 1.490 . S
C1800 H1790 0.930 . S
C1800 C1799 1.400 . S
C1800 C1803 1.386 . S
H1801 C1817 0.930 . S
H1802 C1818 0.931 . S
C1803 H1791 0.929 . S
C1803 C1797 1.390 . S
C1803 C1800 1.386 . S
C1804 C1799 1.490 . S
C1804 C1806 1.395 . S
C1804 C1807 1.403 . S
H1805 C1811 0.930 . S
C1806 H1792 0.930 . S
C1806 C1804 1.395 . S
C1806 C1809 1.403 . S
C1807 C1804 1.403 . S
C1807 C1808 1.524 . S
C1807 C1811 1.400 . S
C1808 H1793 0.960 . S
C1808 H1794 0.960 . S
C1808 H1795 0.960 . S
C1808 C1807 1.524 . S
C1809 C1806 1.403 . S
C1809 C1810 1.392 . S
C1809 C1813 1.495 . S
C1810 C1809 1.392 . S
C1810 C1811 1.385 . S
C1810 C1812 1.478 . S
C1811 H1805 0.930 . S
C1811 C1807 1.400 . S
C1811 C1810 1.385 . S
C1812 C1810 1.478 . S
C1812 C1814 1.381 . S
C1812 C1818 1.383 . S
C1813 C1809 1.495 . S
C1813 H1819 0.959 . S
C1813 H1820 0.961 . S
C1813 H1821 0.960 . S
C1814 C1812 1.381 . S
C1814 C1815 1.394 . S
C1814 H1822 0.930 . S
C1815 C1814 1.394 . S
C1815 C1816 1.383 . S
C1815 H1823 0.929 . S
C1816 C1815 1.383 . S
C1816 C1817 1.377 . S
C1817 H1801 0.930 . S
C1817 C1816 1.377 . S
C1817 C1818 1.379 . S
C1818 H1802 0.931 . S
C1818 C1812 1.383 . S
C1818 C1817 1.379 . S
H1819 C1813 0.959 . S
H1820 C1813 0.961 . S
H1821 C1813 0.960 . S
H1822 C1814 0.930 . S
H1823 C1815 0.929 . S
H1824 C1832 0.929 . S
H1825 C1834 0.930 . S
H1826 C1836 0.930 . S
H1827 C1839 0.929 . S
H1828 C1842 0.930 . S
H1829 C1844 0.960 . S
H1830 C1844 0.960 . S
H1831 C1844 0.960 . S
C1832 H1824 0.929 . S
C1832 C1833 1.377 . S
C1832 C1834 1.384 . S
C1833 C1832 1.377 . S
C1833 C1839 1.390 . S
C1834 H1825 0.930 . S
C1834 C1832 1.384 . S
C1834 C1835 1.372 . S
C1835 C1834 1.372 . S
C1835 C1836 1.400 . S
C1835 C1840 1.490 . S
C1836 H1826 0.930 . S
C1836 C1835 1.400 . S
C1836 C1839 1.386 . S
H1837 C1853 0.930 . S
H1838 C1854 0.931 . S
C1839 H1827 0.929 . S
C1839 C1833 1.390 . S
C1839 C1836 1.386 . S
C1840 C1835 1.490 . S
C1840 C1842 1.395 . S
C1840 C1843 1.403 . S
H1841 C1847 0.930 . S
C1842 H1828 0.930 . S
C1842 C1840 1.395 . S
C1842 C1845 1.403 . S
C1843 C1840 1.403 . S
C1843 C1844 1.524 . S
C1843 C1847 1.400 . S
C1844 H1829 0.960 . S
C1844 H1830 0.960 . S
C1844 H1831 0.960 . S
C1844 C1843 1.524 . S
C1845 C1842 1.403 . S
C1845 C1846 1.392 . S
C1845 C1849 1.495 . S
C1846 C1845 1.392 . S
C1846 C1847 1.385 . S
C1846 C1848 1.478 . S
C1847 H1841 0.930 . S
C1847 C1843 1.400 . S
C1847 C1846 1.385 . S
C1848 C1846 1.478 . S
C1848 C1850 1.381 . S
C1848 C1854 1.383 . S
C1849 C1845 1.495 . S
C1849 H1855 0.959 . S
C1849 H1856 0.961 . S
C1849 H1857 0.960 . S
C1850 C1848 1.381 . S
C1850 C1851 1.394 . S
C1850 H1858 0.930 . S
C1851 C1850 1.394 . S
C1851 C1852 1.383 . S
C1851 H1859 0.929 . S
C1852 C1851 1.383 . S
C1852 C1853 1.377 . S
C1853 H1837 0.930 . S
C1853 C1852 1.377 . S
C1853 C1854 1.379 . S
C1854 H1838 0.931 . S
C1854 C1848 1.383 . S
C1854 C1853 1.379 . S
H1855 C1849 0.959 . S
H1856 C1849 0.961 . S
H1857 C1849 0.960 . S
H1858 C1850 0.930 . S
H1859 C1851 0.929 . S
H1860 C1868 0.929 . S
H1861 C1870 0.930 . S
H1862 C1872 0.930 . S
H1863 C1875 0.929 . S
H1864 C1878 0.930 . S
H1865 C1880 0.960 . S
H1866 C1880 0.960 . S
H1867 C1880 0.960 . S
C1868 H1860 0.929 . S
C1868 C1869 1.377 . S
C1868 C1870 1.384 . S
C1869 C1868 1.377 . S
C1869 C1875 1.390 . S
C1870 H1861 0.930 . S
C1870 C1868 1.384 . S
C1870 C1871 1.372 . S
C1871 C1870 1.372 . S
C1871 C1872 1.400 . S
C1871 C1876 1.490 . S
C1872 H1862 0.930 . S
C1872 C1871 1.400 . S
C1872 C1875 1.386 . S
H1873 C1889 0.930 . S
H1874 C1890 0.931 . S
C1875 H1863 0.929 . S
C1875 C1869 1.390 . S
C1875 C1872 1.386 . S
C1876 C1871 1.490 . S
C1876 C1878 1.395 . S
C1876 C1879 1.403 . S
H1877 C1883 0.930 . S
C1878 H1864 0.930 . S
C1878 C1876 1.395 . S
C1878 C1881 1.403 . S
C1879 C1876 1.403 . S
C1879 C1880 1.524 . S
C1879 C1883 1.400 . S
C1880 H1865 0.960 . S
C1880 H1866 0.960 . S
C1880 H1867 0.960 . S
C1880 C1879 1.524 . S
C1881 C1878 1.403 . S
C1881 C1882 1.392 . S
C1881 C1885 1.495 . S
C1882 C1881 1.392 . S
C1882 C1883 1.385 . S
C1882 C1884 1.478 . S
C1883 H1877 0.930 . S
C1883 C1879 1.400 . S
C1883 C1882 1.385 . S
C1884 C1882 1.478 . S
C1884 C1886 1.381 . S
C1884 C1890 1.383 . S
C1885 C1881 1.495 . S
C1885 H1891 0.959 . S
C1885 H1892 0.961 . S
C1885 H1893 0.960 . S
C1886 C1884 1.381 . S
C1886 C1887 1.394 . S
C1886 H1894 0.930 . S
C1887 C1886 1.394 . S
C1887 C1888 1.383 . S
C1887 H1895 0.929 . S
C1888 C1887 1.383 . S
C1888 C1889 1.377 . S
C1889 H1873 0.930 . S
C1889 C1888 1.377 . S
C1889 C1890 1.379 . S
C1890 H1874 0.931 . S
C1890 C1884 1.383 . S
C1890 C1889 1.379 . S
H1891 C1885 0.959 . S
H1892 C1885 0.961 . S
H1893 C1885 0.960 . S
H1894 C1886 0.930 . S
H1895 C1887 0.929 . S
H1896 C1904 0.929 . S
H1897 C1906 0.930 . S
H1898 C1908 0.930 . S
H1899 C1911 0.929 . S
H1900 C1914 0.930 . S
H1901 C1916 0.960 . S
H1902 C1916 0.960 . S
H1903 C1916 0.960 . S
C1904 H1896 0.929 . S
C1904 C1905 1.377 . S
C1904 C1906 1.384 . S
C1905 C1904 1.377 . S
C1905 C1911 1.390 . S
C1906 H1897 0.930 . S
C1906 C1904 1.384 . S
C1906 C1907 1.372 . S
C1907 C1906 1.372 . S
C1907 C1908 1.400 . S
C1907 C1912 1.490 . S
C1908 H1898 0.930 . S
C1908 C1907 1.400 . S
C1908 C1911 1.386 . S
H1909 C1925 0.930 . S
H1910 C1926 0.931 . S
C1911 H1899 0.929 . S
C1911 C1905 1.390 . S
C1911 C1908 1.386 . S
C1912 C1907 1.490 . S
C1912 C1914 1.395 . S
C1912 C1915 1.403 . S
H1913 C1919 0.930 . S
C1914 H1900 0.930 . S
C1914 C1912 1.395 . S
C1914 C1917 1.403 . S
C1915 C1912 1.403 . S
C1915 C1916 1.524 . S
C1915 C1919 1.400 . S
C1916 H1901 0.960 . S
C1916 H1902 0.960 . S
C1916 H1903 0.960 . S
C1916 C1915 1.524 . S
C1917 C1914 1.403 . S
C1917 C1918 1.392 . S
C1917 C1921 1.495 . S
C1918 C1917 1.392 . S
C1918 C1919 1.385 . S
C1918 C1920 1.478 . S
C1919 H1913 0.930 . S
C1919 C1915 1.400 . S
C1919 C1918 1.385 . S
C1920 C1918 1.478 . S
C1920 C1922 1.381 . S
C1920 C1926 1.383 . S
C1921 C1917 1.495 . S
C1921 H1927 0.959 . S
C1921 H1928 0.961 . S
C1921 H1929 0.960 . S
C1922 C1920 1.381 . S
C1922 C1923 1.394 . S
C1922 H1930 0.930 . S
C1923 C1922 1.394 . S
C1923 C1924 1.383 . S
C1923 H1931 0.929 . S
C1924 C1923 1.383 . S
C1924 C1925 1.377 . S
C1925 H1909 0.930 . S
C1925 C1924 1.377 . S
C1925 C1926 1.379 . S
C1926 H1910 0.931 . S
C1926 C1920 1.383 . S
C1926 C1925 1.379 . S
H1927 C1921 0.959 . S
H1928 C1921 0.961 . S
H1929 C1921 0.960 . S
H1930 C1922 0.930 . S
H1931 C1923 0.929 . S
H1932 C1940 0.929 . S
H1933 C1942 0.930 . S
H1934 C1944 0.930 . S
H1935 C1947 0.929 . S
H1936 C1950 0.930 . S
H1937 C1952 0.960 . S
H1938 C1952 0.960 . S
H1939 C1952 0.960 . S
C1940 H1932 0.929 . S
C1940 C1941 1.377 . S
C1940 C1942 1.384 . S
C1941 C1940 1.377 . S
C1941 C1947 1.390 . S
C1942 H1933 0.930 . S
C1942 C1940 1.384 . S
C1942 C1943 1.372 . S
C1943 C1942 1.372 . S
C1943 C1944 1.400 . S
C1943 C1948 1.490 . S
C1944 H1934 0.930 . S
C1944 C1943 1.400 . S
C1944 C1947 1.386 . S
H1945 C1961 0.930 . S
H1946 C1962 0.931 . S
C1947 H1935 0.929 . S
C1947 C1941 1.390 . S
C1947 C1944 1.386 . S
C1948 C1943 1.490 . S
C1948 C1950 1.395 . S
C1948 C1951 1.403 . S
H1949 C1955 0.930 . S
C1950 H1936 0.930 . S
C1950 C1948 1.395 . S
C1950 C1953 1.403 . S
C1951 C1948 1.403 . S
C1951 C1952 1.524 . S
C1951 C1955 1.400 . S
C1952 H1937 0.960 . S
C1952 H1938 0.960 . S
C1952 H1939 0.960 . S
C1952 C1951 1.524 . S
C1953 C1950 1.403 . S
C1953 C1954 1.392 . S
C1953 C1957 1.495 . S
C1954 C1953 1.392 . S
C1954 C1955 1.385 . S
C1954 C1956 1.478 . S
C1955 H1949 0.930 . S
C1955 C1951 1.400 . S
C1955 C1954 1.385 . S
C1956 C1954 1.478 . S
C1956 C1958 1.381 . S
C1956 C1962 1.383 . S
C1957 C1953 1.495 . S
C1957 H1963 0.959 . S
C1957 H1964 0.961 . S
C1957 H1965 0.960 . S
C1958 C1956 1.381 . S
C1958 C1959 1.394 . S
C1958 H1966 0.930 . S
C1959 C1958 1.394 . S
C1959 C1960 1.383 . S
C1959 H1967 0.929 . S
C1960 C1959 1.383 . S
C1960 C1961 1.377 . S
C1961 H1945 0.930 . S
C1961 C1960 1.377 . S
C1961 C1962 1.379 . S
C1962 H1946 0.931 . S
C1962 C1956 1.383 . S
C1962 C1961 1.379 . S
H1963 C1957 0.959 . S
H1964 C1957 0.961 . S
H1965 C1957 0.960 . S
H1966 C1958 0.930 . S
H1967 C1959 0.929 . S
H1968 C1976 0.929 . S
H1969 C1978 0.930 . S
H1970 C1980 0.930 . S
H1971 C1983 0.929 . S
H1972 C1986 0.930 . S
H1973 C1988 0.960 . S
H1974 C1988 0.960 . S
H1975 C1988 0.960 . S
C1976 H1968 0.929 . S
C1976 C1977 1.377 . S
C1976 C1978 1.384 . S
C1977 C1976 1.377 . S
C1977 C1983 1.390 . S
C1978 H1969 0.930 . S
C1978 C1976 1.384 . S
C1978 C1979 1.372 . S
C1979 C1978 1.372 . S
C1979 C1980 1.400 . S
C1979 C1984 1.490 . S
C1980 H1970 0.930 . S
C1980 C1979 1.400 . S
C1980 C1983 1.386 . S
H1981 C1997 0.930 . S
H1982 C1998 0.931 . S
C1983 H1971 0.929 . S
C1983 C1977 1.390 . S
C1983 C1980 1.386 . S
C1984 C1979 1.490 . S
C1984 C1986 1.395 . S
C1984 C1987 1.403 . S
H1985 C1991 0.930 . S
C1986 H1972 0.930 . S
C1986 C1984 1.395 . S
C1986 C1989 1.403 . S
C1987 C1984 1.403 . S
C1987 C1988 1.524 . S
C1987 C1991 1.400 . S
C1988 H1973 0.960 . S
C1988 H1974 0.960 . S
C1988 H1975 0.960 . S
C1988 C1987 1.524 . S
C1989 C1986 1.403 . S
C1989 C1990 1.392 . S
C1989 C1993 1.495 . S
C1990 C1989 1.392 . S
C1990 C1991 1.385 . S
C1990 C1992 1.478 . S
C1991 H1985 0.930 . S
C1991 C1987 1.400 . S
C1991 C1990 1.385 . S
C1992 C1990 1.478 . S
C1992 C1994 1.381 . S
C1992 C1998 1.383 . S
C1993 C1989 1.495 . S
C1993 H1999 0.959 . S
C1993 H2000 0.961 . S
C1993 H2001 0.960 . S
C1994 C1992 1.381 . S
C1994 C1995 1.394 . S
C1994 H2002 0.930 . S
C1995 C1994 1.394 . S
C1995 C1996 1.383 . S
C1995 H2003 0.929 . S
C1996 C1995 1.383 . S
C1996 C1997 1.377 . S
C1997 H1981 0.930 . S
C1997 C1996 1.377 . S
C1997 C1998 1.379 . S
C1998 H1982 0.931 . S
C1998 C1992 1.383 . S
C1998 C1997 1.379 . S
H1999 C1993 0.959 . S
H2000 C1993 0.961 . S
H2001 C1993 0.960 . S
H2002 C1994 0.930 . S
H2003 C1995 0.929 . S
H2004 C2012 0.929 . S
H2005 C2014 0.930 . S
H2006 C2016 0.930 . S
H2007 C2019 0.929 . S
H2008 C2022 0.930 . S
H2009 C2024 0.960 . S
H2010 C2024 0.960 . S
H2011 C2024 0.960 . S
C2012 H2004 0.929 . S
C2012 C2013 1.377 . S
C2012 C2014 1.384 . S
C2013 C2012 1.377 . S
C2013 C2019 1.390 . S
C2014 H2005 0.930 . S
C2014 C2012 1.384 . S
C2014 C2015 1.372 . S
C2015 C2014 1.372 . S
C2015 C2016 1.400 . S
C2015 C2020 1.490 . S
C2016 H2006 0.930 . S
C2016 C2015 1.400 . S
C2016 C2019 1.386 . S
H2017 C2033 0.930 . S
H2018 C2034 0.931 . S
C2019 H2007 0.929 . S
C2019 C2013 1.390 . S
C2019 C2016 1.386 . S
C2020 C2015 1.490 . S
C2020 C2022 1.395 . S
C2020 C2023 1.403 . S
H2021 C2027 0.930 . S
C2022 H2008 0.930 . S
C2022 C2020 1.395 . S
C2022 C2025 1.403 . S
C2023 C2020 1.403 . S
C2023 C2024 1.524 . S
C2023 C2027 1.400 . S
C2024 H2009 0.960 . S
C2024 H2010 0.960 . S
C2024 H2011 0.960 . S
C2024 C2023 1.524 . S
C2025 C2022 1.403 . S
C2025 C2026 1.392 . S
C2025 C2029 1.495 . S
C2026 C2025 1.392 . S
C2026 C2027 1.385 . S
C2026 C2028 1.478 . S
C2027 H2021 0.930 . S
C2027 C2023 1.400 . S
C2027 C2026 1.385 . S
C2028 C2026 1.478 . S
C2028 C2030 1.381 . S
C2028 C2034 1.383 . S
C2029 C2025 1.495 . S
C2029 H2035 0.959 . S
C2029 H2036 0.961 . S
C2029 H2037 0.960 . S
C2030 C2028 1.381 . S
C2030 C2031 1.394 . S
C2030 H2038 0.930 . S
C2031 C2030 1.394 . S
C2031 C2032 1.383 . S
C2031 H2039 0.929 . S
C2032 C2031 1.383 . S
C2032 C2033 1.377 . S
C2033 H2017 0.930 . S
C2033 C2032 1.377 . S
C2033 C2034 1.379 . S
C2034 H2018 0.931 . S
C2034 C2028 1.383 . S
C2034 C2033 1.379 . S
H2035 C2029 0.959 . S
H2036 C2029 0.961 . S
H2037 C2029 0.960 . S
H2038 C2030 0.930 . S
H2039 C2031 0.929 . S
C321 C199 1.335 . S
C340 C10 1.346 . S
C357 C17 1.334 . S
C376 C212 1.329 . S
C393 C36 1.333 . S
C412 C231 1.341 . S
C429 C43 1.334 . S
C448 C166 1.327 . S
C465 C179 1.338 . S
C484 C62 1.320 . S
C501 C75 1.338 . S
C520 C186 1.322 . S
C537 C277 1.334 . S
C556 C88 1.346 . S
C573 C95 1.334 . S
C592 C296 1.330 . S
C609 C108 1.338 . S
C628 C309 1.333 . S
C645 C238 1.338 . S
C664 C121 1.335 . S
C681 C134 1.335 . S
C700 C257 1.324 . S
C717 C270 1.333 . S
C736 C153 1.334 . S
C753 C4 1.728 . S
C772 C303 1.716 . S
C789 C244 1.728 . S
C808 C23 1.716 . S
C825 C30 1.728 . S
C844 C251 1.729 . S
C861 C264 1.727 . S
C880 C49 1.717 . S
C897 C56 1.727 . S
C916 C283 1.731 . S
C933 C290 1.729 . S
C952 C69 1.716 . S
C969 C82 1.728 . S
C988 C173 1.729 . S
C1005 C192 1.727 . S
C1024 C101 1.732 . S
C1041 C205 1.726 . S
C1060 C114 1.731 . S
C1077 C218 1.726 . S
C1096 C127 1.721 . S
C1113 C140 1.728 . S
C1132 C225 1.730 . S
C1149 C147 1.726 . S
C1168 C160 1.731 . S
C1185 C96 1.208 . S
C1204 C3 1.210 . S
C1221 C109 1.209 . S
C1240 C18 1.218 . S
C1257 C122 1.209 . S
C1276 C29 1.219 . S
C1293 C135 1.208 . S
C1312 C44 1.211 . S
C1329 C55 1.207 . S
C1348 C146 1.203 . S
C1365 C68 1.207 . S
C1384 C81 1.203 . S
C1401 C159 1.205 . S
C1420 C250 1.218 . S
C1437 C172 1.209 . S
C1456 C263 1.194 . S
C1473 C278 1.206 . S
C1492 C187 1.194 . S
C1509 C289 1.207 . S
C1528 C200 1.192 . S
C1545 C302 1.203 . S
C1564 C213 1.217 . S
C1581 C239 1.208 . S
C1600 C224 1.189 . S
C1617 C5 1.783 . S
C1636 C252 1.782 . S
C1653 C265 1.784 . S
C1672 C16 1.776 . S
C1689 C31 1.785 . S
C1708 C276 1.779 . S
C1725 C291 1.785 . S
C1744 C42 1.782 . S
C1761 C57 1.784 . S
C1780 C304 1.779 . S
C1797 C237 1.785 . S
C1816 C70 1.784 . S
C1833 C83 1.784 . S
C1852 C226 1.786 . S
C1869 C161 1.784 . S
C1888 C94 1.776 . S
C1905 C107 1.785 . S
C1924 C174 1.784 . S
C1941 C120 1.783 . S
C1960 C185 1.784 . S
C1977 C133 1.785 . S
C1996 C198 1.776 . S
C2013 C148 1.785 . S
C2032 C211 1.776 . S
