# Generated by pormake.
# Topology sxc, (6)-cn, num edge types: 1
# Building blocks:
#     Node 0, Type 0, BuildingBlock: KUMBOL_clean_sbu_1, # of connection points: 6
#     Node 1, Type 0, BuildingBlock: KUMBOL_clean_sbu_1, # of connection points: 6
#     Node 2, Type 0, BuildingBlock: KUMBOL_clean_sbu_1, # of connection points: 6
#     Edge 3, Type (0, 0), BuildingBlock: XUDNAN_clean_linker_2, # of connection points: 2
#     Edge 4, Type (0, 0), BuildingBlock: XUDNAN_clean_linker_2, # of connection points: 2
#     Edge 5, Type (0, 0), BuildingBlock: XUDNAN_clean_linker_2, # of connection points: 2
#     Edge 6, Type (0, 0), BuildingBlock: XUDNAN_clean_linker_2, # of connection points: 2
#     Edge 7, Type (0, 0), BuildingBlock: XUDNAN_clean_linker_2, # of connection points: 2
#     Edge 8, Type (0, 0), BuildingBlock: XUDNAN_clean_linker_2, # of connection points: 2
#     Edge 9, Type (0, 0), BuildingBlock: XUDNAN_clean_linker_2, # of connection points: 2
#     Edge 10, Type (0, 0), BuildingBlock: XUDNAN_clean_linker_2, # of connection points: 2
#     Edge 11, Type (0, 0), BuildingBlock: XUDNAN_clean_linker_2, # of connection points: 2
# Relax obj value: 0.258
# Max RMSD: 0.158
# Mean RMSD: 0.116
data_MOF--net-sxc--node1-KUMBOL_clean_sbu_1--edge1-XUDNAN_clean_linker_2
_symmetry_space_group_name_H-M    P1
_symmetry_Int_Tables_number       1
_symmetry_cell_setting            triclinic
loop_
_symmetry_equiv_pos_as_xyz
'x, y, z'
_cell_length_a     15.515604
_cell_length_b     16.639047
_cell_length_c     44.405055
_cell_angle_alpha  108.3399
_cell_angle_beta   99.121077
_cell_angle_gamma 96.513196
loop_
_atom_site_label
_atom_site_type_symbol
_atom_site_fract_x
_atom_site_fract_y
_atom_site_fract_z
_atom_type_partial_charge
C0 C 0.33752 0.12996 0.07979 0.0
C1 C 0.42242 1.02045 0.05631 0.0
C2 C 0.36518 1.0786 0.05292 0.0
C3 C 0.44678 1.01031 0.08653 0.0
C4 C 0.36678 0.12346 0.11057 0.0
C5 C 0.41869 1.06139 0.11356 0.0
N6 N 0.29043 0.19221 0.07643 0.0
C7 C 0.28035 0.25555 0.10341 0.0
C8 C 0.3477 0.18291 0.13779 0.0
C9 C 0.3057 0.25012 0.13425 0.0
Gd10 Gd 1.00425 0.13242 0.98219 0.0
Gd11 Gd 0.25105 0.19245 0.02272 0.0
N12 N 0.34052 1.08928 0.02383 0.0
C13 C 0.45544 0.97591 0.02937 0.0
C14 C 0.37487 1.04862 -0.00219 0.0
C15 C 0.43225 0.99077 0.0001 0.0
H16 H 0.35807 1.06106 0.97533 0.0
H17 H 0.45874 0.95786 0.97935 0.0
H18 H 0.93363 1.00277 0.02278 0.0
H19 H 0.25337 0.31116 0.10153 0.0
H20 H 0.83246 1.00055 0.0599 0.0
H21 H 0.49994 0.93109 0.03107 0.0
H22 H 0.48956 0.965 0.08948 0.0
H23 H 0.92876 0.25514 0.94086 0.0
H24 H 0.36922 0.18013 0.16182 0.0
H25 H 0.29458 0.29891 0.15535 0.0
H26 H 0.67876 0.23495 0.06014 0.0
H27 H 0.44073 1.05498 0.13697 0.0
H28 H 0.7291 0.3778 0.98473 0.0
H29 H 0.8229 0.35674 0.94346 0.0
N30 N 0.89753 0.22242 0.98093 0.0
C31 C 0.84288 0.22913 0.0022 0.0
C32 C 0.88787 0.26426 0.95887 0.0
C33 C 0.77564 0.33367 0.98363 0.0
C34 C 0.82818 0.32174 0.9603 0.0
C35 C 0.7809 0.28547 0.00439 0.0
H36 H 0.67643 0.33277 0.02851 0.0
N37 N 0.89937 0.11587 0.01455 0.0
C38 C 0.84393 0.174 0.0197 0.0
C39 C 0.78101 0.11205 0.05554 0.0
C40 C 0.78341 0.17394 0.04034 0.0
C41 C 0.89257 1.05163 0.02767 0.0
C42 C 0.83509 1.04995 0.04884 0.0
O43 O 0.19949 1.04245 0.01093 0.0
O44 O 1.04821 1.00608 0.99073 0.0
O45 O 0.88733 1.07627 0.94407 0.0
O46 O 1.011 1.03231 0.9375 0.0
O47 O 0.21695 0.12474 0.96849 0.0
O48 O 0.10096 0.18935 0.95837 0.0
O49 O 1.05199 0.28396 0.99254 0.0
O50 O 0.19959 0.31891 0.01842 0.0
O51 O 0.33709 0.26326 0.0018 0.0
O52 O 0.38381 0.25415 0.0489 0.0
O53 O 1.05548 0.12865 0.03223 0.0
O54 O 0.15186 0.25099 0.05106 0.0
C55 C 0.12499 0.98257 0.00076 0.0
C56 C 0.16758 0.15407 0.94902 0.0
C57 C 0.87817 0.93407 0.91169 0.0
C58 C 0.8012 0.8129 0.92221 0.0
C59 C 0.77692 0.82121 0.86775 0.0
C60 C 0.83533 0.89969 0.87904 0.0
C61 C 0.75835 0.77875 0.88925 0.0
C62 C 0.86467 0.88849 0.93251 0.0
C63 C 0.92681 1.02233 0.92526 0.0
C64 C 0.72511 0.23349 0.04419 0.0
C65 C 0.72381 0.28919 0.0262 0.0
H66 H 0.73577 0.11001 0.07165 0.0
C67 C 0.12631 0.34382 0.00602 0.0
C68 C 0.08942 0.2001 0.05579 0.0
C69 C 0.42208 0.38611 0.04314 0.0
C70 C 0.5099 0.52045 0.04669 0.0
C71 C 0.39855 0.521 0.07967 0.0
C72 C 0.37784 0.43175 0.06655 0.0
C73 C 0.46329 0.56536 0.06954 0.0
C74 C 0.48902 0.4302 0.03379 0.0
C75 C 0.39767 0.29262 0.02847 0.0
H76 H 0.74301 0.79507 0.84257 0.0
H77 H 0.84509 0.93455 0.8626 0.0
H78 H 0.70825 0.72135 0.88014 0.0
H79 H 0.90086 0.91524 0.95732 0.0
H80 H 0.36305 0.55597 0.0972 0.0
H81 H 0.32604 0.39854 0.0742 0.0
H82 H 0.47522 0.63491 0.07919 0.0
H83 H 0.52436 0.39388 0.01646 0.0
C84 C 0.35168 0.4168 0.39461 0.0
C85 C 0.4237 0.47468 0.35916 0.0
C86 C 0.3478 0.43336 0.36561 0.0
C87 C 0.50359 0.49932 0.3822 0.0
C88 C 0.43145 0.44388 0.41814 0.0
C89 C 0.50752 0.48377 0.41155 0.0
N90 N 0.27697 0.37762 0.40036 0.0
C91 C 0.27518 0.37479 0.43066 0.0
C92 C 0.43165 0.43305 0.44812 0.0
C93 C 0.35266 0.4003 0.45465 0.0
Gd94 Gd 0.10602 1.09036 0.32187 0.0
Gd95 Gd 0.15059 0.34034 0.35824 0.0
N96 N 0.26997 0.40754 0.34342 0.0
C97 C 0.41709 0.48984 0.32966 0.0
C98 C 0.26278 0.42304 0.3148 0.0
C99 C 0.33627 0.46401 0.30743 0.0
H100 H 0.20031 0.40412 0.29771 0.0
H101 H 0.33047 0.47586 0.28464 0.0
H102 H 0.18453 0.99915 0.37613 0.0
H103 H 0.21378 0.3562 0.43708 0.0
H104 H 0.12273 0.92489 0.41035 0.0
H105 H 0.47391 0.52156 0.32386 0.0
H106 H 0.5626 0.53112 0.37767 0.0
H107 H 0.94071 1.06841 0.25959 0.0
H108 H 0.49136 0.4535 0.4669 0.0
H109 H 0.3509 0.39688 0.47846 0.0
H110 H 0.80697 0.88242 0.37286 0.0
H111 H 0.56937 0.50441 0.42929 0.0
H112 H 0.70261 0.94968 0.27727 0.0
H113 H 0.77862 1.01516 0.24341 0.0
N114 N 0.95532 1.03026 0.30123 0.0
C115 C 0.91615 0.98743 0.31839 0.0
C116 C 0.90813 1.03732 0.27378 0.0
C117 C 0.77382 0.97057 0.28387 0.0
C118 C 0.81651 1.00774 0.26474 0.0
C119 C 0.82373 0.96003 0.31113 0.0
H120 H 0.71335 0.90397 0.32671 0.0
N121 N 1.05808 1.00077 0.34984 0.0
C122 C 0.96902 0.97465 0.34411 0.0
C123 C 0.98687 0.91723 0.38787 0.0
C124 C 0.93068 0.93438 0.36353 0.0
C125 C 0.11351 0.98073 0.37246 0.0
C126 C 0.07874 0.93895 0.39191 0.0
O127 O 0.25819 0.27139 0.3342 0.0
O128 O 0.24779 0.15167 0.34838 0.0
O129 O 0.12838 0.95887 0.30297 0.0
O130 O 0.16343 1.04972 0.27921 0.0
O131 O 0.08138 0.29976 0.30601 0.0
O132 O 0.09919 0.15799 0.28441 0.0
O133 O 0.98603 0.15197 0.33605 0.0
O134 O 1.00049 0.29229 0.33762 0.0
O135 O 0.13692 0.46864 0.3584 0.0
O136 O 0.11043 0.43065 0.39867 0.0
O137 O 0.17931 0.1481 0.37414 0.0
O138 O 0.10768 0.26159 0.38878 0.0
C139 C 0.2967 0.2112 0.34164 0.0
C140 C 0.08184 0.23103 0.28124 0.0
C141 C 0.1069 0.9064 0.24519 0.0
C142 C 0.99697 0.77896 0.21206 0.0
C143 C 0.08721 0.85506 0.18636 0.0
C144 C 0.12994 0.91417 0.21674 0.0
C145 C 1.02135 0.78723 0.18396 0.0
C146 C 1.04041 0.83858 0.24255 0.0
C147 C 0.152 0.96931 0.27732 0.0
C148 C 0.83788 0.91199 0.35781 0.0
C149 C 0.78453 0.924 0.33145 0.0
H150 H 0.96011 0.88604 0.40327 0.0
C151 C 0.95115 0.22135 0.33696 0.0
C152 C 0.14416 0.20033 0.39565 0.0
C153 C 1.00813 0.50316 0.37779 0.0
C154 C 0.87325 0.49882 0.33995 0.0
C155 C 0.87687 0.54255 0.39792 0.0
C156 C 0.96498 0.53072 0.40372 0.0
C157 C 0.83143 0.52767 0.36631 0.0
C158 C 0.9614 0.48652 0.34606 0.0
C159 C 0.09893 0.4846 0.38324 0.0
H160 H 0.10545 0.86174 0.16462 0.0
H161 H 0.18105 0.96592 0.21803 0.0
H162 H 0.98921 0.74176 0.1603 0.0
H163 H 1.02308 0.83115 0.26436 0.0
H164 H 0.84399 0.56435 0.41803 0.0
H165 H 0.99919 0.54245 0.42834 0.0
H166 H 0.76434 0.54028 0.36258 0.0
H167 H 0.9948 0.46641 0.32598 0.0
C168 C 0.28446 0.96981 0.69995 0.0
C169 C 0.20585 0.93663 0.73884 0.0
C170 C 0.20703 0.96204 0.71145 0.0
C171 C 0.28527 0.92525 0.75588 0.0
C172 C 0.36242 0.95126 0.71539 0.0
C173 C 0.36364 0.93307 0.74427 0.0
N174 N 0.28108 0.98652 0.67178 0.0
C175 C 0.34485 0.96478 0.65412 0.0
C176 C 0.43498 0.94643 0.70024 0.0
C177 C 0.42444 0.94793 0.66861 0.0
Gd178 Gd 0.19862 0.29059 0.68927 0.0
Gd179 Gd 0.15121 1.03553 0.65453 0.0
N180 N 0.13177 0.97513 0.69482 0.0
C181 C 0.12462 0.92194 0.74788 0.0
C182 C 1.05151 0.95624 0.70234 0.0
C183 C 1.0469 0.93024 0.72918 0.0
H184 H 0.99189 0.96524 0.68849 0.0
H185 H 0.98366 0.91783 0.73571 0.0
H186 H 0.07654 0.31024 0.62353 0.0
H187 H 0.33651 0.96557 0.62956 0.0
H188 H 0.94511 0.37279 0.60984 0.0
H189 H 0.12097 0.9025 0.76881 0.0
H190 H 0.28614 0.90749 0.77738 0.0
H191 H 0.24131 0.34232 0.7709 0.0
H192 H 0.49742 0.93667 0.71198 0.0
H193 H 0.4776 0.93691 0.65556 0.0
H194 H 0.86219 0.49693 0.71202 0.0
H195 H 0.42352 0.92021 0.75678 0.0
H196 H 1.03815 0.4741 0.80695 0.0
H197 H 0.17281 0.41165 0.81651 0.0
N198 N 0.14241 0.3587 0.73519 0.0
C199 C 1.06996 0.39516 0.72954 0.0
C200 C 0.18065 0.36619 0.76607 0.0
C201 C 1.06702 0.44233 0.78665 0.0
C202 C 0.14286 0.40689 0.79214 0.0
C203 C 1.03016 0.43764 0.75514 0.0
H204 H 0.92343 0.5066 0.76789 0.0
N205 N 0.07291 0.34546 0.67355 0.0
C206 C 1.03506 0.38972 0.69794 0.0
C207 C 0.92703 0.41945 0.65912 0.0
C208 C 0.95999 0.42645 0.69125 0.0
C209 C 1.04319 0.34113 0.6424 0.0
C210 C 0.96926 0.37723 0.63465 0.0
O211 O 0.28649 0.10436 0.65061 0.0
O212 O 0.31482 0.22193 0.69661 0.0
O213 O 0.26869 0.37355 0.66847 0.0
O214 O 0.27765 0.41316 0.7204 0.0
O215 O 0.131 0.11142 0.70503 0.0
O216 O 0.24706 0.2222 0.72342 0.0
O217 O 1.05178 0.22571 0.68029 0.0
O218 O 1.01588 1.0764 0.65864 0.0
O219 O 0.09665 0.89911 0.6359 0.0
O220 O 0.11981 0.96416 0.60256 0.0
O221 O 0.20544 0.23044 0.63633 0.0
O222 O 0.1001 0.11197 0.62359 0.0
C223 C 0.3441 0.16686 0.67368 0.0
C224 C 0.19429 0.16323 0.72869 0.0
C225 C 0.2899 0.52246 0.69713 0.0
C226 C 0.35286 0.65222 0.68879 0.0
C227 C 0.21858 0.64825 0.71009 0.0
C228 C 0.22149 0.56347 0.70875 0.0
C229 C 0.28436 0.69284 0.70028 0.0
C230 C 0.35488 0.56697 0.68696 0.0
C231 C 0.29764 0.43476 0.69633 0.0
C232 C 0.92013 0.46851 0.7167 0.0
C233 C 0.955 0.47396 0.74853 0.0
H234 H 0.86954 0.447 0.653 0.0
C235 C 0.99286 0.15309 0.66952 0.0
C236 C 0.15019 0.16506 0.61453 0.0
C237 C 0.98455 0.86849 0.5892 0.0
C238 C 0.82877 0.84034 0.59269 0.0
C239 C 0.86798 0.85284 0.54322 0.0
C240 C 0.95805 0.86757 0.55736 0.0
C241 C 0.80357 0.84028 0.56082 0.0
C242 C 0.91944 0.85229 0.60623 0.0
C243 C 0.07862 0.89635 0.60604 0.0
H244 H 0.16589 0.67974 0.71909 0.0
H245 H 0.17125 0.53073 0.71711 0.0
H246 H 0.28198 0.75863 0.70166 0.0
H247 H 0.40854 0.53601 0.67838 0.0
H248 H 0.848 0.85328 0.51879 0.0
H249 H 1.00688 0.88044 0.54377 0.0
H250 H 0.73439 0.83226 0.54969 0.0
H251 H 0.93945 0.85057 0.63047 0.0
H252 H 0.99328 0.45628 0.9935 0.0
H253 H 0.27662 0.46425 0.01617 0.0
H254 H 0.30202 0.61407 0.01786 0.0
H255 H 1.00468 0.59537 0.94088 0.0
H256 H 0.9163 0.65015 0.95378 0.0
H257 H 0.91875 0.54253 0.95449 0.0
H258 H 0.90964 0.59694 0.01466 0.0
H259 H 0.91233 0.70571 0.01478 0.0
H260 H 0.99378 0.68261 0.04311 0.0
H261 H 0.30129 0.77335 0.01668 0.0
H262 H 0.27461 0.91238 0.01282 0.0
H263 H 0.992 0.8216 0.99015 0.0
C264 C 1.06118 0.48885 -0.00104 0.0
C265 C 0.13304 0.44218 0.00569 0.0
C266 C 0.21901 0.49317 0.0121 0.0
C267 C 0.23448 0.58067 0.01273 0.0
C268 C 0.16393 0.6237 0.00654 0.0
C269 C 0.07825 0.57911 -0.00043 0.0
C270 C 1.01502 0.64257 0.99339 0.0
C271 C 0.96027 0.60542 0.95858 0.0
C272 C 0.95395 0.65775 0.01792 0.0
C273 C 0.07767 0.72901 -0.00178 0.0
C274 C 0.16353 0.71508 0.00569 0.0
C275 C 0.23361 0.78294 0.01096 0.0
C276 C 0.21753 0.8646 0.00884 0.0
C277 C 0.13165 0.88578 0.00154 0.0
C278 C 1.06004 0.8132 -0.00403 0.0
H279 H 0.42612 0.28984 0.31496 0.0
H280 H 0.39669 0.12782 0.37381 0.0
H281 H 0.55429 0.11656 0.37852 0.0
H282 H 0.58481 0.1723 0.27209 0.0
H283 H 0.65029 0.26684 0.2704 0.0
H284 H 0.53409 0.26397 0.2711 0.0
H285 H 0.57107 0.40149 0.32185 0.0
H286 H 0.68565 0.40448 0.31952 0.0
H287 H 0.65162 0.40561 0.35669 0.0
H288 H 0.71463 0.11649 0.37615 0.0
H289 H 0.86797 0.13264 0.36893 0.0
H290 H 0.80974 0.29898 0.3131 0.0
C291 C 0.45296 0.25258 0.32907 0.0
C292 C 0.3964 0.20988 0.34411 0.0
C293 C 0.43606 0.16111 0.36186 0.0
C294 C 0.5266 0.15427 0.36476 0.0
C295 C 0.57977 0.19606 0.34968 0.0
C296 C 0.54487 0.24428 0.33208 0.0
C297 C 0.61846 0.28066 0.31789 0.0
C298 C 0.59551 0.24375 0.28065 0.0
C299 C 0.63257 0.37905 0.3298 0.0
C300 C 0.70033 0.24808 0.33129 0.0
C301 C 0.67476 0.19793 0.34902 0.0
C302 C 0.73517 0.1566 0.36265 0.0
C303 C 0.82335 0.16641 0.35837 0.0
C304 C 0.85421 0.21815 0.34087 0.0
C305 C 0.79055 0.26014 0.32719 0.0
H306 H 0.66263 0.73866 0.5721 0.0
H307 H 0.84155 0.9207 0.65795 0.0
H308 H 0.73849 0.89326 0.69168 0.0
H309 H 0.46102 0.80602 0.59865 0.0
H310 H 0.39748 0.69878 0.58052 0.0
H311 H 0.48601 0.73226 0.56293 0.0
H312 H 0.55917 0.60264 0.56736 0.0
H313 H 0.47123 0.56898 0.58508 0.0
H314 H 0.58486 0.58845 0.60622 0.0
H315 H 0.62218 0.83763 0.71659 0.0
H316 H 0.49009 0.77001 0.73036 0.0
H317 H 0.38137 0.6341 0.62832 0.0
C318 C 0.67974 0.7739 0.59789 0.0
C319 C 0.76193 0.82976 0.61238 0.0
C320 C 0.78119 0.87444 0.64634 0.0
C321 C 0.72252 0.86014 0.66574 0.0
C322 C 0.64328 0.80321 0.65074 0.0
C323 C 0.6208 0.76222 0.61756 0.0
C324 C 0.53052 0.70537 0.60755 0.0
C325 C 0.46488 0.73756 0.58615 0.0
C326 C 0.53689 0.61078 0.59056 0.0
C327 C 0.50703 0.71911 0.64039 0.0
C328 C 0.57316 0.77565 0.66499 0.0
C329 C 0.56905 0.79463 0.69755 0.0
C330 C 0.49404 0.7565 0.70515 0.0
C331 C 0.42567 0.69912 0.68028 0.0
C332 C 0.43224 0.67984 0.64757 0.0
H333 H 0.82598 1.07389 0.62651 0.0
H334 H 0.94397 0.2483 0.72366 0.0
H335 H 0.79551 0.26896 0.73413 0.0
H336 H 0.64915 0.19779 0.6136 0.0
H337 H 0.56565 0.10488 0.59042 0.0
H338 H 0.68103 1.10035 0.58997 0.0
H339 H 0.66791 0.96822 0.60842 0.0
H340 H 0.55264 0.97218 0.60901 0.0
H341 H 0.62722 0.97493 0.6449 0.0
H342 H 0.63425 0.27023 0.7355 0.0
H343 H 0.47245 0.25756 0.72713 0.0
H344 H 0.44727 1.08784 0.6281 0.0
C345 C 0.82035 0.11603 0.65003 0.0
C346 C 0.89849 0.16003 0.67428 0.0
C347 C 0.88679 0.21494 0.70449 0.0
C348 C 0.80199 0.22665 0.71078 0.0
C349 C 0.72695 0.18366 0.68659 0.0
C350 C 0.73475 0.12989 0.65663 0.0
C351 C 0.64186 1.09516 0.63468 0.0
C352 C 0.63396 0.1264 0.60543 0.0
C353 C 0.62125 0.99667 0.62358 0.0
C354 C 0.58124 0.1355 0.65733 0.0
C355 C 0.63263 0.18641 0.6871 0.0
C356 C 0.59367 0.23057 0.71221 0.0
C357 C 0.50062 0.22294 0.70709 0.0
C358 C 0.44449 0.17134 0.67699 0.0
C359 C 0.48665 0.12727 0.65162 0.0
H360 H 0.72784 0.64409 0.91346 0.0
H361 H 0.80418 0.89907 0.98619 0.0
H362 H 0.76807 0.84168 0.0275 0.0
H363 H 0.53167 0.61056 0.94096 0.0
H364 H 0.52619 0.49624 0.93137 0.0
H365 H 0.58085 0.55074 0.90865 0.0
H366 H 0.72753 0.49449 0.92341 0.0
H367 H 0.66783 0.4368 0.94406 0.0
H368 H 0.77036 0.50942 0.96537 0.0
H369 H 0.71772 0.76133 0.06082 0.0
H370 H 0.62436 0.67132 0.08185 0.0
H371 H 0.54743 0.47777 0.98551 0.0
C372 C 0.73823 0.68806 0.93806 0.0
C373 C 0.77558 0.77582 0.94667 0.0
C374 C 0.78419 0.83061 0.97919 0.0
C375 C 0.76226 0.79876 0.00296 0.0
C376 C 0.72728 0.71224 0.99374 0.0
C377 C 0.71216 0.65815 0.96192 0.0
C378 C 0.65682 0.57274 0.95745 0.0
C379 C 0.56867 0.5567 0.93319 0.0
C380 C 0.70883 0.49902 0.94696 0.0
C381 C 0.64252 0.58845 0.99166 0.0
C382 C 0.68671 0.66816 0.01235 0.0
C383 C 0.68207 0.69878 0.0449 0.0
C384 C 0.62794 0.64756 0.0565 0.0
C385 C 0.57686 0.56803 0.03529 0.0
C386 C 0.58626 0.53745 0.00261 0.0
H387 H 0.78464 0.61496 0.32448 0.0
H388 H 0.87801 0.37863 0.28109 0.0
H389 H 0.86896 0.40891 0.23002 0.0
H390 H 0.65794 0.65183 0.24969 0.0
H391 H 0.71077 0.76317 0.26657 0.0
H392 H 0.68352 0.70558 0.29302 0.0
H393 H 0.84667 0.74696 0.32392 0.0
H394 H 0.87896 0.80111 0.29725 0.0
H395 H 0.93318 0.7157 0.30245 0.0
H396 H 0.91067 0.48985 0.19509 0.0
H397 H 0.98729 0.6062 0.18044 0.0
H398 H 0.86116 0.79009 0.24316 0.0
C399 C 0.79675 0.5665 0.30348 0.0
C400 C 0.83268 0.49529 0.30683 0.0
C401 C 0.85094 0.43442 0.27915 0.0
C402 C 0.84565 0.45108 0.2499 0.0
C403 C 0.82106 0.5283 0.24864 0.0
C404 C 0.79485 0.58421 0.27467 0.0
C405 C 0.79866 0.67272 0.2721 0.0
C406 C 0.70721 0.69988 0.27022 0.0
C407 C 0.86823 0.73799 0.30063 0.0
C408 C 0.83018 0.65889 0.24075 0.0
C409 C 0.84385 0.57529 0.2275 0.0
C410 C 0.89628 0.55424 0.2042 0.0
C411 C 0.93959 0.62071 0.19588 0.0
C412 C 0.92963 0.70677 0.21079 0.0
C413 C 0.86844 0.7243 0.23117 0.0
H414 H 0.08064 0.10613 0.22211 0.0
H415 H 1.04664 0.37118 0.2643 0.0
H416 H 1.03626 0.38852 0.21088 0.0
H417 H 0.21345 0.13837 0.17017 0.0
H418 H 0.16627 1.04352 0.13542 0.0
H419 H 0.16118 1.04324 0.17561 0.0
H420 H 0.99192 1.00223 0.16179 0.0
H421 H 0.99326 0.99586 0.12058 0.0
H422 H 0.9261 1.06339 0.14326 0.0
H423 H 1.04667 0.38296 0.1542 0.0
H424 H 1.06405 0.35047 0.09734 0.0
H425 H 0.07964 1.08671 0.0897 0.0
C426 C 1.06969 0.16752 0.22011 0.0
C427 C 1.06576 0.23762 0.24791 0.0
C428 C 1.0511 0.31657 0.24381 0.0
C429 C 1.04484 0.32712 0.21339 0.0
C430 C 1.05144 0.25771 0.1868 0.0
C431 C 1.06175 0.17884 0.18966 0.0
C432 C 1.06853 0.1152 0.1572 0.0
C433 C 0.15765 1.08316 0.15972 0.0
C434 C 0.99028 1.0397 0.14499 0.0
C435 C 1.06295 0.17134 0.13593 0.0
C436 C 1.0532 0.2534 0.15359 0.0
C437 C 1.05256 0.3185 0.14001 0.0
C438 C 1.06247 0.29957 0.1077 0.0
C439 C 0.07153 0.21595 0.08897 0.0
C440 C 1.07055 0.1507 0.10322 0.0
H441 H 0.26927 0.21547 0.45006 0.0
H442 H 0.98817 0.14489 0.40869 0.0
H443 H 0.95991 0.12077 0.45871 0.0
H444 H 0.28074 1.06923 0.49752 0.0
H445 H 0.35867 0.14651 0.53162 0.0
H446 H 0.35786 0.1491 0.4913 0.0
H447 H 0.33951 0.30739 0.51099 0.0
H448 H 0.33579 0.30645 0.55113 0.0
H449 H 0.24589 0.33743 0.52867 0.0
H450 H 0.9622 0.10483 0.51369 0.0
H451 H 0.99255 0.11039 0.57077 0.0
H452 H 0.27036 0.20674 0.57966 0.0
C453 C 0.20203 0.19401 0.45152 0.0
C454 C 0.13056 0.18116 0.42533 0.0
C455 C 1.04347 0.15466 0.42835 0.0
C456 C 1.027 0.14067 0.45669 0.0
C457 C 0.09836 0.15525 0.48235 0.0
C458 C 0.18418 0.18219 0.48021 0.0
C459 C 0.24795 0.19891 0.51224 0.0
C460 C 0.31529 0.13726 0.50791 0.0
C461 C 0.29496 0.2932 0.5266 0.0
C462 C 0.1845 0.17869 0.53279 0.0
C463 C 0.09882 0.15161 0.51478 0.0
C464 C 1.02898 0.12655 0.52804 0.0
C465 C 1.04687 0.12979 0.56052 0.0
C466 C 0.13355 0.15989 0.57985 0.0
C467 C 0.20316 0.18461 0.56565 0.0
H468 H 1.0669 0.15047 0.76467 0.0
H469 H 0.34863 0.16397 0.76748 0.0
H470 H 0.37165 0.15596 0.82288 0.0
H471 H 0.09152 0.28847 0.84709 0.0
H472 H 0.99533 0.23159 0.85434 0.0
H473 H 0.99988 0.23066 0.81395 0.0
H474 H 0.97144 1.06398 0.79292 0.0
H475 H 0.96619 1.0645 0.83324 0.0
H476 H 1.04299 1.00801 0.81197 0.0
H477 H 0.36361 0.14494 0.87819 0.0
H478 H 0.32784 0.14577 0.93065 0.0
H479 H 1.05334 0.15305 0.89438 0.0
C480 C 0.13317 0.15083 0.77693 0.0
C481 C 0.20605 0.15683 0.76172 0.0
C482 C 0.29206 0.15927 0.77873 0.0
C483 C 0.30563 0.15436 0.81014 0.0
C484 C 0.23269 0.14899 0.82466 0.0
C485 C 0.14824 0.14839 0.80877 0.0
C486 C 0.08231 0.14832 0.83073 0.0
C487 C 1.03976 0.22959 0.83689 0.0
C488 C 1.01154 1.06633 0.81635 0.0
C489 C 0.14272 0.14898 0.8614 0.0
C490 C 0.22897 0.14788 0.85717 0.0
C491 C 0.29635 0.14628 0.88179 0.0
C492 C 0.27539 0.14653 0.91154 0.0
C493 C 0.18804 0.15004 0.91685 0.0
C494 C 0.121 0.15116 0.89126 0.0
loop_
_geom_bond_atom_site_label_1
_geom_bond_atom_site_label_2
_geom_bond_distance
_geom_bond_site_symmetry_2
_ccdc_geom_bond_type
C0 C2 1.422 . S
C0 C4 1.415 . S
C0 N6 1.369 . S
C1 C2 1.421 . S
C1 C3 1.417 . S
C1 C13 1.422 1_544 S
C2 C0 1.422 . S
C2 C1 1.421 . S
C2 N12 1.359 . S
C3 C1 1.417 . S
C3 C5 1.329 . S
C3 H22 0.930 1_545 S
C4 C0 1.415 . S
C4 C5 1.437 . S
C4 C8 1.413 . S
C5 C3 1.329 . S
C5 C4 1.437 . S
C5 H27 0.929 . S
N6 C0 1.369 . S
N6 C7 1.338 . S
N6 Gd11 2.622 . S
C7 N6 1.338 . S
C7 C9 1.378 . S
C7 H19 0.929 . S
C8 C4 1.413 . S
C8 C9 1.348 . S
C8 H24 0.931 . S
C9 C7 1.378 . S
C9 C8 1.348 . S
C9 H25 0.930 . S
Gd10 N30 2.622 . S
Gd10 N37 2.570 1_556 S
Gd10 O44 2.353 1_545 S
Gd10 O45 2.468 1_546 S
Gd10 O46 2.427 1_545 S
Gd10 O48 2.388 . S
Gd10 O49 2.386 . S
Gd10 O53 2.307 1_556 S
Gd10 C63 2.805 1_545 S
Gd11 N6 2.622 . S
Gd11 N12 2.570 . S
Gd11 O43 2.386 . S
Gd11 O47 2.307 1_554 S
Gd11 O50 2.353 . S
Gd11 O51 2.490 . S
Gd11 O52 2.427 . S
Gd11 O54 2.388 . S
Gd11 C75 2.805 . S
N12 C2 1.359 . S
N12 Gd11 2.570 . S
N12 C14 1.343 1_554 S
C13 C1 1.422 1_566 S
C13 C15 1.317 1_565 S
C13 H21 0.935 . S
C14 N12 1.343 1_556 S
C14 C15 1.390 . S
C14 H16 0.931 . S
C15 C13 1.317 1_545 S
C15 C14 1.390 . S
C15 H17 0.930 . S
H16 C14 0.931 . S
H17 C15 0.930 . S
H18 C41 0.931 . S
H19 C7 0.929 . S
H20 C42 0.930 . S
H21 C13 0.935 . S
H22 C3 0.930 1_565 S
H23 C32 0.929 . S
H24 C8 0.931 . S
H25 C9 0.930 . S
H26 C64 0.930 . S
H27 C5 0.929 . S
H28 C33 0.931 . S
H29 C34 0.930 . S
N30 Gd10 2.622 . S
N30 C31 1.369 . S
N30 C32 1.338 . S
C31 N30 1.369 . S
C31 C35 1.415 . S
C31 C38 1.422 . S
C32 H23 0.929 . S
C32 N30 1.338 . S
C32 C34 1.378 . S
C33 H28 0.931 . S
C33 C34 1.348 . S
C33 C35 1.413 . S
C34 H29 0.930 . S
C34 C32 1.378 . S
C34 C33 1.348 . S
C35 C31 1.415 . S
C35 C33 1.413 . S
C35 C65 1.437 . S
H36 C65 0.929 . S
N37 Gd10 2.570 1_554 S
N37 C38 1.359 1_554 S
N37 C41 1.343 . S
C38 C31 1.422 . S
C38 N37 1.359 1_556 S
C38 C40 1.428 . S
C39 C40 1.391 1_554 S
C39 C42 1.321 . S
C39 H66 0.931 . S
C40 C38 1.428 . S
C40 C39 1.391 1_556 S
C40 C64 1.442 . S
C41 H18 0.931 . S
C41 N37 1.343 . S
C41 C42 1.390 . S
C42 H20 0.930 . S
C42 C39 1.321 . S
C42 C41 1.390 . S
O43 Gd11 2.386 . S
O43 C55 1.272 1_545 S
O44 Gd10 2.353 1_565 S
O44 C55 1.235 1_656 S
O45 Gd10 2.468 1_564 S
O45 C63 1.263 1_554 S
O46 Gd10 2.427 1_565 S
O46 C63 1.252 . S
O47 Gd11 2.307 1_556 S
O47 C56 1.261 . S
O48 Gd10 2.388 . S
O48 C56 1.252 1_655 S
O49 Gd10 2.386 . S
O49 C67 1.265 1_556 S
O50 Gd11 2.353 . S
O50 C67 1.242 1_455 S
O51 Gd11 2.490 . S
O51 C75 1.283 . S
O52 Gd11 2.427 . S
O52 C75 1.252 . S
O53 Gd10 2.307 1_554 S
O53 C68 1.261 . S
O54 Gd11 2.388 . S
O54 C68 1.252 1_455 S
C55 O43 1.272 1_565 S
C55 O44 1.235 1_454 S
C56 O47 1.261 . S
C56 O48 1.252 1_455 S
C57 C60 1.394 . S
C57 C62 1.370 1_556 S
C57 C63 1.500 . S
C58 C61 1.383 1_554 S
C58 C62 1.395 . S
C59 C60 1.396 . S
C59 C61 1.365 . S
C59 H76 0.929 . S
C60 C57 1.394 . S
C60 C59 1.396 . S
C60 H77 0.930 . S
C61 C58 1.383 1_556 S
C61 C59 1.365 . S
C61 H78 0.931 . S
C62 C57 1.370 1_554 S
C62 C58 1.395 . S
C62 H79 0.930 . S
C63 Gd10 2.805 1_565 S
C63 O45 1.263 1_556 S
C63 O46 1.252 . S
C63 C57 1.500 . S
C64 H26 0.930 . S
C64 C40 1.442 . S
C64 C65 1.329 . S
C65 C35 1.437 . S
C65 H36 0.929 . S
C65 C64 1.329 . S
H66 C39 0.931 . S
C67 O49 1.265 1_554 S
C67 O50 1.242 1_655 S
C68 O53 1.261 . S
C68 O54 1.252 1_655 S
C69 C72 1.394 . S
C69 C74 1.370 . S
C69 C75 1.500 . S
C70 C73 1.383 . S
C70 C74 1.395 . S
C71 C72 1.396 . S
C71 C73 1.365 . S
C71 H80 0.929 . S
C72 C69 1.394 . S
C72 C71 1.396 . S
C72 H81 0.930 . S
C73 C70 1.383 . S
C73 C71 1.365 . S
C73 H82 0.931 . S
C74 C69 1.370 . S
C74 C70 1.395 . S
C74 H83 0.930 1_554 S
C75 Gd11 2.805 . S
C75 O51 1.283 . S
C75 O52 1.252 . S
C75 C69 1.500 . S
H76 C59 0.929 . S
H77 C60 0.930 . S
H78 C61 0.931 . S
H79 C62 0.930 . S
H80 C71 0.929 . S
H81 C72 0.930 . S
H82 C73 0.931 . S
H83 C74 0.930 1_556 S
C84 C86 1.422 . S
C84 C88 1.415 . S
C84 N90 1.369 . S
C85 C86 1.421 . S
C85 C87 1.417 . S
C85 C97 1.422 . S
C86 C84 1.422 . S
C86 C85 1.421 . S
C86 N96 1.359 . S
C87 C85 1.417 . S
C87 C89 1.329 . S
C87 H106 0.930 . S
C88 C84 1.415 . S
C88 C89 1.437 . S
C88 C92 1.413 . S
C89 C87 1.329 . S
C89 C88 1.437 . S
C89 H111 0.929 . S
N90 C84 1.369 . S
N90 C91 1.338 . S
N90 Gd95 2.622 . S
C91 N90 1.338 . S
C91 C93 1.378 . S
C91 H103 0.929 . S
C92 C88 1.413 . S
C92 C93 1.348 . S
C92 H108 0.931 . S
C93 C91 1.378 . S
C93 C92 1.348 . S
C93 H109 0.930 . S
Gd94 N114 2.622 1_545 S
Gd94 N121 2.570 1_545 S
Gd94 O128 2.353 1_655 S
Gd94 O129 2.468 1_645 S
Gd94 O130 2.427 1_645 S
Gd94 O132 2.388 1_655 S
Gd94 O133 2.386 . S
Gd94 O137 2.306 . S
Gd94 C147 2.805 1_645 S
Gd95 N90 2.622 . S
Gd95 N96 2.570 . S
Gd95 O127 2.386 . S
Gd95 O131 2.307 . S
Gd95 O134 2.353 1_455 S
Gd95 O135 2.468 . S
Gd95 O136 2.427 . S
Gd95 O138 2.388 . S
Gd95 C159 2.805 . S
N96 C86 1.359 . S
N96 Gd95 2.570 . S
N96 C98 1.343 . S
C97 C85 1.422 . S
C97 C99 1.321 . S
C97 H105 0.931 . S
C98 N96 1.343 . S
C98 C99 1.390 . S
C98 H100 0.931 . S
C99 C97 1.321 . S
C99 C98 1.390 . S
C99 H101 0.930 . S
H100 C98 0.931 . S
H101 C99 0.930 . S
H102 C125 0.931 . S
H103 C91 0.929 . S
H104 C126 0.930 . S
H105 C97 0.931 . S
H106 C87 0.930 . S
H107 C116 0.929 . S
H108 C92 0.931 . S
H109 C93 0.930 . S
H110 C148 0.930 . S
H111 C89 0.929 . S
H112 C117 0.931 . S
H113 C118 0.930 . S
N114 Gd94 2.622 1_565 S
N114 C115 1.369 . S
N114 C116 1.338 . S
C115 N114 1.369 . S
C115 C119 1.415 . S
C115 C122 1.422 . S
C116 H107 0.929 . S
C116 N114 1.338 . S
C116 C118 1.378 . S
C117 H112 0.931 . S
C117 C118 1.348 . S
C117 C119 1.413 . S
C118 H113 0.930 . S
C118 C116 1.378 . S
C118 C117 1.348 . S
C119 C115 1.415 . S
C119 C117 1.413 . S
C119 C149 1.437 . S
H120 C149 0.929 . S
N121 Gd94 2.570 1_565 S
N121 C122 1.359 . S
N121 C125 1.343 . S
C122 C115 1.422 . S
C122 N121 1.359 . S
C122 C124 1.421 . S
C123 C124 1.422 . S
C123 C126 1.321 . S
C123 H150 0.931 . S
C124 C122 1.421 . S
C124 C123 1.422 . S
C124 C148 1.417 . S
C125 H102 0.931 . S
C125 N121 1.343 . S
C125 C126 1.390 . S
C126 H104 0.930 . S
C126 C123 1.321 . S
C126 C125 1.390 . S
O127 Gd95 2.386 . S
O127 C139 1.265 . S
O128 Gd94 2.353 1_455 S
O128 C139 1.242 . S
O129 Gd94 2.468 1_465 S
O129 C147 1.263 . S
O130 Gd94 2.427 1_465 S
O130 C147 1.252 . S
O131 Gd95 2.307 . S
O131 C140 1.261 . S
O132 Gd94 2.388 1_455 S
O132 C140 1.252 . S
O133 Gd94 2.386 . S
O133 C151 1.265 . S
O134 Gd95 2.353 1_655 S
O134 C151 1.242 . S
O135 Gd95 2.468 . S
O135 C159 1.263 . S
O136 Gd95 2.427 . S
O136 C159 1.252 . S
O137 Gd94 2.306 . S
O137 C152 1.261 1_655 S
O138 Gd95 2.388 . S
O138 C152 1.252 . S
C139 O127 1.265 . S
C139 O128 1.242 . S
C140 O131 1.261 . S
C140 O132 1.252 . S
C141 C144 1.394 . S
C141 C146 1.370 . S
C141 C147 1.500 . S
C142 C145 1.383 . S
C142 C146 1.395 . S
C143 C144 1.396 . S
C143 C145 1.365 . S
C143 H160 0.929 . S
C144 C141 1.394 . S
C144 C143 1.396 . S
C144 H161 0.930 . S
C145 C142 1.383 . S
C145 C143 1.365 . S
C145 H162 0.931 . S
C146 C141 1.370 . S
C146 C142 1.395 . S
C146 H163 0.930 . S
C147 Gd94 2.805 1_465 S
C147 O129 1.263 . S
C147 O130 1.252 . S
C147 C141 1.500 . S
C148 H110 0.930 . S
C148 C124 1.417 . S
C148 C149 1.329 . S
C149 C119 1.437 . S
C149 H120 0.929 . S
C149 C148 1.329 . S
H150 C123 0.931 . S
C151 O133 1.265 . S
C151 O134 1.242 . S
C152 O137 1.261 1_455 S
C152 O138 1.252 . S
C153 C156 1.394 . S
C153 C158 1.370 1_455 S
C153 C159 1.500 . S
C154 C157 1.383 . S
C154 C158 1.395 . S
C155 C156 1.395 . S
C155 C157 1.365 1_455 S
C155 H164 0.930 . S
C156 C153 1.394 . S
C156 C155 1.395 . S
C156 H165 0.930 . S
C157 C154 1.383 . S
C157 C155 1.365 1_655 S
C157 H166 0.931 . S
C158 C153 1.370 1_655 S
C158 C154 1.395 . S
C158 H167 0.930 . S
C159 Gd95 2.805 . S
C159 O135 1.263 . S
C159 O136 1.252 . S
C159 C153 1.500 . S
H160 C143 0.929 . S
H161 C144 0.930 . S
H162 C145 0.931 . S
H163 C146 0.930 . S
H164 C155 0.930 . S
H165 C156 0.930 . S
H166 C157 0.931 . S
H167 C158 0.930 . S
C168 C170 1.422 . S
C168 C172 1.415 . S
C168 N174 1.369 . S
C169 C170 1.421 . S
C169 C171 1.417 . S
C169 C181 1.422 . S
C170 C168 1.422 . S
C170 C169 1.421 . S
C170 N180 1.359 . S
C171 C169 1.417 . S
C171 C173 1.329 . S
C171 H190 0.930 . S
C172 C168 1.415 . S
C172 C173 1.437 . S
C172 C176 1.413 . S
C173 C171 1.329 . S
C173 C172 1.437 . S
C173 H195 0.929 . S
N174 C168 1.369 . S
N174 C175 1.338 . S
N174 Gd179 2.622 . S
C175 N174 1.338 . S
C175 C177 1.378 . S
C175 H187 0.929 . S
C176 C172 1.413 . S
C176 C177 1.348 . S
C176 H192 0.931 . S
C177 C175 1.378 . S
C177 C176 1.348 . S
C177 H193 0.930 . S
Gd178 N198 2.622 . S
Gd178 N205 2.570 . S
Gd178 O212 2.353 . S
Gd178 O213 2.468 . S
Gd178 O214 2.427 . S
Gd178 O216 2.388 . S
Gd178 O217 2.386 1_455 S
Gd178 O221 2.307 . S
Gd178 C231 2.805 . S
Gd179 N174 2.622 . S
Gd179 N180 2.570 . S
Gd179 O211 2.386 . S
Gd179 O215 2.307 . S
Gd179 O218 2.353 1_455 S
Gd179 O219 2.468 1_455 S
Gd179 O220 2.427 1_455 S
Gd179 O222 2.388 . S
Gd179 C243 2.805 1_455 S
N180 C170 1.359 . S
N180 Gd179 2.570 . S
N180 C182 1.343 . S
C181 C169 1.422 . S
C181 C183 1.321 . S
C181 H189 0.931 . S
C182 N180 1.343 . S
C182 C183 1.390 . S
C182 H184 0.931 . S
C183 C181 1.321 . S
C183 C182 1.390 . S
C183 H185 0.930 . S
H184 C182 0.931 . S
H185 C183 0.930 . S
H186 C209 0.931 . S
H187 C175 0.929 . S
H188 C210 0.930 . S
H189 C181 0.931 . S
H190 C171 0.930 . S
H191 C200 0.929 . S
H192 C176 0.931 . S
H193 C177 0.930 . S
H194 C232 0.930 . S
H195 C173 0.929 . S
H196 C201 0.931 . S
H197 C202 0.930 . S
N198 Gd178 2.622 . S
N198 C199 1.369 . S
N198 C200 1.338 . S
C199 N198 1.369 . S
C199 C203 1.415 . S
C199 C206 1.422 . S
C200 H191 0.929 . S
C200 N198 1.338 . S
C200 C202 1.378 . S
C201 H196 0.931 . S
C201 C202 1.348 . S
C201 C203 1.413 . S
C202 H197 0.930 . S
C202 C200 1.378 . S
C202 C201 1.348 . S
C203 C199 1.415 . S
C203 C201 1.413 . S
C203 C233 1.437 1_455 S
H204 C233 0.929 . S
N205 Gd178 2.570 . S
N205 C206 1.359 . S
N205 C209 1.343 . S
C206 C199 1.422 . S
C206 N205 1.359 . S
C206 C208 1.421 1_455 S
C207 C208 1.422 . S
C207 C210 1.321 . S
C207 H234 0.931 . S
C208 C206 1.421 1_655 S
C208 C207 1.422 . S
C208 C232 1.417 . S
C209 H186 0.931 . S
C209 N205 1.343 . S
C209 C210 1.390 1_455 S
C210 H188 0.930 . S
C210 C207 1.321 . S
C210 C209 1.390 1_655 S
O211 Gd179 2.386 . S
O211 C223 1.265 1_565 S
O212 Gd178 2.353 . S
O212 C223 1.242 . S
O213 Gd178 2.468 . S
O213 C231 1.263 . S
O214 Gd178 2.427 . S
O214 C231 1.252 . S
O215 Gd179 2.307 . S
O215 C224 1.261 1_565 S
O216 Gd178 2.388 . S
O216 C224 1.252 . S
O217 Gd178 2.386 1_655 S
O217 C235 1.265 . S
O218 Gd179 2.353 1_655 S
O218 C235 1.242 1_565 S
O219 Gd179 2.468 1_655 S
O219 C243 1.263 . S
O220 Gd179 2.427 1_655 S
O220 C243 1.252 . S
O221 Gd178 2.307 . S
O221 C236 1.261 . S
O222 Gd179 2.388 . S
O222 C236 1.252 1_565 S
C223 O211 1.265 1_545 S
C223 O212 1.242 . S
C224 O215 1.261 1_545 S
C224 O216 1.252 . S
C225 C228 1.394 . S
C225 C230 1.370 . S
C225 C231 1.500 . S
C226 C229 1.383 . S
C226 C230 1.395 . S
C227 C228 1.396 . S
C227 C229 1.365 . S
C227 H244 0.929 . S
C228 C225 1.394 . S
C228 C227 1.396 . S
C228 H245 0.930 . S
C229 C226 1.383 . S
C229 C227 1.365 . S
C229 H246 0.931 . S
C230 C225 1.370 . S
C230 C226 1.395 . S
C230 H247 0.930 . S
C231 Gd178 2.805 . S
C231 O213 1.263 . S
C231 O214 1.252 . S
C231 C225 1.500 . S
C232 H194 0.930 . S
C232 C208 1.417 . S
C232 C233 1.329 . S
C233 C203 1.437 1_655 S
C233 H204 0.929 . S
C233 C232 1.329 . S
H234 C207 0.931 . S
C235 O217 1.265 . S
C235 O218 1.242 1_545 S
C236 O221 1.261 . S
C236 O222 1.252 1_545 S
C237 C240 1.394 . S
C237 C242 1.370 . S
C237 C243 1.500 . S
C238 C241 1.383 . S
C238 C242 1.395 . S
C239 C240 1.396 . S
C239 C241 1.365 . S
C239 H248 0.929 . S
C240 C237 1.394 . S
C240 C239 1.396 . S
C240 H249 0.930 . S
C241 C238 1.383 . S
C241 C239 1.365 . S
C241 H250 0.931 . S
C242 C237 1.370 . S
C242 C238 1.395 . S
C242 H251 0.930 . S
C243 Gd179 2.805 1_655 S
C243 O219 1.263 . S
C243 O220 1.252 . S
C243 C237 1.500 . S
H244 C227 0.929 . S
H245 C228 0.930 . S
H246 C229 0.931 . S
H247 C230 0.930 . S
H248 C239 0.929 . S
H249 C240 0.930 . S
H250 C241 0.931 . S
H251 C242 0.930 . S
H252 C264 0.930 . S
H253 C266 0.930 . S
H254 C267 0.932 1_455 S
H255 C271 0.959 . S
H256 C271 0.959 . S
H257 C271 0.961 . S
H258 C272 0.960 . S
H259 C272 0.961 . S
H260 C272 0.959 . S
H261 C275 0.929 . S
H262 C276 0.931 . S
H263 C278 0.929 . S
C264 H252 0.930 . S
C264 C265 1.399 1_556 S
C264 C269 1.399 . S
C265 C264 1.399 1_554 S
C265 C266 1.376 . S
C266 H253 0.930 . S
C266 C265 1.376 . S
C266 C267 1.388 . S
C267 H254 0.932 1_655 S
C267 C266 1.388 . S
C267 C268 1.390 . S
C268 C267 1.390 . S
C268 C269 1.394 1_554 S
C268 C274 1.465 1_655 S
C269 C264 1.399 . S
C269 C268 1.394 1_556 S
C269 C270 1.516 . S
C270 C269 1.516 . S
C270 C271 1.502 1_655 S
C270 C272 1.561 . S
C270 C273 1.526 . S
C271 H255 0.959 . S
C271 H256 0.959 . S
C271 H257 0.961 . S
C271 C270 1.502 1_455 S
C272 H258 0.960 . S
C272 H259 0.961 . S
C272 H260 0.959 . S
C272 C270 1.561 . S
C273 C270 1.526 . S
C273 C274 1.396 1_656 S
C273 C278 1.390 1_655 S
C274 C268 1.465 1_455 S
C274 C273 1.396 1_454 S
C274 C275 1.399 . S
C275 H261 0.929 . S
C275 C274 1.399 . S
C275 C276 1.385 . S
C276 H262 0.931 . S
C276 C275 1.385 . S
C276 C277 1.389 . S
C277 C276 1.389 . S
C277 C278 1.387 1_554 S
C278 H263 0.929 . S
C278 C273 1.390 1_455 S
C278 C277 1.387 1_556 S
H279 C291 0.930 . S
H280 C293 0.930 1_565 S
H281 C294 0.930 1_565 S
H282 C298 0.959 . S
H283 C298 0.959 . S
H284 C298 0.961 . S
H285 C299 0.960 . S
H286 C299 0.961 . S
H287 C299 0.959 . S
H288 C302 0.929 1_565 S
H289 C303 0.931 . S
H290 C305 0.930 . S
C291 H279 0.930 . S
C291 C292 1.399 . S
C291 C296 1.399 . S
C292 C291 1.399 . S
C292 C293 1.376 . S
C293 H280 0.930 1_545 S
C293 C292 1.376 . S
C293 C294 1.388 . S
C294 H281 0.930 1_545 S
C294 C293 1.388 . S
C294 C295 1.390 . S
C295 C294 1.390 . S
C295 C296 1.394 . S
C295 C301 1.465 . S
C296 C291 1.399 . S
C296 C295 1.394 . S
C296 C297 1.516 . S
C297 C296 1.516 . S
C297 C298 1.502 . S
C297 C299 1.561 . S
C297 C300 1.526 . S
C298 H282 0.959 . S
C298 H283 0.959 . S
C298 H284 0.961 . S
C298 C297 1.502 . S
C299 H285 0.960 . S
C299 H286 0.961 . S
C299 H287 0.959 . S
C299 C297 1.561 . S
C300 C297 1.526 . S
C300 C301 1.396 . S
C300 C305 1.390 . S
C301 C295 1.465 . S
C301 C300 1.396 . S
C301 C302 1.399 . S
C302 H288 0.929 1_545 S
C302 C301 1.399 . S
C302 C303 1.385 . S
C303 H289 0.931 . S
C303 C302 1.385 . S
C303 C304 1.389 . S
C304 C303 1.389 . S
C304 C305 1.387 . S
C305 H290 0.930 . S
C305 C300 1.390 . S
C305 C304 1.387 . S
H306 C318 0.930 . S
H307 C320 0.930 . S
H308 C321 0.930 . S
H309 C325 0.959 . S
H310 C325 0.959 . S
H311 C325 0.961 . S
H312 C326 0.960 . S
H313 C326 0.961 . S
H314 C326 0.959 . S
H315 C329 0.929 . S
H316 C330 0.931 . S
H317 C332 0.930 . S
C318 H306 0.930 . S
C318 C319 1.399 . S
C318 C323 1.399 . S
C319 C318 1.399 . S
C319 C320 1.376 . S
C320 H307 0.930 . S
C320 C319 1.376 . S
C320 C321 1.388 . S
C321 H308 0.930 . S
C321 C320 1.388 . S
C321 C322 1.390 . S
C322 C321 1.390 . S
C322 C323 1.394 . S
C322 C328 1.465 . S
C323 C318 1.399 . S
C323 C322 1.394 . S
C323 C324 1.516 . S
C324 C323 1.516 . S
C324 C325 1.502 . S
C324 C326 1.561 . S
C324 C327 1.526 . S
C325 H309 0.959 . S
C325 H310 0.959 . S
C325 H311 0.961 . S
C325 C324 1.502 . S
C326 H312 0.960 . S
C326 H313 0.961 . S
C326 H314 0.959 . S
C326 C324 1.561 . S
C327 C324 1.526 . S
C327 C328 1.396 . S
C327 C332 1.390 . S
C328 C322 1.465 . S
C328 C327 1.396 . S
C328 C329 1.399 . S
C329 H315 0.929 . S
C329 C328 1.399 . S
C329 C330 1.385 . S
C330 H316 0.931 . S
C330 C329 1.385 . S
C330 C331 1.389 . S
C331 C330 1.389 . S
C331 C332 1.387 . S
C332 H317 0.930 . S
C332 C327 1.390 . S
C332 C331 1.387 . S
H333 C345 0.930 . S
H334 C347 0.930 . S
H335 C348 0.930 . S
H336 C352 0.959 . S
H337 C352 0.959 . S
H338 C352 0.961 . S
H339 C353 0.960 . S
H340 C353 0.961 . S
H341 C353 0.959 . S
H342 C356 0.929 . S
H343 C357 0.931 . S
H344 C359 0.930 . S
C345 H333 0.930 . S
C345 C346 1.399 1_565 S
C345 C350 1.399 . S
C346 C345 1.399 1_545 S
C346 C347 1.376 . S
C347 H334 0.930 . S
C347 C346 1.376 . S
C347 C348 1.388 . S
C348 H335 0.930 . S
C348 C347 1.388 . S
C348 C349 1.390 . S
C349 C348 1.390 . S
C349 C350 1.394 1_545 S
C349 C355 1.465 . S
C350 C345 1.399 . S
C350 C349 1.394 1_565 S
C350 C351 1.516 . S
C351 C350 1.516 . S
C351 C352 1.502 . S
C351 C353 1.561 . S
C351 C354 1.526 . S
C352 H336 0.959 . S
C352 H337 0.959 . S
C352 H338 0.961 . S
C352 C351 1.502 . S
C353 H339 0.960 . S
C353 H340 0.961 . S
C353 H341 0.959 . S
C353 C351 1.561 . S
C354 C351 1.526 . S
C354 C355 1.396 1_565 S
C354 C359 1.390 . S
C355 C349 1.465 . S
C355 C354 1.396 1_545 S
C355 C356 1.399 . S
C356 H342 0.929 . S
C356 C355 1.399 . S
C356 C357 1.385 . S
C357 H343 0.931 . S
C357 C356 1.385 . S
C357 C358 1.389 . S
C358 C357 1.389 . S
C358 C359 1.387 1_545 S
C359 H344 0.930 . S
C359 C354 1.390 . S
C359 C358 1.387 1_565 S
H360 C372 0.930 . S
H361 C374 0.930 . S
H362 C375 0.930 . S
H363 C379 0.959 . S
H364 C379 0.959 . S
H365 C379 0.961 . S
H366 C380 0.960 . S
H367 C380 0.961 . S
H368 C380 0.959 . S
H369 C383 0.929 . S
H370 C384 0.931 . S
H371 C386 0.930 . S
C372 H360 0.930 . S
C372 C373 1.399 1_556 S
C372 C377 1.399 . S
C373 C372 1.399 1_554 S
C373 C374 1.376 . S
C374 H361 0.930 . S
C374 C373 1.376 . S
C374 C375 1.388 . S
C375 H362 0.930 . S
C375 C374 1.388 . S
C375 C376 1.390 . S
C376 C375 1.390 . S
C376 C377 1.394 1_554 S
C376 C382 1.465 . S
C377 C372 1.399 . S
C377 C376 1.394 1_556 S
C377 C378 1.516 . S
C378 C377 1.516 . S
C378 C379 1.502 . S
C378 C380 1.561 . S
C378 C381 1.526 . S
C379 H363 0.959 . S
C379 H364 0.959 . S
C379 H365 0.961 . S
C379 C378 1.502 . S
C380 H366 0.960 . S
C380 H367 0.961 . S
C380 H368 0.959 . S
C380 C378 1.561 . S
C381 C378 1.526 . S
C381 C382 1.396 1_556 S
C381 C386 1.390 . S
C382 C376 1.465 . S
C382 C381 1.396 1_554 S
C382 C383 1.399 . S
C383 H369 0.929 . S
C383 C382 1.399 . S
C383 C384 1.385 . S
C384 H370 0.931 . S
C384 C383 1.385 . S
C384 C385 1.389 1_554 S
C385 C384 1.389 1_556 S
C385 C386 1.387 . S
C386 H371 0.930 . S
C386 C381 1.390 . S
C386 C385 1.387 . S
H387 C399 0.930 . S
H388 C401 0.930 . S
H389 C402 0.930 1_455 S
H390 C406 0.959 . S
H391 C406 0.959 . S
H392 C406 0.961 . S
H393 C407 0.960 . S
H394 C407 0.961 . S
H395 C407 0.959 . S
H396 C410 0.929 . S
H397 C411 0.931 . S
H398 C413 0.930 . S
C399 H387 0.930 . S
C399 C400 1.399 . S
C399 C404 1.399 . S
C400 C399 1.399 . S
C400 C401 1.376 . S
C401 H388 0.930 . S
C401 C400 1.376 . S
C401 C402 1.388 . S
C402 H389 0.930 1_655 S
C402 C401 1.388 . S
C402 C403 1.390 1_655 S
C403 C402 1.390 1_455 S
C403 C404 1.394 1_455 S
C403 C409 1.465 . S
C404 C399 1.399 . S
C404 C403 1.394 1_655 S
C404 C405 1.516 1_655 S
C405 C404 1.516 1_455 S
C405 C406 1.502 1_455 S
C405 C407 1.561 . S
C405 C408 1.526 . S
C406 H390 0.959 . S
C406 H391 0.959 . S
C406 H392 0.961 . S
C406 C405 1.502 1_655 S
C407 H393 0.960 . S
C407 H394 0.961 . S
C407 H395 0.959 . S
C407 C405 1.561 . S
C408 C405 1.526 . S
C408 C409 1.396 . S
C408 C413 1.390 . S
C409 C403 1.465 . S
C409 C408 1.396 . S
C409 C410 1.399 . S
C410 H396 0.929 . S
C410 C409 1.399 . S
C410 C411 1.385 . S
C411 H397 0.931 . S
C411 C410 1.385 . S
C411 C412 1.389 . S
C412 C411 1.389 . S
C412 C413 1.387 . S
C413 H398 0.930 . S
C413 C408 1.390 . S
C413 C412 1.387 . S
H414 C426 0.930 . S
H415 C428 0.930 . S
H416 C429 0.930 . S
H417 C433 0.959 . S
H418 C433 0.959 1_565 S
H419 C433 0.961 1_565 S
H420 C434 0.960 . S
H421 C434 0.961 . S
H422 C434 0.959 1_545 S
H423 C437 0.929 . S
H424 C438 0.931 . S
H425 C440 0.930 . S
C426 H414 0.930 . S
C426 C427 1.399 . S
C426 C431 1.399 1_455 S
C427 C426 1.399 . S
C427 C428 1.376 . S
C428 H415 0.930 . S
C428 C427 1.376 . S
C428 C429 1.388 1_455 S
C429 H416 0.930 . S
C429 C428 1.388 1_655 S
C429 C430 1.390 . S
C430 C429 1.390 . S
C430 C431 1.394 . S
C430 C436 1.465 . S
C431 C426 1.399 1_655 S
C431 C430 1.394 . S
C431 C432 1.516 . S
C432 C431 1.516 . S
C432 C433 1.502 1_655 S
C432 C434 1.561 1_545 S
C432 C435 1.526 . S
C433 H417 0.959 . S
C433 H418 0.959 1_545 S
C433 H419 0.961 1_545 S
C433 C432 1.502 1_455 S
C434 H420 0.960 . S
C434 H421 0.961 . S
C434 H422 0.959 1_565 S
C434 C432 1.561 1_565 S
C435 C432 1.526 . S
C435 C436 1.396 . S
C435 C440 1.390 . S
C436 C430 1.465 . S
C436 C435 1.396 . S
C436 C437 1.399 . S
C437 H423 0.929 . S
C437 C436 1.399 . S
C437 C438 1.385 . S
C438 H424 0.931 . S
C438 C437 1.385 . S
C438 C439 1.389 . S
C439 C438 1.389 . S
C439 C440 1.387 . S
C440 H425 0.930 . S
C440 C435 1.390 . S
C440 C439 1.387 . S
H441 C453 0.930 . S
H442 C455 0.930 . S
H443 C456 0.930 . S
H444 C460 0.959 1_565 S
H445 C460 0.959 . S
H446 C460 0.961 . S
H447 C461 0.960 . S
H448 C461 0.961 . S
H449 C461 0.959 . S
H450 C464 0.929 . S
H451 C465 0.931 . S
H452 C467 0.930 . S
C453 H441 0.930 . S
C453 C454 1.399 . S
C453 C458 1.399 . S
C454 C453 1.399 . S
C454 C455 1.376 1_455 S
C455 H442 0.930 . S
C455 C454 1.376 1_655 S
C455 C456 1.388 . S
C456 H443 0.930 . S
C456 C455 1.388 . S
C456 C457 1.390 1_655 S
C457 C456 1.390 1_455 S
C457 C458 1.394 . S
C457 C463 1.465 . S
C458 C453 1.399 . S
C458 C457 1.394 . S
C458 C459 1.516 . S
C459 C458 1.516 . S
C459 C460 1.502 . S
C459 C461 1.561 . S
C459 C462 1.526 . S
C460 H444 0.959 1_545 S
C460 H445 0.959 . S
C460 H446 0.961 . S
C460 C459 1.502 . S
C461 H447 0.960 . S
C461 H448 0.961 . S
C461 H449 0.959 . S
C461 C459 1.561 . S
C462 C459 1.526 . S
C462 C463 1.396 . S
C462 C467 1.390 . S
C463 C457 1.465 . S
C463 C462 1.396 . S
C463 C464 1.399 1_455 S
C464 H450 0.929 . S
C464 C463 1.399 1_655 S
C464 C465 1.385 . S
C465 H451 0.931 . S
C465 C464 1.385 . S
C465 C466 1.389 1_655 S
C466 C465 1.389 1_455 S
C466 C467 1.387 . S
C467 H452 0.930 . S
C467 C462 1.390 . S
C467 C466 1.387 . S
H468 C480 0.930 1_655 S
H469 C482 0.930 . S
H470 C483 0.930 . S
H471 C487 0.959 . S
H472 C487 0.959 . S
H473 C487 0.961 . S
H474 C488 0.960 1_655 S
H475 C488 0.961 1_655 S
H476 C488 0.959 . S
H477 C491 0.929 . S
H478 C492 0.931 . S
H479 C494 0.930 1_565 S
C480 H468 0.930 1_455 S
C480 C481 1.399 1_565 S
C480 C485 1.399 . S
C481 C480 1.399 1_545 S
C481 C482 1.376 . S
C482 H469 0.930 . S
C482 C481 1.376 . S
C482 C483 1.388 . S
C483 H470 0.930 . S
C483 C482 1.388 . S
C483 C484 1.390 . S
C484 C483 1.390 . S
C484 C485 1.394 1_545 S
C484 C490 1.465 . S
C485 C480 1.399 . S
C485 C484 1.394 1_565 S
C485 C486 1.516 1_455 S
C486 C485 1.516 1_655 S
C486 C487 1.502 . S
C486 C488 1.561 1_655 S
C486 C489 1.526 1_665 S
C487 H471 0.959 . S
C487 H472 0.959 . S
C487 H473 0.961 . S
C487 C486 1.502 . S
C488 H474 0.960 1_455 S
C488 H475 0.961 1_455 S
C488 H476 0.959 . S
C488 C486 1.561 1_455 S
C489 C486 1.526 1_445 S
C489 C490 1.396 . S
C489 C494 1.390 1_455 S
C490 C484 1.465 . S
C490 C489 1.396 . S
C490 C491 1.399 . S
C491 H477 0.929 . S
C491 C490 1.399 . S
C491 C492 1.385 . S
C492 H478 0.931 . S
C492 C491 1.385 . S
C492 C493 1.389 . S
C493 C492 1.389 . S
C493 C494 1.387 1_455 S
C494 H479 0.930 1_545 S
C494 C489 1.390 1_655 S
C494 C493 1.387 1_655 S
C265 C67 4.297 . S
C277 C55 4.290 . S
C292 C139 2.614 . S
C304 C151 2.604 . S
C319 C238 0.754 . S
C331 C226 0.512 . S
C346 C235 2.569 . S
C358 C223 2.576 . S
C373 C58 0.886 . S
C385 C70 0.669 1_556 S
C400 C154 1.262 . S
C412 C142 1.176 . S
C427 C140 1.541 . S
C439 C68 1.517 . S
C454 C152 1.580 . S
C466 C236 1.545 . S
C481 C224 1.543 . S
C493 C56 1.586 . S
