# Generated by pormake.
# Topology unp, (4)-cn, num edge types: 1
# Building blocks:
#     Node 0, Type 0, BuildingBlock: QUQFOY_clean_sbu_3, # of connection points: 4
#     Node 1, Type 0, BuildingBlock: QUQFOY_clean_sbu_3, # of connection points: 4
#     Node 2, Type 0, BuildingBlock: QUQFOY_clean_sbu_3, # of connection points: 4
#     Node 3, Type 0, BuildingBlock: QUQFOY_clean_sbu_3, # of connection points: 4
#     Node 4, Type 0, BuildingBlock: QUQFOY_clean_sbu_3, # of connection points: 4
#     Node 5, Type 0, BuildingBlock: QUQFOY_clean_sbu_3, # of connection points: 4
#     Node 6, Type 0, BuildingBlock: QUQFOY_clean_sbu_3, # of connection points: 4
#     Node 7, Type 0, BuildingBlock: QUQFOY_clean_sbu_3, # of connection points: 4
#     Node 8, Type 0, BuildingBlock: QUQFOY_clean_sbu_3, # of connection points: 4
#     Node 9, Type 0, BuildingBlock: QUQFOY_clean_sbu_3, # of connection points: 4
#     Node 10, Type 0, BuildingBlock: QUQFOY_clean_sbu_3, # of connection points: 4
#     Node 11, Type 0, BuildingBlock: QUQFOY_clean_sbu_3, # of connection points: 4
#     Node 12, Type 0, BuildingBlock: QUQFOY_clean_sbu_3, # of connection points: 4
#     Node 13, Type 0, BuildingBlock: QUQFOY_clean_sbu_3, # of connection points: 4
#     Node 14, Type 0, BuildingBlock: QUQFOY_clean_sbu_3, # of connection points: 4
#     Node 15, Type 0, BuildingBlock: QUQFOY_clean_sbu_3, # of connection points: 4
#     Node 16, Type 0, BuildingBlock: QUQFOY_clean_sbu_3, # of connection points: 4
#     Node 17, Type 0, BuildingBlock: QUQFOY_clean_sbu_3, # of connection points: 4
#     Edge 18, Type (0, 0), None
#     Edge 19, Type (0, 0), None
#     Edge 20, Type (0, 0), None
#     Edge 21, Type (0, 0), None
#     Edge 22, Type (0, 0), None
#     Edge 23, Type (0, 0), None
#     Edge 24, Type (0, 0), None
#     Edge 25, Type (0, 0), None
#     Edge 26, Type (0, 0), None
#     Edge 27, Type (0, 0), None
#     Edge 28, Type (0, 0), None
#     Edge 29, Type (0, 0), None
#     Edge 30, Type (0, 0), None
#     Edge 31, Type (0, 0), None
#     Edge 32, Type (0, 0), None
#     Edge 33, Type (0, 0), None
#     Edge 34, Type (0, 0), None
#     Edge 35, Type (0, 0), None
#     Edge 36, Type (0, 0), None
#     Edge 37, Type (0, 0), None
#     Edge 38, Type (0, 0), None
#     Edge 39, Type (0, 0), None
#     Edge 40, Type (0, 0), None
#     Edge 41, Type (0, 0), None
#     Edge 42, Type (0, 0), None
#     Edge 43, Type (0, 0), None
#     Edge 44, Type (0, 0), None
#     Edge 45, Type (0, 0), None
#     Edge 46, Type (0, 0), None
#     Edge 47, Type (0, 0), None
#     Edge 48, Type (0, 0), None
#     Edge 49, Type (0, 0), None
#     Edge 50, Type (0, 0), None
#     Edge 51, Type (0, 0), None
#     Edge 52, Type (0, 0), None
#     Edge 53, Type (0, 0), None
# Relax obj value: 0.393
# Max RMSD: 0.191
# Mean RMSD: 0.191
data_MOF--net-unp--node1-QUQFOY_clean_sbu_3--edge1-none
_symmetry_space_group_name_H-M    P1
_symmetry_Int_Tables_number       1
_symmetry_cell_setting            triclinic
loop_
_symmetry_equiv_pos_as_xyz
'x, y, z'
_cell_length_a     24.83649
_cell_length_b     24.832314
_cell_length_c     27.879879
_cell_angle_alpha  89.966253
_cell_angle_beta   90.029075
_cell_angle_gamma 119.95203
loop_
_atom_site_label
_atom_site_type_symbol
_atom_site_fract_x
_atom_site_fract_y
_atom_site_fract_z
_atom_type_partial_charge
C0 C 0.04276 -0.0337 0.07331 0.0
O1 O 0.00851 -0.02846 0.042 0.0
Cd2 Cd 0.02865 0.06155 -0.00338 0.0
O3 O 0.09086 0.01382 0.08921 0.0
Cd4 Cd 0.12073 0.12268 0.07447 0.0
C5 C -0.01167 0.10804 0.08147 0.0
O6 O 0.13736 0.11041 -0.0085 0.0
O7 O 0.1374 0.19461 0.00836 0.0
O8 O 0.21121 0.12822 0.10165 0.0
C9 C 0.1491 0.16368 -0.02185 0.0
O10 O 0.01562 0.13583 0.04346 0.0
C11 C 0.23651 0.18506 0.11295 0.0
O12 O 0.02126 0.09942 0.11179 0.0
O13 O 0.20402 0.21162 0.11269 0.0
C14 C 0.92638 0.05543 0.07326 0.0
O15 O 0.92116 0.01605 0.04188 0.0
Cd16 Cd 0.83119 0.94631 -0.00346 0.0
O17 O 0.87886 0.056 0.08922 0.0
Cd18 Cd 0.77002 -0.0228 0.07448 0.0
C19 C 0.78478 0.85947 0.08144 0.0
O20 O 0.78225 0.00617 -0.0085 0.0
O21 O 0.69806 0.92215 0.00841 0.0
O22 O 0.76453 0.06214 0.10165 0.0
C23 C 0.72897 -0.03524 -0.02182 0.0
O24 O 0.757 0.85905 0.04343 0.0
C25 C 0.70771 0.03068 0.113 0.0
O26 O 0.79331 0.90093 0.11179 0.0
O27 O 0.68115 -0.02834 0.11276 0.0
C28 C 0.83744 0.85014 0.07326 0.0
O29 O 0.87682 0.88432 0.0419 0.0
Cd30 Cd -0.05335 0.8641 -0.00337 0.0
O31 O 0.8369 0.80204 0.08922 0.0
Cd32 Cd 0.91575 0.77198 0.07452 0.0
C33 C 0.03348 0.90432 0.08151 0.0
O34 O 0.88683 0.75538 -0.00844 0.0
O35 O -0.02912 0.75514 0.00845 0.0
O36 O 0.83073 0.68165 0.10163 0.0
C37 C 0.92826 0.7435 -0.02177 0.0
O38 O 0.03401 0.87712 0.04346 0.0
C39 C 0.86213 0.65616 0.11299 0.0
O40 O -0.00807 0.87144 0.1118 0.0
O41 O 0.92114 0.68848 0.1128 0.0
C42 C -0.05575 0.06469 0.83232 0.0
O43 O -0.05042 0.03015 0.86331 0.0
Cd44 Cd 0.03957 0.05055 0.90883 0.0
O45 O -0.00831 0.1132 0.81684 0.0
Cd46 Cd 0.10044 0.14278 0.83168 0.0
C47 C 0.08612 0.01035 0.82421 0.0
O48 O 0.08821 0.15925 0.91469 0.0
O49 O 0.17239 0.15926 0.8977 0.0
O50 O 0.10638 0.23353 0.80468 0.0
C51 C 0.14152 0.17103 0.92792 0.0
O52 O 0.11401 0.03745 0.86224 0.0
C53 C 0.16319 0.25864 0.79334 0.0
O54 O 0.07712 0.04337 0.79422 0.0
O55 O 0.18951 0.22594 0.79349 0.0
C56 C 0.82805 0.85899 0.83244 0.0
O57 O 0.86258 0.89882 0.8634 0.0
Cd58 Cd 0.8421 -0.03159 0.90883 0.0
O59 O 0.77953 0.85797 0.81695 0.0
Cd60 Cd 0.74983 0.93708 0.83172 0.0
C61 C 0.88217 0.05516 0.82418 0.0
O62 O 0.73344 0.90839 0.91473 0.0
O63 O 0.73328 -0.00749 0.89772 0.0
O64 O 0.65922 0.8522 0.80484 0.0
C65 C 0.72159 0.94988 0.92796 0.0
O66 O 0.8552 0.05603 0.86225 0.0
C67 C 0.63394 0.88376 0.79343 0.0
O68 O 0.84921 0.0131 0.79425 0.0
O69 O 0.66647 0.94277 0.7935 0.0
C70 C 0.03365 0.9483 0.83237 0.0
O71 O -0.00612 0.94301 0.8634 0.0
Cd72 Cd 0.92444 0.85303 0.90892 0.0
O73 O 0.03472 0.90083 0.81688 0.0
Cd74 Cd -0.04427 0.7921 0.83176 0.0
C75 C 0.83762 0.80645 0.82433 0.0
O76 O -0.01547 0.80434 0.91475 0.0
O77 O 0.90047 0.72014 0.8978 0.0
O78 O 0.04056 0.78628 0.80478 0.0
C79 C -0.05689 0.75103 0.92801 0.0
O80 O 0.83683 0.77862 0.86241 0.0
C81 C 0.00898 0.72948 0.79341 0.0
O82 O 0.87961 0.81549 0.79435 0.0
O83 O -0.05002 0.70309 0.79353 0.0
C84 C 0.70942 0.29966 0.40669 0.0
O85 O 0.67518 0.3049 0.37537 0.0
Cd86 Cd 0.69532 0.39489 0.32998 0.0
O87 O 0.75752 0.34719 0.42259 0.0
Cd88 Cd 0.78738 0.45605 0.40785 0.0
C89 C 0.65497 0.44139 0.4148 0.0
O90 O 0.80403 0.44377 0.32488 0.0
O91 O 0.80407 0.52797 0.34173 0.0
O92 O 0.87786 0.46159 0.43505 0.0
C93 C 0.81577 0.49703 0.31152 0.0
O94 O 0.68227 0.46918 0.3768 0.0
C95 C 0.90316 0.51844 0.44633 0.0
O96 O 0.6879 0.43278 0.44514 0.0
O97 O 0.87067 0.545 0.44606 0.0
C98 C 0.59302 0.38877 0.40659 0.0
O99 O 0.58782 0.34941 0.37521 0.0
Cd100 Cd 0.49786 0.27965 0.32987 0.0
O101 O 0.5455 0.38934 0.42255 0.0
Cd102 Cd 0.43666 0.31053 0.40779 0.0
C103 C 0.45144 0.19282 0.41477 0.0
O104 O 0.4489 0.33949 0.32481 0.0
O105 O 0.36471 0.25546 0.34171 0.0
O106 O 0.43117 0.39549 0.43493 0.0
C107 C 0.39563 0.29807 0.31148 0.0
O108 O 0.42367 0.19239 0.37676 0.0
C109 C 0.37435 0.36403 0.44627 0.0
O110 O 0.45996 0.23428 0.44511 0.0
O111 O 0.34779 0.30502 0.44606 0.0
C112 C 0.50411 0.1835 0.4066 0.0
O113 O 0.5435 0.21768 0.37525 0.0
Cd114 Cd 0.61335 0.19747 0.32999 0.0
O115 O 0.50358 0.1354 0.42257 0.0
Cd116 Cd 0.58244 0.10535 0.40789 0.0
C117 C 0.70015 0.23769 0.41489 0.0
O118 O 0.55354 0.08875 0.32492 0.0
O119 O 0.63759 0.08852 0.34183 0.0
O120 O 0.49742 0.01501 0.43499 0.0
C121 C 0.59498 0.07688 0.3116 0.0
O122 O 0.7007 0.2105 0.37685 0.0
C123 C 0.52881 -0.01047 0.44635 0.0
O124 O 0.6586 0.2048 0.44518 0.0
O125 O 0.58782 0.02185 0.44617 0.0
C126 C 0.61094 0.39802 0.16566 0.0
O127 O 0.61627 0.36349 0.19666 0.0
Cd128 Cd 0.70626 0.38389 0.24219 0.0
O129 O 0.65839 0.44654 0.15019 0.0
Cd130 Cd 0.76714 0.47613 0.16504 0.0
C131 C 0.75283 0.34371 0.15757 0.0
O132 O 0.75489 0.49259 0.24806 0.0
O133 O 0.83907 0.49261 0.23108 0.0
O134 O 0.77308 0.56689 0.13806 0.0
C135 C 0.8082 0.50437 0.26129 0.0
O136 O 0.78071 0.37081 0.1956 0.0
C137 C 0.82989 0.592 0.12673 0.0
O138 O 0.74383 0.37673 0.12758 0.0
O139 O 0.85621 0.55929 0.12687 0.0
C140 C 0.49475 0.19231 0.16578 0.0
O141 O 0.52927 0.23215 0.19674 0.0
Cd142 Cd 0.50877 0.30173 0.24215 0.0
O143 O 0.44623 0.19128 0.15028 0.0
Cd144 Cd 0.41653 0.2704 0.16503 0.0
C145 C 0.54887 0.38848 0.15751 0.0
O146 O 0.4001 0.2417 0.24804 0.0
O147 O 0.39995 0.32582 0.23103 0.0
O148 O 0.32593 0.18552 0.13812 0.0
C149 C 0.38826 0.28319 0.26126 0.0
O150 O 0.52188 0.38935 0.19557 0.0
C151 C 0.30065 0.21709 0.1267 0.0
O152 O 0.51592 0.34642 0.12758 0.0
O153 O 0.33319 0.2761 0.12679 0.0
C154 C 0.70036 0.28165 0.16572 0.0
O155 O 0.66058 0.27636 0.19674 0.0
Cd156 Cd 0.59115 0.18638 0.24227 0.0
O157 O 0.70145 0.23419 0.15025 0.0
Cd158 Cd 0.62245 0.12546 0.16513 0.0
C159 C 0.50433 0.13978 0.15767 0.0
O160 O 0.65126 0.13771 0.24812 0.0
O161 O 0.5672 0.0535 0.23117 0.0
O162 O 0.70729 0.11964 0.13815 0.0
C163 C 0.60983 0.0844 0.26138 0.0
O164 O 0.50355 0.11196 0.19576 0.0
C165 C 0.6757 0.06284 0.12677 0.0
O166 O 0.54633 0.14883 0.1277 0.0
O167 O 0.61671 0.03645 0.12691 0.0
C168 C 0.37605 0.63295 0.74001 0.0
O169 O 0.34181 0.63821 0.70869 0.0
Cd170 Cd 0.36196 0.72821 0.66332 0.0
O171 O 0.42416 0.68047 0.75591 0.0
Cd172 Cd 0.45402 0.78934 0.74119 0.0
C173 C 0.32162 0.77469 0.74816 0.0
O174 O 0.47067 0.77708 0.65822 0.0
O175 O 0.47071 0.86127 0.67508 0.0
O176 O 0.54449 0.79488 0.7684 0.0
C177 C 0.48242 0.83035 0.64487 0.0
O178 O 0.34892 0.80249 0.71016 0.0
C179 C 0.56979 0.85172 0.77968 0.0
O180 O 0.35454 0.76606 0.77849 0.0
O181 O 0.5373 0.87828 0.77941 0.0
C182 C 0.25967 0.72208 0.73994 0.0
O183 O 0.25446 0.68272 0.70855 0.0
Cd184 Cd 0.16451 0.61298 0.6632 0.0
O185 O 0.21214 0.72265 0.7559 0.0
Cd186 Cd 0.10331 0.64385 0.74114 0.0
C187 C 0.11808 0.52612 0.74808 0.0
O188 O 0.11557 0.67284 0.65816 0.0
O189 O 0.03137 0.58881 0.67504 0.0
O190 O 0.09781 0.72879 0.76831 0.0
C191 C 0.06229 0.63144 0.64483 0.0
O192 O 0.09031 0.52571 0.71007 0.0
C193 C 0.04099 0.69732 0.77964 0.0
O194 O 0.1266 0.56757 0.77843 0.0
O195 O 0.01443 0.63831 0.7794 0.0
C196 C 0.17074 0.51679 0.7399 0.0
O197 O 0.21014 0.55099 0.70856 0.0
Cd198 Cd 0.27999 0.53078 0.66329 0.0
O199 O 0.1702 0.46869 0.75586 0.0
Cd200 Cd 0.24906 0.43863 0.74117 0.0
C201 C 0.36677 0.57097 0.7482 0.0
O202 O 0.22017 0.42207 0.65819 0.0
O203 O 0.30422 0.42183 0.6751 0.0
O204 O 0.16403 0.34829 0.76824 0.0
C205 C 0.26161 0.4102 0.64487 0.0
O206 O 0.36733 0.5438 0.71015 0.0
C207 C 0.19542 0.3228 0.77961 0.0
O208 O 0.32522 0.53808 0.77848 0.0
O209 O 0.25443 0.35513 0.77943 0.0
C210 C 0.27761 0.73139 0.49899 0.0
O211 O 0.28294 0.69684 0.52998 0.0
Cd212 Cd 0.37291 0.71723 0.57552 0.0
O213 O 0.32506 0.77991 0.48353 0.0
Cd214 Cd 0.43381 0.80949 0.49839 0.0
C215 C 0.41949 0.67707 0.4909 0.0
O216 O 0.42155 0.82592 0.5814 0.0
O217 O 0.50573 0.82595 0.56443 0.0
O218 O 0.43976 0.90026 0.47141 0.0
C219 C 0.47486 0.8377 0.59464 0.0
O220 O 0.44737 0.70416 0.52893 0.0
C221 C 0.49657 0.92537 0.46008 0.0
O222 O 0.41051 0.7101 0.46091 0.0
O223 O 0.52289 0.89266 0.46023 0.0
C224 C 0.16141 0.52569 0.49909 0.0
O225 O 0.19593 0.56552 0.53007 0.0
Cd226 Cd 0.17545 0.63511 0.57549 0.0
O227 O 0.1129 0.52468 0.4836 0.0
Cd228 Cd 0.08319 0.60379 0.49837 0.0
C229 C 0.21554 0.72186 0.49085 0.0
O230 O 0.06678 0.57508 0.58138 0.0
O231 O 0.06663 0.6592 0.56437 0.0
O232 O -0.00741 0.51891 0.47148 0.0
C233 C 0.05494 0.61657 0.59461 0.0
O234 O 0.18856 0.72273 0.52892 0.0
C235 C -0.03269 0.55048 0.46007 0.0
O236 O 0.18258 0.67982 0.46091 0.0
O237 O -0.00016 0.60948 0.46014 0.0
C238 C 0.36703 0.61501 0.49904 0.0
O239 O 0.32725 0.60971 0.53006 0.0
Cd240 Cd 0.25781 0.51972 0.57558 0.0
O241 O 0.3681 0.56755 0.48355 0.0
Cd242 Cd 0.2891 0.45882 0.4984 0.0
C243 C 0.17099 0.47316 0.49098 0.0
O244 O 0.3179 0.47104 0.5814 0.0
O245 O 0.23385 0.38684 0.56444 0.0
O246 O 0.37393 0.453 0.47141 0.0
C247 C 0.27647 0.41773 0.59465 0.0
O248 O 0.1702 0.44533 0.52906 0.0
C249 C 0.34234 0.39619 0.46004 0.0
O250 O 0.21298 0.48221 0.461 0.0
O251 O 0.28335 0.36981 0.46018 0.0
loop_
_geom_bond_atom_site_label_1
_geom_bond_atom_site_label_2
_geom_bond_distance
_geom_bond_site_symmetry_2
_ccdc_geom_bond_type
C0 O1 1.306 . S
C0 O3 1.160 . S
O1 C0 1.306 . S
O1 Cd2 2.228 . S
Cd2 O1 2.228 . S
Cd2 O6 2.273 . S
Cd2 O10 2.277 . S
O3 C0 1.160 . S
O3 Cd4 2.203 . S
Cd4 O3 2.203 . S
Cd4 O6 2.411 . S
Cd4 O7 2.333 . S
Cd4 O8 2.352 . S
Cd4 O12 2.277 . S
Cd4 O13 2.356 . S
C5 O10 1.209 . S
C5 O12 1.226 . S
O6 Cd2 2.273 . S
O6 Cd4 2.411 . S
O6 C9 1.320 . S
O7 Cd4 2.333 . S
O7 C9 1.214 . S
O8 Cd4 2.352 . S
O8 C11 1.258 . S
C9 O6 1.320 . S
C9 O7 1.214 . S
O10 Cd2 2.277 . S
O10 C5 1.209 . S
C11 O8 1.258 . S
C11 O13 1.282 . S
O12 Cd4 2.277 . S
O12 C5 1.226 . S
O13 Cd4 2.356 . S
O13 C11 1.282 . S
C14 O15 1.306 . S
C14 O17 1.160 . S
O15 C14 1.306 . S
O15 Cd16 2.228 . S
Cd16 O15 2.228 . S
Cd16 O20 2.273 . S
Cd16 O24 2.277 1_545 S
O17 C14 1.160 . S
O17 Cd18 2.203 1_545 S
Cd18 O17 2.203 1_565 S
Cd18 O20 2.411 1_565 S
Cd18 O21 2.333 . S
Cd18 O22 2.352 1_565 S
Cd18 O26 2.277 . S
Cd18 O27 2.356 . S
C19 O24 1.209 . S
C19 O26 1.226 . S
O20 Cd16 2.273 . S
O20 Cd18 2.411 1_545 S
O20 C23 1.320 1_545 S
O21 Cd18 2.333 . S
O21 C23 1.214 . S
O22 Cd18 2.352 1_545 S
O22 C25 1.258 . S
C23 O20 1.320 1_565 S
C23 O21 1.214 . S
O24 Cd16 2.277 1_565 S
O24 C19 1.209 . S
C25 O22 1.258 . S
C25 O27 1.282 1_545 S
O26 Cd18 2.277 . S
O26 C19 1.226 . S
O27 Cd18 2.356 . S
O27 C25 1.282 1_565 S
C28 O29 1.306 . S
C28 O31 1.160 . S
O29 C28 1.306 . S
O29 Cd30 2.222 1_655 S
Cd30 O29 2.222 1_455 S
Cd30 O34 2.277 1_455 S
Cd30 O38 2.283 . S
O31 C28 1.160 . S
O31 Cd32 2.203 1_655 S
Cd32 O31 2.203 1_455 S
Cd32 O34 2.411 1_455 S
Cd32 O35 2.333 . S
Cd32 O36 2.352 1_455 S
Cd32 O40 2.277 . S
Cd32 O41 2.356 . S
C33 O38 1.209 . S
C33 O40 1.226 . S
O34 Cd30 2.277 1_655 S
O34 Cd32 2.411 1_655 S
O34 C37 1.320 1_655 S
O35 Cd32 2.333 . S
O35 C37 1.214 . S
O36 Cd32 2.352 1_655 S
O36 C39 1.258 . S
C37 O34 1.320 1_455 S
C37 O35 1.214 . S
O38 Cd30 2.283 . S
O38 C33 1.209 . S
C39 O36 1.258 . S
C39 O41 1.282 1_655 S
O40 Cd32 2.277 . S
O40 C33 1.226 . S
O41 Cd32 2.356 . S
O41 C39 1.282 1_455 S
C42 O43 1.306 . S
C42 O45 1.160 . S
O43 C42 1.306 . S
O43 Cd44 2.228 . S
Cd44 O43 2.228 . S
Cd44 O48 2.273 . S
Cd44 O52 2.277 . S
O45 C42 1.160 . S
O45 Cd46 2.203 . S
Cd46 O45 2.203 . S
Cd46 O48 2.411 . S
Cd46 O49 2.333 . S
Cd46 O50 2.352 . S
Cd46 O54 2.277 . S
Cd46 O55 2.356 . S
C47 O52 1.209 . S
C47 O54 1.226 . S
O48 Cd44 2.273 . S
O48 Cd46 2.411 . S
O48 C51 1.320 . S
O49 Cd46 2.333 . S
O49 C51 1.214 . S
O50 Cd46 2.352 . S
O50 C53 1.258 . S
C51 O48 1.320 . S
C51 O49 1.214 . S
O52 Cd44 2.277 . S
O52 C47 1.209 . S
C53 O50 1.258 . S
C53 O55 1.282 . S
O54 Cd46 2.277 . S
O54 C47 1.226 . S
O55 Cd46 2.356 . S
O55 C53 1.282 . S
C56 O57 1.306 . S
C56 O59 1.160 . S
O57 C56 1.306 . S
O57 Cd58 2.222 1_565 S
Cd58 O57 2.222 1_545 S
Cd58 O62 2.277 1_545 S
Cd58 O66 2.283 . S
O59 C56 1.160 . S
O59 Cd60 2.203 1_565 S
Cd60 O59 2.203 1_545 S
Cd60 O62 2.411 1_545 S
Cd60 O63 2.333 . S
Cd60 O64 2.352 1_545 S
Cd60 O68 2.277 . S
Cd60 O69 2.356 . S
C61 O66 1.209 . S
C61 O68 1.226 . S
O62 Cd58 2.277 1_565 S
O62 Cd60 2.411 1_565 S
O62 C65 1.320 1_565 S
O63 Cd60 2.333 . S
O63 C65 1.214 . S
O64 Cd60 2.352 1_565 S
O64 C67 1.258 . S
C65 O62 1.320 1_545 S
C65 O63 1.214 . S
O66 Cd58 2.283 . S
O66 C61 1.209 . S
C67 O64 1.258 . S
C67 O69 1.282 1_565 S
O68 Cd60 2.277 . S
O68 C61 1.226 . S
O69 Cd60 2.356 . S
O69 C67 1.282 1_545 S
C70 O71 1.306 . S
C70 O73 1.160 . S
O71 C70 1.306 . S
O71 Cd72 2.228 . S
Cd72 O71 2.228 . S
Cd72 O76 2.273 . S
Cd72 O80 2.277 1_455 S
O73 C70 1.160 . S
O73 Cd74 2.203 1_455 S
Cd74 O73 2.203 1_655 S
Cd74 O76 2.411 1_655 S
Cd74 O77 2.333 . S
Cd74 O78 2.352 1_655 S
Cd74 O82 2.277 . S
Cd74 O83 2.356 . S
C75 O80 1.209 . S
C75 O82 1.226 . S
O76 Cd72 2.273 . S
O76 Cd74 2.411 1_455 S
O76 C79 1.320 1_455 S
O77 Cd74 2.333 . S
O77 C79 1.214 . S
O78 Cd74 2.352 1_455 S
O78 C81 1.258 . S
C79 O76 1.320 1_655 S
C79 O77 1.214 . S
O80 Cd72 2.277 1_655 S
O80 C75 1.209 . S
C81 O78 1.258 . S
C81 O83 1.282 1_455 S
O82 Cd74 2.277 . S
O82 C75 1.226 . S
O83 Cd74 2.356 . S
O83 C81 1.282 1_655 S
C84 O85 1.306 . S
C84 O87 1.160 . S
O85 C84 1.306 . S
O85 Cd86 2.228 . S
Cd86 O85 2.228 . S
Cd86 O90 2.273 . S
Cd86 O94 2.277 . S
O87 C84 1.160 . S
O87 Cd88 2.203 . S
Cd88 O87 2.203 . S
Cd88 O90 2.411 . S
Cd88 O91 2.333 . S
Cd88 O92 2.352 . S
Cd88 O96 2.277 . S
Cd88 O97 2.356 . S
C89 O94 1.209 . S
C89 O96 1.226 . S
O90 Cd86 2.273 . S
O90 Cd88 2.411 . S
O90 C93 1.320 . S
O91 Cd88 2.333 . S
O91 C93 1.214 . S
O92 Cd88 2.352 . S
O92 C95 1.258 . S
C93 O90 1.320 . S
C93 O91 1.214 . S
O94 Cd86 2.277 . S
O94 C89 1.209 . S
C95 O92 1.258 . S
C95 O97 1.282 . S
O96 Cd88 2.277 . S
O96 C89 1.226 . S
O97 Cd88 2.356 . S
O97 C95 1.282 . S
C98 O99 1.306 . S
C98 O101 1.160 . S
O99 C98 1.306 . S
O99 Cd100 2.228 . S
Cd100 O99 2.228 . S
Cd100 O104 2.273 . S
Cd100 O108 2.277 . S
O101 C98 1.160 . S
O101 Cd102 2.203 . S
Cd102 O101 2.203 . S
Cd102 O104 2.411 . S
Cd102 O105 2.333 . S
Cd102 O106 2.352 . S
Cd102 O110 2.277 . S
Cd102 O111 2.356 . S
C103 O108 1.209 . S
C103 O110 1.226 . S
O104 Cd100 2.273 . S
O104 Cd102 2.411 . S
O104 C107 1.320 . S
O105 Cd102 2.333 . S
O105 C107 1.214 . S
O106 Cd102 2.352 . S
O106 C109 1.258 . S
C107 O104 1.320 . S
C107 O105 1.214 . S
O108 Cd100 2.277 . S
O108 C103 1.209 . S
C109 O106 1.258 . S
C109 O111 1.282 . S
O110 Cd102 2.277 . S
O110 C103 1.226 . S
O111 Cd102 2.356 . S
O111 C109 1.282 . S
C112 O113 1.306 . S
C112 O115 1.160 . S
O113 C112 1.306 . S
O113 Cd114 2.228 . S
Cd114 O113 2.228 . S
Cd114 O118 2.273 . S
Cd114 O122 2.277 . S
O115 C112 1.160 . S
O115 Cd116 2.203 . S
Cd116 O115 2.203 . S
Cd116 O118 2.411 . S
Cd116 O119 2.333 . S
Cd116 O120 2.352 . S
Cd116 O124 2.277 . S
Cd116 O125 2.356 . S
C117 O122 1.209 . S
C117 O124 1.226 . S
O118 Cd114 2.273 . S
O118 Cd116 2.411 . S
O118 C121 1.320 . S
O119 Cd116 2.333 . S
O119 C121 1.214 . S
O120 Cd116 2.352 . S
O120 C123 1.258 . S
C121 O118 1.320 . S
C121 O119 1.214 . S
O122 Cd114 2.277 . S
O122 C117 1.209 . S
C123 O120 1.258 . S
C123 O125 1.282 . S
O124 Cd116 2.277 . S
O124 C117 1.226 . S
O125 Cd116 2.356 . S
O125 C123 1.282 . S
C126 O127 1.306 . S
C126 O129 1.160 . S
O127 C126 1.306 . S
O127 Cd128 2.228 . S
Cd128 O127 2.228 . S
Cd128 O132 2.273 . S
Cd128 O136 2.277 . S
O129 C126 1.160 . S
O129 Cd130 2.203 . S
Cd130 O129 2.203 . S
Cd130 O132 2.411 . S
Cd130 O133 2.333 . S
Cd130 O134 2.352 . S
Cd130 O138 2.277 . S
Cd130 O139 2.356 . S
C131 O136 1.209 . S
C131 O138 1.226 . S
O132 Cd128 2.273 . S
O132 Cd130 2.411 . S
O132 C135 1.320 . S
O133 Cd130 2.333 . S
O133 C135 1.214 . S
O134 Cd130 2.352 . S
O134 C137 1.258 . S
C135 O132 1.320 . S
C135 O133 1.214 . S
O136 Cd128 2.277 . S
O136 C131 1.209 . S
C137 O134 1.258 . S
C137 O139 1.282 . S
O138 Cd130 2.277 . S
O138 C131 1.226 . S
O139 Cd130 2.356 . S
O139 C137 1.282 . S
C140 O141 1.306 . S
C140 O143 1.160 . S
O141 C140 1.306 . S
O141 Cd142 2.228 . S
Cd142 O141 2.228 . S
Cd142 O146 2.273 . S
Cd142 O150 2.277 . S
O143 C140 1.160 . S
O143 Cd144 2.203 . S
Cd144 O143 2.203 . S
Cd144 O146 2.411 . S
Cd144 O147 2.333 . S
Cd144 O148 2.352 . S
Cd144 O152 2.277 . S
Cd144 O153 2.356 . S
C145 O150 1.209 . S
C145 O152 1.226 . S
O146 Cd142 2.273 . S
O146 Cd144 2.411 . S
O146 C149 1.320 . S
O147 Cd144 2.333 . S
O147 C149 1.214 . S
O148 Cd144 2.352 . S
O148 C151 1.258 . S
C149 O146 1.320 . S
C149 O147 1.214 . S
O150 Cd142 2.277 . S
O150 C145 1.209 . S
C151 O148 1.258 . S
C151 O153 1.282 . S
O152 Cd144 2.277 . S
O152 C145 1.226 . S
O153 Cd144 2.356 . S
O153 C151 1.282 . S
C154 O155 1.306 . S
C154 O157 1.160 . S
O155 C154 1.306 . S
O155 Cd156 2.228 . S
Cd156 O155 2.228 . S
Cd156 O160 2.273 . S
Cd156 O164 2.277 . S
O157 C154 1.160 . S
O157 Cd158 2.203 . S
Cd158 O157 2.203 . S
Cd158 O160 2.411 . S
Cd158 O161 2.333 . S
Cd158 O162 2.352 . S
Cd158 O166 2.277 . S
Cd158 O167 2.356 . S
C159 O164 1.209 . S
C159 O166 1.226 . S
O160 Cd156 2.273 . S
O160 Cd158 2.411 . S
O160 C163 1.320 . S
O161 Cd158 2.333 . S
O161 C163 1.214 . S
O162 Cd158 2.352 . S
O162 C165 1.258 . S
C163 O160 1.320 . S
C163 O161 1.214 . S
O164 Cd156 2.277 . S
O164 C159 1.209 . S
C165 O162 1.258 . S
C165 O167 1.282 . S
O166 Cd158 2.277 . S
O166 C159 1.226 . S
O167 Cd158 2.356 . S
O167 C165 1.282 . S
C168 O169 1.306 . S
C168 O171 1.160 . S
O169 C168 1.306 . S
O169 Cd170 2.228 . S
Cd170 O169 2.228 . S
Cd170 O174 2.273 . S
Cd170 O178 2.277 . S
O171 C168 1.160 . S
O171 Cd172 2.203 . S
Cd172 O171 2.203 . S
Cd172 O174 2.411 . S
Cd172 O175 2.333 . S
Cd172 O176 2.352 . S
Cd172 O180 2.277 . S
Cd172 O181 2.356 . S
C173 O178 1.209 . S
C173 O180 1.226 . S
O174 Cd170 2.273 . S
O174 Cd172 2.411 . S
O174 C177 1.320 . S
O175 Cd172 2.333 . S
O175 C177 1.214 . S
O176 Cd172 2.352 . S
O176 C179 1.258 . S
C177 O174 1.320 . S
C177 O175 1.214 . S
O178 Cd170 2.277 . S
O178 C173 1.209 . S
C179 O176 1.258 . S
C179 O181 1.282 . S
O180 Cd172 2.277 . S
O180 C173 1.226 . S
O181 Cd172 2.356 . S
O181 C179 1.282 . S
C182 O183 1.306 . S
C182 O185 1.160 . S
O183 C182 1.306 . S
O183 Cd184 2.228 . S
Cd184 O183 2.228 . S
Cd184 O188 2.273 . S
Cd184 O192 2.277 . S
O185 C182 1.160 . S
O185 Cd186 2.203 . S
Cd186 O185 2.203 . S
Cd186 O188 2.411 . S
Cd186 O189 2.333 . S
Cd186 O190 2.352 . S
Cd186 O194 2.277 . S
Cd186 O195 2.356 . S
C187 O192 1.209 . S
C187 O194 1.226 . S
O188 Cd184 2.273 . S
O188 Cd186 2.411 . S
O188 C191 1.320 . S
O189 Cd186 2.333 . S
O189 C191 1.214 . S
O190 Cd186 2.352 . S
O190 C193 1.258 . S
C191 O188 1.320 . S
C191 O189 1.214 . S
O192 Cd184 2.277 . S
O192 C187 1.209 . S
C193 O190 1.258 . S
C193 O195 1.282 . S
O194 Cd186 2.277 . S
O194 C187 1.226 . S
O195 Cd186 2.356 . S
O195 C193 1.282 . S
C196 O197 1.306 . S
C196 O199 1.160 . S
O197 C196 1.306 . S
O197 Cd198 2.228 . S
Cd198 O197 2.228 . S
Cd198 O202 2.273 . S
Cd198 O206 2.277 . S
O199 C196 1.160 . S
O199 Cd200 2.203 . S
Cd200 O199 2.203 . S
Cd200 O202 2.411 . S
Cd200 O203 2.333 . S
Cd200 O204 2.352 . S
Cd200 O208 2.277 . S
Cd200 O209 2.356 . S
C201 O206 1.209 . S
C201 O208 1.226 . S
O202 Cd198 2.273 . S
O202 Cd200 2.411 . S
O202 C205 1.320 . S
O203 Cd200 2.333 . S
O203 C205 1.214 . S
O204 Cd200 2.352 . S
O204 C207 1.258 . S
C205 O202 1.320 . S
C205 O203 1.214 . S
O206 Cd198 2.277 . S
O206 C201 1.209 . S
C207 O204 1.258 . S
C207 O209 1.282 . S
O208 Cd200 2.277 . S
O208 C201 1.226 . S
O209 Cd200 2.356 . S
O209 C207 1.282 . S
C210 O211 1.306 . S
C210 O213 1.160 . S
O211 C210 1.306 . S
O211 Cd212 2.228 . S
Cd212 O211 2.228 . S
Cd212 O216 2.273 . S
Cd212 O220 2.277 . S
O213 C210 1.160 . S
O213 Cd214 2.203 . S
Cd214 O213 2.203 . S
Cd214 O216 2.411 . S
Cd214 O217 2.333 . S
Cd214 O218 2.352 . S
Cd214 O222 2.277 . S
Cd214 O223 2.356 . S
C215 O220 1.209 . S
C215 O222 1.226 . S
O216 Cd212 2.273 . S
O216 Cd214 2.411 . S
O216 C219 1.320 . S
O217 Cd214 2.333 . S
O217 C219 1.214 . S
O218 Cd214 2.352 . S
O218 C221 1.258 . S
C219 O216 1.320 . S
C219 O217 1.214 . S
O220 Cd212 2.277 . S
O220 C215 1.209 . S
C221 O218 1.258 . S
C221 O223 1.282 . S
O222 Cd214 2.277 . S
O222 C215 1.226 . S
O223 Cd214 2.356 . S
O223 C221 1.282 . S
C224 O225 1.306 . S
C224 O227 1.160 . S
O225 C224 1.306 . S
O225 Cd226 2.228 . S
Cd226 O225 2.228 . S
Cd226 O230 2.273 . S
Cd226 O234 2.277 . S
O227 C224 1.160 . S
O227 Cd228 2.203 . S
Cd228 O227 2.203 . S
Cd228 O230 2.411 . S
Cd228 O231 2.333 . S
Cd228 O232 2.352 . S
Cd228 O236 2.277 . S
Cd228 O237 2.356 . S
C229 O234 1.209 . S
C229 O236 1.226 . S
O230 Cd226 2.273 . S
O230 Cd228 2.411 . S
O230 C233 1.320 . S
O231 Cd228 2.333 . S
O231 C233 1.214 . S
O232 Cd228 2.352 . S
O232 C235 1.258 . S
C233 O230 1.320 . S
C233 O231 1.214 . S
O234 Cd226 2.277 . S
O234 C229 1.209 . S
C235 O232 1.258 . S
C235 O237 1.282 . S
O236 Cd228 2.277 . S
O236 C229 1.226 . S
O237 Cd228 2.356 . S
O237 C235 1.282 . S
C238 O239 1.306 . S
C238 O241 1.160 . S
O239 C238 1.306 . S
O239 Cd240 2.228 . S
Cd240 O239 2.228 . S
Cd240 O244 2.273 . S
Cd240 O248 2.277 . S
O241 C238 1.160 . S
O241 Cd242 2.203 . S
Cd242 O241 2.203 . S
Cd242 O244 2.411 . S
Cd242 O245 2.333 . S
Cd242 O246 2.352 . S
Cd242 O250 2.277 . S
Cd242 O251 2.356 . S
C243 O248 1.209 . S
C243 O250 1.226 . S
O244 Cd240 2.273 . S
O244 Cd242 2.411 . S
O244 C247 1.320 . S
O245 Cd242 2.333 . S
O245 C247 1.214 . S
O246 Cd242 2.352 . S
O246 C249 1.258 . S
C247 O244 1.320 . S
C247 O245 1.214 . S
O248 Cd240 2.277 . S
O248 C243 1.209 . S
C249 O246 1.258 . S
C249 O251 1.282 . S
O250 Cd242 2.277 . S
O250 C243 1.226 . S
O251 Cd242 2.356 . S
O251 C249 1.282 . S
C151 C11 1.548 . S
C25 C165 1.547 . S
C137 C39 1.548 . S
C207 C53 1.548 . S
C67 C179 1.548 . S
C193 C81 1.547 . S
C95 C235 1.548 1_655 S
C249 C109 1.547 . S
C123 C221 1.548 1_545 S
C5 C14 1.417 1_455 S
C19 C28 1.418 . S
C0 C33 1.418 1_545 S
C70 C47 1.417 1_565 S
C42 C61 1.418 1_455 S
C75 C56 1.418 . S
C89 C98 1.417 . S
C103 C112 1.418 . S
C84 C117 1.418 . S
C154 C131 1.417 . S
C126 C145 1.418 . S
C140 C159 1.418 . S
C182 C173 1.417 . S
C196 C187 1.418 . S
C168 C201 1.418 . S
C215 C238 1.417 . S
C229 C210 1.418 . S
C243 C224 1.418 . S
C9 C51 2.082 1_554 S
C65 C23 2.083 1_546 S
C79 C37 2.083 1_656 S
C135 C93 2.082 . S
C149 C107 2.083 . S
C121 C163 2.083 . S
C219 C177 2.082 . S
C233 C191 2.083 . S
C247 C205 2.083 . S
