# Generated by pormake.
# Topology twf-e, (6)-cn, num edge types: 1
# Building blocks:
#     Node 0, Type 0, BuildingBlock: FUNLAD_clean_sbu_0, # of connection points: 6
#     Node 1, Type 0, BuildingBlock: FUNLAD_clean_sbu_0, # of connection points: 6
#     Node 2, Type 0, BuildingBlock: FUNLAD_clean_sbu_0, # of connection points: 6
#     Node 3, Type 0, BuildingBlock: FUNLAD_clean_sbu_0, # of connection points: 6
#     Node 4, Type 0, BuildingBlock: FUNLAD_clean_sbu_0, # of connection points: 6
#     Node 5, Type 0, BuildingBlock: FUNLAD_clean_sbu_0, # of connection points: 6
#     Node 6, Type 0, BuildingBlock: FUNLAD_clean_sbu_0, # of connection points: 6
#     Node 7, Type 0, BuildingBlock: FUNLAD_clean_sbu_0, # of connection points: 6
#     Node 8, Type 0, BuildingBlock: FUNLAD_clean_sbu_0, # of connection points: 6
#     Node 9, Type 0, BuildingBlock: FUNLAD_clean_sbu_0, # of connection points: 6
#     Node 10, Type 0, BuildingBlock: FUNLAD_clean_sbu_0, # of connection points: 6
#     Node 11, Type 0, BuildingBlock: FUNLAD_clean_sbu_0, # of connection points: 6
#     Node 12, Type 0, BuildingBlock: FUNLAD_clean_sbu_0, # of connection points: 6
#     Node 13, Type 0, BuildingBlock: FUNLAD_clean_sbu_0, # of connection points: 6
#     Node 14, Type 0, BuildingBlock: FUNLAD_clean_sbu_0, # of connection points: 6
#     Node 15, Type 0, BuildingBlock: FUNLAD_clean_sbu_0, # of connection points: 6
#     Node 16, Type 0, BuildingBlock: FUNLAD_clean_sbu_0, # of connection points: 6
#     Node 17, Type 0, BuildingBlock: FUNLAD_clean_sbu_0, # of connection points: 6
#     Node 18, Type 0, BuildingBlock: FUNLAD_clean_sbu_0, # of connection points: 6
#     Node 19, Type 0, BuildingBlock: FUNLAD_clean_sbu_0, # of connection points: 6
#     Node 20, Type 0, BuildingBlock: FUNLAD_clean_sbu_0, # of connection points: 6
#     Node 21, Type 0, BuildingBlock: FUNLAD_clean_sbu_0, # of connection points: 6
#     Node 22, Type 0, BuildingBlock: FUNLAD_clean_sbu_0, # of connection points: 6
#     Node 23, Type 0, BuildingBlock: FUNLAD_clean_sbu_0, # of connection points: 6
#     Node 24, Type 0, BuildingBlock: FUNLAD_clean_sbu_0, # of connection points: 6
#     Node 25, Type 0, BuildingBlock: FUNLAD_clean_sbu_0, # of connection points: 6
#     Node 26, Type 0, BuildingBlock: FUNLAD_clean_sbu_0, # of connection points: 6
#     Node 27, Type 0, BuildingBlock: FUNLAD_clean_sbu_0, # of connection points: 6
#     Node 28, Type 0, BuildingBlock: FUNLAD_clean_sbu_0, # of connection points: 6
#     Node 29, Type 0, BuildingBlock: FUNLAD_clean_sbu_0, # of connection points: 6
#     Node 30, Type 0, BuildingBlock: FUNLAD_clean_sbu_0, # of connection points: 6
#     Node 31, Type 0, BuildingBlock: FUNLAD_clean_sbu_0, # of connection points: 6
#     Node 32, Type 0, BuildingBlock: FUNLAD_clean_sbu_0, # of connection points: 6
#     Node 33, Type 0, BuildingBlock: FUNLAD_clean_sbu_0, # of connection points: 6
#     Node 34, Type 0, BuildingBlock: FUNLAD_clean_sbu_0, # of connection points: 6
#     Node 35, Type 0, BuildingBlock: FUNLAD_clean_sbu_0, # of connection points: 6
#     Node 36, Type 0, BuildingBlock: FUNLAD_clean_sbu_0, # of connection points: 6
#     Node 37, Type 0, BuildingBlock: FUNLAD_clean_sbu_0, # of connection points: 6
#     Node 38, Type 0, BuildingBlock: FUNLAD_clean_sbu_0, # of connection points: 6
#     Node 39, Type 0, BuildingBlock: FUNLAD_clean_sbu_0, # of connection points: 6
#     Node 40, Type 0, BuildingBlock: FUNLAD_clean_sbu_0, # of connection points: 6
#     Node 41, Type 0, BuildingBlock: FUNLAD_clean_sbu_0, # of connection points: 6
#     Node 42, Type 0, BuildingBlock: FUNLAD_clean_sbu_0, # of connection points: 6
#     Node 43, Type 0, BuildingBlock: FUNLAD_clean_sbu_0, # of connection points: 6
#     Node 44, Type 0, BuildingBlock: FUNLAD_clean_sbu_0, # of connection points: 6
#     Node 45, Type 0, BuildingBlock: FUNLAD_clean_sbu_0, # of connection points: 6
#     Node 46, Type 0, BuildingBlock: FUNLAD_clean_sbu_0, # of connection points: 6
#     Node 47, Type 0, BuildingBlock: FUNLAD_clean_sbu_0, # of connection points: 6
#     Edge 48, Type (0, 0), BuildingBlock: AJUNOK_clean_linker_0, # of connection points: 2
#     Edge 49, Type (0, 0), BuildingBlock: AJUNOK_clean_linker_0, # of connection points: 2
#     Edge 50, Type (0, 0), BuildingBlock: AJUNOK_clean_linker_0, # of connection points: 2
#     Edge 51, Type (0, 0), BuildingBlock: AJUNOK_clean_linker_0, # of connection points: 2
#     Edge 52, Type (0, 0), BuildingBlock: AJUNOK_clean_linker_0, # of connection points: 2
#     Edge 53, Type (0, 0), BuildingBlock: AJUNOK_clean_linker_0, # of connection points: 2
#     Edge 54, Type (0, 0), BuildingBlock: AJUNOK_clean_linker_0, # of connection points: 2
#     Edge 55, Type (0, 0), BuildingBlock: AJUNOK_clean_linker_0, # of connection points: 2
#     Edge 56, Type (0, 0), BuildingBlock: AJUNOK_clean_linker_0, # of connection points: 2
#     Edge 57, Type (0, 0), BuildingBlock: AJUNOK_clean_linker_0, # of connection points: 2
#     Edge 58, Type (0, 0), BuildingBlock: AJUNOK_clean_linker_0, # of connection points: 2
#     Edge 59, Type (0, 0), BuildingBlock: AJUNOK_clean_linker_0, # of connection points: 2
#     Edge 60, Type (0, 0), BuildingBlock: AJUNOK_clean_linker_0, # of connection points: 2
#     Edge 61, Type (0, 0), BuildingBlock: AJUNOK_clean_linker_0, # of connection points: 2
#     Edge 62, Type (0, 0), BuildingBlock: AJUNOK_clean_linker_0, # of connection points: 2
#     Edge 63, Type (0, 0), BuildingBlock: AJUNOK_clean_linker_0, # of connection points: 2
#     Edge 64, Type (0, 0), BuildingBlock: AJUNOK_clean_linker_0, # of connection points: 2
#     Edge 65, Type (0, 0), BuildingBlock: AJUNOK_clean_linker_0, # of connection points: 2
#     Edge 66, Type (0, 0), BuildingBlock: AJUNOK_clean_linker_0, # of connection points: 2
#     Edge 67, Type (0, 0), BuildingBlock: AJUNOK_clean_linker_0, # of connection points: 2
#     Edge 68, Type (0, 0), BuildingBlock: AJUNOK_clean_linker_0, # of connection points: 2
#     Edge 69, Type (0, 0), BuildingBlock: AJUNOK_clean_linker_0, # of connection points: 2
#     Edge 70, Type (0, 0), BuildingBlock: AJUNOK_clean_linker_0, # of connection points: 2
#     Edge 71, Type (0, 0), BuildingBlock: AJUNOK_clean_linker_0, # of connection points: 2
#     Edge 72, Type (0, 0), BuildingBlock: AJUNOK_clean_linker_0, # of connection points: 2
#     Edge 73, Type (0, 0), BuildingBlock: AJUNOK_clean_linker_0, # of connection points: 2
#     Edge 74, Type (0, 0), BuildingBlock: AJUNOK_clean_linker_0, # of connection points: 2
#     Edge 75, Type (0, 0), BuildingBlock: AJUNOK_clean_linker_0, # of connection points: 2
#     Edge 76, Type (0, 0), BuildingBlock: AJUNOK_clean_linker_0, # of connection points: 2
#     Edge 77, Type (0, 0), BuildingBlock: AJUNOK_clean_linker_0, # of connection points: 2
#     Edge 78, Type (0, 0), BuildingBlock: AJUNOK_clean_linker_0, # of connection points: 2
#     Edge 79, Type (0, 0), BuildingBlock: AJUNOK_clean_linker_0, # of connection points: 2
#     Edge 80, Type (0, 0), BuildingBlock: AJUNOK_clean_linker_0, # of connection points: 2
#     Edge 81, Type (0, 0), BuildingBlock: AJUNOK_clean_linker_0, # of connection points: 2
#     Edge 82, Type (0, 0), BuildingBlock: AJUNOK_clean_linker_0, # of connection points: 2
#     Edge 83, Type (0, 0), BuildingBlock: AJUNOK_clean_linker_0, # of connection points: 2
#     Edge 84, Type (0, 0), BuildingBlock: AJUNOK_clean_linker_0, # of connection points: 2
#     Edge 85, Type (0, 0), BuildingBlock: AJUNOK_clean_linker_0, # of connection points: 2
#     Edge 86, Type (0, 0), BuildingBlock: AJUNOK_clean_linker_0, # of connection points: 2
#     Edge 87, Type (0, 0), BuildingBlock: AJUNOK_clean_linker_0, # of connection points: 2
#     Edge 88, Type (0, 0), BuildingBlock: AJUNOK_clean_linker_0, # of connection points: 2
#     Edge 89, Type (0, 0), BuildingBlock: AJUNOK_clean_linker_0, # of connection points: 2
#     Edge 90, Type (0, 0), BuildingBlock: AJUNOK_clean_linker_0, # of connection points: 2
#     Edge 91, Type (0, 0), BuildingBlock: AJUNOK_clean_linker_0, # of connection points: 2
#     Edge 92, Type (0, 0), BuildingBlock: AJUNOK_clean_linker_0, # of connection points: 2
#     Edge 93, Type (0, 0), BuildingBlock: AJUNOK_clean_linker_0, # of connection points: 2
#     Edge 94, Type (0, 0), BuildingBlock: AJUNOK_clean_linker_0, # of connection points: 2
#     Edge 95, Type (0, 0), BuildingBlock: AJUNOK_clean_linker_0, # of connection points: 2
#     Edge 96, Type (0, 0), BuildingBlock: AJUNOK_clean_linker_0, # of connection points: 2
#     Edge 97, Type (0, 0), BuildingBlock: AJUNOK_clean_linker_0, # of connection points: 2
#     Edge 98, Type (0, 0), BuildingBlock: AJUNOK_clean_linker_0, # of connection points: 2
#     Edge 99, Type (0, 0), BuildingBlock: AJUNOK_clean_linker_0, # of connection points: 2
#     Edge 100, Type (0, 0), BuildingBlock: AJUNOK_clean_linker_0, # of connection points: 2
#     Edge 101, Type (0, 0), BuildingBlock: AJUNOK_clean_linker_0, # of connection points: 2
#     Edge 102, Type (0, 0), BuildingBlock: AJUNOK_clean_linker_0, # of connection points: 2
#     Edge 103, Type (0, 0), BuildingBlock: AJUNOK_clean_linker_0, # of connection points: 2
#     Edge 104, Type (0, 0), BuildingBlock: AJUNOK_clean_linker_0, # of connection points: 2
#     Edge 105, Type (0, 0), BuildingBlock: AJUNOK_clean_linker_0, # of connection points: 2
#     Edge 106, Type (0, 0), BuildingBlock: AJUNOK_clean_linker_0, # of connection points: 2
#     Edge 107, Type (0, 0), BuildingBlock: AJUNOK_clean_linker_0, # of connection points: 2
#     Edge 108, Type (0, 0), BuildingBlock: AJUNOK_clean_linker_0, # of connection points: 2
#     Edge 109, Type (0, 0), BuildingBlock: AJUNOK_clean_linker_0, # of connection points: 2
#     Edge 110, Type (0, 0), BuildingBlock: AJUNOK_clean_linker_0, # of connection points: 2
#     Edge 111, Type (0, 0), BuildingBlock: AJUNOK_clean_linker_0, # of connection points: 2
#     Edge 112, Type (0, 0), BuildingBlock: AJUNOK_clean_linker_0, # of connection points: 2
#     Edge 113, Type (0, 0), BuildingBlock: AJUNOK_clean_linker_0, # of connection points: 2
#     Edge 114, Type (0, 0), BuildingBlock: AJUNOK_clean_linker_0, # of connection points: 2
#     Edge 115, Type (0, 0), BuildingBlock: AJUNOK_clean_linker_0, # of connection points: 2
#     Edge 116, Type (0, 0), BuildingBlock: AJUNOK_clean_linker_0, # of connection points: 2
#     Edge 117, Type (0, 0), BuildingBlock: AJUNOK_clean_linker_0, # of connection points: 2
#     Edge 118, Type (0, 0), BuildingBlock: AJUNOK_clean_linker_0, # of connection points: 2
#     Edge 119, Type (0, 0), BuildingBlock: AJUNOK_clean_linker_0, # of connection points: 2
#     Edge 120, Type (0, 0), BuildingBlock: AJUNOK_clean_linker_0, # of connection points: 2
#     Edge 121, Type (0, 0), BuildingBlock: AJUNOK_clean_linker_0, # of connection points: 2
#     Edge 122, Type (0, 0), BuildingBlock: AJUNOK_clean_linker_0, # of connection points: 2
#     Edge 123, Type (0, 0), BuildingBlock: AJUNOK_clean_linker_0, # of connection points: 2
#     Edge 124, Type (0, 0), BuildingBlock: AJUNOK_clean_linker_0, # of connection points: 2
#     Edge 125, Type (0, 0), BuildingBlock: AJUNOK_clean_linker_0, # of connection points: 2
#     Edge 126, Type (0, 0), BuildingBlock: AJUNOK_clean_linker_0, # of connection points: 2
#     Edge 127, Type (0, 0), BuildingBlock: AJUNOK_clean_linker_0, # of connection points: 2
#     Edge 128, Type (0, 0), BuildingBlock: AJUNOK_clean_linker_0, # of connection points: 2
#     Edge 129, Type (0, 0), BuildingBlock: AJUNOK_clean_linker_0, # of connection points: 2
#     Edge 130, Type (0, 0), BuildingBlock: AJUNOK_clean_linker_0, # of connection points: 2
#     Edge 131, Type (0, 0), BuildingBlock: AJUNOK_clean_linker_0, # of connection points: 2
#     Edge 132, Type (0, 0), BuildingBlock: AJUNOK_clean_linker_0, # of connection points: 2
#     Edge 133, Type (0, 0), BuildingBlock: AJUNOK_clean_linker_0, # of connection points: 2
#     Edge 134, Type (0, 0), BuildingBlock: AJUNOK_clean_linker_0, # of connection points: 2
#     Edge 135, Type (0, 0), BuildingBlock: AJUNOK_clean_linker_0, # of connection points: 2
#     Edge 136, Type (0, 0), BuildingBlock: AJUNOK_clean_linker_0, # of connection points: 2
#     Edge 137, Type (0, 0), BuildingBlock: AJUNOK_clean_linker_0, # of connection points: 2
#     Edge 138, Type (0, 0), BuildingBlock: AJUNOK_clean_linker_0, # of connection points: 2
#     Edge 139, Type (0, 0), BuildingBlock: AJUNOK_clean_linker_0, # of connection points: 2
#     Edge 140, Type (0, 0), BuildingBlock: AJUNOK_clean_linker_0, # of connection points: 2
#     Edge 141, Type (0, 0), BuildingBlock: AJUNOK_clean_linker_0, # of connection points: 2
#     Edge 142, Type (0, 0), BuildingBlock: AJUNOK_clean_linker_0, # of connection points: 2
#     Edge 143, Type (0, 0), BuildingBlock: AJUNOK_clean_linker_0, # of connection points: 2
#     Edge 144, Type (0, 0), BuildingBlock: AJUNOK_clean_linker_0, # of connection points: 2
#     Edge 145, Type (0, 0), BuildingBlock: AJUNOK_clean_linker_0, # of connection points: 2
#     Edge 146, Type (0, 0), BuildingBlock: AJUNOK_clean_linker_0, # of connection points: 2
#     Edge 147, Type (0, 0), BuildingBlock: AJUNOK_clean_linker_0, # of connection points: 2
#     Edge 148, Type (0, 0), BuildingBlock: AJUNOK_clean_linker_0, # of connection points: 2
#     Edge 149, Type (0, 0), BuildingBlock: AJUNOK_clean_linker_0, # of connection points: 2
#     Edge 150, Type (0, 0), BuildingBlock: AJUNOK_clean_linker_0, # of connection points: 2
#     Edge 151, Type (0, 0), BuildingBlock: AJUNOK_clean_linker_0, # of connection points: 2
#     Edge 152, Type (0, 0), BuildingBlock: AJUNOK_clean_linker_0, # of connection points: 2
#     Edge 153, Type (0, 0), BuildingBlock: AJUNOK_clean_linker_0, # of connection points: 2
#     Edge 154, Type (0, 0), BuildingBlock: AJUNOK_clean_linker_0, # of connection points: 2
#     Edge 155, Type (0, 0), BuildingBlock: AJUNOK_clean_linker_0, # of connection points: 2
#     Edge 156, Type (0, 0), BuildingBlock: AJUNOK_clean_linker_0, # of connection points: 2
#     Edge 157, Type (0, 0), BuildingBlock: AJUNOK_clean_linker_0, # of connection points: 2
#     Edge 158, Type (0, 0), BuildingBlock: AJUNOK_clean_linker_0, # of connection points: 2
#     Edge 159, Type (0, 0), BuildingBlock: AJUNOK_clean_linker_0, # of connection points: 2
#     Edge 160, Type (0, 0), BuildingBlock: AJUNOK_clean_linker_0, # of connection points: 2
#     Edge 161, Type (0, 0), BuildingBlock: AJUNOK_clean_linker_0, # of connection points: 2
#     Edge 162, Type (0, 0), BuildingBlock: AJUNOK_clean_linker_0, # of connection points: 2
#     Edge 163, Type (0, 0), BuildingBlock: AJUNOK_clean_linker_0, # of connection points: 2
#     Edge 164, Type (0, 0), BuildingBlock: AJUNOK_clean_linker_0, # of connection points: 2
#     Edge 165, Type (0, 0), BuildingBlock: AJUNOK_clean_linker_0, # of connection points: 2
#     Edge 166, Type (0, 0), BuildingBlock: AJUNOK_clean_linker_0, # of connection points: 2
#     Edge 167, Type (0, 0), BuildingBlock: AJUNOK_clean_linker_0, # of connection points: 2
#     Edge 168, Type (0, 0), BuildingBlock: AJUNOK_clean_linker_0, # of connection points: 2
#     Edge 169, Type (0, 0), BuildingBlock: AJUNOK_clean_linker_0, # of connection points: 2
#     Edge 170, Type (0, 0), BuildingBlock: AJUNOK_clean_linker_0, # of connection points: 2
#     Edge 171, Type (0, 0), BuildingBlock: AJUNOK_clean_linker_0, # of connection points: 2
#     Edge 172, Type (0, 0), BuildingBlock: AJUNOK_clean_linker_0, # of connection points: 2
#     Edge 173, Type (0, 0), BuildingBlock: AJUNOK_clean_linker_0, # of connection points: 2
#     Edge 174, Type (0, 0), BuildingBlock: AJUNOK_clean_linker_0, # of connection points: 2
#     Edge 175, Type (0, 0), BuildingBlock: AJUNOK_clean_linker_0, # of connection points: 2
#     Edge 176, Type (0, 0), BuildingBlock: AJUNOK_clean_linker_0, # of connection points: 2
#     Edge 177, Type (0, 0), BuildingBlock: AJUNOK_clean_linker_0, # of connection points: 2
#     Edge 178, Type (0, 0), BuildingBlock: AJUNOK_clean_linker_0, # of connection points: 2
#     Edge 179, Type (0, 0), BuildingBlock: AJUNOK_clean_linker_0, # of connection points: 2
#     Edge 180, Type (0, 0), BuildingBlock: AJUNOK_clean_linker_0, # of connection points: 2
#     Edge 181, Type (0, 0), BuildingBlock: AJUNOK_clean_linker_0, # of connection points: 2
#     Edge 182, Type (0, 0), BuildingBlock: AJUNOK_clean_linker_0, # of connection points: 2
#     Edge 183, Type (0, 0), BuildingBlock: AJUNOK_clean_linker_0, # of connection points: 2
#     Edge 184, Type (0, 0), BuildingBlock: AJUNOK_clean_linker_0, # of connection points: 2
#     Edge 185, Type (0, 0), BuildingBlock: AJUNOK_clean_linker_0, # of connection points: 2
#     Edge 186, Type (0, 0), BuildingBlock: AJUNOK_clean_linker_0, # of connection points: 2
#     Edge 187, Type (0, 0), BuildingBlock: AJUNOK_clean_linker_0, # of connection points: 2
#     Edge 188, Type (0, 0), BuildingBlock: AJUNOK_clean_linker_0, # of connection points: 2
#     Edge 189, Type (0, 0), BuildingBlock: AJUNOK_clean_linker_0, # of connection points: 2
#     Edge 190, Type (0, 0), BuildingBlock: AJUNOK_clean_linker_0, # of connection points: 2
#     Edge 191, Type (0, 0), BuildingBlock: AJUNOK_clean_linker_0, # of connection points: 2
# Relax obj value: 1.175
# Max RMSD: 0.169
# Mean RMSD: 0.156
data_MOF--net-twf-e--node1-FUNLAD_clean_sbu_0--edge1-AJUNOK_clean_linker_0
_symmetry_space_group_name_H-M    P1
_symmetry_Int_Tables_number       1
_symmetry_cell_setting            triclinic
loop_
_symmetry_equiv_pos_as_xyz
'x, y, z'
_cell_length_a     49.583732
_cell_length_b     51.42362
_cell_length_c     50.828712
_cell_angle_alpha  88.685087
_cell_angle_beta   86.655384
_cell_angle_gamma 90.115784
loop_
_atom_site_label
_atom_site_type_symbol
_atom_site_fract_x
_atom_site_fract_y
_atom_site_fract_z
_atom_type_partial_charge
C0 C 0.08951 0.16289 0.43257 0.0
N1 N 0.05737 0.22296 0.38297 0.0
C2 C 0.08086 0.23401 0.3729 0.0
C3 C 0.0811 0.24886 0.34937 0.0
C4 C 0.05693 0.25211 0.3366 0.0
C5 C 0.03357 0.23936 0.3467 0.0
C6 C 0.03417 0.22504 0.37004 0.0
Zn7 Zn 0.05138 0.20688 0.41979 0.0
C8 C 1.00957 0.16089 0.41943 0.0
N9 N 0.0292 0.17411 0.4942 0.0
C10 C 0.04673 0.15959 0.50769 0.0
C11 C 1.00215 0.16923 0.49647 0.0
C12 C 0.99211 0.14724 0.50999 0.0
C13 C 1.00968 0.13073 0.52299 0.0
C14 C 0.03733 0.13802 0.5226 0.0
Zn15 Zn 0.04125 0.19184 0.45976 0.0
O16 O 0.08492 0.17868 0.41356 0.0
C17 C 0.07953 0.23897 0.46274 0.0
O18 O 0.07486 0.16467 0.45396 0.0
H19 H 0.98842 0.1803 0.48493 0.0
H20 H 0.09893 0.23248 0.38376 0.0
H21 H 0.06818 0.16354 0.50538 0.0
O22 O 0.07902 0.23653 0.43762 0.0
O23 O 0.06665 0.2219 0.47739 0.0
H24 H 1.01546 0.21706 0.37865 0.0
O25 O 1.0092 0.21882 0.46542 0.0
O26 O 0.02 0.23568 0.42654 0.0
O27 O 1.01499 0.16271 0.44333 0.0
O28 O 0.02154 0.17713 0.40327 0.0
C29 C 1.00598 0.23652 0.44819 0.0
H30 H 0.09939 0.25884 0.3421 0.0
H31 H 1.01457 0.24173 0.33741 0.0
H32 H 0.97092 0.14312 0.50892 0.0
H33 H 0.05201 0.12715 0.53322 0.0
C34 C 0.84737 0.07561 0.44711 0.0
N35 N 0.91712 0.04608 0.4788 0.0
C36 C 0.9235 0.07168 0.48228 0.0
C37 C 0.94823 0.0782 0.49217 0.0
C38 C 0.96466 0.05791 0.50054 0.0
C39 C 0.96148 0.03378 0.48909 0.0
C40 C 0.93552 0.02712 0.48297 0.0
Zn41 Zn 0.89429 0.03977 0.44867 0.0
C42 C 0.84767 1.00376 0.4528 0.0
N43 N 0.86298 0.03546 0.37484 0.0
C44 C 0.8552 0.0573 0.36181 0.0
C45 C 0.85763 1.01133 0.36605 0.0
C46 C 0.84315 1.00844 0.34362 0.0
C47 C 0.83414 0.03061 0.33022 0.0
C48 C 0.84062 0.05531 0.3393 0.0
Zn49 Zn 0.88053 0.03834 0.40945 0.0
O50 O 0.86653 0.06972 0.46163 0.0
C51 C 0.92653 0.07792 0.40903 0.0
O52 O 0.84865 0.06713 0.42353 0.0
H53 H 0.86389 0.99428 0.37693 0.0
H54 H 0.91018 0.08703 0.47627 0.0
H55 H 0.85954 0.07623 0.36943 0.0
O56 O 0.923 0.06695 0.43124 0.0
O57 O 0.91025 0.07097 0.39184 0.0
H58 H 0.93055 1.00696 0.48063 0.0
O59 O 0.91128 1.00575 0.39689 0.0
O60 O 0.92103 1.00838 0.43738 0.0
O61 O 0.85062 1.00942 0.42805 0.0
O62 O 0.8653 1.01246 0.46781 0.0
C63 C 0.92528 0.99738 0.41567 0.0
H64 H 0.95249 0.09815 0.4966 0.0
H65 H 0.97564 1.01833 0.49244 0.0
H66 H 0.83844 0.98909 0.33719 0.0
H67 H 0.83345 0.07286 0.32983 0.0
C68 C 1.00496 0.91078 0.42762 0.0
N69 N 0.052 0.8492 0.39064 0.0
C70 C 0.02858 0.84455 0.37883 0.0
C71 C 0.02826 0.82836 0.35723 0.0
C72 C 0.05225 0.8167 0.34757 0.0
C73 C 0.07644 0.82277 0.35924 0.0
C74 C 0.07585 0.83914 0.38098 0.0
Zn75 Zn 0.04758 0.86631 0.42675 0.0
C76 C 0.08638 0.91258 0.43454 0.0
N77 N 0.03274 0.89759 0.50234 0.0
C78 C 1.00572 0.89726 0.50828 0.0
C79 C 0.04668 0.92025 0.50267 0.0
C80 C 0.03314 0.94366 0.49951 0.0
C81 C 1.00467 0.94425 0.50214 0.0
C82 C 0.9911 0.92015 0.5068 0.0
Zn83 Zn 0.04031 0.8806 0.46697 0.0
O84 O 1.01586 0.8949 0.41111 0.0
C85 C 1.00497 0.83314 0.46115 0.0
O86 O 1.01177 0.90843 0.45125 0.0
H87 H 0.06851 0.92011 0.50155 0.0
H88 H 1.00973 0.85219 0.38711 0.0
H89 H 0.99489 0.87912 0.51124 0.0
O90 O 1.0169 0.83497 0.43821 0.0
O91 O 1.00897 0.85136 0.47691 0.0
H92 H 0.09415 0.84266 0.39096 0.0
O93 O 0.06716 0.85344 0.48351 0.0
O94 O 0.07681 0.83814 0.44414 0.0
O95 O 0.07323 0.90893 0.45655 0.0
O96 O 0.0808 0.89712 0.41611 0.0
C97 C 0.07905 0.83654 0.46917 0.0
H98 H 1.00921 0.82421 0.34875 0.0
H99 H 0.09532 0.81385 0.3526 0.0
H100 H 0.04491 0.96125 0.49622 0.0
H101 H 0.96942 0.91858 0.50985 0.0
C102 C 0.16739 1.00092 0.43278 0.0
N103 N 0.23519 0.03913 0.38817 0.0
C104 C 0.23506 1.01775 0.37283 0.0
C105 C 0.24947 1.01768 0.34821 0.0
C106 C 0.26484 0.03959 0.33942 0.0
C107 C 0.26413 0.0615 0.35556 0.0
C108 C 0.24903 0.06093 0.37971 0.0
Zn109 Zn 0.21619 0.03862 0.42583 0.0
C110 C 0.17333 0.08094 0.43329 0.0
N111 N 0.18003 0.03854 0.50328 0.0
C112 C 0.16867 1.01503 0.50934 0.0
C113 C 0.16615 0.06076 0.50824 0.0
C114 C 0.13808 0.05985 0.51178 0.0
C115 C 0.12446 0.03561 0.51312 0.0
C116 C 0.14079 1.01304 0.51365 0.0
Zn117 Zn 0.20008 0.03905 0.46738 0.0
O118 O 0.18347 1.00968 0.41389 0.0
C119 C 0.24078 0.99759 0.46046 0.0
O120 O 0.17014 1.01056 0.45528 0.0
H121 H 0.17597 0.0794 0.50446 0.0
H122 H 0.22405 1.00052 0.37978 0.0
H123 H 0.18026 0.99748 0.50609 0.0
O124 O 0.24056 1.00607 0.43673 0.0
O125 O 0.2254 1.00809 0.47807 0.0
H126 H 0.24884 0.07784 0.39196 0.0
O127 O 0.23065 0.06626 0.48072 0.0
O128 O 0.25 0.06448 0.44104 0.0
O129 O 0.17406 0.07007 0.45581 0.0
O130 O 0.19006 0.07304 0.41509 0.0
C131 C 0.25085 0.07207 0.46496 0.0
H132 H 0.24857 1.00057 0.3363 0.0
H133 H 0.27572 0.07883 0.34994 0.0
H134 H 0.12745 0.07816 0.51261 0.0
H135 H 0.1326 0.99369 0.51637 0.0
C136 C 0.05869 0.91275 0.66876 0.0
N137 N 0.02573 0.84807 0.7181 0.0
C138 C 0.05188 0.84511 0.72447 0.0
C139 C 0.05823 0.82989 0.74638 0.0
C140 C 0.03748 0.81796 0.76228 0.0
C141 C 1.01059 0.82219 0.75598 0.0
C142 C 1.00513 0.83725 0.73355 0.0
Zn143 Zn 0.01899 0.86532 0.68195 0.0
C144 C 0.97655 0.90646 0.68274 0.0
N145 N 1.0074 0.89674 0.60762 0.0
C146 C 0.02641 0.90972 0.59237 0.0
C147 C 0.98058 0.90187 0.60603 0.0
C148 C 0.97217 0.92323 0.59151 0.0
C149 C 0.99142 0.93845 0.577 0.0
C150 C 0.01869 0.93026 0.57635 0.0
Zn151 Zn 1.01645 0.87922 0.64136 0.0
O152 O 0.04962 0.89892 0.68885 0.0
C153 C 0.05734 0.83905 0.6414 0.0
O154 O 0.04819 0.9083 0.64699 0.0
H155 H 0.96569 0.89131 0.61846 0.0
H156 H 0.06801 0.8537 0.71191 0.0
H157 H 0.04757 0.90526 0.59393 0.0
O158 O 0.05089 0.84237 0.66562 0.0
O159 O 0.04622 0.85322 0.62418 0.0
H160 H 0.98454 0.8395 0.72796 0.0
O161 O 0.98666 0.84957 0.63299 0.0
O162 O 0.9915 0.8305 0.67101 0.0
O163 O 0.98695 0.90571 0.65938 0.0
O164 O 0.98458 0.88949 0.69924 0.0
C165 C 0.98213 0.82973 0.64789 0.0
H166 H 0.0792 0.82709 0.75062 0.0
H167 H 0.99404 0.81305 0.76763 0.0
H168 H 0.95099 0.92805 0.59282 0.0
H169 H 0.03421 0.93979 0.56402 0.0
C170 C 0.15219 0.07645 0.66617 0.0
N171 N 0.21054 0.03216 0.70941 0.0
C172 C 0.21729 0.05554 0.71928 0.0
C173 C 0.23311 0.05685 0.74113 0.0
C174 C 0.24212 0.03387 0.75321 0.0
C175 C 0.23394 1.00995 0.74325 0.0
C176 C 0.21813 1.00952 0.72123 0.0
Zn177 Zn 0.1948 0.03307 0.6725 0.0
C178 C 0.14737 0.99511 0.66502 0.0
N179 N 0.16797 0.03826 0.59554 0.0
C180 C 0.15432 0.06055 0.59074 0.0
C181 C 0.15853 1.01501 0.58801 0.0
C182 C 0.13202 1.01286 0.58081 0.0
C183 C 0.1151 0.03498 0.58042 0.0
C184 C 0.1274 0.05931 0.58441 0.0
Zn185 Zn 0.18431 0.03627 0.63103 0.0
O186 O 0.16598 0.06686 0.68461 0.0
C187 C 0.23401 0.06909 0.63555 0.0
O188 O 0.15639 0.0667 0.64363 0.0
H189 H 0.16994 0.99749 0.59147 0.0
H190 H 0.2117 0.07334 0.70928 0.0
H191 H 0.1627 0.07905 0.59595 0.0
O192 O 0.22914 0.06013 0.65909 0.0
O193 O 0.21638 0.06469 0.61883 0.0
H194 H 0.21302 0.99113 0.71286 0.0
O195 O 0.2122 1.00719 0.61816 0.0
O196 O 0.22336 1.00172 0.65902 0.0
O197 O 0.15316 1.00598 0.64259 0.0
O198 O 0.16104 1.00286 0.68413 0.0
C199 C 0.22697 0.99612 0.63463 0.0
H200 H 0.23943 0.07573 0.74753 0.0
H201 H 0.24037 0.99173 0.75193 0.0
H202 H 0.12514 0.99373 0.57619 0.0
H203 H 0.11645 0.07741 0.58327 0.0
C204 C 0.98592 0.16308 0.67069 0.0
N205 N 0.02845 0.22529 0.70875 0.0
C206 C 1.0043 0.23275 0.72021 0.0
C207 C 1.00339 0.24959 0.74146 0.0
C208 C 0.02754 0.25894 0.75099 0.0
C209 C 0.05217 0.24993 0.73955 0.0
C210 C 0.05215 0.23301 0.71838 0.0
Zn211 Zn 0.02905 0.20773 0.67287 0.0
C212 C 0.06964 0.16251 0.66678 0.0
N213 N 0.02865 0.17619 0.59702 0.0
C214 C 1.00237 0.1732 0.59171 0.0
C215 C 0.04563 0.15558 0.59573 0.0
C216 C 0.03506 0.13045 0.59815 0.0
C217 C 1.00687 0.12635 0.59737 0.0
C218 C 0.9907 0.14872 0.59381 0.0
Zn219 Zn 0.02932 0.19369 0.63237 0.0
O220 O 0.99554 0.1781 0.68772 0.0
C221 C 0.9929 0.23974 0.63467 0.0
O222 O 0.99583 0.16611 0.64708 0.0
H223 H 0.06708 0.15857 0.59716 0.0
H224 H 0.98572 0.2267 0.71199 0.0
H225 H 0.98927 0.1898 0.59008 0.0
O226 O 0.99928 0.23828 0.65878 0.0
O227 O 1.00128 0.22196 0.61954 0.0
H228 H 0.07112 0.22721 0.70868 0.0
O229 O 0.06103 0.22139 0.61769 0.0
O230 O 0.06016 0.2368 0.65746 0.0
O231 O 0.05922 0.16565 0.64475 0.0
O232 O 0.06147 0.17798 0.68501 0.0
C233 C 0.06879 0.23872 0.63325 0.0
H234 H 0.98397 0.25596 0.74976 0.0
H235 H 0.07127 0.25702 0.74586 0.0
H236 H 0.04903 0.11442 0.59971 0.0
H237 H 0.96912 0.14775 0.59221 0.0
C238 C 0.8277 0.99792 0.64634 0.0
N239 N 0.906 0.02628 0.62125 0.0
C240 C 0.9125 1.00062 0.61785 0.0
C241 C 0.93854 0.99384 0.60849 0.0
C242 C 0.95669 1.01403 0.60129 0.0
C243 C 0.95226 0.03791 0.61326 0.0
C244 C 0.92552 0.04493 0.61833 0.0
Zn245 Zn 0.87679 0.03306 0.64911 0.0
C246 C 0.83548 0.07115 0.64392 0.0
N247 N 0.83259 0.03759 0.72201 0.0
C248 C 0.81831 1.01625 0.73095 0.0
C249 C 0.83175 0.05999 0.73582 0.0
C250 C 0.81627 0.06139 0.75971 0.0
C251 C 0.80098 0.03973 0.76924 0.0
C252 C 0.80216 1.01698 0.75436 0.0
Zn253 Zn 0.85651 0.03447 0.68773 0.0
O254 O 0.85025 1.00267 0.63374 0.0
C255 C 0.89868 0.99353 0.69042 0.0
O256 O 0.82472 1.00721 0.6697 0.0
H257 H 0.84326 0.07676 0.72848 0.0
H258 H 0.89776 0.98549 0.6227 0.0
H259 H 0.81949 0.99851 0.71994 0.0
O260 O 0.90054 1.00563 0.6687 0.0
O261 O 0.87922 1.00016 0.70634 0.0
H262 H 0.92066 0.06521 0.62027 0.0
O263 O 0.88796 0.06571 0.70234 0.0
O264 O 0.90136 0.06532 0.66149 0.0
O265 O 0.83405 0.06543 0.66864 0.0
O266 O 0.85364 0.06057 0.62891 0.0
C267 C 0.90341 0.07561 0.68349 0.0
H268 H 0.94254 0.97415 0.60249 0.0
H269 H 0.96721 0.05324 0.61068 0.0
H270 H 0.81661 0.07915 0.7707 0.0
H271 H 0.79055 0.99985 0.76063 0.0
C272 C 0.41988 1.02207 0.26652 0.0
N273 N 0.40353 0.10312 0.26 0.0
C274 C 0.39415 0.10038 0.28558 0.0
C275 C 0.405 0.11535 0.30463 0.0
C276 C 0.42648 0.13206 0.2971 0.0
C277 C 0.43266 0.13763 0.2703 0.0
C278 C 0.42064 0.12271 0.25174 0.0
Zn279 Zn 0.39771 0.07312 0.23673 0.0
C280 C 0.44349 0.0621 0.2004 0.0
N281 N 0.38691 1.00671 0.19016 0.0
C282 C 0.38193 0.98179 0.19886 0.0
C283 C 0.39073 1.01248 0.16392 0.0
C284 C 0.39032 0.99312 0.14547 0.0
C285 C 0.38715 0.96717 0.15385 0.0
C286 C 0.38208 0.96145 0.18083 0.0
Zn287 Zn 0.39284 0.03731 0.21469 0.0
O288 O 0.41506 0.0465 0.26808 0.0
C289 C 0.3442 0.04873 0.25086 0.0
O290 O 0.41187 1.01105 0.24589 0.0
H291 H 0.39577 0.03192 0.157 0.0
H292 H 0.38075 0.08455 0.29183 0.0
H293 H 0.37913 0.97751 0.21978 0.0
O294 O 0.35828 0.06885 0.2541 0.0
O295 O 0.35315 0.03173 0.23474 0.0
H296 H 0.42739 0.12473 0.23118 0.0
O297 O 0.37915 0.06628 0.18256 0.0
O298 O 0.3846 0.10045 0.2061 0.0
O299 O 0.42973 0.04217 0.19611 0.0
O300 O 0.43588 0.0774 0.21854 0.0
C301 C 0.38054 0.09119 0.18367 0.0
H302 H 0.39986 0.1108 0.32525 0.0
H303 H 0.44924 0.15047 0.26393 0.0
H304 H 0.39432 0.99823 0.12479 0.0
H305 H 0.37976 0.94151 0.18794 0.0
C306 C 0.9682 0.40144 0.16927 0.0
N307 N 0.02264 0.36721 0.22044 0.0
C308 C 1.00224 0.35421 0.23405 0.0
C309 C 1.00795 0.33293 0.25026 0.0
C310 C 0.0349 0.3252 0.25253 0.0
C311 C 0.05536 0.33803 0.23707 0.0
C312 C 0.04873 0.35909 0.22099 0.0
Zn313 Zn 1.01504 0.40191 0.20286 0.0
C314 C 0.05001 0.41145 0.15175 0.0
N315 N 0.99543 0.47437 0.16961 0.0
C316 C 0.99218 0.46936 0.14372 0.0
C317 C 1.01379 0.4919 0.17618 0.0
C318 C 0.03663 0.49479 0.15968 0.0
C319 C 0.03735 0.48431 0.134 0.0
C320 C 1.01353 0.47393 0.12522 0.0
Zn321 Zn 1.0056 0.44127 0.18912 0.0
O322 O 0.98179 0.38483 0.1818 0.0
C323 C 0.97742 0.43769 0.24269 0.0
O324 O 0.97393 0.42511 0.17098 0.0
H325 H 1.01406 0.49818 0.19634 0.0
H326 H 0.98171 0.36115 0.23334 0.0
H327 H 0.97432 0.45949 0.1378 0.0
O328 O 0.98812 0.4149 0.24023 0.0
O329 O 0.97919 0.45262 0.22238 0.0
H330 H 0.06466 0.3699 0.21018 0.0
O331 O 0.03832 0.45731 0.209 0.0
O332 O 0.04661 0.41704 0.22117 0.0
O333 O 0.0356 0.43183 0.15493 0.0
O334 O 0.0452 0.3929 0.16861 0.0
C335 C 0.05246 0.44091 0.22108 0.0
H336 H 0.99162 0.32336 0.26185 0.0
H337 H 0.0764 0.33297 0.23864 0.0
H338 H 0.05348 0.50419 0.16788 0.0
H339 H 1.01191 0.46829 0.105 0.0
C340 C 0.65766 1.00021 0.16845 0.0
N341 N 0.70514 0.03417 0.22805 0.0
C342 C 0.71477 1.00996 0.23324 0.0
C343 C 0.73871 1.007 0.24615 0.0
C344 C 0.75271 0.02918 0.2536 0.0
C345 C 0.74267 0.05385 0.24723 0.0
C346 C 0.71876 0.05591 0.23436 0.0
Zn347 Zn 0.66851 0.03932 0.21331 0.0
C348 C 0.66914 0.08093 0.17044 0.0
N349 N 0.5943 0.0516 0.18276 0.0
C350 C 0.57816 0.03136 0.17719 0.0
C351 C 0.58999 0.07613 0.17331 0.0
C352 C 0.56801 0.08125 0.15857 0.0
C353 C 0.54874 0.0617 0.15661 0.0
C354 C 0.55492 0.03601 0.16392 0.0
Zn355 Zn 0.62854 0.04504 0.19979 0.0
O356 O 0.67728 1.00771 0.18193 0.0
C357 C 0.62504 1.00775 0.24481 0.0
O358 O 0.63544 1.01231 0.17243 0.0
H359 H 0.60314 0.092 0.17781 0.0
H360 H 0.70343 0.993 0.22813 0.0
H361 H 0.58268 1.01189 0.18409 0.0
O362 O 0.65068 1.00992 0.24137 0.0
O363 O 0.61021 1.01992 0.22913 0.0
H364 H 0.71052 0.07493 0.23031 0.0
O365 O 0.61987 0.07735 0.22816 0.0
O366 O 0.65833 0.06846 0.24479 0.0
O367 O 0.64587 0.07102 0.17112 0.0
O368 O 0.68564 0.0716 0.18645 0.0
C369 C 0.63616 0.0812 0.24629 0.0
H370 H 0.74583 0.98765 0.25092 0.0
H371 H 0.75245 0.07141 0.25329 0.0
H372 H 0.56375 0.10113 0.15281 0.0
H373 H 0.54037 1.0204 0.16264 0.0
C374 C 0.08969 0.65059 0.17942 0.0
N375 N 0.04756 0.6889 0.24158 0.0
C376 C 0.07162 0.69928 0.24768 0.0
C377 C 0.07247 0.72168 0.26259 0.0
C378 C 0.04833 0.73385 0.27118 0.0
C379 C 0.02374 0.72316 0.26394 0.0
C380 C 0.0238 0.70052 0.2491 0.0
Zn381 Zn 0.04926 0.65315 0.22441 0.0
C382 C 1.00614 0.64578 0.17988 0.0
N383 N 0.05503 0.58025 0.1927 0.0
C384 C 0.08199 0.57545 0.18852 0.0
C385 C 0.03655 0.57036 0.17709 0.0
C386 C 0.04524 0.55659 0.1551 0.0
C387 C 0.07312 0.55265 0.14956 0.0
C388 C 0.09154 0.56226 0.16655 0.0
Zn389 Zn 0.04742 0.61355 0.21041 0.0
O390 O 0.0817 0.66793 0.1955 0.0
C391 C 0.08686 0.61579 0.25595 0.0
O392 O 0.07856 0.62845 0.18226 0.0
H393 H 1.01534 0.57462 0.18067 0.0
H394 H 0.09026 0.68957 0.24184 0.0
H395 H 0.09667 0.5845 0.20023 0.0
O396 O 0.0808 0.64005 0.25454 0.0
O397 O 0.07637 0.60145 0.23933 0.0
H398 H 1.00489 0.69178 0.2443 0.0
O399 O 1.01675 0.59873 0.23748 0.0
O400 O 0.01826 0.63819 0.2532 0.0
O401 O 1.01636 0.62326 0.18244 0.0
O402 O 1.01569 0.6637 0.19424 0.0
C403 C 1.00874 0.61506 0.2547 0.0
H404 H 0.09184 0.72868 0.26829 0.0
H405 H 1.00464 0.73191 0.27017 0.0
H406 H 0.03023 0.54863 0.14291 0.0
H407 H 0.11311 0.55986 0.16277 0.0
C408 C 0.44142 0.99978 0.84118 0.0
N409 N 0.48367 0.02624 0.90489 0.0
C410 C 0.48802 1.0003 0.908 0.0
C411 C 0.50601 0.99111 0.9257 0.0
C412 C 0.52237 1.00859 0.93844 0.0
C413 C 0.51721 0.03557 0.93487 0.0
C414 C 0.49756 0.04392 0.91813 0.0
Zn415 Zn 0.44847 0.03442 0.88941 0.0
C416 C 0.44768 0.07338 0.84775 0.0
N417 N 0.36869 0.04015 0.86284 0.0
C418 C 0.3565 1.01711 0.85803 0.0
C419 C 0.35866 0.06299 0.8535 0.0
C420 C 0.33613 0.06303 0.83792 0.0
C421 C 0.32396 0.03933 0.83177 0.0
C422 C 0.33413 1.01627 0.8426 0.0
Zn423 Zn 0.40647 0.03699 0.87822 0.0
O424 O 0.45855 1.00644 0.85752 0.0
C425 C 0.40997 0.99532 0.92002 0.0
O426 O 0.41724 1.00811 0.84554 0.0
H427 H 0.36894 0.08107 0.85692 0.0
H428 H 0.47602 0.98638 0.89815 0.0
H429 H 0.36504 0.99907 0.86494 0.0
O430 O 0.43324 1.00487 0.91568 0.0
O431 O 0.3912 1.00473 0.90659 0.0
H432 H 0.49303 0.06441 0.91612 0.0
O433 O 0.39818 0.06881 0.91081 0.0
O434 O 0.4401 0.06341 0.92012 0.0
O435 O 0.42282 0.06662 0.85021 0.0
O436 O 0.46422 0.06375 0.8635 0.0
C437 C 0.41787 0.07531 0.92496 0.0
H438 H 0.5071 0.97035 0.92855 0.0
H439 H 0.52853 0.05045 0.94409 0.0
H440 H 0.32924 0.08125 0.82963 0.0
H441 H 0.32538 0.99759 0.83844 0.0
C442 C 0.06581 0.46269 0.83893 0.0
N443 N 0.02081 0.50089 0.90293 0.0
C444 C 0.03724 0.50384 0.92304 0.0
C445 C 0.02617 0.50644 0.94865 0.0
C446 C 0.99773 0.50795 0.95371 0.0
C447 C 0.98186 0.50919 0.93173 0.0
C448 C 0.99397 0.50671 0.90641 0.0
Zn449 Zn 0.02703 0.46653 0.88368 0.0
C450 C 0.98496 0.46328 0.84082 0.0
N451 N 0.02592 0.39002 0.85367 0.0
C452 C 0.05002 0.37931 0.84565 0.0
C453 C 1.00216 0.37855 0.8483 0.0
C454 C 1.00203 0.35584 0.83373 0.0
C455 C 0.02657 0.34473 0.82454 0.0
C456 C 0.05081 0.35658 0.83098 0.0
Zn457 Zn 0.02471 0.4259 0.87072 0.0
O458 O 0.05777 0.48019 0.85501 0.0
C459 C 0.06866 0.4321 0.91302 0.0
O460 O 0.05553 0.43992 0.84153 0.0
H461 H 0.98323 0.38749 0.85466 0.0
H462 H 0.05877 0.50104 0.91984 0.0
H463 H 0.06867 0.38891 0.84985 0.0
O464 O 0.05897 0.45487 0.91017 0.0
O465 O 0.05842 0.41426 0.89925 0.0
H466 H 0.98083 0.50559 0.89034 0.0
O467 O 0.9933 0.41232 0.90076 0.0
O468 O 0.99728 0.45236 0.91277 0.0
O469 O 0.99197 0.43924 0.8421 0.0
O470 O 0.99627 0.47842 0.85628 0.0
C471 C 0.9865 0.43018 0.91675 0.0
H472 H 0.04019 0.50725 0.96409 0.0
H473 H 0.96016 0.51139 0.93399 0.0
H474 H 0.98289 0.34729 0.82927 0.0
H475 H 0.07018 0.349 0.82385 0.0
C476 C 0.68695 0.98795 0.91976 0.0
N477 N 0.67324 0.07136 0.91482 0.0
C478 C 0.69139 0.07206 0.93386 0.0
C479 C 0.68819 0.08984 0.95422 0.0
C480 C 0.66623 0.10714 0.95481 0.0
C481 C 0.64849 0.1066 0.93437 0.0
C482 C 0.65228 0.08843 0.9146 0.0
Zn483 Zn 0.67177 0.04052 0.89025 0.0
C484 C 0.7205 0.03216 0.85569 0.0
N485 N 0.66345 0.97519 0.84271 0.0
C486 C 0.64463 0.95631 0.84843 0.0
C487 C 0.67442 0.97914 0.81774 0.0
C488 C 0.66359 0.96674 0.79688 0.0
C489 C 0.64088 0.95102 0.80195 0.0
C490 C 0.63258 0.94403 0.82796 0.0
Zn491 Zn 0.66711 1.00504 0.86745 0.0
O492 O 0.68675 1.01283 0.92206 0.0
C493 C 0.62122 1.01264 0.90419 0.0
O494 O 0.68205 0.9791 0.89733 0.0
H495 H 0.68892 0.99448 0.81321 0.0
H496 H 0.70756 0.05799 0.93401 0.0
H497 H 0.63654 0.95313 0.86844 0.0
O498 O 0.63446 0.03304 0.90797 0.0
O499 O 0.62876 0.99782 0.88559 0.0
H500 H 0.63749 0.0871 0.89991 0.0
O501 O 0.64931 0.03064 0.83653 0.0
O502 O 0.65374 0.06594 0.8586 0.0
O503 O 0.70649 1.0123 0.85118 0.0
O504 O 0.71133 0.04856 0.87228 0.0
C505 C 0.64567 0.05516 0.83798 0.0
H506 H 0.70208 0.0893 0.96989 0.0
H507 H 0.6314 0.11968 0.93403 0.0
H508 H 0.67009 0.97261 0.77688 0.0
H509 H 0.61486 0.93196 0.83226 0.0
C510 C 0.02222 0.6532 0.94168 0.0
N511 N 0.06452 0.69739 0.87766 0.0
C512 C 0.04063 0.71044 0.87775 0.0
C513 C 0.03773 0.73251 0.86166 0.0
C514 C 0.05972 0.7418 0.84543 0.0
C515 C 0.08463 0.72883 0.84683 0.0
C516 C 0.08656 0.70649 0.86303 0.0
Zn517 Zn 0.06268 0.65989 0.89359 0.0
C518 C 0.10378 0.64648 0.93246 0.0
N519 N 0.05287 0.58201 0.92387 0.0
C520 C 0.02694 0.57414 0.922 0.0
C521 C 0.06505 0.57835 0.94707 0.0
C522 C 0.04964 0.57232 0.9704 0.0
C523 C 0.02158 0.56875 0.96974 0.0
C524 C 1.01061 0.56915 0.94463 0.0
Zn525 Zn 0.05931 0.61801 0.90569 0.0
O526 O 0.03228 0.67201 0.9272 0.0
C527 C 0.01893 0.63308 0.86832 0.0
O528 O 0.03134 0.63069 0.93693 0.0
H529 H 0.08632 0.58232 0.94819 0.0
H530 H 0.02303 0.70263 0.88876 0.0
H531 H 1.01778 0.57434 0.90331 0.0
O532 O 0.03046 0.65472 0.87041 0.0
O533 O 0.02693 0.61356 0.88129 0.0
H534 H 0.10524 0.69564 0.86275 0.0
O535 O 0.08529 0.60346 0.87328 0.0
O536 O 0.0898 0.64386 0.8587 0.0
O537 O 0.09215 0.62482 0.92957 0.0
O538 O 0.0968 0.66607 0.91858 0.0
C539 C 0.09414 0.61938 0.85512 0.0
H540 H 1.01789 0.74108 0.86074 0.0
H541 H 0.10218 0.73527 0.83472 0.0
H542 H 0.05961 0.57111 0.98874 0.0
H543 H 0.98955 0.56524 0.9419 0.0
C544 C 0.14626 0.42412 0.07319 0.0
N545 N 0.21641 0.38659 0.03777 0.0
C546 C 0.22164 0.37594 0.06168 0.0
C547 C 0.23808 0.35397 0.06334 0.0
C548 C 0.24948 0.343 0.0402 0.0
C549 C 0.24273 0.35371 1.01578 0.0
C550 C 0.22613 0.37565 1.01502 0.0
Zn551 Zn 0.19701 0.42171 0.03603 0.0
C552 C 0.15741 0.42625 0.99069 0.0
N553 N 0.15722 0.49166 0.02575 0.0
C554 C 0.13111 0.48267 0.02557 0.0
C555 C 0.16238 0.5171 1.01971 0.0
C556 C 0.14046 0.53428 1.01952 0.0
C557 C 0.1156 0.52559 0.03161 0.0
C558 C 0.1096 0.49956 0.02844 0.0
Zn559 Zn 0.18282 0.46148 0.03251 0.0
O560 O 0.16447 0.40742 0.06704 0.0
C561 C 0.22362 0.46157 0.07513 0.0
O562 O 0.14932 0.44643 0.06198 0.0
H563 H 0.18288 0.52393 1.01568 0.0
H564 H 0.21377 0.385 0.07951 0.0
H565 H 0.12634 0.46223 0.02665 0.0
O566 O 0.22357 0.43789 0.06734 0.0
O567 O 0.20588 0.47694 0.0658 0.0
H568 H 0.22186 0.38457 0.99624 0.0
O569 O 0.21588 0.47665 1.00599 0.0
O570 O 0.23097 0.4367 1.0077 0.0
O571 O 0.1628 0.44848 0.9988 0.0
O572 O 0.16914 0.40737 1.0024 0.0
C573 C 0.23472 0.46051 1.00016 0.0
H574 H 0.24232 0.346 0.08257 0.0
H575 H 0.25114 0.34589 0.99749 0.0
H576 H 0.14368 0.55443 1.01397 0.0
H577 H 0.09062 0.49131 0.03593 0.0
C578 C 0.1805 0.64629 1.01605 0.0
N579 N 0.22751 0.70464 0.04478 0.0
C580 C 0.22532 0.71288 1.01939 0.0
C581 C 0.2272 0.7391 1.01271 0.0
C582 C 0.23367 0.75684 0.0319 0.0
C583 C 0.23489 0.74795 0.0582 0.0
C584 C 0.23119 0.72163 0.06431 0.0
Zn585 Zn 0.22255 0.66664 0.05307 0.0
C586 C 0.1771 0.65614 0.09447 0.0
N587 N 0.21111 0.58695 0.06777 0.0
C588 C 0.19316 0.5784 0.05117 0.0
C589 C 0.20692 0.58308 0.09437 0.0
C590 C 0.18092 0.57763 0.10501 0.0
C591 C 0.16007 0.57592 0.0877 0.0
C592 C 0.16661 0.57686 0.06046 0.0
Zn593 Zn 0.21546 0.62488 0.05717 0.0
O594 O 0.19274 0.66644 0.02295 0.0
C595 C 0.26086 0.63245 1.01765 0.0
O596 O 0.18551 0.62484 0.02751 0.0
H597 H 0.2227 0.58722 0.10749 0.0
H598 H 0.2228 0.6991 1.004 0.0
H599 H 0.19798 0.57933 0.03013 0.0
O600 O 0.25598 0.65621 0.0233 0.0
O601 O 0.24598 0.61483 0.02866 0.0
H602 H 0.23231 0.7146 0.08443 0.0
O603 O 0.24382 0.62563 0.08483 0.0
O604 O 0.25276 0.66721 0.08238 0.0
O605 O 0.18404 0.63386 0.08636 0.0
O606 O 0.18984 0.67578 0.08409 0.0
C607 C 0.25676 0.64483 0.09246 0.0
H608 H 0.22592 0.74513 0.99226 0.0
H609 H 0.24058 0.76069 0.07362 0.0
H610 H 0.17704 0.57518 0.12611 0.0
H611 H 0.15128 0.57652 0.04658 0.0
C612 C 0.4197 0.16029 1.0076 0.0
N613 N 0.37285 0.22565 0.04332 0.0
C614 C 0.36427 0.23431 1.01971 0.0
C615 C 0.34231 0.25137 1.01883 0.0
C616 C 0.32928 0.25965 0.04246 0.0
C617 C 0.33751 0.24907 0.06638 0.0
C618 C 0.35951 0.23219 0.06637 0.0
Zn619 Zn 0.40957 0.20768 0.04615 0.0
C620 C 0.40654 0.16359 0.09029 0.0
N621 N 0.48541 0.17257 0.0537 0.0
C622 C 0.50465 0.18951 0.06003 0.0
C623 C 0.48187 0.14973 0.06745 0.0
C624 C 0.48827 0.14881 0.09381 0.0
C625 C 0.5023 0.16989 0.10379 0.0
C626 C 0.51342 0.18849 0.08536 0.0
Zn627 Zn 0.44956 0.19078 0.05045 0.0
O628 O 0.40055 0.17614 1.01457 0.0
C629 C 0.45329 0.23753 1.0116 0.0
O630 O 0.4417 0.16313 1.01906 0.0
H631 H 0.46837 0.13513 0.06057 0.0
H632 H 0.37533 0.22911 1.00163 0.0
H633 H 0.50937 0.20643 0.04757 0.0
O634 O 0.42764 0.23541 1.01534 0.0
O635 O 0.46775 0.22015 0.02229 0.0
H636 H 0.36683 0.22543 0.08494 0.0
O637 O 0.45913 0.2193 0.0816 0.0
O638 O 0.4211 0.2388 0.07491 0.0
O639 O 0.43088 0.1628 0.08105 0.0
O640 O 0.39157 0.18086 0.07996 0.0
C641 C 0.44364 0.23872 0.08607 0.0
H642 H 0.33655 0.25912 0.99998 0.0
H643 H 0.32769 0.2546 0.08501 0.0
H644 H 0.4805 0.13289 0.10634 0.0
H645 H 0.52746 0.20309 0.09001 0.0
C646 C 0.83654 0.46386 1.01125 0.0
N647 N 0.89778 0.49085 0.06124 0.0
C648 C 0.89737 0.49331 0.08789 0.0
C649 C 0.92086 0.4992 0.10023 0.0
C650 C 0.94513 0.50387 0.08519 0.0
C651 C 0.94383 0.50438 0.05736 0.0
C652 C 0.9199 0.49812 0.04584 0.0
Zn653 Zn 0.87652 0.45925 0.05038 0.0
C654 C 0.82454 0.45366 0.08492 0.0
N655 N 0.84067 0.38766 0.03925 0.0
C656 C 0.83803 0.37999 1.01409 0.0
C657 C 0.83208 0.37276 0.06048 0.0
C658 C 0.81961 0.34917 0.05687 0.0
C659 C 0.8158 0.34129 0.03121 0.0
C660 C 0.82535 0.35652 1.00955 0.0
Zn661 Zn 0.85838 0.42099 0.04626 0.0
O662 O 0.85379 0.47871 1.02114 0.0
C663 C 0.90826 0.42931 1.00856 0.0
O664 O 0.83528 0.44 1.01817 0.0
H665 H 0.83445 0.37942 0.08023 0.0
H666 H 0.88002 0.48714 0.10024 0.0
H667 H 0.84522 0.39232 0.99763 0.0
O668 O 0.90774 0.45039 1.02106 0.0
O669 O 0.89015 0.41234 1.01499 0.0
H670 H 0.91993 0.49661 0.02466 0.0
O671 O 0.8809 0.4011 0.07531 0.0
O672 O 0.89902 0.43919 0.07959 0.0
O673 O 0.82534 0.43057 0.07622 0.0
O674 O 0.84403 0.46884 0.07811 0.0
C675 C 0.89737 0.41538 0.08638 0.0
H676 H 0.91966 0.49906 0.12145 0.0
H677 H 0.96102 0.50918 0.04413 0.0
H678 H 0.81184 0.33775 0.07385 0.0
H679 H 0.82203 0.35085 0.9896 0.0
C680 C 0.62858 0.84027 1.0088 0.0
N681 N 0.59353 0.91123 0.0421 0.0
C682 C 0.59789 0.93006 1.02116 0.0
C683 C 0.57675 0.97865 1.01923 0.0
C684 C 0.58126 0.96327 0.05433 0.0
C685 C 0.56536 0.93612 0.07391 0.0
C686 C 0.57666 0.9123 0.06506 0.0
Zn687 Zn 0.62548 0.88621 0.04483 0.0
C688 C 0.61712 0.83904 0.08275 0.0
N689 N 0.69912 0.84651 0.05396 0.0
C690 C 0.71203 0.83927 0.03094 0.0
C691 C 0.70779 0.83818 0.07763 0.0
C692 C 0.72975 0.82111 0.07865 0.0
C693 C 0.74264 0.81251 0.05508 0.0
C694 C 0.73398 0.82238 0.03105 0.0
Zn695 Zn 0.66421 0.86736 0.05074 0.0
O696 O 0.61446 0.86093 1.01206 0.0
C697 C 0.67205 0.9118 1.00916 0.0
O698 O 0.65031 0.83846 1.02127 0.0
H699 H 0.69711 0.84404 0.09569 0.0
H700 H 0.60402 0.91797 1.00423 0.0
H701 H 0.70473 0.84593 1.01233 0.0
O702 O 0.6479 0.91354 1.01801 0.0
O703 O 0.68569 0.89296 1.01827 0.0
H704 H 0.57545 0.89582 0.0786 0.0
O705 O 0.6754 0.89705 0.08245 0.0
O706 O 0.63463 0.91093 0.07798 0.0
O707 O 0.64294 0.84067 0.08077 0.0
O708 O 0.60377 0.85663 0.07088 0.0
C709 C 0.65655 0.91303 0.08956 0.0
H710 H 0.55959 0.9876 1.00973 0.0
H711 H 0.55755 0.93793 0.09414 0.0
H712 H 0.73586 0.81389 0.09757 0.0
H713 H 0.7437 0.8166 1.01247 0.0
C714 C 0.8383 0.61778 0.09384 0.0
N715 N 0.90692 0.5772 0.06152 0.0
C716 C 0.90634 0.57042 0.08749 0.0
C717 C 0.9303 0.56878 0.10029 0.0
C718 C 0.95563 0.57078 0.08589 0.0
C719 C 0.95501 0.5736 0.05821 0.0
C720 C 0.9303 0.57521 0.04635 0.0
Zn721 Zn 0.88912 0.61279 0.05814 0.0
C722 C 0.84579 0.61766 1.01864 0.0
N723 N 0.8603 0.69013 0.05723 0.0
C724 C 0.85128 0.701 0.08026 0.0
C725 C 0.8547 0.70106 0.03355 0.0
C726 C 0.83807 0.72292 0.03243 0.0
C727 C 0.82686 0.73341 0.05589 0.0
C728 C 0.83448 0.72281 0.08004 0.0
Zn729 Zn 0.8767 0.65366 0.05812 0.0
O730 O 0.8547 0.60086 0.08457 0.0
C731 C 0.91916 0.64619 0.10049 0.0
O732 O 0.84353 0.64169 0.08817 0.0
H733 H 0.86194 0.69199 1.0155 0.0
H734 H 0.88763 0.57071 0.09941 0.0
H735 H 0.8558 0.69183 0.09885 0.0
O736 O 0.91438 0.6237 0.09183 0.0
O737 O 0.9063 0.66504 0.08998 0.0
H738 H 0.93021 0.57863 0.02529 0.0
O739 O 0.90949 0.66528 0.02637 0.0
O740 O 0.92261 0.62524 0.03024 0.0
O741 O 0.84715 0.64065 0.02791 0.0
O742 O 0.86353 0.60125 0.02574 0.0
C743 C 0.92663 0.64767 1.01971 0.0
H744 H 0.9285 0.56593 0.12143 0.0
H745 H 0.9734 0.57431 0.04568 0.0
H746 H 0.83312 0.73087 1.0134 0.0
H747 H 0.82626 0.73033 0.09855 0.0
C748 C 0.40959 0.89421 0.06976 0.0
N749 N 0.36813 0.84294 0.02655 0.0
C750 C 0.35263 0.83666 0.04867 0.0
C751 C 0.32549 0.83057 0.04681 0.0
C752 C 0.31429 0.83161 0.02202 0.0
C753 C 0.3307 0.83886 0.99969 0.0
C754 C 0.35784 0.84396 1.00235 0.0
Zn755 Zn 0.40552 0.85628 0.02877 0.0
C756 C 0.41381 0.9042 0.99266 0.0
N757 N 0.48259 0.8866 0.02944 0.0
C758 C 0.48949 0.8938 0.05368 0.0
C759 C 0.49131 0.89995 1.00717 0.0
C760 C 0.50433 0.92363 1.00908 0.0
C761 C 0.50957 0.93272 0.03406 0.0
C762 C 0.50283 0.91719 0.05647 0.0
Zn763 Zn 0.44704 0.86921 0.02807 0.0
O764 O 0.39117 0.88107 0.06 0.0
C765 C 0.44054 0.823 0.06505 0.0
O766 O 0.43347 0.892 0.06004 0.0
H767 H 0.48569 0.89361 0.98809 0.0
H768 H 0.36137 0.83637 0.06768 0.0
H769 H 0.48234 0.88274 0.07107 0.0
O770 O 0.4161 0.82547 0.05844 0.0
O771 O 0.45825 0.83866 0.05475 0.0
H772 H 0.37066 0.84898 0.98505 0.0
O773 O 0.46105 0.84619 0.99642 0.0
O774 O 0.42007 0.8299 0.9982 0.0
O775 O 0.43663 0.90033 1.00179 0.0
O776 O 0.3953 0.88781 0.99932 0.0
C777 C 0.44441 0.82967 0.9886 0.0
H778 H 0.31376 0.82409 0.06439 0.0
H779 H 0.32285 0.83958 0.98024 0.0
H780 H 0.51088 0.93447 0.9913 0.0
H781 H 0.50837 0.9228 0.07585 0.0
C782 C 0.66259 0.17974 0.11197 0.0
N783 N 0.69772 0.234 0.06061 0.0
C784 C 0.71751 0.23837 0.07733 0.0
C785 C 0.74208 0.24858 0.06754 0.0
C786 C 0.74562 0.25463 0.04056 0.0
C787 C 0.72604 0.24748 0.02344 0.0
C788 C 0.70191 0.23701 0.03403 0.0
Zn789 Zn 0.66121 0.22364 0.07491 0.0
C790 C 0.64382 0.17919 0.04026 0.0
N791 N 0.58426 0.19736 0.0993 0.0
C792 C 0.58586 0.17196 0.10684 0.0
C793 C 0.56882 0.21448 0.11358 0.0
C794 C 0.55548 0.20696 0.13858 0.0
C795 C 0.56289 0.18136 0.14846 0.0
C796 C 0.57726 0.16405 0.13217 0.0
Zn797 Zn 0.61937 0.2107 0.08058 0.0
O798 O 0.67993 0.19638 0.10308 0.0
C799 C 0.63634 0.25702 0.11362 0.0
O800 O 0.6385 0.18301 0.10585 0.0
H801 H 0.56671 0.2338 0.10511 0.0
H802 H 0.71358 0.23558 0.09835 0.0
H803 H 0.59756 0.15859 0.09469 0.0
O804 O 0.65956 0.25517 0.10189 0.0
O805 O 0.61856 0.24021 0.10931 0.0
H806 H 0.6859 0.23288 1.02118 0.0
O807 O 0.6009 0.23828 0.05358 0.0
O808 O 0.64305 0.25061 0.04623 0.0
O809 O 0.6202 0.18171 0.05111 0.0
O810 O 0.66259 0.19367 0.04745 0.0
C811 C 0.61822 0.25327 0.04122 0.0
H812 H 0.75679 0.2546 0.08117 0.0
H813 H 0.72818 0.25257 1.00261 0.0
H814 H 0.51606 0.22556 0.16498 0.0
H815 H 0.58065 0.14418 0.1386 0.0
C816 C 0.58994 0.67065 0.93126 0.0
N817 N 0.55147 0.72747 0.8811 0.0
C818 C 0.57369 0.74068 0.87094 0.0
C819 C 0.57221 0.75626 0.84801 0.0
C820 C 0.54756 0.7584 0.83583 0.0
C821 C 0.52555 0.74339 0.84586 0.0
C822 C 0.52793 0.72804 0.86855 0.0
Zn823 Zn 0.54849 0.71219 0.91906 0.0
C824 C 0.50935 0.66516 0.92589 0.0
N825 N 0.53478 0.68444 0.99825 0.0
C826 C 0.54981 0.66276 1.00114 0.0
C827 C 0.50761 0.68334 1.00396 0.0
C828 C 0.49414 0.65945 1.00445 0.0
C829 C 0.50897 0.63617 1.00165 0.0
C830 C 0.53754 0.63841 1.00077 0.0
Zn831 Zn 0.54333 0.70028 0.96126 0.0
O832 O 0.58358 0.68513 0.91178 0.0
C833 C 0.57989 0.74759 0.95869 0.0
O834 O 0.57691 0.6738 0.95329 0.0
H835 H 0.49572 0.70089 1.00465 0.0
H836 H 0.59206 0.74039 0.88143 0.0
H837 H 0.57156 0.66414 0.99948 0.0
O838 O 0.57534 0.74485 0.93416 0.0
O839 O 0.57026 0.73024 0.97504 0.0
H840 H 0.51026 0.71804 0.87715 0.0
O841 O 0.51082 0.727 0.96739 0.0
O842 O 0.51518 0.73862 0.92586 0.0
O843 O 0.51618 0.67021 0.94885 0.0
O844 O 0.51952 0.67973 0.90702 0.0
C845 C 0.50354 0.74133 0.94851 0.0
H846 H 0.58956 0.76776 0.84085 0.0
H847 H 0.50624 0.74458 0.83698 0.0
H848 H 0.47235 0.6596 1.00672 0.0
H849 H 0.55066 0.6217 0.99973 0.0
C850 C 0.35205 0.5789 0.96481 0.0
N851 N 0.41262 0.53147 1.00072 0.0
C852 C 0.41125 0.50604 1.00842 0.0
C853 C 0.43331 0.49381 1.0188 0.0
C854 C 0.45715 0.50789 0.02308 0.0
C855 C 0.45692 0.53481 1.01712 0.0
C856 C 0.4344 0.54621 1.00609 0.0
Zn857 Zn 0.39381 0.53826 0.9663 0.0
C858 C 0.34214 0.50514 0.96157 0.0
N859 N 0.36406 0.54258 0.88901 0.0
C860 C 0.35472 0.56535 0.87879 0.0
C861 C 0.35897 0.51953 0.87758 0.0
C862 C 0.34304 0.51859 0.85584 0.0
C863 C 0.33189 0.54154 0.84575 0.0
C864 C 0.33862 0.56528 0.85696 0.0
Zn865 Zn 0.38065 0.54034 0.92542 0.0
O866 O 0.3688 0.56942 0.98057 0.0
C867 C 0.42892 0.57779 0.93092 0.0
O868 O 0.35302 0.57104 0.941 0.0
H869 H 0.36611 0.50159 0.88616 0.0
H870 H 0.39451 0.49407 1.00343 0.0
H871 H 0.35865 0.58346 0.88832 0.0
O872 O 0.4262 0.56645 0.95352 0.0
O873 O 0.41261 0.57093 0.91366 0.0
H874 H 0.43546 0.56634 0.99979 0.0
O875 O 0.40954 0.50734 0.91195 0.0
O876 O 0.41921 0.50687 0.95299 0.0
O877 O 0.3475 0.51266 0.93772 0.0
O878 O 0.35902 0.51139 0.97847 0.0
C879 C 0.42327 0.49753 0.93032 0.0
H880 H 0.43122 0.47321 0.02312 0.0
H881 H 0.47412 0.54703 1.02017 0.0
H882 H 0.33872 0.49993 0.84754 0.0
H883 H 0.33039 0.58342 0.84978 0.0
C884 C 0.5047 0.41259 0.93529 0.0
N885 N 0.54865 0.34884 0.89491 0.0
C886 C 0.52529 0.34198 0.88393 0.0
C887 C 0.52559 0.32483 0.86274 0.0
C888 C 0.55015 0.31437 0.85251 0.0
C889 C 0.57401 0.32244 0.86374 0.0
C890 C 0.57282 0.33969 0.88488 0.0
Zn891 Zn 0.54636 0.36766 0.93144 0.0
C892 C 0.58683 0.41428 0.93663 0.0
N893 N 0.54355 0.4026 1.00718 0.0
C894 C 0.52903 0.42503 1.00791 0.0
C895 C 0.56868 0.40214 1.01659 0.0
C896 C 0.58239 0.42517 1.02048 0.0
C897 C 0.56934 0.44937 1.01774 0.0
C898 C 0.54172 0.44871 1.01231 0.0
Zn899 Zn 0.54276 0.38308 0.97222 0.0
O900 O 0.51509 0.39733 0.9178 0.0
C901 C 0.50529 0.33658 0.97008 0.0
O902 O 0.51232 0.4097 0.95861 0.0
H903 H 0.57972 0.38426 1.01838 0.0
H904 H 0.50616 0.34879 0.89244 0.0
H905 H 0.50828 0.42516 1.00252 0.0
O906 O 0.51398 0.33909 0.94587 0.0
O907 O 0.51266 0.35364 0.98623 0.0
H908 H 0.59119 0.34484 0.89403 0.0
O909 O 0.57171 0.35584 0.9855 0.0
O910 O 0.57494 0.33773 0.94709 0.0
O911 O 0.57385 0.41159 0.95885 0.0
O912 O 0.58111 0.39773 0.91906 0.0
C913 C 0.5807 0.33757 0.97131 0.0
H914 H 0.50657 0.31888 0.8553 0.0
H915 H 0.59345 0.31504 0.85659 0.0
H916 H 0.60307 0.42354 0.02588 0.0
H917 H 0.52985 0.46624 1.01117 0.0
C918 C 0.66747 0.50393 0.93368 0.0
N919 N 0.73406 0.54449 0.88818 0.0
C920 C 0.74445 0.52247 0.87721 0.0
C921 C 0.75906 0.5236 0.85268 0.0
C922 C 0.76268 0.54757 0.83894 0.0
C923 C 0.75097 0.56979 0.85047 0.0
C924 C 0.73703 0.56787 0.87518 0.0
Zn925 Zn 0.7155 0.54394 0.92604 0.0
C926 C 0.6712 0.58534 0.93298 0.0
N927 N 0.67862 0.54635 1.00355 0.0
C928 C 0.65726 0.5298 1.00662 0.0
C929 C 0.67587 0.57154 1.01072 0.0
C930 C 0.65025 0.58237 1.01402 0.0
C931 C 0.62699 0.56682 1.01172 0.0
C932 C 0.63111 0.53974 1.00912 0.0
Zn933 Zn 0.69872 0.54406 0.96745 0.0
O934 O 0.68415 0.5124 0.91507 0.0
C935 C 0.74268 0.50639 0.96278 0.0
O936 O 0.66907 0.51463 0.95587 0.0
H937 H 0.69306 0.58449 1.00951 0.0
H938 H 0.74212 0.50404 0.8878 0.0
H939 H 0.66007 0.50932 1.00307 0.0
O940 O 0.74251 0.51401 0.93872 0.0
O941 O 0.7245 0.51453 0.9793 0.0
H942 H 0.72912 0.58529 0.88423 0.0
O943 O 0.72987 0.57145 0.97955 0.0
O944 O 0.74831 0.57174 0.93951 0.0
O945 O 0.67259 0.57481 0.95562 0.0
O946 O 0.6873 0.57684 0.91458 0.0
C947 C 0.74956 0.57834 0.9637 0.0
H948 H 0.76828 0.50601 0.84515 0.0
H949 H 0.75303 0.58869 0.84072 0.0
H950 H 0.64917 0.603 1.01738 0.0
H951 H 0.61452 0.52615 1.00855 0.0
C952 C 0.56125 0.41728 0.16795 0.0
N953 N 0.52097 0.35411 0.21291 0.0
C954 C 0.545 0.35333 0.22458 0.0
C955 C 0.54771 0.33925 0.24803 0.0
C956 C 0.52538 0.32603 0.26022 0.0
C957 C 0.50045 0.32795 0.24832 0.0
C958 C 0.4987 0.34206 0.22448 0.0
Zn959 Zn 0.52292 0.36936 0.17484 0.0
C960 C 0.47891 0.40899 0.16319 0.0
N961 N 0.53395 0.39896 0.09599 0.0
C962 C 0.56049 0.39796 0.08763 0.0
C963 C 0.52019 0.42162 0.09361 0.0
C964 C 0.53419 0.44504 0.09002 0.0
C965 C 0.56263 0.4452 0.08571 0.0
C966 C 0.57547 0.4208 0.08366 0.0
Zn967 Zn 0.52706 0.38191 0.13276 0.0
O968 O 0.55187 0.40199 0.1866 0.0
C969 C 0.5698 0.34307 0.14535 0.0
O970 O 0.55315 0.41319 0.14517 0.0
H971 H 0.49855 0.42209 0.09736 0.0
H972 H 0.5627 0.36238 0.21489 0.0
H973 H 0.57092 0.37963 0.08644 0.0
O974 O 0.55699 0.3441 0.16761 0.0
O975 O 0.56186 0.35726 0.12662 0.0
H976 H 0.47989 0.34248 0.21471 0.0
O977 O 0.50203 0.35039 0.11886 0.0
O978 O 0.49603 0.33602 0.1597 0.0
O979 O 0.49132 0.40601 0.14082 0.0
O980 O 0.48725 0.39576 0.18275 0.0
C981 C 0.49212 0.33296 0.13502 0.0
H982 H 0.56757 0.33763 0.25567 0.0
H983 H 0.48267 0.31804 0.25695 0.0
H984 H 0.52246 0.46268 0.09084 0.0
H985 H 0.59685 0.41895 0.07874 0.0
C986 C 0.65162 0.58088 0.16695 0.0
N987 N 0.71093 0.53724 0.21021 0.0
C988 C 0.71803 0.56026 0.22063 0.0
C989 C 0.73418 0.5608 0.24231 0.0
C990 C 0.74302 0.5374 0.25373 0.0
C991 C 0.73436 0.51388 0.24327 0.0
C992 C 0.71835 0.51423 0.22139 0.0
Zn993 Zn 0.69491 0.53868 0.17342 0.0
C994 C 0.64701 0.50064 0.16684 0.0
N995 N 0.66663 0.54469 0.097 0.0
C996 C 0.66572 0.57004 0.08908 0.0
C997 C 0.6461 0.52817 0.09251 0.0
C998 C 0.62139 0.53803 0.0853 0.0
C999 C 0.61841 0.56497 0.08022 0.0
C1000 C 0.64177 0.58064 0.08106 0.0
Zn1001 Zn 0.68314 0.54005 0.13229 0.0
O1002 O 0.66498 0.57148 0.18585 0.0
C1003 C 0.73276 0.57429 0.1367 0.0
O1004 O 0.65652 0.57116 0.1445 0.0
H1005 H 0.64763 0.50775 0.09767 0.0
H1006 H 0.71246 0.57837 0.21118 0.0
H1007 H 0.68212 0.58311 0.09249 0.0
O1008 O 0.72777 0.56745 0.16084 0.0
O1009 O 0.71617 0.56678 0.12023 0.0
H1010 H 0.71292 0.49614 0.2126 0.0
O1011 O 0.7093 0.51022 0.11899 0.0
O1012 O 0.7244 0.50817 0.15874 0.0
O1013 O 0.65131 0.51177 0.14439 0.0
O1014 O 0.66244 0.50743 0.18497 0.0
C1015 C 0.72628 0.50119 0.13462 0.0
H1016 H 0.74083 0.57942 0.24911 0.0
H1017 H 0.74059 0.49536 0.25143 0.0
H1018 H 0.60488 0.52445 0.08427 0.0
H1019 H 0.64196 0.60117 0.07625 0.0
C1020 C 0.48525 0.6614 0.16248 0.0
N1021 N 0.52256 0.72895 0.20201 0.0
C1022 C 0.49873 0.73812 0.21284 0.0
C1023 C 0.49837 0.75616 0.23329 0.0
C1024 C 0.52275 0.76531 0.24274 0.0
C1025 C 0.54693 0.75447 0.23209 0.0
C1026 C 0.54639 0.73643 0.21171 0.0
Zn1027 Zn 0.52392 0.70917 0.16595 0.0
C1028 C 0.56777 0.66509 0.16207 0.0
N1029 N 0.52674 0.67178 0.09152 0.0
C1030 C 0.5415 0.6495 0.09056 0.0
C1031 C 0.50286 0.673 0.07964 0.0
C1032 C 0.49148 0.65081 0.06984 0.0
C1033 C 0.50477 0.62667 0.07147 0.0
C1034 C 0.53047 0.62651 0.08174 0.0
Zn1035 Zn 0.5282 0.69255 0.1258 0.0
O1036 O 0.49022 0.67867 0.17958 0.0
C1037 C 0.48796 0.73654 0.12604 0.0
O1038 O 0.4984 0.66364 0.14033 0.0
H1039 H 0.49115 0.69053 0.07923 0.0
H1040 H 0.47994 0.73235 0.20483 0.0
H1041 H 0.56119 0.64885 0.09823 0.0
O1042 O 0.49318 0.7377 0.15038 0.0
O1043 O 0.49828 0.71801 0.11308 0.0
H1044 H 0.56522 0.72944 0.20271 0.0
O1045 O 0.55712 0.72246 0.11016 0.0
O1046 O 0.55524 0.73856 0.14983 0.0
O1047 O 0.55966 0.66773 0.13897 0.0
O1048 O 0.55696 0.68013 0.17961 0.0
C1049 C 0.56378 0.74053 0.12551 0.0
H1050 H 0.47912 0.76332 0.24121 0.0
H1051 H 0.56626 0.76081 0.23854 0.0
H1052 H 0.47234 0.65308 0.06092 0.0
H1053 H 0.54202 0.60881 0.08321 0.0
C1054 C 0.31664 0.50506 0.13279 0.0
N1055 N 0.38777 0.53333 0.09243 0.0
C1056 C 0.38748 0.5082 0.08455 0.0
C1057 C 0.41137 0.49388 0.0835 0.0
C1058 C 0.4359 0.50606 0.0889 0.0
C1059 C 0.43547 0.53362 0.0904 0.0
C1060 C 0.41114 0.54698 0.09045 0.0
Zn1061 Zn 0.36989 0.53627 0.12951 0.0
C1062 C 0.33247 0.57981 0.1374 0.0
N1063 N 0.33505 0.53578 0.21001 0.0
C1064 C 0.33514 0.51323 0.22466 0.0
C1065 C 0.32126 0.55687 0.21953 0.0
C1066 C 0.30573 0.55523 0.24357 0.0
C1067 C 0.30456 0.5318 0.25845 0.0
C1068 C 0.32059 0.51105 0.24909 0.0
Zn1069 Zn 0.35373 0.53618 0.17144 0.0
O1070 O 0.33597 0.5127 0.11695 0.0
C1071 C 0.39453 0.49151 0.16229 0.0
O1072 O 0.3187 0.5102 0.15732 0.0
H1073 H 0.32143 0.57489 0.20819 0.0
H1074 H 0.36861 0.49791 0.08337 0.0
H1075 H 0.34584 0.49644 0.21723 0.0
O1076 O 0.39263 0.50192 0.13962 0.0
O1077 O 0.38041 0.50151 0.18135 0.0
H1078 H 0.41095 0.5677 0.0937 0.0
O1079 O 0.38677 0.56528 0.18251 0.0
O1080 O 0.40303 0.56215 0.14196 0.0
O1081 O 0.33029 0.56908 0.16026 0.0
O1082 O 0.34833 0.57005 0.11969 0.0
C1083 C 0.40449 0.57268 0.16435 0.0
H1084 H 0.41017 0.47336 0.07957 0.0
H1085 H 0.45338 0.54526 0.09185 0.0
H1086 H 0.2939 0.57188 0.24988 0.0
H1087 H 0.32141 0.49288 0.26019 0.0
C1088 C 0.9129 0.51734 0.76467 0.0
N1089 N 0.91271 0.59832 0.75461 0.0
C1090 C 0.90217 0.5993 0.7799 0.0
C1091 C 0.91523 0.61327 0.79833 0.0
C1092 C 0.9398 0.62526 0.79074 0.0
C1093 C 0.94857 0.62682 0.76407 0.0
C1094 C 0.93435 0.61314 0.74598 0.0
Zn1095 Zn 0.90027 0.56858 0.7332 0.0
C1096 C 0.94112 0.54587 0.69829 0.0
N1097 N 0.87503 0.50291 0.69058 0.0
C1098 C 0.88754 0.47974 0.69493 0.0
C1099 C 0.86196 0.50732 0.66804 0.0
C1100 C 0.8638 0.48935 0.64776 0.0
C1101 C 0.87857 0.46642 0.65113 0.0
C1102 C 0.88928 0.46105 0.67549 0.0
Zn1103 Zn 0.8858 0.53419 0.71271 0.0
O1104 O 0.91348 0.54211 0.76516 0.0
C1105 C 0.84236 0.55462 0.74942 0.0
O1106 O 0.90068 0.50737 0.74573 0.0
H1107 H 0.85191 0.52561 0.66477 0.0
H1108 H 0.8855 0.58696 0.78676 0.0
H1109 H 0.89843 0.47635 0.71238 0.0
O1110 O 0.86091 0.57135 0.75165 0.0
O1111 O 0.84634 0.5366 0.73285 0.0
H1112 H 0.94223 0.61218 0.72574 0.0
O1113 O 0.87738 0.56332 0.67897 0.0
O1114 O 0.89099 0.59604 0.70143 0.0
O1115 O 0.9219 0.53085 0.69439 0.0
O1116 O 0.93852 0.56402 0.71471 0.0
C1117 C 0.88352 0.58763 0.67965 0.0
H1118 H 0.90833 0.61154 0.81893 0.0
H1119 H 0.96775 0.63582 0.75787 0.0
H1120 H 0.85514 0.49395 0.62914 0.0
H1121 H 0.90095 0.44358 0.67864 0.0
C1122 C 0.47776 0.92318 0.66563 0.0
N1123 N 0.52422 0.87845 0.71853 0.0
C1124 C 0.502 0.86618 0.72987 0.0
C1125 C 0.5048 0.84461 0.7468 0.0
C1126 C 0.53074 0.83586 0.75253 0.0
C1127 C 0.5532 0.84778 0.73908 0.0
C1128 C 0.54947 0.86909 0.72208 0.0
Zn1129 Zn 0.52046 0.91507 0.70172 0.0
C1130 C 0.56035 0.92421 0.65309 0.0
N1131 N 0.51349 0.99199 0.67171 0.0
C1132 C 0.4881 1.00103 0.67774 0.0
C1133 C 0.52548 0.99665 0.6473 0.0
C1134 C 0.51083 1.00772 0.6273 0.0
C1135 C 0.48397 1.01618 0.63254 0.0
C1136 C 0.47297 1.01255 0.65854 0.0
Zn1137 Zn 0.52152 0.95689 0.68985 0.0
O1138 O 0.48653 0.90339 0.67807 0.0
C1139 C 0.48665 0.95038 0.74194 0.0
O1140 O 0.48885 0.9449 0.66894 0.0
H1141 H 0.5458 0.99016 0.64247 0.0
H1142 H 0.48212 0.87396 0.72691 0.0
H1143 H 0.47802 0.99736 0.69673 0.0
O1144 O 0.49235 0.92647 0.73743 0.0
O1145 O 0.49535 0.96711 0.72472 0.0
H1146 H 0.56694 0.87915 0.71303 0.0
O1147 O 0.55423 0.9688 0.71042 0.0
O1148 O 0.5526 0.92726 0.72264 0.0
O1149 O 0.55008 0.9466 0.65669 0.0
O1150 O 0.55133 0.9056 0.66839 0.0
C1151 C 0.56345 0.94957 0.72329 0.0
H1152 H 0.48686 0.83552 0.7561 0.0
H1153 H 0.57355 0.8417 0.74281 0.0
H1154 H 0.5208 1.00963 0.60793 0.0
H1155 H 0.45268 1.01846 0.66447 0.0
C1156 C 0.16595 0.49609 0.66977 0.0
N1157 N 0.21008 0.53607 0.73161 0.0
C1158 C 0.22217 0.51341 0.73858 0.0
C1159 C 0.24416 0.5136 0.75467 0.0
C1160 C 0.25365 0.53731 0.76392 0.0
C1161 C 0.24203 0.56048 0.75484 0.0
C1162 C 0.22011 0.55941 0.7387 0.0
Zn1163 Zn 0.17198 0.53498 0.71729 0.0
C1164 C 0.161 0.57841 0.67707 0.0
N1165 N 0.09545 0.53035 0.69134 0.0
C1166 C 0.08795 0.50655 0.68296 0.0
C1167 C 0.08042 0.5519 0.6878 0.0
C1168 C 0.05582 0.54965 0.67675 0.0
C1169 C 0.04704 0.52509 0.66932 0.0
C1170 C 0.06388 0.50359 0.67102 0.0
Zn1171 Zn 0.1311 0.5333 0.70536 0.0
O1172 O 0.18414 0.50231 0.6857 0.0
C1173 C 0.13634 0.49515 0.74834 0.0
O1174 O 0.14387 0.50824 0.67288 0.0
H1175 H 0.08695 0.57047 0.69472 0.0
H1176 H 0.21374 0.49506 0.73301 0.0
H1177 H 0.10022 0.48957 0.68623 0.0
O1178 O 0.15984 0.50536 0.74795 0.0
O1179 O 0.12131 0.50106 0.72992 0.0
H1180 H 0.21001 0.5772 0.73328 0.0
O1181 O 0.11652 0.55809 0.73882 0.0
O1182 O 0.15826 0.56408 0.7485 0.0
O1183 O 0.13851 0.5669 0.68124 0.0
O1184 O 0.18154 0.56842 0.68773 0.0
C1185 C 0.1331 0.56829 0.75403 0.0
H1186 H 0.25291 0.4953 0.76073 0.0
H1187 H 0.24868 0.57917 0.76148 0.0
H1188 H 0.04239 0.56613 0.67731 0.0
H1189 H 0.057 0.48432 0.6663 0.0
C1190 C 0.58783 0.14315 0.67701 0.0
N1191 N 0.54974 0.18728 0.74171 0.0
C1192 C 0.5737 0.19597 0.75013 0.0
C1193 C 0.57466 0.21783 0.76623 0.0
C1194 C 0.55078 0.23113 0.77398 0.0
C1195 C 0.52645 0.22205 0.76443 0.0
C1196 C 0.5264 0.20017 0.74832 0.0
Zn1197 Zn 0.54744 0.1507 0.7239 0.0
C1198 C 0.50508 0.14695 0.67994 0.0
N1199 N 0.53961 0.07474 0.69122 0.0
C1200 C 0.55048 0.07618 0.66605 0.0
C1201 C 0.51346 0.06706 0.69554 0.0
C1202 C 0.49557 0.07018 0.67552 0.0
C1203 C 0.50529 0.07852 0.64997 0.0
C1204 C 0.53361 0.08005 0.64527 0.0
Zn1205 Zn 0.54477 0.11012 0.70881 0.0
O1206 O 0.58054 0.16073 0.69334 0.0
C1207 C 0.58415 0.10908 0.75302 0.0
O1208 O 0.5765 0.12099 0.67963 0.0
H1209 H 0.50554 0.0619 0.71522 0.0
H1210 H 0.59205 0.18538 0.74516 0.0
H1211 H 0.57208 0.07822 0.66231 0.0
O1212 O 0.57782 0.1334 0.75227 0.0
O1213 O 0.57422 0.09463 0.73583 0.0
H1214 H 0.50741 0.19279 0.74209 0.0
O1215 O 0.51359 0.10115 0.73856 0.0
O1216 O 0.51625 0.1405 0.75365 0.0
O1217 O 0.51466 0.12426 0.68218 0.0
O1218 O 0.51458 0.16432 0.69489 0.0
C1219 C 0.50584 0.11789 0.75531 0.0
H1220 H 0.59395 0.22399 0.77293 0.0
H1221 H 0.50737 0.23102 0.77027 0.0
H1222 H 0.47445 0.06616 0.68041 0.0
H1223 H 0.54288 0.08453 0.62597 0.0
C1224 C 0.94174 0.49384 0.3423 0.0
N1225 N 0.98524 0.52337 0.40552 0.0
C1226 C 0.98966 0.49887 0.41494 0.0
C1227 C 1.00859 0.49448 0.43352 0.0
C1228 C 0.02574 0.5148 0.44001 0.0
C1229 C 0.02083 0.53999 0.42961 0.0
C1230 C 1.00009 0.54388 0.41273 0.0
Zn1231 Zn 0.95003 0.52982 0.38936 0.0
C1232 C 0.95031 0.56855 0.34664 0.0
N1233 N 0.87047 0.53786 0.36275 0.0
C1234 C 0.85764 0.51524 0.35763 0.0
C1235 C 0.86096 0.56112 0.35393 0.0
C1236 C 0.83834 0.56205 0.3385 0.0
C1237 C 0.82551 0.53881 0.33197 0.0
C1238 C 0.83514 0.51528 0.34229 0.0
Zn1239 Zn 0.90817 0.53406 0.37813 0.0
O1240 O 0.9594 0.49939 0.35871 0.0
C1241 C 0.9109 0.49271 0.42081 0.0
O1242 O 0.91842 0.50431 0.34627 0.0
H1243 H 0.8717 0.57886 0.35769 0.0
H1244 H 0.97772 0.4827 0.4089 0.0
H1245 H 0.86572 0.49689 0.36428 0.0
O1246 O 0.93437 0.50183 0.4168 0.0
O1247 O 0.89247 0.5022 0.40695 0.0
H1248 H 0.99568 0.56328 0.40555 0.0
O1249 O 0.90018 0.56662 0.41016 0.0
O1250 O 0.9421 0.56083 0.41888 0.0
O1251 O 0.92509 0.56319 0.34933 0.0
O1252 O 0.96635 0.55776 0.36212 0.0
C1253 C 0.92021 0.57334 0.42374 0.0
H1254 H 1.0108 0.47491 0.44137 0.0
H1255 H 0.03346 0.55653 0.43319 0.0
H1256 H 0.83188 0.58061 0.33063 0.0
H1257 H 0.82585 0.49694 0.33785 0.0
C1258 C 0.56966 0.96603 0.34191 0.0
N1259 N 0.53552 1.0011 0.41253 0.0
C1260 C 0.56043 1.01216 0.40878 0.0
C1261 C 0.57487 1.01903 0.43026 0.0
C1262 C 0.56345 1.01575 0.45625 0.0
C1263 C 0.5366 1.00739 0.45922 0.0
C1264 C 0.5227 1.0008 0.43706 0.0
Zn1265 Zn 0.5311 0.96804 0.39035 0.0
C1266 C 0.49027 0.96979 0.34732 0.0
N1267 N 0.53108 0.89289 0.35277 0.0
C1268 C 0.5541 0.88096 0.3433 0.0
C1269 C 0.50646 0.88357 0.3468 0.0
C1270 C 0.50432 0.86218 0.3303 0.0
C1271 C 0.52769 0.85007 0.31938 0.0
C1272 C 0.55285 0.85946 0.32668 0.0
Zn1273 Zn 0.53236 0.92846 0.37285 0.0
O1274 O 0.55951 0.98155 0.35896 0.0
C1275 C 0.57536 0.9326 0.41654 0.0
O1276 O 0.56315 0.94209 0.34389 0.0
H1277 H 0.48832 0.89323 0.35424 0.0
H1278 H 0.57073 1.013 0.38953 0.0
H1279 H 0.57356 0.88864 0.34789 0.0
O1280 O 0.56392 0.95454 0.41431 0.0
O1281 O 0.56672 0.9147 0.40158 0.0
H1282 H 0.50262 0.99293 0.44012 0.0
O1283 O 0.49991 0.9146 0.40217 0.0
O1284 O 0.50191 0.95276 0.41984 0.0
O1285 O 0.5 0.94652 0.34537 0.0
O1286 O 0.49852 0.98339 0.36614 0.0
C1287 C 0.49169 0.93011 0.42016 0.0
H1288 H 0.59522 0.02622 0.42624 0.0
H1289 H 0.527 1.00468 0.47856 0.0
H1290 H 0.48443 0.85539 0.3259 0.0
H1291 H 0.57147 0.8509 0.31883 0.0
C1292 C 0.18666 0.4819 0.41412 0.0
N1293 N 0.18834 0.56698 0.41134 0.0
C1294 C 0.18508 0.56048 0.43749 0.0
C1295 C 0.18272 0.57954 0.45631 0.0
C1296 C 0.18329 0.6057 0.44839 0.0
C1297 C 0.18868 0.61225 0.42162 0.0
C1298 C 0.19115 0.59234 0.40321 0.0
Zn1299 Zn 0.17866 0.53807 0.38612 0.0
C1300 C 0.22235 0.52256 0.34644 0.0
N1301 N 0.15436 0.47676 0.33968 0.0
C1302 C 0.13369 0.46012 0.34674 0.0
C1303 C 0.16341 0.48035 0.31403 0.0
C1304 C 0.14998 0.46904 0.29415 0.0
C1305 C 0.12657 0.45479 0.30077 0.0
C1306 C 0.11906 0.44901 0.32726 0.0
Zn1307 Zn 0.16624 0.50392 0.36447 0.0
O1308 O 0.19099 0.50644 0.41588 0.0
C1309 C 0.12568 0.51804 0.40485 0.0
O1310 O 0.17909 0.47399 0.39218 0.0
H1311 H 0.17904 0.49432 0.30843 0.0
H1312 H 0.18166 0.54066 0.44404 0.0
H1313 H 0.12688 0.4575 0.36722 0.0
O1314 O 0.14194 0.53659 0.40731 0.0
O1315 O 0.12957 0.50243 0.38608 0.0
H1316 H 0.19327 0.59726 0.3824 0.0
O1317 O 0.14988 0.53317 0.33628 0.0
O1318 O 0.16164 0.56751 0.35697 0.0
O1319 O 0.20435 0.50537 0.34421 0.0
O1320 O 0.21814 0.53983 0.36386 0.0
C1321 C 0.14983 0.55793 0.33758 0.0
H1322 H 0.17861 0.57384 0.47682 0.0
H1323 H 0.18907 0.63238 0.41487 0.0
H1324 H 0.15591 0.474 0.27378 0.0
H1325 H 0.10088 0.43796 0.33272 0.0
C1326 C 0.52072 0.1533 0.43434 0.0
N1327 N 0.55756 0.20658 0.37425 0.0
C1328 C 0.53209 0.21654 0.37503 0.0
C1329 C 0.52626 0.23863 0.35991 0.0
C1330 C 0.54691 0.25093 0.34422 0.0
C1331 C 0.57343 0.2416 0.34542 0.0
C1332 C 0.57833 0.21913 0.36054 0.0
Zn1333 Zn 0.56151 0.16828 0.38648 0.0
C1334 C 0.60227 0.15617 0.42364 0.0
N1335 N 0.56685 0.08806 0.40306 0.0
C1336 C 0.55024 0.08227 0.42421 0.0
C1337 C 0.59386 0.08296 0.40349 0.0
C1338 C 0.60578 0.07964 0.42756 0.0
C1339 C 0.58943 0.0792 0.45112 0.0
C1340 C 0.56094 0.0805 0.44867 0.0
Zn1341 Zn 0.56008 0.12579 0.3931 0.0
O1342 O 0.53087 0.17373 0.4224 0.0
C1343 C 0.51862 0.13828 0.35995 0.0
O1344 O 0.52996 0.13154 0.42651 0.0
H1345 H 0.60694 0.08534 0.38587 0.0
H1346 H 0.51573 0.20614 0.38563 0.0
H1347 H 0.52862 0.08409 0.42291 0.0
O1348 O 0.5291 0.16005 0.36439 0.0
O1349 O 0.5285 0.11758 0.36955 0.0
H1350 H 0.59833 0.21073 0.35981 0.0
O1351 O 0.58731 0.11898 0.35978 0.0
O1352 O 0.58928 0.15995 0.34866 0.0
O1353 O 0.59113 0.13489 0.41841 0.0
O1354 O 0.59547 0.17669 0.41113 0.0
C1355 C 0.59545 0.13629 0.3432 0.0
H1356 H 0.50557 0.24527 0.35943 0.0
H1357 H 0.58983 0.25051 0.33338 0.0
H1358 H 0.6275 0.07772 0.42768 0.0
H1359 H 0.54629 0.07972 0.46502 0.0
C1360 C 0.65724 0.92844 0.57731 0.0
N1361 N 0.72301 0.88707 0.53803 0.0
C1362 C 0.72776 0.87418 0.56097 0.0
C1363 C 0.7424 0.85097 0.56069 0.0
C1364 C 0.75219 0.84082 0.53655 0.0
C1365 C 0.74614 0.85406 0.51313 0.0
C1366 C 0.73145 0.87727 0.51432 0.0
Zn1367 Zn 0.70749 0.92399 0.53997 0.0
C1368 C 0.66312 0.93435 0.49691 0.0
N1369 N 0.67655 1.0008 0.54381 0.0
C1370 C 0.65096 1.00075 0.53546 0.0
C1371 C 0.68055 1.00771 0.56885 0.0
C1372 C 0.6596 1.00525 0.58819 0.0
C1373 C 0.63281 1.0008 0.58109 0.0
C1374 C 0.6288 0.99964 0.55381 0.0
Zn1375 Zn 0.69412 0.96487 0.53909 0.0
O1376 O 0.6743 0.91086 0.57042 0.0
C1377 C 0.73921 0.95619 0.5806 0.0
O1378 O 0.66145 0.95108 0.5674 0.0
H1379 H 0.70056 1.01246 0.57455 0.0
H1380 H 0.72124 0.88252 0.57961 0.0
H1381 H 0.64763 0.99889 0.51478 0.0
O1382 O 0.73718 0.93301 0.57208 0.0
O1383 O 0.72286 0.97276 0.57148 0.0
H1384 H 0.72771 0.88799 0.49635 0.0
O1385 O 0.72665 0.97874 0.51096 0.0
O1386 O 0.7408 0.93833 0.51148 0.0
O1387 O 0.66695 0.95667 0.50654 0.0
O1388 O 0.67755 0.91577 0.50613 0.0
C1389 C 0.74455 0.96206 0.50379 0.0
H1390 H 0.74712 0.84179 0.57924 0.0
H1391 H 0.75329 0.84689 0.49411 0.0
H1392 H 0.66462 1.00808 0.60834 0.0
H1393 H 0.60892 0.99774 0.54645 0.0
C1394 C 0.67421 0.14095 0.51017 0.0
N1395 N 0.73151 0.1844 0.54508 0.0
C1396 C 0.73821 0.1945 0.52063 0.0
C1397 C 0.7498 0.21908 0.51794 0.0
C1398 C 0.75419 0.23285 0.54069 0.0
C1399 C 0.74517 0.22288 0.56547 0.0
C1400 C 0.73404 0.1982 0.56726 0.0
Zn1401 Zn 0.71765 0.14854 0.54923 0.0
C1402 C 0.67114 0.14432 0.58954 0.0
N1403 N 0.68273 0.07401 0.55988 0.0
C1404 C 0.65832 0.07179 0.54916 0.0
C1405 C 0.68487 0.06774 0.58591 0.0
C1406 C 0.66191 0.06471 0.60291 0.0
C1407 C 0.63599 0.06444 0.59297 0.0
C1408 C 0.63477 0.0676 0.56527 0.0
Zn1409 Zn 0.70271 0.10852 0.54994 0.0
O1410 O 0.68957 0.15799 0.51913 0.0
C1411 C 0.75036 0.11117 0.51076 0.0
O1412 O 0.67504 0.11794 0.51975 0.0
H1413 H 0.70418 0.06724 0.59449 0.0
H1414 H 0.73564 0.18305 0.50337 0.0
H1415 H 0.65655 0.07532 0.52831 0.0
O1416 O 0.74791 0.13452 0.51887 0.0
O1417 O 0.73287 0.09427 0.51978 0.0
H1418 H 0.72859 0.1896 0.58644 0.0
O1419 O 0.73186 0.10052 0.57905 0.0
O1420 O 0.74707 0.14035 0.57788 0.0
O1421 O 0.6733 0.12213 0.57949 0.0
O1422 O 0.68783 0.16174 0.58093 0.0
C1423 C 0.74833 0.11719 0.5868 0.0
H1424 H 0.75709 0.22636 0.49864 0.0
H1425 H 0.74878 0.23318 0.5833 0.0
H1426 H 0.66488 0.06166 0.62365 0.0
H1427 H 0.61594 0.06669 0.55566 0.0
C1428 C 0.92258 0.6596 0.50612 0.0
N1429 N 0.87465 0.72338 0.5428 0.0
C1430 C 0.86668 0.73074 0.51858 0.0
C1431 C 0.84444 0.74718 0.51622 0.0
C1432 C 0.83025 0.75609 0.539 0.0
C1433 C 0.83831 0.7473 0.5637 0.0
C1434 C 0.86063 0.73088 0.56515 0.0
Zn1435 Zn 0.91152 0.70595 0.54636 0.0
C1436 C 0.9101 0.66188 0.58853 0.0
N1437 N 0.98832 0.67285 0.55417 0.0
C1438 C 0.99531 0.65445 0.53628 0.0
C1439 C 0.99152 0.66841 0.58014 0.0
C1440 C 0.99573 0.64334 0.58946 0.0
C1441 C 0.99842 0.62236 0.57187 0.0
C1442 C 0.99937 0.62872 0.54469 0.0
Zn1443 Zn 0.95285 0.69137 0.54925 0.0
O1444 O 0.90318 0.67495 0.51356 0.0
C1445 C 0.95498 0.73691 0.51062 0.0
O1446 O 0.94452 0.6629 0.51755 0.0
H1447 H 0.9865 0.6832 0.5943 0.0
H1448 H 0.87834 0.72486 0.50108 0.0
H1449 H 0.99447 0.65898 0.5155 0.0
O1450 O 0.92968 0.73455 0.51682 0.0
O1451 O 0.97081 0.71983 0.51989 0.0
H1452 H 0.86761 0.72522 0.58422 0.0
O1453 O 0.96162 0.72068 0.58028 0.0
O1454 O 0.92119 0.73627 0.57702 0.0
O1455 O 0.93472 0.66289 0.57977 0.0
O1456 O 0.89401 0.67824 0.57842 0.0
C1457 C 0.94426 0.73797 0.5871 0.0
H1458 H 0.83888 0.75349 0.4968 0.0
H1459 H 0.82839 0.75414 0.58178 0.0
H1460 H 0.99638 0.64104 0.61053 0.0
H1461 H 1.00284 0.61403 0.53002 0.0
C1462 C 0.3264 0.94002 0.50399 0.0
N1463 N 0.38167 0.99216 0.53015 0.0
C1464 C 0.38281 0.99588 0.50344 0.0
C1465 C 0.40758 0.99432 0.48901 0.0
C1466 C 0.43156 0.99221 0.50245 0.0
C1467 C 0.42912 0.99387 0.53045 0.0
C1468 C 0.40395 0.99621 0.5435 0.0
Zn1469 Zn 0.36936 0.95498 0.5397 0.0
C1470 C 0.32271 0.9512 0.57871 0.0
N1471 N 0.34851 0.87692 0.54964 0.0
C1472 C 0.34841 0.86184 0.52805 0.0
C1473 C 0.34106 0.86754 0.5742 0.0
C1474 C 0.33027 0.84262 0.57733 0.0
C1475 C 0.3276 0.82776 0.5549 0.0
C1476 C 0.33847 0.83671 0.53037 0.0
Zn1477 Zn 0.35868 0.91394 0.54402 0.0
O1478 O 0.34198 0.95819 0.50976 0.0
C1479 C 0.40525 0.92061 0.50352 0.0
O1480 O 0.32839 0.91802 0.51547 0.0
H1481 H 0.34183 0.87995 0.59102 0.0
H1482 H 0.36451 0.99666 0.49293 0.0
H1483 H 0.35422 0.86984 0.50871 0.0
O1484 O 0.40105 0.94303 0.51241 0.0
O1485 O 0.38992 0.9023 0.51267 0.0
H1486 H 0.40239 0.99697 0.56478 0.0
O1487 O 0.38779 0.90873 0.5738 0.0
O1488 O 0.39634 0.9503 0.57155 0.0
O1489 O 0.32687 0.92701 0.57438 0.0
O1490 O 0.33835 0.96774 0.56664 0.0
C1491 C 0.4004 0.9281 0.58212 0.0
H1492 H 0.40788 0.99482 0.4677 0.0
H1493 H 0.44616 0.99425 0.54265 0.0
H1494 H 0.32161 0.83616 0.59644 0.0
H1495 H 0.33621 0.82561 0.51275 0.0
C1496 C 0.12445 0.33389 0.51306 0.0
N1497 N 0.08909 0.40203 0.55023 0.0
C1498 C 0.08445 0.41379 0.52681 0.0
C1499 C 0.07761 0.44002 0.52578 0.0
C1500 C 0.07384 0.45429 0.54927 0.0
C1501 C 0.07563 0.44027 0.57331 0.0
C1502 C 0.08257 0.41395 0.57332 0.0
Zn1503 Zn 0.1236 0.38084 0.5495 0.0
C1504 C 0.12309 0.33476 0.58741 0.0
N1505 N 0.20164 0.34518 0.54774 0.0
C1506 C 0.209 0.3304 0.52664 0.0
C1507 C 0.21764 0.34636 0.56857 0.0
C1508 C 0.24165 0.33205 0.56883 0.0
C1509 C 0.249 0.31552 0.54789 0.0
C1510 C 0.23208 0.31489 0.52665 0.0
Zn1511 Zn 0.16459 0.36404 0.54833 0.0
O1512 O 0.10864 0.35188 0.52158 0.0
C1513 C 0.16398 0.40784 0.50608 0.0
O1514 O 0.14913 0.33514 0.51921 0.0
H1515 H 0.21165 0.358 0.58532 0.0
H1516 H 0.08968 0.40394 0.50864 0.0
H1517 H 0.19669 0.32991 0.50986 0.0
O1518 O 0.14001 0.40789 0.51668 0.0
O1519 O 0.18026 0.39111 0.51523 0.0
H1520 H 0.08653 0.40425 0.59181 0.0
O1521 O 0.17793 0.39401 0.58007 0.0
O1522 O 0.13731 0.40886 0.57866 0.0
O1523 O 0.14789 0.33559 0.57877 0.0
O1524 O 0.10768 0.35337 0.58066 0.0
C1525 C 0.16024 0.41065 0.58842 0.0
H1526 H 0.07585 0.44881 0.50644 0.0
H1527 H 0.07265 0.44949 0.59212 0.0
H1528 H 0.254 0.33356 0.5856 0.0
H1529 H 0.23581 0.30186 0.51046 0.0
C1530 C 0.34166 0.10971 0.5925 0.0
N1531 N 0.41354 0.07516 0.55364 0.0
C1532 C 0.40651 0.06192 0.53233 0.0
C1533 C 0.42627 0.0537 0.51397 0.0
C1534 C 0.45387 0.05592 0.51894 0.0
C1535 C 0.46052 0.06691 0.54251 0.0
C1536 C 0.44003 0.07618 0.55982 0.0
Zn1537 Zn 0.39254 0.10925 0.55811 0.0
C1538 C 0.34677 0.11534 0.5176 0.0
N1539 N 0.3595 0.18698 0.55709 0.0
C1540 C 0.33704 0.19038 0.57344 0.0
C1541 C 0.36858 0.20685 0.5406 0.0
C1542 C 0.35446 0.23046 0.53949 0.0
C1543 C 0.33022 0.2336 0.55492 0.0
C1544 C 0.322 0.21319 0.57237 0.0
Zn1545 Zn 0.37734 0.14982 0.55566 0.0
O1546 O 0.36077 0.09376 0.58672 0.0
C1547 C 0.42084 0.14268 0.59925 0.0
O1548 O 0.34467 0.13325 0.58401 0.0
H1549 H 0.38651 0.20447 0.52783 0.0
H1550 H 0.38561 0.05954 0.52816 0.0
H1551 H 0.32984 0.17536 0.5871 0.0
O1552 O 0.41886 0.1198 0.59054 0.0
O1553 O 0.40581 0.1601 0.58899 0.0
H1554 H 0.44605 0.0862 0.57683 0.0
O1555 O 0.4107 0.16311 0.52444 0.0
O1556 O 0.42398 0.12319 0.5282 0.0
O1557 O 0.34855 0.13899 0.52473 0.0
O1558 O 0.36385 0.0994 0.52668 0.0
C1559 C 0.42769 0.1455 0.51724 0.0
H1560 H 0.41963 0.04521 0.49623 0.0
H1561 H 0.48142 0.06914 0.54703 0.0
H1562 H 0.36245 0.24592 0.52647 0.0
H1563 H 0.30349 0.21433 0.58468 0.0
C1564 C 0.91765 0.39792 0.56865 0.0
N1565 N 0.88222 0.33945 0.53065 0.0
C1566 C 0.86996 0.33408 0.55475 0.0
C1567 C 0.84552 0.32107 0.55672 0.0
C1568 C 0.83431 0.31293 0.53369 0.0
C1569 C 0.84645 0.31987 0.509 0.0
C1570 C 0.87075 0.33343 0.50792 0.0
Zn1571 Zn 0.91782 0.35663 0.52969 0.0
C1572 C 0.92103 0.40242 0.49238 0.0
N1573 N 0.99287 0.39438 0.52971 0.0
C1574 C 0.99803 0.40911 0.50741 0.0
C1575 C 0.9985 0.40346 0.55361 0.0
C1576 C 1.00428 0.4297 0.55631 0.0
C1577 C 1.00497 0.44688 0.53408 0.0
C1578 C 1.00315 0.43571 0.50918 0.0
Zn1579 Zn 0.95827 0.37311 0.53062 0.0
O1580 O 0.90227 0.38128 0.55943 0.0
C1581 C 0.95492 0.32784 0.56924 0.0
O1582 O 0.94219 0.39886 0.56029 0.0
H1583 H 0.99451 0.39141 0.57113 0.0
H1584 H 0.87958 0.3391 0.57249 0.0
H1585 H 0.99401 0.4013 0.48844 0.0
O1586 O 0.9316 0.32789 0.55971 0.0
O1587 O 0.9716 0.34565 0.56109 0.0
H1588 H 0.88099 0.33827 0.48907 0.0
O1589 O 0.97401 0.34663 0.50083 0.0
O1590 O 0.93284 0.33099 0.50046 0.0
O1591 O 0.94431 0.40067 0.50133 0.0
O1592 O 0.90379 0.38505 0.49983 0.0
C1593 C 0.95761 0.32986 0.49268 0.0
H1594 H 0.83641 0.31578 0.57601 0.0
H1595 H 0.83818 0.31346 0.49096 0.0
H1596 H 1.00735 0.43619 0.57597 0.0
H1597 H 1.0045 0.44739 0.49119 0.0
C1598 C 0.14961 0.67259 0.60941 0.0
N1599 N 0.18912 0.73344 0.56752 0.0
C1600 C 0.20177 0.73925 0.58964 0.0
C1601 C 0.22716 0.75082 0.58747 0.0
C1602 C 0.2392 0.75605 0.56231 0.0
C1603 C 0.22639 0.74847 0.53992 0.0
C1604 C 0.20091 0.7375 0.54298 0.0
Zn1605 Zn 0.15294 0.71726 0.57028 0.0
C1606 C 0.15015 0.67621 0.53153 0.0
N1607 N 0.07679 0.68126 0.57583 0.0
C1608 C 0.07071 0.67431 0.60148 0.0
C1609 C 0.07218 0.66461 0.55628 0.0
C1610 C 0.06666 0.63851 0.56235 0.0
C1611 C 0.06428 0.62947 0.58899 0.0
C1612 C 0.06531 0.64837 0.60852 0.0
Zn1613 Zn 0.11193 0.7018 0.57119 0.0
O1614 O 0.16713 0.6893 0.60082 0.0
C1615 C 0.11454 0.74621 0.60677 0.0
O1616 O 0.12626 0.67431 0.60063 0.0
H1617 H 0.07633 0.67064 0.53592 0.0
H1618 H 0.19185 0.73549 0.60887 0.0
H1619 H 0.07457 0.68769 0.61692 0.0
O1620 O 0.13916 0.74536 0.59838 0.0
O1621 O 0.09837 0.7286 0.60028 0.0
H1622 H 0.19034 0.73267 0.52573 0.0
O1623 O 0.09776 0.72934 0.54185 0.0
O1624 O 0.1391 0.74472 0.53964 0.0
O1625 O 0.12582 0.6762 0.54062 0.0
O1626 O 0.16675 0.69128 0.54135 0.0
C1627 C 0.11498 0.74599 0.53208 0.0
H1628 H 0.23662 0.7568 0.60505 0.0
H1629 H 0.23539 0.7523 0.52026 0.0
H1630 H 0.06476 0.62574 0.54596 0.0
H1631 H 0.06321 0.64338 0.62922 0.0
C1632 C 1.01466 0.08456 0.57805 0.0
C1633 C 0.99573 0.09948 0.59269 0.0
C1634 C 0.01851 0.09164 0.55117 0.0
C1635 C 0.99936 0.10813 0.53966 0.0
H1636 H 0.03035 0.07421 0.58781 0.0
H1637 H 0.03702 0.08657 0.5404 0.0
S1638 S 0.92859 0.11202 0.56854 0.0
N1639 N 0.94677 0.10198 0.59305 0.0
N1640 N 0.95003 0.11588 0.5426 0.0
C1641 C 0.97332 0.10809 0.553 0.0
C1642 C 0.97136 0.10035 0.5801 0.0
C1643 C 0.98632 0.02966 0.56353 0.0
C1644 C 0.96132 1.01916 0.57302 0.0
C1645 C 0.98817 0.04374 0.53969 0.0
C1646 C 0.96468 0.05353 0.52899 0.0
H1647 H 1.00436 0.02615 0.57408 0.0
H1648 H 1.00775 0.04681 0.52951 0.0
S1649 S 0.89394 0.03569 0.5494 0.0
N1650 N 0.91311 1.01576 0.56569 0.0
N1651 N 0.9154 0.05606 0.53411 0.0
C1652 C 0.93952 0.04674 0.54159 0.0
C1653 C 0.9382 0.02565 0.55946 0.0
C1654 C 1.00442 0.97791 0.55022 0.0
C1655 C 0.98361 0.96093 0.5602 0.0
C1656 C 1.00555 0.98521 0.52342 0.0
C1657 C 0.99038 0.96968 0.50729 0.0
H1658 H 0.02097 0.98303 0.56207 0.0
H1659 H 0.02293 0.99607 0.51527 0.0
S1660 S 0.91982 0.95243 0.52627 0.0
N1661 N 0.93577 0.95098 0.55397 0.0
N1662 N 0.94229 0.96284 0.50303 0.0
C1663 C 0.96375 0.96676 0.51783 0.0
C1664 C 0.96048 0.95997 0.54514 0.0
C1665 C 0.07837 0.05584 0.55766 0.0
C1666 C 0.08669 0.03333 0.57133 0.0
C1667 C 0.08232 0.05626 0.53002 0.0
C1668 C 0.09416 0.03406 0.51828 0.0
H1669 H 0.07562 0.07412 0.56757 0.0
H1670 H 0.08233 0.07486 0.51965 0.0
S1671 S 0.07822 0.96815 0.54437 0.0
N1672 N 0.07653 0.98684 0.5705 0.0
N1673 N 0.08384 0.98765 0.5183 0.0
C1674 C 0.08429 1.01083 0.53042 0.0
C1675 C 0.08032 1.01042 0.55834 0.0
C1676 C 0.51398 0.0829 0.18381 0.0
C1677 C 0.5206 0.06923 0.16065 0.0
C1678 C 0.4881 0.08232 0.19535 0.0
C1679 C 0.46832 0.06715 0.18466 0.0
H1680 H 0.52949 0.09152 0.195 0.0
H1681 H 0.48442 0.09168 0.2141 0.0
S1682 S 0.47407 0.03179 0.1217 0.0
N1683 N 0.50466 0.04353 0.12524 0.0
N1684 N 0.45524 0.04171 0.14742 0.0
C1685 C 0.47376 0.05548 0.16011 0.0
C1686 C 0.50022 0.05661 0.148 0.0
C1687 C 0.06651 0.53245 0.10707 0.0
C1688 C 0.08177 0.53393 0.12954 0.0
C1689 C 0.05887 0.50808 0.09849 0.0
C1690 C 0.0618 0.48709 0.11599 0.0
H1691 H 0.05703 0.54963 0.09906 0.0
H1692 H 0.04399 0.50721 0.08389 0.0
S1693 S 0.11493 0.47849 0.16254 0.0
N1694 N 0.11233 0.51023 0.1577 0.0
N1695 N 0.09474 0.4653 0.14184 0.0
C1696 C 0.08579 0.48685 0.12917 0.0
C1697 C 0.0951 0.51115 0.13784 0.0
C1698 C 0.58989 0.02326 0.94241 0.0
C1699 C 0.5985 1.00575 0.92271 0.0
C1700 C 0.5657 1.01881 0.95732 0.0
C1701 C 0.54812 0.99932 0.9495 0.0
H1702 H 0.60092 0.04107 0.94537 0.0
H1703 H 0.5585 0.03372 0.97066 0.0
S1704 S 0.57268 0.9385 0.91831 0.0
N1705 N 0.59596 0.96057 0.90964 0.0
N1706 N 0.54993 0.9535 0.93749 0.0
C1707 C 0.56088 0.97773 0.93756 0.0
C1708 C 0.58576 0.98143 0.92275 0.0
C1709 C 0.97663 0.55802 0.99012 0.0
C1710 C 1.00462 0.5599 0.99384 0.0
C1711 C 0.96689 0.53366 0.98252 0.0
C1712 C 0.98543 0.5128 0.98099 0.0
H1713 H 0.96535 0.57525 0.98509 0.0
H1714 H 0.94834 0.53314 0.97233 0.0
S1715 S 0.0407 0.50611 0.02535 0.0
N1716 N 0.03692 0.53784 1.02109 0.0
N1717 N 1.0167 0.49181 1.00967 0.0
C1718 C 1.00379 0.51322 1.0009 0.0
C1719 C 1.01464 0.53787 1.0069 0.0
C1720 C 0.1116 0.57487 0.08269 0.0
C1721 C 0.13364 0.5649 0.09617 0.0
C1722 C 0.10117 0.5601 0.06268 0.0
C1723 C 0.11034 0.53467 0.05878 0.0
H1724 H 0.10761 0.59554 0.08243 0.0
H1725 H 0.0885 0.56923 0.04862 0.0
S1726 S 0.15256 0.49605 0.10337 0.0
N1727 N 0.15359 0.52601 0.11412 0.0
N1728 N 0.13158 0.49705 0.0794 0.0
C1729 C 0.12448 0.52252 0.07913 0.0
C1730 C 0.13583 0.53795 0.09839 0.0
C1731 C 0.53087 0.14919 0.16753 0.0
C1732 C 0.54599 0.17154 0.17181 0.0
C1733 C 0.51304 0.14867 0.14682 0.0
C1734 C 0.50645 0.17158 0.1325 0.0
H1735 H 0.53695 0.13128 0.17667 0.0
H1736 H 0.50748 0.12968 0.14016 0.0
S1737 S 0.54275 0.25045 0.14902 0.0
N1738 N 0.54872 0.22123 0.17964 0.0
N1739 N 0.51588 0.22462 0.12898 0.0
C1740 C 0.51092 0.19538 0.14493 0.0
C1741 C 0.53103 0.19322 0.17548 0.0
C1742 C 0.99875 0.54849 0.08229 0.0
C1743 C 0.98163 0.56372 0.09877 0.0
C1744 C 0.99176 0.52199 0.08086 0.0
C1745 C 0.97029 0.51228 0.09792 0.0
H1746 H 1.01152 0.55749 0.06664 0.0
H1747 H 0.99921 0.51103 0.06419 0.0
S1748 S 0.96001 0.53919 0.16507 0.0
N1749 N 0.97348 0.56331 0.14653 0.0
N1750 N 0.95703 0.51427 0.14541 0.0
C1751 C 0.96816 0.52475 0.12257 0.0
C1752 C 0.97701 0.55101 0.12329 0.0
C1753 C 0.55043 0.98769 0.068 0.0
C1754 C 0.57981 0.98287 0.06734 0.0
C1755 C 0.52857 0.97318 0.05521 0.0
C1756 C 0.53059 0.95197 0.03602 0.0
H1757 H 0.54356 1.00337 0.08054 0.0
H1758 H 0.50821 0.97871 0.06156 0.0
S1759 S 0.60653 0.96118 0.98629 0.0
N1760 N 0.61935 0.96799 0.02472 0.0
N1761 N 0.56692 0.94517 0.99452 0.0
C1762 C 0.5559 0.9422 0.0263 0.0
C1763 C 0.59519 0.96077 0.05038 0.0
C1764 C 0.51221 0.59049 1.01425 0.0
C1765 C 0.49525 0.60979 1.00436 0.0
C1766 C 0.51425 0.59029 0.04167 0.0
C1767 C 0.49456 0.60366 0.05745 0.0
H1768 H 0.52897 0.58313 1.00201 0.0
H1769 H 0.53326 0.58467 0.04911 0.0
S1770 S 0.42633 0.6168 0.0349 0.0
N1771 N 0.44633 0.61632 1.00762 0.0
N1772 N 0.44555 0.6099 0.05971 0.0
C1773 C 0.46944 0.60603 0.04601 0.0
C1774 C 0.46984 0.60945 1.01818 0.0
C1775 C 0.47373 0.46985 0.04767 0.0
C1776 C 0.47976 0.49519 0.03739 0.0
C1777 C 0.46298 0.46802 0.07398 0.0
C1778 C 0.46212 0.49106 0.08867 0.0
H1779 H 0.4702 0.45401 0.0346 0.0
H1780 H 0.45103 0.45116 0.08035 0.0
S1781 S 0.5146 0.54074 0.07951 0.0
N1782 N 0.50989 0.53038 0.04946 0.0
N1783 N 0.49574 0.5224 0.10033 0.0
C1784 C 0.48495 0.50649 0.08286 0.0
C1785 C 0.49254 0.51055 0.0557 0.0
C1786 C 0.56506 0.49156 0.03829 0.0
C1787 C 0.58293 0.47429 0.02515 0.0
C1788 C 0.56212 0.489 0.06593 0.0
C1789 C 0.5777 0.47006 0.07847 0.0
H1790 H 0.54971 0.50163 0.02781 0.0
H1791 H 0.54476 0.49713 0.07619 0.0
S1792 S 0.64802 0.45852 0.05329 0.0
N1793 N 0.63136 0.46589 0.02679 0.0
N1794 N 0.62601 0.46034 0.07901 0.0
C1795 C 0.60389 0.46798 0.06643 0.0
C1796 C 0.60678 0.47107 0.03856 0.0
C1797 C 0.58007 0.55986 0.02758 0.0
C1798 C 0.59893 0.57796 1.01623 0.0
C1799 C 0.57815 0.55786 0.05527 0.0
C1800 C 0.59295 0.57569 0.06951 0.0
H1801 H 0.57286 0.54401 1.01623 0.0
H1802 H 0.56999 0.54039 0.06458 0.0
S1803 S 0.60445 0.64308 0.04457 0.0
N1804 N 0.60385 0.62522 1.01791 0.0
N1805 N 0.59835 0.62298 0.07014 0.0
C1806 C 0.59474 0.60053 0.0573 0.0
C1807 C 0.59761 0.60174 0.02936 0.0
C1808 C 0.9763 0.54245 0.66282 0.0
C1809 C 0.96717 0.53746 0.68896 0.0
C1810 C 1.00217 0.5348 0.65424 0.0
C1811 C 0.01825 0.52095 0.67143 0.0
H1812 H 0.96404 0.5535 0.64966 0.0
H1813 H 1.01052 0.54167 0.63516 0.0
S1814 S 0.99929 0.49728 0.73945 0.0
N1815 N 0.97309 0.5143 0.73034 0.0
N1816 N 0.02129 0.49824 0.71379 0.0
C1817 C 1.00735 0.5125 0.69627 0.0
C1818 C 0.98175 0.52135 0.7053 0.0
C1819 C 0.4881 0.04709 0.59557 0.0
C1820 C 0.46992 0.03332 0.61304 0.0
C1821 C 0.49734 0.07144 0.60336 0.0
C1822 C 0.48673 0.08089 0.62768 0.0
H1823 H 0.49968 0.037 0.58062 0.0
H1824 H 0.51548 0.07956 0.59355 0.0
S1825 S 0.41507 0.06848 0.64892 0.0
N1826 N 0.42453 0.04274 0.63172 0.0
N1827 N 0.44162 0.08813 0.64846 0.0
C1828 C 0.4593 0.07433 0.63304 0.0
C1829 C 0.45021 0.04998 0.62425 0.0
C1830 C 0.06536 0.48644 0.43938 0.0
C1831 C 0.0525 0.50849 0.45024 0.0
C1832 C 0.09015 0.48936 0.4254 0.0
C1833 C 0.10355 0.51342 0.42466 0.0
H1834 H 0.05457 0.46848 0.43679 0.0
H1835 H 0.09772 0.47334 0.41363 0.0
S1836 S 0.08747 0.56816 0.46913 0.0
N1837 N 0.06113 0.54841 0.47311 0.0
N1838 N 0.10874 0.55427 0.44751 0.0
C1839 C 0.09488 0.53215 0.443 0.0
C1840 C 0.06934 0.529 0.45684 0.0
C1841 C 0.61918 0.05071 0.47478 0.0
C1842 C 0.60126 0.07187 0.47712 0.0
C1843 C 0.60735 0.02579 0.47478 0.0
C1844 C 0.57891 0.02394 0.47926 0.0
H1845 H 0.63935 0.05344 0.46579 0.0
H1846 H 0.61864 1.01048 0.46496 0.0
S1847 S 0.53893 0.07249 0.51811 0.0
N1848 N 0.56784 0.0872 0.50947 0.0
N1849 N 0.5419 0.04264 0.50671 0.0
C1850 C 0.56751 0.04315 0.49612 0.0
C1851 C 0.5814 0.06743 0.49737 0.0
C1852 C 0.6163 1.01064 0.62653 0.0
C1853 C 0.60925 1.00332 0.60116 0.0
C1854 C 0.61805 0.03761 0.63111 0.0
C1855 C 0.61183 0.055 0.61024 0.0
H1856 H 0.62682 0.99716 0.63898 0.0
H1857 H 0.62933 0.04405 0.64737 0.0
S1858 S 0.55547 0.03896 0.5695 0.0
N1859 N 0.56931 1.01067 0.57635 0.0
N1860 N 0.57218 0.06149 0.5846 0.0
C1861 C 0.58982 0.04599 0.59678 0.0
C1862 C 0.58835 1.01888 0.59226 0.0
C1863 C 0.05254 0.58568 0.57417 0.0
C1864 C 0.05642 0.60164 0.59595 0.0
C1865 C 0.02586 0.58292 0.56642 0.0
C1866 C 1.00519 0.59536 0.58174 0.0
H1867 H 0.06907 0.582 0.55988 0.0
H1868 H 0.02273 0.57704 0.54651 0.0
S1869 S 1.00701 0.60219 0.65339 0.0
N1870 N 0.03894 0.60366 0.64196 0.0
N1871 N 0.9891 0.59559 0.62789 0.0
C1872 C 1.00928 0.59356 0.60883 0.0
C1873 C 0.03604 0.59818 0.61631 0.0
C1874 C 0.45987 1.01426 0.46803 0.0
C1875 C 0.45874 0.99429 0.48763 0.0
C1876 C 0.46794 0.03918 0.47548 0.0
C1877 C 0.47446 0.04229 0.50192 0.0
H1878 H 0.44868 1.01258 0.45049 0.0
H1879 H 0.46205 0.05584 0.46373 0.0
S1880 S 0.505 0.9893 0.54105 0.0
N1881 N 0.48943 0.97446 0.51772 0.0
N1882 N 0.49995 1.02072 0.53594 0.0
C1883 C 0.48635 1.02032 0.51363 0.0
C1884 C 0.48039 0.99537 0.50402 0.0
C1885 C 0.05665 0.49112 0.52355 0.0
C1886 C 0.06378 0.48207 0.54866 0.0
C1887 C 0.03001 0.48593 0.51681 0.0
C1888 C 1.01174 0.4752 0.53661 0.0
H1889 H 0.0721 0.4943 0.50785 0.0
H1890 H 0.0259 0.48528 0.49619 0.0
S1891 S 1.01675 0.49068 0.60672 0.0
N1892 N 0.0482 0.49187 0.59389 0.0
N1893 N 0.99729 0.48447 0.58223 0.0
C1894 C 1.01637 0.48383 0.56204 0.0
C1895 C 0.04361 0.48759 0.5683 0.0
C1896 C 0.03666 0.29246 0.31962 0.0
C1897 C 0.05426 0.27146 0.31517 0.0
C1898 C 0.03059 0.30959 0.29916 0.0
C1899 C 0.04182 0.3063 0.27343 0.0
H1900 H 0.02713 0.29539 0.33906 0.0
H1901 H 1.01701 0.3256 0.30357 0.0
S1902 S 0.0891 0.25418 0.25164 0.0
N1903 N 0.08306 0.24818 0.28353 0.0
N1904 N 0.07156 0.28048 0.24462 0.0
C1905 C 0.05989 0.2856 0.26878 0.0
C1906 C 0.06613 0.26813 0.28978 0.0
C1907 C 0.7927 1.01198 0.31248 0.0
C1908 C 0.81568 0.02799 0.30861 0.0
C1909 C 0.7731 1.01143 0.29382 0.0
C1910 C 0.77579 0.02687 0.27064 0.0
H1911 H 0.78919 1.00071 0.33063 0.0
H1912 H 0.75505 0.99985 0.29824 0.0
S1913 S 0.83399 0.06934 0.24955 0.0
N1914 N 0.84138 0.05765 0.27879 0.0
N1915 N 0.80443 0.05659 0.24356 0.0
C1916 C 0.79936 0.0419 0.26587 0.0
C1917 C 0.81933 0.04248 0.28491 0.0
C1918 C 0.0324 0.77603 0.33058 0.0
C1919 C 0.05128 0.79649 0.32715 0.0
C1920 C 0.03122 0.75628 0.31211 0.0
C1921 C 0.04881 0.7562 0.28936 0.0
H1922 H 0.01877 0.77494 0.34802 0.0
H1923 H 1.01688 0.74057 0.3161 0.0
S1924 S 0.10037 0.80665 0.27 0.0
N1925 N 0.087 0.81626 0.29867 0.0
N1926 N 0.08459 0.77938 0.26365 0.0
C1927 C 0.06739 0.77691 0.28538 0.0
C1928 C 0.06869 0.79696 0.30433 0.0
C1929 C 0.30338 0.06483 0.2766 0.0
C1930 C 0.32018 0.04392 0.2692 0.0
C1931 C 0.28455 0.06271 0.29831 0.0
C1932 C 0.28215 0.0398 0.3141 0.0
H1933 H 0.30552 0.08336 0.26609 0.0
H1934 H 0.27238 0.07957 0.30325 0.0
S1935 S 0.32181 0.97932 0.30291 0.0
N1936 N 0.33275 0.99927 0.27868 0.0
N1937 N 0.2984 0.9955 0.32016 0.0
C1938 C 0.29829 1.01838 0.30627 0.0
C1939 C 0.31705 1.02042 0.28373 0.0
C1940 C 0.06677 0.76037 0.79925 0.0
C1941 C 0.05575 0.76296 0.82526 0.0
C1942 C 0.06118 0.7785 0.77921 0.0
C1943 C 0.04408 0.79983 0.78424 0.0
H1944 H 0.07913 0.74371 0.79404 0.0
H1945 H 0.06968 0.77536 0.75942 0.0
S1946 S 1.01232 0.81736 0.84919 0.0
N1947 N 0.02878 0.79018 0.85521 0.0
N1948 N 1.01763 0.82362 0.81729 0.0
C1949 C 0.03347 0.80313 0.81016 0.0
C1950 C 0.03946 0.7849 0.8307 0.0
C1951 C 0.30466 1.02051 0.7917 0.0
C1952 C 0.3023 0.03812 0.81254 0.0
C1953 C 0.28492 1.01896 0.77307 0.0
C1954 C 0.26184 0.03492 0.77442 0.0
H1955 H 0.32224 1.0081 0.78945 0.0
H1956 H 0.28815 1.00556 0.75707 0.0
S1957 S 0.24489 0.08285 0.82636 0.0
N1958 N 0.27437 0.07096 0.83417 0.0
N1959 N 0.23712 0.06794 0.79936 0.0
C1960 C 0.25897 0.0523 0.79546 0.0
C1961 C 0.2792 0.05395 0.81441 0.0
C1962 C 1.01009 0.32225 0.78527 0.0
C1963 C 0.02668 0.32202 0.80682 0.0
C1964 C 1.01024 0.30162 0.7677 0.0
C1965 C 0.02697 0.27982 0.77091 0.0
H1966 H 0.99727 0.33882 0.78158 0.0
H1967 H 0.99758 0.30309 0.75106 0.0
S1968 S 0.07271 0.26868 0.82527 0.0
N1969 N 0.05931 0.2975 0.83116 0.0
N1970 N 0.05956 0.25866 0.79814 0.0
C1971 C 0.04334 0.2791 0.79262 0.0
C1972 C 0.04321 0.30018 0.81054 0.0
C1973 C 0.78193 1.01836 0.81126 0.0
C1974 C 0.78358 0.04044 0.79428 0.0
C1975 C 0.76278 1.01666 0.83264 0.0
C1976 C 0.745 0.03725 0.83842 0.0
H1977 H 0.79482 1.00173 0.80741 0.0
H1978 H 0.76104 0.9986 0.84404 0.0
S1979 S 0.74162 0.09996 0.80146 0.0
N1980 N 0.766 0.08381 0.78553 0.0
N1981 N 0.7309 0.08086 0.82649 0.0
C1982 C 0.74753 0.06012 0.82285 0.0
C1983 C 0.76664 0.06169 0.80063 0.0
C1984 C 0.28675 0.27947 0.02613 0.0
C1985 C 0.30872 0.28072 0.04239 0.0
C1986 C 0.26749 0.29951 0.02569 0.0
C1987 C 0.26953 0.32153 0.04146 0.0
H1988 H 0.28435 0.26283 1.01379 0.0
H1989 H 0.25081 0.29769 1.013 0.0
S1990 S 0.32481 0.33536 0.08537 0.0
N1991 N 0.33233 0.30656 0.0733 0.0
N1992 N 0.29635 0.34409 0.07241 0.0
C1993 C 0.29166 0.32315 0.05746 0.0
C1994 C 0.31119 0.3028 0.05793 0.0
C1995 C 0.28616 0.80037 0.99995 0.0
C1996 C 0.28774 0.81971 1.01882 0.0
C1997 C 0.2658 0.78179 1.00225 0.0
C1998 C 0.24633 0.78191 0.02354 0.0
H1999 H 0.30244 0.79747 0.98516 0.0
H2000 H 0.26767 0.76553 0.98911 0.0
S2001 S 0.2362 0.83414 0.07212 0.0
N2002 N 0.26444 0.84223 0.055 0.0
N2003 N 0.22551 0.80704 0.05924 0.0
C2004 C 0.24507 0.80367 0.03978 0.0
C2005 C 0.26602 0.82266 0.03748 0.0
C2006 C 0.80777 0.29466 0.02314 0.0
C2007 C 0.79762 0.31969 0.02784 0.0
C2008 C 0.79052 0.27306 0.02575 0.0
C2009 C 0.76306 0.27649 0.03288 0.0
H2010 H 0.8292 0.29173 1.01895 0.0
H2011 H 0.79878 0.25371 0.02343 0.0
S2012 S 0.7272 0.33821 0.04674 0.0
N2013 N 0.75886 0.34685 0.03924 0.0
N2014 N 0.72636 0.3063 0.04395 0.0
C2015 C 0.75264 0.30155 0.03642 0.0
C2016 C 0.77004 0.32327 0.03391 0.0
C2017 C 0.80679 0.77594 0.07083 0.0
C2018 C 0.80557 0.75374 0.05522 0.0
C2019 C 0.78635 0.79487 0.07086 0.0
C2020 C 0.764 0.79225 0.05528 0.0
H2021 H 0.82376 0.77878 0.08296 0.0
H2022 H 0.7882 0.81182 0.08291 0.0
S2023 S 0.74969 0.73631 1.01332 0.0
N2024 N 0.77907 0.72932 0.0254 0.0
N2025 N 0.74088 0.76479 0.0254 0.0
C2026 C 0.76228 0.76986 0.04006 0.0
C2027 C 0.78299 0.75066 0.04003 0.0
C2028 C 0.55809 0.77726 0.79021 0.0
C2029 C 0.54357 0.77823 0.81475 0.0
C2030 C 0.55361 0.79569 0.77003 0.0
C2031 C 0.53456 0.81583 0.77375 0.0
H2032 H 0.57273 0.76197 0.7865 0.0
H2033 H 0.56502 0.79406 0.75131 0.0
S2034 S 0.49356 0.82825 0.83571 0.0
N2035 N 0.51069 0.80163 0.84231 0.0
N2036 N 0.50269 0.83654 0.80489 0.0
C2037 C 0.52043 0.81724 0.79854 0.0
C2038 C 0.52485 0.79841 0.8189 0.0
C2039 C 0.2961 0.55507 0.78223 0.0
C2040 C 0.27389 0.53785 0.78458 0.0
C2041 C 0.31478 0.5563 0.80202 0.0
C2042 C 0.31196 0.54034 0.82491 0.0
H2043 H 0.29916 0.56759 0.76488 0.0
H2044 H 0.3317 0.56964 0.79928 0.0
S2045 S 0.25562 0.49426 0.84215 0.0
N2046 N 0.24909 0.50605 0.81273 0.0
N2047 N 0.28405 0.5083 0.84966 0.0
C2048 C 0.28952 0.52348 0.82774 0.0
C2049 C 0.27056 0.52224 0.80768 0.0
C2050 C 0.56659 0.25149 0.81544 0.0
C2051 C 0.55108 0.25326 0.79305 0.0
C2052 C 0.56646 0.27135 0.83416 0.0
C2053 C 0.55077 0.29403 0.83152 0.0
H2054 H 0.57853 0.23428 0.81894 0.0
H2055 H 0.57832 0.26859 0.85123 0.0
S2056 S 0.50859 0.30973 0.77527 0.0
N2057 N 0.52099 0.2807 0.76854 0.0
N2058 N 0.52063 0.31771 0.80361 0.0
C2059 C 0.53561 0.29634 0.80895 0.0
C2060 C 0.53579 0.27612 0.78983 0.0
C2061 C 0.79872 0.57108 0.81072 0.0
C2062 C 0.7805 0.55005 0.81406 0.0
C2063 C 0.81727 0.57313 0.78888 0.0
C2064 C 0.81883 0.55413 0.76927 0.0
H2065 H 0.7995 0.58568 0.82567 0.0
H2066 H 0.83131 0.58933 0.78805 0.0
S2067 S 0.77362 0.49667 0.76684 0.0
N2068 N 0.76341 0.51109 0.79435 0.0
N2069 N 0.79887 0.51452 0.75366 0.0
C2070 C 0.79992 0.53358 0.77164 0.0
C2071 C 0.78076 0.53159 0.79393 0.0
C2072 C 0.52276 0.26518 0.30459 0.0
C2073 C 0.54023 0.27124 0.32441 0.0
C2074 C 0.51733 0.2833 0.28452 0.0
C2075 C 0.52897 0.30835 0.28357 0.0
H2076 H 0.51394 0.24594 0.30407 0.0
H2077 H 0.5047 0.27721 0.26909 0.0
S2078 S 0.57381 0.33463 0.33281 0.0
N2079 N 0.56787 0.3043 0.34296 0.0
N2080 N 0.557 0.33885 0.30593 0.0
C2081 C 0.54565 0.31495 0.30403 0.0
C2082 C 0.55146 0.29629 0.32423 0.0
C2083 C 0.78556 0.52095 0.27302 0.0
C2084 C 0.76297 0.53754 0.27479 0.0
C2085 C 0.8054 0.52145 0.29163 0.0
C2086 C 0.80368 0.53863 0.31286 0.0
H2087 H 0.78832 0.50782 0.25673 0.0
H2088 H 0.82258 0.50858 0.28904 0.0
S2089 S 0.74776 0.58477 0.32782 0.0
N2090 N 0.73941 0.57071 0.30054 0.0
N2091 N 0.77689 0.57182 0.33526 0.0
C2092 C 0.7811 0.55511 0.31512 0.0
C2093 C 0.76075 0.55452 0.29621 0.0
C2094 C 0.54049 0.78551 0.28369 0.0
C2095 C 0.5232 0.78679 0.26256 0.0
C2096 C 0.54179 0.80581 0.30189 0.0
C2097 C 0.52586 0.82841 0.29993 0.0
H2098 H 0.55306 0.76856 0.28631 0.0
H2099 H 0.55527 0.80364 0.31781 0.0
S2100 S 0.47929 0.84286 0.24683 0.0
N2101 N 0.49112 0.81366 0.23996 0.0
N2102 N 0.49349 0.8514 0.27391 0.0
C2103 C 0.50878 0.8301 0.2787 0.0
C2104 C 0.50747 0.80948 0.26017 0.0
C2105 C 0.28145 0.54835 0.30093 0.0
C2106 C 0.28537 0.52842 0.2824 0.0
C2107 C 0.26215 0.54595 0.32247 0.0
C2108 C 0.24591 0.52351 0.32645 0.0
H2109 H 0.29316 0.56614 0.29859 0.0
H2110 H 0.25933 0.56218 0.33555 0.0
S2111 S 0.2483 0.46542 0.28395 0.0
N2112 N 0.27089 0.48552 0.26967 0.0
N2113 N 0.23611 0.48042 0.31036 0.0
C2114 C 0.25033 0.50311 0.30853 0.0
C2115 C 0.2696 0.5057 0.28652 0.0
C2116 C 0.79502 0.81898 0.52042 0.0
C2117 C 0.77056 0.81788 0.53594 0.0
C2118 C 0.81377 0.7986 0.521 0.0
C2119 C 0.80886 0.77627 0.53712 0.0
H2120 H 0.80017 0.83612 0.50837 0.0
H2121 H 0.8327 0.80079 0.50938 0.0
S2122 S 0.74668 0.76252 0.57937 0.0
N2123 N 0.74156 0.79171 0.56639 0.0
N2124 N 0.77683 0.75344 0.5675 0.0
C2125 C 0.78411 0.77453 0.55209 0.0
C2126 C 0.76499 0.7953 0.5515 0.0
C2127 C 0.7886 0.29691 0.5243 0.0
C2128 C 0.81341 0.29303 0.53574 0.0
C2129 C 0.76892 0.27735 0.52608 0.0
C2130 C 0.7739 0.2538 0.53936 0.0
H2131 H 0.78448 0.31507 0.51408 0.0
H2132 H 0.74986 0.28056 0.51716 0.0
S2133 S 0.83686 0.23342 0.56968 0.0
N2134 N 0.84277 0.26346 0.5587 0.0
N2135 N 0.80569 0.22677 0.56219 0.0
C2136 C 0.79886 0.24957 0.55023 0.0
C2137 C 0.81872 0.26925 0.54838 0.0
C2138 C 0.28637 0.76752 0.57191 0.0
C2139 C 0.2626 0.77324 0.55919 0.0
C2140 C 0.30811 0.78497 0.57007 0.0
C2141 C 0.30633 0.80824 0.55538 0.0
H2142 H 0.28798 0.74968 0.58346 0.0
H2143 H 0.32615 0.78048 0.5803 0.0
S2144 S 0.24743 0.83311 0.5209 0.0
N2145 N 0.23783 0.80436 0.53316 0.0
N2146 N 0.27874 0.837 0.52949 0.0
C2147 C 0.28256 0.81421 0.5429 0.0
C2148 C 0.26061 0.79667 0.54484 0.0
C2149 C 0.27859 0.2858 0.57363 0.0
C2150 C 0.27265 0.29744 0.54929 0.0
C2151 C 0.29834 0.26649 0.57532 0.0
C2152 C 0.31269 0.2572 0.5527 0.0
H2153 H 0.26716 0.29077 0.5916 0.0
H2154 H 0.30176 0.25821 0.59462 0.0
S2155 S 0.30735 0.28325 0.48437 0.0
N2156 N 0.28566 0.30068 0.50235 0.0
N2157 N 0.3207 0.26254 0.50516 0.0
C2158 C 0.3079 0.26945 0.52831 0.0
C2159 C 0.28836 0.28984 0.5267 0.0
C2160 C 0.13621 0.14524 0.41687 0.0
C2161 C 0.11043 0.14149 0.42996 0.0
C2162 C 0.15635 0.12543 0.41663 0.0
C2163 C 0.15145 0.10094 0.42926 0.0
H2164 H 0.14123 0.16393 0.40758 0.0
H2165 H 0.17615 0.1297 0.40742 0.0
S2166 S 0.08572 0.07946 0.46157 0.0
N2167 N 0.08046 0.11005 0.45287 0.0
N2168 N 0.11742 0.07332 0.45204 0.0
C2169 C 0.12522 0.09663 0.44091 0.0
C2170 C 0.10503 0.11666 0.44136 0.0
C2171 C 0.96769 0.14289 0.39653 0.0
C2172 C 0.99057 0.13898 0.41176 0.0
C2173 C 0.94777 0.12289 0.3937 0.0
C2174 C 0.94986 0.09781 0.40568 0.0
H2175 H 0.96432 0.16197 0.38791 0.0
H2176 H 0.92994 0.12763 0.38327 0.0
S2177 S 1.00752 0.07637 0.44472 0.0
N2178 N 1.01462 0.10707 0.4371 0.0
N2179 N 0.97876 0.07015 0.43126 0.0
C2180 C 0.97353 0.0935 0.41956 0.0
C2181 C 0.99329 0.11373 0.42273 0.0
C2182 C 0.98593 0.95586 0.4357 0.0
C2183 C 0.98585 0.93314 0.42061 0.0
C2184 C 0.96722 0.97631 0.43278 0.0
C2185 C 0.94691 0.97592 0.41432 0.0
H2186 H 1.00077 0.95797 0.45025 0.0
H2187 H 0.96863 0.99267 0.44566 0.0
S2188 S 0.93829 0.92198 0.36799 0.0
N2189 N 0.96404 0.9123 0.38499 0.0
N2190 N 0.92902 0.95069 0.37941 0.0
C2191 C 0.94716 0.95388 0.39805 0.0
C2192 C 0.96647 0.9327 0.40115 0.0
C2193 C 0.12705 0.97409 0.45178 0.0
C2194 C 0.14616 0.97911 0.43044 0.0
C2195 C 0.10837 0.95311 0.4524 0.0
C2196 C 0.10701 0.93527 0.43166 0.0
H2197 H 0.12647 0.98654 0.46863 0.0
H2198 H 0.09473 0.95093 0.46974 0.0
S2199 S 0.15154 0.9393 0.3701 0.0
N2200 N 0.16178 0.96405 0.38723 0.0
N2201 N 0.12673 0.92501 0.38824 0.0
C2202 C 0.12555 0.94022 0.40973 0.0
C2203 C 0.14488 0.96183 0.40914 0.0
C2204 C 0.11029 0.966 0.69099 0.0
C2205 C 0.12558 0.97318 0.66733 0.0
C2206 C 0.08924 0.9465 0.69188 0.0
C2207 C 0.08203 0.93299 0.66916 0.0
H2208 H 0.11424 0.97584 0.70897 0.0
H2209 H 0.07819 0.94238 0.71051 0.0
S2210 S 0.11805 0.94118 0.60307 0.0
N2211 N 0.13309 0.96235 0.62127 0.0
N2212 N 0.09444 0.92722 0.62278 0.0
C2213 C 0.09784 0.93948 0.64577 0.0
C2214 C 0.11914 0.95898 0.64491 0.0
C2215 C 0.09615 0.12451 0.64752 0.0
C2216 C 0.09072 0.14069 0.66934 0.0
C2217 C 0.11541 0.10432 0.64741 0.0
C2218 C 0.13111 0.09837 0.66909 0.0
H2219 H 0.0854 0.12737 0.6298 0.0
H2220 H 0.11793 0.0932 0.62965 0.0
S2221 S 0.12549 0.13401 0.7321 0.0
N2222 N 0.10313 0.14874 0.71402 0.0
N2223 N 0.13934 0.11083 0.7138 0.0
C2224 C 0.12595 0.11408 0.69144 0.0
C2225 C 0.10597 0.13503 0.69156 0.0
C2226 C 0.96296 0.12394 0.6982 0.0
C2227 C 0.96303 0.14266 0.67704 0.0
C2228 C 0.94319 0.10323 0.70161 0.0
C2229 C 0.92198 0.10006 0.68423 0.0
H2230 H 0.97904 0.12458 0.7117 0.0
H2231 H 0.94529 0.08899 0.71736 0.0
S2232 S 0.91009 0.14579 0.62817 0.0
N2233 N 0.93779 0.15735 0.64019 0.0
N2234 N 0.90156 0.11977 0.64644 0.0
C2235 C 0.92133 0.11941 0.66387 0.0
C2236 C 0.94135 0.14014 0.66035 0.0
C2237 C 0.9622 0.9529 0.67644 0.0
C2238 C 0.95745 0.92876 0.68961 0.0
C2239 C 0.944 0.97379 0.67891 0.0
C2240 C 0.91933 0.97206 0.69434 0.0
H2241 H 0.98012 0.95562 0.66341 0.0
H2242 H 0.94902 0.99141 0.66755 0.0
S2243 S 0.89715 0.91362 0.73427 0.0
N2244 N 0.92656 0.90482 0.72022 0.0
N2245 N 0.89185 0.94391 0.7242 0.0
C2246 C 0.91464 0.9484 0.70866 0.0
C2247 C 0.93368 0.92692 0.70642 0.0
C2248 C 0.39927 0.10129 0.13606 0.0
C2249 C 0.38335 0.10894 0.15866 0.0
C2250 C 0.40612 0.11869 0.1143 0.0
C2251 C 0.39679 0.14476 0.1131 0.0
H2252 H 0.40771 0.08188 0.13565 0.0
H2253 H 0.41921 0.11161 0.09824 0.0
S2254 S 0.35434 0.1752 0.16664 0.0
N2255 N 0.35891 0.14528 0.17809 0.0
N2256 N 0.37028 0.17696 0.13718 0.0
C2257 C 0.38025 0.15247 0.1352 0.0
C2258 C 0.37402 0.135 0.15779 0.0
C2259 C 0.96101 0.40416 0.12204 0.0
C2260 C 0.95138 0.39504 0.14723 0.0
C2261 C 0.94343 0.40934 0.10201 0.0
C2262 C 0.91558 0.40482 0.10603 0.0
H2263 H 0.98205 0.40974 0.11858 0.0
H2264 H 0.95154 0.41818 0.08365 0.0
S2265 S 0.88033 0.37841 0.1672 0.0
N2266 N 0.91234 0.38022 0.17451 0.0
N2267 N 0.8793 0.38848 0.13615 0.0
C2268 C 0.90587 0.39358 0.13027 0.0
C2269 C 0.9238 0.38898 0.15106 0.0
C2270 C 0.63639 0.97143 0.13441 0.0
C2271 C 0.65931 0.97769 0.14851 0.0
C2272 C 0.63612 0.95088 0.11613 0.0
C2273 C 0.65872 0.93465 0.11025 0.0
H2274 H 0.61804 0.98262 0.13748 0.0
H2275 H 0.61757 0.94777 0.1064 0.0
S2276 S 0.72448 0.94188 0.14122 0.0
N2277 N 0.70576 0.96512 0.15482 0.0
N2278 N 0.70524 0.92692 0.12075 0.0
C2279 C 0.68195 0.94054 0.12413 0.0
C2280 C 0.68224 0.96172 0.14296 0.0
C2281 C 0.11526 0.63517 0.13849 0.0
C2282 C 0.11134 0.65475 0.15733 0.0
C2283 C 0.13581 0.6367 0.11828 0.0
C2284 C 0.15403 0.65776 0.11533 0.0
H2285 H 0.1024 0.61807 0.13934 0.0
H2286 H 0.13753 0.62092 0.10475 0.0
S2287 S 0.15263 0.71511 0.15851 0.0
N2288 N 0.12739 0.69678 0.17105 0.0
N2289 N 0.16614 0.69945 0.13294 0.0
C2290 C 0.1501 0.67802 0.13347 0.0
C2291 C 0.12887 0.67652 0.15439 0.0
C2292 C 0.38945 0.95204 0.93866 0.0
C2293 C 0.40676 0.97371 0.94072 0.0
C2294 C 0.39078 0.92987 0.95595 0.0
C2295 C 0.40964 0.92839 0.97582 0.0
H2296 H 0.37568 0.95167 0.9229 0.0
H2297 H 0.37776 0.91339 0.95302 0.0
S2298 S 0.45693 0.98128 0.99177 0.0
N2299 N 0.44133 0.99294 0.96629 0.0
N2300 N 0.44396 0.95206 0.99786 0.0
C2301 C 0.42593 0.95055 0.97877 0.0
C2302 C 0.42446 0.97289 0.96154 0.0
C2303 C 0.12454 0.44872 0.96073 0.0
C2304 C 0.13586 0.42494 0.96963 0.0
C2305 C 0.10356 0.45021 0.94294 0.0
C2306 C 0.0919 0.42808 0.932 0.0
H2307 H 0.13174 0.46701 0.96783 0.0
H2308 H 0.09639 0.46943 0.93775 0.0
S2309 S 0.11351 0.36028 0.94738 0.0
N2310 N 0.1331 0.37807 0.9652 0.0
N2311 N 0.09421 0.38084 0.93152 0.0
C2312 C 0.10307 0.40391 0.94019 0.0
C2313 C 0.12465 0.40235 0.95884 0.0
C2314 C 0.62953 0.14443 1.00992 0.0
C2315 C 0.64998 0.1603 1.01904 0.0
C2316 C 0.635 0.12719 0.98927 0.0
C2317 C 0.66112 0.12512 0.97699 0.0
H2318 H 0.60911 0.14541 1.01864 0.0
H2319 H 0.61864 0.11528 0.98294 0.0
S2320 S 0.72178 0.16248 0.993 0.0
N2321 N 0.69763 0.17264 1.01396 0.0
N2322 N 0.70745 0.14063 0.97503 0.0
C2323 C 0.68175 0.14073 0.98594 0.0
C2324 C 0.67629 0.15822 1.00695 0.0
C2325 C 0.99545 0.63518 0.98221 0.0
C2326 C 0.99917 0.65547 0.96306 0.0
C2327 C 0.97257 0.63347 1.00019 0.0
C2328 C 0.95156 0.65206 1.00065 0.0
H2329 H 1.01038 0.61995 0.98318 0.0
H2330 H 0.97135 0.617 1.01387 0.0
S2331 S 0.95114 0.71029 0.95581 0.0
N2332 N 0.97956 0.69544 0.9465 0.0
N2333 N 0.93694 0.69254 0.98042 0.0
C2334 C 0.95531 0.67317 0.98231 0.0
C2335 C 0.97883 0.67481 0.96366 0.0
C2336 C 0.12286 0.40517 0.11708 0.0
C2337 C 0.12126 0.41824 0.09228 0.0
C2338 C 0.09987 0.40184 0.13551 0.0
C2339 C 0.07362 0.41103 0.13025 0.0
H2340 H 0.14231 0.39825 0.12282 0.0
H2341 H 0.103 0.39284 0.15455 0.0
S2342 S 0.05691 0.44219 0.06644 0.0
N2343 N 0.08992 0.43797 0.06293 0.0
N2344 N 0.04755 0.43059 0.09616 0.0
C2345 C 0.07159 0.42261 0.10488 0.0
C2346 C 0.09496 0.42651 0.08646 0.0
C2347 C 0.16537 0.66282 0.97184 0.0
C2348 C 0.16041 0.64781 0.99528 0.0
C2349 C 0.14689 0.66312 0.95157 0.0
C2350 C 0.12274 0.64855 0.95419 0.0
H2351 H 0.18398 0.67384 0.96884 0.0
H2352 H 0.15186 0.67421 0.93356 0.0
S2353 S 0.09779 0.61091 1.01383 0.0
N2354 N 0.12805 0.62093 1.02104 0.0
N2355 N 0.09328 0.62209 0.98377 0.0
C2356 C 0.11701 0.63485 0.97819 0.0
C2357 C 0.13582 0.63429 0.99849 0.0
C2358 C 0.39612 0.13536 0.96982 0.0
C2359 C 0.41769 0.13828 0.98692 0.0
C2360 C 0.39559 0.1152 0.95041 0.0
C2361 C 0.41658 0.09647 0.94673 0.0
H2362 H 0.37952 0.149 0.97113 0.0
H2363 H 0.37868 0.11461 0.9379 0.0
S2364 S 0.47704 0.09367 0.98719 0.0
N2365 N 0.4601 0.1189 0.99878 0.0
N2366 N 0.45906 0.0823 0.96371 0.0
C2367 C 0.43782 0.09899 0.96415 0.0
C2368 C 0.43838 0.1193 0.98363 0.0
C2369 C 0.97066 0.44242 0.96249 0.0
C2370 C 0.96752 0.42631 0.94078 0.0
C2371 C 0.95201 0.44242 0.98439 0.0
C2372 C 0.92917 0.42598 0.98613 0.0
H2373 H 0.98773 0.45554 0.96251 0.0
H2374 H 0.95542 0.45587 0.99997 0.0
S2375 S 0.91222 0.3783 0.93569 0.0
N2376 N 0.94032 0.39224 0.92315 0.0
N2377 N 0.9053 0.39185 0.96448 0.0
C2378 C 0.92634 0.40871 0.96519 0.0
C2379 C 0.94547 0.4089 0.94258 0.0
C2380 C 0.68885 0.94165 0.93965 0.0
C2381 C 0.68857 0.96895 0.94337 0.0
C2382 C 0.68581 0.92324 0.96101 0.0
C2383 C 0.68226 0.93095 0.98746 0.0
H2384 H 0.69032 0.93427 0.91984 0.0
H2385 H 0.68474 0.90277 0.95659 0.0
S2386 S 0.68155 0.99953 1.00902 0.0
N2387 N 0.68567 1.00223 0.97658 0.0
N2388 N 0.68 0.96802 1.0161 0.0
C2389 C 0.68295 0.95804 0.99161 0.0
C2390 C 0.68617 0.97681 0.9699 0.0
C2391 C 0.98183 0.66745 0.14013 0.0
C2392 C 0.98218 0.64918 0.16158 0.0
C2393 C 0.96115 0.66745 0.12125 0.0
C2394 C 0.93948 0.64914 0.1225 0.0
H2395 H 0.99827 0.6813 0.13723 0.0
H2396 H 0.96282 0.68133 0.1049 0.0
S2397 S 0.92786 0.60012 0.17696 0.0
N2398 N 0.95652 0.61415 0.18388 0.0
N2399 N 0.91876 0.61419 0.14934 0.0
C2400 C 0.93911 0.63167 0.14448 0.0
C2401 C 0.95994 0.63169 0.16356 0.0
C2402 C 0.37392 0.92838 0.12796 0.0
C2403 C 0.39337 0.94672 0.13444 0.0
C2404 C 0.37915 0.91131 0.10698 0.0
C2405 C 0.40401 0.91207 0.09198 0.0
H2406 H 0.35435 0.92777 0.13861 0.0
H2407 H 0.3636 0.8976 0.10239 0.0
S2408 S 0.46172 0.95642 0.10219 0.0
N2409 N 0.43858 0.964 0.12531 0.0
N2410 N 0.44822 0.93293 0.08569 0.0
C2411 C 0.42369 0.93017 0.09884 0.0
C2412 C 0.41843 0.94719 0.12015 0.0
C2413 C 0.65538 0.13194 0.11793 0.0
C2414 C 0.66949 0.15426 0.1251 0.0
C2415 C 0.65766 0.10796 0.13129 0.0
C2416 C 0.674 0.10473 0.15292 0.0
H2417 H 0.64166 0.13313 0.10211 0.0
H2418 H 0.64525 0.09199 0.12534 0.0
S2419 S 0.71721 0.15634 0.17859 0.0
N2420 N 0.70231 0.17107 0.15408 0.0
N2421 N 0.70615 0.12593 0.1798 0.0
C2422 C 0.68958 0.12644 0.15947 0.0
C2423 C 0.68743 0.15114 0.14548 0.0
C2424 C 0.61068 0.62981 0.94943 0.0
C2425 C 0.61086 0.64901 0.92918 0.0
C2426 C 0.62965 0.6095 0.94958 0.0
C2427 C 0.6504 0.6068 0.92962 0.0
H2428 H 0.59544 0.63023 0.96554 0.0
H2429 H 0.62781 0.5956 0.96578 0.0
S2430 S 0.65943 0.65058 0.87055 0.0
N2431 N 0.63313 0.66303 0.88732 0.0
N2432 N 0.66899 0.62491 0.88782 0.0
C2433 C 0.65052 0.62531 0.90859 0.0
C2434 C 0.63084 0.64626 0.90833 0.0
C2435 C 0.47366 0.59909 0.94101 0.0
C2436 C 0.45056 0.59909 0.92595 0.0
C2437 C 0.49301 0.61955 0.93917 0.0
C2438 C 0.49043 0.64189 0.92276 0.0
H2439 H 0.47681 0.58309 0.95471 0.0
H2440 H 0.51031 0.61794 0.95108 0.0
S2441 S 0.4346 0.65176 0.87789 0.0
N2442 N 0.42729 0.62335 0.89252 0.0
N2443 N 0.46298 0.66187 0.88991 0.0
C2444 C 0.46802 0.64185 0.90675 0.0
C2445 C 0.44836 0.62063 0.90823 0.0
C2446 C 0.44296 0.45359 0.91314 0.0
C2447 C 0.44558 0.47713 0.92682 0.0
C2448 C 0.46253 0.43311 0.91449 0.0
C2449 C 0.48559 0.43517 0.92963 0.0
H2450 H 0.42509 0.45041 0.90238 0.0
H2451 H 0.45888 0.41512 0.90461 0.0
S2452 S 0.50404 0.49406 0.96588 0.0
N2453 N 0.47492 0.50174 0.95369 0.0
N2454 N 0.51075 0.46426 0.95611 0.0
C2455 C 0.48891 0.45916 0.94207 0.0
C2456 C 0.46929 0.47973 0.9407 0.0
C2457 C 0.60823 0.45591 0.95299 0.0
C2458 C 0.60747 0.4372 0.93296 0.0
C2459 C 0.62692 0.47694 0.95237 0.0
C2460 C 0.64661 0.48152 0.93142 0.0
H2461 H 0.59399 0.45441 0.96978 0.0
H2462 H 0.62582 0.48982 0.96895 0.0
S2463 S 0.65374 0.43966 0.87252 0.0
N2464 N 0.62856 0.42573 0.89046 0.0
N2465 N 0.66335 0.46506 0.88909 0.0
C2466 C 0.64593 0.46344 0.91065 0.0
C2467 C 0.62666 0.44162 0.91141 0.0
C2468 C 0.5848 0.45906 0.1511 0.0
C2469 C 0.58181 0.43943 0.17102 0.0
C2470 C 0.60521 0.47845 0.15058 0.0
C2471 C 0.62421 0.48013 0.17024 0.0
H2472 H 0.57111 0.45948 0.13536 0.0
H2473 H 0.60609 0.4923 0.13417 0.0
S2474 S 0.62509 0.43478 0.22834 0.0
N2475 N 0.59968 0.42384 0.21199 0.0
N2476 N 0.63754 0.46035 0.21138 0.0
C2477 C 0.621 0.46126 0.19104 0.0
C2478 C 0.60008 0.44113 0.1914 0.0
C2479 C 0.59239 0.62431 0.1473 0.0
C2480 C 0.58856 0.64343 0.16674 0.0
C2481 C 0.61204 0.60459 0.14842 0.0
C2482 C 0.62967 0.60199 0.1692 0.0
H2483 H 0.57995 0.62433 0.13055 0.0
H2484 H 0.61331 0.59109 0.13238 0.0
S2485 S 0.62775 0.6453 0.22695 0.0
N2486 N 0.60386 0.65731 0.20881 0.0
N2487 N 0.64074 0.62012 0.21102 0.0
C2488 C 0.62568 0.62026 0.18958 0.0
C2489 C 0.60532 0.6408 0.18836 0.0
C2490 C 0.42158 0.6169 0.18266 0.0
C2491 C 0.42614 0.59406 0.16766 0.0
C2492 C 0.44067 0.63817 0.18224 0.0
C2493 C 0.46555 0.63791 0.16681 0.0
H2494 H 0.40257 0.61889 0.19402 0.0
H2495 H 0.43535 0.65534 0.19331 0.0
S2496 S 0.48943 0.58161 0.12723 0.0
N2497 N 0.45919 0.5723 0.13907 0.0
N2498 N 0.49419 0.61093 0.13851 0.0
C2499 C 0.47066 0.61465 0.15294 0.0
C2500 C 0.45139 0.59331 0.15328 0.0
C2501 C 0.42212 0.45466 0.14238 0.0
C2502 C 0.41376 0.46854 0.1651 0.0
C2503 C 0.44236 0.43539 0.14242 0.0
C2504 C 0.45544 0.42812 0.16537 0.0
H2505 H 0.41299 0.45881 0.12402 0.0
H2506 H 0.44792 0.42615 0.12397 0.0
S2507 S 0.44012 0.45645 0.23124 0.0
N2508 N 0.41966 0.47229 0.21198 0.0
N2509 N 0.45716 0.4357 0.21229 0.0
C2510 C 0.4465 0.44082 0.18874 0.0
C2511 C 0.42588 0.46092 0.18858 0.0
C2512 C 0.87822 0.63157 0.6546 0.0
C2513 C 0.88687 0.60527 0.65477 0.0
C2514 C 0.88451 0.64922 0.6329 0.0
C2515 C 0.90097 0.64207 0.61049 0.0
H2516 H 0.86666 0.63875 0.67164 0.0
H2517 H 0.87732 0.66904 0.63425 0.0
S2518 S 0.92987 0.576 0.60086 0.0
N2519 N 0.91282 0.57333 0.62972 0.0
N2520 N 0.92584 0.60633 0.59039 0.0
C2521 C 0.9099 0.61591 0.61052 0.0
C2522 C 0.90262 0.59771 0.6321 0.0
C2523 C 0.42993 0.94782 0.61468 0.0
C2524 C 0.41917 0.92531 0.60413 0.0
C2525 C 0.44777 0.94645 0.635 0.0
C2526 C 0.4563 0.92253 0.64593 0.0
H2527 H 0.42464 0.96691 0.60715 0.0
H2528 H 0.45527 0.96467 0.64187 0.0
S2529 S 0.43358 0.85747 0.62604 0.0
N2530 N 0.41769 0.87795 0.6068 0.0
N2531 N 0.45181 0.87554 0.64484 0.0
C2532 C 0.44539 0.89971 0.63598 0.0
C2533 C 0.42681 0.90108 0.61518 0.0
C2534 C 0.14386 0.45096 0.61378 0.0
C2535 C 0.16455 0.43236 0.60889 0.0
C2536 C 0.14536 0.47099 0.63256 0.0
C2537 C 0.16768 0.4745 0.64848 0.0
H2538 H 0.12575 0.45013 0.60293 0.0
H2539 H 0.12818 0.48389 0.6347 0.0
S2540 S 0.22836 0.4318 0.64426 0.0
N2541 N 0.20902 0.41951 0.62216 0.0
N2542 N 0.21171 0.45669 0.65728 0.0
C2543 C 0.18891 0.45626 0.6438 0.0
C2544 C 0.1874 0.43559 0.6243 0.0
C2545 C 0.63383 0.15886 0.65656 0.0
C2546 C 0.608 0.14782 0.65391 0.0
C2547 C 0.65393 0.15927 0.63533 0.0
C2548 C 0.64897 0.14871 0.6106 0.0
H2549 H 0.63898 0.16606 0.67549 0.0
H2550 H 0.67385 0.1667 0.63872 0.0
S2551 S 0.58331 0.12215 0.59197 0.0
N2552 N 0.5779 0.12926 0.62334 0.0
N2553 N 0.61513 0.12992 0.58414 0.0
C2554 C 0.62277 0.13912 0.60743 0.0
C2555 C 0.60251 0.13872 0.62882 0.0
C2556 C 0.8979 0.42516 0.454 0.0
C2557 C 0.91429 0.42611 0.47586 0.0
C2558 C 0.89465 0.44729 0.43704 0.0
C2559 C 0.90729 0.47133 0.44157 0.0
H2560 H 0.88869 0.4069 0.44917 0.0
H2561 H 0.88352 0.44512 0.41951 0.0
S2562 S 0.94862 0.48523 0.49837 0.0
N2563 N 0.94059 0.45419 0.50243 0.0
N2564 N 0.93439 0.49504 0.47134 0.0
C2565 C 0.92208 0.47275 0.46439 0.0
C2566 C 0.92559 0.45044 0.48127 0.0
C2567 C 0.60212 0.95129 0.45384 0.0
C2568 C 0.59791 0.93014 0.43698 0.0
C2569 C 0.62253 0.95183 0.47249 0.0
C2570 C 0.64102 0.93129 0.47626 0.0
H2571 H 0.58923 0.96812 0.4528 0.0
H2572 H 0.62358 0.96887 0.48445 0.0
S2573 S 0.63946 0.86985 0.43871 0.0
N2574 N 0.61466 0.88698 0.42656 0.0
N2575 N 0.65263 0.88794 0.46125 0.0
C2576 C 0.63699 0.90948 0.46003 0.0
C2577 C 0.61586 0.90893 0.44073 0.0
C2578 C 0.14992 0.62211 0.48233 0.0
C2579 C 0.17486 0.62532 0.46795 0.0
C2580 C 0.14201 0.63882 0.50264 0.0
C2581 C 0.15888 0.65926 0.50951 0.0
H2582 H 0.13651 0.60632 0.478 0.0
H2583 H 0.12272 0.63537 0.51329 0.0
S2584 S 0.22578 0.67658 0.47686 0.0
N2585 N 0.21596 0.65081 0.46108 0.0
N2586 N 0.20134 0.68245 0.49941 0.0
C2587 C 0.1837 0.66304 0.49483 0.0
C2588 C 0.1916 0.64605 0.47394 0.0
C2589 C 0.49066 0.13007 0.4705 0.0
C2590 C 0.49769 0.15344 0.45634 0.0
C2591 C 0.46866 0.1282 0.48973 0.0
C2592 C 0.45162 0.14948 0.49644 0.0
H2593 H 0.50225 0.1126 0.4666 0.0
H2594 H 0.46491 0.10945 0.49934 0.0
S2595 S 0.46045 0.21566 0.4658 0.0
N2596 N 0.48511 0.19881 0.45105 0.0
N2597 N 0.44412 0.19531 0.48679 0.0
C2598 C 0.45842 0.17316 0.48266 0.0
C2599 C 0.48113 0.17512 0.46294 0.0
C2600 C 0.60912 0.9105 0.63885 0.0
C2601 C 0.58389 0.92121 0.63247 0.0
C2602 C 0.63246 0.91162 0.62085 0.0
C2603 C 0.63183 0.92347 0.59544 0.0
H2604 H 0.61123 0.90222 0.6584 0.0
H2605 H 0.6514 0.9041 0.62734 0.0
S2606 S 0.56987 0.94991 0.56699 0.0
N2607 N 0.55958 0.94145 0.59749 0.0
N2608 N 0.60238 0.94289 0.56405 0.0
C2609 C 0.60636 0.93286 0.58846 0.0
C2610 C 0.58283 0.93194 0.60674 0.0
C2611 C 0.61348 0.1386 0.4678 0.0
C2612 C 0.62008 0.15596 0.44648 0.0
C2613 C 0.6309 0.13415 0.48821 0.0
C2614 C 0.65552 0.14757 0.48891 0.0
H2615 H 0.59451 0.12813 0.46864 0.0
H2616 H 0.62495 0.12003 0.50363 0.0
S2617 S 0.68139 0.19745 0.43963 0.0
N2618 N 0.65243 0.18802 0.42832 0.0
N2619 N 0.68485 0.18063 0.46734 0.0
C2620 C 0.66176 0.16631 0.46865 0.0
C2621 C 0.6441 0.1704 0.44739 0.0
C2622 C 0.8966 0.61076 0.45247 0.0
C2623 C 0.91965 0.59551 0.44471 0.0
C2624 C 0.89722 0.63112 0.47176 0.0
C2625 C 0.92095 0.63787 0.48478 0.0
H2626 H 0.87772 0.60699 0.44357 0.0
H2627 H 0.87876 0.64164 0.47651 0.0
S2628 S 0.98731 0.60479 0.47183 0.0
N2629 N 0.96716 0.58979 0.45242 0.0
N2630 N 0.96831 0.62666 0.48712 0.0
C2631 C 0.94396 0.62275 0.47695 0.0
C2632 C 0.94333 0.60222 0.4576 0.0
C2633 C 0.45309 0.92946 0.48749 0.0
C2634 C 0.42837 0.91717 0.48338 0.0
C2635 C 0.47366 0.93238 0.4673 0.0
C2636 C 0.47086 0.92271 0.44188 0.0
H2637 H 0.45608 0.9378 0.50644 0.0
H2638 H 0.49177 0.94298 0.47148 0.0
S2639 S 0.41076 0.88722 0.42089 0.0
N2640 N 0.40271 0.89407 0.452 0.0
N2641 N 0.44159 0.89884 0.41419 0.0
C2642 C 0.44686 0.90891 0.43781 0.0
C2643 C 0.42562 0.90625 0.45847 0.0
C2644 C 0.16864 0.47072 0.46141 0.0
C2645 C 0.1844 0.46365 0.43853 0.0
C2646 C 0.16238 0.45287 0.48285 0.0
C2647 C 0.17221 0.42699 0.48327 0.0
H2648 H 0.15995 0.49001 0.4623 0.0
H2649 H 0.14952 0.45946 0.49931 0.0
S2650 S 0.2145 0.39818 0.42862 0.0
N2651 N 0.20918 0.4282 0.41785 0.0
N2652 N 0.19899 0.39562 0.45825 0.0
C2653 C 0.18856 0.41987 0.46082 0.0
C2654 C 0.19414 0.43779 0.43858 0.0
C2655 C 0.46954 0.1505 0.61323 0.0
C2656 C 0.44147 0.14835 0.62019 0.0
C2657 C 0.48957 0.15194 0.63241 0.0
C2658 C 0.48303 0.15144 0.65999 0.0
H2659 H 0.4763 0.15019 0.59259 0.0
H2660 H 0.51064 0.15243 0.62547 0.0
S2661 S 0.41303 0.14274 0.68943 0.0
N2662 N 0.40879 0.14405 0.6574 0.0
N2663 N 0.44578 0.14635 0.69278 0.0
C2664 C 0.45505 0.14902 0.66721 0.0
C2665 C 0.43463 0.14768 0.64767 0.0
C2666 C 0.88897 0.40676 0.60938 0.0
C2667 C 0.90695 0.41594 0.5888 0.0
C2668 C 0.87915 0.42336 0.62923 0.0
C2669 C 0.88629 0.44983 0.62858 0.0
H2670 H 0.88308 0.38644 0.61055 0.0
H2671 H 0.86616 0.41544 0.64534 0.0
S2672 S 0.93109 0.48378 0.57783 0.0
N2673 N 0.93071 0.45325 0.5684 0.0
N2674 N 0.91152 0.48469 0.60523 0.0
C2675 C 0.90351 0.45941 0.60762 0.0
C2676 C 0.91406 0.44239 0.58783 0.0
C2677 C 0.18174 0.61269 0.6435 0.0
C2678 C 0.16099 0.60436 0.66211 0.0
C2679 C 0.17891 0.63554 0.62735 0.0
C2680 C 0.15524 0.65098 0.62913 0.0
H2681 H 0.19971 0.60094 0.64056 0.0
H2682 H 0.19482 0.64042 0.61255 0.0
S2683 S 0.09708 0.64025 0.67754 0.0
N2684 N 0.11744 0.61568 0.68318 0.0
N2685 N 0.11229 0.65754 0.65325 0.0
C2686 C 0.13525 0.64355 0.64865 0.0
C2687 C 0.1381 0.62065 0.66496 0.0
C2688 C 0.07821 0.27573 0.49628 0.0
C2689 C 0.09203 0.26302 0.47502 0.0
C2690 C 0.08835 0.29869 0.50758 0.0
C2691 C 0.11348 0.31013 0.49903 0.0
H2692 H 0.05891 0.2681 0.50407 0.0
H2693 H 0.07653 0.30725 0.52374 0.0
S2694 S 0.15856 0.28468 0.44453 0.0
N2695 N 0.13255 0.26442 0.44584 0.0
N2696 N 0.15214 0.30604 0.46787 0.0
C2697 C 0.12778 0.29738 0.47811 0.0
C2698 C 0.11698 0.27447 0.46595 0.0
C2699 C 0.77408 0.08148 0.47655 0.0
C2700 C 0.77449 0.10372 0.49241 0.0
C2701 C 0.797 0.07374 0.46045 0.0
C2702 C 0.82185 0.08739 0.45978 0.0
H2703 H 0.75593 0.0697 0.47676 0.0
H2704 H 0.7956 0.05612 0.44936 0.0
S2705 S 0.83433 0.14687 0.49731 0.0
N2706 N 0.80242 0.13964 0.50549 0.0
N2707 N 0.84518 0.12436 0.47661 0.0
C2708 C 0.82252 0.10966 0.47538 0.0
C2709 C 0.79905 0.11799 0.49119 0.0
C2710 C 1.00032 0.78355 0.4656 0.0
C2711 C 0.98992 0.80862 0.47108 0.0
C2712 C 0.98898 0.76055 0.47798 0.0
C2713 C 0.96601 0.76122 0.49583 0.0
H2714 H 0.01822 0.78175 0.45252 0.0
H2715 H 0.99845 0.74206 0.47364 0.0
S2716 S 0.93071 0.82168 0.51701 0.0
N2717 N 0.95532 0.83231 0.49619 0.0
N2718 N 0.93341 0.78966 0.51809 0.0
C2719 C 0.95505 0.78613 0.5009 0.0
C2720 C 0.9671 0.80953 0.48898 0.0
C2721 C 0.25717 0.9652 0.49336 0.0
C2722 C 0.26053 0.97755 0.46833 0.0
C2723 C 0.27782 0.95013 0.5036 0.0
C2724 C 0.30268 0.94708 0.48933 0.0
H2725 H 0.239 0.96832 0.50577 0.0
H2726 H 0.27516 0.9427 0.52372 0.0
S2727 S 0.32084 0.97244 0.42187 0.0
N2728 N 0.2898 0.98307 0.42839 0.0
N2729 N 0.32889 0.95552 0.44829 0.0
C2730 C 0.30572 0.95775 0.4637 0.0
C2731 C 0.28453 0.97272 0.45299 0.0
C2732 C 0.08783 0.81513 0.6087 0.0
C2733 C 0.07471 0.8164 0.63393 0.0
C2734 C 0.1021 0.79273 0.60077 0.0
C2735 C 0.1033 0.7706 0.61754 0.0
H2736 H 0.08667 0.83134 0.59483 0.0
H2737 H 0.11127 0.79228 0.5809 0.0
S2738 S 0.07279 0.76359 0.68546 0.0
N2739 N 0.06468 0.79333 0.67594 0.0
N2740 N 0.0906 0.75123 0.6603 0.0
C2741 C 0.09065 0.7716 0.64279 0.0
C2742 C 0.07665 0.79453 0.65118 0.0
C2743 C 0.26419 0.10065 0.60667 0.0
C2744 C 0.26151 0.08117 0.62678 0.0
C2745 C 0.28986 0.11039 0.5968 0.0
C2746 C 0.31456 0.10053 0.6056 0.0
H2747 H 0.24621 0.10843 0.59831 0.0
H2748 H 0.29034 0.12521 0.58128 0.0
S2749 S 0.31949 0.04888 0.65739 0.0
N2750 N 0.28659 0.05271 0.65528 0.0
N2751 N 0.33414 0.06964 0.63572 0.0
C2752 C 0.3122 0.08093 0.62553 0.0
C2753 C 0.28605 0.0717 0.63631 0.0
C2754 C 0.96012 0.26022 0.60362 0.0
C2755 C 0.97989 0.26336 0.62228 0.0
C2756 C 0.95147 0.28122 0.58758 0.0
C2757 C 0.96288 0.30639 0.58845 0.0
H2758 H 0.95171 0.24108 0.60088 0.0
H2759 H 0.93648 0.27734 0.57348 0.0
S2760 S 1.01579 0.32525 0.63339 0.0
N2761 N 1.01036 0.29412 0.64067 0.0
N2762 N 0.99515 0.333 0.61008 0.0
C2763 C 0.98256 0.30985 0.60714 0.0
C2764 C 0.99076 0.28861 0.62406 0.0
C2765 C 0.77837 0.99633 0.6316 0.0
C2766 C 0.80438 0.9849 0.63216 0.0
C2767 C 0.75774 0.98688 0.61553 0.0
C2768 C 0.76119 0.96471 0.59942 0.0
H2769 H 0.77417 1.01358 0.64291 0.0
H2770 H 0.7388 0.99733 0.61561 0.0
S2771 S 0.82493 0.92648 0.59407 0.0
N2772 N 0.83191 0.94969 0.6146 0.0
N2773 N 0.79342 0.93131 0.5862 0.0
C2774 C 0.78685 0.95261 0.60046 0.0
C2775 C 0.80815 0.96278 0.61615 0.0
C2776 C 0.45887 0.11264 0.32647 0.0
C2777 C 0.44775 0.13525 0.31547 0.0
C2778 C 0.48174 0.11381 0.34092 0.0
C2779 C 0.4945 0.13766 0.34461 0.0
H2780 H 0.45043 0.09372 0.32293 0.0
H2781 H 0.48966 0.09582 0.34884 0.0
S2782 S 0.47294 0.20256 0.31959 0.0
N2783 N 0.45056 0.18199 0.3091 0.0
N2784 N 0.4941 0.18471 0.33616 0.0
C2785 C 0.4834 0.16058 0.3338 0.0
C2786 C 0.45991 0.15925 0.31917 0.0
C2787 C 0.97889 0.44557 0.29306 0.0
C2788 C 0.96577 0.44878 0.26909 0.0
C2789 C 0.97098 0.45957 0.3164 0.0
C2790 C 0.94897 0.4773 0.31766 0.0
H2791 H 0.99635 0.43298 0.2935 0.0
H2792 H 0.98257 0.45665 0.33363 0.0
S2793 S 0.90736 0.49303 0.26077 0.0
N2794 N 0.92944 0.47176 0.24871 0.0
N2795 N 0.91419 0.49666 0.29189 0.0
C2796 C 0.93532 0.48013 0.294 0.0
C2797 C 0.94378 0.46642 0.27014 0.0
C2798 C 0.59311 1.011 0.2844 0.0
C2799 C 0.61225 0.99617 0.26971 0.0
C2800 C 0.58049 1.00147 0.30818 0.0
C2801 C 0.58585 0.97633 0.31811 0.0
H2802 H 0.58795 0.03037 0.27752 0.0
H2803 H 0.56573 1.01368 0.31843 0.0
S2804 S 0.63471 0.9297 0.28745 0.0
N2805 N 0.63675 0.95543 0.26732 0.0
N2806 N 0.61208 0.93686 0.31135 0.0
C2807 C 0.60507 0.96127 0.30367 0.0
C2808 C 0.61855 0.97136 0.27972 0.0
C2809 C 0.11 0.57585 0.27572 0.0
C2810 C 0.10452 0.60292 0.2768 0.0
C2811 C 0.12467 0.56219 0.29489 0.0
C2812 C 0.13524 0.5744 0.31681 0.0
H2813 H 0.10256 0.56469 0.25984 0.0
H2814 H 0.12753 0.54149 0.29247 0.0
S2815 S 0.12714 0.64503 0.32995 0.0
N2816 N 0.11138 0.64138 0.30248 0.0
N2817 N 0.13883 0.61603 0.33808 0.0
C2818 C 0.13024 0.60157 0.31818 0.0
C2819 C 0.11508 0.6156 0.2985 0.0
C2820 C 0.475 0.97001 0.81533 0.0
C2821 C 0.45061 0.98451 0.81641 0.0
C2822 C 0.48548 0.95778 0.79193 0.0
C2823 C 0.47261 0.95966 0.76781 0.0
H2824 H 0.48651 0.96841 0.83276 0.0
H2825 H 0.50458 0.94765 0.79248 0.0
S2826 S 0.40835 0.99506 0.75896 0.0
N2827 N 0.41372 0.99914 0.79039 0.0
N2828 N 0.43385 0.97751 0.74684 0.0
C2829 C 0.44823 0.97396 0.76856 0.0
C2830 C 0.43716 0.98586 0.79255 0.0
C2831 C 0.10608 0.48802 0.81856 0.0
C2832 C 0.08617 0.46864 0.81658 0.0
C2833 C 0.12439 0.49463 0.79707 0.0
C2834 C 0.1232 0.48251 0.77254 0.0
H2835 H 0.10722 0.49851 0.8367 0.0
H2836 H 0.13836 0.51058 0.79916 0.0
S2837 S 0.07518 0.43045 0.75692 0.0
N2838 N 0.06718 0.43685 0.78809 0.0
N2839 N 0.10069 0.44997 0.74779 0.0
C2840 C 0.10385 0.46272 0.77055 0.0
C2841 C 0.08562 0.45561 0.79249 0.0
C2842 C 0.62365 0.05754 0.79327 0.0
C2843 C 0.63135 0.07026 0.81613 0.0
C2844 C 0.6092 0.07026 0.77324 0.0
C2845 C 0.60148 0.09679 0.77437 0.0
H2846 H 0.62864 0.03722 0.79079 0.0
H2847 H 0.60379 0.05887 0.75667 0.0
S2848 S 0.6168 0.13992 0.82946 0.0
N2849 N 0.63007 0.11176 0.8381 0.0
N2850 N 0.60346 0.13538 0.80088 0.0
C2851 C 0.60944 0.10997 0.79689 0.0
C2852 C 0.62411 0.09692 0.81745 0.0
C2853 C 0.9866 0.65342 0.83844 0.0
C2854 C 0.99768 0.63075 0.84965 0.0
C2855 C 0.96773 0.65183 0.81916 0.0
C2856 C 0.95951 0.62755 0.81073 0.0
H2857 H 0.99268 0.67255 0.84442 0.0
H2858 H 0.95956 0.66952 0.81084 0.0
S2859 S 0.98282 0.56267 0.83281 0.0
N2860 N 0.99914 0.58343 0.8504 0.0
N2861 N 0.96384 0.58055 0.81392 0.0
C2862 C 0.97035 0.60482 0.82161 0.0
C2863 C 0.98937 0.60638 0.84124 0.0
C2864 C 0.27248 0.46072 0.09058 0.0
C2865 C 0.24614 0.4716 0.0924 0.0
C2866 C 0.29453 0.47095 0.10417 0.0
C2867 C 0.29169 0.49213 0.12151 0.0
H2868 H 0.2765 0.44462 0.07757 0.0
H2869 H 0.31426 0.46226 0.10074 0.0
S2870 S 0.22738 0.52808 0.13421 0.0
N2871 N 0.21921 0.50563 0.11329 0.0
N2872 N 0.25964 0.52358 0.13945 0.0
C2873 C 0.26536 0.50283 0.12409 0.0
C2874 C 0.24306 0.49298 0.10953 0.0
C2875 C 0.31084 0.62437 1.01075 0.0
C2876 C 0.28494 0.6242 1.00071 0.0
C2877 C 0.3327 0.61074 0.99839 0.0
C2878 C 0.3298 0.59659 0.97519 0.0
H2879 H 0.31386 0.63379 0.0292 0.0
H2880 H 0.35184 0.61058 1.00764 0.0
S2881 S 0.26622 0.59089 0.94043 0.0
N2882 N 0.25779 0.60908 0.96598 0.0
N2883 N 0.29868 0.5844 0.94228 0.0
C2884 C 0.30422 0.59735 0.96434 0.0
C2885 C 0.28189 0.61079 0.97724 0.0
C2886 C 0.48801 0.27413 1.01175 0.0
C2887 C 0.46633 0.26234 0.99951 0.0
C2888 C 0.49948 0.29829 1.00269 0.0
C2889 C 0.4907 0.3118 0.98022 0.0
H2890 H 0.49587 0.26488 0.02907 0.0
H2891 H 0.51593 0.30619 1.01317 0.0
S2892 S 0.43478 0.28974 0.94044 0.0
N2893 N 0.43615 0.26692 0.96378 0.0
N2894 N 0.45882 0.31098 0.94577 0.0
C2895 C 0.46933 0.30008 0.96747 0.0
C2896 C 0.45689 0.27589 0.97735 0.0
C2897 C 0.7881 0.47442 1.01122 0.0
C2898 C 0.81352 0.47456 0.99753 0.0
C2899 C 0.76507 0.48337 0.99928 0.0
C2900 C 0.76635 0.49239 0.97287 0.0
H2901 H 0.78603 0.46752 0.03155 0.0
H2902 H 0.74619 0.48374 1.01113 0.0
S2903 S 0.82776 0.49262 0.9272 0.0
N2904 N 0.83853 0.48175 0.95557 0.0
N2905 N 0.79513 0.49835 0.93258 0.0
C2906 C 0.79155 0.49118 0.95843 0.0
C2907 C 0.81518 0.48235 0.97089 0.0
C2908 C 0.62224 0.79116 1.00284 0.0
C2909 C 0.61807 0.81703 0.99374 0.0
C2910 C 0.61045 0.76919 0.9912 0.0
C2911 C 0.5945 0.77143 0.96902 0.0
H2912 H 0.6339 0.78783 1.01996 0.0
H2913 H 0.61373 0.75014 0.99994 0.0
S2914 S 0.57771 0.83443 0.93653 0.0
N2915 N 0.59641 0.84316 0.96073 0.0
N2916 N 0.57573 0.80233 0.93828 0.0
C2917 C 0.59081 0.79711 0.9592 0.0
C2918 C 0.6021 0.8196 0.97162 0.0
C2919 C 0.79057 0.60164 0.08942 0.0
C2920 C 0.81096 0.60916 0.10597 0.0
C2921 C 0.76533 0.59157 0.09957 0.0
C2922 C 0.75896 0.58806 0.12696 0.0
H2923 H 0.79434 0.60314 0.06823 0.0
H2924 H 0.75092 0.58577 0.08559 0.0
S2925 S 0.80529 0.60505 0.17906 0.0
N2926 N 0.82282 0.61281 0.15132 0.0
N2927 N 0.77592 0.59372 0.17045 0.0
C2928 C 0.77916 0.5959 0.14378 0.0
C2929 C 0.80489 0.60638 0.13334 0.0
C2930 C 0.44591 0.79787 0.10869 0.0
C2931 C 0.44975 0.79993 0.08092 0.0
C2932 C 0.45774 0.77736 0.12342 0.0
C2933 C 0.47361 0.75782 0.11096 0.0
H2934 H 0.43437 0.81263 0.11918 0.0
H2935 H 0.45467 0.77698 0.14469 0.0
S2936 S 0.48997 0.75503 0.0384 0.0
N2937 N 0.47089 0.78109 0.04182 0.0
N2938 N 0.49236 0.74284 0.06845 0.0
C2939 C 0.47714 0.75983 0.08304 0.0
C2940 C 0.46549 0.78074 0.06837 0.0
C2941 C 0.60846 0.27941 0.14861 0.0
C2942 C 0.6268 0.28122 0.12644 0.0
C2943 C 0.59157 0.30033 0.15583 0.0
C2944 C 0.59171 0.32359 0.14063 0.0
H2945 H 0.60586 0.26108 0.15941 0.0
H2946 H 0.5769 0.29746 0.17229 0.0
S2947 S 0.63845 0.33941 0.08277 0.0
N2948 N 0.64624 0.30924 0.09113 0.0
N2949 N 0.61407 0.34824 0.10422 0.0
C2950 C 0.61134 0.32631 0.11958 0.0
C2951 C 0.62901 0.30522 0.11263 0.0
C2952 C 0.98121 0.78036 0.63786 0.0
C2953 C 0.96939 0.80542 0.63604 0.0
C2954 C 0.97287 0.75889 0.62263 0.0
C2955 C 0.95167 0.76074 0.60497 0.0
H2956 H 0.99808 0.77757 0.65022 0.0
H2957 H 0.98351 0.74063 0.62451 0.0
S2958 S 0.91349 0.82167 0.59272 0.0
N2959 N 0.93515 0.83028 0.61445 0.0
N2960 N 0.91898 0.79052 0.58735 0.0
C2961 C 0.93924 0.78551 0.60358 0.0
C2962 C 0.94818 0.80747 0.61853 0.0
C2963 C 0.27348 0.99869 0.61319 0.0
C2964 C 0.25222 0.983 0.62412 0.0
C2965 C 0.29633 0.98803 0.59973 0.0
C2966 C 0.29912 0.96098 0.596 0.0
H2967 H 0.27206 1.01965 0.61436 0.0
H2968 H 0.31163 1.00142 0.59147 0.0
S2969 S 0.24905 0.91109 0.6211 0.0
N2970 N 0.23544 0.93888 0.63076 0.0
N2971 N 0.2782 0.91864 0.60529 0.0
C2972 C 0.27815 0.94491 0.60736 0.0
C2973 C 0.25479 0.95592 0.62132 0.0
C2974 C 0.08196 0.28699 0.63493 0.0
C2975 C 0.08492 0.26253 0.62272 0.0
C2976 C 0.0943 0.31014 0.62386 0.0
C2977 C 0.11124 0.30998 0.60052 0.0
H2978 H 0.06909 0.28851 0.65278 0.0
H2979 H 0.09047 0.32834 0.63369 0.0
S2980 S 0.12589 0.25162 0.56034 0.0
N2981 N 0.10595 0.24034 0.58521 0.0
N2982 N 0.12993 0.28294 0.56549 0.0
C2983 C 0.11482 0.28563 0.58844 0.0
C2984 C 0.10158 0.26228 0.59919 0.0
C2985 C 0.81865 0.10262 0.60974 0.0
C2986 C 0.81337 0.08626 0.63208 0.0
C2987 C 0.79746 0.11404 0.59619 0.0
C2988 C 0.7702 0.10877 0.60392 0.0
H2989 H 0.8393 0.10615 0.60234 0.0
H2990 H 0.80245 0.12592 0.57869 0.0
S2991 S 0.74538 0.0676 0.66108 0.0
N2992 N 0.77861 0.06629 0.66177 0.0
N2993 N 0.73911 0.08662 0.63555 0.0
C2994 C 0.76466 0.09286 0.6264 0.0
C2995 C 0.78614 0.08193 0.64068 0.0
C2996 C 1.00073 0.2851 0.44841 0.0
C2997 C 0.99037 0.26019 0.45566 0.0
C2998 C 0.98977 0.30778 0.45985 0.0
C2999 C 0.96754 0.30645 0.47835 0.0
H3000 H 0.01846 0.28698 0.435 0.0
H3001 H 0.99909 0.3264 0.45458 0.0
S3002 S 0.93239 0.24604 0.50323 0.0
N3003 N 0.95639 0.23573 0.48215 0.0
N3004 N 0.93519 0.27804 0.50284 0.0
C3005 C 0.95631 0.28172 0.48483 0.0
C3006 C 0.96786 0.25869 0.47371 0.0
C3007 C 0.79656 0.99616 0.45422 0.0
C3008 C 0.82194 0.99059 0.46448 0.0
C3009 C 0.7718 0.98693 0.46669 0.0
C3010 C 0.77107 0.97067 0.48952 0.0
H3011 H 0.79569 1.00868 0.43687 0.0
H3012 H 0.75303 0.99263 0.45837 0.0
S3013 S 0.83152 0.94942 0.52417 0.0
N3014 N 0.84426 0.96764 0.49927 0.0
N3015 N 0.79846 0.94918 0.52153 0.0
C3016 C 0.79632 0.9643 0.49949 0.0
C3017 C 0.82142 0.97448 0.48736 0.0
C3018 C 0.07077 0.79682 0.49831 0.0
C3019 C 0.08923 0.81232 0.48257 0.0
C3020 C 0.07913 0.77506 0.51325 0.0
C3021 C 0.10656 0.7679 0.5138 0.0
H3022 H 0.04951 0.80177 0.49934 0.0
H3023 H 0.06392 0.76427 0.52516 0.0
S3024 S 0.16323 0.80181 0.47581 0.0
N3025 N 0.13625 0.81849 0.46798 0.0
N3026 N 0.15222 0.77829 0.49643 0.0
C3027 C 0.12527 0.78313 0.49788 0.0
C3028 C 0.11659 0.80507 0.48222 0.0
C3029 C 0.29739 0.11739 0.5037 0.0
C3030 C 0.32332 0.10569 0.50153 0.0
C3031 C 0.2745 0.10698 0.49157 0.0
C3032 C 0.27616 0.08474 0.47556 0.0
H3033 H 0.2944 0.13427 0.51587 0.0
H3034 H 0.25514 0.1164 0.49499 0.0
S3035 S 0.33884 0.04623 0.46308 0.0
N3036 N 0.34851 0.06976 0.48208 0.0
N3037 N 0.30652 0.05137 0.45861 0.0
C3038 C 0.30205 0.07321 0.47271 0.0
C3039 C 0.32516 0.08329 0.48575 0.0
C3040 C 0.62319 0.93219 0.76182 0.0
C3041 C 0.62133 0.95056 0.78168 0.0
C3042 C 0.60504 0.93294 0.74181 0.0
C3043 C 0.58523 0.95248 0.74091 0.0
H3044 H 0.63841 0.91711 0.762 0.0
H3045 H 0.6061 0.91786 0.72723 0.0
S3046 S 0.57293 1.00519 0.78836 0.0
N3047 N 0.59878 0.98888 0.79941 0.0
N3048 N 0.56494 0.99053 0.76129 0.0
C3049 C 0.58381 0.97138 0.76025 0.0
C3050 C 0.60184 0.97031 0.78085 0.0
C3051 C 0.13168 0.60912 0.81874 0.0
C3052 C 0.10426 0.60857 0.82833 0.0
C3053 C 0.14079 0.59664 0.79486 0.0
C3054 C 0.12302 0.58312 0.77888 0.0
H3055 H 0.14642 0.61871 0.8301 0.0
H3056 H 0.16214 0.5974 0.78903 0.0
S3057 S 0.04899 0.57634 0.79475 0.0
N3058 N 0.05954 0.5933 0.81939 0.0
N3059 N 0.07604 0.57082 0.77522 0.0
C3060 C 0.09549 0.58297 0.7882 0.0
C3061 C 0.08637 0.59531 0.81254 0.0
C3062 C 0.47926 0.10683 0.82631 0.0
C3063 C 0.45844 0.08849 0.82415 0.0
C3064 C 0.4932 0.11774 0.80377 0.0
C3065 C 0.4875 0.10999 0.77827 0.0
H3066 H 0.4854 0.11214 0.84558 0.0
H3067 H 0.50968 0.13112 0.80642 0.0
S3068 S 0.43428 0.06337 0.76179 0.0
N3069 N 0.4319 0.06413 0.79432 0.0
N3070 N 0.45886 0.08377 0.75216 0.0
C3071 C 0.4662 0.0923 0.77582 0.0
C3072 C 0.45147 0.08179 0.7987 0.0
C3073 C 0.95365 0.49991 0.82605 0.0
C3074 C 0.96448 0.47474 0.8218 0.0
C3075 C 0.93661 0.5127 0.80822 0.0
C3076 C 0.92865 0.50123 0.78481 0.0
H3077 H 0.95864 0.5102 0.84345 0.0
H3078 H 0.92981 0.53216 0.81284 0.0
S3079 S 0.95046 0.43528 0.76363 0.0
N3080 N 0.96515 0.4387 0.79173 0.0
N3081 N 0.93318 0.46225 0.75878 0.0
C3082 C 0.93862 0.47568 0.78054 0.0
C3083 C 0.95632 0.46267 0.79872 0.0
C3084 C 0.60711 0.11674 0.26986 0.0
C3085 C 0.62838 0.09827 0.27014 0.0
C3086 C 0.59814 0.13085 0.29272 0.0
C3087 C 0.60962 0.12712 0.31741 0.0
H3088 H 0.59675 0.11993 0.2519 0.0
H3089 H 0.58098 0.1437 0.29135 0.0
S3090 S 0.66563 0.08124 0.32965 0.0
N3091 N 0.66081 0.07785 0.29804 0.0
N3092 N 0.64361 0.10323 0.34027 0.0
C3093 C 0.63107 0.10904 0.31782 0.0
C3094 C 0.64052 0.09508 0.29456 0.0
C3095 C 0.96987 0.58861 0.27556 0.0
C3096 C 0.99121 0.60635 0.2781 0.0
C3097 C 0.95517 0.57802 0.29791 0.0
C3098 C 0.96185 0.58414 0.32364 0.0
H3099 H 0.96487 0.58246 0.25619 0.0
H3100 H 0.93955 0.56377 0.29505 0.0
S3101 S 1.01583 0.62955 0.34106 0.0
N3102 N 1.01758 0.63013 0.3085 0.0
N3103 N 0.99092 0.60933 0.35025 0.0
C3104 C 0.98278 0.60216 0.32639 0.0
C3105 C 0.99718 0.61351 0.3037 0.0
C3106 C 0.44926 0.9833 0.2836 0.0
C3107 C 0.43606 1.00755 0.28792 0.0
C3108 C 0.4659 0.97098 0.30259 0.0
C3109 C 0.4706 0.98194 0.32741 0.0
H3110 H 0.44726 0.97388 0.26498 0.0
H3111 H 0.47566 0.95284 0.29743 0.0
S3112 S 0.43892 0.04371 0.35044 0.0
N3113 N 0.42803 0.04081 0.32056 0.0
N3114 N 0.45839 1.01827 0.35531 0.0
C3115 C 0.45685 1.00576 0.3322 0.0
C3116 C 0.44003 1.01826 0.31294 0.0
C3117 C 0.09722 0.43428 0.23809 0.0
C3118 C 0.07316 0.44869 0.2383 0.0
C3119 C 0.11443 0.43594 0.25873 0.0
C3120 C 0.10753 0.45147 0.28035 0.0
H3121 H 0.10223 0.42098 0.22232 0.0
H3122 H 0.13294 0.42474 0.25805 0.0
S3123 S 0.0473 0.49356 0.28969 0.0
N3124 N 0.04368 0.47951 0.26119 0.0
N3125 N 0.07608 0.48255 0.30034 0.0
C3126 C 0.08391 0.46648 0.28047 0.0
C3127 C 0.06667 0.46516 0.25924 0.0
C3128 C 0.79597 0.62013 1.00612 0.0
C3129 C 0.82215 0.60927 1.00213 0.0
C3130 C 0.77306 0.61073 0.99326 0.0
C3131 C 0.77492 0.59057 0.97467 0.0
H3132 H 0.79281 0.63542 1.02026 0.0
H3133 H 0.75351 0.61924 0.99823 0.0
S3134 S 0.83844 0.55521 0.95656 0.0
N3135 N 0.84789 0.5765 0.97808 0.0
N3136 N 0.80585 0.56007 0.95331 0.0
C3137 C 0.80108 0.57999 0.97 0.0
C3138 C 0.82422 0.58895 0.98376 0.0
C3139 C 0.78469 0.45262 0.11975 0.0
C3140 C 0.79941 0.46498 0.09829 0.0
C3141 C 0.76136 0.46433 0.13214 0.0
C3142 C 0.75131 0.48834 0.12283 0.0
H3143 H 0.79149 0.43405 0.1273 0.0
H3144 H 0.75089 0.45433 0.14872 0.0
S3145 S 0.78193 0.52829 0.06694 0.0
N3146 N 0.80196 0.50281 0.06871 0.0
N3147 N 0.75812 0.52372 0.09066 0.0
C3148 C 0.76573 0.50051 0.10121 0.0
C3149 C 0.78968 0.48915 0.0893 0.0
C3150 C 0.60871 0.80336 0.11922 0.0
C3151 C 0.60307 0.81444 0.09436 0.0
C3152 C 0.59612 0.77981 0.12927 0.0
C3153 C 0.5782 0.76527 0.11449 0.0
H3154 H 0.62272 0.81317 0.13124 0.0
H3155 H 0.60078 0.77275 0.14871 0.0
S3156 S 0.55745 0.78491 0.0477 0.0
N3157 N 0.57812 0.80844 0.0553 0.0
N3158 N 0.55604 0.76429 0.07314 0.0
C3159 C 0.57295 0.77595 0.08938 0.0
C3160 C 0.58492 0.8003 0.07965 0.0
C3161 C 0.30475 0.63686 0.09898 0.0
C3162 C 0.2783 0.6388 0.11019 0.0
C3163 C 0.32295 0.61881 0.10901 0.0
C3164 C 0.31534 0.60236 0.13076 0.0
H3165 H 0.31039 0.6471 0.0806 0.0
H3166 H 0.34248 0.61656 0.09861 0.0
S3167 S 0.24936 0.60267 0.16913 0.0
N3168 N 0.24626 0.62498 0.14563 0.0
N3169 N 0.28047 0.59149 0.16495 0.0
C3170 C 0.28988 0.60616 0.14377 0.0
C3171 C 0.27138 0.62437 0.1334 0.0
C3172 C 0.46001 0.28615 0.08564 0.0
C3173 C 0.45389 0.26281 0.10008 0.0
C3174 C 0.47167 0.30828 0.09717 0.0
C3175 C 0.47768 0.30897 0.12416 0.0
H3176 H 0.45639 0.28716 0.06484 0.0
H3177 H 0.47626 0.32509 0.08446 0.0
S3178 S 0.46386 0.25364 0.17164 0.0
N3179 N 0.45407 0.24235 0.14352 0.0
N3180 N 0.475 0.28357 0.16516 0.0
C3181 C 0.47095 0.28591 0.13903 0.0
C3182 C 0.45945 0.26312 0.1271 0.0
C3183 C 0.28651 0.46282 0.99972 0.0
C3184 C 0.26215 0.47011 0.98827 0.0
C3185 C 0.31207 0.47384 0.99112 0.0
C3186 C 0.31498 0.49212 0.96987 0.0
H3187 H 0.28571 0.44916 1.01629 0.0
H3188 H 0.32974 0.46798 1.00129 0.0
S3189 S 0.25789 0.51759 0.9325 0.0
N3190 N 0.24309 0.49725 0.9545 0.0
N3191 N 0.2905 0.51661 0.93751 0.0
C3192 C 0.29083 0.49903 0.95785 0.0
C3193 C 0.26475 0.48848 0.96721 0.0
C3194 C 0.58533 0.27236 1.00895 0.0
C3195 C 0.60998 0.27401 1.02148 0.0
C3196 C 0.57715 0.29197 0.991 0.0
C3197 C 0.59292 0.31447 0.98496 0.0
H3198 H 0.57205 0.25586 1.01321 0.0
H3199 H 0.55766 0.29004 0.98265 0.0
S3200 S 0.65911 0.32874 1.01191 0.0
N3201 N 0.65044 0.30021 0.02547 0.0
N3202 N 0.63431 0.33717 0.99315 0.0
C3203 C 0.61758 0.31633 0.99715 0.0
C3204 C 0.62629 0.29613 1.01489 0.0
C3205 C 0.44849 0.7818 0.98261 0.0
C3206 C 0.45491 0.80721 0.97335 0.0
C3207 C 0.46338 0.76025 0.97343 0.0
C3208 C 0.4846 0.76318 0.95396 0.0
H3209 H 0.43329 0.77873 0.99858 0.0
H3210 H 0.459 0.74129 0.98245 0.0
S3211 S 0.50659 0.82515 0.9204 0.0
N3212 N 0.4823 0.83381 0.94205 0.0
N3213 N 0.50926 0.79323 0.92368 0.0
C3214 C 0.48963 0.78821 0.94291 0.0
C3215 C 0.47506 0.81025 0.9529 0.0
loop_
_geom_bond_atom_site_label_1
_geom_bond_atom_site_label_2
_geom_bond_distance
_geom_bond_site_symmetry_2
_ccdc_geom_bond_type
C0 O16 1.251 . S
C0 O18 1.254 . S
N1 C2 1.333 . S
N1 C6 1.307 . S
N1 Zn7 2.020 . S
C2 N1 1.333 . S
C2 C3 1.379 . S
C2 H20 0.952 . S
C3 C2 1.379 . S
C3 C4 1.390 . S
C3 H30 0.949 . S
C4 C3 1.390 . S
C4 C5 1.357 . S
C5 C4 1.357 . S
C5 C6 1.370 . S
C5 H31 0.950 1_455 S
C6 N1 1.307 . S
C6 C5 1.370 . S
C6 H24 0.948 1_455 S
Zn7 N1 2.020 . S
Zn7 O16 2.039 . S
Zn7 O22 2.034 . S
Zn7 O26 2.025 1_455 S
Zn7 O28 2.024 1_455 S
C8 O27 1.246 . S
C8 O28 1.249 . S
N9 C10 1.307 . S
N9 C11 1.333 . S
N9 Zn15 2.020 . S
C10 N9 1.307 . S
C10 C14 1.370 . S
C10 H21 0.948 . S
C11 N9 1.333 . S
C11 C12 1.379 1_455 S
C11 H19 0.952 1_455 S
C12 C11 1.379 1_655 S
C12 C13 1.390 1_655 S
C12 H32 0.949 . S
C13 C12 1.390 1_455 S
C13 C14 1.357 . S
C14 C10 1.370 . S
C14 C13 1.357 . S
C14 H33 0.950 . S
Zn15 N9 2.020 . S
Zn15 O18 2.025 . S
Zn15 O23 2.024 . S
Zn15 O25 2.039 1_455 S
Zn15 O27 2.034 1_455 S
O16 C0 1.251 . S
O16 Zn7 2.039 . S
C17 O22 1.246 . S
C17 O23 1.249 . S
O18 C0 1.254 . S
O18 Zn15 2.025 . S
H19 C11 0.952 1_655 S
H20 C2 0.952 . S
H21 C10 0.948 . S
O22 Zn7 2.034 . S
O22 C17 1.246 . S
O23 Zn15 2.024 . S
O23 C17 1.249 . S
H24 C6 0.948 1_655 S
O25 Zn15 2.039 1_655 S
O25 C29 1.251 . S
O26 Zn7 2.025 1_655 S
O26 C29 1.254 . S
O27 C8 1.246 . S
O27 Zn15 2.034 1_655 S
O28 Zn7 2.024 1_655 S
O28 C8 1.249 . S
C29 O25 1.251 . S
C29 O26 1.254 . S
H30 C3 0.949 . S
H31 C5 0.950 1_655 S
H32 C12 0.949 . S
H33 C14 0.950 . S
C34 O50 1.251 . S
C34 O52 1.254 . S
N35 C36 1.333 . S
N35 C40 1.307 1_545 S
N35 Zn41 2.020 . S
C36 N35 1.333 . S
C36 C37 1.379 . S
C36 H54 0.952 . S
C37 C36 1.379 . S
C37 C38 1.390 . S
C37 H64 0.949 . S
C38 C37 1.390 . S
C38 C39 1.357 1_545 S
C39 C38 1.357 1_565 S
C39 C40 1.370 . S
C39 H65 0.950 . S
C40 N35 1.307 1_565 S
C40 C39 1.370 . S
C40 H58 0.948 . S
Zn41 N35 2.020 . S
Zn41 O50 2.039 . S
Zn41 O56 2.034 . S
Zn41 O60 2.025 1_545 S
Zn41 O62 2.024 1_545 S
C42 O61 1.246 . S
C42 O62 1.249 . S
N43 C44 1.307 . S
N43 C45 1.333 1_545 S
N43 Zn49 2.020 . S
C44 N43 1.307 . S
C44 C48 1.370 . S
C44 H55 0.948 . S
C45 N43 1.333 1_565 S
C45 C46 1.379 . S
C45 H53 0.952 . S
C46 C45 1.379 . S
C46 C47 1.390 1_565 S
C46 H66 0.949 . S
C47 C46 1.390 1_545 S
C47 C48 1.357 . S
C48 C44 1.370 . S
C48 C47 1.357 . S
C48 H67 0.950 . S
Zn49 N43 2.020 . S
Zn49 O52 2.025 . S
Zn49 O57 2.024 . S
Zn49 O59 2.039 1_545 S
Zn49 O61 2.034 1_545 S
O50 C34 1.251 . S
O50 Zn41 2.039 . S
C51 O56 1.246 . S
C51 O57 1.249 . S
O52 C34 1.254 . S
O52 Zn49 2.025 . S
H53 C45 0.952 . S
H54 C36 0.952 . S
H55 C44 0.948 . S
O56 Zn41 2.034 . S
O56 C51 1.246 . S
O57 Zn49 2.024 . S
O57 C51 1.249 . S
H58 C40 0.948 . S
O59 Zn49 2.039 1_565 S
O59 C63 1.251 . S
O60 Zn41 2.025 1_565 S
O60 C63 1.254 . S
O61 C42 1.246 . S
O61 Zn49 2.034 1_565 S
O62 Zn41 2.024 1_565 S
O62 C42 1.249 . S
C63 O59 1.251 . S
C63 O60 1.254 . S
H64 C37 0.949 . S
H65 C39 0.950 . S
H66 C46 0.949 . S
H67 C48 0.950 . S
C68 O84 1.251 . S
C68 O86 1.254 . S
N69 C70 1.333 . S
N69 C74 1.307 . S
N69 Zn75 2.020 . S
C70 N69 1.333 . S
C70 C71 1.377 1_455 S
C70 H88 0.952 1_455 S
C71 C70 1.377 1_655 S
C71 C72 1.372 1_655 S
C71 H98 0.969 . S
C72 C71 1.372 1_455 S
C72 C73 1.357 . S
C73 C72 1.357 . S
C73 C74 1.370 . S
C73 H99 0.950 . S
C74 N69 1.307 . S
C74 C73 1.370 . S
C74 H92 0.948 . S
Zn75 N69 2.020 . S
Zn75 O84 2.039 1_455 S
Zn75 O90 2.034 1_455 S
Zn75 O94 2.025 . S
Zn75 O96 2.024 . S
C76 O95 1.246 . S
C76 O96 1.249 . S
N77 C78 1.307 1_455 S
N77 C79 1.333 . S
N77 Zn83 2.020 . S
C78 N77 1.307 1_655 S
C78 C82 1.370 . S
C78 H89 0.948 . S
C79 N77 1.333 . S
C79 C80 1.379 . S
C79 H87 0.952 . S
C80 C79 1.379 . S
C80 C81 1.390 . S
C80 H100 0.949 . S
C81 C80 1.390 . S
C81 C82 1.357 1_455 S
C82 C78 1.370 . S
C82 C81 1.357 1_655 S
C82 H101 0.950 . S
Zn83 N77 2.020 . S
Zn83 O86 2.025 1_455 S
Zn83 O91 2.024 1_455 S
Zn83 O93 2.039 . S
Zn83 O95 2.034 . S
O84 C68 1.251 . S
O84 Zn75 2.039 1_655 S
C85 O90 1.246 . S
C85 O91 1.249 . S
O86 C68 1.254 . S
O86 Zn83 2.025 1_655 S
H87 C79 0.952 . S
H88 C70 0.952 1_655 S
H89 C78 0.948 . S
O90 Zn75 2.034 1_655 S
O90 C85 1.246 . S
O91 Zn83 2.024 1_655 S
O91 C85 1.249 . S
H92 C74 0.948 . S
O93 Zn83 2.039 . S
O93 C97 1.251 . S
O94 Zn75 2.025 . S
O94 C97 1.254 . S
O95 C76 1.246 . S
O95 Zn83 2.034 . S
O96 Zn75 2.024 . S
O96 C76 1.249 . S
C97 O93 1.251 . S
C97 O94 1.254 . S
H98 C71 0.969 . S
H99 C73 0.950 . S
H100 C80 0.949 . S
H101 C82 0.950 . S
C102 O118 1.251 . S
C102 O120 1.254 . S
N103 C104 1.333 1_545 S
N103 C108 1.307 . S
N103 Zn109 2.020 . S
C104 N103 1.333 1_565 S
C104 C105 1.379 . S
C104 H122 0.952 . S
C105 C104 1.379 . S
C105 C106 1.390 1_565 S
C105 H132 0.949 . S
C106 C105 1.390 1_545 S
C106 C107 1.357 . S
C107 C106 1.357 . S
C107 C108 1.370 . S
C107 H133 0.950 . S
C108 N103 1.307 . S
C108 C107 1.370 . S
C108 H126 0.948 . S
Zn109 N103 2.020 . S
Zn109 O118 2.039 1_545 S
Zn109 O124 2.034 1_545 S
Zn109 O128 2.025 . S
Zn109 O130 2.024 . S
C110 O129 1.246 . S
C110 O130 1.249 . S
N111 C112 1.307 1_545 S
N111 C113 1.333 . S
N111 Zn117 2.020 . S
C112 N111 1.307 1_565 S
C112 C116 1.370 . S
C112 H123 0.948 . S
C113 N111 1.333 . S
C113 C114 1.379 . S
C113 H121 0.952 . S
C114 C113 1.379 . S
C114 C115 1.390 . S
C114 H134 0.949 . S
C115 C114 1.390 . S
C115 C116 1.357 1_545 S
C116 C112 1.370 . S
C116 C115 1.357 1_565 S
C116 H135 0.950 . S
Zn117 N111 2.020 . S
Zn117 O120 2.025 1_545 S
Zn117 O125 2.024 1_545 S
Zn117 O127 2.039 . S
Zn117 O129 2.034 . S
O118 C102 1.251 . S
O118 Zn109 2.039 1_565 S
C119 O124 1.246 . S
C119 O125 1.249 . S
O120 C102 1.254 . S
O120 Zn117 2.025 1_565 S
H121 C113 0.952 . S
H122 C104 0.952 . S
H123 C112 0.948 . S
O124 Zn109 2.034 1_565 S
O124 C119 1.246 . S
O125 Zn117 2.024 1_565 S
O125 C119 1.249 . S
H126 C108 0.948 . S
O127 Zn117 2.039 . S
O127 C131 1.251 . S
O128 Zn109 2.025 . S
O128 C131 1.254 . S
O129 C110 1.246 . S
O129 Zn117 2.034 . S
O130 Zn109 2.024 . S
O130 C110 1.249 . S
C131 O127 1.251 . S
C131 O128 1.254 . S
H132 C105 0.949 . S
H133 C107 0.950 . S
H134 C114 0.949 . S
H135 C116 0.950 . S
C136 O152 1.251 . S
C136 O154 1.254 . S
N137 C138 1.333 . S
N137 C142 1.307 1_455 S
N137 Zn143 2.020 . S
C138 N137 1.333 . S
C138 C139 1.379 . S
C138 H156 0.952 . S
C139 C138 1.379 . S
C139 C140 1.390 . S
C139 H166 0.949 . S
C140 C139 1.390 . S
C140 C141 1.357 1_455 S
C141 C140 1.357 1_655 S
C141 C142 1.370 . S
C141 H167 0.950 . S
C142 N137 1.307 1_655 S
C142 C141 1.370 . S
C142 H160 0.948 . S
Zn143 N137 2.020 . S
Zn143 O152 2.039 . S
Zn143 O158 2.034 . S
Zn143 O162 2.025 1_455 S
Zn143 O164 2.024 1_455 S
C144 O163 1.246 . S
C144 O164 1.249 . S
N145 C146 1.307 . S
N145 C147 1.333 1_455 S
N145 Zn151 2.020 . S
C146 N145 1.307 . S
C146 C150 1.370 . S
C146 H157 0.948 . S
C147 N145 1.333 1_655 S
C147 C148 1.379 . S
C147 H155 0.952 . S
C148 C147 1.379 . S
C148 C149 1.390 1_655 S
C148 H168 0.949 . S
C149 C148 1.390 1_455 S
C149 C150 1.357 . S
C150 C146 1.370 . S
C150 C149 1.357 . S
C150 H169 0.950 . S
Zn151 N145 2.020 . S
Zn151 O154 2.025 . S
Zn151 O159 2.024 . S
Zn151 O161 2.039 1_455 S
Zn151 O163 2.034 1_455 S
O152 C136 1.251 . S
O152 Zn143 2.039 . S
C153 O158 1.246 . S
C153 O159 1.249 . S
O154 C136 1.254 . S
O154 Zn151 2.025 . S
H155 C147 0.952 . S
H156 C138 0.952 . S
H157 C146 0.948 . S
O158 Zn143 2.034 . S
O158 C153 1.246 . S
O159 Zn151 2.024 . S
O159 C153 1.249 . S
H160 C142 0.948 . S
O161 Zn151 2.039 1_655 S
O161 C165 1.251 . S
O162 Zn143 2.025 1_655 S
O162 C165 1.254 . S
O163 C144 1.246 . S
O163 Zn151 2.034 1_655 S
O164 Zn143 2.024 1_655 S
O164 C144 1.249 . S
C165 O161 1.251 . S
C165 O162 1.254 . S
H166 C139 0.949 . S
H167 C141 0.950 . S
H168 C148 0.949 . S
H169 C150 0.950 . S
C170 O186 1.251 . S
C170 O188 1.254 . S
N171 C172 1.333 . S
N171 C176 1.307 1_545 S
N171 Zn177 2.020 . S
C172 N171 1.333 . S
C172 C173 1.379 . S
C172 H190 0.952 . S
C173 C172 1.379 . S
C173 C174 1.390 . S
C173 H200 0.949 . S
C174 C173 1.390 . S
C174 C175 1.357 1_545 S
C175 C174 1.357 1_565 S
C175 C176 1.370 . S
C175 H201 0.950 . S
C176 N171 1.307 1_565 S
C176 C175 1.370 . S
C176 H194 0.948 . S
Zn177 N171 2.020 . S
Zn177 O186 2.039 . S
Zn177 O192 2.034 . S
Zn177 O196 2.025 1_545 S
Zn177 O198 2.024 1_545 S
C178 O197 1.246 . S
C178 O198 1.249 . S
N179 C180 1.307 . S
N179 C181 1.333 1_545 S
N179 Zn185 2.020 . S
C180 N179 1.307 . S
C180 C184 1.370 . S
C180 H191 0.948 . S
C181 N179 1.333 1_565 S
C181 C182 1.379 . S
C181 H189 0.952 . S
C182 C181 1.379 . S
C182 C183 1.390 1_565 S
C182 H202 0.949 . S
C183 C182 1.390 1_545 S
C183 C184 1.357 . S
C184 C180 1.370 . S
C184 C183 1.357 . S
C184 H203 0.950 . S
Zn185 N179 2.020 . S
Zn185 O188 2.025 . S
Zn185 O193 2.024 . S
Zn185 O195 2.039 1_545 S
Zn185 O197 2.034 1_545 S
O186 C170 1.251 . S
O186 Zn177 2.039 . S
C187 O192 1.246 . S
C187 O193 1.249 . S
O188 C170 1.254 . S
O188 Zn185 2.025 . S
H189 C181 0.952 . S
H190 C172 0.952 . S
H191 C180 0.948 . S
O192 Zn177 2.034 . S
O192 C187 1.246 . S
O193 Zn185 2.024 . S
O193 C187 1.249 . S
H194 C176 0.948 . S
O195 Zn185 2.039 1_565 S
O195 C199 1.251 . S
O196 Zn177 2.025 1_565 S
O196 C199 1.254 . S
O197 C178 1.246 . S
O197 Zn185 2.034 1_565 S
O198 Zn177 2.024 1_565 S
O198 C178 1.249 . S
C199 O195 1.251 . S
C199 O196 1.254 . S
H200 C173 0.949 . S
H201 C175 0.950 . S
H202 C182 0.949 . S
H203 C184 0.950 . S
C204 O220 1.251 . S
C204 O222 1.254 . S
N205 C206 1.333 1_455 S
N205 C210 1.307 . S
N205 Zn211 2.020 . S
C206 N205 1.333 1_655 S
C206 C207 1.379 . S
C206 H224 0.952 . S
C207 C206 1.379 . S
C207 C208 1.390 1_655 S
C207 H234 0.949 . S
C208 C207 1.390 1_455 S
C208 C209 1.357 . S
C209 C208 1.357 . S
C209 C210 1.370 . S
C209 H235 0.950 . S
C210 N205 1.307 . S
C210 C209 1.370 . S
C210 H228 0.948 . S
Zn211 N205 2.020 . S
Zn211 O220 2.039 1_455 S
Zn211 O226 2.034 1_455 S
Zn211 O230 2.025 . S
Zn211 O232 2.024 . S
C212 O231 1.246 . S
C212 O232 1.249 . S
N213 C214 1.307 1_455 S
N213 C215 1.333 . S
N213 Zn219 2.020 . S
C214 N213 1.307 1_655 S
C214 C218 1.370 . S
C214 H225 0.948 . S
C215 N213 1.333 . S
C215 C216 1.379 . S
C215 H223 0.952 . S
C216 C215 1.379 . S
C216 C217 1.390 . S
C216 H236 0.949 . S
C217 C216 1.390 . S
C217 C218 1.357 1_455 S
C218 C214 1.370 . S
C218 C217 1.357 1_655 S
C218 H237 0.950 . S
Zn219 N213 2.020 . S
Zn219 O222 2.025 1_455 S
Zn219 O227 2.024 1_455 S
Zn219 O229 2.039 . S
Zn219 O231 2.034 . S
O220 C204 1.251 . S
O220 Zn211 2.039 1_655 S
C221 O226 1.246 . S
C221 O227 1.249 . S
O222 C204 1.254 . S
O222 Zn219 2.025 1_655 S
H223 C215 0.952 . S
H224 C206 0.952 . S
H225 C214 0.948 . S
O226 Zn211 2.034 1_655 S
O226 C221 1.246 . S
O227 Zn219 2.024 1_655 S
O227 C221 1.249 . S
H228 C210 0.948 . S
O229 Zn219 2.039 . S
O229 C233 1.251 . S
O230 Zn211 2.025 . S
O230 C233 1.254 . S
O231 C212 1.246 . S
O231 Zn219 2.034 . S
O232 Zn211 2.024 . S
O232 C212 1.249 . S
C233 O229 1.251 . S
C233 O230 1.254 . S
H234 C207 0.949 . S
H235 C209 0.950 . S
H236 C216 0.949 . S
H237 C218 0.950 . S
C238 O254 1.251 . S
C238 O256 1.254 . S
N239 C240 1.333 1_545 S
N239 C244 1.307 . S
N239 Zn245 2.020 . S
C240 N239 1.333 1_565 S
C240 C241 1.379 . S
C240 H258 0.952 . S
C241 C240 1.379 . S
C241 C242 1.390 1_565 S
C241 H268 0.949 . S
C242 C241 1.390 1_545 S
C242 C243 1.357 . S
C243 C242 1.357 . S
C243 C244 1.370 . S
C243 H269 0.950 . S
C244 N239 1.307 . S
C244 C243 1.370 . S
C244 H262 0.948 . S
Zn245 N239 2.020 . S
Zn245 O254 2.039 1_545 S
Zn245 O260 2.034 1_545 S
Zn245 O264 2.025 . S
Zn245 O266 2.024 . S
C246 O265 1.246 . S
C246 O266 1.249 . S
N247 C248 1.307 1_545 S
N247 C249 1.333 . S
N247 Zn253 2.020 . S
C248 N247 1.307 1_565 S
C248 C252 1.370 . S
C248 H259 0.948 . S
C249 N247 1.333 . S
C249 C250 1.379 . S
C249 H257 0.952 . S
C250 C249 1.379 . S
C250 C251 1.390 . S
C250 H270 0.949 . S
C251 C250 1.390 . S
C251 C252 1.357 1_545 S
C252 C248 1.370 . S
C252 C251 1.357 1_565 S
C252 H271 0.950 . S
Zn253 N247 2.020 . S
Zn253 O256 2.025 1_545 S
Zn253 O261 2.024 1_545 S
Zn253 O263 2.039 . S
Zn253 O265 2.034 . S
O254 C238 1.251 . S
O254 Zn245 2.039 1_565 S
C255 O260 1.246 . S
C255 O261 1.249 . S
O256 C238 1.254 . S
O256 Zn253 2.025 1_565 S
H257 C249 0.952 . S
H258 C240 0.952 . S
H259 C248 0.948 . S
O260 Zn245 2.034 1_565 S
O260 C255 1.246 . S
O261 Zn253 2.024 1_565 S
O261 C255 1.249 . S
H262 C244 0.948 . S
O263 Zn253 2.039 . S
O263 C267 1.251 . S
O264 Zn245 2.025 . S
O264 C267 1.254 . S
O265 C246 1.246 . S
O265 Zn253 2.034 . S
O266 Zn245 2.024 . S
O266 C246 1.249 . S
C267 O263 1.251 . S
C267 O264 1.254 . S
H268 C241 0.949 . S
H269 C243 0.950 . S
H270 C250 0.949 . S
H271 C252 0.950 . S
C272 O288 1.251 1_565 S
C272 O290 1.254 . S
N273 C274 1.333 . S
N273 C278 1.307 . S
N273 Zn279 2.020 . S
C274 N273 1.333 . S
C274 C275 1.379 . S
C274 H292 0.952 . S
C275 C274 1.379 . S
C275 C276 1.390 . S
C275 H302 0.949 . S
C276 C275 1.390 . S
C276 C277 1.357 . S
C277 C276 1.357 . S
C277 C278 1.370 . S
C277 H303 0.950 . S
C278 N273 1.307 . S
C278 C277 1.370 . S
C278 H296 0.948 . S
Zn279 N273 2.020 . S
Zn279 O288 2.039 . S
Zn279 O294 2.034 . S
Zn279 O298 2.025 . S
Zn279 O300 2.024 . S
C280 O299 1.246 . S
C280 O300 1.249 . S
N281 C282 1.307 . S
N281 C283 1.333 . S
N281 Zn287 2.020 1_565 S
C282 N281 1.307 . S
C282 C286 1.370 . S
C282 H293 0.948 . S
C283 N281 1.333 . S
C283 C284 1.379 . S
C283 H291 0.972 . S
C284 C283 1.379 . S
C284 C285 1.390 . S
C284 H304 0.949 . S
C285 C284 1.390 . S
C285 C286 1.357 . S
C286 C282 1.370 . S
C286 C285 1.357 . S
C286 H305 0.950 . S
Zn287 N281 2.020 1_545 S
Zn287 O290 2.025 1_545 S
Zn287 O295 2.024 . S
Zn287 O297 2.039 . S
Zn287 O299 2.034 . S
O288 C272 1.251 1_545 S
O288 Zn279 2.039 . S
C289 O294 1.246 . S
C289 O295 1.249 . S
O290 C272 1.254 . S
O290 Zn287 2.025 1_565 S
H291 C283 0.972 . S
H292 C274 0.952 . S
H293 C282 0.948 . S
O294 Zn279 2.034 . S
O294 C289 1.246 . S
O295 Zn287 2.024 . S
O295 C289 1.249 . S
H296 C278 0.948 . S
O297 Zn287 2.039 . S
O297 C301 1.251 . S
O298 Zn279 2.025 . S
O298 C301 1.254 . S
O299 C280 1.246 . S
O299 Zn287 2.034 . S
O300 Zn279 2.024 . S
O300 C280 1.249 . S
C301 O297 1.251 . S
C301 O298 1.254 . S
H302 C275 0.949 . S
H303 C277 0.950 . S
H304 C284 0.949 . S
H305 C286 0.950 . S
C306 O322 1.251 . S
C306 O324 1.254 . S
N307 C308 1.333 1_455 S
N307 C312 1.307 . S
N307 Zn313 2.020 . S
C308 N307 1.333 1_655 S
C308 C309 1.379 . S
C308 H326 0.952 . S
C309 C308 1.379 . S
C309 C310 1.390 1_655 S
C309 H336 0.949 . S
C310 C309 1.390 1_455 S
C310 C311 1.357 . S
C311 C310 1.357 . S
C311 C312 1.370 . S
C311 H337 0.950 . S
C312 N307 1.307 . S
C312 C311 1.370 . S
C312 H330 0.948 . S
Zn313 N307 2.020 . S
Zn313 O322 2.039 1_455 S
Zn313 O328 2.034 1_455 S
Zn313 O332 2.025 . S
Zn313 O334 2.024 . S
C314 O333 1.246 . S
C314 O334 1.249 . S
N315 C316 1.307 1_455 S
N315 C317 1.333 . S
N315 Zn321 2.020 . S
C316 N315 1.307 1_655 S
C316 C320 1.370 . S
C316 H327 0.948 . S
C317 N315 1.333 . S
C317 C318 1.379 . S
C317 H325 0.952 . S
C318 C317 1.379 . S
C318 C319 1.390 . S
C318 H338 0.949 . S
C319 C318 1.390 . S
C319 C320 1.357 1_455 S
C320 C316 1.370 . S
C320 C319 1.357 1_655 S
C320 H339 0.950 . S
Zn321 N315 2.020 . S
Zn321 O324 2.025 1_455 S
Zn321 O329 2.024 1_455 S
Zn321 O331 2.039 . S
Zn321 O333 2.034 . S
O322 C306 1.251 . S
O322 Zn313 2.039 1_655 S
C323 O328 1.246 . S
C323 O329 1.249 . S
O324 C306 1.254 . S
O324 Zn321 2.025 1_655 S
H325 C317 0.952 . S
H326 C308 0.952 . S
H327 C316 0.948 . S
O328 Zn313 2.034 1_655 S
O328 C323 1.246 . S
O329 Zn321 2.024 1_655 S
O329 C323 1.249 . S
H330 C312 0.948 . S
O331 Zn321 2.039 . S
O331 C335 1.251 . S
O332 Zn313 2.025 . S
O332 C335 1.254 . S
O333 C314 1.246 . S
O333 Zn321 2.034 . S
O334 Zn313 2.024 . S
O334 C314 1.249 . S
C335 O331 1.251 . S
C335 O332 1.254 . S
H336 C309 0.949 . S
H337 C311 0.950 . S
H338 C318 0.949 . S
H339 C320 0.950 . S
C340 O356 1.251 . S
C340 O358 1.254 . S
N341 C342 1.333 1_545 S
N341 C346 1.307 . S
N341 Zn347 2.020 . S
C342 N341 1.333 1_565 S
C342 C343 1.379 . S
C342 H360 0.952 . S
C343 C342 1.379 . S
C343 C344 1.390 1_565 S
C343 H370 0.949 . S
C344 C343 1.390 1_545 S
C344 C345 1.357 . S
C345 C344 1.357 . S
C345 C346 1.370 . S
C345 H371 0.950 . S
C346 N341 1.307 . S
C346 C345 1.370 . S
C346 H364 0.948 . S
Zn347 N341 2.020 . S
Zn347 O356 2.039 1_545 S
Zn347 O362 2.034 1_545 S
Zn347 O366 2.025 . S
Zn347 O368 2.024 . S
C348 O367 1.246 . S
C348 O368 1.249 . S
N349 C350 1.307 . S
N349 C351 1.333 . S
N349 Zn355 2.020 . S
C350 N349 1.307 . S
C350 C354 1.370 . S
C350 H361 0.948 1_545 S
C351 N349 1.333 . S
C351 C352 1.379 . S
C351 H359 0.952 . S
C352 C351 1.379 . S
C352 C353 1.390 . S
C352 H372 0.949 . S
C353 C352 1.390 . S
C353 C354 1.357 . S
C354 C350 1.370 . S
C354 C353 1.357 . S
C354 H373 0.950 1_545 S
Zn355 N349 2.020 . S
Zn355 O358 2.025 1_545 S
Zn355 O363 2.024 1_545 S
Zn355 O365 2.039 . S
Zn355 O367 2.034 . S
O356 C340 1.251 . S
O356 Zn347 2.039 1_565 S
C357 O362 1.246 . S
C357 O363 1.249 . S
O358 C340 1.254 . S
O358 Zn355 2.025 1_565 S
H359 C351 0.952 . S
H360 C342 0.952 . S
H361 C350 0.948 1_565 S
O362 Zn347 2.034 1_565 S
O362 C357 1.246 . S
O363 Zn355 2.024 1_565 S
O363 C357 1.249 . S
H364 C346 0.948 . S
O365 Zn355 2.039 . S
O365 C369 1.251 . S
O366 Zn347 2.025 . S
O366 C369 1.254 . S
O367 C348 1.246 . S
O367 Zn355 2.034 . S
O368 Zn347 2.024 . S
O368 C348 1.249 . S
C369 O365 1.251 . S
C369 O366 1.254 . S
H370 C343 0.949 . S
H371 C345 0.950 . S
H372 C352 0.949 . S
H373 C354 0.950 1_565 S
C374 O390 1.251 . S
C374 O392 1.254 . S
N375 C376 1.333 . S
N375 C380 1.330 . S
N375 Zn381 2.020 . S
C376 N375 1.333 . S
C376 C377 1.379 . S
C376 H394 0.952 . S
C377 C376 1.379 . S
C377 C378 1.390 . S
C377 H404 0.949 . S
C378 C377 1.390 . S
C378 C379 1.357 . S
C379 C378 1.357 . S
C379 C380 1.372 . S
C379 H405 0.950 1_455 S
C380 N375 1.330 . S
C380 C379 1.372 . S
C380 H398 0.922 1_455 S
Zn381 N375 2.020 . S
Zn381 O390 2.039 . S
Zn381 O396 2.034 . S
Zn381 O400 2.025 1_455 S
Zn381 O402 2.024 1_455 S
C382 O401 1.246 . S
C382 O402 1.249 . S
N383 C384 1.307 . S
N383 C385 1.360 . S
N383 Zn389 2.020 . S
C384 N383 1.307 . S
C384 C388 1.370 . S
C384 H395 0.948 . S
C385 N383 1.360 . S
C385 C386 1.376 1_455 S
C385 H393 0.928 1_455 S
C386 C385 1.376 1_655 S
C386 C387 1.390 1_655 S
C386 H406 0.949 . S
C387 C386 1.390 1_455 S
C387 C388 1.357 . S
C388 C384 1.370 . S
C388 C387 1.357 . S
C388 H407 0.950 . S
Zn389 N383 2.020 . S
Zn389 O392 2.025 . S
Zn389 O397 2.024 . S
Zn389 O399 2.039 1_455 S
Zn389 O401 2.034 1_455 S
O390 C374 1.251 . S
O390 Zn381 2.039 . S
C391 O396 1.246 . S
C391 O397 1.249 . S
O392 C374 1.254 . S
O392 Zn389 2.025 . S
H393 C385 0.928 1_655 S
H394 C376 0.952 . S
H395 C384 0.948 . S
O396 Zn381 2.034 . S
O396 C391 1.246 . S
O397 Zn389 2.024 . S
O397 C391 1.249 . S
H398 C380 0.922 1_655 S
O399 Zn389 2.039 1_655 S
O399 C403 1.251 . S
O400 Zn381 2.025 1_655 S
O400 C403 1.254 . S
O401 C382 1.246 . S
O401 Zn389 2.034 1_655 S
O402 Zn381 2.024 1_655 S
O402 C382 1.249 . S
C403 O399 1.251 . S
C403 O400 1.254 . S
H404 C377 0.949 . S
H405 C379 0.950 1_655 S
H406 C386 0.949 . S
H407 C388 0.950 . S
C408 O424 1.251 . S
C408 O426 1.254 . S
N409 C410 1.333 1_545 S
N409 C414 1.307 . S
N409 Zn415 2.020 . S
C410 N409 1.333 1_565 S
C410 C411 1.379 . S
C410 H428 0.952 . S
C411 C410 1.379 . S
C411 C412 1.390 1_565 S
C411 H438 0.949 . S
C412 C411 1.390 1_545 S
C412 C413 1.357 . S
C413 C412 1.357 . S
C413 C414 1.370 . S
C413 H439 0.950 . S
C414 N409 1.307 . S
C414 C413 1.370 . S
C414 H432 0.948 . S
Zn415 N409 2.020 . S
Zn415 O424 2.039 1_545 S
Zn415 O430 2.034 1_545 S
Zn415 O434 2.025 . S
Zn415 O436 2.024 . S
C416 O435 1.246 . S
C416 O436 1.249 . S
N417 C418 1.307 1_545 S
N417 C419 1.333 . S
N417 Zn423 2.020 . S
C418 N417 1.307 1_565 S
C418 C422 1.370 . S
C418 H429 0.948 . S
C419 N417 1.333 . S
C419 C420 1.379 . S
C419 H427 0.952 . S
C420 C419 1.379 . S
C420 C421 1.390 . S
C420 H440 0.949 . S
C421 C420 1.390 . S
C421 C422 1.357 1_545 S
C422 C418 1.370 . S
C422 C421 1.357 1_565 S
C422 H441 0.950 . S
Zn423 N417 2.020 . S
Zn423 O426 2.025 1_545 S
Zn423 O431 2.024 1_545 S
Zn423 O433 2.039 . S
Zn423 O435 2.034 . S
O424 C408 1.251 . S
O424 Zn415 2.039 1_565 S
C425 O430 1.246 . S
C425 O431 1.249 . S
O426 C408 1.254 . S
O426 Zn423 2.025 1_565 S
H427 C419 0.952 . S
H428 C410 0.952 . S
H429 C418 0.948 . S
O430 Zn415 2.034 1_565 S
O430 C425 1.246 . S
O431 Zn423 2.024 1_565 S
O431 C425 1.249 . S
H432 C414 0.948 . S
O433 Zn423 2.039 . S
O433 C437 1.251 . S
O434 Zn415 2.025 . S
O434 C437 1.254 . S
O435 C416 1.246 . S
O435 Zn423 2.034 . S
O436 Zn415 2.024 . S
O436 C416 1.249 . S
C437 O433 1.251 . S
C437 O434 1.254 . S
H438 C411 0.949 . S
H439 C413 0.950 . S
H440 C420 0.949 . S
H441 C422 0.950 . S
C442 O458 1.251 . S
C442 O460 1.254 . S
N443 C444 1.333 . S
N443 C448 1.307 1_455 S
N443 Zn449 2.020 . S
C444 N443 1.333 . S
C444 C445 1.379 . S
C444 H462 0.952 . S
C445 C444 1.379 . S
C445 C446 1.390 . S
C445 H472 0.949 . S
C446 C445 1.390 . S
C446 C447 1.357 1_455 S
C447 C446 1.357 1_655 S
C447 C448 1.370 . S
C447 H473 0.950 . S
C448 N443 1.307 1_655 S
C448 C447 1.370 . S
C448 H466 0.948 . S
Zn449 N443 2.020 . S
Zn449 O458 2.039 . S
Zn449 O464 2.034 . S
Zn449 O468 2.025 1_455 S
Zn449 O470 2.024 1_455 S
C450 O469 1.246 . S
C450 O470 1.249 . S
N451 C452 1.307 . S
N451 C453 1.333 1_455 S
N451 Zn457 2.020 . S
C452 N451 1.307 . S
C452 C456 1.370 . S
C452 H463 0.948 . S
C453 N451 1.333 1_655 S
C453 C454 1.379 . S
C453 H461 0.952 . S
C454 C453 1.379 . S
C454 C455 1.390 1_655 S
C454 H474 0.949 . S
C455 C454 1.390 1_455 S
C455 C456 1.357 . S
C456 C452 1.370 . S
C456 C455 1.357 . S
C456 H475 0.950 . S
Zn457 N451 2.020 . S
Zn457 O460 2.025 . S
Zn457 O465 2.024 . S
Zn457 O467 2.039 1_455 S
Zn457 O469 2.034 1_455 S
O458 C442 1.251 . S
O458 Zn449 2.039 . S
C459 O464 1.246 . S
C459 O465 1.249 . S
O460 C442 1.254 . S
O460 Zn457 2.025 . S
H461 C453 0.952 . S
H462 C444 0.952 . S
H463 C452 0.948 . S
O464 Zn449 2.034 . S
O464 C459 1.246 . S
O465 Zn457 2.024 . S
O465 C459 1.249 . S
H466 C448 0.948 . S
O467 Zn457 2.039 1_655 S
O467 C471 1.251 . S
O468 Zn449 2.025 1_655 S
O468 C471 1.254 . S
O469 C450 1.246 . S
O469 Zn457 2.034 1_655 S
O470 Zn449 2.024 1_655 S
O470 C450 1.249 . S
C471 O467 1.251 . S
C471 O468 1.254 . S
H472 C445 0.949 . S
H473 C447 0.950 . S
H474 C454 0.949 . S
H475 C456 0.950 . S
C476 O492 1.270 . S
C476 O494 1.254 . S
N477 C478 1.333 . S
N477 C482 1.307 . S
N477 Zn483 2.020 . S
C478 N477 1.333 . S
C478 C479 1.379 . S
C478 H496 0.952 . S
C479 C478 1.379 . S
C479 C480 1.390 . S
C479 H506 0.949 . S
C480 C479 1.390 . S
C480 C481 1.357 . S
C481 C480 1.357 . S
C481 C482 1.370 . S
C481 H507 0.950 . S
C482 N477 1.307 . S
C482 C481 1.370 . S
C482 H500 0.948 . S
Zn483 N477 2.020 . S
Zn483 O492 2.024 1_545 S
Zn483 O498 2.034 . S
Zn483 O502 2.025 . S
Zn483 O504 2.024 . S
C484 O503 1.246 1_545 S
C484 O504 1.249 . S
N485 C486 1.307 . S
N485 C487 1.333 . S
N485 Zn491 2.020 . S
C486 N485 1.307 . S
C486 C490 1.370 . S
C486 H497 0.948 . S
C487 N485 1.333 . S
C487 C488 1.379 . S
C487 H495 0.952 . S
C488 C487 1.379 . S
C488 C489 1.390 . S
C488 H508 0.949 . S
C489 C488 1.390 . S
C489 C490 1.357 . S
C490 C486 1.370 . S
C490 C489 1.357 . S
C490 H509 0.950 . S
Zn491 N485 2.020 . S
Zn491 O494 2.025 . S
Zn491 O499 2.024 . S
Zn491 O501 2.039 1_565 S
Zn491 O503 2.034 . S
O492 C476 1.270 . S
O492 Zn483 2.024 1_565 S
C493 O498 1.246 . S
C493 O499 1.249 1_545 S
O494 C476 1.254 . S
O494 Zn491 2.025 . S
H495 C487 0.952 . S
H496 C478 0.952 . S
H497 C486 0.948 . S
O498 Zn483 2.034 . S
O498 C493 1.246 . S
O499 Zn491 2.024 . S
O499 C493 1.249 1_565 S
H500 C482 0.948 . S
O501 Zn491 2.039 1_545 S
O501 C505 1.251 . S
O502 Zn483 2.025 . S
O502 C505 1.254 . S
O503 C484 1.246 1_565 S
O503 Zn491 2.034 . S
O504 Zn483 2.024 . S
O504 C484 1.249 . S
C505 O501 1.251 . S
C505 O502 1.254 . S
H506 C479 0.949 . S
H507 C481 0.950 . S
H508 C488 0.949 . S
H509 C490 0.950 . S
C510 O526 1.240 1_655 S
C510 O528 1.254 . S
N511 C512 1.333 . S
N511 C516 1.307 . S
N511 Zn517 2.020 . S
C512 N511 1.333 . S
C512 C513 1.379 . S
C512 H530 0.952 1_455 S
C513 C512 1.379 . S
C513 C514 1.390 . S
C513 H540 0.949 1_455 S
C514 C513 1.390 . S
C514 C515 1.357 . S
C515 C514 1.357 . S
C515 C516 1.370 . S
C515 H541 0.950 . S
C516 N511 1.307 . S
C516 C515 1.370 . S
C516 H534 0.948 . S
Zn517 N511 2.020 . S
Zn517 O526 2.061 . S
Zn517 O532 2.034 1_455 S
Zn517 O536 2.025 . S
Zn517 O538 2.024 . S
C518 O537 1.246 . S
C518 O538 1.249 . S
N519 C520 1.307 . S
N519 C521 1.333 . S
N519 Zn525 2.020 . S
C520 N519 1.307 . S
C520 C524 1.370 . S
C520 H531 0.948 1_455 S
C521 N519 1.333 . S
C521 C522 1.379 . S
C521 H529 0.952 . S
C522 C521 1.379 . S
C522 C523 1.390 . S
C522 H542 0.949 . S
C523 C522 1.390 . S
C523 C524 1.357 . S
C524 C520 1.370 . S
C524 C523 1.357 . S
C524 H543 0.950 1_455 S
Zn525 N519 2.020 . S
Zn525 O528 2.025 1_455 S
Zn525 O533 2.024 1_455 S
Zn525 O535 2.039 . S
Zn525 O537 2.034 . S
O526 C510 1.240 1_455 S
O526 Zn517 2.061 . S
C527 O532 1.246 . S
C527 O533 1.249 . S
O528 C510 1.254 . S
O528 Zn525 2.025 1_655 S
H529 C521 0.952 . S
H530 C512 0.952 1_655 S
H531 C520 0.948 1_655 S
O532 Zn517 2.034 1_655 S
O532 C527 1.246 . S
O533 Zn525 2.024 1_655 S
O533 C527 1.249 . S
H534 C516 0.948 . S
O535 Zn525 2.039 . S
O535 C539 1.251 . S
O536 Zn517 2.025 . S
O536 C539 1.254 . S
O537 C518 1.246 . S
O537 Zn525 2.034 . S
O538 Zn517 2.024 . S
O538 C518 1.249 . S
C539 O535 1.251 . S
C539 O536 1.254 . S
H540 C513 0.949 1_655 S
H541 C515 0.950 . S
H542 C522 0.949 . S
H543 C524 0.950 1_655 S
C544 O560 1.251 . S
C544 O562 1.254 . S
N545 C546 1.333 . S
N545 C550 1.307 . S
N545 Zn551 2.020 . S
C546 N545 1.333 . S
C546 C547 1.379 . S
C546 H564 0.952 . S
C547 C546 1.379 . S
C547 C548 1.390 . S
C547 H574 0.949 . S
C548 C547 1.390 . S
C548 C549 1.357 . S
C549 C548 1.357 . S
C549 C550 1.370 . S
C549 H575 0.950 1_554 S
C550 N545 1.307 . S
C550 C549 1.370 . S
C550 H568 0.948 1_554 S
Zn551 N545 2.020 . S
Zn551 O560 2.039 . S
Zn551 O566 2.034 . S
Zn551 O570 2.053 . S
Zn551 O572 1.998 1_554 S
C552 O571 1.246 1_556 S
C552 O572 1.259 . S
N553 C554 1.307 . S
N553 C555 1.333 . S
N553 Zn559 2.020 . S
C554 N553 1.307 . S
C554 C558 1.370 . S
C554 H565 0.948 . S
C555 N553 1.333 . S
C555 C556 1.379 . S
C555 H563 0.952 1_554 S
C556 C555 1.379 . S
C556 C557 1.390 . S
C556 H576 0.949 1_554 S
C557 C556 1.390 . S
C557 C558 1.357 . S
C558 C554 1.370 . S
C558 C557 1.357 . S
C558 H577 0.950 . S
Zn559 N553 2.020 . S
Zn559 O562 2.025 . S
Zn559 O567 2.024 . S
Zn559 O569 2.039 . S
Zn559 O571 2.034 . S
O560 C544 1.251 . S
O560 Zn551 2.039 . S
C561 O566 1.246 . S
C561 O567 1.249 . S
O562 C544 1.254 . S
O562 Zn559 2.025 . S
H563 C555 0.952 1_556 S
H564 C546 0.952 . S
H565 C554 0.948 . S
O566 Zn551 2.034 . S
O566 C561 1.246 . S
O567 Zn559 2.024 . S
O567 C561 1.249 . S
H568 C550 0.948 1_556 S
O569 Zn559 2.039 . S
O569 C573 1.251 1_554 S
O570 Zn551 2.053 . S
O570 C573 1.245 1_554 S
O571 C552 1.246 1_554 S
O571 Zn559 2.034 . S
O572 Zn551 1.998 1_556 S
O572 C552 1.259 . S
C573 O569 1.251 1_556 S
C573 O570 1.245 1_556 S
H574 C547 0.949 . S
H575 C549 0.950 1_556 S
H576 C556 0.949 1_556 S
H577 C558 0.950 . S
C578 O594 1.251 . S
C578 O596 1.254 . S
N579 C580 1.333 . S
N579 C584 1.307 . S
N579 Zn585 2.020 . S
C580 N579 1.333 . S
C580 C581 1.379 . S
C580 H598 0.952 . S
C581 C580 1.379 . S
C581 C582 1.390 . S
C581 H608 0.949 1_554 S
C582 C581 1.390 . S
C582 C583 1.357 . S
C583 C582 1.357 . S
C583 C584 1.370 . S
C583 H609 0.950 . S
C584 N579 1.307 . S
C584 C583 1.370 . S
C584 H602 0.948 . S
Zn585 N579 2.020 . S
Zn585 O594 2.039 . S
Zn585 O600 2.034 . S
Zn585 O604 2.025 . S
Zn585 O606 2.024 . S
C586 O605 1.246 . S
C586 O606 1.249 . S
N587 C588 1.307 . S
N587 C589 1.333 . S
N587 Zn593 2.020 . S
C588 N587 1.307 . S
C588 C592 1.370 . S
C588 H599 0.948 . S
C589 N587 1.333 . S
C589 C590 1.379 . S
C589 H597 0.952 . S
C590 C589 1.379 . S
C590 C591 1.390 . S
C590 H610 0.949 . S
C591 C590 1.390 . S
C591 C592 1.357 . S
C592 C588 1.370 . S
C592 C591 1.357 . S
C592 H611 0.950 . S
Zn593 N587 2.020 . S
Zn593 O596 2.025 . S
Zn593 O601 2.024 . S
Zn593 O603 2.039 . S
Zn593 O605 2.034 . S
O594 C578 1.251 . S
O594 Zn585 2.039 . S
C595 O600 1.246 . S
C595 O601 1.249 . S
O596 C578 1.254 . S
O596 Zn593 2.025 . S
H597 C589 0.952 . S
H598 C580 0.952 . S
H599 C588 0.948 . S
O600 Zn585 2.034 . S
O600 C595 1.246 . S
O601 Zn593 2.024 . S
O601 C595 1.249 . S
H602 C584 0.948 . S
O603 Zn593 2.039 . S
O603 C607 1.251 . S
O604 Zn585 2.025 . S
O604 C607 1.254 . S
O605 C586 1.246 . S
O605 Zn593 2.034 . S
O606 Zn585 2.024 . S
O606 C586 1.249 . S
C607 O603 1.251 . S
C607 O604 1.254 . S
H608 C581 0.949 1_556 S
H609 C583 0.950 . S
H610 C590 0.949 . S
H611 C592 0.950 . S
C612 O628 1.256 . S
C612 O630 1.259 . S
N613 C614 1.333 . S
N613 C618 1.307 . S
N613 Zn619 2.020 . S
C614 N613 1.333 . S
C614 C615 1.379 . S
C614 H632 0.952 1_554 S
C615 C614 1.379 . S
C615 C616 1.390 . S
C615 H642 0.949 1_554 S
C616 C615 1.390 . S
C616 C617 1.357 . S
C617 C616 1.357 . S
C617 C618 1.370 . S
C617 H643 0.950 . S
C618 N613 1.307 . S
C618 C617 1.370 . S
C618 H636 0.948 . S
Zn619 N613 2.020 . S
Zn619 O628 2.039 . S
Zn619 O634 2.034 . S
Zn619 O638 2.025 . S
Zn619 O640 2.024 . S
C620 O639 1.246 . S
C620 O640 1.249 . S
N621 C622 1.307 . S
N621 C623 1.333 . S
N621 Zn627 2.020 . S
C622 N621 1.307 . S
C622 C626 1.370 . S
C622 H633 0.948 1_554 S
C623 N621 1.333 . S
C623 C624 1.379 . S
C623 H631 0.952 . S
C624 C623 1.379 . S
C624 C625 1.390 . S
C624 H644 0.949 . S
C625 C624 1.390 . S
C625 C626 1.357 . S
C626 C622 1.370 . S
C626 C625 1.357 . S
C626 H645 0.950 . S
Zn627 N621 2.020 . S
Zn627 O630 2.025 . S
Zn627 O635 2.024 . S
Zn627 O637 2.039 . S
Zn627 O639 2.034 . S
O628 C612 1.256 . S
O628 Zn619 2.039 . S
C629 O634 1.246 1_556 S
C629 O635 1.249 1_556 S
O630 C612 1.259 . S
O630 Zn627 2.025 . S
H631 C623 0.952 . S
H632 C614 0.952 1_556 S
H633 C622 0.948 1_556 S
O634 Zn619 2.034 . S
O634 C629 1.246 1_554 S
O635 Zn627 2.024 . S
O635 C629 1.249 1_554 S
H636 C618 0.948 . S
O637 Zn627 2.039 . S
O637 C641 1.251 . S
O638 Zn619 2.025 . S
O638 C641 1.254 . S
O639 C620 1.246 . S
O639 Zn627 2.034 . S
O640 Zn619 2.024 . S
O640 C620 1.249 . S
C641 O637 1.251 . S
C641 O638 1.254 . S
H642 C615 0.949 1_556 S
H643 C617 0.950 . S
H644 C624 0.949 . S
H645 C626 0.950 . S
C646 O662 1.251 . S
C646 O664 1.254 . S
N647 C648 1.364 . S
N647 C652 1.307 . S
N647 Zn653 2.020 . S
C648 N647 1.364 . S
C648 C649 1.377 1_554 S
C648 H666 0.922 1_554 S
C649 C648 1.377 1_556 S
C649 C650 1.390 1_556 S
C649 H676 0.949 . S
C650 C649 1.390 1_554 S
C650 C651 1.357 . S
C651 C650 1.357 . S
C651 C652 1.370 . S
C651 H677 0.950 . S
C652 N647 1.307 . S
C652 C651 1.370 . S
C652 H670 0.948 . S
Zn653 N647 2.020 . S
Zn653 O662 2.039 1_554 S
Zn653 O668 2.034 1_554 S
Zn653 O672 2.025 . S
Zn653 O674 2.024 . S
C654 O673 1.246 . S
C654 O674 1.249 . S
N655 C656 1.307 . S
N655 C657 1.333 . S
N655 Zn661 2.020 . S
C656 N655 1.307 . S
C656 C660 1.370 . S
C656 H667 0.948 1_554 S
C657 N655 1.333 . S
C657 C658 1.379 . S
C657 H665 0.952 . S
C658 C657 1.379 . S
C658 C659 1.390 . S
C658 H678 0.949 . S
C659 C658 1.390 . S
C659 C660 1.357 . S
C660 C656 1.370 . S
C660 C659 1.357 . S
C660 H679 0.950 1_554 S
Zn661 N655 2.020 . S
Zn661 O664 2.025 1_554 S
Zn661 O669 2.024 1_554 S
Zn661 O671 2.039 . S
Zn661 O673 2.034 . S
O662 C646 1.251 . S
O662 Zn653 2.039 1_556 S
C663 O668 1.246 . S
C663 O669 1.249 . S
O664 C646 1.254 . S
O664 Zn661 2.025 1_556 S
H665 C657 0.952 . S
H666 C648 0.922 1_556 S
H667 C656 0.948 1_556 S
O668 Zn653 2.034 1_556 S
O668 C663 1.246 . S
O669 Zn661 2.024 1_556 S
O669 C663 1.249 . S
H670 C652 0.948 . S
O671 Zn661 2.039 . S
O671 C675 1.251 . S
O672 Zn653 2.025 . S
O672 C675 1.254 . S
O673 C654 1.246 . S
O673 Zn661 2.034 . S
O674 Zn653 2.024 . S
O674 C654 1.249 . S
C675 O671 1.251 . S
C675 O672 1.254 . S
H676 C649 0.949 . S
H677 C651 0.950 . S
H678 C658 0.949 . S
H679 C660 0.950 1_556 S
C680 O696 1.251 . S
C680 O698 1.254 . S
N681 C682 1.333 1_554 S
N681 C686 1.307 . S
N681 Zn687 2.020 . S
C682 N681 1.333 1_556 S
C682 C683 1.379 . S
C682 H700 0.952 . S
C683 C682 1.379 . S
C683 C684 1.390 1_556 S
C683 H710 0.949 . S
C684 C683 1.390 1_554 S
C684 C685 1.357 . S
C685 C684 1.357 . S
C685 C686 1.370 . S
C685 H711 0.950 . S
C686 N681 1.307 . S
C686 C685 1.370 . S
C686 H704 0.948 . S
Zn687 N681 2.020 . S
Zn687 O696 2.039 1_554 S
Zn687 O702 2.034 1_554 S
Zn687 O706 2.025 . S
Zn687 O708 2.024 . S
C688 O707 1.246 . S
C688 O708 1.249 . S
N689 C690 1.279 1_554 S
N689 C691 1.333 . S
N689 Zn695 2.020 . S
C690 N689 1.279 1_556 S
C690 C694 1.366 1_556 S
C690 H701 0.983 . S
C691 N689 1.333 . S
C691 C692 1.379 . S
C691 H699 0.952 . S
C692 C691 1.379 . S
C692 C693 1.390 . S
C692 H712 0.949 . S
C693 C692 1.390 . S
C693 C694 1.373 . S
C694 C690 1.366 1_554 S
C694 C693 1.373 . S
C694 H713 0.936 1_554 S
Zn695 N689 2.020 . S
Zn695 O698 2.025 1_554 S
Zn695 O703 2.024 1_554 S
Zn695 O705 2.039 . S
Zn695 O707 2.034 . S
O696 C680 1.251 . S
O696 Zn687 2.039 1_556 S
C697 O702 1.246 . S
C697 O703 1.249 . S
O698 C680 1.254 . S
O698 Zn695 2.025 1_556 S
H699 C691 0.952 . S
H700 C682 0.952 . S
H701 C690 0.983 . S
O702 Zn687 2.034 1_556 S
O702 C697 1.246 . S
O703 Zn695 2.024 1_556 S
O703 C697 1.249 . S
H704 C686 0.948 . S
O705 Zn695 2.039 . S
O705 C709 1.251 . S
O706 Zn687 2.025 . S
O706 C709 1.254 . S
O707 C688 1.246 . S
O707 Zn695 2.034 . S
O708 Zn687 2.024 . S
O708 C688 1.249 . S
C709 O705 1.251 . S
C709 O706 1.254 . S
H710 C683 0.949 . S
H711 C685 0.950 . S
H712 C692 0.949 . S
H713 C694 0.936 1_556 S
C714 O730 1.251 . S
C714 O732 1.254 . S
N715 C716 1.333 . S
N715 C720 1.307 . S
N715 Zn721 2.020 . S
C716 N715 1.333 . S
C716 C717 1.379 . S
C716 H734 0.952 . S
C717 C716 1.379 . S
C717 C718 1.390 . S
C717 H744 0.949 . S
C718 C717 1.390 . S
C718 C719 1.357 . S
C719 C718 1.357 . S
C719 C720 1.370 . S
C719 H745 0.950 1_554 S
C720 N715 1.307 . S
C720 C719 1.370 . S
C720 H738 0.948 1_554 S
Zn721 N715 2.020 . S
Zn721 O730 2.039 . S
Zn721 O736 2.034 . S
Zn721 O740 2.027 1_554 S
Zn721 O742 2.024 1_554 S
C722 O741 1.241 1_556 S
C722 O742 1.249 . S
N723 C724 1.307 . S
N723 C725 1.333 . S
N723 Zn729 2.020 . S
C724 N723 1.307 . S
C724 C728 1.370 . S
C724 H735 0.948 . S
C725 N723 1.333 . S
C725 C726 1.379 . S
C725 H733 0.952 1_554 S
C726 C725 1.379 . S
C726 C727 1.390 . S
C726 H746 0.949 1_554 S
C727 C726 1.390 . S
C727 C728 1.357 . S
C728 C724 1.370 . S
C728 C727 1.357 . S
C728 H747 0.950 . S
Zn729 N723 2.020 . S
Zn729 O732 2.025 . S
Zn729 O737 2.024 . S
Zn729 O739 2.039 . S
Zn729 O741 2.045 . S
O730 C714 1.251 . S
O730 Zn721 2.039 . S
C731 O736 1.246 . S
C731 O737 1.249 . S
O732 C714 1.254 . S
O732 Zn729 2.025 . S
H733 C725 0.952 1_556 S
H734 C716 0.952 . S
H735 C724 0.948 . S
O736 Zn721 2.034 . S
O736 C731 1.246 . S
O737 Zn729 2.024 . S
O737 C731 1.249 . S
H738 C720 0.948 1_556 S
O739 Zn729 2.039 . S
O739 C743 1.251 1_554 S
O740 Zn721 2.027 1_556 S
O740 C743 1.254 . S
O741 C722 1.241 1_554 S
O741 Zn729 2.045 . S
O742 Zn721 2.024 1_556 S
O742 C722 1.249 . S
C743 O739 1.251 1_556 S
C743 O740 1.254 . S
H744 C717 0.949 . S
H745 C719 0.950 1_556 S
H746 C726 0.949 1_556 S
H747 C728 0.950 . S
C748 O764 1.251 . S
C748 O766 1.254 . S
N749 C750 1.333 . S
N749 C754 1.307 1_554 S
N749 Zn755 2.020 . S
C750 N749 1.333 . S
C750 C751 1.379 . S
C750 H768 0.952 . S
C751 C750 1.379 . S
C751 C752 1.390 . S
C751 H778 0.949 . S
C752 C751 1.390 . S
C752 C753 1.357 1_554 S
C753 C752 1.357 1_556 S
C753 C754 1.370 . S
C753 H779 0.950 . S
C754 N749 1.307 1_556 S
C754 C753 1.370 . S
C754 H772 0.948 . S
Zn755 N749 2.020 . S
Zn755 O764 2.039 . S
Zn755 O770 2.034 . S
Zn755 O774 2.025 1_554 S
Zn755 O776 2.024 1_554 S
C756 O775 1.246 . S
C756 O776 1.249 . S
N757 C758 1.307 . S
N757 C759 1.333 1_554 S
N757 Zn763 2.020 . S
C758 N757 1.307 . S
C758 C762 1.370 . S
C758 H769 0.948 . S
C759 N757 1.333 1_556 S
C759 C760 1.379 . S
C759 H767 0.952 . S
C760 C759 1.379 . S
C760 C761 1.390 1_556 S
C760 H780 0.949 . S
C761 C760 1.390 1_554 S
C761 C762 1.357 . S
C762 C758 1.370 . S
C762 C761 1.357 . S
C762 H781 0.950 . S
Zn763 N757 2.020 . S
Zn763 O766 2.025 . S
Zn763 O771 2.024 . S
Zn763 O773 2.039 1_554 S
Zn763 O775 2.034 1_554 S
O764 C748 1.251 . S
O764 Zn755 2.039 . S
C765 O770 1.246 . S
C765 O771 1.249 . S
O766 C748 1.254 . S
O766 Zn763 2.025 . S
H767 C759 0.952 . S
H768 C750 0.952 . S
H769 C758 0.948 . S
O770 Zn755 2.034 . S
O770 C765 1.246 . S
O771 Zn763 2.024 . S
O771 C765 1.249 . S
H772 C754 0.948 . S
O773 Zn763 2.039 1_556 S
O773 C777 1.251 . S
O774 Zn755 2.025 1_556 S
O774 C777 1.254 . S
O775 C756 1.246 . S
O775 Zn763 2.034 1_556 S
O776 Zn755 2.024 1_556 S
O776 C756 1.249 . S
C777 O773 1.251 . S
C777 O774 1.254 . S
H778 C751 0.949 . S
H779 C753 0.950 . S
H780 C760 0.949 . S
H781 C762 0.950 . S
C782 O798 1.251 . S
C782 O800 1.254 . S
N783 C784 1.333 . S
N783 C788 1.307 . S
N783 Zn789 2.020 . S
C784 N783 1.333 . S
C784 C785 1.379 . S
C784 H802 0.952 . S
C785 C784 1.379 . S
C785 C786 1.390 . S
C785 H812 0.949 . S
C786 C785 1.390 . S
C786 C787 1.357 . S
C787 C786 1.357 . S
C787 C788 1.370 . S
C787 H813 0.950 . S
C788 N783 1.307 . S
C788 C787 1.370 . S
C788 H806 0.948 . S
Zn789 N783 2.020 . S
Zn789 O798 2.039 . S
Zn789 O804 2.034 . S
Zn789 O808 2.025 . S
Zn789 O810 2.024 . S
C790 O809 1.246 . S
C790 O810 1.249 . S
N791 C792 1.307 . S
N791 C793 1.333 . S
N791 Zn797 2.020 . S
C792 N791 1.307 . S
C792 C796 1.370 . S
C792 H803 0.948 . S
C793 N791 1.333 . S
C793 C794 1.379 . S
C793 H801 0.952 . S
C794 C793 1.379 . S
C794 C795 1.390 . S
C794 H814 0.949 . S
C795 C794 1.390 . S
C795 C796 1.357 . S
C796 C792 1.370 . S
C796 C795 1.357 . S
C796 H815 0.950 . S
Zn797 N791 2.020 . S
Zn797 O800 2.025 . S
Zn797 O805 2.024 . S
Zn797 O807 2.039 . S
Zn797 O809 2.034 . S
O798 C782 1.251 . S
O798 Zn789 2.039 . S
C799 O804 1.246 . S
C799 O805 1.249 . S
O800 C782 1.254 . S
O800 Zn797 2.025 . S
H801 C793 0.952 . S
H802 C784 0.952 . S
H803 C792 0.948 . S
O804 Zn789 2.034 . S
O804 C799 1.246 . S
O805 Zn797 2.024 . S
O805 C799 1.249 . S
H806 C788 0.948 . S
O807 Zn797 2.039 . S
O807 C811 1.251 . S
O808 Zn789 2.025 . S
O808 C811 1.254 . S
O809 C790 1.246 . S
O809 Zn797 2.034 . S
O810 Zn789 2.024 . S
O810 C790 1.249 . S
C811 O807 1.251 . S
C811 O808 1.254 . S
H812 C785 0.949 . S
H813 C787 0.950 . S
H814 C794 0.949 . S
H815 C796 0.950 . S
C816 O832 1.251 . S
C816 O834 1.254 . S
N817 C818 1.333 . S
N817 C822 1.307 . S
N817 Zn823 2.020 . S
C818 N817 1.333 . S
C818 C819 1.379 . S
C818 H836 0.952 . S
C819 C818 1.379 . S
C819 C820 1.390 . S
C819 H846 0.949 . S
C820 C819 1.390 . S
C820 C821 1.357 . S
C821 C820 1.357 . S
C821 C822 1.370 . S
C821 H847 0.950 . S
C822 N817 1.307 . S
C822 C821 1.370 . S
C822 H840 0.948 . S
Zn823 N817 2.020 . S
Zn823 O832 2.039 . S
Zn823 O838 2.034 . S
Zn823 O842 2.025 . S
Zn823 O844 2.024 . S
C824 O843 1.246 . S
C824 O844 1.249 . S
N825 C826 1.307 . S
N825 C827 1.333 . S
N825 Zn831 2.020 . S
C826 N825 1.307 . S
C826 C830 1.370 . S
C826 H837 0.948 . S
C827 N825 1.333 . S
C827 C828 1.379 . S
C827 H835 0.952 . S
C828 C827 1.379 . S
C828 C829 1.390 1_556 S
C828 H848 0.949 1_556 S
C829 C828 1.390 1_554 S
C829 C830 1.357 1_554 S
C830 C826 1.370 . S
C830 C829 1.357 1_556 S
C830 H849 0.950 . S
Zn831 N825 2.020 . S
Zn831 O834 2.025 . S
Zn831 O839 2.024 . S
Zn831 O841 2.039 . S
Zn831 O843 2.034 . S
O832 C816 1.251 . S
O832 Zn823 2.039 . S
C833 O838 1.246 . S
C833 O839 1.249 . S
O834 C816 1.254 . S
O834 Zn831 2.025 . S
H835 C827 0.952 . S
H836 C818 0.952 . S
H837 C826 0.948 . S
O838 Zn823 2.034 . S
O838 C833 1.246 . S
O839 Zn831 2.024 . S
O839 C833 1.249 . S
H840 C822 0.948 . S
O841 Zn831 2.039 . S
O841 C845 1.251 . S
O842 Zn823 2.025 . S
O842 C845 1.254 . S
O843 C824 1.246 . S
O843 Zn831 2.034 . S
O844 Zn823 2.024 . S
O844 C824 1.249 . S
C845 O841 1.251 . S
C845 O842 1.254 . S
H846 C819 0.949 . S
H847 C821 0.950 . S
H848 C828 0.949 1_554 S
H849 C830 0.950 . S
C850 O866 1.251 . S
C850 O868 1.254 . S
N851 C852 1.333 . S
N851 C856 1.307 . S
N851 Zn857 2.020 . S
C852 N851 1.333 . S
C852 C853 1.378 . S
C852 H870 0.952 . S
C853 C852 1.378 . S
C853 C854 1.391 1_556 S
C853 H880 0.950 1_556 S
C854 C853 1.391 1_554 S
C854 C855 1.357 1_554 S
C855 C854 1.357 1_556 S
C855 C856 1.370 . S
C855 H881 0.950 1_556 S
C856 N851 1.307 . S
C856 C855 1.370 . S
C856 H874 0.948 . S
Zn857 N851 2.020 . S
Zn857 O866 2.039 . S
Zn857 O872 2.034 . S
Zn857 O876 2.025 . S
Zn857 O878 2.024 . S
C858 O877 1.246 . S
C858 O878 1.249 . S
N859 C860 1.307 . S
N859 C861 1.333 . S
N859 Zn865 2.020 . S
C860 N859 1.307 . S
C860 C864 1.370 . S
C860 H871 0.948 . S
C861 N859 1.333 . S
C861 C862 1.379 . S
C861 H869 0.952 . S
C862 C861 1.379 . S
C862 C863 1.390 . S
C862 H882 0.949 . S
C863 C862 1.390 . S
C863 C864 1.357 . S
C864 C860 1.370 . S
C864 C863 1.357 . S
C864 H883 0.950 . S
Zn865 N859 2.020 . S
Zn865 O868 2.025 . S
Zn865 O873 2.024 . S
Zn865 O875 2.039 . S
Zn865 O877 2.034 . S
O866 C850 1.251 . S
O866 Zn857 2.039 . S
C867 O872 1.246 . S
C867 O873 1.249 . S
O868 C850 1.254 . S
O868 Zn865 2.025 . S
H869 C861 0.952 . S
H870 C852 0.952 . S
H871 C860 0.948 . S
O872 Zn857 2.034 . S
O872 C867 1.246 . S
O873 Zn865 2.024 . S
O873 C867 1.249 . S
H874 C856 0.948 . S
O875 Zn865 2.039 . S
O875 C879 1.251 . S
O876 Zn857 2.025 . S
O876 C879 1.254 . S
O877 C858 1.246 . S
O877 Zn865 2.034 . S
O878 Zn857 2.024 . S
O878 C858 1.249 . S
C879 O875 1.251 . S
C879 O876 1.254 . S
H880 C853 0.950 1_554 S
H881 C855 0.950 1_554 S
H882 C862 0.949 . S
H883 C864 0.950 . S
C884 O900 1.251 . S
C884 O902 1.254 . S
N885 C886 1.333 . S
N885 C890 1.307 . S
N885 Zn891 2.020 . S
C886 N885 1.333 . S
C886 C887 1.379 . S
C886 H904 0.952 . S
C887 C886 1.379 . S
C887 C888 1.390 . S
C887 H914 0.949 . S
C888 C887 1.390 . S
C888 C889 1.357 . S
C889 C888 1.357 . S
C889 C890 1.370 . S
C889 H915 0.950 . S
C890 N885 1.307 . S
C890 C889 1.370 . S
C890 H908 0.948 . S
Zn891 N885 2.020 . S
Zn891 O900 2.039 . S
Zn891 O906 2.034 . S
Zn891 O910 2.025 . S
Zn891 O912 2.024 . S
C892 O911 1.246 . S
C892 O912 1.249 . S
N893 C894 1.307 . S
N893 C895 1.333 . S
N893 Zn899 2.020 . S
C894 N893 1.307 . S
C894 C898 1.370 . S
C894 H905 0.948 . S
C895 N893 1.333 . S
C895 C896 1.379 . S
C895 H903 0.952 . S
C896 C895 1.379 . S
C896 C897 1.390 1_556 S
C896 H916 0.949 1_556 S
C897 C896 1.390 1_554 S
C897 C898 1.357 1_554 S
C898 C894 1.370 . S
C898 C897 1.357 1_556 S
C898 H917 0.950 1_556 S
Zn899 N893 2.020 . S
Zn899 O902 2.025 . S
Zn899 O907 2.024 . S
Zn899 O909 2.039 . S
Zn899 O911 2.034 . S
O900 C884 1.251 . S
O900 Zn891 2.039 . S
C901 O906 1.246 . S
C901 O907 1.249 . S
O902 C884 1.254 . S
O902 Zn899 2.025 . S
H903 C895 0.952 . S
H904 C886 0.952 . S
H905 C894 0.948 . S
O906 Zn891 2.034 . S
O906 C901 1.246 . S
O907 Zn899 2.024 . S
O907 C901 1.249 . S
H908 C890 0.948 . S
O909 Zn899 2.039 . S
O909 C913 1.251 . S
O910 Zn891 2.025 . S
O910 C913 1.254 . S
O911 C892 1.246 . S
O911 Zn899 2.034 . S
O912 Zn891 2.024 . S
O912 C892 1.249 . S
C913 O909 1.251 . S
C913 O910 1.254 . S
H914 C887 0.949 . S
H915 C889 0.950 . S
H916 C896 0.949 1_554 S
H917 C898 0.950 1_554 S
C918 O934 1.251 . S
C918 O936 1.254 . S
N919 C920 1.333 . S
N919 C924 1.307 . S
N919 Zn925 2.020 . S
C920 N919 1.333 . S
C920 C921 1.379 . S
C920 H938 0.952 . S
C921 C920 1.379 . S
C921 C922 1.390 . S
C921 H948 0.949 . S
C922 C921 1.390 . S
C922 C923 1.357 . S
C923 C922 1.357 . S
C923 C924 1.370 . S
C923 H949 0.950 . S
C924 N919 1.307 . S
C924 C923 1.370 . S
C924 H942 0.948 . S
Zn925 N919 2.020 . S
Zn925 O934 2.039 . S
Zn925 O940 2.034 . S
Zn925 O944 2.025 . S
Zn925 O946 2.024 . S
C926 O945 1.246 . S
C926 O946 1.249 . S
N927 C928 1.307 . S
N927 C929 1.333 . S
N927 Zn933 2.020 . S
C928 N927 1.307 . S
C928 C932 1.370 . S
C928 H939 0.948 . S
C929 N927 1.333 . S
C929 C930 1.379 . S
C929 H937 0.952 . S
C930 C929 1.379 . S
C930 C931 1.390 . S
C930 H950 0.949 . S
C931 C930 1.390 . S
C931 C932 1.357 . S
C932 C928 1.370 . S
C932 C931 1.357 . S
C932 H951 0.950 . S
Zn933 N927 2.020 . S
Zn933 O936 2.025 . S
Zn933 O941 2.024 . S
Zn933 O943 2.039 . S
Zn933 O945 2.034 . S
O934 C918 1.251 . S
O934 Zn925 2.039 . S
C935 O940 1.246 . S
C935 O941 1.249 . S
O936 C918 1.254 . S
O936 Zn933 2.025 . S
H937 C929 0.952 . S
H938 C920 0.952 . S
H939 C928 0.948 . S
O940 Zn925 2.034 . S
O940 C935 1.246 . S
O941 Zn933 2.024 . S
O941 C935 1.249 . S
H942 C924 0.948 . S
O943 Zn933 2.039 . S
O943 C947 1.251 . S
O944 Zn925 2.025 . S
O944 C947 1.254 . S
O945 C926 1.246 . S
O945 Zn933 2.034 . S
O946 Zn925 2.024 . S
O946 C926 1.249 . S
C947 O943 1.251 . S
C947 O944 1.254 . S
H948 C921 0.949 . S
H949 C923 0.950 . S
H950 C930 0.949 . S
H951 C932 0.950 . S
C952 O968 1.251 . S
C952 O970 1.254 . S
N953 C954 1.333 . S
N953 C958 1.307 . S
N953 Zn959 2.020 . S
C954 N953 1.333 . S
C954 C955 1.379 . S
C954 H972 0.952 . S
C955 C954 1.379 . S
C955 C956 1.390 . S
C955 H982 0.949 . S
C956 C955 1.390 . S
C956 C957 1.357 . S
C957 C956 1.357 . S
C957 C958 1.370 . S
C957 H983 0.950 . S
C958 N953 1.307 . S
C958 C957 1.370 . S
C958 H976 0.948 . S
Zn959 N953 2.020 . S
Zn959 O968 2.039 . S
Zn959 O974 2.034 . S
Zn959 O978 2.025 . S
Zn959 O980 2.024 . S
C960 O979 1.246 . S
C960 O980 1.249 . S
N961 C962 1.307 . S
N961 C963 1.333 . S
N961 Zn967 2.020 . S
C962 N961 1.307 . S
C962 C966 1.370 . S
C962 H973 0.948 . S
C963 N961 1.333 . S
C963 C964 1.379 . S
C963 H971 0.952 . S
C964 C963 1.379 . S
C964 C965 1.390 . S
C964 H984 0.949 . S
C965 C964 1.390 . S
C965 C966 1.357 . S
C966 C962 1.370 . S
C966 C965 1.357 . S
C966 H985 0.950 . S
Zn967 N961 2.020 . S
Zn967 O970 2.025 . S
Zn967 O975 2.024 . S
Zn967 O977 2.039 . S
Zn967 O979 2.034 . S
O968 C952 1.251 . S
O968 Zn959 2.039 . S
C969 O974 1.246 . S
C969 O975 1.249 . S
O970 C952 1.254 . S
O970 Zn967 2.025 . S
H971 C963 0.952 . S
H972 C954 0.952 . S
H973 C962 0.948 . S
O974 Zn959 2.034 . S
O974 C969 1.246 . S
O975 Zn967 2.024 . S
O975 C969 1.249 . S
H976 C958 0.948 . S
O977 Zn967 2.039 . S
O977 C981 1.251 . S
O978 Zn959 2.025 . S
O978 C981 1.254 . S
O979 C960 1.246 . S
O979 Zn967 2.034 . S
O980 Zn959 2.024 . S
O980 C960 1.249 . S
C981 O977 1.251 . S
C981 O978 1.254 . S
H982 C955 0.949 . S
H983 C957 0.950 . S
H984 C964 0.949 . S
H985 C966 0.950 . S
C986 O1002 1.251 . S
C986 O1004 1.254 . S
N987 C988 1.333 . S
N987 C992 1.307 . S
N987 Zn993 2.020 . S
C988 N987 1.333 . S
C988 C989 1.379 . S
C988 H1006 0.952 . S
C989 C988 1.379 . S
C989 C990 1.390 . S
C989 H1016 0.949 . S
C990 C989 1.390 . S
C990 C991 1.357 . S
C991 C990 1.357 . S
C991 C992 1.370 . S
C991 H1017 0.950 . S
C992 N987 1.307 . S
C992 C991 1.370 . S
C992 H1010 0.948 . S
Zn993 N987 2.020 . S
Zn993 O1002 2.039 . S
Zn993 O1008 2.034 . S
Zn993 O1012 2.025 . S
Zn993 O1014 2.024 . S
C994 O1013 1.246 . S
C994 O1014 1.249 . S
N995 C996 1.307 . S
N995 C997 1.333 . S
N995 Zn1001 2.020 . S
C996 N995 1.307 . S
C996 C1000 1.370 . S
C996 H1007 0.948 . S
C997 N995 1.333 . S
C997 C998 1.379 . S
C997 H1005 0.952 . S
C998 C997 1.379 . S
C998 C999 1.390 . S
C998 H1018 0.949 . S
C999 C998 1.390 . S
C999 C1000 1.357 . S
C1000 C996 1.370 . S
C1000 C999 1.357 . S
C1000 H1019 0.950 . S
Zn1001 N995 2.020 . S
Zn1001 O1004 2.025 . S
Zn1001 O1009 2.024 . S
Zn1001 O1011 2.039 . S
Zn1001 O1013 2.034 . S
O1002 C986 1.251 . S
O1002 Zn993 2.039 . S
C1003 O1008 1.246 . S
C1003 O1009 1.249 . S
O1004 C986 1.254 . S
O1004 Zn1001 2.025 . S
H1005 C997 0.952 . S
H1006 C988 0.952 . S
H1007 C996 0.948 . S
O1008 Zn993 2.034 . S
O1008 C1003 1.246 . S
O1009 Zn1001 2.024 . S
O1009 C1003 1.249 . S
H1010 C992 0.948 . S
O1011 Zn1001 2.039 . S
O1011 C1015 1.251 . S
O1012 Zn993 2.025 . S
O1012 C1015 1.254 . S
O1013 C994 1.246 . S
O1013 Zn1001 2.034 . S
O1014 Zn993 2.024 . S
O1014 C994 1.249 . S
C1015 O1011 1.251 . S
C1015 O1012 1.254 . S
H1016 C989 0.949 . S
H1017 C991 0.950 . S
H1018 C998 0.949 . S
H1019 C1000 0.950 . S
C1020 O1036 1.251 . S
C1020 O1038 1.254 . S
N1021 C1022 1.333 . S
N1021 C1026 1.307 . S
N1021 Zn1027 2.020 . S
C1022 N1021 1.333 . S
C1022 C1023 1.379 . S
C1022 H1040 0.952 . S
C1023 C1022 1.379 . S
C1023 C1024 1.390 . S
C1023 H1050 0.949 . S
C1024 C1023 1.390 . S
C1024 C1025 1.357 . S
C1025 C1024 1.357 . S
C1025 C1026 1.370 . S
C1025 H1051 0.950 . S
C1026 N1021 1.307 . S
C1026 C1025 1.370 . S
C1026 H1044 0.948 . S
Zn1027 N1021 2.020 . S
Zn1027 O1036 2.039 . S
Zn1027 O1042 2.034 . S
Zn1027 O1046 2.025 . S
Zn1027 O1048 2.024 . S
C1028 O1047 1.246 . S
C1028 O1048 1.249 . S
N1029 C1030 1.307 . S
N1029 C1031 1.333 . S
N1029 Zn1035 2.020 . S
C1030 N1029 1.307 . S
C1030 C1034 1.370 . S
C1030 H1041 0.948 . S
C1031 N1029 1.333 . S
C1031 C1032 1.379 . S
C1031 H1039 0.952 . S
C1032 C1031 1.379 . S
C1032 C1033 1.390 . S
C1032 H1052 0.949 . S
C1033 C1032 1.390 . S
C1033 C1034 1.357 . S
C1034 C1030 1.370 . S
C1034 C1033 1.357 . S
C1034 H1053 0.950 . S
Zn1035 N1029 2.020 . S
Zn1035 O1038 2.025 . S
Zn1035 O1043 2.024 . S
Zn1035 O1045 2.039 . S
Zn1035 O1047 2.034 . S
O1036 C1020 1.251 . S
O1036 Zn1027 2.039 . S
C1037 O1042 1.246 . S
C1037 O1043 1.249 . S
O1038 C1020 1.254 . S
O1038 Zn1035 2.025 . S
H1039 C1031 0.952 . S
H1040 C1022 0.952 . S
H1041 C1030 0.948 . S
O1042 Zn1027 2.034 . S
O1042 C1037 1.246 . S
O1043 Zn1035 2.024 . S
O1043 C1037 1.249 . S
H1044 C1026 0.948 . S
O1045 Zn1035 2.039 . S
O1045 C1049 1.251 . S
O1046 Zn1027 2.025 . S
O1046 C1049 1.254 . S
O1047 C1028 1.246 . S
O1047 Zn1035 2.034 . S
O1048 Zn1027 2.024 . S
O1048 C1028 1.249 . S
C1049 O1045 1.251 . S
C1049 O1046 1.254 . S
H1050 C1023 0.949 . S
H1051 C1025 0.950 . S
H1052 C1032 0.949 . S
H1053 C1034 0.950 . S
C1054 O1070 1.251 . S
C1054 O1072 1.254 . S
N1055 C1056 1.333 . S
N1055 C1060 1.307 . S
N1055 Zn1061 2.020 . S
C1056 N1055 1.333 . S
C1056 C1057 1.379 . S
C1056 H1074 0.952 . S
C1057 C1056 1.379 . S
C1057 C1058 1.390 . S
C1057 H1084 0.949 . S
C1058 C1057 1.390 . S
C1058 C1059 1.357 . S
C1059 C1058 1.357 . S
C1059 C1060 1.370 . S
C1059 H1085 0.950 . S
C1060 N1055 1.307 . S
C1060 C1059 1.370 . S
C1060 H1078 0.948 . S
Zn1061 N1055 2.020 . S
Zn1061 O1070 2.039 . S
Zn1061 O1076 2.034 . S
Zn1061 O1080 2.025 . S
Zn1061 O1082 2.024 . S
C1062 O1081 1.246 . S
C1062 O1082 1.249 . S
N1063 C1064 1.307 . S
N1063 C1065 1.333 . S
N1063 Zn1069 2.020 . S
C1064 N1063 1.307 . S
C1064 C1068 1.370 . S
C1064 H1075 0.948 . S
C1065 N1063 1.333 . S
C1065 C1066 1.379 . S
C1065 H1073 0.952 . S
C1066 C1065 1.379 . S
C1066 C1067 1.390 . S
C1066 H1086 0.949 . S
C1067 C1066 1.390 . S
C1067 C1068 1.357 . S
C1068 C1064 1.370 . S
C1068 C1067 1.357 . S
C1068 H1087 0.950 . S
Zn1069 N1063 2.020 . S
Zn1069 O1072 2.025 . S
Zn1069 O1077 2.024 . S
Zn1069 O1079 2.039 . S
Zn1069 O1081 2.034 . S
O1070 C1054 1.251 . S
O1070 Zn1061 2.039 . S
C1071 O1076 1.246 . S
C1071 O1077 1.249 . S
O1072 C1054 1.254 . S
O1072 Zn1069 2.025 . S
H1073 C1065 0.952 . S
H1074 C1056 0.952 . S
H1075 C1064 0.948 . S
O1076 Zn1061 2.034 . S
O1076 C1071 1.246 . S
O1077 Zn1069 2.024 . S
O1077 C1071 1.249 . S
H1078 C1060 0.948 . S
O1079 Zn1069 2.039 . S
O1079 C1083 1.251 . S
O1080 Zn1061 2.025 . S
O1080 C1083 1.254 . S
O1081 C1062 1.246 . S
O1081 Zn1069 2.034 . S
O1082 Zn1061 2.024 . S
O1082 C1062 1.249 . S
C1083 O1079 1.251 . S
C1083 O1080 1.254 . S
H1084 C1057 0.949 . S
H1085 C1059 0.950 . S
H1086 C1066 0.949 . S
H1087 C1068 0.950 . S
C1088 O1104 1.251 . S
C1088 O1106 1.254 . S
N1089 C1090 1.333 . S
N1089 C1094 1.307 . S
N1089 Zn1095 2.020 . S
C1090 N1089 1.333 . S
C1090 C1091 1.379 . S
C1090 H1108 0.952 . S
C1091 C1090 1.379 . S
C1091 C1092 1.390 . S
C1091 H1118 0.949 . S
C1092 C1091 1.390 . S
C1092 C1093 1.357 . S
C1093 C1092 1.357 . S
C1093 C1094 1.370 . S
C1093 H1119 0.950 . S
C1094 N1089 1.307 . S
C1094 C1093 1.370 . S
C1094 H1112 0.948 . S
Zn1095 N1089 2.020 . S
Zn1095 O1104 2.039 . S
Zn1095 O1110 2.034 . S
Zn1095 O1114 2.025 . S
Zn1095 O1116 2.024 . S
C1096 O1115 1.246 . S
C1096 O1116 1.249 . S
N1097 C1098 1.307 . S
N1097 C1099 1.333 . S
N1097 Zn1103 2.020 . S
C1098 N1097 1.307 . S
C1098 C1102 1.370 . S
C1098 H1109 0.948 . S
C1099 N1097 1.333 . S
C1099 C1100 1.379 . S
C1099 H1107 0.952 . S
C1100 C1099 1.379 . S
C1100 C1101 1.390 . S
C1100 H1120 0.949 . S
C1101 C1100 1.390 . S
C1101 C1102 1.357 . S
C1102 C1098 1.370 . S
C1102 C1101 1.357 . S
C1102 H1121 0.950 . S
Zn1103 N1097 2.020 . S
Zn1103 O1106 2.025 . S
Zn1103 O1111 2.024 . S
Zn1103 O1113 2.039 . S
Zn1103 O1115 2.034 . S
O1104 C1088 1.251 . S
O1104 Zn1095 2.039 . S
C1105 O1110 1.246 . S
C1105 O1111 1.249 . S
O1106 C1088 1.254 . S
O1106 Zn1103 2.025 . S
H1107 C1099 0.952 . S
H1108 C1090 0.952 . S
H1109 C1098 0.948 . S
O1110 Zn1095 2.034 . S
O1110 C1105 1.246 . S
O1111 Zn1103 2.024 . S
O1111 C1105 1.249 . S
H1112 C1094 0.948 . S
O1113 Zn1103 2.039 . S
O1113 C1117 1.251 . S
O1114 Zn1095 2.025 . S
O1114 C1117 1.254 . S
O1115 C1096 1.246 . S
O1115 Zn1103 2.034 . S
O1116 Zn1095 2.024 . S
O1116 C1096 1.249 . S
C1117 O1113 1.251 . S
C1117 O1114 1.254 . S
H1118 C1091 0.949 . S
H1119 C1093 0.950 . S
H1120 C1100 0.949 . S
H1121 C1102 0.950 . S
C1122 O1138 1.251 . S
C1122 O1140 1.254 . S
N1123 C1124 1.333 . S
N1123 C1128 1.307 . S
N1123 Zn1129 2.020 . S
C1124 N1123 1.333 . S
C1124 C1125 1.379 . S
C1124 H1142 0.952 . S
C1125 C1124 1.379 . S
C1125 C1126 1.390 . S
C1125 H1152 0.949 . S
C1126 C1125 1.390 . S
C1126 C1127 1.357 . S
C1127 C1126 1.357 . S
C1127 C1128 1.370 . S
C1127 H1153 0.950 . S
C1128 N1123 1.307 . S
C1128 C1127 1.370 . S
C1128 H1146 0.948 . S
Zn1129 N1123 2.020 . S
Zn1129 O1138 2.039 . S
Zn1129 O1144 2.034 . S
Zn1129 O1148 2.025 . S
Zn1129 O1150 2.024 . S
C1130 O1149 1.246 . S
C1130 O1150 1.249 . S
N1131 C1132 1.307 . S
N1131 C1133 1.333 . S
N1131 Zn1137 2.020 . S
C1132 N1131 1.307 . S
C1132 C1136 1.370 . S
C1132 H1143 0.948 . S
C1133 N1131 1.333 . S
C1133 C1134 1.379 . S
C1133 H1141 0.952 . S
C1134 C1133 1.379 . S
C1134 C1135 1.390 . S
C1134 H1154 0.949 . S
C1135 C1134 1.390 . S
C1135 C1136 1.357 . S
C1136 C1132 1.370 . S
C1136 C1135 1.357 . S
C1136 H1155 0.950 . S
Zn1137 N1131 2.020 . S
Zn1137 O1140 2.025 . S
Zn1137 O1145 2.024 . S
Zn1137 O1147 2.039 . S
Zn1137 O1149 2.034 . S
O1138 C1122 1.251 . S
O1138 Zn1129 2.039 . S
C1139 O1144 1.246 . S
C1139 O1145 1.249 . S
O1140 C1122 1.254 . S
O1140 Zn1137 2.025 . S
H1141 C1133 0.952 . S
H1142 C1124 0.952 . S
H1143 C1132 0.948 . S
O1144 Zn1129 2.034 . S
O1144 C1139 1.246 . S
O1145 Zn1137 2.024 . S
O1145 C1139 1.249 . S
H1146 C1128 0.948 . S
O1147 Zn1137 2.039 . S
O1147 C1151 1.251 . S
O1148 Zn1129 2.025 . S
O1148 C1151 1.254 . S
O1149 C1130 1.246 . S
O1149 Zn1137 2.034 . S
O1150 Zn1129 2.024 . S
O1150 C1130 1.249 . S
C1151 O1147 1.251 . S
C1151 O1148 1.254 . S
H1152 C1125 0.949 . S
H1153 C1127 0.950 . S
H1154 C1134 0.949 . S
H1155 C1136 0.950 . S
C1156 O1172 1.251 . S
C1156 O1174 1.254 . S
N1157 C1158 1.333 . S
N1157 C1162 1.307 . S
N1157 Zn1163 2.020 . S
C1158 N1157 1.333 . S
C1158 C1159 1.379 . S
C1158 H1176 0.952 . S
C1159 C1158 1.379 . S
C1159 C1160 1.390 . S
C1159 H1186 0.949 . S
C1160 C1159 1.390 . S
C1160 C1161 1.357 . S
C1161 C1160 1.357 . S
C1161 C1162 1.370 . S
C1161 H1187 0.950 . S
C1162 N1157 1.307 . S
C1162 C1161 1.370 . S
C1162 H1180 0.948 . S
Zn1163 N1157 2.020 . S
Zn1163 O1172 2.039 . S
Zn1163 O1178 2.034 . S
Zn1163 O1182 2.025 . S
Zn1163 O1184 2.024 . S
C1164 O1183 1.246 . S
C1164 O1184 1.249 . S
N1165 C1166 1.307 . S
N1165 C1167 1.333 . S
N1165 Zn1171 2.020 . S
C1166 N1165 1.307 . S
C1166 C1170 1.370 . S
C1166 H1177 0.948 . S
C1167 N1165 1.333 . S
C1167 C1168 1.379 . S
C1167 H1175 0.952 . S
C1168 C1167 1.379 . S
C1168 C1169 1.390 . S
C1168 H1188 0.949 . S
C1169 C1168 1.390 . S
C1169 C1170 1.357 . S
C1170 C1166 1.370 . S
C1170 C1169 1.357 . S
C1170 H1189 0.950 . S
Zn1171 N1165 2.020 . S
Zn1171 O1174 2.025 . S
Zn1171 O1179 2.024 . S
Zn1171 O1181 2.039 . S
Zn1171 O1183 2.034 . S
O1172 C1156 1.251 . S
O1172 Zn1163 2.039 . S
C1173 O1178 1.246 . S
C1173 O1179 1.249 . S
O1174 C1156 1.254 . S
O1174 Zn1171 2.025 . S
H1175 C1167 0.952 . S
H1176 C1158 0.952 . S
H1177 C1166 0.948 . S
O1178 Zn1163 2.034 . S
O1178 C1173 1.246 . S
O1179 Zn1171 2.024 . S
O1179 C1173 1.249 . S
H1180 C1162 0.948 . S
O1181 Zn1171 2.039 . S
O1181 C1185 1.251 . S
O1182 Zn1163 2.025 . S
O1182 C1185 1.254 . S
O1183 C1164 1.246 . S
O1183 Zn1171 2.034 . S
O1184 Zn1163 2.024 . S
O1184 C1164 1.249 . S
C1185 O1181 1.251 . S
C1185 O1182 1.254 . S
H1186 C1159 0.949 . S
H1187 C1161 0.950 . S
H1188 C1168 0.949 . S
H1189 C1170 0.950 . S
C1190 O1206 1.251 . S
C1190 O1208 1.254 . S
N1191 C1192 1.333 . S
N1191 C1196 1.307 . S
N1191 Zn1197 2.020 . S
C1192 N1191 1.333 . S
C1192 C1193 1.379 . S
C1192 H1210 0.952 . S
C1193 C1192 1.379 . S
C1193 C1194 1.390 . S
C1193 H1220 0.949 . S
C1194 C1193 1.390 . S
C1194 C1195 1.357 . S
C1195 C1194 1.357 . S
C1195 C1196 1.370 . S
C1195 H1221 0.950 . S
C1196 N1191 1.307 . S
C1196 C1195 1.370 . S
C1196 H1214 0.948 . S
Zn1197 N1191 2.020 . S
Zn1197 O1206 2.039 . S
Zn1197 O1212 2.034 . S
Zn1197 O1216 2.025 . S
Zn1197 O1218 2.024 . S
C1198 O1217 1.246 . S
C1198 O1218 1.249 . S
N1199 C1200 1.307 . S
N1199 C1201 1.333 . S
N1199 Zn1205 2.020 . S
C1200 N1199 1.307 . S
C1200 C1204 1.370 . S
C1200 H1211 0.948 . S
C1201 N1199 1.333 . S
C1201 C1202 1.379 . S
C1201 H1209 0.952 . S
C1202 C1201 1.379 . S
C1202 C1203 1.390 . S
C1202 H1222 0.949 . S
C1203 C1202 1.390 . S
C1203 C1204 1.357 . S
C1204 C1200 1.370 . S
C1204 C1203 1.357 . S
C1204 H1223 0.950 . S
Zn1205 N1199 2.020 . S
Zn1205 O1208 2.025 . S
Zn1205 O1213 2.024 . S
Zn1205 O1215 2.039 . S
Zn1205 O1217 2.034 . S
O1206 C1190 1.251 . S
O1206 Zn1197 2.039 . S
C1207 O1212 1.246 . S
C1207 O1213 1.249 . S
O1208 C1190 1.254 . S
O1208 Zn1205 2.025 . S
H1209 C1201 0.952 . S
H1210 C1192 0.952 . S
H1211 C1200 0.948 . S
O1212 Zn1197 2.034 . S
O1212 C1207 1.246 . S
O1213 Zn1205 2.024 . S
O1213 C1207 1.249 . S
H1214 C1196 0.948 . S
O1215 Zn1205 2.039 . S
O1215 C1219 1.251 . S
O1216 Zn1197 2.025 . S
O1216 C1219 1.254 . S
O1217 C1198 1.246 . S
O1217 Zn1205 2.034 . S
O1218 Zn1197 2.024 . S
O1218 C1198 1.249 . S
C1219 O1215 1.251 . S
C1219 O1216 1.254 . S
H1220 C1193 0.949 . S
H1221 C1195 0.950 . S
H1222 C1202 0.949 . S
H1223 C1204 0.950 . S
C1224 O1240 1.251 . S
C1224 O1242 1.254 . S
N1225 C1226 1.333 . S
N1225 C1230 1.307 . S
N1225 Zn1231 2.020 . S
C1226 N1225 1.333 . S
C1226 C1227 1.379 1_655 S
C1226 H1244 0.952 . S
C1227 C1226 1.379 1_455 S
C1227 C1228 1.390 . S
C1227 H1254 0.949 . S
C1228 C1227 1.390 . S
C1228 C1229 1.357 . S
C1229 C1228 1.357 . S
C1229 C1230 1.370 1_455 S
C1229 H1255 0.950 . S
C1230 N1225 1.307 . S
C1230 C1229 1.370 1_655 S
C1230 H1248 0.948 . S
Zn1231 N1225 2.020 . S
Zn1231 O1240 2.039 . S
Zn1231 O1246 2.034 . S
Zn1231 O1250 2.025 . S
Zn1231 O1252 2.024 . S
C1232 O1251 1.246 . S
C1232 O1252 1.249 . S
N1233 C1234 1.307 . S
N1233 C1235 1.333 . S
N1233 Zn1239 2.020 . S
C1234 N1233 1.307 . S
C1234 C1238 1.370 . S
C1234 H1245 0.948 . S
C1235 N1233 1.333 . S
C1235 C1236 1.379 . S
C1235 H1243 0.952 . S
C1236 C1235 1.379 . S
C1236 C1237 1.390 . S
C1236 H1256 0.949 . S
C1237 C1236 1.390 . S
C1237 C1238 1.357 . S
C1238 C1234 1.370 . S
C1238 C1237 1.357 . S
C1238 H1257 0.950 . S
Zn1239 N1233 2.020 . S
Zn1239 O1242 2.025 . S
Zn1239 O1247 2.024 . S
Zn1239 O1249 2.039 . S
Zn1239 O1251 2.034 . S
O1240 C1224 1.251 . S
O1240 Zn1231 2.039 . S
C1241 O1246 1.246 . S
C1241 O1247 1.249 . S
O1242 C1224 1.254 . S
O1242 Zn1239 2.025 . S
H1243 C1235 0.952 . S
H1244 C1226 0.952 . S
H1245 C1234 0.948 . S
O1246 Zn1231 2.034 . S
O1246 C1241 1.246 . S
O1247 Zn1239 2.024 . S
O1247 C1241 1.249 . S
H1248 C1230 0.948 . S
O1249 Zn1239 2.039 . S
O1249 C1253 1.251 . S
O1250 Zn1231 2.025 . S
O1250 C1253 1.254 . S
O1251 C1232 1.246 . S
O1251 Zn1239 2.034 . S
O1252 Zn1231 2.024 . S
O1252 C1232 1.249 . S
C1253 O1249 1.251 . S
C1253 O1250 1.254 . S
H1254 C1227 0.949 . S
H1255 C1229 0.950 . S
H1256 C1236 0.949 . S
H1257 C1238 0.950 . S
C1258 O1274 1.251 . S
C1258 O1276 1.254 . S
N1259 C1260 1.333 . S
N1259 C1264 1.307 . S
N1259 Zn1265 2.020 . S
C1260 N1259 1.333 . S
C1260 C1261 1.379 . S
C1260 H1278 0.952 . S
C1261 C1260 1.379 . S
C1261 C1262 1.390 . S
C1261 H1288 0.949 . S
C1262 C1261 1.390 . S
C1262 C1263 1.357 . S
C1263 C1262 1.357 . S
C1263 C1264 1.370 . S
C1263 H1289 0.950 . S
C1264 N1259 1.307 . S
C1264 C1263 1.370 . S
C1264 H1282 0.948 . S
Zn1265 N1259 2.020 . S
Zn1265 O1274 2.039 . S
Zn1265 O1280 2.034 . S
Zn1265 O1284 2.025 . S
Zn1265 O1286 2.024 . S
C1266 O1285 1.246 . S
C1266 O1286 1.249 . S
N1267 C1268 1.307 . S
N1267 C1269 1.333 . S
N1267 Zn1273 2.020 . S
C1268 N1267 1.307 . S
C1268 C1272 1.370 . S
C1268 H1279 0.948 . S
C1269 N1267 1.333 . S
C1269 C1270 1.379 . S
C1269 H1277 0.952 . S
C1270 C1269 1.379 . S
C1270 C1271 1.390 . S
C1270 H1290 0.949 . S
C1271 C1270 1.390 . S
C1271 C1272 1.357 . S
C1272 C1268 1.370 . S
C1272 C1271 1.357 . S
C1272 H1291 0.950 . S
Zn1273 N1267 2.020 . S
Zn1273 O1276 2.025 . S
Zn1273 O1281 2.024 . S
Zn1273 O1283 2.039 . S
Zn1273 O1285 2.034 . S
O1274 C1258 1.251 . S
O1274 Zn1265 2.039 . S
C1275 O1280 1.246 . S
C1275 O1281 1.249 . S
O1276 C1258 1.254 . S
O1276 Zn1273 2.025 . S
H1277 C1269 0.952 . S
H1278 C1260 0.952 . S
H1279 C1268 0.948 . S
O1280 Zn1265 2.034 . S
O1280 C1275 1.246 . S
O1281 Zn1273 2.024 . S
O1281 C1275 1.249 . S
H1282 C1264 0.948 . S
O1283 Zn1273 2.039 . S
O1283 C1287 1.251 . S
O1284 Zn1265 2.025 . S
O1284 C1287 1.254 . S
O1285 C1266 1.246 . S
O1285 Zn1273 2.034 . S
O1286 Zn1265 2.024 . S
O1286 C1266 1.249 . S
C1287 O1283 1.251 . S
C1287 O1284 1.254 . S
H1288 C1261 0.949 . S
H1289 C1263 0.950 . S
H1290 C1270 0.949 . S
H1291 C1272 0.950 . S
C1292 O1308 1.251 . S
C1292 O1310 1.254 . S
N1293 C1294 1.333 . S
N1293 C1298 1.307 . S
N1293 Zn1299 2.020 . S
C1294 N1293 1.333 . S
C1294 C1295 1.379 . S
C1294 H1312 0.952 . S
C1295 C1294 1.379 . S
C1295 C1296 1.390 . S
C1295 H1322 0.949 . S
C1296 C1295 1.390 . S
C1296 C1297 1.357 . S
C1297 C1296 1.357 . S
C1297 C1298 1.370 . S
C1297 H1323 0.950 . S
C1298 N1293 1.307 . S
C1298 C1297 1.370 . S
C1298 H1316 0.948 . S
Zn1299 N1293 2.020 . S
Zn1299 O1308 2.039 . S
Zn1299 O1314 2.034 . S
Zn1299 O1318 2.025 . S
Zn1299 O1320 2.024 . S
C1300 O1319 1.246 . S
C1300 O1320 1.249 . S
N1301 C1302 1.307 . S
N1301 C1303 1.333 . S
N1301 Zn1307 2.020 . S
C1302 N1301 1.307 . S
C1302 C1306 1.370 . S
C1302 H1313 0.948 . S
C1303 N1301 1.333 . S
C1303 C1304 1.379 . S
C1303 H1311 0.952 . S
C1304 C1303 1.379 . S
C1304 C1305 1.390 . S
C1304 H1324 0.949 . S
C1305 C1304 1.390 . S
C1305 C1306 1.357 . S
C1306 C1302 1.370 . S
C1306 C1305 1.357 . S
C1306 H1325 0.950 . S
Zn1307 N1301 2.020 . S
Zn1307 O1310 2.025 . S
Zn1307 O1315 2.024 . S
Zn1307 O1317 2.039 . S
Zn1307 O1319 2.034 . S
O1308 C1292 1.251 . S
O1308 Zn1299 2.039 . S
C1309 O1314 1.246 . S
C1309 O1315 1.249 . S
O1310 C1292 1.254 . S
O1310 Zn1307 2.025 . S
H1311 C1303 0.952 . S
H1312 C1294 0.952 . S
H1313 C1302 0.948 . S
O1314 Zn1299 2.034 . S
O1314 C1309 1.246 . S
O1315 Zn1307 2.024 . S
O1315 C1309 1.249 . S
H1316 C1298 0.948 . S
O1317 Zn1307 2.039 . S
O1317 C1321 1.251 . S
O1318 Zn1299 2.025 . S
O1318 C1321 1.254 . S
O1319 C1300 1.246 . S
O1319 Zn1307 2.034 . S
O1320 Zn1299 2.024 . S
O1320 C1300 1.249 . S
C1321 O1317 1.251 . S
C1321 O1318 1.254 . S
H1322 C1295 0.949 . S
H1323 C1297 0.950 . S
H1324 C1304 0.949 . S
H1325 C1306 0.950 . S
C1326 O1342 1.251 . S
C1326 O1344 1.254 . S
N1327 C1328 1.333 . S
N1327 C1332 1.307 . S
N1327 Zn1333 2.020 . S
C1328 N1327 1.333 . S
C1328 C1329 1.379 . S
C1328 H1346 0.952 . S
C1329 C1328 1.379 . S
C1329 C1330 1.390 . S
C1329 H1356 0.949 . S
C1330 C1329 1.390 . S
C1330 C1331 1.357 . S
C1331 C1330 1.357 . S
C1331 C1332 1.370 . S
C1331 H1357 0.950 . S
C1332 N1327 1.307 . S
C1332 C1331 1.370 . S
C1332 H1350 0.948 . S
Zn1333 N1327 2.020 . S
Zn1333 O1342 2.039 . S
Zn1333 O1348 2.034 . S
Zn1333 O1352 2.025 . S
Zn1333 O1354 2.024 . S
C1334 O1353 1.246 . S
C1334 O1354 1.249 . S
N1335 C1336 1.307 . S
N1335 C1337 1.333 . S
N1335 Zn1341 2.020 . S
C1336 N1335 1.307 . S
C1336 C1340 1.370 . S
C1336 H1347 0.948 . S
C1337 N1335 1.333 . S
C1337 C1338 1.379 . S
C1337 H1345 0.952 . S
C1338 C1337 1.379 . S
C1338 C1339 1.390 . S
C1338 H1358 0.949 . S
C1339 C1338 1.390 . S
C1339 C1340 1.357 . S
C1340 C1336 1.370 . S
C1340 C1339 1.357 . S
C1340 H1359 0.950 . S
Zn1341 N1335 2.020 . S
Zn1341 O1344 2.025 . S
Zn1341 O1349 2.024 . S
Zn1341 O1351 2.039 . S
Zn1341 O1353 2.034 . S
O1342 C1326 1.251 . S
O1342 Zn1333 2.039 . S
C1343 O1348 1.246 . S
C1343 O1349 1.249 . S
O1344 C1326 1.254 . S
O1344 Zn1341 2.025 . S
H1345 C1337 0.952 . S
H1346 C1328 0.952 . S
H1347 C1336 0.948 . S
O1348 Zn1333 2.034 . S
O1348 C1343 1.246 . S
O1349 Zn1341 2.024 . S
O1349 C1343 1.249 . S
H1350 C1332 0.948 . S
O1351 Zn1341 2.039 . S
O1351 C1355 1.251 . S
O1352 Zn1333 2.025 . S
O1352 C1355 1.254 . S
O1353 C1334 1.246 . S
O1353 Zn1341 2.034 . S
O1354 Zn1333 2.024 . S
O1354 C1334 1.249 . S
C1355 O1351 1.251 . S
C1355 O1352 1.254 . S
H1356 C1329 0.949 . S
H1357 C1331 0.950 . S
H1358 C1338 0.949 . S
H1359 C1340 0.950 . S
C1360 O1376 1.251 . S
C1360 O1378 1.254 . S
N1361 C1362 1.333 . S
N1361 C1366 1.307 . S
N1361 Zn1367 2.020 . S
C1362 N1361 1.333 . S
C1362 C1363 1.379 . S
C1362 H1380 0.952 . S
C1363 C1362 1.379 . S
C1363 C1364 1.390 . S
C1363 H1390 0.949 . S
C1364 C1363 1.390 . S
C1364 C1365 1.357 . S
C1365 C1364 1.357 . S
C1365 C1366 1.370 . S
C1365 H1391 0.950 . S
C1366 N1361 1.307 . S
C1366 C1365 1.370 . S
C1366 H1384 0.948 . S
Zn1367 N1361 2.020 . S
Zn1367 O1376 2.039 . S
Zn1367 O1382 2.034 . S
Zn1367 O1386 2.025 . S
Zn1367 O1388 2.024 . S
C1368 O1387 1.246 . S
C1368 O1388 1.249 . S
N1369 C1370 1.307 . S
N1369 C1371 1.333 . S
N1369 Zn1375 2.020 . S
C1370 N1369 1.307 . S
C1370 C1374 1.370 . S
C1370 H1381 0.948 . S
C1371 N1369 1.333 . S
C1371 C1372 1.379 . S
C1371 H1379 0.952 . S
C1372 C1371 1.379 . S
C1372 C1373 1.390 . S
C1372 H1392 0.949 . S
C1373 C1372 1.390 . S
C1373 C1374 1.357 . S
C1374 C1370 1.370 . S
C1374 C1373 1.357 . S
C1374 H1393 0.950 . S
Zn1375 N1369 2.020 . S
Zn1375 O1378 2.025 . S
Zn1375 O1383 2.024 . S
Zn1375 O1385 2.039 . S
Zn1375 O1387 2.034 . S
O1376 C1360 1.251 . S
O1376 Zn1367 2.039 . S
C1377 O1382 1.246 . S
C1377 O1383 1.249 . S
O1378 C1360 1.254 . S
O1378 Zn1375 2.025 . S
H1379 C1371 0.952 . S
H1380 C1362 0.952 . S
H1381 C1370 0.948 . S
O1382 Zn1367 2.034 . S
O1382 C1377 1.246 . S
O1383 Zn1375 2.024 . S
O1383 C1377 1.249 . S
H1384 C1366 0.948 . S
O1385 Zn1375 2.039 . S
O1385 C1389 1.251 . S
O1386 Zn1367 2.025 . S
O1386 C1389 1.254 . S
O1387 C1368 1.246 . S
O1387 Zn1375 2.034 . S
O1388 Zn1367 2.024 . S
O1388 C1368 1.249 . S
C1389 O1385 1.251 . S
C1389 O1386 1.254 . S
H1390 C1363 0.949 . S
H1391 C1365 0.950 . S
H1392 C1372 0.949 . S
H1393 C1374 0.950 . S
C1394 O1410 1.251 . S
C1394 O1412 1.254 . S
N1395 C1396 1.333 . S
N1395 C1400 1.307 . S
N1395 Zn1401 2.020 . S
C1396 N1395 1.333 . S
C1396 C1397 1.379 . S
C1396 H1414 0.952 . S
C1397 C1396 1.379 . S
C1397 C1398 1.390 . S
C1397 H1424 0.949 . S
C1398 C1397 1.390 . S
C1398 C1399 1.357 . S
C1399 C1398 1.357 . S
C1399 C1400 1.370 . S
C1399 H1425 0.950 . S
C1400 N1395 1.307 . S
C1400 C1399 1.370 . S
C1400 H1418 0.948 . S
Zn1401 N1395 2.020 . S
Zn1401 O1410 2.039 . S
Zn1401 O1416 2.034 . S
Zn1401 O1420 2.025 . S
Zn1401 O1422 2.024 . S
C1402 O1421 1.246 . S
C1402 O1422 1.249 . S
N1403 C1404 1.307 . S
N1403 C1405 1.333 . S
N1403 Zn1409 2.020 . S
C1404 N1403 1.307 . S
C1404 C1408 1.370 . S
C1404 H1415 0.948 . S
C1405 N1403 1.333 . S
C1405 C1406 1.379 . S
C1405 H1413 0.952 . S
C1406 C1405 1.379 . S
C1406 C1407 1.390 . S
C1406 H1426 0.949 . S
C1407 C1406 1.390 . S
C1407 C1408 1.357 . S
C1408 C1404 1.370 . S
C1408 C1407 1.357 . S
C1408 H1427 0.950 . S
Zn1409 N1403 2.020 . S
Zn1409 O1412 2.025 . S
Zn1409 O1417 2.024 . S
Zn1409 O1419 2.039 . S
Zn1409 O1421 2.034 . S
O1410 C1394 1.251 . S
O1410 Zn1401 2.039 . S
C1411 O1416 1.246 . S
C1411 O1417 1.249 . S
O1412 C1394 1.254 . S
O1412 Zn1409 2.025 . S
H1413 C1405 0.952 . S
H1414 C1396 0.952 . S
H1415 C1404 0.948 . S
O1416 Zn1401 2.034 . S
O1416 C1411 1.246 . S
O1417 Zn1409 2.024 . S
O1417 C1411 1.249 . S
H1418 C1400 0.948 . S
O1419 Zn1409 2.039 . S
O1419 C1423 1.251 . S
O1420 Zn1401 2.025 . S
O1420 C1423 1.254 . S
O1421 C1402 1.246 . S
O1421 Zn1409 2.034 . S
O1422 Zn1401 2.024 . S
O1422 C1402 1.249 . S
C1423 O1419 1.251 . S
C1423 O1420 1.254 . S
H1424 C1397 0.949 . S
H1425 C1399 0.950 . S
H1426 C1406 0.949 . S
H1427 C1408 0.950 . S
C1428 O1444 1.251 . S
C1428 O1446 1.254 . S
N1429 C1430 1.333 . S
N1429 C1434 1.307 . S
N1429 Zn1435 2.020 . S
C1430 N1429 1.333 . S
C1430 C1431 1.379 . S
C1430 H1448 0.952 . S
C1431 C1430 1.379 . S
C1431 C1432 1.390 . S
C1431 H1458 0.949 . S
C1432 C1431 1.390 . S
C1432 C1433 1.357 . S
C1433 C1432 1.357 . S
C1433 C1434 1.370 . S
C1433 H1459 0.950 . S
C1434 N1429 1.307 . S
C1434 C1433 1.370 . S
C1434 H1452 0.948 . S
Zn1435 N1429 2.020 . S
Zn1435 O1444 2.039 . S
Zn1435 O1450 2.034 . S
Zn1435 O1454 2.025 . S
Zn1435 O1456 2.024 . S
C1436 O1455 1.246 . S
C1436 O1456 1.249 . S
N1437 C1438 1.307 . S
N1437 C1439 1.333 . S
N1437 Zn1443 2.020 . S
C1438 N1437 1.307 . S
C1438 C1442 1.370 . S
C1438 H1449 0.948 . S
C1439 N1437 1.333 . S
C1439 C1440 1.379 . S
C1439 H1447 0.952 . S
C1440 C1439 1.379 . S
C1440 C1441 1.390 1_655 S
C1440 H1460 0.949 . S
C1441 C1440 1.390 1_455 S
C1441 C1442 1.357 1_455 S
C1442 C1438 1.370 . S
C1442 C1441 1.357 1_655 S
C1442 H1461 0.950 . S
Zn1443 N1437 2.020 . S
Zn1443 O1446 2.025 . S
Zn1443 O1451 2.024 . S
Zn1443 O1453 2.039 . S
Zn1443 O1455 2.034 . S
O1444 C1428 1.251 . S
O1444 Zn1435 2.039 . S
C1445 O1450 1.246 . S
C1445 O1451 1.249 . S
O1446 C1428 1.254 . S
O1446 Zn1443 2.025 . S
H1447 C1439 0.952 . S
H1448 C1430 0.952 . S
H1449 C1438 0.948 . S
O1450 Zn1435 2.034 . S
O1450 C1445 1.246 . S
O1451 Zn1443 2.024 . S
O1451 C1445 1.249 . S
H1452 C1434 0.948 . S
O1453 Zn1443 2.039 . S
O1453 C1457 1.251 . S
O1454 Zn1435 2.025 . S
O1454 C1457 1.254 . S
O1455 C1436 1.246 . S
O1455 Zn1443 2.034 . S
O1456 Zn1435 2.024 . S
O1456 C1436 1.249 . S
C1457 O1453 1.251 . S
C1457 O1454 1.254 . S
H1458 C1431 0.949 . S
H1459 C1433 0.950 . S
H1460 C1440 0.949 . S
H1461 C1442 0.950 . S
C1462 O1478 1.251 . S
C1462 O1480 1.254 . S
N1463 C1464 1.333 . S
N1463 C1468 1.307 . S
N1463 Zn1469 2.020 . S
C1464 N1463 1.333 . S
C1464 C1465 1.379 . S
C1464 H1482 0.952 . S
C1465 C1464 1.379 . S
C1465 C1466 1.390 . S
C1465 H1492 0.949 . S
C1466 C1465 1.390 . S
C1466 C1467 1.357 . S
C1467 C1466 1.357 . S
C1467 C1468 1.370 . S
C1467 H1493 0.950 . S
C1468 N1463 1.307 . S
C1468 C1467 1.370 . S
C1468 H1486 0.948 . S
Zn1469 N1463 2.020 . S
Zn1469 O1478 2.039 . S
Zn1469 O1484 2.034 . S
Zn1469 O1488 2.025 . S
Zn1469 O1490 2.024 . S
C1470 O1489 1.246 . S
C1470 O1490 1.249 . S
N1471 C1472 1.307 . S
N1471 C1473 1.333 . S
N1471 Zn1477 2.020 . S
C1472 N1471 1.307 . S
C1472 C1476 1.370 . S
C1472 H1483 0.948 . S
C1473 N1471 1.333 . S
C1473 C1474 1.379 . S
C1473 H1481 0.952 . S
C1474 C1473 1.379 . S
C1474 C1475 1.390 . S
C1474 H1494 0.949 . S
C1475 C1474 1.390 . S
C1475 C1476 1.357 . S
C1476 C1472 1.370 . S
C1476 C1475 1.357 . S
C1476 H1495 0.950 . S
Zn1477 N1471 2.020 . S
Zn1477 O1480 2.025 . S
Zn1477 O1485 2.024 . S
Zn1477 O1487 2.039 . S
Zn1477 O1489 2.034 . S
O1478 C1462 1.251 . S
O1478 Zn1469 2.039 . S
C1479 O1484 1.246 . S
C1479 O1485 1.249 . S
O1480 C1462 1.254 . S
O1480 Zn1477 2.025 . S
H1481 C1473 0.952 . S
H1482 C1464 0.952 . S
H1483 C1472 0.948 . S
O1484 Zn1469 2.034 . S
O1484 C1479 1.246 . S
O1485 Zn1477 2.024 . S
O1485 C1479 1.249 . S
H1486 C1468 0.948 . S
O1487 Zn1477 2.039 . S
O1487 C1491 1.251 . S
O1488 Zn1469 2.025 . S
O1488 C1491 1.254 . S
O1489 C1470 1.246 . S
O1489 Zn1477 2.034 . S
O1490 Zn1469 2.024 . S
O1490 C1470 1.249 . S
C1491 O1487 1.251 . S
C1491 O1488 1.254 . S
H1492 C1465 0.949 . S
H1493 C1467 0.950 . S
H1494 C1474 0.949 . S
H1495 C1476 0.950 . S
C1496 O1512 1.251 . S
C1496 O1514 1.254 . S
N1497 C1498 1.333 . S
N1497 C1502 1.307 . S
N1497 Zn1503 2.020 . S
C1498 N1497 1.333 . S
C1498 C1499 1.379 . S
C1498 H1516 0.952 . S
C1499 C1498 1.379 . S
C1499 C1500 1.390 . S
C1499 H1526 0.949 . S
C1500 C1499 1.390 . S
C1500 C1501 1.357 . S
C1501 C1500 1.357 . S
C1501 C1502 1.370 . S
C1501 H1527 0.950 . S
C1502 N1497 1.307 . S
C1502 C1501 1.370 . S
C1502 H1520 0.948 . S
Zn1503 N1497 2.020 . S
Zn1503 O1512 2.039 . S
Zn1503 O1518 2.034 . S
Zn1503 O1522 2.025 . S
Zn1503 O1524 2.024 . S
C1504 O1523 1.246 . S
C1504 O1524 1.249 . S
N1505 C1506 1.307 . S
N1505 C1507 1.333 . S
N1505 Zn1511 2.020 . S
C1506 N1505 1.307 . S
C1506 C1510 1.370 . S
C1506 H1517 0.948 . S
C1507 N1505 1.333 . S
C1507 C1508 1.379 . S
C1507 H1515 0.952 . S
C1508 C1507 1.379 . S
C1508 C1509 1.390 . S
C1508 H1528 0.949 . S
C1509 C1508 1.390 . S
C1509 C1510 1.357 . S
C1510 C1506 1.370 . S
C1510 C1509 1.357 . S
C1510 H1529 0.950 . S
Zn1511 N1505 2.020 . S
Zn1511 O1514 2.025 . S
Zn1511 O1519 2.024 . S
Zn1511 O1521 2.039 . S
Zn1511 O1523 2.034 . S
O1512 C1496 1.251 . S
O1512 Zn1503 2.039 . S
C1513 O1518 1.246 . S
C1513 O1519 1.249 . S
O1514 C1496 1.254 . S
O1514 Zn1511 2.025 . S
H1515 C1507 0.952 . S
H1516 C1498 0.952 . S
H1517 C1506 0.948 . S
O1518 Zn1503 2.034 . S
O1518 C1513 1.246 . S
O1519 Zn1511 2.024 . S
O1519 C1513 1.249 . S
H1520 C1502 0.948 . S
O1521 Zn1511 2.039 . S
O1521 C1525 1.251 . S
O1522 Zn1503 2.025 . S
O1522 C1525 1.254 . S
O1523 C1504 1.246 . S
O1523 Zn1511 2.034 . S
O1524 Zn1503 2.024 . S
O1524 C1504 1.249 . S
C1525 O1521 1.251 . S
C1525 O1522 1.254 . S
H1526 C1499 0.949 . S
H1527 C1501 0.950 . S
H1528 C1508 0.949 . S
H1529 C1510 0.950 . S
C1530 O1546 1.251 . S
C1530 O1548 1.254 . S
N1531 C1532 1.333 . S
N1531 C1536 1.307 . S
N1531 Zn1537 2.020 . S
C1532 N1531 1.333 . S
C1532 C1533 1.379 . S
C1532 H1550 0.952 . S
C1533 C1532 1.379 . S
C1533 C1534 1.390 . S
C1533 H1560 0.949 . S
C1534 C1533 1.390 . S
C1534 C1535 1.357 . S
C1535 C1534 1.357 . S
C1535 C1536 1.370 . S
C1535 H1561 0.950 . S
C1536 N1531 1.307 . S
C1536 C1535 1.370 . S
C1536 H1554 0.948 . S
Zn1537 N1531 2.020 . S
Zn1537 O1546 2.039 . S
Zn1537 O1552 2.034 . S
Zn1537 O1556 2.025 . S
Zn1537 O1558 2.024 . S
C1538 O1557 1.246 . S
C1538 O1558 1.249 . S
N1539 C1540 1.307 . S
N1539 C1541 1.333 . S
N1539 Zn1545 2.020 . S
C1540 N1539 1.307 . S
C1540 C1544 1.370 . S
C1540 H1551 0.948 . S
C1541 N1539 1.333 . S
C1541 C1542 1.379 . S
C1541 H1549 0.952 . S
C1542 C1541 1.379 . S
C1542 C1543 1.390 . S
C1542 H1562 0.949 . S
C1543 C1542 1.390 . S
C1543 C1544 1.357 . S
C1544 C1540 1.370 . S
C1544 C1543 1.357 . S
C1544 H1563 0.950 . S
Zn1545 N1539 2.020 . S
Zn1545 O1548 2.025 . S
Zn1545 O1553 2.024 . S
Zn1545 O1555 2.039 . S
Zn1545 O1557 2.034 . S
O1546 C1530 1.251 . S
O1546 Zn1537 2.039 . S
C1547 O1552 1.246 . S
C1547 O1553 1.249 . S
O1548 C1530 1.254 . S
O1548 Zn1545 2.025 . S
H1549 C1541 0.952 . S
H1550 C1532 0.952 . S
H1551 C1540 0.948 . S
O1552 Zn1537 2.034 . S
O1552 C1547 1.246 . S
O1553 Zn1545 2.024 . S
O1553 C1547 1.249 . S
H1554 C1536 0.948 . S
O1555 Zn1545 2.039 . S
O1555 C1559 1.251 . S
O1556 Zn1537 2.025 . S
O1556 C1559 1.254 . S
O1557 C1538 1.246 . S
O1557 Zn1545 2.034 . S
O1558 Zn1537 2.024 . S
O1558 C1538 1.249 . S
C1559 O1555 1.251 . S
C1559 O1556 1.254 . S
H1560 C1533 0.949 . S
H1561 C1535 0.950 . S
H1562 C1542 0.949 . S
H1563 C1544 0.950 . S
C1564 O1580 1.251 . S
C1564 O1582 1.254 . S
N1565 C1566 1.333 . S
N1565 C1570 1.307 . S
N1565 Zn1571 2.020 . S
C1566 N1565 1.333 . S
C1566 C1567 1.379 . S
C1566 H1584 0.952 . S
C1567 C1566 1.379 . S
C1567 C1568 1.390 . S
C1567 H1594 0.949 . S
C1568 C1567 1.390 . S
C1568 C1569 1.357 . S
C1569 C1568 1.357 . S
C1569 C1570 1.370 . S
C1569 H1595 0.950 . S
C1570 N1565 1.307 . S
C1570 C1569 1.370 . S
C1570 H1588 0.948 . S
Zn1571 N1565 2.020 . S
Zn1571 O1580 2.039 . S
Zn1571 O1586 2.034 . S
Zn1571 O1590 2.025 . S
Zn1571 O1592 2.024 . S
C1572 O1591 1.246 . S
C1572 O1592 1.249 . S
N1573 C1574 1.307 . S
N1573 C1575 1.333 . S
N1573 Zn1579 2.020 . S
C1574 N1573 1.307 . S
C1574 C1578 1.370 . S
C1574 H1585 0.948 . S
C1575 N1573 1.333 . S
C1575 C1576 1.379 . S
C1575 H1583 0.952 . S
C1576 C1575 1.379 . S
C1576 C1577 1.390 1_655 S
C1576 H1596 0.949 1_655 S
C1577 C1576 1.390 1_455 S
C1577 C1578 1.357 1_455 S
C1578 C1574 1.370 . S
C1578 C1577 1.357 1_655 S
C1578 H1597 0.971 . S
Zn1579 N1573 2.020 . S
Zn1579 O1582 2.025 . S
Zn1579 O1587 2.024 . S
Zn1579 O1589 2.039 . S
Zn1579 O1591 2.034 . S
O1580 C1564 1.251 . S
O1580 Zn1571 2.039 . S
C1581 O1586 1.246 . S
C1581 O1587 1.249 . S
O1582 C1564 1.254 . S
O1582 Zn1579 2.025 . S
H1583 C1575 0.952 . S
H1584 C1566 0.952 . S
H1585 C1574 0.948 . S
O1586 Zn1571 2.034 . S
O1586 C1581 1.246 . S
O1587 Zn1579 2.024 . S
O1587 C1581 1.249 . S
H1588 C1570 0.948 . S
O1589 Zn1579 2.039 . S
O1589 C1593 1.251 . S
O1590 Zn1571 2.025 . S
O1590 C1593 1.254 . S
O1591 C1572 1.246 . S
O1591 Zn1579 2.034 . S
O1592 Zn1571 2.024 . S
O1592 C1572 1.249 . S
C1593 O1589 1.251 . S
C1593 O1590 1.254 . S
H1594 C1567 0.949 . S
H1595 C1569 0.950 . S
H1596 C1576 0.949 1_455 S
H1597 C1578 0.971 . S
C1598 O1614 1.251 . S
C1598 O1616 1.254 . S
N1599 C1600 1.333 . S
N1599 C1604 1.307 . S
N1599 Zn1605 2.020 . S
C1600 N1599 1.333 . S
C1600 C1601 1.379 . S
C1600 H1618 0.952 . S
C1601 C1600 1.379 . S
C1601 C1602 1.390 . S
C1601 H1628 0.949 . S
C1602 C1601 1.390 . S
C1602 C1603 1.357 . S
C1603 C1602 1.357 . S
C1603 C1604 1.370 . S
C1603 H1629 0.950 . S
C1604 N1599 1.307 . S
C1604 C1603 1.370 . S
C1604 H1622 0.948 . S
Zn1605 N1599 2.020 . S
Zn1605 O1614 2.039 . S
Zn1605 O1620 2.034 . S
Zn1605 O1624 2.025 . S
Zn1605 O1626 2.024 . S
C1606 O1625 1.246 . S
C1606 O1626 1.249 . S
N1607 C1608 1.307 . S
N1607 C1609 1.333 . S
N1607 Zn1613 2.020 . S
C1608 N1607 1.307 . S
C1608 C1612 1.370 . S
C1608 H1619 0.948 . S
C1609 N1607 1.333 . S
C1609 C1610 1.379 . S
C1609 H1617 0.952 . S
C1610 C1609 1.379 . S
C1610 C1611 1.390 . S
C1610 H1630 0.949 . S
C1611 C1610 1.390 . S
C1611 C1612 1.357 . S
C1612 C1608 1.370 . S
C1612 C1611 1.357 . S
C1612 H1631 0.950 . S
Zn1613 N1607 2.020 . S
Zn1613 O1616 2.025 . S
Zn1613 O1621 2.024 . S
Zn1613 O1623 2.039 . S
Zn1613 O1625 2.034 . S
O1614 C1598 1.251 . S
O1614 Zn1605 2.039 . S
C1615 O1620 1.246 . S
C1615 O1621 1.249 . S
O1616 C1598 1.254 . S
O1616 Zn1613 2.025 . S
H1617 C1609 0.952 . S
H1618 C1600 0.952 . S
H1619 C1608 0.948 . S
O1620 Zn1605 2.034 . S
O1620 C1615 1.246 . S
O1621 Zn1613 2.024 . S
O1621 C1615 1.249 . S
H1622 C1604 0.948 . S
O1623 Zn1613 2.039 . S
O1623 C1627 1.251 . S
O1624 Zn1605 2.025 . S
O1624 C1627 1.254 . S
O1625 C1606 1.246 . S
O1625 Zn1613 2.034 . S
O1626 Zn1605 2.024 . S
O1626 C1606 1.249 . S
C1627 O1623 1.251 . S
C1627 O1624 1.254 . S
H1628 C1601 0.949 . S
H1629 C1603 0.950 . S
H1630 C1610 0.949 . S
H1631 C1612 0.950 . S
C1632 C1633 1.369 . S
C1632 C1634 1.419 . S
C1632 H1636 0.930 . S
C1633 C1632 1.369 . S
C1633 C1642 1.429 . S
C1634 C1632 1.419 . S
C1634 C1635 1.363 . S
C1634 H1637 0.929 . S
C1635 C1634 1.363 . S
C1635 C1641 1.428 1_455 S
H1636 C1632 0.930 . S
H1637 C1634 0.929 . S
S1638 N1639 1.613 . S
S1638 N1640 1.610 . S
N1639 S1638 1.613 . S
N1639 C1642 1.350 1_655 S
N1640 S1638 1.610 . S
N1640 C1641 1.351 . S
C1641 C1635 1.428 1_655 S
C1641 N1640 1.351 . S
C1641 C1642 1.434 1_655 S
C1642 C1633 1.429 . S
C1642 N1639 1.350 1_455 S
C1642 C1641 1.434 1_455 S
C1643 C1644 1.369 . S
C1643 C1645 1.419 . S
C1643 H1647 0.930 . S
C1644 C1643 1.369 . S
C1644 C1653 1.416 1_545 S
C1645 C1643 1.419 . S
C1645 C1646 1.363 . S
C1645 H1648 0.929 . S
C1646 C1645 1.363 . S
C1646 C1652 1.428 . S
H1647 C1643 0.930 . S
H1648 C1645 0.929 . S
S1649 N1650 1.613 . S
S1649 N1651 1.610 . S
N1650 S1649 1.613 . S
N1650 C1653 1.369 . S
N1651 S1649 1.610 . S
N1651 C1652 1.351 1_565 S
C1652 C1646 1.428 . S
C1652 N1651 1.351 1_545 S
C1652 C1653 1.430 1_545 S
C1653 C1644 1.416 1_565 S
C1653 N1650 1.369 . S
C1653 C1652 1.430 1_565 S
C1654 C1655 1.369 . S
C1654 C1656 1.419 . S
C1654 H1658 0.930 . S
C1655 C1654 1.369 . S
C1655 C1664 1.429 1_455 S
C1656 C1654 1.419 . S
C1656 C1657 1.363 . S
C1656 H1659 0.929 . S
C1657 C1656 1.363 . S
C1657 C1663 1.428 1_455 S
H1658 C1654 0.930 . S
H1659 C1656 0.929 . S
S1660 N1661 1.613 . S
S1660 N1662 1.610 . S
N1661 S1660 1.613 . S
N1661 C1664 1.350 . S
N1662 S1660 1.610 . S
N1662 C1663 1.351 . S
C1663 C1657 1.428 1_655 S
C1663 N1662 1.351 . S
C1663 C1664 1.434 . S
C1664 C1655 1.429 1_655 S
C1664 N1661 1.350 . S
C1664 C1663 1.434 . S
C1665 C1666 1.369 . S
C1665 C1667 1.419 . S
C1665 H1669 0.930 . S
C1666 C1665 1.369 . S
C1666 C1675 1.429 1_545 S
C1667 C1665 1.419 . S
C1667 C1668 1.363 . S
C1667 H1670 0.929 . S
C1668 C1667 1.363 . S
C1668 C1674 1.428 . S
H1669 C1665 0.930 . S
H1670 C1667 0.929 . S
S1671 N1672 1.613 . S
S1671 N1673 1.610 . S
N1672 S1671 1.613 . S
N1672 C1675 1.350 . S
N1673 S1671 1.610 . S
N1673 C1674 1.351 1_565 S
C1674 C1668 1.428 . S
C1674 N1673 1.351 1_545 S
C1674 C1675 1.434 1_545 S
C1675 C1666 1.429 1_565 S
C1675 N1672 1.350 . S
C1675 C1674 1.434 1_565 S
C1676 C1677 1.369 . S
C1676 C1678 1.419 . S
C1676 H1680 0.930 . S
C1677 C1676 1.369 . S
C1677 C1686 1.429 . S
C1678 C1676 1.419 . S
C1678 C1679 1.363 . S
C1678 H1681 0.929 . S
C1679 C1678 1.363 . S
C1679 C1685 1.428 . S
H1680 C1676 0.930 . S
H1681 C1678 0.929 . S
S1682 N1683 1.613 . S
S1682 N1684 1.610 . S
N1683 S1682 1.613 . S
N1683 C1686 1.350 . S
N1684 S1682 1.610 . S
N1684 C1685 1.351 . S
C1685 C1679 1.428 . S
C1685 N1684 1.351 . S
C1685 C1686 1.434 . S
C1686 C1677 1.429 . S
C1686 N1683 1.350 . S
C1686 C1685 1.434 . S
C1687 C1688 1.369 1_655 S
C1687 C1689 1.419 . S
C1687 H1691 0.930 . S
C1688 C1687 1.369 1_455 S
C1688 C1697 1.429 . S
C1689 C1687 1.419 . S
C1689 C1690 1.360 1_655 S
C1689 H1692 0.932 . S
C1690 C1689 1.360 1_455 S
C1690 C1696 1.428 . S
H1691 C1687 0.930 . S
H1692 C1689 0.932 . S
S1693 N1694 1.613 . S
S1693 N1695 1.610 . S
N1694 S1693 1.613 . S
N1694 C1697 1.350 . S
N1695 S1693 1.610 . S
N1695 C1696 1.351 . S
C1696 C1690 1.428 . S
C1696 N1695 1.351 . S
C1696 C1697 1.434 . S
C1697 C1688 1.429 . S
C1697 N1694 1.350 . S
C1697 C1696 1.434 . S
C1698 C1699 1.369 . S
C1698 C1700 1.419 . S
C1698 H1702 0.930 . S
C1699 C1698 1.369 . S
C1699 C1708 1.429 1_545 S
C1700 C1698 1.419 . S
C1700 C1701 1.363 . S
C1700 H1703 0.929 . S
C1701 C1700 1.363 . S
C1701 C1707 1.428 1_545 S
H1702 C1698 0.930 . S
H1703 C1700 0.929 . S
S1704 N1705 1.613 . S
S1704 N1706 1.610 . S
N1705 S1704 1.613 . S
N1705 C1708 1.350 . S
N1706 S1704 1.610 . S
N1706 C1707 1.351 . S
C1707 C1701 1.428 1_565 S
C1707 N1706 1.351 . S
C1707 C1708 1.434 . S
C1708 C1699 1.429 1_565 S
C1708 N1705 1.350 . S
C1708 C1707 1.434 . S
C1709 C1710 1.369 . S
C1709 C1711 1.419 . S
C1709 H1713 0.930 . S
C1710 C1709 1.369 . S
C1710 C1719 1.429 . S
C1711 C1709 1.419 . S
C1711 C1712 1.363 . S
C1711 H1714 0.929 . S
C1712 C1711 1.363 . S
C1712 C1718 1.428 . S
H1713 C1709 0.930 . S
H1714 C1711 0.929 . S
S1715 N1716 1.613 . S
S1715 N1717 1.610 . S
N1716 S1715 1.613 . S
N1716 C1719 1.350 . S
N1717 S1715 1.610 . S
N1717 C1718 1.351 . S
C1718 C1712 1.428 . S
C1718 N1717 1.351 . S
C1718 C1719 1.434 . S
C1719 C1710 1.429 . S
C1719 N1716 1.350 . S
C1719 C1718 1.434 . S
C1720 C1721 1.369 . S
C1720 C1722 1.419 . S
C1720 H1724 0.930 . S
C1721 C1720 1.369 . S
C1721 C1730 1.429 . S
C1722 C1720 1.419 . S
C1722 C1723 1.363 . S
C1722 H1725 0.929 . S
C1723 C1722 1.363 . S
C1723 C1729 1.428 . S
H1724 C1720 0.930 . S
H1725 C1722 0.929 . S
S1726 N1727 1.613 . S
S1726 N1728 1.610 . S
N1727 S1726 1.613 . S
N1727 C1730 1.350 . S
N1728 S1726 1.610 . S
N1728 C1729 1.351 . S
C1729 C1723 1.428 . S
C1729 N1728 1.351 . S
C1729 C1730 1.434 . S
C1730 C1721 1.429 . S
C1730 N1727 1.350 . S
C1730 C1729 1.434 . S
C1731 C1732 1.369 . S
C1731 C1733 1.419 . S
C1731 H1735 0.930 . S
C1732 C1731 1.369 . S
C1732 C1741 1.429 . S
C1733 C1731 1.419 . S
C1733 C1734 1.363 . S
C1733 H1736 0.929 . S
C1734 C1733 1.363 . S
C1734 C1740 1.428 . S
H1735 C1731 0.930 . S
H1736 C1733 0.929 . S
S1737 N1738 1.604 1_556 S
S1737 N1739 1.612 . S
N1738 S1737 1.604 1_554 S
N1738 C1741 1.350 . S
N1739 S1737 1.612 . S
N1739 C1740 1.351 1_556 S
C1740 C1734 1.428 . S
C1740 N1739 1.351 1_554 S
C1740 C1741 1.434 . S
C1741 C1732 1.429 . S
C1741 N1738 1.350 . S
C1741 C1740 1.434 . S
C1742 C1743 1.369 . S
C1742 C1744 1.419 . S
C1742 H1746 0.930 . S
C1743 C1742 1.369 . S
C1743 C1752 1.429 . S
C1744 C1742 1.419 . S
C1744 C1745 1.363 . S
C1744 H1747 0.930 . S
C1745 C1744 1.363 . S
C1745 C1751 1.428 . S
H1746 C1742 0.930 . S
H1747 C1744 0.930 . S
S1748 N1749 1.613 . S
S1748 N1750 1.610 . S
N1749 S1748 1.613 . S
N1749 C1752 1.350 . S
N1750 S1748 1.610 . S
N1750 C1751 1.351 . S
C1751 C1745 1.428 . S
C1751 N1750 1.351 . S
C1751 C1752 1.434 . S
C1752 C1743 1.429 . S
C1752 N1749 1.350 . S
C1752 C1751 1.434 . S
C1753 C1754 1.369 . S
C1753 C1755 1.403 1_554 S
C1753 H1757 0.930 . S
C1754 C1753 1.369 . S
C1754 C1763 1.429 . S
C1755 C1753 1.403 1_556 S
C1755 C1756 1.372 . S
C1755 H1758 0.936 . S
C1756 C1755 1.372 . S
C1756 C1762 1.428 . S
H1757 C1753 0.930 . S
H1758 C1755 0.936 . S
S1759 N1760 1.612 1_556 S
S1759 N1761 1.611 . S
N1760 S1759 1.612 1_554 S
N1760 C1763 1.350 . S
N1761 S1759 1.611 . S
N1761 C1762 1.351 . S
C1762 C1756 1.428 . S
C1762 N1761 1.351 . S
C1762 C1763 1.434 1_556 S
C1763 C1754 1.429 . S
C1763 N1760 1.350 . S
C1763 C1762 1.434 1_554 S
C1764 C1765 1.372 1_554 S
C1764 C1766 1.419 . S
C1764 H1768 0.930 . S
C1765 C1764 1.372 1_556 S
C1765 C1774 1.431 1_556 S
C1766 C1764 1.419 . S
C1766 C1767 1.363 . S
C1766 H1769 0.929 . S
C1767 C1766 1.363 . S
C1767 C1773 1.428 . S
H1768 C1764 0.930 . S
H1769 C1766 0.929 . S
S1770 N1771 1.613 . S
S1770 N1772 1.610 . S
N1771 S1770 1.613 . S
N1771 C1774 1.350 . S
N1772 S1770 1.610 . S
N1772 C1773 1.351 . S
C1773 C1767 1.428 . S
C1773 N1772 1.351 . S
C1773 C1774 1.434 . S
C1774 C1765 1.431 1_554 S
C1774 N1771 1.350 . S
C1774 C1773 1.434 . S
C1775 C1776 1.369 . S
C1775 C1777 1.419 . S
C1775 H1779 0.930 . S
C1776 C1775 1.369 . S
C1776 C1785 1.429 . S
C1777 C1775 1.419 . S
C1777 C1778 1.363 . S
C1777 H1780 0.929 . S
C1778 C1777 1.363 . S
C1778 C1784 1.428 . S
H1779 C1775 0.930 . S
H1780 C1777 0.929 . S
S1781 N1782 1.613 . S
S1781 N1783 1.610 . S
N1782 S1781 1.613 . S
N1782 C1785 1.350 . S
N1783 S1781 1.610 . S
N1783 C1784 1.351 . S
C1784 C1778 1.428 . S
C1784 N1783 1.351 . S
C1784 C1785 1.434 . S
C1785 C1776 1.429 . S
C1785 N1782 1.350 . S
C1785 C1784 1.434 . S
C1786 C1787 1.369 . S
C1786 C1788 1.419 . S
C1786 H1790 0.930 . S
C1787 C1786 1.369 . S
C1787 C1796 1.429 . S
C1788 C1786 1.419 . S
C1788 C1789 1.363 . S
C1788 H1791 0.929 . S
C1789 C1788 1.363 . S
C1789 C1795 1.428 . S
H1790 C1786 0.930 . S
H1791 C1788 0.929 . S
S1792 N1793 1.613 . S
S1792 N1794 1.610 . S
N1793 S1792 1.613 . S
N1793 C1796 1.350 . S
N1794 S1792 1.610 . S
N1794 C1795 1.351 . S
C1795 C1789 1.428 . S
C1795 N1794 1.351 . S
C1795 C1796 1.434 . S
C1796 C1787 1.429 . S
C1796 N1793 1.350 . S
C1796 C1795 1.434 . S
C1797 C1798 1.369 1_554 S
C1797 C1799 1.419 . S
C1797 H1801 0.930 1_554 S
C1798 C1797 1.369 1_556 S
C1798 C1807 1.429 1_556 S
C1799 C1797 1.419 . S
C1799 C1800 1.363 . S
C1799 H1802 0.929 . S
C1800 C1799 1.363 . S
C1800 C1806 1.428 . S
H1801 C1797 0.930 1_556 S
H1802 C1799 0.929 . S
S1803 N1804 1.613 . S
S1803 N1805 1.610 . S
N1804 S1803 1.613 . S
N1804 C1807 1.350 . S
N1805 S1803 1.610 . S
N1805 C1806 1.351 . S
C1806 C1800 1.428 . S
C1806 N1805 1.351 . S
C1806 C1807 1.434 . S
C1807 C1798 1.429 1_554 S
C1807 N1804 1.350 . S
C1807 C1806 1.434 . S
C1808 C1809 1.369 . S
C1808 C1810 1.419 . S
C1808 H1812 0.930 . S
C1809 C1808 1.369 . S
C1809 C1818 1.429 . S
C1810 C1808 1.419 . S
C1810 C1811 1.368 1_655 S
C1810 H1813 0.929 . S
C1811 C1810 1.368 1_455 S
C1811 C1817 1.428 1_455 S
H1812 C1808 0.930 . S
H1813 C1810 0.929 . S
S1814 N1815 1.613 1_455 S
S1814 N1816 1.610 . S
N1815 S1814 1.613 1_655 S
N1815 C1818 1.350 . S
N1816 S1814 1.610 . S
N1816 C1817 1.351 1_455 S
C1817 C1811 1.428 1_655 S
C1817 N1816 1.351 1_655 S
C1817 C1818 1.434 . S
C1818 C1809 1.429 . S
C1818 N1815 1.350 . S
C1818 C1817 1.434 . S
C1819 C1820 1.369 . S
C1819 C1821 1.419 1_565 S
C1819 H1823 0.930 . S
C1820 C1819 1.369 . S
C1820 C1829 1.429 1_565 S
C1821 C1819 1.419 1_545 S
C1821 C1822 1.363 . S
C1821 H1824 0.929 . S
C1822 C1821 1.363 . S
C1822 C1828 1.428 . S
H1823 C1819 0.930 . S
H1824 C1821 0.929 . S
S1825 N1826 1.597 1_545 S
S1825 N1827 1.610 . S
N1826 S1825 1.597 1_565 S
N1826 C1829 1.348 1_565 S
N1827 S1825 1.610 . S
N1827 C1828 1.351 . S
C1828 C1822 1.428 . S
C1828 N1827 1.351 . S
C1828 C1829 1.434 . S
C1829 C1820 1.429 1_545 S
C1829 N1826 1.348 1_545 S
C1829 C1828 1.434 . S
C1830 C1831 1.369 . S
C1830 C1832 1.419 . S
C1830 H1834 0.930 . S
C1831 C1830 1.369 . S
C1831 C1840 1.429 . S
C1832 C1830 1.419 . S
C1832 C1833 1.363 . S
C1832 H1835 0.929 . S
C1833 C1832 1.363 . S
C1833 C1839 1.428 . S
H1834 C1830 0.930 . S
H1835 C1832 0.929 . S
S1836 N1837 1.613 . S
S1836 N1838 1.610 . S
N1837 S1836 1.613 . S
N1837 C1840 1.350 . S
N1838 S1836 1.610 . S
N1838 C1839 1.351 . S
C1839 C1833 1.428 . S
C1839 N1838 1.351 . S
C1839 C1840 1.434 . S
C1840 C1831 1.429 . S
C1840 N1837 1.350 . S
C1840 C1839 1.434 . S
C1841 C1842 1.369 . S
C1841 C1843 1.419 . S
C1841 H1845 0.930 . S
C1842 C1841 1.369 . S
C1842 C1851 1.429 . S
C1843 C1841 1.419 . S
C1843 C1844 1.363 1_545 S
C1843 H1846 0.929 1_545 S
C1844 C1843 1.363 1_565 S
C1844 C1850 1.428 1_565 S
H1845 C1841 0.930 . S
H1846 C1843 0.929 1_565 S
S1847 N1848 1.613 . S
S1847 N1849 1.610 . S
N1848 S1847 1.613 . S
N1848 C1851 1.350 . S
N1849 S1847 1.610 . S
N1849 C1850 1.351 . S
C1850 C1844 1.428 1_545 S
C1850 N1849 1.351 . S
C1850 C1851 1.434 . S
C1851 C1842 1.429 . S
C1851 N1848 1.350 . S
C1851 C1850 1.434 . S
C1852 C1853 1.369 . S
C1852 C1854 1.419 1_565 S
C1852 H1856 0.930 . S
C1853 C1852 1.369 . S
C1853 C1862 1.429 1_565 S
C1854 C1852 1.419 1_545 S
C1854 C1855 1.363 . S
C1854 H1857 0.929 . S
C1855 C1854 1.363 . S
C1855 C1861 1.428 . S
H1856 C1852 0.930 . S
H1857 C1854 0.929 . S
S1858 N1859 1.613 . S
S1858 N1860 1.610 . S
N1859 S1858 1.613 . S
N1859 C1862 1.350 . S
N1860 S1858 1.610 . S
N1860 C1861 1.351 . S
C1861 C1855 1.428 . S
C1861 N1860 1.351 . S
C1861 C1862 1.434 . S
C1862 C1853 1.429 1_545 S
C1862 N1859 1.350 . S
C1862 C1861 1.434 . S
C1863 C1864 1.369 . S
C1863 C1865 1.419 . S
C1863 H1867 0.930 . S
C1864 C1863 1.369 . S
C1864 C1873 1.429 1_455 S
C1865 C1863 1.419 . S
C1865 C1866 1.363 . S
C1865 H1868 0.929 . S
C1866 C1865 1.363 . S
C1866 C1872 1.428 1_455 S
H1867 C1863 0.930 . S
H1868 C1865 0.929 . S
S1869 N1870 1.613 . S
S1869 N1871 1.610 . S
N1870 S1869 1.613 . S
N1870 C1873 1.350 . S
N1871 S1869 1.610 . S
N1871 C1872 1.351 . S
C1872 C1866 1.428 1_655 S
C1872 N1871 1.351 . S
C1872 C1873 1.434 . S
C1873 C1864 1.429 1_655 S
C1873 N1870 1.350 . S
C1873 C1872 1.434 . S
C1874 C1875 1.369 1_545 S
C1874 C1876 1.419 . S
C1874 H1878 0.930 . S
C1875 C1874 1.369 1_565 S
C1875 C1884 1.429 1_565 S
C1876 C1874 1.419 . S
C1876 C1877 1.363 . S
C1876 H1879 0.929 . S
C1877 C1876 1.363 . S
C1877 C1883 1.428 . S
H1878 C1874 0.930 . S
H1879 C1876 0.929 . S
S1880 N1881 1.613 1_545 S
S1880 N1882 1.610 . S
N1881 S1880 1.613 1_565 S
N1881 C1884 1.350 1_565 S
N1882 S1880 1.610 . S
N1882 C1883 1.351 . S
C1883 C1877 1.428 . S
C1883 N1882 1.351 . S
C1883 C1884 1.434 . S
C1884 C1875 1.429 1_545 S
C1884 N1881 1.350 1_545 S
C1884 C1883 1.434 . S
C1885 C1886 1.369 . S
C1885 C1887 1.419 . S
C1885 H1889 0.930 . S
C1886 C1885 1.369 . S
C1886 C1895 1.429 . S
C1887 C1885 1.419 . S
C1887 C1888 1.363 . S
C1887 H1890 0.929 . S
C1888 C1887 1.363 . S
C1888 C1894 1.428 . S
H1889 C1885 0.930 . S
H1890 C1887 0.929 . S
S1891 N1892 1.613 1_655 S
S1891 N1893 1.610 . S
N1892 S1891 1.613 1_455 S
N1892 C1895 1.350 . S
N1893 S1891 1.610 . S
N1893 C1894 1.351 1_655 S
C1894 C1888 1.428 . S
C1894 N1893 1.351 1_455 S
C1894 C1895 1.434 . S
C1895 C1886 1.429 . S
C1895 N1892 1.350 . S
C1895 C1894 1.434 . S
C1896 C1897 1.369 . S
C1896 C1898 1.430 . S
C1896 H1900 0.949 . S
C1897 C1896 1.369 . S
C1897 C1906 1.429 . S
C1898 C1896 1.430 . S
C1898 C1899 1.374 . S
C1898 H1901 0.907 1_455 S
C1899 C1898 1.374 . S
C1899 C1905 1.428 . S
H1900 C1896 0.949 . S
H1901 C1898 0.907 1_655 S
S1902 N1903 1.613 . S
S1902 N1904 1.610 . S
N1903 S1902 1.613 . S
N1903 C1906 1.350 . S
N1904 S1902 1.610 . S
N1904 C1905 1.351 . S
C1905 C1899 1.428 . S
C1905 N1904 1.351 . S
C1905 C1906 1.434 . S
C1906 C1897 1.429 . S
C1906 N1903 1.350 . S
C1906 C1905 1.434 . S
C1907 C1908 1.369 1_565 S
C1907 C1909 1.419 . S
C1907 H1911 0.930 . S
C1908 C1907 1.369 1_545 S
C1908 C1917 1.429 . S
C1909 C1907 1.419 . S
C1909 C1910 1.363 1_565 S
C1909 H1912 0.929 . S
C1910 C1909 1.363 1_545 S
C1910 C1916 1.428 . S
H1911 C1907 0.930 . S
H1912 C1909 0.929 . S
S1913 N1914 1.613 . S
S1913 N1915 1.610 . S
N1914 S1913 1.613 . S
N1914 C1917 1.350 . S
N1915 S1913 1.610 . S
N1915 C1916 1.351 . S
C1916 C1910 1.428 . S
C1916 N1915 1.351 . S
C1916 C1917 1.434 . S
C1917 C1908 1.429 . S
C1917 N1914 1.350 . S
C1917 C1916 1.434 . S
C1918 C1919 1.369 . S
C1918 C1920 1.419 . S
C1918 H1922 0.930 1_455 S
C1919 C1918 1.369 . S
C1919 C1928 1.429 . S
C1920 C1918 1.419 . S
C1920 C1921 1.363 . S
C1920 H1923 0.929 1_455 S
C1921 C1920 1.363 . S
C1921 C1927 1.428 . S
H1922 C1918 0.930 1_655 S
H1923 C1920 0.929 1_655 S
S1924 N1925 1.613 . S
S1924 N1926 1.610 . S
N1925 S1924 1.613 . S
N1925 C1928 1.350 . S
N1926 S1924 1.610 . S
N1926 C1927 1.351 . S
C1927 C1921 1.428 . S
C1927 N1926 1.351 . S
C1927 C1928 1.434 . S
C1928 C1919 1.429 . S
C1928 N1925 1.350 . S
C1928 C1927 1.434 . S
C1929 C1930 1.369 . S
C1929 C1931 1.419 . S
C1929 H1933 0.930 . S
C1930 C1929 1.369 . S
C1930 C1939 1.455 . S
C1931 C1929 1.419 . S
C1931 C1932 1.363 . S
C1931 H1934 0.929 . S
C1932 C1931 1.363 . S
C1932 C1938 1.428 1_545 S
H1933 C1929 0.930 . S
H1934 C1931 0.929 . S
S1935 N1936 1.613 . S
S1935 N1937 1.610 . S
N1936 S1935 1.613 . S
N1936 C1939 1.325 1_565 S
N1937 S1935 1.610 . S
N1937 C1938 1.351 . S
C1938 C1932 1.428 1_565 S
C1938 N1937 1.351 . S
C1938 C1939 1.431 1_565 S
C1939 C1930 1.455 . S
C1939 N1936 1.325 1_545 S
C1939 C1938 1.431 1_545 S
C1940 C1941 1.369 . S
C1940 C1942 1.419 . S
C1940 H1944 0.930 . S
C1941 C1940 1.369 . S
C1941 C1950 1.429 . S
C1942 C1940 1.419 . S
C1942 C1943 1.363 . S
C1942 H1945 0.929 . S
C1943 C1942 1.363 . S
C1943 C1949 1.428 . S
H1944 C1940 0.930 . S
H1945 C1942 0.929 . S
S1946 N1947 1.613 . S
S1946 N1948 1.610 . S
N1947 S1946 1.613 . S
N1947 C1950 1.350 1_655 S
N1948 S1946 1.610 . S
N1948 C1949 1.351 1_655 S
C1949 C1943 1.428 . S
C1949 N1948 1.351 1_455 S
C1949 C1950 1.434 . S
C1950 C1941 1.429 . S
C1950 N1947 1.350 1_455 S
C1950 C1949 1.434 . S
C1951 C1952 1.369 . S
C1951 C1953 1.419 . S
C1951 H1955 0.930 1_545 S
C1952 C1951 1.369 . S
C1952 C1961 1.429 . S
C1953 C1951 1.419 . S
C1953 C1954 1.363 . S
C1953 H1956 0.929 1_545 S
C1954 C1953 1.363 . S
C1954 C1960 1.428 . S
H1955 C1951 0.930 1_565 S
H1956 C1953 0.929 1_565 S
S1957 N1958 1.613 . S
S1957 N1959 1.610 . S
N1958 S1957 1.613 . S
N1958 C1961 1.350 . S
N1959 S1957 1.610 . S
N1959 C1960 1.351 . S
C1960 C1954 1.428 . S
C1960 N1959 1.351 . S
C1960 C1961 1.434 . S
C1961 C1952 1.429 . S
C1961 N1958 1.350 . S
C1961 C1960 1.434 . S
C1962 C1963 1.369 1_655 S
C1962 C1964 1.419 . S
C1962 H1966 0.930 . S
C1963 C1962 1.369 1_455 S
C1963 C1972 1.429 . S
C1964 C1962 1.419 . S
C1964 C1965 1.363 1_655 S
C1964 H1967 0.929 . S
C1965 C1964 1.363 1_455 S
C1965 C1971 1.428 . S
H1966 C1962 0.930 . S
H1967 C1964 0.929 . S
S1968 N1969 1.613 . S
S1968 N1970 1.610 . S
N1969 S1968 1.613 . S
N1969 C1972 1.350 . S
N1970 S1968 1.610 . S
N1970 C1971 1.351 . S
C1971 C1965 1.428 . S
C1971 N1970 1.351 . S
C1971 C1972 1.434 . S
C1972 C1963 1.429 . S
C1972 N1969 1.350 . S
C1972 C1971 1.434 . S
C1973 C1974 1.369 1_565 S
C1973 C1975 1.419 . S
C1973 H1977 0.930 . S
C1974 C1973 1.369 1_545 S
C1974 C1983 1.429 . S
C1975 C1973 1.419 . S
C1975 C1976 1.363 1_565 S
C1975 H1978 0.929 . S
C1976 C1975 1.363 1_545 S
C1976 C1982 1.428 . S
H1977 C1973 0.930 . S
H1978 C1975 0.929 . S
S1979 N1980 1.613 . S
S1979 N1981 1.610 . S
N1980 S1979 1.613 . S
N1980 C1983 1.350 . S
N1981 S1979 1.610 . S
N1981 C1982 1.351 . S
C1982 C1976 1.428 . S
C1982 N1981 1.351 . S
C1982 C1983 1.434 . S
C1983 C1974 1.429 . S
C1983 N1980 1.350 . S
C1983 C1982 1.434 . S
C1984 C1985 1.369 . S
C1984 C1986 1.419 . S
C1984 H1988 0.930 . S
C1985 C1984 1.369 . S
C1985 C1994 1.429 . S
C1986 C1984 1.419 . S
C1986 C1987 1.363 . S
C1986 H1989 0.929 . S
C1987 C1986 1.363 . S
C1987 C1993 1.428 . S
H1988 C1984 0.930 . S
H1989 C1986 0.929 . S
S1990 N1991 1.613 . S
S1990 N1992 1.610 . S
N1991 S1990 1.613 . S
N1991 C1994 1.350 . S
N1992 S1990 1.610 . S
N1992 C1993 1.351 . S
C1993 C1987 1.428 . S
C1993 N1992 1.351 . S
C1993 C1994 1.434 . S
C1994 C1985 1.429 . S
C1994 N1991 1.350 . S
C1994 C1993 1.434 . S
C1995 C1996 1.369 . S
C1995 C1997 1.419 . S
C1995 H1999 0.930 1_554 S
C1996 C1995 1.369 . S
C1996 C2005 1.429 . S
C1997 C1995 1.419 . S
C1997 C1998 1.363 . S
C1997 H2000 0.929 . S
C1998 C1997 1.363 . S
C1998 C2004 1.428 . S
H1999 C1995 0.930 1_556 S
H2000 C1997 0.929 . S
S2001 N2002 1.613 . S
S2001 N2003 1.610 . S
N2002 S2001 1.613 . S
N2002 C2005 1.350 . S
N2003 S2001 1.610 . S
N2003 C2004 1.351 . S
C2004 C1998 1.428 . S
C2004 N2003 1.351 . S
C2004 C2005 1.434 . S
C2005 C1996 1.429 . S
C2005 N2002 1.350 . S
C2005 C2004 1.434 . S
C2006 C2007 1.369 . S
C2006 C2008 1.419 . S
C2006 H2010 0.930 . S
C2007 C2006 1.369 . S
C2007 C2016 1.429 . S
C2008 C2006 1.419 . S
C2008 C2009 1.363 . S
C2008 H2011 0.929 . S
C2009 C2008 1.363 . S
C2009 C2015 1.428 . S
H2010 C2006 0.930 . S
H2011 C2008 0.929 . S
S2012 N2013 1.613 . S
S2012 N2014 1.610 . S
N2013 S2012 1.613 . S
N2013 C2016 1.350 . S
N2014 S2012 1.610 . S
N2014 C2015 1.351 . S
C2015 C2009 1.428 . S
C2015 N2014 1.351 . S
C2015 C2016 1.434 . S
C2016 C2007 1.429 . S
C2016 N2013 1.350 . S
C2016 C2015 1.434 . S
C2017 C2018 1.369 . S
C2017 C2019 1.419 . S
C2017 H2021 0.930 . S
C2018 C2017 1.369 . S
C2018 C2027 1.429 . S
C2019 C2017 1.419 . S
C2019 C2020 1.363 . S
C2019 H2022 0.929 . S
C2020 C2019 1.363 . S
C2020 C2026 1.428 . S
H2021 C2017 0.930 . S
H2022 C2019 0.929 . S
S2023 N2024 1.613 1_556 S
S2023 N2025 1.610 1_556 S
N2024 S2023 1.613 1_554 S
N2024 C2027 1.350 . S
N2025 S2023 1.610 1_554 S
N2025 C2026 1.351 . S
C2026 C2020 1.428 . S
C2026 N2025 1.351 . S
C2026 C2027 1.434 . S
C2027 C2018 1.429 . S
C2027 N2024 1.350 . S
C2027 C2026 1.434 . S
C2028 C2029 1.369 . S
C2028 C2030 1.419 . S
C2028 H2032 0.930 . S
C2029 C2028 1.369 . S
C2029 C2038 1.429 . S
C2030 C2028 1.419 . S
C2030 C2031 1.363 . S
C2030 H2033 0.929 . S
C2031 C2030 1.363 . S
C2031 C2037 1.428 . S
H2032 C2028 0.930 . S
H2033 C2030 0.929 . S
S2034 N2035 1.613 . S
S2034 N2036 1.610 . S
N2035 S2034 1.613 . S
N2035 C2038 1.350 . S
N2036 S2034 1.610 . S
N2036 C2037 1.351 . S
C2037 C2031 1.428 . S
C2037 N2036 1.351 . S
C2037 C2038 1.434 . S
C2038 C2029 1.429 . S
C2038 N2035 1.350 . S
C2038 C2037 1.434 . S
C2039 C2040 1.369 . S
C2039 C2041 1.419 . S
C2039 H2043 0.930 . S
C2040 C2039 1.369 . S
C2040 C2049 1.429 . S
C2041 C2039 1.419 . S
C2041 C2042 1.363 . S
C2041 H2044 0.929 . S
C2042 C2041 1.363 . S
C2042 C2048 1.428 . S
H2043 C2039 0.930 . S
H2044 C2041 0.929 . S
S2045 N2046 1.613 . S
S2045 N2047 1.610 . S
N2046 S2045 1.613 . S
N2046 C2049 1.350 . S
N2047 S2045 1.610 . S
N2047 C2048 1.351 . S
C2048 C2042 1.428 . S
C2048 N2047 1.351 . S
C2048 C2049 1.434 . S
C2049 C2040 1.429 . S
C2049 N2046 1.350 . S
C2049 C2048 1.434 . S
C2050 C2051 1.369 . S
C2050 C2052 1.419 . S
C2050 H2054 0.930 . S
C2051 C2050 1.369 . S
C2051 C2060 1.429 . S
C2052 C2050 1.419 . S
C2052 C2053 1.363 . S
C2052 H2055 0.929 . S
C2053 C2052 1.363 . S
C2053 C2059 1.428 . S
H2054 C2050 0.930 . S
H2055 C2052 0.929 . S
S2056 N2057 1.613 . S
S2056 N2058 1.610 . S
N2057 S2056 1.613 . S
N2057 C2060 1.350 . S
N2058 S2056 1.610 . S
N2058 C2059 1.351 . S
C2059 C2053 1.428 . S
C2059 N2058 1.351 . S
C2059 C2060 1.434 . S
C2060 C2051 1.429 . S
C2060 N2057 1.350 . S
C2060 C2059 1.434 . S
C2061 C2062 1.369 . S
C2061 C2063 1.419 . S
C2061 H2065 0.930 . S
C2062 C2061 1.369 . S
C2062 C2071 1.429 . S
C2063 C2061 1.419 . S
C2063 C2064 1.363 . S
C2063 H2066 0.929 . S
C2064 C2063 1.363 . S
C2064 C2070 1.428 . S
H2065 C2061 0.930 . S
H2066 C2063 0.929 . S
S2067 N2068 1.613 . S
S2067 N2069 1.610 . S
N2068 S2067 1.613 . S
N2068 C2071 1.350 . S
N2069 S2067 1.610 . S
N2069 C2070 1.351 . S
C2070 C2064 1.428 . S
C2070 N2069 1.351 . S
C2070 C2071 1.434 . S
C2071 C2062 1.429 . S
C2071 N2068 1.350 . S
C2071 C2070 1.434 . S
C2072 C2073 1.369 . S
C2072 C2074 1.419 . S
C2072 H2076 0.930 . S
C2073 C2072 1.369 . S
C2073 C2082 1.429 . S
C2074 C2072 1.419 . S
C2074 C2075 1.363 . S
C2074 H2077 0.929 . S
C2075 C2074 1.363 . S
C2075 C2081 1.428 . S
H2076 C2072 0.930 . S
H2077 C2074 0.929 . S
S2078 N2079 1.613 . S
S2078 N2080 1.610 . S
N2079 S2078 1.613 . S
N2079 C2082 1.350 . S
N2080 S2078 1.610 . S
N2080 C2081 1.351 . S
C2081 C2075 1.428 . S
C2081 N2080 1.351 . S
C2081 C2082 1.434 . S
C2082 C2073 1.429 . S
C2082 N2079 1.350 . S
C2082 C2081 1.434 . S
C2083 C2084 1.369 . S
C2083 C2085 1.419 . S
C2083 H2087 0.930 . S
C2084 C2083 1.369 . S
C2084 C2093 1.429 . S
C2085 C2083 1.419 . S
C2085 C2086 1.363 . S
C2085 H2088 0.929 . S
C2086 C2085 1.363 . S
C2086 C2092 1.428 . S
H2087 C2083 0.930 . S
H2088 C2085 0.929 . S
S2089 N2090 1.613 . S
S2089 N2091 1.610 . S
N2090 S2089 1.613 . S
N2090 C2093 1.350 . S
N2091 S2089 1.610 . S
N2091 C2092 1.351 . S
C2092 C2086 1.428 . S
C2092 N2091 1.351 . S
C2092 C2093 1.434 . S
C2093 C2084 1.429 . S
C2093 N2090 1.350 . S
C2093 C2092 1.434 . S
C2094 C2095 1.369 . S
C2094 C2096 1.419 . S
C2094 H2098 0.930 . S
C2095 C2094 1.369 . S
C2095 C2104 1.429 . S
C2096 C2094 1.419 . S
C2096 C2097 1.363 . S
C2096 H2099 0.929 . S
C2097 C2096 1.363 . S
C2097 C2103 1.428 . S
H2098 C2094 0.930 . S
H2099 C2096 0.929 . S
S2100 N2101 1.613 . S
S2100 N2102 1.610 . S
N2101 S2100 1.613 . S
N2101 C2104 1.350 . S
N2102 S2100 1.610 . S
N2102 C2103 1.351 . S
C2103 C2097 1.428 . S
C2103 N2102 1.351 . S
C2103 C2104 1.434 . S
C2104 C2095 1.429 . S
C2104 N2101 1.350 . S
C2104 C2103 1.434 . S
C2105 C2106 1.369 . S
C2105 C2107 1.419 . S
C2105 H2109 0.930 . S
C2106 C2105 1.369 . S
C2106 C2115 1.429 . S
C2107 C2105 1.419 . S
C2107 C2108 1.363 . S
C2107 H2110 0.929 . S
C2108 C2107 1.363 . S
C2108 C2114 1.428 . S
H2109 C2105 0.930 . S
H2110 C2107 0.929 . S
S2111 N2112 1.613 . S
S2111 N2113 1.610 . S
N2112 S2111 1.613 . S
N2112 C2115 1.350 . S
N2113 S2111 1.610 . S
N2113 C2114 1.351 . S
C2114 C2108 1.428 . S
C2114 N2113 1.351 . S
C2114 C2115 1.434 . S
C2115 C2106 1.429 . S
C2115 N2112 1.350 . S
C2115 C2114 1.434 . S
C2116 C2117 1.369 . S
C2116 C2118 1.419 . S
C2116 H2120 0.930 . S
C2117 C2116 1.369 . S
C2117 C2126 1.429 . S
C2118 C2116 1.419 . S
C2118 C2119 1.363 . S
C2118 H2121 0.929 . S
C2119 C2118 1.363 . S
C2119 C2125 1.428 . S
H2120 C2116 0.930 . S
H2121 C2118 0.929 . S
S2122 N2123 1.613 . S
S2122 N2124 1.610 . S
N2123 S2122 1.613 . S
N2123 C2126 1.350 . S
N2124 S2122 1.610 . S
N2124 C2125 1.351 . S
C2125 C2119 1.428 . S
C2125 N2124 1.351 . S
C2125 C2126 1.434 . S
C2126 C2117 1.429 . S
C2126 N2123 1.350 . S
C2126 C2125 1.434 . S
C2127 C2128 1.369 . S
C2127 C2129 1.419 . S
C2127 H2131 0.930 . S
C2128 C2127 1.369 . S
C2128 C2137 1.429 . S
C2129 C2127 1.419 . S
C2129 C2130 1.363 . S
C2129 H2132 0.929 . S
C2130 C2129 1.363 . S
C2130 C2136 1.428 . S
H2131 C2127 0.930 . S
H2132 C2129 0.929 . S
S2133 N2134 1.613 . S
S2133 N2135 1.610 . S
N2134 S2133 1.613 . S
N2134 C2137 1.350 . S
N2135 S2133 1.610 . S
N2135 C2136 1.351 . S
C2136 C2130 1.428 . S
C2136 N2135 1.351 . S
C2136 C2137 1.434 . S
C2137 C2128 1.429 . S
C2137 N2134 1.350 . S
C2137 C2136 1.434 . S
C2138 C2139 1.369 . S
C2138 C2140 1.419 . S
C2138 H2142 0.930 . S
C2139 C2138 1.369 . S
C2139 C2148 1.429 . S
C2140 C2138 1.419 . S
C2140 C2141 1.363 . S
C2140 H2143 0.929 . S
C2141 C2140 1.363 . S
C2141 C2147 1.428 . S
H2142 C2138 0.930 . S
H2143 C2140 0.929 . S
S2144 N2145 1.613 . S
S2144 N2146 1.610 . S
N2145 S2144 1.613 . S
N2145 C2148 1.350 . S
N2146 S2144 1.610 . S
N2146 C2147 1.351 . S
C2147 C2141 1.428 . S
C2147 N2146 1.351 . S
C2147 C2148 1.434 . S
C2148 C2139 1.429 . S
C2148 N2145 1.350 . S
C2148 C2147 1.434 . S
C2149 C2150 1.369 . S
C2149 C2151 1.419 . S
C2149 H2153 0.930 . S
C2150 C2149 1.369 . S
C2150 C2159 1.429 . S
C2151 C2149 1.419 . S
C2151 C2152 1.363 . S
C2151 H2154 0.929 . S
C2152 C2151 1.363 . S
C2152 C2158 1.428 . S
H2153 C2149 0.930 . S
H2154 C2151 0.929 . S
S2155 N2156 1.613 . S
S2155 N2157 1.610 . S
N2156 S2155 1.613 . S
N2156 C2159 1.350 . S
N2157 S2155 1.610 . S
N2157 C2158 1.351 . S
C2158 C2152 1.428 . S
C2158 N2157 1.351 . S
C2158 C2159 1.434 . S
C2159 C2150 1.429 . S
C2159 N2156 1.350 . S
C2159 C2158 1.434 . S
C2160 C2161 1.369 . S
C2160 C2162 1.419 . S
C2160 H2164 0.930 . S
C2161 C2160 1.369 . S
C2161 C2170 1.429 . S
C2162 C2160 1.419 . S
C2162 C2163 1.363 . S
C2162 H2165 0.929 . S
C2163 C2162 1.363 . S
C2163 C2169 1.428 . S
H2164 C2160 0.930 . S
H2165 C2162 0.929 . S
S2166 N2167 1.613 . S
S2166 N2168 1.610 . S
N2167 S2166 1.613 . S
N2167 C2170 1.350 . S
N2168 S2166 1.610 . S
N2168 C2169 1.351 . S
C2169 C2163 1.428 . S
C2169 N2168 1.351 . S
C2169 C2170 1.434 . S
C2170 C2161 1.429 . S
C2170 N2167 1.350 . S
C2170 C2169 1.434 . S
C2171 C2172 1.369 . S
C2171 C2173 1.419 . S
C2171 H2175 0.930 . S
C2172 C2171 1.369 . S
C2172 C2181 1.429 . S
C2173 C2171 1.419 . S
C2173 C2174 1.363 . S
C2173 H2176 0.929 . S
C2174 C2173 1.363 . S
C2174 C2180 1.428 . S
H2175 C2171 0.930 . S
H2176 C2173 0.929 . S
S2177 N2178 1.613 . S
S2177 N2179 1.610 . S
N2178 S2177 1.613 . S
N2178 C2181 1.350 . S
N2179 S2177 1.610 . S
N2179 C2180 1.351 . S
C2180 C2174 1.428 . S
C2180 N2179 1.351 . S
C2180 C2181 1.434 . S
C2181 C2172 1.429 . S
C2181 N2178 1.350 . S
C2181 C2180 1.434 . S
C2182 C2183 1.369 . S
C2182 C2184 1.419 . S
C2182 H2186 0.930 . S
C2183 C2182 1.369 . S
C2183 C2192 1.429 . S
C2184 C2182 1.419 . S
C2184 C2185 1.363 . S
C2184 H2187 0.929 . S
C2185 C2184 1.363 . S
C2185 C2191 1.428 . S
H2186 C2182 0.930 . S
H2187 C2184 0.929 . S
S2188 N2189 1.613 . S
S2188 N2190 1.610 . S
N2189 S2188 1.613 . S
N2189 C2192 1.350 . S
N2190 S2188 1.610 . S
N2190 C2191 1.351 . S
C2191 C2185 1.428 . S
C2191 N2190 1.351 . S
C2191 C2192 1.434 . S
C2192 C2183 1.429 . S
C2192 N2189 1.350 . S
C2192 C2191 1.434 . S
C2193 C2194 1.369 . S
C2193 C2195 1.419 . S
C2193 H2197 0.930 . S
C2194 C2193 1.369 . S
C2194 C2203 1.429 . S
C2195 C2193 1.419 . S
C2195 C2196 1.363 . S
C2195 H2198 0.929 . S
C2196 C2195 1.363 . S
C2196 C2202 1.428 . S
H2197 C2193 0.930 . S
H2198 C2195 0.929 . S
S2199 N2200 1.613 . S
S2199 N2201 1.610 . S
N2200 S2199 1.613 . S
N2200 C2203 1.350 . S
N2201 S2199 1.610 . S
N2201 C2202 1.351 . S
C2202 C2196 1.428 . S
C2202 N2201 1.351 . S
C2202 C2203 1.434 . S
C2203 C2194 1.429 . S
C2203 N2200 1.350 . S
C2203 C2202 1.434 . S
C2204 C2205 1.369 . S
C2204 C2206 1.419 . S
C2204 H2208 0.930 . S
C2205 C2204 1.369 . S
C2205 C2214 1.429 . S
C2206 C2204 1.419 . S
C2206 C2207 1.363 . S
C2206 H2209 0.929 . S
C2207 C2206 1.363 . S
C2207 C2213 1.428 . S
H2208 C2204 0.930 . S
H2209 C2206 0.929 . S
S2210 N2211 1.613 . S
S2210 N2212 1.610 . S
N2211 S2210 1.613 . S
N2211 C2214 1.350 . S
N2212 S2210 1.610 . S
N2212 C2213 1.351 . S
C2213 C2207 1.428 . S
C2213 N2212 1.351 . S
C2213 C2214 1.434 . S
C2214 C2205 1.429 . S
C2214 N2211 1.350 . S
C2214 C2213 1.434 . S
C2215 C2216 1.369 . S
C2215 C2217 1.419 . S
C2215 H2219 0.930 . S
C2216 C2215 1.369 . S
C2216 C2225 1.429 . S
C2217 C2215 1.419 . S
C2217 C2218 1.363 . S
C2217 H2220 0.929 . S
C2218 C2217 1.363 . S
C2218 C2224 1.428 . S
H2219 C2215 0.930 . S
H2220 C2217 0.929 . S
S2221 N2222 1.613 . S
S2221 N2223 1.610 . S
N2222 S2221 1.613 . S
N2222 C2225 1.350 . S
N2223 S2221 1.610 . S
N2223 C2224 1.351 . S
C2224 C2218 1.428 . S
C2224 N2223 1.351 . S
C2224 C2225 1.434 . S
C2225 C2216 1.429 . S
C2225 N2222 1.350 . S
C2225 C2224 1.434 . S
C2226 C2227 1.369 . S
C2226 C2228 1.419 . S
C2226 H2230 0.930 . S
C2227 C2226 1.369 . S
C2227 C2236 1.429 . S
C2228 C2226 1.419 . S
C2228 C2229 1.363 . S
C2228 H2231 0.929 . S
C2229 C2228 1.363 . S
C2229 C2235 1.428 . S
H2230 C2226 0.930 . S
H2231 C2228 0.929 . S
S2232 N2233 1.613 . S
S2232 N2234 1.610 . S
N2233 S2232 1.613 . S
N2233 C2236 1.350 . S
N2234 S2232 1.610 . S
N2234 C2235 1.351 . S
C2235 C2229 1.428 . S
C2235 N2234 1.351 . S
C2235 C2236 1.434 . S
C2236 C2227 1.429 . S
C2236 N2233 1.350 . S
C2236 C2235 1.434 . S
C2237 C2238 1.369 . S
C2237 C2239 1.419 . S
C2237 H2241 0.930 . S
C2238 C2237 1.369 . S
C2238 C2247 1.429 . S
C2239 C2237 1.419 . S
C2239 C2240 1.363 . S
C2239 H2242 0.929 . S
C2240 C2239 1.363 . S
C2240 C2246 1.428 . S
H2241 C2237 0.930 . S
H2242 C2239 0.929 . S
S2243 N2244 1.613 . S
S2243 N2245 1.610 . S
N2244 S2243 1.613 . S
N2244 C2247 1.350 . S
N2245 S2243 1.610 . S
N2245 C2246 1.351 . S
C2246 C2240 1.428 . S
C2246 N2245 1.351 . S
C2246 C2247 1.434 . S
C2247 C2238 1.429 . S
C2247 N2244 1.350 . S
C2247 C2246 1.434 . S
C2248 C2249 1.369 . S
C2248 C2250 1.419 . S
C2248 H2252 0.930 . S
C2249 C2248 1.369 . S
C2249 C2258 1.429 . S
C2250 C2248 1.419 . S
C2250 C2251 1.363 . S
C2250 H2253 0.929 . S
C2251 C2250 1.363 . S
C2251 C2257 1.428 . S
H2252 C2248 0.930 . S
H2253 C2250 0.929 . S
S2254 N2255 1.613 . S
S2254 N2256 1.610 . S
N2255 S2254 1.613 . S
N2255 C2258 1.350 . S
N2256 S2254 1.610 . S
N2256 C2257 1.351 . S
C2257 C2251 1.428 . S
C2257 N2256 1.351 . S
C2257 C2258 1.434 . S
C2258 C2249 1.429 . S
C2258 N2255 1.350 . S
C2258 C2257 1.434 . S
C2259 C2260 1.369 . S
C2259 C2261 1.419 . S
C2259 H2263 0.930 . S
C2260 C2259 1.369 . S
C2260 C2269 1.429 . S
C2261 C2259 1.419 . S
C2261 C2262 1.363 . S
C2261 H2264 0.929 . S
C2262 C2261 1.363 . S
C2262 C2268 1.428 . S
H2263 C2259 0.930 . S
H2264 C2261 0.929 . S
S2265 N2266 1.613 . S
S2265 N2267 1.610 . S
N2266 S2265 1.613 . S
N2266 C2269 1.350 . S
N2267 S2265 1.610 . S
N2267 C2268 1.351 . S
C2268 C2262 1.428 . S
C2268 N2267 1.351 . S
C2268 C2269 1.434 . S
C2269 C2260 1.429 . S
C2269 N2266 1.350 . S
C2269 C2268 1.434 . S
C2270 C2271 1.369 . S
C2270 C2272 1.419 . S
C2270 H2274 0.930 . S
C2271 C2270 1.369 . S
C2271 C2280 1.429 . S
C2272 C2270 1.419 . S
C2272 C2273 1.363 . S
C2272 H2275 0.929 . S
C2273 C2272 1.363 . S
C2273 C2279 1.428 . S
H2274 C2270 0.930 . S
H2275 C2272 0.929 . S
S2276 N2277 1.613 . S
S2276 N2278 1.610 . S
N2277 S2276 1.613 . S
N2277 C2280 1.350 . S
N2278 S2276 1.610 . S
N2278 C2279 1.351 . S
C2279 C2273 1.428 . S
C2279 N2278 1.351 . S
C2279 C2280 1.434 . S
C2280 C2271 1.429 . S
C2280 N2277 1.350 . S
C2280 C2279 1.434 . S
C2281 C2282 1.369 . S
C2281 C2283 1.419 . S
C2281 H2285 0.930 . S
C2282 C2281 1.369 . S
C2282 C2291 1.429 . S
C2283 C2281 1.419 . S
C2283 C2284 1.363 . S
C2283 H2286 0.929 . S
C2284 C2283 1.363 . S
C2284 C2290 1.428 . S
H2285 C2281 0.930 . S
H2286 C2283 0.929 . S
S2287 N2288 1.613 . S
S2287 N2289 1.610 . S
N2288 S2287 1.613 . S
N2288 C2291 1.350 . S
N2289 S2287 1.610 . S
N2289 C2290 1.351 . S
C2290 C2284 1.428 . S
C2290 N2289 1.351 . S
C2290 C2291 1.434 . S
C2291 C2282 1.429 . S
C2291 N2288 1.350 . S
C2291 C2290 1.434 . S
C2292 C2293 1.369 . S
C2292 C2294 1.419 . S
C2292 H2296 0.930 . S
C2293 C2292 1.369 . S
C2293 C2302 1.429 . S
C2294 C2292 1.419 . S
C2294 C2295 1.363 . S
C2294 H2297 0.929 . S
C2295 C2294 1.363 . S
C2295 C2301 1.428 . S
H2296 C2292 0.930 . S
H2297 C2294 0.929 . S
S2298 N2299 1.613 . S
S2298 N2300 1.610 . S
N2299 S2298 1.613 . S
N2299 C2302 1.350 . S
N2300 S2298 1.610 . S
N2300 C2301 1.351 . S
C2301 C2295 1.428 . S
C2301 N2300 1.351 . S
C2301 C2302 1.434 . S
C2302 C2293 1.429 . S
C2302 N2299 1.350 . S
C2302 C2301 1.434 . S
C2303 C2304 1.369 . S
C2303 C2305 1.419 . S
C2303 H2307 0.930 . S
C2304 C2303 1.369 . S
C2304 C2313 1.429 . S
C2305 C2303 1.419 . S
C2305 C2306 1.363 . S
C2305 H2308 0.929 . S
C2306 C2305 1.363 . S
C2306 C2312 1.428 . S
H2307 C2303 0.930 . S
H2308 C2305 0.929 . S
S2309 N2310 1.613 . S
S2309 N2311 1.610 . S
N2310 S2309 1.613 . S
N2310 C2313 1.350 . S
N2311 S2309 1.610 . S
N2311 C2312 1.351 . S
C2312 C2306 1.428 . S
C2312 N2311 1.351 . S
C2312 C2313 1.434 . S
C2313 C2304 1.429 . S
C2313 N2310 1.350 . S
C2313 C2312 1.434 . S
C2314 C2315 1.369 . S
C2314 C2316 1.419 . S
C2314 H2318 0.930 . S
C2315 C2314 1.369 . S
C2315 C2324 1.429 . S
C2316 C2314 1.419 . S
C2316 C2317 1.363 . S
C2316 H2319 0.929 . S
C2317 C2316 1.363 . S
C2317 C2323 1.428 . S
H2318 C2314 0.930 . S
H2319 C2316 0.929 . S
S2320 N2321 1.613 . S
S2320 N2322 1.610 1_554 S
N2321 S2320 1.613 . S
N2321 C2324 1.350 1_554 S
N2322 S2320 1.610 1_556 S
N2322 C2323 1.351 . S
C2323 C2317 1.428 . S
C2323 N2322 1.351 . S
C2323 C2324 1.434 . S
C2324 C2315 1.429 . S
C2324 N2321 1.350 1_556 S
C2324 C2323 1.434 . S
C2325 C2326 1.369 . S
C2325 C2327 1.419 . S
C2325 H2329 0.930 . S
C2326 C2325 1.369 . S
C2326 C2335 1.429 . S
C2327 C2325 1.419 . S
C2327 C2328 1.363 . S
C2327 H2330 0.929 . S
C2328 C2327 1.363 . S
C2328 C2334 1.428 . S
H2329 C2325 0.930 . S
H2330 C2327 0.929 . S
S2331 N2332 1.613 . S
S2331 N2333 1.610 . S
N2332 S2331 1.613 . S
N2332 C2335 1.350 . S
N2333 S2331 1.610 . S
N2333 C2334 1.351 . S
C2334 C2328 1.428 . S
C2334 N2333 1.351 . S
C2334 C2335 1.434 . S
C2335 C2326 1.429 . S
C2335 N2332 1.350 . S
C2335 C2334 1.434 . S
C2336 C2337 1.369 . S
C2336 C2338 1.419 . S
C2336 H2340 0.930 . S
C2337 C2336 1.369 . S
C2337 C2346 1.429 . S
C2338 C2336 1.419 . S
C2338 C2339 1.363 . S
C2338 H2341 0.929 . S
C2339 C2338 1.363 . S
C2339 C2345 1.428 . S
H2340 C2336 0.930 . S
H2341 C2338 0.929 . S
S2342 N2343 1.613 . S
S2342 N2344 1.610 . S
N2343 S2342 1.613 . S
N2343 C2346 1.350 . S
N2344 S2342 1.610 . S
N2344 C2345 1.351 . S
C2345 C2339 1.428 . S
C2345 N2344 1.351 . S
C2345 C2346 1.434 . S
C2346 C2337 1.429 . S
C2346 N2343 1.350 . S
C2346 C2345 1.434 . S
C2347 C2348 1.369 . S
C2347 C2349 1.419 . S
C2347 H2351 0.930 . S
C2348 C2347 1.369 . S
C2348 C2357 1.429 . S
C2349 C2347 1.419 . S
C2349 C2350 1.363 . S
C2349 H2352 0.929 . S
C2350 C2349 1.363 . S
C2350 C2356 1.428 . S
H2351 C2347 0.930 . S
H2352 C2349 0.929 . S
S2353 N2354 1.613 . S
S2353 N2355 1.610 1_554 S
N2354 S2353 1.613 . S
N2354 C2357 1.350 1_554 S
N2355 S2353 1.610 1_556 S
N2355 C2356 1.351 . S
C2356 C2350 1.428 . S
C2356 N2355 1.351 . S
C2356 C2357 1.434 . S
C2357 C2348 1.429 . S
C2357 N2354 1.350 1_556 S
C2357 C2356 1.434 . S
C2358 C2359 1.369 . S
C2358 C2360 1.419 . S
C2358 H2362 0.930 . S
C2359 C2358 1.369 . S
C2359 C2368 1.429 . S
C2360 C2358 1.419 . S
C2360 C2361 1.363 . S
C2360 H2363 0.929 . S
C2361 C2360 1.363 . S
C2361 C2367 1.428 . S
H2362 C2358 0.930 . S
H2363 C2360 0.929 . S
S2364 N2365 1.613 . S
S2364 N2366 1.610 . S
N2365 S2364 1.613 . S
N2365 C2368 1.350 . S
N2366 S2364 1.610 . S
N2366 C2367 1.351 . S
C2367 C2361 1.428 . S
C2367 N2366 1.351 . S
C2367 C2368 1.434 . S
C2368 C2359 1.429 . S
C2368 N2365 1.350 . S
C2368 C2367 1.434 . S
C2369 C2370 1.369 . S
C2369 C2371 1.419 . S
C2369 H2373 0.930 . S
C2370 C2369 1.369 . S
C2370 C2379 1.429 . S
C2371 C2369 1.419 . S
C2371 C2372 1.363 . S
C2371 H2374 0.929 . S
C2372 C2371 1.363 . S
C2372 C2378 1.428 . S
H2373 C2369 0.930 . S
H2374 C2371 0.929 . S
S2375 N2376 1.613 . S
S2375 N2377 1.610 . S
N2376 S2375 1.613 . S
N2376 C2379 1.350 . S
N2377 S2375 1.610 . S
N2377 C2378 1.351 . S
C2378 C2372 1.428 . S
C2378 N2377 1.351 . S
C2378 C2379 1.434 . S
C2379 C2370 1.429 . S
C2379 N2376 1.350 . S
C2379 C2378 1.434 . S
C2380 C2381 1.369 . S
C2380 C2382 1.419 . S
C2380 H2384 0.930 . S
C2381 C2380 1.369 . S
C2381 C2390 1.429 . S
C2382 C2380 1.419 . S
C2382 C2383 1.363 . S
C2382 H2385 0.929 . S
C2383 C2382 1.363 . S
C2383 C2389 1.428 . S
H2384 C2380 0.930 . S
H2385 C2382 0.929 . S
S2386 N2387 1.613 . S
S2386 N2388 1.610 . S
N2387 S2386 1.613 . S
N2387 C2390 1.350 . S
N2388 S2386 1.610 . S
N2388 C2389 1.351 . S
C2389 C2383 1.428 . S
C2389 N2388 1.351 . S
C2389 C2390 1.434 . S
C2390 C2381 1.429 . S
C2390 N2387 1.350 . S
C2390 C2389 1.434 . S
C2391 C2392 1.369 . S
C2391 C2393 1.419 . S
C2391 H2395 0.930 . S
C2392 C2391 1.369 . S
C2392 C2401 1.429 . S
C2393 C2391 1.419 . S
C2393 C2394 1.363 . S
C2393 H2396 0.929 . S
C2394 C2393 1.363 . S
C2394 C2400 1.428 . S
H2395 C2391 0.930 . S
H2396 C2393 0.929 . S
S2397 N2398 1.613 . S
S2397 N2399 1.610 . S
N2398 S2397 1.613 . S
N2398 C2401 1.350 . S
N2399 S2397 1.610 . S
N2399 C2400 1.351 . S
C2400 C2394 1.428 . S
C2400 N2399 1.351 . S
C2400 C2401 1.434 . S
C2401 C2392 1.429 . S
C2401 N2398 1.350 . S
C2401 C2400 1.434 . S
C2402 C2403 1.369 . S
C2402 C2404 1.419 . S
C2402 H2406 0.930 . S
C2403 C2402 1.369 . S
C2403 C2412 1.429 . S
C2404 C2402 1.419 . S
C2404 C2405 1.363 . S
C2404 H2407 0.929 . S
C2405 C2404 1.363 . S
C2405 C2411 1.428 . S
H2406 C2402 0.930 . S
H2407 C2404 0.929 . S
S2408 N2409 1.613 . S
S2408 N2410 1.610 . S
N2409 S2408 1.613 . S
N2409 C2412 1.350 . S
N2410 S2408 1.610 . S
N2410 C2411 1.351 . S
C2411 C2405 1.428 . S
C2411 N2410 1.351 . S
C2411 C2412 1.434 . S
C2412 C2403 1.429 . S
C2412 N2409 1.350 . S
C2412 C2411 1.434 . S
C2413 C2414 1.369 . S
C2413 C2415 1.419 . S
C2413 H2417 0.930 . S
C2414 C2413 1.369 . S
C2414 C2423 1.429 . S
C2415 C2413 1.419 . S
C2415 C2416 1.363 . S
C2415 H2418 0.929 . S
C2416 C2415 1.363 . S
C2416 C2422 1.428 . S
H2417 C2413 0.930 . S
H2418 C2415 0.929 . S
S2419 N2420 1.613 . S
S2419 N2421 1.610 . S
N2420 S2419 1.613 . S
N2420 C2423 1.350 . S
N2421 S2419 1.610 . S
N2421 C2422 1.351 . S
C2422 C2416 1.428 . S
C2422 N2421 1.351 . S
C2422 C2423 1.434 . S
C2423 C2414 1.429 . S
C2423 N2420 1.350 . S
C2423 C2422 1.434 . S
C2424 C2425 1.369 . S
C2424 C2426 1.419 . S
C2424 H2428 0.930 . S
C2425 C2424 1.369 . S
C2425 C2434 1.429 . S
C2426 C2424 1.419 . S
C2426 C2427 1.363 . S
C2426 H2429 0.929 . S
C2427 C2426 1.363 . S
C2427 C2433 1.428 . S
H2428 C2424 0.930 . S
H2429 C2426 0.929 . S
S2430 N2431 1.613 . S
S2430 N2432 1.610 . S
N2431 S2430 1.613 . S
N2431 C2434 1.350 . S
N2432 S2430 1.610 . S
N2432 C2433 1.351 . S
C2433 C2427 1.428 . S
C2433 N2432 1.351 . S
C2433 C2434 1.434 . S
C2434 C2425 1.429 . S
C2434 N2431 1.350 . S
C2434 C2433 1.434 . S
C2435 C2436 1.369 . S
C2435 C2437 1.419 . S
C2435 H2439 0.930 . S
C2436 C2435 1.369 . S
C2436 C2445 1.429 . S
C2437 C2435 1.419 . S
C2437 C2438 1.363 . S
C2437 H2440 0.929 . S
C2438 C2437 1.363 . S
C2438 C2444 1.428 . S
H2439 C2435 0.930 . S
H2440 C2437 0.929 . S
S2441 N2442 1.613 . S
S2441 N2443 1.610 . S
N2442 S2441 1.613 . S
N2442 C2445 1.350 . S
N2443 S2441 1.610 . S
N2443 C2444 1.351 . S
C2444 C2438 1.428 . S
C2444 N2443 1.351 . S
C2444 C2445 1.434 . S
C2445 C2436 1.429 . S
C2445 N2442 1.350 . S
C2445 C2444 1.434 . S
C2446 C2447 1.369 . S
C2446 C2448 1.419 . S
C2446 H2450 0.930 . S
C2447 C2446 1.369 . S
C2447 C2456 1.429 . S
C2448 C2446 1.419 . S
C2448 C2449 1.363 . S
C2448 H2451 0.929 . S
C2449 C2448 1.363 . S
C2449 C2455 1.428 . S
H2450 C2446 0.930 . S
H2451 C2448 0.929 . S
S2452 N2453 1.613 . S
S2452 N2454 1.610 . S
N2453 S2452 1.613 . S
N2453 C2456 1.350 . S
N2454 S2452 1.610 . S
N2454 C2455 1.351 . S
C2455 C2449 1.428 . S
C2455 N2454 1.351 . S
C2455 C2456 1.434 . S
C2456 C2447 1.429 . S
C2456 N2453 1.350 . S
C2456 C2455 1.434 . S
C2457 C2458 1.369 . S
C2457 C2459 1.419 . S
C2457 H2461 0.930 . S
C2458 C2457 1.369 . S
C2458 C2467 1.429 . S
C2459 C2457 1.419 . S
C2459 C2460 1.363 . S
C2459 H2462 0.929 . S
C2460 C2459 1.363 . S
C2460 C2466 1.428 . S
H2461 C2457 0.930 . S
H2462 C2459 0.929 . S
S2463 N2464 1.613 . S
S2463 N2465 1.610 . S
N2464 S2463 1.613 . S
N2464 C2467 1.350 . S
N2465 S2463 1.610 . S
N2465 C2466 1.351 . S
C2466 C2460 1.428 . S
C2466 N2465 1.351 . S
C2466 C2467 1.434 . S
C2467 C2458 1.429 . S
C2467 N2464 1.350 . S
C2467 C2466 1.434 . S
C2468 C2469 1.369 . S
C2468 C2470 1.419 . S
C2468 H2472 0.930 . S
C2469 C2468 1.369 . S
C2469 C2478 1.429 . S
C2470 C2468 1.419 . S
C2470 C2471 1.363 . S
C2470 H2473 0.929 . S
C2471 C2470 1.363 . S
C2471 C2477 1.428 . S
H2472 C2468 0.930 . S
H2473 C2470 0.929 . S
S2474 N2475 1.613 . S
S2474 N2476 1.610 . S
N2475 S2474 1.613 . S
N2475 C2478 1.350 . S
N2476 S2474 1.610 . S
N2476 C2477 1.351 . S
C2477 C2471 1.428 . S
C2477 N2476 1.351 . S
C2477 C2478 1.434 . S
C2478 C2469 1.429 . S
C2478 N2475 1.350 . S
C2478 C2477 1.434 . S
C2479 C2480 1.369 . S
C2479 C2481 1.419 . S
C2479 H2483 0.930 . S
C2480 C2479 1.369 . S
C2480 C2489 1.429 . S
C2481 C2479 1.419 . S
C2481 C2482 1.363 . S
C2481 H2484 0.929 . S
C2482 C2481 1.363 . S
C2482 C2488 1.428 . S
H2483 C2479 0.930 . S
H2484 C2481 0.929 . S
S2485 N2486 1.613 . S
S2485 N2487 1.610 . S
N2486 S2485 1.613 . S
N2486 C2489 1.350 . S
N2487 S2485 1.610 . S
N2487 C2488 1.351 . S
C2488 C2482 1.428 . S
C2488 N2487 1.351 . S
C2488 C2489 1.434 . S
C2489 C2480 1.429 . S
C2489 N2486 1.350 . S
C2489 C2488 1.434 . S
C2490 C2491 1.369 . S
C2490 C2492 1.419 . S
C2490 H2494 0.930 . S
C2491 C2490 1.369 . S
C2491 C2500 1.429 . S
C2492 C2490 1.419 . S
C2492 C2493 1.363 . S
C2492 H2495 0.929 . S
C2493 C2492 1.363 . S
C2493 C2499 1.428 . S
H2494 C2490 0.930 . S
H2495 C2492 0.929 . S
S2496 N2497 1.613 . S
S2496 N2498 1.610 . S
N2497 S2496 1.613 . S
N2497 C2500 1.350 . S
N2498 S2496 1.610 . S
N2498 C2499 1.351 . S
C2499 C2493 1.428 . S
C2499 N2498 1.351 . S
C2499 C2500 1.434 . S
C2500 C2491 1.429 . S
C2500 N2497 1.350 . S
C2500 C2499 1.434 . S
C2501 C2502 1.369 . S
C2501 C2503 1.419 . S
C2501 H2505 0.930 . S
C2502 C2501 1.369 . S
C2502 C2511 1.429 . S
C2503 C2501 1.419 . S
C2503 C2504 1.363 . S
C2503 H2506 0.929 . S
C2504 C2503 1.363 . S
C2504 C2510 1.428 . S
H2505 C2501 0.930 . S
H2506 C2503 0.929 . S
S2507 N2508 1.613 . S
S2507 N2509 1.610 . S
N2508 S2507 1.613 . S
N2508 C2511 1.350 . S
N2509 S2507 1.610 . S
N2509 C2510 1.351 . S
C2510 C2504 1.428 . S
C2510 N2509 1.351 . S
C2510 C2511 1.434 . S
C2511 C2502 1.429 . S
C2511 N2508 1.350 . S
C2511 C2510 1.434 . S
C2512 C2513 1.369 . S
C2512 C2514 1.419 . S
C2512 H2516 0.930 . S
C2513 C2512 1.369 . S
C2513 C2522 1.429 . S
C2514 C2512 1.419 . S
C2514 C2515 1.363 . S
C2514 H2517 0.929 . S
C2515 C2514 1.363 . S
C2515 C2521 1.428 . S
H2516 C2512 0.930 . S
H2517 C2514 0.929 . S
S2518 N2519 1.613 . S
S2518 N2520 1.610 . S
N2519 S2518 1.613 . S
N2519 C2522 1.350 . S
N2520 S2518 1.610 . S
N2520 C2521 1.351 . S
C2521 C2515 1.428 . S
C2521 N2520 1.351 . S
C2521 C2522 1.434 . S
C2522 C2513 1.429 . S
C2522 N2519 1.350 . S
C2522 C2521 1.434 . S
C2523 C2524 1.369 . S
C2523 C2525 1.419 . S
C2523 H2527 0.930 . S
C2524 C2523 1.369 . S
C2524 C2533 1.429 . S
C2525 C2523 1.419 . S
C2525 C2526 1.363 . S
C2525 H2528 0.929 . S
C2526 C2525 1.363 . S
C2526 C2532 1.428 . S
H2527 C2523 0.930 . S
H2528 C2525 0.929 . S
S2529 N2530 1.613 . S
S2529 N2531 1.610 . S
N2530 S2529 1.613 . S
N2530 C2533 1.350 . S
N2531 S2529 1.610 . S
N2531 C2532 1.351 . S
C2532 C2526 1.428 . S
C2532 N2531 1.351 . S
C2532 C2533 1.434 . S
C2533 C2524 1.429 . S
C2533 N2530 1.350 . S
C2533 C2532 1.434 . S
C2534 C2535 1.369 . S
C2534 C2536 1.419 . S
C2534 H2538 0.930 . S
C2535 C2534 1.369 . S
C2535 C2544 1.429 . S
C2536 C2534 1.419 . S
C2536 C2537 1.363 . S
C2536 H2539 0.929 . S
C2537 C2536 1.363 . S
C2537 C2543 1.428 . S
H2538 C2534 0.930 . S
H2539 C2536 0.929 . S
S2540 N2541 1.613 . S
S2540 N2542 1.610 . S
N2541 S2540 1.613 . S
N2541 C2544 1.350 . S
N2542 S2540 1.610 . S
N2542 C2543 1.351 . S
C2543 C2537 1.428 . S
C2543 N2542 1.351 . S
C2543 C2544 1.434 . S
C2544 C2535 1.429 . S
C2544 N2541 1.350 . S
C2544 C2543 1.434 . S
C2545 C2546 1.369 . S
C2545 C2547 1.419 . S
C2545 H2549 0.930 . S
C2546 C2545 1.369 . S
C2546 C2555 1.429 . S
C2547 C2545 1.419 . S
C2547 C2548 1.363 . S
C2547 H2550 0.929 . S
C2548 C2547 1.363 . S
C2548 C2554 1.428 . S
H2549 C2545 0.930 . S
H2550 C2547 0.929 . S
S2551 N2552 1.613 . S
S2551 N2553 1.610 . S
N2552 S2551 1.613 . S
N2552 C2555 1.350 . S
N2553 S2551 1.610 . S
N2553 C2554 1.351 . S
C2554 C2548 1.428 . S
C2554 N2553 1.351 . S
C2554 C2555 1.434 . S
C2555 C2546 1.429 . S
C2555 N2552 1.350 . S
C2555 C2554 1.434 . S
C2556 C2557 1.369 . S
C2556 C2558 1.419 . S
C2556 H2560 0.930 . S
C2557 C2556 1.369 . S
C2557 C2566 1.429 . S
C2558 C2556 1.419 . S
C2558 C2559 1.363 . S
C2558 H2561 0.929 . S
C2559 C2558 1.363 . S
C2559 C2565 1.428 . S
H2560 C2556 0.930 . S
H2561 C2558 0.929 . S
S2562 N2563 1.613 . S
S2562 N2564 1.610 . S
N2563 S2562 1.613 . S
N2563 C2566 1.350 . S
N2564 S2562 1.610 . S
N2564 C2565 1.351 . S
C2565 C2559 1.428 . S
C2565 N2564 1.351 . S
C2565 C2566 1.434 . S
C2566 C2557 1.429 . S
C2566 N2563 1.350 . S
C2566 C2565 1.434 . S
C2567 C2568 1.369 . S
C2567 C2569 1.419 . S
C2567 H2571 0.930 . S
C2568 C2567 1.369 . S
C2568 C2577 1.429 . S
C2569 C2567 1.419 . S
C2569 C2570 1.363 . S
C2569 H2572 0.929 . S
C2570 C2569 1.363 . S
C2570 C2576 1.428 . S
H2571 C2567 0.930 . S
H2572 C2569 0.929 . S
S2573 N2574 1.613 . S
S2573 N2575 1.610 . S
N2574 S2573 1.613 . S
N2574 C2577 1.350 . S
N2575 S2573 1.610 . S
N2575 C2576 1.351 . S
C2576 C2570 1.428 . S
C2576 N2575 1.351 . S
C2576 C2577 1.434 . S
C2577 C2568 1.429 . S
C2577 N2574 1.350 . S
C2577 C2576 1.434 . S
C2578 C2579 1.369 . S
C2578 C2580 1.419 . S
C2578 H2582 0.930 . S
C2579 C2578 1.369 . S
C2579 C2588 1.429 . S
C2580 C2578 1.419 . S
C2580 C2581 1.363 . S
C2580 H2583 0.929 . S
C2581 C2580 1.363 . S
C2581 C2587 1.428 . S
H2582 C2578 0.930 . S
H2583 C2580 0.929 . S
S2584 N2585 1.613 . S
S2584 N2586 1.610 . S
N2585 S2584 1.613 . S
N2585 C2588 1.350 . S
N2586 S2584 1.610 . S
N2586 C2587 1.351 . S
C2587 C2581 1.428 . S
C2587 N2586 1.351 . S
C2587 C2588 1.434 . S
C2588 C2579 1.429 . S
C2588 N2585 1.350 . S
C2588 C2587 1.434 . S
C2589 C2590 1.369 . S
C2589 C2591 1.419 . S
C2589 H2593 0.930 . S
C2590 C2589 1.369 . S
C2590 C2599 1.429 . S
C2591 C2589 1.419 . S
C2591 C2592 1.363 . S
C2591 H2594 0.929 . S
C2592 C2591 1.363 . S
C2592 C2598 1.428 . S
H2593 C2589 0.930 . S
H2594 C2591 0.929 . S
S2595 N2596 1.613 . S
S2595 N2597 1.610 . S
N2596 S2595 1.613 . S
N2596 C2599 1.350 . S
N2597 S2595 1.610 . S
N2597 C2598 1.351 . S
C2598 C2592 1.428 . S
C2598 N2597 1.351 . S
C2598 C2599 1.434 . S
C2599 C2590 1.429 . S
C2599 N2596 1.350 . S
C2599 C2598 1.434 . S
C2600 C2601 1.369 . S
C2600 C2602 1.419 . S
C2600 H2604 0.930 . S
C2601 C2600 1.369 . S
C2601 C2610 1.429 . S
C2602 C2600 1.419 . S
C2602 C2603 1.363 . S
C2602 H2605 0.929 . S
C2603 C2602 1.363 . S
C2603 C2609 1.428 . S
H2604 C2600 0.930 . S
H2605 C2602 0.929 . S
S2606 N2607 1.613 . S
S2606 N2608 1.610 . S
N2607 S2606 1.613 . S
N2607 C2610 1.350 . S
N2608 S2606 1.610 . S
N2608 C2609 1.351 . S
C2609 C2603 1.428 . S
C2609 N2608 1.351 . S
C2609 C2610 1.434 . S
C2610 C2601 1.429 . S
C2610 N2607 1.350 . S
C2610 C2609 1.434 . S
C2611 C2612 1.369 . S
C2611 C2613 1.419 . S
C2611 H2615 0.930 . S
C2612 C2611 1.369 . S
C2612 C2621 1.429 . S
C2613 C2611 1.419 . S
C2613 C2614 1.363 . S
C2613 H2616 0.929 . S
C2614 C2613 1.363 . S
C2614 C2620 1.428 . S
H2615 C2611 0.930 . S
H2616 C2613 0.929 . S
S2617 N2618 1.613 . S
S2617 N2619 1.610 . S
N2618 S2617 1.613 . S
N2618 C2621 1.350 . S
N2619 S2617 1.610 . S
N2619 C2620 1.351 . S
C2620 C2614 1.428 . S
C2620 N2619 1.351 . S
C2620 C2621 1.434 . S
C2621 C2612 1.429 . S
C2621 N2618 1.350 . S
C2621 C2620 1.434 . S
C2622 C2623 1.369 . S
C2622 C2624 1.419 . S
C2622 H2626 0.930 . S
C2623 C2622 1.369 . S
C2623 C2632 1.429 . S
C2624 C2622 1.419 . S
C2624 C2625 1.363 . S
C2624 H2627 0.929 . S
C2625 C2624 1.363 . S
C2625 C2631 1.428 . S
H2626 C2622 0.930 . S
H2627 C2624 0.929 . S
S2628 N2629 1.613 . S
S2628 N2630 1.610 . S
N2629 S2628 1.613 . S
N2629 C2632 1.350 . S
N2630 S2628 1.610 . S
N2630 C2631 1.351 . S
C2631 C2625 1.428 . S
C2631 N2630 1.351 . S
C2631 C2632 1.434 . S
C2632 C2623 1.429 . S
C2632 N2629 1.350 . S
C2632 C2631 1.434 . S
C2633 C2634 1.369 . S
C2633 C2635 1.419 . S
C2633 H2637 0.930 . S
C2634 C2633 1.369 . S
C2634 C2643 1.429 . S
C2635 C2633 1.419 . S
C2635 C2636 1.363 . S
C2635 H2638 0.929 . S
C2636 C2635 1.363 . S
C2636 C2642 1.428 . S
H2637 C2633 0.930 . S
H2638 C2635 0.929 . S
S2639 N2640 1.613 . S
S2639 N2641 1.610 . S
N2640 S2639 1.613 . S
N2640 C2643 1.350 . S
N2641 S2639 1.610 . S
N2641 C2642 1.351 . S
C2642 C2636 1.428 . S
C2642 N2641 1.351 . S
C2642 C2643 1.434 . S
C2643 C2634 1.429 . S
C2643 N2640 1.350 . S
C2643 C2642 1.434 . S
C2644 C2645 1.369 . S
C2644 C2646 1.419 . S
C2644 H2648 0.930 . S
C2645 C2644 1.369 . S
C2645 C2654 1.429 . S
C2646 C2644 1.419 . S
C2646 C2647 1.363 . S
C2646 H2649 0.929 . S
C2647 C2646 1.363 . S
C2647 C2653 1.428 . S
H2648 C2644 0.930 . S
H2649 C2646 0.929 . S
S2650 N2651 1.613 . S
S2650 N2652 1.610 . S
N2651 S2650 1.613 . S
N2651 C2654 1.350 . S
N2652 S2650 1.610 . S
N2652 C2653 1.351 . S
C2653 C2647 1.428 . S
C2653 N2652 1.351 . S
C2653 C2654 1.434 . S
C2654 C2645 1.429 . S
C2654 N2651 1.350 . S
C2654 C2653 1.434 . S
C2655 C2656 1.369 . S
C2655 C2657 1.419 . S
C2655 H2659 0.930 . S
C2656 C2655 1.369 . S
C2656 C2665 1.429 . S
C2657 C2655 1.419 . S
C2657 C2658 1.363 . S
C2657 H2660 0.929 . S
C2658 C2657 1.363 . S
C2658 C2664 1.428 . S
H2659 C2655 0.930 . S
H2660 C2657 0.929 . S
S2661 N2662 1.613 . S
S2661 N2663 1.610 . S
N2662 S2661 1.613 . S
N2662 C2665 1.350 . S
N2663 S2661 1.610 . S
N2663 C2664 1.351 . S
C2664 C2658 1.428 . S
C2664 N2663 1.351 . S
C2664 C2665 1.434 . S
C2665 C2656 1.429 . S
C2665 N2662 1.350 . S
C2665 C2664 1.434 . S
C2666 C2667 1.369 . S
C2666 C2668 1.419 . S
C2666 H2670 0.930 . S
C2667 C2666 1.369 . S
C2667 C2676 1.429 . S
C2668 C2666 1.419 . S
C2668 C2669 1.363 . S
C2668 H2671 0.929 . S
C2669 C2668 1.363 . S
C2669 C2675 1.428 . S
H2670 C2666 0.930 . S
H2671 C2668 0.929 . S
S2672 N2673 1.613 . S
S2672 N2674 1.610 . S
N2673 S2672 1.613 . S
N2673 C2676 1.350 . S
N2674 S2672 1.610 . S
N2674 C2675 1.351 . S
C2675 C2669 1.428 . S
C2675 N2674 1.351 . S
C2675 C2676 1.434 . S
C2676 C2667 1.429 . S
C2676 N2673 1.350 . S
C2676 C2675 1.434 . S
C2677 C2678 1.369 . S
C2677 C2679 1.419 . S
C2677 H2681 0.930 . S
C2678 C2677 1.369 . S
C2678 C2687 1.429 . S
C2679 C2677 1.419 . S
C2679 C2680 1.363 . S
C2679 H2682 0.929 . S
C2680 C2679 1.363 . S
C2680 C2686 1.428 . S
H2681 C2677 0.930 . S
H2682 C2679 0.929 . S
S2683 N2684 1.613 . S
S2683 N2685 1.610 . S
N2684 S2683 1.613 . S
N2684 C2687 1.350 . S
N2685 S2683 1.610 . S
N2685 C2686 1.351 . S
C2686 C2680 1.428 . S
C2686 N2685 1.351 . S
C2686 C2687 1.434 . S
C2687 C2678 1.429 . S
C2687 N2684 1.350 . S
C2687 C2686 1.434 . S
C2688 C2689 1.369 . S
C2688 C2690 1.419 . S
C2688 H2692 0.930 . S
C2689 C2688 1.369 . S
C2689 C2698 1.429 . S
C2690 C2688 1.419 . S
C2690 C2691 1.363 . S
C2690 H2693 0.929 . S
C2691 C2690 1.363 . S
C2691 C2697 1.428 . S
H2692 C2688 0.930 . S
H2693 C2690 0.929 . S
S2694 N2695 1.613 . S
S2694 N2696 1.610 . S
N2695 S2694 1.613 . S
N2695 C2698 1.350 . S
N2696 S2694 1.610 . S
N2696 C2697 1.351 . S
C2697 C2691 1.428 . S
C2697 N2696 1.351 . S
C2697 C2698 1.434 . S
C2698 C2689 1.429 . S
C2698 N2695 1.350 . S
C2698 C2697 1.434 . S
C2699 C2700 1.369 . S
C2699 C2701 1.419 . S
C2699 H2703 0.930 . S
C2700 C2699 1.369 . S
C2700 C2709 1.429 . S
C2701 C2699 1.419 . S
C2701 C2702 1.363 . S
C2701 H2704 0.929 . S
C2702 C2701 1.363 . S
C2702 C2708 1.428 . S
H2703 C2699 0.930 . S
H2704 C2701 0.929 . S
S2705 N2706 1.613 . S
S2705 N2707 1.610 . S
N2706 S2705 1.613 . S
N2706 C2709 1.350 . S
N2707 S2705 1.610 . S
N2707 C2708 1.351 . S
C2708 C2702 1.428 . S
C2708 N2707 1.351 . S
C2708 C2709 1.434 . S
C2709 C2700 1.429 . S
C2709 N2706 1.350 . S
C2709 C2708 1.434 . S
C2710 C2711 1.369 . S
C2710 C2712 1.419 . S
C2710 H2714 0.930 . S
C2711 C2710 1.369 . S
C2711 C2720 1.429 . S
C2712 C2710 1.419 . S
C2712 C2713 1.363 . S
C2712 H2715 0.929 . S
C2713 C2712 1.363 . S
C2713 C2719 1.428 . S
H2714 C2710 0.930 . S
H2715 C2712 0.929 . S
S2716 N2717 1.613 . S
S2716 N2718 1.610 . S
N2717 S2716 1.613 . S
N2717 C2720 1.350 . S
N2718 S2716 1.610 . S
N2718 C2719 1.351 . S
C2719 C2713 1.428 . S
C2719 N2718 1.351 . S
C2719 C2720 1.434 . S
C2720 C2711 1.429 . S
C2720 N2717 1.350 . S
C2720 C2719 1.434 . S
C2721 C2722 1.369 . S
C2721 C2723 1.419 . S
C2721 H2725 0.930 . S
C2722 C2721 1.369 . S
C2722 C2731 1.429 . S
C2723 C2721 1.419 . S
C2723 C2724 1.363 . S
C2723 H2726 0.929 . S
C2724 C2723 1.363 . S
C2724 C2730 1.428 . S
H2725 C2721 0.930 . S
H2726 C2723 0.929 . S
S2727 N2728 1.613 . S
S2727 N2729 1.610 . S
N2728 S2727 1.613 . S
N2728 C2731 1.350 . S
N2729 S2727 1.610 . S
N2729 C2730 1.351 . S
C2730 C2724 1.428 . S
C2730 N2729 1.351 . S
C2730 C2731 1.434 . S
C2731 C2722 1.429 . S
C2731 N2728 1.350 . S
C2731 C2730 1.434 . S
C2732 C2733 1.369 . S
C2732 C2734 1.419 . S
C2732 H2736 0.930 . S
C2733 C2732 1.369 . S
C2733 C2742 1.429 . S
C2734 C2732 1.419 . S
C2734 C2735 1.363 . S
C2734 H2737 0.929 . S
C2735 C2734 1.363 . S
C2735 C2741 1.428 . S
H2736 C2732 0.930 . S
H2737 C2734 0.929 . S
S2738 N2739 1.613 . S
S2738 N2740 1.610 . S
N2739 S2738 1.613 . S
N2739 C2742 1.350 . S
N2740 S2738 1.610 . S
N2740 C2741 1.351 . S
C2741 C2735 1.428 . S
C2741 N2740 1.351 . S
C2741 C2742 1.434 . S
C2742 C2733 1.429 . S
C2742 N2739 1.350 . S
C2742 C2741 1.434 . S
C2743 C2744 1.369 . S
C2743 C2745 1.419 . S
C2743 H2747 0.930 . S
C2744 C2743 1.369 . S
C2744 C2753 1.429 . S
C2745 C2743 1.419 . S
C2745 C2746 1.363 . S
C2745 H2748 0.929 . S
C2746 C2745 1.363 . S
C2746 C2752 1.428 . S
H2747 C2743 0.930 . S
H2748 C2745 0.929 . S
S2749 N2750 1.613 . S
S2749 N2751 1.610 . S
N2750 S2749 1.613 . S
N2750 C2753 1.350 . S
N2751 S2749 1.610 . S
N2751 C2752 1.351 . S
C2752 C2746 1.428 . S
C2752 N2751 1.351 . S
C2752 C2753 1.434 . S
C2753 C2744 1.429 . S
C2753 N2750 1.350 . S
C2753 C2752 1.434 . S
C2754 C2755 1.369 . S
C2754 C2756 1.419 . S
C2754 H2758 0.930 . S
C2755 C2754 1.369 . S
C2755 C2764 1.429 . S
C2756 C2754 1.419 . S
C2756 C2757 1.363 . S
C2756 H2759 0.929 . S
C2757 C2756 1.363 . S
C2757 C2763 1.428 . S
H2758 C2754 0.930 . S
H2759 C2756 0.929 . S
S2760 N2761 1.613 . S
S2760 N2762 1.610 . S
N2761 S2760 1.613 . S
N2761 C2764 1.350 . S
N2762 S2760 1.610 . S
N2762 C2763 1.351 . S
C2763 C2757 1.428 . S
C2763 N2762 1.351 . S
C2763 C2764 1.434 . S
C2764 C2755 1.429 . S
C2764 N2761 1.350 . S
C2764 C2763 1.434 . S
C2765 C2766 1.369 . S
C2765 C2767 1.419 . S
C2765 H2769 0.930 . S
C2766 C2765 1.369 . S
C2766 C2775 1.429 . S
C2767 C2765 1.419 . S
C2767 C2768 1.363 . S
C2767 H2770 0.929 . S
C2768 C2767 1.363 . S
C2768 C2774 1.428 . S
H2769 C2765 0.930 . S
H2770 C2767 0.929 . S
S2771 N2772 1.613 . S
S2771 N2773 1.610 . S
N2772 S2771 1.613 . S
N2772 C2775 1.350 . S
N2773 S2771 1.610 . S
N2773 C2774 1.351 . S
C2774 C2768 1.428 . S
C2774 N2773 1.351 . S
C2774 C2775 1.434 . S
C2775 C2766 1.429 . S
C2775 N2772 1.350 . S
C2775 C2774 1.434 . S
C2776 C2777 1.369 . S
C2776 C2778 1.419 . S
C2776 H2780 0.930 . S
C2777 C2776 1.369 . S
C2777 C2786 1.429 . S
C2778 C2776 1.419 . S
C2778 C2779 1.363 . S
C2778 H2781 0.929 . S
C2779 C2778 1.363 . S
C2779 C2785 1.428 . S
H2780 C2776 0.930 . S
H2781 C2778 0.929 . S
S2782 N2783 1.613 . S
S2782 N2784 1.610 . S
N2783 S2782 1.613 . S
N2783 C2786 1.350 . S
N2784 S2782 1.610 . S
N2784 C2785 1.351 . S
C2785 C2779 1.428 . S
C2785 N2784 1.351 . S
C2785 C2786 1.434 . S
C2786 C2777 1.429 . S
C2786 N2783 1.350 . S
C2786 C2785 1.434 . S
C2787 C2788 1.369 . S
C2787 C2789 1.419 . S
C2787 H2791 0.930 . S
C2788 C2787 1.369 . S
C2788 C2797 1.429 . S
C2789 C2787 1.419 . S
C2789 C2790 1.363 . S
C2789 H2792 0.929 . S
C2790 C2789 1.363 . S
C2790 C2796 1.428 . S
H2791 C2787 0.930 . S
H2792 C2789 0.929 . S
S2793 N2794 1.613 . S
S2793 N2795 1.610 . S
N2794 S2793 1.613 . S
N2794 C2797 1.350 . S
N2795 S2793 1.610 . S
N2795 C2796 1.351 . S
C2796 C2790 1.428 . S
C2796 N2795 1.351 . S
C2796 C2797 1.434 . S
C2797 C2788 1.429 . S
C2797 N2794 1.350 . S
C2797 C2796 1.434 . S
C2798 C2799 1.369 . S
C2798 C2800 1.419 . S
C2798 H2802 0.930 . S
C2799 C2798 1.369 . S
C2799 C2808 1.429 . S
C2800 C2798 1.419 . S
C2800 C2801 1.363 . S
C2800 H2803 0.929 . S
C2801 C2800 1.363 . S
C2801 C2807 1.428 . S
H2802 C2798 0.930 . S
H2803 C2800 0.929 . S
S2804 N2805 1.613 . S
S2804 N2806 1.610 . S
N2805 S2804 1.613 . S
N2805 C2808 1.350 . S
N2806 S2804 1.610 . S
N2806 C2807 1.351 . S
C2807 C2801 1.428 . S
C2807 N2806 1.351 . S
C2807 C2808 1.434 . S
C2808 C2799 1.429 . S
C2808 N2805 1.350 . S
C2808 C2807 1.434 . S
C2809 C2810 1.369 . S
C2809 C2811 1.419 . S
C2809 H2813 0.930 . S
C2810 C2809 1.369 . S
C2810 C2819 1.429 . S
C2811 C2809 1.419 . S
C2811 C2812 1.363 . S
C2811 H2814 0.929 . S
C2812 C2811 1.363 . S
C2812 C2818 1.428 . S
H2813 C2809 0.930 . S
H2814 C2811 0.929 . S
S2815 N2816 1.613 . S
S2815 N2817 1.610 . S
N2816 S2815 1.613 . S
N2816 C2819 1.350 . S
N2817 S2815 1.610 . S
N2817 C2818 1.351 . S
C2818 C2812 1.428 . S
C2818 N2817 1.351 . S
C2818 C2819 1.434 . S
C2819 C2810 1.429 . S
C2819 N2816 1.350 . S
C2819 C2818 1.434 . S
C2820 C2821 1.369 . S
C2820 C2822 1.419 . S
C2820 H2824 0.930 . S
C2821 C2820 1.369 . S
C2821 C2830 1.429 . S
C2822 C2820 1.419 . S
C2822 C2823 1.363 . S
C2822 H2825 0.929 . S
C2823 C2822 1.363 . S
C2823 C2829 1.428 . S
H2824 C2820 0.930 . S
H2825 C2822 0.929 . S
S2826 N2827 1.613 . S
S2826 N2828 1.610 . S
N2827 S2826 1.613 . S
N2827 C2830 1.350 . S
N2828 S2826 1.610 . S
N2828 C2829 1.351 . S
C2829 C2823 1.428 . S
C2829 N2828 1.351 . S
C2829 C2830 1.434 . S
C2830 C2821 1.429 . S
C2830 N2827 1.350 . S
C2830 C2829 1.434 . S
C2831 C2832 1.369 . S
C2831 C2833 1.419 . S
C2831 H2835 0.930 . S
C2832 C2831 1.369 . S
C2832 C2841 1.429 . S
C2833 C2831 1.419 . S
C2833 C2834 1.363 . S
C2833 H2836 0.929 . S
C2834 C2833 1.363 . S
C2834 C2840 1.428 . S
H2835 C2831 0.930 . S
H2836 C2833 0.929 . S
S2837 N2838 1.613 . S
S2837 N2839 1.610 . S
N2838 S2837 1.613 . S
N2838 C2841 1.350 . S
N2839 S2837 1.610 . S
N2839 C2840 1.351 . S
C2840 C2834 1.428 . S
C2840 N2839 1.351 . S
C2840 C2841 1.434 . S
C2841 C2832 1.429 . S
C2841 N2838 1.350 . S
C2841 C2840 1.434 . S
C2842 C2843 1.369 . S
C2842 C2844 1.419 . S
C2842 H2846 0.930 . S
C2843 C2842 1.369 . S
C2843 C2852 1.429 . S
C2844 C2842 1.419 . S
C2844 C2845 1.363 . S
C2844 H2847 0.929 . S
C2845 C2844 1.363 . S
C2845 C2851 1.428 . S
H2846 C2842 0.930 . S
H2847 C2844 0.929 . S
S2848 N2849 1.613 . S
S2848 N2850 1.610 . S
N2849 S2848 1.613 . S
N2849 C2852 1.350 . S
N2850 S2848 1.610 . S
N2850 C2851 1.351 . S
C2851 C2845 1.428 . S
C2851 N2850 1.351 . S
C2851 C2852 1.434 . S
C2852 C2843 1.429 . S
C2852 N2849 1.350 . S
C2852 C2851 1.434 . S
C2853 C2854 1.369 . S
C2853 C2855 1.419 . S
C2853 H2857 0.930 . S
C2854 C2853 1.369 . S
C2854 C2863 1.429 . S
C2855 C2853 1.419 . S
C2855 C2856 1.363 . S
C2855 H2858 0.929 . S
C2856 C2855 1.363 . S
C2856 C2862 1.428 . S
H2857 C2853 0.930 . S
H2858 C2855 0.929 . S
S2859 N2860 1.613 . S
S2859 N2861 1.610 . S
N2860 S2859 1.613 . S
N2860 C2863 1.350 . S
N2861 S2859 1.610 . S
N2861 C2862 1.351 . S
C2862 C2856 1.428 . S
C2862 N2861 1.351 . S
C2862 C2863 1.434 . S
C2863 C2854 1.429 . S
C2863 N2860 1.350 . S
C2863 C2862 1.434 . S
C2864 C2865 1.369 . S
C2864 C2866 1.419 . S
C2864 H2868 0.930 . S
C2865 C2864 1.369 . S
C2865 C2874 1.429 . S
C2866 C2864 1.419 . S
C2866 C2867 1.363 . S
C2866 H2869 0.929 . S
C2867 C2866 1.363 . S
C2867 C2873 1.428 . S
H2868 C2864 0.930 . S
H2869 C2866 0.929 . S
S2870 N2871 1.613 . S
S2870 N2872 1.610 . S
N2871 S2870 1.613 . S
N2871 C2874 1.350 . S
N2872 S2870 1.610 . S
N2872 C2873 1.351 . S
C2873 C2867 1.428 . S
C2873 N2872 1.351 . S
C2873 C2874 1.434 . S
C2874 C2865 1.429 . S
C2874 N2871 1.350 . S
C2874 C2873 1.434 . S
C2875 C2876 1.369 . S
C2875 C2877 1.419 . S
C2875 H2879 0.930 . S
C2876 C2875 1.369 . S
C2876 C2885 1.429 . S
C2877 C2875 1.419 . S
C2877 C2878 1.363 . S
C2877 H2880 0.929 . S
C2878 C2877 1.363 . S
C2878 C2884 1.428 . S
H2879 C2875 0.930 . S
H2880 C2877 0.929 . S
S2881 N2882 1.613 . S
S2881 N2883 1.610 . S
N2882 S2881 1.613 . S
N2882 C2885 1.350 . S
N2883 S2881 1.610 . S
N2883 C2884 1.351 . S
C2884 C2878 1.428 . S
C2884 N2883 1.351 . S
C2884 C2885 1.434 . S
C2885 C2876 1.429 . S
C2885 N2882 1.350 . S
C2885 C2884 1.434 . S
C2886 C2887 1.369 . S
C2886 C2888 1.419 . S
C2886 H2890 0.930 . S
C2887 C2886 1.369 . S
C2887 C2896 1.429 . S
C2888 C2886 1.419 . S
C2888 C2889 1.363 . S
C2888 H2891 0.929 . S
C2889 C2888 1.363 . S
C2889 C2895 1.428 . S
H2890 C2886 0.930 . S
H2891 C2888 0.929 . S
S2892 N2893 1.613 . S
S2892 N2894 1.610 . S
N2893 S2892 1.613 . S
N2893 C2896 1.350 . S
N2894 S2892 1.610 . S
N2894 C2895 1.351 . S
C2895 C2889 1.428 . S
C2895 N2894 1.351 . S
C2895 C2896 1.434 . S
C2896 C2887 1.429 . S
C2896 N2893 1.350 . S
C2896 C2895 1.434 . S
C2897 C2898 1.369 . S
C2897 C2899 1.419 . S
C2897 H2901 0.930 . S
C2898 C2897 1.369 . S
C2898 C2907 1.429 . S
C2899 C2897 1.419 . S
C2899 C2900 1.363 . S
C2899 H2902 0.929 . S
C2900 C2899 1.363 . S
C2900 C2906 1.428 . S
H2901 C2897 0.930 . S
H2902 C2899 0.929 . S
S2903 N2904 1.613 . S
S2903 N2905 1.610 . S
N2904 S2903 1.613 . S
N2904 C2907 1.350 . S
N2905 S2903 1.610 . S
N2905 C2906 1.351 . S
C2906 C2900 1.428 . S
C2906 N2905 1.351 . S
C2906 C2907 1.434 . S
C2907 C2898 1.429 . S
C2907 N2904 1.350 . S
C2907 C2906 1.434 . S
C2908 C2909 1.369 . S
C2908 C2910 1.419 . S
C2908 H2912 0.930 . S
C2909 C2908 1.369 . S
C2909 C2918 1.429 . S
C2910 C2908 1.419 . S
C2910 C2911 1.363 . S
C2910 H2913 0.929 . S
C2911 C2910 1.363 . S
C2911 C2917 1.428 . S
H2912 C2908 0.930 . S
H2913 C2910 0.929 . S
S2914 N2915 1.613 . S
S2914 N2916 1.610 . S
N2915 S2914 1.613 . S
N2915 C2918 1.350 . S
N2916 S2914 1.610 . S
N2916 C2917 1.351 . S
C2917 C2911 1.428 . S
C2917 N2916 1.351 . S
C2917 C2918 1.434 . S
C2918 C2909 1.429 . S
C2918 N2915 1.350 . S
C2918 C2917 1.434 . S
C2919 C2920 1.369 . S
C2919 C2921 1.419 . S
C2919 H2923 0.930 . S
C2920 C2919 1.369 . S
C2920 C2929 1.429 . S
C2921 C2919 1.419 . S
C2921 C2922 1.363 . S
C2921 H2924 0.929 . S
C2922 C2921 1.363 . S
C2922 C2928 1.428 . S
H2923 C2919 0.930 . S
H2924 C2921 0.929 . S
S2925 N2926 1.613 . S
S2925 N2927 1.610 . S
N2926 S2925 1.613 . S
N2926 C2929 1.350 . S
N2927 S2925 1.610 . S
N2927 C2928 1.351 . S
C2928 C2922 1.428 . S
C2928 N2927 1.351 . S
C2928 C2929 1.434 . S
C2929 C2920 1.429 . S
C2929 N2926 1.350 . S
C2929 C2928 1.434 . S
C2930 C2931 1.369 . S
C2930 C2932 1.419 . S
C2930 H2934 0.930 . S
C2931 C2930 1.369 . S
C2931 C2940 1.429 . S
C2932 C2930 1.419 . S
C2932 C2933 1.363 . S
C2932 H2935 0.929 . S
C2933 C2932 1.363 . S
C2933 C2939 1.428 . S
H2934 C2930 0.930 . S
H2935 C2932 0.929 . S
S2936 N2937 1.613 . S
S2936 N2938 1.610 . S
N2937 S2936 1.613 . S
N2937 C2940 1.350 . S
N2938 S2936 1.610 . S
N2938 C2939 1.351 . S
C2939 C2933 1.428 . S
C2939 N2938 1.351 . S
C2939 C2940 1.434 . S
C2940 C2931 1.429 . S
C2940 N2937 1.350 . S
C2940 C2939 1.434 . S
C2941 C2942 1.369 . S
C2941 C2943 1.419 . S
C2941 H2945 0.930 . S
C2942 C2941 1.369 . S
C2942 C2951 1.429 . S
C2943 C2941 1.419 . S
C2943 C2944 1.363 . S
C2943 H2946 0.929 . S
C2944 C2943 1.363 . S
C2944 C2950 1.428 . S
H2945 C2941 0.930 . S
H2946 C2943 0.929 . S
S2947 N2948 1.613 . S
S2947 N2949 1.610 . S
N2948 S2947 1.613 . S
N2948 C2951 1.350 . S
N2949 S2947 1.610 . S
N2949 C2950 1.351 . S
C2950 C2944 1.428 . S
C2950 N2949 1.351 . S
C2950 C2951 1.434 . S
C2951 C2942 1.429 . S
C2951 N2948 1.350 . S
C2951 C2950 1.434 . S
C2952 C2953 1.369 . S
C2952 C2954 1.419 . S
C2952 H2956 0.930 . S
C2953 C2952 1.369 . S
C2953 C2962 1.429 . S
C2954 C2952 1.419 . S
C2954 C2955 1.363 . S
C2954 H2957 0.929 . S
C2955 C2954 1.363 . S
C2955 C2961 1.428 . S
H2956 C2952 0.930 . S
H2957 C2954 0.929 . S
S2958 N2959 1.613 . S
S2958 N2960 1.610 . S
N2959 S2958 1.613 . S
N2959 C2962 1.350 . S
N2960 S2958 1.610 . S
N2960 C2961 1.351 . S
C2961 C2955 1.428 . S
C2961 N2960 1.351 . S
C2961 C2962 1.434 . S
C2962 C2953 1.429 . S
C2962 N2959 1.350 . S
C2962 C2961 1.434 . S
C2963 C2964 1.369 . S
C2963 C2965 1.419 . S
C2963 H2967 0.930 . S
C2964 C2963 1.369 . S
C2964 C2973 1.429 . S
C2965 C2963 1.419 . S
C2965 C2966 1.363 . S
C2965 H2968 0.929 . S
C2966 C2965 1.363 . S
C2966 C2972 1.428 . S
H2967 C2963 0.930 . S
H2968 C2965 0.929 . S
S2969 N2970 1.613 . S
S2969 N2971 1.610 . S
N2970 S2969 1.613 . S
N2970 C2973 1.350 . S
N2971 S2969 1.610 . S
N2971 C2972 1.351 . S
C2972 C2966 1.428 . S
C2972 N2971 1.351 . S
C2972 C2973 1.434 . S
C2973 C2964 1.429 . S
C2973 N2970 1.350 . S
C2973 C2972 1.434 . S
C2974 C2975 1.369 . S
C2974 C2976 1.419 . S
C2974 H2978 0.930 . S
C2975 C2974 1.369 . S
C2975 C2984 1.429 . S
C2976 C2974 1.419 . S
C2976 C2977 1.363 . S
C2976 H2979 0.929 . S
C2977 C2976 1.363 . S
C2977 C2983 1.428 . S
H2978 C2974 0.930 . S
H2979 C2976 0.929 . S
S2980 N2981 1.613 . S
S2980 N2982 1.610 . S
N2981 S2980 1.613 . S
N2981 C2984 1.350 . S
N2982 S2980 1.610 . S
N2982 C2983 1.351 . S
C2983 C2977 1.428 . S
C2983 N2982 1.351 . S
C2983 C2984 1.434 . S
C2984 C2975 1.429 . S
C2984 N2981 1.350 . S
C2984 C2983 1.434 . S
C2985 C2986 1.369 . S
C2985 C2987 1.419 . S
C2985 H2989 0.930 . S
C2986 C2985 1.369 . S
C2986 C2995 1.429 . S
C2987 C2985 1.419 . S
C2987 C2988 1.363 . S
C2987 H2990 0.929 . S
C2988 C2987 1.363 . S
C2988 C2994 1.428 . S
H2989 C2985 0.930 . S
H2990 C2987 0.929 . S
S2991 N2992 1.613 . S
S2991 N2993 1.610 . S
N2992 S2991 1.613 . S
N2992 C2995 1.350 . S
N2993 S2991 1.610 . S
N2993 C2994 1.351 . S
C2994 C2988 1.428 . S
C2994 N2993 1.351 . S
C2994 C2995 1.434 . S
C2995 C2986 1.429 . S
C2995 N2992 1.350 . S
C2995 C2994 1.434 . S
C2996 C2997 1.369 . S
C2996 C2998 1.419 . S
C2996 H3000 0.930 . S
C2997 C2996 1.369 . S
C2997 C3006 1.429 . S
C2998 C2996 1.419 . S
C2998 C2999 1.363 . S
C2998 H3001 0.929 . S
C2999 C2998 1.363 . S
C2999 C3005 1.428 . S
H3000 C2996 0.930 . S
H3001 C2998 0.929 . S
S3002 N3003 1.613 . S
S3002 N3004 1.610 . S
N3003 S3002 1.613 . S
N3003 C3006 1.350 . S
N3004 S3002 1.610 . S
N3004 C3005 1.351 . S
C3005 C2999 1.428 . S
C3005 N3004 1.351 . S
C3005 C3006 1.434 . S
C3006 C2997 1.429 . S
C3006 N3003 1.350 . S
C3006 C3005 1.434 . S
C3007 C3008 1.369 . S
C3007 C3009 1.419 . S
C3007 H3011 0.930 . S
C3008 C3007 1.369 . S
C3008 C3017 1.429 . S
C3009 C3007 1.419 . S
C3009 C3010 1.363 . S
C3009 H3012 0.929 . S
C3010 C3009 1.363 . S
C3010 C3016 1.428 . S
H3011 C3007 0.930 . S
H3012 C3009 0.929 . S
S3013 N3014 1.613 . S
S3013 N3015 1.610 . S
N3014 S3013 1.613 . S
N3014 C3017 1.350 . S
N3015 S3013 1.610 . S
N3015 C3016 1.351 . S
C3016 C3010 1.428 . S
C3016 N3015 1.351 . S
C3016 C3017 1.434 . S
C3017 C3008 1.429 . S
C3017 N3014 1.350 . S
C3017 C3016 1.434 . S
C3018 C3019 1.369 . S
C3018 C3020 1.419 . S
C3018 H3022 0.930 . S
C3019 C3018 1.369 . S
C3019 C3028 1.429 . S
C3020 C3018 1.419 . S
C3020 C3021 1.363 . S
C3020 H3023 0.929 . S
C3021 C3020 1.363 . S
C3021 C3027 1.428 . S
H3022 C3018 0.930 . S
H3023 C3020 0.929 . S
S3024 N3025 1.613 . S
S3024 N3026 1.610 . S
N3025 S3024 1.613 . S
N3025 C3028 1.350 . S
N3026 S3024 1.610 . S
N3026 C3027 1.351 . S
C3027 C3021 1.428 . S
C3027 N3026 1.351 . S
C3027 C3028 1.434 . S
C3028 C3019 1.429 . S
C3028 N3025 1.350 . S
C3028 C3027 1.434 . S
C3029 C3030 1.369 . S
C3029 C3031 1.419 . S
C3029 H3033 0.930 . S
C3030 C3029 1.369 . S
C3030 C3039 1.429 . S
C3031 C3029 1.419 . S
C3031 C3032 1.363 . S
C3031 H3034 0.929 . S
C3032 C3031 1.363 . S
C3032 C3038 1.428 . S
H3033 C3029 0.930 . S
H3034 C3031 0.929 . S
S3035 N3036 1.613 . S
S3035 N3037 1.610 . S
N3036 S3035 1.613 . S
N3036 C3039 1.350 . S
N3037 S3035 1.610 . S
N3037 C3038 1.351 . S
C3038 C3032 1.428 . S
C3038 N3037 1.351 . S
C3038 C3039 1.434 . S
C3039 C3030 1.429 . S
C3039 N3036 1.350 . S
C3039 C3038 1.434 . S
C3040 C3041 1.369 . S
C3040 C3042 1.419 . S
C3040 H3044 0.930 . S
C3041 C3040 1.369 . S
C3041 C3050 1.429 . S
C3042 C3040 1.419 . S
C3042 C3043 1.363 . S
C3042 H3045 0.929 . S
C3043 C3042 1.363 . S
C3043 C3049 1.428 . S
H3044 C3040 0.930 . S
H3045 C3042 0.929 . S
S3046 N3047 1.613 . S
S3046 N3048 1.610 . S
N3047 S3046 1.613 . S
N3047 C3050 1.350 . S
N3048 S3046 1.610 . S
N3048 C3049 1.351 . S
C3049 C3043 1.428 . S
C3049 N3048 1.351 . S
C3049 C3050 1.434 . S
C3050 C3041 1.429 . S
C3050 N3047 1.350 . S
C3050 C3049 1.434 . S
C3051 C3052 1.369 . S
C3051 C3053 1.419 . S
C3051 H3055 0.930 . S
C3052 C3051 1.369 . S
C3052 C3061 1.429 . S
C3053 C3051 1.419 . S
C3053 C3054 1.363 . S
C3053 H3056 0.929 . S
C3054 C3053 1.363 . S
C3054 C3060 1.428 . S
H3055 C3051 0.930 . S
H3056 C3053 0.929 . S
S3057 N3058 1.613 . S
S3057 N3059 1.610 . S
N3058 S3057 1.613 . S
N3058 C3061 1.350 . S
N3059 S3057 1.610 . S
N3059 C3060 1.351 . S
C3060 C3054 1.428 . S
C3060 N3059 1.351 . S
C3060 C3061 1.434 . S
C3061 C3052 1.429 . S
C3061 N3058 1.350 . S
C3061 C3060 1.434 . S
C3062 C3063 1.369 . S
C3062 C3064 1.419 . S
C3062 H3066 0.930 . S
C3063 C3062 1.369 . S
C3063 C3072 1.429 . S
C3064 C3062 1.419 . S
C3064 C3065 1.363 . S
C3064 H3067 0.929 . S
C3065 C3064 1.363 . S
C3065 C3071 1.428 . S
H3066 C3062 0.930 . S
H3067 C3064 0.929 . S
S3068 N3069 1.613 . S
S3068 N3070 1.610 . S
N3069 S3068 1.613 . S
N3069 C3072 1.350 . S
N3070 S3068 1.610 . S
N3070 C3071 1.351 . S
C3071 C3065 1.428 . S
C3071 N3070 1.351 . S
C3071 C3072 1.434 . S
C3072 C3063 1.429 . S
C3072 N3069 1.350 . S
C3072 C3071 1.434 . S
C3073 C3074 1.369 . S
C3073 C3075 1.419 . S
C3073 H3077 0.930 . S
C3074 C3073 1.369 . S
C3074 C3083 1.429 . S
C3075 C3073 1.419 . S
C3075 C3076 1.363 . S
C3075 H3078 0.929 . S
C3076 C3075 1.363 . S
C3076 C3082 1.428 . S
H3077 C3073 0.930 . S
H3078 C3075 0.929 . S
S3079 N3080 1.613 . S
S3079 N3081 1.610 . S
N3080 S3079 1.613 . S
N3080 C3083 1.350 . S
N3081 S3079 1.610 . S
N3081 C3082 1.351 . S
C3082 C3076 1.428 . S
C3082 N3081 1.351 . S
C3082 C3083 1.434 . S
C3083 C3074 1.429 . S
C3083 N3080 1.350 . S
C3083 C3082 1.434 . S
C3084 C3085 1.369 . S
C3084 C3086 1.419 . S
C3084 H3088 0.930 . S
C3085 C3084 1.369 . S
C3085 C3094 1.429 . S
C3086 C3084 1.419 . S
C3086 C3087 1.363 . S
C3086 H3089 0.929 . S
C3087 C3086 1.363 . S
C3087 C3093 1.428 . S
H3088 C3084 0.930 . S
H3089 C3086 0.929 . S
S3090 N3091 1.613 . S
S3090 N3092 1.610 . S
N3091 S3090 1.613 . S
N3091 C3094 1.350 . S
N3092 S3090 1.610 . S
N3092 C3093 1.351 . S
C3093 C3087 1.428 . S
C3093 N3092 1.351 . S
C3093 C3094 1.434 . S
C3094 C3085 1.429 . S
C3094 N3091 1.350 . S
C3094 C3093 1.434 . S
C3095 C3096 1.369 . S
C3095 C3097 1.419 . S
C3095 H3099 0.930 . S
C3096 C3095 1.369 . S
C3096 C3105 1.429 . S
C3097 C3095 1.419 . S
C3097 C3098 1.363 . S
C3097 H3100 0.929 . S
C3098 C3097 1.363 . S
C3098 C3104 1.428 . S
H3099 C3095 0.930 . S
H3100 C3097 0.929 . S
S3101 N3102 1.616 . S
S3101 N3103 1.610 1_455 S
N3102 S3101 1.616 . S
N3102 C3105 1.341 1_455 S
N3103 S3101 1.610 1_655 S
N3103 C3104 1.351 . S
C3104 C3098 1.428 . S
C3104 N3103 1.351 . S
C3104 C3105 1.434 . S
C3105 C3096 1.429 . S
C3105 N3102 1.341 1_655 S
C3105 C3104 1.434 . S
C3106 C3107 1.369 . S
C3106 C3108 1.419 . S
C3106 H3110 0.930 . S
C3107 C3106 1.369 . S
C3107 C3116 1.429 . S
C3108 C3106 1.419 . S
C3108 C3109 1.363 . S
C3108 H3111 0.929 . S
C3109 C3108 1.363 . S
C3109 C3115 1.428 . S
H3110 C3106 0.930 . S
H3111 C3108 0.929 . S
S3112 N3113 1.613 . S
S3112 N3114 1.610 . S
N3113 S3112 1.613 . S
N3113 C3116 1.350 . S
N3114 S3112 1.610 . S
N3114 C3115 1.351 . S
C3115 C3109 1.428 . S
C3115 N3114 1.351 . S
C3115 C3116 1.434 . S
C3116 C3107 1.429 . S
C3116 N3113 1.350 . S
C3116 C3115 1.434 . S
C3117 C3118 1.369 . S
C3117 C3119 1.419 . S
C3117 H3121 0.930 . S
C3118 C3117 1.369 . S
C3118 C3127 1.429 . S
C3119 C3117 1.419 . S
C3119 C3120 1.363 . S
C3119 H3122 0.929 . S
C3120 C3119 1.363 . S
C3120 C3126 1.428 . S
H3121 C3117 0.930 . S
H3122 C3119 0.929 . S
S3123 N3124 1.613 . S
S3123 N3125 1.610 . S
N3124 S3123 1.613 . S
N3124 C3127 1.350 . S
N3125 S3123 1.610 . S
N3125 C3126 1.351 . S
C3126 C3120 1.428 . S
C3126 N3125 1.351 . S
C3126 C3127 1.434 . S
C3127 C3118 1.429 . S
C3127 N3124 1.350 . S
C3127 C3126 1.434 . S
C3128 C3129 1.369 . S
C3128 C3130 1.419 . S
C3128 H3132 0.930 . S
C3129 C3128 1.369 . S
C3129 C3138 1.429 . S
C3130 C3128 1.419 . S
C3130 C3131 1.363 . S
C3130 H3133 0.929 . S
C3131 C3130 1.363 . S
C3131 C3137 1.428 . S
H3132 C3128 0.930 . S
H3133 C3130 0.929 . S
S3134 N3135 1.613 . S
S3134 N3136 1.610 . S
N3135 S3134 1.613 . S
N3135 C3138 1.350 . S
N3136 S3134 1.610 . S
N3136 C3137 1.351 . S
C3137 C3131 1.428 . S
C3137 N3136 1.351 . S
C3137 C3138 1.434 . S
C3138 C3129 1.429 . S
C3138 N3135 1.350 . S
C3138 C3137 1.434 . S
C3139 C3140 1.369 . S
C3139 C3141 1.419 . S
C3139 H3143 0.930 . S
C3140 C3139 1.369 . S
C3140 C3149 1.429 . S
C3141 C3139 1.419 . S
C3141 C3142 1.363 . S
C3141 H3144 0.929 . S
C3142 C3141 1.363 . S
C3142 C3148 1.428 . S
H3143 C3139 0.930 . S
H3144 C3141 0.929 . S
S3145 N3146 1.613 . S
S3145 N3147 1.610 . S
N3146 S3145 1.613 . S
N3146 C3149 1.350 . S
N3147 S3145 1.610 . S
N3147 C3148 1.351 . S
C3148 C3142 1.428 . S
C3148 N3147 1.351 . S
C3148 C3149 1.434 . S
C3149 C3140 1.429 . S
C3149 N3146 1.350 . S
C3149 C3148 1.434 . S
C3150 C3151 1.369 . S
C3150 C3152 1.419 . S
C3150 H3154 0.930 . S
C3151 C3150 1.369 . S
C3151 C3160 1.429 . S
C3152 C3150 1.419 . S
C3152 C3153 1.363 . S
C3152 H3155 0.929 . S
C3153 C3152 1.363 . S
C3153 C3159 1.428 . S
H3154 C3150 0.930 . S
H3155 C3152 0.929 . S
S3156 N3157 1.613 . S
S3156 N3158 1.610 . S
N3157 S3156 1.613 . S
N3157 C3160 1.350 . S
N3158 S3156 1.610 . S
N3158 C3159 1.351 . S
C3159 C3153 1.428 . S
C3159 N3158 1.351 . S
C3159 C3160 1.434 . S
C3160 C3151 1.429 . S
C3160 N3157 1.350 . S
C3160 C3159 1.434 . S
C3161 C3162 1.369 . S
C3161 C3163 1.419 . S
C3161 H3165 0.930 . S
C3162 C3161 1.369 . S
C3162 C3171 1.429 . S
C3163 C3161 1.419 . S
C3163 C3164 1.363 . S
C3163 H3166 0.929 . S
C3164 C3163 1.363 . S
C3164 C3170 1.428 . S
H3165 C3161 0.930 . S
H3166 C3163 0.929 . S
S3167 N3168 1.613 . S
S3167 N3169 1.610 . S
N3168 S3167 1.613 . S
N3168 C3171 1.350 . S
N3169 S3167 1.610 . S
N3169 C3170 1.351 . S
C3170 C3164 1.428 . S
C3170 N3169 1.351 . S
C3170 C3171 1.434 . S
C3171 C3162 1.429 . S
C3171 N3168 1.350 . S
C3171 C3170 1.434 . S
C3172 C3173 1.369 . S
C3172 C3174 1.419 . S
C3172 H3176 0.930 . S
C3173 C3172 1.369 . S
C3173 C3182 1.429 . S
C3174 C3172 1.419 . S
C3174 C3175 1.363 . S
C3174 H3177 0.929 . S
C3175 C3174 1.363 . S
C3175 C3181 1.428 . S
H3176 C3172 0.930 . S
H3177 C3174 0.929 . S
S3178 N3179 1.613 . S
S3178 N3180 1.610 . S
N3179 S3178 1.613 . S
N3179 C3182 1.350 . S
N3180 S3178 1.610 . S
N3180 C3181 1.351 . S
C3181 C3175 1.428 . S
C3181 N3180 1.351 . S
C3181 C3182 1.434 . S
C3182 C3173 1.429 . S
C3182 N3179 1.350 . S
C3182 C3181 1.434 . S
C3183 C3184 1.369 . S
C3183 C3185 1.419 . S
C3183 H3187 0.930 . S
C3184 C3183 1.369 . S
C3184 C3193 1.429 . S
C3185 C3183 1.419 . S
C3185 C3186 1.363 . S
C3185 H3188 0.929 . S
C3186 C3185 1.363 . S
C3186 C3192 1.428 . S
H3187 C3183 0.930 . S
H3188 C3185 0.929 . S
S3189 N3190 1.613 . S
S3189 N3191 1.610 . S
N3190 S3189 1.613 . S
N3190 C3193 1.350 . S
N3191 S3189 1.610 . S
N3191 C3192 1.351 . S
C3192 C3186 1.428 . S
C3192 N3191 1.351 . S
C3192 C3193 1.434 . S
C3193 C3184 1.429 . S
C3193 N3190 1.350 . S
C3193 C3192 1.434 . S
C3194 C3195 1.369 . S
C3194 C3196 1.419 . S
C3194 H3198 0.930 . S
C3195 C3194 1.369 . S
C3195 C3204 1.429 . S
C3196 C3194 1.419 . S
C3196 C3197 1.363 . S
C3196 H3199 0.929 . S
C3197 C3196 1.363 . S
C3197 C3203 1.428 . S
H3198 C3194 0.930 . S
H3199 C3196 0.929 . S
S3200 N3201 1.613 . S
S3200 N3202 1.610 1_554 S
N3201 S3200 1.613 . S
N3201 C3204 1.350 1_554 S
N3202 S3200 1.610 1_556 S
N3202 C3203 1.351 . S
C3203 C3197 1.428 . S
C3203 N3202 1.351 . S
C3203 C3204 1.434 . S
C3204 C3195 1.429 . S
C3204 N3201 1.350 1_556 S
C3204 C3203 1.434 . S
C3205 C3206 1.369 . S
C3205 C3207 1.419 . S
C3205 H3209 0.930 . S
C3206 C3205 1.369 . S
C3206 C3215 1.429 . S
C3207 C3205 1.419 . S
C3207 C3208 1.363 . S
C3207 H3210 0.929 . S
C3208 C3207 1.363 . S
C3208 C3214 1.428 . S
H3209 C3205 0.930 . S
H3210 C3207 0.929 . S
S3211 N3212 1.613 . S
S3211 N3213 1.610 . S
N3212 S3211 1.613 . S
N3212 C3215 1.350 . S
N3213 S3211 1.610 . S
N3213 C3214 1.351 . S
C3214 C3208 1.428 . S
C3214 N3213 1.351 . S
C3214 C3215 1.434 . S
C3215 C3206 1.429 . S
C3215 N3212 1.350 . S
C3215 C3214 1.434 . S
C1633 C217 0.494 . S
C1635 C13 0.531 . S
C1644 C242 0.210 . S
C1646 C38 0.451 . S
C1655 C149 0.522 . S
C1657 C81 0.431 . S
C1666 C183 0.487 . S
C1668 C115 0.252 . S
C1677 C353 0.883 . S
C1679 C280 0.902 . S
C1688 C387 0.102 . S
C1690 C319 0.516 . S
C1699 C493 0.869 . S
C1701 C412 0.837 . S
C1710 C523 0.571 . S
C1712 C446 0.147 . S
C1721 C591 0.644 . S
C1723 C557 0.644 . S
C1732 C795 1.104 . S
C1734 C625 1.362 . S
C1743 C718 0.590 . S
C1745 C650 0.568 . S
C1754 C684 1.328 . S
C1756 C761 1.209 1_556 S
C1765 C829 0.515 1_556 S
C1767 C1033 0.498 . S
C1776 C854 0.469 . S
C1778 C1058 0.208 . S
C1787 C897 0.452 . S
C1789 C965 0.521 . S
C1798 C931 0.274 . S
C1800 C999 0.468 . S
C1809 C1096 0.906 . S
C1811 C1169 0.861 . S
C1820 C1135 0.519 . S
C1822 C1203 0.117 . S
C1831 C1228 0.852 . S
C1833 C1309 0.867 . S
C1842 C1339 0.548 . S
C1844 C1262 0.171 . S
C1853 C1373 0.665 . S
C1855 C1407 0.640 . S
C1864 C1611 1.116 . S
C1866 C1441 1.357 . S
C1875 C1466 0.576 . S
C1877 C1534 0.596 . S
C1886 C1500 1.333 . S
C1888 C1577 1.198 . S
C1897 C4 0.932 . S
C1899 C310 0.907 . S
C1908 C47 1.015 . S
C1910 C344 1.023 . S
C1919 C72 1.022 . S
C1921 C378 1.022 . S
C1930 C289 1.229 . S
C1932 C106 1.118 . S
C1941 C514 0.871 . S
C1943 C140 0.885 . S
C1952 C421 1.050 . S
C1954 C174 1.033 . S
C1963 C455 1.029 . S
C1965 C208 1.027 . S
C1974 C251 1.127 . S
C1976 C484 1.242 . S
C1985 C616 0.768 . S
C1987 C548 0.777 . S
C1996 C752 0.602 . S
C1998 C582 0.606 . S
C2007 C659 0.631 . S
C2009 C786 0.641 . S
C2018 C727 0.756 . S
C2020 C693 0.753 . S
C2029 C820 0.918 . S
C2031 C1126 0.908 . S
C2040 C1160 1.017 . S
C2042 C863 1.010 . S
C2051 C1194 1.022 . S
C2053 C888 1.022 . S
C2062 C922 1.119 . S
C2064 C1105 1.230 . S
C2073 C1330 0.876 . S
C2075 C956 0.886 . S
C2084 C990 1.029 . S
C2086 C1237 1.046 . S
C2095 C1024 1.026 . S
C2097 C1271 1.028 . S
C2106 C1067 1.113 . S
C2108 C1300 1.244 . S
C2117 C1364 0.784 . S
C2119 C1432 0.777 . S
C2128 C1568 0.590 . S
C2130 C1398 0.594 . S
C2139 C1602 0.635 . S
C2141 C1475 0.639 . S
C2150 C1509 0.753 . S
C2152 C1543 0.759 . S
C2161 C0 2.249 . S
C2163 C110 2.258 . S
C2172 C8 2.253 . S
C2174 C51 2.265 . S
C2183 C68 2.204 . S
C2185 C63 2.209 . S
C2194 C102 2.514 . S
C2196 C76 2.538 . S
C2205 C178 2.247 . S
C2207 C136 2.226 . S
C2216 C212 2.268 . S
C2218 C170 2.257 . S
C2227 C204 2.474 . S
C2229 C267 2.455 . S
C2238 C144 2.272 . S
C2240 C255 2.273 . S
C2249 C301 2.342 . S
C2251 C620 2.342 . S
C2260 C306 1.873 . S
C2262 C675 1.895 . S
C2271 C340 2.726 . S
C2273 C709 2.696 . S
C2282 C374 1.505 . S
C2284 C586 1.510 . S
C2293 C425 2.119 . S
C2295 C756 2.109 . S
C2304 C552 2.051 . S
C2306 C459 2.052 . S
C2315 C790 1.584 1_556 S
C2317 C480 1.555 . S
C2326 C510 1.580 . S
C2328 C743 1.605 . S
C2337 C544 1.531 . S
C2339 C314 1.519 . S
C2348 C578 1.886 1_556 S
C2350 C518 1.885 . S
C2359 C612 2.607 1_556 S
C2361 C437 2.650 . S
C2370 C471 1.565 . S
C2372 C663 1.564 . S
C2381 C476 2.277 . S
C2383 C697 2.282 . S
C2392 C382 2.055 . S
C2394 C731 2.049 . S
C2403 C285 1.525 . S
C2405 C748 1.564 . S
C2414 C782 2.099 . S
C2416 C348 2.121 . S
C2425 C816 2.251 . S
C2427 C926 2.259 . S
C2436 C867 2.266 . S
C2438 C824 2.253 . S
C2447 C879 2.207 . S
C2449 C884 2.201 . S
C2458 C892 2.538 . S
C2460 C918 2.514 . S
C2469 C952 2.230 . S
C2471 C994 2.249 . S
C2480 C1028 2.264 . S
C2482 C986 2.256 . S
C2491 C1083 2.457 . S
C2493 C1020 2.476 . S
C2502 C1071 2.274 . S
C2504 C960 2.274 . S
C2513 C1117 2.340 . S
C2515 C1436 2.343 . S
C2524 C1491 1.896 . S
C2526 C1122 1.873 . S
C2535 C1525 2.697 . S
C2537 C1156 2.726 . S
C2546 C1190 1.502 . S
C2548 C1402 1.509 . S
C2557 C1572 2.109 . S
C2559 C1241 2.120 . S
C2568 C1275 2.052 . S
C2570 C1368 2.050 . S
C2579 C1296 1.556 . S
C2581 C1606 1.584 . S
C2590 C1326 1.582 . S
C2592 C1559 1.605 . S
C2601 C1130 1.516 . S
C2603 C1360 1.530 . S
C2612 C1334 1.887 . S
C2614 C1394 1.888 . S
C2623 C1253 2.650 . S
C2625 C1428 2.619 . S
C2634 C1479 1.562 . S
C2636 C1287 1.563 . S
C2645 C1292 2.279 . S
C2647 C1513 2.282 . S
C2656 C1547 2.048 . S
C2658 C1198 2.055 . S
C2667 C1564 1.562 . S
C2669 C1101 1.525 . S
C2678 C1164 2.121 . S
C2680 C1598 2.095 . S
C2689 C17 2.933 . S
C2691 C1496 2.946 . S
C2700 C1411 2.719 . S
C2702 C34 2.732 . S
C2711 C85 2.707 . S
C2713 C1445 2.709 . S
C2722 C119 2.732 . S
C2724 C1462 2.769 . S
C2733 C153 2.524 . S
C2735 C1615 2.511 . S
C2744 C187 2.569 . S
C2746 C1530 2.578 . S
C2755 C221 2.804 . S
C2757 C1581 2.819 . S
C2766 C238 2.937 . S
C2768 C1377 2.939 . S
C2777 C276 1.526 . S
C2779 C1343 1.574 . S
C2788 C323 2.742 . S
C2790 C1224 2.796 . S
C2799 C357 2.428 . S
C2801 C1258 2.412 . S
C2810 C391 2.654 . S
C2812 C1321 2.665 . S
C2821 C408 2.797 . S
C2823 C1139 2.744 . S
C2832 C442 2.412 . S
C2834 C1173 2.428 . S
C2843 C505 2.665 . S
C2845 C1207 2.654 . S
C2854 C527 1.572 . S
C2856 C1092 1.523 . S
C2865 C561 2.937 . S
C2867 C1054 2.938 . S
C2876 C595 2.716 1_556 S
C2878 C850 2.732 . S
C2887 C629 2.710 . S
C2889 C901 2.710 . S
C2898 C646 2.768 . S
C2900 C935 2.734 . S
C2909 C680 2.945 . S
C2911 C833 2.933 . S
C2920 C714 2.579 . S
C2922 C1003 2.568 . S
C2931 C765 2.820 . S
C2933 C1037 2.802 . S
C2942 C799 2.511 . S
C2944 C969 2.523 . S
C2953 C165 2.994 . S
C2955 C1457 2.999 . S
C2964 C199 2.690 . S
C2966 C1470 2.673 . S
C2975 C233 2.793 . S
C2977 C1504 2.787 . S
C2986 C246 2.670 . S
C2988 C1423 2.702 . S
C2997 C29 2.538 . S
C2999 C1593 2.528 . S
C3008 C42 2.519 . S
C3010 C1389 2.532 . S
C3019 C97 2.836 . S
C3021 C1627 2.854 . S
C3030 C1538 2.919 . S
C3032 C131 2.920 . S
C3041 C489 1.454 . S
C3043 C1151 1.512 . S
C3052 C539 2.708 . S
C3054 C1185 2.763 . S
C3063 C416 2.432 . S
C3065 C1219 2.411 . S
C3074 C450 2.689 . S
C3076 C1088 2.701 . S
C3085 C369 2.763 . S
C3087 C1355 2.710 . S
C3096 C403 2.409 . S
C3098 C1232 2.431 . S
C3107 C272 2.701 . S
C3109 C1266 2.689 . S
C3118 C335 1.512 . S
C3120 C1305 1.455 . S
C3129 C722 2.918 . S
C3131 C947 2.918 . S
C3140 C654 2.671 . S
C3142 C1015 2.689 . S
C3151 C688 2.785 . S
C3153 C1049 2.791 . S
C3162 C607 2.702 . S
C3164 C1062 2.670 . S
C3173 C641 2.998 . S
C3175 C981 2.993 . S
C3184 C573 2.531 . S
C3186 C858 2.521 . S
C3195 C811 2.853 1_556 S
C3197 C913 2.834 . S
C3206 C777 2.528 . S
C3208 C845 2.537 . S
