# Generated by pormake.
# Topology wix, (3)-cn, num edge types: 1
# Building blocks:
#     Node 0, Type 0, BuildingBlock: OLANEW_clean_sbu_2, # of connection points: 3
#     Node 1, Type 0, BuildingBlock: OLANEW_clean_sbu_2, # of connection points: 3
#     Node 2, Type 0, BuildingBlock: OLANEW_clean_sbu_2, # of connection points: 3
#     Node 3, Type 0, BuildingBlock: OLANEW_clean_sbu_2, # of connection points: 3
#     Node 4, Type 0, BuildingBlock: OLANEW_clean_sbu_2, # of connection points: 3
#     Node 5, Type 0, BuildingBlock: OLANEW_clean_sbu_2, # of connection points: 3
#     Node 6, Type 0, BuildingBlock: OLANEW_clean_sbu_2, # of connection points: 3
#     Node 7, Type 0, BuildingBlock: OLANEW_clean_sbu_2, # of connection points: 3
#     Node 8, Type 0, BuildingBlock: OLANEW_clean_sbu_2, # of connection points: 3
#     Node 9, Type 0, BuildingBlock: OLANEW_clean_sbu_2, # of connection points: 3
#     Node 10, Type 0, BuildingBlock: OLANEW_clean_sbu_2, # of connection points: 3
#     Node 11, Type 0, BuildingBlock: OLANEW_clean_sbu_2, # of connection points: 3
#     Edge 12, Type (0, 0), BuildingBlock: EZIPEK_clean_linker_0, # of connection points: 2
#     Edge 13, Type (0, 0), BuildingBlock: EZIPEK_clean_linker_0, # of connection points: 2
#     Edge 14, Type (0, 0), BuildingBlock: EZIPEK_clean_linker_0, # of connection points: 2
#     Edge 15, Type (0, 0), BuildingBlock: EZIPEK_clean_linker_0, # of connection points: 2
#     Edge 16, Type (0, 0), BuildingBlock: EZIPEK_clean_linker_0, # of connection points: 2
#     Edge 17, Type (0, 0), BuildingBlock: EZIPEK_clean_linker_0, # of connection points: 2
#     Edge 18, Type (0, 0), BuildingBlock: EZIPEK_clean_linker_0, # of connection points: 2
#     Edge 19, Type (0, 0), BuildingBlock: EZIPEK_clean_linker_0, # of connection points: 2
#     Edge 20, Type (0, 0), BuildingBlock: EZIPEK_clean_linker_0, # of connection points: 2
#     Edge 21, Type (0, 0), BuildingBlock: EZIPEK_clean_linker_0, # of connection points: 2
#     Edge 22, Type (0, 0), BuildingBlock: EZIPEK_clean_linker_0, # of connection points: 2
#     Edge 23, Type (0, 0), BuildingBlock: EZIPEK_clean_linker_0, # of connection points: 2
#     Edge 24, Type (0, 0), BuildingBlock: EZIPEK_clean_linker_0, # of connection points: 2
#     Edge 25, Type (0, 0), BuildingBlock: EZIPEK_clean_linker_0, # of connection points: 2
#     Edge 26, Type (0, 0), BuildingBlock: EZIPEK_clean_linker_0, # of connection points: 2
#     Edge 27, Type (0, 0), BuildingBlock: EZIPEK_clean_linker_0, # of connection points: 2
#     Edge 28, Type (0, 0), BuildingBlock: EZIPEK_clean_linker_0, # of connection points: 2
#     Edge 29, Type (0, 0), BuildingBlock: EZIPEK_clean_linker_0, # of connection points: 2
# Relax obj value: 0.010
# Max RMSD: 0.060
# Mean RMSD: 0.060
data_MOF--net-wix--node1-OLANEW_clean_sbu_2--edge1-EZIPEK_clean_linker_0
_symmetry_space_group_name_H-M    P1
_symmetry_Int_Tables_number       1
_symmetry_cell_setting            triclinic
loop_
_symmetry_equiv_pos_as_xyz
'x, y, z'
_cell_length_a     48.956382
_cell_length_b     49.482456
_cell_length_c     26.176647
_cell_angle_alpha  91.63169
_cell_angle_beta   89.495885
_cell_angle_gamma 121.12202
loop_
_atom_site_label
_atom_site_type_symbol
_atom_site_fract_x
_atom_site_fract_y
_atom_site_fract_z
_atom_type_partial_charge
O0 O 0.28298 0.34811 0.04068 0.0
Cd1 Cd 0.24315 0.36071 0.01512 0.0
O2 O 0.31608 0.3992 0.04625 0.0
Cd3 Cd 0.36294 0.44198 0.05779 0.0
O4 O 0.40714 0.48322 0.03241 0.0
C5 C 0.41043 0.48593 -0.01572 0.0
O6 O 0.38823 0.46419 0.954 0.0
C7 C 0.31052 0.37136 0.05198 0.0
C8 C 0.21603 0.36981 0.10263 0.0
O9 O 0.20277 0.34283 0.0793 0.0
O10 O 0.24171 0.39267 0.0843 0.0
O11 O 0.91271 0.33291 0.32759 0.0
Cd12 Cd 0.85932 0.31977 0.30146 0.0
O13 O 0.93957 0.37448 0.2792 0.0
Cd14 Cd 0.90035 0.37435 0.2402 0.0
O15 O 0.89028 0.39688 0.17857 0.0
C16 C 0.91462 0.42151 0.16181 0.0
O17 O 0.94271 0.43122 0.18234 0.0
C18 C 0.93901 0.35579 0.31204 0.0
C19 C 0.81408 0.27187 0.36235 0.0
O20 O 0.82411 0.26531 0.3212 0.0
O21 O 0.82491 0.30098 0.37434 0.0
O22 O 0.58933 0.9173 0.37202 0.0
Cd23 Cd 0.55691 0.86253 0.34125 0.0
O24 O 0.54623 0.91704 0.39816 0.0
Cd25 Cd 0.51309 0.87731 0.34872 0.0
O26 O 0.48105 0.86827 0.28439 0.0
C27 C 0.45118 0.85583 0.29044 0.0
O28 O 0.43854 0.84497 0.33524 0.0
C29 C 0.57642 0.93033 0.39648 0.0
C30 C 0.55556 0.82474 0.41926 0.0
O31 O 0.57598 0.8328 0.38322 0.0
O32 O 0.53526 0.83368 0.41783 0.0
O33 O 0.63352 0.58734 0.58569 0.0
Cd34 Cd 0.65221 0.55498 0.54426 0.0
O35 O 0.58396 0.54736 0.59059 0.0
Cd36 Cd 0.59262 0.51567 0.5429 0.0
O37 O 0.58488 0.49072 0.46938 0.0
C38 C 0.55593 0.47169 0.45691 0.0
O39 O 0.53336 0.46682 0.4895 0.0
C40 C 0.60484 0.57617 0.59996 0.0
C41 C 0.69767 0.55227 0.60343 0.0
O42 O 0.66778 0.53312 0.61023 0.0
O43 O 0.7062 0.57275 0.56857 0.0
O44 O 0.05492 0.65369 0.84651 0.0
Cd45 Cd 0.11212 0.67391 0.83572 0.0
O46 O 0.05191 0.6173 0.79351 0.0
Cd47 Cd 0.02755 0.57476 0.74462 0.0
O48 O 0.02033 0.5382 0.68833 0.0
C49 C 0.00059 0.52943 0.65144 0.0
O50 O -0.01782 0.54136 0.64752 0.0
C51 C 0.03794 0.62834 0.82035 0.0
C52 C 0.15591 0.72408 0.89829 0.0
O53 O 0.1424 0.69554 0.91315 0.0
O54 O 0.14776 0.72911 0.85481 0.0
O55 O 0.38345 0.08569 -0.01309 0.0
Cd56 Cd 0.40841 0.14121 0.96549 0.0
O57 O 0.41816 0.08815 0.9313 0.0
Cd58 Cd 0.44452 0.07109 0.88717 0.0
O59 O 0.47761 0.06956 0.83234 0.0
C60 C 0.48425 0.08618 0.79285 0.0
O61 O 0.47102 0.10317 0.78659 0.0
C62 C 0.39604 0.07224 0.96284 0.0
C63 C 0.41476 0.18258 0.04533 0.0
O64 O 0.39225 0.17287 0.01219 0.0
O65 O 0.43355 0.17181 0.04182 0.0
O66 O 0.57939 0.68822 0.65416 0.0
Cd67 Cd 0.56521 0.72749 0.67783 0.0
O68 O 0.55801 0.66289 0.72471 0.0
Cd69 Cd 0.5407 0.62256 0.77454 0.0
O70 O 0.51057 0.58402 0.82539 0.0
C71 C 0.5102 0.58934 0.8731 0.0
O72 O 0.52929 0.61789 0.89234 0.0
C73 C 0.57215 0.66514 0.68271 0.0
C74 C 0.56133 0.75793 0.59275 0.0
O75 O 0.58741 0.76939 0.61825 0.0
O76 O 0.537 0.7321 0.60723 0.0
O77 O 0.88427 0.57001 0.79314 0.0
Cd78 Cd 0.82645 0.53452 0.79967 0.0
O79 O 0.88377 0.53582 0.84466 0.0
Cd80 Cd 0.90392 0.51541 0.89359 0.0
O81 O 0.90775 0.48693 0.95206 0.0
C82 C 0.91056 0.49598 -0.00136 0.0
O83 O 0.91223 0.52278 0.01045 0.0
C84 C 0.89955 0.56078 0.81927 0.0
C85 C 0.78828 0.54328 0.73212 0.0
O86 O 0.79476 0.55647 0.7768 0.0
O87 O 0.80072 0.52687 0.71872 0.0
O88 O 0.32885 0.92863 0.04019 0.0
Cd89 Cd 0.30909 0.87568 0.07224 0.0
O90 O 0.37014 0.93084 0.00148 0.0
Cd91 Cd 0.36134 0.88672 0.03325 0.0
O92 O 0.37186 0.86248 0.09135 0.0
C93 C 0.39288 0.88131 0.12348 0.0
O94 O 0.40508 0.91184 0.11938 0.0
C95 C 0.35363 0.94326 0.01275 0.0
C96 C 0.25854 0.82762 0.01538 0.0
O97 O 0.25328 0.84059 0.05426 0.0
O98 O 0.28756 0.8376 0.00299 0.0
O99 O 0.40638 0.35251 0.19359 0.0
Cd100 Cd 0.43957 0.33654 0.23726 0.0
O101 O 0.43502 0.36318 0.12374 0.0
Cd102 Cd 0.47551 0.37208 0.17118 0.0
O103 O 0.50102 0.39003 0.24393 0.0
C104 C 0.51701 0.41976 0.25151 0.0
O105 O 0.51982 0.43827 0.21427 0.0
C106 C 0.40993 0.35873 0.14627 0.0
C107 C 0.4319 0.2829 0.18534 0.0
O108 O 0.45198 0.31073 0.17056 0.0
O109 O 0.41606 0.28018 0.22609 0.0
O110 O 0.07558 0.36733 0.36189 0.0
Cd111 Cd 0.13136 0.38568 0.38023 0.0
O112 O 0.07981 0.40756 0.40654 0.0
Cd113 Cd 0.05951 0.43529 0.43537 0.0
O114 O 0.03999 0.46283 0.47662 0.0
C115 C 0.01777 0.44902 0.50937 0.0
O116 O 0.04047 0.46434 0.47634 0.0
C117 C 0.06335 0.38316 0.37813 0.0
C118 C 0.1609 0.38265 0.29091 0.0
O119 O 0.14928 0.3599 0.32212 0.0
O120 O 0.15909 0.40705 0.30202 0.0
O121 O 0.66546 0.07027 0.51187 0.0
Cd122 Cd 0.68434 0.12151 0.55473 0.0
O123 O 0.61475 0.05541 0.52081 0.0
Cd124 Cd 0.62109 0.09378 0.5719 0.0
O125 O 0.59739 0.1023 0.63593 0.0
C126 C 0.56711 0.08718 0.63284 0.0
O127 O 0.55309 0.06949 0.59186 0.0
C128 C 0.63609 0.05038 0.50345 0.0
C129 C 0.72571 0.17086 0.49241 0.0
O130 O 0.73617 0.15794 0.52195 0.0
O131 O 0.69573 0.16064 0.49239 0.0
C132 C 0.21791 0.37706 0.19781 0.0
C133 C 0.20246 0.37418 0.1506 0.0
C134 C 0.15913 0.3757 0.19562 0.0
C135 C 0.17555 0.38047 0.24254 0.0
N136 N 0.22265 0.39085 0.28832 0.0
N137 N 0.16139 0.37565 0.10296 0.0
C138 C 0.20555 0.3826 0.24366 0.0
C139 C 0.17388 0.37486 0.14903 0.0
N140 N 0.24372 0.37335 0.19897 0.0
N141 N 0.12895 0.3708 0.19578 0.0
H142 H 0.17145 0.37482 0.06808 0.0
H143 H 0.14262 0.37965 0.09916 0.0
H144 H 0.11747 0.37155 0.22909 0.0
H145 H 0.11428 0.36364 0.16355 0.0
H146 H 0.25384 0.37158 0.23257 0.0
H147 H 0.2537 0.36961 0.16613 0.0
H148 H 0.24616 0.39622 0.29063 0.0
H149 H 0.21422 0.39489 0.32271 0.0
C150 C 0.74213 0.19483 0.4057 0.0
C151 C 0.74784 0.19704 0.45919 0.0
C152 C 0.79842 0.24688 0.44831 0.0
C153 C 0.79104 0.24637 0.39582 0.0
N154 N 0.75246 0.22301 0.32702 0.0
N155 N 0.77794 0.22871 0.53283 0.0
C156 C 0.7619 0.22123 0.37515 0.0
C157 C 0.77501 0.22409 0.48096 0.0
N158 N 0.7188 0.16711 0.38357 0.0
N159 N 0.82828 0.26815 0.4667 0.0
H160 H 0.76087 0.21309 0.55817 0.0
H161 H 0.79561 0.2496 0.55047 0.0
H162 H 0.84659 0.28461 0.44389 0.0
H163 H 0.83586 0.26732 0.50339 0.0
H164 H 0.7159 0.16324 0.34414 0.0
H165 H 0.70437 0.14687 0.40421 0.0
H166 H 0.72993 0.20687 0.3121 0.0
H167 H 0.76579 0.24233 0.30387 0.0
C168 C 0.56418 0.80535 0.55541 0.0
C169 C 0.55923 0.77461 0.54822 0.0
C170 C 0.54892 0.77554 0.45686 0.0
C171 C 0.55675 0.80731 0.4634 0.0
N172 N 0.57766 0.85455 0.51663 0.0
N173 N 0.55169 0.73202 0.49132 0.0
C174 C 0.56595 0.8228 0.5121 0.0
C175 C 0.5528 0.76004 0.49872 0.0
N176 N 0.56601 0.81745 0.60374 0.0
N177 N 0.5369 0.7599 0.4111 0.0
H178 H 0.5546 0.72004 0.52093 0.0
H179 H 0.55057 0.72193 0.45536 0.0
H180 H 0.53395 0.7706 0.37957 0.0
H181 H 0.52745 0.73574 0.40554 0.0
H182 H 0.56608 0.83826 0.6114 0.0
H183 H 0.56445 0.80527 0.63656 0.0
H184 H 0.58794 0.86782 0.55009 0.0
H185 H 0.57994 0.86828 0.48557 0.0
C186 C 0.71976 0.52094 0.63954 0.0
C187 C 0.72172 0.55039 0.63482 0.0
C188 C 0.77042 0.57591 0.68732 0.0
C189 C 0.76586 0.54585 0.69764 0.0
N190 N 0.73168 0.48897 0.69212 0.0
N191 N 0.74557 0.60503 0.66269 0.0
C192 C 0.73932 0.5181 0.67603 0.0
C193 C 0.74619 0.57772 0.66091 0.0
N194 N 0.70009 0.49591 0.60794 0.0
N195 N 0.79833 0.60279 0.70108 0.0
H196 H 0.72766 0.60715 0.6455 0.0
H197 H 0.76099 0.62458 0.6856 0.0
H198 H 0.81709 0.60248 0.71904 0.0
H199 H 0.80413 0.62518 0.68991 0.0
H200 H 0.70021 0.4749 0.60649 0.0
H201 H 0.68621 0.49725 0.57929 0.0
H202 H 0.71066 0.46829 0.68129 0.0
H203 H 0.74439 0.48564 0.72048 0.0
C204 C 0.23131 0.77226 -0.02122 0.0
C205 C 0.23178 0.80101 -0.01366 0.0
C206 C 0.18011 0.77763 0.94217 0.0
C207 C 0.18169 0.75041 0.92928 0.0
N208 N 0.2128 0.72514 0.92581 0.0
N209 N 0.20947 0.83315 0.96689 0.0
C210 C 0.20837 0.74859 0.94501 0.0
C211 C 0.20691 0.8043 0.96584 0.0
N212 N 0.25192 0.76693 0.00535 0.0
N213 N 0.15263 0.77767 0.93355 0.0
H214 H 0.22908 0.85347 -0.01741 0.0
H215 H 0.19365 0.83757 0.94777 0.0
H216 H 0.13222 0.75832 0.91748 0.0
H217 H 0.14905 0.79562 0.94696 0.0
H218 H 0.25031 0.74509 0.00514 0.0
H219 H 0.26843 0.78317 0.03187 0.0
H220 H 0.23359 0.72476 0.93197 0.0
H221 H 0.19737 0.70795 0.89932 0.0
C222 C 0.39264 0.20364 0.11198 0.0
C223 C 0.41942 0.20647 0.08557 0.0
C224 C 0.45423 0.25456 0.1363 0.0
C225 C 0.42716 0.25491 0.15508 0.0
N226 N 0.36982 0.23189 0.15228 0.0
N227 N 0.47566 0.23915 0.06575 0.0
C228 C 0.39606 0.22992 0.141 0.0
C229 C 0.45032 0.23304 0.09604 0.0
N230 N 0.36413 0.17567 0.11057 0.0
N231 N 0.48366 0.27435 0.15747 0.0
H232 H 0.47381 0.22553 0.03342 0.0
H233 H 0.49783 0.25993 0.06933 0.0
H234 H 0.48728 0.2895 0.18861 0.0
H235 H 0.50365 0.27297 0.14798 0.0
H236 H 0.34473 0.1717 0.13293 0.0
H237 H 0.36105 0.1554 0.09179 0.0
H238 H 0.34712 0.21561 0.13811 0.0
H239 H 0.371 0.25132 0.171 0.0
C240 C 0.36709 0.38317 0.05348 0.0
C241 C 0.33554 0.36607 0.07254 0.0
C242 C 0.35198 0.33841 0.12901 0.0
C243 C 0.38451 0.36022 0.11794 0.0
N244 N 0.4228 0.40827 0.07565 0.0
N245 N 0.29971 0.33153 0.13726 0.0
C246 C 0.39214 0.38391 0.08155 0.0
C247 C 0.32834 0.34469 0.11267 0.0
N248 N 0.37313 0.39799 0.00797 0.0
N249 N 0.34337 0.31113 0.15347 0.0
H250 H 0.28222 0.33682 0.12912 0.0
H251 H 0.29489 0.31811 0.16976 0.0
H252 H 0.35964 0.30436 0.16266 0.0
H253 H 0.31961 0.29347 0.15859 0.0
H254 H 0.39542 0.40845 -0.00945 0.0
H255 H 0.35514 0.3969 -0.01468 0.0
H256 H 0.42861 0.42736 0.05262 0.0
H257 H 0.44182 0.4115 0.09797 0.0
C258 C 0.978 0.36575 0.38275 0.0
C259 C 0.96966 0.36015 0.3301 0.0
C260 C 0.02321 0.3712 0.30893 0.0
C261 C 0.03073 0.37416 0.36183 0.0
N262 N 0.01292 0.36742 0.44936 0.0
N263 N -0.01849 0.34974 0.24463 0.0
C264 C 0.0074 0.3694 0.3989 0.0
C265 C -0.00857 0.36049 0.29364 0.0
N266 N 0.95865 0.36908 0.41704 0.0
N267 N 0.04667 0.38021 0.27313 0.0
H268 H 0.95814 0.34091 0.23219 0.0
H269 H -0.00447 0.34647 0.21792 0.0
H270 H 0.0706 0.38937 0.28237 0.0
H271 H 0.04293 0.38167 0.23443 0.0
H272 H 0.96535 0.37676 0.45482 0.0
H273 H 0.93705 0.36689 0.40675 0.0
H274 H -0.00445 0.36093 0.4774 0.0
H275 H 0.03392 0.36936 0.46252 0.0
C276 C 0.59557 0.96193 0.47814 0.0
C277 C 0.59628 0.96094 0.424 0.0
C278 C 0.63025 0.01873 0.42327 0.0
C279 C 0.62594 0.01983 0.47679 0.0
N280 N 0.60544 -0.00672 0.55627 0.0
N281 N 0.6127 -0.01235 0.34395 0.0
C282 C 0.60906 -0.0084 0.50459 0.0
C283 C 0.61366 -0.01088 0.39622 0.0
N284 N 0.58255 0.93441 0.50413 0.0
N285 N 0.64986 0.04601 0.39832 0.0
H286 H 0.60115 0.96641 0.32284 0.0
H287 H 0.62158 0.00734 0.32125 0.0
H288 H 0.66127 0.06822 0.41652 0.0
H289 H 0.65675 0.04662 0.36045 0.0
H290 H 0.58407 0.93336 0.54357 0.0
H291 H 0.57216 0.91229 0.48577 0.0
H292 H 0.59 0.974 0.57798 0.0
H293 H 0.61714 0.01443 0.57761 0.0
C294 C 0.56294 0.6223 0.61995 0.0
C295 C 0.57839 0.64018 0.66498 0.0
C296 C 0.60755 0.61231 0.67173 0.0
C297 C 0.59504 0.59741 0.62339 0.0
N298 N 0.56448 0.59166 0.54755 0.0
N299 N 0.61755 0.65475 0.73186 0.0
C300 C 0.57355 0.60316 0.59653 0.0
C301 C 0.60113 0.63573 0.69068 0.0
N302 N 0.53751 0.62298 0.60032 0.0
N303 N 0.62484 0.60347 0.70002 0.0
H304 H 0.61324 0.67188 0.74719 0.0
H305 H 0.63696 0.65516 0.74863 0.0
H306 H 0.62997 0.58642 0.68721 0.0
H307 H 0.63181 0.611 0.73774 0.0
H308 H 0.52312 0.60789 0.57078 0.0
H309 H 0.52881 0.63648 0.61683 0.0
H310 H 0.55184 0.59812 0.5241 0.0
H311 H 0.57198 0.57787 0.52844 0.0
C312 C 0.95196 0.58886 0.86692 0.0
C313 C 0.935 0.57862 0.81976 0.0
C314 C -0.01434 0.6051 0.77349 0.0
C315 C 0.00256 0.61199 0.82048 0.0
N316 N 0.00135 0.60487 0.91157 0.0
N317 N 0.93598 0.5714 0.72821 0.0
C318 C -0.01439 0.6024 0.86719 0.0
C319 C 0.95191 0.58523 0.77299 0.0
N320 N 0.93617 0.5868 0.91133 0.0
N321 N 0.00169 0.61843 0.7295 0.0
H322 H 0.91137 0.55586 0.72616 0.0
H323 H 0.94754 0.57278 0.69391 0.0
H324 H 0.02633 0.63383 0.72838 0.0
H325 H -0.00979 0.61675 0.69519 0.0
H326 H 0.9478 0.59685 0.94598 0.0
H327 H 0.91165 0.57778 0.91272 0.0
H328 H -0.01036 0.59504 0.94559 0.0
H329 H 0.02587 0.61398 0.9134 0.0
C330 C 0.40641 0.03233 0.00028 0.0
C331 C 0.38581 0.03901 0.97284 0.0
C332 C 0.34562 0.98237 0.96607 0.0
C333 C 0.36494 0.97606 -0.00227 0.0
N334 N 0.41121 -0.00468 0.0524 0.0
N335 N 0.3349 0.02127 0.9327 0.0
C336 C 0.39481 0.00108 0.01651 0.0
C337 C 0.35509 0.01426 0.95673 0.0
N338 N 0.43704 0.05588 0.01121 0.0
N339 N 0.31891 0.95783 0.94332 0.0
H340 H 0.34165 0.04409 0.92233 0.0
H341 H 0.31091 0.00483 0.92556 0.0
H342 H 0.31147 0.93422 0.94896 0.0
H343 H 0.30555 0.96068 0.91561 0.0
H344 H 0.45435 0.05173 0.02525 0.0
H345 H 0.446 0.07948 0.00294 0.0
H346 H 0.43119 0.01307 0.07192 0.0
H347 H 0.40332 0.97297 0.06644 0.0
C348 C 0.46162 0.50964 0.93545 0.0
C349 C 0.43839 0.5136 0.96175 0.0
C350 C 0.46262 0.56749 0.93089 0.0
C351 C 0.48656 0.56397 0.90599 0.0
N352 N 0.51285 0.5345 0.89272 0.0
N353 N 0.4199 0.5477 -0.00713 0.0
C354 C 0.4872 0.5358 0.9106 0.0
C355 C 0.44008 0.54309 0.96246 0.0
N356 N 0.45895 0.48072 0.93371 0.0
N357 N 0.46005 0.59317 0.92166 0.0
H358 H 0.40207 0.53 0.01475 0.0
H359 H 0.42241 0.56972 -0.00038 0.0
H360 H 0.47554 0.61131 0.89793 0.0
H361 H 0.44093 0.5953 0.93383 0.0
H362 H 0.47264 0.47514 0.91003 0.0
H363 H 0.44178 0.46159 0.9542 0.0
H364 H 0.51641 0.5159 0.89934 0.0
H365 H 0.53217 0.55338 0.87491 0.0
C366 C 0.93318 0.4659 0.03814 0.0
C367 C 0.91074 0.4759 0.03949 0.0
C368 C 0.89146 0.45122 0.12242 0.0
C369 C 0.91192 0.43887 0.11879 0.0
N370 N 0.94673 0.42829 0.06741 0.0
N371 N 0.86345 0.47168 0.07696 0.0
C372 C 0.93118 0.4444 0.07492 0.0
C373 C 0.88839 0.46674 0.07994 0.0
N374 N 0.95733 0.47798 0.00329 0.0
N375 N 0.87603 0.44946 0.16711 0.0
H376 H 0.85969 0.48204 0.04577 0.0
H377 H 0.84469 0.46257 0.10287 0.0
H378 H 0.87802 0.43882 0.19953 0.0
H379 H 0.86366 0.46116 0.17355 0.0
H380 H 0.97626 0.47402 0.00419 0.0
H381 H 0.96028 0.49449 -0.02345 0.0
H382 H 0.95845 0.42901 0.0336 0.0
H383 H 0.94511 0.41161 0.09271 0.0
C384 C 0.43049 0.84422 0.20027 0.0
C385 C 0.43191 0.85801 0.24919 0.0
C386 C 0.39971 0.87883 0.21712 0.0
C387 C 0.40286 0.86961 0.16673 0.0
N388 N 0.4236 0.84566 0.10901 0.0
N389 N 0.42171 0.89255 0.30262 0.0
C390 C 0.41853 0.85249 0.15788 0.0
C391 C 0.41723 0.87613 0.25748 0.0
N392 N 0.44014 0.82286 0.19457 0.0
N393 N 0.37955 0.88978 0.2265 0.0
H394 H 0.43516 0.89222 0.33295 0.0
H395 H 0.4146 0.90894 0.30829 0.0
H396 H 0.36588 0.89151 0.19785 0.0
H397 H 0.37386 0.89392 0.2632 0.0
H398 H 0.43678 0.80964 0.16103 0.0
H399 H 0.44877 0.81616 0.225 0.0
H400 H 0.43811 0.83655 0.1001 0.0
H401 H 0.41526 0.85127 0.07691 0.0
C402 C 0.52825 0.46696 0.37453 0.0
C403 C 0.54731 0.4591 0.40373 0.0
C404 C 0.54956 0.42804 0.33078 0.0
C405 C 0.52762 0.43315 0.30391 0.0
N406 N 0.49043 0.45149 0.30512 0.0
N407 N 0.57282 0.42883 0.41274 0.0
C408 C 0.51542 0.45099 0.32708 0.0
C409 C 0.5572 0.43878 0.38268 0.0
N410 N 0.52337 0.49059 0.39111 0.0
N411 N 0.56383 0.41384 0.30626 0.0
H412 H 0.57881 0.43623 0.45084 0.0
H413 H 0.57757 0.41135 0.40125 0.0
H414 H 0.55887 0.40578 0.26828 0.0
H415 H 0.58248 0.41242 0.32208 0.0
H416 H 0.51246 0.49947 0.36868 0.0
H417 H 0.53317 0.50366 0.42496 0.0
H418 H 0.47848 0.46137 0.32328 0.0
H419 H 0.47937 0.43916 0.27126 0.0
C420 C -0.00718 0.47643 0.6283 0.0
C421 C -0.00077 0.50637 0.6126 0.0
C422 C 0.00607 0.4928 0.52465 0.0
C423 C 0.00664 0.46629 0.54247 0.0
N424 N -0.00127 0.4313 0.61073 0.0
N425 N 0.01452 0.5444 0.54595 0.0
C426 C -0.00108 0.45733 0.59402 0.0
C427 C 0.00615 0.51482 0.56066 0.0
N428 N 0.98023 0.46602 0.67554 0.0
N429 N 0.00394 0.49611 0.47348 0.0
H430 H 0.01546 0.5616 0.57103 0.0
H431 H 0.02321 0.55275 0.5097 0.0
H432 H 0.00118 0.47895 0.44646 0.0
H433 H 0.00074 0.5136 0.45859 0.0
H434 H 0.9722 0.44325 0.68758 0.0
H435 H 0.97496 0.47925 0.70111 0.0
H436 H -0.00262 0.42578 0.6491 0.0
H437 H 0.00153 0.4159 0.58624 0.0
C438 C 0.55152 0.11615 0.69606 0.0
C439 C 0.54749 0.08731 0.67621 0.0
C440 C 0.50095 0.05765 0.73098 0.0
C441 C 0.50659 0.08643 0.75395 0.0
N442 N 0.54175 0.14273 0.76658 0.0
N443 N 0.52356 0.03101 0.68435 0.0
C444 C 0.53322 0.11563 0.7389 0.0
C445 C 0.52373 0.05815 0.69651 0.0
N446 N 0.5717 0.14389 0.67275 0.0
N447 N 0.47315 0.02997 0.73997 0.0
H448 H 0.54056 0.0305 0.66071 0.0
H449 H 0.50872 0.00969 0.70208 0.0
H450 H 0.45526 0.02855 0.76368 0.0
H451 H 0.46644 0.00895 0.71986 0.0
H452 H 0.57288 0.16506 0.68228 0.0
H453 H 0.58515 0.1453 0.64074 0.0
H454 H 0.5628 0.16407 0.7604 0.0
H455 H 0.52955 0.14321 0.79911 0.0
loop_
_geom_bond_atom_site_label_1
_geom_bond_atom_site_label_2
_geom_bond_distance
_geom_bond_site_symmetry_2
_ccdc_geom_bond_type
O0 Cd1 2.300 . S
O0 C7 1.275 . S
Cd1 O0 2.300 . S
Cd1 O9 2.381 . S
Cd1 O10 2.378 . S
O2 Cd3 2.385 . S
O2 C7 1.255 . S
Cd3 O2 2.385 . S
Cd3 O4 2.317 . S
O4 Cd3 2.317 . S
O4 C5 1.232 . S
C5 O4 1.232 . S
C5 O6 1.218 . S
O6 C5 1.218 . S
C7 O0 1.275 . S
C7 O2 1.255 . S
C8 O9 1.258 . S
C8 O10 1.256 . S
O9 Cd1 2.381 . S
O9 C8 1.258 . S
O10 Cd1 2.378 . S
O10 C8 1.256 . S
O11 Cd12 2.300 . S
O11 C18 1.275 . S
Cd12 O11 2.300 . S
Cd12 O20 2.381 . S
Cd12 O21 2.378 . S
O13 Cd14 2.385 . S
O13 C18 1.255 . S
Cd14 O13 2.385 . S
Cd14 O15 2.317 . S
O15 Cd14 2.317 . S
O15 C16 1.232 . S
C16 O15 1.232 . S
C16 O17 1.218 . S
O17 C16 1.218 . S
C18 O11 1.275 . S
C18 O13 1.255 . S
C19 O20 1.258 . S
C19 O21 1.256 . S
O20 Cd12 2.381 . S
O20 C19 1.258 . S
O21 Cd12 2.378 . S
O21 C19 1.256 . S
O22 Cd23 2.300 . S
O22 C29 1.275 . S
Cd23 O22 2.300 . S
Cd23 O31 2.381 . S
Cd23 O32 2.378 . S
O24 Cd25 2.385 . S
O24 C29 1.255 . S
Cd25 O24 2.385 . S
Cd25 O26 2.317 . S
O26 Cd25 2.317 . S
O26 C27 1.232 . S
C27 O26 1.232 . S
C27 O28 1.218 . S
O28 C27 1.218 . S
C29 O22 1.275 . S
C29 O24 1.255 . S
C30 O31 1.258 . S
C30 O32 1.256 . S
O31 Cd23 2.381 . S
O31 C30 1.258 . S
O32 Cd23 2.378 . S
O32 C30 1.256 . S
O33 Cd34 2.300 . S
O33 C40 1.275 . S
Cd34 O33 2.300 . S
Cd34 O42 2.381 . S
Cd34 O43 2.378 . S
O35 Cd36 2.385 . S
O35 C40 1.255 . S
Cd36 O35 2.385 . S
Cd36 O37 2.317 . S
O37 Cd36 2.317 . S
O37 C38 1.232 . S
C38 O37 1.232 . S
C38 O39 1.218 . S
O39 C38 1.218 . S
C40 O33 1.275 . S
C40 O35 1.255 . S
C41 O42 1.258 . S
C41 O43 1.256 . S
O42 Cd34 2.381 . S
O42 C41 1.258 . S
O43 Cd34 2.378 . S
O43 C41 1.256 . S
O44 Cd45 2.300 . S
O44 C51 1.275 . S
Cd45 O44 2.300 . S
Cd45 O53 2.381 . S
Cd45 O54 2.378 . S
O46 Cd47 2.385 . S
O46 C51 1.255 . S
Cd47 O46 2.385 . S
Cd47 O48 2.317 . S
O48 Cd47 2.317 . S
O48 C49 1.232 . S
C49 O48 1.232 . S
C49 O50 1.218 . S
O50 C49 1.218 . S
C51 O44 1.275 . S
C51 O46 1.255 . S
C52 O53 1.258 . S
C52 O54 1.256 . S
O53 Cd45 2.381 . S
O53 C52 1.258 . S
O54 Cd45 2.378 . S
O54 C52 1.256 . S
O55 Cd56 2.300 . S
O55 C62 1.275 . S
Cd56 O55 2.300 . S
Cd56 O64 2.381 1_556 S
Cd56 O65 2.378 1_556 S
O57 Cd58 2.385 . S
O57 C62 1.255 . S
Cd58 O57 2.385 . S
Cd58 O59 2.317 . S
O59 Cd58 2.317 . S
O59 C60 1.232 . S
C60 O59 1.232 . S
C60 O61 1.218 . S
O61 C60 1.218 . S
C62 O55 1.275 . S
C62 O57 1.255 . S
C63 O64 1.258 . S
C63 O65 1.256 . S
O64 Cd56 2.381 1_554 S
O64 C63 1.258 . S
O65 Cd56 2.378 1_554 S
O65 C63 1.256 . S
O66 Cd67 2.300 . S
O66 C73 1.275 . S
Cd67 O66 2.300 . S
Cd67 O75 2.381 . S
Cd67 O76 2.378 . S
O68 Cd69 2.385 . S
O68 C73 1.255 . S
Cd69 O68 2.385 . S
Cd69 O70 2.317 . S
O70 Cd69 2.317 . S
O70 C71 1.232 . S
C71 O70 1.232 . S
C71 O72 1.218 . S
O72 C71 1.218 . S
C73 O66 1.275 . S
C73 O68 1.255 . S
C74 O75 1.258 . S
C74 O76 1.256 . S
O75 Cd67 2.381 . S
O75 C74 1.258 . S
O76 Cd67 2.378 . S
O76 C74 1.256 . S
O77 Cd78 2.300 . S
O77 C84 1.275 . S
Cd78 O77 2.300 . S
Cd78 O86 2.381 . S
Cd78 O87 2.378 . S
O79 Cd80 2.385 . S
O79 C84 1.255 . S
Cd80 O79 2.385 . S
Cd80 O81 2.317 . S
O81 Cd80 2.317 . S
O81 C82 1.232 . S
C82 O81 1.232 . S
C82 O83 1.218 . S
O83 C82 1.218 . S
C84 O77 1.275 . S
C84 O79 1.255 . S
C85 O86 1.258 . S
C85 O87 1.256 . S
O86 Cd78 2.381 . S
O86 C85 1.258 . S
O87 Cd78 2.378 . S
O87 C85 1.256 . S
O88 Cd89 2.300 . S
O88 C95 1.275 . S
Cd89 O88 2.300 . S
Cd89 O97 2.381 1_554 S
Cd89 O98 2.378 1_554 S
O90 Cd91 2.385 . S
O90 C95 1.255 . S
Cd91 O90 2.385 . S
Cd91 O92 2.317 . S
O92 Cd91 2.317 . S
O92 C93 1.232 . S
C93 O92 1.232 . S
C93 O94 1.218 . S
O94 C93 1.218 . S
C95 O88 1.275 . S
C95 O90 1.255 . S
C96 O97 1.258 . S
C96 O98 1.256 . S
O97 Cd89 2.381 1_556 S
O97 C96 1.258 . S
O98 Cd89 2.378 1_556 S
O98 C96 1.256 . S
O99 Cd100 2.300 . S
O99 C106 1.275 . S
Cd100 O99 2.300 . S
Cd100 O108 2.381 . S
Cd100 O109 2.378 . S
O101 Cd102 2.385 . S
O101 C106 1.255 . S
Cd102 O101 2.385 . S
Cd102 O103 2.317 . S
O103 Cd102 2.317 . S
O103 C104 1.232 . S
C104 O103 1.232 . S
C104 O105 1.218 . S
O105 C104 1.218 . S
C106 O99 1.275 . S
C106 O101 1.255 . S
C107 O108 1.258 . S
C107 O109 1.256 . S
O108 Cd100 2.381 . S
O108 C107 1.258 . S
O109 Cd100 2.378 . S
O109 C107 1.256 . S
O110 Cd111 2.300 . S
O110 C117 1.275 . S
Cd111 O110 2.300 . S
Cd111 O119 2.381 . S
Cd111 O120 2.378 . S
O112 Cd113 2.385 . S
O112 C117 1.255 . S
Cd113 O112 2.385 . S
Cd113 O114 2.317 . S
O114 Cd113 2.317 . S
O114 C115 1.232 . S
C115 O114 1.232 . S
C115 O116 1.218 . S
O116 C115 1.218 . S
C117 O110 1.275 . S
C117 O112 1.255 . S
C118 O119 1.258 . S
C118 O120 1.256 . S
O119 Cd111 2.381 . S
O119 C118 1.258 . S
O120 Cd111 2.378 . S
O120 C118 1.256 . S
O121 Cd122 2.300 . S
O121 C128 1.275 . S
Cd122 O121 2.300 . S
Cd122 O130 2.381 . S
Cd122 O131 2.378 . S
O123 Cd124 2.385 . S
O123 C128 1.255 . S
Cd124 O123 2.385 . S
Cd124 O125 2.317 . S
O125 Cd124 2.317 . S
O125 C126 1.232 . S
C126 O125 1.232 . S
C126 O127 1.218 . S
O127 C126 1.218 . S
C128 O121 1.275 . S
C128 O123 1.255 . S
C129 O130 1.258 . S
C129 O131 1.256 . S
O130 Cd122 2.381 . S
O130 C129 1.258 . S
O131 Cd122 2.378 . S
O131 C129 1.256 . S
C132 C133 1.363 . S
C132 C138 1.379 . S
C132 N140 1.356 . S
C133 C132 1.363 . S
C133 C139 1.363 . S
C134 C135 1.363 . S
C134 C139 1.379 . S
C134 N141 1.356 . S
C135 C134 1.363 . S
C135 C138 1.363 . S
N136 C138 1.356 . S
N136 H148 0.984 . S
N136 H149 0.985 . S
N137 C139 1.356 . S
N137 H142 0.984 . S
N137 H143 0.985 . S
C138 C132 1.379 . S
C138 C135 1.363 . S
C138 N136 1.356 . S
C139 C133 1.363 . S
C139 C134 1.379 . S
C139 N137 1.356 . S
N140 C132 1.356 . S
N140 H146 0.984 . S
N140 H147 0.984 . S
N141 C134 1.356 . S
N141 H144 0.984 . S
N141 H145 0.985 . S
H142 N137 0.984 . S
H143 N137 0.985 . S
H144 N141 0.984 . S
H145 N141 0.985 . S
H146 N140 0.984 . S
H147 N140 0.984 . S
H148 N136 0.984 . S
H149 N136 0.985 . S
C150 C151 1.363 . S
C150 C156 1.379 . S
C150 N158 1.356 . S
C151 C150 1.363 . S
C151 C157 1.363 . S
C152 C153 1.363 . S
C152 C157 1.379 . S
C152 N159 1.356 . S
C153 C152 1.363 . S
C153 C156 1.363 . S
N154 C156 1.356 . S
N154 H166 0.984 . S
N154 H167 0.985 . S
N155 C157 1.356 . S
N155 H160 0.984 . S
N155 H161 0.985 . S
C156 C150 1.379 . S
C156 C153 1.363 . S
C156 N154 1.356 . S
C157 C151 1.363 . S
C157 C152 1.379 . S
C157 N155 1.356 . S
N158 C150 1.356 . S
N158 H164 0.984 . S
N158 H165 0.984 . S
N159 C152 1.356 . S
N159 H162 0.984 . S
N159 H163 0.985 . S
H160 N155 0.984 . S
H161 N155 0.985 . S
H162 N159 0.984 . S
H163 N159 0.985 . S
H164 N158 0.984 . S
H165 N158 0.984 . S
H166 N154 0.984 . S
H167 N154 0.985 . S
C168 C169 1.363 . S
C168 C174 1.379 . S
C168 N176 1.356 . S
C169 C168 1.363 . S
C169 C175 1.363 . S
C170 C171 1.363 . S
C170 C175 1.379 . S
C170 N177 1.356 . S
C171 C170 1.363 . S
C171 C174 1.363 . S
N172 C174 1.356 . S
N172 H184 0.984 . S
N172 H185 0.985 . S
N173 C175 1.356 . S
N173 H178 0.984 . S
N173 H179 0.985 . S
C174 C168 1.379 . S
C174 C171 1.363 . S
C174 N172 1.356 . S
C175 C169 1.363 . S
C175 C170 1.379 . S
C175 N173 1.356 . S
N176 C168 1.356 . S
N176 H182 0.984 . S
N176 H183 0.984 . S
N177 C170 1.356 . S
N177 H180 0.984 . S
N177 H181 0.985 . S
H178 N173 0.984 . S
H179 N173 0.985 . S
H180 N177 0.984 . S
H181 N177 0.985 . S
H182 N176 0.984 . S
H183 N176 0.984 . S
H184 N172 0.984 . S
H185 N172 0.985 . S
C186 C187 1.363 . S
C186 C192 1.379 . S
C186 N194 1.356 . S
C187 C186 1.363 . S
C187 C193 1.363 . S
C188 C189 1.363 . S
C188 C193 1.379 . S
C188 N195 1.356 . S
C189 C188 1.363 . S
C189 C192 1.363 . S
N190 C192 1.356 . S
N190 H202 0.984 . S
N190 H203 0.985 . S
N191 C193 1.356 . S
N191 H196 0.984 . S
N191 H197 0.985 . S
C192 C186 1.379 . S
C192 C189 1.363 . S
C192 N190 1.356 . S
C193 C187 1.363 . S
C193 C188 1.379 . S
C193 N191 1.356 . S
N194 C186 1.356 . S
N194 H200 0.984 . S
N194 H201 0.984 . S
N195 C188 1.356 . S
N195 H198 0.984 . S
N195 H199 0.985 . S
H196 N191 0.984 . S
H197 N191 0.985 . S
H198 N195 0.984 . S
H199 N195 0.985 . S
H200 N194 0.984 . S
H201 N194 0.984 . S
H202 N190 0.984 . S
H203 N190 0.985 . S
C204 C205 1.363 . S
C204 C210 1.379 . S
C204 N212 1.356 . S
C205 C204 1.363 . S
C205 C211 1.363 . S
C206 C207 1.363 . S
C206 C211 1.379 . S
C206 N213 1.356 . S
C207 C206 1.363 . S
C207 C210 1.363 . S
N208 C210 1.356 . S
N208 H220 0.984 . S
N208 H221 0.985 . S
N209 C211 1.356 . S
N209 H214 0.984 . S
N209 H215 0.985 . S
C210 C204 1.379 . S
C210 C207 1.363 . S
C210 N208 1.356 . S
C211 C205 1.363 . S
C211 C206 1.379 . S
C211 N209 1.356 . S
N212 C204 1.356 . S
N212 H218 0.984 . S
N212 H219 0.984 . S
N213 C206 1.356 . S
N213 H216 0.984 . S
N213 H217 0.985 . S
H214 N209 0.984 . S
H215 N209 0.985 . S
H216 N213 0.984 . S
H217 N213 0.985 . S
H218 N212 0.984 . S
H219 N212 0.984 . S
H220 N208 0.984 . S
H221 N208 0.985 . S
C222 C223 1.363 . S
C222 C228 1.379 . S
C222 N230 1.356 . S
C223 C222 1.363 . S
C223 C229 1.363 . S
C224 C225 1.363 . S
C224 C229 1.379 . S
C224 N231 1.356 . S
C225 C224 1.363 . S
C225 C228 1.363 . S
N226 C228 1.356 . S
N226 H238 0.984 . S
N226 H239 0.985 . S
N227 C229 1.356 . S
N227 H232 0.984 1_554 S
N227 H233 0.985 . S
C228 C222 1.379 . S
C228 C225 1.363 . S
C228 N226 1.356 . S
C229 C223 1.363 . S
C229 C224 1.379 . S
C229 N227 1.356 . S
N230 C222 1.356 . S
N230 H236 0.984 . S
N230 H237 0.984 . S
N231 C224 1.356 . S
N231 H234 0.984 . S
N231 H235 0.985 . S
H232 N227 0.984 1_556 S
H233 N227 0.985 . S
H234 N231 0.984 . S
H235 N231 0.985 . S
H236 N230 0.984 . S
H237 N230 0.984 . S
H238 N226 0.984 . S
H239 N226 0.985 . S
C240 C241 1.363 . S
C240 C246 1.379 . S
C240 N248 1.356 . S
C241 C240 1.363 . S
C241 C247 1.363 . S
C242 C243 1.363 . S
C242 C247 1.379 . S
C242 N249 1.356 . S
C243 C242 1.363 . S
C243 C246 1.363 . S
N244 C246 1.356 . S
N244 H256 0.984 . S
N244 H257 0.985 . S
N245 C247 1.356 . S
N245 H250 0.984 . S
N245 H251 0.985 . S
C246 C240 1.379 . S
C246 C243 1.363 . S
C246 N244 1.356 . S
C247 C241 1.363 . S
C247 C242 1.379 . S
C247 N245 1.356 . S
N248 C240 1.356 . S
N248 H254 0.984 . S
N248 H255 0.984 . S
N249 C242 1.356 . S
N249 H252 0.984 . S
N249 H253 0.985 . S
H250 N245 0.984 . S
H251 N245 0.985 . S
H252 N249 0.984 . S
H253 N249 0.985 . S
H254 N248 0.984 . S
H255 N248 0.984 . S
H256 N244 0.984 . S
H257 N244 0.985 . S
C258 C259 1.363 . S
C258 C264 1.379 1_655 S
C258 N266 1.356 . S
C259 C258 1.363 . S
C259 C265 1.363 . S
C260 C261 1.363 . S
C260 C265 1.379 1_455 S
C260 N267 1.356 . S
C261 C260 1.363 . S
C261 C264 1.363 . S
N262 C264 1.356 . S
N262 H274 0.984 . S
N262 H275 0.985 . S
N263 C265 1.356 . S
N263 H268 0.984 . S
N263 H269 0.985 . S
C264 C258 1.379 1_455 S
C264 C261 1.363 . S
C264 N262 1.356 . S
C265 C259 1.363 . S
C265 C260 1.379 1_655 S
C265 N263 1.356 . S
N266 C258 1.356 . S
N266 H272 0.984 . S
N266 H273 0.984 . S
N267 C260 1.356 . S
N267 H270 0.984 . S
N267 H271 0.985 . S
H268 N263 0.984 . S
H269 N263 0.985 . S
H270 N267 0.984 . S
H271 N267 0.985 . S
H272 N266 0.984 . S
H273 N266 0.984 . S
H274 N262 0.984 . S
H275 N262 0.985 . S
C276 C277 1.363 . S
C276 C282 1.379 1_565 S
C276 N284 1.356 . S
C277 C276 1.363 . S
C277 C283 1.363 . S
C278 C279 1.363 . S
C278 C283 1.379 1_545 S
C278 N285 1.356 . S
C279 C278 1.363 . S
C279 C282 1.363 . S
N280 C282 1.356 . S
N280 H292 0.984 . S
N280 H293 0.985 . S
N281 C283 1.356 . S
N281 H286 0.984 . S
N281 H287 0.985 . S
C282 C276 1.379 1_545 S
C282 C279 1.363 . S
C282 N280 1.356 . S
C283 C277 1.363 . S
C283 C278 1.379 1_565 S
C283 N281 1.356 . S
N284 C276 1.356 . S
N284 H290 0.984 . S
N284 H291 0.984 . S
N285 C278 1.356 . S
N285 H288 0.984 . S
N285 H289 0.985 . S
H286 N281 0.984 . S
H287 N281 0.985 . S
H288 N285 0.984 . S
H289 N285 0.985 . S
H290 N284 0.984 . S
H291 N284 0.984 . S
H292 N280 0.984 . S
H293 N280 0.985 . S
C294 C295 1.363 . S
C294 C300 1.379 . S
C294 N302 1.356 . S
C295 C294 1.363 . S
C295 C301 1.363 . S
C296 C297 1.363 . S
C296 C301 1.379 . S
C296 N303 1.356 . S
C297 C296 1.363 . S
C297 C300 1.363 . S
N298 C300 1.356 . S
N298 H310 0.984 . S
N298 H311 0.985 . S
N299 C301 1.356 . S
N299 H304 0.984 . S
N299 H305 0.985 . S
C300 C294 1.379 . S
C300 C297 1.363 . S
C300 N298 1.356 . S
C301 C295 1.363 . S
C301 C296 1.379 . S
C301 N299 1.356 . S
N302 C294 1.356 . S
N302 H308 0.984 . S
N302 H309 0.984 . S
N303 C296 1.356 . S
N303 H306 0.984 . S
N303 H307 0.985 . S
H304 N299 0.984 . S
H305 N299 0.985 . S
H306 N303 0.984 . S
H307 N303 0.985 . S
H308 N302 0.984 . S
H309 N302 0.984 . S
H310 N298 0.984 . S
H311 N298 0.985 . S
C312 C313 1.363 . S
C312 C318 1.379 1_655 S
C312 N320 1.356 . S
C313 C312 1.363 . S
C313 C319 1.363 . S
C314 C315 1.363 . S
C314 C319 1.379 1_455 S
C314 N321 1.356 . S
C315 C314 1.363 . S
C315 C318 1.363 . S
N316 C318 1.356 . S
N316 H328 0.984 . S
N316 H329 0.985 . S
N317 C319 1.356 . S
N317 H322 0.984 . S
N317 H323 0.985 . S
C318 C312 1.379 1_455 S
C318 C315 1.363 . S
C318 N316 1.356 . S
C319 C313 1.363 . S
C319 C314 1.379 1_655 S
C319 N317 1.356 . S
N320 C312 1.356 . S
N320 H326 0.984 . S
N320 H327 0.984 . S
N321 C314 1.356 . S
N321 H324 0.984 . S
N321 H325 0.985 . S
H322 N317 0.984 . S
H323 N317 0.985 . S
H324 N321 0.984 . S
H325 N321 0.985 . S
H326 N320 0.984 . S
H327 N320 0.984 . S
H328 N316 0.984 . S
H329 N316 0.985 . S
C330 C331 1.363 1_554 S
C330 C336 1.379 1_545 S
C330 N338 1.356 . S
C331 C330 1.363 1_556 S
C331 C337 1.363 . S
C332 C333 1.363 1_556 S
C332 C337 1.379 1_565 S
C332 N339 1.356 . S
C333 C332 1.363 1_554 S
C333 C336 1.363 . S
N334 C336 1.356 . S
N334 H346 0.984 . S
N334 H347 0.985 . S
N335 C337 1.356 . S
N335 H340 0.984 . S
N335 H341 0.985 . S
C336 C330 1.379 1_565 S
C336 C333 1.363 . S
C336 N334 1.356 . S
C337 C331 1.363 . S
C337 C332 1.379 1_545 S
C337 N335 1.356 . S
N338 C330 1.356 . S
N338 H344 0.984 . S
N338 H345 0.984 . S
N339 C332 1.356 . S
N339 H342 0.984 . S
N339 H343 0.985 . S
H340 N335 0.984 . S
H341 N335 0.985 . S
H342 N339 0.984 . S
H343 N339 0.985 . S
H344 N338 0.984 . S
H345 N338 0.984 . S
H346 N334 0.984 . S
H347 N334 0.985 . S
C348 C349 1.363 . S
C348 C354 1.379 . S
C348 N356 1.356 . S
C349 C348 1.363 . S
C349 C355 1.363 . S
C350 C351 1.363 . S
C350 C355 1.379 . S
C350 N357 1.356 . S
C351 C350 1.363 . S
C351 C354 1.363 . S
N352 C354 1.356 . S
N352 H364 0.984 . S
N352 H365 0.985 . S
N353 C355 1.356 1_554 S
N353 H358 0.984 . S
N353 H359 0.985 . S
C354 C348 1.379 . S
C354 C351 1.363 . S
C354 N352 1.356 . S
C355 C349 1.363 . S
C355 C350 1.379 . S
C355 N353 1.356 1_556 S
N356 C348 1.356 . S
N356 H362 0.984 . S
N356 H363 0.984 . S
N357 C350 1.356 . S
N357 H360 0.984 . S
N357 H361 0.985 . S
H358 N353 0.984 . S
H359 N353 0.985 . S
H360 N357 0.984 . S
H361 N357 0.985 . S
H362 N356 0.984 . S
H363 N356 0.984 . S
H364 N352 0.984 . S
H365 N352 0.985 . S
C366 C367 1.363 . S
C366 C372 1.379 . S
C366 N374 1.356 1_554 S
C367 C366 1.363 . S
C367 C373 1.363 . S
C368 C369 1.363 . S
C368 C373 1.379 . S
C368 N375 1.356 . S
C369 C368 1.363 . S
C369 C372 1.363 . S
N370 C372 1.356 . S
N370 H382 0.984 . S
N370 H383 0.985 . S
N371 C373 1.356 . S
N371 H376 0.984 . S
N371 H377 0.985 . S
C372 C366 1.379 . S
C372 C369 1.363 . S
C372 N370 1.356 . S
C373 C367 1.363 . S
C373 C368 1.379 . S
C373 N371 1.356 . S
N374 C366 1.356 1_556 S
N374 H380 0.984 . S
N374 H381 0.984 . S
N375 C368 1.356 . S
N375 H378 0.984 . S
N375 H379 0.985 . S
H376 N371 0.984 . S
H377 N371 0.985 . S
H378 N375 0.984 . S
H379 N375 0.985 . S
H380 N374 0.984 . S
H381 N374 0.984 . S
H382 N370 0.984 . S
H383 N370 0.985 . S
C384 C385 1.363 . S
C384 C390 1.379 . S
C384 N392 1.356 . S
C385 C384 1.363 . S
C385 C391 1.363 . S
C386 C387 1.363 . S
C386 C391 1.379 . S
C386 N393 1.356 . S
C387 C386 1.363 . S
C387 C390 1.363 . S
N388 C390 1.356 . S
N388 H400 0.984 . S
N388 H401 0.985 . S
N389 C391 1.356 . S
N389 H394 0.984 . S
N389 H395 0.985 . S
C390 C384 1.379 . S
C390 C387 1.363 . S
C390 N388 1.356 . S
C391 C385 1.363 . S
C391 C386 1.379 . S
C391 N389 1.356 . S
N392 C384 1.356 . S
N392 H398 0.984 . S
N392 H399 0.984 . S
N393 C386 1.356 . S
N393 H396 0.984 . S
N393 H397 0.985 . S
H394 N389 0.984 . S
H395 N389 0.985 . S
H396 N393 0.984 . S
H397 N393 0.985 . S
H398 N392 0.984 . S
H399 N392 0.984 . S
H400 N388 0.984 . S
H401 N388 0.985 . S
C402 C403 1.363 . S
C402 C408 1.379 . S
C402 N410 1.356 . S
C403 C402 1.363 . S
C403 C409 1.363 . S
C404 C405 1.363 . S
C404 C409 1.379 . S
C404 N411 1.356 . S
C405 C404 1.363 . S
C405 C408 1.363 . S
N406 C408 1.356 . S
N406 H418 0.984 . S
N406 H419 0.985 . S
N407 C409 1.356 . S
N407 H412 0.984 . S
N407 H413 0.985 . S
C408 C402 1.379 . S
C408 C405 1.363 . S
C408 N406 1.356 . S
C409 C403 1.363 . S
C409 C404 1.379 . S
C409 N407 1.356 . S
N410 C402 1.356 . S
N410 H416 0.984 . S
N410 H417 0.984 . S
N411 C404 1.356 . S
N411 H414 0.984 . S
N411 H415 0.985 . S
H412 N407 0.984 . S
H413 N407 0.985 . S
H414 N411 0.984 . S
H415 N411 0.985 . S
H416 N410 0.984 . S
H417 N410 0.984 . S
H418 N406 0.984 . S
H419 N406 0.985 . S
C420 C421 1.363 . S
C420 C426 1.379 . S
C420 N428 1.356 . S
C421 C420 1.363 . S
C421 C427 1.363 . S
C422 C423 1.363 . S
C422 C427 1.379 . S
C422 N429 1.356 . S
C423 C422 1.363 . S
C423 C426 1.363 . S
N424 C426 1.356 . S
N424 H436 0.984 . S
N424 H437 0.985 . S
N425 C427 1.356 . S
N425 H430 0.984 . S
N425 H431 0.985 . S
C426 C420 1.379 . S
C426 C423 1.363 . S
C426 N424 1.356 . S
C427 C421 1.363 . S
C427 C422 1.379 . S
C427 N425 1.356 . S
N428 C420 1.356 . S
N428 H434 0.984 . S
N428 H435 0.984 . S
N429 C422 1.356 . S
N429 H432 0.984 . S
N429 H433 0.985 . S
H430 N425 0.984 . S
H431 N425 0.985 . S
H432 N429 0.984 . S
H433 N429 0.985 . S
H434 N428 0.984 . S
H435 N428 0.984 . S
H436 N424 0.984 . S
H437 N424 0.985 . S
C438 C439 1.363 . S
C438 C444 1.379 . S
C438 N446 1.356 . S
C439 C438 1.363 . S
C439 C445 1.363 . S
C440 C441 1.363 . S
C440 C445 1.379 . S
C440 N447 1.356 . S
C441 C440 1.363 . S
C441 C444 1.363 . S
N442 C444 1.356 . S
N442 H454 0.984 . S
N442 H455 0.985 . S
N443 C445 1.356 . S
N443 H448 0.984 . S
N443 H449 0.985 . S
C444 C438 1.379 . S
C444 C441 1.363 . S
C444 N442 1.356 . S
C445 C439 1.363 . S
C445 C440 1.379 . S
C445 N443 1.356 . S
N446 C438 1.356 . S
N446 H452 0.984 . S
N446 H453 0.984 . S
N447 C440 1.356 . S
N447 H450 0.984 . S
N447 H451 0.985 . S
H448 N443 0.984 . S
H449 N443 0.985 . S
H450 N447 0.984 . S
H451 N447 0.985 . S
H452 N446 0.984 . S
H453 N446 0.984 . S
H454 N442 0.984 . S
H455 N442 0.985 . S
C133 C8 1.542 . S
C135 C118 1.542 . S
C151 C129 1.541 . S
C153 C19 1.541 . S
C169 C74 1.541 . S
C171 C30 1.541 . S
C187 C41 1.542 . S
C189 C85 1.542 . S
C205 C96 1.542 . S
C207 C52 1.542 . S
C223 C63 1.541 . S
C225 C107 1.541 . S
C241 C7 1.438 . S
C243 C106 1.438 . S
C259 C18 1.438 . S
C261 C117 1.438 . S
C277 C29 1.438 . S
C279 C128 1.438 . S
C295 C73 1.438 . S
C297 C40 1.438 . S
C313 C84 1.438 . S
C315 C51 1.438 . S
C331 C62 1.438 . S
C333 C95 1.438 . S
C349 C5 1.349 1_556 S
C351 C71 1.349 . S
C367 C82 1.349 1_554 S
C369 C16 1.349 . S
C385 C27 1.349 . S
C387 C93 1.349 . S
C403 C38 1.349 . S
C405 C104 1.349 . S
C421 C49 1.349 . S
C423 C115 1.349 . S
C439 C126 1.349 . S
C441 C60 1.349 . S
