# Generated by pormake.
# Topology lcy-a, (4)-cn, num edge types: 1
# Building blocks:
#     Node 0, Type 0, BuildingBlock: CEKHIL_clean_sbu_0, # of connection points: 4
#     Node 1, Type 0, BuildingBlock: CEKHIL_clean_sbu_0, # of connection points: 4
#     Node 2, Type 0, BuildingBlock: CEKHIL_clean_sbu_0, # of connection points: 4
#     Node 3, Type 0, BuildingBlock: CEKHIL_clean_sbu_0, # of connection points: 4
#     Node 4, Type 0, BuildingBlock: CEKHIL_clean_sbu_0, # of connection points: 4
#     Node 5, Type 0, BuildingBlock: CEKHIL_clean_sbu_0, # of connection points: 4
#     Node 6, Type 0, BuildingBlock: CEKHIL_clean_sbu_0, # of connection points: 4
#     Node 7, Type 0, BuildingBlock: CEKHIL_clean_sbu_0, # of connection points: 4
#     Node 8, Type 0, BuildingBlock: CEKHIL_clean_sbu_0, # of connection points: 4
#     Node 9, Type 0, BuildingBlock: CEKHIL_clean_sbu_0, # of connection points: 4
#     Node 10, Type 0, BuildingBlock: CEKHIL_clean_sbu_0, # of connection points: 4
#     Node 11, Type 0, BuildingBlock: CEKHIL_clean_sbu_0, # of connection points: 4
#     Node 12, Type 0, BuildingBlock: CEKHIL_clean_sbu_0, # of connection points: 4
#     Node 13, Type 0, BuildingBlock: CEKHIL_clean_sbu_0, # of connection points: 4
#     Node 14, Type 0, BuildingBlock: CEKHIL_clean_sbu_0, # of connection points: 4
#     Node 15, Type 0, BuildingBlock: CEKHIL_clean_sbu_0, # of connection points: 4
#     Node 16, Type 0, BuildingBlock: CEKHIL_clean_sbu_0, # of connection points: 4
#     Node 17, Type 0, BuildingBlock: CEKHIL_clean_sbu_0, # of connection points: 4
#     Node 18, Type 0, BuildingBlock: CEKHIL_clean_sbu_0, # of connection points: 4
#     Node 19, Type 0, BuildingBlock: CEKHIL_clean_sbu_0, # of connection points: 4
#     Node 20, Type 0, BuildingBlock: CEKHIL_clean_sbu_0, # of connection points: 4
#     Node 21, Type 0, BuildingBlock: CEKHIL_clean_sbu_0, # of connection points: 4
#     Node 22, Type 0, BuildingBlock: CEKHIL_clean_sbu_0, # of connection points: 4
#     Node 23, Type 0, BuildingBlock: CEKHIL_clean_sbu_0, # of connection points: 4
#     Edge 24, Type (0, 0), BuildingBlock: XIVTED_clean_linker_0, # of connection points: 2
#     Edge 25, Type (0, 0), BuildingBlock: XIVTED_clean_linker_0, # of connection points: 2
#     Edge 26, Type (0, 0), BuildingBlock: XIVTED_clean_linker_0, # of connection points: 2
#     Edge 27, Type (0, 0), BuildingBlock: XIVTED_clean_linker_0, # of connection points: 2
#     Edge 28, Type (0, 0), BuildingBlock: XIVTED_clean_linker_0, # of connection points: 2
#     Edge 29, Type (0, 0), BuildingBlock: XIVTED_clean_linker_0, # of connection points: 2
#     Edge 30, Type (0, 0), BuildingBlock: XIVTED_clean_linker_0, # of connection points: 2
#     Edge 31, Type (0, 0), BuildingBlock: XIVTED_clean_linker_0, # of connection points: 2
#     Edge 32, Type (0, 0), BuildingBlock: XIVTED_clean_linker_0, # of connection points: 2
#     Edge 33, Type (0, 0), BuildingBlock: XIVTED_clean_linker_0, # of connection points: 2
#     Edge 34, Type (0, 0), BuildingBlock: XIVTED_clean_linker_0, # of connection points: 2
#     Edge 35, Type (0, 0), BuildingBlock: XIVTED_clean_linker_0, # of connection points: 2
#     Edge 36, Type (0, 0), BuildingBlock: XIVTED_clean_linker_0, # of connection points: 2
#     Edge 37, Type (0, 0), BuildingBlock: XIVTED_clean_linker_0, # of connection points: 2
#     Edge 38, Type (0, 0), BuildingBlock: XIVTED_clean_linker_0, # of connection points: 2
#     Edge 39, Type (0, 0), BuildingBlock: XIVTED_clean_linker_0, # of connection points: 2
#     Edge 40, Type (0, 0), BuildingBlock: XIVTED_clean_linker_0, # of connection points: 2
#     Edge 41, Type (0, 0), BuildingBlock: XIVTED_clean_linker_0, # of connection points: 2
#     Edge 42, Type (0, 0), BuildingBlock: XIVTED_clean_linker_0, # of connection points: 2
#     Edge 43, Type (0, 0), BuildingBlock: XIVTED_clean_linker_0, # of connection points: 2
#     Edge 44, Type (0, 0), BuildingBlock: XIVTED_clean_linker_0, # of connection points: 2
#     Edge 45, Type (0, 0), BuildingBlock: XIVTED_clean_linker_0, # of connection points: 2
#     Edge 46, Type (0, 0), BuildingBlock: XIVTED_clean_linker_0, # of connection points: 2
#     Edge 47, Type (0, 0), BuildingBlock: XIVTED_clean_linker_0, # of connection points: 2
#     Edge 48, Type (0, 0), BuildingBlock: XIVTED_clean_linker_0, # of connection points: 2
#     Edge 49, Type (0, 0), BuildingBlock: XIVTED_clean_linker_0, # of connection points: 2
#     Edge 50, Type (0, 0), BuildingBlock: XIVTED_clean_linker_0, # of connection points: 2
#     Edge 51, Type (0, 0), BuildingBlock: XIVTED_clean_linker_0, # of connection points: 2
#     Edge 52, Type (0, 0), BuildingBlock: XIVTED_clean_linker_0, # of connection points: 2
#     Edge 53, Type (0, 0), BuildingBlock: XIVTED_clean_linker_0, # of connection points: 2
#     Edge 54, Type (0, 0), BuildingBlock: XIVTED_clean_linker_0, # of connection points: 2
#     Edge 55, Type (0, 0), BuildingBlock: XIVTED_clean_linker_0, # of connection points: 2
#     Edge 56, Type (0, 0), BuildingBlock: XIVTED_clean_linker_0, # of connection points: 2
#     Edge 57, Type (0, 0), BuildingBlock: XIVTED_clean_linker_0, # of connection points: 2
#     Edge 58, Type (0, 0), BuildingBlock: XIVTED_clean_linker_0, # of connection points: 2
#     Edge 59, Type (0, 0), BuildingBlock: XIVTED_clean_linker_0, # of connection points: 2
#     Edge 60, Type (0, 0), BuildingBlock: XIVTED_clean_linker_0, # of connection points: 2
#     Edge 61, Type (0, 0), BuildingBlock: XIVTED_clean_linker_0, # of connection points: 2
#     Edge 62, Type (0, 0), BuildingBlock: XIVTED_clean_linker_0, # of connection points: 2
#     Edge 63, Type (0, 0), BuildingBlock: XIVTED_clean_linker_0, # of connection points: 2
#     Edge 64, Type (0, 0), BuildingBlock: XIVTED_clean_linker_0, # of connection points: 2
#     Edge 65, Type (0, 0), BuildingBlock: XIVTED_clean_linker_0, # of connection points: 2
#     Edge 66, Type (0, 0), BuildingBlock: XIVTED_clean_linker_0, # of connection points: 2
#     Edge 67, Type (0, 0), BuildingBlock: XIVTED_clean_linker_0, # of connection points: 2
#     Edge 68, Type (0, 0), BuildingBlock: XIVTED_clean_linker_0, # of connection points: 2
#     Edge 69, Type (0, 0), BuildingBlock: XIVTED_clean_linker_0, # of connection points: 2
#     Edge 70, Type (0, 0), BuildingBlock: XIVTED_clean_linker_0, # of connection points: 2
#     Edge 71, Type (0, 0), BuildingBlock: XIVTED_clean_linker_0, # of connection points: 2
# Relax obj value: 0.422
# Max RMSD: 0.179
# Mean RMSD: 0.179
data_MOF--net-lcy-a--node1-CEKHIL_clean_sbu_0--edge1-XIVTED_clean_linker_0
_symmetry_space_group_name_H-M    P1
_symmetry_Int_Tables_number       1
_symmetry_cell_setting            triclinic
loop_
_symmetry_equiv_pos_as_xyz
'x, y, z'
_cell_length_a     55.864995
_cell_length_b     55.891557
_cell_length_c     55.861346
_cell_angle_alpha  90.117293
_cell_angle_beta   89.992634
_cell_angle_gamma 89.986234
loop_
_atom_site_label
_atom_site_type_symbol
_atom_site_fract_x
_atom_site_fract_y
_atom_site_fract_z
_atom_type_partial_charge
Co0 Co 0.21945 0.25765 0.41293 0.0
O1 O 0.21226 0.24498 0.44408 0.0
O2 O 0.19054 0.27201 0.42478 0.0
C3 C 0.22786 0.22262 0.39463 0.0
O4 O 0.21992 0.27417 0.38064 0.0
Co5 Co 0.26918 0.25239 0.38886 0.0
O6 O 0.25248 0.26371 0.35954 0.0
C7 C 0.26203 0.28833 0.42719 0.0
C8 C 0.19339 0.25859 0.44353 0.0
C9 C 0.23207 0.27378 0.36111 0.0
O10 O 0.23939 0.28401 0.42763 0.0
O11 O 0.27683 0.27629 0.41446 0.0
O12 O 0.20575 0.22937 0.39729 0.0
O13 O 0.24356 0.23583 0.40521 0.0
Co14 Co 0.98816 0.97267 0.66032 0.0
O15 O 0.00078 0.96356 0.69097 0.0
O16 O 0.97642 0.94153 0.66854 0.0
C17 C 0.02221 0.98638 0.64386 0.0
O18 O 0.97239 0.97505 0.6278 0.0
Co19 Co 0.98805 0.02526 0.64303 0.0
O20 O 0.97943 0.01101 0.61142 0.0
C21 C 0.95335 0.00984 0.67944 0.0
C22 C 0.98885 0.94379 0.68808 0.0
C23 C 0.97179 0.98955 0.61001 0.0
O24 O 0.95959 0.98795 0.6761 0.0
O25 O 0.96402 0.02759 0.6697 0.0
O26 O 0.01788 0.96353 0.64426 0.0
O27 O 0.00747 -0.00046 0.65587 0.0
Co28 Co 0.27453 0.73465 0.90636 0.0
O29 O 0.28444 0.75041 0.93525 0.0
O30 O 0.30637 0.72461 0.91435 0.0
C31 C 0.25898 0.76656 0.88754 0.0
O32 O 0.27124 0.71582 0.87552 0.0
Co33 Co 0.22117 0.73144 0.89171 0.0
O34 O 0.2345 0.72125 0.86016 0.0
C35 C 0.23944 0.70075 0.9303 0.0
C36 C 0.30443 0.73877 0.93274 0.0
C37 C 0.25602 0.71385 0.8584 0.0
O38 O 0.26093 0.70729 0.92535 0.0
O39 O 0.22089 0.70991 0.92048 0.0
O40 O 0.28198 0.76296 0.88728 0.0
O41 O 0.24686 0.75265 0.90141 0.0
Co42 Co 0.50486 0.02906 0.15564 0.0
O43 O 0.48748 0.03911 0.1835 0.0
O44 O 0.51699 0.05946 0.16638 0.0
C45 C 0.47317 0.01774 0.13337 0.0
O46 O 0.52618 0.02523 0.12646 0.0
Co47 Co 0.50361 0.97647 0.13781 0.0
O48 O 0.5186 0.99002 0.1085 0.0
C49 C 0.53193 0.98921 0.18057 0.0
C50 C 0.50103 0.05799 0.18327 0.0
C51 C 0.52833 0.01066 0.10876 0.0
O52 O 0.52868 0.01162 0.17642 0.0
O53 O 0.52163 0.9726 0.16857 0.0
O54 O 0.47923 0.04018 0.13438 0.0
O55 O 0.48468 0.00375 0.14761 0.0
Co56 Co 0.71512 0.22955 0.58143 0.0
O57 O 0.70593 0.24404 0.55163 0.0
O58 O 0.68337 0.21948 0.5732 0.0
C59 C 0.7307 0.26219 0.59923 0.0
O60 O 0.71737 0.21206 0.61299 0.0
Co61 Co 0.76796 0.2266 0.59807 0.0
O62 O 0.75367 0.21727 0.62942 0.0
C63 C 0.75072 0.1949 0.55963 0.0
C64 C 0.68577 0.2327 0.55425 0.0
C65 C 0.73197 0.21028 0.63063 0.0
O66 O 0.72902 0.20126 0.56389 0.0
O67 O 0.76893 0.20461 0.56961 0.0
O68 O 0.70765 0.25884 0.59922 0.0
O69 O 0.74288 0.24743 0.5863 0.0
Co70 Co 0.00979 0.46862 0.8331 0.0
O71 O 0.99398 0.45849 0.80431 0.0
O72 O 0.01934 0.43649 0.82557 0.0
C73 C 0.97795 0.48487 0.85164 0.0
O74 O 0.02864 0.47216 0.86388 0.0
Co75 Co 0.01346 0.52216 0.84713 0.0
O76 O 0.02372 0.50921 0.87874 0.0
C77 C 0.0435 0.50308 0.80826 0.0
C78 C 0.00528 0.43835 0.80712 0.0
C79 C 0.03087 0.48763 0.88077 0.0
O80 O 0.03728 0.48166 0.81383 0.0
O81 O 0.03427 0.52178 0.8178 0.0
O82 O 0.98131 0.46186 0.85231 0.0
O83 O 0.9921 0.49655 0.83764 0.0
Co84 Co 0.77835 0.75664 0.0882 0.0
O85 O 0.78881 0.74128 0.05928 0.0
O86 O 0.80998 0.76751 0.08042 0.0
C87 C 0.76342 0.72443 0.10703 0.0
O88 O 0.77427 0.77541 0.11895 0.0
Co89 Co 0.7247 0.75848 0.10219 0.0
O90 O 0.73726 0.76984 0.13364 0.0
C91 C 0.74266 0.78985 0.06406 0.0
C92 C 0.8084 0.75358 0.06182 0.0
C93 C 0.75863 0.7776 0.13566 0.0
O94 O 0.76422 0.78369 0.06917 0.0
O95 O 0.7242 0.7802 0.07358 0.0
O96 O 0.78633 0.72852 0.10738 0.0
O97 O 0.75111 0.73795 0.09294 0.0
Co98 Co 0.4851 0.52199 0.33685 0.0
O99 O 0.49775 0.5302 0.30593 0.0
O100 O 0.47416 0.55325 0.32819 0.0
C101 C 0.51888 0.50746 0.3532 0.0
O102 O 0.46957 0.52081 0.36951 0.0
Co103 Co 0.48347 0.46991 0.35544 0.0
O104 O 0.47549 0.4851 0.38679 0.0
C105 C 0.44931 0.48546 0.31856 0.0
C106 C 0.48633 0.55032 0.30858 0.0
C107 C 0.46865 0.50686 0.3877 0.0
O108 O 0.45597 0.50727 0.32156 0.0
O109 O 0.45961 0.46765 0.32862 0.0
O110 O 0.51526 0.53044 0.35251 0.0
O111 O 0.50355 0.4946 0.34163 0.0
Co112 Co 0.39771 0.22018 0.26316 0.0
O113 O 0.42889 0.21375 0.25011 0.0
O114 O 0.4091 0.19002 0.27502 0.0
C115 C 0.38025 0.23166 0.22867 0.0
O116 O 0.36513 0.21965 0.27934 0.0
Co117 Co 0.3744 0.27048 0.26185 0.0
O118 O 0.34471 0.25324 0.27117 0.0
C119 C 0.4117 0.2597 0.29791 0.0
C120 C 0.42795 0.19376 0.26191 0.0
C121 C 0.34576 0.23208 0.27955 0.0
O122 O 0.41236 0.23762 0.2913 0.0
O123 O 0.39913 0.27561 0.28725 0.0
O124 O 0.38231 0.20905 0.23363 0.0
O125 O 0.39066 0.24609 0.24339 0.0
Co126 Co 0.02789 0.16027 0.51604 0.0
O127 O 0.03474 0.19232 0.50555 0.0
O128 O 0.0584 0.17009 0.52838 0.0
C129 C 0.01549 0.14563 0.48048 0.0
O130 O 0.02819 0.12663 0.52962 0.0
Co131 Co 0.97737 0.13737 0.51362 0.0
O132 O 0.99443 0.10692 0.5204 0.0
C133 C 0.98971 0.17024 0.55349 0.0
C134 C 0.05486 0.19004 0.51701 0.0
C135 C 0.01566 0.10737 0.52874 0.0
O136 O 0.01124 0.1727 0.54565 0.0
O137 O 0.97357 0.15812 0.54261 0.0
O138 O 0.03823 0.14713 0.48519 0.0
O139 O 0.00145 0.15509 0.49619 0.0
Co140 Co 0.08503 0.77336 0.75371 0.0
O141 O 0.05411 0.78209 0.74148 0.0
O142 O 0.0753 0.80319 0.7677 0.0
C143 C 0.10195 0.76305 0.71853 0.0
O144 O 0.11752 0.77129 0.7697 0.0
Co145 Co 0.10578 0.72213 0.74922 0.0
O146 O 0.13625 0.7371 0.75999 0.0
C147 C 0.06909 0.73269 0.78597 0.0
C148 C 0.05607 0.80111 0.75477 0.0
C149 C 0.13615 0.75782 0.76958 0.0
O150 O 0.06977 0.75511 0.78081 0.0
O151 O 0.08063 0.71674 0.77418 0.0
O152 O 0.10085 0.78543 0.72484 0.0
O153 O 0.09077 0.74833 0.73231 0.0
Co154 Co 0.47331 0.83839 0.00934 0.0
O155 O 0.46543 0.80805 0.99537 0.0
O156 O 0.44146 0.82952 0.01876 0.0
C157 C 0.48896 0.8555 0.97652 0.0
O158 O 0.47461 0.87067 0.02594 0.0
Co159 Co 0.52591 0.85556 0.01287 0.0
O160 O 0.51098 0.887 0.0207 0.0
C161 C 0.50856 0.81795 0.04519 0.0
C162 C 0.44482 0.81039 0.00589 0.0
C163 C 0.48912 0.88848 0.02715 0.0
O164 O 0.48696 0.82196 0.03836 0.0
O165 O 0.52688 0.82776 0.03556 0.0
O166 O 0.46589 0.85504 0.97949 0.0
O167 O 0.50123 0.8433 0.9918 0.0
Co168 Co 0.90339 0.26918 0.73668 0.0
O169 O 0.93276 0.27804 0.7521 0.0
O170 O 0.91488 0.29861 0.7232 0.0
C171 C 0.88245 0.2601 0.76987 0.0
O172 O 0.8727 0.26657 0.71735 0.0
Co173 Co 0.88292 0.21782 0.74018 0.0
O174 O 0.85342 0.23262 0.72684 0.0
C175 C 0.92373 0.22751 0.70808 0.0
C176 C 0.9325 0.29672 0.73829 0.0
C177 C 0.85412 0.25302 0.71668 0.0
O178 O 0.92163 0.25011 0.712 0.0
O179 O 0.9113 0.21174 0.71908 0.0
O180 O 0.88453 0.28226 0.76318 0.0
O181 O 0.8952 0.2449 0.75801 0.0
Co182 Co 0.97583 0.66273 0.98093 0.0
O183 O 0.96799 0.69367 0.9937 0.0
O184 O 0.94554 0.67286 0.96834 0.0
C185 C 0.98718 0.64568 0.01563 0.0
O186 O 0.97687 0.63018 0.96482 0.0
Co187 Co 0.02699 0.6414 0.9834 0.0
O188 O 0.01099 0.61104 0.97393 0.0
C189 C 0.01522 0.67737 0.94639 0.0
C190 C 0.94827 0.69188 0.98149 0.0
C191 C 0.99003 0.61132 0.96493 0.0
O192 O 0.99317 0.67771 0.95306 0.0
O193 O 0.03148 0.66543 0.95725 0.0
O194 O 0.96461 0.64711 0.01019 0.0
O195 O 0.00159 0.65666 0.00134 0.0
Co196 Co 0.58392 0.7174 0.23374 0.0
O197 O 0.55305 0.70901 0.24616 0.0
O198 O 0.57537 0.68606 0.22251 0.0
C199 C 0.5998 0.73149 0.26796 0.0
O200 O 0.61665 0.71923 0.21826 0.0
Co201 Co 0.60193 0.76981 0.23336 0.0
O202 O 0.63338 0.75513 0.22501 0.0
C203 C 0.56515 0.75438 0.19889 0.0
C204 C 0.55577 0.68891 0.23473 0.0
C205 C 0.6346 0.73358 0.21757 0.0
O206 O 0.56857 0.73245 0.20487 0.0
O207 O 0.57492 0.77209 0.2097 0.0
O208 O 0.5995 0.70859 0.26383 0.0
O209 O 0.58835 0.74451 0.25273 0.0
Co210 Co 0.5203 0.3342 0.48364 0.0
O211 O 0.52761 0.30296 0.49594 0.0
O212 O 0.5493 0.32275 0.46922 0.0
C213 C 0.51172 0.35185 0.51896 0.0
O214 O 0.51981 0.36672 0.46762 0.0
Co215 Co 0.47054 0.35806 0.48899 0.0
O216 O 0.48743 0.38769 0.47884 0.0
C217 C 0.47795 0.32029 0.45247 0.0
C218 C 0.54657 0.30387 0.48248 0.0
C219 C 0.50782 0.38631 0.46868 0.0
O220 O 0.50055 0.31975 0.457 0.0
O221 O 0.46307 0.33294 0.46451 0.0
O222 O 0.53386 0.34945 0.5122 0.0
O223 O 0.49607 0.34149 0.5055 0.0
Co224 Co 0.25744 0.40755 0.22531 0.0
O225 O 0.24445 0.43835 0.21732 0.0
O226 O 0.26776 0.41627 0.19381 0.0
C227 C 0.22401 0.39096 0.24032 0.0
O228 O 0.27315 0.37496 0.22626 0.0
Co229 Co 0.25993 0.3891 0.27745 0.0
O230 O 0.267 0.35769 0.26196 0.0
C231 C 0.29362 0.42615 0.26132 0.0
C232 C 0.25542 0.43573 0.19694 0.0
C233 C 0.27372 0.35671 0.24016 0.0
O234 O 0.2867 0.42304 0.23959 0.0
O235 O 0.28365 0.41606 0.2793 0.0
O236 O 0.22726 0.39173 0.21729 0.0
O237 O 0.23941 0.40266 0.25298 0.0
Co238 Co 0.75939 0.08475 0.77138 0.0
O239 O 0.74802 0.05344 0.77982 0.0
O240 O 0.77015 0.07705 0.80297 0.0
C241 C 0.72515 0.09934 0.75612 0.0
O242 O 0.77345 0.11804 0.76998 0.0
Co243 Co 0.76105 0.10273 0.71906 0.0
O244 O 0.76782 0.13454 0.73385 0.0
C245 C 0.79629 0.06734 0.73558 0.0
C246 C 0.75891 0.0569 0.80012 0.0
C247 C 0.77407 0.13603 0.75576 0.0
O248 O 0.78938 0.07055 0.7573 0.0
O249 O 0.78576 0.07665 0.7175 0.0
O250 O 0.72844 0.09914 0.77916 0.0
O251 O 0.7412 0.08833 0.74363 0.0
Co252 Co 0.15826 0.51349 0.02752 0.0
O253 O 0.18805 0.49903 0.03677 0.0
O254 O 0.16568 0.52258 0.05977 0.0
C255 C 0.14135 0.48113 0.0105 0.0
O256 O 0.12651 0.53067 0.02526 0.0
Co257 Co 0.14264 0.51798 0.97451 0.0
O258 O 0.11088 0.52649 0.98848 0.0
C259 C 0.18023 0.54958 0.99364 0.0
C260 C 0.18484 0.50962 0.05728 0.0
C261 C 0.10914 0.53273 0.01039 0.0
O262 O 0.17566 0.54242 0.01501 0.0
O263 O 0.17074 0.54039 0.9749 0.0
O264 O 0.14077 0.48377 0.03363 0.0
O265 O 0.15423 0.49647 -0.00093 0.0
Co266 Co 0.72225 0.90939 0.27635 0.0
O267 O 0.73474 0.94077 0.28275 0.0
O268 O 0.7143 0.91853 0.30851 0.0
C269 C 0.75543 0.89427 0.25914 0.0
O270 O 0.70765 0.87612 0.27715 0.0
Co271 Co 0.71743 0.8886 0.22506 0.0
O272 O 0.71376 0.85762 0.24198 0.0
C273 C 0.68042 0.92164 0.24391 0.0
C274 C 0.72594 0.93818 0.30412 0.0
C275 C 0.70762 0.85726 0.26394 0.0
O276 O 0.69131 0.92341 0.26412 0.0
O277 O 0.6883 0.90946 0.22615 0.0
O278 O 0.75361 0.89502 0.28231 0.0
O279 O 0.73845 0.90465 0.24744 0.0
Co280 Co 0.3409 0.48051 0.52209 0.0
O281 O 0.3094 0.49311 0.52751 0.0
O282 O 0.32912 0.46919 0.55231 0.0
C283 C 0.35815 0.51489 0.51016 0.0
O284 O 0.37375 0.46495 0.52353 0.0
Co285 Co 0.36473 0.48086 0.472 0.0
O286 O 0.39437 0.4729 0.48997 0.0
C287 C 0.32833 0.44421 0.4834 0.0
C288 C 0.31008 0.48178 0.54778 0.0
C289 C 0.39327 0.46499 0.51132 0.0
O290 O 0.32705 0.45172 0.50517 0.0
O291 O 0.34102 0.45441 0.4673 0.0
O292 O 0.35557 0.51047 0.53284 0.0
O293 O 0.34812 0.49978 0.49583 0.0
Co294 Co 0.22847 0.58793 0.7099 0.0
O295 O 0.24308 0.55781 0.70221 0.0
O296 O 0.22043 0.57924 0.6776 0.0
C297 C 0.26044 0.6052 0.72724 0.0
O298 O 0.21137 0.6199 0.71082 0.0
Co299 Co 0.22264 0.60483 0.76248 0.0
O300 O 0.21522 0.63626 0.74738 0.0
C301 C 0.19197 0.5664 0.74359 0.0
C302 C 0.23318 0.56014 0.68129 0.0
C303 C 0.20948 0.63766 0.72532 0.0
O304 O 0.19919 0.57091 0.72222 0.0
O305 O 0.20086 0.57625 0.76229 0.0
O306 O 0.25845 0.60512 0.70404 0.0
O307 O 0.2447 0.59277 0.73861 0.0
Co308 Co 0.66679 0.98175 0.97173 0.0
O309 O 0.69718 0.99533 0.96303 0.0
O310 O 0.67454 0.97244 0.93967 0.0
C311 C 0.65031 0.01447 0.98845 0.0
O312 O 0.63454 0.9655 0.97327 0.0
Co313 Co 0.64974 0.97747 0.02429 0.0
O314 O 0.61807 0.96976 0.00966 0.0
C315 C 0.68683 0.94483 0.0059 0.0
C316 C 0.694 0.98483 0.94247 0.0
C317 C 0.61676 0.9637 0.98768 0.0
O318 O 0.68306 0.95231 0.9845 0.0
O319 O 0.67711 0.95415 0.02447 0.0
O320 O 0.65033 0.01193 0.9653 0.0
O321 O 0.66256 -0.00119 0.00017 0.0
Co322 Co 0.84394 0.01223 0.46421 0.0
O323 O 0.81458 0.9963 0.45636 0.0
O324 O 0.83441 0.02096 0.43234 0.0
C325 C 0.8632 0.98077 0.48015 0.0
O326 O 0.87493 0.03106 0.46551 0.0
Co327 Co 0.86064 0.01726 0.51689 0.0
O328 O 0.89149 0.02717 0.50196 0.0
C329 C 0.8209 0.04682 0.49922 0.0
C330 C 0.816 0.00716 0.43586 0.0
C331 C 0.89252 0.03367 0.4801 0.0
O332 O 0.82549 0.04011 0.47769 0.0
O333 O 0.83129 0.03803 0.51764 0.0
O334 O 0.86271 0.98352 0.45704 0.0
O335 O 0.84995 0.99532 0.49224 0.0
H336 H 0.05388 0.23228 0.49234 0.0
H337 H 0.19479 0.23321 0.48526 0.0
H338 H 0.09978 0.18832 0.53617 0.0
H339 H 0.1492 0.27957 0.44363 0.0
H340 H 0.16079 0.22362 0.51091 0.0
H341 H 0.08847 0.25661 0.48142 0.0
C342 C 0.07115 0.22804 0.50006 0.0
C343 C 0.07412 0.2079 0.51468 0.0
C344 C 0.15828 0.23624 0.49644 0.0
C345 C 0.11377 0.23541 0.50204 0.0
C346 C 0.17771 0.24172 0.48179 0.0
C347 C 0.17463 0.25673 0.46196 0.0
C348 C 0.13558 0.24559 0.49098 0.0
C349 C 0.15224 0.26755 0.4585 0.0
C350 C 0.09092 0.24193 0.49381 0.0
C351 C 0.0968 0.20342 0.52445 0.0
N352 N 0.13343 0.26138 0.47257 0.0
N353 N 0.11586 0.21678 0.51757 0.0
H354 H 0.01393 0.94291 0.73008 0.0
H355 H 0.01404 0.80182 0.72979 0.0
H356 H 0.96858 0.89947 0.685 0.0
H357 H 0.05839 0.8451 0.776 0.0
H358 H 0.99009 0.83709 0.7205 0.0
H359 H 0.02318 0.90762 0.75402 0.0
C360 C 0.00561 0.92601 0.72546 0.0
C361 C 0.99099 0.92392 0.70518 0.0
C362 C 0.00478 0.83881 0.73302 0.0
C363 C 0.00163 0.88351 0.73229 0.0
C364 C 0.01847 0.81867 0.73832 0.0
C365 C 0.03859 0.82073 0.75316 0.0
C366 C 0.01152 0.86116 0.74239 0.0
C367 C 0.04328 0.84285 0.76407 0.0
C368 C 0.01087 0.90587 0.73915 0.0
C369 C 0.98035 0.90174 0.70022 0.0
N370 N 0.03014 0.86235 0.75808 0.0
N371 N 0.98625 0.88227 0.71342 0.0
H372 H 0.34647 0.71388 0.93494 0.0
H373 H 0.44676 0.76947 0.97936 0.0
H374 H 0.30809 0.77212 0.96824 0.0
H375 H 0.39878 0.81215 0.02238 0.0
H376 H 0.41325 0.74536 0.9663 0.0
H377 H 0.38152 0.72389 0.95873 0.0
C378 C 0.34547 0.72881 0.94731 0.0
C379 C 0.32461 0.74261 0.94918 0.0
C380 C 0.40987 0.75946 0.97911 0.0
C381 C 0.36497 0.7549 0.97586 0.0
C382 C 0.42915 0.77341 0.98648 0.0
C383 C 0.42544 0.79311 0.00158 0.0
C384 C 0.38665 0.76531 0.98693 0.0
C385 C 0.40235 0.79731 0.01042 0.0
C386 C 0.36562 0.73471 0.96079 0.0
C387 C 0.324 0.7613 0.96591 0.0
N388 N 0.38376 0.78375 0.00263 0.0
N389 N 0.34403 0.76712 0.97834 0.0
H390 H 0.52082 0.10279 0.18294 0.0
H391 H 0.42898 0.14904 0.28154 0.0
H392 H 0.47292 0.0575 0.22312 0.0
H393 H 0.46761 0.19531 0.2333 0.0
H394 H 0.4535 0.11545 0.26815 0.0
H395 H 0.50968 0.1365 0.20865 0.0
C396 C 0.50825 0.09986 0.1974 0.0
C397 C 0.49737 0.0775 0.20063 0.0
C398 C 0.45689 0.13303 0.26079 0.0
C399 C 0.4846 0.11582 0.23 0.0
C400 C 0.44295 0.15224 0.26848 0.0
C401 C 0.44591 0.17485 0.25808 0.0
C402 C 0.47378 0.1365 0.2425 0.0
C403 C 0.46446 0.17805 0.24146 0.0
C404 C 0.5019 0.11909 0.21206 0.0
C405 C 0.48139 0.07459 0.21975 0.0
N406 N 0.47745 0.15896 0.23386 0.0
N407 N 0.47526 0.09362 0.23354 0.0
H408 H 0.64142 0.21226 0.55597 0.0
H409 H 0.59019 0.30369 0.46034 0.0
H410 H 0.68487 0.26023 0.51387 0.0
H411 H 0.5467 0.26341 0.50981 0.0
H412 H 0.62471 0.27936 0.47147 0.0
H413 H 0.60688 0.22251 0.53129 0.0
C414 C 0.64377 0.22471 0.54132 0.0
C415 C 0.66587 0.23587 0.53728 0.0
C416 C 0.60751 0.27554 0.47956 0.0
C417 C 0.62647 0.2477 0.50909 0.0
C418 C 0.58778 0.28938 0.47316 0.0
C419 C 0.56573 0.28593 0.48466 0.0
C420 C 0.60512 0.25827 0.49761 0.0
C421 C 0.56352 0.26696 0.50088 0.0
C422 C 0.62405 0.23052 0.52722 0.0
C423 C 0.66801 0.25156 0.51785 0.0
N424 N 0.58311 0.2541 0.50722 0.0
N425 N 0.64844 0.2573 0.50468 0.0
H426 H 0.97262 0.29642 0.76612 0.0
H427 H 0.97877 0.43767 0.76607 0.0
H428 H 0.93221 0.34106 0.71781 0.0
H429 H 0.02236 0.39277 0.81129 0.0
H430 H 0.9673 0.40249 0.74285 0.0
H431 H -0.00314 0.33097 0.7772 0.0
C432 C 0.96911 0.31343 0.75755 0.0
C433 C 0.95006 0.31606 0.74145 0.0
C434 C 0.97966 0.40035 0.75763 0.0
C435 C 0.97747 0.3557 0.75425 0.0
C436 C 0.98617 0.42043 0.77092 0.0
C437 C 0.00111 0.418 0.79093 0.0
C438 C 0.98796 0.37769 0.76459 0.0
C439 C 0.01048 0.39535 0.79621 0.0
C440 C 0.98296 0.33316 0.76388 0.0
C441 C 0.94651 0.33837 0.73059 0.0
N442 N 0.00343 0.37598 0.78335 0.0
N443 N 0.95981 0.35747 0.73754 0.0
H444 H 0.85235 0.77498 0.0638 0.0
H445 H 0.90368 0.69064 0.96144 0.0
H446 H 0.80952 0.72719 0.02069 0.0
H447 H 0.94757 0.73137 0.01035 0.0
H448 H 0.86857 0.71252 0.97549 0.0
H449 H 0.88648 0.76725 0.03756 0.0
C450 C 0.85006 0.76306 0.04866 0.0
C451 C 0.82827 0.75127 0.04469 0.0
C452 C 0.88595 0.71698 0.98284 0.0
C453 C 0.86714 0.7424 0.01465 0.0
C454 C 0.90602 0.70456 0.97476 0.0
C455 C 0.92843 0.70879 0.98523 0.0
C456 C 0.88838 0.73358 0.00159 0.0
C457 C 0.9305 0.72723 0.00216 0.0
C458 C 0.86952 0.75871 0.03366 0.0
C459 C 0.82616 0.7363 0.02464 0.0
N460 N 0.91062 0.73866 0.01016 0.0
N461 N 0.84546 0.73204 0.01053 0.0
H462 H 0.51089 0.69134 0.2538 0.0
H463 H 0.46306 0.59318 0.30864 0.0
H464 H 0.56107 0.64209 0.22179 0.0
H465 H 0.51455 0.55172 0.26864 0.0
H466 H 0.47202 0.62757 0.28411 0.0
H467 H 0.48572 0.65796 0.2651 0.0
C468 C 0.51648 0.67339 0.249 0.0
C469 C 0.53839 0.66937 0.2375 0.0
C470 C 0.48128 0.61108 0.28021 0.0
C471 C 0.51007 0.63066 0.25113 0.0
C472 C 0.47608 0.59129 0.29439 0.0
C473 C 0.48856 0.56979 0.29107 0.0
C474 C 0.49935 0.60938 0.26272 0.0
C475 C 0.50485 0.56814 0.27209 0.0
C476 C 0.50211 0.65414 0.25561 0.0
C477 C 0.5445 0.64592 0.23109 0.0
N478 N 0.51008 0.58782 0.25891 0.0
N479 N 0.53064 0.62741 0.23842 0.0
H480 H 0.27588 0.43467 0.15258 0.0
H481 H 0.182 0.52851 0.1023 0.0
H482 H 0.2278 0.47609 0.19678 0.0
H483 H 0.22517 0.482 0.05809 0.0
H484 H 0.20573 0.51685 0.13705 0.0
H485 H 0.26482 0.45921 0.11826 0.0
C486 C 0.26327 0.44918 0.15514 0.0
C487 C 0.25227 0.45302 0.17738 0.0
C488 C 0.21024 0.50947 0.11969 0.0
C489 C 0.23943 0.48098 0.13822 0.0
C490 C 0.1967 0.51609 0.09985 0.0
C491 C 0.20131 0.50575 0.07743 0.0
C492 C 0.22839 0.49228 0.11705 0.0
C493 C 0.22076 0.49007 0.07517 0.0
C494 C 0.25696 0.46318 0.13554 0.0
C495 C 0.23637 0.47227 0.17981 0.0
N496 N 0.23338 0.48351 0.09484 0.0
N497 N 0.2301 0.48531 0.16034 0.0
H498 H 0.73501 0.01152 0.94193 0.0
H499 H 0.73514 0.01415 0.80034 0.0
H500 H 0.691 0.96612 0.89745 0.0
H501 H 0.77826 0.06042 0.8448 0.0
H502 H 0.72616 0.9897 0.83536 0.0
H503 H 0.7582 0.02274 0.90665 0.0
C504 C 0.73047 0.00363 0.9248 0.0
C505 C 0.71071 0.98838 0.92245 0.0
C506 C 0.73791 0.00497 0.83739 0.0
C507 C 0.73693 0.00124 0.88207 0.0
C508 C 0.74302 0.01894 0.81741 0.0
C509 C 0.75694 0.03966 0.81986 0.0
C510 C 0.74661 0.01198 0.85995 0.0
C511 C 0.76703 0.04484 0.84225 0.0
C512 C 0.74371 0.01002 0.90466 0.0
C513 C 0.70582 0.97835 0.89995 0.0
N514 N 0.76131 0.03133 0.86155 0.0
N515 N 0.71859 0.98529 0.88052 0.0
H516 H 0.71134 0.93673 0.35077 0.0
H517 H 0.81519 0.02535 0.39044 0.0
H518 H 0.75388 0.97817 0.30142 0.0
H519 H 0.77531 0.98043 0.43894 0.0
H520 H 0.78709 0.01502 0.35853 0.0
H521 H 0.72814 0.95973 0.3839 0.0
C522 C 0.72388 0.95099 0.34687 0.0
C523 C 0.73168 0.95521 0.3234 0.0
C524 C 0.78431 0.00766 0.37624 0.0
C525 C 0.75121 0.98131 0.36118 0.0
C526 C 0.80038 0.01351 0.39443 0.0
C527 C 0.79783 0.00332 0.41719 0.0
C528 C 0.76568 0.99144 0.38089 0.0
C529 C 0.77816 0.98835 0.42151 0.0
C530 C 0.73352 0.96407 0.36579 0.0
C531 C 0.7477 0.97408 0.31932 0.0
N532 N 0.763 0.98263 0.40342 0.0
N533 N 0.75729 0.98617 0.33809 0.0
H534 H 0.25736 0.51784 0.68451 0.0
H535 H 0.26882 0.50765 0.54361 0.0
H536 H 0.21867 0.56226 0.63462 0.0
H537 H 0.3091 0.46472 0.59357 0.0
H538 H 0.24312 0.52091 0.57636 0.0
H539 H 0.26932 0.49187 0.65147 0.0
C540 C 0.25114 0.52196 0.66663 0.0
C541 C 0.23748 0.54251 0.66217 0.0
C542 C 0.25731 0.50826 0.58011 0.0
C543 C 0.25119 0.51299 0.6243 0.0
C544 C 0.27197 0.50065 0.56141 0.0
C545 C 0.29146 0.48555 0.56604 0.0
C546 C 0.26238 0.50087 0.60358 0.0
C547 C 0.29452 0.47674 0.58932 0.0
C548 C 0.25793 0.50709 0.64777 0.0
C549 C 0.22956 0.5468 0.63875 0.0
N550 N 0.28039 0.48489 0.60733 0.0
N551 N 0.23687 0.53236 0.6206 0.0
H552 H 0.29097 0.42115 0.50622 0.0
H553 H 0.30834 0.30358 0.42883 0.0
H554 H 0.33885 0.4153 0.44575 0.0
H555 H 0.23765 0.32165 0.45469 0.0
H556 H 0.32324 0.3412 0.44455 0.0
H557 H 0.2738 0.3819 0.49542 0.0
C558 C 0.29778 0.41172 0.49069 0.0
C559 C 0.31634 0.42154 0.47683 0.0
C560 C 0.30449 0.33685 0.44693 0.0
C561 C 0.29734 0.37684 0.46495 0.0
C562 C 0.29592 0.31529 0.43805 0.0
C563 C 0.27154 0.30951 0.44005 0.0
C564 C 0.28875 0.35281 0.45816 0.0
C565 C 0.25652 0.32546 0.45252 0.0
C566 C 0.28798 0.38945 0.48458 0.0
C567 C 0.3245 0.40859 0.4569 0.0
N568 N 0.26535 0.34657 0.46104 0.0
N569 N 0.31512 0.38686 0.45173 0.0
H570 H 0.9436 0.0484 0.70793 0.0
H571 H 0.80637 0.03735 0.6984 0.0
H572 H 0.91294 0.98269 0.68131 0.0
H573 H 0.83691 0.06772 0.76254 0.0
H574 H 0.84532 0.01937 0.6889 0.0
H575 H 0.90482 0.05865 0.7259 0.0
C576 C 0.92879 0.03601 0.70618 0.0
C577 C 0.93136 0.01471 0.69314 0.0
C578 C 0.84332 0.02965 0.70525 0.0
C579 C 0.88715 0.02655 0.71299 0.0
C580 C 0.82123 0.03995 0.7106 0.0
C581 C 0.81856 0.05399 0.73124 0.0
C582 C 0.86296 0.03412 0.72024 0.0
C583 C 0.83829 0.05688 0.74651 0.0
C584 C 0.90678 0.04181 0.71648 0.0
C585 C 0.91167 -0.00077 0.69134 0.0
N586 N 0.85988 0.04744 0.74044 0.0
N587 N 0.89018 0.0057 0.70072 0.0
H588 H 0.2684 0.6618 0.93479 0.0
H589 H 0.18035 0.59008 0.02082 0.0
H590 H 0.20236 0.69217 0.961 0.0
H591 H 0.21313 0.55796 0.95866 0.0
H592 H 0.19942 0.62834 0.01052 0.0
H593 H 0.25881 0.62433 0.95552 0.0
C594 C 0.25221 0.66078 0.94542 0.0
C595 C 0.23599 0.67994 0.94605 0.0
C596 C 0.20281 0.61271 -0.00047 0.0
C597 C 0.22527 0.63755 0.96991 0.0
C598 C 0.19211 0.59094 0.00542 0.0
C599 C 0.19511 0.57102 0.99041 0.0
C600 C 0.21702 0.61425 0.9789 0.0
C601 C 0.21028 0.57304 0.97052 0.0
C602 C 0.24676 0.63943 0.9571 0.0
C603 C 0.21518 0.67767 0.95991 0.0
N604 N 0.22066 0.59435 0.96528 0.0
N605 N 0.21034 0.65676 0.97127 0.0
H606 H 0.56868 0.0159 0.19985 0.0
H607 H 0.64097 0.89928 0.22806 0.0
H608 H 0.53702 0.94545 0.2013 0.0
H609 H 0.66581 0.96769 0.25369 0.0
H610 H 0.60199 0.91676 0.21975 0.0
H611 H 0.60327 0.00022 0.22191 0.0
C612 C 0.56871 -0.00269 0.20527 0.0
C613 C 0.5502 0.98181 0.19821 0.0
C614 C 0.61576 0.92801 0.22748 0.0
C615 C 0.58963 0.96385 0.22312 0.0
C616 C 0.63804 0.91804 0.23207 0.0
C617 C 0.65651 0.93219 0.2413 0.0
C618 C 0.61205 0.95253 0.23153 0.0
C619 C 0.65188 0.95631 0.24648 0.0
C620 C 0.58847 0.98838 0.21783 0.0
C621 C 0.55113 0.95793 0.20582 0.0
N622 N 0.63012 0.96593 0.24106 0.0
N623 N 0.57068 0.94963 0.2175 0.0
H624 H 0.7254 0.15331 0.55877 0.0
H625 H 0.81518 0.08591 0.47071 0.0
H626 H 0.78636 0.18837 0.52699 0.0
H627 H 0.79 0.05411 0.53638 0.0
H628 H 0.7929 0.12252 0.48058 0.0
H629 H 0.73766 0.11569 0.53942 0.0
C630 C 0.74094 0.15321 0.54716 0.0
C631 C 0.75505 0.17379 0.54451 0.0
C632 C 0.79192 0.10728 0.4925 0.0
C633 C 0.76877 0.1313 0.5223 0.0
C634 C 0.80448 0.08643 0.48689 0.0
C635 C 0.80455 0.06715 0.50292 0.0
C636 C 0.77892 0.10849 0.51393 0.0
C637 C 0.79057 0.06874 0.52371 0.0
C638 C 0.74794 0.13181 0.5363 0.0
C639 C 0.77516 0.17277 0.52955 0.0
N640 N 0.77831 0.08915 0.52868 0.0
N641 N 0.7815 0.1518 0.51901 0.0
H642 H 0.15154 0.56445 0.71634 0.0
H643 H 0.08337 0.47525 0.80425 0.0
H644 H 0.18478 0.53352 0.77872 0.0
H645 H 0.05033 0.53898 0.77595 0.0
H646 H 0.12039 0.48551 0.78291 0.0
H647 H 0.11408 0.54377 0.72664 0.0
C648 C 0.15111 0.55279 0.7318 0.0
C649 C 0.17106 0.55079 0.74689 0.0
C650 C 0.10479 0.49688 0.78099 0.0
C651 C 0.1288 0.52701 0.75838 0.0
C652 C 0.08371 0.49102 0.79301 0.0
C653 C 0.06395 0.50648 0.79201 0.0
C654 C 0.10581 0.51798 0.76749 0.0
C655 C 0.06532 0.52678 0.77736 0.0
C656 C 0.1298 0.54114 0.73768 0.0
C657 C 0.16963 0.53566 0.76682 0.0
N658 N 0.086 0.53204 0.76572 0.0
N659 N 0.14878 0.52437 0.77206 0.0
H660 H 0.71847 0.93523 0.04168 0.0
H661 H 0.70511 0.79909 0.03408 0.0
H662 H 0.68673 0.90468 0.97824 0.0
H663 H 0.77151 0.82887 0.06 0.0
H664 H 0.69625 0.83729 0.0144 0.0
H665 H 0.737 0.89646 0.05047 0.0
C666 C 0.71577 0.92043 0.02943 0.0
C667 C 0.70109 0.923 0.00927 0.0
C668 C 0.71299 0.83521 0.02398 0.0
C669 C 0.72154 0.87876 0.01949 0.0
C670 C 0.71798 0.81353 0.03525 0.0
C671 C 0.73898 0.81095 0.04875 0.0
C672 C 0.72874 0.85454 0.02693 0.0
C673 C 0.75513 0.83016 0.04971 0.0
C674 C 0.72638 0.89842 0.03437 0.0
C675 C 0.69806 0.90335 0.9939 0.0
N676 N 0.7494 0.8514 0.03943 0.0
N677 N 0.70774 0.8818 -0.00036 0.0
H678 H 0.30296 0.45571 0.29908 0.0
H679 H 0.44009 0.44753 0.28918 0.0
H680 H 0.33398 0.42785 0.23403 0.0
H681 H 0.4086 0.51222 0.3173 0.0
H682 H 0.4015 0.43725 0.27087 0.0
H683 H 0.34145 0.47452 0.30884 0.0
C684 C 0.3178 0.45387 0.28673 0.0
C685 C 0.31542 0.44025 0.26577 0.0
C686 C 0.40322 0.45389 0.2807 0.0
C687 C 0.35932 0.46104 0.27706 0.0
C688 C 0.42512 0.4597 0.29118 0.0
C689 C 0.4274 0.48071 0.30472 0.0
C690 C 0.38339 0.46881 0.28451 0.0
C691 C 0.40752 0.49591 0.30686 0.0
C692 C 0.33964 0.46464 0.29223 0.0
C693 C 0.33513 0.43834 0.25031 0.0
N694 N 0.38612 0.4894 0.29729 0.0
N695 N 0.35649 0.44819 0.25653 0.0
H696 H 0.43235 0.32109 0.43523 0.0
H697 H 0.44711 0.23591 0.32317 0.0
H698 H 0.50196 0.29042 0.42092 0.0
H699 H 0.4043 0.30033 0.32361 0.0
H700 H 0.46454 0.24823 0.3619 0.0
H701 H 0.41783 0.30453 0.39782 0.0
C702 C 0.4446 0.31066 0.42439 0.0
C703 C 0.46859 0.30747 0.43119 0.0
C704 C 0.45144 0.25958 0.35325 0.0
C705 C 0.45181 0.28839 0.3881 0.0
C706 C 0.44149 0.25262 0.33126 0.0
C707 C 0.42418 0.26708 0.32011 0.0
C708 C 0.44349 0.28075 0.36423 0.0
C709 C 0.41758 0.28857 0.33138 0.0
C710 C 0.43626 0.30131 0.40294 0.0
C711 C 0.48341 0.29353 0.41629 0.0
N712 N 0.42703 0.29456 0.35286 0.0
N713 N 0.47479 0.28451 0.39528 0.0
H714 H 0.00756 0.21017 0.5767 0.0
H715 H 0.93347 0.1814 0.69512 0.0
H716 H 0.95795 0.15151 0.5847 0.0
H717 H 0.94976 0.25449 0.67592 0.0
H718 H 0.95345 0.16785 0.65892 0.0
H719 H 0.99586 0.22466 0.61686 0.0
C720 C 0.99431 0.20037 0.58689 0.0
C721 C 0.98346 0.17981 0.5773 0.0
C722 C 0.95285 0.18685 0.66276 0.0
C723 C 0.97071 0.19571 0.62297 0.0
C724 C 0.94149 0.19465 0.68348 0.0
C725 C 0.93943 0.2192 0.68838 0.0
C726 C 0.96238 0.20363 0.64677 0.0
C727 C 0.95062 0.2354 0.6727 0.0
C728 C 0.98769 0.20861 0.60967 0.0
C729 C 0.9665 0.16765 0.59121 0.0
N730 N 0.96144 0.22734 0.65237 0.0
N731 N 0.96076 0.17571 0.61333 0.0
H732 H 0.99021 0.71113 0.92025 0.0
H733 H 0.06839 0.68795 0.80528 0.0
H734 H 0.05539 0.66946 0.92013 0.0
H735 H 0.04156 0.75957 0.8172 0.0
H736 H 0.05352 0.67642 0.84441 0.0
H737 H 0.00057 0.72594 0.87996 0.0
C738 C 0.00672 0.70529 0.91192 0.0
C739 C 0.02193 0.68898 0.92359 0.0
C740 C 0.05073 0.69461 0.83834 0.0
C741 C 0.03329 0.7052 0.87774 0.0
C742 C 0.05909 0.70124 0.81592 0.0
C743 C 0.05659 0.72493 0.808 0.0
C744 C 0.03948 0.7116 0.85295 0.0
C745 C 0.04411 0.74118 0.8227 0.0
C746 C 0.01255 0.71372 0.88904 0.0
C747 C 0.0431 0.68201 0.91198 0.0
N748 N 0.03606 0.73424 0.84465 0.0
N749 N 0.04795 0.68989 0.88962 0.0
H750 H 0.53554 0.79231 0.19082 0.0
H751 H 0.54536 0.78704 0.05356 0.0
H752 H 0.56358 0.72845 0.15757 0.0
H753 H 0.48113 0.81575 0.08546 0.0
H754 H 0.5546 0.76694 0.09145 0.0
H755 H 0.51702 0.80342 0.15261 0.0
C756 C 0.53747 0.78049 0.17554 0.0
C757 C 0.5511 0.7595 0.17722 0.0
C758 C 0.53827 0.77729 0.08996 0.0
C759 C 0.53061 0.77234 0.13363 0.0
C760 C 0.53306 0.7888 0.06846 0.0
C761 C 0.51252 0.80306 0.06652 0.0
C762 C 0.52324 0.78077 0.10977 0.0
C763 C 0.49711 0.80481 0.08628 0.0
C764 C 0.52686 0.78677 0.15386 0.0
C765 C 0.5531 0.74475 0.15697 0.0
N766 N 0.50306 0.79422 0.10734 0.0
N767 N 0.54341 0.75172 0.13579 0.0
H768 H 0.19477 0.30542 0.36 0.0
H769 H 0.22128 0.34448 0.22565 0.0
H770 H 0.24692 0.27117 0.31424 0.0
H771 H 0.19909 0.39259 0.28182 0.0
H772 H 0.21548 0.31067 0.25296 0.0
H773 H 0.18216 0.33016 0.32631 0.0
C774 C 0.20335 0.30282 0.3428 0.0
C775 C 0.22238 0.28661 0.3401 0.0
C776 C 0.21098 0.32856 0.25895 0.0
C777 C 0.2077 0.31466 0.30148 0.0
C778 C 0.21395 0.34781 0.24331 0.0
C779 C 0.21094 0.37128 0.25174 0.0
C780 C 0.20439 0.33299 0.2828 0.0
C781 C 0.20179 0.37471 0.27482 0.0
C782 C 0.19606 0.31691 0.3236 0.0
C783 C 0.23258 0.28384 0.31727 0.0
N784 N 0.19918 0.35577 0.28973 0.0
N785 N 0.22529 0.29797 0.29887 0.0
H786 H 0.91059 0.98326 0.46895 0.0
H787 H 0.94452 0.94955 0.60318 0.0
H788 H 0.86108 0.95375 0.52013 0.0
H789 H 0.97427 0.00994 0.56533 0.0
H790 H 0.92294 0.93801 0.56695 0.0
H791 H 0.94293 0.97895 0.49841 0.0
C792 C 0.9068 0.9747 0.48591 0.0
C793 C 0.88322 0.96905 0.49238 0.0
C794 C 0.93457 0.95352 0.56652 0.0
C795 C 0.91977 0.96412 0.5258 0.0
C796 C 0.94684 0.96021 0.58717 0.0
C797 C 0.96083 0.98108 0.58744 0.0
C798 C 0.93651 0.9676 0.54589 0.0
C799 C 0.96331 0.994 0.56605 0.0
C800 C 0.92515 0.97256 0.50277 0.0
C801 C 0.87908 0.95841 0.51465 0.0
N802 N 0.95105 0.98717 0.54615 0.0
N803 N 0.89714 0.95656 0.53074 0.0
H804 H 0.26119 0.65281 0.71691 0.0
H805 H 0.29401 0.68367 0.85236 0.0
H806 H 0.28601 0.60079 0.76803 0.0
H807 H 0.23597 0.71689 0.81369 0.0
H808 H 0.30457 0.66117 0.81627 0.0
H809 H 0.26653 0.68433 0.74714 0.0
C810 C 0.26896 0.64823 0.73406 0.0
C811 C 0.27298 0.62426 0.74022 0.0
C812 C 0.2898 0.67372 0.81564 0.0
C813 C 0.27907 0.65988 0.77453 0.0
C814 C 0.28369 0.6865 0.8362 0.0
C815 C 0.26376 0.70181 0.83614 0.0
C816 C 0.27615 0.67655 0.7948 0.0
C817 C 0.25116 0.70491 0.81462 0.0
C818 C 0.27168 0.66613 0.75136 0.0
C819 C 0.28264 0.61912 0.76275 0.0
N820 N 0.25747 0.69223 0.7948 0.0
N821 N 0.28508 0.63677 0.77927 0.0
H822 H 0.52729 0.99289 0.06308 0.0
H823 H 0.65326 0.03777 0.03081 0.0
H824 H 0.56278 0.04541 0.10733 0.0
H825 H 0.60337 0.01764 0.97551 0.0
H826 H 0.61979 0.04428 0.05819 0.0
H827 H 0.55398 0.00336 0.03 0.0
C828 C 0.54059 0.00673 0.06577 0.0
C829 C 0.54309 0.01801 0.08809 0.0
C830 C 0.61605 0.03921 0.03985 0.0
C831 C 0.57365 0.03002 0.05041 0.0
C832 C 0.63514 0.03569 0.02419 0.0
C833 C 0.63098 0.02708 0.00101 0.0
C834 C 0.5928 0.03326 0.03242 0.0
C835 C 0.60725 0.02438 0.99327 0.0
C836 C 0.55564 0.01287 0.04682 0.0
C837 C 0.56038 0.03609 0.09049 0.0
N838 N 0.589 0.02668 0.00922 0.0
N839 N 0.57532 0.04121 0.07202 0.0
H840 H 0.75051 0.21368 0.676 0.0
H841 H 0.69879 0.09496 0.71581 0.0
H842 H 0.69331 0.18089 0.63565 0.0
H843 H 0.72168 0.14633 0.76863 0.0
H844 H 0.69179 0.1275 0.68764 0.0
H845 H 0.73772 0.1912 0.71135 0.0
C846 C 0.73518 0.20191 0.67464 0.0
C847 C 0.72329 0.19874 0.65275 0.0
C848 C 0.69751 0.13182 0.70567 0.0
C849 C 0.70869 0.17297 0.69294 0.0
C850 C 0.70127 0.11325 0.72179 0.0
C851 C 0.71106 0.11805 0.74435 0.0
C852 C 0.70448 0.15513 0.71196 0.0
C853 C 0.71418 0.14197 0.75129 0.0
C854 C 0.72772 0.18929 0.69485 0.0
C855 C 0.70321 0.18363 0.65209 0.0
N856 N 0.71183 0.15967 0.73478 0.0
N857 N 0.69688 0.17089 0.67174 0.0
H858 H 0.14599 0.45547 0.96974 0.0
H859 H 0.02792 0.50829 0.92521 0.0
H860 H 0.09357 0.48079 0.02039 0.0
H861 H 0.06101 0.44968 0.88716 0.0
H862 H 0.05059 0.49721 0.96103 0.0
H863 H 0.11426 0.44979 0.94021 0.0
C864 C 0.12759 0.45884 0.97492 0.0
C865 C 0.12231 0.46869 -0.00264 0.0
C866 C 0.05253 0.48653 0.94495 0.0
C867 C 0.08622 0.46356 0.96343 0.0
C868 C 0.03981 0.49301 0.92445 0.0
C869 C 0.0429 0.48015 0.90308 0.0
C870 C 0.06886 0.46745 0.94386 0.0
C871 C 0.05826 0.46024 0.90319 0.0
C872 C 0.10951 0.45581 0.95803 0.0
C873 C 0.09829 0.47308 0.00322 0.0
N874 N 0.07104 0.4548 0.92312 0.0
N875 N 0.08115 0.4713 0.98602 0.0
H876 H 0.77954 0.89898 0.21752 0.0
H877 H 0.73814 0.7752 0.18022 0.0
H878 H 0.76132 0.84764 0.27199 0.0
H879 H 0.79504 0.80967 0.14096 0.0
H880 H 0.74749 0.80049 0.21487 0.0
H881 H 0.78851 0.86616 0.19003 0.0
C882 C 0.77842 0.88073 0.22395 0.0
C883 C 0.7696 0.87589 0.24687 0.0
C884 C 0.75823 0.80211 0.19882 0.0
C885 C 0.77849 0.83843 0.21532 0.0
C886 C 0.75273 0.78791 0.17898 0.0
C887 C 0.76554 0.79069 0.15756 0.0
C888 C 0.77624 0.81954 0.19696 0.0
C889 C 0.78454 0.80712 0.15704 0.0
C890 C 0.78336 0.86201 0.20824 0.0
C891 C 0.76815 0.85201 0.25439 0.0
N892 N 0.78898 0.82132 0.17627 0.0
N893 N 0.77168 0.83404 0.23832 0.0
H894 H 0.40422 0.5154 0.52604 0.0
H895 H 0.44408 0.54871 0.39378 0.0
H896 H 0.35754 0.54485 0.47226 0.0
H897 H 0.46977 0.48719 0.4328 0.0
H898 H 0.42271 0.56195 0.42953 0.0
H899 H 0.43833 0.52122 0.49901 0.0
C900 C 0.40136 0.52442 0.50913 0.0
C901 C 0.37811 0.52919 0.50098 0.0
C902 C 0.43349 0.54586 0.43035 0.0
C903 C 0.41668 0.53597 0.47039 0.0
C904 C 0.4456 0.53815 0.40995 0.0
C905 C 0.45824 0.51642 0.41011 0.0
C906 C 0.43422 0.5319 0.45113 0.0
C907 C 0.45979 0.50375 0.43173 0.0
C908 C 0.42077 0.52742 0.49364 0.0
C909 C 0.37525 0.54067 0.47894 0.0
N910 N 0.44763 0.51153 0.45135 0.0
N911 N 0.3943 0.54328 0.46414 0.0
H912 H 0.21083 0.2242 0.34892 0.0
H913 H 0.34259 0.19152 0.30686 0.0
H914 H 0.26422 0.1907 0.39326 0.0
H915 H 0.29957 0.24875 0.27788 0.0
H916 H 0.30788 0.17768 0.32956 0.0
H917 H 0.23669 0.2181 0.31401 0.0
C918 C 0.22735 0.21428 0.35108 0.0
C919 C 0.23577 0.2084 0.37397 0.0
C920 C 0.30597 0.19297 0.31783 0.0
C921 C 0.26531 0.20162 0.33446 0.0
C922 C 0.32578 0.20098 0.30494 0.0
C923 C 0.32417 0.22174 0.2909 0.0
C924 C 0.28435 0.20568 0.31657 0.0
C925 C 0.30179 0.23301 0.28889 0.0
C926 C 0.24225 0.21114 0.33121 0.0
C927 C 0.25735 0.19579 0.37587 0.0
N928 N 0.28282 0.22502 0.30185 0.0
N929 N 0.27169 0.19329 0.35643 0.0
H930 H 0.04913 0.02652 0.64612 0.0
H931 H -7e-05 0.06106 0.52377 0.0
H932 H 0.02416 0.97238 0.59713 0.0
H933 H 0.05417 0.10371 0.55866 0.0
H934 H 0.01266 0.02655 0.54743 0.0
H935 H 0.057 0.05294 0.61233 0.0
C936 C 0.04628 0.01987 0.6281 0.0
C937 C 0.03579 -0.00255 0.62432 0.0
C938 C 0.0221 0.04334 0.54953 0.0
C939 C 0.04346 0.02788 0.58574 0.0
C940 C 0.01471 0.06309 0.53616 0.0
C941 C 0.02556 0.08546 0.53973 0.0
C942 C 0.04005 0.04617 0.56693 0.0
C943 C 0.04498 0.08693 0.55563 0.0
C944 C 0.05058 0.03499 0.6088 0.0
C945 C 0.03224 0.98962 0.60072 0.0
N946 N 0.05122 0.0677 0.56906 0.0
N947 N 0.03524 0.00518 0.58228 0.0
H948 H 0.21761 0.79162 0.88936 0.0
H949 H 0.18183 0.73984 0.76714 0.0
H950 H 0.27138 0.76592 0.84033 0.0
H951 H 0.13983 0.79534 0.80083 0.0
H952 H 0.21607 0.75159 0.79177 0.0
H953 H 0.19022 0.79725 0.85581 0.0
C954 C 0.22391 0.78807 0.87135 0.0
C955 C 0.24662 0.77819 0.86752 0.0
C956 C 0.19948 0.76146 0.79344 0.0
C957 C 0.21515 0.7834 0.82928 0.0
C958 C 0.17988 0.75465 0.7795 0.0
C959 C 0.1578 0.76631 0.78223 0.0
C960 C 0.19677 0.77967 0.81059 0.0
C961 C 0.1564 0.78561 0.79832 0.0
C962 C 0.20826 0.79112 0.85221 0.0
C963 C 0.25397 0.77365 0.84394 0.0
N964 N 0.17546 0.79136 0.81225 0.0
N965 N 0.23797 0.77554 0.8257 0.0
H966 H 0.44119 0.98158 0.13262 0.0
H967 H 0.50903 0.93316 0.02286 0.0
H968 H 0.48125 0.02839 0.08641 0.0
H969 H 0.44826 0.89619 0.05301 0.0
H970 H 0.49544 0.97005 0.04213 0.0
H971 H 0.43766 0.95284 0.09998 0.0
C972 C 0.44829 0.98624 0.11519 0.0
C973 C 0.46178 0.00712 0.1122 0.0
C974 C 0.48489 0.95395 0.04424 0.0
C975 C 0.4591 0.97384 0.07521 0.0
C976 C 0.49277 0.93282 0.03343 0.0
C977 C 0.4801 0.91141 0.03684 0.0
C978 C 0.4645 0.95354 0.05897 0.0
C979 C 0.45883 0.91217 0.05022 0.0
C980 C 0.44654 0.96972 0.09659 0.0
C981 C 0.47077 0.01236 0.08938 0.0
N982 N 0.45198 0.93276 0.06118 0.0
N983 N 0.47007 0.99537 0.07192 0.0
H984 H 0.77178 0.28754 0.59664 0.0
H985 H 0.80799 0.23647 0.71963 0.0
H986 H 0.71862 0.26257 0.64656 0.0
H987 H 0.85175 0.28878 0.68339 0.0
H988 H 0.77395 0.2485 0.69492 0.0
H989 H 0.79986 0.29283 0.62966 0.0
C990 C 0.76574 0.28415 0.61476 0.0
C991 C 0.74301 0.27448 0.61895 0.0
C992 C 0.79091 0.2576 0.69265 0.0
C993 C 0.77532 0.27922 0.6566 0.0
C994 C 0.81041 0.25058 0.70658 0.0
C995 C 0.83288 0.26131 0.70324 0.0
C996 C 0.79403 0.2751 0.67491 0.0
C997 C 0.83485 0.2798 0.68638 0.0
C998 C 0.78182 0.28694 0.6336 0.0
C999 C 0.73603 0.27013 0.64266 0.0
N1000 N 0.8158 0.28579 0.67253 0.0
N1001 N 0.75243 0.27176 0.66058 0.0
H1002 H 0.95284 0.52611 0.8487 0.0
H1003 H 0.00683 0.56542 0.9688 0.0
H1004 H 0.97871 0.47398 0.89919 0.0
H1005 H 0.95215 0.60748 0.93412 0.0
H1006 H 0.99397 0.53054 0.9457 0.0
H1007 H 0.94784 0.55475 0.88135 0.0
C1008 C 0.95652 0.52043 0.86687 0.0
C1009 C 0.96632 0.49783 0.87134 0.0
C1010 C 0.98451 0.5473 0.94347 0.0
C1011 C 0.96185 0.53073 0.90852 0.0
C1012 C 0.99196 0.56725 0.95654 0.0
C1013 C 0.98085 0.58949 0.95309 0.0
C1014 C 0.9662 0.54977 0.92642 0.0
C1015 C 0.96145 0.59076 0.93716 0.0
C1016 C 0.95385 0.53681 0.88549 0.0
C1017 C 0.97104 0.49129 0.89509 0.0
N1018 N 0.95507 0.5713 0.92404 0.0
N1019 N 0.96953 0.50798 0.91278 0.0
H1020 H 0.64081 0.69382 0.18971 0.0
H1021 H 0.77477 0.72751 0.1544 0.0
H1022 H 0.67956 0.75345 0.22012 0.0
H1023 H 0.72313 0.69762 0.10545 0.0
H1024 H 0.74564 0.72331 0.18701 0.0
H1025 H 0.67666 0.68242 0.16743 0.0
C1026 C 0.65694 0.70432 0.19203 0.0
C1027 C 0.65702 0.72497 0.20641 0.0
C1028 C 0.74109 0.71683 0.16929 0.0
C1029 C 0.69812 0.71168 0.18122 0.0
C1030 C 0.75777 0.71891 0.15077 0.0
C1031 C 0.75111 0.71308 0.12726 0.0
C1032 C 0.71801 0.70832 0.16418 0.0
C1033 C 0.72878 0.70242 0.12337 0.0
C1034 C 0.67737 0.69773 0.17933 0.0
C1035 C 0.67856 0.7377 0.20885 0.0
N1036 N 0.71285 0.70065 0.14161 0.0
N1037 N 0.69823 0.73098 0.19616 0.0
H1038 H 0.5452 0.46698 0.35078 0.0
H1039 H 0.49349 0.43316 0.47317 0.0
H1040 H 0.52095 0.52123 0.40001 0.0
H1041 H 0.54508 0.38824 0.43704 0.0
H1042 H 0.50732 0.46717 0.44938 0.0
H1043 H 0.55145 0.43984 0.3843 0.0
C1044 C 0.54221 0.47348 0.36883 0.0
C1045 C 0.5323 0.49615 0.37271 0.0
C1046 C 0.5159 0.44996 0.44699 0.0
C1047 C 0.53803 0.4649 0.41096 0.0
C1048 C 0.50785 0.43048 0.4604 0.0
C1049 C 0.5177 0.40768 0.45663 0.0
C1050 C 0.53356 0.44646 0.42941 0.0
C1051 C 0.53664 0.40539 0.44026 0.0
C1052 C 0.54554 0.45793 0.38798 0.0
C1053 C 0.52857 0.50379 0.39635 0.0
N1054 N 0.5436 0.42441 0.4269 0.0
N1055 N 0.53058 0.48785 0.4146 0.0
H1056 H 0.38223 0.26827 0.19734 0.0
H1057 H 0.26914 0.31136 0.25852 0.0
H1058 H 0.33348 0.2178 0.22903 0.0
H1059 H 0.29966 0.3503 0.19921 0.0
H1060 H 0.28892 0.27505 0.244 0.0
H1061 H 0.3491 0.29585 0.19107 0.0
C1062 C 0.36427 0.26255 0.20188 0.0
C1063 C 0.36055 0.24107 0.21414 0.0
C1064 C 0.2909 0.29145 0.23393 0.0
C1065 C 0.32289 0.27298 0.20849 0.0
C1066 C 0.27985 0.31224 0.24237 0.0
C1067 C 0.28332 0.33404 0.23046 0.0
C1068 C 0.30592 0.29263 0.21378 0.0
C1069 C 0.29685 0.334 0.20925 0.0
C1070 C 0.34535 0.27841 0.19859 0.0
C1071 C 0.33702 0.23441 0.21975 0.0
N1072 N 0.30808 0.31375 0.2019 0.0
N1073 N 0.31912 0.2508 0.21786 0.0
H1074 H 0.79449 0.14425 0.79948 0.0
H1075 H 0.83643 0.27508 0.76374 0.0
H1076 H 0.7744 0.18025 0.73412 0.0
H1077 H 0.8797 0.22396 0.80187 0.0
H1078 H 0.80207 0.24803 0.76729 0.0
H1079 H 0.81405 0.18081 0.81315 0.0
C1080 C 0.79382 0.15992 0.78812 0.0
C1081 C 0.78329 0.15897 0.76528 0.0
C1082 C 0.81883 0.24328 0.7758 0.0
C1083 C 0.80525 0.20095 0.78122 0.0
C1084 C 0.83834 0.25882 0.77409 0.0
C1085 C 0.86094 0.25134 0.78207 0.0
C1086 C 0.82206 0.22065 0.78615 0.0
C1087 C 0.86257 0.23009 0.79518 0.0
C1088 C 0.80487 0.18079 0.79607 0.0
C1089 C 0.78271 0.18002 0.75161 0.0
N1090 N 0.84347 0.21519 0.79641 0.0
N1091 N 0.79386 0.2001 0.75967 0.0
H1092 H 0.02471 0.64731 0.04605 0.0
H1093 H 0.06419 0.52966 0.9908 0.0
H1094 H 0.97265 0.59914 0.01578 0.0
H1095 H 0.10303 0.56066 0.05002 0.0
H1096 H 0.02852 0.55179 0.00341 0.0
H1097 H 0.05111 0.61348 0.05371 0.0
C1098 C 0.01841 0.6294 0.04206 0.0
C1099 C -0.00325 0.62594 0.02997 0.0
C1100 C 0.04475 0.55343 0.01385 0.0
C1101 C 0.02729 0.58741 0.03731 0.0
C1102 C 0.06516 0.54098 0.00652 0.0
C1103 C 0.08674 0.54382 0.01901 0.0
C1104 C 0.04619 0.5693 0.03335 0.0
C1105 C 0.08686 0.55826 0.03961 0.0
C1106 C 0.03357 0.61008 0.04619 0.0
C1107 C 0.98936 0.60247 0.02502 0.0
N1108 N 0.06706 0.5709 0.04581 0.0
N1109 N 0.00506 0.58409 0.02781 0.0
H1110 H 0.7147 0.81161 0.24755 0.0
H1111 H 0.5953 0.77051 0.29623 0.0
H1112 H 0.67902 0.85164 0.30327 0.0
H1113 H 0.64687 0.71914 0.2707 0.0
H1114 H 0.62781 0.79814 0.30542 0.0
H1115 H 0.69325 0.77573 0.26021 0.0
C1116 C 0.70262 0.81276 0.26268 0.0
C1117 C 0.69813 0.83475 0.27397 0.0
C1118 C 0.63219 0.7805 0.29865 0.0
C1119 C 0.67347 0.79385 0.28845 0.0
C1120 C 0.61362 0.76469 0.29358 0.0
C1121 C 0.61851 0.74276 0.28249 0.0
C1122 C 0.65561 0.7746 0.29166 0.0
C1123 C 0.64245 0.736 0.27921 0.0
C1124 C 0.69055 0.79222 0.27006 0.0
C1125 C 0.68271 0.83512 0.2938 0.0
N1126 N 0.66016 0.75226 0.28293 0.0
N1127 N 0.67046 0.8151 0.30004 0.0
H1128 H 0.39644 0.43738 0.55165 0.0
H1129 H 0.52864 0.39761 0.51874 0.0
H1130 H 0.43974 0.46855 0.49577 0.0
H1131 H 0.47536 0.35217 0.55091 0.0
H1132 H 0.50275 0.43226 0.52598 0.0
H1133 H 0.43141 0.41515 0.5656 0.0
C1134 C 0.41337 0.43989 0.54254 0.0
C1135 C 0.41499 0.4543 0.52204 0.0
C1136 C 0.49722 0.41484 0.53242 0.0
C1137 C 0.45506 0.42914 0.53817 0.0
C1138 C 0.51213 0.39511 0.52861 0.0
C1139 C 0.50373 0.37205 0.53376 0.0
C1140 C 0.47418 0.41126 0.54185 0.0
C1141 C 0.4822 0.36972 0.54635 0.0
C1142 C 0.43332 0.42726 0.5506 0.0
C1143 C 0.43751 0.45712 0.51123 0.0
N1144 N 0.46784 0.38904 0.54949 0.0
N1145 N 0.4566 0.44435 0.51921 0.0
H1146 H 0.21483 0.68278 0.74387 0.0
H1147 H 0.09958 0.72695 0.68642 0.0
H1148 H 0.18183 0.64425 0.68553 0.0
H1149 H 0.14892 0.77623 0.7193 0.0
H1150 H 0.13251 0.69936 0.67895 0.0
H1151 H 0.19456 0.7192 0.73063 0.0
C1152 C 0.20344 0.68203 0.72819 0.0
C1153 C 0.19948 0.66033 0.71616 0.0
C1154 C 0.13643 0.71657 0.687 0.0
C1155 C 0.17614 0.70186 0.70104 0.0
C1156 C 0.11762 0.73244 0.69099 0.0
C1157 C 0.12157 0.75359 0.70385 0.0
C1158 C 0.15905 0.72164 0.69673 0.0
C1159 C 0.14519 0.75992 0.70949 0.0
C1160 C 0.19206 0.70287 0.72049 0.0
C1161 C 0.18506 0.66051 0.69558 0.0
N1162 N 0.16299 0.74353 0.7068 0.0
N1163 N 0.17346 0.68081 0.689 0.0
H1164 H 0.47634 0.90256 0.97612 0.0
H1165 H 0.6111 0.93764 0.94674 0.0
H1166 H 0.52954 0.85299 0.95027 0.0
H1167 H 0.57151 0.96569 0.00701 0.0
H1168 H 0.57529 0.91628 0.93365 0.0
H1169 H 0.50536 0.93523 0.9718 0.0
C1170 C 0.49367 0.89877 0.96826 0.0
C1171 C 0.50086 0.87512 0.96388 0.0
C1172 C 0.57438 0.92753 0.94945 0.0
C1173 C 0.53371 0.91206 0.95883 0.0
C1174 C 0.59479 0.93965 0.95703 0.0
C1175 C 0.59443 0.95302 0.97835 0.0
C1176 C 0.5534 0.92904 0.96306 0.0
C1177 C 0.57269 0.95514 0.99078 0.0
C1178 C 0.51026 0.91734 0.96612 0.0
C1179 C 0.52352 0.87104 0.95403 0.0
N1180 N 0.55303 0.94302 0.98307 0.0
N1181 N 0.53935 0.88932 0.95217 0.0
H1182 H 0.89712 0.06332 0.44152 0.0
H1183 H 0.03034 0.09936 0.47666 0.0
H1184 H 0.93792 0.0308 0.49848 0.0
H1185 H 0.97709 0.14893 0.45122 0.0
H1186 H 0.00278 0.06624 0.4683 0.0
H1187 H 0.93247 0.08657 0.4302 0.0
C1188 C 0.91361 0.06075 0.45139 0.0
C1189 C 0.91445 0.04556 0.47136 0.0
C1190 C -0.0024 0.08429 0.46357 0.0
C1191 C 0.95492 0.07166 0.45811 0.0
C1192 C 0.01342 0.10316 0.468 0.0
C1193 C 0.00567 0.12683 0.46499 0.0
C1194 C 0.97433 0.08935 0.45551 0.0
C1195 C 0.98351 0.13086 0.454 0.0
C1196 C 0.93374 0.07395 0.44483 0.0
C1197 C 0.93635 0.04277 0.48334 0.0
N1198 N 0.96837 0.11231 0.45006 0.0
N1199 N 0.9557 0.05591 0.47667 0.0
loop_
_geom_bond_atom_site_label_1
_geom_bond_atom_site_label_2
_geom_bond_distance
_geom_bond_site_symmetry_2
_ccdc_geom_bond_type
Co0 O1 2.216 . S
Co0 O2 2.091 . S
Co0 O4 2.004 . S
Co0 O10 2.021 . S
Co0 O12 2.137 . S
Co0 O13 2.244 . S
O1 Co0 2.216 . S
O1 C8 1.247 . S
O2 Co0 2.091 . S
O2 C8 1.261 . S
C3 O12 1.247 . S
C3 O13 1.272 . S
O4 Co0 2.004 . S
O4 C9 1.259 . S
Co5 O6 2.061 . S
Co5 O11 2.052 . S
Co5 O13 2.135 . S
O6 Co5 2.061 . S
O6 C9 1.235 . S
C7 O10 1.238 . S
C7 O11 1.241 . S
C8 O1 1.247 . S
C8 O2 1.261 . S
C9 O4 1.259 . S
C9 O6 1.235 . S
O10 Co0 2.021 . S
O10 C7 1.238 . S
O11 Co5 2.052 . S
O11 C7 1.241 . S
O12 Co0 2.137 . S
O12 C3 1.247 . S
O13 Co0 2.244 . S
O13 C3 1.272 . S
O13 Co5 2.135 . S
Co14 O15 2.216 . S
Co14 O16 2.091 . S
Co14 O18 2.004 . S
Co14 O24 2.021 . S
Co14 O26 2.137 . S
Co14 O27 2.244 . S
O15 Co14 2.216 . S
O15 C22 1.247 . S
O16 Co14 2.091 . S
O16 C22 1.261 . S
C17 O26 1.247 . S
C17 O27 1.272 . S
O18 Co14 2.004 . S
O18 C23 1.259 . S
Co19 O20 2.061 . S
Co19 O25 2.052 . S
Co19 O27 2.135 . S
O20 Co19 2.061 . S
O20 C23 1.235 . S
C21 O24 1.238 . S
C21 O25 1.241 . S
C22 O15 1.247 . S
C22 O16 1.261 . S
C23 O18 1.259 . S
C23 O20 1.235 . S
O24 Co14 2.021 . S
O24 C21 1.238 . S
O25 Co19 2.052 . S
O25 C21 1.241 . S
O26 Co14 2.137 . S
O26 C17 1.247 . S
O27 Co14 2.244 . S
O27 C17 1.272 . S
O27 Co19 2.135 . S
Co28 O29 2.216 . S
Co28 O30 2.091 . S
Co28 O32 2.004 . S
Co28 O38 2.021 . S
Co28 O40 2.137 . S
Co28 O41 2.244 . S
O29 Co28 2.216 . S
O29 C36 1.247 . S
O30 Co28 2.091 . S
O30 C36 1.261 . S
C31 O40 1.247 . S
C31 O41 1.272 . S
O32 Co28 2.004 . S
O32 C37 1.259 . S
Co33 O34 2.061 . S
Co33 O39 2.052 . S
Co33 O41 2.135 . S
O34 Co33 2.061 . S
O34 C37 1.235 . S
C35 O38 1.238 . S
C35 O39 1.241 . S
C36 O29 1.247 . S
C36 O30 1.261 . S
C37 O32 1.259 . S
C37 O34 1.235 . S
O38 Co28 2.021 . S
O38 C35 1.238 . S
O39 Co33 2.052 . S
O39 C35 1.241 . S
O40 Co28 2.137 . S
O40 C31 1.247 . S
O41 Co28 2.244 . S
O41 C31 1.272 . S
O41 Co33 2.135 . S
Co42 O43 2.216 . S
Co42 O44 2.091 . S
Co42 O46 2.004 . S
Co42 O52 2.021 . S
Co42 O54 2.137 . S
Co42 O55 2.244 . S
O43 Co42 2.216 . S
O43 C50 1.247 . S
O44 Co42 2.091 . S
O44 C50 1.261 . S
C45 O54 1.247 . S
C45 O55 1.272 . S
O46 Co42 2.004 . S
O46 C51 1.259 . S
Co47 O48 2.061 . S
Co47 O53 2.052 . S
Co47 O55 2.135 . S
O48 Co47 2.061 . S
O48 C51 1.235 . S
C49 O52 1.238 . S
C49 O53 1.241 . S
C50 O43 1.247 . S
C50 O44 1.261 . S
C51 O46 1.259 . S
C51 O48 1.235 . S
O52 Co42 2.021 . S
O52 C49 1.238 . S
O53 Co47 2.052 . S
O53 C49 1.241 . S
O54 Co42 2.137 . S
O54 C45 1.247 . S
O55 Co42 2.244 . S
O55 C45 1.272 . S
O55 Co47 2.135 . S
Co56 O57 2.216 . S
Co56 O58 2.091 . S
Co56 O60 2.004 . S
Co56 O66 2.021 . S
Co56 O68 2.137 . S
Co56 O69 2.244 . S
O57 Co56 2.216 . S
O57 C64 1.247 . S
O58 Co56 2.091 . S
O58 C64 1.261 . S
C59 O68 1.247 . S
C59 O69 1.272 . S
O60 Co56 2.004 . S
O60 C65 1.259 . S
Co61 O62 2.061 . S
Co61 O67 2.052 . S
Co61 O69 2.135 . S
O62 Co61 2.061 . S
O62 C65 1.235 . S
C63 O66 1.238 . S
C63 O67 1.241 . S
C64 O57 1.247 . S
C64 O58 1.261 . S
C65 O60 1.259 . S
C65 O62 1.235 . S
O66 Co56 2.021 . S
O66 C63 1.238 . S
O67 Co61 2.052 . S
O67 C63 1.241 . S
O68 Co56 2.137 . S
O68 C59 1.247 . S
O69 Co56 2.244 . S
O69 C59 1.272 . S
O69 Co61 2.135 . S
Co70 O71 2.216 . S
Co70 O72 2.091 . S
Co70 O74 2.004 . S
Co70 O80 2.021 . S
Co70 O82 2.137 . S
Co70 O83 2.244 . S
O71 Co70 2.216 . S
O71 C78 1.247 . S
O72 Co70 2.091 . S
O72 C78 1.261 . S
C73 O82 1.247 . S
C73 O83 1.272 . S
O74 Co70 2.004 . S
O74 C79 1.259 . S
Co75 O76 2.061 . S
Co75 O81 2.052 . S
Co75 O83 2.135 . S
O76 Co75 2.061 . S
O76 C79 1.235 . S
C77 O80 1.238 . S
C77 O81 1.241 . S
C78 O71 1.247 . S
C78 O72 1.261 . S
C79 O74 1.259 . S
C79 O76 1.235 . S
O80 Co70 2.021 . S
O80 C77 1.238 . S
O81 Co75 2.052 . S
O81 C77 1.241 . S
O82 Co70 2.137 . S
O82 C73 1.247 . S
O83 Co70 2.244 . S
O83 C73 1.272 . S
O83 Co75 2.135 . S
Co84 O85 2.216 . S
Co84 O86 2.091 . S
Co84 O88 2.004 . S
Co84 O94 2.021 . S
Co84 O96 2.137 . S
Co84 O97 2.244 . S
O85 Co84 2.216 . S
O85 C92 1.247 . S
O86 Co84 2.091 . S
O86 C92 1.261 . S
C87 O96 1.247 . S
C87 O97 1.272 . S
O88 Co84 2.004 . S
O88 C93 1.259 . S
Co89 O90 2.061 . S
Co89 O95 2.052 . S
Co89 O97 2.135 . S
O90 Co89 2.061 . S
O90 C93 1.235 . S
C91 O94 1.238 . S
C91 O95 1.241 . S
C92 O85 1.247 . S
C92 O86 1.261 . S
C93 O88 1.259 . S
C93 O90 1.235 . S
O94 Co84 2.021 . S
O94 C91 1.238 . S
O95 Co89 2.052 . S
O95 C91 1.241 . S
O96 Co84 2.137 . S
O96 C87 1.247 . S
O97 Co84 2.244 . S
O97 C87 1.272 . S
O97 Co89 2.135 . S
Co98 O99 2.216 . S
Co98 O100 2.091 . S
Co98 O102 2.004 . S
Co98 O108 2.021 . S
Co98 O110 2.137 . S
Co98 O111 2.244 . S
O99 Co98 2.216 . S
O99 C106 1.247 . S
O100 Co98 2.091 . S
O100 C106 1.261 . S
C101 O110 1.247 . S
C101 O111 1.272 . S
O102 Co98 2.004 . S
O102 C107 1.259 . S
Co103 O104 2.061 . S
Co103 O109 2.052 . S
Co103 O111 2.135 . S
O104 Co103 2.061 . S
O104 C107 1.235 . S
C105 O108 1.238 . S
C105 O109 1.241 . S
C106 O99 1.247 . S
C106 O100 1.261 . S
C107 O102 1.259 . S
C107 O104 1.235 . S
O108 Co98 2.021 . S
O108 C105 1.238 . S
O109 Co103 2.052 . S
O109 C105 1.241 . S
O110 Co98 2.137 . S
O110 C101 1.247 . S
O111 Co98 2.244 . S
O111 C101 1.272 . S
O111 Co103 2.135 . S
Co112 O113 2.216 . S
Co112 O114 2.091 . S
Co112 O116 2.004 . S
Co112 O122 2.021 . S
Co112 O124 2.137 . S
Co112 O125 2.244 . S
O113 Co112 2.216 . S
O113 C120 1.247 . S
O114 Co112 2.091 . S
O114 C120 1.261 . S
C115 O124 1.247 . S
C115 O125 1.272 . S
O116 Co112 2.004 . S
O116 C121 1.259 . S
Co117 O118 2.061 . S
Co117 O123 2.052 . S
Co117 O125 2.135 . S
O118 Co117 2.061 . S
O118 C121 1.235 . S
C119 O122 1.238 . S
C119 O123 1.241 . S
C120 O113 1.247 . S
C120 O114 1.261 . S
C121 O116 1.259 . S
C121 O118 1.235 . S
O122 Co112 2.021 . S
O122 C119 1.238 . S
O123 Co117 2.052 . S
O123 C119 1.241 . S
O124 Co112 2.137 . S
O124 C115 1.247 . S
O125 Co112 2.244 . S
O125 C115 1.272 . S
O125 Co117 2.135 . S
Co126 O127 2.216 . S
Co126 O128 2.091 . S
Co126 O130 2.004 . S
Co126 O136 2.021 . S
Co126 O138 2.137 . S
Co126 O139 2.244 . S
O127 Co126 2.216 . S
O127 C134 1.247 . S
O128 Co126 2.091 . S
O128 C134 1.261 . S
C129 O138 1.247 . S
C129 O139 1.272 . S
O130 Co126 2.004 . S
O130 C135 1.259 . S
Co131 O132 2.061 . S
Co131 O137 2.052 . S
Co131 O139 2.135 . S
O132 Co131 2.061 . S
O132 C135 1.235 . S
C133 O136 1.238 . S
C133 O137 1.241 . S
C134 O127 1.247 . S
C134 O128 1.261 . S
C135 O130 1.259 . S
C135 O132 1.235 . S
O136 Co126 2.021 . S
O136 C133 1.238 . S
O137 Co131 2.052 . S
O137 C133 1.241 . S
O138 Co126 2.137 . S
O138 C129 1.247 . S
O139 Co126 2.244 . S
O139 C129 1.272 . S
O139 Co131 2.135 . S
Co140 O141 2.216 . S
Co140 O142 2.091 . S
Co140 O144 2.004 . S
Co140 O150 2.021 . S
Co140 O152 2.137 . S
Co140 O153 2.244 . S
O141 Co140 2.216 . S
O141 C148 1.247 . S
O142 Co140 2.091 . S
O142 C148 1.261 . S
C143 O152 1.247 . S
C143 O153 1.272 . S
O144 Co140 2.004 . S
O144 C149 1.259 . S
Co145 O146 2.061 . S
Co145 O151 2.052 . S
Co145 O153 2.135 . S
O146 Co145 2.061 . S
O146 C149 1.235 . S
C147 O150 1.238 . S
C147 O151 1.241 . S
C148 O141 1.247 . S
C148 O142 1.261 . S
C149 O144 1.259 . S
C149 O146 1.235 . S
O150 Co140 2.021 . S
O150 C147 1.238 . S
O151 Co145 2.052 . S
O151 C147 1.241 . S
O152 Co140 2.137 . S
O152 C143 1.247 . S
O153 Co140 2.244 . S
O153 C143 1.272 . S
O153 Co145 2.135 . S
Co154 O155 2.216 . S
Co154 O156 2.091 . S
Co154 O158 2.004 . S
Co154 O164 2.021 . S
Co154 O166 2.137 . S
Co154 O167 2.244 . S
O155 Co154 2.216 . S
O155 C162 1.247 . S
O156 Co154 2.091 . S
O156 C162 1.261 . S
C157 O166 1.247 . S
C157 O167 1.272 . S
O158 Co154 2.004 . S
O158 C163 1.259 . S
Co159 O160 2.061 . S
Co159 O165 2.052 . S
Co159 O167 2.135 . S
O160 Co159 2.061 . S
O160 C163 1.235 . S
C161 O164 1.238 . S
C161 O165 1.241 . S
C162 O155 1.247 . S
C162 O156 1.261 . S
C163 O158 1.259 . S
C163 O160 1.235 . S
O164 Co154 2.021 . S
O164 C161 1.238 . S
O165 Co159 2.052 . S
O165 C161 1.241 . S
O166 Co154 2.137 . S
O166 C157 1.247 . S
O167 Co154 2.244 . S
O167 C157 1.272 . S
O167 Co159 2.135 . S
Co168 O169 2.216 . S
Co168 O170 2.091 . S
Co168 O172 2.004 . S
Co168 O178 2.021 . S
Co168 O180 2.137 . S
Co168 O181 2.244 . S
O169 Co168 2.216 . S
O169 C176 1.247 . S
O170 Co168 2.091 . S
O170 C176 1.261 . S
C171 O180 1.247 . S
C171 O181 1.272 . S
O172 Co168 2.004 . S
O172 C177 1.259 . S
Co173 O174 2.061 . S
Co173 O179 2.052 . S
Co173 O181 2.135 . S
O174 Co173 2.061 . S
O174 C177 1.235 . S
C175 O178 1.238 . S
C175 O179 1.241 . S
C176 O169 1.247 . S
C176 O170 1.261 . S
C177 O172 1.259 . S
C177 O174 1.235 . S
O178 Co168 2.021 . S
O178 C175 1.238 . S
O179 Co173 2.052 . S
O179 C175 1.241 . S
O180 Co168 2.137 . S
O180 C171 1.247 . S
O181 Co168 2.244 . S
O181 C171 1.272 . S
O181 Co173 2.135 . S
Co182 O183 2.216 . S
Co182 O184 2.091 . S
Co182 O186 2.004 . S
Co182 O192 2.021 . S
Co182 O194 2.137 . S
Co182 O195 2.244 . S
O183 Co182 2.216 . S
O183 C190 1.247 . S
O184 Co182 2.091 . S
O184 C190 1.261 . S
C185 O194 1.247 . S
C185 O195 1.272 . S
O186 Co182 2.004 . S
O186 C191 1.259 . S
Co187 O188 2.061 . S
Co187 O193 2.052 . S
Co187 O195 2.135 . S
O188 Co187 2.061 . S
O188 C191 1.235 . S
C189 O192 1.238 . S
C189 O193 1.241 . S
C190 O183 1.247 . S
C190 O184 1.261 . S
C191 O186 1.259 . S
C191 O188 1.235 . S
O192 Co182 2.021 . S
O192 C189 1.238 . S
O193 Co187 2.052 . S
O193 C189 1.241 . S
O194 Co182 2.137 . S
O194 C185 1.247 . S
O195 Co182 2.244 . S
O195 C185 1.272 . S
O195 Co187 2.135 . S
Co196 O197 2.216 . S
Co196 O198 2.091 . S
Co196 O200 2.004 . S
Co196 O206 2.021 . S
Co196 O208 2.137 . S
Co196 O209 2.244 . S
O197 Co196 2.216 . S
O197 C204 1.247 . S
O198 Co196 2.091 . S
O198 C204 1.261 . S
C199 O208 1.247 . S
C199 O209 1.272 . S
O200 Co196 2.004 . S
O200 C205 1.259 . S
Co201 O202 2.061 . S
Co201 O207 2.052 . S
Co201 O209 2.135 . S
O202 Co201 2.061 . S
O202 C205 1.235 . S
C203 O206 1.238 . S
C203 O207 1.241 . S
C204 O197 1.247 . S
C204 O198 1.261 . S
C205 O200 1.259 . S
C205 O202 1.235 . S
O206 Co196 2.021 . S
O206 C203 1.238 . S
O207 Co201 2.052 . S
O207 C203 1.241 . S
O208 Co196 2.137 . S
O208 C199 1.247 . S
O209 Co196 2.244 . S
O209 C199 1.272 . S
O209 Co201 2.135 . S
Co210 O211 2.216 . S
Co210 O212 2.091 . S
Co210 O214 2.004 . S
Co210 O220 2.021 . S
Co210 O222 2.137 . S
Co210 O223 2.244 . S
O211 Co210 2.216 . S
O211 C218 1.247 . S
O212 Co210 2.091 . S
O212 C218 1.261 . S
C213 O222 1.247 . S
C213 O223 1.272 . S
O214 Co210 2.004 . S
O214 C219 1.259 . S
Co215 O216 2.061 . S
Co215 O221 2.052 . S
Co215 O223 2.135 . S
O216 Co215 2.061 . S
O216 C219 1.235 . S
C217 O220 1.238 . S
C217 O221 1.241 . S
C218 O211 1.247 . S
C218 O212 1.261 . S
C219 O214 1.259 . S
C219 O216 1.235 . S
O220 Co210 2.021 . S
O220 C217 1.238 . S
O221 Co215 2.052 . S
O221 C217 1.241 . S
O222 Co210 2.137 . S
O222 C213 1.247 . S
O223 Co210 2.244 . S
O223 C213 1.272 . S
O223 Co215 2.135 . S
Co224 O225 2.216 . S
Co224 O226 2.091 . S
Co224 O228 2.004 . S
Co224 O234 2.021 . S
Co224 O236 2.137 . S
Co224 O237 2.244 . S
O225 Co224 2.216 . S
O225 C232 1.247 . S
O226 Co224 2.091 . S
O226 C232 1.261 . S
C227 O236 1.247 . S
C227 O237 1.272 . S
O228 Co224 2.004 . S
O228 C233 1.259 . S
Co229 O230 2.061 . S
Co229 O235 2.052 . S
Co229 O237 2.135 . S
O230 Co229 2.061 . S
O230 C233 1.235 . S
C231 O234 1.238 . S
C231 O235 1.241 . S
C232 O225 1.247 . S
C232 O226 1.261 . S
C233 O228 1.259 . S
C233 O230 1.235 . S
O234 Co224 2.021 . S
O234 C231 1.238 . S
O235 Co229 2.052 . S
O235 C231 1.241 . S
O236 Co224 2.137 . S
O236 C227 1.247 . S
O237 Co224 2.244 . S
O237 C227 1.272 . S
O237 Co229 2.135 . S
Co238 O239 2.216 . S
Co238 O240 2.091 . S
Co238 O242 2.004 . S
Co238 O248 2.021 . S
Co238 O250 2.137 . S
Co238 O251 2.244 . S
O239 Co238 2.216 . S
O239 C246 1.247 . S
O240 Co238 2.091 . S
O240 C246 1.261 . S
C241 O250 1.247 . S
C241 O251 1.272 . S
O242 Co238 2.004 . S
O242 C247 1.259 . S
Co243 O244 2.061 . S
Co243 O249 2.052 . S
Co243 O251 2.135 . S
O244 Co243 2.061 . S
O244 C247 1.235 . S
C245 O248 1.238 . S
C245 O249 1.241 . S
C246 O239 1.247 . S
C246 O240 1.261 . S
C247 O242 1.259 . S
C247 O244 1.235 . S
O248 Co238 2.021 . S
O248 C245 1.238 . S
O249 Co243 2.052 . S
O249 C245 1.241 . S
O250 Co238 2.137 . S
O250 C241 1.247 . S
O251 Co238 2.244 . S
O251 C241 1.272 . S
O251 Co243 2.135 . S
Co252 O253 2.216 . S
Co252 O254 2.091 . S
Co252 O256 2.004 . S
Co252 O262 2.021 . S
Co252 O264 2.137 . S
Co252 O265 2.244 . S
O253 Co252 2.216 . S
O253 C260 1.247 . S
O254 Co252 2.091 . S
O254 C260 1.261 . S
C255 O264 1.247 . S
C255 O265 1.272 . S
O256 Co252 2.004 . S
O256 C261 1.259 . S
Co257 O258 2.061 . S
Co257 O263 2.052 . S
Co257 O265 2.135 . S
O258 Co257 2.061 . S
O258 C261 1.235 . S
C259 O262 1.238 . S
C259 O263 1.241 . S
C260 O253 1.247 . S
C260 O254 1.261 . S
C261 O256 1.259 . S
C261 O258 1.235 . S
O262 Co252 2.021 . S
O262 C259 1.238 . S
O263 Co257 2.052 . S
O263 C259 1.241 . S
O264 Co252 2.137 . S
O264 C255 1.247 . S
O265 Co252 2.244 . S
O265 C255 1.272 . S
O265 Co257 2.135 . S
Co266 O267 2.216 . S
Co266 O268 2.091 . S
Co266 O270 2.004 . S
Co266 O276 2.021 . S
Co266 O278 2.137 . S
Co266 O279 2.244 . S
O267 Co266 2.216 . S
O267 C274 1.247 . S
O268 Co266 2.091 . S
O268 C274 1.261 . S
C269 O278 1.247 . S
C269 O279 1.272 . S
O270 Co266 2.004 . S
O270 C275 1.259 . S
Co271 O272 2.061 . S
Co271 O277 2.052 . S
Co271 O279 2.135 . S
O272 Co271 2.061 . S
O272 C275 1.235 . S
C273 O276 1.238 . S
C273 O277 1.241 . S
C274 O267 1.247 . S
C274 O268 1.261 . S
C275 O270 1.259 . S
C275 O272 1.235 . S
O276 Co266 2.021 . S
O276 C273 1.238 . S
O277 Co271 2.052 . S
O277 C273 1.241 . S
O278 Co266 2.137 . S
O278 C269 1.247 . S
O279 Co266 2.244 . S
O279 C269 1.272 . S
O279 Co271 2.135 . S
Co280 O281 2.216 . S
Co280 O282 2.091 . S
Co280 O284 2.004 . S
Co280 O290 2.021 . S
Co280 O292 2.137 . S
Co280 O293 2.244 . S
O281 Co280 2.216 . S
O281 C288 1.247 . S
O282 Co280 2.091 . S
O282 C288 1.261 . S
C283 O292 1.247 . S
C283 O293 1.272 . S
O284 Co280 2.004 . S
O284 C289 1.259 . S
Co285 O286 2.061 . S
Co285 O291 2.052 . S
Co285 O293 2.135 . S
O286 Co285 2.061 . S
O286 C289 1.235 . S
C287 O290 1.238 . S
C287 O291 1.241 . S
C288 O281 1.247 . S
C288 O282 1.261 . S
C289 O284 1.259 . S
C289 O286 1.235 . S
O290 Co280 2.021 . S
O290 C287 1.238 . S
O291 Co285 2.052 . S
O291 C287 1.241 . S
O292 Co280 2.137 . S
O292 C283 1.247 . S
O293 Co280 2.244 . S
O293 C283 1.272 . S
O293 Co285 2.135 . S
Co294 O295 2.216 . S
Co294 O296 2.091 . S
Co294 O298 2.004 . S
Co294 O304 2.021 . S
Co294 O306 2.137 . S
Co294 O307 2.244 . S
O295 Co294 2.216 . S
O295 C302 1.247 . S
O296 Co294 2.091 . S
O296 C302 1.261 . S
C297 O306 1.247 . S
C297 O307 1.272 . S
O298 Co294 2.004 . S
O298 C303 1.259 . S
Co299 O300 2.061 . S
Co299 O305 2.052 . S
Co299 O307 2.135 . S
O300 Co299 2.061 . S
O300 C303 1.235 . S
C301 O304 1.238 . S
C301 O305 1.241 . S
C302 O295 1.247 . S
C302 O296 1.261 . S
C303 O298 1.259 . S
C303 O300 1.235 . S
O304 Co294 2.021 . S
O304 C301 1.238 . S
O305 Co299 2.052 . S
O305 C301 1.241 . S
O306 Co294 2.137 . S
O306 C297 1.247 . S
O307 Co294 2.244 . S
O307 C297 1.272 . S
O307 Co299 2.135 . S
Co308 O309 2.216 . S
Co308 O310 2.091 . S
Co308 O312 2.004 . S
Co308 O318 2.021 . S
Co308 O320 2.137 . S
Co308 O321 2.244 . S
O309 Co308 2.216 . S
O309 C316 1.247 . S
O310 Co308 2.091 . S
O310 C316 1.261 . S
C311 O320 1.247 . S
C311 O321 1.272 . S
O312 Co308 2.004 . S
O312 C317 1.259 . S
Co313 O314 2.061 . S
Co313 O319 2.052 . S
Co313 O321 2.135 . S
O314 Co313 2.061 . S
O314 C317 1.235 . S
C315 O318 1.238 . S
C315 O319 1.241 . S
C316 O309 1.247 . S
C316 O310 1.261 . S
C317 O312 1.259 . S
C317 O314 1.235 . S
O318 Co308 2.021 . S
O318 C315 1.238 . S
O319 Co313 2.052 . S
O319 C315 1.241 . S
O320 Co308 2.137 . S
O320 C311 1.247 . S
O321 Co308 2.244 . S
O321 C311 1.272 . S
O321 Co313 2.135 . S
Co322 O323 2.216 . S
Co322 O324 2.091 . S
Co322 O326 2.004 . S
Co322 O332 2.021 . S
Co322 O334 2.137 . S
Co322 O335 2.244 . S
O323 Co322 2.216 . S
O323 C330 1.247 . S
O324 Co322 2.091 . S
O324 C330 1.261 . S
C325 O334 1.247 . S
C325 O335 1.272 . S
O326 Co322 2.004 . S
O326 C331 1.259 . S
Co327 O328 2.061 . S
Co327 O333 2.052 . S
Co327 O335 2.135 . S
O328 Co327 2.061 . S
O328 C331 1.235 . S
C329 O332 1.238 . S
C329 O333 1.241 . S
C330 O323 1.247 . S
C330 O324 1.261 . S
C331 O326 1.259 . S
C331 O328 1.235 . S
O332 Co322 2.021 . S
O332 C329 1.238 . S
O333 Co327 2.052 . S
O333 C329 1.241 . S
O334 Co322 2.137 . S
O334 C325 1.247 . S
O335 Co322 2.244 . S
O335 C325 1.272 . S
O335 Co327 2.135 . S
H336 C342 0.930 . S
H337 C346 0.930 . S
H338 C351 0.929 . S
H339 C349 0.929 . S
H340 C344 0.929 . S
H341 C350 0.929 . S
C342 H336 0.930 . S
C342 C343 1.367 . S
C342 C350 1.378 . S
C343 C342 1.367 . S
C343 C351 1.433 . S
C344 H340 0.929 . S
C344 C346 1.378 . S
C344 C348 1.350 . S
C345 C348 1.463 . S
C345 C350 1.350 . S
C345 N353 1.427 . S
C346 H337 0.930 . S
C346 C344 1.378 . S
C346 C347 1.367 . S
C347 C346 1.367 . S
C347 C349 1.433 . S
C348 C344 1.350 . S
C348 C345 1.463 . S
C348 N352 1.427 . S
C349 H339 0.929 . S
C349 C347 1.433 . S
C349 N352 1.384 . S
C350 H341 0.929 . S
C350 C342 1.378 . S
C350 C345 1.350 . S
C351 H338 0.929 . S
C351 C343 1.433 . S
C351 N353 1.384 . S
N352 C348 1.427 . S
N352 C349 1.384 . S
N353 C345 1.427 . S
N353 C351 1.384 . S
H354 C360 0.930 . S
H355 C364 0.930 . S
H356 C369 0.929 . S
H357 C367 0.929 . S
H358 C362 0.929 . S
H359 C368 0.929 . S
C360 H354 0.930 . S
C360 C361 1.367 . S
C360 C368 1.378 . S
C361 C360 1.367 . S
C361 C369 1.433 1_655 S
C362 H358 0.929 . S
C362 C364 1.378 . S
C362 C366 1.350 . S
C363 C366 1.463 . S
C363 C368 1.350 1_455 S
C363 N371 1.427 . S
C364 H355 0.930 . S
C364 C362 1.378 . S
C364 C365 1.367 . S
C365 C364 1.367 . S
C365 C367 1.433 . S
C366 C362 1.350 . S
C366 C363 1.463 . S
C366 N370 1.427 . S
C367 H357 0.929 . S
C367 C365 1.433 . S
C367 N370 1.384 . S
C368 H359 0.929 . S
C368 C360 1.378 . S
C368 C363 1.350 1_655 S
C369 H356 0.929 . S
C369 C361 1.433 1_455 S
C369 N371 1.384 . S
N370 C366 1.427 . S
N370 C367 1.384 . S
N371 C363 1.427 . S
N371 C369 1.384 . S
H372 C378 0.930 . S
H373 C382 0.930 . S
H374 C387 0.929 . S
H375 C385 0.929 . S
H376 C380 0.929 . S
H377 C386 0.929 . S
C378 H372 0.930 . S
C378 C379 1.367 . S
C378 C386 1.378 . S
C379 C378 1.367 . S
C379 C387 1.433 . S
C380 H376 0.929 . S
C380 C382 1.378 . S
C380 C384 1.350 1_554 S
C381 C384 1.463 . S
C381 C386 1.350 . S
C381 N389 1.427 . S
C382 H373 0.930 . S
C382 C380 1.378 . S
C382 C383 1.367 . S
C383 C382 1.367 . S
C383 C385 1.433 1_554 S
C384 C380 1.350 1_556 S
C384 C381 1.463 . S
C384 N388 1.427 . S
C385 H375 0.929 . S
C385 C383 1.433 1_556 S
C385 N388 1.384 . S
C386 H377 0.929 . S
C386 C378 1.378 . S
C386 C381 1.350 . S
C387 H374 0.929 . S
C387 C379 1.433 . S
C387 N389 1.384 . S
N388 C384 1.427 . S
N388 C385 1.384 . S
N389 C381 1.427 . S
N389 C387 1.384 . S
H390 C396 0.930 . S
H391 C400 0.930 . S
H392 C405 0.929 . S
H393 C403 0.929 . S
H394 C398 0.929 . S
H395 C404 0.929 . S
C396 H390 0.930 . S
C396 C397 1.367 . S
C396 C404 1.378 . S
C397 C396 1.367 . S
C397 C405 1.433 . S
C398 H394 0.929 . S
C398 C400 1.378 . S
C398 C402 1.350 . S
C399 C402 1.463 . S
C399 C404 1.350 . S
C399 N407 1.427 . S
C400 H391 0.930 . S
C400 C398 1.378 . S
C400 C401 1.367 . S
C401 C400 1.367 . S
C401 C403 1.433 . S
C402 C398 1.350 . S
C402 C399 1.463 . S
C402 N406 1.427 . S
C403 H393 0.929 . S
C403 C401 1.433 . S
C403 N406 1.384 . S
C404 H395 0.929 . S
C404 C396 1.378 . S
C404 C399 1.350 . S
C405 H392 0.929 . S
C405 C397 1.433 . S
C405 N407 1.384 . S
N406 C402 1.427 . S
N406 C403 1.384 . S
N407 C399 1.427 . S
N407 C405 1.384 . S
H408 C414 0.930 . S
H409 C418 0.930 . S
H410 C423 0.929 . S
H411 C421 0.929 . S
H412 C416 0.929 . S
H413 C422 0.929 . S
C414 H408 0.930 . S
C414 C415 1.367 . S
C414 C422 1.378 . S
C415 C414 1.367 . S
C415 C423 1.433 . S
C416 H412 0.929 . S
C416 C418 1.378 . S
C416 C420 1.350 . S
C417 C420 1.463 . S
C417 C422 1.350 . S
C417 N425 1.427 . S
C418 H409 0.930 . S
C418 C416 1.378 . S
C418 C419 1.367 . S
C419 C418 1.367 . S
C419 C421 1.433 . S
C420 C416 1.350 . S
C420 C417 1.463 . S
C420 N424 1.427 . S
C421 H411 0.929 . S
C421 C419 1.433 . S
C421 N424 1.384 . S
C422 H413 0.929 . S
C422 C414 1.378 . S
C422 C417 1.350 . S
C423 H410 0.929 . S
C423 C415 1.433 . S
C423 N425 1.384 . S
N424 C420 1.427 . S
N424 C421 1.384 . S
N425 C417 1.427 . S
N425 C423 1.384 . S
H426 C432 0.930 . S
H427 C436 0.930 . S
H428 C441 0.929 . S
H429 C439 0.929 . S
H430 C434 0.929 . S
H431 C440 0.929 . S
C432 H426 0.930 . S
C432 C433 1.367 . S
C432 C440 1.378 . S
C433 C432 1.367 . S
C433 C441 1.433 . S
C434 H430 0.929 . S
C434 C436 1.378 . S
C434 C438 1.350 . S
C435 C438 1.463 . S
C435 C440 1.350 . S
C435 N443 1.427 . S
C436 H427 0.930 . S
C436 C434 1.378 . S
C436 C437 1.367 1_655 S
C437 C436 1.367 1_455 S
C437 C439 1.433 . S
C438 C434 1.350 . S
C438 C435 1.463 . S
C438 N442 1.427 1_655 S
C439 H429 0.929 . S
C439 C437 1.433 . S
C439 N442 1.384 . S
C440 H431 0.929 . S
C440 C432 1.378 . S
C440 C435 1.350 . S
C441 H428 0.929 . S
C441 C433 1.433 . S
C441 N443 1.384 . S
N442 C438 1.427 1_455 S
N442 C439 1.384 . S
N443 C435 1.427 . S
N443 C441 1.384 . S
H444 C450 0.930 . S
H445 C454 0.930 . S
H446 C459 0.929 . S
H447 C457 0.929 . S
H448 C452 0.929 . S
H449 C458 0.929 . S
C450 H444 0.930 . S
C450 C451 1.367 . S
C450 C458 1.378 . S
C451 C450 1.367 . S
C451 C459 1.433 . S
C452 H448 0.929 . S
C452 C454 1.378 . S
C452 C456 1.350 . S
C453 C456 1.463 . S
C453 C458 1.350 . S
C453 N461 1.427 . S
C454 H445 0.930 . S
C454 C452 1.378 . S
C454 C455 1.367 1_554 S
C455 C454 1.367 1_556 S
C455 C457 1.433 . S
C456 C452 1.350 . S
C456 C453 1.463 . S
C456 N460 1.427 1_554 S
C457 H447 0.929 . S
C457 C455 1.433 . S
C457 N460 1.384 . S
C458 H449 0.929 . S
C458 C450 1.378 . S
C458 C453 1.350 . S
C459 H446 0.929 . S
C459 C451 1.433 . S
C459 N461 1.384 . S
N460 C456 1.427 1_556 S
N460 C457 1.384 . S
N461 C453 1.427 . S
N461 C459 1.384 . S
H462 C468 0.930 . S
H463 C472 0.930 . S
H464 C477 0.929 . S
H465 C475 0.929 . S
H466 C470 0.929 . S
H467 C476 0.929 . S
C468 H462 0.930 . S
C468 C469 1.367 . S
C468 C476 1.378 . S
C469 C468 1.367 . S
C469 C477 1.433 . S
C470 H466 0.929 . S
C470 C472 1.378 . S
C470 C474 1.350 . S
C471 C474 1.463 . S
C471 C476 1.350 . S
C471 N479 1.427 . S
C472 H463 0.930 . S
C472 C470 1.378 . S
C472 C473 1.367 . S
C473 C472 1.367 . S
C473 C475 1.433 . S
C474 C470 1.350 . S
C474 C471 1.463 . S
C474 N478 1.427 . S
C475 H465 0.929 . S
C475 C473 1.433 . S
C475 N478 1.384 . S
C476 H467 0.929 . S
C476 C468 1.378 . S
C476 C471 1.350 . S
C477 H464 0.929 . S
C477 C469 1.433 . S
C477 N479 1.384 . S
N478 C474 1.427 . S
N478 C475 1.384 . S
N479 C471 1.427 . S
N479 C477 1.384 . S
H480 C486 0.930 . S
H481 C490 0.930 . S
H482 C495 0.929 . S
H483 C493 0.929 . S
H484 C488 0.929 . S
H485 C494 0.929 . S
C486 H480 0.930 . S
C486 C487 1.367 . S
C486 C494 1.378 . S
C487 C486 1.367 . S
C487 C495 1.433 . S
C488 H484 0.929 . S
C488 C490 1.378 . S
C488 C492 1.350 . S
C489 C492 1.463 . S
C489 C494 1.350 . S
C489 N497 1.427 . S
C490 H481 0.930 . S
C490 C488 1.378 . S
C490 C491 1.367 . S
C491 C490 1.367 . S
C491 C493 1.433 . S
C492 C488 1.350 . S
C492 C489 1.463 . S
C492 N496 1.427 . S
C493 H483 0.929 . S
C493 C491 1.433 . S
C493 N496 1.384 . S
C494 H485 0.929 . S
C494 C486 1.378 . S
C494 C489 1.350 . S
C495 H482 0.929 . S
C495 C487 1.433 . S
C495 N497 1.384 . S
N496 C492 1.427 . S
N496 C493 1.384 . S
N497 C489 1.427 . S
N497 C495 1.384 . S
H498 C504 0.930 . S
H499 C508 0.930 . S
H500 C513 0.929 . S
H501 C511 0.929 . S
H502 C506 0.929 . S
H503 C512 0.929 . S
C504 H498 0.930 . S
C504 C505 1.367 . S
C504 C512 1.378 1_565 S
C505 C504 1.367 . S
C505 C513 1.433 . S
C506 H502 0.929 . S
C506 C508 1.378 . S
C506 C510 1.350 . S
C507 C510 1.463 . S
C507 C512 1.350 . S
C507 N515 1.427 . S
C508 H499 0.930 . S
C508 C506 1.378 . S
C508 C509 1.367 . S
C509 C508 1.367 . S
C509 C511 1.433 . S
C510 C506 1.350 . S
C510 C507 1.463 . S
C510 N514 1.427 . S
C511 H501 0.929 . S
C511 C509 1.433 . S
C511 N514 1.384 . S
C512 H503 0.929 . S
C512 C504 1.378 1_545 S
C512 C507 1.350 . S
C513 H500 0.929 . S
C513 C505 1.433 . S
C513 N515 1.384 1_565 S
N514 C510 1.427 . S
N514 C511 1.384 . S
N515 C507 1.427 . S
N515 C513 1.384 1_545 S
H516 C522 0.930 . S
H517 C526 0.930 . S
H518 C531 0.929 . S
H519 C529 0.928 1_545 S
H520 C524 0.929 . S
H521 C530 0.929 . S
C522 H516 0.930 . S
C522 C523 1.367 . S
C522 C530 1.378 . S
C523 C522 1.367 . S
C523 C531 1.433 . S
C524 H520 0.929 . S
C524 C526 1.378 1_565 S
C524 C528 1.350 . S
C525 C528 1.463 . S
C525 C530 1.350 . S
C525 N533 1.427 . S
C526 H517 0.930 . S
C526 C524 1.378 1_545 S
C526 C527 1.367 . S
C527 C526 1.367 . S
C527 C529 1.426 1_545 S
C528 C524 1.350 . S
C528 C525 1.463 . S
C528 N532 1.427 . S
C529 H519 0.928 1_565 S
C529 C527 1.426 1_565 S
C529 N532 1.391 . S
C530 H521 0.929 . S
C530 C522 1.378 . S
C530 C525 1.350 . S
C531 H518 0.929 . S
C531 C523 1.433 . S
C531 N533 1.384 . S
N532 C528 1.427 . S
N532 C529 1.391 . S
N533 C525 1.427 . S
N533 C531 1.384 . S
H534 C540 0.930 . S
H535 C544 0.930 . S
H536 C549 0.929 . S
H537 C547 0.929 . S
H538 C542 0.929 . S
H539 C548 0.929 . S
C540 H534 0.930 . S
C540 C541 1.367 . S
C540 C548 1.378 . S
C541 C540 1.367 . S
C541 C549 1.433 . S
C542 H538 0.929 . S
C542 C544 1.378 . S
C542 C546 1.350 . S
C543 C546 1.463 . S
C543 C548 1.350 . S
C543 N551 1.427 . S
C544 H535 0.930 . S
C544 C542 1.378 . S
C544 C545 1.367 . S
C545 C544 1.367 . S
C545 C547 1.433 . S
C546 C542 1.350 . S
C546 C543 1.463 . S
C546 N550 1.427 . S
C547 H537 0.929 . S
C547 C545 1.433 . S
C547 N550 1.384 . S
C548 H539 0.929 . S
C548 C540 1.378 . S
C548 C543 1.350 . S
C549 H536 0.929 . S
C549 C541 1.433 . S
C549 N551 1.384 . S
N550 C546 1.427 . S
N550 C547 1.384 . S
N551 C543 1.427 . S
N551 C549 1.384 . S
H552 C558 0.930 . S
H553 C562 0.930 . S
H554 C567 0.929 . S
H555 C565 0.929 . S
H556 C560 0.929 . S
H557 C566 0.929 . S
C558 H552 0.930 . S
C558 C559 1.367 . S
C558 C566 1.378 . S
C559 C558 1.367 . S
C559 C567 1.433 . S
C560 H556 0.929 . S
C560 C562 1.378 . S
C560 C564 1.350 . S
C561 C564 1.463 . S
C561 C566 1.350 . S
C561 N569 1.427 . S
C562 H553 0.930 . S
C562 C560 1.378 . S
C562 C563 1.367 . S
C563 C562 1.367 . S
C563 C565 1.433 . S
C564 C560 1.350 . S
C564 C561 1.463 . S
C564 N568 1.427 . S
C565 H555 0.929 . S
C565 C563 1.433 . S
C565 N568 1.384 . S
C566 H557 0.929 . S
C566 C558 1.378 . S
C566 C561 1.350 . S
C567 H554 0.929 . S
C567 C559 1.433 . S
C567 N569 1.384 . S
N568 C564 1.427 . S
N568 C565 1.384 . S
N569 C561 1.427 . S
N569 C567 1.384 . S
H570 C576 0.930 . S
H571 C580 0.930 . S
H572 C585 0.929 . S
H573 C583 0.929 . S
H574 C578 0.929 . S
H575 C584 0.929 . S
C576 H570 0.930 . S
C576 C577 1.367 . S
C576 C584 1.378 . S
C577 C576 1.367 . S
C577 C585 1.433 . S
C578 H574 0.929 . S
C578 C580 1.378 . S
C578 C582 1.350 . S
C579 C582 1.463 . S
C579 C584 1.350 1_545 S
C579 N587 1.427 . S
C580 H571 0.930 . S
C580 C578 1.378 . S
C580 C581 1.367 . S
C581 C580 1.367 . S
C581 C583 1.433 . S
C582 C578 1.350 . S
C582 C579 1.463 . S
C582 N586 1.427 . S
C583 H573 0.929 . S
C583 C581 1.433 . S
C583 N586 1.384 . S
C584 H575 0.929 . S
C584 C576 1.378 . S
C584 C579 1.350 1_565 S
C585 H572 0.929 . S
C585 C577 1.433 . S
C585 N587 1.384 1_565 S
N586 C582 1.427 . S
N586 C583 1.384 . S
N587 C579 1.427 . S
N587 C585 1.384 1_545 S
H588 C594 0.930 . S
H589 C598 0.930 . S
H590 C603 0.929 . S
H591 C601 0.929 . S
H592 C596 0.929 . S
H593 C602 0.929 . S
C594 H588 0.930 . S
C594 C595 1.367 . S
C594 C602 1.378 . S
C595 C594 1.367 . S
C595 C603 1.433 . S
C596 H592 0.929 . S
C596 C598 1.378 . S
C596 C600 1.350 1_554 S
C597 C600 1.463 . S
C597 C602 1.350 . S
C597 N605 1.427 . S
C598 H589 0.930 . S
C598 C596 1.378 . S
C598 C599 1.367 . S
C599 C598 1.367 . S
C599 C601 1.433 . S
C600 C596 1.350 1_556 S
C600 C597 1.463 . S
C600 N604 1.427 . S
C601 H591 0.929 . S
C601 C599 1.433 . S
C601 N604 1.384 1_554 S
C602 H593 0.929 . S
C602 C594 1.378 . S
C602 C597 1.350 . S
C603 H590 0.929 . S
C603 C595 1.433 . S
C603 N605 1.384 . S
N604 C600 1.427 . S
N604 C601 1.384 1_556 S
N605 C597 1.427 . S
N605 C603 1.384 . S
H606 C612 0.930 . S
H607 C616 0.930 . S
H608 C621 0.929 . S
H609 C619 0.929 . S
H610 C614 0.929 . S
H611 C620 0.929 . S
C612 H606 0.930 . S
C612 C613 1.367 . S
C612 C620 1.378 . S
C613 C612 1.367 . S
C613 C621 1.433 . S
C614 H610 0.929 . S
C614 C616 1.378 . S
C614 C618 1.350 . S
C615 C618 1.463 . S
C615 C620 1.350 1_565 S
C615 N623 1.427 . S
C616 H607 0.930 . S
C616 C614 1.378 . S
C616 C617 1.367 . S
C617 C616 1.367 . S
C617 C619 1.433 . S
C618 C614 1.350 . S
C618 C615 1.463 . S
C618 N622 1.427 . S
C619 H609 0.929 . S
C619 C617 1.433 . S
C619 N622 1.384 . S
C620 H611 0.929 . S
C620 C612 1.378 . S
C620 C615 1.350 1_545 S
C621 H608 0.929 . S
C621 C613 1.433 . S
C621 N623 1.384 1_545 S
N622 C618 1.427 . S
N622 C619 1.384 . S
N623 C615 1.427 . S
N623 C621 1.384 1_565 S
H624 C630 0.930 . S
H625 C634 0.930 . S
H626 C639 0.929 . S
H627 C637 0.929 . S
H628 C632 0.929 . S
H629 C638 0.929 . S
C630 H624 0.930 . S
C630 C631 1.367 . S
C630 C638 1.378 . S
C631 C630 1.367 . S
C631 C639 1.433 . S
C632 H628 0.929 . S
C632 C634 1.378 . S
C632 C636 1.350 . S
C633 C636 1.463 . S
C633 C638 1.350 . S
C633 N641 1.427 . S
C634 H625 0.930 . S
C634 C632 1.378 . S
C634 C635 1.367 . S
C635 C634 1.367 . S
C635 C637 1.433 . S
C636 C632 1.350 . S
C636 C633 1.463 . S
C636 N640 1.427 . S
C637 H627 0.929 . S
C637 C635 1.433 . S
C637 N640 1.384 . S
C638 H629 0.929 . S
C638 C630 1.378 . S
C638 C633 1.350 . S
C639 H626 0.929 . S
C639 C631 1.433 . S
C639 N641 1.384 . S
N640 C636 1.427 . S
N640 C637 1.384 . S
N641 C633 1.427 . S
N641 C639 1.384 . S
H642 C648 0.930 . S
H643 C652 0.930 . S
H644 C657 0.929 . S
H645 C655 0.929 . S
H646 C650 0.929 . S
H647 C656 0.929 . S
C648 H642 0.930 . S
C648 C649 1.367 . S
C648 C656 1.378 . S
C649 C648 1.367 . S
C649 C657 1.433 . S
C650 H646 0.929 . S
C650 C652 1.378 . S
C650 C654 1.350 . S
C651 C654 1.463 . S
C651 C656 1.350 . S
C651 N659 1.427 . S
C652 H643 0.930 . S
C652 C650 1.378 . S
C652 C653 1.367 . S
C653 C652 1.367 . S
C653 C655 1.433 . S
C654 C650 1.350 . S
C654 C651 1.463 . S
C654 N658 1.427 . S
C655 H645 0.929 . S
C655 C653 1.433 . S
C655 N658 1.384 . S
C656 H647 0.929 . S
C656 C648 1.378 . S
C656 C651 1.350 . S
C657 H644 0.929 . S
C657 C649 1.433 . S
C657 N659 1.384 . S
N658 C654 1.427 . S
N658 C655 1.384 . S
N659 C651 1.427 . S
N659 C657 1.384 . S
H660 C666 0.926 1_554 S
H661 C670 0.930 . S
H662 C675 0.929 . S
H663 C673 0.929 . S
H664 C668 0.929 1_556 S
H665 C674 0.929 . S
C666 H660 0.926 1_556 S
C666 C667 1.367 . S
C666 C674 1.378 1_556 S
C667 C666 1.367 . S
C667 C675 1.433 . S
C668 H664 0.929 1_554 S
C668 C670 1.378 . S
C668 C672 1.350 . S
C669 C672 1.463 . S
C669 C674 1.350 . S
C669 N677 1.427 1_554 S
C670 H661 0.930 . S
C670 C668 1.378 . S
C670 C671 1.367 . S
C671 C670 1.367 . S
C671 C673 1.433 . S
C672 C668 1.350 . S
C672 C669 1.463 . S
C672 N676 1.427 . S
C673 H663 0.929 . S
C673 C671 1.433 . S
C673 N676 1.384 . S
C674 H665 0.929 . S
C674 C666 1.378 1_554 S
C674 C669 1.350 . S
C675 H662 0.929 . S
C675 C667 1.433 . S
C675 N677 1.384 . S
N676 C672 1.427 . S
N676 C673 1.384 . S
N677 C669 1.427 1_556 S
N677 C675 1.384 . S
H678 C684 0.930 . S
H679 C688 0.930 . S
H680 C693 0.929 . S
H681 C691 0.929 . S
H682 C686 0.929 . S
H683 C692 0.929 . S
C684 H678 0.930 . S
C684 C685 1.367 . S
C684 C692 1.378 . S
C685 C684 1.367 . S
C685 C693 1.433 . S
C686 H682 0.929 . S
C686 C688 1.378 . S
C686 C690 1.350 . S
C687 C690 1.463 . S
C687 C692 1.350 . S
C687 N695 1.427 . S
C688 H679 0.930 . S
C688 C686 1.378 . S
C688 C689 1.367 . S
C689 C688 1.367 . S
C689 C691 1.433 . S
C690 C686 1.350 . S
C690 C687 1.463 . S
C690 N694 1.427 . S
C691 H681 0.929 . S
C691 C689 1.433 . S
C691 N694 1.384 . S
C692 H683 0.929 . S
C692 C684 1.378 . S
C692 C687 1.350 . S
C693 H680 0.929 . S
C693 C685 1.433 . S
C693 N695 1.384 . S
N694 C690 1.427 . S
N694 C691 1.384 . S
N695 C687 1.427 . S
N695 C693 1.384 . S
H696 C702 0.930 . S
H697 C706 0.930 . S
H698 C711 0.929 . S
H699 C709 0.929 . S
H700 C704 0.929 . S
H701 C710 0.929 . S
C702 H696 0.930 . S
C702 C703 1.367 . S
C702 C710 1.378 . S
C703 C702 1.367 . S
C703 C711 1.433 . S
C704 H700 0.929 . S
C704 C706 1.378 . S
C704 C708 1.350 . S
C705 C708 1.463 . S
C705 C710 1.350 . S
C705 N713 1.427 . S
C706 H697 0.930 . S
C706 C704 1.378 . S
C706 C707 1.367 . S
C707 C706 1.367 . S
C707 C709 1.433 . S
C708 C704 1.350 . S
C708 C705 1.463 . S
C708 N712 1.427 . S
C709 H699 0.929 . S
C709 C707 1.433 . S
C709 N712 1.384 . S
C710 H701 0.929 . S
C710 C702 1.378 . S
C710 C705 1.350 . S
C711 H698 0.929 . S
C711 C703 1.433 . S
C711 N713 1.384 . S
N712 C708 1.427 . S
N712 C709 1.384 . S
N713 C705 1.427 . S
N713 C711 1.384 . S
H714 C720 0.930 . S
H715 C724 0.930 . S
H716 C729 0.929 . S
H717 C727 0.929 . S
H718 C722 0.929 . S
H719 C728 0.929 . S
C720 H714 0.930 . S
C720 C721 1.367 . S
C720 C728 1.378 . S
C721 C720 1.367 . S
C721 C729 1.433 . S
C722 H718 0.929 . S
C722 C724 1.378 . S
C722 C726 1.350 . S
C723 C726 1.463 . S
C723 C728 1.350 1_655 S
C723 N731 1.429 . S
C724 H715 0.930 . S
C724 C722 1.378 . S
C724 C725 1.367 . S
C725 C724 1.367 . S
C725 C727 1.433 . S
C726 C722 1.350 . S
C726 C723 1.463 . S
C726 N730 1.427 . S
C727 H717 0.929 . S
C727 C725 1.433 . S
C727 N730 1.384 . S
C728 H719 0.929 . S
C728 C720 1.378 . S
C728 C723 1.350 1_455 S
C729 H716 0.929 . S
C729 C721 1.433 . S
C729 N731 1.372 1_455 S
N730 C726 1.427 . S
N730 C727 1.384 . S
N731 C723 1.429 . S
N731 C729 1.372 1_655 S
H732 C738 0.930 . S
H733 C742 0.930 . S
H734 C747 0.929 . S
H735 C745 0.929 . S
H736 C740 0.929 . S
H737 C746 0.929 . S
C738 H732 0.930 . S
C738 C739 1.367 . S
C738 C746 1.378 1_655 S
C739 C738 1.367 . S
C739 C747 1.433 . S
C740 H736 0.929 . S
C740 C742 1.378 . S
C740 C744 1.350 . S
C741 C744 1.463 . S
C741 C746 1.350 . S
C741 N749 1.427 1_455 S
C742 H733 0.930 . S
C742 C740 1.378 . S
C742 C743 1.367 . S
C743 C742 1.367 . S
C743 C745 1.433 . S
C744 C740 1.350 . S
C744 C741 1.463 . S
C744 N748 1.427 . S
C745 H735 0.929 . S
C745 C743 1.433 . S
C745 N748 1.384 . S
C746 H737 0.929 . S
C746 C738 1.378 1_455 S
C746 C741 1.350 . S
C747 H734 0.929 . S
C747 C739 1.433 . S
C747 N749 1.384 . S
N748 C744 1.427 . S
N748 C745 1.384 . S
N749 C741 1.427 1_655 S
N749 C747 1.384 . S
H750 C756 0.930 . S
H751 C760 0.930 . S
H752 C765 0.929 . S
H753 C763 0.929 . S
H754 C758 0.929 . S
H755 C764 0.929 . S
C756 H750 0.930 . S
C756 C757 1.367 . S
C756 C764 1.378 . S
C757 C756 1.367 . S
C757 C765 1.433 . S
C758 H754 0.929 . S
C758 C760 1.378 . S
C758 C762 1.350 . S
C759 C762 1.463 . S
C759 C764 1.350 . S
C759 N767 1.427 . S
C760 H751 0.930 . S
C760 C758 1.378 . S
C760 C761 1.367 . S
C761 C760 1.367 . S
C761 C763 1.433 . S
C762 C758 1.350 . S
C762 C759 1.463 . S
C762 N766 1.427 . S
C763 H753 0.929 . S
C763 C761 1.433 . S
C763 N766 1.384 . S
C764 H755 0.929 . S
C764 C756 1.378 . S
C764 C759 1.350 . S
C765 H752 0.929 . S
C765 C757 1.433 . S
C765 N767 1.384 . S
N766 C762 1.427 . S
N766 C763 1.384 . S
N767 C759 1.427 . S
N767 C765 1.384 . S
H768 C774 0.930 . S
H769 C778 0.930 . S
H770 C783 0.929 . S
H771 C781 0.929 . S
H772 C776 0.929 . S
H773 C782 0.929 . S
C774 H768 0.930 . S
C774 C775 1.367 . S
C774 C782 1.378 . S
C775 C774 1.367 . S
C775 C783 1.433 . S
C776 H772 0.929 . S
C776 C778 1.378 . S
C776 C780 1.350 . S
C777 C780 1.463 . S
C777 C782 1.350 . S
C777 N785 1.427 . S
C778 H769 0.930 . S
C778 C776 1.378 . S
C778 C779 1.367 . S
C779 C778 1.367 . S
C779 C781 1.433 . S
C780 C776 1.350 . S
C780 C777 1.463 . S
C780 N784 1.427 . S
C781 H771 0.929 . S
C781 C779 1.433 . S
C781 N784 1.384 . S
C782 H773 0.929 . S
C782 C774 1.378 . S
C782 C777 1.350 . S
C783 H770 0.929 . S
C783 C775 1.433 . S
C783 N785 1.384 . S
N784 C780 1.427 . S
N784 C781 1.384 . S
N785 C777 1.427 . S
N785 C783 1.384 . S
H786 C792 0.930 1_545 S
H787 C796 0.930 . S
H788 C801 0.929 . S
H789 C799 0.929 . S
H790 C794 0.929 . S
H791 C800 0.929 . S
C792 H786 0.930 1_565 S
C792 C793 1.367 1_565 S
C792 C800 1.378 . S
C793 C792 1.367 1_545 S
C793 C801 1.433 . S
C794 H790 0.929 . S
C794 C796 1.378 . S
C794 C798 1.350 . S
C795 C798 1.463 . S
C795 C800 1.350 . S
C795 N803 1.427 . S
C796 H787 0.930 . S
C796 C794 1.378 . S
C796 C797 1.367 . S
C797 C796 1.367 . S
C797 C799 1.433 . S
C798 C794 1.350 . S
C798 C795 1.463 . S
C798 N802 1.427 . S
C799 H789 0.929 . S
C799 C797 1.433 . S
C799 N802 1.384 . S
C800 H791 0.929 . S
C800 C792 1.378 . S
C800 C795 1.350 . S
C801 H788 0.929 . S
C801 C793 1.433 . S
C801 N803 1.384 1_545 S
N802 C798 1.427 . S
N802 C799 1.384 . S
N803 C795 1.427 . S
N803 C801 1.384 1_565 S
H804 C810 0.930 . S
H805 C814 0.930 . S
H806 C819 0.929 . S
H807 C817 0.929 . S
H808 C812 0.929 . S
H809 C818 0.929 . S
C810 H804 0.930 . S
C810 C811 1.367 . S
C810 C818 1.378 . S
C811 C810 1.367 . S
C811 C819 1.433 . S
C812 H808 0.929 . S
C812 C814 1.378 . S
C812 C816 1.350 . S
C813 C816 1.463 . S
C813 C818 1.350 . S
C813 N821 1.427 . S
C814 H805 0.930 . S
C814 C812 1.378 . S
C814 C815 1.367 . S
C815 C814 1.367 . S
C815 C817 1.433 . S
C816 C812 1.350 . S
C816 C813 1.463 . S
C816 N820 1.427 . S
C817 H807 0.929 . S
C817 C815 1.433 . S
C817 N820 1.384 . S
C818 H809 0.929 . S
C818 C810 1.378 . S
C818 C813 1.350 . S
C819 H806 0.929 . S
C819 C811 1.433 . S
C819 N821 1.384 . S
N820 C816 1.427 . S
N820 C817 1.384 . S
N821 C813 1.427 . S
N821 C819 1.384 . S
H822 C828 0.930 . S
H823 C832 0.930 . S
H824 C837 0.929 . S
H825 C835 0.929 . S
H826 C830 0.929 . S
H827 C836 0.929 . S
C828 H822 0.930 . S
C828 C829 1.367 . S
C828 C836 1.378 . S
C829 C828 1.367 . S
C829 C837 1.433 . S
C830 H826 0.929 . S
C830 C832 1.378 1_554 S
C830 C834 1.350 . S
C831 C834 1.463 . S
C831 C836 1.350 . S
C831 N839 1.427 . S
C832 H823 0.930 . S
C832 C830 1.378 1_556 S
C832 C833 1.367 1_545 S
C833 C832 1.367 1_565 S
C833 C835 1.433 . S
C834 C830 1.350 . S
C834 C831 1.463 . S
C834 N838 1.427 1_545 S
C835 H825 0.929 . S
C835 C833 1.433 . S
C835 N838 1.384 1_556 S
C836 H827 0.929 . S
C836 C828 1.378 . S
C836 C831 1.350 . S
C837 H824 0.929 . S
C837 C829 1.433 . S
C837 N839 1.384 . S
N838 C834 1.427 1_565 S
N838 C835 1.384 1_554 S
N839 C831 1.427 . S
N839 C837 1.384 . S
H840 C846 0.930 . S
H841 C850 0.930 . S
H842 C855 0.929 . S
H843 C853 0.929 . S
H844 C848 0.929 . S
H845 C854 0.929 . S
C846 H840 0.930 . S
C846 C847 1.367 . S
C846 C854 1.378 . S
C847 C846 1.367 . S
C847 C855 1.433 . S
C848 H844 0.929 . S
C848 C850 1.378 . S
C848 C852 1.350 . S
C849 C852 1.463 . S
C849 C854 1.350 . S
C849 N857 1.427 . S
C850 H841 0.930 . S
C850 C848 1.378 . S
C850 C851 1.367 . S
C851 C850 1.367 . S
C851 C853 1.433 . S
C852 C848 1.350 . S
C852 C849 1.463 . S
C852 N856 1.427 . S
C853 H843 0.929 . S
C853 C851 1.433 . S
C853 N856 1.384 . S
C854 H845 0.929 . S
C854 C846 1.378 . S
C854 C849 1.350 . S
C855 H842 0.929 . S
C855 C847 1.433 . S
C855 N857 1.384 . S
N856 C852 1.427 . S
N856 C853 1.384 . S
N857 C849 1.427 . S
N857 C855 1.384 . S
H858 C864 0.930 . S
H859 C868 0.930 . S
H860 C873 0.929 . S
H861 C871 0.929 . S
H862 C866 0.929 . S
H863 C872 0.929 . S
C864 H858 0.930 . S
C864 C865 1.367 . S
C864 C872 1.378 1_554 S
C865 C864 1.367 . S
C865 C873 1.433 . S
C866 H862 0.929 . S
C866 C868 1.378 . S
C866 C870 1.350 . S
C867 C870 1.463 . S
C867 C872 1.350 . S
C867 N875 1.427 . S
C868 H859 0.930 . S
C868 C866 1.378 . S
C868 C869 1.367 . S
C869 C868 1.367 . S
C869 C871 1.433 . S
C870 C866 1.350 . S
C870 C867 1.463 . S
C870 N874 1.427 . S
C871 H861 0.929 . S
C871 C869 1.433 . S
C871 N874 1.384 . S
C872 H863 0.929 . S
C872 C864 1.378 1_556 S
C872 C867 1.350 . S
C873 H860 0.929 . S
C873 C865 1.433 . S
C873 N875 1.384 1_554 S
N874 C870 1.427 . S
N874 C871 1.384 . S
N875 C867 1.427 . S
N875 C873 1.384 1_556 S
H876 C882 0.930 . S
H877 C886 0.930 . S
H878 C891 0.929 . S
H879 C889 0.929 . S
H880 C884 0.929 . S
H881 C890 0.929 . S
C882 H876 0.930 . S
C882 C883 1.367 . S
C882 C890 1.378 . S
C883 C882 1.367 . S
C883 C891 1.433 . S
C884 H880 0.929 . S
C884 C886 1.378 . S
C884 C888 1.350 . S
C885 C888 1.463 . S
C885 C890 1.350 . S
C885 N893 1.427 . S
C886 H877 0.930 . S
C886 C884 1.378 . S
C886 C887 1.367 . S
C887 C886 1.367 . S
C887 C889 1.433 . S
C888 C884 1.350 . S
C888 C885 1.463 . S
C888 N892 1.427 . S
C889 H879 0.929 . S
C889 C887 1.433 . S
C889 N892 1.384 . S
C890 H881 0.929 . S
C890 C882 1.378 . S
C890 C885 1.350 . S
C891 H878 0.929 . S
C891 C883 1.433 . S
C891 N893 1.384 . S
N892 C888 1.427 . S
N892 C889 1.384 . S
N893 C885 1.427 . S
N893 C891 1.384 . S
H894 C900 0.930 . S
H895 C904 0.930 . S
H896 C909 0.929 . S
H897 C907 0.929 . S
H898 C902 0.929 . S
H899 C908 0.929 . S
C900 H894 0.930 . S
C900 C901 1.367 . S
C900 C908 1.378 . S
C901 C900 1.367 . S
C901 C909 1.433 . S
C902 H898 0.929 . S
C902 C904 1.378 . S
C902 C906 1.350 . S
C903 C906 1.463 . S
C903 C908 1.350 . S
C903 N911 1.427 . S
C904 H895 0.930 . S
C904 C902 1.378 . S
C904 C905 1.367 . S
C905 C904 1.367 . S
C905 C907 1.433 . S
C906 C902 1.350 . S
C906 C903 1.463 . S
C906 N910 1.427 . S
C907 H897 0.929 . S
C907 C905 1.433 . S
C907 N910 1.384 . S
C908 H899 0.929 . S
C908 C900 1.378 . S
C908 C903 1.350 . S
C909 H896 0.929 . S
C909 C901 1.433 . S
C909 N911 1.384 . S
N910 C906 1.427 . S
N910 C907 1.384 . S
N911 C903 1.427 . S
N911 C909 1.384 . S
H912 C918 0.930 . S
H913 C922 0.930 . S
H914 C927 0.929 . S
H915 C925 0.929 . S
H916 C920 0.929 . S
H917 C926 0.929 . S
C918 H912 0.930 . S
C918 C919 1.367 . S
C918 C926 1.378 . S
C919 C918 1.367 . S
C919 C927 1.433 . S
C920 H916 0.929 . S
C920 C922 1.378 . S
C920 C924 1.350 . S
C921 C924 1.463 . S
C921 C926 1.350 . S
C921 N929 1.427 . S
C922 H913 0.930 . S
C922 C920 1.378 . S
C922 C923 1.367 . S
C923 C922 1.367 . S
C923 C925 1.433 . S
C924 C920 1.350 . S
C924 C921 1.463 . S
C924 N928 1.427 . S
C925 H915 0.929 . S
C925 C923 1.433 . S
C925 N928 1.384 . S
C926 H917 0.929 . S
C926 C918 1.378 . S
C926 C921 1.350 . S
C927 H914 0.929 . S
C927 C919 1.433 . S
C927 N929 1.384 . S
N928 C924 1.427 . S
N928 C925 1.384 . S
N929 C921 1.427 . S
N929 C927 1.384 . S
H930 C936 0.930 . S
H931 C940 0.930 . S
H932 C945 0.929 . S
H933 C943 0.929 . S
H934 C938 0.929 . S
H935 C944 0.929 . S
C936 H930 0.930 . S
C936 C937 1.367 1_455 S
C936 C944 1.378 1_565 S
C937 C936 1.367 1_655 S
C937 C945 1.433 . S
C938 H934 0.929 . S
C938 C940 1.378 . S
C938 C942 1.350 . S
C939 C942 1.463 . S
C939 C944 1.350 . S
C939 N947 1.424 1_455 S
C940 H931 0.930 . S
C940 C938 1.378 . S
C940 C941 1.367 . S
C941 C940 1.367 . S
C941 C943 1.433 . S
C942 C938 1.350 . S
C942 C939 1.463 . S
C942 N946 1.427 . S
C943 H933 0.929 . S
C943 C941 1.433 . S
C943 N946 1.384 . S
C944 H935 0.929 . S
C944 C936 1.378 1_545 S
C944 C939 1.350 . S
C945 H932 0.929 . S
C945 C937 1.433 . S
C945 N947 1.386 1_565 S
N946 C942 1.427 . S
N946 C943 1.384 . S
N947 C939 1.424 1_655 S
N947 C945 1.386 1_545 S
H948 C954 0.930 . S
H949 C958 0.930 . S
H950 C963 0.929 . S
H951 C961 0.929 . S
H952 C956 0.929 . S
H953 C962 0.929 . S
C954 H948 0.930 . S
C954 C955 1.367 . S
C954 C962 1.378 . S
C955 C954 1.367 . S
C955 C963 1.433 . S
C956 H952 0.929 . S
C956 C958 1.378 . S
C956 C960 1.350 . S
C957 C960 1.463 . S
C957 C962 1.350 . S
C957 N965 1.427 . S
C958 H949 0.930 . S
C958 C956 1.378 . S
C958 C959 1.367 . S
C959 C958 1.367 . S
C959 C961 1.433 . S
C960 C956 1.350 . S
C960 C957 1.463 . S
C960 N964 1.427 . S
C961 H951 0.929 . S
C961 C959 1.433 . S
C961 N964 1.384 . S
C962 H953 0.929 . S
C962 C954 1.378 . S
C962 C957 1.350 . S
C963 H950 0.929 . S
C963 C955 1.433 . S
C963 N965 1.384 . S
N964 C960 1.427 . S
N964 C961 1.384 . S
N965 C957 1.427 . S
N965 C963 1.384 . S
H966 C972 0.930 . S
H967 C976 0.930 . S
H968 C981 0.929 . S
H969 C979 0.929 . S
H970 C974 0.929 . S
H971 C980 0.929 . S
C972 H966 0.930 . S
C972 C973 1.367 . S
C972 C980 1.378 1_545 S
C973 C972 1.367 . S
C973 C981 1.433 . S
C974 H970 0.929 . S
C974 C976 1.378 . S
C974 C978 1.350 . S
C975 C978 1.463 . S
C975 C980 1.350 . S
C975 N983 1.427 . S
C976 H967 0.930 . S
C976 C974 1.378 . S
C976 C977 1.367 . S
C977 C976 1.367 . S
C977 C979 1.433 . S
C978 C974 1.350 . S
C978 C975 1.463 . S
C978 N982 1.427 . S
C979 H969 0.929 . S
C979 C977 1.433 . S
C979 N982 1.384 . S
C980 H971 0.929 . S
C980 C972 1.378 1_565 S
C980 C975 1.350 . S
C981 H968 0.929 . S
C981 C973 1.433 . S
C981 N983 1.384 1_545 S
N982 C978 1.427 . S
N982 C979 1.384 . S
N983 C975 1.427 . S
N983 C981 1.384 1_565 S
H984 C990 0.930 . S
H985 C994 0.930 . S
H986 C999 0.929 . S
H987 C997 0.929 . S
H988 C992 0.929 . S
H989 C998 0.929 . S
C990 H984 0.930 . S
C990 C991 1.367 . S
C990 C998 1.378 . S
C991 C990 1.367 . S
C991 C999 1.433 . S
C992 H988 0.929 . S
C992 C994 1.378 . S
C992 C996 1.350 . S
C993 C996 1.463 . S
C993 C998 1.350 . S
C993 N1001 1.427 . S
C994 H985 0.930 . S
C994 C992 1.378 . S
C994 C995 1.367 . S
C995 C994 1.367 . S
C995 C997 1.433 . S
C996 C992 1.350 . S
C996 C993 1.463 . S
C996 N1000 1.427 . S
C997 H987 0.929 . S
C997 C995 1.433 . S
C997 N1000 1.384 . S
C998 H989 0.929 . S
C998 C990 1.378 . S
C998 C993 1.350 . S
C999 H986 0.929 . S
C999 C991 1.433 . S
C999 N1001 1.384 . S
N1000 C996 1.427 . S
N1000 C997 1.384 . S
N1001 C993 1.427 . S
N1001 C999 1.384 . S
H1002 C1008 0.930 . S
H1003 C1012 0.930 . S
H1004 C1017 0.929 1_455 S
H1005 C1015 0.929 . S
H1006 C1010 0.929 . S
H1007 C1016 0.929 . S
C1008 H1002 0.930 . S
C1008 C1009 1.367 . S
C1008 C1016 1.378 1_455 S
C1009 C1008 1.367 . S
C1009 C1017 1.433 1_455 S
C1010 H1006 0.929 . S
C1010 C1012 1.378 . S
C1010 C1014 1.350 . S
C1011 C1014 1.463 . S
C1011 C1016 1.350 . S
C1011 N1019 1.427 . S
C1012 H1003 0.930 . S
C1012 C1010 1.378 . S
C1012 C1013 1.367 . S
C1013 C1012 1.367 . S
C1013 C1015 1.433 . S
C1014 C1010 1.350 . S
C1014 C1011 1.463 . S
C1014 N1018 1.427 . S
C1015 H1005 0.929 . S
C1015 C1013 1.433 . S
C1015 N1018 1.384 . S
C1016 H1007 0.929 . S
C1016 C1008 1.378 1_655 S
C1016 C1011 1.350 . S
C1017 H1004 0.929 1_655 S
C1017 C1009 1.433 1_655 S
C1017 N1019 1.384 . S
N1018 C1014 1.427 . S
N1018 C1015 1.384 . S
N1019 C1011 1.427 . S
N1019 C1017 1.384 . S
H1020 C1026 0.930 . S
H1021 C1030 0.930 . S
H1022 C1035 0.929 . S
H1023 C1033 0.929 . S
H1024 C1028 0.929 . S
H1025 C1034 0.929 . S
C1026 H1020 0.930 . S
C1026 C1027 1.367 . S
C1026 C1034 1.378 . S
C1027 C1026 1.367 . S
C1027 C1035 1.433 . S
C1028 H1024 0.929 . S
C1028 C1030 1.378 . S
C1028 C1032 1.350 . S
C1029 C1032 1.463 . S
C1029 C1034 1.350 . S
C1029 N1037 1.427 . S
C1030 H1021 0.930 . S
C1030 C1028 1.378 . S
C1030 C1031 1.367 . S
C1031 C1030 1.367 . S
C1031 C1033 1.433 . S
C1032 C1028 1.350 . S
C1032 C1029 1.463 . S
C1032 N1036 1.427 . S
C1033 H1023 0.929 . S
C1033 C1031 1.433 . S
C1033 N1036 1.384 . S
C1034 H1025 0.929 . S
C1034 C1026 1.378 . S
C1034 C1029 1.350 . S
C1035 H1022 0.929 . S
C1035 C1027 1.433 . S
C1035 N1037 1.384 . S
N1036 C1032 1.427 . S
N1036 C1033 1.384 . S
N1037 C1029 1.427 . S
N1037 C1035 1.384 . S
H1038 C1044 0.930 . S
H1039 C1048 0.930 . S
H1040 C1053 0.929 . S
H1041 C1051 0.929 . S
H1042 C1046 0.929 . S
H1043 C1052 0.929 . S
C1044 H1038 0.930 . S
C1044 C1045 1.367 . S
C1044 C1052 1.378 . S
C1045 C1044 1.367 . S
C1045 C1053 1.433 . S
C1046 H1042 0.929 . S
C1046 C1048 1.378 . S
C1046 C1050 1.350 . S
C1047 C1050 1.463 . S
C1047 C1052 1.350 . S
C1047 N1055 1.427 . S
C1048 H1039 0.930 . S
C1048 C1046 1.378 . S
C1048 C1049 1.367 . S
C1049 C1048 1.367 . S
C1049 C1051 1.433 . S
C1050 C1046 1.350 . S
C1050 C1047 1.463 . S
C1050 N1054 1.427 . S
C1051 H1041 0.929 . S
C1051 C1049 1.433 . S
C1051 N1054 1.384 . S
C1052 H1043 0.929 . S
C1052 C1044 1.378 . S
C1052 C1047 1.350 . S
C1053 H1040 0.929 . S
C1053 C1045 1.433 . S
C1053 N1055 1.384 . S
N1054 C1050 1.427 . S
N1054 C1051 1.384 . S
N1055 C1047 1.427 . S
N1055 C1053 1.384 . S
H1056 C1062 0.930 . S
H1057 C1066 0.930 . S
H1058 C1071 0.929 . S
H1059 C1069 0.929 . S
H1060 C1064 0.929 . S
H1061 C1070 0.929 . S
C1062 H1056 0.930 . S
C1062 C1063 1.367 . S
C1062 C1070 1.378 . S
C1063 C1062 1.367 . S
C1063 C1071 1.433 . S
C1064 H1060 0.929 . S
C1064 C1066 1.378 . S
C1064 C1068 1.350 . S
C1065 C1068 1.463 . S
C1065 C1070 1.350 . S
C1065 N1073 1.427 . S
C1066 H1057 0.930 . S
C1066 C1064 1.378 . S
C1066 C1067 1.367 . S
C1067 C1066 1.367 . S
C1067 C1069 1.433 . S
C1068 C1064 1.350 . S
C1068 C1065 1.463 . S
C1068 N1072 1.427 . S
C1069 H1059 0.929 . S
C1069 C1067 1.433 . S
C1069 N1072 1.384 . S
C1070 H1061 0.929 . S
C1070 C1062 1.378 . S
C1070 C1065 1.350 . S
C1071 H1058 0.929 . S
C1071 C1063 1.433 . S
C1071 N1073 1.384 . S
N1072 C1068 1.427 . S
N1072 C1069 1.384 . S
N1073 C1065 1.427 . S
N1073 C1071 1.384 . S
H1074 C1080 0.930 . S
H1075 C1084 0.930 . S
H1076 C1089 0.929 . S
H1077 C1087 0.929 . S
H1078 C1082 0.929 . S
H1079 C1088 0.929 . S
C1080 H1074 0.930 . S
C1080 C1081 1.367 . S
C1080 C1088 1.378 . S
C1081 C1080 1.367 . S
C1081 C1089 1.433 . S
C1082 H1078 0.929 . S
C1082 C1084 1.378 . S
C1082 C1086 1.350 . S
C1083 C1086 1.463 . S
C1083 C1088 1.350 . S
C1083 N1091 1.427 . S
C1084 H1075 0.930 . S
C1084 C1082 1.378 . S
C1084 C1085 1.367 . S
C1085 C1084 1.367 . S
C1085 C1087 1.433 . S
C1086 C1082 1.350 . S
C1086 C1083 1.463 . S
C1086 N1090 1.427 . S
C1087 H1077 0.929 . S
C1087 C1085 1.433 . S
C1087 N1090 1.384 . S
C1088 H1079 0.929 . S
C1088 C1080 1.378 . S
C1088 C1083 1.350 . S
C1089 H1076 0.929 . S
C1089 C1081 1.433 . S
C1089 N1091 1.384 . S
N1090 C1086 1.427 . S
N1090 C1087 1.384 . S
N1091 C1083 1.427 . S
N1091 C1089 1.384 . S
H1092 C1098 0.930 . S
H1093 C1102 0.930 . S
H1094 C1107 0.929 . S
H1095 C1105 0.929 . S
H1096 C1100 0.929 . S
H1097 C1106 0.929 . S
C1098 H1092 0.930 . S
C1098 C1099 1.367 1_455 S
C1098 C1106 1.378 . S
C1099 C1098 1.367 1_655 S
C1099 C1107 1.433 1_556 S
C1100 H1096 0.929 . S
C1100 C1102 1.378 . S
C1100 C1104 1.350 . S
C1101 C1104 1.463 . S
C1101 C1106 1.350 1_554 S
C1101 N1109 1.427 . S
C1102 H1093 0.930 . S
C1102 C1100 1.378 . S
C1102 C1103 1.367 . S
C1103 C1102 1.367 . S
C1103 C1105 1.433 . S
C1104 C1100 1.350 . S
C1104 C1101 1.463 . S
C1104 N1108 1.427 . S
C1105 H1095 0.929 . S
C1105 C1103 1.433 . S
C1105 N1108 1.384 . S
C1106 H1097 0.929 . S
C1106 C1098 1.378 . S
C1106 C1101 1.350 1_556 S
C1107 H1094 0.929 . S
C1107 C1099 1.433 1_554 S
C1107 N1109 1.384 1_655 S
N1108 C1104 1.427 . S
N1108 C1105 1.384 . S
N1109 C1101 1.427 . S
N1109 C1107 1.384 1_455 S
H1110 C1116 0.930 . S
H1111 C1120 0.930 . S
H1112 C1125 0.929 . S
H1113 C1123 0.929 . S
H1114 C1118 0.929 . S
H1115 C1124 0.929 . S
C1116 H1110 0.930 . S
C1116 C1117 1.367 . S
C1116 C1124 1.378 . S
C1117 C1116 1.367 . S
C1117 C1125 1.433 . S
C1118 H1114 0.929 . S
C1118 C1120 1.378 . S
C1118 C1122 1.350 . S
C1119 C1122 1.463 . S
C1119 C1124 1.350 . S
C1119 N1127 1.427 . S
C1120 H1111 0.930 . S
C1120 C1118 1.378 . S
C1120 C1121 1.367 . S
C1121 C1120 1.367 . S
C1121 C1123 1.433 . S
C1122 C1118 1.350 . S
C1122 C1119 1.463 . S
C1122 N1126 1.427 . S
C1123 H1113 0.929 . S
C1123 C1121 1.433 . S
C1123 N1126 1.384 . S
C1124 H1115 0.929 . S
C1124 C1116 1.378 . S
C1124 C1119 1.350 . S
C1125 H1112 0.929 . S
C1125 C1117 1.433 . S
C1125 N1127 1.384 . S
N1126 C1122 1.427 . S
N1126 C1123 1.384 . S
N1127 C1119 1.427 . S
N1127 C1125 1.384 . S
H1128 C1134 0.930 . S
H1129 C1138 0.930 . S
H1130 C1143 0.929 . S
H1131 C1141 0.929 . S
H1132 C1136 0.929 . S
H1133 C1142 0.929 . S
C1134 H1128 0.930 . S
C1134 C1135 1.367 . S
C1134 C1142 1.378 . S
C1135 C1134 1.367 . S
C1135 C1143 1.433 . S
C1136 H1132 0.929 . S
C1136 C1138 1.378 . S
C1136 C1140 1.350 . S
C1137 C1140 1.463 . S
C1137 C1142 1.350 . S
C1137 N1145 1.427 . S
C1138 H1129 0.930 . S
C1138 C1136 1.378 . S
C1138 C1139 1.367 . S
C1139 C1138 1.367 . S
C1139 C1141 1.433 . S
C1140 C1136 1.350 . S
C1140 C1137 1.463 . S
C1140 N1144 1.427 . S
C1141 H1131 0.929 . S
C1141 C1139 1.433 . S
C1141 N1144 1.384 . S
C1142 H1133 0.929 . S
C1142 C1134 1.378 . S
C1142 C1137 1.350 . S
C1143 H1130 0.929 . S
C1143 C1135 1.433 . S
C1143 N1145 1.384 . S
N1144 C1140 1.427 . S
N1144 C1141 1.384 . S
N1145 C1137 1.427 . S
N1145 C1143 1.384 . S
H1146 C1152 0.930 . S
H1147 C1156 0.930 . S
H1148 C1161 0.929 . S
H1149 C1159 0.929 . S
H1150 C1154 0.929 . S
H1151 C1160 0.929 . S
C1152 H1146 0.930 . S
C1152 C1153 1.367 . S
C1152 C1160 1.378 . S
C1153 C1152 1.367 . S
C1153 C1161 1.433 . S
C1154 H1150 0.929 . S
C1154 C1156 1.378 . S
C1154 C1158 1.350 . S
C1155 C1158 1.463 . S
C1155 C1160 1.350 . S
C1155 N1163 1.427 . S
C1156 H1147 0.930 . S
C1156 C1154 1.378 . S
C1156 C1157 1.367 . S
C1157 C1156 1.367 . S
C1157 C1159 1.433 . S
C1158 C1154 1.350 . S
C1158 C1155 1.463 . S
C1158 N1162 1.427 . S
C1159 H1149 0.929 . S
C1159 C1157 1.433 . S
C1159 N1162 1.384 . S
C1160 H1151 0.929 . S
C1160 C1152 1.378 . S
C1160 C1155 1.350 . S
C1161 H1148 0.929 . S
C1161 C1153 1.433 . S
C1161 N1163 1.384 . S
N1162 C1158 1.427 . S
N1162 C1159 1.384 . S
N1163 C1155 1.427 . S
N1163 C1161 1.384 . S
H1164 C1170 0.930 . S
H1165 C1174 0.930 . S
H1166 C1179 0.929 . S
H1167 C1177 0.929 . S
H1168 C1172 0.929 . S
H1169 C1178 0.929 . S
C1170 H1164 0.930 . S
C1170 C1171 1.367 1_556 S
C1170 C1178 1.378 . S
C1171 C1170 1.367 1_554 S
C1171 C1179 1.433 . S
C1172 H1168 0.929 . S
C1172 C1174 1.378 . S
C1172 C1176 1.350 . S
C1173 C1176 1.463 . S
C1173 C1178 1.350 . S
C1173 N1181 1.427 1_556 S
C1174 H1165 0.930 . S
C1174 C1172 1.378 . S
C1174 C1175 1.367 . S
C1175 C1174 1.367 . S
C1175 C1177 1.433 . S
C1176 C1172 1.350 . S
C1176 C1173 1.463 . S
C1176 N1180 1.427 . S
C1177 H1167 0.929 . S
C1177 C1175 1.433 . S
C1177 N1180 1.384 . S
C1178 H1169 0.929 . S
C1178 C1170 1.378 . S
C1178 C1173 1.350 . S
C1179 H1166 0.929 . S
C1179 C1171 1.433 . S
C1179 N1181 1.384 . S
N1180 C1176 1.427 . S
N1180 C1177 1.384 . S
N1181 C1173 1.427 1_554 S
N1181 C1179 1.384 . S
H1182 C1188 0.930 . S
H1183 C1192 0.930 . S
H1184 C1197 0.929 . S
H1185 C1195 0.929 . S
H1186 C1190 0.929 . S
H1187 C1196 0.929 . S
C1188 H1182 0.930 . S
C1188 C1189 1.367 . S
C1188 C1196 1.378 . S
C1189 C1188 1.367 . S
C1189 C1197 1.433 . S
C1190 H1186 0.929 . S
C1190 C1192 1.378 1_655 S
C1190 C1194 1.350 . S
C1191 C1194 1.463 . S
C1191 C1196 1.350 . S
C1191 N1199 1.427 . S
C1192 H1183 0.930 . S
C1192 C1190 1.378 1_455 S
C1192 C1193 1.367 . S
C1193 C1192 1.367 . S
C1193 C1195 1.433 1_455 S
C1194 C1190 1.350 . S
C1194 C1191 1.463 . S
C1194 N1198 1.427 . S
C1195 H1185 0.929 . S
C1195 C1193 1.433 1_655 S
C1195 N1198 1.384 . S
C1196 H1187 0.929 . S
C1196 C1188 1.378 . S
C1196 C1191 1.350 . S
C1197 H1184 0.929 . S
C1197 C1189 1.433 . S
C1197 N1199 1.384 . S
N1198 C1194 1.427 . S
N1198 C1195 1.384 . S
N1199 C1191 1.427 . S
N1199 C1197 1.384 . S
C343 C134 1.190 . S
C347 C8 1.192 . S
C361 C22 1.195 . S
C365 C148 1.193 . S
C379 C36 1.194 . S
C383 C162 1.196 . S
C397 C50 1.200 . S
C401 C120 1.201 . S
C415 C64 1.201 . S
C419 C218 1.202 . S
C433 C176 1.192 . S
C437 C78 1.190 . S
C451 C92 1.201 . S
C455 C190 1.198 . S
C469 C204 1.197 . S
C473 C106 1.195 . S
C487 C232 1.202 . S
C491 C260 1.203 . S
C505 C316 1.190 . S
C509 C246 1.190 . S
C523 C274 1.203 . S
C527 C330 1.203 . S
C541 C302 1.190 . S
C545 C288 1.191 . S
C559 C287 1.706 . S
C563 C7 1.690 . S
C577 C21 1.702 . S
C581 C245 1.689 . S
C595 C35 1.698 . S
C599 C259 1.703 . S
C613 C49 1.705 . S
C617 C273 1.689 . S
C631 C63 1.704 . S
C635 C329 1.697 . S
C649 C301 1.706 . S
C653 C77 1.692 . S
C667 C315 1.689 . S
C671 C91 1.702 . S
C685 C231 1.697 . S
C689 C105 1.691 . S
C703 C217 1.689 . S
C707 C119 1.705 . S
C721 C133 1.700 . S
C725 C175 1.690 . S
C739 C189 1.693 . S
C743 C147 1.695 . S
C757 C203 1.689 . S
C761 C161 1.701 . S
C775 C9 1.060 . S
C779 C227 1.150 . S
C793 C325 1.149 . S
C797 C23 1.062 . S
C811 C297 1.150 . S
C815 C37 1.057 . S
C829 C51 1.042 . S
C833 C311 1.148 . S
C847 C65 1.057 . S
C851 C241 1.142 . S
C865 C255 1.145 . S
C869 C79 1.046 . S
C883 C269 1.141 . S
C887 C93 1.063 . S
C901 C283 1.151 . S
C905 C107 1.050 . S
C919 C3 1.144 . S
C923 C121 1.072 . S
C937 C17 1.147 . S
C941 C135 1.043 . S
C955 C31 1.146 . S
C959 C149 1.044 . S
C973 C45 1.145 . S
C977 C163 1.047 . S
C991 C59 1.143 . S
C995 C177 1.053 . S
C1009 C73 1.143 . S
C1013 C191 1.052 . S
C1027 C205 1.067 . S
C1031 C87 1.147 . S
C1045 C101 1.147 . S
C1049 C219 1.043 . S
C1063 C115 1.141 . S
C1067 C233 1.060 . S
C1081 C247 1.055 . S
C1085 C171 1.151 . S
C1099 C185 1.141 . S
C1103 C261 1.065 . S
C1117 C275 1.041 . S
C1121 C199 1.149 . S
C1135 C289 1.049 . S
C1139 C213 1.151 . S
C1153 C303 1.041 . S
C1157 C143 1.149 . S
C1171 C157 1.151 . S
C1175 C317 1.048 . S
C1189 C331 1.047 . S
C1193 C129 1.151 . S
