# Generated by pormake.
# Topology wjx, (5)-cn, num edge types: 1
# Building blocks:
#     Node 0, Type 0, BuildingBlock: XOMCOT_clean_sbu_0, # of connection points: 5
#     Node 1, Type 0, BuildingBlock: XOMCOT_clean_sbu_0, # of connection points: 5
#     Node 2, Type 0, BuildingBlock: XOMCOT_clean_sbu_0, # of connection points: 5
#     Node 3, Type 0, BuildingBlock: XOMCOT_clean_sbu_0, # of connection points: 5
#     Node 4, Type 0, BuildingBlock: XOMCOT_clean_sbu_0, # of connection points: 5
#     Node 5, Type 0, BuildingBlock: XOMCOT_clean_sbu_0, # of connection points: 5
#     Node 6, Type 0, BuildingBlock: XOMCOT_clean_sbu_0, # of connection points: 5
#     Node 7, Type 0, BuildingBlock: XOMCOT_clean_sbu_0, # of connection points: 5
#     Node 8, Type 0, BuildingBlock: XOMCOT_clean_sbu_0, # of connection points: 5
#     Node 9, Type 0, BuildingBlock: XOMCOT_clean_sbu_0, # of connection points: 5
#     Node 10, Type 0, BuildingBlock: XOMCOT_clean_sbu_0, # of connection points: 5
#     Node 11, Type 0, BuildingBlock: XOMCOT_clean_sbu_0, # of connection points: 5
#     Edge 12, Type (0, 0), None
#     Edge 13, Type (0, 0), None
#     Edge 14, Type (0, 0), None
#     Edge 15, Type (0, 0), None
#     Edge 16, Type (0, 0), None
#     Edge 17, Type (0, 0), None
#     Edge 18, Type (0, 0), None
#     Edge 19, Type (0, 0), None
#     Edge 20, Type (0, 0), None
#     Edge 21, Type (0, 0), None
#     Edge 22, Type (0, 0), None
#     Edge 23, Type (0, 0), None
#     Edge 24, Type (0, 0), None
#     Edge 25, Type (0, 0), None
#     Edge 26, Type (0, 0), None
#     Edge 27, Type (0, 0), None
#     Edge 28, Type (0, 0), None
#     Edge 29, Type (0, 0), None
#     Edge 30, Type (0, 0), None
#     Edge 31, Type (0, 0), None
#     Edge 32, Type (0, 0), None
#     Edge 33, Type (0, 0), None
#     Edge 34, Type (0, 0), None
#     Edge 35, Type (0, 0), None
#     Edge 36, Type (0, 0), None
#     Edge 37, Type (0, 0), None
#     Edge 38, Type (0, 0), None
#     Edge 39, Type (0, 0), None
#     Edge 40, Type (0, 0), None
#     Edge 41, Type (0, 0), None
# Relax obj value: 0.142
# Max RMSD: 0.128
# Mean RMSD: 0.128
data_MOF--net-wjx--node1-XOMCOT_clean_sbu_0--edge1-none
_symmetry_space_group_name_H-M    P1
_symmetry_Int_Tables_number       1
_symmetry_cell_setting            triclinic
loop_
_symmetry_equiv_pos_as_xyz
'x, y, z'
_cell_length_a     33.811424
_cell_length_b     33.914999
_cell_length_c     9.441842
_cell_angle_alpha  89.998969
_cell_angle_beta   90.001422
_cell_angle_gamma 120.30097
loop_
_atom_site_label
_atom_site_type_symbol
_atom_site_fract_x
_atom_site_fract_y
_atom_site_fract_z
_atom_type_partial_charge
Co0 Co 0.12837 0.41595 0.15413 0.0
C1 C 0.11176 0.40861 0.4627 0.0
C2 C 0.16278 0.39111 0.4105 0.0
C3 C 0.15673 0.38836 0.55578 0.0
N4 N 0.13586 0.40561 0.35276 0.0
N5 N 0.12512 0.40009 0.58712 0.0
H6 H 0.0875 0.42032 0.4534 0.0
H7 H 0.18526 0.38312 0.35194 0.0
C8 C 0.22312 0.43422 0.09806 0.0
O9 O 0.23857 0.46731 0.19156 0.0
N10 N 0.11783 0.42155 0.95549 0.0
C11 C 0.09555 0.44105 0.89603 0.0
C12 C 0.09402 0.43454 0.75126 0.0
C13 C 0.12849 0.40255 0.84725 0.0
N14 N 0.11486 0.41044 0.72217 0.0
C15 C 0.17529 0.50406 0.30131 0.0
C16 C 0.20339 0.55742 0.06262 0.0
C17 C 0.20043 0.57705 0.19093 0.0
C18 C 0.1896 0.55024 0.31251 0.0
C19 C 0.18837 0.51052 0.05597 0.0
N20 N 0.17021 0.48314 0.17267 0.0
H21 H 0.1664 0.48603 0.39888 0.0
H22 H 0.18927 0.49623 0.95473 0.0
H23 H 0.08182 0.45907 0.9535 0.0
H24 H 0.14553 0.38305 0.85897 0.0
O25 O 0.07409 0.41685 0.20019 0.0
O26 O 0.07506 0.35349 0.14974 0.0
O27 O 0.18014 0.4056 0.09035 0.0
C28 C 0.05151 0.37295 0.18529 0.0
H29 H 0.17498 0.37968 0.63197 0.0
H30 H 0.07963 0.44735 0.67408 0.0
H31 H 0.2143 0.57727 0.96595 0.0
H32 H 0.18792 0.56332 0.41551 0.0
Co33 Co 0.72673 0.11924 0.47554 0.0
C34 C 0.71924 0.10292 0.78576 0.0
C35 C 0.78487 0.16002 0.7332 0.0
C36 C 0.78202 0.1548 0.8787 0.0
N37 N 0.74464 0.12861 0.67504 0.0
N38 N 0.74035 0.1193 0.91004 0.0
H39 H 0.68516 0.07355 0.77727 0.0
H40 H 0.81442 0.185 0.67516 0.0
C41 C 0.80016 0.21702 0.42796 0.0
O42 O 0.78032 0.22954 0.52293 0.0
N43 N 0.71071 0.10863 0.2777 0.0
C44 C 0.66881 0.08715 0.21757 0.0
C45 C 0.67413 0.08658 0.0726 0.0
C46 C 0.74081 0.12023 0.17006 0.0
N47 N 0.71941 0.1075 0.0445 0.0
C48 C 0.6663 0.14344 0.60904 0.0
C49 C 0.66326 0.19886 0.40223 0.0
C50 C 0.63372 0.1874 0.52002 0.0
C51 C 0.63698 0.16042 0.62544 0.0
C52 C 0.69346 0.18169 0.39151 0.0
N53 N 0.69493 0.15423 0.49535 0.0
H54 H 0.66193 0.11792 0.68314 0.0
H55 H 0.71427 0.18907 0.29742 0.0
H56 H 0.63683 0.07347 0.27476 0.0
H57 H 0.77759 0.13756 0.18262 0.0
O58 O 0.6743 0.0621 0.52027 0.0
O59 O 0.74208 0.07033 0.46987 0.0
O60 O 0.78712 0.17472 0.41244 0.0
C61 C 0.69913 0.04338 0.50476 0.0
H62 H 0.80785 0.17606 0.95507 0.0
H63 H 0.64704 0.07322 0.99438 0.0
H64 H 0.66165 0.21912 0.31625 0.0
H65 H 0.61355 0.14818 0.71442 0.0
Co66 Co 0.63129 0.71976 0.81573 0.0
C67 C 0.64592 0.71695 0.12542 0.0
C68 C 0.63063 0.76953 0.07427 0.0
C69 C 0.63157 0.76611 0.21952 0.0
N70 N 0.63885 0.73819 1.0146 0.0
N71 N 0.64087 0.73292 0.25008 0.0
H72 H 0.65023 0.68758 0.11682 0.0
H73 H 0.62135 0.79128 1.01797 0.0
C74 C 0.60961 0.79288 0.73274 0.0
O75 O 0.57051 0.77164 0.80072 0.0
N76 N 0.6267 0.70337 0.61718 0.0
C77 C 0.60869 0.66164 0.55702 0.0
C78 C 0.61368 0.66697 0.41146 0.0
C79 C 0.64301 0.7333 0.50853 0.0
N80 N 0.63512 0.71206 0.38329 0.0
C81 C 0.54544 0.66537 0.95672 0.0
C82 C 0.48815 0.65034 0.73118 0.0
C83 C 0.46969 0.62442 0.8557 0.0
C84 C 0.49899 0.6342 0.97084 0.0
C85 C 0.53538 0.68202 0.72174 0.0
N86 N 0.56398 0.68903 0.83375 0.0
H87 H 0.56642 0.66628 0.04266 0.0
H88 H 0.54899 0.69958 0.62252 0.0
H89 H 0.59226 0.62967 0.61437 0.0
H90 H 0.6603 0.76998 0.51896 0.0
O91 O 0.63414 0.66687 0.86393 0.0
O92 O 0.69533 0.73383 0.81333 0.0
O93 O 0.63978 0.78113 0.75053 0.0
C94 C 0.67811 0.6909 0.84809 0.0
H95 H 0.62204 0.78352 0.29611 0.0
H96 H 0.60097 0.64007 0.33292 0.0
H97 H 0.46688 0.64422 0.6387 0.0
H98 H 0.48743 0.61432 0.06743 0.0
Co99 Co 0.93607 0.62685 0.15417 0.0
C100 C 0.95269 0.63421 0.46275 0.0
C101 C 0.90165 0.65167 0.41054 0.0
C102 C 0.9077 0.65443 0.55582 0.0
N103 N 0.92858 0.6372 0.35281 0.0
N104 N 0.93932 0.64271 0.58716 0.0
H105 H 0.97696 0.62251 0.45346 0.0
H106 H 0.87916 0.65966 0.35197 0.0
C107 C 0.84133 0.60857 0.09811 0.0
O108 O 0.82588 0.57549 0.19161 0.0
N109 N 0.94661 0.62126 0.95553 0.0
C110 C 0.96889 0.60176 0.89607 0.0
C111 C 0.97042 0.60826 0.7513 0.0
C112 C 0.93596 0.64026 0.84729 0.0
N113 N 0.94958 0.63237 0.72221 0.0
C114 C 0.88919 0.53875 0.30134 0.0
C115 C 0.86104 0.48539 0.06266 0.0
C116 C 0.86401 0.46575 0.19094 0.0
C117 C 0.87488 0.49256 0.31252 0.0
C118 C 0.87607 0.53229 0.05602 0.0
N119 N 0.89425 0.55966 0.17271 0.0
H120 H 0.89811 0.55678 0.3989 0.0
H121 H 0.87516 0.54658 0.95479 0.0
H122 H 0.98262 0.58373 0.95354 0.0
H123 H 0.91892 0.65976 0.85902 0.0
O124 O 0.99035 0.62596 0.20024 0.0
O125 O 0.98939 0.68932 0.14978 0.0
O126 O 0.8843 0.6372 0.09038 0.0
C127 C 1.01294 0.66986 0.18534 0.0
H128 H 0.88944 0.66309 0.63201 0.0
H129 H 0.98481 0.59545 0.67412 0.0
H130 H 0.85012 0.46554 0.96598 0.0
H131 H 0.87657 0.47949 0.41551 0.0
Co132 Co 0.33773 0.92356 0.47559 0.0
C133 C 0.34522 0.93988 0.78581 0.0
C134 C 0.27958 0.88278 0.73324 0.0
C135 C 0.28243 0.88801 0.87874 0.0
N136 N 0.31981 0.91418 0.67509 0.0
N137 N 0.3241 0.9235 0.91009 0.0
H138 H 0.3793 0.96924 0.77731 0.0
H139 H 0.25003 0.85781 0.6752 0.0
C140 C 0.26429 0.82579 0.42801 0.0
O141 O 0.28412 0.81326 0.52299 0.0
N142 N 0.35374 0.93417 0.27775 0.0
C143 C 0.39564 0.95565 0.21763 0.0
C144 C 0.39032 0.95622 0.07266 0.0
C145 C 0.32364 0.92257 0.1701 0.0
N146 N 0.34504 0.9353 0.04455 0.0
C147 C 0.39814 0.89934 0.60909 0.0
C148 C 0.40118 0.84393 0.40225 0.0
C149 C 0.43072 0.85539 0.52004 0.0
C150 C 0.42747 0.88236 0.62548 0.0
C151 C 0.37098 0.86111 0.39154 0.0
N152 N 0.36952 0.88857 0.49539 0.0
H153 H 0.40251 0.92486 0.6832 0.0
H154 H 0.35018 0.85373 0.29745 0.0
H155 H 0.42762 0.96933 0.27482 0.0
H156 H 0.28687 0.90524 0.18266 0.0
O157 O 0.39015 0.9807 0.52032 0.0
O158 O 0.32238 0.97247 0.46992 0.0
O159 O 0.27733 0.86808 0.41248 0.0
C160 C 0.36533 0.99942 0.50481 0.0
H161 H 0.2566 0.86675 0.95511 0.0
H162 H 0.41741 0.96958 0.99444 0.0
H163 H 0.40279 0.82368 0.31625 0.0
H164 H 0.45089 0.89459 0.71446 0.0
Co165 Co 0.43314 0.32303 0.81575 0.0
C166 C 0.41852 0.32584 0.12544 0.0
C167 C 0.4338 0.27325 0.07431 0.0
C168 C 0.43285 0.27667 0.21955 0.0
N169 N 0.42558 0.3046 1.01462 0.0
N170 N 0.42356 0.30987 0.25011 0.0
H171 H 0.41421 0.35522 0.11684 0.0
H172 H 0.44307 0.2515 1.01801 0.0
C173 C 0.45483 0.24991 0.73279 0.0
O174 O 0.49393 0.27115 0.8008 0.0
N175 N 0.43774 0.33942 0.6172 0.0
C176 C 0.45575 0.38115 0.55704 0.0
C177 C 0.45075 0.37581 0.41148 0.0
C178 C 0.42143 0.30949 0.50855 0.0
N179 N 0.42931 0.33073 0.38332 0.0
C180 C 0.51899 0.37742 0.95675 0.0
C181 C 0.57629 0.39245 0.73122 0.0
C182 C 0.59474 0.41837 0.85574 0.0
C183 C 0.56544 0.40859 0.97088 0.0
C184 C 0.52905 0.36077 0.72178 0.0
N185 N 0.50046 0.35376 0.83378 0.0
H186 H 0.49802 0.37652 0.04269 0.0
H187 H 0.51545 0.3432 0.62256 0.0
H188 H 0.47217 0.41312 0.61438 0.0
H189 H 0.40413 0.27281 0.51899 0.0
O190 O 0.43029 0.37592 0.86394 0.0
O191 O 0.3691 0.30896 0.81334 0.0
O192 O 0.42466 0.26166 0.75057 0.0
C193 C 0.38633 0.35189 0.84809 0.0
H194 H 0.44238 0.25926 0.29615 0.0
H195 H 0.46347 0.40272 0.33294 0.0
H196 H 0.59756 0.39856 0.63874 0.0
H197 H 0.57701 0.42847 0.06747 0.0
Co198 Co 0.63218 0.91718 0.55379 0.0
C199 C 0.6377 0.93249 0.2454 0.0
C200 C 0.65766 0.88341 0.29792 0.0
C201 C 0.66058 0.88964 0.15269 0.0
N202 N 0.64168 0.90908 0.3553 0.0
N203 N 0.64742 0.92011 0.12124 0.0
H204 H 0.62496 0.95587 0.25477 0.0
H205 H 0.66687 0.86195 0.35689 0.0
C206 C 0.61333 0.82287 0.61351 0.0
O207 O 0.5793 0.80702 0.52296 0.0
N208 N 0.62738 0.92845 0.75237 0.0
C209 C 0.60882 0.95168 0.81125 0.0
C210 C 0.61496 0.95294 0.95608 0.0
C211 C 0.64556 0.91699 0.86108 0.0
N212 N 0.63793 0.93097 0.98587 0.0
C213 C 0.54305 0.86912 0.40926 0.0
C214 C 0.49109 0.84646 0.65094 0.0
C215 C 0.47147 0.8492 0.52242 0.0
C216 C 0.49707 0.8567 0.39941 0.0
C217 C 0.5376 0.85945 0.65605 0.0
N218 N 0.56461 0.87569 0.53773 0.0
H219 H 0.56051 0.87527 0.31082 0.0
H220 H 0.55203 0.85895 0.75744 0.0
H221 H 0.5915 0.96612 0.75339 0.0
H222 H 0.66412 0.89896 0.85 0.0
O223 O 0.63167 0.97141 0.50693 0.0
O224 O 0.69506 0.96992 0.55597 0.0
O225 O 0.64249 0.86563 0.61762 0.0
C226 C 0.67578 0.99361 0.52061 0.0
H227 H 0.67074 0.87256 0.07676 0.0
H228 H 0.60267 0.96795 0.03278 0.0
H229 H 0.4718 0.83809 0.74882 0.0
H230 H 0.4834 0.85751 0.29643 0.0
Co231 Co 0.73535 0.62256 0.89568 0.0
C232 C 0.73224 0.63737 0.58623 0.0
C233 C 0.78631 0.62403 0.63737 0.0
C234 C 0.78288 0.62501 0.49213 0.0
N235 N 0.75405 0.631 0.697 0.0
N236 N 0.74873 0.63304 0.4615 0.0
H237 H 0.70208 0.64051 0.59485 0.0
H238 H 0.80855 0.61535 0.69376 0.0
C239 C 0.81052 0.60372 0.97947 0.0
O240 O 0.78931 0.56422 0.91432 0.0
N241 N 0.71881 0.61752 0.09445 0.0
C242 C 0.67695 0.59925 0.15482 0.0
C243 C 0.68234 0.60459 0.30032 0.0
C244 C 0.74886 0.6344 0.20297 0.0
N245 N 0.7276 0.62656 0.32828 0.0
C246 C 0.68434 0.5365 0.75197 0.0
C247 C 0.66508 0.48041 0.98284 0.0
C248 C 0.63985 0.46197 0.85713 0.0
C249 C 0.65215 0.4904 0.73914 0.0
C250 C 0.69797 0.52723 0.99089 0.0
N251 N 0.70636 0.55548 0.87708 0.0
H252 H 0.68695 0.5568 0.66231 0.0
H253 H 0.71489 0.54089 0.09094 0.0
H254 H 0.64485 0.58249 0.09768 0.0
H255 H 0.78567 0.65221 0.19243 0.0
O256 O 0.68111 0.62312 0.84742 0.0
O257 O 0.74703 0.68561 0.89842 0.0
O258 O 0.79777 0.63305 0.96072 0.0
C259 C 0.70379 0.66697 0.86364 0.0
H260 H 0.80091 0.61621 0.41557 0.0
H261 H 0.65538 0.59183 0.37894 0.0
H262 H 0.65733 0.45963 0.07717 0.0
H263 H 0.63333 0.47873 0.6406 0.0
Co264 Co 0.13878 0.72008 0.23536 0.0
C265 C 0.12163 0.71824 0.92553 0.0
C266 C 0.19123 0.76785 0.9771 0.0
C267 C 0.18689 0.76466 0.83186 0.0
N268 N 0.1505 0.7383 0.03651 0.0
N269 N 0.14329 0.73331 0.80102 0.0
H270 H 0.08683 0.69017 0.9339 0.0
H271 H 0.22288 0.78792 0.03366 0.0
C272 C 0.23561 0.79199 0.3188 0.0
O273 O 0.2521 0.76866 0.25758 0.0
N274 N 0.1264 0.70395 0.43393 0.0
C275 C 0.10059 0.66243 0.49402 0.0
C276 C 0.10124 0.66784 0.63957 0.0
C277 C 0.14167 0.73388 0.54264 0.0
N278 N 0.12723 0.71279 0.66779 0.0
C279 C 0.16596 0.66292 0.09576 0.0
C280 C 0.20814 0.64695 0.31901 0.0
C281 C 0.1991 0.62056 0.19478 0.0
C282 C 0.17929 0.63059 0.08117 0.0
C283 C 0.19412 0.67954 0.32931 0.0
N284 N 0.17305 0.6874 0.21786 0.0
H285 H 0.14565 0.66421 1.01111 0.0
H286 H 0.19914 0.69742 0.42842 0.0
H287 H 0.08333 0.63048 0.43665 0.0
H288 H 0.16304 0.77045 0.53237 0.0
O289 O 0.0816 0.66803 0.18705 0.0
O290 O 0.08994 0.7357 0.23663 0.0
O291 O 0.19375 0.78106 0.29959 0.0
C292 C 0.06286 0.69288 0.20205 0.0
H293 H 0.21435 0.78076 0.75554 0.0
H294 H 0.08565 0.641 0.71806 0.0
H295 H 0.22374 0.64102 0.4104 0.0
H296 H 0.1695 0.61044 0.98505 0.0
Co297 Co 0.43227 0.12562 0.55384 0.0
C298 C 0.42676 0.11031 0.24545 0.0
C299 C 0.40678 0.15937 0.29797 0.0
C300 C 0.40386 0.15314 0.15274 0.0
N301 N 0.42278 0.13372 0.35535 0.0
N302 N 0.41703 0.12268 0.1213 0.0
H303 H 0.43952 0.08695 0.25483 0.0
H304 H 0.39755 0.18082 0.35693 0.0
C305 C 0.45112 0.21992 0.61356 0.0
O306 O 0.48515 0.23578 0.52303 0.0
N307 N 0.43707 0.11435 0.75243 0.0
C308 C 0.45564 0.09111 0.81131 0.0
C309 C 0.44949 0.08985 0.95614 0.0
C310 C 0.41889 0.12581 0.86114 0.0
N311 N 0.42652 0.11183 0.98593 0.0
C312 C 0.5214 0.1737 0.4093 0.0
C313 C 0.57337 0.19633 0.65098 0.0
C314 C 0.59298 0.1936 0.52244 0.0
C315 C 0.56738 0.18611 0.39943 0.0
C316 C 0.52686 0.18334 0.6561 0.0
N317 N 0.49985 0.16712 0.53778 0.0
H318 H 0.50394 0.16758 0.31086 0.0
H319 H 0.51243 0.18383 0.7575 0.0
H320 H 0.47294 0.07668 0.75345 0.0
H321 H 0.40034 0.14384 0.85005 0.0
O322 O 0.43278 0.07139 0.50698 0.0
O323 O 0.36939 0.07288 0.55602 0.0
O324 O 0.42195 0.17716 0.61766 0.0
C325 C 0.38868 0.04918 0.52066 0.0
H326 H 0.39369 0.17021 0.0768 0.0
H327 H 0.46178 0.07484 0.03284 0.0
H328 H 0.59265 0.20468 0.74886 0.0
H329 H 0.58105 0.18532 0.29644 0.0
Co330 Co 0.32909 0.42023 0.89566 0.0
C331 C 0.3322 0.40542 0.58621 0.0
C332 C 0.27812 0.41875 0.63733 0.0
C333 C 0.28155 0.41777 0.49209 0.0
N334 N 0.31039 0.41179 0.69697 0.0
N335 N 0.3157 0.40975 0.46148 0.0
H336 H 0.36236 0.40229 0.59483 0.0
H337 H 0.25588 0.42743 0.69372 0.0
C338 C 0.25392 0.43908 0.97942 0.0
O339 O 0.27513 0.47857 0.91426 0.0
N340 N 0.34562 0.42527 0.09443 0.0
C341 C 0.38749 0.44355 0.1548 0.0
C342 C 0.38209 0.4382 0.3003 0.0
C343 C 0.31558 0.40839 0.20295 0.0
N344 N 0.33684 0.41623 0.32826 0.0
C345 C 0.3801 0.50629 0.75193 0.0
C346 C 0.39935 0.56238 0.9828 0.0
C347 C 0.42459 0.58082 0.85709 0.0
C348 C 0.41228 0.55239 0.7391 0.0
C349 C 0.36647 0.51556 0.99085 0.0
N350 N 0.35808 0.48731 0.87705 0.0
H351 H 0.37748 0.48598 0.66228 0.0
H352 H 0.34954 0.5019 0.0909 0.0
H353 H 0.41959 0.4603 0.09767 0.0
H354 H 0.27876 0.39057 0.1924 0.0
O355 O 0.38333 0.41967 0.84741 0.0
O356 O 0.31741 0.35718 0.89841 0.0
O357 O 0.26667 0.40974 0.96069 0.0
C358 C 0.36065 0.37582 0.86364 0.0
H359 H 0.26351 0.42656 0.41553 0.0
H360 H 0.40906 0.45096 0.37893 0.0
H361 H 0.4071 0.58316 0.07713 0.0
H362 H 0.4311 0.56406 0.64057 0.0
Co363 Co 0.92566 0.32273 0.23532 0.0
C364 C 0.94281 0.32457 0.92549 0.0
C365 C 0.87321 0.27496 0.97705 0.0
C366 C 0.87756 0.27815 0.83182 0.0
N367 N 0.91395 0.30451 0.03647 0.0
N368 N 0.92115 0.3095 0.80098 0.0
H369 H 0.97762 0.35264 0.93386 0.0
H370 H 0.84157 0.25488 0.03361 0.0
C371 C 0.82884 0.25081 0.31875 0.0
O372 O 0.81234 0.27413 0.25753 0.0
N373 N 0.93805 0.33886 0.43389 0.0
C374 C 0.96386 0.38038 0.49398 0.0
C375 C 0.9632 0.37497 0.63952 0.0
C376 C 0.92277 0.30893 0.5426 0.0
N377 N 0.93722 0.33002 0.66775 0.0
C378 C 0.89847 0.37988 0.09572 0.0
C379 C 0.8563 0.39584 0.31899 0.0
C380 C 0.86534 0.42224 0.19477 0.0
C381 C 0.88514 0.41221 0.08114 0.0
C382 C 0.87032 0.36325 0.32928 0.0
N383 N 0.89139 0.35541 0.21783 0.0
H384 H 0.91878 0.37859 1.01107 0.0
H385 H 0.8653 0.34538 0.42838 0.0
H386 H 0.98111 0.41232 0.4366 0.0
H387 H 0.90141 0.27236 0.53234 0.0
O388 O 0.98284 0.37478 0.18702 0.0
O389 O 0.97451 0.30712 0.23659 0.0
O390 O 0.8707 0.26174 0.29955 0.0
C391 C 1.00159 0.34993 0.20201 0.0
H392 H 0.85009 0.26204 0.75549 0.0
H393 H 0.97879 0.40181 0.71802 0.0
H394 H 0.8407 0.40177 0.41039 0.0
H395 H 0.89493 0.43236 0.98502 0.0
loop_
_geom_bond_atom_site_label_1
_geom_bond_atom_site_label_2
_geom_bond_distance
_geom_bond_site_symmetry_2
_ccdc_geom_bond_type
Co0 N4 2.148 . S
Co0 N10 2.128 1_554 S
Co0 N20 2.194 . S
Co0 O25 2.351 . S
Co0 O26 2.155 . S
Co0 O27 2.096 . S
C1 N4 1.301 . S
C1 N5 1.328 . S
C1 H6 0.930 . S
C2 C3 1.333 . S
C2 N4 1.317 . S
C2 H7 0.930 . S
C3 C2 1.333 . S
C3 N5 1.350 . S
C3 H29 0.931 . S
N4 Co0 2.148 . S
N4 C1 1.301 . S
N4 C2 1.317 . S
N5 C1 1.328 . S
N5 C3 1.350 . S
H6 C1 0.930 . S
H7 C2 0.930 . S
C8 O9 1.224 . S
C8 O27 1.247 . S
O9 C8 1.224 . S
N10 Co0 2.128 1_556 S
N10 C11 1.355 . S
N10 C13 1.311 . S
C11 N10 1.355 . S
C11 C12 1.363 . S
C11 H23 0.929 . S
C12 C11 1.363 . S
C12 N14 1.375 . S
C12 H30 0.931 . S
C13 N10 1.311 . S
C13 N14 1.347 . S
C13 H24 0.929 . S
N14 C12 1.375 . S
N14 C13 1.347 . S
C15 C18 1.365 . S
C15 N20 1.328 . S
C15 H21 0.929 . S
C16 C17 1.362 . S
C16 C19 1.378 . S
C16 H31 0.929 . S
C17 C16 1.362 . S
C17 C18 1.366 . S
C18 C15 1.365 . S
C18 C17 1.366 . S
C18 H32 0.930 . S
C19 C16 1.378 . S
C19 N20 1.315 . S
C19 H22 0.930 . S
N20 Co0 2.194 . S
N20 C15 1.328 . S
N20 C19 1.315 . S
H21 C15 0.929 . S
H22 C19 0.930 . S
H23 C11 0.929 . S
H24 C13 0.929 . S
O25 Co0 2.351 . S
O25 C28 1.244 . S
O26 Co0 2.155 . S
O26 C28 1.240 . S
O27 Co0 2.096 . S
O27 C8 1.247 . S
C28 O25 1.244 . S
C28 O26 1.240 . S
H29 C3 0.931 . S
H30 C12 0.931 . S
H31 C16 0.929 . S
H32 C18 0.930 . S
Co33 N37 2.148 . S
Co33 N43 2.128 . S
Co33 N53 2.194 . S
Co33 O58 2.351 . S
Co33 O59 2.155 . S
Co33 O60 2.096 . S
C34 N37 1.301 . S
C34 N38 1.328 . S
C34 H39 0.930 . S
C35 C36 1.333 . S
C35 N37 1.317 . S
C35 H40 0.930 . S
C36 C35 1.333 . S
C36 N38 1.350 . S
C36 H62 0.931 . S
N37 Co33 2.148 . S
N37 C34 1.301 . S
N37 C35 1.317 . S
N38 C34 1.328 . S
N38 C36 1.350 . S
H39 C34 0.930 . S
H40 C35 0.930 . S
C41 O42 1.224 . S
C41 O60 1.247 . S
O42 C41 1.224 . S
N43 Co33 2.128 . S
N43 C44 1.355 . S
N43 C46 1.311 . S
C44 N43 1.355 . S
C44 C45 1.363 . S
C44 H56 0.929 . S
C45 C44 1.363 . S
C45 N47 1.375 . S
C45 H63 0.929 1_554 S
C46 N43 1.311 . S
C46 N47 1.347 . S
C46 H57 0.929 . S
N47 C45 1.375 . S
N47 C46 1.347 . S
C48 C51 1.365 . S
C48 N53 1.328 . S
C48 H54 0.929 . S
C49 C50 1.362 . S
C49 C52 1.378 . S
C49 H64 0.929 . S
C50 C49 1.362 . S
C50 C51 1.366 . S
C51 C48 1.365 . S
C51 C50 1.366 . S
C51 H65 0.930 . S
C52 C49 1.378 . S
C52 N53 1.315 . S
C52 H55 0.930 . S
N53 Co33 2.194 . S
N53 C48 1.328 . S
N53 C52 1.315 . S
H54 C48 0.929 . S
H55 C52 0.930 . S
H56 C44 0.929 . S
H57 C46 0.929 . S
O58 Co33 2.351 . S
O58 C61 1.244 . S
O59 Co33 2.155 . S
O59 C61 1.240 . S
O60 Co33 2.096 . S
O60 C41 1.247 . S
C61 O58 1.244 . S
C61 O59 1.240 . S
H62 C36 0.931 . S
H63 C45 0.929 1_556 S
H64 C49 0.929 . S
H65 C51 0.930 . S
Co66 N70 2.148 . S
Co66 N76 2.128 . S
Co66 N86 2.194 . S
Co66 O91 2.351 . S
Co66 O92 2.155 . S
Co66 O93 2.096 . S
C67 N70 1.301 1_554 S
C67 N71 1.328 . S
C67 H72 0.930 . S
C68 C69 1.333 . S
C68 N70 1.317 1_554 S
C68 H73 0.927 1_554 S
C69 C68 1.333 . S
C69 N71 1.350 . S
C69 H95 0.931 . S
N70 Co66 2.148 . S
N70 C67 1.301 1_556 S
N70 C68 1.317 1_556 S
N71 C67 1.328 . S
N71 C69 1.350 . S
H72 C67 0.930 . S
H73 C68 0.927 1_556 S
C74 O75 1.224 . S
C74 O93 1.247 . S
O75 C74 1.224 . S
N76 Co66 2.128 . S
N76 C77 1.355 . S
N76 C79 1.311 . S
C77 N76 1.355 . S
C77 C78 1.363 . S
C77 H89 0.929 . S
C78 C77 1.363 . S
C78 N80 1.375 . S
C78 H96 0.931 . S
C79 N76 1.311 . S
C79 N80 1.347 . S
C79 H90 0.929 . S
N80 C78 1.375 . S
N80 C79 1.347 . S
C81 C84 1.365 . S
C81 N86 1.328 . S
C81 H87 0.929 . S
C82 C83 1.362 . S
C82 C85 1.378 . S
C82 H97 0.929 . S
C83 C82 1.362 . S
C83 C84 1.366 . S
C84 C81 1.365 . S
C84 C83 1.366 . S
C84 H98 0.930 . S
C85 C82 1.378 . S
C85 N86 1.315 . S
C85 H88 0.930 . S
N86 Co66 2.194 . S
N86 C81 1.328 . S
N86 C85 1.315 . S
H87 C81 0.929 . S
H88 C85 0.930 . S
H89 C77 0.929 . S
H90 C79 0.929 . S
O91 Co66 2.351 . S
O91 C94 1.244 . S
O92 Co66 2.155 . S
O92 C94 1.240 . S
O93 Co66 2.096 . S
O93 C74 1.247 . S
C94 O91 1.244 . S
C94 O92 1.240 . S
H95 C69 0.931 . S
H96 C78 0.931 . S
H97 C82 0.929 . S
H98 C84 0.930 . S
Co99 N103 2.148 . S
Co99 N109 2.128 1_554 S
Co99 N119 2.194 . S
Co99 O124 2.351 . S
Co99 O125 2.155 . S
Co99 O126 2.096 . S
C100 N103 1.301 . S
C100 N104 1.328 . S
C100 H105 0.930 . S
C101 C102 1.333 . S
C101 N103 1.317 . S
C101 H106 0.930 . S
C102 C101 1.333 . S
C102 N104 1.350 . S
C102 H128 0.931 . S
N103 Co99 2.148 . S
N103 C100 1.301 . S
N103 C101 1.317 . S
N104 C100 1.328 . S
N104 C102 1.350 . S
H105 C100 0.930 . S
H106 C101 0.930 . S
C107 O108 1.224 . S
C107 O126 1.247 . S
O108 C107 1.224 . S
N109 Co99 2.128 1_556 S
N109 C110 1.355 . S
N109 C112 1.311 . S
C110 N109 1.355 . S
C110 C111 1.363 . S
C110 H122 0.929 . S
C111 C110 1.363 . S
C111 N113 1.375 . S
C111 H129 0.931 . S
C112 N109 1.311 . S
C112 N113 1.347 . S
C112 H123 0.929 . S
N113 C111 1.375 . S
N113 C112 1.347 . S
C114 C117 1.365 . S
C114 N119 1.328 . S
C114 H120 0.929 . S
C115 C116 1.362 . S
C115 C118 1.378 . S
C115 H130 0.929 . S
C116 C115 1.362 . S
C116 C117 1.366 . S
C117 C114 1.365 . S
C117 C116 1.366 . S
C117 H131 0.930 . S
C118 C115 1.378 . S
C118 N119 1.315 . S
C118 H121 0.930 . S
N119 Co99 2.194 . S
N119 C114 1.328 . S
N119 C118 1.315 . S
H120 C114 0.929 . S
H121 C118 0.930 . S
H122 C110 0.929 . S
H123 C112 0.929 . S
O124 Co99 2.351 . S
O124 C127 1.244 . S
O125 Co99 2.155 . S
O125 C127 1.240 . S
O126 Co99 2.096 . S
O126 C107 1.247 . S
C127 O124 1.244 . S
C127 O125 1.240 . S
H128 C102 0.931 . S
H129 C111 0.931 . S
H130 C115 0.929 . S
H131 C117 0.930 . S
Co132 N136 2.148 . S
Co132 N142 2.128 . S
Co132 N152 2.194 . S
Co132 O157 2.351 . S
Co132 O158 2.155 . S
Co132 O159 2.096 . S
C133 N136 1.301 . S
C133 N137 1.328 . S
C133 H138 0.930 . S
C134 C135 1.333 . S
C134 N136 1.317 . S
C134 H139 0.930 . S
C135 C134 1.333 . S
C135 N137 1.350 . S
C135 H161 0.931 . S
N136 Co132 2.148 . S
N136 C133 1.301 . S
N136 C134 1.317 . S
N137 C133 1.328 . S
N137 C135 1.350 . S
H138 C133 0.930 . S
H139 C134 0.930 . S
C140 O141 1.224 . S
C140 O159 1.247 . S
O141 C140 1.224 . S
N142 Co132 2.128 . S
N142 C143 1.355 . S
N142 C145 1.311 . S
C143 N142 1.355 . S
C143 C144 1.363 . S
C143 H155 0.929 . S
C144 C143 1.363 . S
C144 N146 1.375 . S
C144 H162 0.930 1_554 S
C145 N142 1.311 . S
C145 N146 1.347 . S
C145 H156 0.929 . S
N146 C144 1.375 . S
N146 C145 1.347 . S
C147 C150 1.365 . S
C147 N152 1.328 . S
C147 H153 0.929 . S
C148 C149 1.362 . S
C148 C151 1.378 . S
C148 H163 0.929 . S
C149 C148 1.362 . S
C149 C150 1.366 . S
C150 C147 1.365 . S
C150 C149 1.366 . S
C150 H164 0.930 . S
C151 C148 1.378 . S
C151 N152 1.315 . S
C151 H154 0.930 . S
N152 Co132 2.194 . S
N152 C147 1.328 . S
N152 C151 1.315 . S
H153 C147 0.929 . S
H154 C151 0.930 . S
H155 C143 0.929 . S
H156 C145 0.929 . S
O157 Co132 2.351 . S
O157 C160 1.244 . S
O158 Co132 2.155 . S
O158 C160 1.240 . S
O159 Co132 2.096 . S
O159 C140 1.247 . S
C160 O157 1.244 . S
C160 O158 1.240 . S
H161 C135 0.931 . S
H162 C144 0.930 1_556 S
H163 C148 0.929 . S
H164 C150 0.930 . S
Co165 N169 2.148 . S
Co165 N175 2.128 . S
Co165 N185 2.194 . S
Co165 O190 2.351 . S
Co165 O191 2.155 . S
Co165 O192 2.096 . S
C166 N169 1.301 1_554 S
C166 N170 1.328 . S
C166 H171 0.930 . S
C167 C168 1.333 . S
C167 N169 1.317 1_554 S
C167 H172 0.927 1_554 S
C168 C167 1.333 . S
C168 N170 1.350 . S
C168 H194 0.931 . S
N169 Co165 2.148 . S
N169 C166 1.301 1_556 S
N169 C167 1.317 1_556 S
N170 C166 1.328 . S
N170 C168 1.350 . S
H171 C166 0.930 . S
H172 C167 0.927 1_556 S
C173 O174 1.224 . S
C173 O192 1.247 . S
O174 C173 1.224 . S
N175 Co165 2.128 . S
N175 C176 1.355 . S
N175 C178 1.311 . S
C176 N175 1.355 . S
C176 C177 1.363 . S
C176 H188 0.929 . S
C177 C176 1.363 . S
C177 N179 1.375 . S
C177 H195 0.931 . S
C178 N175 1.311 . S
C178 N179 1.347 . S
C178 H189 0.929 . S
N179 C177 1.375 . S
N179 C178 1.347 . S
C180 C183 1.365 . S
C180 N185 1.328 . S
C180 H186 0.929 . S
C181 C182 1.362 . S
C181 C184 1.378 . S
C181 H196 0.929 . S
C182 C181 1.362 . S
C182 C183 1.366 . S
C183 C180 1.365 . S
C183 C182 1.366 . S
C183 H197 0.930 . S
C184 C181 1.378 . S
C184 N185 1.315 . S
C184 H187 0.930 . S
N185 Co165 2.194 . S
N185 C180 1.328 . S
N185 C184 1.315 . S
H186 C180 0.929 . S
H187 C184 0.930 . S
H188 C176 0.929 . S
H189 C178 0.929 . S
O190 Co165 2.351 . S
O190 C193 1.244 . S
O191 Co165 2.155 . S
O191 C193 1.240 . S
O192 Co165 2.096 . S
O192 C173 1.247 . S
C193 O190 1.244 . S
C193 O191 1.240 . S
H194 C168 0.931 . S
H195 C177 0.931 . S
H196 C181 0.929 . S
H197 C183 0.930 . S
Co198 N202 2.148 . S
Co198 N208 2.128 . S
Co198 N218 2.194 . S
Co198 O223 2.351 . S
Co198 O224 2.155 . S
Co198 O225 2.096 . S
C199 N202 1.301 . S
C199 N203 1.328 . S
C199 H204 0.930 . S
C200 C201 1.333 . S
C200 N202 1.317 . S
C200 H205 0.930 . S
C201 C200 1.333 . S
C201 N203 1.350 . S
C201 H227 0.931 . S
N202 Co198 2.148 . S
N202 C199 1.301 . S
N202 C200 1.317 . S
N203 C199 1.328 . S
N203 C201 1.350 . S
H204 C199 0.930 . S
H205 C200 0.930 . S
C206 O207 1.224 . S
C206 O225 1.247 . S
O207 C206 1.224 . S
N208 Co198 2.128 . S
N208 C209 1.355 . S
N208 C211 1.311 . S
C209 N208 1.355 . S
C209 C210 1.363 . S
C209 H221 0.929 . S
C210 C209 1.363 . S
C210 N212 1.375 . S
C210 H228 0.930 1_556 S
C211 N208 1.311 . S
C211 N212 1.347 . S
C211 H222 0.929 . S
N212 C210 1.375 . S
N212 C211 1.347 . S
C213 C216 1.365 . S
C213 N218 1.328 . S
C213 H219 0.929 . S
C214 C215 1.362 . S
C214 C217 1.378 . S
C214 H229 0.929 . S
C215 C214 1.362 . S
C215 C216 1.366 . S
C216 C213 1.365 . S
C216 C215 1.366 . S
C216 H230 0.930 . S
C217 C214 1.378 . S
C217 N218 1.315 . S
C217 H220 0.930 . S
N218 Co198 2.194 . S
N218 C213 1.328 . S
N218 C217 1.315 . S
H219 C213 0.929 . S
H220 C217 0.930 . S
H221 C209 0.929 . S
H222 C211 0.929 . S
O223 Co198 2.351 . S
O223 C226 1.244 . S
O224 Co198 2.155 . S
O224 C226 1.240 . S
O225 Co198 2.096 . S
O225 C206 1.247 . S
C226 O223 1.244 . S
C226 O224 1.240 . S
H227 C201 0.931 . S
H228 C210 0.930 1_554 S
H229 C214 0.929 . S
H230 C216 0.930 . S
Co231 N235 2.148 . S
Co231 N241 2.128 1_556 S
Co231 N251 2.194 . S
Co231 O256 2.351 . S
Co231 O257 2.155 . S
Co231 O258 2.096 . S
C232 N235 1.301 . S
C232 N236 1.328 . S
C232 H237 0.930 . S
C233 C234 1.333 . S
C233 N235 1.317 . S
C233 H238 0.930 . S
C234 C233 1.333 . S
C234 N236 1.350 . S
C234 H260 0.931 . S
N235 Co231 2.148 . S
N235 C232 1.301 . S
N235 C233 1.317 . S
N236 C232 1.328 . S
N236 C234 1.350 . S
H237 C232 0.930 . S
H238 C233 0.930 . S
C239 O240 1.224 . S
C239 O258 1.247 . S
O240 C239 1.224 . S
N241 Co231 2.128 1_554 S
N241 C242 1.355 . S
N241 C244 1.311 . S
C242 N241 1.355 . S
C242 C243 1.363 . S
C242 H254 0.929 . S
C243 C242 1.363 . S
C243 N245 1.375 . S
C243 H261 0.931 . S
C244 N241 1.311 . S
C244 N245 1.347 . S
C244 H255 0.929 . S
N245 C243 1.375 . S
N245 C244 1.347 . S
C246 C249 1.365 . S
C246 N251 1.328 . S
C246 H252 0.929 . S
C247 C248 1.362 . S
C247 C250 1.378 . S
C247 H262 0.929 . S
C248 C247 1.362 . S
C248 C249 1.366 . S
C249 C246 1.365 . S
C249 C248 1.366 . S
C249 H263 0.930 . S
C250 C247 1.378 . S
C250 N251 1.315 . S
C250 H253 0.930 . S
N251 Co231 2.194 . S
N251 C246 1.328 . S
N251 C250 1.315 . S
H252 C246 0.929 . S
H253 C250 0.930 . S
H254 C242 0.929 . S
H255 C244 0.929 . S
O256 Co231 2.351 . S
O256 C259 1.244 . S
O257 Co231 2.155 . S
O257 C259 1.240 . S
O258 Co231 2.096 . S
O258 C239 1.247 . S
C259 O256 1.244 . S
C259 O257 1.240 . S
H260 C234 0.931 . S
H261 C243 0.931 . S
H262 C247 0.929 . S
H263 C249 0.930 . S
Co264 N268 2.148 . S
Co264 N274 2.128 . S
Co264 N284 2.194 . S
Co264 O289 2.351 . S
Co264 O290 2.155 . S
Co264 O291 2.096 . S
C265 N268 1.301 1_556 S
C265 N269 1.328 . S
C265 H270 0.930 . S
C266 C267 1.333 . S
C266 N268 1.317 1_556 S
C266 H271 0.927 1_556 S
C267 C266 1.333 . S
C267 N269 1.350 . S
C267 H293 0.931 . S
N268 Co264 2.148 . S
N268 C265 1.301 1_554 S
N268 C266 1.317 1_554 S
N269 C265 1.328 . S
N269 C267 1.350 . S
H270 C265 0.930 . S
H271 C266 0.927 1_554 S
C272 O273 1.224 . S
C272 O291 1.247 . S
O273 C272 1.224 . S
N274 Co264 2.128 . S
N274 C275 1.355 . S
N274 C277 1.311 . S
C275 N274 1.355 . S
C275 C276 1.363 . S
C275 H287 0.929 . S
C276 C275 1.363 . S
C276 N278 1.375 . S
C276 H294 0.931 . S
C277 N274 1.311 . S
C277 N278 1.347 . S
C277 H288 0.929 . S
N278 C276 1.375 . S
N278 C277 1.347 . S
C279 C282 1.365 . S
C279 N284 1.328 . S
C279 H285 0.929 . S
C280 C281 1.362 . S
C280 C283 1.378 . S
C280 H295 0.929 . S
C281 C280 1.362 . S
C281 C282 1.366 . S
C282 C279 1.365 . S
C282 C281 1.366 . S
C282 H296 0.930 . S
C283 C280 1.378 . S
C283 N284 1.315 . S
C283 H286 0.930 . S
N284 Co264 2.194 . S
N284 C279 1.328 . S
N284 C283 1.315 . S
H285 C279 0.929 . S
H286 C283 0.930 . S
H287 C275 0.929 . S
H288 C277 0.929 . S
O289 Co264 2.351 . S
O289 C292 1.244 . S
O290 Co264 2.155 . S
O290 C292 1.240 . S
O291 Co264 2.096 . S
O291 C272 1.247 . S
C292 O289 1.244 . S
C292 O290 1.240 . S
H293 C267 0.931 . S
H294 C276 0.931 . S
H295 C280 0.929 . S
H296 C282 0.930 . S
Co297 N301 2.148 . S
Co297 N307 2.128 . S
Co297 N317 2.194 . S
Co297 O322 2.351 . S
Co297 O323 2.155 . S
Co297 O324 2.096 . S
C298 N301 1.301 . S
C298 N302 1.328 . S
C298 H303 0.930 . S
C299 C300 1.333 . S
C299 N301 1.317 . S
C299 H304 0.930 . S
C300 C299 1.333 . S
C300 N302 1.350 . S
C300 H326 0.931 . S
N301 Co297 2.148 . S
N301 C298 1.301 . S
N301 C299 1.317 . S
N302 C298 1.328 . S
N302 C300 1.350 . S
H303 C298 0.930 . S
H304 C299 0.930 . S
C305 O306 1.224 . S
C305 O324 1.247 . S
O306 C305 1.224 . S
N307 Co297 2.128 . S
N307 C308 1.355 . S
N307 C310 1.311 . S
C308 N307 1.355 . S
C308 C309 1.363 . S
C308 H320 0.929 . S
C309 C308 1.363 . S
C309 N311 1.375 . S
C309 H327 0.930 1_556 S
C310 N307 1.311 . S
C310 N311 1.347 . S
C310 H321 0.929 . S
N311 C309 1.375 . S
N311 C310 1.347 . S
C312 C315 1.365 . S
C312 N317 1.328 . S
C312 H318 0.929 . S
C313 C314 1.362 . S
C313 C316 1.378 . S
C313 H328 0.929 . S
C314 C313 1.362 . S
C314 C315 1.366 . S
C315 C312 1.365 . S
C315 C314 1.366 . S
C315 H329 0.930 . S
C316 C313 1.378 . S
C316 N317 1.315 . S
C316 H319 0.930 . S
N317 Co297 2.194 . S
N317 C312 1.328 . S
N317 C316 1.315 . S
H318 C312 0.929 . S
H319 C316 0.930 . S
H320 C308 0.929 . S
H321 C310 0.929 . S
O322 Co297 2.351 . S
O322 C325 1.244 . S
O323 Co297 2.155 . S
O323 C325 1.240 . S
O324 Co297 2.096 . S
O324 C305 1.247 . S
C325 O322 1.244 . S
C325 O323 1.240 . S
H326 C300 0.931 . S
H327 C309 0.930 1_554 S
H328 C313 0.929 . S
H329 C315 0.930 . S
Co330 N334 2.148 . S
Co330 N340 2.128 1_556 S
Co330 N350 2.194 . S
Co330 O355 2.351 . S
Co330 O356 2.155 . S
Co330 O357 2.096 . S
C331 N334 1.301 . S
C331 N335 1.328 . S
C331 H336 0.930 . S
C332 C333 1.333 . S
C332 N334 1.317 . S
C332 H337 0.930 . S
C333 C332 1.333 . S
C333 N335 1.350 . S
C333 H359 0.931 . S
N334 Co330 2.148 . S
N334 C331 1.301 . S
N334 C332 1.317 . S
N335 C331 1.328 . S
N335 C333 1.350 . S
H336 C331 0.930 . S
H337 C332 0.930 . S
C338 O339 1.224 . S
C338 O357 1.247 . S
O339 C338 1.224 . S
N340 Co330 2.128 1_554 S
N340 C341 1.355 . S
N340 C343 1.311 . S
C341 N340 1.355 . S
C341 C342 1.363 . S
C341 H353 0.929 . S
C342 C341 1.363 . S
C342 N344 1.375 . S
C342 H360 0.931 . S
C343 N340 1.311 . S
C343 N344 1.347 . S
C343 H354 0.929 . S
N344 C342 1.375 . S
N344 C343 1.347 . S
C345 C348 1.365 . S
C345 N350 1.328 . S
C345 H351 0.929 . S
C346 C347 1.362 . S
C346 C349 1.378 . S
C346 H361 0.929 . S
C347 C346 1.362 . S
C347 C348 1.366 . S
C348 C345 1.365 . S
C348 C347 1.366 . S
C348 H362 0.930 . S
C349 C346 1.378 . S
C349 N350 1.315 . S
C349 H352 0.930 . S
N350 Co330 2.194 . S
N350 C345 1.328 . S
N350 C349 1.315 . S
H351 C345 0.929 . S
H352 C349 0.930 . S
H353 C341 0.929 . S
H354 C343 0.929 . S
O355 Co330 2.351 . S
O355 C358 1.244 . S
O356 Co330 2.155 . S
O356 C358 1.240 . S
O357 Co330 2.096 . S
O357 C338 1.247 . S
C358 O355 1.244 . S
C358 O356 1.240 . S
H359 C333 0.931 . S
H360 C342 0.931 . S
H361 C346 0.929 . S
H362 C348 0.930 . S
Co363 N367 2.148 . S
Co363 N373 2.128 . S
Co363 N383 2.194 . S
Co363 O388 2.351 . S
Co363 O389 2.155 . S
Co363 O390 2.096 . S
C364 N367 1.301 1_556 S
C364 N368 1.328 . S
C364 H369 0.930 . S
C365 C366 1.333 . S
C365 N367 1.317 1_556 S
C365 H370 0.927 1_556 S
C366 C365 1.333 . S
C366 N368 1.350 . S
C366 H392 0.931 . S
N367 Co363 2.148 . S
N367 C364 1.301 1_554 S
N367 C365 1.317 1_554 S
N368 C364 1.328 . S
N368 C366 1.350 . S
H369 C364 0.930 . S
H370 C365 0.927 1_554 S
C371 O372 1.224 . S
C371 O390 1.247 . S
O372 C371 1.224 . S
N373 Co363 2.128 . S
N373 C374 1.355 . S
N373 C376 1.311 . S
C374 N373 1.355 . S
C374 C375 1.363 . S
C374 H386 0.929 . S
C375 C374 1.363 . S
C375 N377 1.375 . S
C375 H393 0.931 . S
C376 N373 1.311 . S
C376 N377 1.347 . S
C376 H387 0.929 . S
N377 C375 1.375 . S
N377 C376 1.347 . S
C378 C381 1.365 . S
C378 N383 1.328 . S
C378 H384 0.929 . S
C379 C380 1.362 . S
C379 C382 1.378 . S
C379 H394 0.929 . S
C380 C379 1.362 . S
C380 C381 1.366 . S
C381 C378 1.365 . S
C381 C380 1.366 . S
C381 H395 0.930 . S
C382 C379 1.378 . S
C382 N383 1.315 . S
C382 H385 0.930 . S
N383 Co363 2.194 . S
N383 C378 1.328 . S
N383 C382 1.315 . S
H384 C378 0.929 . S
H385 C382 0.930 . S
H386 C374 0.929 . S
H387 C376 0.929 . S
O388 Co363 2.351 . S
O388 C391 1.244 . S
O389 Co363 2.155 . S
O389 C391 1.240 . S
O390 Co363 2.096 . S
O390 C371 1.247 . S
C391 O388 1.244 . S
C391 O389 1.240 . S
H392 C366 0.931 . S
H393 C375 0.931 . S
H394 C379 0.929 . S
H395 C381 0.930 . S
C28 C391 1.584 1_455 S
C61 C226 1.584 1_545 S
C259 C94 1.584 . S
C292 C127 1.584 1_455 S
C325 C160 1.584 1_545 S
C358 C193 1.584 . S
N14 N5 1.561 . S
N38 N47 1.561 1_556 S
N80 N71 1.561 . S
N113 N104 1.561 . S
N146 N137 1.561 1_554 S
N170 N179 1.561 . S
N212 N203 1.561 1_556 S
N236 N245 1.561 . S
N278 N269 1.561 . S
N302 N311 1.561 1_554 S
N335 N344 1.561 . S
N377 N368 1.561 . S
C17 C281 1.650 . S
C50 C314 1.650 . S
C83 C347 1.650 . S
C380 C116 1.650 . S
C215 C149 1.650 . S
C248 C182 1.650 . S
C338 C8 1.313 1_556 S
C371 C41 1.312 . S
C206 C74 1.313 . S
C107 C239 1.313 1_554 S
C140 C272 1.312 . S
C173 C305 1.313 . S
