# Generated by pormake.
# Topology smu, (6)-cn, num edge types: 1
# Building blocks:
#     Node 0, Type 0, BuildingBlock: HISSIN_clean_sbu_0, # of connection points: 6
#     Node 1, Type 0, BuildingBlock: HISSIN_clean_sbu_0, # of connection points: 6
#     Node 2, Type 0, BuildingBlock: HISSIN_clean_sbu_0, # of connection points: 6
#     Node 3, Type 0, BuildingBlock: HISSIN_clean_sbu_0, # of connection points: 6
#     Node 4, Type 0, BuildingBlock: HISSIN_clean_sbu_0, # of connection points: 6
#     Node 5, Type 0, BuildingBlock: HISSIN_clean_sbu_0, # of connection points: 6
#     Edge 6, Type (0, 0), BuildingBlock: KIFKEQ_clean_linker_1, # of connection points: 2
#     Edge 7, Type (0, 0), BuildingBlock: KIFKEQ_clean_linker_1, # of connection points: 2
#     Edge 8, Type (0, 0), BuildingBlock: KIFKEQ_clean_linker_1, # of connection points: 2
#     Edge 9, Type (0, 0), BuildingBlock: KIFKEQ_clean_linker_1, # of connection points: 2
#     Edge 10, Type (0, 0), BuildingBlock: KIFKEQ_clean_linker_1, # of connection points: 2
#     Edge 11, Type (0, 0), BuildingBlock: KIFKEQ_clean_linker_1, # of connection points: 2
#     Edge 12, Type (0, 0), BuildingBlock: KIFKEQ_clean_linker_1, # of connection points: 2
#     Edge 13, Type (0, 0), BuildingBlock: KIFKEQ_clean_linker_1, # of connection points: 2
#     Edge 14, Type (0, 0), BuildingBlock: KIFKEQ_clean_linker_1, # of connection points: 2
#     Edge 15, Type (0, 0), BuildingBlock: KIFKEQ_clean_linker_1, # of connection points: 2
#     Edge 16, Type (0, 0), BuildingBlock: KIFKEQ_clean_linker_1, # of connection points: 2
#     Edge 17, Type (0, 0), BuildingBlock: KIFKEQ_clean_linker_1, # of connection points: 2
#     Edge 18, Type (0, 0), BuildingBlock: KIFKEQ_clean_linker_1, # of connection points: 2
#     Edge 19, Type (0, 0), BuildingBlock: KIFKEQ_clean_linker_1, # of connection points: 2
#     Edge 20, Type (0, 0), BuildingBlock: KIFKEQ_clean_linker_1, # of connection points: 2
#     Edge 21, Type (0, 0), BuildingBlock: KIFKEQ_clean_linker_1, # of connection points: 2
#     Edge 22, Type (0, 0), BuildingBlock: KIFKEQ_clean_linker_1, # of connection points: 2
#     Edge 23, Type (0, 0), BuildingBlock: KIFKEQ_clean_linker_1, # of connection points: 2
# Relax obj value: 0.220
# Max RMSD: 0.312
# Mean RMSD: 0.312
data_MOF--net-smu--node1-HISSIN_clean_sbu_0--edge1-KIFKEQ_clean_linker_1
_symmetry_space_group_name_H-M    P1
_symmetry_Int_Tables_number       1
_symmetry_cell_setting            triclinic
loop_
_symmetry_equiv_pos_as_xyz
'x, y, z'
_cell_length_a     40.412567
_cell_length_b     40.409049
_cell_length_c     28.347094
_cell_angle_alpha  89.93653
_cell_angle_beta   89.910668
_cell_angle_gamma 120.06221
loop_
_atom_site_label
_atom_site_type_symbol
_atom_site_fract_x
_atom_site_fract_y
_atom_site_fract_z
_atom_type_partial_charge
Eu0 Eu 0.31313 0.11753 0.27015 0.0
Eu1 Eu 0.37802 0.0912 0.27024 0.0
C2 C 0.32997 0.08097 0.17496 0.0
C3 C 0.23549 0.15081 0.26213 0.0
C4 C 0.23096 0.16426 0.21826 0.0
C5 C 0.18268 0.15679 0.29347 0.0
C6 C 0.20335 0.17514 0.21262 0.0
C7 C 0.21041 0.14621 0.29923 0.0
C8 C 0.17981 0.17254 0.25062 0.0
C9 C 0.26991 0.14841 0.27287 0.0
O10 O 0.40643 0.15356 0.24931 0.0
O11 O 0.36906 0.16541 0.29676 0.0
C12 C 0.40065 0.17796 0.27283 0.0
O13 O 0.30274 0.08668 0.33988 0.0
O14 O 0.41614 0.07386 0.23727 0.0
O15 O 0.42129 0.08721 0.31159 0.0
O16 O 0.35997 0.08786 0.3461 0.0
C17 C 0.32661 0.07985 0.36349 0.0
O18 O 0.27788 0.05549 0.25624 0.0
O19 O 0.32092 0.0348 0.2737 0.0
O20 O 0.35271 0.07295 0.19911 0.0
O21 O 0.26719 0.12273 0.30295 0.0
O22 O 0.29605 0.15669 0.24051 0.0
O23 O 0.3159 0.10178 0.1927 0.0
C24 C 0.47858 0.10026 0.27149 0.0
C25 C 0.50164 0.11991 0.31041 0.0
C26 C 0.53624 0.11422 0.22785 0.0
C27 C 0.54138 0.13588 0.30838 0.0
C28 C 0.49643 0.09794 0.23004 0.0
C29 C 0.55932 0.13282 0.2673 0.0
C30 C 0.43614 0.07934 0.2755 0.0
C31 C 0.28618 0.0284 0.26346 0.0
H32 H 0.24997 0.16827 0.1891 0.0
H33 H 0.16506 0.15482 0.32339 0.0
H34 H 0.20128 0.18689 0.17911 0.0
H35 H 0.2137 0.13655 0.33366 0.0
H36 H 0.48894 0.12203 0.34311 0.0
H37 H 0.54882 0.11187 0.19519 0.0
H38 H 0.55779 0.14942 0.33979 0.0
H39 H 0.47956 0.08286 0.19949 0.0
Eu40 Eu 0.82041 0.70791 0.27043 0.0
Eu41 Eu 0.72882 0.64411 0.27014 0.0
C42 C 0.76686 0.69307 0.1761 0.0
C43 C 0.93162 0.78662 0.26638 0.0
C44 C 0.94806 0.80012 0.22176 0.0
C45 C 0.99155 0.83241 0.30312 0.0
C46 C 0.98638 0.82917 0.21795 0.0
C47 C 0.9534 0.80381 0.30685 0.0
C48 C 1.00891 0.84478 0.25865 0.0
C49 C 0.89467 0.75111 0.27258 0.0
O50 O 0.76242 0.6148 0.25049 0.0
O51 O 0.81282 0.65217 0.29634 0.0
C52 C 0.79284 0.62036 0.27342 0.0
O53 O 0.80031 0.7177 0.34097 0.0
O54 O 0.67429 0.60608 0.23521 0.0
O55 O 0.68012 0.6014 0.3104 0.0
O56 O 0.74142 0.66289 0.34606 0.0
C57 C 0.76859 0.69508 0.36403 0.0
O58 O 0.79462 0.74444 0.26018 0.0
O59 O 0.73036 0.70138 0.27557 0.0
O60 O 0.73568 0.67292 0.20096 0.0
O61 O 0.87206 0.74968 0.30629 0.0
O62 O 0.87643 0.72944 0.23661 0.0
O63 O 0.80134 0.70338 0.19289 0.0
C64 C 0.6371 0.54408 0.26976 0.0
C65 C 0.64083 0.52089 0.30397 0.0
C66 C 0.58689 0.4866 0.23212 0.0
C67 C 0.61743 0.48106 0.30264 0.0
C68 C 0.6103 0.52643 0.23348 0.0
C69 C 0.58965 0.46337 0.26717 0.0
C70 C 0.65852 0.58643 0.27346 0.0
C71 C 0.75929 0.73632 0.26756 0.0
H72 H 0.9319 0.78726 0.18994 0.0
H73 H 1.00793 0.84312 0.33527 0.0
H74 H 0.99867 0.83851 0.18314 0.0
H75 H 0.94156 0.79353 0.34169 0.0
H76 H 0.66129 0.53346 0.33239 0.0
H77 H 0.56568 0.47417 0.20449 0.0
H78 H 0.62096 0.46415 0.3297 0.0
H79 H 0.60667 0.54356 0.20679 0.0
Eu80 Eu 0.91032 0.20335 0.26799 0.0
Eu81 Eu 0.93403 0.29504 0.26458 0.0
C82 C 0.93907 0.2529 0.1704 0.0
C83 C 0.88164 0.09189 0.26888 0.0
C84 C 0.88245 0.07389 0.22697 0.0
C85 C 0.8577 0.03191 0.31094 0.0
C86 C 0.86994 0.03485 0.22681 0.0
C87 C 0.86984 0.07084 0.31099 0.0
C88 C 0.85683 0.01343 0.26866 0.0
C89 C 0.89202 0.1322 0.26854 0.0
O90 O 0.87003 0.26175 0.27777 0.0
O91 O 0.85559 0.20241 0.2516 0.0
C92 C 0.845 0.22674 0.26484 0.0
O93 O 0.9229 0.22187 0.3445 0.0
O94 O 0.94305 0.34529 0.22465 0.0
O95 O 0.94955 0.34888 0.30032 0.0
O96 O 0.95052 0.28747 0.33789 0.0
C97 C 0.94158 0.25655 0.36256 0.0
O98 O 0.97149 0.23599 0.28812 0.0
O99 O 0.98875 0.29269 0.25033 0.0
O100 O 0.93085 0.27803 0.18808 0.0
O101 O 0.87915 0.14658 0.29999 0.0
O102 O 0.91424 0.15615 0.23635 0.0
O103 O 0.93591 0.22418 0.19561 0.0
C104 C 0.92725 0.38762 0.26381 0.0
C105 C 0.90624 0.3872 0.3037 0.0
C106 C 0.91283 0.43335 0.22659 0.0
C107 C 0.88893 0.40988 0.30504 0.0
C108 C 0.93003 0.41071 0.22527 0.0
C109 C 0.89225 0.43356 0.2666 0.0
C110 C 0.94799 0.36592 0.26205 0.0
C111 C 0.99712 0.2673 0.26741 0.0
H112 H 0.89166 0.0897 0.1941 0.0
H113 H 0.8475 0.01597 0.3436 0.0
H114 H 0.86985 0.02124 0.19386 0.0
H115 H 0.86938 0.08434 0.3438 0.0
H116 H 0.90342 0.36965 0.33404 0.0
H117 H 0.91666 0.45151 0.19657 0.0
H118 H 0.87288 0.40876 0.33622 0.0
H119 H 0.94621 0.4118 0.19421 0.0
Eu120 Eu 0.0951 0.37507 0.76437 0.0
Eu121 Eu 0.11898 0.30715 0.7667 0.0
C122 C 0.08659 0.32754 0.86166 0.0
C123 C 0.10025 0.47355 0.76506 0.0
C124 C 0.12321 0.49468 0.80339 0.0
C125 C 0.11175 0.53304 0.72869 0.0
C126 C 0.14002 0.53462 0.80442 0.0
C127 C 0.09503 0.49323 0.72768 0.0
C128 C 0.13424 0.55436 0.76723 0.0
C129 C 0.07993 0.43112 0.76406 0.0
O130 O 0.05756 0.27731 0.78577 0.0
O131 O 0.04024 0.31788 0.75099 0.0
C132 C 0.03191 0.28379 0.76695 0.0
O133 O 0.09774 0.36176 0.68775 0.0
O134 O 0.14814 0.27969 0.79896 0.0
O135 O 0.11734 0.25812 0.7319 0.0
O136 O 0.09327 0.30305 0.69452 0.0
C137 C 0.08963 0.32856 0.6698 0.0
O138 O 0.15948 0.40713 0.77466 0.0
O139 O 0.17449 0.36127 0.75409 0.0
O140 O 0.10444 0.3108 0.84323 0.0
O141 O 0.08341 0.41514 0.72596 0.0
O142 O 0.08051 0.41323 0.80203 0.0
O143 O 0.07904 0.35069 0.8375 0.0
C144 C 0.14784 0.22449 0.76456 0.0
C145 C 0.14719 0.20631 0.72215 0.0
C146 C 0.17071 0.18717 0.80551 0.0
C147 C 0.15909 0.17932 0.72126 0.0
C148 C 0.15906 0.2143 0.80632 0.0
C149 C 0.1716 0.17002 0.76282 0.0
C150 C 0.13739 0.25439 0.76528 0.0
C151 C 0.1847 0.39665 0.76462 0.0
H152 H 0.12793 0.48042 0.83279 0.0
H153 H 0.10609 0.54695 0.6997 0.0
H154 H 0.1576 0.55002 0.83437 0.0
H155 H 0.07732 0.47767 0.69786 0.0
H156 H 0.13839 0.21359 0.68952 0.0
H157 H 0.18047 0.18077 0.838 0.0
H158 H 0.15908 0.16616 0.68798 0.0
H159 H 0.15937 0.2277 0.83952 0.0
Eu160 Eu 0.29689 0.92731 0.77056 0.0
Eu161 Eu 0.20591 0.90047 0.77046 0.0
C162 C 0.25644 0.93728 0.86358 0.0
C163 C 0.38839 0.91891 0.77287 0.0
C164 C 0.39903 0.90878 0.81529 0.0
C165 C 0.42356 0.89401 0.72969 0.0
C166 C 0.42189 0.89185 0.81498 0.0
C167 C 0.40056 0.9109 0.73 0.0
C168 C 0.43509 0.88488 0.77226 0.0
C169 C 0.36731 0.9403 0.77388 0.0
O170 O 0.23264 0.96234 0.75502 0.0
O171 O 0.29591 0.9833 0.7751 0.0
C172 C 0.26776 0.98955 0.7636 0.0
O173 O 0.28937 0.94613 0.69955 0.0
O174 O 0.15492 0.8952 0.80373 0.0
O175 O 0.14961 0.86124 0.74141 0.0
O176 O 0.22362 0.91471 0.69286 0.0
C177 C 0.25833 0.93622 0.67497 0.0
O178 O 0.26348 0.8647 0.75091 0.0
O179 O 0.21391 0.85279 0.79787 0.0
O180 O 0.22706 0.93269 0.83882 0.0
O181 O 0.35071 0.94182 0.73523 0.0
O182 O 0.34656 0.93617 0.81107 0.0
O183 O 0.28039 0.92706 0.84688 0.0
C184 C 0.09569 0.86824 0.76229 0.0
C185 C 0.07859 0.85621 0.7178 0.0
C186 C 0.03666 0.86196 0.79283 0.0
C187 C 0.04031 0.84582 0.71141 0.0
C188 C 0.07478 0.8722 0.79925 0.0
C189 C 0.01872 0.84735 0.74936 0.0
C190 C 0.13186 0.86964 0.7737 0.0
C191 C 0.23315 0.84028 0.77442 0.0
H192 H 0.39033 0.91463 0.84896 0.0
H193 H 0.43341 0.88938 0.69612 0.0
H194 H 0.42953 0.88455 0.84843 0.0
H195 H 0.39314 0.91856 0.69663 0.0
H196 H 0.09403 0.85283 0.68869 0.0
H197 H 0.02059 0.86316 0.82277 0.0
H198 H 0.02715 0.83518 0.67734 0.0
H199 H 0.08715 0.88089 0.83408 0.0
Eu200 Eu 0.65083 0.72534 0.76524 0.0
Eu201 Eu 0.71582 0.81785 0.77439 0.0
C202 C 0.69737 0.76154 0.86252 0.0
C203 C 0.5525 0.63265 0.76452 0.0
C204 C 0.52979 0.63365 0.80163 0.0
C205 C 0.4943 0.58592 0.7246 0.0
C206 C 0.48988 0.61043 0.80066 0.0
C207 C 0.5342 0.60883 0.72582 0.0
C208 C 0.47148 0.5857 0.76244 0.0
C209 C 0.59503 0.65415 0.76713 0.0
O210 O 0.75013 0.78927 0.77936 0.0
O211 O 0.70833 0.72909 0.74928 0.0
C212 C 0.74304 0.75654 0.76134 0.0
O213 O 0.66349 0.74499 0.68988 0.0
O214 O 0.76256 0.86785 0.80941 0.0
O215 O 0.73724 0.87452 0.74474 0.0
O216 O 0.72185 0.79953 0.69981 0.0
C217 C 0.69685 0.77119 0.67317 0.0
O218 O 0.61542 0.75445 0.77288 0.0
O219 O 0.66102 0.81794 0.77432 0.0
O220 O 0.70363 0.79563 0.84992 0.0
O221 O 0.61419 0.67104 0.72889 0.0
O222 O 0.61033 0.67486 0.80468 0.0
O223 O 0.68219 0.73267 0.83319 0.0
C224 C 0.7969 0.92838 0.76841 0.0
C225 C 0.80281 0.94596 0.72392 0.0
C226 C 0.84759 0.98807 0.80058 0.0
C227 C 0.82987 0.98468 0.71837 0.0
C228 C 0.82026 0.94951 0.80629 0.0
C229 C 0.85163 1.00621 0.75702 0.0
C230 C 0.76217 0.89149 0.77829 0.0
C231 C 0.62542 0.79075 0.77427 0.0
H232 H 0.54281 0.65167 0.83212 0.0
H233 H 0.48144 0.56816 0.69391 0.0
H234 H 0.47367 0.61104 0.83075 0.0
H235 H 0.55084 0.60743 0.69669 0.0
H236 H 0.7851 0.9305 0.69409 0.0
H237 H 0.8639 1.00428 0.83093 0.0
H238 H 0.83283 0.99818 0.68437 0.0
H239 H 0.8158 0.93685 0.84111 0.0
H240 H 0.21255 0.96013 0.91328 0.0
H241 H 0.32051 0.96241 0.91717 0.0
H242 H 0.22836 0.99555 0.98756 0.0
H243 H 0.33719 0.99931 0.989 0.0
H244 H 0.34456 0.02723 0.13973 0.0
H245 H 0.32378 0.9923 0.06758 0.0
H246 H 0.26566 0.05373 0.02958 0.0
H247 H 0.28507 0.08803 0.10522 0.0
C248 C 0.23956 0.96798 0.93005 0.0
C249 C 0.26481 0.95746 0.90974 0.0
C250 C 0.24887 0.9888 0.9724 0.0
C251 C 0.28387 1.0 0.99517 0.0
C252 C 0.30937 0.99025 0.97384 0.0
C253 C 0.29986 0.96905 0.9322 0.0
C254 C 0.32762 0.03395 0.11625 0.0
C255 C 0.31743 0.06152 0.12827 0.0
C256 C 0.31579 0.01376 0.07415 0.0
C257 C 0.29391 0.02073 0.04148 0.0
C258 C 0.28269 0.04762 0.05363 0.0
C259 C 0.29415 0.06766 0.09678 0.0
H260 H 0.65224 0.71678 0.60883 0.0
H261 H 0.76763 0.80961 0.62907 0.0
H262 H 0.67127 0.69968 0.53636 0.0
H263 H 0.78686 0.79304 0.55516 0.0
H264 H 0.81627 0.73057 0.43968 0.0
H265 H 0.8002 0.75103 0.51354 0.0
H266 H 0.68703 0.71443 0.45931 0.0
H267 H 0.70239 0.69168 0.38815 0.0
C268 C 0.68168 0.73408 0.5975 0.0
C269 C 0.70825 0.76472 0.62527 0.0
C270 C 0.69272 0.72433 0.55535 0.0
C271 C 0.73074 0.74502 0.53891 0.0
C272 C 0.75739 0.77603 0.56644 0.0
C273 C 0.74626 0.78581 0.60888 0.0
C274 C 0.78788 0.7266 0.44416 0.0
C275 C 0.76022 0.70847 0.40885 0.0
C276 C 0.77867 0.73868 0.48629 0.0
C277 C 0.74189 0.7339 0.4934 0.0
C278 C 0.71507 0.71733 0.45663 0.0
C279 C 0.72391 0.70434 0.41545 0.0
H280 H 0.97322 0.21627 0.12826 0.0
H281 H 0.94759 0.30665 0.10503 0.0
H282 H 1.01178 0.23468 0.05717 0.0
H283 H 0.98279 0.32276 0.03149 0.0
H284 H 0.07531 0.37165 0.92409 0.0
H285 H 0.04038 0.35266 0.99781 0.0
H286 H 0.01912 0.23735 0.97791 0.0
H287 H 0.05699 0.25779 0.90561 0.0
C288 C 0.97524 0.23973 0.1076 0.0
C289 C 0.95747 0.2602 0.12295 0.0
C290 C 0.99723 0.25015 0.06617 0.0
C291 C 1.0013 0.28076 0.038 0.0
C292 C 0.98188 0.29995 0.05247 0.0
C293 C 0.96086 0.29022 0.09455 0.0
C294 C 0.06383 0.34244 0.93608 0.0
C295 C 0.06939 0.31643 0.90938 0.0
C296 C 0.043 0.33116 0.97817 0.0
C297 C 0.02581 0.29304 0.99425 0.0
C298 C 0.03206 0.26708 0.96767 0.0
C299 C 0.0539 0.27875 0.92601 0.0
H300 H 0.2726 0.07517 0.4273 0.0
H301 H 0.35168 0.03486 0.40126 0.0
H302 H 0.25349 0.03936 0.50182 0.0
H303 H 0.33112 0.99743 0.47276 0.0
H304 H 0.32385 0.96834 0.62408 0.0
H305 H 0.33852 1.00407 0.55191 0.0
H306 H 0.22183 0.98045 0.54311 0.0
H307 H 0.20768 0.94617 0.61875 0.0
C308 C 0.28587 0.05868 0.43749 0.0
C309 C 0.31452 0.05885 0.40907 0.0
C310 C 0.27462 0.03775 0.47996 0.0
C311 C 0.29119 0.01584 0.4943 0.0
C312 C 0.31866 0.01499 0.46445 0.0
C313 C 0.33047 0.0365 0.423 0.0
C314 C 0.30099 0.97035 0.6069 0.0
C315 C 0.2643 0.95366 0.62715 0.0
C316 C 0.30941 0.99078 0.56481 0.0
C317 C 0.28128 0.99471 0.54045 0.0
C318 C 0.24435 0.97809 0.5606 0.0
C319 C 0.23597 0.95783 0.60359 0.0
H320 H 0.70958 0.70317 0.88591 0.0
H321 H 0.71658 0.80541 0.94366 0.0
H322 H 0.73104 0.6909 0.96058 0.0
H323 H 0.73761 0.79239 0.01938 0.0
H324 H 0.71486 0.71425 0.15551 0.0
H325 H 0.70251 0.73528 0.08046 0.0
H326 H 0.79261 0.72338 0.0156 0.0
H327 H 0.80641 0.70383 0.09218 0.0
C328 C 0.7156 0.7231 0.91457 0.0
C329 C 0.71086 0.75517 0.90878 0.0
C330 C 0.72834 0.71616 0.95727 0.0
C331 C 0.73625 0.74075 0.99574 0.0
C332 C 0.73174 0.77295 0.9902 0.0
C333 C 0.71965 0.78038 0.94695 0.0
C334 C 0.73256 0.71663 0.12548 0.0
C335 C 0.76182 0.70752 0.12991 0.0
C336 C 0.7255 0.72889 0.08251 0.0
C337 C 0.74668 0.73121 0.0422 0.0
C338 C 0.77597 0.72205 0.04628 0.0
C339 C 0.78395 0.71095 0.08999 0.0
H340 H 0.94654 0.30666 0.4295 0.0
H341 H 0.97703 0.22055 0.40131 0.0
H342 H 0.98089 0.32175 0.50368 0.0
H343 H 0.01454 0.23763 0.47367 0.0
H344 H 0.06039 0.25943 0.62402 0.0
H345 H 0.02143 0.23893 0.55327 0.0
H346 H 0.03879 0.35306 0.53652 0.0
H347 H 0.07473 0.37225 0.60917 0.0
C348 C 0.96059 0.29085 0.4395 0.0
C349 C 0.95858 0.26206 0.41012 0.0
C350 C 0.98106 0.29996 0.48177 0.0
C351 C 1.00157 0.28163 0.49508 0.0
C352 C 0.99893 0.25222 0.46565 0.0
C353 C 0.97735 0.24229 0.42396 0.0
C354 C 0.05581 0.28014 0.60526 0.0
C355 C 0.07073 0.31756 0.62271 0.0
C356 C 0.03354 0.2684 0.56415 0.0
C357 C 0.02611 0.29398 0.53864 0.0
C358 C 0.04243 0.33182 0.55539 0.0
C359 C 0.06391 0.34324 0.59694 0.0
H360 H 0.61688 0.19626 0.31202 0.0
H361 H 0.59821 0.10289 0.22069 0.0
H362 H 0.68479 0.21801 0.31352 0.0
H363 H 0.66634 0.12662 0.21869 0.0
H364 H 0.7851 0.15344 0.25881 0.0
H365 H 0.71719 0.13141 0.26075 0.0
H366 H 0.74214 0.2484 0.2725 0.0
H367 H 0.81034 0.2702 0.27301 0.0
C368 C 0.62712 0.18037 0.29203 0.0
C369 C 0.60157 0.14764 0.26626 0.0
C370 C 0.66643 0.19331 0.29226 0.0
C371 C 0.68159 0.17429 0.26617 0.0
C372 C 0.65606 0.14185 0.23995 0.0
C373 C 0.61673 0.12857 0.24033 0.0
C374 C 0.77617 0.17455 0.26184 0.0
C375 C 0.80337 0.2137 0.26559 0.0
C376 C 0.73698 0.16188 0.26259 0.0
C377 C 0.72365 0.18799 0.2664 0.0
C378 C 0.75096 0.22721 0.27023 0.0
C379 C 0.79025 0.23985 0.27015 0.0
H380 H 0.56172 0.414 0.19179 0.0
H381 H 0.55608 0.41676 0.34387 0.0
H382 H 0.51596 0.34557 0.19292 0.0
H383 H 0.51186 0.34814 0.34506 0.0
H384 H 0.40124 0.23405 0.32726 0.0
H385 H 0.44671 0.30244 0.32523 0.0
H386 H 0.50988 0.28477 0.21462 0.0
H387 H 0.46393 0.21622 0.21621 0.0
C388 C 0.55085 0.40008 0.22549 0.0
C389 C 0.56278 0.42112 0.26773 0.0
C390 C 0.52489 0.36067 0.22616 0.0
C391 C 0.51016 0.34119 0.26908 0.0
C392 C 0.52223 0.36218 0.3113 0.0
C393 C 0.5481 0.40156 0.31063 0.0
C394 C 0.42486 0.24468 0.30253 0.0
C395 C 0.42905 0.21954 0.27208 0.0
C396 C 0.45111 0.28396 0.30156 0.0
C397 C 0.48215 0.29924 0.2699 0.0
C398 C 0.48618 0.2741 0.2392 0.0
C399 C 0.46001 0.23472 0.24038 0.0
H400 H 0.85899 0.45238 0.19456 0.0
H401 H 0.88717 0.47327 0.34255 0.0
H402 H 0.83529 0.49708 0.19611 0.0
H403 H 0.86138 0.51626 0.34471 0.0
H404 H 0.85315 0.62348 0.32082 0.0
H405 H 0.87592 0.57812 0.31906 0.0
H406 H 0.78473 0.50651 0.2234 0.0
H407 H 0.76242 0.55266 0.22432 0.0
C408 C 0.86006 0.46635 0.22754 0.0
C409 C 0.87531 0.45915 0.26837 0.0
C410 C 0.84591 0.4917 0.22856 0.0
C411 C 0.84632 0.51047 0.27051 0.0
C412 C 0.861 0.50282 0.31154 0.0
C413 C 0.87533 0.47761 0.31047 0.0
C414 C 0.8378 0.59803 0.29944 0.0
C415 C 0.80573 0.59169 0.27288 0.0
C416 C 0.85078 0.57178 0.29869 0.0
C417 C 0.83212 0.53834 0.27134 0.0
C418 C 0.80009 0.53205 0.2446 0.0
C419 C 0.78706 0.55838 0.24538 0.0
H420 H 0.14196 0.59921 0.84409 0.0
H421 H 0.16352 0.60598 0.69404 0.0
H422 H 0.16716 0.668 0.84627 0.0
H423 H 0.1867 0.67433 0.69584 0.0
H424 H 0.26156 0.80263 0.72275 0.0
H425 H 0.23893 0.73415 0.72161 0.0
H426 H 0.15101 0.71511 0.82281 0.0
H427 H 0.17411 0.78348 0.82465 0.0
C428 C 0.15221 0.6153 0.81156 0.0
C429 C 0.15063 0.59677 0.76889 0.0
C430 C 0.16619 0.65478 0.8127 0.0
C431 C 0.1789 0.6769 0.7712 0.0
C432 C 0.1776 0.65843 0.72862 0.0
C433 C 0.16378 0.619 0.72751 0.0
C434 C 0.23757 0.78385 0.74498 0.0
C435 C 0.2199 0.79867 0.77403 0.0
C436 C 0.22435 0.74448 0.74406 0.0
C437 C 0.19315 0.71892 0.77223 0.0
C438 C 0.17548 0.73386 0.80122 0.0
C439 C 0.18864 0.77316 0.80206 0.0
H440 H 0.43744 0.8327 0.71177 0.0
H441 H 0.49436 0.9031 0.83293 0.0
H442 H 0.48272 0.80932 0.71192 0.0
H443 H 0.5381 0.87841 0.8345 0.0
H444 H 0.63669 0.86179 0.79295 0.0
H445 H 0.59071 0.88345 0.79094 0.0
H446 H 0.50132 0.76925 0.7556 0.0
H447 H 0.54805 0.74748 0.75645 0.0
C448 C 0.45949 0.84313 0.73851 0.0
C449 C 0.46204 0.8697 0.77246 0.0
C450 C 0.48517 0.82935 0.73894 0.0
C451 C 0.51408 0.84186 0.77327 0.0
C452 C 0.51652 0.86837 0.8072 0.0
C453 C 0.491 0.88217 0.8067 0.0
C454 C 0.60725 0.84107 0.7848 0.0
C455 C 0.59609 0.80269 0.77509 0.0
C456 C 0.58073 0.85356 0.78396 0.0
C457 C 0.54215 0.8281 0.77345 0.0
C458 C 0.53087 0.78971 0.76354 0.0
C459 C 0.55754 0.7771 0.76449 0.0
H460 H 0.24409 0.38267 0.76803 0.0
H461 H 0.22002 0.47537 0.76385 0.0
H462 H 0.31201 0.42813 0.76942 0.0
H463 H 0.28853 0.52134 0.76269 0.0
H464 H 0.41446 0.5965 0.8006 0.0
H465 H 0.3461 0.55151 0.80358 0.0
H466 H 0.36324 0.46985 0.72455 0.0
H467 H 0.43149 0.51319 0.7254 0.0
C468 C 0.2533 0.41287 0.76686 0.0
C469 C 0.22639 0.42525 0.76554 0.0
C470 C 0.29254 0.43914 0.76728 0.0
C471 C 0.30634 0.47878 0.76556 0.0
C472 C 0.27934 0.4912 0.76461 0.0
C473 C 0.23989 0.46479 0.76494 0.0
C474 C 0.4038 0.56872 0.78448 0.0
C475 C 0.42902 0.55883 0.7627 0.0
C476 C 0.36426 0.54298 0.78553 0.0
C477 C 0.34859 0.50668 0.76435 0.0
C478 C 0.37384 0.49707 0.74212 0.0
C479 C 0.41331 0.52248 0.74174 0.0
H480 H 0.19992 0.2446 0.22291 0.0
H481 H 0.10397 0.13878 0.27233 0.0
H482 H 0.15969 0.27421 0.22189 0.0
H483 H 0.06364 0.16819 0.2704 0.0
H484 H 0.99717 0.21914 0.20404 0.0
H485 H 0.04372 0.19828 0.19668 0.0
H486 H 0.11817 0.28656 0.29353 0.0
H487 H 0.07054 0.30742 0.3013 0.0
C488 C 0.17011 0.22762 0.23295 0.0
C489 C 0.1548 0.18936 0.24724 0.0
C490 C 0.14736 0.24464 0.2328 0.0
C491 C 0.10883 0.22342 0.24606 0.0
C492 C 0.09336 0.18503 0.25988 0.0
C493 C 0.11629 0.16824 0.26095 0.0
C494 C 0.02433 0.23556 0.22166 0.0
C495 C 0.03093 0.26583 0.25181 0.0
C496 C 0.05059 0.22304 0.21822 0.0
C497 C 0.08424 0.24073 0.24471 0.0
C498 C 0.09237 0.27276 0.27251 0.0
C499 C 0.06554 0.28503 0.27648 0.0
H500 H 0.05432 0.90595 0.31545 0.0
H501 H 0.05911 0.84283 0.19509 0.0
H502 H 0.12379 0.94342 0.31638 0.0
H503 H 0.12859 0.88083 0.19564 0.0
H504 H 0.24914 0.99143 0.18509 0.0
H505 H 0.18099 0.94503 0.18209 0.0
H506 H 0.17857 0.93573 0.33413 0.0
H507 H 0.24683 0.98297 0.3367 0.0
C508 C 0.07013 0.90001 0.28918 0.0
C509 C 0.05097 0.87105 0.25545 0.0
C510 C 0.11001 0.92138 0.28989 0.0
C511 C 0.13177 0.91453 0.2567 0.0
C512 C 0.11267 0.88673 0.22178 0.0
C513 C 0.07275 0.86516 0.22123 0.0
C514 C 0.23439 0.97773 0.21756 0.0
C515 C 0.25323 0.9898 0.26102 0.0
C516 C 0.19523 0.95156 0.21596 0.0
C517 C 0.17421 0.93712 0.25793 0.0
C518 C 0.19387 0.94682 0.30123 0.0
C519 C 0.23311 0.97302 0.30274 0.0
H520 H 0.80421 0.96442 0.20653 0.0
H521 H 0.86931 0.96805 0.32903 0.0
H522 H 0.77097 0.89498 0.20784 0.0
H523 H 0.83695 0.8983 0.32964 0.0
H524 H 0.75551 0.77372 0.34412 0.0
H525 H 0.77698 0.84206 0.34521 0.0
H526 H 0.78137 0.84397 0.19268 0.0
H527 H 0.75917 0.77614 0.19227 0.0
C528 C 0.8118 0.95025 0.23331 0.0
C529 C 0.83927 0.97146 0.26767 0.0
C530 C 0.79269 0.91046 0.23418 0.0
C531 C 0.80092 0.89099 0.26915 0.0
C532 C 0.8291 0.91233 0.303 0.0
C533 C 0.84793 0.95223 0.30242 0.0
C534 C 0.75876 0.78848 0.31099 0.0
C535 C 0.75429 0.76957 0.26803 0.0
C536 C 0.77211 0.82777 0.31152 0.0
C537 C 0.78132 0.84862 0.26902 0.0
C538 C 0.77399 0.82886 0.22606 0.0
C539 C 0.76063 0.78974 0.22565 0.0
H540 H 0.15986 0.11273 0.82407 0.0
H541 H 0.22219 0.17165 0.69834 0.0
H542 H 0.19207 0.07531 0.82432 0.0
H543 H 0.25492 0.13503 0.69899 0.0
H544 H 0.26656 0.0272 0.68664 0.0
H545 H 0.24408 0.07283 0.68598 0.0
H546 H 0.25312 0.08065 0.83809 0.0
H547 H 0.2744 0.03367 0.83827 0.0
C548 C 0.18055 0.11772 0.79661 0.0
C549 C 0.18857 0.14506 0.76119 0.0
C550 C 0.19926 0.09658 0.79695 0.0
C551 C 0.22657 0.10263 0.76207 0.0
C552 C 0.23393 0.12949 0.72621 0.0
C553 C 0.21505 0.15038 0.7257 0.0
C554 C 0.26574 0.04039 0.71959 0.0
C555 C 0.2731 0.02793 0.76237 0.0
C556 C 0.25239 0.06616 0.71938 0.0
C557 C 0.2463 0.08003 0.76206 0.0
C558 C 0.2569 0.06999 0.80467 0.0
C559 C 0.27015 0.044 0.8048 0.0
H560 H 0.96769 0.77819 0.71223 0.0
H561 H 0.97559 0.8781 0.77864 0.0
H562 H 0.89786 0.74851 0.70948 0.0
H563 H 0.90592 0.8484 0.7756 0.0
H564 H 0.79324 0.80651 0.70131 0.0
H565 H 0.86022 0.82556 0.69525 0.0
H566 H 0.84069 0.73032 0.78344 0.0
H567 H 0.77246 0.71131 0.79028 0.0
C568 C 0.95449 0.79389 0.72576 0.0
C569 C 0.97692 0.83056 0.74523 0.0
C570 C 0.91471 0.77671 0.72471 0.0
C571 C 0.89695 0.7962 0.74251 0.0
C572 C 0.91927 0.83292 0.76172 0.0
C573 C 0.95895 0.84988 0.76337 0.0
C574 C 0.80264 0.78827 0.7172 0.0
C575 C 0.77757 0.75684 0.74518 0.0
C576 C 0.84112 0.79966 0.71445 0.0
C577 C 0.85531 0.77952 0.73916 0.0
C578 C 0.82995 0.74606 0.76399 0.0
C579 C 0.79105 0.73488 0.76738 0.0
H580 H 0.96158 0.2498 0.80951 0.0
H581 H 0.02693 0.23721 0.69787 0.0
H582 H 0.91412 0.1811 0.80367 0.0
H583 H 0.98078 0.16918 0.69308 0.0
H584 H 0.92744 0.04982 0.77729 0.0
H585 H 0.96671 0.11984 0.77364 0.0
H586 H 0.8687 0.12672 0.72727 0.0
H587 H 0.82965 0.05665 0.72962 0.0
C588 C 0.96467 0.23283 0.78216 0.0
C589 C 0.99704 0.24894 0.7529 0.0
C590 C 0.93802 0.19361 0.77931 0.0
C591 C 0.94421 0.17022 0.74808 0.0
C592 C 0.97543 0.18678 0.71721 0.0
C593 C 1.0014 0.22581 0.71936 0.0
C594 C 0.9145 0.06638 0.76602 0.0
C595 C 0.87581 0.04812 0.75324 0.0
C596 C 0.93678 0.1062 0.764 0.0
C597 C 0.92041 0.12827 0.7503 0.0
C598 C 0.88169 0.11009 0.73803 0.0
C599 C 0.8596 0.07023 0.73903 0.0
loop_
_geom_bond_atom_site_label_1
_geom_bond_atom_site_label_2
_geom_bond_distance
_geom_bond_site_symmetry_2
_ccdc_geom_bond_type
Eu0 C9 2.828 . S
Eu0 O11 2.392 . S
Eu0 O13 2.418 . S
Eu0 O18 2.373 . S
Eu0 O21 2.488 . S
Eu0 O22 2.471 . S
Eu0 O23 2.349 . S
Eu1 O10 2.373 . S
Eu1 O14 2.488 . S
Eu1 O15 2.471 . S
Eu1 O16 2.349 . S
Eu1 O19 2.392 . S
Eu1 O20 2.418 . S
Eu1 C30 2.828 . S
C2 O20 1.244 . S
C2 O23 1.265 . S
C3 C4 1.379 . S
C3 C7 1.373 . S
C3 C9 1.505 . S
C4 C3 1.379 . S
C4 C6 1.369 . S
C4 H32 0.930 . S
C5 C7 1.383 . S
C5 C8 1.382 . S
C5 H33 0.930 . S
C6 C4 1.369 . S
C6 C8 1.392 . S
C6 H34 0.930 . S
C7 C3 1.373 . S
C7 C5 1.383 . S
C7 H35 0.931 . S
C8 C5 1.382 . S
C8 C6 1.392 . S
C9 Eu0 2.828 . S
C9 C3 1.505 . S
C9 O21 1.249 . S
C9 O22 1.244 . S
O10 Eu1 2.373 . S
O10 C12 1.258 . S
O11 Eu0 2.392 . S
O11 C12 1.242 . S
C12 O10 1.258 . S
C12 O11 1.242 . S
O13 Eu0 2.418 . S
O13 C17 1.244 . S
O14 Eu1 2.488 . S
O14 C30 1.249 . S
O15 Eu1 2.471 . S
O15 C30 1.244 . S
O16 Eu1 2.349 . S
O16 C17 1.265 . S
C17 O13 1.244 . S
C17 O16 1.265 . S
O18 Eu0 2.373 . S
O18 C31 1.258 . S
O19 Eu1 2.392 . S
O19 C31 1.242 . S
O20 Eu1 2.418 . S
O20 C2 1.244 . S
O21 Eu0 2.488 . S
O21 C9 1.249 . S
O22 Eu0 2.471 . S
O22 C9 1.244 . S
O23 Eu0 2.349 . S
O23 C2 1.265 . S
C24 C25 1.379 . S
C24 C28 1.373 . S
C24 C30 1.505 . S
C25 C24 1.379 . S
C25 C27 1.369 . S
C25 H36 0.930 . S
C26 C28 1.383 . S
C26 C29 1.382 . S
C26 H37 0.930 . S
C27 C25 1.369 . S
C27 C29 1.392 . S
C27 H38 0.930 . S
C28 C24 1.373 . S
C28 C26 1.383 . S
C28 H39 0.931 . S
C29 C26 1.382 . S
C29 C27 1.392 . S
C30 Eu1 2.828 . S
C30 O14 1.249 . S
C30 O15 1.244 . S
C30 C24 1.505 . S
C31 O18 1.258 . S
C31 O19 1.242 . S
H32 C4 0.930 . S
H33 C5 0.930 . S
H34 C6 0.930 . S
H35 C7 0.931 . S
H36 C25 0.930 . S
H37 C26 0.930 . S
H38 C27 0.930 . S
H39 C28 0.931 . S
Eu40 C49 2.828 . S
Eu40 O51 2.392 . S
Eu40 O53 2.418 . S
Eu40 O58 2.373 . S
Eu40 O61 2.488 . S
Eu40 O62 2.471 . S
Eu40 O63 2.349 . S
Eu41 O50 2.373 . S
Eu41 O54 2.488 . S
Eu41 O55 2.471 . S
Eu41 O56 2.349 . S
Eu41 O59 2.392 . S
Eu41 O60 2.418 . S
Eu41 C70 2.828 . S
C42 O60 1.244 . S
C42 O63 1.265 . S
C43 C44 1.379 . S
C43 C47 1.373 . S
C43 C49 1.505 . S
C44 C43 1.379 . S
C44 C46 1.369 . S
C44 H72 0.930 . S
C45 C47 1.383 . S
C45 C48 1.382 . S
C45 H73 0.930 1_655 S
C46 C44 1.369 . S
C46 C48 1.392 . S
C46 H74 0.930 . S
C47 C43 1.373 . S
C47 C45 1.383 . S
C47 H75 0.931 . S
C48 C45 1.382 . S
C48 C46 1.392 . S
C49 Eu40 2.828 . S
C49 C43 1.505 . S
C49 O61 1.249 . S
C49 O62 1.244 . S
O50 Eu41 2.373 . S
O50 C52 1.258 . S
O51 Eu40 2.392 . S
O51 C52 1.242 . S
C52 O50 1.258 . S
C52 O51 1.242 . S
O53 Eu40 2.418 . S
O53 C57 1.244 . S
O54 Eu41 2.488 . S
O54 C70 1.249 . S
O55 Eu41 2.471 . S
O55 C70 1.244 . S
O56 Eu41 2.349 . S
O56 C57 1.265 . S
C57 O53 1.244 . S
C57 O56 1.265 . S
O58 Eu40 2.373 . S
O58 C71 1.258 . S
O59 Eu41 2.392 . S
O59 C71 1.242 . S
O60 Eu41 2.418 . S
O60 C42 1.244 . S
O61 Eu40 2.488 . S
O61 C49 1.249 . S
O62 Eu40 2.471 . S
O62 C49 1.244 . S
O63 Eu40 2.349 . S
O63 C42 1.265 . S
C64 C65 1.379 . S
C64 C68 1.373 . S
C64 C70 1.505 . S
C65 C64 1.379 . S
C65 C67 1.369 . S
C65 H76 0.930 . S
C66 C68 1.383 . S
C66 C69 1.382 . S
C66 H77 0.930 . S
C67 C65 1.369 . S
C67 C69 1.392 . S
C67 H78 0.930 . S
C68 C64 1.373 . S
C68 C66 1.383 . S
C68 H79 0.931 . S
C69 C66 1.382 . S
C69 C67 1.392 . S
C70 Eu41 2.828 . S
C70 O54 1.249 . S
C70 O55 1.244 . S
C70 C64 1.505 . S
C71 O58 1.258 . S
C71 O59 1.242 . S
H72 C44 0.930 . S
H73 C45 0.930 1_455 S
H74 C46 0.930 . S
H75 C47 0.931 . S
H76 C65 0.930 . S
H77 C66 0.930 . S
H78 C67 0.930 . S
H79 C68 0.931 . S
Eu80 C89 2.828 . S
Eu80 O91 2.392 . S
Eu80 O93 2.418 . S
Eu80 O98 2.373 . S
Eu80 O101 2.488 . S
Eu80 O102 2.471 . S
Eu80 O103 2.349 . S
Eu81 O90 2.373 . S
Eu81 O94 2.488 . S
Eu81 O95 2.471 . S
Eu81 O96 2.349 . S
Eu81 O99 2.392 . S
Eu81 O100 2.418 . S
Eu81 C110 2.828 . S
C82 O100 1.244 . S
C82 O103 1.265 . S
C83 C84 1.379 . S
C83 C87 1.373 . S
C83 C89 1.505 . S
C84 C83 1.379 . S
C84 C86 1.369 . S
C84 H112 0.930 . S
C85 C87 1.383 . S
C85 C88 1.382 . S
C85 H113 0.930 1_545 S
C86 C84 1.369 . S
C86 C88 1.392 . S
C86 H114 0.930 . S
C87 C83 1.373 . S
C87 C85 1.383 . S
C87 H115 0.931 . S
C88 C85 1.382 . S
C88 C86 1.392 . S
C89 Eu80 2.828 . S
C89 C83 1.505 . S
C89 O101 1.249 . S
C89 O102 1.244 . S
O90 Eu81 2.373 . S
O90 C92 1.258 . S
O91 Eu80 2.392 . S
O91 C92 1.242 . S
C92 O90 1.258 . S
C92 O91 1.242 . S
O93 Eu80 2.418 . S
O93 C97 1.244 . S
O94 Eu81 2.488 . S
O94 C110 1.249 . S
O95 Eu81 2.471 . S
O95 C110 1.244 . S
O96 Eu81 2.349 . S
O96 C97 1.265 . S
C97 O93 1.244 . S
C97 O96 1.265 . S
O98 Eu80 2.373 . S
O98 C111 1.258 . S
O99 Eu81 2.392 . S
O99 C111 1.242 . S
O100 Eu81 2.418 . S
O100 C82 1.244 . S
O101 Eu80 2.488 . S
O101 C89 1.249 . S
O102 Eu80 2.471 . S
O102 C89 1.244 . S
O103 Eu80 2.349 . S
O103 C82 1.265 . S
C104 C105 1.379 . S
C104 C108 1.373 . S
C104 C110 1.505 . S
C105 C104 1.379 . S
C105 C107 1.369 . S
C105 H116 0.930 . S
C106 C108 1.383 . S
C106 C109 1.382 . S
C106 H117 0.930 . S
C107 C105 1.369 . S
C107 C109 1.392 . S
C107 H118 0.930 . S
C108 C104 1.373 . S
C108 C106 1.383 . S
C108 H119 0.931 . S
C109 C106 1.382 . S
C109 C107 1.392 . S
C110 Eu81 2.828 . S
C110 O94 1.249 . S
C110 O95 1.244 . S
C110 C104 1.505 . S
C111 O98 1.258 . S
C111 O99 1.242 . S
H112 C84 0.930 . S
H113 C85 0.930 1_565 S
H114 C86 0.930 . S
H115 C87 0.931 . S
H116 C105 0.930 . S
H117 C106 0.930 . S
H118 C107 0.930 . S
H119 C108 0.931 . S
Eu120 C129 2.828 . S
Eu120 O131 2.392 . S
Eu120 O133 2.418 . S
Eu120 O138 2.373 . S
Eu120 O141 2.488 . S
Eu120 O142 2.471 . S
Eu120 O143 2.349 . S
Eu121 O130 2.373 . S
Eu121 O134 2.488 . S
Eu121 O135 2.471 . S
Eu121 O136 2.349 . S
Eu121 O139 2.392 . S
Eu121 O140 2.418 . S
Eu121 C150 2.828 . S
C122 O140 1.244 . S
C122 O143 1.265 . S
C123 C124 1.379 . S
C123 C127 1.373 . S
C123 C129 1.505 . S
C124 C123 1.379 . S
C124 C126 1.369 . S
C124 H152 0.930 . S
C125 C127 1.383 . S
C125 C128 1.382 . S
C125 H153 0.930 . S
C126 C124 1.369 . S
C126 C128 1.392 . S
C126 H154 0.930 . S
C127 C123 1.373 . S
C127 C125 1.383 . S
C127 H155 0.931 . S
C128 C125 1.382 . S
C128 C126 1.392 . S
C129 Eu120 2.828 . S
C129 C123 1.505 . S
C129 O141 1.249 . S
C129 O142 1.244 . S
O130 Eu121 2.373 . S
O130 C132 1.258 . S
O131 Eu120 2.392 . S
O131 C132 1.242 . S
C132 O130 1.258 . S
C132 O131 1.242 . S
O133 Eu120 2.418 . S
O133 C137 1.244 . S
O134 Eu121 2.488 . S
O134 C150 1.249 . S
O135 Eu121 2.471 . S
O135 C150 1.244 . S
O136 Eu121 2.349 . S
O136 C137 1.265 . S
C137 O133 1.244 . S
C137 O136 1.265 . S
O138 Eu120 2.373 . S
O138 C151 1.258 . S
O139 Eu121 2.392 . S
O139 C151 1.242 . S
O140 Eu121 2.418 . S
O140 C122 1.244 . S
O141 Eu120 2.488 . S
O141 C129 1.249 . S
O142 Eu120 2.471 . S
O142 C129 1.244 . S
O143 Eu120 2.349 . S
O143 C122 1.265 . S
C144 C145 1.379 . S
C144 C148 1.373 . S
C144 C150 1.505 . S
C145 C144 1.379 . S
C145 C147 1.369 . S
C145 H156 0.930 . S
C146 C148 1.383 . S
C146 C149 1.382 . S
C146 H157 0.930 . S
C147 C145 1.369 . S
C147 C149 1.392 . S
C147 H158 0.930 . S
C148 C144 1.373 . S
C148 C146 1.383 . S
C148 H159 0.931 . S
C149 C146 1.382 . S
C149 C147 1.392 . S
C150 Eu121 2.828 . S
C150 O134 1.249 . S
C150 O135 1.244 . S
C150 C144 1.505 . S
C151 O138 1.258 . S
C151 O139 1.242 . S
H152 C124 0.930 . S
H153 C125 0.930 . S
H154 C126 0.930 . S
H155 C127 0.931 . S
H156 C145 0.930 . S
H157 C146 0.930 . S
H158 C147 0.930 . S
H159 C148 0.931 . S
Eu160 C169 2.828 . S
Eu160 O171 2.392 . S
Eu160 O173 2.418 . S
Eu160 O178 2.373 . S
Eu160 O181 2.488 . S
Eu160 O182 2.471 . S
Eu160 O183 2.349 . S
Eu161 O170 2.373 . S
Eu161 O174 2.488 . S
Eu161 O175 2.471 . S
Eu161 O176 2.349 . S
Eu161 O179 2.392 . S
Eu161 O180 2.418 . S
Eu161 C190 2.828 . S
C162 O180 1.244 . S
C162 O183 1.265 . S
C163 C164 1.379 . S
C163 C167 1.373 . S
C163 C169 1.505 . S
C164 C163 1.379 . S
C164 C166 1.369 . S
C164 H192 0.930 . S
C165 C167 1.383 . S
C165 C168 1.382 . S
C165 H193 0.930 . S
C166 C164 1.369 . S
C166 C168 1.392 . S
C166 H194 0.930 . S
C167 C163 1.373 . S
C167 C165 1.383 . S
C167 H195 0.931 . S
C168 C165 1.382 . S
C168 C166 1.392 . S
C169 Eu160 2.828 . S
C169 C163 1.505 . S
C169 O181 1.249 . S
C169 O182 1.244 . S
O170 Eu161 2.373 . S
O170 C172 1.258 . S
O171 Eu160 2.392 . S
O171 C172 1.242 . S
C172 O170 1.258 . S
C172 O171 1.242 . S
O173 Eu160 2.418 . S
O173 C177 1.244 . S
O174 Eu161 2.488 . S
O174 C190 1.249 . S
O175 Eu161 2.471 . S
O175 C190 1.244 . S
O176 Eu161 2.349 . S
O176 C177 1.265 . S
C177 O173 1.244 . S
C177 O176 1.265 . S
O178 Eu160 2.373 . S
O178 C191 1.258 . S
O179 Eu161 2.392 . S
O179 C191 1.242 . S
O180 Eu161 2.418 . S
O180 C162 1.244 . S
O181 Eu160 2.488 . S
O181 C169 1.249 . S
O182 Eu160 2.471 . S
O182 C169 1.244 . S
O183 Eu160 2.349 . S
O183 C162 1.265 . S
C184 C185 1.379 . S
C184 C188 1.373 . S
C184 C190 1.505 . S
C185 C184 1.379 . S
C185 C187 1.369 . S
C185 H196 0.930 . S
C186 C188 1.383 . S
C186 C189 1.382 . S
C186 H197 0.930 1_455 S
C187 C185 1.369 . S
C187 C189 1.392 . S
C187 H198 0.930 . S
C188 C184 1.373 . S
C188 C186 1.383 . S
C188 H199 0.931 . S
C189 C186 1.382 . S
C189 C187 1.392 . S
C190 Eu161 2.828 . S
C190 O174 1.249 . S
C190 O175 1.244 . S
C190 C184 1.505 . S
C191 O178 1.258 . S
C191 O179 1.242 . S
H192 C164 0.930 . S
H193 C165 0.930 . S
H194 C166 0.930 . S
H195 C167 0.931 . S
H196 C185 0.930 . S
H197 C186 0.930 1_655 S
H198 C187 0.930 . S
H199 C188 0.931 . S
Eu200 C209 2.828 . S
Eu200 O211 2.392 . S
Eu200 O213 2.418 . S
Eu200 O218 2.373 . S
Eu200 O221 2.488 . S
Eu200 O222 2.471 . S
Eu200 O223 2.349 . S
Eu201 O210 2.373 . S
Eu201 O214 2.488 . S
Eu201 O215 2.471 . S
Eu201 O216 2.349 . S
Eu201 O219 2.392 . S
Eu201 O220 2.418 . S
Eu201 C230 2.828 . S
C202 O220 1.244 . S
C202 O223 1.265 . S
C203 C204 1.379 . S
C203 C207 1.373 . S
C203 C209 1.505 . S
C204 C203 1.379 . S
C204 C206 1.369 . S
C204 H232 0.930 . S
C205 C207 1.383 . S
C205 C208 1.382 . S
C205 H233 0.930 . S
C206 C204 1.369 . S
C206 C208 1.392 . S
C206 H234 0.930 . S
C207 C203 1.373 . S
C207 C205 1.383 . S
C207 H235 0.931 . S
C208 C205 1.382 . S
C208 C206 1.392 . S
C209 Eu200 2.828 . S
C209 C203 1.505 . S
C209 O221 1.249 . S
C209 O222 1.244 . S
O210 Eu201 2.373 . S
O210 C212 1.258 . S
O211 Eu200 2.392 . S
O211 C212 1.242 . S
C212 O210 1.258 . S
C212 O211 1.242 . S
O213 Eu200 2.418 . S
O213 C217 1.244 . S
O214 Eu201 2.488 . S
O214 C230 1.249 . S
O215 Eu201 2.471 . S
O215 C230 1.244 . S
O216 Eu201 2.349 . S
O216 C217 1.265 . S
C217 O213 1.244 . S
C217 O216 1.265 . S
O218 Eu200 2.373 . S
O218 C231 1.258 . S
O219 Eu201 2.392 . S
O219 C231 1.242 . S
O220 Eu201 2.418 . S
O220 C202 1.244 . S
O221 Eu200 2.488 . S
O221 C209 1.249 . S
O222 Eu200 2.471 . S
O222 C209 1.244 . S
O223 Eu200 2.349 . S
O223 C202 1.265 . S
C224 C225 1.379 . S
C224 C228 1.373 . S
C224 C230 1.505 . S
C225 C224 1.379 . S
C225 C227 1.369 . S
C225 H236 0.930 . S
C226 C228 1.383 . S
C226 C229 1.382 . S
C226 H237 0.930 1_565 S
C227 C225 1.369 . S
C227 C229 1.392 . S
C227 H238 0.930 . S
C228 C224 1.373 . S
C228 C226 1.383 . S
C228 H239 0.931 . S
C229 C226 1.382 . S
C229 C227 1.392 . S
C230 Eu201 2.828 . S
C230 O214 1.249 . S
C230 O215 1.244 . S
C230 C224 1.505 . S
C231 O218 1.258 . S
C231 O219 1.242 . S
H232 C204 0.930 . S
H233 C205 0.930 . S
H234 C206 0.930 . S
H235 C207 0.931 . S
H236 C225 0.930 . S
H237 C226 0.930 1_545 S
H238 C227 0.930 . S
H239 C228 0.931 . S
H240 C248 0.950 . S
H241 C253 0.950 . S
H242 C250 0.950 1_545 S
H243 C252 0.950 1_554 S
H244 C254 0.950 . S
H245 C256 0.950 1_565 S
H246 C258 0.950 1_556 S
H247 C259 0.950 . S
C248 H240 0.950 . S
C248 C249 1.386 . S
C248 C250 1.391 . S
C249 C248 1.386 . S
C249 C253 1.393 . S
C250 H242 0.950 1_565 S
C250 C248 1.391 . S
C250 C251 1.400 . S
C251 C250 1.400 . S
C251 C252 1.398 . S
C251 C257 1.491 1_566 S
C252 H243 0.950 1_556 S
C252 C251 1.398 . S
C252 C253 1.391 . S
C253 H241 0.950 . S
C253 C249 1.393 . S
C253 C252 1.391 . S
C254 H244 0.950 . S
C254 C255 1.386 . S
C254 C256 1.391 . S
C255 C254 1.386 . S
C255 C259 1.393 . S
C256 H245 0.950 1_545 S
C256 C254 1.391 . S
C256 C257 1.400 . S
C257 C251 1.491 1_544 S
C257 C256 1.400 . S
C257 C258 1.398 . S
C258 H246 0.950 1_554 S
C258 C257 1.398 . S
C258 C259 1.391 . S
C259 H247 0.950 . S
C259 C255 1.393 . S
C259 C258 1.391 . S
H260 C268 0.950 . S
H261 C273 0.950 . S
H262 C270 0.950 . S
H263 C272 0.950 . S
H264 C274 0.950 . S
H265 C276 0.950 . S
H266 C278 0.950 . S
H267 C279 0.950 . S
C268 H260 0.950 . S
C268 C269 1.386 . S
C268 C270 1.391 . S
C269 C268 1.386 . S
C269 C273 1.393 . S
C270 H262 0.950 . S
C270 C268 1.391 . S
C270 C271 1.400 . S
C271 C270 1.400 . S
C271 C272 1.398 . S
C271 C277 1.491 . S
C272 H263 0.950 . S
C272 C271 1.398 . S
C272 C273 1.391 . S
C273 H261 0.950 . S
C273 C269 1.393 . S
C273 C272 1.391 . S
C274 H264 0.950 . S
C274 C275 1.386 . S
C274 C276 1.391 . S
C275 C274 1.386 . S
C275 C279 1.393 . S
C276 H265 0.950 . S
C276 C274 1.391 . S
C276 C277 1.400 . S
C277 C271 1.491 . S
C277 C276 1.400 . S
C277 C278 1.398 . S
C278 H266 0.950 . S
C278 C277 1.398 . S
C278 C279 1.391 . S
C279 H267 0.950 . S
C279 C275 1.393 . S
C279 C278 1.391 . S
H280 C288 0.950 . S
H281 C293 0.950 . S
H282 C290 0.950 . S
H283 C292 0.950 . S
H284 C294 0.950 . S
H285 C296 0.950 . S
H286 C298 0.950 . S
H287 C299 0.950 . S
C288 H280 0.950 . S
C288 C289 1.386 . S
C288 C290 1.391 . S
C289 C288 1.386 . S
C289 C293 1.393 . S
C290 H282 0.950 . S
C290 C288 1.391 . S
C290 C291 1.400 . S
C291 C290 1.400 . S
C291 C292 1.398 . S
C291 C297 1.491 1_654 S
C292 H283 0.950 . S
C292 C291 1.398 . S
C292 C293 1.391 . S
C293 H281 0.950 . S
C293 C289 1.393 . S
C293 C292 1.391 . S
C294 H284 0.950 . S
C294 C295 1.386 . S
C294 C296 1.391 . S
C295 C294 1.386 . S
C295 C299 1.393 . S
C296 H285 0.950 . S
C296 C294 1.391 . S
C296 C297 1.400 . S
C297 C291 1.491 1_456 S
C297 C296 1.400 . S
C297 C298 1.398 . S
C298 H286 0.950 . S
C298 C297 1.398 . S
C298 C299 1.391 . S
C299 H287 0.950 . S
C299 C295 1.393 . S
C299 C298 1.391 . S
H300 C308 0.950 . S
H301 C313 0.950 . S
H302 C310 0.950 . S
H303 C312 0.950 1_565 S
H304 C314 0.950 . S
H305 C316 0.950 . S
H306 C318 0.926 1_545 S
H307 C319 0.950 . S
C308 H300 0.950 . S
C308 C309 1.386 . S
C308 C310 1.391 . S
C309 C308 1.386 . S
C309 C313 1.393 . S
C310 H302 0.950 . S
C310 C308 1.391 . S
C310 C311 1.400 . S
C311 C310 1.400 . S
C311 C312 1.398 . S
C311 C317 1.491 1_545 S
C312 H303 0.950 1_545 S
C312 C311 1.398 . S
C312 C313 1.391 . S
C313 H301 0.950 . S
C313 C309 1.393 . S
C313 C312 1.391 . S
C314 H304 0.950 . S
C314 C315 1.386 . S
C314 C316 1.391 . S
C315 C314 1.386 . S
C315 C319 1.393 . S
C316 H305 0.950 . S
C316 C314 1.391 . S
C316 C317 1.400 . S
C317 C311 1.491 1_565 S
C317 C316 1.400 . S
C317 C318 1.398 . S
C318 H306 0.926 1_565 S
C318 C317 1.398 . S
C318 C319 1.391 . S
C319 H307 0.950 . S
C319 C315 1.393 . S
C319 C318 1.391 . S
H320 C328 0.950 . S
H321 C333 0.950 . S
H322 C330 0.950 . S
H323 C332 0.950 1_554 S
H324 C334 0.950 . S
H325 C336 0.950 . S
H326 C338 0.950 1_556 S
H327 C339 0.950 . S
C328 H320 0.950 . S
C328 C329 1.386 . S
C328 C330 1.391 . S
C329 C328 1.386 . S
C329 C333 1.393 . S
C330 H322 0.950 . S
C330 C328 1.391 . S
C330 C331 1.400 . S
C331 C330 1.400 . S
C331 C332 1.398 . S
C331 C337 1.491 1_556 S
C332 H323 0.950 1_556 S
C332 C331 1.398 . S
C332 C333 1.391 . S
C333 H321 0.950 . S
C333 C329 1.393 . S
C333 C332 1.391 . S
C334 H324 0.950 . S
C334 C335 1.386 . S
C334 C336 1.391 . S
C335 C334 1.386 . S
C335 C339 1.393 . S
C336 H325 0.950 . S
C336 C334 1.391 . S
C336 C337 1.400 . S
C337 C331 1.491 1_554 S
C337 C336 1.400 . S
C337 C338 1.398 . S
C338 H326 0.950 1_554 S
C338 C337 1.398 . S
C338 C339 1.391 . S
C339 H327 0.950 . S
C339 C335 1.393 . S
C339 C338 1.391 . S
H340 C348 0.950 . S
H341 C353 0.950 . S
H342 C350 0.950 . S
H343 C352 0.950 1_455 S
H344 C354 0.950 . S
H345 C356 0.950 . S
H346 C358 0.950 1_655 S
H347 C359 0.950 . S
C348 H340 0.950 . S
C348 C349 1.386 . S
C348 C350 1.391 . S
C349 C348 1.386 . S
C349 C353 1.393 . S
C350 H342 0.950 . S
C350 C348 1.391 . S
C350 C351 1.400 . S
C351 C350 1.400 . S
C351 C352 1.398 . S
C351 C357 1.491 1_655 S
C352 H343 0.950 1_655 S
C352 C351 1.398 . S
C352 C353 1.391 . S
C353 H341 0.950 . S
C353 C349 1.393 . S
C353 C352 1.391 . S
C354 H344 0.950 . S
C354 C355 1.386 . S
C354 C356 1.391 . S
C355 C354 1.386 . S
C355 C359 1.393 . S
C356 H345 0.950 . S
C356 C354 1.391 . S
C356 C357 1.400 . S
C357 C351 1.491 1_455 S
C357 C356 1.400 . S
C357 C358 1.398 . S
C358 H346 0.950 1_455 S
C358 C357 1.398 . S
C358 C359 1.391 . S
C359 H347 0.950 . S
C359 C355 1.393 . S
C359 C358 1.391 . S
H360 C368 0.950 . S
H361 C373 0.950 . S
H362 C370 0.950 . S
H363 C372 0.950 . S
H364 C374 0.950 . S
H365 C376 0.950 . S
H366 C378 0.950 . S
H367 C379 0.950 . S
C368 H360 0.950 . S
C368 C369 1.386 . S
C368 C370 1.391 . S
C369 C368 1.386 . S
C369 C373 1.393 . S
C370 H362 0.950 . S
C370 C368 1.391 . S
C370 C371 1.400 . S
C371 C370 1.400 . S
C371 C372 1.398 . S
C371 C377 1.491 . S
C372 H363 0.950 . S
C372 C371 1.398 . S
C372 C373 1.391 . S
C373 H361 0.950 . S
C373 C369 1.393 . S
C373 C372 1.391 . S
C374 H364 0.950 . S
C374 C375 1.386 . S
C374 C376 1.391 . S
C375 C374 1.386 . S
C375 C379 1.393 . S
C376 H365 0.950 . S
C376 C374 1.391 . S
C376 C377 1.400 . S
C377 C371 1.491 . S
C377 C376 1.400 . S
C377 C378 1.398 . S
C378 H366 0.950 . S
C378 C377 1.398 . S
C378 C379 1.391 . S
C379 H367 0.950 . S
C379 C375 1.393 . S
C379 C378 1.391 . S
H380 C388 0.950 . S
H381 C393 0.950 . S
H382 C390 0.950 . S
H383 C392 0.950 . S
H384 C394 0.950 . S
H385 C396 0.950 . S
H386 C398 0.950 . S
H387 C399 0.950 . S
C388 H380 0.950 . S
C388 C389 1.386 . S
C388 C390 1.391 . S
C389 C388 1.386 . S
C389 C393 1.393 . S
C390 H382 0.950 . S
C390 C388 1.391 . S
C390 C391 1.400 . S
C391 C390 1.400 . S
C391 C392 1.398 . S
C391 C397 1.491 . S
C392 H383 0.950 . S
C392 C391 1.398 . S
C392 C393 1.391 . S
C393 H381 0.950 . S
C393 C389 1.393 . S
C393 C392 1.391 . S
C394 H384 0.950 . S
C394 C395 1.386 . S
C394 C396 1.391 . S
C395 C394 1.386 . S
C395 C399 1.393 . S
C396 H385 0.950 . S
C396 C394 1.391 . S
C396 C397 1.400 . S
C397 C391 1.491 . S
C397 C396 1.400 . S
C397 C398 1.398 . S
C398 H386 0.950 . S
C398 C397 1.398 . S
C398 C399 1.391 . S
C399 H387 0.950 . S
C399 C395 1.393 . S
C399 C398 1.391 . S
H400 C408 0.950 . S
H401 C413 0.950 . S
H402 C410 0.950 . S
H403 C412 0.950 . S
H404 C414 0.950 . S
H405 C416 0.950 . S
H406 C418 0.950 . S
H407 C419 0.950 . S
C408 H400 0.950 . S
C408 C409 1.386 . S
C408 C410 1.391 . S
C409 C408 1.386 . S
C409 C413 1.393 . S
C410 H402 0.950 . S
C410 C408 1.391 . S
C410 C411 1.400 . S
C411 C410 1.400 . S
C411 C412 1.398 . S
C411 C417 1.491 . S
C412 H403 0.950 . S
C412 C411 1.398 . S
C412 C413 1.391 . S
C413 H401 0.950 . S
C413 C409 1.393 . S
C413 C412 1.391 . S
C414 H404 0.950 . S
C414 C415 1.386 . S
C414 C416 1.391 . S
C415 C414 1.386 . S
C415 C419 1.393 . S
C416 H405 0.950 . S
C416 C414 1.391 . S
C416 C417 1.400 . S
C417 C411 1.491 . S
C417 C416 1.400 . S
C417 C418 1.398 . S
C418 H406 0.950 . S
C418 C417 1.398 . S
C418 C419 1.391 . S
C419 H407 0.950 . S
C419 C415 1.393 . S
C419 C418 1.391 . S
H420 C428 0.950 . S
H421 C433 0.950 . S
H422 C430 0.950 . S
H423 C432 0.950 . S
H424 C434 0.950 . S
H425 C436 0.950 . S
H426 C438 0.950 . S
H427 C439 0.950 . S
C428 H420 0.950 . S
C428 C429 1.386 . S
C428 C430 1.391 . S
C429 C428 1.386 . S
C429 C433 1.393 . S
C430 H422 0.950 . S
C430 C428 1.391 . S
C430 C431 1.400 . S
C431 C430 1.400 . S
C431 C432 1.398 . S
C431 C437 1.491 . S
C432 H423 0.950 . S
C432 C431 1.398 . S
C432 C433 1.391 . S
C433 H421 0.950 . S
C433 C429 1.393 . S
C433 C432 1.391 . S
C434 H424 0.950 . S
C434 C435 1.386 . S
C434 C436 1.391 . S
C435 C434 1.386 . S
C435 C439 1.393 . S
C436 H425 0.950 . S
C436 C434 1.391 . S
C436 C437 1.400 . S
C437 C431 1.491 . S
C437 C436 1.400 . S
C437 C438 1.398 . S
C438 H426 0.950 . S
C438 C437 1.398 . S
C438 C439 1.391 . S
C439 H427 0.950 . S
C439 C435 1.393 . S
C439 C438 1.391 . S
H440 C448 0.950 . S
H441 C453 0.950 . S
H442 C450 0.950 . S
H443 C452 0.950 . S
H444 C454 0.950 . S
H445 C456 0.950 . S
H446 C458 0.950 . S
H447 C459 0.950 . S
C448 H440 0.950 . S
C448 C449 1.386 . S
C448 C450 1.391 . S
C449 C448 1.386 . S
C449 C453 1.393 . S
C450 H442 0.950 . S
C450 C448 1.391 . S
C450 C451 1.400 . S
C451 C450 1.400 . S
C451 C452 1.398 . S
C451 C457 1.491 . S
C452 H443 0.950 . S
C452 C451 1.398 . S
C452 C453 1.391 . S
C453 H441 0.950 . S
C453 C449 1.393 . S
C453 C452 1.391 . S
C454 H444 0.950 . S
C454 C455 1.386 . S
C454 C456 1.391 . S
C455 C454 1.386 . S
C455 C459 1.393 . S
C456 H445 0.950 . S
C456 C454 1.391 . S
C456 C457 1.400 . S
C457 C451 1.491 . S
C457 C456 1.400 . S
C457 C458 1.398 . S
C458 H446 0.950 . S
C458 C457 1.398 . S
C458 C459 1.391 . S
C459 H447 0.950 . S
C459 C455 1.393 . S
C459 C458 1.391 . S
H460 C468 0.950 . S
H461 C473 0.950 . S
H462 C470 0.950 . S
H463 C472 0.950 . S
H464 C474 0.950 . S
H465 C476 0.950 . S
H466 C478 0.950 . S
H467 C479 0.950 . S
C468 H460 0.950 . S
C468 C469 1.386 . S
C468 C470 1.391 . S
C469 C468 1.386 . S
C469 C473 1.393 . S
C470 H462 0.950 . S
C470 C468 1.391 . S
C470 C471 1.400 . S
C471 C470 1.400 . S
C471 C472 1.398 . S
C471 C477 1.491 . S
C472 H463 0.950 . S
C472 C471 1.398 . S
C472 C473 1.391 . S
C473 H461 0.950 . S
C473 C469 1.393 . S
C473 C472 1.391 . S
C474 H464 0.950 . S
C474 C475 1.386 . S
C474 C476 1.391 . S
C475 C474 1.386 . S
C475 C479 1.393 . S
C476 H465 0.950 . S
C476 C474 1.391 . S
C476 C477 1.400 . S
C477 C471 1.491 . S
C477 C476 1.400 . S
C477 C478 1.398 . S
C478 H466 0.950 . S
C478 C477 1.398 . S
C478 C479 1.391 . S
C479 H467 0.950 . S
C479 C475 1.393 . S
C479 C478 1.391 . S
H480 C488 0.950 . S
H481 C493 0.950 . S
H482 C490 0.950 . S
H483 C492 0.950 1_655 S
H484 C494 0.950 . S
H485 C496 0.950 . S
H486 C498 0.950 . S
H487 C499 0.950 . S
C488 H480 0.950 . S
C488 C489 1.386 . S
C488 C490 1.391 . S
C489 C488 1.386 . S
C489 C493 1.393 . S
C490 H482 0.950 . S
C490 C488 1.391 . S
C490 C491 1.400 . S
C491 C490 1.400 . S
C491 C492 1.398 . S
C491 C497 1.491 . S
C492 H483 0.950 1_455 S
C492 C491 1.398 . S
C492 C493 1.391 . S
C493 H481 0.950 . S
C493 C489 1.393 . S
C493 C492 1.391 . S
C494 H484 0.950 . S
C494 C495 1.386 . S
C494 C496 1.391 . S
C495 C494 1.386 . S
C495 C499 1.393 1_655 S
C496 H485 0.950 . S
C496 C494 1.391 . S
C496 C497 1.400 1_655 S
C497 C491 1.491 . S
C497 C496 1.400 1_455 S
C497 C498 1.398 . S
C498 H486 0.950 . S
C498 C497 1.398 . S
C498 C499 1.391 . S
C499 H487 0.950 . S
C499 C495 1.393 1_455 S
C499 C498 1.391 . S
H500 C508 0.950 . S
H501 C513 0.950 . S
H502 C510 0.950 . S
H503 C512 0.950 . S
H504 C514 0.950 . S
H505 C516 0.950 . S
H506 C518 0.950 . S
H507 C519 0.950 . S
C508 H500 0.950 . S
C508 C509 1.386 . S
C508 C510 1.391 . S
C509 C508 1.386 . S
C509 C513 1.393 . S
C510 H502 0.950 . S
C510 C508 1.391 . S
C510 C511 1.400 . S
C511 C510 1.400 . S
C511 C512 1.398 . S
C511 C517 1.491 . S
C512 H503 0.950 . S
C512 C511 1.398 . S
C512 C513 1.391 . S
C513 H501 0.950 . S
C513 C509 1.393 . S
C513 C512 1.391 . S
C514 H504 0.950 . S
C514 C515 1.386 1_565 S
C514 C516 1.391 . S
C515 C514 1.386 1_545 S
C515 C519 1.393 . S
C516 H505 0.950 . S
C516 C514 1.391 . S
C516 C517 1.400 . S
C517 C511 1.491 . S
C517 C516 1.400 . S
C517 C518 1.398 . S
C518 H506 0.950 . S
C518 C517 1.398 . S
C518 C519 1.391 1_565 S
C519 H507 0.950 . S
C519 C515 1.393 . S
C519 C518 1.391 1_545 S
H520 C528 0.950 . S
H521 C533 0.950 . S
H522 C530 0.950 . S
H523 C532 0.950 . S
H524 C534 0.950 . S
H525 C536 0.950 . S
H526 C538 0.950 . S
H527 C539 0.950 . S
C528 H520 0.950 . S
C528 C529 1.386 . S
C528 C530 1.391 . S
C529 C528 1.386 . S
C529 C533 1.393 . S
C530 H522 0.950 . S
C530 C528 1.391 . S
C530 C531 1.400 . S
C531 C530 1.400 . S
C531 C532 1.398 . S
C531 C537 1.491 . S
C532 H523 0.950 . S
C532 C531 1.398 . S
C532 C533 1.391 . S
C533 H521 0.950 . S
C533 C529 1.393 . S
C533 C532 1.391 . S
C534 H524 0.950 . S
C534 C535 1.386 . S
C534 C536 1.391 . S
C535 C534 1.386 . S
C535 C539 1.393 . S
C536 H525 0.950 . S
C536 C534 1.391 . S
C536 C537 1.400 . S
C537 C531 1.491 . S
C537 C536 1.400 . S
C537 C538 1.398 . S
C538 H526 0.950 . S
C538 C537 1.398 . S
C538 C539 1.391 . S
C539 H527 0.950 . S
C539 C535 1.393 . S
C539 C538 1.391 . S
H540 C548 0.950 . S
H541 C553 0.950 . S
H542 C550 0.950 . S
H543 C552 0.950 . S
H544 C554 0.950 . S
H545 C556 0.950 . S
H546 C558 0.950 . S
H547 C559 0.950 . S
C548 H540 0.950 . S
C548 C549 1.386 . S
C548 C550 1.391 . S
C549 C548 1.386 . S
C549 C553 1.393 . S
C550 H542 0.950 . S
C550 C548 1.391 . S
C550 C551 1.400 . S
C551 C550 1.400 . S
C551 C552 1.398 . S
C551 C557 1.491 . S
C552 H543 0.950 . S
C552 C551 1.398 . S
C552 C553 1.391 . S
C553 H541 0.950 . S
C553 C549 1.393 . S
C553 C552 1.391 . S
C554 H544 0.950 . S
C554 C555 1.386 1_545 S
C554 C556 1.391 . S
C555 C554 1.386 1_565 S
C555 C559 1.393 . S
C556 H545 0.950 . S
C556 C554 1.391 . S
C556 C557 1.400 . S
C557 C551 1.491 . S
C557 C556 1.400 . S
C557 C558 1.398 1_545 S
C558 H546 0.950 . S
C558 C557 1.398 1_565 S
C558 C559 1.391 . S
C559 H547 0.950 . S
C559 C555 1.393 . S
C559 C558 1.391 . S
H560 C568 0.950 . S
H561 C573 0.950 . S
H562 C570 0.950 . S
H563 C572 0.950 . S
H564 C574 0.950 . S
H565 C576 0.950 . S
H566 C578 0.950 . S
H567 C579 0.950 . S
C568 H560 0.950 . S
C568 C569 1.386 . S
C568 C570 1.391 . S
C569 C568 1.386 . S
C569 C573 1.393 . S
C570 H562 0.950 . S
C570 C568 1.391 . S
C570 C571 1.400 . S
C571 C570 1.400 . S
C571 C572 1.398 . S
C571 C577 1.491 . S
C572 H563 0.950 . S
C572 C571 1.398 . S
C572 C573 1.391 . S
C573 H561 0.950 . S
C573 C569 1.393 . S
C573 C572 1.391 . S
C574 H564 0.950 . S
C574 C575 1.386 . S
C574 C576 1.391 . S
C575 C574 1.386 . S
C575 C579 1.393 . S
C576 H565 0.950 . S
C576 C574 1.391 . S
C576 C577 1.400 . S
C577 C571 1.491 . S
C577 C576 1.400 . S
C577 C578 1.398 . S
C578 H566 0.950 . S
C578 C577 1.398 . S
C578 C579 1.391 . S
C579 H567 0.950 . S
C579 C575 1.393 . S
C579 C578 1.391 . S
H580 C588 0.950 . S
H581 C593 0.950 . S
H582 C590 0.950 . S
H583 C592 0.950 . S
H584 C594 0.950 . S
H585 C596 0.950 1_455 S
H586 C598 0.950 . S
H587 C599 0.950 . S
C588 H580 0.950 . S
C588 C589 1.386 1_655 S
C588 C590 1.391 . S
C589 C588 1.386 1_455 S
C589 C593 1.393 . S
C590 H582 0.950 . S
C590 C588 1.391 . S
C590 C591 1.400 . S
C591 C590 1.400 . S
C591 C592 1.398 1_655 S
C591 C597 1.491 . S
C592 H583 0.950 . S
C592 C591 1.398 1_455 S
C592 C593 1.391 . S
C593 H581 0.950 . S
C593 C589 1.393 . S
C593 C592 1.391 . S
C594 H584 0.950 . S
C594 C595 1.386 . S
C594 C596 1.391 . S
C595 C594 1.386 . S
C595 C599 1.393 . S
C596 H585 0.950 1_655 S
C596 C594 1.391 . S
C596 C597 1.400 . S
C597 C591 1.491 . S
C597 C596 1.400 . S
C597 C598 1.398 . S
C598 H586 0.950 . S
C598 C597 1.398 . S
C598 C599 1.391 . S
C599 H587 0.950 . S
C599 C595 1.393 . S
C599 C598 1.391 . S
C249 C162 2.500 . S
C255 C2 2.328 . S
C269 C217 2.330 . S
C275 C57 2.506 . S
C289 C82 2.333 . S
C295 C122 2.504 . S
C309 C17 2.491 . S
C315 C177 2.308 . S
C329 C202 2.492 . S
C335 C42 2.313 . S
C349 C97 2.499 . S
C355 C137 2.325 . S
C369 C29 1.920 . S
C375 C92 1.876 . S
C389 C69 1.911 . S
C395 C12 1.859 . S
C409 C109 1.912 . S
C415 C52 1.860 . S
C429 C128 1.910 . S
C435 C191 1.858 . S
C449 C168 1.913 . S
C455 C231 1.873 . S
C469 C151 1.874 . S
C475 C208 1.920 . S
C489 C8 1.165 . S
C495 C111 1.223 . S
C509 C48 1.135 1_455 S
C515 C31 1.206 . S
C529 C88 1.180 1_565 S
C535 C71 1.233 . S
C549 C149 1.177 . S
C555 C172 1.231 . S
C569 C189 1.154 1_655 S
C575 C212 1.217 . S
C589 C132 1.215 . S
C595 C229 1.150 1_545 S
