# Generated by pormake.
# Topology yff, (5)-cn, num edge types: 1
# Building blocks:
#     Node 0, Type 0, BuildingBlock: BEQFEK_clean_sbu_0, # of connection points: 5
#     Node 1, Type 0, BuildingBlock: BEQFEK_clean_sbu_0, # of connection points: 5
#     Node 2, Type 0, BuildingBlock: BEQFEK_clean_sbu_0, # of connection points: 5
#     Node 3, Type 0, BuildingBlock: BEQFEK_clean_sbu_0, # of connection points: 5
#     Node 4, Type 0, BuildingBlock: BEQFEK_clean_sbu_0, # of connection points: 5
#     Node 5, Type 0, BuildingBlock: BEQFEK_clean_sbu_0, # of connection points: 5
#     Node 6, Type 0, BuildingBlock: BEQFEK_clean_sbu_0, # of connection points: 5
#     Node 7, Type 0, BuildingBlock: BEQFEK_clean_sbu_0, # of connection points: 5
#     Node 8, Type 0, BuildingBlock: BEQFEK_clean_sbu_0, # of connection points: 5
#     Node 9, Type 0, BuildingBlock: BEQFEK_clean_sbu_0, # of connection points: 5
#     Node 10, Type 0, BuildingBlock: BEQFEK_clean_sbu_0, # of connection points: 5
#     Node 11, Type 0, BuildingBlock: BEQFEK_clean_sbu_0, # of connection points: 5
#     Node 12, Type 0, BuildingBlock: BEQFEK_clean_sbu_0, # of connection points: 5
#     Node 13, Type 0, BuildingBlock: BEQFEK_clean_sbu_0, # of connection points: 5
#     Node 14, Type 0, BuildingBlock: BEQFEK_clean_sbu_0, # of connection points: 5
#     Node 15, Type 0, BuildingBlock: BEQFEK_clean_sbu_0, # of connection points: 5
#     Edge 16, Type (0, 0), BuildingBlock: EZIPEK_clean_linker_0, # of connection points: 2
#     Edge 17, Type (0, 0), BuildingBlock: EZIPEK_clean_linker_0, # of connection points: 2
#     Edge 18, Type (0, 0), BuildingBlock: EZIPEK_clean_linker_0, # of connection points: 2
#     Edge 19, Type (0, 0), BuildingBlock: EZIPEK_clean_linker_0, # of connection points: 2
#     Edge 20, Type (0, 0), BuildingBlock: EZIPEK_clean_linker_0, # of connection points: 2
#     Edge 21, Type (0, 0), BuildingBlock: EZIPEK_clean_linker_0, # of connection points: 2
#     Edge 22, Type (0, 0), BuildingBlock: EZIPEK_clean_linker_0, # of connection points: 2
#     Edge 23, Type (0, 0), BuildingBlock: EZIPEK_clean_linker_0, # of connection points: 2
#     Edge 24, Type (0, 0), BuildingBlock: EZIPEK_clean_linker_0, # of connection points: 2
#     Edge 25, Type (0, 0), BuildingBlock: EZIPEK_clean_linker_0, # of connection points: 2
#     Edge 26, Type (0, 0), BuildingBlock: EZIPEK_clean_linker_0, # of connection points: 2
#     Edge 27, Type (0, 0), BuildingBlock: EZIPEK_clean_linker_0, # of connection points: 2
#     Edge 28, Type (0, 0), BuildingBlock: EZIPEK_clean_linker_0, # of connection points: 2
#     Edge 29, Type (0, 0), BuildingBlock: EZIPEK_clean_linker_0, # of connection points: 2
#     Edge 30, Type (0, 0), BuildingBlock: EZIPEK_clean_linker_0, # of connection points: 2
#     Edge 31, Type (0, 0), BuildingBlock: EZIPEK_clean_linker_0, # of connection points: 2
#     Edge 32, Type (0, 0), BuildingBlock: EZIPEK_clean_linker_0, # of connection points: 2
#     Edge 33, Type (0, 0), BuildingBlock: EZIPEK_clean_linker_0, # of connection points: 2
#     Edge 34, Type (0, 0), BuildingBlock: EZIPEK_clean_linker_0, # of connection points: 2
#     Edge 35, Type (0, 0), BuildingBlock: EZIPEK_clean_linker_0, # of connection points: 2
#     Edge 36, Type (0, 0), BuildingBlock: EZIPEK_clean_linker_0, # of connection points: 2
#     Edge 37, Type (0, 0), BuildingBlock: EZIPEK_clean_linker_0, # of connection points: 2
#     Edge 38, Type (0, 0), BuildingBlock: EZIPEK_clean_linker_0, # of connection points: 2
#     Edge 39, Type (0, 0), BuildingBlock: EZIPEK_clean_linker_0, # of connection points: 2
#     Edge 40, Type (0, 0), BuildingBlock: EZIPEK_clean_linker_0, # of connection points: 2
#     Edge 41, Type (0, 0), BuildingBlock: EZIPEK_clean_linker_0, # of connection points: 2
#     Edge 42, Type (0, 0), BuildingBlock: EZIPEK_clean_linker_0, # of connection points: 2
#     Edge 43, Type (0, 0), BuildingBlock: EZIPEK_clean_linker_0, # of connection points: 2
#     Edge 44, Type (0, 0), BuildingBlock: EZIPEK_clean_linker_0, # of connection points: 2
#     Edge 45, Type (0, 0), BuildingBlock: EZIPEK_clean_linker_0, # of connection points: 2
#     Edge 46, Type (0, 0), BuildingBlock: EZIPEK_clean_linker_0, # of connection points: 2
#     Edge 47, Type (0, 0), BuildingBlock: EZIPEK_clean_linker_0, # of connection points: 2
#     Edge 48, Type (0, 0), BuildingBlock: EZIPEK_clean_linker_0, # of connection points: 2
#     Edge 49, Type (0, 0), BuildingBlock: EZIPEK_clean_linker_0, # of connection points: 2
#     Edge 50, Type (0, 0), BuildingBlock: EZIPEK_clean_linker_0, # of connection points: 2
#     Edge 51, Type (0, 0), BuildingBlock: EZIPEK_clean_linker_0, # of connection points: 2
#     Edge 52, Type (0, 0), BuildingBlock: EZIPEK_clean_linker_0, # of connection points: 2
#     Edge 53, Type (0, 0), BuildingBlock: EZIPEK_clean_linker_0, # of connection points: 2
#     Edge 54, Type (0, 0), BuildingBlock: EZIPEK_clean_linker_0, # of connection points: 2
#     Edge 55, Type (0, 0), BuildingBlock: EZIPEK_clean_linker_0, # of connection points: 2
# Relax obj value: 0.553
# Max RMSD: 0.296
# Mean RMSD: 0.281
data_MOF--net-yff--node1-BEQFEK_clean_sbu_0--edge1-EZIPEK_clean_linker_0
_symmetry_space_group_name_H-M    P1
_symmetry_Int_Tables_number       1
_symmetry_cell_setting            triclinic
loop_
_symmetry_equiv_pos_as_xyz
'x, y, z'
_cell_length_a     53.259111
_cell_length_b     51.416189
_cell_length_c     20.850844
_cell_angle_alpha  89.947957
_cell_angle_beta   89.270029
_cell_angle_gamma 88.950535
loop_
_atom_site_label
_atom_site_type_symbol
_atom_site_fract_x
_atom_site_fract_y
_atom_site_fract_z
_atom_type_partial_charge
Co0 Co 0.07363 0.04629 0.32811 0.0
Co1 Co 0.1291 0.03435 0.2827 0.0
C2 C 0.09285 0.99309 0.27504 0.0
O3 O 0.07832 0.01112 0.29529 0.0
O4 O 0.11622 0.9974 0.26754 0.0
C5 C 0.0479 0.02444 0.42401 0.0
O6 O 0.07081 0.01465 0.42735 0.0
C7 C 0.18414 0.01965 0.27631 0.0
C8 C 0.19981 0.05658 0.24135 0.0
C9 C 0.20665 0.03185 0.26154 0.0
N10 N 0.16492 0.03658 0.26569 0.0
N11 N 0.17458 0.05852 0.24446 0.0
C12 C 0.18101 0.99253 0.30059 0.0
H13 H 0.16307 0.99092 0.32783 0.0
H14 H 0.19708 0.98659 0.33101 0.0
H15 H 0.18054 0.9791 0.25902 0.0
C16 C 0.09817 0.06888 0.43522 0.0
N17 N 0.09967 0.05638 0.37914 0.0
N18 N 0.12266 0.04769 0.36855 0.0
C19 C 0.13623 0.05312 0.42136 0.0
C20 C 0.12087 0.06659 0.46557 0.0
C21 C 0.07466 0.0812 0.4621 0.0
H22 H 0.06091 0.085 0.42357 0.0
H23 H 0.06651 0.06815 0.4989 0.0
H24 H 0.07906 0.09978 0.48619 0.0
O25 O 0.07231 0.06992 0.25616 0.0
O26 O 0.11079 0.05933 0.21906 0.0
H27 H 0.17488 0.05596 0.39608 0.0
H28 H 0.16916 0.04891 0.47998 0.0
C29 C 0.16298 0.04499 0.43032 0.0
H30 H 0.16532 0.02398 0.4193 0.0
H31 H 0.16393 0.07511 0.23336 0.0
O32 O 0.04304 0.04164 0.38163 0.0
C33 C 0.08976 0.07196 0.21411 0.0
Co34 Co 0.48035 0.05999 0.80715 0.0
Co35 Co 0.47663 0.1184 0.7721 0.0
C36 C 0.52542 0.09069 0.76029 0.0
O37 O 0.51374 0.07022 0.77464 0.0
O38 O 0.51404 0.11266 0.75866 0.0
C39 C 0.50577 0.03117 0.88954 0.0
O40 O 0.51339 0.05508 0.89754 0.0
C41 C 0.48275 0.17499 0.7807 0.0
C42 C 0.44976 0.18988 0.72798 0.0
C43 C 0.47062 0.19766 0.76134 0.0
N44 N 0.46959 0.15462 0.75996 0.0
N45 N 0.44992 0.16368 0.72835 0.0
C46 C 0.50652 0.17274 0.81776 0.0
H47 H 0.50785 0.15357 0.84211 0.0
H48 H 0.50754 0.18867 0.85346 0.0
H49 H 0.52271 0.1745 0.7841 0.0
C50 C 0.45701 0.07865 0.92776 0.0
N51 N 0.46712 0.08316 0.86941 0.0
N52 N 0.46609 0.10824 0.85705 0.0
C53 C 0.45561 0.12052 0.90854 0.0
C54 C 0.44986 0.10208 0.95512 0.0
C55 C 0.45315 0.05224 0.95589 0.0
H56 H 0.44955 0.03813 0.91715 0.0
H57 H 0.47021 0.04623 0.98239 0.0
H58 H 0.43716 0.05215 0.99037 0.0
O59 O 0.45599 0.05703 0.73854 0.0
O60 O 0.45608 0.09841 0.70688 0.0
H61 H 0.44066 0.15577 0.86876 0.0
H62 H 0.43865 0.15401 0.95549 0.0
C63 C 0.45037 0.14907 0.91265 0.0
H64 H 0.46845 0.15929 0.91588 0.0
H65 H 0.43654 0.15195 0.7072 0.0
O66 O 0.48881 0.02686 0.84884 0.0
C67 C 0.44868 0.07495 0.7006 0.0
Co68 Co 0.44487 0.48117 0.32141 0.0
Co69 Co 0.38679 0.47993 0.29855 0.0
C70 C 0.41353 0.52922 0.28798 0.0
O71 O 0.4333 0.51616 0.29983 0.0
O72 O 0.39213 0.51853 0.28651 0.0
C73 C 0.47259 0.50168 0.41503 0.0
O74 O 0.44951 0.51034 0.42524 0.0
C75 C 0.33126 0.4849 0.31058 0.0
C76 C 0.32005 0.44707 0.27077 0.0
C77 C 0.31056 0.46976 0.29808 0.0
N78 N 0.35209 0.47157 0.29195 0.0
N79 N 0.34519 0.44903 0.26805 0.0
C80 C 0.33131 0.51157 0.33898 0.0
H81 H 0.34848 0.51416 0.36775 0.0
H82 H 0.31425 0.51521 0.369 0.0
H83 H 0.33154 0.52605 0.29951 0.0
C84 C 0.42998 0.45113 0.43362 0.0
N85 N 0.42376 0.46458 0.38089 0.0
N86 N 0.39921 0.46705 0.37795 0.0
C87 C 0.38909 0.45622 0.43132 0.0
C88 C 0.40847 0.4462 0.46877 0.0
C89 C 0.45608 0.44204 0.44897 0.0
H90 H 0.46873 0.44423 0.40698 0.0
H91 H 0.46289 0.45298 0.49091 0.0
H92 H 0.45633 0.42115 0.46189 0.0
O93 O 0.44637 0.46103 0.24204 0.0
O94 O 0.40495 0.45991 0.22782 0.0
H95 H 0.3579 0.44597 0.493 0.0
H96 H 0.3532 0.47469 0.44366 0.0
C97 C 0.36159 0.45481 0.44528 0.0
H98 H 0.35259 0.443 0.4078 0.0
H99 H 0.35771 0.43483 0.25046 0.0
O100 O 0.47688 0.48765 0.36568 0.0
C101 C 0.42742 0.454 0.20988 0.0
Co102 Co 0.00652 0.37055 0.77895 0.0
Co103 Co 0.05956 0.36277 0.8419 0.0
C104 C 0.027 0.31715 0.80155 0.0
O105 O 0.00911 0.33165 0.78088 0.0
O106 O 0.04658 0.32674 0.82657 0.0
C107 C 0.95104 0.37672 0.7511 0.0
O108 O 0.94621 0.35391 0.77631 0.0
C109 C 0.08755 0.35248 0.95752 0.0
C110 C 0.11604 0.38291 0.94906 0.0
C111 C 0.10435 0.36684 0.99342 0.0
N112 N 0.08791 0.36146 0.89696 0.0
N113 N 0.10593 0.37862 0.8914 0.0
C114 C 0.07143 0.33046 0.97908 0.0
H115 H 0.07623 0.31301 0.9498 0.0
H116 H 0.05139 0.33528 0.9699 0.0
H117 H 0.07425 0.3258 0.0305 0.0
C118 C 0.99771 0.40145 0.89813 0.0
N119 N 0.01191 0.3851 0.86151 0.0
N120 N 0.03521 0.38553 0.88147 0.0
C121 C 0.03695 0.40399 0.92728 0.0
C122 C 0.01307 0.41368 0.94142 0.0
C123 C 0.97063 0.40762 0.8872 0.0
H124 H 0.96049 0.38921 0.88089 0.0
H125 H 0.96218 0.41869 0.92801 0.0
H126 H 0.96876 0.41943 0.84292 0.0
O127 O 0.03247 0.38454 0.71656 0.0
O128 O 0.07003 0.37804 0.76031 0.0
H129 H 0.07387 0.41685 0.90221 0.0
H130 H 0.05739 0.43777 0.95798 0.0
C131 C 0.06085 0.41722 0.94401 0.0
H132 H 0.06983 0.40756 0.98513 0.0
H133 H 0.10926 0.38966 0.8503 0.0
O134 O 0.97352 0.38464 0.7476 0.0
C135 C 0.05639 0.38621 0.71476 0.0
Co136 Co 0.57502 0.9743 0.67957 0.0
Co137 Co 0.63182 0.97724 0.71891 0.0
C138 C 0.59959 0.0245 0.72325 0.0
O139 O 0.58164 0.01 0.70775 0.0
O140 O 0.62189 0.01534 0.72869 0.0
C141 C 0.54397 0.99656 0.59223 0.0
O142 O 0.56566 0.0077 0.58208 0.0
C143 C 0.68734 0.98688 0.7177 0.0
C144 C 0.70125 0.95171 0.76771 0.0
C145 C 0.70917 0.97427 0.73816 0.0
N146 N 0.66743 0.97227 0.73413 0.0
N147 N 0.67603 0.95134 0.7642 0.0
C148 C 0.68548 0.01242 0.68372 0.0
H149 H 0.68686 0.0283 0.71944 0.0
H150 H 0.66722 0.01441 0.65896 0.0
H151 H 0.70124 0.0144 0.64882 0.0
C152 C 0.59738 0.95145 0.5635 0.0
N153 N 0.59982 0.96252 0.62133 0.0
N154 N 0.6238 0.9647 0.63453 0.0
C155 C 0.63737 0.95562 0.58365 0.0
C156 C 0.62091 0.94722 0.53696 0.0
C157 C 0.5729 0.94411 0.53499 0.0
H158 H 0.55956 0.93882 0.57381 0.0
H159 H 0.56527 0.96078 0.50717 0.0
H160 H 0.57509 0.92741 0.50175 0.0
O161 O 0.57397 0.95007 0.75213 0.0
O162 O 0.6132 0.95504 0.78536 0.0
H163 H 0.67286 0.94389 0.62168 0.0
H164 H 0.67213 0.94518 0.53488 0.0
C165 C 0.66537 0.9547 0.57981 0.0
H166 H 0.67246 0.97481 0.58154 0.0
H167 H 0.66465 0.93662 0.78197 0.0
O168 O 0.54241 0.97908 0.63528 0.0
C169 C 0.59136 0.94517 0.79203 0.0
Co170 Co 0.52886 0.56265 0.18044 0.0
Co171 Co 0.53109 0.62096 0.22148 0.0
C172 C 0.48295 0.59448 0.22636 0.0
O173 O 0.49506 0.57405 0.2098 0.0
O174 O 0.49382 0.61624 0.23083 0.0
C175 C 0.50744 0.53909 0.08012 0.0
O176 O 0.49854 0.5631 0.08064 0.0
C177 C 0.52707 0.67841 0.22326 0.0
C178 C 0.56077 0.68841 0.27817 0.0
C179 C 0.5404 0.69921 0.24664 0.0
N180 N 0.53913 0.65623 0.23999 0.0
N181 N 0.5592 0.6624 0.27298 0.0
C182 C 0.50325 0.67957 0.1862 0.0
H183 H 0.50094 0.66137 0.15846 0.0
H184 H 0.50302 0.69664 0.15359 0.0
H185 H 0.48719 0.68177 0.22032 0.0
C186 C 0.55854 0.58191 0.07314 0.0
N187 N 0.54493 0.58653 0.12665 0.0
N188 N 0.54392 0.61164 0.13812 0.0
C189 C 0.5559 0.62393 0.08931 0.0
C190 C 0.56519 0.60531 0.04613 0.0
C191 C 0.56706 0.55547 0.05077 0.0
H192 H 0.56334 0.54047 0.08741 0.0
H193 H 0.55785 0.55098 0.00484 0.0
H194 H 0.58759 0.55502 0.04172 0.0
O195 O 0.55052 0.55705 0.25456 0.0
O196 O 0.54905 0.5984 0.28731 0.0
H197 H 0.57057 0.65796 0.04222 0.0
H198 H 0.54097 0.66258 0.08485 0.0
C199 C 0.55958 0.65259 0.08571 0.0
H200 H 0.56953 0.65911 0.12907 0.0
H201 H 0.57195 0.64883 0.29165 0.0
O202 O 0.52184 0.5322 0.12561 0.0
C203 C 0.55611 0.57463 0.29487 0.0
Co204 Co 0.94223 0.5141 0.64085 0.0
Co205 Co 0.88595 0.52434 0.6784 0.0
C206 C 0.90785 0.47135 0.68606 0.0
O207 O 0.92877 0.48091 0.67003 0.0
O208 O 0.88793 0.48541 0.6893 0.0
C209 C 0.97858 0.48261 0.57524 0.0
O210 O 0.9678 0.46281 0.60339 0.0
C211 C 0.83064 0.52281 0.68031 0.0
C212 C 0.82042 0.56207 0.71614 0.0
C213 C 0.81032 0.53895 0.69562 0.0
N214 N 0.85187 0.53584 0.69094 0.0
N215 N 0.84559 0.55929 0.71237 0.0
C216 C 0.82994 0.49548 0.65615 0.0
H217 H 0.8345 0.48199 0.69608 0.0
H218 H 0.84438 0.49257 0.61784 0.0
H219 H 0.81109 0.49081 0.63772 0.0
C220 C 0.92713 0.54049 0.52386 0.0
N221 N 0.92128 0.53043 0.58144 0.0
N222 N 0.89741 0.53497 0.5947 0.0
C223 C 0.8872 0.54803 0.54457 0.0
C224 C 0.90585 0.55182 0.49812 0.0
C225 C 0.953 0.53991 0.49466 0.0
H226 H 0.95771 0.51977 0.4801 0.0
H227 H 0.95464 0.55215 0.45129 0.0
H228 H 0.96681 0.54644 0.53029 0.0
O229 O 0.94681 0.53753 0.71324 0.0
O230 O 0.90707 0.54092 0.74727 0.0
H231 H 0.85696 0.57161 0.58142 0.0
H232 H 0.85634 0.5668 0.4954 0.0
C233 C 0.86054 0.55744 0.54215 0.0
H234 H 0.84795 0.54077 0.54995 0.0
H235 H 0.85853 0.57345 0.72435 0.0
O236 O 0.97359 0.50565 0.59405 0.0
C237 C 0.93045 0.54549 0.75415 0.0
Co238 Co 0.97319 0.9354 0.16425 0.0
Co239 Co 0.9774 0.87981 0.21526 0.0
C240 C 0.02058 0.91506 0.20872 0.0
O241 O 0.00827 0.92319 0.16158 0.0
O242 O 0.01169 0.89612 0.24065 0.0
C243 C 0.98959 0.96419 0.06475 0.0
O244 O 0.99304 0.94038 0.04309 0.0
C245 C 0.99151 0.8227 0.21073 0.0
C246 C 0.95813 0.80612 0.25817 0.0
C247 C 0.98035 0.79914 0.22702 0.0
N248 N 0.97627 0.8425 0.23058 0.0
N249 N 0.9565 0.83228 0.25934 0.0
C250 C 0.01611 0.82643 0.17697 0.0
H251 H 0.03044 0.83123 0.21304 0.0
H252 H 0.01466 0.84311 0.1433 0.0
H253 H 0.02234 0.80853 0.15116 0.0
C254 C 0.94365 0.91427 0.06428 0.0
N255 N 0.95639 0.91164 0.11885 0.0
N256 N 0.9625 0.88719 0.12975 0.0
C257 C 0.95426 0.87336 0.07894 0.0
C258 C 0.94267 0.89035 0.03524 0.0
C259 C 0.93412 0.93967 0.03798 0.0
H260 H 0.93431 0.955 0.07526 0.0
H261 H 0.94576 0.94541 0.99594 0.0
H262 H 0.91459 0.93764 0.02119 0.0
O263 O 0.95615 0.93886 0.24878 0.0
O264 O 0.95431 0.89745 0.28024 0.0
H265 H 0.94847 0.83766 0.02749 0.0
H266 H 0.9784 0.84041 0.06689 0.0
C267 C 0.95799 0.84478 0.07098 0.0
H268 H 0.95052 0.83468 0.11399 0.0
H269 H 0.94146 0.8432 0.27821 0.0
O270 O 0.97732 0.96795 0.11681 0.0
C271 C 0.94878 0.9216 0.28847 0.0
Co272 Co 0.94945 0.95457 0.68629 0.0
Co273 Co 0.89368 0.9699 0.7192 0.0
C274 C 0.93198 0.00805 0.74255 0.0
O275 O 0.94565 0.98931 0.72233 0.0
O276 O 0.90815 0.0055 0.74491 0.0
C277 C 0.97872 0.97656 0.59824 0.0
O278 O 0.95648 0.9878 0.59374 0.0
C279 C 0.83826 0.98528 0.72628 0.0
C280 C 0.82254 0.94579 0.72526 0.0
C281 C 0.81574 0.97182 0.72691 0.0
N282 N 0.85749 0.96776 0.72511 0.0
N283 N 0.84775 0.94429 0.7244 0.0
C284 C 0.84134 0.01407 0.7244 0.0
H285 H 0.8424 0.02145 0.77426 0.0
H286 H 0.85905 0.01897 0.69884 0.0
H287 H 0.82503 0.02367 0.70089 0.0
C288 C 0.92761 0.9375 0.56882 0.0
N289 N 0.92476 0.94781 0.62734 0.0
N290 N 0.90273 0.95943 0.63292 0.0
C291 C 0.89144 0.95832 0.57508 0.0
C292 C 0.90715 0.94444 0.53243 0.0
C293 C 0.95062 0.92298 0.54603 0.0
H294 H 0.96218 0.91653 0.58717 0.0
H295 H 0.96174 0.93567 0.51394 0.0
H296 H 0.94514 0.90582 0.51748 0.0
O297 O 0.9465 0.92941 0.75499 0.0
O298 O 0.90719 0.94086 0.77992 0.0
H299 H 0.85152 0.95753 0.57486 0.0
H300 H 0.8651 0.97498 0.50833 0.0
C301 C 0.86669 0.97092 0.56044 0.0
H302 H 0.86422 0.98915 0.58848 0.0
H303 H 0.85842 0.92711 0.72166 0.0
O304 O 0.98186 0.95828 0.63899 0.0
C305 C 0.92658 0.92598 0.78828 0.0
Co306 Co 0.56995 0.9429 0.17983 0.0
Co307 Co 0.55508 0.88762 0.22094 0.0
C308 C 0.51715 0.9279 0.23419 0.0
O309 O 0.53543 0.94065 0.21213 0.0
O310 O 0.52024 0.90349 0.242 0.0
C311 C 0.54962 0.96826 0.08395 0.0
O312 O 0.54035 0.94478 0.0849 0.0
C313 C 0.53836 0.83265 0.23161 0.0
C314 C 0.5752 0.81289 0.24402 0.0
C315 C 0.54984 0.80837 0.23862 0.0
N316 N 0.55626 0.8508 0.23349 0.0
N317 N 0.57818 0.83876 0.24094 0.0
C318 C 0.51114 0.83836 0.22069 0.0
H319 H 0.5089 0.85564 0.18923 0.0
H320 H 0.50188 0.82133 0.19923 0.0
H321 H 0.50188 0.84282 0.26746 0.0
C322 C 0.58882 0.91669 0.06754 0.0
N323 N 0.57899 0.91522 0.1268 0.0
N324 N 0.56672 0.89356 0.13395 0.0
C325 C 0.56705 0.88118 0.07655 0.0
C326 C 0.5806 0.896 0.03196 0.0
C327 C 0.60312 0.93942 0.04253 0.0
H328 H 0.60794 0.95282 0.082 0.0
H329 H 0.59193 0.94979 0.00571 0.0
H330 H 0.62067 0.93235 0.01857 0.0
O331 O 0.5924 0.94252 0.25179 0.0
O332 O 0.58156 0.90277 0.28181 0.0
H333 H 0.56472 0.84022 0.0871 0.0
H334 H 0.55281 0.85237 0.01185 0.0
C335 C 0.55398 0.85629 0.06407 0.0
H336 H 0.53493 0.857 0.08617 0.0
H337 H 0.59532 0.8482 0.24188 0.0
O338 O 0.56608 0.97418 0.12516 0.0
C339 C 0.59527 0.92291 0.28865 0.0
Co340 Co 0.5682 0.53553 0.70998 0.0
Co341 Co 0.6267 0.53311 0.71467 0.0
C342 C 0.59855 0.48557 0.73781 0.0
O343 O 0.57899 0.49975 0.73196 0.0
O344 O 0.62044 0.49503 0.73181 0.0
C345 C 0.53444 0.51338 0.6341 0.0
O346 O 0.5562 0.50199 0.6211 0.0
C347 C 0.68217 0.52517 0.70096 0.0
C348 C 0.6943 0.5659 0.70995 0.0
C349 C 0.70322 0.54069 0.70204 0.0
N350 N 0.66166 0.54061 0.70862 0.0
N351 N 0.66912 0.5649 0.71367 0.0
C352 C 0.68154 0.49628 0.69376 0.0
H353 H 0.67762 0.48744 0.74133 0.0
H354 H 0.6661 0.49094 0.66134 0.0
H355 H 0.69975 0.48845 0.67499 0.0
C356 C 0.57937 0.55853 0.5845 0.0
N357 N 0.58719 0.54897 0.64089 0.0
N358 N 0.61133 0.54355 0.63691 0.0
C359 C 0.61922 0.54773 0.57592 0.0
C360 C 0.59898 0.55724 0.54063 0.0
C361 C 0.55335 0.56839 0.57132 0.0
H362 H 0.54284 0.57239 0.61657 0.0
H363 H 0.54345 0.55396 0.54204 0.0
H364 H 0.55425 0.58653 0.5425 0.0
O365 O 0.57135 0.5577 0.785 0.0
O366 O 0.61307 0.55669 0.78627 0.0
H367 H 0.6583 0.55569 0.56964 0.0
H368 H 0.64576 0.54127 0.4981 0.0
C369 C 0.64503 0.54115 0.55133 0.0
H370 H 0.65106 0.5218 0.56977 0.0
H371 H 0.65693 0.58084 0.72002 0.0
O372 O 0.53377 0.53082 0.67741 0.0
C373 C 0.59196 0.5647 0.80953 0.0
Co374 Co 0.97833 0.54747 0.16662 0.0
Co375 Co 0.98373 0.60893 0.17521 0.0
C376 C 0.02726 0.57393 0.20132 0.0
O377 O 0.01291 0.55499 0.19118 0.0
O378 O 0.01936 0.5975 0.19697 0.0
C379 C 0.9994 0.49875 0.12029 0.0
O380 O 0.02074 0.50903 0.13679 0.0
C381 C 0.99445 0.66614 0.18708 0.0
C382 C 0.95768 0.68263 0.15833 0.0
C383 C 0.9811 0.68953 0.17982 0.0
N384 N 0.97941 0.64637 0.17098 0.0
N385 N 0.9575 0.65653 0.15397 0.0
C386 C 0.02078 0.66258 0.20979 0.0
H387 H 0.02064 0.65109 0.25488 0.0
H388 H 0.03183 0.65126 0.1736 0.0
H389 H 0.02977 0.68157 0.21818 0.0
C390 C 0.95869 0.56167 0.04153 0.0
N391 N 0.96845 0.56877 0.0977 0.0
N392 N 0.9736 0.5937 0.09605 0.0
C393 C 0.96851 0.60283 0.03657 0.0
C394 C 0.95871 0.58273 0.00039 0.0
C395 C 0.94956 0.53498 0.0268 0.0
H396 H 0.94091 0.52626 0.07026 0.0
H397 H 0.9656 0.52251 0.01072 0.0
H398 H 0.93554 0.53563 0.98784 0.0
O399 O 0.95584 0.55432 0.24053 0.0
O400 O 0.95902 0.5974 0.24381 0.0
H401 H 0.95732 0.64227 0.02008 0.0
H402 H 0.97925 0.62937 0.96172 0.0
C403 C 0.97426 0.62963 0.01357 0.0
H404 H 0.98982 0.63787 0.04151 0.0
H405 H 0.94221 0.64553 0.14019 0.0
O406 O 0.97876 0.5106 0.13384 0.0
C407 C 0.94985 0.57627 0.26549 0.0
Co408 Co 0.44289 0.0565 0.32177 0.0
Co409 Co 0.39037 0.03546 0.28207 0.0
C410 C 0.43248 1.00062 0.26995 0.0
O411 O 0.44235 0.02112 0.29052 0.0
O412 O 0.40869 1.00046 0.263 0.0
C413 C 0.47092 0.03698 0.41653 0.0
O414 O 0.44928 0.02521 0.41994 0.0
C415 C 0.33567 0.01848 0.27596 0.0
C416 C 0.31844 0.05665 0.25234 0.0
C417 C 0.31268 0.03107 0.26481 0.0
N418 N 0.35421 0.03598 0.26941 0.0
N419 N 0.34352 0.05867 0.25546 0.0
C420 C 0.33958 0.99085 0.29606 0.0
H421 H 0.35986 0.98629 0.30222 0.0
H422 H 0.32931 0.98742 0.34186 0.0
H423 H 0.33163 0.97779 0.25949 0.0
C424 C 0.41621 0.07266 0.43411 0.0
N425 N 0.41539 0.06312 0.37457 0.0
N426 N 0.39583 0.04827 0.36828 0.0
C427 C 0.38446 0.04648 0.42657 0.0
C428 C 0.39755 0.06149 0.47071 0.0
C429 C 0.43689 0.08924 0.45821 0.0
H430 H 0.44907 0.09583 0.41806 0.0
H431 H 0.44811 0.07824 0.49387 0.0
H432 H 0.42864 0.10647 0.48324 0.0
O433 O 0.44084 0.07874 0.24719 0.0
O434 O 0.40431 0.06272 0.21751 0.0
H435 H 0.34586 0.03809 0.41622 0.0
H436 H 0.3586 0.02832 0.49268 0.0
C437 C 0.36251 0.02963 0.44036 0.0
H438 H 0.36608 0.00996 0.41998 0.0
H439 H 0.35332 0.07592 0.25051 0.0
O440 O 0.47397 0.05463 0.37416 0.0
C441 C 0.42247 0.07857 0.20852 0.0
Co442 Co 0.48432 0.44725 0.79819 0.0
Co443 Co 0.48327 0.38647 0.79163 0.0
C444 C 0.5309 0.41518 0.76937 0.0
O445 O 0.51835 0.43615 0.77645 0.0
O446 O 0.52054 0.39297 0.77384 0.0
C447 C 0.50644 0.49573 0.82926 0.0
O448 O 0.52607 0.48628 0.79802 0.0
C449 C 0.49005 0.32869 0.7944 0.0
C450 C 0.45017 0.31746 0.79161 0.0
C451 C 0.47439 0.30742 0.79206 0.0
N452 N 0.47558 0.35043 0.79486 0.0
N453 N 0.45182 0.34349 0.7932 0.0
C454 C 0.5181 0.32845 0.79458 0.0
H455 H 0.52472 0.34218 0.83149 0.0
H456 H 0.52578 0.3086 0.80385 0.0
H457 H 0.5251 0.33531 0.74726 0.0
C458 C 0.46505 0.4368 0.9283 0.0
N459 N 0.47323 0.42829 0.87069 0.0
N460 N 0.4728 0.40271 0.86968 0.0
C461 C 0.46377 0.39421 0.92676 0.0
C462 C 0.45866 0.41566 0.96567 0.0
C463 C 0.46445 0.46474 0.94837 0.0
H464 H 0.45313 0.47639 0.9141 0.0
H465 H 0.48394 0.4718 0.9477 0.0
H466 H 0.45674 0.46762 0.9975 0.0
O467 O 0.46194 0.44294 0.72493 0.0
O468 O 0.46075 0.39995 0.72257 0.0
H469 H 0.4559 0.36368 0.99507 0.0
H470 H 0.47541 0.35408 0.92673 0.0
C471 C 0.45917 0.36634 0.94283 0.0
H472 H 0.44228 0.35988 0.91716 0.0
H473 H 0.43666 0.35663 0.79232 0.0
O474 O 0.48574 0.48397 0.82479 0.0
C475 C 0.45384 0.42203 0.7007 0.0
Co476 Co 0.07131 0.45152 0.30484 0.0
Co477 Co 0.12877 0.45911 0.31953 0.0
C478 C 0.09641 0.50214 0.27041 0.0
O479 O 0.07812 0.48676 0.27383 0.0
O480 O 0.11845 0.49495 0.28707 0.0
C481 C 0.02196 0.47076 0.32264 0.0
O482 O 0.02731 0.49019 0.28422 0.0
C483 C 0.18231 0.47415 0.32714 0.0
C484 C 0.19938 0.4367 0.35768 0.0
C485 C 0.20515 0.46175 0.33926 0.0
N486 N 0.16386 0.45703 0.33749 0.0
N487 N 0.17426 0.43476 0.35599 0.0
C488 C 0.17817 0.50123 0.30284 0.0
H489 H 0.16409 0.51144 0.33389 0.0
H490 H 0.19593 0.51221 0.30182 0.0
H491 H 0.17042 0.50041 0.25374 0.0
C492 C 0.07585 0.43468 0.43844 0.0
N493 N 0.0859 0.4452 0.38512 0.0
N494 N 0.10966 0.45032 0.39481 0.0
C495 C 0.11509 0.44428 0.4564 0.0
C496 C 0.09377 0.4341 0.48558 0.0
C497 C 0.05045 0.42267 0.44233 0.0
H498 H 0.0362 0.43784 0.45441 0.0
H499 H 0.04961 0.40758 0.48027 0.0
H500 H 0.04574 0.41372 0.39576 0.0
O501 O 0.08321 0.4251 0.2454 0.0
O502 O 0.12406 0.43044 0.254 0.0
H503 H 0.13825 0.4504 0.53847 0.0
H504 H 0.15074 0.46292 0.4633 0.0
C505 C 0.14029 0.44683 0.48614 0.0
H506 H 0.15112 0.42839 0.47939 0.0
H507 H 0.16421 0.41791 0.36526 0.0
O508 O 0.03498 0.44989 0.31977 0.0
C509 C 0.10562 0.41806 0.23131 0.0
Co510 Co 0.06299 0.07006 0.83289 0.0
Co511 Co 0.04573 0.12539 0.78811 0.0
C512 C 0.00922 0.08491 0.78433 0.0
O513 O 0.0287 0.07358 0.80481 0.0
O514 O 0.01049 0.10938 0.77505 0.0
C515 C 0.04294 0.04471 0.93185 0.0
O516 O 0.03666 0.06913 0.94232 0.0
C517 C 0.02967 0.18232 0.78623 0.0
C518 C 0.06432 0.19953 0.74723 0.0
C519 C 0.04079 0.20604 0.77173 0.0
N520 N 0.04612 0.16277 0.77166 0.0
N521 N 0.06668 0.17341 0.748 0.0
C522 C 1.00385 0.17848 0.81305 0.0
H523 H 1.0014 0.15802 0.82855 0.0
H524 H 1.00021 0.19188 0.85393 0.0
H525 H 0.98992 0.18329 0.77551 0.0
C526 C 0.08375 0.09692 0.93756 0.0
N527 N 0.0723 0.0979 0.88092 0.0
N528 N 0.06014 0.12008 0.87362 0.0
C529 C 0.06243 0.13344 0.92931 0.0
C530 C 0.07695 0.11874 0.97229 0.0
C531 C 0.09771 0.0735 0.96213 0.0
H532 H 0.10137 0.05922 0.92311 0.0
H533 H 0.08678 0.06439 0.0015 0.0
H534 H 0.11584 0.07955 0.98252 0.0
O535 O 0.08397 0.06865 0.75793 0.0
O536 O 0.06989 0.10713 0.72106 0.0
H537 H 0.06247 0.1741 0.91652 0.0
H538 H 0.05062 0.16414 0.99392 0.0
C539 C 0.0509 0.15955 0.94189 0.0
H540 H 0.03161 0.16048 0.92268 0.0
H541 H 0.08269 0.16282 0.73389 0.0
O542 O 0.05863 0.03909 0.88699 0.0
C543 C 0.08345 0.08618 0.71471 0.0
C544 C 1.00238 0.0151 0.56236 0.0
C545 C 0.99944 0.98772 0.55991 0.0
C546 C 0.0255 0.98536 0.46263 0.0
C547 C 0.02826 0.01277 0.4649 0.0
N548 N 0.01509 0.05441 0.50784 0.0
N549 N 0.01266 0.94606 0.51724 0.0
C550 C 0.01553 0.02789 0.51224 0.0
C551 C 0.01232 0.97257 0.51285 0.0
N552 N 0.9935 0.02862 0.61464 0.0
N553 N 0.03418 0.97185 0.41005 0.0
H554 H 1.00401 0.93609 0.55462 0.0
H555 H 0.0236 0.93393 0.48782 0.0
H556 H 0.04285 0.98088 0.371 0.0
H557 H 0.03055 0.95234 0.40165 0.0
H558 H 0.99718 0.04809 0.62336 0.0
H559 H 0.98449 0.01957 0.65309 0.0
H560 H 1.00421 0.06652 0.53741 0.0
H561 H 0.02354 0.06441 0.47023 0.0
C562 C 0.54331 0.01003 0.93579 0.0
C563 C 0.51687 0.01074 0.93024 0.0
C564 C 0.51237 0.98692 0.03025 0.0
C565 C 0.5389 0.98678 0.03727 0.0
N566 N 0.57949 1.00213 0.00235 0.0
N567 N 0.47723 0.99178 0.95898 0.0
C568 C 0.55443 0.99938 0.99161 0.0
C569 C 0.5016 0.99681 0.97348 0.0
N570 N 0.55773 0.01776 0.88485 0.0
N571 N 0.49738 0.97868 0.07964 0.0
H572 H 0.46925 0.99685 0.91539 0.0
H573 H 0.46588 0.97962 0.98626 0.0
H574 H 0.50465 0.97225 0.12309 0.0
H575 H 0.47791 0.9809 0.08049 0.0
H576 H 0.57697 0.01406 0.88145 0.0
H577 H 0.54985 0.02465 0.84234 0.0
H578 H 0.59112 0.01349 0.97373 0.0
H579 H 0.58837 0.9952 0.04319 0.0
C580 C 0.49854 0.52998 0.56591 0.0
C581 C 0.51363 0.50902 0.58849 0.0
C582 C 0.50591 0.48444 0.49041 0.0
C583 C 0.49121 0.50558 0.46671 0.0
N584 N 0.48019 0.55109 0.47329 0.0
N585 N 0.5224 0.4631 0.5848 0.0
C586 C 0.48937 0.52911 0.50227 0.0
C587 C 0.51435 0.48523 0.55446 0.0
N588 N 0.49172 0.54993 0.60601 0.0
N589 N 0.51349 0.46447 0.45117 0.0
H590 H 0.52747 0.46312 0.63305 0.0
H591 H 0.52103 0.44461 0.56489 0.0
H592 H 0.51054 0.46436 0.40203 0.0
H593 H 0.52591 0.44977 0.46559 0.0
H594 H 0.47924 0.56482 0.59325 0.0
H595 H 0.49544 0.54964 0.65488 0.0
H596 H 0.48063 0.56949 0.49404 0.0
H597 H 0.47493 0.55136 0.42522 0.0
C598 C 0.0086 0.48225 0.00926 0.0
C599 C 0.99996 0.47723 0.07287 0.0
C600 C 0.99841 0.43054 0.04909 0.0
C601 C 1.00646 0.43569 0.9852 0.0
N602 N 0.01504 0.46623 0.90056 0.0
N603 N 0.98306 0.44774 0.15129 0.0
C604 C 0.01016 0.46155 0.96407 0.0
C605 C 0.9936 0.4517 0.09202 0.0
N606 N 0.01587 0.50674 0.99247 0.0
N607 N 0.99632 0.40536 0.06929 0.0
H608 H 0.98006 0.46273 0.18437 0.0
H609 H 0.97572 0.4301 0.16627 0.0
H610 H 0.99897 0.38947 0.0387 0.0
H611 H 0.99342 0.40001 0.11692 0.0
H612 H 0.02569 0.51095 0.9504 0.0
H613 H 0.01327 0.5229 0.02216 0.0
H614 H 0.01621 0.4847 0.88063 0.0
H615 H 0.01638 0.45149 0.86627 0.0
C616 C 0.51669 0.03287 0.55415 0.0
C617 C 0.52215 0.00583 0.55475 0.0
C618 C 0.49583 0.99988 0.461 0.0
C619 C 0.49127 0.02723 0.45848 0.0
N620 N 0.50084 0.07031 0.49615 0.0
N621 N 0.51073 0.96276 0.52212 0.0
C622 C 0.50266 0.04393 0.50319 0.0
C623 C 0.50994 0.98901 0.51207 0.0
N624 N 0.52323 0.04758 0.60558 0.0
N625 N 0.48771 0.98444 0.41237 0.0
H626 H 0.51938 0.9543 0.56156 0.0
H627 H 0.50032 0.94954 0.49625 0.0
H628 H 0.47802 0.99182 0.3731 0.0
H629 H 0.4927 0.96489 0.40713 0.0
H630 H 0.51631 0.0664 0.61324 0.0
H631 H 0.53271 0.03973 0.64484 0.0
H632 H 0.51095 0.0833 0.52355 0.0
H633 H 0.4912 0.07929 0.45891 0.0
C634 C 0.52625 0.50942 0.99508 0.0
C635 C 0.50536 0.52394 0.01938 0.0
C636 C 0.48778 0.52585 0.91104 0.0
C637 C 0.50939 0.51247 0.88694 0.0
N638 N 0.55346 0.50303 0.90314 0.0
N639 N 0.46269 0.53846 0.00435 0.0
C640 C 0.52998 0.50769 0.92791 0.0
C641 C 0.4851 0.5302 0.97816 0.0
N642 N 0.54186 0.49609 0.03532 0.0
N643 N 0.47026 0.53493 0.86886 0.0
H644 H 0.45974 0.53945 0.0539 0.0
H645 H 0.44639 0.54148 0.97816 0.0
H646 H 0.47268 0.53277 0.81934 0.0
H647 H 0.45489 0.54663 0.88191 0.0
H648 H 0.55639 0.48392 0.01864 0.0
H649 H 0.53797 0.4939 0.08406 0.0
H650 H 0.5693 0.50125 0.93181 0.0
H651 H 0.55771 0.50538 0.85462 0.0
C652 C 0.01367 0.48972 0.49714 0.0
C653 C 0.98976 0.47935 0.51058 0.0
C654 C 0.98634 0.46459 0.39935 0.0
C655 C 0.00956 0.47625 0.38485 0.0
N656 N 0.0442 0.50296 0.41728 0.0
N657 N 0.9502 0.46411 0.47021 0.0
C658 C 0.02275 0.49003 0.43281 0.0
C659 C 0.97521 0.46859 0.46068 0.0
N660 N 0.02809 0.49831 0.54639 0.0
N661 N 0.97493 0.44956 0.35461 0.0
H662 H 0.94062 0.46872 0.51267 0.0
H663 H 0.93823 0.45877 0.43357 0.0
H664 H 0.98181 0.44733 0.30782 0.0
H665 H 0.95958 0.43797 0.36526 0.0
H666 H 0.04658 0.50416 0.54088 0.0
H667 H 0.02223 0.49771 0.5943 0.0
H668 H 0.05288 0.51588 0.44792 0.0
H669 H 0.05262 0.50232 0.37212 0.0
C670 C 0.02986 0.98349 0.02695 0.0
C671 C 1.00327 0.98553 0.034 0.0
C672 C 1.00272 0.02579 0.97207 0.0
C673 C 0.02944 0.02433 0.9672 0.0
N674 N 0.06867 1.0052 0.002 0.0
N675 N 0.96469 0.0104 0.02289 0.0
C676 C 0.0431 1.00405 0.9976 0.0
C677 C 0.98984 0.00738 0.01013 0.0
N678 N 0.04266 0.96206 0.0491 0.0
N679 N 0.9894 0.04374 0.93713 0.0
H680 H 0.95392 0.99634 0.04561 0.0
H681 H 0.95468 0.02766 0.01489 0.0
H682 H 0.99759 0.05704 0.90616 0.0
H683 H 0.96994 0.04389 0.93324 0.0
H684 H 0.06124 0.95766 0.03653 0.0
H685 H 0.03464 0.94805 0.07846 0.0
H686 H 0.07936 0.9929 0.03096 0.0
H687 H 0.07921 0.01993 0.98138 0.0
C688 C 0.0618 0.0869 0.12379 0.0
C689 C 0.08486 0.08889 0.15715 0.0
C690 C 0.09936 0.12041 0.07661 0.0
C691 C 0.07641 0.11804 0.04375 0.0
N692 N 0.0327 0.10724 0.05022 0.0
N693 N 0.12224 0.11363 0.17537 0.0
C694 C 0.0565 0.1044 0.07296 0.0
C695 C 0.10264 0.10763 0.1368 0.0
N696 N 0.04581 0.06699 0.13648 0.0
N697 N 0.11838 0.13392 0.0485 0.0
H698 H 0.12463 0.10539 0.22066 0.0
H699 H 0.13461 0.12859 0.16529 0.0
H700 H 0.11578 0.14441 0.0061 0.0
H701 H 0.13667 0.1338 0.06562 0.0
H702 H 0.03032 0.06309 0.10823 0.0
H703 H 0.04937 0.05255 0.17033 0.0
H704 H 0.01711 0.09921 0.07294 0.0
H705 H 0.02828 0.11991 0.0129 0.0
C706 C 0.40923 0.08429 0.63738 0.0
C707 C 0.43087 0.06831 0.6485 0.0
C708 C 0.41741 0.03926 0.56272 0.0
C709 C 0.40028 0.05865 0.54139 0.0
N710 N 0.37826 0.09902 0.56008 0.0
N711 N 0.45682 0.03129 0.61555 0.0
C712 C 0.39534 0.08076 0.58014 0.0
C713 C 0.43506 0.04562 0.61042 0.0
N714 N 0.40159 0.10231 0.68197 0.0
N715 N 0.4176 0.01523 0.53511 0.0
H716 H 0.47146 0.03627 0.64547 0.0
H717 H 0.46161 0.01599 0.58478 0.0
H718 H 0.40497 0.01024 0.49968 0.0
H719 H 0.42838 0.99962 0.55208 0.0
H720 H 0.38488 0.11304 0.67858 0.0
H721 H 0.41059 0.10459 0.72569 0.0
H722 H 0.37594 0.11723 0.58141 0.0
H723 H 0.36714 0.09602 0.51993 0.0
C724 C 0.41822 0.44531 0.09278 0.0
C725 C 0.43185 0.43915 0.14932 0.0
C726 C 0.46072 0.41139 0.08592 0.0
C727 C 0.44676 0.41732 0.03033 0.0
N728 N 0.40756 0.43169 0.98543 0.0
N729 N 0.46014 0.40884 0.20182 0.0
C730 C 0.42363 0.43109 0.03591 0.0
C731 C 0.4512 0.4197 0.14664 0.0
N732 N 0.40203 0.46623 0.09077 0.0
N733 N 0.48362 0.39916 0.08071 0.0
H734 H 0.4526 0.41342 0.24694 0.0
H735 H 0.47287 0.39321 0.20207 0.0
H736 H 0.49107 0.39257 0.03706 0.0
H737 H 0.49581 0.39711 0.11916 0.0
H738 H 0.39369 0.47266 0.04853 0.0
H739 H 0.39914 0.47915 0.12862 0.0
H740 H 0.38955 0.43991 0.9885 0.0
H741 H 0.41142 0.4215 0.94302 0.0
C742 C 0.09202 0.3952 0.55706 0.0
C743 C 0.09032 0.42259 0.55039 0.0
C744 C 0.07042 0.42622 0.65688 0.0
C745 C 0.06881 0.3987 0.65913 0.0
N746 N 0.0774 0.35659 0.61231 0.0
N747 N 0.07911 0.46469 0.59301 0.0
C748 C 0.07973 0.38303 0.60983 0.0
C749 C 0.08015 0.43829 0.60053 0.0
N750 N 0.10534 0.38095 0.51249 0.0
N751 N 0.06289 0.44067 0.709 0.0
H752 H 0.08722 0.47405 0.55365 0.0
H753 H 0.06969 0.47733 0.62433 0.0
H754 H 0.05527 0.43243 0.75048 0.0
H755 H 0.06562 0.46056 0.71329 0.0
H756 H 0.10924 0.36113 0.51681 0.0
H757 H 0.11444 0.38951 0.47342 0.0
H758 H 0.08249 0.34415 0.57485 0.0
H759 H 0.06884 0.34704 0.65072 0.0
C760 C 0.60347 0.90716 0.86342 0.0
C761 C 0.58604 0.9274 0.84738 0.0
C762 C 0.55872 0.91301 0.93597 0.0
C763 C 0.57879 0.89782 0.96076 0.0
N764 N 0.62002 0.87902 0.94719 0.0
N765 N 0.54734 0.95088 0.87361 0.0
C766 C 0.60094 0.89411 0.92347 0.0
C767 C 0.56343 0.93035 0.8842 0.0
N768 N 0.62196 0.89992 0.82072 0.0
N769 N 0.53546 0.91172 0.96387 0.0
H770 H 0.55077 0.96552 0.84031 0.0
H771 H 0.53175 0.95501 0.90269 0.0
H772 H 0.53163 0.89932 0.00212 0.0
H773 H 0.51952 0.92069 0.94481 0.0
H774 H 0.63395 0.88398 0.82777 0.0
H775 H 0.62359 0.90812 0.77511 0.0
H776 H 0.63794 0.87805 0.92665 0.0
H777 H 0.61792 0.86829 0.98944 0.0
C778 C 0.59131 0.5833 0.37157 0.0
C779 C 0.57105 0.56745 0.35248 0.0
C780 C 0.57956 0.53875 0.44378 0.0
C781 C 0.59526 0.55779 0.47012 0.0
N782 N 0.61641 0.59849 0.45998 0.0
N783 N 0.54371 0.53148 0.37712 0.0
C784 C 0.60152 0.58004 0.43392 0.0
C785 C 0.56483 0.54521 0.38967 0.0
N786 N 0.60127 0.60085 0.3296 0.0
N787 N 0.57806 0.51489 0.47229 0.0
H788 H 0.53076 0.5368 0.34228 0.0
H789 H 0.53753 0.51636 0.4061 0.0
H790 H 0.58882 0.50983 0.51206 0.0
H791 H 0.56836 0.49946 0.45264 0.0
H792 H 0.61729 0.61142 0.33926 0.0
H793 H 0.5952 0.60274 0.28243 0.0
H794 H 0.6192 0.61662 0.43902 0.0
H795 H 0.62494 0.596 0.50441 0.0
C796 C 0.97099 0.56359 0.89599 0.0
C797 C 0.95477 0.5807 0.93021 0.0
C798 C 0.92582 0.58046 0.83982 0.0
C799 C 0.93926 0.55871 0.81326 0.0
N800 N 0.97214 0.52594 0.82804 0.0
N801 N 0.91593 0.60524 0.93633 0.0
C802 C 0.96144 0.54947 0.84387 0.0
C803 C 0.93201 0.58937 0.90234 0.0
N804 N 0.99518 0.55994 0.91529 0.0
N805 N 0.90779 0.59306 0.80497 0.0
H806 H 0.92041 0.61267 0.98122 0.0
H807 H 0.89777 0.60979 0.92143 0.0
H808 H 0.90378 0.58805 0.7578 0.0
H809 H 0.89884 0.61018 0.8203 0.0
H810 H 0.0084 0.54921 0.88854 0.0
H811 H 1.00251 0.57004 0.95404 0.0
H812 H 0.98705 0.51778 0.85341 0.0
H813 H 0.96423 0.51294 0.79614 0.0
C814 C 0.91205 0.91657 0.36605 0.0
C815 C 0.93391 0.93016 0.34621 0.0
C816 C 0.92596 0.96145 0.433 0.0
C817 C 0.90848 0.94444 0.4612 0.0
N818 N 0.88414 0.90579 0.45499 0.0
N819 N 0.96421 0.96332 0.37049 0.0
C820 C 0.90099 0.92215 0.42729 0.0
C821 C 0.94135 0.95237 0.38149 0.0
N822 N 0.90151 0.89892 0.32609 0.0
N823 N 0.92901 0.98557 0.45865 0.0
H824 H 0.97753 0.95566 0.3384 0.0
H825 H 0.97127 0.97802 0.39916 0.0
H826 H 0.91797 0.99232 0.49708 0.0
H827 H 0.94046 0.99953 0.43765 0.0
H828 H 0.8845 0.89001 0.33624 0.0
H829 H 0.90836 0.89523 0.27985 0.0
H830 H 0.88011 0.88754 0.43645 0.0
H831 H 0.87502 0.9103 0.49833 0.0
C832 C 0.9558 0.8863 0.91935 0.0
C833 C 0.93634 0.88719 0.96637 0.0
C834 C 0.90655 0.90243 0.88468 0.0
C835 C 0.92719 0.90598 0.84169 0.0
N836 N 0.96548 0.88437 0.806 0.0
N837 N 0.89227 0.88835 0.99096 0.0
C838 C 0.95 0.89246 0.85495 0.0
C839 C 0.91124 0.8924 0.94756 0.0
N840 N 0.98011 0.88146 0.9363 0.0
N841 N 0.88272 0.90773 0.86458 0.0
H842 H 0.89574 0.88039 0.03618 0.0
H843 H 0.87333 0.89171 0.98221 0.0
H844 H 0.87863 0.91018 0.81621 0.0
H845 H 0.86686 0.90787 0.89413 0.0
H846 H 0.99519 0.88388 0.90461 0.0
H847 H 0.9854 0.87659 0.98271 0.0
H848 H 0.98157 0.87294 0.81328 0.0
H849 H 0.96014 0.8857 0.75812 0.0
C850 C 0.62062 0.91157 0.45554 0.0
C851 C 0.62576 0.93784 0.47055 0.0
C852 C 0.62521 0.94863 0.35648 0.0
C853 C 0.61278 0.92497 0.34465 0.0
N854 N 0.61302 0.87955 0.37256 0.0
N855 N 0.63524 0.98127 0.43506 0.0
C856 C 0.61488 0.90487 0.3911 0.0
C857 C 0.62942 0.9562 0.42078 0.0
N858 N 0.61978 0.89362 0.5038 0.0
N859 N 0.63428 0.96294 0.30645 0.0
H860 H 0.63921 0.98738 0.48143 0.0
H861 H 0.63486 0.99623 0.40131 0.0
H862 H 0.63424 0.95604 0.25941 0.0
H863 H 0.64502 0.97948 0.31245 0.0
H864 H 0.61324 0.87482 0.49834 0.0
H865 H 0.62513 0.89804 0.5505 0.0
H866 H 0.61536 0.86373 0.40318 0.0
H867 H 0.61241 0.87435 0.32433 0.0
C868 C 0.56254 0.61199 0.92747 0.0
C869 C 0.57753 0.6077 0.98205 0.0
C870 C 0.60675 0.58048 0.91941 0.0
C871 C 0.59073 0.58308 0.86529 0.0
N872 N 0.56067 0.61102 0.81157 0.0
N873 N 0.61847 0.5983 0.02267 0.0
C874 C 0.57104 0.60218 0.86721 0.0
C875 C 0.60157 0.59609 0.97449 0.0
N876 N 0.53951 0.62384 0.93372 0.0
N877 N 0.62514 0.56164 0.92176 0.0
H878 H 0.61422 0.60912 0.06393 0.0
H879 H 0.63704 0.59171 0.01863 0.0
H880 H 0.62903 0.54841 0.88521 0.0
H881 H 0.63522 0.55752 0.96316 0.0
H882 H 0.52647 0.62447 0.89688 0.0
H883 H 0.53311 0.63198 0.9768 0.0
H884 H 0.54746 0.62622 0.81017 0.0
H885 H 0.56752 0.60525 0.76656 0.0
C886 C 0.91137 0.55892 0.32031 0.0
C887 C 0.93152 0.57675 0.32062 0.0
C888 C 0.91921 0.58863 0.43077 0.0
C889 C 0.90538 0.56556 0.43545 0.0
N890 N 0.88599 0.52956 0.3838 0.0
N891 N 0.95484 0.60889 0.3803 0.0
C892 C 0.90023 0.55129 0.37952 0.0
C893 C 0.93503 0.59247 0.37616 0.0
N894 N 0.90285 0.54951 0.26353 0.0
N895 N 0.91865 0.6056 0.48101 0.0
H896 H 0.9682 0.61144 0.34427 0.0
H897 H 0.95947 0.61838 0.42253 0.0
H898 H 0.90756 0.60227 0.52178 0.0
H899 H 0.92692 0.6238 0.4792 0.0
H900 H 0.88711 0.53788 0.26028 0.0
H901 H 0.90982 0.55584 0.21929 0.0
H902 H 0.88414 0.51643 0.34618 0.0
H903 H 0.87689 0.52425 0.42633 0.0
C904 C 0.4544 0.11306 0.07171 0.0
C905 C 0.43886 0.10548 0.0206 0.0
C906 C 0.40637 0.09236 0.09818 0.0
C907 C 0.42417 0.09465 0.14791 0.0
N908 N 0.45672 0.12266 0.18508 0.0
N909 N 0.39861 0.0919 0.98337 0.0
C910 C 0.44568 0.10988 0.13582 0.0
C911 C 0.41412 0.09687 0.03344 0.0
N912 N 0.47805 0.12178 0.05938 0.0
N913 N 0.38185 0.08789 0.11346 0.0
H914 H 0.40341 0.09649 0.93605 0.0
H915 H 0.38154 0.08253 0.9881 0.0
H916 H 0.37533 0.08863 0.16069 0.0
H917 H 0.3675 0.08712 0.08017 0.0
H918 H 0.4913 0.12437 0.09505 0.0
H919 H 0.48493 0.12499 0.01307 0.0
H920 H 0.47138 0.13557 0.17849 0.0
H921 H 0.44872 0.12328 0.23102 0.0
C922 C 0.43586 0.40608 0.59474 0.0
C923 C 0.43541 0.42386 0.64731 0.0
C924 C 0.40707 0.45286 0.58784 0.0
C925 C 0.40854 0.43562 0.53503 0.0
N926 N 0.41465 0.3918 0.4988 0.0
N927 N 0.4111 0.45736 0.70264 0.0
C928 C 0.41907 0.41052 0.54332 0.0
C929 C 0.41782 0.44503 0.64685 0.0
N930 N 0.45369 0.38671 0.58971 0.0
N931 N 0.39696 0.47726 0.58088 0.0
H932 H 0.41731 0.45093 0.74731 0.0
H933 H 0.39706 0.47172 0.7051 0.0
H934 H 0.38834 0.4835 0.53888 0.0
H935 H 0.39834 0.49162 0.61586 0.0
H936 H 0.45584 0.37512 0.54897 0.0
H937 H 0.46814 0.38383 0.62208 0.0
H938 H 0.42053 0.37249 0.50424 0.0
H939 H 0.40288 0.39541 0.45994 0.0
C940 C 0.08435 0.37434 0.10486 0.0
C941 C 0.10599 0.37121 0.06426 0.0
C942 C 0.13155 0.39125 0.14804 0.0
C943 C 0.10925 0.39586 0.18492 0.0
N944 N 0.07041 0.37558 0.21524 0.0
N945 N 0.15115 0.36704 0.05998 0.0
C946 C 0.08779 0.38159 0.1692 0.0
C947 C 0.12999 0.37653 0.09017 0.0
N948 N 0.06043 0.37348 0.08245 0.0
N949 N 0.15403 0.40058 0.16746 0.0
H950 H 0.15035 0.35524 0.01938 0.0
H951 H 0.16909 0.36847 0.07882 0.0
H952 H 0.15723 0.40666 0.21416 0.0
H953 H 0.16975 0.4015 0.13735 0.0
H954 H 0.0448 0.37786 0.11142 0.0
H955 H 0.05593 0.37199 0.03452 0.0
H956 H 0.05502 0.36396 0.20582 0.0
H957 H 0.07337 0.37945 0.2637 0.0
C958 C 0.11078 0.04891 0.57171 0.0
C959 C 0.12243 0.06886 0.53639 0.0
C960 C 0.11406 0.09893 0.62598 0.0
C961 C 0.09748 0.08055 0.65375 0.0
N962 N 0.07637 0.03941 0.64327 0.0
N963 N 0.13598 0.11297 0.52921 0.0
C964 C 0.09513 0.05568 0.62465 0.0
C965 C 0.1247 0.09385 0.56394 0.0
N966 N 0.11327 0.02372 0.55176 0.0
N967 N 0.12 0.12083 0.65908 0.0
H968 H 0.14482 0.10913 0.48513 0.0
H969 H 0.13566 0.13246 0.5428 0.0
H970 H 0.1131 0.12472 0.70516 0.0
H971 H 0.13352 0.13383 0.64333 0.0
H972 H 0.10649 0.00809 0.57827 0.0
H973 H 0.12448 0.01844 0.51234 0.0
H974 H 0.0724 0.02228 0.61902 0.0
H975 H 0.06274 0.04449 0.67746 0.0
C976 C 0.03724 0.9598 0.21936 0.0
C977 C 0.04101 0.93284 0.23145 0.0
C978 C 0.08316 0.94392 0.2713 0.0
C979 C 0.07977 0.96989 0.24852 0.0
N980 N 0.05655 0.99823 0.17787 0.0
N981 N 0.07001 0.89872 0.26326 0.0
C982 C 0.058 0.976 0.21355 0.0
C983 C 0.06479 0.92457 0.25582 0.0
N984 N 0.01368 0.97056 0.21853 0.0
N985 N 0.10321 0.93793 0.30878 0.0
H986 H 0.05701 0.88448 0.25262 0.0
H987 H 0.08771 0.89155 0.27573 0.0
H988 H 0.11691 0.95153 0.31904 0.0
H989 H 0.10541 0.92007 0.33187 0.0
H990 H 0.0104 0.99054 0.2138 0.0
H991 H 0.99797 0.96001 0.23179 0.0
H992 H 0.04082 1.00312 0.1508 0.0
H993 H 0.07205 0.01011 0.17077 0.0
C994 C 0.58857 0.06222 0.79362 0.0
C995 C 0.59314 0.05261 0.73116 0.0
C996 C 0.56295 0.08469 0.68869 0.0
C997 C 0.55311 0.08783 0.75136 0.0
N998 N 0.55965 0.08594 0.86482 0.0
N999 N 0.59015 0.05887 0.61759 0.0
C1000 C 0.56744 0.07918 0.80442 0.0
C1001 C 0.58255 0.06587 0.67797 0.0
N1002 N 0.60383 0.05423 0.84208 0.0
N1003 N 0.55282 0.09898 0.64003 0.0
H1004 H 0.60506 0.04569 0.61001 0.0
H1005 H 0.58169 0.0656 0.5759 0.0
H1006 H 0.5384 0.11263 0.64853 0.0
H1007 H 0.5596 0.09861 0.59302 0.0
H1008 H 0.60238 0.06113 0.88889 0.0
H1009 H 0.6192 0.04176 0.83353 0.0
H1010 H 0.56747 0.07841 0.90653 0.0
H1011 H 0.54475 0.09913 0.87246 0.0
C1012 C 0.42161 0.56354 0.20745 0.0
C1013 C 0.41737 0.557 0.27254 0.0
C1014 C 0.44798 0.58913 0.30615 0.0
C1015 C 0.45582 0.5914 0.24126 0.0
N1016 N 0.44529 0.58931 0.13015 0.0
N1017 N 0.41923 0.56905 0.38297 0.0
C1018 C 0.44058 0.58175 0.19184 0.0
C1019 C 0.42777 0.57231 0.32156 0.0
N1020 N 0.4091 0.55046 0.16113 0.0
N1021 N 0.46109 0.60147 0.35261 0.0
H1022 H 0.40457 0.55643 0.39346 0.0
H1023 H 0.42534 0.57961 0.42213 0.0
H1024 H 0.47548 0.61427 0.34147 0.0
H1025 H 0.4578 0.59933 0.40156 0.0
H1026 H 0.4129 0.55203 0.11224 0.0
H1027 H 0.39477 0.53762 0.17267 0.0
H1028 H 0.4345 0.58402 0.09119 0.0
H1029 H 0.45926 0.60266 0.11918 0.0
C1030 C 0.91663 0.42626 0.64953 0.0
C1031 C 0.90785 0.44298 0.69917 0.0
C1032 C 0.91594 0.40839 0.77753 0.0
C1033 C 0.9306 0.39486 0.73052 0.0
N1034 N 0.94283 0.38892 0.62002 0.0
N1035 N 0.89736 0.44982 0.81054 0.0
C1036 C 0.92988 0.40296 0.66559 0.0
C1037 C 0.9063 0.43373 0.76309 0.0
N1038 N 0.91258 0.43317 0.58722 0.0
N1039 N 0.91165 0.39723 0.83597 0.0
H1040 H 0.88941 0.46809 0.80106 0.0
H1041 H 0.89879 0.44557 0.8592 0.0
H1042 H 0.91819 0.37859 0.84727 0.0
H1043 H 0.8996 0.40528 0.87062 0.0
H1044 H 0.91698 0.42122 0.54824 0.0
H1045 H 0.90261 0.45015 0.57528 0.0
H1046 H 0.9457 0.39532 0.57315 0.0
H1047 H 0.95147 0.37102 0.63016 0.0
C1048 C 0.96128 0.07643 0.75933 0.0
C1049 C 0.9865 0.06768 0.7726 0.0
C1050 C 0.96951 0.02467 0.795 0.0
C1051 C 0.94622 0.03106 0.76726 0.0
N1052 N 0.92057 0.06415 0.71694 0.0
N1053 N 0.01276 0.02821 0.76805 0.0
C1054 C 0.94209 0.05739 0.74794 0.0
C1055 C 0.99019 0.04027 0.7807 0.0
N1056 N 0.95524 0.1023 0.75782 0.0
N1057 N 0.97257 1.00235 0.82972 0.0
H1058 H 0.02713 0.03728 0.74273 0.0
H1059 H 0.01531 0.00809 0.77189 0.0
H1060 H 0.95742 0.99062 0.84192 0.0
H1061 H 0.9896 0.99735 0.85119 0.0
H1062 H 0.93678 0.10915 0.75407 0.0
H1063 H 0.96808 0.11688 0.76549 0.0
H1064 H 0.91778 0.08229 0.69556 0.0
H1065 H 0.9062 0.05103 0.70962 0.0
C1066 C 0.46814 0.9338 0.25075 0.0
C1067 C 0.49326 0.94348 0.24954 0.0
C1068 C 0.47556 0.98705 0.23666 0.0
C1069 C 0.45087 0.979 0.25145 0.0
N1070 N 0.42446 0.94303 0.28109 0.0
N1071 N 0.51731 0.98174 0.27524 0.0
C1072 C 0.44722 0.95179 0.2609 0.0
C1073 C 0.49586 0.97085 0.25332 0.0
N1074 N 0.46384 0.90806 0.24101 0.0
N1075 N 0.47988 0.0104 0.20771 0.0
H1076 H 0.5315 0.97074 0.297 0.0
H1077 H 0.51899 1.00184 0.28026 0.0
H1078 H 0.46534 0.022 0.18942 0.0
H1079 H 0.49797 0.01624 0.19518 0.0
H1080 H 0.44585 0.90083 0.2353 0.0
H1081 H 0.47806 0.89424 0.23383 0.0
H1082 H 0.42165 0.9238 0.29495 0.0
H1083 H 0.40891 0.95529 0.28819 0.0
C1084 C 0.58906 0.44763 0.80769 0.0
C1085 C 0.59425 0.45728 0.74548 0.0
C1086 C 0.56745 0.42412 0.69866 0.0
C1087 C 0.55837 0.41841 0.76094 0.0
N1088 N 0.56551 0.41711 0.87384 0.0
N1089 N 0.59493 0.45063 0.63177 0.0
C1090 C 0.57144 0.42725 0.8152 0.0
C1091 C 0.58602 0.44358 0.69084 0.0
N1092 N 0.59957 0.45945 0.85914 0.0
N1093 N 0.55681 0.41214 0.64762 0.0
H1094 H 0.6086 0.46482 0.62645 0.0
H1095 H 0.58986 0.44196 0.58893 0.0
H1096 H 0.54343 0.39774 0.65418 0.0
H1097 H 0.56125 0.41594 0.59988 0.0
H1098 H 0.59529 0.45513 0.90672 0.0
H1099 H 0.61285 0.474 0.85332 0.0
H1100 H 0.57435 0.42196 0.91625 0.0
H1101 H 0.55242 0.40231 0.87865 0.0
C1102 C 0.06819 0.55429 0.16781 0.0
C1103 C 0.05373 0.56692 0.21651 0.0
C1104 C 0.08034 0.54642 0.29809 0.0
C1105 C 0.09021 0.52926 0.25062 0.0
N1106 N 0.09705 0.51865 0.13985 0.0
N1107 N 0.04759 0.57806 0.3274 0.0
C1108 C 0.08574 0.53429 0.18499 0.0
C1109 C 0.06084 0.56453 0.28151 0.0
N1110 N 0.06413 0.56089 0.1053 0.0
N1111 N 0.08902 0.54445 0.35923 0.0
H1112 H 0.03388 0.59197 0.31564 0.0
H1113 H 0.04965 0.57518 0.37646 0.0
H1114 H 0.10317 0.53107 0.37143 0.0
H1115 H 0.08381 0.55713 0.39611 0.0
H1116 H 0.07463 0.55352 0.06679 0.0
H1117 H 0.05123 0.57552 0.0928 0.0
H1118 H 0.09283 0.51912 0.09128 0.0
H1119 H 0.1106 0.50463 0.1521 0.0
C1120 C 0.24719 0.01524 0.21188 0.0
C1121 C 0.23324 0.02245 0.26779 0.0
C1122 C 0.27243 0.02648 0.32773 0.0
C1123 C 0.28638 0.02162 0.2704 0.0
N1124 N 0.28801 1.00489 0.16304 0.0
N1125 N 0.23179 0.02815 0.38224 0.0
C1126 C 0.27398 0.01364 0.2142 0.0
C1127 C 0.24567 0.02562 0.327 0.0
N1128 N 0.23471 0.01101 0.15607 0.0
N1129 N 0.28485 0.03327 0.38196 0.0
H1130 H 0.21225 0.02777 0.38273 0.0
H1131 H 0.2394 0.02846 0.42791 0.0
H1132 H 0.30437 0.03259 0.38455 0.0
H1133 H 0.2761 0.04028 0.4235 0.0
H1134 H 0.24348 0.00848 0.11161 0.0
H1135 H 0.21515 0.0107 0.15414 0.0
H1136 H 0.28048 0.99706 0.12169 0.0
H1137 H 0.30758 1.00363 0.16421 0.0
C1138 C 0.48777 0.24009 0.72372 0.0
C1139 C 0.47741 0.225 0.77411 0.0
C1140 C 0.47492 0.26366 0.84269 0.0
C1141 C 0.48068 0.27928 0.78878 0.0
N1142 N 0.49244 0.28301 0.67717 0.0
N1143 N 0.46009 0.2222 0.88133 0.0
C1144 C 0.48755 0.26767 0.72925 0.0
C1145 C 0.4711 0.23663 0.83404 0.0
N1146 N 0.49781 0.22795 0.67079 0.0
N1147 N 0.47301 0.27484 0.90203 0.0
H1148 H 0.45704 0.20236 0.87674 0.0
H1149 H 0.45242 0.23016 0.92325 0.0
H1150 H 0.47589 0.29465 0.90937 0.0
H1151 H 0.47106 0.26425 0.94433 0.0
H1152 H 0.50773 0.2376 0.63491 0.0
H1153 H 0.49819 0.20776 0.66564 0.0
H1154 H 0.49452 0.27586 0.63068 0.0
H1155 H 0.49307 0.30324 0.67985 0.0
C1156 C 0.27336 0.47297 0.37376 0.0
C1157 C 0.28347 0.47515 0.3107 0.0
C1158 C 0.24121 0.47345 0.26599 0.0
C1159 C 0.23111 0.47105 0.32904 0.0
N1160 N 0.23636 0.47586 0.44278 0.0
N1161 N 0.27698 0.48513 0.19938 0.0
C1162 C 0.24686 0.47336 0.38291 0.0
C1163 C 0.26729 0.47806 0.25769 0.0
N1164 N 0.28897 0.46887 0.4244 0.0
N1165 N 0.22636 0.46957 0.21402 0.0
H1166 H 0.29603 0.48878 0.19231 0.0
H1167 H 0.26591 0.48989 0.1601 0.0
H1168 H 0.20721 0.466 0.21775 0.0
H1169 H 0.23336 0.46801 0.16729 0.0
H1170 H 0.28264 0.46397 0.47021 0.0
H1171 H 0.30846 0.46871 0.41976 0.0
H1172 H 0.24668 0.47998 0.48352 0.0
H1173 H 0.21696 0.47635 0.45059 0.0
C1174 C 0.0259 0.27672 0.7325 0.0
C1175 C 0.02577 0.28829 0.79446 0.0
C1176 C 0.03145 0.24506 0.84329 0.0
C1177 C 0.03135 0.23343 0.78141 0.0
N1178 N 0.02209 0.23733 0.66926 0.0
N1179 N 0.02225 0.28316 0.90893 0.0
C1180 C 0.02643 0.24906 0.72675 0.0
C1181 C 0.02659 0.2723 0.8499 0.0
N1182 N 0.02712 0.29207 0.67902 0.0
N1183 N 0.03745 0.23033 0.89555 0.0
H1184 H 0.0184 0.30297 0.91526 0.0
H1185 H 0.02012 0.27232 0.95079 0.0
H1186 H 0.04011 0.21031 0.89296 0.0
H1187 H 0.04116 0.23809 0.94049 0.0
H1188 H 0.03026 0.28477 0.63299 0.0
H1189 H 0.02703 0.31233 0.68082 0.0
H1190 H 0.01601 0.24738 0.62878 0.0
H1191 H 0.02219 0.21715 0.66389 0.0
C1192 C 0.74956 0.98954 0.78463 0.0
C1193 C 0.73603 0.98162 0.73003 0.0
C1194 C 0.77557 0.97865 0.6682 0.0
C1195 C 0.78917 0.98145 0.72565 0.0
N1196 N 0.7897 0.99041 0.83881 0.0
N1197 N 0.73592 0.96841 0.61912 0.0
C1198 C 0.77634 0.98769 0.7838 0.0
C1199 C 0.74893 0.97665 0.67113 0.0
N1200 N 0.73668 0.99878 0.83718 0.0
N1201 N 0.78832 0.97773 0.61095 0.0
H1202 H 0.71643 0.96713 0.61918 0.0
H1203 H 0.74445 0.96144 0.5772 0.0
H1204 H 0.80781 0.97936 0.60799 0.0
H1205 H 0.77958 0.97793 0.56658 0.0
H1206 H 0.74527 0.00693 0.87677 0.0
H1207 H 0.71711 1.00042 0.83856 0.0
H1208 H 0.7815 0.99181 0.88428 0.0
H1209 H 0.80928 0.99012 0.83915 0.0
C1210 C 0.54228 0.74013 0.18072 0.0
C1211 C 0.53551 0.72754 0.23887 0.0
C1212 C 0.53091 0.76973 0.2929 0.0
C1213 C 0.53897 0.78208 0.23569 0.0
N1214 N 0.54442 0.78067 0.12126 0.0
N1215 N 0.51676 0.73004 0.34428 0.0
C1216 C 0.54187 0.76774 0.17815 0.0
C1217 C 0.52752 0.74233 0.29301 0.0
N1218 N 0.55067 0.7258 0.12937 0.0
N1219 N 0.52772 0.78406 0.34764 0.0
H1220 H 0.51397 0.71 0.34504 0.0
H1221 H 0.50865 0.73978 0.3833 0.0
H1222 H 0.52899 0.80429 0.34804 0.0
H1223 H 0.52479 0.77596 0.39282 0.0
H1224 H 0.55874 0.73389 0.08841 0.0
H1225 H 0.55099 0.70556 0.12922 0.0
H1226 H 0.54452 0.77152 0.07672 0.0
H1227 H 0.54381 0.80092 0.1186 0.0
C1228 C 0.76985 0.53656 0.63576 0.0
C1229 C 0.78311 0.53323 0.69387 0.0
C1230 C 0.74351 0.52603 0.75226 0.0
C1231 C 0.73021 0.53329 0.69637 0.0
N1232 N 0.72963 0.54384 0.584 0.0
N1233 N 0.78358 0.52329 0.80671 0.0
C1234 C 0.7431 0.53766 0.63751 0.0
C1235 C 0.77022 0.52712 0.75179 0.0
N1236 N 0.78291 0.53881 0.57921 0.0
N1237 N 0.73049 0.51828 0.80568 0.0
H1238 H 0.80317 0.52249 0.80714 0.0
H1239 H 0.77553 0.52176 0.85221 0.0
H1240 H 0.71093 0.51773 0.80759 0.0
H1241 H 0.73882 0.51062 0.84655 0.0
H1242 H 0.77466 0.53905 0.53428 0.0
H1243 H 0.80247 0.53868 0.57672 0.0
H1244 H 0.73754 0.55027 0.54112 0.0
H1245 H 0.71006 0.54323 0.58306 0.0
C1246 C 0.98997 0.72682 0.25515 0.0
C1247 C 0.98862 0.71694 0.19174 0.0
C1248 C 0.98718 0.76149 0.14928 0.0
C1249 C 0.98815 0.77153 0.21276 0.0
N1250 N 0.99777 0.76397 0.32366 0.0
N1251 N 0.99369 0.72439 0.07859 0.0
C1252 C 0.99205 0.75417 0.26486 0.0
C1253 C 0.98992 0.73421 0.1389 0.0
N1254 N 0.98772 0.71031 0.3062 0.0
N1255 N 0.98188 0.77769 0.09921 0.0
H1256 H 0.99592 0.70449 0.06988 0.0
H1257 H 0.99715 0.73597 0.03854 0.0
H1258 H 0.97996 0.79768 0.10456 0.0
H1259 H 0.97773 0.77116 0.05336 0.0
H1260 H 0.98551 0.71665 0.35339 0.0
H1261 H 0.98648 0.69022 0.30109 0.0
H1262 H 1.00302 0.75239 0.36242 0.0
H1263 H 0.9997 0.78387 0.33167 0.0
loop_
_geom_bond_atom_site_label_1
_geom_bond_atom_site_label_2
_geom_bond_distance
_geom_bond_site_symmetry_2
_ccdc_geom_bond_type
Co0 O3 1.970 1_545 S
Co0 N17 1.989 . S
Co0 O25 1.967 . S
Co0 O32 1.920 . S
Co1 O4 1.966 1_545 S
Co1 N10 2.022 . S
Co1 N18 1.993 . S
Co1 O26 1.941 . S
C2 O3 1.258 . S
C2 O4 1.263 . S
O3 Co0 1.970 1_565 S
O3 C2 1.258 . S
O4 Co1 1.966 1_565 S
O4 C2 1.263 . S
C5 O6 1.235 1_545 S
C5 O32 1.289 . S
O6 C5 1.235 1_565 S
C7 C9 1.400 . S
C7 N10 1.351 . S
C7 C12 1.501 1_545 S
C8 C9 1.387 . S
C8 N11 1.341 . S
C9 C7 1.400 . S
C9 C8 1.387 . S
N10 Co1 2.022 . S
N10 C7 1.351 . S
N10 N11 1.365 . S
N11 C8 1.341 . S
N11 N10 1.365 . S
N11 H31 0.862 . S
C12 C7 1.501 1_565 S
C12 H13 0.961 . S
C12 H14 0.961 . S
C12 H15 0.960 . S
H13 C12 0.961 . S
H14 C12 0.961 . S
H15 C12 0.960 . S
C16 N17 1.342 . S
C16 C20 1.401 . S
C16 C21 1.499 . S
N17 Co0 1.989 . S
N17 C16 1.342 . S
N17 N18 1.388 . S
N18 Co1 1.993 . S
N18 N17 1.388 . S
N18 C19 1.346 . S
C19 N18 1.346 . S
C19 C20 1.396 . S
C19 C29 1.510 . S
C20 C16 1.401 . S
C20 C19 1.396 . S
C21 C16 1.499 . S
C21 H22 0.959 . S
C21 H23 0.960 . S
C21 H24 0.961 . S
H22 C21 0.959 . S
H23 C21 0.960 . S
H24 C21 0.961 . S
O25 Co0 1.967 . S
O25 C33 1.258 . S
O26 Co1 1.941 . S
O26 C33 1.266 . S
H27 C29 0.959 . S
H28 C29 0.961 . S
C29 C19 1.510 . S
C29 H27 0.959 . S
C29 H28 0.961 . S
C29 H30 0.960 . S
H30 C29 0.960 . S
H31 N11 0.862 . S
O32 Co0 1.920 . S
O32 C5 1.289 . S
C33 O25 1.258 . S
C33 O26 1.266 . S
Co34 O37 1.970 . S
Co34 N51 1.989 . S
Co34 O59 1.967 . S
Co34 O66 1.920 . S
Co35 O38 1.966 . S
Co35 N44 2.022 . S
Co35 N52 1.993 . S
Co35 O60 1.941 . S
C36 O37 1.258 . S
C36 O38 1.263 . S
O37 Co34 1.970 . S
O37 C36 1.258 . S
O38 Co35 1.966 . S
O38 C36 1.263 . S
C39 O40 1.235 . S
C39 O66 1.289 . S
O40 C39 1.235 . S
C41 C43 1.400 . S
C41 N44 1.351 . S
C41 C46 1.501 . S
C42 C43 1.387 . S
C42 N45 1.341 . S
C43 C41 1.400 . S
C43 C42 1.387 . S
N44 Co35 2.022 . S
N44 C41 1.351 . S
N44 N45 1.365 . S
N45 C42 1.341 . S
N45 N44 1.365 . S
N45 H65 0.862 . S
C46 C41 1.501 . S
C46 H47 0.961 . S
C46 H48 0.961 . S
C46 H49 0.960 . S
H47 C46 0.961 . S
H48 C46 0.961 . S
H49 C46 0.960 . S
C50 N51 1.342 1_554 S
C50 C54 1.401 . S
C50 C55 1.499 . S
N51 Co34 1.989 . S
N51 C50 1.342 1_556 S
N51 N52 1.388 . S
N52 Co35 1.993 . S
N52 N51 1.388 . S
N52 C53 1.346 . S
C53 N52 1.346 . S
C53 C54 1.396 1_556 S
C53 C63 1.511 . S
C54 C50 1.401 . S
C54 C53 1.396 1_554 S
C55 C50 1.499 . S
C55 H56 0.959 . S
C55 H57 0.960 . S
C55 H58 0.961 . S
H56 C55 0.959 . S
H57 C55 0.960 . S
H58 C55 0.961 . S
O59 Co34 1.967 . S
O59 C67 1.258 . S
O60 Co35 1.941 . S
O60 C67 1.266 . S
H61 C63 0.958 1_554 S
H62 C63 0.954 1_554 S
C63 C53 1.511 . S
C63 H61 0.958 1_556 S
C63 H62 0.954 1_556 S
C63 H64 0.968 . S
H64 C63 0.968 . S
H65 N45 0.862 . S
O66 Co34 1.920 . S
O66 C39 1.289 . S
C67 O59 1.258 . S
C67 O60 1.266 . S
Co68 O71 1.970 . S
Co68 N85 1.989 . S
Co68 O93 1.967 . S
Co68 O100 1.920 . S
Co69 O72 1.966 . S
Co69 N78 2.022 . S
Co69 N86 1.993 . S
Co69 O94 1.941 . S
C70 O71 1.258 . S
C70 O72 1.263 . S
O71 Co68 1.970 . S
O71 C70 1.258 . S
O72 Co69 1.966 . S
O72 C70 1.263 . S
C73 O74 1.235 . S
C73 O100 1.289 . S
O74 C73 1.235 . S
C75 C77 1.400 . S
C75 N78 1.351 . S
C75 C80 1.501 . S
C76 C77 1.387 . S
C76 N79 1.341 . S
C77 C75 1.400 . S
C77 C76 1.387 . S
N78 Co69 2.022 . S
N78 C75 1.351 . S
N78 N79 1.365 . S
N79 C76 1.341 . S
N79 N78 1.365 . S
N79 H99 0.862 . S
C80 C75 1.501 . S
C80 H81 0.961 . S
C80 H82 0.961 . S
C80 H83 0.960 . S
H81 C80 0.961 . S
H82 C80 0.961 . S
H83 C80 0.960 . S
C84 N85 1.342 . S
C84 C88 1.401 . S
C84 C89 1.499 . S
N85 Co68 1.989 . S
N85 C84 1.342 . S
N85 N86 1.388 . S
N86 Co69 1.993 . S
N86 N85 1.388 . S
N86 C87 1.346 . S
C87 N86 1.346 . S
C87 C88 1.396 . S
C87 C97 1.510 . S
C88 C84 1.401 . S
C88 C87 1.396 . S
C89 C84 1.499 . S
C89 H90 0.959 . S
C89 H91 0.960 . S
C89 H92 0.961 . S
H90 C89 0.959 . S
H91 C89 0.960 . S
H92 C89 0.961 . S
O93 Co68 1.967 . S
O93 C101 1.258 . S
O94 Co69 1.941 . S
O94 C101 1.266 . S
H95 C97 0.959 . S
H96 C97 0.961 . S
C97 C87 1.510 . S
C97 H95 0.959 . S
C97 H96 0.961 . S
C97 H98 0.960 . S
H98 C97 0.960 . S
H99 N79 0.862 . S
O100 Co68 1.920 . S
O100 C73 1.289 . S
C101 O93 1.258 . S
C101 O94 1.266 . S
Co102 O105 1.970 . S
Co102 N119 1.989 . S
Co102 O127 1.967 . S
Co102 O134 1.920 1_455 S
Co103 O106 1.966 . S
Co103 N112 2.012 1_556 S
Co103 N120 1.993 . S
Co103 O128 1.941 . S
C104 O105 1.258 . S
C104 O106 1.263 . S
O105 Co102 1.970 . S
O105 C104 1.258 . S
O106 Co103 1.966 . S
O106 C104 1.263 . S
C107 O108 1.235 . S
C107 O134 1.289 . S
O108 C107 1.235 . S
C109 C111 1.400 . S
C109 N112 1.362 . S
C109 C114 1.501 . S
C110 C111 1.387 . S
C110 N113 1.341 . S
C111 C109 1.400 . S
C111 C110 1.387 . S
N112 Co103 2.012 1_554 S
N112 C109 1.362 . S
N112 N113 1.369 . S
N113 C110 1.341 . S
N113 N112 1.369 . S
N113 H133 0.862 1_554 S
C114 C109 1.501 . S
C114 H115 0.961 . S
C114 H116 0.961 . S
C114 H117 0.960 . S
H115 C114 0.961 . S
H116 C114 0.961 . S
H117 C114 0.960 . S
C118 N119 1.342 1_655 S
C118 C122 1.401 1_655 S
C118 C123 1.499 . S
N119 Co102 1.989 . S
N119 C118 1.342 1_455 S
N119 N120 1.388 . S
N120 Co103 1.993 . S
N120 N119 1.388 . S
N120 C121 1.346 . S
C121 N120 1.346 . S
C121 C122 1.396 . S
C121 C131 1.510 1_556 S
C122 C118 1.401 1_455 S
C122 C121 1.396 . S
C123 C118 1.499 . S
C123 H124 0.959 . S
C123 H125 0.960 . S
C123 H126 0.961 . S
H124 C123 0.959 . S
H125 C123 0.960 . S
H126 C123 0.961 . S
O127 Co102 1.967 . S
O127 C135 1.258 . S
O128 Co103 1.941 . S
O128 C135 1.266 . S
H129 C131 0.959 . S
H130 C131 0.961 . S
C131 C121 1.510 1_554 S
C131 H129 0.959 . S
C131 H130 0.961 . S
C131 H132 0.960 . S
H132 C131 0.960 . S
H133 N113 0.862 1_556 S
O134 Co102 1.920 1_655 S
O134 C107 1.289 . S
C135 O127 1.258 . S
C135 O128 1.266 . S
Co136 O139 1.970 1_565 S
Co136 N153 1.989 . S
Co136 O161 1.967 . S
Co136 O168 1.920 . S
Co137 O140 1.966 1_565 S
Co137 N146 2.022 . S
Co137 N154 1.993 . S
Co137 O162 1.941 . S
C138 O139 1.258 . S
C138 O140 1.263 . S
O139 Co136 1.970 1_545 S
O139 C138 1.258 . S
O140 Co137 1.966 1_545 S
O140 C138 1.263 . S
C141 O142 1.235 1_565 S
C141 O168 1.289 . S
O142 C141 1.235 1_545 S
C143 C145 1.400 . S
C143 N146 1.351 . S
C143 C148 1.501 1_565 S
C144 C145 1.387 . S
C144 N147 1.341 . S
C145 C143 1.400 . S
C145 C144 1.387 . S
N146 Co137 2.022 . S
N146 C143 1.351 . S
N146 N147 1.365 . S
N147 C144 1.341 . S
N147 N146 1.365 . S
N147 H167 0.862 . S
C148 C143 1.501 1_545 S
C148 H149 0.961 . S
C148 H150 0.961 . S
C148 H151 0.960 . S
H149 C148 0.961 . S
H150 C148 0.961 . S
H151 C148 0.960 . S
C152 N153 1.342 . S
C152 C156 1.401 . S
C152 C157 1.499 . S
N153 Co136 1.989 . S
N153 C152 1.342 . S
N153 N154 1.388 . S
N154 Co137 1.993 . S
N154 N153 1.388 . S
N154 C155 1.346 . S
C155 N154 1.346 . S
C155 C156 1.396 . S
C155 C165 1.510 . S
C156 C152 1.401 . S
C156 C155 1.396 . S
C157 C152 1.499 . S
C157 H158 0.959 . S
C157 H159 0.960 . S
C157 H160 0.961 . S
H158 C157 0.959 . S
H159 C157 0.960 . S
H160 C157 0.961 . S
O161 Co136 1.967 . S
O161 C169 1.258 . S
O162 Co137 1.941 . S
O162 C169 1.266 . S
H163 C165 0.959 . S
H164 C165 0.961 . S
C165 C155 1.510 . S
C165 H163 0.959 . S
C165 H164 0.961 . S
C165 H166 0.960 . S
H166 C165 0.960 . S
H167 N147 0.862 . S
O168 Co136 1.920 . S
O168 C141 1.289 . S
C169 O161 1.258 . S
C169 O162 1.266 . S
Co170 O173 1.970 . S
Co170 N187 1.989 . S
Co170 O195 1.967 . S
Co170 O202 1.920 . S
Co171 O174 1.966 . S
Co171 N180 2.022 . S
Co171 N188 1.993 . S
Co171 O196 1.941 . S
C172 O173 1.258 . S
C172 O174 1.263 . S
O173 Co170 1.970 . S
O173 C172 1.258 . S
O174 Co171 1.966 . S
O174 C172 1.263 . S
C175 O176 1.235 . S
C175 O202 1.289 . S
O176 C175 1.235 . S
C177 C179 1.400 . S
C177 N180 1.351 . S
C177 C182 1.501 . S
C178 C179 1.387 . S
C178 N181 1.341 . S
C179 C177 1.400 . S
C179 C178 1.387 . S
N180 Co171 2.022 . S
N180 C177 1.351 . S
N180 N181 1.365 . S
N181 C178 1.341 . S
N181 N180 1.365 . S
N181 H201 0.862 . S
C182 C177 1.501 . S
C182 H183 0.961 . S
C182 H184 0.961 . S
C182 H185 0.960 . S
H183 C182 0.961 . S
H184 C182 0.961 . S
H185 C182 0.960 . S
C186 N187 1.342 1_556 S
C186 C190 1.401 . S
C186 C191 1.499 . S
N187 Co170 1.989 . S
N187 C186 1.342 1_554 S
N187 N188 1.388 . S
N188 Co171 1.993 . S
N188 N187 1.388 . S
N188 C189 1.346 . S
C189 N188 1.346 . S
C189 C190 1.396 1_554 S
C189 C199 1.510 . S
C190 C186 1.401 . S
C190 C189 1.396 1_556 S
C191 C186 1.499 . S
C191 H192 0.959 . S
C191 H193 0.960 . S
C191 H194 0.961 . S
H192 C191 0.959 . S
H193 C191 0.960 . S
H194 C191 0.961 . S
O195 Co170 1.967 . S
O195 C203 1.258 . S
O196 Co171 1.941 . S
O196 C203 1.266 . S
H197 C199 0.959 1_556 S
H198 C199 0.958 1_556 S
C199 C189 1.510 . S
C199 H197 0.959 1_554 S
C199 H198 0.958 1_554 S
C199 H200 0.963 . S
H200 C199 0.963 . S
H201 N181 0.862 . S
O202 Co170 1.920 . S
O202 C175 1.289 . S
C203 O195 1.258 . S
C203 O196 1.266 . S
Co204 O207 1.970 . S
Co204 N221 1.989 . S
Co204 O229 1.967 . S
Co204 O236 1.920 . S
Co205 O208 1.966 . S
Co205 N214 2.022 . S
Co205 N222 1.993 . S
Co205 O230 1.941 . S
C206 O207 1.258 . S
C206 O208 1.263 . S
O207 Co204 1.970 . S
O207 C206 1.258 . S
O208 Co205 1.966 . S
O208 C206 1.263 . S
C209 O210 1.235 . S
C209 O236 1.289 . S
O210 C209 1.235 . S
C211 C213 1.400 . S
C211 N214 1.351 . S
C211 C216 1.501 . S
C212 C213 1.387 . S
C212 N215 1.341 . S
C213 C211 1.400 . S
C213 C212 1.387 . S
N214 Co205 2.022 . S
N214 C211 1.351 . S
N214 N215 1.365 . S
N215 C212 1.341 . S
N215 N214 1.365 . S
N215 H235 0.862 . S
C216 C211 1.501 . S
C216 H217 0.961 . S
C216 H218 0.961 . S
C216 H219 0.960 . S
H217 C216 0.961 . S
H218 C216 0.961 . S
H219 C216 0.960 . S
C220 N221 1.342 . S
C220 C224 1.401 . S
C220 C225 1.499 . S
N221 Co204 1.989 . S
N221 C220 1.342 . S
N221 N222 1.388 . S
N222 Co205 1.993 . S
N222 N221 1.388 . S
N222 C223 1.346 . S
C223 N222 1.346 . S
C223 C224 1.396 . S
C223 C233 1.510 . S
C224 C220 1.401 . S
C224 C223 1.396 . S
C225 C220 1.499 . S
C225 H226 0.959 . S
C225 H227 0.960 . S
C225 H228 0.961 . S
H226 C225 0.959 . S
H227 C225 0.960 . S
H228 C225 0.961 . S
O229 Co204 1.967 . S
O229 C237 1.258 . S
O230 Co205 1.941 . S
O230 C237 1.266 . S
H231 C233 0.959 . S
H232 C233 0.961 . S
C233 C223 1.510 . S
C233 H231 0.959 . S
C233 H232 0.961 . S
C233 H234 0.960 . S
H234 C233 0.960 . S
H235 N215 0.862 . S
O236 Co204 1.920 . S
O236 C209 1.289 . S
C237 O229 1.258 . S
C237 O230 1.266 . S
Co238 O241 1.970 1_655 S
Co238 N255 1.989 . S
Co238 O263 1.967 . S
Co238 O270 1.920 . S
Co239 O242 1.966 1_655 S
Co239 N248 2.022 . S
Co239 N256 1.993 . S
Co239 O264 1.941 . S
C240 O241 1.258 . S
C240 O242 1.263 . S
O241 Co238 1.970 1_455 S
O241 C240 1.258 . S
O242 Co239 1.966 1_455 S
O242 C240 1.263 . S
C243 O244 1.235 1_655 S
C243 O270 1.289 . S
O244 C243 1.235 1_455 S
C245 C247 1.400 . S
C245 N248 1.351 . S
C245 C250 1.501 1_655 S
C246 C247 1.387 . S
C246 N249 1.341 . S
C247 C245 1.400 . S
C247 C246 1.387 . S
N248 Co239 2.022 . S
N248 C245 1.351 . S
N248 N249 1.365 . S
N249 C246 1.341 . S
N249 N248 1.365 . S
N249 H269 0.862 . S
C250 C245 1.501 1_455 S
C250 H251 0.961 . S
C250 H252 0.961 . S
C250 H253 0.960 . S
H251 C250 0.961 . S
H252 C250 0.961 . S
H253 C250 0.960 . S
C254 N255 1.342 1_556 S
C254 C258 1.401 . S
C254 C259 1.499 . S
N255 Co238 1.989 . S
N255 C254 1.342 1_554 S
N255 N256 1.388 . S
N256 Co239 1.993 . S
N256 N255 1.388 . S
N256 C257 1.346 1_554 S
C257 N256 1.346 1_556 S
C257 C258 1.396 . S
C257 C267 1.510 . S
C258 C254 1.401 . S
C258 C257 1.396 . S
C259 C254 1.499 . S
C259 H260 0.959 . S
C259 H261 0.960 . S
C259 H262 0.961 . S
H260 C259 0.959 . S
H261 C259 0.960 . S
H262 C259 0.961 . S
O263 Co238 1.967 . S
O263 C271 1.258 . S
O264 Co239 1.941 . S
O264 C271 1.266 . S
H265 C267 0.959 . S
H266 C267 0.961 . S
C267 C257 1.510 . S
C267 H265 0.959 . S
C267 H266 0.961 . S
C267 H268 0.960 1_556 S
H268 C267 0.960 1_554 S
H269 N249 0.862 . S
O270 Co238 1.920 . S
O270 C243 1.289 . S
C271 O263 1.258 . S
C271 O264 1.266 . S
Co272 O275 1.970 1_565 S
Co272 N289 1.989 . S
Co272 O297 1.967 . S
Co272 O304 1.920 . S
Co273 O276 1.966 1_565 S
Co273 N282 2.022 . S
Co273 N290 1.993 . S
Co273 O298 1.941 . S
C274 O275 1.258 . S
C274 O276 1.263 . S
O275 Co272 1.970 1_545 S
O275 C274 1.258 . S
O276 Co273 1.966 1_545 S
O276 C274 1.263 . S
C277 O278 1.235 1_565 S
C277 O304 1.289 . S
O278 C277 1.235 1_545 S
C279 C281 1.400 . S
C279 N282 1.351 . S
C279 C284 1.501 1_565 S
C280 C281 1.387 . S
C280 N283 1.341 . S
C281 C279 1.400 . S
C281 C280 1.387 . S
N282 Co273 2.022 . S
N282 C279 1.351 . S
N282 N283 1.365 . S
N283 C280 1.341 . S
N283 N282 1.365 . S
N283 H303 0.862 . S
C284 C279 1.501 1_545 S
C284 H285 0.961 . S
C284 H286 0.961 . S
C284 H287 0.960 . S
H285 C284 0.961 . S
H286 C284 0.961 . S
H287 C284 0.960 . S
C288 N289 1.342 . S
C288 C292 1.401 . S
C288 C293 1.499 . S
N289 Co272 1.989 . S
N289 C288 1.342 . S
N289 N290 1.388 . S
N290 Co273 1.993 . S
N290 N289 1.388 . S
N290 C291 1.346 . S
C291 N290 1.346 . S
C291 C292 1.396 . S
C291 C301 1.510 . S
C292 C288 1.401 . S
C292 C291 1.396 . S
C293 C288 1.499 . S
C293 H294 0.959 . S
C293 H295 0.960 . S
C293 H296 0.961 . S
H294 C293 0.959 . S
H295 C293 0.960 . S
H296 C293 0.961 . S
O297 Co272 1.967 . S
O297 C305 1.258 . S
O298 Co273 1.941 . S
O298 C305 1.266 . S
H299 C301 0.959 . S
H300 C301 0.961 . S
C301 C291 1.510 . S
C301 H299 0.959 . S
C301 H300 0.961 . S
C301 H302 0.960 . S
H302 C301 0.960 . S
H303 N283 0.862 . S
O304 Co272 1.920 . S
O304 C277 1.289 . S
C305 O297 1.258 . S
C305 O298 1.266 . S
Co306 O309 1.970 . S
Co306 N323 1.989 . S
Co306 O331 1.967 . S
Co306 O338 1.920 . S
Co307 O310 1.966 . S
Co307 N316 2.022 . S
Co307 N324 1.993 . S
Co307 O332 1.941 . S
C308 O309 1.258 . S
C308 O310 1.263 . S
O309 Co306 1.970 . S
O309 C308 1.258 . S
O310 Co307 1.966 . S
O310 C308 1.263 . S
C311 O312 1.235 . S
C311 O338 1.289 . S
O312 C311 1.235 . S
C313 C315 1.400 . S
C313 N316 1.351 . S
C313 C318 1.501 . S
C314 C315 1.387 . S
C314 N317 1.341 . S
C315 C313 1.400 . S
C315 C314 1.387 . S
N316 Co307 2.022 . S
N316 C313 1.351 . S
N316 N317 1.365 . S
N317 C314 1.341 . S
N317 N316 1.365 . S
N317 H337 0.862 . S
C318 C313 1.501 . S
C318 H319 0.961 . S
C318 H320 0.961 . S
C318 H321 0.960 . S
H319 C318 0.961 . S
H320 C318 0.961 . S
H321 C318 0.960 . S
C322 N323 1.342 1_556 S
C322 C326 1.401 . S
C322 C327 1.499 . S
N323 Co306 1.989 . S
N323 C322 1.342 1_554 S
N323 N324 1.388 . S
N324 Co307 1.993 . S
N324 N323 1.388 . S
N324 C325 1.346 . S
C325 N324 1.346 . S
C325 C326 1.396 1_554 S
C325 C335 1.510 1_554 S
C326 C322 1.401 . S
C326 C325 1.396 1_556 S
C327 C322 1.499 . S
C327 H328 0.959 . S
C327 H329 0.960 . S
C327 H330 0.961 . S
H328 C327 0.959 . S
H329 C327 0.960 . S
H330 C327 0.961 . S
O331 Co306 1.967 . S
O331 C339 1.258 . S
O332 Co307 1.941 . S
O332 C339 1.266 . S
H333 C335 0.959 . S
H334 C335 0.961 . S
C335 C325 1.510 1_556 S
C335 H333 0.959 . S
C335 H334 0.961 . S
C335 H336 0.960 1_556 S
H336 C335 0.960 1_554 S
H337 N317 0.862 . S
O338 Co306 1.920 . S
O338 C311 1.289 . S
C339 O331 1.258 . S
C339 O332 1.266 . S
Co340 O343 1.970 . S
Co340 N357 1.989 . S
Co340 O365 1.967 . S
Co340 O372 1.920 . S
Co341 O344 1.966 . S
Co341 N350 2.022 . S
Co341 N358 1.993 . S
Co341 O366 1.941 . S
C342 O343 1.258 . S
C342 O344 1.263 . S
O343 Co340 1.970 . S
O343 C342 1.258 . S
O344 Co341 1.966 . S
O344 C342 1.263 . S
C345 O346 1.235 . S
C345 O372 1.289 . S
O346 C345 1.235 . S
C347 C349 1.400 . S
C347 N350 1.351 . S
C347 C352 1.501 . S
C348 C349 1.387 . S
C348 N351 1.341 . S
C349 C347 1.400 . S
C349 C348 1.387 . S
N350 Co341 2.022 . S
N350 C347 1.351 . S
N350 N351 1.365 . S
N351 C348 1.341 . S
N351 N350 1.365 . S
N351 H371 0.862 . S
C352 C347 1.501 . S
C352 H353 0.961 . S
C352 H354 0.961 . S
C352 H355 0.960 . S
H353 C352 0.961 . S
H354 C352 0.961 . S
H355 C352 0.960 . S
C356 N357 1.342 . S
C356 C360 1.401 . S
C356 C361 1.499 . S
N357 Co340 1.989 . S
N357 C356 1.342 . S
N357 N358 1.388 . S
N358 Co341 1.993 . S
N358 N357 1.388 . S
N358 C359 1.346 . S
C359 N358 1.346 . S
C359 C360 1.396 . S
C359 C369 1.510 . S
C360 C356 1.401 . S
C360 C359 1.396 . S
C361 C356 1.499 . S
C361 H362 0.959 . S
C361 H363 0.960 . S
C361 H364 0.961 . S
H362 C361 0.959 . S
H363 C361 0.960 . S
H364 C361 0.961 . S
O365 Co340 1.967 . S
O365 C373 1.258 . S
O366 Co341 1.941 . S
O366 C373 1.266 . S
H367 C369 0.959 . S
H368 C369 0.961 . S
C369 C359 1.510 . S
C369 H367 0.959 . S
C369 H368 0.961 . S
C369 H370 0.960 . S
H370 C369 0.960 . S
H371 N351 0.862 . S
O372 Co340 1.920 . S
O372 C345 1.289 . S
C373 O365 1.258 . S
C373 O366 1.266 . S
Co374 O377 1.970 1_655 S
Co374 N391 1.989 . S
Co374 O399 1.967 . S
Co374 O406 1.920 . S
Co375 O378 1.966 1_655 S
Co375 N384 2.022 . S
Co375 N392 1.993 . S
Co375 O400 1.941 . S
C376 O377 1.258 . S
C376 O378 1.263 . S
O377 Co374 1.970 1_455 S
O377 C376 1.258 . S
O378 Co375 1.966 1_455 S
O378 C376 1.263 . S
C379 O380 1.235 1_655 S
C379 O406 1.289 . S
O380 C379 1.235 1_455 S
C381 C383 1.400 . S
C381 N384 1.351 . S
C381 C386 1.501 1_655 S
C382 C383 1.387 . S
C382 N385 1.341 . S
C383 C381 1.400 . S
C383 C382 1.387 . S
N384 Co375 2.022 . S
N384 C381 1.351 . S
N384 N385 1.365 . S
N385 C382 1.341 . S
N385 N384 1.365 . S
N385 H405 0.862 . S
C386 C381 1.501 1_455 S
C386 H387 0.961 . S
C386 H388 0.961 . S
C386 H389 0.960 . S
H387 C386 0.961 . S
H388 C386 0.961 . S
H389 C386 0.960 . S
C390 N391 1.342 1_556 S
C390 C394 1.401 . S
C390 C395 1.499 . S
N391 Co374 1.989 . S
N391 C390 1.342 1_554 S
N391 N392 1.388 . S
N392 Co375 1.993 . S
N392 N391 1.388 . S
N392 C393 1.346 . S
C393 N392 1.346 . S
C393 C394 1.396 1_554 S
C393 C403 1.510 1_554 S
C394 C390 1.401 . S
C394 C393 1.396 1_556 S
C395 C390 1.499 . S
C395 H396 0.959 . S
C395 H397 0.960 . S
C395 H398 0.961 . S
H396 C395 0.959 . S
H397 C395 0.960 . S
H398 C395 0.961 . S
O399 Co374 1.967 . S
O399 C407 1.258 . S
O400 Co375 1.941 . S
O400 C407 1.266 . S
H401 C403 0.959 . S
H402 C403 0.961 . S
C403 C393 1.510 1_556 S
C403 H401 0.959 . S
C403 H402 0.961 . S
C403 H404 0.960 1_556 S
H404 C403 0.960 1_554 S
H405 N385 0.862 . S
O406 Co374 1.920 . S
O406 C379 1.289 . S
C407 O399 1.258 . S
C407 O400 1.266 . S
Co408 O411 1.970 1_545 S
Co408 N425 1.989 . S
Co408 O433 1.967 . S
Co408 O440 1.920 . S
Co409 O412 1.966 1_545 S
Co409 N418 2.022 . S
Co409 N426 1.993 . S
Co409 O434 1.941 . S
C410 O411 1.258 . S
C410 O412 1.263 . S
O411 Co408 1.970 1_565 S
O411 C410 1.258 . S
O412 Co409 1.966 1_565 S
O412 C410 1.263 . S
C413 O414 1.235 1_545 S
C413 O440 1.289 . S
O414 C413 1.235 1_565 S
C415 C417 1.400 . S
C415 N418 1.351 . S
C415 C420 1.501 1_545 S
C416 C417 1.387 . S
C416 N419 1.341 . S
C417 C415 1.400 . S
C417 C416 1.387 . S
N418 Co409 2.022 . S
N418 C415 1.351 . S
N418 N419 1.365 . S
N419 C416 1.341 . S
N419 N418 1.365 . S
N419 H439 0.862 . S
C420 C415 1.501 1_565 S
C420 H421 0.961 . S
C420 H422 0.961 . S
C420 H423 0.960 . S
H421 C420 0.961 . S
H422 C420 0.961 . S
H423 C420 0.960 . S
C424 N425 1.342 . S
C424 C428 1.401 . S
C424 C429 1.499 . S
N425 Co408 1.989 . S
N425 C424 1.342 . S
N425 N426 1.388 . S
N426 Co409 1.993 . S
N426 N425 1.388 . S
N426 C427 1.346 . S
C427 N426 1.346 . S
C427 C428 1.396 . S
C427 C437 1.510 . S
C428 C424 1.401 . S
C428 C427 1.396 . S
C429 C424 1.499 . S
C429 H430 0.959 . S
C429 H431 0.960 . S
C429 H432 0.961 . S
H430 C429 0.959 . S
H431 C429 0.960 . S
H432 C429 0.961 . S
O433 Co408 1.967 . S
O433 C441 1.258 . S
O434 Co409 1.941 . S
O434 C441 1.266 . S
H435 C437 0.959 . S
H436 C437 0.961 . S
C437 C427 1.510 . S
C437 H435 0.959 . S
C437 H436 0.961 . S
C437 H438 0.960 . S
H438 C437 0.960 . S
H439 N419 0.862 . S
O440 Co408 1.920 . S
O440 C413 1.289 . S
C441 O433 1.258 . S
C441 O434 1.266 . S
Co442 O445 1.970 . S
Co442 N459 1.989 . S
Co442 O467 1.967 . S
Co442 O474 1.920 . S
Co443 O446 1.966 . S
Co443 N452 2.022 . S
Co443 N460 1.993 . S
Co443 O468 1.941 . S
C444 O445 1.258 . S
C444 O446 1.263 . S
O445 Co442 1.970 . S
O445 C444 1.258 . S
O446 Co443 1.966 . S
O446 C444 1.263 . S
C447 O448 1.235 . S
C447 O474 1.289 . S
O448 C447 1.235 . S
C449 C451 1.400 . S
C449 N452 1.351 . S
C449 C454 1.501 . S
C450 C451 1.387 . S
C450 N453 1.341 . S
C451 C449 1.400 . S
C451 C450 1.387 . S
N452 Co443 2.022 . S
N452 C449 1.351 . S
N452 N453 1.365 . S
N453 C450 1.341 . S
N453 N452 1.365 . S
N453 H473 0.862 . S
C454 C449 1.501 . S
C454 H455 0.961 . S
C454 H456 0.961 . S
C454 H457 0.960 . S
H455 C454 0.961 . S
H456 C454 0.961 . S
H457 C454 0.960 . S
C458 N459 1.342 1_554 S
C458 C462 1.401 . S
C458 C463 1.499 . S
N459 Co442 1.989 . S
N459 C458 1.342 1_556 S
N459 N460 1.388 . S
N460 Co443 1.993 . S
N460 N459 1.388 . S
N460 C461 1.346 1_556 S
C461 N460 1.346 1_554 S
C461 C462 1.396 . S
C461 C471 1.510 . S
C462 C458 1.401 . S
C462 C461 1.396 . S
C463 C458 1.499 . S
C463 H464 0.959 . S
C463 H465 0.960 . S
C463 H466 0.961 . S
H464 C463 0.959 . S
H465 C463 0.960 . S
H466 C463 0.961 . S
O467 Co442 1.967 . S
O467 C475 1.258 . S
O468 Co443 1.941 . S
O468 C475 1.266 . S
H469 C471 0.959 . S
H470 C471 0.961 . S
C471 C461 1.510 . S
C471 H469 0.959 . S
C471 H470 0.961 . S
C471 H472 0.960 1_554 S
H472 C471 0.960 1_556 S
H473 N453 0.862 . S
O474 Co442 1.920 . S
O474 C447 1.289 . S
C475 O467 1.258 . S
C475 O468 1.266 . S
Co476 O479 1.970 . S
Co476 N493 1.989 . S
Co476 O501 1.967 . S
Co476 O508 1.920 . S
Co477 O480 1.966 . S
Co477 N486 2.022 . S
Co477 N494 1.993 . S
Co477 O502 1.941 . S
C478 O479 1.258 . S
C478 O480 1.263 . S
O479 Co476 1.970 . S
O479 C478 1.258 . S
O480 Co477 1.966 . S
O480 C478 1.263 . S
C481 O482 1.235 . S
C481 O508 1.289 . S
O482 C481 1.235 . S
C483 C485 1.400 . S
C483 N486 1.351 . S
C483 C488 1.501 . S
C484 C485 1.387 . S
C484 N487 1.341 . S
C485 C483 1.400 . S
C485 C484 1.387 . S
N486 Co477 2.022 . S
N486 C483 1.351 . S
N486 N487 1.365 . S
N487 C484 1.341 . S
N487 N486 1.365 . S
N487 H507 0.862 . S
C488 C483 1.501 . S
C488 H489 0.961 . S
C488 H490 0.961 . S
C488 H491 0.960 . S
H489 C488 0.961 . S
H490 C488 0.961 . S
H491 C488 0.960 . S
C492 N493 1.342 . S
C492 C496 1.401 . S
C492 C497 1.499 . S
N493 Co476 1.989 . S
N493 C492 1.342 . S
N493 N494 1.388 . S
N494 Co477 1.993 . S
N494 N493 1.388 . S
N494 C495 1.346 . S
C495 N494 1.346 . S
C495 C496 1.396 . S
C495 C505 1.510 . S
C496 C492 1.401 . S
C496 C495 1.396 . S
C497 C492 1.499 . S
C497 H498 0.959 . S
C497 H499 0.960 . S
C497 H500 0.961 . S
H498 C497 0.959 . S
H499 C497 0.960 . S
H500 C497 0.961 . S
O501 Co476 1.967 . S
O501 C509 1.258 . S
O502 Co477 1.941 . S
O502 C509 1.266 . S
H503 C505 0.959 . S
H504 C505 0.961 . S
C505 C495 1.510 . S
C505 H503 0.959 . S
C505 H504 0.961 . S
C505 H506 0.960 . S
H506 C505 0.960 . S
H507 N487 0.862 . S
O508 Co476 1.920 . S
O508 C481 1.289 . S
C509 O501 1.258 . S
C509 O502 1.266 . S
Co510 O513 1.970 1_455 S
Co510 N527 1.989 . S
Co510 O535 1.967 . S
Co510 O542 1.920 . S
Co511 O514 1.966 1_455 S
Co511 N520 2.022 . S
Co511 N528 1.993 . S
Co511 O536 1.941 . S
C512 O513 1.258 . S
C512 O514 1.263 . S
O513 Co510 1.970 1_655 S
O513 C512 1.258 . S
O514 Co511 1.966 1_655 S
O514 C512 1.263 . S
C515 O516 1.235 1_455 S
C515 O542 1.289 . S
O516 C515 1.235 1_655 S
C517 C519 1.400 . S
C517 N520 1.351 . S
C517 C522 1.501 1_455 S
C518 C519 1.387 . S
C518 N521 1.341 . S
C519 C517 1.400 . S
C519 C518 1.387 . S
N520 Co511 2.022 . S
N520 C517 1.351 . S
N520 N521 1.365 . S
N521 C518 1.341 . S
N521 N520 1.365 . S
N521 H541 0.862 . S
C522 C517 1.501 1_655 S
C522 H523 0.961 . S
C522 H524 0.961 . S
C522 H525 0.960 . S
H523 C522 0.961 . S
H524 C522 0.961 . S
H525 C522 0.960 . S
C526 N527 1.332 1_554 S
C526 C530 1.406 . S
C526 C531 1.503 . S
N527 Co510 1.989 . S
N527 C526 1.332 1_556 S
N527 N528 1.388 . S
N528 Co511 1.993 . S
N528 N527 1.388 . S
N528 C529 1.346 . S
C529 N528 1.346 . S
C529 C530 1.396 1_556 S
C529 C539 1.510 . S
C530 C526 1.406 . S
C530 C529 1.396 1_554 S
C531 C526 1.503 . S
C531 H532 0.959 1_554 S
C531 H533 0.960 . S
C531 H534 0.961 . S
H532 C531 0.959 1_556 S
H533 C531 0.960 . S
H534 C531 0.961 . S
O535 Co510 1.967 . S
O535 C543 1.258 . S
O536 Co511 1.941 . S
O536 C543 1.266 . S
H537 C539 0.959 . S
H538 C539 0.961 1_554 S
C539 C529 1.510 . S
C539 H537 0.959 . S
C539 H538 0.961 1_556 S
C539 H540 0.960 . S
H540 C539 0.960 . S
H541 N521 0.862 . S
O542 Co510 1.920 . S
O542 C515 1.289 . S
C543 O535 1.258 . S
C543 O536 1.266 . S
C544 C545 1.363 1_545 S
C544 C550 1.379 . S
C544 N552 1.356 . S
C545 C544 1.363 1_565 S
C545 C551 1.363 1_655 S
C546 C547 1.363 1_565 S
C546 C551 1.379 . S
C546 N553 1.356 . S
C547 C546 1.363 1_545 S
C547 C550 1.363 1_455 S
N548 C550 1.356 . S
N548 H560 0.984 . S
N548 H561 0.985 . S
N549 C551 1.356 . S
N549 H554 0.984 . S
N549 H555 0.985 . S
C550 C544 1.379 . S
C550 C547 1.363 1_655 S
C550 N548 1.356 . S
C551 C545 1.363 1_455 S
C551 C546 1.379 . S
C551 N549 1.356 . S
N552 C544 1.356 . S
N552 H558 0.984 . S
N552 H559 0.984 . S
N553 C546 1.356 . S
N553 H556 0.965 1_565 S
N553 H557 0.985 . S
H554 N549 0.984 . S
H555 N549 0.985 . S
H556 N553 0.965 1_545 S
H557 N553 0.985 . S
H558 N552 0.984 . S
H559 N552 0.984 . S
H560 N548 0.984 . S
H561 N548 0.985 . S
C562 C563 1.346 1_545 S
C562 C568 1.379 1_556 S
C562 N570 1.356 . S
C563 C562 1.346 1_565 S
C563 C569 1.383 . S
C564 C565 1.363 . S
C564 C569 1.379 1_554 S
C564 N571 1.356 . S
C565 C564 1.363 . S
C565 C568 1.363 1_565 S
N566 C568 1.356 . S
N566 H578 0.984 . S
N566 H579 0.985 . S
N567 C569 1.356 . S
N567 H572 0.984 . S
N567 H573 0.985 . S
C568 C562 1.379 1_554 S
C568 C565 1.363 1_545 S
C568 N566 1.356 . S
C569 C563 1.383 . S
C569 C564 1.379 1_556 S
C569 N567 1.356 . S
N570 C562 1.356 . S
N570 H576 0.984 . S
N570 H577 0.984 . S
N571 C564 1.356 . S
N571 H574 0.984 . S
N571 H575 0.985 . S
H572 N567 0.984 . S
H573 N567 0.985 . S
H574 N571 0.984 . S
H575 N571 0.985 . S
H576 N570 0.984 . S
H577 N570 0.984 . S
H578 N566 0.984 . S
H579 N566 0.985 . S
C580 C581 1.363 . S
C580 C586 1.379 . S
C580 N588 1.356 . S
C581 C580 1.363 . S
C581 C587 1.363 . S
C582 C583 1.363 . S
C582 C587 1.379 . S
C582 N589 1.356 . S
C583 C582 1.363 . S
C583 C586 1.363 . S
N584 C586 1.356 . S
N584 H596 0.984 . S
N584 H597 0.985 . S
N585 C587 1.356 . S
N585 H590 0.984 . S
N585 H591 0.985 . S
C586 C580 1.379 . S
C586 C583 1.363 . S
C586 N584 1.356 . S
C587 C581 1.363 . S
C587 C582 1.379 . S
C587 N585 1.356 . S
N588 C580 1.356 . S
N588 H594 0.984 . S
N588 H595 0.984 . S
N589 C582 1.356 . S
N589 H592 0.984 . S
N589 H593 0.985 . S
H590 N585 0.984 . S
H591 N585 0.985 . S
H592 N589 0.984 . S
H593 N589 0.985 . S
H594 N588 0.984 . S
H595 N588 0.984 . S
H596 N584 0.984 . S
H597 N584 0.985 . S
C598 C599 1.363 1_556 S
C598 C604 1.379 . S
C598 N606 1.356 . S
C599 C598 1.363 1_554 S
C599 C605 1.363 . S
C600 C601 1.364 1_554 S
C600 C605 1.373 1_455 S
C600 N607 1.363 . S
C601 C600 1.364 1_556 S
C601 C604 1.363 1_455 S
N602 C604 1.358 . S
N602 H614 0.986 . S
N602 H615 0.981 1_655 S
N603 C605 1.356 . S
N603 H608 0.984 . S
N603 H609 0.985 . S
C604 C598 1.379 . S
C604 C601 1.363 1_655 S
C604 N602 1.358 . S
C605 C599 1.363 . S
C605 C600 1.373 1_655 S
C605 N603 1.356 . S
N606 C598 1.356 . S
N606 H612 0.984 . S
N606 H613 0.984 1_556 S
N607 C600 1.363 . S
N607 H610 0.984 . S
N607 H611 0.985 . S
H608 N603 0.984 . S
H609 N603 0.985 . S
H610 N607 0.984 . S
H611 N607 0.985 . S
H612 N606 0.984 . S
H613 N606 0.984 1_554 S
H614 N602 0.986 . S
H615 N602 0.981 1_455 S
C616 C617 1.363 1_545 S
C616 C622 1.379 . S
C616 N624 1.356 . S
C617 C616 1.363 1_565 S
C617 C623 1.363 . S
C618 C619 1.363 1_565 S
C618 C623 1.379 . S
C618 N625 1.356 . S
C619 C618 1.363 1_545 S
C619 C622 1.363 . S
N620 C622 1.356 . S
N620 H632 0.984 . S
N620 H633 0.985 . S
N621 C623 1.356 . S
N621 H626 0.984 . S
N621 H627 0.985 . S
C622 C616 1.379 . S
C622 C619 1.363 . S
C622 N620 1.356 . S
C623 C617 1.363 . S
C623 C618 1.379 . S
C623 N621 1.356 . S
N624 C616 1.356 . S
N624 H630 0.984 . S
N624 H631 0.984 . S
N625 C618 1.356 . S
N625 H628 0.984 . S
N625 H629 0.985 . S
H626 N621 0.984 . S
H627 N621 0.985 . S
H628 N625 0.984 . S
H629 N625 0.985 . S
H630 N624 0.984 . S
H631 N624 0.984 . S
H632 N620 0.984 . S
H633 N620 0.985 . S
C634 C635 1.363 . S
C634 C640 1.379 1_554 S
C634 N642 1.356 . S
C635 C634 1.363 . S
C635 C641 1.363 . S
C636 C637 1.363 . S
C636 C641 1.379 1_556 S
C636 N643 1.356 . S
C637 C636 1.363 . S
C637 C640 1.363 . S
N638 C640 1.356 . S
N638 H650 0.984 . S
N638 H651 0.985 . S
N639 C641 1.356 . S
N639 H644 0.984 . S
N639 H645 0.985 . S
C640 C634 1.379 1_556 S
C640 C637 1.363 . S
C640 N638 1.356 . S
C641 C635 1.363 . S
C641 C636 1.379 1_554 S
C641 N639 1.356 . S
N642 C634 1.356 . S
N642 H648 0.984 . S
N642 H649 0.984 . S
N643 C636 1.356 . S
N643 H646 0.984 . S
N643 H647 0.985 . S
H644 N639 0.984 . S
H645 N639 0.985 . S
H646 N643 0.984 . S
H647 N643 0.985 . S
H648 N642 0.984 . S
H649 N642 0.984 . S
H650 N638 0.984 . S
H651 N638 0.985 . S
C652 C653 1.363 1_455 S
C652 C658 1.379 . S
C652 N660 1.356 . S
C653 C652 1.363 1_655 S
C653 C659 1.363 . S
C654 C655 1.363 1_655 S
C654 C659 1.379 . S
C654 N661 1.356 . S
C655 C654 1.363 1_455 S
C655 C658 1.363 . S
N656 C658 1.356 . S
N656 H668 0.984 . S
N656 H669 0.985 . S
N657 C659 1.356 . S
N657 H662 0.984 . S
N657 H663 0.985 . S
C658 C652 1.379 . S
C658 C655 1.363 . S
C658 N656 1.356 . S
C659 C653 1.363 . S
C659 C654 1.379 . S
C659 N657 1.356 . S
N660 C652 1.356 . S
N660 H666 0.984 . S
N660 H667 0.984 . S
N661 C654 1.356 . S
N661 H664 0.957 1_655 S
N661 H665 0.985 . S
H662 N657 0.984 . S
H663 N657 0.985 . S
H664 N661 0.957 1_455 S
H665 N661 0.985 . S
H666 N660 0.984 . S
H667 N660 0.984 . S
H668 N656 0.984 . S
H669 N656 0.985 . S
C670 C671 1.363 1_455 S
C670 C676 1.379 1_554 S
C670 N678 1.356 . S
C671 C670 1.363 1_655 S
C671 C677 1.363 1_565 S
C672 C673 1.363 1_655 S
C672 C677 1.379 1_556 S
C672 N679 1.356 . S
C673 C672 1.363 1_455 S
C673 C676 1.363 1_545 S
N674 C676 1.356 . S
N674 H686 0.984 . S
N674 H687 0.985 1_565 S
N675 C677 1.356 . S
N675 H680 0.984 . S
N675 H681 0.985 . S
C676 C670 1.379 1_556 S
C676 C673 1.363 1_565 S
C676 N674 1.356 . S
C677 C671 1.363 1_545 S
C677 C672 1.379 1_554 S
C677 N675 1.356 . S
N678 C670 1.356 . S
N678 H684 0.984 . S
N678 H685 0.984 . S
N679 C672 1.356 . S
N679 H682 0.984 . S
N679 H683 0.985 . S
H680 N675 0.984 . S
H681 N675 0.985 . S
H682 N679 0.984 . S
H683 N679 0.985 . S
H684 N678 0.984 . S
H685 N678 0.984 . S
H686 N674 0.984 . S
H687 N674 0.985 1_545 S
C688 C689 1.363 . S
C688 C694 1.379 . S
C688 N696 1.356 . S
C689 C688 1.363 . S
C689 C695 1.363 . S
C690 C691 1.363 . S
C690 C695 1.379 . S
C690 N697 1.356 . S
C691 C690 1.363 . S
C691 C694 1.363 . S
N692 C694 1.356 . S
N692 H704 0.984 . S
N692 H705 0.985 . S
N693 C695 1.356 . S
N693 H698 0.984 . S
N693 H699 0.985 . S
C694 C688 1.379 . S
C694 C691 1.363 . S
C694 N692 1.356 . S
C695 C689 1.363 . S
C695 C690 1.379 . S
C695 N693 1.356 . S
N696 C688 1.356 . S
N696 H702 0.984 . S
N696 H703 0.984 . S
N697 C690 1.356 . S
N697 H700 0.984 . S
N697 H701 0.985 . S
H698 N693 0.984 . S
H699 N693 0.985 . S
H700 N697 0.984 . S
H701 N697 0.985 . S
H702 N696 0.984 . S
H703 N696 0.984 . S
H704 N692 0.984 . S
H705 N692 0.985 . S
C706 C707 1.363 . S
C706 C712 1.379 . S
C706 N714 1.356 . S
C707 C706 1.363 . S
C707 C713 1.363 . S
C708 C709 1.363 . S
C708 C713 1.379 . S
C708 N715 1.356 . S
C709 C708 1.363 . S
C709 C712 1.363 . S
N710 C712 1.356 . S
N710 H722 0.984 . S
N710 H723 0.985 . S
N711 C713 1.356 . S
N711 H716 0.984 . S
N711 H717 0.985 . S
C712 C706 1.379 . S
C712 C709 1.363 . S
C712 N710 1.356 . S
C713 C707 1.363 . S
C713 C708 1.379 . S
C713 N711 1.356 . S
N714 C706 1.356 . S
N714 H720 0.984 . S
N714 H721 0.984 . S
N715 C708 1.356 . S
N715 H718 0.984 . S
N715 H719 0.985 . S
H716 N711 0.984 . S
H717 N711 0.985 . S
H718 N715 0.984 . S
H719 N715 0.985 . S
H720 N714 0.984 . S
H721 N714 0.984 . S
H722 N710 0.984 . S
H723 N710 0.985 . S
C724 C725 1.363 . S
C724 C730 1.379 . S
C724 N732 1.356 . S
C725 C724 1.363 . S
C725 C731 1.363 . S
C726 C727 1.363 . S
C726 C731 1.379 . S
C726 N733 1.356 . S
C727 C726 1.363 . S
C727 C730 1.363 . S
N728 C730 1.356 . S
N728 H740 0.984 . S
N728 H741 0.985 . S
N729 C731 1.356 . S
N729 H734 0.984 . S
N729 H735 0.985 . S
C730 C724 1.379 . S
C730 C727 1.363 . S
C730 N728 1.356 . S
C731 C725 1.363 . S
C731 C726 1.379 . S
C731 N729 1.356 . S
N732 C724 1.356 . S
N732 H738 0.984 . S
N732 H739 0.984 . S
N733 C726 1.356 . S
N733 H736 0.984 . S
N733 H737 0.985 . S
H734 N729 0.984 . S
H735 N729 0.985 . S
H736 N733 0.984 . S
H737 N733 0.985 . S
H738 N732 0.984 . S
H739 N732 0.984 . S
H740 N728 0.984 . S
H741 N728 0.985 . S
C742 C743 1.363 . S
C742 C748 1.379 . S
C742 N750 1.356 . S
C743 C742 1.363 . S
C743 C749 1.363 . S
C744 C745 1.363 . S
C744 C749 1.379 . S
C744 N751 1.356 . S
C745 C744 1.363 . S
C745 C748 1.363 . S
N746 C748 1.356 . S
N746 H758 0.984 . S
N746 H759 0.985 . S
N747 C749 1.356 . S
N747 H752 0.984 . S
N747 H753 0.985 . S
C748 C742 1.379 . S
C748 C745 1.363 . S
C748 N746 1.356 . S
C749 C743 1.363 . S
C749 C744 1.379 . S
C749 N747 1.356 . S
N750 C742 1.356 . S
N750 H756 0.984 . S
N750 H757 0.984 . S
N751 C744 1.356 . S
N751 H754 0.984 . S
N751 H755 0.985 . S
H752 N747 0.984 . S
H753 N747 0.985 . S
H754 N751 0.984 . S
H755 N751 0.985 . S
H756 N750 0.984 . S
H757 N750 0.984 . S
H758 N746 0.984 . S
H759 N746 0.985 . S
C760 C761 1.363 . S
C760 C766 1.379 . S
C760 N768 1.356 . S
C761 C760 1.363 . S
C761 C767 1.363 . S
C762 C763 1.363 . S
C762 C767 1.379 . S
C762 N769 1.356 . S
C763 C762 1.363 . S
C763 C766 1.363 . S
N764 C766 1.356 . S
N764 H776 0.984 . S
N764 H777 0.985 . S
N765 C767 1.356 . S
N765 H770 0.984 . S
N765 H771 0.985 . S
C766 C760 1.379 . S
C766 C763 1.363 . S
C766 N764 1.356 . S
C767 C761 1.363 . S
C767 C762 1.379 . S
C767 N765 1.356 . S
N768 C760 1.356 . S
N768 H774 0.984 . S
N768 H775 0.984 . S
N769 C762 1.356 . S
N769 H772 0.984 . S
N769 H773 0.985 . S
H770 N765 0.984 . S
H771 N765 0.985 . S
H772 N769 0.984 . S
H773 N769 0.985 . S
H774 N768 0.984 . S
H775 N768 0.984 . S
H776 N764 0.984 . S
H777 N764 0.985 . S
C778 C779 1.363 . S
C778 C784 1.379 . S
C778 N786 1.356 . S
C779 C778 1.363 . S
C779 C785 1.363 . S
C780 C781 1.363 . S
C780 C785 1.379 . S
C780 N787 1.356 . S
C781 C780 1.363 . S
C781 C784 1.363 . S
N782 C784 1.356 . S
N782 H794 0.984 . S
N782 H795 0.985 . S
N783 C785 1.356 . S
N783 H788 0.984 . S
N783 H789 0.985 . S
C784 C778 1.379 . S
C784 C781 1.363 . S
C784 N782 1.356 . S
C785 C779 1.363 . S
C785 C780 1.379 . S
C785 N783 1.356 . S
N786 C778 1.356 . S
N786 H792 0.984 . S
N786 H793 0.984 . S
N787 C780 1.356 . S
N787 H790 0.984 . S
N787 H791 0.985 . S
H788 N783 0.984 . S
H789 N783 0.985 . S
H790 N787 0.984 . S
H791 N787 0.985 . S
H792 N786 0.984 . S
H793 N786 0.984 . S
H794 N782 0.984 . S
H795 N782 0.985 . S
C796 C797 1.363 . S
C796 C802 1.379 . S
C796 N804 1.356 . S
C797 C796 1.363 . S
C797 C803 1.363 . S
C798 C799 1.363 . S
C798 C803 1.379 . S
C798 N805 1.356 . S
C799 C798 1.363 . S
C799 C802 1.363 . S
N800 C802 1.356 . S
N800 H812 0.984 . S
N800 H813 0.985 . S
N801 C803 1.356 . S
N801 H806 0.984 . S
N801 H807 0.985 . S
C802 C796 1.379 . S
C802 C799 1.363 . S
C802 N800 1.356 . S
C803 C797 1.363 . S
C803 C798 1.379 . S
C803 N801 1.356 . S
N804 C796 1.356 . S
N804 H810 0.984 . S
N804 H811 0.984 . S
N805 C798 1.356 . S
N805 H808 0.984 . S
N805 H809 0.985 . S
H806 N801 0.984 . S
H807 N801 0.985 . S
H808 N805 0.984 . S
H809 N805 0.985 . S
H810 N804 0.984 . S
H811 N804 0.984 . S
H812 N800 0.984 . S
H813 N800 0.985 . S
C814 C815 1.363 . S
C814 C820 1.379 . S
C814 N822 1.356 . S
C815 C814 1.363 . S
C815 C821 1.363 . S
C816 C817 1.363 . S
C816 C821 1.379 . S
C816 N823 1.356 . S
C817 C816 1.363 . S
C817 C820 1.363 . S
N818 C820 1.356 . S
N818 H830 0.984 . S
N818 H831 0.985 . S
N819 C821 1.356 . S
N819 H824 0.984 . S
N819 H825 0.985 . S
C820 C814 1.379 . S
C820 C817 1.363 . S
C820 N818 1.356 . S
C821 C815 1.363 . S
C821 C816 1.379 . S
C821 N819 1.356 . S
N822 C814 1.356 . S
N822 H828 0.984 . S
N822 H829 0.984 . S
N823 C816 1.356 . S
N823 H826 0.984 . S
N823 H827 0.985 . S
H824 N819 0.984 . S
H825 N819 0.985 . S
H826 N823 0.984 . S
H827 N823 0.985 . S
H828 N822 0.984 . S
H829 N822 0.984 . S
H830 N818 0.984 . S
H831 N818 0.985 . S
C832 C833 1.363 . S
C832 C838 1.379 . S
C832 N840 1.356 . S
C833 C832 1.363 . S
C833 C839 1.363 . S
C834 C835 1.363 . S
C834 C839 1.379 . S
C834 N841 1.356 . S
C835 C834 1.363 . S
C835 C838 1.363 . S
N836 C838 1.356 . S
N836 H848 0.984 . S
N836 H849 0.985 . S
N837 C839 1.356 . S
N837 H842 0.984 . S
N837 H843 0.985 . S
C838 C832 1.379 . S
C838 C835 1.363 . S
C838 N836 1.356 . S
C839 C833 1.363 . S
C839 C834 1.379 . S
C839 N837 1.356 . S
N840 C832 1.356 . S
N840 H846 0.984 . S
N840 H847 0.984 . S
N841 C834 1.356 . S
N841 H844 0.984 . S
N841 H845 0.985 . S
H842 N837 0.984 . S
H843 N837 0.985 . S
H844 N841 0.984 . S
H845 N841 0.985 . S
H846 N840 0.984 . S
H847 N840 0.984 . S
H848 N836 0.984 . S
H849 N836 0.985 . S
C850 C851 1.363 . S
C850 C856 1.379 . S
C850 N858 1.356 . S
C851 C850 1.363 . S
C851 C857 1.363 . S
C852 C853 1.363 . S
C852 C857 1.379 . S
C852 N859 1.356 . S
C853 C852 1.363 . S
C853 C856 1.363 . S
N854 C856 1.356 . S
N854 H866 0.984 . S
N854 H867 0.985 . S
N855 C857 1.356 . S
N855 H860 0.984 . S
N855 H861 0.985 . S
C856 C850 1.379 . S
C856 C853 1.363 . S
C856 N854 1.356 . S
C857 C851 1.363 . S
C857 C852 1.379 . S
C857 N855 1.356 . S
N858 C850 1.356 . S
N858 H864 0.984 . S
N858 H865 0.984 . S
N859 C852 1.356 . S
N859 H862 0.984 . S
N859 H863 0.985 . S
H860 N855 0.984 . S
H861 N855 0.985 . S
H862 N859 0.984 . S
H863 N859 0.985 . S
H864 N858 0.984 . S
H865 N858 0.984 . S
H866 N854 0.984 . S
H867 N854 0.985 . S
C868 C869 1.363 . S
C868 C874 1.379 . S
C868 N876 1.356 . S
C869 C868 1.363 . S
C869 C875 1.363 . S
C870 C871 1.363 . S
C870 C875 1.379 . S
C870 N877 1.356 . S
C871 C870 1.363 . S
C871 C874 1.363 . S
N872 C874 1.356 . S
N872 H884 0.984 . S
N872 H885 0.985 . S
N873 C875 1.356 . S
N873 H878 0.984 . S
N873 H879 0.985 . S
C874 C868 1.379 . S
C874 C871 1.363 . S
C874 N872 1.356 . S
C875 C869 1.363 . S
C875 C870 1.379 . S
C875 N873 1.356 . S
N876 C868 1.356 . S
N876 H882 0.984 . S
N876 H883 0.984 . S
N877 C870 1.356 . S
N877 H880 0.984 . S
N877 H881 0.985 . S
H878 N873 0.984 . S
H879 N873 0.985 . S
H880 N877 0.984 . S
H881 N877 0.985 . S
H882 N876 0.984 . S
H883 N876 0.984 . S
H884 N872 0.984 . S
H885 N872 0.985 . S
C886 C887 1.363 . S
C886 C892 1.379 . S
C886 N894 1.356 . S
C887 C886 1.363 . S
C887 C893 1.363 . S
C888 C889 1.363 . S
C888 C893 1.379 . S
C888 N895 1.356 . S
C889 C888 1.363 . S
C889 C892 1.363 . S
N890 C892 1.356 . S
N890 H902 0.984 . S
N890 H903 0.985 . S
N891 C893 1.356 . S
N891 H896 0.984 . S
N891 H897 0.985 . S
C892 C886 1.379 . S
C892 C889 1.363 . S
C892 N890 1.356 . S
C893 C887 1.363 . S
C893 C888 1.379 . S
C893 N891 1.356 . S
N894 C886 1.356 . S
N894 H900 0.984 . S
N894 H901 0.984 . S
N895 C888 1.356 . S
N895 H898 0.984 . S
N895 H899 0.985 . S
H896 N891 0.984 . S
H897 N891 0.985 . S
H898 N895 0.984 . S
H899 N895 0.985 . S
H900 N894 0.984 . S
H901 N894 0.984 . S
H902 N890 0.984 . S
H903 N890 0.985 . S
C904 C905 1.363 . S
C904 C910 1.379 . S
C904 N912 1.356 . S
C905 C904 1.363 . S
C905 C911 1.363 . S
C906 C907 1.363 . S
C906 C911 1.379 . S
C906 N913 1.356 . S
C907 C906 1.363 . S
C907 C910 1.363 . S
N908 C910 1.356 . S
N908 H920 0.984 . S
N908 H921 0.985 . S
N909 C911 1.356 . S
N909 H914 0.984 . S
N909 H915 0.985 . S
C910 C904 1.379 . S
C910 C907 1.363 . S
C910 N908 1.356 . S
C911 C905 1.363 . S
C911 C906 1.379 . S
C911 N909 1.356 . S
N912 C904 1.356 . S
N912 H918 0.984 . S
N912 H919 0.984 . S
N913 C906 1.356 . S
N913 H916 0.984 . S
N913 H917 0.985 . S
H914 N909 0.984 . S
H915 N909 0.985 . S
H916 N913 0.984 . S
H917 N913 0.985 . S
H918 N912 0.984 . S
H919 N912 0.984 . S
H920 N908 0.984 . S
H921 N908 0.985 . S
C922 C923 1.363 . S
C922 C928 1.379 . S
C922 N930 1.356 . S
C923 C922 1.363 . S
C923 C929 1.363 . S
C924 C925 1.363 . S
C924 C929 1.379 . S
C924 N931 1.356 . S
C925 C924 1.363 . S
C925 C928 1.363 . S
N926 C928 1.356 . S
N926 H938 0.984 . S
N926 H939 0.985 . S
N927 C929 1.356 . S
N927 H932 0.984 . S
N927 H933 0.985 . S
C928 C922 1.379 . S
C928 C925 1.363 . S
C928 N926 1.356 . S
C929 C923 1.363 . S
C929 C924 1.379 . S
C929 N927 1.356 . S
N930 C922 1.356 . S
N930 H936 0.984 . S
N930 H937 0.984 . S
N931 C924 1.356 . S
N931 H934 0.984 . S
N931 H935 0.985 . S
H932 N927 0.984 . S
H933 N927 0.985 . S
H934 N931 0.984 . S
H935 N931 0.985 . S
H936 N930 0.984 . S
H937 N930 0.984 . S
H938 N926 0.984 . S
H939 N926 0.985 . S
C940 C941 1.363 . S
C940 C946 1.379 . S
C940 N948 1.356 . S
C941 C940 1.363 . S
C941 C947 1.363 . S
C942 C943 1.363 . S
C942 C947 1.379 . S
C942 N949 1.356 . S
C943 C942 1.363 . S
C943 C946 1.363 . S
N944 C946 1.356 . S
N944 H956 0.984 . S
N944 H957 0.985 . S
N945 C947 1.356 . S
N945 H950 0.984 . S
N945 H951 0.985 . S
C946 C940 1.379 . S
C946 C943 1.363 . S
C946 N944 1.356 . S
C947 C941 1.363 . S
C947 C942 1.379 . S
C947 N945 1.356 . S
N948 C940 1.356 . S
N948 H954 0.984 . S
N948 H955 0.984 . S
N949 C942 1.356 . S
N949 H952 0.984 . S
N949 H953 0.985 . S
H950 N945 0.984 . S
H951 N945 0.985 . S
H952 N949 0.984 . S
H953 N949 0.985 . S
H954 N948 0.984 . S
H955 N948 0.984 . S
H956 N944 0.984 . S
H957 N944 0.985 . S
C958 C959 1.363 . S
C958 C964 1.379 . S
C958 N966 1.356 . S
C959 C958 1.363 . S
C959 C965 1.363 . S
C960 C961 1.363 . S
C960 C965 1.379 . S
C960 N967 1.356 . S
C961 C960 1.363 . S
C961 C964 1.363 . S
N962 C964 1.356 . S
N962 H974 0.984 . S
N962 H975 0.985 . S
N963 C965 1.356 . S
N963 H968 0.984 . S
N963 H969 0.985 . S
C964 C958 1.379 . S
C964 C961 1.363 . S
C964 N962 1.356 . S
C965 C959 1.363 . S
C965 C960 1.379 . S
C965 N963 1.356 . S
N966 C958 1.356 . S
N966 H972 0.984 . S
N966 H973 0.984 . S
N967 C960 1.356 . S
N967 H970 0.984 . S
N967 H971 0.985 . S
H968 N963 0.984 . S
H969 N963 0.985 . S
H970 N967 0.984 . S
H971 N967 0.985 . S
H972 N966 0.984 . S
H973 N966 0.984 . S
H974 N962 0.984 . S
H975 N962 0.985 . S
C976 C977 1.363 . S
C976 C982 1.379 . S
C976 N984 1.356 . S
C977 C976 1.363 . S
C977 C983 1.363 . S
C978 C979 1.363 . S
C978 C983 1.379 . S
C978 N985 1.356 . S
C979 C978 1.363 . S
C979 C982 1.363 . S
N980 C982 1.356 . S
N980 H992 0.984 1_565 S
N980 H993 0.985 . S
N981 C983 1.356 . S
N981 H986 0.984 . S
N981 H987 0.985 . S
C982 C976 1.379 . S
C982 C979 1.363 . S
C982 N980 1.356 . S
C983 C977 1.363 . S
C983 C978 1.379 . S
C983 N981 1.356 . S
N984 C976 1.356 . S
N984 H990 0.984 . S
N984 H991 0.984 . S
N985 C978 1.356 . S
N985 H988 0.984 . S
N985 H989 0.985 . S
H986 N981 0.984 . S
H987 N981 0.985 . S
H988 N985 0.984 . S
H989 N985 0.985 . S
H990 N984 0.984 . S
H991 N984 0.984 . S
H992 N980 0.984 1_545 S
H993 N980 0.985 . S
C994 C995 1.363 . S
C994 C1000 1.379 . S
C994 N1002 1.356 . S
C995 C994 1.363 . S
C995 C1001 1.363 . S
C996 C997 1.363 . S
C996 C1001 1.379 . S
C996 N1003 1.356 . S
C997 C996 1.363 . S
C997 C1000 1.363 . S
N998 C1000 1.356 . S
N998 H1010 0.984 . S
N998 H1011 0.985 . S
N999 C1001 1.356 . S
N999 H1004 0.984 . S
N999 H1005 0.985 . S
C1000 C994 1.379 . S
C1000 C997 1.363 . S
C1000 N998 1.356 . S
C1001 C995 1.363 . S
C1001 C996 1.379 . S
C1001 N999 1.356 . S
N1002 C994 1.356 . S
N1002 H1008 0.984 . S
N1002 H1009 0.984 . S
N1003 C996 1.356 . S
N1003 H1006 0.984 . S
N1003 H1007 0.985 . S
H1004 N999 0.984 . S
H1005 N999 0.985 . S
H1006 N1003 0.984 . S
H1007 N1003 0.985 . S
H1008 N1002 0.984 . S
H1009 N1002 0.984 . S
H1010 N998 0.984 . S
H1011 N998 0.985 . S
C1012 C1013 1.363 . S
C1012 C1018 1.379 . S
C1012 N1020 1.356 . S
C1013 C1012 1.363 . S
C1013 C1019 1.363 . S
C1014 C1015 1.363 . S
C1014 C1019 1.379 . S
C1014 N1021 1.356 . S
C1015 C1014 1.363 . S
C1015 C1018 1.363 . S
N1016 C1018 1.356 . S
N1016 H1028 0.984 . S
N1016 H1029 0.985 . S
N1017 C1019 1.356 . S
N1017 H1022 0.984 . S
N1017 H1023 0.985 . S
C1018 C1012 1.379 . S
C1018 C1015 1.363 . S
C1018 N1016 1.356 . S
C1019 C1013 1.363 . S
C1019 C1014 1.379 . S
C1019 N1017 1.356 . S
N1020 C1012 1.356 . S
N1020 H1026 0.984 . S
N1020 H1027 0.984 . S
N1021 C1014 1.356 . S
N1021 H1024 0.984 . S
N1021 H1025 0.985 . S
H1022 N1017 0.984 . S
H1023 N1017 0.985 . S
H1024 N1021 0.984 . S
H1025 N1021 0.985 . S
H1026 N1020 0.984 . S
H1027 N1020 0.984 . S
H1028 N1016 0.984 . S
H1029 N1016 0.985 . S
C1030 C1031 1.363 . S
C1030 C1036 1.379 . S
C1030 N1038 1.356 . S
C1031 C1030 1.363 . S
C1031 C1037 1.363 . S
C1032 C1033 1.363 . S
C1032 C1037 1.379 . S
C1032 N1039 1.356 . S
C1033 C1032 1.363 . S
C1033 C1036 1.363 . S
N1034 C1036 1.356 . S
N1034 H1046 0.984 . S
N1034 H1047 0.985 . S
N1035 C1037 1.356 . S
N1035 H1040 0.984 . S
N1035 H1041 0.985 . S
C1036 C1030 1.379 . S
C1036 C1033 1.363 . S
C1036 N1034 1.356 . S
C1037 C1031 1.363 . S
C1037 C1032 1.379 . S
C1037 N1035 1.356 . S
N1038 C1030 1.356 . S
N1038 H1044 0.984 . S
N1038 H1045 0.984 . S
N1039 C1032 1.356 . S
N1039 H1042 0.984 . S
N1039 H1043 0.985 . S
H1040 N1035 0.984 . S
H1041 N1035 0.985 . S
H1042 N1039 0.984 . S
H1043 N1039 0.985 . S
H1044 N1038 0.984 . S
H1045 N1038 0.984 . S
H1046 N1034 0.984 . S
H1047 N1034 0.985 . S
C1048 C1049 1.363 . S
C1048 C1054 1.379 . S
C1048 N1056 1.356 . S
C1049 C1048 1.363 . S
C1049 C1055 1.363 . S
C1050 C1051 1.363 . S
C1050 C1055 1.379 . S
C1050 N1057 1.356 . S
C1051 C1050 1.363 . S
C1051 C1054 1.363 . S
N1052 C1054 1.356 . S
N1052 H1064 0.984 . S
N1052 H1065 0.985 . S
N1053 C1055 1.356 . S
N1053 H1058 0.984 . S
N1053 H1059 0.985 . S
C1054 C1048 1.379 . S
C1054 C1051 1.363 . S
C1054 N1052 1.356 . S
C1055 C1049 1.363 . S
C1055 C1050 1.379 . S
C1055 N1053 1.356 . S
N1056 C1048 1.356 . S
N1056 H1062 0.984 . S
N1056 H1063 0.984 . S
N1057 C1050 1.356 . S
N1057 H1060 0.984 . S
N1057 H1061 0.985 . S
H1058 N1053 0.984 . S
H1059 N1053 0.985 . S
H1060 N1057 0.984 . S
H1061 N1057 0.985 . S
H1062 N1056 0.984 . S
H1063 N1056 0.984 . S
H1064 N1052 0.984 . S
H1065 N1052 0.985 . S
C1066 C1067 1.363 . S
C1066 C1072 1.379 . S
C1066 N1074 1.356 . S
C1067 C1066 1.363 . S
C1067 C1073 1.363 . S
C1068 C1069 1.363 . S
C1068 C1073 1.379 . S
C1068 N1075 1.356 . S
C1069 C1068 1.363 . S
C1069 C1072 1.363 . S
N1070 C1072 1.356 . S
N1070 H1082 0.984 . S
N1070 H1083 0.985 . S
N1071 C1073 1.356 . S
N1071 H1076 0.984 . S
N1071 H1077 0.985 . S
C1072 C1066 1.379 . S
C1072 C1069 1.363 . S
C1072 N1070 1.356 . S
C1073 C1067 1.363 . S
C1073 C1068 1.379 . S
C1073 N1071 1.356 . S
N1074 C1066 1.356 . S
N1074 H1080 0.984 . S
N1074 H1081 0.984 . S
N1075 C1068 1.356 . S
N1075 H1078 0.984 . S
N1075 H1079 0.985 . S
H1076 N1071 0.984 . S
H1077 N1071 0.985 . S
H1078 N1075 0.984 . S
H1079 N1075 0.985 . S
H1080 N1074 0.984 . S
H1081 N1074 0.984 . S
H1082 N1070 0.984 . S
H1083 N1070 0.985 . S
C1084 C1085 1.363 . S
C1084 C1090 1.379 . S
C1084 N1092 1.356 . S
C1085 C1084 1.363 . S
C1085 C1091 1.363 . S
C1086 C1087 1.363 . S
C1086 C1091 1.379 . S
C1086 N1093 1.356 . S
C1087 C1086 1.363 . S
C1087 C1090 1.363 . S
N1088 C1090 1.356 . S
N1088 H1100 0.984 . S
N1088 H1101 0.985 . S
N1089 C1091 1.356 . S
N1089 H1094 0.984 . S
N1089 H1095 0.985 . S
C1090 C1084 1.379 . S
C1090 C1087 1.363 . S
C1090 N1088 1.356 . S
C1091 C1085 1.363 . S
C1091 C1086 1.379 . S
C1091 N1089 1.356 . S
N1092 C1084 1.356 . S
N1092 H1098 0.984 . S
N1092 H1099 0.984 . S
N1093 C1086 1.356 . S
N1093 H1096 0.984 . S
N1093 H1097 0.985 . S
H1094 N1089 0.984 . S
H1095 N1089 0.985 . S
H1096 N1093 0.984 . S
H1097 N1093 0.985 . S
H1098 N1092 0.984 . S
H1099 N1092 0.984 . S
H1100 N1088 0.984 . S
H1101 N1088 0.985 . S
C1102 C1103 1.363 . S
C1102 C1108 1.379 . S
C1102 N1110 1.356 . S
C1103 C1102 1.363 . S
C1103 C1109 1.363 . S
C1104 C1105 1.363 . S
C1104 C1109 1.379 . S
C1104 N1111 1.356 . S
C1105 C1104 1.363 . S
C1105 C1108 1.363 . S
N1106 C1108 1.356 . S
N1106 H1118 0.984 . S
N1106 H1119 0.985 . S
N1107 C1109 1.356 . S
N1107 H1112 0.984 . S
N1107 H1113 0.985 . S
C1108 C1102 1.379 . S
C1108 C1105 1.363 . S
C1108 N1106 1.356 . S
C1109 C1103 1.363 . S
C1109 C1104 1.379 . S
C1109 N1107 1.356 . S
N1110 C1102 1.356 . S
N1110 H1116 0.984 . S
N1110 H1117 0.984 . S
N1111 C1104 1.356 . S
N1111 H1114 0.984 . S
N1111 H1115 0.985 . S
H1112 N1107 0.984 . S
H1113 N1107 0.985 . S
H1114 N1111 0.984 . S
H1115 N1111 0.985 . S
H1116 N1110 0.984 . S
H1117 N1110 0.984 . S
H1118 N1106 0.984 . S
H1119 N1106 0.985 . S
C1120 C1121 1.363 . S
C1120 C1126 1.379 1_545 S
C1120 N1128 1.356 1_545 S
C1121 C1120 1.363 . S
C1121 C1127 1.363 . S
C1122 C1123 1.363 . S
C1122 C1127 1.379 . S
C1122 N1129 1.356 . S
C1123 C1122 1.363 . S
C1123 C1126 1.363 1_545 S
N1124 C1126 1.356 . S
N1124 H1136 0.984 . S
N1124 H1137 0.985 . S
N1125 C1127 1.356 . S
N1125 H1130 0.984 . S
N1125 H1131 0.985 . S
C1126 C1120 1.379 1_565 S
C1126 C1123 1.363 1_565 S
C1126 N1124 1.356 . S
C1127 C1121 1.363 . S
C1127 C1122 1.379 . S
C1127 N1125 1.356 . S
N1128 C1120 1.356 1_565 S
N1128 H1134 0.984 . S
N1128 H1135 0.984 . S
N1129 C1122 1.356 . S
N1129 H1132 0.984 . S
N1129 H1133 0.985 . S
H1130 N1125 0.984 . S
H1131 N1125 0.985 . S
H1132 N1129 0.984 . S
H1133 N1129 0.985 . S
H1134 N1128 0.984 . S
H1135 N1128 0.984 . S
H1136 N1124 0.984 . S
H1137 N1124 0.985 . S
C1138 C1139 1.363 . S
C1138 C1144 1.379 . S
C1138 N1146 1.356 . S
C1139 C1138 1.363 . S
C1139 C1145 1.363 . S
C1140 C1141 1.363 . S
C1140 C1145 1.379 . S
C1140 N1147 1.356 . S
C1141 C1140 1.363 . S
C1141 C1144 1.363 . S
N1142 C1144 1.356 . S
N1142 H1154 0.984 . S
N1142 H1155 0.985 . S
N1143 C1145 1.356 . S
N1143 H1148 0.984 . S
N1143 H1149 0.982 1_556 S
C1144 C1138 1.379 . S
C1144 C1141 1.363 . S
C1144 N1142 1.356 . S
C1145 C1139 1.363 . S
C1145 C1140 1.379 . S
C1145 N1143 1.356 . S
N1146 C1138 1.356 . S
N1146 H1152 0.984 . S
N1146 H1153 0.984 . S
N1147 C1140 1.356 . S
N1147 H1150 0.984 . S
N1147 H1151 0.985 1_556 S
H1148 N1143 0.984 . S
H1149 N1143 0.982 1_554 S
H1150 N1147 0.984 . S
H1151 N1147 0.985 1_554 S
H1152 N1146 0.984 . S
H1153 N1146 0.984 . S
H1154 N1142 0.984 . S
H1155 N1142 0.985 . S
C1156 C1157 1.363 . S
C1156 C1162 1.379 . S
C1156 N1164 1.356 . S
C1157 C1156 1.363 . S
C1157 C1163 1.363 . S
C1158 C1159 1.363 . S
C1158 C1163 1.379 . S
C1158 N1165 1.356 . S
C1159 C1158 1.363 . S
C1159 C1162 1.363 . S
N1160 C1162 1.356 . S
N1160 H1172 0.984 . S
N1160 H1173 0.985 . S
N1161 C1163 1.356 . S
N1161 H1166 0.984 . S
N1161 H1167 0.985 . S
C1162 C1156 1.379 . S
C1162 C1159 1.363 . S
C1162 N1160 1.356 . S
C1163 C1157 1.363 . S
C1163 C1158 1.379 . S
C1163 N1161 1.356 . S
N1164 C1156 1.356 . S
N1164 H1170 0.984 . S
N1164 H1171 0.984 . S
N1165 C1158 1.356 . S
N1165 H1168 0.984 . S
N1165 H1169 0.985 . S
H1166 N1161 0.984 . S
H1167 N1161 0.985 . S
H1168 N1165 0.984 . S
H1169 N1165 0.985 . S
H1170 N1164 0.984 . S
H1171 N1164 0.984 . S
H1172 N1160 0.984 . S
H1173 N1160 0.985 . S
C1174 C1175 1.363 . S
C1174 C1180 1.379 1_455 S
C1174 N1182 1.356 1_455 S
C1175 C1174 1.363 . S
C1175 C1181 1.363 . S
C1176 C1177 1.363 . S
C1176 C1181 1.379 . S
C1176 N1183 1.356 . S
C1177 C1176 1.363 . S
C1177 C1180 1.365 1_455 S
N1178 C1180 1.354 . S
N1178 H1190 0.984 . S
N1178 H1191 0.985 . S
N1179 C1181 1.356 . S
N1179 H1184 0.984 . S
N1179 H1185 0.985 . S
C1180 C1174 1.379 1_655 S
C1180 C1177 1.365 1_655 S
C1180 N1178 1.354 . S
C1181 C1175 1.363 . S
C1181 C1176 1.379 . S
C1181 N1179 1.356 . S
N1182 C1174 1.356 1_655 S
N1182 H1188 0.984 . S
N1182 H1189 0.984 . S
N1183 C1176 1.356 . S
N1183 H1186 0.984 . S
N1183 H1187 0.985 . S
H1184 N1179 0.984 . S
H1185 N1179 0.985 . S
H1186 N1183 0.984 . S
H1187 N1183 0.985 . S
H1188 N1182 0.984 . S
H1189 N1182 0.984 . S
H1190 N1178 0.984 . S
H1191 N1178 0.985 . S
C1192 C1193 1.363 . S
C1192 C1198 1.379 . S
C1192 N1200 1.356 . S
C1193 C1192 1.363 . S
C1193 C1199 1.363 1_565 S
C1194 C1195 1.363 1_545 S
C1194 C1199 1.379 . S
C1194 N1201 1.356 . S
C1195 C1194 1.363 1_565 S
C1195 C1198 1.363 . S
N1196 C1198 1.356 . S
N1196 H1208 0.984 . S
N1196 H1209 0.985 . S
N1197 C1199 1.356 . S
N1197 H1202 0.984 . S
N1197 H1203 0.985 . S
C1198 C1192 1.379 . S
C1198 C1195 1.363 . S
C1198 N1196 1.356 . S
C1199 C1193 1.363 1_545 S
C1199 C1194 1.379 . S
C1199 N1197 1.356 . S
N1200 C1192 1.356 . S
N1200 H1206 0.984 . S
N1200 H1207 0.984 . S
N1201 C1194 1.356 . S
N1201 H1204 0.984 . S
N1201 H1205 0.985 . S
H1202 N1197 0.984 . S
H1203 N1197 0.985 . S
H1204 N1201 0.984 . S
H1205 N1201 0.985 . S
H1206 N1200 0.984 . S
H1207 N1200 0.984 . S
H1208 N1196 0.984 . S
H1209 N1196 0.985 . S
C1210 C1211 1.363 . S
C1210 C1216 1.379 . S
C1210 N1218 1.356 . S
C1211 C1210 1.363 . S
C1211 C1217 1.363 . S
C1212 C1213 1.363 . S
C1212 C1217 1.379 . S
C1212 N1219 1.356 . S
C1213 C1212 1.363 . S
C1213 C1216 1.363 . S
N1214 C1216 1.356 . S
N1214 H1226 0.984 . S
N1214 H1227 0.985 . S
N1215 C1217 1.356 . S
N1215 H1220 0.984 . S
N1215 H1221 0.985 . S
C1216 C1210 1.379 . S
C1216 C1213 1.363 . S
C1216 N1214 1.356 . S
C1217 C1211 1.363 . S
C1217 C1212 1.379 . S
C1217 N1215 1.356 . S
N1218 C1210 1.356 . S
N1218 H1224 0.984 . S
N1218 H1225 0.984 . S
N1219 C1212 1.356 . S
N1219 H1222 0.984 . S
N1219 H1223 0.985 . S
H1220 N1215 0.984 . S
H1221 N1215 0.985 . S
H1222 N1219 0.984 . S
H1223 N1219 0.985 . S
H1224 N1218 0.984 . S
H1225 N1218 0.984 . S
H1226 N1214 0.984 . S
H1227 N1214 0.985 . S
C1228 C1229 1.363 . S
C1228 C1234 1.379 . S
C1228 N1236 1.356 . S
C1229 C1228 1.363 . S
C1229 C1235 1.363 . S
C1230 C1231 1.363 . S
C1230 C1235 1.379 . S
C1230 N1237 1.356 . S
C1231 C1230 1.363 . S
C1231 C1234 1.363 . S
N1232 C1234 1.356 . S
N1232 H1244 0.984 . S
N1232 H1245 0.985 . S
N1233 C1235 1.356 . S
N1233 H1238 0.984 . S
N1233 H1239 0.985 . S
C1234 C1228 1.379 . S
C1234 C1231 1.363 . S
C1234 N1232 1.356 . S
C1235 C1229 1.363 . S
C1235 C1230 1.379 . S
C1235 N1233 1.356 . S
N1236 C1228 1.356 . S
N1236 H1242 0.984 . S
N1236 H1243 0.984 . S
N1237 C1230 1.356 . S
N1237 H1240 0.984 . S
N1237 H1241 0.985 . S
H1238 N1233 0.984 . S
H1239 N1233 0.985 . S
H1240 N1237 0.984 . S
H1241 N1237 0.985 . S
H1242 N1236 0.984 . S
H1243 N1236 0.984 . S
H1244 N1232 0.984 . S
H1245 N1232 0.985 . S
C1246 C1247 1.363 . S
C1246 C1252 1.379 . S
C1246 N1254 1.356 . S
C1247 C1246 1.363 . S
C1247 C1253 1.363 1_655 S
C1248 C1249 1.363 1_455 S
C1248 C1253 1.379 . S
C1248 N1255 1.356 . S
C1249 C1248 1.363 1_655 S
C1249 C1252 1.363 . S
N1250 C1252 1.356 . S
N1250 H1262 0.984 . S
N1250 H1263 0.985 . S
N1251 C1253 1.356 . S
N1251 H1256 0.984 . S
N1251 H1257 0.999 . S
C1252 C1246 1.379 . S
C1252 C1249 1.363 . S
C1252 N1250 1.356 . S
C1253 C1247 1.363 1_455 S
C1253 C1248 1.379 . S
C1253 N1251 1.356 . S
N1254 C1246 1.356 . S
N1254 H1260 0.984 . S
N1254 H1261 0.984 . S
N1255 C1248 1.356 . S
N1255 H1258 0.984 . S
N1255 H1259 0.985 1_554 S
H1256 N1251 0.984 . S
H1257 N1251 0.999 . S
H1258 N1255 0.984 . S
H1259 N1255 0.985 1_556 S
H1260 N1254 0.984 . S
H1261 N1254 0.984 . S
H1262 N1250 0.984 . S
H1263 N1250 0.985 . S
C545 C277 0.725 . S
C547 C5 0.726 . S
C563 C39 0.717 1_565 S
C565 C311 0.743 . S
C581 C345 0.704 . S
C583 C73 0.700 . S
C599 C379 0.570 . S
C601 C122 0.503 . S
C617 C141 0.714 . S
C619 C413 0.712 . S
C635 C175 0.741 . S
C637 C447 0.739 . S
C653 C209 0.691 . S
C655 C481 0.697 . S
C671 C243 0.717 . S
C673 C515 0.717 . S
C689 C33 1.861 . S
C691 C530 1.719 . S
C707 C67 1.706 . S
C709 C428 1.579 . S
C725 C101 1.740 . S
C727 C462 1.615 . S
C743 C496 1.584 . S
C745 C135 1.692 . S
C761 C169 1.679 . S
C763 C326 1.562 . S
C779 C203 1.678 . S
C781 C360 1.552 . S
C797 C394 1.725 . S
C799 C237 1.798 . S
C815 C271 1.759 . S
C817 C292 1.629 . S
C833 C258 1.599 . S
C835 C305 1.722 . S
C851 C156 1.578 . S
C853 C339 1.707 . S
C869 C190 1.578 . S
C871 C373 1.690 . S
C887 C407 1.478 . S
C889 C224 1.349 . S
C905 C54 1.552 . S
C907 C441 1.669 . S
C923 C475 1.676 . S
C925 C88 1.556 . S
C941 C111 1.202 . S
C943 C509 1.419 . S
C959 C20 1.657 . S
C961 C543 1.780 . S
C977 C240 1.959 . S
C979 C2 1.977 . S
C995 C138 1.898 . S
C997 C36 1.923 . S
C1013 C70 1.893 . S
C1015 C172 1.941 . S
C1031 C206 1.552 . S
C1033 C107 1.507 . S
C1049 C512 2.069 . S
C1051 C274 2.114 . S
C1067 C308 1.937 . S
C1069 C410 1.905 . S
C1085 C342 1.885 . S
C1087 C444 1.899 . S
C1103 C376 2.153 . S
C1105 C478 2.124 . S
C1121 C9 1.343 . S
C1123 C417 1.285 . S
C1139 C43 1.055 . S
C1141 C451 1.028 . S
C1157 C77 1.217 . S
C1159 C485 1.314 . S
C1175 C104 1.512 . S
C1177 C519 1.432 . S
C1193 C145 1.299 . S
C1195 C281 1.312 . S
C1211 C179 1.067 . S
C1213 C315 1.084 . S
C1229 C213 1.233 . S
C1231 C349 1.225 . S
C1247 C383 1.536 . S
C1249 C247 1.499 . S
