# Generated by pormake.
# Topology umq, (4)-cn, num edge types: 1
# Building blocks:
#     Node 0, Type 0, BuildingBlock: ICAMEG_clean_sbu_1, # of connection points: 4
#     Node 1, Type 0, BuildingBlock: ICAMEG_clean_sbu_1, # of connection points: 4
#     Node 2, Type 0, BuildingBlock: ICAMEG_clean_sbu_1, # of connection points: 4
#     Node 3, Type 0, BuildingBlock: ICAMEG_clean_sbu_1, # of connection points: 4
#     Node 4, Type 0, BuildingBlock: ICAMEG_clean_sbu_1, # of connection points: 4
#     Node 5, Type 0, BuildingBlock: ICAMEG_clean_sbu_1, # of connection points: 4
#     Node 6, Type 0, BuildingBlock: ICAMEG_clean_sbu_1, # of connection points: 4
#     Node 7, Type 0, BuildingBlock: ICAMEG_clean_sbu_1, # of connection points: 4
#     Node 8, Type 0, BuildingBlock: ICAMEG_clean_sbu_1, # of connection points: 4
#     Node 9, Type 0, BuildingBlock: ICAMEG_clean_sbu_1, # of connection points: 4
#     Node 10, Type 0, BuildingBlock: ICAMEG_clean_sbu_1, # of connection points: 4
#     Node 11, Type 0, BuildingBlock: ICAMEG_clean_sbu_1, # of connection points: 4
#     Node 12, Type 0, BuildingBlock: ICAMEG_clean_sbu_1, # of connection points: 4
#     Node 13, Type 0, BuildingBlock: ICAMEG_clean_sbu_1, # of connection points: 4
#     Node 14, Type 0, BuildingBlock: ICAMEG_clean_sbu_1, # of connection points: 4
#     Node 15, Type 0, BuildingBlock: ICAMEG_clean_sbu_1, # of connection points: 4
#     Node 16, Type 0, BuildingBlock: ICAMEG_clean_sbu_1, # of connection points: 4
#     Node 17, Type 0, BuildingBlock: ICAMEG_clean_sbu_1, # of connection points: 4
#     Node 18, Type 0, BuildingBlock: ICAMEG_clean_sbu_1, # of connection points: 4
#     Node 19, Type 0, BuildingBlock: ICAMEG_clean_sbu_1, # of connection points: 4
#     Node 20, Type 0, BuildingBlock: ICAMEG_clean_sbu_1, # of connection points: 4
#     Node 21, Type 0, BuildingBlock: ICAMEG_clean_sbu_1, # of connection points: 4
#     Node 22, Type 0, BuildingBlock: ICAMEG_clean_sbu_1, # of connection points: 4
#     Node 23, Type 0, BuildingBlock: ICAMEG_clean_sbu_1, # of connection points: 4
#     Node 24, Type 0, BuildingBlock: ICAMEG_clean_sbu_1, # of connection points: 4
#     Node 25, Type 0, BuildingBlock: ICAMEG_clean_sbu_1, # of connection points: 4
#     Node 26, Type 0, BuildingBlock: ICAMEG_clean_sbu_1, # of connection points: 4
#     Node 27, Type 0, BuildingBlock: ICAMEG_clean_sbu_1, # of connection points: 4
#     Node 28, Type 0, BuildingBlock: ICAMEG_clean_sbu_1, # of connection points: 4
#     Node 29, Type 0, BuildingBlock: ICAMEG_clean_sbu_1, # of connection points: 4
#     Node 30, Type 0, BuildingBlock: ICAMEG_clean_sbu_1, # of connection points: 4
#     Node 31, Type 0, BuildingBlock: ICAMEG_clean_sbu_1, # of connection points: 4
#     Edge 32, Type (0, 0), BuildingBlock: KIFKEQ_clean_linker_1, # of connection points: 2
#     Edge 33, Type (0, 0), BuildingBlock: KIFKEQ_clean_linker_1, # of connection points: 2
#     Edge 34, Type (0, 0), BuildingBlock: KIFKEQ_clean_linker_1, # of connection points: 2
#     Edge 35, Type (0, 0), BuildingBlock: KIFKEQ_clean_linker_1, # of connection points: 2
#     Edge 36, Type (0, 0), BuildingBlock: KIFKEQ_clean_linker_1, # of connection points: 2
#     Edge 37, Type (0, 0), BuildingBlock: KIFKEQ_clean_linker_1, # of connection points: 2
#     Edge 38, Type (0, 0), BuildingBlock: KIFKEQ_clean_linker_1, # of connection points: 2
#     Edge 39, Type (0, 0), BuildingBlock: KIFKEQ_clean_linker_1, # of connection points: 2
#     Edge 40, Type (0, 0), BuildingBlock: KIFKEQ_clean_linker_1, # of connection points: 2
#     Edge 41, Type (0, 0), BuildingBlock: KIFKEQ_clean_linker_1, # of connection points: 2
#     Edge 42, Type (0, 0), BuildingBlock: KIFKEQ_clean_linker_1, # of connection points: 2
#     Edge 43, Type (0, 0), BuildingBlock: KIFKEQ_clean_linker_1, # of connection points: 2
#     Edge 44, Type (0, 0), BuildingBlock: KIFKEQ_clean_linker_1, # of connection points: 2
#     Edge 45, Type (0, 0), BuildingBlock: KIFKEQ_clean_linker_1, # of connection points: 2
#     Edge 46, Type (0, 0), BuildingBlock: KIFKEQ_clean_linker_1, # of connection points: 2
#     Edge 47, Type (0, 0), BuildingBlock: KIFKEQ_clean_linker_1, # of connection points: 2
#     Edge 48, Type (0, 0), BuildingBlock: KIFKEQ_clean_linker_1, # of connection points: 2
#     Edge 49, Type (0, 0), BuildingBlock: KIFKEQ_clean_linker_1, # of connection points: 2
#     Edge 50, Type (0, 0), BuildingBlock: KIFKEQ_clean_linker_1, # of connection points: 2
#     Edge 51, Type (0, 0), BuildingBlock: KIFKEQ_clean_linker_1, # of connection points: 2
#     Edge 52, Type (0, 0), BuildingBlock: KIFKEQ_clean_linker_1, # of connection points: 2
#     Edge 53, Type (0, 0), BuildingBlock: KIFKEQ_clean_linker_1, # of connection points: 2
#     Edge 54, Type (0, 0), BuildingBlock: KIFKEQ_clean_linker_1, # of connection points: 2
#     Edge 55, Type (0, 0), BuildingBlock: KIFKEQ_clean_linker_1, # of connection points: 2
#     Edge 56, Type (0, 0), BuildingBlock: KIFKEQ_clean_linker_1, # of connection points: 2
#     Edge 57, Type (0, 0), BuildingBlock: KIFKEQ_clean_linker_1, # of connection points: 2
#     Edge 58, Type (0, 0), BuildingBlock: KIFKEQ_clean_linker_1, # of connection points: 2
#     Edge 59, Type (0, 0), BuildingBlock: KIFKEQ_clean_linker_1, # of connection points: 2
#     Edge 60, Type (0, 0), BuildingBlock: KIFKEQ_clean_linker_1, # of connection points: 2
#     Edge 61, Type (0, 0), BuildingBlock: KIFKEQ_clean_linker_1, # of connection points: 2
#     Edge 62, Type (0, 0), BuildingBlock: KIFKEQ_clean_linker_1, # of connection points: 2
#     Edge 63, Type (0, 0), BuildingBlock: KIFKEQ_clean_linker_1, # of connection points: 2
#     Edge 64, Type (0, 0), BuildingBlock: KIFKEQ_clean_linker_1, # of connection points: 2
#     Edge 65, Type (0, 0), BuildingBlock: KIFKEQ_clean_linker_1, # of connection points: 2
#     Edge 66, Type (0, 0), BuildingBlock: KIFKEQ_clean_linker_1, # of connection points: 2
#     Edge 67, Type (0, 0), BuildingBlock: KIFKEQ_clean_linker_1, # of connection points: 2
#     Edge 68, Type (0, 0), BuildingBlock: KIFKEQ_clean_linker_1, # of connection points: 2
#     Edge 69, Type (0, 0), BuildingBlock: KIFKEQ_clean_linker_1, # of connection points: 2
#     Edge 70, Type (0, 0), BuildingBlock: KIFKEQ_clean_linker_1, # of connection points: 2
#     Edge 71, Type (0, 0), BuildingBlock: KIFKEQ_clean_linker_1, # of connection points: 2
#     Edge 72, Type (0, 0), BuildingBlock: KIFKEQ_clean_linker_1, # of connection points: 2
#     Edge 73, Type (0, 0), BuildingBlock: KIFKEQ_clean_linker_1, # of connection points: 2
#     Edge 74, Type (0, 0), BuildingBlock: KIFKEQ_clean_linker_1, # of connection points: 2
#     Edge 75, Type (0, 0), BuildingBlock: KIFKEQ_clean_linker_1, # of connection points: 2
#     Edge 76, Type (0, 0), BuildingBlock: KIFKEQ_clean_linker_1, # of connection points: 2
#     Edge 77, Type (0, 0), BuildingBlock: KIFKEQ_clean_linker_1, # of connection points: 2
#     Edge 78, Type (0, 0), BuildingBlock: KIFKEQ_clean_linker_1, # of connection points: 2
#     Edge 79, Type (0, 0), BuildingBlock: KIFKEQ_clean_linker_1, # of connection points: 2
#     Edge 80, Type (0, 0), BuildingBlock: KIFKEQ_clean_linker_1, # of connection points: 2
#     Edge 81, Type (0, 0), BuildingBlock: KIFKEQ_clean_linker_1, # of connection points: 2
#     Edge 82, Type (0, 0), BuildingBlock: KIFKEQ_clean_linker_1, # of connection points: 2
#     Edge 83, Type (0, 0), BuildingBlock: KIFKEQ_clean_linker_1, # of connection points: 2
#     Edge 84, Type (0, 0), BuildingBlock: KIFKEQ_clean_linker_1, # of connection points: 2
#     Edge 85, Type (0, 0), BuildingBlock: KIFKEQ_clean_linker_1, # of connection points: 2
#     Edge 86, Type (0, 0), BuildingBlock: KIFKEQ_clean_linker_1, # of connection points: 2
#     Edge 87, Type (0, 0), BuildingBlock: KIFKEQ_clean_linker_1, # of connection points: 2
#     Edge 88, Type (0, 0), BuildingBlock: KIFKEQ_clean_linker_1, # of connection points: 2
#     Edge 89, Type (0, 0), BuildingBlock: KIFKEQ_clean_linker_1, # of connection points: 2
#     Edge 90, Type (0, 0), BuildingBlock: KIFKEQ_clean_linker_1, # of connection points: 2
#     Edge 91, Type (0, 0), BuildingBlock: KIFKEQ_clean_linker_1, # of connection points: 2
#     Edge 92, Type (0, 0), BuildingBlock: KIFKEQ_clean_linker_1, # of connection points: 2
#     Edge 93, Type (0, 0), BuildingBlock: KIFKEQ_clean_linker_1, # of connection points: 2
#     Edge 94, Type (0, 0), BuildingBlock: KIFKEQ_clean_linker_1, # of connection points: 2
#     Edge 95, Type (0, 0), BuildingBlock: KIFKEQ_clean_linker_1, # of connection points: 2
# Relax obj value: 0.104
# Max RMSD: 0.142
# Mean RMSD: 0.140
data_MOF--net-umq--node1-ICAMEG_clean_sbu_1--edge1-KIFKEQ_clean_linker_1
_symmetry_space_group_name_H-M    P1
_symmetry_Int_Tables_number       1
_symmetry_cell_setting            triclinic
loop_
_symmetry_equiv_pos_as_xyz
'x, y, z'
_cell_length_a     70.663886
_cell_length_b     70.695413
_cell_length_c     48.387311
_cell_angle_alpha  90.06562
_cell_angle_beta   89.972204
_cell_angle_gamma 89.984148
loop_
_atom_site_label
_atom_site_type_symbol
_atom_site_fract_x
_atom_site_fract_y
_atom_site_fract_z
_atom_type_partial_charge
Co0 Co 0.2449 0.12861 0.15424 0.0
Co1 Co 0.28201 0.10174 0.17703 0.0
O2 O 0.25569 0.11057 0.18077 0.0
C3 C 0.2339 0.14653 0.20747 0.0
O4 O 0.25134 0.14413 0.21616 0.0
C5 C 0.25955 0.06774 0.19754 0.0
O6 O 0.24365 0.07572 0.18991 0.0
O7 O 0.27649 0.0926 0.13866 0.0
O8 O 0.26039 0.11784 0.12331 0.0
H9 H 0.34409 0.09446 0.1275 0.0
H10 H 0.21801 0.10647 0.18824 0.0
O11 O 0.22891 0.14027 0.1839 0.0
H12 H 0.20352 0.08937 0.09172 0.0
H13 H 0.19272 0.16703 0.11097 0.0
H14 H 0.26097 0.15248 0.10966 0.0
H15 H 0.22863 0.11243 0.10229 0.0
H16 H 0.20617 0.14379 0.14346 0.0
O17 O 0.27533 0.07592 0.19275 0.0
H18 H 0.31125 0.10554 0.13347 0.0
H19 H 0.30826 0.07873 0.21189 0.0
H20 H 0.24807 0.17569 0.07664 0.0
H21 H 0.19252 0.08356 0.17857 0.0
H22 H 0.21371 0.1831 0.07717 0.0
H23 H 0.1852 0.0748 0.13001 0.0
O24 O 0.2654 0.14677 0.16288 0.0
H25 H 0.26804 0.11098 0.27811 0.0
H26 H 0.31289 0.12464 0.20264 0.0
H27 H 0.31927 0.137 0.24935 0.0
H28 H 0.29679 0.13013 0.28752 0.0
H29 H 0.26209 0.0991 0.23105 0.0
H30 H 0.341 0.06721 0.20663 0.0
H31 H 0.35918 0.07513 0.16424 0.0
O32 O 0.29035 0.12721 0.16216 0.0
C33 C 0.26968 0.10266 0.11914 0.0
C34 C 0.33633 0.09094 0.14609 0.0
C35 C 0.33459 0.07563 0.19048 0.0
N36 N 0.30786 0.09287 0.17304 0.0
C37 C 0.31774 0.09721 0.14961 0.0
C38 C 0.31602 0.08214 0.19329 0.0
C39 C 0.34478 0.08009 0.1667 0.0
C40 C 0.2148 0.10284 0.16705 0.0
N41 N 0.22488 0.1107 0.1459 0.0
C42 C 0.2004 0.08981 0.16171 0.0
C43 C 0.19632 0.08488 0.13446 0.0
C44 C 0.2066 0.09303 0.11297 0.0
C45 C 0.2209 0.106 0.11911 0.0
C46 C 0.20771 0.1639 0.11051 0.0
C47 C 0.24598 0.15556 0.10994 0.0
C48 C 0.21542 0.15079 0.12891 0.0
N49 N 0.23433 0.14671 0.12837 0.0
C50 C 0.23877 0.16875 0.09122 0.0
C51 C 0.21949 0.17291 0.09155 0.0
C52 C 0.28317 0.14384 0.16218 0.0
C53 C 0.27801 0.11397 0.26169 0.0
C54 C 0.30302 0.12157 0.21911 0.0
C55 C 0.30673 0.12861 0.24554 0.0
C56 C 0.29412 0.12474 0.26695 0.0
N57 N 0.28724 0.1109 0.21413 0.0
C58 C 0.27477 0.10716 0.235 0.0
Co59 Co 0.88997 0.24113 0.15161 0.0
Co60 Co 0.91449 0.28027 0.17586 0.0
O61 O 0.90612 0.25367 0.17922 0.0
C62 C 0.86825 0.23362 0.20331 0.0
O63 O 0.87185 0.25083 0.21209 0.0
C64 C 0.94954 0.25851 0.19331 0.0
O65 O 0.94304 0.2432 0.1813 0.0
O66 O 0.92411 0.27585 0.13731 0.0
O67 O 0.90398 0.25383 0.1211 0.0
H68 H 0.92026 0.34339 0.12892 0.0
H69 H 0.90914 0.2178 0.19387 0.0
O70 O 0.8753 0.2276 0.1808 0.0
H71 H 0.93199 0.19345 0.10432 0.0
H72 H 0.8538 0.18674 0.10977 0.0
H73 H 0.87099 0.25403 0.10047 0.0
H74 H 0.90884 0.21955 0.10622 0.0
H75 H 0.87438 0.2021 0.14426 0.0
O76 O 0.94023 0.27395 0.1919 0.0
H77 H 0.90996 0.31022 0.13353 0.0
H78 H 0.9367 0.30647 0.21191 0.0
H79 H 0.85052 0.23917 0.06533 0.0
H80 H 0.93203 0.19142 0.19301 0.0
H81 H 0.84179 0.20528 0.06988 0.0
H82 H 0.9437 0.17916 0.14798 0.0
O83 O 0.87133 0.26222 0.15356 0.0
H84 H 0.90571 0.26513 0.27655 0.0
H85 H 0.89004 0.30982 0.20182 0.0
H86 H 0.87723 0.31521 0.24856 0.0
H87 H 0.8851 0.2928 0.28635 0.0
H88 H 0.91804 0.26015 0.22945 0.0
H89 H 0.94742 0.33954 0.20807 0.0
H90 H 0.93916 0.35826 0.16638 0.0
O91 O 0.88917 0.28802 0.1607 0.0
C92 C 0.91726 0.26578 0.11776 0.0
C93 C 0.92396 0.33538 0.14719 0.0
C94 C 0.93922 0.33321 0.19159 0.0
N95 N 0.92273 0.30639 0.17291 0.0
C96 C 0.91816 0.31659 0.14991 0.0
C97 C 0.93317 0.31446 0.19359 0.0
C98 C 0.93457 0.34371 0.1682 0.0
C99 C 0.91408 0.21244 0.17422 0.0
N100 N 0.90788 0.22035 0.15013 0.0
C101 C 0.92707 0.19755 0.17385 0.0
C102 C 0.93363 0.1907 0.14858 0.0
C103 C 0.9271 0.19873 0.12408 0.0
C104 C 0.91412 0.21362 0.12527 0.0
C105 C 0.85753 0.2015 0.10753 0.0
C106 C 0.86735 0.23925 0.10249 0.0
C107 C 0.86915 0.2103 0.12704 0.0
N108 N 0.87399 0.22893 0.12428 0.0
C109 C 0.85571 0.23092 0.08258 0.0
C110 C 0.8508 0.21191 0.08515 0.0
C111 C 0.87335 0.28008 0.15548 0.0
C112 C 0.90225 0.27504 0.26029 0.0
C113 C 0.89351 0.29997 0.21812 0.0
C114 C 0.88623 0.30312 0.24457 0.0
C115 C 0.89066 0.29055 0.26576 0.0
N116 N 0.90494 0.28476 0.21292 0.0
C117 C 0.90928 0.27235 0.23359 0.0
Co118 Co 0.77055 0.89171 0.15156 0.0
Co119 Co 0.73438 0.91848 0.17946 0.0
O120 O 0.76063 0.90899 0.1801 0.0
C121 C 0.78129 0.87146 0.203 0.0
O122 O 0.76449 0.87528 0.21317 0.0
C123 C 0.75814 0.95151 0.20117 0.0
O124 O 0.77393 0.94237 0.19615 0.0
O125 O 0.73782 0.92786 0.14062 0.0
O126 O 0.75547 0.90454 0.12234 0.0
H127 H 0.66998 0.92698 0.13729 0.0
H128 H 0.79828 0.91112 0.18762 0.0
O129 O 0.78615 0.87786 0.17949 0.0
H130 H 0.81312 0.93249 0.09308 0.0
H131 H 0.82104 0.85363 0.10339 0.0
H132 H 0.75341 0.87083 0.10464 0.0
H133 H 0.78726 0.90981 0.10136 0.0
H134 H 0.80862 0.87559 0.13864 0.0
O135 O 0.74223 0.94421 0.19452 0.0
H136 H 0.70284 0.91529 0.13942 0.0
H137 H 0.71048 0.94195 0.21735 0.0
H138 H 0.76527 0.84894 0.0689 0.0
H139 H 0.82449 0.93362 0.18022 0.0
H140 H 0.79931 0.8402 0.06812 0.0
H141 H 0.83199 0.94451 0.13267 0.0
O142 O 0.74945 0.87378 0.15824 0.0
H143 H 0.75363 0.90732 0.27841 0.0
H144 H 0.70408 0.89684 0.20843 0.0
H145 H 0.69971 0.88425 0.25541 0.0
H146 H 0.72455 0.88955 0.29088 0.0
H147 H 0.75756 0.91936 0.23113 0.0
H148 H 0.67779 0.95411 0.21589 0.0
H149 H 0.65727 0.94655 0.17571 0.0
O150 O 0.72492 0.89331 0.16539 0.0
C151 C 0.74502 0.91909 0.12004 0.0
C152 C 0.67878 0.93033 0.15494 0.0
C153 C 0.68317 0.94558 0.19903 0.0
N154 N 0.70855 0.92785 0.17853 0.0
C155 C 0.69738 0.92372 0.15629 0.0
C156 C 0.7017 0.93872 0.19968 0.0
C157 C 0.67165 0.94133 0.17649 0.0
C158 C 0.80156 0.9157 0.16686 0.0
N159 N 0.7912 0.90922 0.145 0.0
C160 C 0.81638 0.92848 0.1628 0.0
C161 C 0.82056 0.9346 0.13612 0.0
C162 C 0.80997 0.92788 0.1139 0.0
C163 C 0.79526 0.91511 0.11875 0.0
C164 C 0.80618 0.85736 0.10348 0.0
C165 C 0.76826 0.86718 0.10436 0.0
C166 C 0.79906 0.86976 0.12342 0.0
N167 N 0.78032 0.87459 0.1236 0.0
C168 C 0.77488 0.85474 0.08411 0.0
C169 C 0.79399 0.84983 0.0837 0.0
C170 C 0.73178 0.87685 0.16091 0.0
C171 C 0.74262 0.90506 0.26321 0.0
C172 C 0.71498 0.89921 0.22366 0.0
C173 C 0.7124 0.89206 0.25029 0.0
C174 C 0.72633 0.89504 0.27018 0.0
N175 N 0.73092 0.90918 0.21699 0.0
C176 C 0.7447 0.91201 0.23637 0.0
Co177 Co 0.12696 0.77314 0.16227 0.0
Co178 Co 0.10012 0.73502 0.18345 0.0
O179 O 0.10933 0.76123 0.18859 0.0
C180 C 0.14066 0.78635 0.21861 0.0
O181 O 0.12827 0.77594 0.23186 0.0
C182 C 0.06561 0.75744 0.20117 0.0
O183 O 0.07254 0.77267 0.18947 0.0
O184 O 0.09088 0.74121 0.14545 0.0
O185 O 0.11428 0.76016 0.13061 0.0
H186 H 0.09192 0.67402 0.13142 0.0
H187 H 0.10574 0.79789 0.20131 0.0
O188 O 0.14105 0.78674 0.19233 0.0
H189 H 0.08806 0.81999 0.1083 0.0
H190 H 0.16598 0.82615 0.12236 0.0
H191 H 0.14822 0.75895 0.11369 0.0
H192 H 0.11045 0.79358 0.11405 0.0
H193 H 0.14354 0.81173 0.15519 0.0
O194 O 0.07457 0.7418 0.19966 0.0
H195 H 0.1034 0.70659 0.13862 0.0
H196 H 0.07694 0.7084 0.21742 0.0
H197 H 0.17059 0.77286 0.08025 0.0
H198 H 0.08361 0.82459 0.19653 0.0
H199 H 0.17961 0.8067 0.08448 0.0
H200 H 0.07454 0.83578 0.14974 0.0
O201 O 0.1448 0.75174 0.16692 0.0
H202 H 0.10761 0.74551 0.28567 0.0
H203 H 0.12372 0.70397 0.20719 0.0
H204 H 0.13569 0.69628 0.25366 0.0
H205 H 0.12759 0.71708 0.29334 0.0
H206 H 0.09617 0.75284 0.23877 0.0
H207 H 0.06504 0.67592 0.21096 0.0
H208 H 0.07258 0.65847 0.16775 0.0
O209 O 0.12529 0.72676 0.16783 0.0
C210 C 0.09977 0.7499 0.12634 0.0
C211 C 0.08857 0.68146 0.15036 0.0
C212 C 0.07346 0.68254 0.19498 0.0
N213 N 0.09092 0.70938 0.17845 0.0
C214 C 0.09506 0.6999 0.15457 0.0
C215 C 0.0802 0.70096 0.19848 0.0
C216 C 0.0777 0.67275 0.17074 0.0
C217 C 0.10215 0.80284 0.18091 0.0
N218 N 0.10955 0.79423 0.15805 0.0
C219 C 0.08948 0.8179 0.17832 0.0
C220 C 0.08436 0.82414 0.15206 0.0
C221 C 0.09193 0.81528 0.12881 0.0
C222 C 0.10455 0.80026 0.13221 0.0
C223 C 0.16213 0.8114 0.12027 0.0
C224 C 0.15199 0.77372 0.11556 0.0
C225 C 0.14946 0.80314 0.13883 0.0
N226 N 0.14446 0.78454 0.13623 0.0
C227 C 0.16471 0.7815 0.09662 0.0
C228 C 0.16977 0.80048 0.09902 0.0
C229 C 0.14181 0.734 0.16614 0.0
C230 C 0.11121 0.73631 0.26855 0.0
C231 C 0.12026 0.7132 0.22427 0.0
C232 C 0.12701 0.70872 0.25058 0.0
C233 C 0.12244 0.72038 0.27284 0.0
N234 N 0.10925 0.72887 0.22022 0.0
C235 C 0.10471 0.74035 0.24195 0.0
Co236 Co 0.24623 0.89067 0.36844 0.0
Co237 Co 0.28236 0.91767 0.34285 0.0
O238 O 0.25598 0.90871 0.34098 0.0
C239 C 0.2329 0.87334 0.31591 0.0
O240 O 0.24946 0.87695 0.30481 0.0
C241 C 0.2593 0.95125 0.32186 0.0
O242 O 0.24342 0.94267 0.32812 0.0
O243 O 0.27795 0.92695 0.38145 0.0
O244 O 0.26279 0.90151 0.398 0.0
H245 H 0.34584 0.92528 0.38826 0.0
H246 H 0.2182 0.91285 0.33664 0.0
O247 O 0.22916 0.87881 0.34036 0.0
H248 H 0.20716 0.92989 0.43418 0.0
H249 H 0.19597 0.85217 0.41623 0.0
H250 H 0.2641 0.86694 0.41167 0.0
H251 H 0.23178 0.90673 0.42164 0.0
H252 H 0.20804 0.87535 0.3825 0.0
O253 O 0.27517 0.94348 0.32751 0.0
H254 H 0.3129 0.91407 0.38448 0.0
H255 H 0.30747 0.9407 0.30622 0.0
H256 H 0.25261 0.84379 0.44587 0.0
H257 H 0.19319 0.9359 0.34829 0.0
H258 H 0.21831 0.83627 0.4483 0.0
H259 H 0.18761 0.94462 0.39737 0.0
O260 O 0.26641 0.87258 0.35806 0.0
H261 H 0.26566 0.90781 0.24271 0.0
H262 H 0.31266 0.89492 0.31555 0.0
H263 H 0.31791 0.88246 0.26861 0.0
H264 H 0.29436 0.88896 0.23174 0.0
H265 H 0.26082 0.91975 0.28998 0.0
H266 H 0.34028 0.95235 0.3093 0.0
H267 H 0.35974 0.94458 0.35049 0.0
O268 O 0.29123 0.89227 0.35735 0.0
C269 C 0.2719 0.91687 0.40145 0.0
C270 C 0.33752 0.92873 0.37018 0.0
C271 C 0.33439 0.94395 0.32589 0.0
N272 N 0.30828 0.92664 0.34511 0.0
C273 C 0.31887 0.92239 0.3679 0.0
C274 C 0.31579 0.93736 0.32431 0.0
C275 C 0.3453 0.93957 0.349 0.0
C276 C 0.21576 0.9165 0.35804 0.0
N277 N 0.22651 0.90854 0.37838 0.0
C278 C 0.20162 0.92959 0.36452 0.0
C279 C 0.19851 0.93449 0.39205 0.0
C280 C 0.20948 0.92625 0.41271 0.0
C281 C 0.22349 0.91321 0.40546 0.0
C282 C 0.21094 0.85535 0.41541 0.0
C283 C 0.24914 0.86381 0.41269 0.0
C284 C 0.21787 0.86844 0.39631 0.0
N285 N 0.23675 0.87259 0.39523 0.0
C286 C 0.24273 0.85066 0.43205 0.0
C287 C 0.22348 0.84644 0.4334 0.0
C288 C 0.28416 0.8756 0.35767 0.0
C289 C 0.2761 0.90501 0.25854 0.0
C290 C 0.30233 0.89784 0.29966 0.0
C291 C 0.30539 0.89074 0.27309 0.0
C292 C 0.29218 0.8944 0.25242 0.0
N293 N 0.28658 0.90838 0.3055 0.0
C294 C 0.27351 0.91188 0.28536 0.0
Co295 Co 0.12656 0.24359 0.36517 0.0
Co296 Co 0.09862 0.27943 0.33983 0.0
O297 O 0.10833 0.25335 0.33797 0.0
C298 C 0.14532 0.23282 0.31253 0.0
O299 O 0.14226 0.25007 0.30352 0.0
C300 C 0.06561 0.25556 0.31851 0.0
O301 O 0.07509 0.23986 0.3226 0.0
O302 O 0.09006 0.2752 0.3789 0.0
O303 O 0.11491 0.25893 0.39537 0.0
H304 H 0.09017 0.34303 0.38461 0.0
H305 H 0.10573 0.21565 0.33115 0.0
O306 O 0.13915 0.22778 0.33611 0.0
H307 H 0.088 0.20155 0.42753 0.0
H308 H 0.16637 0.19329 0.41044 0.0
H309 H 0.14932 0.26094 0.41004 0.0
H310 H 0.11039 0.22727 0.41702 0.0
H311 H 0.14303 0.20558 0.37709 0.0
O312 O 0.07273 0.27147 0.32555 0.0
H313 H 0.10222 0.31039 0.38081 0.0
H314 H 0.07411 0.30359 0.30384 0.0
H315 H 0.1726 0.24922 0.44388 0.0
H316 H 0.08347 0.18959 0.34077 0.0
H317 H 0.18127 0.21517 0.44422 0.0
H318 H 0.07441 0.18245 0.38925 0.0
O319 O 0.14416 0.26467 0.35681 0.0
H320 H 0.10852 0.26174 0.23991 0.0
H321 H 0.11921 0.31051 0.31103 0.0
H322 H 0.13096 0.31575 0.26376 0.0
H323 H 0.12555 0.2913 0.22772 0.0
H324 H 0.09731 0.25695 0.28746 0.0
H325 H 0.0616 0.33607 0.30698 0.0
H326 H 0.0697 0.35607 0.34752 0.0
O327 O 0.12397 0.289 0.35316 0.0
C328 C 0.09991 0.26861 0.39883 0.0
C329 C 0.08658 0.33447 0.36682 0.0
C330 C 0.07052 0.33055 0.32327 0.0
N331 N 0.08896 0.30511 0.34208 0.0
C332 C 0.09339 0.31599 0.36452 0.0
C333 C 0.07759 0.31214 0.32167 0.0
C334 C 0.07508 0.34177 0.34601 0.0
C335 C 0.10194 0.21254 0.3523 0.0
N336 N 0.10928 0.22303 0.37345 0.0
C337 C 0.0893 0.19781 0.35762 0.0
C338 C 0.0842 0.19382 0.38483 0.0
C339 C 0.0918 0.20454 0.40631 0.0
C340 C 0.1044 0.21917 0.4002 0.0
C341 C 0.16269 0.20815 0.41052 0.0
C342 C 0.15294 0.24608 0.41014 0.0
C343 C 0.14951 0.2152 0.39164 0.0
N344 N 0.14473 0.23394 0.39171 0.0
C345 C 0.16617 0.23954 0.42931 0.0
C346 C 0.17104 0.22043 0.42948 0.0
C347 C 0.14073 0.28233 0.35543 0.0
C348 C 0.11082 0.27258 0.25536 0.0
C349 C 0.11677 0.29979 0.29554 0.0
C350 C 0.12346 0.30285 0.26876 0.0
C351 C 0.12042 0.28914 0.24855 0.0
N352 N 0.1072 0.28358 0.30207 0.0
C353 C 0.10433 0.27001 0.28237 0.0
Co354 Co 0.77402 0.1282 0.36083 0.0
Co355 Co 0.73384 0.10171 0.34621 0.0
O356 O 0.75951 0.11097 0.33685 0.0
C357 C 0.78092 0.14356 0.30297 0.0
O358 O 0.76985 0.13108 0.29111 0.0
C359 C 0.75553 0.06696 0.32794 0.0
O360 O 0.77102 0.07405 0.33868 0.0
O361 O 0.74217 0.09351 0.38406 0.0
O362 O 0.76498 0.11445 0.39424 0.0
H363 H 0.6762 0.09498 0.40625 0.0
H364 H 0.79326 0.10762 0.31504 0.0
O365 O 0.78378 0.14334 0.32891 0.0
H366 H 0.82813 0.08994 0.39926 0.0
H367 H 0.83019 0.16756 0.38947 0.0
H368 H 0.76536 0.1477 0.41355 0.0
H369 H 0.80119 0.11199 0.40169 0.0
H370 H 0.8126 0.14562 0.3593 0.0
O371 O 0.73987 0.0758 0.33047 0.0
H372 H 0.70812 0.10639 0.39415 0.0
H373 H 0.70548 0.07737 0.31733 0.0
H374 H 0.78253 0.1695 0.44447 0.0
H375 H 0.82036 0.08589 0.31149 0.0
H376 H 0.81519 0.17958 0.43248 0.0
H377 H 0.83797 0.07679 0.35385 0.0
O378 O 0.75221 0.14588 0.36254 0.0
H379 H 0.738 0.10644 0.24268 0.0
H380 H 0.70129 0.1245 0.32528 0.0
H381 H 0.69067 0.13512 0.27936 0.0
H382 H 0.70902 0.12603 0.23761 0.0
H383 H 0.74829 0.09637 0.28904 0.0
H384 H 0.6736 0.06553 0.3287 0.0
H385 H 0.65872 0.07438 0.3734 0.0
O386 O 0.72651 0.12725 0.3612 0.0
C387 C 0.75367 0.10122 0.40106 0.0
C388 C 0.68252 0.09104 0.38669 0.0
C389 C 0.68108 0.07449 0.34318 0.0
N390 N 0.70866 0.09259 0.35505 0.0
C391 C 0.70058 0.09748 0.37971 0.0
C392 C 0.69916 0.08119 0.33691 0.0
C393 C 0.67273 0.07947 0.36826 0.0
C394 C 0.80096 0.104 0.33351 0.0
N395 N 0.79556 0.11112 0.35857 0.0
C396 C 0.81625 0.09156 0.3314 0.0
C397 C 0.82609 0.08642 0.35517 0.0
C398 C 0.82055 0.09376 0.38065 0.0
C399 C 0.80517 0.10614 0.38195 0.0
C400 C 0.81598 0.16324 0.39495 0.0
C401 C 0.77962 0.1519 0.4083 0.0
C402 C 0.80593 0.15085 0.37791 0.0
N403 N 0.78802 0.14524 0.38478 0.0
C404 C 0.78925 0.1643 0.42584 0.0
C405 C 0.80756 0.16997 0.41908 0.0
C406 C 0.73439 0.1434 0.36398 0.0
C407 C 0.72985 0.11046 0.2607 0.0
C408 C 0.70946 0.1206 0.30727 0.0
C409 C 0.70332 0.1266 0.28129 0.0
C410 C 0.71361 0.12147 0.25788 0.0
N411 N 0.72541 0.10978 0.30989 0.0
C412 C 0.73556 0.10471 0.28702 0.0
Co413 Co 0.8851 0.77414 0.35942 0.0
Co414 Co 0.91463 0.73646 0.34154 0.0
O415 O 0.90372 0.76188 0.33469 0.0
C416 C 0.86999 0.78196 0.30168 0.0
O417 O 0.88348 0.77224 0.28963 0.0
C418 C 0.94793 0.76071 0.32279 0.0
O419 O 0.93821 0.77626 0.32683 0.0
O420 O 0.92106 0.7432 0.38081 0.0
O421 O 0.89959 0.76533 0.39226 0.0
H422 H 0.92321 0.6763 0.39531 0.0
H423 H 0.90432 0.79661 0.31536 0.0
O424 O 0.86936 0.78365 0.32784 0.0
H425 H 0.91786 0.83021 0.40234 0.0
H426 H 0.84073 0.82571 0.39098 0.0
H427 H 0.8664 0.76238 0.41143 0.0
H428 H 0.89839 0.80132 0.40232 0.0
H429 H 0.86426 0.81103 0.36004 0.0
O430 O 0.94076 0.74467 0.32889 0.0
H431 H 0.91008 0.70797 0.38593 0.0
H432 H 0.94182 0.71131 0.31151 0.0
H433 H 0.84304 0.77666 0.4431 0.0
H434 H 0.92339 0.82568 0.31425 0.0
H435 H 0.83004 0.80854 0.43294 0.0
H436 H 0.93044 0.84267 0.358 0.0
O437 O 0.86916 0.75091 0.35983 0.0
H438 H 0.91192 0.74627 0.23853 0.0
H439 H 0.89576 0.70331 0.31511 0.0
H440 H 0.88736 0.69441 0.26745 0.0
H441 H 0.89555 0.71592 0.22869 0.0
H442 H 0.91968 0.75478 0.2865 0.0
H443 H 0.95541 0.67976 0.32022 0.0
H444 H 0.94605 0.66199 0.36233 0.0
O445 O 0.88927 0.72676 0.35348 0.0
C446 C 0.91312 0.75417 0.39835 0.0
C447 C 0.92738 0.68389 0.37688 0.0
C448 C 0.94547 0.68585 0.33476 0.0
N449 N 0.92514 0.71149 0.3482 0.0
C450 C 0.91997 0.70182 0.37144 0.0
C451 C 0.93778 0.70375 0.33 0.0
C452 C 0.94021 0.67588 0.35837 0.0
C453 C 0.90704 0.80397 0.33444 0.0
N454 N 0.90027 0.79711 0.35891 0.0
C455 C 0.91799 0.82041 0.33371 0.0
C456 C 0.92198 0.82991 0.35826 0.0
C457 C 0.91497 0.82291 0.38313 0.0
C458 C 0.90409 0.80642 0.38304 0.0
C459 C 0.84632 0.81182 0.39566 0.0
C460 C 0.86092 0.77633 0.40698 0.0
C461 C 0.85961 0.8034 0.37817 0.0
N462 N 0.86683 0.78591 0.38404 0.0
C463 C 0.84764 0.78431 0.42493 0.0
C464 C 0.84033 0.80219 0.4192 0.0
C465 C 0.87276 0.73328 0.35836 0.0
C466 C 0.90835 0.73673 0.25522 0.0
C467 C 0.89922 0.71284 0.29845 0.0
C468 C 0.89451 0.70768 0.27145 0.0
C469 C 0.89913 0.71973 0.24972 0.0
N470 N 0.90833 0.72953 0.30372 0.0
C471 C 0.91284 0.74143 0.28249 0.0
Co472 Co 0.78618 0.89345 0.87712 0.0
Co473 Co 0.76398 0.90918 0.81756 0.0
O474 O 0.77529 0.91365 0.85417 0.0
C475 C 0.75852 0.91004 0.91763 0.0
O476 O 0.74492 0.90792 0.8994 0.0
C477 C 0.78831 0.94419 0.81035 0.0
O478 O 0.7985 0.93965 0.83198 0.0
O479 O 0.78693 0.89496 0.80501 0.0
O480 O 0.7976 0.88099 0.8437 0.0
H481 H 0.74588 0.86925 0.73579 0.0
H482 H 0.79352 0.93331 0.89277 0.0
O483 O 0.77545 0.90541 0.9115 0.0
H484 H 0.85647 0.90544 0.87612 0.0
H485 H 0.81899 0.86725 0.9612 0.0
H486 H 0.78937 0.85182 0.87171 0.0
H487 H 0.82763 0.88614 0.87113 0.0
H488 H 0.80572 0.89246 0.93184 0.0
O489 O 0.7749 0.93345 0.80231 0.0
H490 H 0.75978 0.87547 0.78165 0.0
H491 H 0.74428 0.93339 0.7759 0.0
H492 H 0.80263 0.82617 0.90031 0.0
H493 H 0.82201 0.95306 0.89859 0.0
H494 H 0.81756 0.83383 0.94542 0.0
H495 H 0.85377 0.93916 0.89007 0.0
O496 O 0.76283 0.87772 0.87311 0.0
H497 H 0.72965 0.96278 0.86403 0.0
H498 H 0.72233 0.9022 0.81465 0.0
H499 H 0.69398 0.91902 0.83129 0.0
H500 H 0.69753 0.94959 0.85611 0.0
H501 H 0.75762 0.94538 0.8473 0.0
H502 H 0.73036 0.92783 0.72989 0.0
H503 H 0.73104 0.89555 0.70958 0.0
O504 O 0.75212 0.88517 0.83089 0.0
C505 C 0.79779 0.8833 0.81751 0.0
C506 C 0.74546 0.88337 0.74444 0.0
C507 C 0.73677 0.91625 0.74111 0.0
N508 N 0.75277 0.90474 0.78151 0.0
C509 C 0.75327 0.88697 0.77043 0.0
C510 C 0.74473 0.91932 0.76715 0.0
C511 C 0.73715 0.89813 0.72974 0.0
C512 C 0.8073 0.92712 0.88925 0.0
N513 N 0.80889 0.90863 0.88133 0.0
C514 C 0.82338 0.93839 0.89247 0.0
C515 C 0.84119 0.9306 0.88764 0.0
C516 C 0.84271 0.91169 0.87975 0.0
C517 C 0.82632 0.90086 0.87672 0.0
C518 C 0.81255 0.86373 0.94156 0.0
C519 C 0.79595 0.85527 0.89123 0.0
C520 C 0.80496 0.87795 0.92488 0.0
N521 N 0.79689 0.87362 0.89999 0.0
C522 C 0.80339 0.84069 0.90737 0.0
C523 C 0.81175 0.84499 0.93269 0.0
C524 C 0.75159 0.87519 0.85282 0.0
C525 C 0.72791 0.94951 0.85314 0.0
C526 C 0.72402 0.91544 0.82551 0.0
C527 C 0.7079 0.92494 0.83483 0.0
C528 C 0.7099 0.94209 0.84874 0.0
N529 N 0.74165 0.92285 0.82979 0.0
C530 C 0.74371 0.93963 0.84351 0.0
Co531 Co 0.12692 0.788 0.88007 0.0
Co532 Co 0.1075 0.76656 0.82267 0.0
O533 O 0.10532 0.77808 0.85937 0.0
C534 C 0.10999 0.76205 0.92253 0.0
O535 O 0.11037 0.74811 0.90456 0.0
C536 C 0.07821 0.7885 0.79155 0.0
O537 O 0.09166 0.79465 0.77512 0.0
O538 O 0.12164 0.78917 0.80855 0.0
O539 O 0.1386 0.79835 0.84547 0.0
H540 H 0.14133 0.74793 0.73545 0.0
H541 H 0.0877 0.79773 0.89629 0.0
O542 O 0.1157 0.77847 0.9156 0.0
H543 H 0.11923 0.85888 0.8796 0.0
H544 H 0.15853 0.81983 0.96102 0.0
H545 H 0.16837 0.78854 0.87101 0.0
H546 H 0.13675 0.82894 0.87442 0.0
H547 H 0.13136 0.80794 0.93416 0.0
O548 O 0.08235 0.77821 0.81237 0.0
H549 H 0.13846 0.76201 0.78192 0.0
H550 H 0.08037 0.74676 0.78506 0.0
H551 H 0.19594 0.80039 0.89706 0.0
H552 H 0.06965 0.82735 0.90208 0.0
H553 H 0.19109 0.81616 0.94242 0.0
H554 H 0.08541 0.85821 0.89364 0.0
O555 O 0.14094 0.76369 0.87507 0.0
H556 H 0.05585 0.73356 0.87533 0.0
H557 H 0.11364 0.72477 0.81964 0.0
H558 H 0.09726 0.69687 0.83858 0.0
H559 H 0.0681 0.70116 0.86659 0.0
H560 H 0.07281 0.76109 0.85625 0.0
H561 H 0.08258 0.7326 0.73857 0.0
H562 H 0.11325 0.73309 0.71346 0.0
O563 O 0.13211 0.75418 0.83267 0.0
C564 C 0.1347 0.7991 0.81972 0.0
C565 C 0.12789 0.74761 0.74618 0.0
C566 C 0.09492 0.73902 0.74793 0.0
N567 N 0.10928 0.75521 0.78619 0.0
C568 C 0.12619 0.75555 0.77251 0.0
C569 C 0.09375 0.74709 0.77422 0.0
C570 C 0.11213 0.7393 0.73385 0.0
C571 C 0.09467 0.81111 0.89264 0.0
N572 N 0.11325 0.8116 0.88485 0.0
C573 C 0.08437 0.82783 0.89592 0.0
C574 C 0.09322 0.84514 0.89117 0.0
C575 C 0.11218 0.84553 0.88326 0.0
C576 C 0.12202 0.82852 0.88017 0.0
C577 C 0.16082 0.81301 0.94126 0.0
C578 C 0.16615 0.7955 0.89065 0.0
C579 C 0.14549 0.8062 0.92599 0.0
N580 N 0.14827 0.79767 0.90095 0.0
C581 C 0.18181 0.80213 0.90535 0.0
C582 C 0.17909 0.81095 0.93081 0.0
C583 C 0.14258 0.7528 0.85411 0.0
C584 C 0.06852 0.7315 0.8631 0.0
C585 C 0.10104 0.72678 0.83193 0.0
C586 C 0.09178 0.71091 0.84253 0.0
C587 C 0.07541 0.71333 0.85822 0.0
N588 N 0.09417 0.74456 0.83674 0.0
C589 C 0.07815 0.74703 0.85216 0.0
Co590 Co 0.23073 0.12016 0.87391 0.0
Co591 Co 0.25402 0.10705 0.81413 0.0
O592 O 0.24276 0.10105 0.85026 0.0
C593 C 0.25833 0.10434 0.91483 0.0
O594 O 0.2721 0.10778 0.89729 0.0
C595 C 0.22989 0.07281 0.80317 0.0
O596 O 0.21736 0.07908 0.82097 0.0
O597 O 0.23028 0.11981 0.80181 0.0
O598 O 0.21949 0.13327 0.84083 0.0
H599 H 0.26988 0.14927 0.73393 0.0
H600 H 0.2245 0.07961 0.88603 0.0
O601 O 0.24121 0.10763 0.90801 0.0
H602 H 0.16094 0.10591 0.86897 0.0
H603 H 0.19545 0.14287 0.95814 0.0
H604 H 0.22633 0.16179 0.87103 0.0
H605 H 0.18916 0.12635 0.86687 0.0
H606 H 0.21012 0.11896 0.92779 0.0
O607 O 0.24484 0.08231 0.79825 0.0
H608 H 0.2561 0.14149 0.77935 0.0
H609 H 0.27563 0.08487 0.77208 0.0
H610 H 0.21167 0.18616 0.90064 0.0
H611 H 0.19663 0.05868 0.88879 0.0
H612 H 0.1961 0.17674 0.94456 0.0
H613 H 0.16457 0.07181 0.88009 0.0
O614 O 0.25369 0.13654 0.87176 0.0
H615 H 0.2918 0.05491 0.85799 0.0
H616 H 0.29498 0.11747 0.81324 0.0
H617 H 0.32434 0.10239 0.82973 0.0
H618 H 0.32287 0.07086 0.85223 0.0
H619 H 0.26276 0.07058 0.84142 0.0
H620 H 0.28949 0.09201 0.72649 0.0
H621 H 0.28672 0.12443 0.70717 0.0
O622 O 0.26401 0.13174 0.82842 0.0
C623 C 0.21926 0.13117 0.81458 0.0
C624 C 0.27122 0.13511 0.74216 0.0
C625 C 0.2822 0.10296 0.73797 0.0
N626 N 0.26514 0.11278 0.77843 0.0
C627 C 0.26349 0.13063 0.76789 0.0
C628 C 0.27428 0.09899 0.76377 0.0
C629 C 0.28065 0.12115 0.72714 0.0
C630 C 0.21058 0.08545 0.88245 0.0
N631 N 0.20847 0.10416 0.87615 0.0
C632 C 0.19486 0.07352 0.88394 0.0
C633 C 0.17688 0.08088 0.87901 0.0
C634 C 0.17484 0.10001 0.87272 0.0
C635 C 0.19088 0.1115 0.87137 0.0
C636 C 0.20217 0.14715 0.93903 0.0
C637 C 0.21948 0.15757 0.89002 0.0
C638 C 0.21054 0.13367 0.92179 0.0
N639 N 0.21896 0.13896 0.89755 0.0
C640 C 0.21125 0.17144 0.90674 0.0
C641 C 0.20253 0.16615 0.93139 0.0
C642 C 0.26447 0.14054 0.85143 0.0
C643 C 0.29263 0.06862 0.84813 0.0
C644 C 0.29421 0.10376 0.82306 0.0
C645 C 0.31089 0.09528 0.83231 0.0
C646 C 0.31006 0.07759 0.84493 0.0
N647 N 0.27717 0.09485 0.8262 0.0
C648 C 0.27624 0.07753 0.83862 0.0
Co649 Co 0.89612 0.23481 0.8681 0.0
Co650 Co 0.91037 0.2557 0.8064 0.0
O651 O 0.91545 0.24584 0.8437 0.0
C652 C 0.89853 0.25918 0.91794 0.0
O653 O 0.88054 0.26281 0.91375 0.0
C654 C 0.94406 0.22975 0.79918 0.0
O655 O 0.93861 0.21958 0.82038 0.0
O656 O 0.89563 0.23253 0.79627 0.0
O657 O 0.88453 0.22075 0.83631 0.0
H658 H 0.86905 0.27131 0.7251 0.0
H659 H 0.93646 0.23149 0.88411 0.0
O660 O 0.90754 0.24871 0.9008 0.0
H661 H 0.9138 0.16588 0.87409 0.0
H662 H 0.87271 0.20352 0.95524 0.0
H663 H 0.85473 0.22886 0.86403 0.0
H664 H 0.89219 0.19274 0.86638 0.0
H665 H 0.89681 0.21727 0.92433 0.0
O666 O 0.93422 0.24385 0.79124 0.0
H667 H 0.87599 0.25914 0.77176 0.0
H668 H 0.93405 0.27323 0.76205 0.0
H669 H 0.83017 0.21517 0.89425 0.0
H670 H 0.95848 0.20504 0.89253 0.0
H671 H 0.83912 0.20239 0.94023 0.0
H672 H 0.9472 0.17195 0.88739 0.0
O673 O 0.87868 0.25655 0.86116 0.0
H674 H 0.9657 0.29093 0.84653 0.0
H675 H 0.90382 0.29725 0.80047 0.0
H676 H 0.92155 0.32593 0.81345 0.0
H677 H 0.95278 0.32288 0.83656 0.0
H678 H 0.94738 0.26263 0.83348 0.0
H679 H 0.92776 0.28539 0.71521 0.0
H680 H 0.89504 0.28454 0.69648 0.0
O681 O 0.88682 0.26837 0.81985 0.0
C682 C 0.88558 0.22075 0.80994 0.0
C683 C 0.88335 0.27179 0.73305 0.0
C684 C 0.91631 0.27967 0.72749 0.0
N685 N 0.90537 0.26554 0.76968 0.0
C686 C 0.88736 0.26496 0.75948 0.0
C687 C 0.91979 0.2727 0.754 0.0
C688 C 0.89795 0.2792 0.717 0.0
C689 C 0.93139 0.21713 0.88213 0.0
N690 N 0.91305 0.21367 0.87471 0.0
C691 C 0.94395 0.20221 0.88679 0.0
C692 C 0.93762 0.18365 0.88385 0.0
C693 C 0.91889 0.18023 0.87634 0.0
C694 C 0.90675 0.1955 0.87182 0.0
C695 C 0.86864 0.20902 0.93524 0.0
C696 C 0.85873 0.22326 0.88397 0.0
C697 C 0.88222 0.21682 0.91765 0.0
N698 N 0.87718 0.2238 0.89235 0.0
C699 C 0.84477 0.21556 0.90101 0.0
C700 C 0.8498 0.20839 0.92681 0.0
C701 C 0.87632 0.26814 0.84128 0.0
C702 C 0.95213 0.29245 0.83641 0.0
C703 C 0.91732 0.29579 0.81068 0.0
C704 C 0.92734 0.31209 0.8179 0.0
C705 C 0.94486 0.31037 0.83084 0.0
N706 N 0.92458 0.27826 0.8161 0.0
C707 C 0.94172 0.27646 0.82889 0.0
Co708 Co 0.78382 0.11942 0.64953 0.0
Co709 Co 0.76192 0.10765 0.71073 0.0
O710 O 0.77221 0.10082 0.67431 0.0
C711 C 0.75636 0.10437 0.60694 0.0
O712 O 0.74196 0.11087 0.62124 0.0
C713 C 0.78591 0.07344 0.72176 0.0
O714 O 0.79844 0.07982 0.70406 0.0
O715 O 0.78621 0.12003 0.72145 0.0
O716 O 0.79541 0.13341 0.68161 0.0
H717 H 0.74889 0.1514 0.7904 0.0
H718 H 0.79028 0.07861 0.6394 0.0
O719 O 0.77318 0.10582 0.61631 0.0
H720 H 0.85381 0.10588 0.65305 0.0
H721 H 0.81775 0.14038 0.56324 0.0
H722 H 0.78788 0.16113 0.65028 0.0
H723 H 0.82543 0.12613 0.65492 0.0
H724 H 0.80375 0.11709 0.59515 0.0
O725 O 0.77094 0.08291 0.72675 0.0
H726 H 0.76141 0.14264 0.74456 0.0
H727 H 0.74088 0.08659 0.75449 0.0
H728 H 0.80189 0.18489 0.61908 0.0
H729 H 0.8183 0.05786 0.6369 0.0
H730 H 0.81695 0.17455 0.5752 0.0
H731 H 0.85035 0.07147 0.6439 0.0
O732 O 0.76079 0.13569 0.6518 0.0
H733 H 0.72196 0.05571 0.67047 0.0
H734 H 0.72123 0.119 0.71343 0.0
H735 H 0.69117 0.10432 0.69902 0.0
H736 H 0.6914 0.07242 0.67744 0.0
H737 H 0.75173 0.07099 0.68497 0.0
H738 H 0.72828 0.09471 0.80054 0.0
H739 H 0.73219 0.12734 0.81874 0.0
O740 O 0.75211 0.13236 0.69617 0.0
C741 C 0.79663 0.13146 0.70781 0.0
C742 C 0.74705 0.13715 0.78267 0.0
C743 C 0.73551 0.10532 0.78838 0.0
N744 N 0.75179 0.11416 0.74678 0.0
C745 C 0.75407 0.13211 0.7567 0.0
C746 C 0.74272 0.1008 0.76232 0.0
C747 C 0.7377 0.12364 0.79857 0.0
C748 C 0.80419 0.08466 0.64222 0.0
N749 N 0.8062 0.10355 0.64743 0.0
C750 C 0.82 0.07283 0.64089 0.0
C751 C 0.83797 0.08047 0.64486 0.0
C752 C 0.83992 0.09977 0.65005 0.0
C753 C 0.82379 0.11116 0.65126 0.0
C754 C 0.81125 0.14506 0.58233 0.0
C755 C 0.79451 0.15652 0.6313 0.0
C756 C 0.80326 0.13194 0.60045 0.0
N757 N 0.79511 0.13774 0.62466 0.0
C758 C 0.80237 0.17004 0.61368 0.0
C759 C 0.81081 0.16423 0.58905 0.0
C760 C 0.75082 0.14046 0.67267 0.0
C761 C 0.72167 0.06959 0.67993 0.0
C762 C 0.72147 0.10513 0.70398 0.0
C763 C 0.70439 0.09688 0.69592 0.0
C764 C 0.70453 0.07898 0.68382 0.0
N765 N 0.73822 0.0958 0.7002 0.0
C766 C 0.73848 0.07828 0.68826 0.0
Co767 Co 0.89545 0.78486 0.64765 0.0
Co768 Co 0.91051 0.76248 0.70742 0.0
O769 O 0.91529 0.77365 0.67088 0.0
C770 C 0.9084 0.75704 0.60395 0.0
O771 O 0.90157 0.74284 0.61829 0.0
C772 C 0.94452 0.78777 0.71578 0.0
O773 O 0.93869 0.79897 0.69595 0.0
O774 O 0.89629 0.78549 0.7197 0.0
O775 O 0.88296 0.79661 0.68079 0.0
H776 H 0.87005 0.74459 0.78868 0.0
H777 H 0.93567 0.79135 0.633 0.0
O778 O 0.90768 0.77387 0.61349 0.0
H779 H 0.9088 0.85486 0.64846 0.0
H780 H 0.87058 0.81772 0.56278 0.0
H781 H 0.85383 0.78898 0.65233 0.0
H782 H 0.88888 0.82643 0.65314 0.0
H783 H 0.89529 0.8041 0.59272 0.0
O784 O 0.93477 0.77337 0.7227 0.0
H785 H 0.87655 0.75837 0.74285 0.0
H786 H 0.93447 0.74293 0.74952 0.0
H787 H 0.82869 0.80261 0.62313 0.0
H788 H 0.95604 0.81942 0.62755 0.0
H789 H 0.83701 0.8171 0.57799 0.0
H790 H 0.94265 0.85146 0.63546 0.0
O791 O 0.87914 0.76194 0.65179 0.0
H792 H 0.96456 0.72792 0.6625 0.0
H793 H 0.9033 0.72088 0.71016 0.0
H794 H 0.92025 0.69246 0.69407 0.0
H795 H 0.95116 0.69587 0.67013 0.0
H796 H 0.94701 0.75598 0.67867 0.0
H797 H 0.92861 0.72913 0.79551 0.0
H798 H 0.89619 0.72984 0.81535 0.0
O799 O 0.88653 0.75071 0.69377 0.0
C800 C 0.88497 0.79661 0.70704 0.0
C801 C 0.88422 0.74416 0.78024 0.0
C802 C 0.9171 0.7355 0.78409 0.0
N803 N 0.90584 0.75139 0.74345 0.0
C804 C 0.88799 0.7519 0.75427 0.0
C805 C 0.92034 0.74339 0.75806 0.0
C806 C 0.89891 0.7359 0.7952 0.0
C807 C 0.92969 0.80525 0.63623 0.0
N808 N 0.91112 0.80723 0.64358 0.0
C809 C 0.94132 0.82109 0.63322 0.0
C810 C 0.9338 0.83906 0.63771 0.0
C811 C 0.91483 0.84098 0.64507 0.0
C812 C 0.90364 0.82481 0.6479 0.0
C813 C 0.86678 0.81148 0.58243 0.0
C814 C 0.85757 0.79538 0.6328 0.0
C815 C 0.88071 0.8037 0.59945 0.0
N816 N 0.87602 0.79586 0.62435 0.0
C817 C 0.84327 0.80302 0.61632 0.0
C818 C 0.84795 0.81113 0.59098 0.0
C819 C 0.8765 0.75054 0.67186 0.0
C820 C 0.95113 0.72624 0.67298 0.0
C821 C 0.91668 0.7225 0.69964 0.0
C822 C 0.92625 0.70634 0.69065 0.0
C823 C 0.94359 0.70827 0.67723 0.0
N824 N 0.92419 0.74009 0.69549 0.0
C825 C 0.94116 0.74208 0.68227 0.0
Co826 Co 0.23134 0.89443 0.64485 0.0
Co827 Co 0.25441 0.9099 0.70398 0.0
O828 O 0.24258 0.91447 0.6678 0.0
C829 C 0.25911 0.91061 0.60443 0.0
O830 O 0.27266 0.9082 0.62267 0.0
C831 C 0.22919 0.94403 0.71296 0.0
O832 O 0.21837 0.93895 0.69225 0.0
O833 O 0.23186 0.89526 0.7169 0.0
O834 O 0.21991 0.88212 0.67832 0.0
H835 H 0.2743 0.86965 0.78439 0.0
H836 H 0.22452 0.93449 0.62986 0.0
O837 O 0.24209 0.90631 0.61049 0.0
H838 H 0.16123 0.90743 0.64649 0.0
H839 H 0.19787 0.86887 0.56085 0.0
H840 H 0.22752 0.85285 0.65005 0.0
H841 H 0.18982 0.88768 0.65095 0.0
H842 H 0.21162 0.89383 0.59026 0.0
O843 O 0.24332 0.93388 0.71993 0.0
H844 H 0.25968 0.87598 0.73906 0.0
H845 H 0.27424 0.93412 0.74557 0.0
H846 H 0.21378 0.82746 0.62137 0.0
H847 H 0.19629 0.95469 0.6246 0.0
H848 H 0.19883 0.83541 0.57641 0.0
H849 H 0.16436 0.9412 0.63311 0.0
O850 O 0.25449 0.87831 0.64847 0.0
H851 H 0.28724 0.96446 0.65788 0.0
H852 H 0.29619 0.90347 0.70539 0.0
H853 H 0.32404 0.92088 0.68829 0.0
H854 H 0.31967 0.95165 0.6644 0.0
H855 H 0.25978 0.94648 0.67505 0.0
H856 H 0.28887 0.92843 0.79106 0.0
H857 H 0.28903 0.89599 0.81072 0.0
O858 O 0.26642 0.88619 0.68985 0.0
C859 C 0.22044 0.88405 0.70457 0.0
C860 C 0.27436 0.88384 0.77602 0.0
C861 C 0.28251 0.91683 0.77978 0.0
N862 N 0.26617 0.90537 0.73961 0.0
C863 C 0.26614 0.8875 0.75034 0.0
C864 C 0.27415 0.91997 0.75404 0.0
C865 C 0.2826 0.89863 0.79079 0.0
C866 C 0.21066 0.92848 0.63338 0.0
N867 N 0.20883 0.90996 0.64098 0.0
C868 C 0.19473 0.94001 0.63047 0.0
C869 C 0.17683 0.93244 0.63529 0.0
C870 C 0.17507 0.91351 0.64287 0.0
C871 C 0.19132 0.90242 0.64559 0.0
C872 C 0.20431 0.86523 0.58042 0.0
C873 C 0.22093 0.85643 0.63059 0.0
C874 C 0.21217 0.8793 0.59714 0.0
N875 N 0.22025 0.87481 0.62195 0.0
C876 C 0.21322 0.84199 0.61441 0.0
C877 C 0.20485 0.84646 0.58917 0.0
C878 C 0.26633 0.876 0.6681 0.0
C879 C 0.28934 0.9511 0.66834 0.0
C880 C 0.29415 0.9168 0.69493 0.0
C881 C 0.30999 0.92663 0.68535 0.0
C882 C 0.30753 0.94389 0.67197 0.0
N883 N 0.27636 0.92399 0.6914 0.0
C884 C 0.27384 0.94088 0.67821 0.0
Co885 Co 0.12323 0.22934 0.64358 0.0
Co886 Co 0.10791 0.25244 0.70267 0.0
O887 O 0.10324 0.24085 0.66633 0.0
C888 C 0.10753 0.25694 0.60237 0.0
O889 O 0.11022 0.27072 0.62017 0.0
C890 C 0.07364 0.22757 0.71166 0.0
O891 O 0.07941 0.21596 0.69225 0.0
O892 O 0.12176 0.22943 0.7157 0.0
O893 O 0.13543 0.218 0.6772 0.0
H894 H 0.14803 0.27083 0.78407 0.0
H895 H 0.0831 0.22279 0.62875 0.0
O896 O 0.11148 0.23995 0.609 0.0
H897 H 0.10967 0.15938 0.64585 0.0
H898 H 0.14875 0.19515 0.56009 0.0
H899 H 0.1648 0.2253 0.649 0.0
H900 H 0.12968 0.1878 0.64996 0.0
H901 H 0.12381 0.20927 0.58922 0.0
O902 O 0.08345 0.24207 0.71798 0.0
H903 H 0.14166 0.25652 0.73851 0.0
H904 H 0.08394 0.27295 0.74389 0.0
H905 H 0.19017 0.21119 0.62063 0.0
H906 H 0.06263 0.19473 0.62387 0.0
H907 H 0.1822 0.19599 0.57581 0.0
H908 H 0.07588 0.16274 0.63261 0.0
O909 O 0.13949 0.2524 0.64715 0.0
H910 H 0.05462 0.28698 0.65605 0.0
H911 H 0.11563 0.294 0.70433 0.0
H912 H 0.09918 0.32237 0.68708 0.0
H913 H 0.06841 0.31897 0.6628 0.0
H914 H 0.07166 0.25897 0.6734 0.0
H915 H 0.08966 0.28729 0.7896 0.0
H916 H 0.12192 0.28636 0.80994 0.0
O917 O 0.13212 0.26374 0.68909 0.0
C918 C 0.13315 0.21817 0.7034 0.0
C919 C 0.13392 0.27137 0.7754 0.0
C920 C 0.10116 0.28058 0.77852 0.0
N921 N 0.11248 0.26397 0.73848 0.0
C922 C 0.13024 0.26333 0.74958 0.0
C923 C 0.098 0.27239 0.75266 0.0
C924 C 0.11926 0.28006 0.78991 0.0
C925 C 0.08901 0.20891 0.63236 0.0
N926 N 0.10754 0.20695 0.63986 0.0
C927 C 0.07733 0.19308 0.62967 0.0
C928 C 0.08476 0.17514 0.63462 0.0
C929 C 0.10371 0.17324 0.64211 0.0
C930 C 0.11495 0.1894 0.64462 0.0
C931 C 0.1524 0.20171 0.5796 0.0
C932 C 0.16121 0.2186 0.62961 0.0
C933 C 0.13834 0.20977 0.59616 0.0
N934 N 0.14283 0.21799 0.62089 0.0
C935 C 0.17564 0.21069 0.61359 0.0
C936 C 0.17116 0.20218 0.58844 0.0
C937 C 0.14218 0.26384 0.6672 0.0
C938 C 0.06799 0.28865 0.66667 0.0
C939 C 0.1023 0.29238 0.69369 0.0
C940 C 0.09302 0.30851 0.68403 0.0
C941 C 0.07575 0.30659 0.67042 0.0
N942 N 0.09458 0.27483 0.69 0.0
C943 C 0.07768 0.27284 0.67662 0.0
Co944 Co 0.74373 0.62813 0.65378 0.0
Co945 Co 0.77991 0.60071 0.67994 0.0
O946 O 0.75385 0.61055 0.68162 0.0
C947 C 0.73451 0.64828 0.70592 0.0
O948 O 0.75186 0.64496 0.71433 0.0
C949 C 0.75582 0.56763 0.70008 0.0
O950 O 0.7402 0.57642 0.69313 0.0
O951 O 0.77565 0.59152 0.64123 0.0
O952 O 0.75813 0.61521 0.62373 0.0
H953 H 0.84344 0.59125 0.63537 0.0
H954 H 0.7162 0.60899 0.69055 0.0
O955 O 0.72886 0.64187 0.68277 0.0
H956 H 0.69956 0.58841 0.59623 0.0
H957 H 0.69296 0.66734 0.6085 0.0
H958 H 0.7603 0.64904 0.6065 0.0
H959 H 0.72597 0.61054 0.60396 0.0
H960 H 0.70571 0.64491 0.64278 0.0
O961 O 0.7719 0.57516 0.69511 0.0
H962 H 0.8108 0.60341 0.63873 0.0
H963 H 0.80409 0.57696 0.71692 0.0
H964 H 0.7481 0.67139 0.57169 0.0
H965 H 0.68943 0.58708 0.6837 0.0
H966 H 0.7142 0.68068 0.57256 0.0
H967 H 0.68103 0.57657 0.63627 0.0
O968 O 0.76524 0.64573 0.65985 0.0
H969 H 0.76225 0.61123 0.77957 0.0
H970 H 0.81073 0.62222 0.70812 0.0
H971 H 0.81575 0.63461 0.75514 0.0
H972 H 0.79143 0.62907 0.79132 0.0
H973 H 0.75769 0.59934 0.73222 0.0
H974 H 0.83658 0.56436 0.71425 0.0
H975 H 0.85652 0.57156 0.67331 0.0
O976 O 0.78952 0.62573 0.6657 0.0
C977 C 0.76826 0.60044 0.62098 0.0
C978 C 0.8349 0.58805 0.65334 0.0
C979 C 0.83104 0.57293 0.69759 0.0
N980 N 0.80557 0.59099 0.67804 0.0
C981 C 0.81642 0.59493 0.65539 0.0
C982 C 0.81263 0.58006 0.69894 0.0
C983 C 0.84223 0.57699 0.67463 0.0
C984 C 0.71251 0.60461 0.66983 0.0
N985 N 0.7227 0.61098 0.64772 0.0
C986 C 0.69739 0.59215 0.66609 0.0
C987 C 0.6927 0.58623 0.63947 0.0
C988 C 0.70311 0.59285 0.61701 0.0
C989 C 0.71813 0.6053 0.62154 0.0
C990 C 0.70775 0.66338 0.60789 0.0
C991 C 0.7455 0.65294 0.60693 0.0
C992 C 0.71506 0.65072 0.62728 0.0
N993 N 0.73371 0.64558 0.62655 0.0
C994 C 0.73869 0.66564 0.58721 0.0
C995 C 0.71968 0.67086 0.58772 0.0
C996 C 0.78289 0.64233 0.66171 0.0
C997 C 0.773 0.61363 0.76404 0.0
C998 C 0.80005 0.61977 0.72368 0.0
C999 C 0.803 0.6268 0.75031 0.0
C1000 C 0.78936 0.62368 0.7706 0.0
N1001 N 0.78403 0.60983 0.71739 0.0
C1002 C 0.77056 0.60681 0.73717 0.0
Co1003 Co 0.38994 0.74411 0.65164 0.0
Co1004 Co 0.41732 0.78117 0.67618 0.0
O1005 O 0.4075 0.75507 0.67906 0.0
C1006 C 0.37139 0.73514 0.70561 0.0
O1007 O 0.37789 0.75095 0.71618 0.0
C1008 C 0.45087 0.7575 0.69561 0.0
O1009 O 0.44225 0.74181 0.6885 0.0
O1010 O 0.42612 0.77642 0.63738 0.0
O1011 O 0.40339 0.75722 0.62094 0.0
H1012 H 0.42591 0.84397 0.62932 0.0
H1013 H 0.40853 0.71791 0.69086 0.0
O1014 O 0.37545 0.73036 0.68097 0.0
H1015 H 0.42956 0.69731 0.59842 0.0
H1016 H 0.35052 0.69243 0.60888 0.0
H1017 H 0.36978 0.75934 0.60279 0.0
H1018 H 0.4077 0.72425 0.6036 0.0
H1019 H 0.37272 0.70598 0.64285 0.0
O1020 O 0.44309 0.77349 0.69095 0.0
H1021 H 0.41394 0.81136 0.63407 0.0
H1022 H 0.44146 0.80604 0.71172 0.0
H1023 H 0.34765 0.74631 0.56826 0.0
H1024 H 0.43016 0.69066 0.6866 0.0
H1025 H 0.33788 0.71262 0.57118 0.0
H1026 H 0.44089 0.68026 0.64012 0.0
O1027 O 0.37243 0.76591 0.65597 0.0
H1028 H 0.40961 0.76601 0.77718 0.0
H1029 H 0.39556 0.81211 0.70367 0.0
H1030 H 0.38426 0.81818 0.75102 0.0
H1031 H 0.39137 0.79509 0.78824 0.0
H1032 H 0.42028 0.76032 0.72946 0.0
H1033 H 0.45388 0.8385 0.70765 0.0
H1034 H 0.44605 0.85773 0.66628 0.0
O1035 O 0.39211 0.79041 0.66225 0.0
C1036 C 0.41771 0.76788 0.61763 0.0
C1037 C 0.42939 0.83574 0.64747 0.0
C1038 C 0.44511 0.83266 0.69142 0.0
N1039 N 0.42692 0.80682 0.67318 0.0
C1040 C 0.42262 0.81728 0.65031 0.0
C1041 C 0.43809 0.81426 0.69355 0.0
C1042 C 0.4407 0.84345 0.66821 0.0
C1043 C 0.41299 0.71334 0.67056 0.0
N1044 N 0.4069 0.7227 0.64754 0.0
C1045 C 0.4253 0.69796 0.66828 0.0
C1046 C 0.43135 0.69215 0.64219 0.0
C1047 C 0.42502 0.70173 0.61879 0.0
C1048 C 0.41271 0.71705 0.62187 0.0
C1049 C 0.3547 0.70711 0.60735 0.0
C1050 C 0.36568 0.74463 0.6041 0.0
C1051 C 0.36725 0.71488 0.62655 0.0
N1052 N 0.37266 0.7334 0.62468 0.0
C1053 C 0.35311 0.73735 0.58454 0.0
C1054 C 0.34762 0.71845 0.5862 0.0
C1055 C 0.37564 0.7836 0.65779 0.0
C1056 C 0.4065 0.77623 0.76118 0.0
C1057 C 0.39859 0.80191 0.71965 0.0
C1058 C 0.39222 0.80547 0.74648 0.0
C1059 C 0.39623 0.79252 0.76736 0.0
N1060 N 0.40873 0.78593 0.71373 0.0
C1061 C 0.41265 0.77315 0.7341 0.0
Co1062 Co 0.27533 0.38674 0.65863 0.0
Co1063 Co 0.2369 0.41444 0.67913 0.0
O1064 O 0.26285 0.40445 0.68451 0.0
C1065 C 0.28412 0.37083 0.71545 0.0
O1066 O 0.27349 0.38343 0.72789 0.0
C1067 C 0.26042 0.44864 0.69596 0.0
O1068 O 0.27606 0.44008 0.68843 0.0
O1069 O 0.24256 0.42173 0.63987 0.0
O1070 O 0.26537 0.40142 0.62673 0.0
H1071 H 0.17519 0.42137 0.62858 0.0
H1072 H 0.29808 0.40562 0.70264 0.0
O1073 O 0.28601 0.37087 0.6893 0.0
H1074 H 0.32873 0.42312 0.61486 0.0
H1075 H 0.32816 0.34527 0.62335 0.0
H1076 H 0.26336 0.36844 0.60639 0.0
H1077 H 0.30064 0.40248 0.61513 0.0
H1078 H 0.31304 0.36757 0.65578 0.0
O1079 O 0.24444 0.44059 0.6924 0.0
H1080 H 0.20756 0.40938 0.63601 0.0
H1081 H 0.21143 0.44015 0.71125 0.0
H1082 H 0.27803 0.34629 0.57327 0.0
H1083 H 0.32637 0.4259 0.70341 0.0
H1084 H 0.31066 0.33456 0.58167 0.0
H1085 H 0.34187 0.4349 0.65927 0.0
O1086 O 0.2527 0.36988 0.65839 0.0
H1087 H 0.24879 0.41132 0.78158 0.0
H1088 H 0.20537 0.39339 0.70629 0.0
H1089 H 0.1979 0.38403 0.75408 0.0
H1090 H 0.21964 0.39308 0.79218 0.0
H1091 H 0.25591 0.42004 0.73344 0.0
H1092 H 0.17917 0.45258 0.70452 0.0
H1093 H 0.16079 0.44315 0.66299 0.0
O1094 O 0.22796 0.38894 0.6666 0.0
C1095 C 0.25358 0.41459 0.62168 0.0
C1096 C 0.18305 0.42558 0.64677 0.0
C1097 C 0.1853 0.44312 0.68936 0.0
N1098 N 0.21141 0.42406 0.674 0.0
C1099 C 0.20139 0.41883 0.65109 0.0
C1100 C 0.2036 0.43608 0.693 0.0
C1101 C 0.17499 0.43781 0.66607 0.0
C1102 C 0.30484 0.40919 0.68338 0.0
N1103 N 0.29765 0.40281 0.65888 0.0
C1104 C 0.32082 0.42081 0.68393 0.0
C1105 C 0.32948 0.4259 0.65916 0.0
C1106 C 0.3221 0.41933 0.63424 0.0
C1107 C 0.3061 0.40774 0.63451 0.0
C1108 C 0.31395 0.35031 0.61944 0.0
C1109 C 0.27762 0.36349 0.61009 0.0
C1110 C 0.30529 0.3629 0.63777 0.0
N1111 N 0.28738 0.36942 0.63288 0.0
C1112 C 0.28583 0.35091 0.59131 0.0
C1113 C 0.30412 0.34431 0.59605 0.0
C1114 C 0.23497 0.37281 0.66067 0.0
C1115 C 0.23917 0.40734 0.76517 0.0
C1116 C 0.21502 0.39723 0.72266 0.0
C1117 C 0.21065 0.39197 0.74973 0.0
C1118 C 0.22284 0.39707 0.7711 0.0
N1119 N 0.23106 0.40731 0.71698 0.0
C1120 C 0.24307 0.41235 0.73784 0.0
Co1121 Co 0.62711 0.27158 0.65631 0.0
Co1122 Co 0.60026 0.23441 0.67898 0.0
O1123 O 0.60907 0.26072 0.68281 0.0
C1124 C 0.645 0.28251 0.70957 0.0
O1125 O 0.64267 0.26505 0.71816 0.0
C1126 C 0.56634 0.25677 0.70032 0.0
O1127 O 0.57456 0.27276 0.69369 0.0
O1128 O 0.59117 0.23996 0.64062 0.0
O1129 O 0.61639 0.25614 0.62533 0.0
H1130 H 0.59315 0.17242 0.6292 0.0
H1131 H 0.60488 0.29836 0.69046 0.0
O1132 O 0.63872 0.28753 0.68604 0.0
H1133 H 0.58779 0.31297 0.59402 0.0
H1134 H 0.66545 0.32388 0.61323 0.0
H1135 H 0.65105 0.25564 0.61162 0.0
H1136 H 0.61093 0.2879 0.60445 0.0
H1137 H 0.64222 0.31033 0.6457 0.0
O1138 O 0.57437 0.24103 0.6947 0.0
H1139 H 0.60419 0.20524 0.63532 0.0
H1140 H 0.57721 0.2081 0.71369 0.0
H1141 H 0.67424 0.26862 0.57862 0.0
H1142 H 0.58188 0.3238 0.68092 0.0
H1143 H 0.68158 0.30298 0.5793 0.0
H1144 H 0.57313 0.33117 0.6324 0.0
O1145 O 0.64531 0.25108 0.66482 0.0
H1146 H 0.6096 0.24824 0.78011 0.0
H1147 H 0.6231 0.20347 0.70442 0.0
H1148 H 0.63546 0.19699 0.75106 0.0
H1149 H 0.62867 0.21942 0.78935 0.0
H1150 H 0.59773 0.2543 0.73312 0.0
H1151 H 0.56573 0.17538 0.70828 0.0
H1152 H 0.57377 0.15727 0.66584 0.0
O1153 O 0.62578 0.22613 0.66408 0.0
C1154 C 0.60124 0.24681 0.62113 0.0
C1155 C 0.58959 0.18015 0.64781 0.0
C1156 C 0.57418 0.18182 0.69217 0.0
N1157 N 0.59143 0.20856 0.67487 0.0
C1158 C 0.59583 0.19873 0.65141 0.0
C1159 C 0.58067 0.20037 0.69507 0.0
C1160 C 0.5787 0.17166 0.66836 0.0
C1161 C 0.60124 0.30159 0.66929 0.0
N1162 N 0.60915 0.29158 0.64809 0.0
C1163 C 0.58816 0.31596 0.66402 0.0
C1164 C 0.58324 0.32008 0.63679 0.0
C1165 C 0.59144 0.30986 0.61525 0.0
C1166 C 0.60446 0.29559 0.62131 0.0
C1167 C 0.66235 0.30889 0.61271 0.0
C1168 C 0.65409 0.27062 0.61197 0.0
C1169 C 0.64925 0.30113 0.6311 0.0
N1170 N 0.64521 0.28222 0.63048 0.0
C1171 C 0.66727 0.27788 0.59327 0.0
C1172 C 0.6714 0.29716 0.59367 0.0
C1173 C 0.6424 0.23332 0.66404 0.0
C1174 C 0.61254 0.23828 0.76364 0.0
C1175 C 0.62005 0.21331 0.72095 0.0
C1176 C 0.62709 0.20955 0.74734 0.0
C1177 C 0.62327 0.22214 0.7688 0.0
N1178 N 0.60941 0.22912 0.71606 0.0
C1179 C 0.60573 0.24158 0.73699 0.0
Co1180 Co 0.7427 0.38887 0.86767 0.0
Co1181 Co 0.77821 0.41719 0.84236 0.0
O1182 O 0.75215 0.40742 0.8407 0.0
C1183 C 0.73148 0.3707 0.81481 0.0
O1184 O 0.74864 0.37391 0.80551 0.0
C1185 C 0.7541 0.45042 0.82253 0.0
O1186 O 0.73841 0.4411 0.82737 0.0
O1187 O 0.77412 0.42544 0.88161 0.0
O1188 O 0.75833 0.40022 0.89781 0.0
H1189 H 0.84203 0.42555 0.88641 0.0
H1190 H 0.71437 0.40999 0.83481 0.0
O1191 O 0.72664 0.37658 0.83866 0.0
H1192 H 0.70113 0.42663 0.93191 0.0
H1193 H 0.69293 0.34848 0.91309 0.0
H1194 H 0.76055 0.36569 0.91158 0.0
H1195 H 0.72684 0.40445 0.92027 0.0
H1196 H 0.70484 0.37219 0.88003 0.0
O1197 O 0.7701 0.4431 0.82862 0.0
H1198 H 0.80939 0.41345 0.88289 0.0
H1199 H 0.80212 0.44192 0.80635 0.0
H1200 H 0.7492 0.34202 0.94513 0.0
H1201 H 0.68831 0.43204 0.84555 0.0
H1202 H 0.71517 0.33328 0.94603 0.0
H1203 H 0.6816 0.44055 0.89441 0.0
O1204 O 0.76376 0.37143 0.85838 0.0
H1205 H 0.75994 0.40831 0.74254 0.0
H1206 H 0.80911 0.39676 0.8127 0.0
H1207 H 0.81403 0.38544 0.76511 0.0
H1208 H 0.78937 0.39127 0.72956 0.0
H1209 H 0.75548 0.4191 0.79042 0.0
H1210 H 0.8346 0.45449 0.80922 0.0
H1211 H 0.85483 0.44624 0.8494 0.0
O1212 O 0.78796 0.3918 0.85513 0.0
C1213 C 0.76785 0.4153 0.90144 0.0
C1214 C 0.83336 0.42922 0.86877 0.0
C1215 C 0.82918 0.44548 0.82547 0.0
N1216 N 0.80387 0.42689 0.8444 0.0
C1217 C 0.81488 0.42237 0.86663 0.0
C1218 C 0.81077 0.43838 0.82402 0.0
C1219 C 0.84053 0.44084 0.84801 0.0
C1220 C 0.71144 0.41353 0.85612 0.0
N1221 N 0.72217 0.40601 0.87684 0.0
C1222 C 0.69671 0.42607 0.86208 0.0
C1223 C 0.69297 0.43085 0.88949 0.0
C1224 C 0.70393 0.42306 0.91054 0.0
C1225 C 0.71855 0.41058 0.90379 0.0
C1226 C 0.70778 0.35219 0.91293 0.0
C1227 C 0.7457 0.36203 0.91193 0.0
C1228 C 0.71462 0.36558 0.89421 0.0
N1229 N 0.73336 0.3704 0.89397 0.0
C1230 C 0.73937 0.34858 0.93093 0.0
C1231 C 0.72027 0.34367 0.93141 0.0
C1232 C 0.78141 0.37498 0.85694 0.0
C1233 C 0.77086 0.40581 0.75779 0.0
C1234 C 0.7983 0.39937 0.79743 0.0
C1235 C 0.80118 0.39293 0.77046 0.0
C1236 C 0.78735 0.39621 0.75053 0.0
N1237 N 0.78215 0.40893 0.8044 0.0
C1238 C 0.76847 0.41205 0.78497 0.0
Co1239 Co 0.62754 0.74356 0.86642 0.0
Co1240 Co 0.60072 0.78039 0.84062 0.0
O1241 O 0.61026 0.75423 0.8386 0.0
C1242 C 0.64806 0.73483 0.81435 0.0
O1243 O 0.64498 0.7523 0.80631 0.0
C1244 C 0.56746 0.75684 0.81966 0.0
O1245 O 0.57622 0.74107 0.82593 0.0
O1246 O 0.59144 0.77611 0.87929 0.0
O1247 O 0.61444 0.7576 0.89663 0.0
H1248 H 0.59207 0.84381 0.88588 0.0
H1249 H 0.60848 0.71678 0.82837 0.0
O1250 O 0.64141 0.729 0.83725 0.0
H1251 H 0.587 0.69884 0.92172 0.0
H1252 H 0.66593 0.69183 0.91084 0.0
H1253 H 0.64815 0.75925 0.91464 0.0
H1254 H 0.6094 0.72518 0.91529 0.0
H1255 H 0.64392 0.70526 0.87653 0.0
O1256 O 0.57505 0.77279 0.82528 0.0
H1257 H 0.60382 0.81104 0.88217 0.0
H1258 H 0.57727 0.80504 0.8039 0.0
H1259 H 0.67009 0.74637 0.9495 0.0
H1260 H 0.5863 0.6901 0.8339 0.0
H1261 H 0.67912 0.71243 0.94773 0.0
H1262 H 0.57534 0.68104 0.88084 0.0
O1263 O 0.64541 0.765 0.86141 0.0
H1264 H 0.61128 0.76317 0.7408 0.0
H1265 H 0.62263 0.8111 0.81294 0.0
H1266 H 0.63517 0.81626 0.76606 0.0
H1267 H 0.62945 0.79222 0.72952 0.0
H1268 H 0.59925 0.75846 0.78801 0.0
H1269 H 0.56508 0.83766 0.80691 0.0
H1270 H 0.57254 0.85731 0.84806 0.0
O1271 O 0.62584 0.78958 0.85506 0.0
C1272 C 0.59998 0.76815 0.89944 0.0
C1273 C 0.58876 0.8354 0.86781 0.0
C1274 C 0.57358 0.83194 0.82351 0.0
N1275 N 0.59132 0.80616 0.8428 0.0
C1276 C 0.5954 0.81685 0.86557 0.0
C1277 C 0.58047 0.81345 0.82197 0.0
C1278 C 0.57779 0.84296 0.8466 0.0
C1279 C 0.6039 0.71281 0.84888 0.0
N1280 N 0.61016 0.72259 0.87144 0.0
C1281 C 0.59128 0.69774 0.85187 0.0
C1282 C 0.58512 0.69268 0.87821 0.0
C1283 C 0.59163 0.70268 0.90115 0.0
C1284 C 0.60424 0.71766 0.89736 0.0
C1285 C 0.66209 0.70664 0.91186 0.0
C1286 C 0.65194 0.74444 0.91381 0.0
C1287 C 0.64966 0.71433 0.89244 0.0
N1288 N 0.64467 0.733 0.89367 0.0
C1289 C 0.6644 0.73724 0.93357 0.0
C1290 C 0.66947 0.7182 0.93255 0.0
C1291 C 0.64228 0.7827 0.85954 0.0
C1292 C 0.61376 0.77381 0.75648 0.0
C1293 C 0.62009 0.80055 0.79723 0.0
C1294 C 0.6272 0.80357 0.77067 0.0
C1295 C 0.62399 0.79009 0.75019 0.0
N1296 N 0.60995 0.7846 0.80325 0.0
C1297 C 0.60684 0.77128 0.78327 0.0
Co1298 Co 0.27352 0.62793 0.86217 0.0
Co1299 Co 0.23708 0.60092 0.83525 0.0
O1300 O 0.26331 0.61051 0.83402 0.0
C1301 C 0.28367 0.64718 0.80955 0.0
O1302 O 0.26725 0.64214 0.79923 0.0
C1303 C 0.26093 0.56746 0.81551 0.0
O1304 O 0.27666 0.57632 0.82177 0.0
O1305 O 0.24077 0.59185 0.87411 0.0
O1306 O 0.25911 0.61481 0.89189 0.0
H1307 H 0.17297 0.59253 0.87848 0.0
H1308 H 0.30089 0.60888 0.82504 0.0
O1309 O 0.28847 0.64202 0.83372 0.0
H1310 H 0.31757 0.58764 0.91897 0.0
H1311 H 0.32427 0.66666 0.90848 0.0
H1312 H 0.25691 0.64845 0.90984 0.0
H1313 H 0.29129 0.61 0.91168 0.0
H1314 H 0.31156 0.6446 0.87362 0.0
O1315 O 0.24493 0.57514 0.82059 0.0
H1316 H 0.20579 0.60426 0.87574 0.0
H1317 H 0.21301 0.57722 0.79799 0.0
H1318 H 0.26907 0.67045 0.94521 0.0
H1319 H 0.32752 0.58673 0.83144 0.0
H1320 H 0.30298 0.67969 0.94467 0.0
H1321 H 0.33595 0.57589 0.87867 0.0
O1322 O 0.25212 0.64569 0.85633 0.0
H1323 H 0.25537 0.61009 0.73557 0.0
H1324 H 0.20689 0.62286 0.80644 0.0
H1325 H 0.20227 0.63481 0.75913 0.0
H1326 H 0.22657 0.62836 0.72324 0.0
H1327 H 0.25958 0.59871 0.7832 0.0
H1328 H 0.18035 0.56503 0.80005 0.0
H1329 H 0.16006 0.57275 0.84045 0.0
O1330 O 0.22764 0.62613 0.84912 0.0
C1331 C 0.24849 0.60039 0.89444 0.0
C1332 C 0.18166 0.5891 0.86074 0.0
C1333 C 0.18581 0.57365 0.81674 0.0
N1334 N 0.21128 0.59152 0.83668 0.0
C1335 C 0.20024 0.59574 0.85904 0.0
C1336 C 0.20432 0.58054 0.81574 0.0
C1337 C 0.17443 0.57799 0.83941 0.0
C1338 C 0.30459 0.60435 0.84567 0.0
N1339 N 0.29449 0.61066 0.86792 0.0
C1340 C 0.31963 0.59176 0.84916 0.0
C1341 C 0.32433 0.58566 0.87566 0.0
C1342 C 0.31402 0.59222 0.89828 0.0
C1343 C 0.29907 0.60481 0.894 0.0
C1344 C 0.30947 0.66271 0.90897 0.0
C1345 C 0.27171 0.65232 0.90956 0.0
C1346 C 0.30218 0.65025 0.88925 0.0
N1347 N 0.28353 0.64513 0.88981 0.0
C1348 C 0.2785 0.66482 0.9296 0.0
C1349 C 0.29753 0.67002 0.92927 0.0
C1350 C 0.23444 0.64257 0.85386 0.0
C1351 C 0.24461 0.61288 0.75097 0.0
C1352 C 0.21758 0.62004 0.79102 0.0
C1353 C 0.21485 0.62681 0.76422 0.0
C1354 C 0.22848 0.62317 0.74408 0.0
N1355 N 0.23339 0.60985 0.79763 0.0
C1356 C 0.24685 0.60632 0.778 0.0
Co1357 Co 0.38938 0.26997 0.87024 0.0
Co1358 Co 0.41607 0.23305 0.84595 0.0
O1359 O 0.40722 0.25943 0.84307 0.0
C1360 C 0.37157 0.28155 0.81729 0.0
O1361 O 0.37531 0.26471 0.80722 0.0
C1362 C 0.44999 0.25567 0.82539 0.0
O1363 O 0.44195 0.27153 0.83313 0.0
O1364 O 0.42544 0.23806 0.88434 0.0
O1365 O 0.4005 0.25426 0.90054 0.0
H1366 H 0.42348 0.17038 0.89361 0.0
H1367 H 0.41109 0.29717 0.83626 0.0
O1368 O 0.37721 0.28613 0.84135 0.0
H1369 H 0.42923 0.31087 0.93263 0.0
H1370 H 0.35122 0.32159 0.9156 0.0
H1371 H 0.36605 0.25342 0.91507 0.0
H1372 H 0.40607 0.28582 0.92213 0.0
H1373 H 0.37412 0.30852 0.88218 0.0
O1374 O 0.44185 0.23986 0.83013 0.0
H1375 H 0.41243 0.2033 0.88872 0.0
H1376 H 0.43888 0.2072 0.81007 0.0
H1377 H 0.34317 0.26593 0.94898 0.0
H1378 H 0.4341 0.32259 0.84587 0.0
H1379 H 0.33563 0.30025 0.94939 0.0
H1380 H 0.44337 0.32951 0.89435 0.0
O1381 O 0.37117 0.24958 0.8615 0.0
H1382 H 0.40665 0.248 0.74525 0.0
H1383 H 0.39289 0.20258 0.81984 0.0
H1384 H 0.38039 0.1967 0.77309 0.0
H1385 H 0.38731 0.21945 0.73535 0.0
H1386 H 0.41863 0.25349 0.79235 0.0
H1387 H 0.45037 0.17439 0.81425 0.0
H1388 H 0.44261 0.15572 0.8562 0.0
O1389 O 0.39064 0.22456 0.86093 0.0
C1390 C 0.41561 0.24478 0.90419 0.0
C1391 C 0.42693 0.17836 0.87521 0.0
C1392 C 0.44204 0.18062 0.83068 0.0
N1393 N 0.42492 0.20714 0.8491 0.0
C1394 C 0.42067 0.19699 0.8723 0.0
C1395 C 0.43554 0.19922 0.82848 0.0
C1396 C 0.43767 0.17015 0.85422 0.0
C1397 C 0.41495 0.30021 0.85742 0.0
N1398 N 0.40732 0.28996 0.87856 0.0
C1399 C 0.42803 0.31457 0.86273 0.0
C1400 C 0.43325 0.31843 0.88993 0.0
C1401 C 0.42534 0.30796 0.91141 0.0
C1402 C 0.41231 0.29371 0.90531 0.0
C1403 C 0.35442 0.30662 0.91567 0.0
C1404 C 0.36292 0.26839 0.9152 0.0
C1405 C 0.36736 0.29913 0.89676 0.0
N1406 N 0.37152 0.28024 0.89679 0.0
C1407 C 0.34992 0.27538 0.93442 0.0
C1408 C 0.34568 0.29463 0.93462 0.0
C1409 C 0.37404 0.23181 0.86155 0.0
C1410 C 0.40364 0.23791 0.76147 0.0
C1411 C 0.39596 0.21258 0.80357 0.0
C1412 C 0.38886 0.20915 0.77711 0.0
C1413 C 0.39276 0.22192 0.75595 0.0
N1414 N 0.40673 0.22826 0.80882 0.0
C1415 C 0.41051 0.24088 0.78819 0.0
Co1416 Co 0.28229 0.39531 0.36998 0.0
Co1417 Co 0.26138 0.41026 0.30871 0.0
O1418 O 0.27136 0.41496 0.34607 0.0
C1419 C 0.25822 0.39808 0.42019 0.0
O1420 O 0.25373 0.38033 0.41567 0.0
C1421 C 0.28689 0.44435 0.30243 0.0
O1422 O 0.29715 0.43886 0.32353 0.0
O1423 O 0.28464 0.39579 0.29809 0.0
O1424 O 0.29594 0.38368 0.33778 0.0
H1425 H 0.24585 0.36985 0.22631 0.0
H1426 H 0.28644 0.43548 0.38651 0.0
O1427 O 0.26892 0.40679 0.40307 0.0
H1428 H 0.3516 0.41168 0.3754 0.0
H1429 H 0.31373 0.37082 0.45635 0.0
H1430 H 0.28754 0.35387 0.36516 0.0
H1431 H 0.32429 0.39063 0.36772 0.0
H1432 H 0.30019 0.39534 0.426 0.0
O1433 O 0.27299 0.43434 0.29417 0.0
H1434 H 0.2581 0.37629 0.27311 0.0
H1435 H 0.24354 0.43434 0.26513 0.0
H1436 H 0.30102 0.32891 0.39482 0.0
H1437 H 0.31333 0.45694 0.39495 0.0
H1438 H 0.31422 0.33733 0.44078 0.0
H1439 H 0.3462 0.44509 0.38925 0.0
O1440 O 0.26018 0.37832 0.36312 0.0
H1441 H 0.22589 0.46483 0.35067 0.0
H1442 H 0.21983 0.40357 0.3027 0.0
H1443 H 0.19106 0.42097 0.31631 0.0
H1444 H 0.19398 0.45188 0.34037 0.0
H1445 H 0.25428 0.44683 0.33699 0.0
H1446 H 0.23129 0.42854 0.21818 0.0
H1447 H 0.23233 0.39609 0.19851 0.0
O1448 O 0.24888 0.38648 0.32153 0.0
C1449 C 0.29616 0.38527 0.31147 0.0
C1450 C 0.24528 0.38404 0.23468 0.0
C1451 C 0.23713 0.41699 0.2301 0.0
N1452 N 0.25147 0.40564 0.27191 0.0
C1453 C 0.25215 0.38777 0.26119 0.0
C1454 C 0.24415 0.42019 0.25668 0.0
C1455 C 0.23771 0.39877 0.21908 0.0
C1456 C 0.3007 0.43016 0.38428 0.0
N1457 N 0.30378 0.41182 0.37653 0.0
C1458 C 0.31587 0.44241 0.38896 0.0
C1459 C 0.33431 0.43576 0.3857 0.0
C1460 C 0.33734 0.41703 0.37788 0.0
C1461 C 0.32182 0.40519 0.37335 0.0
C1462 C 0.30804 0.36697 0.43635 0.0
C1463 C 0.29333 0.35765 0.3851 0.0
C1464 C 0.30035 0.38079 0.41908 0.0
N1465 N 0.29314 0.37604 0.39378 0.0
C1466 C 0.30091 0.34345 0.40181 0.0
C1467 C 0.30831 0.34819 0.4276 0.0
C1468 C 0.24879 0.37602 0.34297 0.0
C1469 C 0.22443 0.45139 0.34013 0.0
C1470 C 0.22124 0.41693 0.31333 0.0
C1471 C 0.20488 0.42676 0.3209 0.0
C1472 C 0.20653 0.44411 0.33438 0.0
N1473 N 0.23875 0.4242 0.31893 0.0
C1474 C 0.24047 0.44116 0.33225 0.0
Co1475 Co 0.62117 0.28556 0.37597 0.0
Co1476 Co 0.60885 0.26147 0.31655 0.0
O1477 O 0.60244 0.27296 0.35238 0.0
C1478 C 0.60528 0.25811 0.41698 0.0
O1479 O 0.60885 0.24431 0.39955 0.0
C1480 C 0.57447 0.28514 0.30487 0.0
O1481 O 0.58086 0.29801 0.32204 0.0
O1482 O 0.62132 0.28526 0.30387 0.0
O1483 O 0.63432 0.29666 0.34281 0.0
H1484 H 0.65178 0.24544 0.23709 0.0
H1485 H 0.58041 0.29122 0.38744 0.0
O1486 O 0.60858 0.2752 0.41012 0.0
H1487 H 0.60573 0.355 0.36929 0.0
H1488 H 0.64269 0.32207 0.4597 0.0
H1489 H 0.66275 0.29062 0.3735 0.0
H1490 H 0.62669 0.32712 0.3681 0.0
H1491 H 0.61924 0.30669 0.42938 0.0
O1492 O 0.58401 0.27014 0.30035 0.0
H1493 H 0.64354 0.25952 0.28217 0.0
H1494 H 0.58721 0.23921 0.27469 0.0
H1495 H 0.68667 0.30599 0.40308 0.0
H1496 H 0.55897 0.31874 0.38928 0.0
H1497 H 0.67668 0.32185 0.44654 0.0
H1498 H 0.5716 0.3509 0.38002 0.0
O1499 O 0.63794 0.26286 0.3745 0.0
H1500 H 0.55701 0.22332 0.36059 0.0
H1501 H 0.61991 0.22069 0.31656 0.0
H1502 H 0.60519 0.19127 0.33343 0.0
H1503 H 0.57349 0.19246 0.35557 0.0
H1504 H 0.57233 0.25243 0.34364 0.0
H1505 H 0.5948 0.22503 0.22943 0.0
H1506 H 0.62731 0.22805 0.21039 0.0
O1507 O 0.63364 0.25199 0.33132 0.0
C1508 C 0.63242 0.29659 0.31654 0.0
C1509 C 0.63758 0.24399 0.2452 0.0
C1510 C 0.60559 0.23256 0.24088 0.0
N1511 N 0.61495 0.25011 0.28113 0.0
C1512 C 0.63284 0.25189 0.27075 0.0
C1513 C 0.60136 0.24066 0.26649 0.0
C1514 C 0.62384 0.23425 0.23022 0.0
C1515 C 0.58604 0.30519 0.38363 0.0
N1516 N 0.60477 0.30755 0.37754 0.0
C1517 C 0.57381 0.32071 0.3846 0.0
C1518 C 0.5809 0.33875 0.37935 0.0
C1519 C 0.60004 0.34105 0.37328 0.0
C1520 C 0.61183 0.3252 0.37246 0.0
C1521 C 0.64722 0.31523 0.44079 0.0
C1522 C 0.65829 0.2976 0.39229 0.0
C1523 C 0.634 0.30646 0.42357 0.0
N1524 N 0.63961 0.29788 0.39959 0.0
C1525 C 0.67189 0.30623 0.409 0.0
C1526 C 0.66628 0.31511 0.43339 0.0
C1527 C 0.64228 0.25194 0.35447 0.0
C1528 C 0.5708 0.22261 0.35089 0.0
C1529 C 0.60613 0.22135 0.32623 0.0
C1530 C 0.59785 0.20463 0.33569 0.0
C1531 C 0.58006 0.20531 0.3481 0.0
N1532 N 0.59693 0.23826 0.32895 0.0
C1533 C 0.57951 0.23904 0.34117 0.0
Co1534 Co 0.73016 0.62182 0.37578 0.0
Co1535 Co 0.75204 0.60492 0.31688 0.0
O1536 O 0.74059 0.60099 0.35352 0.0
C1537 C 0.75621 0.60448 0.41748 0.0
O1538 O 0.77015 0.60597 0.39965 0.0
C1539 C 0.72976 0.56814 0.31196 0.0
O1540 O 0.72164 0.57102 0.33596 0.0
O1541 O 0.72893 0.61869 0.30398 0.0
O1542 O 0.72027 0.63481 0.3419 0.0
H1543 H 0.76979 0.6438 0.23398 0.0
H1544 H 0.7201 0.58269 0.39216 0.0
O1545 O 0.73952 0.60952 0.41069 0.0
H1546 H 0.65946 0.61364 0.3699 0.0
H1547 H 0.69661 0.64995 0.45799 0.0
H1548 H 0.7295 0.66359 0.37034 0.0
H1549 H 0.68945 0.63124 0.36632 0.0
H1550 H 0.70926 0.624 0.42933 0.0
O1551 O 0.74126 0.58033 0.3021 0.0
H1552 H 0.75595 0.63813 0.28003 0.0
H1553 H 0.77194 0.58026 0.27584 0.0
H1554 H 0.71694 0.68997 0.39826 0.0
H1555 H 0.69038 0.56464 0.39646 0.0
H1556 H 0.70035 0.68322 0.44244 0.0
H1557 H 0.65978 0.5801 0.38516 0.0
O1558 O 0.75427 0.6362 0.37265 0.0
H1559 H 0.78718 0.55294 0.36601 0.0
H1560 H 0.79358 0.61202 0.31287 0.0
H1561 H 0.8222 0.5959 0.32985 0.0
H1562 H 0.81912 0.56607 0.35654 0.0
H1563 H 0.75896 0.56964 0.34896 0.0
H1564 H 0.78578 0.58528 0.22965 0.0
H1565 H 0.78484 0.61725 0.20846 0.0
O1566 O 0.76382 0.62933 0.32959 0.0
C1567 C 0.71922 0.63155 0.31599 0.0
C1568 C 0.77034 0.62981 0.24302 0.0
C1569 C 0.77929 0.59696 0.24057 0.0
N1570 N 0.76323 0.60892 0.28071 0.0
C1571 C 0.76256 0.62653 0.26912 0.0
C1572 C 0.77137 0.5942 0.26671 0.0
C1573 C 0.77876 0.61491 0.22871 0.0
C1574 C 0.70683 0.58956 0.38741 0.0
N1575 N 0.70655 0.60796 0.37885 0.0
C1576 C 0.69005 0.57925 0.38979 0.0
C1577 C 0.67289 0.58792 0.38341 0.0
C1578 C 0.6727 0.60673 0.3748 0.0
C1579 C 0.68976 0.61659 0.37264 0.0
C1580 C 0.70377 0.65307 0.43875 0.0
C1581 C 0.7222 0.66053 0.38946 0.0
C1582 C 0.711 0.63844 0.42245 0.0
N1583 N 0.71998 0.64227 0.39807 0.0
C1584 C 0.71516 0.67553 0.40522 0.0
C1585 C 0.70587 0.67173 0.43001 0.0
C1586 C 0.76507 0.63892 0.35192 0.0
C1587 C 0.78872 0.56586 0.35425 0.0
C1588 C 0.79209 0.59908 0.32448 0.0
C1589 C 0.80837 0.58999 0.33402 0.0
C1590 C 0.80663 0.57325 0.34898 0.0
N1591 N 0.77455 0.59168 0.32953 0.0
C1592 C 0.77276 0.57534 0.34436 0.0
Co1593 Co 0.39416 0.73177 0.37093 0.0
Co1594 Co 0.40911 0.75411 0.31198 0.0
O1595 O 0.41441 0.74276 0.34827 0.0
C1596 C 0.41217 0.75695 0.41337 0.0
O1597 O 0.41049 0.7713 0.39631 0.0
C1598 C 0.44383 0.73027 0.30205 0.0
O1599 O 0.43758 0.71766 0.3197 0.0
O1600 O 0.39692 0.73019 0.2993 0.0
O1601 O 0.38041 0.72235 0.33714 0.0
H1602 H 0.36849 0.76924 0.22972 0.0
H1603 H 0.43382 0.72169 0.3839 0.0
O1604 O 0.40715 0.74042 0.40575 0.0
H1605 H 0.40237 0.66122 0.36215 0.0
H1606 H 0.36769 0.69658 0.45275 0.0
H1607 H 0.3523 0.73124 0.36726 0.0
H1608 H 0.3845 0.69116 0.36096 0.0
H1609 H 0.39307 0.70978 0.42357 0.0
O1610 O 0.43421 0.74514 0.2971 0.0
H1611 H 0.37545 0.75563 0.2755 0.0
H1612 H 0.43191 0.77601 0.27104 0.0
H1613 H 0.32648 0.71812 0.3957 0.0
H1614 H 0.45218 0.69201 0.38574 0.0
H1615 H 0.33411 0.70065 0.43879 0.0
H1616 H 0.43645 0.66151 0.3747 0.0
O1617 O 0.37992 0.75605 0.36948 0.0
H1618 H 0.46001 0.79219 0.35838 0.0
H1619 H 0.3985 0.79504 0.31045 0.0
H1620 H 0.41304 0.82446 0.32769 0.0
H1621 H 0.44405 0.82316 0.35179 0.0
H1622 H 0.44487 0.76306 0.34102 0.0
H1623 H 0.4256 0.78971 0.22511 0.0
H1624 H 0.39368 0.78643 0.2042 0.0
O1625 O 0.38395 0.76405 0.32507 0.0
C1626 C 0.38399 0.72067 0.31135 0.0
C1627 C 0.38244 0.77081 0.23864 0.0
C1628 C 0.4145 0.78228 0.23605 0.0
N1629 N 0.40402 0.76513 0.27603 0.0
C1630 C 0.38646 0.76317 0.2646 0.0
C1631 C 0.418 0.77445 0.26204 0.0
C1632 C 0.39659 0.78044 0.22433 0.0
C1633 C 0.42685 0.70844 0.37933 0.0
N1634 N 0.40813 0.70817 0.37232 0.0
C1635 C 0.43733 0.6917 0.38029 0.0
C1636 C 0.4285 0.67459 0.37405 0.0
C1637 C 0.40939 0.67442 0.36696 0.0
C1638 C 0.39936 0.69144 0.3662 0.0
C1639 C 0.36418 0.70414 0.43399 0.0
C1640 C 0.35574 0.72356 0.38591 0.0
C1641 C 0.3785 0.71169 0.41742 0.0
N1642 N 0.37417 0.72117 0.39364 0.0
C1643 C 0.34106 0.71621 0.40196 0.0
C1644 C 0.34535 0.70642 0.42615 0.0
C1645 C 0.37582 0.76608 0.34846 0.0
C1646 C 0.44653 0.79294 0.34783 0.0
C1647 C 0.41197 0.79433 0.32098 0.0
C1648 C 0.42015 0.81106 0.33065 0.0
C1649 C 0.43755 0.81032 0.34416 0.0
N1650 N 0.42089 0.77735 0.3246 0.0
C1651 C 0.43792 0.77651 0.33787 0.0
Co1652 Co 0.2858 0.62609 0.139 0.0
Co1653 Co 0.26568 0.6082 0.19772 0.0
O1654 O 0.27631 0.60481 0.16068 0.0
C1655 C 0.26024 0.60786 0.09741 0.0
O1656 O 0.24632 0.6088 0.11536 0.0
C1657 C 0.28695 0.57829 0.22844 0.0
O1658 O 0.29396 0.59166 0.24426 0.0
O1659 O 0.28943 0.62104 0.20994 0.0
O1660 O 0.29556 0.6392 0.17307 0.0
H1661 H 0.25149 0.64415 0.28492 0.0
H1662 H 0.29716 0.58707 0.12419 0.0
O1663 O 0.27673 0.6136 0.10405 0.0
H1664 H 0.35687 0.62097 0.14239 0.0
H1665 H 0.31723 0.65635 0.05674 0.0
H1666 H 0.2848 0.66777 0.14548 0.0
H1667 H 0.32622 0.63744 0.1463 0.0
H1668 H 0.30599 0.62962 0.08505 0.0
O1669 O 0.2762 0.58259 0.20816 0.0
H1670 H 0.26415 0.63986 0.23782 0.0
H1671 H 0.24531 0.58282 0.23713 0.0
H1672 H 0.29597 0.69491 0.11794 0.0
H1673 H 0.32754 0.57008 0.11978 0.0
H1674 H 0.31231 0.68927 0.07322 0.0
H1675 H 0.35766 0.58706 0.12895 0.0
O1676 O 0.26102 0.63916 0.14304 0.0
H1677 H 0.22823 0.55787 0.14879 0.0
H1678 H 0.22446 0.61711 0.20242 0.0
H1679 H 0.19513 0.6022 0.18553 0.0
H1680 H 0.19689 0.57233 0.15857 0.0
H1681 H 0.25724 0.57337 0.16581 0.0
H1682 H 0.23251 0.58646 0.28427 0.0
H1683 H 0.23554 0.61732 0.30847 0.0
O1684 O 0.25442 0.6335 0.18766 0.0
C1685 C 0.29807 0.6348 0.19842 0.0
C1686 C 0.25006 0.63064 0.27458 0.0
C1687 C 0.23942 0.59826 0.27422 0.0
N1688 N 0.25542 0.61113 0.23471 0.0
C1689 C 0.25718 0.62814 0.2479 0.0
C1690 C 0.24671 0.59628 0.24755 0.0
C1691 C 0.24112 0.61558 0.28778 0.0
C1692 C 0.31023 0.59456 0.12806 0.0
N1693 N 0.30992 0.61323 0.13538 0.0
C1694 C 0.32738 0.58487 0.1256 0.0
C1695 C 0.34427 0.5944 0.13077 0.0
C1696 C 0.34384 0.61342 0.13833 0.0
C1697 C 0.32643 0.62266 0.14059 0.0
C1698 C 0.31016 0.65899 0.07622 0.0
C1699 C 0.292 0.66521 0.12612 0.0
C1700 C 0.30372 0.64391 0.09231 0.0
N1701 N 0.29487 0.64714 0.117 0.0
C1702 C 0.29825 0.68063 0.11058 0.0
C1703 C 0.3074 0.67746 0.08548 0.0
C1704 C 0.25148 0.64227 0.16496 0.0
C1705 C 0.22728 0.57085 0.16059 0.0
C1706 C 0.22537 0.60415 0.19062 0.0
C1707 C 0.2087 0.59574 0.18117 0.0
C1708 C 0.2097 0.57898 0.16605 0.0
N1709 N 0.24256 0.59605 0.18526 0.0
C1710 C 0.24365 0.57965 0.17038 0.0
Co1711 Co 0.39694 0.28525 0.14792 0.0
Co1712 Co 0.4093 0.26292 0.20862 0.0
O1713 O 0.41575 0.27339 0.17216 0.0
C1714 C 0.41288 0.25704 0.10786 0.0
O1715 O 0.40911 0.24347 0.12554 0.0
C1716 C 0.44431 0.28617 0.21863 0.0
O1717 O 0.43849 0.29846 0.2002 0.0
O1718 O 0.39706 0.28717 0.21997 0.0
O1719 O 0.38364 0.29703 0.18047 0.0
H1720 H 0.36633 0.24958 0.28903 0.0
H1721 H 0.43763 0.29105 0.13607 0.0
O1722 O 0.40968 0.27424 0.11431 0.0
H1723 H 0.41164 0.35498 0.15111 0.0
H1724 H 0.37513 0.31949 0.06241 0.0
H1725 H 0.3553 0.28996 0.15006 0.0
H1726 H 0.391 0.32693 0.15382 0.0
H1727 H 0.39871 0.30511 0.09351 0.0
O1728 O 0.43424 0.27173 0.22435 0.0
H1729 H 0.37465 0.2623 0.24318 0.0
H1730 H 0.43077 0.24156 0.25163 0.0
H1731 H 0.33126 0.30435 0.11968 0.0
H1732 H 0.45875 0.31873 0.13269 0.0
H1733 H 0.34113 0.31924 0.07549 0.0
H1734 H 0.44579 0.35097 0.14038 0.0
O1735 O 0.3804 0.26246 0.15049 0.0
H1736 H 0.46067 0.22309 0.16644 0.0
H1737 H 0.3979 0.22227 0.211 0.0
H1738 H 0.41232 0.19227 0.19572 0.0
H1739 H 0.44396 0.19255 0.17331 0.0
H1740 H 0.44565 0.25279 0.18182 0.0
H1741 H 0.42309 0.22874 0.29766 0.0
H1742 H 0.39065 0.23266 0.31661 0.0
O1743 O 0.38441 0.25325 0.19448 0.0
C1744 C 0.38572 0.29791 0.20669 0.0
C1745 C 0.3805 0.24774 0.28097 0.0
C1746 C 0.41237 0.23607 0.28583 0.0
N1747 N 0.40314 0.2526 0.24466 0.0
C1748 C 0.38528 0.25487 0.25499 0.0
C1749 C 0.41664 0.2434 0.25977 0.0
C1750 C 0.39416 0.23826 0.29645 0.0
C1751 C 0.43186 0.30505 0.13921 0.0
N1752 N 0.41312 0.30736 0.14529 0.0
C1753 C 0.4439 0.32066 0.13737 0.0
C1754 C 0.43662 0.33874 0.14174 0.0
C1755 C 0.41747 0.341 0.14781 0.0
C1756 C 0.40587 0.32505 0.14951 0.0
C1757 C 0.37066 0.31307 0.08163 0.0
C1758 C 0.35972 0.29652 0.13095 0.0
C1759 C 0.38394 0.30487 0.0993 0.0
N1760 N 0.3784 0.29682 0.12368 0.0
C1761 C 0.34604 0.3046 0.1138 0.0
C1762 C 0.35158 0.31293 0.08899 0.0
C1763 C 0.37593 0.25228 0.17124 0.0
C1764 C 0.44691 0.22278 0.17626 0.0
C1765 C 0.41165 0.22252 0.20122 0.0
C1766 C 0.41976 0.20548 0.19265 0.0
C1767 C 0.43751 0.20565 0.18009 0.0
N1768 N 0.42099 0.23927 0.19748 0.0
C1769 C 0.43837 0.23954 0.1851 0.0
Co1770 Co 0.73131 0.39365 0.14673 0.0
Co1771 Co 0.75567 0.40541 0.20607 0.0
O1772 O 0.74417 0.41213 0.17043 0.0
C1773 C 0.75868 0.40955 0.10547 0.0
O1774 O 0.77261 0.40568 0.12251 0.0
C1775 C 0.7324 0.43996 0.21863 0.0
O1776 O 0.71927 0.43371 0.20176 0.0
O1777 O 0.73171 0.39328 0.21881 0.0
O1778 O 0.72021 0.38043 0.17982 0.0
H1779 H 0.77121 0.36199 0.28501 0.0
H1780 H 0.72596 0.43451 0.13606 0.0
O1781 O 0.74161 0.40635 0.11264 0.0
H1782 H 0.66199 0.40961 0.15426 0.0
H1783 H 0.69429 0.37286 0.0631 0.0
H1784 H 0.72592 0.35212 0.14869 0.0
H1785 H 0.6897 0.38842 0.15481 0.0
H1786 H 0.70997 0.39603 0.09357 0.0
O1787 O 0.7474 0.43032 0.2226 0.0
H1788 H 0.75714 0.3706 0.24012 0.0
H1789 H 0.7784 0.42655 0.24795 0.0
H1790 H 0.71025 0.32849 0.11894 0.0
H1791 H 0.69861 0.4562 0.13487 0.0
H1792 H 0.69429 0.33883 0.07579 0.0
H1793 H 0.66635 0.44378 0.14415 0.0
O1794 O 0.75389 0.37668 0.14773 0.0
H1795 H 0.79449 0.45681 0.16226 0.0
H1796 H 0.7963 0.39374 0.20561 0.0
H1797 H 0.8259 0.40808 0.18863 0.0
H1798 H 0.82512 0.43986 0.16683 0.0
H1799 H 0.76519 0.44187 0.17931 0.0
H1800 H 0.79257 0.41858 0.29303 0.0
H1801 H 0.78907 0.38608 0.3118 0.0
O1802 O 0.76476 0.38053 0.19099 0.0
C1803 C 0.72027 0.38232 0.2061 0.0
C1804 C 0.77287 0.37619 0.27702 0.0
C1805 C 0.78484 0.40796 0.28154 0.0
N1806 N 0.76703 0.39902 0.24135 0.0
C1807 C 0.76498 0.38113 0.25158 0.0
C1808 C 0.77674 0.41239 0.25603 0.0
C1809 C 0.78287 0.38972 0.29206 0.0
C1810 C 0.71194 0.42898 0.13989 0.0
N1811 N 0.70944 0.41023 0.14563 0.0
C1812 C 0.69652 0.44134 0.13929 0.0
C1813 C 0.67843 0.43437 0.14454 0.0
C1814 C 0.67598 0.41521 0.15026 0.0
C1815 C 0.69174 0.40328 0.15072 0.0
C1816 C 0.70116 0.36819 0.08187 0.0
C1817 C 0.7189 0.35673 0.13003 0.0
C1818 C 0.71011 0.38124 0.09918 0.0
N1819 N 0.71874 0.37544 0.12299 0.0
C1820 C 0.7101 0.34329 0.11323 0.0
C1821 C 0.70117 0.34909 0.08901 0.0
C1822 C 0.76474 0.37205 0.16768 0.0
C1823 C 0.79502 0.44298 0.1718 0.0
C1824 C 0.79583 0.40756 0.19609 0.0
C1825 C 0.81265 0.41562 0.18656 0.0
C1826 C 0.8122 0.43345 0.17434 0.0
N1827 N 0.77904 0.41702 0.19361 0.0
C1828 C 0.77848 0.43449 0.18159 0.0
Co1829 Co 0.62504 0.73059 0.14436 0.0
Co1830 Co 0.60764 0.75186 0.20338 0.0
O1831 O 0.60393 0.74049 0.16663 0.0
C1832 C 0.607 0.7563 0.10275 0.0
O1833 O 0.60808 0.77026 0.12061 0.0
C1834 C 0.57164 0.72845 0.20847 0.0
O1835 O 0.57498 0.71996 0.18488 0.0
O1836 O 0.62169 0.72891 0.21606 0.0
O1837 O 0.6382 0.72079 0.17823 0.0
H1838 H 0.64613 0.76984 0.28662 0.0
H1839 H 0.58612 0.71975 0.12788 0.0
O1840 O 0.61256 0.73978 0.10949 0.0
H1841 H 0.61842 0.65972 0.14946 0.0
H1842 H 0.65406 0.698 0.06199 0.0
H1843 H 0.66681 0.73084 0.15 0.0
H1844 H 0.63537 0.69007 0.15338 0.0
H1845 H 0.62777 0.70995 0.09064 0.0
O1846 O 0.58326 0.74063 0.21797 0.0
H1847 H 0.64073 0.75607 0.24043 0.0
H1848 H 0.58262 0.77126 0.24447 0.0
H1849 H 0.69352 0.71898 0.12209 0.0
H1850 H 0.56872 0.68967 0.12323 0.0
H1851 H 0.68722 0.70242 0.07773 0.0
H1852 H 0.58487 0.65938 0.1342 0.0
O1853 O 0.63885 0.75503 0.14771 0.0
H1854 H 0.5549 0.78613 0.15475 0.0
H1855 H 0.61408 0.79352 0.20754 0.0
H1856 H 0.59742 0.82185 0.19068 0.0
H1857 H 0.56754 0.81827 0.16415 0.0
H1858 H 0.57215 0.75819 0.17169 0.0
H1859 H 0.58737 0.78502 0.29079 0.0
H1860 H 0.61933 0.78445 0.31212 0.0
O1861 O 0.63186 0.7641 0.19093 0.0
C1862 C 0.63471 0.71941 0.20405 0.0
C1863 C 0.63215 0.77023 0.27751 0.0
C1864 C 0.59917 0.77872 0.27987 0.0
N1865 N 0.61142 0.76296 0.23967 0.0
C1866 C 0.62902 0.76249 0.25134 0.0
C1867 C 0.59656 0.77085 0.25366 0.0
C1868 C 0.6171 0.7784 0.29182 0.0
C1869 C 0.59329 0.70662 0.13247 0.0
N1870 N 0.6117 0.7067 0.14103 0.0
C1871 C 0.58334 0.68963 0.1299 0.0
C1872 C 0.5924 0.67265 0.13609 0.0
C1873 C 0.61121 0.67283 0.1447 0.0
C1874 C 0.62071 0.69008 0.14705 0.0
C1875 C 0.65699 0.70516 0.08131 0.0
C1876 C 0.66395 0.72355 0.1308 0.0
C1877 C 0.64216 0.71199 0.0976 0.0
N1878 N 0.64575 0.72096 0.12208 0.0
C1879 C 0.67914 0.71691 0.11505 0.0
C1880 C 0.67559 0.70764 0.09015 0.0
C1881 C 0.64134 0.76577 0.16858 0.0
C1882 C 0.56785 0.78788 0.16641 0.0
C1883 C 0.60113 0.79181 0.19597 0.0
C1884 C 0.59173 0.80793 0.18651 0.0
C1885 C 0.57497 0.80591 0.17165 0.0
N1886 N 0.59402 0.77416 0.19091 0.0
C1887 C 0.57764 0.77209 0.17621 0.0
H1888 H 0.36511 0.23342 0.12433 0.0
H1889 H 0.35296 0.23815 0.21156 0.0
H1890 H 0.3422 0.20744 0.12065 0.0
H1891 H 0.32981 0.21259 0.20763 0.0
H1892 H 0.27578 0.17987 0.17951 0.0
H1893 H 0.29738 0.2069 0.18039 0.0
H1894 H 0.3412 0.17258 0.14373 0.0
H1895 H 0.31977 0.14532 0.14339 0.0
C1896 C 0.35733 0.22914 0.14259 0.0
C1897 C 0.36081 0.23787 0.16823 0.0
C1898 C 0.34435 0.2142 0.1405 0.0
C1899 C 0.33427 0.20803 0.16386 0.0
C1900 C 0.33732 0.21714 0.18928 0.0
C1901 C 0.35059 0.23174 0.19151 0.0
C1902 C 0.28998 0.17809 0.17146 0.0
C1903 C 0.29605 0.16042 0.16138 0.0
C1904 C 0.30234 0.19355 0.17208 0.0
C1905 C 0.32092 0.19183 0.16207 0.0
C1906 C 0.3269 0.17432 0.15137 0.0
C1907 C 0.31466 0.15871 0.15132 0.0
H1908 H 0.87154 0.31705 0.13891 0.0
H1909 H 0.83673 0.27097 0.168 0.0
H1910 H 0.84388 0.33797 0.13933 0.0
H1911 H 0.80925 0.29212 0.16918 0.0
H1912 H 0.7789 0.34786 0.2064 0.0
H1913 H 0.80408 0.32439 0.20061 0.0
H1914 H 0.80846 0.33882 0.11427 0.0
H1915 H 0.78279 0.36196 0.11977 0.0
C1916 C 0.85797 0.31135 0.14516 0.0
C1917 C 0.85632 0.29232 0.15334 0.0
C1918 C 0.84215 0.32331 0.1453 0.0
C1919 C 0.82447 0.31664 0.15429 0.0
C1920 C 0.82274 0.29759 0.16215 0.0
C1921 C 0.83844 0.28549 0.16134 0.0
C1922 C 0.78503 0.34584 0.18608 0.0
C1923 C 0.7788 0.3567 0.16351 0.0
C1924 C 0.7994 0.33238 0.18278 0.0
C1925 C 0.80819 0.32983 0.15701 0.0
C1926 C 0.80189 0.34054 0.13435 0.0
C1927 C 0.78715 0.35367 0.13748 0.0
H1928 H 0.66656 0.7734 0.12658 0.0
H1929 H 0.64834 0.79359 0.20669 0.0
H1930 H 0.68859 0.80005 0.12323 0.0
H1931 H 0.66998 0.82019 0.20294 0.0
H1932 H 0.69357 0.87654 0.17115 0.0
H1933 H 0.67238 0.8494 0.1723 0.0
H1934 H 0.71836 0.81278 0.14809 0.0
H1935 H 0.73982 0.83991 0.14735 0.0
C1936 C 0.66721 0.78346 0.14346 0.0
C1937 C 0.65545 0.78138 0.16678 0.0
C1938 C 0.67987 0.79869 0.14154 0.0
C1939 C 0.68086 0.81232 0.16269 0.0
C1940 C 0.66932 0.8101 0.1861 0.0
C1941 C 0.65692 0.79477 0.18823 0.0
C1942 C 0.69927 0.86275 0.16611 0.0
C1943 C 0.71855 0.86047 0.15956 0.0
C1944 C 0.68708 0.84717 0.16681 0.0
C1945 C 0.69374 0.82893 0.16052 0.0
C1946 C 0.71281 0.82667 0.15298 0.0
C1947 C 0.72511 0.84223 0.15268 0.0
H1948 H 0.23081 0.65365 0.12017 0.0
H1949 H 0.23711 0.66288 0.20795 0.0
H1950 H 0.20433 0.67607 0.11933 0.0
H1951 H 0.211 0.68565 0.20683 0.0
H1952 H 0.17834 0.74105 0.18146 0.0
H1953 H 0.20521 0.71921 0.18057 0.0
H1954 H 0.1697 0.67602 0.14486 0.0
H1955 H 0.1426 0.69765 0.14639 0.0
C1956 C 0.22669 0.66061 0.1392 0.0
C1957 C 0.23608 0.65652 0.16412 0.0
C1958 C 0.21148 0.67334 0.13872 0.0
C1959 C 0.20568 0.68257 0.163 0.0
C1960 C 0.21528 0.67878 0.1878 0.0
C1961 C 0.23017 0.66572 0.18843 0.0
C1962 C 0.17626 0.72694 0.17325 0.0
C1963 C 0.15832 0.72109 0.16397 0.0
C1964 C 0.19163 0.71444 0.17288 0.0
C1965 C 0.1895 0.69597 0.16265 0.0
C1966 C 0.17171 0.69023 0.15273 0.0
C1967 C 0.15622 0.70259 0.15369 0.0
H1968 H 0.27666 0.83958 0.34049 0.0
H1969 H 0.32104 0.87428 0.37515 0.0
H1970 H 0.2983 0.81256 0.33918 0.0
H1971 H 0.34251 0.84702 0.37443 0.0
H1972 H 0.36561 0.78574 0.39493 0.0
H1973 H 0.34319 0.81217 0.39826 0.0
H1974 H 0.33078 0.80672 0.31134 0.0
H1975 H 0.35346 0.7807 0.30775 0.0
C1976 C 0.29097 0.8414 0.34809 0.0
C1977 C 0.29713 0.85909 0.35792 0.0
C1978 C 0.30334 0.82595 0.34723 0.0
C1979 C 0.32203 0.82772 0.35676 0.0
C1980 C 0.32812 0.84527 0.36713 0.0
C1981 C 0.31587 0.86086 0.36741 0.0
C1982 C 0.35797 0.79009 0.3766 0.0
C1983 C 0.36127 0.7811 0.35109 0.0
C1984 C 0.34527 0.80528 0.37848 0.0
C1985 C 0.33528 0.81145 0.35505 0.0
C1986 C 0.33823 0.80217 0.32973 0.0
C1987 C 0.35124 0.78731 0.3277 0.0
H1988 H 0.2193 0.36958 0.30748 0.0
H1989 H 0.24462 0.34834 0.38264 0.0
H1990 H 0.19367 0.34692 0.31215 0.0
H1991 H 0.21884 0.32539 0.38701 0.0
H1992 H 0.17844 0.27453 0.3637 0.0
H1993 H 0.20511 0.29653 0.36145 0.0
H1994 H 0.16648 0.34256 0.34581 0.0
H1995 H 0.13984 0.32082 0.34842 0.0
C1996 C 0.21947 0.36011 0.32503 0.0
C1997 C 0.23398 0.36108 0.34492 0.0
C1998 C 0.20469 0.34712 0.32772 0.0
C1999 C 0.20411 0.33452 0.35012 0.0
C2000 C 0.21891 0.33495 0.36953 0.0
C2001 C 0.23363 0.34816 0.36705 0.0
C2002 C 0.17559 0.28936 0.35994 0.0
C2003 C 0.15693 0.2958 0.35588 0.0
C2004 C 0.19089 0.30196 0.35876 0.0
C2005 C 0.18791 0.32123 0.35316 0.0
C2006 C 0.16926 0.32773 0.34972 0.0
C2007 C 0.15397 0.31523 0.35127 0.0
H2008 H 0.74286 0.17998 0.35072 0.0
H2009 H 0.6978 0.14506 0.38295 0.0
H2010 H 0.72154 0.20724 0.35041 0.0
H2011 H 0.67667 0.17258 0.38329 0.0
H2012 H 0.65264 0.23392 0.40223 0.0
H2013 H 0.67566 0.20811 0.4073 0.0
H2014 H 0.68918 0.21208 0.32057 0.0
H2015 H 0.66587 0.23739 0.31524 0.0
C2016 C 0.72853 0.17818 0.35826 0.0
C2017 C 0.72204 0.16031 0.36686 0.0
C2018 C 0.71633 0.19378 0.35794 0.0
C2019 C 0.6975 0.19199 0.36683 0.0
C2020 C 0.69118 0.17435 0.3765 0.0
C2021 C 0.70325 0.15861 0.37622 0.0
C2022 C 0.6607 0.22942 0.38434 0.0
C2023 C 0.65749 0.23772 0.35835 0.0
C2024 C 0.67375 0.21459 0.38722 0.0
C2025 C 0.68418 0.20816 0.36433 0.0
C2026 C 0.6814 0.21686 0.33857 0.0
C2027 C 0.66804 0.23131 0.33553 0.0
H2028 H 0.77102 0.66511 0.39324 0.0
H2029 H 0.7934 0.64618 0.31475 0.0
H2030 H 0.79677 0.68821 0.39676 0.0
H2031 H 0.8191 0.66887 0.31869 0.0
H2032 H 0.87392 0.69478 0.35162 0.0
H2033 H 0.84754 0.67269 0.35099 0.0
H2034 H 0.80897 0.71807 0.37061 0.0
H2035 H 0.83538 0.74049 0.37077 0.0
C2036 C 0.78138 0.66582 0.37677 0.0
C2037 C 0.78018 0.65356 0.35385 0.0
C2038 C 0.79608 0.67909 0.37878 0.0
C2039 C 0.81005 0.6802 0.35814 0.0
C2040 C 0.80871 0.66815 0.33513 0.0
C2041 C 0.79391 0.65513 0.33289 0.0
C2042 C 0.85987 0.70017 0.35582 0.0
C2043 C 0.85683 0.71956 0.36081 0.0
C2044 C 0.84473 0.68745 0.35542 0.0
C2045 C 0.82616 0.69367 0.36045 0.0
C2046 C 0.82314 0.71287 0.36667 0.0
C2047 C 0.83828 0.7257 0.36667 0.0
H2048 H 0.72347 0.86775 0.81553 0.0
H2049 H 0.74536 0.84916 0.89442 0.0
H2050 H 0.69754 0.84544 0.81952 0.0
H2051 H 0.71926 0.82638 0.898 0.0
H2052 H 0.67946 0.77467 0.87207 0.0
H2053 H 0.70639 0.79648 0.87206 0.0
H2054 H 0.66897 0.84261 0.85158 0.0
H2055 H 0.6421 0.82112 0.852 0.0
C2056 C 0.72282 0.85894 0.83378 0.0
C2057 C 0.73648 0.86053 0.85484 0.0
C2058 C 0.70786 0.84613 0.83604 0.0
C2059 C 0.70623 0.83431 0.8592 0.0
C2060 C 0.72016 0.83535 0.87991 0.0
C2061 C 0.73507 0.84843 0.87786 0.0
C2062 C 0.67693 0.78949 0.86777 0.0
C2063 C 0.65856 0.79602 0.86163 0.0
C2064 C 0.69237 0.80198 0.86789 0.0
C2065 C 0.68982 0.82121 0.86153 0.0
C2066 C 0.67143 0.82781 0.85616 0.0
C2067 C 0.656 0.81544 0.85642 0.0
H2068 H 0.1483 0.72507 0.81542 0.0
H2069 H 0.16948 0.74528 0.8939 0.0
H2070 H 0.17039 0.69877 0.81702 0.0
H2071 H 0.19188 0.71884 0.89519 0.0
H2072 H 0.24241 0.67946 0.86779 0.0
H2073 H 0.22065 0.70636 0.86888 0.0
H2074 H 0.17456 0.66954 0.84591 0.0
H2075 H 0.19609 0.64266 0.84506 0.0
C2076 C 0.15763 0.72395 0.83308 0.0
C2077 C 0.15688 0.73729 0.8547 0.0
C2078 C 0.17029 0.70878 0.83399 0.0
C2079 C 0.18278 0.7066 0.85634 0.0
C2080 C 0.18245 0.72015 0.87766 0.0
C2081 C 0.16957 0.73527 0.87694 0.0
C2082 C 0.22762 0.67705 0.86308 0.0
C2083 C 0.22111 0.65884 0.85599 0.0
C2084 C 0.21515 0.69248 0.86384 0.0
C2085 C 0.19592 0.69012 0.85724 0.0
C2086 C 0.18935 0.67189 0.85069 0.0
C2087 C 0.20173 0.65644 0.85026 0.0
H2088 H 0.37235 0.19498 0.8793 0.0
H2089 H 0.33799 0.23974 0.84504 0.0
H2090 H 0.34481 0.17386 0.87889 0.0
H2091 H 0.31072 0.21846 0.84403 0.0
H2092 H 0.27913 0.16333 0.81143 0.0
H2093 H 0.30505 0.18606 0.81571 0.0
H2094 H 0.30955 0.17348 0.90266 0.0
H2095 H 0.28316 0.15102 0.89863 0.0
C2096 C 0.35895 0.20032 0.87176 0.0
C2097 C 0.35736 0.21905 0.86224 0.0
C2098 C 0.34319 0.18827 0.87166 0.0
C2099 C 0.32567 0.19457 0.86146 0.0
C2100 C 0.32408 0.21327 0.85199 0.0
C2101 C 0.33968 0.22544 0.85266 0.0
C2102 C 0.28547 0.16558 0.83155 0.0
C2103 C 0.27904 0.15546 0.85473 0.0
C2104 C 0.30028 0.17859 0.83397 0.0
C2105 C 0.30931 0.18146 0.85948 0.0
C2106 C 0.30284 0.17146 0.88275 0.0
C2107 C 0.28768 0.15875 0.88047 0.0
H2108 H 0.84834 0.27136 0.88075 0.0
H2109 H 0.86983 0.29815 0.80683 0.0
H2110 H 0.82506 0.29679 0.88577 0.0
H2111 H 0.8468 0.32342 0.81212 0.0
H2112 H 0.8199 0.37632 0.8501 0.0
H2113 H 0.84192 0.34996 0.84661 0.0
H2114 H 0.7962 0.31066 0.86054 0.0
H2115 H 0.77391 0.33707 0.86368 0.0
C2116 C 0.84814 0.2826 0.86557 0.0
C2117 C 0.86122 0.28276 0.84359 0.0
C2118 C 0.83473 0.29712 0.86841 0.0
C2119 C 0.83426 0.31222 0.84953 0.0
C2120 C 0.84703 0.31216 0.82727 0.0
C2121 C 0.86022 0.29758 0.82423 0.0
C2122 C 0.81444 0.36211 0.85238 0.0
C2123 C 0.79501 0.35889 0.85679 0.0
C2124 C 0.8271 0.34697 0.85032 0.0
C2125 C 0.82077 0.32822 0.85303 0.0
C2126 C 0.8015 0.32496 0.85841 0.0
C2127 C 0.78873 0.34012 0.8601 0.0
H2128 H 0.6785 0.24071 0.68108 0.0
H2129 H 0.64385 0.19676 0.64514 0.0
H2130 H 0.70554 0.21909 0.68175 0.0
H2131 H 0.67112 0.17532 0.64527 0.0
H2132 H 0.73194 0.15125 0.62574 0.0
H2133 H 0.70598 0.17419 0.62207 0.0
H2134 H 0.71121 0.18674 0.70899 0.0
H2135 H 0.73672 0.16356 0.71292 0.0
C2136 C 0.6767 0.22652 0.67302 0.0
C2137 C 0.659 0.22045 0.66307 0.0
C2138 C 0.69217 0.21415 0.67351 0.0
C2139 C 0.69042 0.19557 0.6635 0.0
C2140 C 0.67288 0.18962 0.65291 0.0
C2141 C 0.65727 0.20186 0.65298 0.0
C2142 C 0.72766 0.15904 0.64399 0.0
C2143 C 0.7364 0.15558 0.66962 0.0
C2144 C 0.71275 0.17205 0.64191 0.0
C2145 C 0.70661 0.1822 0.66526 0.0
C2146 C 0.71573 0.17918 0.69065 0.0
C2147 C 0.7303 0.16588 0.69288 0.0
H2148 H 0.82132 0.64159 0.66948 0.0
H2149 H 0.77533 0.67972 0.6502 0.0
H2150 H 0.84312 0.66821 0.67082 0.0
H2151 H 0.79744 0.70638 0.65113 0.0
H2152 H 0.85044 0.74505 0.63008 0.0
H2153 H 0.82745 0.71922 0.62571 0.0
H2154 H 0.84626 0.69636 0.70362 0.0
H2155 H 0.8688 0.72205 0.70839 0.0
C2156 C 0.81581 0.6556 0.66543 0.0
C2157 C 0.79643 0.65846 0.66017 0.0
C2158 C 0.82835 0.67088 0.66623 0.0
C2159 C 0.82196 0.6894 0.66134 0.0
C2160 C 0.80277 0.69225 0.65493 0.0
C2161 C 0.79012 0.67697 0.65452 0.0
C2162 C 0.8496 0.73458 0.64635 0.0
C2163 C 0.86169 0.73561 0.66945 0.0
C2164 C 0.8364 0.71982 0.64385 0.0
C2165 C 0.83523 0.70564 0.66417 0.0
C2166 C 0.84705 0.70688 0.6874 0.0
C2167 C 0.85998 0.7217 0.69012 0.0
H2168 H 0.29541 0.86893 0.7039 0.0
H2169 H 0.27169 0.84976 0.6264 0.0
H2170 H 0.32134 0.84673 0.69877 0.0
H2171 H 0.29782 0.82708 0.62165 0.0
H2172 H 0.3383 0.7756 0.64633 0.0
H2173 H 0.3114 0.79744 0.64701 0.0
H2174 H 0.34917 0.84365 0.66566 0.0
H2175 H 0.37601 0.82211 0.66461 0.0
C2176 C 0.29566 0.86001 0.68571 0.0
C2177 C 0.28146 0.8614 0.66538 0.0
C2178 C 0.31062 0.84727 0.68278 0.0
C2179 C 0.31175 0.83531 0.65967 0.0
C2180 C 0.29732 0.83616 0.63969 0.0
C2181 C 0.28238 0.84917 0.64241 0.0
C2182 C 0.34091 0.79044 0.65034 0.0
C2183 C 0.35938 0.79697 0.65585 0.0
C2184 C 0.32548 0.80295 0.65061 0.0
C2185 C 0.32815 0.82221 0.6567 0.0
C2186 C 0.34663 0.82883 0.66132 0.0
C2187 C 0.36204 0.81643 0.6607 0.0
H2188 H 0.15026 0.29184 0.70437 0.0
H2189 H 0.16808 0.26971 0.62516 0.0
H2190 H 0.17274 0.31755 0.69998 0.0
H2191 H 0.19108 0.29562 0.62117 0.0
H2192 H 0.24316 0.33571 0.64733 0.0
H2193 H 0.22139 0.30871 0.64697 0.0
H2194 H 0.17507 0.34595 0.6674 0.0
H2195 H 0.19647 0.37284 0.66738 0.0
C2196 C 0.15895 0.29237 0.68597 0.0
C2197 C 0.15707 0.27872 0.66493 0.0
C2198 C 0.17186 0.30721 0.68348 0.0
C2199 C 0.18352 0.30875 0.6601 0.0
C2200 C 0.18224 0.2948 0.63942 0.0
C2201 C 0.16905 0.27999 0.64171 0.0
C2202 C 0.2283 0.33819 0.65148 0.0
C2203 C 0.2217 0.35651 0.65782 0.0
C2204 C 0.21584 0.32271 0.65116 0.0
C2205 C 0.19658 0.32519 0.6575 0.0
C2206 C 0.1899 0.34355 0.66286 0.0
C2207 C 0.20223 0.35899 0.66283 0.0
H2208 H 0.28909 0.12325 0.08196 0.0
H2209 H 0.25671 0.07196 0.09049 0.0
H2210 H 0.28873 0.11977 0.03177 0.0
H2211 H 0.25614 0.0684 0.03992 0.0
H2212 H 0.2926 0.10513 0.94153 0.0
H2213 H 0.29853 0.10065 0.99089 0.0
H2214 H 0.23954 0.08732 1.00345 0.0
H2215 H 0.2336 0.09175 0.95425 0.0
C2216 C 0.28245 0.11086 0.073 0.0
C2217 C 0.27322 0.09769 0.08999 0.0
C2218 C 0.28221 0.10886 0.04425 0.0
C2219 C 0.27237 0.09382 0.03176 0.0
C2220 C 0.26379 0.08017 0.0489 0.0
C2221 C 0.2643 0.08204 0.0778 0.0
C2222 C 0.28097 0.10089 0.95472 0.0
C2223 C 0.26259 0.09896 0.9439 0.0
C2224 C 0.28435 0.09841 0.98304 0.0
C2225 C 0.2695 0.0937 1.00118 0.0
C2226 C 0.25135 0.09075 0.99008 0.0
C2227 C 0.24792 0.09343 0.96185 0.0
H2228 H 0.88444 0.28377 0.9562 0.0
H2229 H 0.93171 0.2464 0.94121 0.0
H2230 H 0.8949 0.28834 1.0035 0.0
H2231 H 0.94251 0.25134 0.98871 0.0
H2232 H 0.93075 0.23903 0.08282 0.0
H2233 H 0.93076 0.24053 0.03263 0.0
H2234 H 0.91738 0.30012 0.03672 0.0
H2235 H 0.91682 0.29829 0.08725 0.0
C2236 C 0.89734 0.27684 0.96281 0.0
C2237 C 0.90709 0.26453 0.94493 0.0
C2238 C 0.90347 0.27962 0.98999 0.0
C2239 C 0.91953 0.27013 1.00015 0.0
C2240 C 0.92995 0.25869 0.98174 0.0
C2241 C 0.92383 0.25595 0.95442 0.0
C2242 C 0.92832 0.25255 0.07299 0.0
C2243 C 0.92364 0.26849 0.08893 0.0
C2244 C 0.92843 0.25347 0.04413 0.0
C2245 C 0.92376 0.27039 0.03045 0.0
C2246 C 0.92073 0.28677 0.04653 0.0
C2247 C 0.92069 0.28583 0.07551 0.0
H2248 H 0.78375 0.91885 0.95838 0.0
H2249 H 0.72374 0.91539 0.94219 0.0
H2250 H 0.77733 0.92579 1.00662 0.0
H2251 H 0.71726 0.92269 0.99076 0.0
H2252 H 0.7195 0.90421 0.08479 0.0
H2253 H 0.72077 0.9059 0.03442 0.0
H2254 H 0.76503 0.94789 0.04013 0.0
H2255 H 0.76383 0.94579 0.09062 0.0
C2256 C 0.76914 0.91984 0.96501 0.0
C2257 C 0.75427 0.91638 0.94634 0.0
C2258 C 0.76544 0.92402 0.99275 0.0
C2259 C 0.74675 0.92484 1.00274 0.0
C2260 C 0.73183 0.92203 0.98387 0.0
C2261 C 0.73554 0.91792 0.95597 0.0
C2262 C 0.72885 0.91443 0.0752 0.0
C2263 C 0.74124 0.9252 0.0915 0.0
C2264 C 0.72968 0.91535 0.0463 0.0
C2265 C 0.74315 0.92689 0.03308 0.0
C2266 C 0.75464 0.93867 0.04957 0.0
C2267 C 0.75375 0.93775 0.07849 0.0
H2268 H 0.10033 0.72844 0.9478 0.0
H2269 H 0.10634 0.78831 0.96354 0.0
H2270 H 0.093 0.72332 0.9967 0.0
H2271 H 0.09954 0.78318 0.01202 0.0
H2272 H 0.07798 0.77366 0.09615 0.0
H2273 H 0.07637 0.77513 0.0457 0.0
H2274 H 0.10963 0.72392 0.04043 0.0
H2275 H 0.11066 0.72236 0.09088 0.0
C2276 C 0.09996 0.74052 0.96158 0.0
C2277 C 0.10405 0.75877 0.95167 0.0
C2278 C 0.09584 0.73757 0.98966 0.0
C2279 C 0.09562 0.75282 1.00845 0.0
C2280 C 0.0992 0.7711 0.99824 0.0
C2281 C 0.10331 0.77403 0.97033 0.0
C2282 C 0.08423 0.76234 0.0841 0.0
C2283 C 0.09409 0.74769 0.09726 0.0
C2284 C 0.0836 0.7633 0.05521 0.0
C2285 C 0.09311 0.74979 0.03885 0.0
C2286 C 0.10196 0.73447 0.05221 0.0
C2287 C 0.1025 0.73349 0.08114 0.0
H2288 H 0.25693 0.9462 0.43076 0.0
H2289 H 0.29398 0.89802 0.43745 0.0
H2290 H 0.2561 0.94888 0.48135 0.0
H2291 H 0.29328 0.90058 0.48775 0.0
H2292 H 0.29389 0.91269 0.57913 0.0
H2293 H 0.30042 0.91885 0.53027 0.0
H2294 H 0.24082 0.92799 0.51587 0.0
H2295 H 0.23431 0.92196 0.56446 0.0
C2296 C 0.26554 0.93673 0.44307 0.0
C2297 C 0.27582 0.92215 0.43034 0.0
C2298 C 0.26486 0.93806 0.472 0.0
C2299 C 0.27454 0.92487 0.48866 0.0
C2300 C 0.28585 0.91111 0.47566 0.0
C2301 C 0.28632 0.90966 0.44684 0.0
C2302 C 0.28223 0.91633 0.56563 0.0
C2303 C 0.26356 0.91665 0.57571 0.0
C2304 C 0.28597 0.91979 0.5376 0.0
C2305 C 0.27115 0.92388 0.51909 0.0
C2306 C 0.25261 0.92512 0.52953 0.0
C2307 C 0.24886 0.92149 0.55742 0.0
H2308 H 0.09686 0.23162 0.56262 0.0
H2309 H 0.10483 0.29146 0.57643 0.0
H2310 H 0.09066 0.2376 0.51397 0.0
H2311 H 0.0984 0.29748 0.52752 0.0
H2312 H 0.11789 0.29184 0.43428 0.0
H2313 H 0.11594 0.29117 0.48465 0.0
H2314 H 0.06955 0.25153 0.47945 0.0
H2315 H 0.07173 0.25224 0.42884 0.0
C2316 C 0.09702 0.24611 0.55538 0.0
C2317 C 0.10152 0.26104 0.57349 0.0
C2318 C 0.09329 0.24956 0.52743 0.0
C2319 C 0.09404 0.26803 0.5167 0.0
C2320 C 0.09785 0.28306 0.53502 0.0
C2321 C 0.10146 0.27962 0.5631 0.0
C2322 C 0.10677 0.28363 0.44397 0.0
C2323 C 0.09468 0.27243 0.42778 0.0
C2324 C 0.10567 0.28316 0.47284 0.0
C2325 C 0.09266 0.2712 0.48621 0.0
C2326 C 0.07984 0.26079 0.46986 0.0
C2327 C 0.08085 0.26139 0.44089 0.0
H2328 H 0.78175 0.08547 0.57457 0.0
H2329 H 0.72522 0.10871 0.57334 0.0
H2330 H 0.77995 0.07969 0.52507 0.0
H2331 H 0.7236 0.10329 0.52343 0.0
H2332 H 0.72479 0.08517 0.43189 0.0
H2333 H 0.72381 0.08143 0.48243 0.0
H2334 H 0.78114 0.10223 0.4877 0.0
H2335 H 0.78209 0.10588 0.43825 0.0
C2336 C 0.76881 0.08911 0.56382 0.0
C2337 C 0.75374 0.09782 0.57794 0.0
C2338 C 0.7678 0.08585 0.53536 0.0
C2339 C 0.75176 0.09133 0.5201 0.0
C2340 C 0.73614 0.09881 0.5345 0.0
C2341 C 0.7371 0.102 0.56314 0.0
C2342 C 0.73729 0.08852 0.44386 0.0
C2343 C 0.75354 0.0958 0.43082 0.0
C2344 C 0.73668 0.08653 0.47283 0.0
C2345 C 0.75242 0.09147 0.48921 0.0
C2346 C 0.76885 0.09795 0.4759 0.0
C2347 C 0.76936 0.10013 0.44729 0.0
H2348 H 0.92952 0.78102 0.57234 0.0
H2349 H 0.90157 0.72674 0.56972 0.0
H2350 H 0.93595 0.77885 0.52303 0.0
H2351 H 0.90739 0.72486 0.52001 0.0
H2352 H 0.9251 0.72372 0.4295 0.0
H2353 H 0.92843 0.72263 0.48004 0.0
H2354 H 0.9161 0.78244 0.48416 0.0
H2355 H 0.91334 0.78348 0.4345 0.0
C2356 C 0.9249 0.76851 0.56128 0.0
C2357 C 0.91481 0.75417 0.57496 0.0
C2358 C 0.92851 0.76729 0.53291 0.0
C2359 C 0.92188 0.75184 0.51728 0.0
C2360 C 0.91282 0.73692 0.5313 0.0
C2361 C 0.90939 0.73805 0.55984 0.0
C2362 C 0.92362 0.73667 0.44126 0.0
C2363 C 0.9188 0.75368 0.42793 0.0
C2364 C 0.92531 0.73603 0.47024 0.0
C2365 C 0.92246 0.75243 0.48636 0.0
C2366 C 0.91866 0.76954 0.47267 0.0
C2367 C 0.91688 0.77013 0.44399 0.0
H2368 H 0.79342 0.61485 0.58476 0.0
H2369 H 0.74883 0.57368 0.59245 0.0
H2370 H 0.7923 0.61188 0.53448 0.0
H2371 H 0.74774 0.57035 0.54205 0.0
H2372 H 0.79052 0.59907 0.44315 0.0
H2373 H 0.79626 0.59324 0.49228 0.0
H2374 H 0.73597 0.59165 0.50678 0.0
H2375 H 0.73026 0.59717 0.45794 0.0
C2376 C 0.78397 0.60452 0.57561 0.0
C2377 C 0.77151 0.59418 0.59236 0.0
C2378 C 0.78325 0.60284 0.5468 0.0
C2379 C 0.76982 0.59097 0.5341 0.0
C2380 C 0.75812 0.57977 0.55109 0.0
C2381 C 0.75892 0.58142 0.57995 0.0
C2382 C 0.7785 0.59716 0.45676 0.0
C2383 C 0.75993 0.59874 0.44656 0.0
C2384 C 0.7818 0.59391 0.48497 0.0
C2385 C 0.76659 0.59201 0.5036 0.0
C2386 C 0.74805 0.59277 0.4931 0.0
C2387 C 0.74476 0.59611 0.46502 0.0
H2388 H 0.42041 0.79053 0.43972 0.0
H2389 H 0.41679 0.73029 0.45363 0.0
H2390 H 0.42665 0.79542 0.48894 0.0
H2391 H 0.42245 0.73517 0.50252 0.0
H2392 H 0.44095 0.74493 0.58831 0.0
H2393 H 0.44393 0.74377 0.53797 0.0
H2394 H 0.40921 0.79393 0.53156 0.0
H2395 H 0.40688 0.79524 0.58193 0.0
C2396 C 0.42112 0.77831 0.45317 0.0
C2397 C 0.41797 0.76002 0.44263 0.0
C2398 C 0.42459 0.78113 0.48146 0.0
C2399 C 0.42503 0.76572 0.49991 0.0
C2400 C 0.42255 0.7474 0.48907 0.0
C2401 C 0.41912 0.7446 0.4609 0.0
C2402 C 0.43467 0.75612 0.57607 0.0
C2403 C 0.42405 0.77041 0.58888 0.0
C2404 C 0.43608 0.75532 0.54721 0.0
C2405 C 0.42659 0.7686 0.5305 0.0
C2406 C 0.41691 0.78357 0.54359 0.0
C2407 C 0.4156 0.78441 0.57248 0.0
H2408 H 0.2746 0.42898 0.44505 0.0
H2409 H 0.23211 0.38595 0.45772 0.0
H2410 H 0.27114 0.43895 0.49322 0.0
H2411 H 0.22879 0.39577 0.50571 0.0
H2412 H 0.22148 0.41909 0.59062 0.0
H2413 H 0.21983 0.42013 0.54001 0.0
H2414 H 0.28082 0.42312 0.5361 0.0
H2415 H 0.28233 0.42227 0.58629 0.0
C2416 C 0.26421 0.42194 0.45789 0.0
C2417 C 0.25376 0.40654 0.44757 0.0
C2418 C 0.2623 0.42758 0.48556 0.0
C2419 C 0.24978 0.41808 0.50345 0.0
C2420 C 0.23843 0.40354 0.49254 0.0
C2421 C 0.24045 0.39781 0.46501 0.0
C2422 C 0.23445 0.42064 0.57892 0.0
C2423 C 0.25205 0.42044 0.59238 0.0
C2424 C 0.23354 0.42103 0.54992 0.0
C2425 C 0.25021 0.42148 0.53392 0.0
C2426 C 0.26769 0.42288 0.54764 0.0
C2427 C 0.26858 0.42227 0.57647 0.0
H2428 H 0.57122 0.26062 0.5919 0.0
H2429 H 0.62149 0.22649 0.58452 0.0
H2430 H 0.56821 0.2612 0.54129 0.0
H2431 H 0.61859 0.22691 0.53426 0.0
H2432 H 0.59279 0.28302 0.45627 0.0
H2433 H 0.58772 0.27712 0.50532 0.0
H2434 H 0.60004 0.21791 0.49282 0.0
H2435 H 0.60521 0.22381 0.4436 0.0
C2436 C 0.58117 0.25265 0.57944 0.0
C2437 C 0.59638 0.24323 0.59197 0.0
C2438 C 0.57962 0.25317 0.55051 0.0
C2439 C 0.59319 0.24413 0.53367 0.0
C2440 C 0.60774 0.23379 0.54649 0.0
C2441 C 0.60941 0.23351 0.57528 0.0
C2442 C 0.59413 0.26867 0.46384 0.0
C2443 C 0.59958 0.25392 0.44596 0.0
C2444 C 0.59108 0.26526 0.492 0.0
C2445 C 0.59354 0.24705 0.50309 0.0
C2446 C 0.59818 0.23214 0.485 0.0
C2447 C 0.60106 0.23551 0.45674 0.0
H2448 H 0.78929 0.39539 0.93696 0.0
H2449 H 0.7541 0.44501 0.93145 0.0
H2450 H 0.78944 0.39793 0.98725 0.0
H2451 H 0.75414 0.44769 0.9821 0.0
H2452 H 0.79281 0.41007 0.07822 0.0
H2453 H 0.79833 0.41585 0.02904 0.0
H2454 H 0.73892 0.4279 0.01792 0.0
H2455 H 0.73342 0.42228 0.06691 0.0
C2456 C 0.78219 0.40729 0.9466 0.0
C2457 C 0.772 0.42022 0.93042 0.0
C2458 C 0.78223 0.40874 0.97543 0.0
C2459 C 0.77174 0.42298 0.98881 0.0
C2460 C 0.76228 0.43651 0.97246 0.0
C2461 C 0.76246 0.43516 0.94349 0.0
C2462 C 0.78098 0.41429 0.06539 0.0
C2463 C 0.76264 0.41554 0.07654 0.0
C2464 C 0.78414 0.41752 0.03716 0.0
C2465 C 0.76906 0.42227 0.01944 0.0
C2466 C 0.75091 0.42448 0.03093 0.0
C2467 C 0.74773 0.4211 0.05906 0.0
H2468 H 0.59945 0.79034 0.0774 0.0
H2469 H 0.60108 0.73015 0.0621 0.0
H2470 H 0.59271 0.79586 0.02845 0.0
H2471 H 0.59476 0.73564 0.01348 0.0
H2472 H 0.61248 0.79483 0.93501 0.0
H2473 H 0.61032 0.79357 0.98539 0.0
H2474 H 0.5725 0.74573 0.97906 0.0
H2475 H 0.57514 0.74689 0.92865 0.0
C2476 C 0.59817 0.77828 0.06371 0.0
C2477 C 0.60095 0.75981 0.07373 0.0
C2478 C 0.5944 0.78145 0.0356 0.0
C2479 C 0.59319 0.76622 0.01688 0.0
C2480 C 0.59527 0.74774 0.02722 0.0
C2481 C 0.59908 0.74458 0.05519 0.0
C2482 C 0.60308 0.7846 0.94447 0.0
C2483 C 0.59365 0.77122 0.92807 0.0
C2484 C 0.60189 0.78378 0.97336 0.0
C2485 C 0.59139 0.76941 0.98643 0.0
C2486 C 0.58093 0.75682 0.96977 0.0
C2487 C 0.58216 0.75765 0.94089 0.0
H2488 H 0.28634 0.60172 0.05675 0.0
H2489 H 0.22614 0.60028 0.07223 0.0
H2490 H 0.28074 0.59516 1.00819 0.0
H2491 H 0.22052 0.59335 0.02334 0.0
H2492 H 0.26926 0.57517 0.92362 0.0
H2493 H 0.27034 0.57259 0.97404 0.0
H2494 H 0.22301 0.61109 0.98022 0.0
H2495 H 0.22185 0.61323 0.92983 0.0
C2496 C 0.27189 0.59972 0.04989 0.0
C2497 C 0.25669 0.60169 0.06846 0.0
C2498 C 0.26867 0.59577 0.02197 0.0
C2499 C 0.25016 0.59369 0.01172 0.0
C2500 C 0.23495 0.59502 0.03046 0.0
C2501 C 0.23818 0.5989 0.05852 0.0
C2502 C 0.25857 0.58234 0.93583 0.0
C2503 C 0.2452 0.59404 0.92297 0.0
C2504 C 0.25936 0.58114 0.9647 0.0
C2505 C 0.24691 0.59182 0.9813 0.0
C2506 C 0.23268 0.6025 0.96821 0.0
C2507 C 0.23192 0.60368 0.93933 0.0
H2508 H 0.44618 0.25807 0.93272 0.0
H2509 H 0.39555 0.22463 0.94114 0.0
H2510 H 0.44969 0.25868 0.98325 0.0
H2511 H 0.39894 0.2251 0.99132 0.0
H2512 H 0.41254 0.2225 0.08178 0.0
H2513 H 0.41755 0.21613 0.03262 0.0
H2514 H 0.43069 0.27506 0.01929 0.0
H2515 H 0.4258 0.28141 0.06826 0.0
C2516 C 0.43626 0.25024 0.94538 0.0
C2517 C 0.4208 0.24102 0.93317 0.0
C2518 C 0.4381 0.25078 0.97427 0.0
C2519 C 0.42456 0.24198 0.99139 0.0
C2520 C 0.40977 0.23179 0.97887 0.0
C2521 C 0.40782 0.23149 0.95012 0.0
C2522 C 0.41685 0.23402 0.06847 0.0
C2523 C 0.41859 0.2525 0.07899 0.0
C2524 C 0.41964 0.23039 0.04025 0.0
C2525 C 0.42444 0.24509 0.02194 0.0
C2526 C 0.4272 0.26335 0.03278 0.0
C2527 C 0.42425 0.26701 0.0609 0.0
H2528 H 0.28882 0.04342 0.2089 0.0
H2529 H 0.22954 0.05248 0.22566 0.0
H2530 H 0.28854 0.01559 0.23851 0.0
H2531 H 0.22938 0.02535 0.25649 0.0
H2532 H 0.22972 0.96585 0.2921 0.0
H2533 H 0.22974 0.99307 0.26144 0.0
H2534 H 0.28802 1.00436 0.28317 0.0
H2535 H 0.28818 0.97645 0.31263 0.0
C2536 C 0.27571 0.0395 0.21899 0.0
C2537 C 0.25918 0.05019 0.21469 0.0
C2538 C 0.27557 0.02358 0.23633 0.0
C2539 C 0.25896 0.01801 0.25034 0.0
C2540 C 0.24242 0.02876 0.24587 0.0
C2541 C 0.2425 0.04448 0.22817 0.0
C2542 C 0.24252 0.97421 0.29047 0.0
C2543 C 0.25894 0.9689 0.30494 0.0
C2544 C 0.24253 0.98998 0.27287 0.0
C2545 C 0.2589 1.00118 0.26948 0.0
C2546 C 0.27521 0.99602 0.28451 0.0
C2547 C 0.27527 0.98005 0.30176 0.0
H2548 H 0.96628 0.22726 0.21638 0.0
H2549 H 0.97194 0.28787 0.21044 0.0
H2550 H 0.99318 0.22615 0.24779 0.0
H2551 H 0.9995 0.2868 0.24047 0.0
H2552 H 0.03854 0.28323 0.31405 0.0
H2553 H 0.01058 0.28351 0.28469 0.0
H2554 H 0.02528 0.22792 0.25405 0.0
H2555 H 0.05253 0.22731 0.28468 0.0
C2556 C 0.97349 0.24034 0.22141 0.0
C2557 C 0.9669 0.25765 0.21082 0.0
C2558 C 0.98906 0.23973 0.23943 0.0
C2559 C 0.99877 0.25639 0.24708 0.0
C2560 C 0.99231 0.27366 0.23589 0.0
C2561 C 0.97654 0.27429 0.2183 0.0
C2562 C 0.03566 0.27098 0.30127 0.0
C2563 C 0.0478 0.25522 0.30191 0.0
C2564 C 0.01966 0.2712 0.28406 0.0
C2565 C 0.01548 0.25581 0.26647 0.0
C2566 C 0.02761 0.23996 0.26743 0.0
C2567 C 0.0434 0.23962 0.28502 0.0
H2568 H 0.78658 0.05099 0.30304 0.0
H2569 H 0.72631 0.04378 0.31248 0.0
H2570 H 0.78755 0.02419 0.27142 0.0
H2571 H 0.7273 0.01631 0.28218 0.0
H2572 H 0.72995 0.97785 0.20772 0.0
H2573 H 0.72972 1.00557 0.23759 0.0
H2574 H 0.7864 0.99204 0.2649 0.0
H2575 H 0.78689 0.96499 0.23378 0.0
C2576 C 0.77355 0.04346 0.29875 0.0
C2577 C 0.75637 0.04959 0.31039 0.0
C2578 C 0.77409 0.02794 0.28059 0.0
C2579 C 0.75749 0.01784 0.27383 0.0
C2580 C 0.74037 0.02382 0.28608 0.0
C2581 C 0.7398 0.03953 0.30383 0.0
C2582 C 0.74244 0.98092 0.21989 0.0
C2583 C 0.75846 0.96917 0.21816 0.0
C2584 C 0.74226 0.99678 0.23739 0.0
C2585 C 0.75798 1.00123 0.25419 0.0
C2586 C 0.77408 0.98949 0.25216 0.0
C2587 C 0.77436 0.97382 0.23428 0.0
H2588 H 0.04897 0.78891 0.22397 0.0
H2589 H 0.04267 0.72837 0.21752 0.0
H2590 H 0.02165 0.79029 0.2547 0.0
H2591 H 0.01478 0.72973 0.24687 0.0
H2592 H 0.97533 0.73339 0.31963 0.0
H2593 H 1.00373 0.73319 0.29119 0.0
H2594 H 0.98924 0.78863 0.25995 0.0
H2595 H 0.96144 0.78914 0.28967 0.0
C2596 C 0.04155 0.77591 0.22876 0.0
C2597 C 0.04807 0.75853 0.21826 0.0
C2598 C 0.02576 0.77668 0.24638 0.0
C2599 C 0.01581 0.76011 0.25369 0.0
C2600 C 0.02218 0.74279 0.24255 0.0
C2601 C 0.03814 0.742 0.22536 0.0
C2602 C 0.97835 0.74563 0.30693 0.0
C2603 C 0.96608 0.7613 0.30707 0.0
C2604 C 0.99459 0.74546 0.29025 0.0
C2605 C 0.99892 0.7608 0.27271 0.0
C2606 C 0.98674 0.77661 0.27328 0.0
C2607 C 0.97066 0.77691 0.29035 0.0
H2608 H 0.80247 0.97685 0.83279 0.0
H2609 H 0.77932 0.95389 0.75731 0.0
H2610 H 0.80347 0.00835 0.8116 0.0
H2611 H 0.78092 0.98525 0.73595 0.0
H2612 H 0.80607 0.04293 0.70279 0.0
H2613 H 0.80847 0.01143 0.72388 0.0
H2614 H 0.77438 0.03037 0.79249 0.0
H2615 H 0.77144 0.06161 0.77112 0.0
C2616 C 0.79794 0.97845 0.81154 0.0
C2617 C 0.79083 0.96286 0.79673 0.0
C2618 C 0.79843 0.99648 0.79948 0.0
C2619 C 0.79229 0.99922 0.77213 0.0
C2620 C 0.78584 0.98352 0.757 0.0
C2621 C 0.78489 0.9656 0.76926 0.0
C2622 C 0.79921 0.0404 0.72246 0.0
C2623 C 0.78856 0.05476 0.73527 0.0
C2624 C 0.80053 0.02237 0.73445 0.0
C2625 C 0.79166 0.0185 0.75985 0.0
C2626 C 0.78147 0.03301 0.77301 0.0
C2627 C 0.77973 0.05085 0.76071 0.0
H2628 H 0.95567 0.77749 0.76756 0.0
H2629 H 0.97601 0.80423 0.69321 0.0
H2630 H 0.98696 0.78008 0.78804 0.0
H2631 H 1.00776 0.80562 0.71266 0.0
H2632 H 0.06249 0.81568 0.75823 0.0
H2633 H 0.02985 0.8178 0.74216 0.0
H2634 H 0.01625 0.76717 0.78827 0.0
H2635 H 0.04837 0.76601 0.80563 0.0
C2636 C 0.96692 0.78389 0.75555 0.0
C2637 C 0.96335 0.79066 0.72877 0.0
C2638 C 0.98502 0.7852 0.76717 0.0
C2639 C 1.0003 0.79282 0.75206 0.0
C2640 C 0.99653 0.79992 0.72535 0.0
C2641 C 0.97826 0.79905 0.71402 0.0
C2642 C 0.05239 0.80521 0.76522 0.0
C2643 C 0.05804 0.79076 0.78335 0.0
C2644 C 0.03363 0.80626 0.75575 0.0
C2645 C 0.02009 0.79261 0.76362 0.0
C2646 C 0.02587 0.77828 0.78206 0.0
C2647 C 0.04446 0.77751 0.792 0.0
H2648 H 0.23913 0.95387 0.76556 0.0
H2649 H 0.21331 0.97622 0.69163 0.0
H2650 H 0.23695 0.9851 0.78737 0.0
H2651 H 0.21175 1.00763 0.71324 0.0
H2652 H 0.24391 0.06147 0.75329 0.0
H2653 H 0.24124 0.03029 0.73155 0.0
H2654 H 0.20825 0.01048 0.80069 0.0
H2655 H 0.21034 0.04194 0.82215 0.0
C2656 C 0.23285 0.96541 0.75406 0.0
C2657 C 0.22634 0.96256 0.72689 0.0
C2658 C 0.23157 0.98325 0.76658 0.0
C2659 C 0.22419 0.99875 0.75198 0.0
C2660 C 0.21749 0.9959 0.72494 0.0
C2661 C 0.21831 0.97792 0.71265 0.0
C2662 C 0.2359 0.05054 0.76373 0.0
C2663 C 0.22731 0.05418 0.78943 0.0
C2664 C 0.23432 0.03273 0.75122 0.0
C2665 C 0.22453 0.018 0.76443 0.0
C2666 C 0.21587 0.02161 0.79008 0.0
C2667 C 0.21702 0.0396 0.80228 0.0
H2668 H 0.97559 0.21313 0.82154 0.0
H2669 H 0.95473 0.23884 0.7466 0.0
H2670 H 1.00716 0.21048 0.80069 0.0
H2671 H 0.98609 0.23566 0.72561 0.0
H2672 H 0.04227 0.20956 0.69109 0.0
H2673 H 0.01063 0.20789 0.71199 0.0
H2674 H 0.03121 0.23769 0.78375 0.0
H2675 H 0.06261 0.23987 0.76266 0.0
C2676 C 0.97765 0.21788 0.80047 0.0
C2677 C 0.96265 0.22621 0.78573 0.0
C2678 C 0.99573 0.21644 0.78861 0.0
C2679 C 0.99907 0.22284 0.76152 0.0
C2680 C 0.9839 0.23049 0.74644 0.0
C2681 C 0.96597 0.23236 0.75851 0.0
C2682 C 0.04008 0.21557 0.71144 0.0
C2683 C 0.05495 0.22486 0.7252 0.0
C2684 C 0.02197 0.21468 0.72333 0.0
C2685 C 0.01849 0.22263 0.74952 0.0
C2686 C 0.03352 0.23132 0.76366 0.0
C2687 C 0.05147 0.23262 0.75151 0.0
H2688 H 0.72529 0.55269 0.72755 0.0
H2689 H 0.78448 0.54261 0.71118 0.0
H2690 H 0.72454 0.52534 0.75809 0.0
H2691 H 0.78361 0.51474 0.7406 0.0
H2692 H 0.78263 0.47622 0.81503 0.0
H2693 H 0.78259 0.50428 0.78594 0.0
H2694 H 0.72474 0.49264 0.76237 0.0
H2695 H 0.72458 0.46511 0.79256 0.0
C2696 C 0.73809 0.54445 0.7301 0.0
C2697 C 0.75495 0.54993 0.71685 0.0
C2698 C 0.73767 0.52864 0.74763 0.0
C2699 C 0.75404 0.51765 0.7522 0.0
C2700 C 0.77078 0.52296 0.73833 0.0
C2701 C 0.77126 0.53891 0.72112 0.0
C2702 C 0.76983 0.47976 0.80386 0.0
C2703 C 0.75359 0.46836 0.80628 0.0
C2704 C 0.76985 0.49581 0.78683 0.0
C2705 C 0.75373 0.50085 0.77132 0.0
C2706 C 0.73739 0.48954 0.77413 0.0
C2707 C 0.7373 0.47363 0.79146 0.0
H2708 H 0.55288 0.72707 0.79012 0.0
H2709 H 0.54216 0.78556 0.81035 0.0
H2710 H 0.52563 0.72698 0.75936 0.0
H2711 H 0.51431 0.7853 0.78077 0.0
H2712 H 0.4759 0.78623 0.70612 0.0
H2713 H 0.50375 0.78568 0.73564 0.0
H2714 H 0.49311 0.72684 0.75436 0.0
H2715 H 0.46583 0.72726 0.72365 0.0
C2716 C 0.5445 0.73984 0.78839 0.0
C2717 C 0.54978 0.75632 0.80278 0.0
C2718 C 0.52874 0.7398 0.77073 0.0
C2719 C 0.51757 0.75616 0.76719 0.0
C2720 C 0.52267 0.7725 0.78221 0.0
C2721 C 0.53859 0.77262 0.79952 0.0
C2722 C 0.47961 0.77312 0.71634 0.0
C2723 C 0.46859 0.75678 0.71236 0.0
C2724 C 0.49555 0.77283 0.73363 0.0
C2725 C 0.50083 0.75626 0.74789 0.0
C2726 C 0.48985 0.73985 0.74359 0.0
C2727 C 0.47407 0.74008 0.72596 0.0
H2728 H 0.29079 0.46415 0.72317 0.0
H2729 H 0.23175 0.47388 0.70551 0.0
H2730 H 0.29125 0.49201 0.75285 0.0
H2731 H 0.23234 0.50227 0.73391 0.0
H2732 H 0.23233 0.54193 0.80706 0.0
H2733 H 0.23271 0.51357 0.77857 0.0
H2734 H 0.29105 0.52461 0.75692 0.0
H2735 H 0.29084 0.55242 0.78667 0.0
C2736 C 0.27798 0.47244 0.72521 0.0
C2737 C 0.26123 0.4667 0.71192 0.0
C2738 C 0.27823 0.48855 0.74225 0.0
C2739 C 0.26179 0.49958 0.7462 0.0
C2740 C 0.2452 0.49404 0.73218 0.0
C2741 C 0.24488 0.47779 0.71553 0.0
C2742 C 0.2453 0.53821 0.79641 0.0
C2743 C 0.26157 0.54949 0.7993 0.0
C2744 C 0.24549 0.52197 0.77972 0.0
C2745 C 0.26186 0.51664 0.76493 0.0
C2746 C 0.27821 0.5279 0.76813 0.0
C2747 C 0.27809 0.54398 0.78519 0.0
H2748 H 0.46502 0.28573 0.79719 0.0
H2749 H 0.4745 0.22655 0.8139 0.0
H2750 H 0.49211 0.28604 0.76622 0.0
H2751 H 0.50232 0.22699 0.78417 0.0
H2752 H 0.54154 0.22759 0.70996 0.0
H2753 H 0.51367 0.22752 0.7396 0.0
H2754 H 0.52433 0.28596 0.76101 0.0
H2755 H 0.55147 0.28621 0.73015 0.0
C2756 C 0.47311 0.27283 0.79464 0.0
C2757 C 0.46753 0.25613 0.80815 0.0
C2758 C 0.48881 0.273 0.77687 0.0
C2759 C 0.49969 0.25653 0.77235 0.0
C2760 C 0.49424 0.23991 0.78639 0.0
C2761 C 0.47832 0.23967 0.80379 0.0
C2762 C 0.5378 0.24048 0.72081 0.0
C2763 C 0.54875 0.25694 0.71746 0.0
C2764 C 0.52186 0.24041 0.73816 0.0
C2765 C 0.51653 0.25671 0.75315 0.0
C2766 C 0.52754 0.27318 0.74962 0.0
C2767 C 0.54328 0.27333 0.7319 0.0
H2768 H 0.3143 0.56255 0.26138 0.0
H2769 H 0.26439 0.54844 0.21437 0.0
H2770 H 0.31664 0.52987 0.27711 0.0
H2771 H 0.2659 0.51619 0.23124 0.0
H2772 H 0.27746 0.45558 0.25034 0.0
H2773 H 0.27979 0.48704 0.23041 0.0
H2774 H 0.30405 0.50775 0.30676 0.0
H2775 H 0.30278 0.47588 0.32584 0.0
C2776 C 0.30382 0.55245 0.2544 0.0
C2777 C 0.28922 0.55812 0.23651 0.0
C2778 C 0.30502 0.53367 0.26364 0.0
C2779 C 0.29142 0.52011 0.2557 0.0
C2780 C 0.27695 0.52588 0.23749 0.0
C2781 C 0.27598 0.54453 0.22785 0.0
C2782 C 0.28353 0.46683 0.2627 0.0
C2783 C 0.28993 0.46322 0.28967 0.0
C2784 C 0.28469 0.48501 0.25138 0.0
C2785 C 0.29186 0.50029 0.26695 0.0
C2786 C 0.29868 0.49648 0.29379 0.0
C2787 C 0.2979 0.47816 0.30488 0.0
H2788 H 0.56251 0.27018 0.25585 0.0
H2789 H 0.54377 0.3049 0.32406 0.0
H2790 H 0.531 0.2725 0.23491 0.0
H2791 H 0.51203 0.30658 0.30346 0.0
H2792 H 0.45553 0.27305 0.26908 0.0
H2793 H 0.48711 0.27482 0.28988 0.0
H2794 H 0.50765 0.30477 0.21835 0.0
H2795 H 0.47585 0.30365 0.19783 0.0
C2796 C 0.55168 0.27835 0.26632 0.0
C2797 C 0.55565 0.2874 0.29158 0.0
C2798 C 0.5337 0.27971 0.25428 0.0
C2799 C 0.51914 0.28972 0.26759 0.0
C2800 C 0.52305 0.29881 0.2928 0.0
C2801 C 0.5412 0.29788 0.3045 0.0
C2802 C 0.46671 0.28022 0.25791 0.0
C2803 C 0.46318 0.28826 0.23183 0.0
C2804 C 0.48475 0.28126 0.26987 0.0
C2805 C 0.49976 0.28993 0.2557 0.0
C2806 C 0.49627 0.29804 0.22968 0.0
C2807 C 0.47809 0.29745 0.21802 0.0
H2808 H 0.71911 0.53424 0.33443 0.0
H2809 H 0.73602 0.55993 0.25735 0.0
H2810 H 0.71854 0.50318 0.31195 0.0
H2811 H 0.73492 0.52889 0.23478 0.0
H2812 H 0.71113 0.47041 0.20215 0.0
H2813 H 0.70901 0.50162 0.22428 0.0
H2814 H 0.74641 0.48269 0.28902 0.0
H2815 H 0.74899 0.45175 0.26661 0.0
C2816 C 0.72239 0.53332 0.3126 0.0
C2817 C 0.7276 0.54959 0.2977 0.0
C2818 C 0.72217 0.51552 0.29979 0.0
C2819 C 0.7267 0.51361 0.27162 0.0
C2820 C 0.73126 0.52994 0.25647 0.0
C2821 C 0.73193 0.5477 0.26943 0.0
C2822 C 0.71882 0.47289 0.22117 0.0
C2823 C 0.73023 0.45859 0.23261 0.0
C2824 C 0.71767 0.49077 0.23375 0.0
C2825 C 0.72751 0.49457 0.25841 0.0
C2826 C 0.73857 0.48014 0.27014 0.0
C2827 C 0.7401 0.46245 0.25724 0.0
H2828 H 0.45509 0.74517 0.25278 0.0
H2829 H 0.4746 0.70985 0.31972 0.0
H2830 H 0.48597 0.74235 0.23035 0.0
H2831 H 0.50578 0.70748 0.29747 0.0
H2832 H 0.56327 0.73529 0.26279 0.0
H2833 H 0.53233 0.73354 0.28545 0.0
H2834 H 0.50715 0.71468 0.20906 0.0
H2835 H 0.53818 0.71594 0.18648 0.0
C2836 C 0.46597 0.73676 0.26268 0.0
C2837 C 0.46238 0.72773 0.28804 0.0
C2838 C 0.48361 0.73509 0.24975 0.0
C2839 C 0.49827 0.72469 0.26214 0.0
C2840 C 0.49473 0.71561 0.28748 0.0
C2841 C 0.47688 0.7169 0.30013 0.0
C2842 C 0.55119 0.7305 0.25092 0.0
C2843 C 0.55321 0.72573 0.22281 0.0
C2844 C 0.5335 0.72944 0.26394 0.0
C2845 C 0.51733 0.72401 0.24901 0.0
C2846 C 0.51937 0.71896 0.22104 0.0
C2847 C 0.53715 0.7196 0.20817 0.0
H2848 H 0.1998 0.16036 0.19035 0.0
H2849 H 0.23727 0.15919 0.26092 0.0
H2850 H 0.17815 0.18092 0.21549 0.0
H2851 H 0.21538 0.17979 0.28616 0.0
H2852 H 0.16081 0.19965 0.33044 0.0
H2853 H 0.18197 0.17846 0.30546 0.0
H2854 H 0.1786 0.21458 0.23376 0.0
H2855 H 0.15741 0.23598 0.25883 0.0
C2856 C 0.20339 0.16437 0.2113 0.0
C2857 C 0.22031 0.1581 0.22363 0.0
C2858 C 0.19101 0.17628 0.22561 0.0
C2859 C 0.19511 0.18204 0.25272 0.0
C2860 C 0.21182 0.17549 0.26531 0.0
C2861 C 0.22436 0.16374 0.25085 0.0
C2862 C 0.16447 0.20308 0.3093 0.0
C2863 C 0.15738 0.21953 0.29661 0.0
C2864 C 0.17672 0.19098 0.29508 0.0
C2865 C 0.182 0.19489 0.26772 0.0
C2866 C 0.17468 0.21115 0.25481 0.0
C2867 C 0.16259 0.22342 0.26917 0.0
H2868 H 0.84405 0.20857 0.18014 0.0
H2869 H 0.86143 0.23117 0.25898 0.0
H2870 H 0.82145 0.18803 0.20288 0.0
H2871 H 0.83973 0.20956 0.28231 0.0
H2872 H 0.78937 0.1795 0.3177 0.0
H2873 H 0.80914 0.20209 0.29325 0.0
H2874 H 0.81773 0.16101 0.22799 0.0
H2875 H 0.79673 0.13905 0.25179 0.0
C2876 C 0.84318 0.20893 0.20249 0.0
C2877 C 0.85455 0.22139 0.21785 0.0
C2878 C 0.83028 0.197 0.21562 0.0
C2879 C 0.8287 0.19684 0.24461 0.0
C2880 C 0.84015 0.20942 0.25996 0.0
C2881 C 0.85274 0.22175 0.24668 0.0
C2882 C 0.79529 0.17548 0.29787 0.0
C2883 C 0.79149 0.15759 0.28652 0.0
C2884 C 0.80686 0.18834 0.28397 0.0
C2885 C 0.81538 0.18347 0.25865 0.0
C2886 C 0.81126 0.16556 0.24714 0.0
C2887 C 0.79924 0.15286 0.26077 0.0
H2888 H 0.83373 0.79046 0.3152 0.0
H2889 H 0.87573 0.79908 0.25175 0.0
H2890 H 0.81195 0.8112 0.29091 0.0
H2891 H 0.85455 0.82097 0.2282 0.0
H2892 H 0.80762 0.84851 0.17957 0.0
H2893 H 0.82805 0.82567 0.20201 0.0
H2894 H 0.80523 0.84223 0.28149 0.0
H2895 H 0.7838 0.8642 0.25847 0.0
C2896 C 0.83827 0.79684 0.29595 0.0
C2897 C 0.85636 0.7931 0.28524 0.0
C2898 C 0.82587 0.80898 0.28216 0.0
C2899 C 0.83141 0.81812 0.25762 0.0
C2900 C 0.8495 0.81405 0.24673 0.0
C2901 C 0.86174 0.80151 0.26022 0.0
C2902 C 0.807 0.84728 0.20187 0.0
C2903 C 0.79414 0.85818 0.2173 0.0
C2904 C 0.81884 0.83421 0.21484 0.0
C2905 C 0.8185 0.83196 0.24373 0.0
C2906 C 0.80572 0.84313 0.25918 0.0
C2907 C 0.79351 0.8559 0.24606 0.0
H2908 H 0.22814 0.86852 0.26015 0.0
H2909 H 0.20651 0.85047 0.33924 0.0
H2910 H 0.2053 0.84811 0.23692 0.0
H2911 H 0.18468 0.82913 0.31645 0.0
H2912 H 0.13584 0.8035 0.26891 0.0
H2913 H 0.15738 0.82545 0.29177 0.0
H2914 H 0.19794 0.81757 0.22565 0.0
H2915 H 0.17579 0.79683 0.20217 0.0
C2916 C 0.21858 0.86006 0.27253 0.0
C2917 C 0.21903 0.86119 0.30145 0.0
C2918 C 0.20556 0.84818 0.25928 0.0
C2919 C 0.19301 0.83675 0.27468 0.0
C2920 C 0.19366 0.83792 0.3037 0.0
C2921 C 0.20633 0.85012 0.31686 0.0
C2922 C 0.1494 0.80648 0.25942 0.0
C2923 C 0.15413 0.79851 0.23379 0.0
C2924 C 0.16186 0.81902 0.27254 0.0
C2925 C 0.17955 0.82349 0.26065 0.0
C2926 C 0.18434 0.81502 0.23525 0.0
C2927 C 0.17171 0.80291 0.22186 0.0
H2928 H 0.86631 0.82832 0.68903 0.0
H2929 H 0.87605 0.79491 0.76226 0.0
H2930 H 0.84643 0.84973 0.71528 0.0
H2931 H 0.855 0.81551 0.78827 0.0
H2932 H 0.82869 0.86349 0.83583 0.0
H2933 H 0.85024 0.84386 0.80956 0.0
H2934 H 0.81769 0.85477 0.73557 0.0
H2935 H 0.79695 0.87563 0.76176 0.0
C2936 C 0.86418 0.82547 0.71077 0.0
C2937 C 0.87302 0.80991 0.72349 0.0
C2938 C 0.85248 0.8377 0.72588 0.0
C2939 C 0.84883 0.83454 0.75413 0.0
C2940 C 0.85764 0.81885 0.7668 0.0
C2941 C 0.8697 0.80686 0.75179 0.0
C2942 C 0.82624 0.86195 0.81389 0.0
C2943 C 0.81111 0.87141 0.80098 0.0
C2944 C 0.83854 0.85037 0.79874 0.0
C2945 C 0.83588 0.84743 0.7702 0.0
C2946 C 0.82063 0.85685 0.75731 0.0
C2947 C 0.80856 0.8688 0.77241 0.0
H2948 H 0.18752 0.86675 0.68824 0.0
H2949 H 0.2239 0.87398 0.75906 0.0
H2950 H 0.16631 0.84726 0.71541 0.0
H2951 H 0.20355 0.85326 0.78583 0.0
H2952 H 0.15677 0.82867 0.83667 0.0
H2953 H 0.17609 0.84959 0.80921 0.0
H2954 H 0.16021 0.81872 0.73552 0.0
H2955 H 0.1395 0.79868 0.76316 0.0
C2956 C 0.19107 0.86412 0.70963 0.0
C2957 C 0.20737 0.8722 0.72146 0.0
C2958 C 0.17895 0.85265 0.72526 0.0
C2959 C 0.18297 0.84846 0.75311 0.0
C2960 C 0.19948 0.8564 0.76479 0.0
C2961 C 0.21135 0.86826 0.74932 0.0
C2962 C 0.15712 0.82646 0.81457 0.0
C2963 C 0.14634 0.81201 0.80223 0.0
C2964 C 0.16855 0.83838 0.79868 0.0
C2965 C 0.17009 0.83597 0.76988 0.0
C2966 C 0.15929 0.82143 0.75749 0.0
C2967 C 0.14743 0.80977 0.7734 0.0
H2968 H 0.14136 0.21986 0.75893 0.0
H2969 H 0.1518 0.18635 0.68588 0.0
H2970 H 0.16198 0.19911 0.78541 0.0
H2971 H 0.17117 0.16484 0.71251 0.0
H2972 H 0.2203 0.1391 0.75907 0.0
H2973 H 0.19975 0.16005 0.73301 0.0
H2974 H 0.16676 0.17065 0.80676 0.0
H2975 H 0.18819 0.15082 0.83305 0.0
C2976 C 0.14777 0.20787 0.74859 0.0
C2977 C 0.14479 0.20484 0.72019 0.0
C2978 C 0.15957 0.1958 0.76387 0.0
C2979 C 0.16847 0.18008 0.75134 0.0
C2980 C 0.16509 0.17691 0.72302 0.0
C2981 C 0.15367 0.1892 0.70766 0.0
C2982 C 0.20863 0.14587 0.76972 0.0
C2983 C 0.20593 0.14311 0.79822 0.0
C2984 C 0.19666 0.15787 0.75467 0.0
C2985 C 0.18132 0.1672 0.76751 0.0
C2986 C 0.17851 0.16415 0.796 0.0
C2987 C 0.19074 0.15249 0.81114 0.0
H2988 H 0.86994 0.18777 0.82918 0.0
H2989 H 0.87407 0.2222 0.75582 0.0
H2990 H 0.84975 0.16559 0.80473 0.0
H2991 H 0.85287 0.20072 0.73174 0.0
H2992 H 0.82609 0.15203 0.68639 0.0
H2993 H 0.84839 0.17212 0.71056 0.0
H2994 H 0.81994 0.16001 0.78771 0.0
H2995 H 0.79844 0.13881 0.76358 0.0
C2996 C 0.86651 0.19066 0.80781 0.0
C2997 C 0.8738 0.20678 0.7945 0.0
C2998 C 0.85467 0.17799 0.79377 0.0
C2999 C 0.84939 0.18121 0.76608 0.0
C3000 C 0.85678 0.19736 0.75279 0.0
C3001 C 0.86893 0.20984 0.76669 0.0
C3002 C 0.82471 0.15341 0.70857 0.0
C3003 C 0.81048 0.14357 0.72297 0.0
C3004 C 0.83744 0.16523 0.72251 0.0
C3005 C 0.83613 0.16797 0.7513 0.0
C3006 C 0.82182 0.15811 0.76569 0.0
C3007 C 0.80932 0.14597 0.75178 0.0
H3008 H 0.73873 0.66039 0.75947 0.0
H3009 H 0.70131 0.66425 0.68907 0.0
H3010 H 0.71777 0.6815 0.78546 0.0
H3011 H 0.68054 0.6853 0.71498 0.0
H3012 H 0.66068 0.73945 0.76111 0.0
H3013 H 0.68173 0.71846 0.73502 0.0
H3014 H 0.68442 0.6805 0.80471 0.0
H3015 H 0.66344 0.70127 0.8307 0.0
C3016 C 0.72605 0.66569 0.74957 0.0
C3017 C 0.72169 0.66059 0.72223 0.0
C3018 C 0.71403 0.67773 0.76446 0.0
C3019 C 0.69755 0.6851 0.75219 0.0
C3020 C 0.69323 0.68001 0.72487 0.0
C3021 C 0.70508 0.66781 0.71012 0.0
C3022 C 0.66573 0.7266 0.77081 0.0
C3023 C 0.66034 0.72204 0.79795 0.0
C3024 C 0.67773 0.71457 0.75586 0.0
C3025 C 0.68477 0.69788 0.7679 0.0
C3026 C 0.67939 0.69335 0.79501 0.0
C3027 C 0.66724 0.70522 0.8098 0.0
H3028 H 0.28997 0.64853 0.75385 0.0
H3029 H 0.30578 0.67488 0.83084 0.0
H3030 H 0.31169 0.66925 0.72914 0.0
H3031 H 0.32615 0.69678 0.80634 0.0
H3032 H 0.37413 0.72436 0.75965 0.0
H3033 H 0.3536 0.70244 0.78439 0.0
H3034 H 0.31782 0.69809 0.71194 0.0
H3035 H 0.33946 0.71849 0.68691 0.0
C3036 C 0.29793 0.659 0.76538 0.0
C3037 C 0.29629 0.66007 0.79419 0.0
C3038 C 0.3103 0.67108 0.75124 0.0
C3039 C 0.32087 0.68498 0.76551 0.0
C3040 C 0.31882 0.6861 0.79444 0.0
C3041 C 0.30695 0.67363 0.80858 0.0
C3042 C 0.36184 0.71863 0.74921 0.0
C3043 C 0.35836 0.72302 0.72146 0.0
C3044 C 0.3499 0.70613 0.76339 0.0
C3045 C 0.33382 0.69825 0.75038 0.0
C3046 C 0.33022 0.70323 0.72268 0.0
C3047 C 0.34251 0.71517 0.70831 0.0
H3048 H 0.36673 0.28506 0.76136 0.0
H3049 H 0.3477 0.30749 0.83954 0.0
H3050 H 0.3457 0.30683 0.73719 0.0
H3051 H 0.32572 0.32819 0.81587 0.0
H3052 H 0.29983 0.376 0.76649 0.0
H3053 H 0.32155 0.35494 0.79053 0.0
H3054 H 0.31524 0.31365 0.72501 0.0
H3055 H 0.29473 0.33542 0.70029 0.0
C3056 C 0.3579 0.29455 0.77334 0.0
C3057 C 0.35897 0.2947 0.80227 0.0
C3058 C 0.34566 0.30696 0.75955 0.0
C3059 C 0.33379 0.31942 0.77442 0.0
C3060 C 0.33484 0.31928 0.80348 0.0
C3061 C 0.34741 0.30727 0.81715 0.0
C3062 C 0.30303 0.36235 0.75743 0.0
C3063 C 0.29561 0.35733 0.73158 0.0
C3064 C 0.31546 0.35016 0.77123 0.0
C3065 C 0.32037 0.33243 0.75983 0.0
C3066 C 0.31235 0.32729 0.73427 0.0
C3067 C 0.30035 0.33968 0.72018 0.0
H3068 H 0.65783 0.27899 0.76288 0.0
H3069 H 0.65856 0.31677 0.69271 0.0
H3070 H 0.6784 0.30084 0.78817 0.0
H3071 H 0.67909 0.33839 0.7179 0.0
H3072 H 0.7343 0.35906 0.76084 0.0
H3073 H 0.7128 0.33802 0.73575 0.0
H3074 H 0.6771 0.33407 0.80792 0.0
H3075 H 0.6984 0.35507 0.83294 0.0
C3076 C 0.66227 0.29196 0.75291 0.0
C3077 C 0.65653 0.2961 0.72578 0.0
C3078 C 0.67401 0.30448 0.7674 0.0
C3079 C 0.68043 0.32127 0.75493 0.0
C3080 C 0.67455 0.32547 0.72793 0.0
C3081 C 0.66266 0.31311 0.71359 0.0
C3082 C 0.72182 0.35379 0.77129 0.0
C3083 C 0.71809 0.35878 0.79888 0.0
C3084 C 0.70948 0.34179 0.75691 0.0
C3085 C 0.69331 0.33434 0.76994 0.0
C3086 C 0.68954 0.33942 0.79744 0.0
C3087 C 0.70171 0.35158 0.81168 0.0
H3088 H 0.37805 0.29868 0.2624 0.0
H3089 H 0.36572 0.32811 0.18638 0.0
H3090 H 0.35676 0.31976 0.28716 0.0
H3091 H 0.34555 0.35001 0.21126 0.0
H3092 H 0.29517 0.37505 0.25672 0.0
H3093 H 0.31677 0.35428 0.232 0.0
H3094 H 0.35106 0.34906 0.30564 0.0
H3095 H 0.32874 0.36875 0.33064 0.0
C3096 C 0.37108 0.30987 0.25101 0.0
C3097 C 0.37374 0.31164 0.22232 0.0
C3098 C 0.35889 0.32214 0.26529 0.0
C3099 C 0.34923 0.33681 0.25143 0.0
C3100 C 0.35227 0.33876 0.22279 0.0
C3101 C 0.36413 0.32626 0.20845 0.0
C3102 C 0.30736 0.36952 0.26761 0.0
C3103 C 0.31015 0.37367 0.29574 0.0
C3104 C 0.31992 0.35763 0.25333 0.0
C3105 C 0.33589 0.34979 0.2666 0.0
C3106 C 0.33882 0.35434 0.29464 0.0
C3107 C 0.32606 0.3659 0.30903 0.0
H3108 H 0.65151 0.32804 0.33468 0.0
H3109 H 0.64075 0.29518 0.2611 0.0
H3110 H 0.67141 0.34936 0.30836 0.0
H3111 H 0.66178 0.31568 0.23501 0.0
H3112 H 0.68869 0.36352 0.18778 0.0
H3113 H 0.66684 0.34419 0.21407 0.0
H3114 H 0.70018 0.35374 0.28773 0.0
H3115 H 0.72124 0.37423 0.26163 0.0
C3116 C 0.6534 0.3253 0.31285 0.0
C3117 C 0.6443 0.30991 0.30007 0.0
C3118 C 0.66511 0.33747 0.29769 0.0
C3119 C 0.66849 0.33441 0.26933 0.0
C3120 C 0.65936 0.31893 0.25658 0.0
C3121 C 0.64732 0.30699 0.27165 0.0
C3122 C 0.69125 0.36173 0.20967 0.0
C3123 C 0.70671 0.37067 0.22253 0.0
C3124 C 0.67877 0.35035 0.22482 0.0
C3125 C 0.68157 0.34713 0.25326 0.0
C3126 C 0.69713 0.35606 0.26608 0.0
C3127 C 0.70939 0.36778 0.25102 0.0
H3128 H 0.7097 0.62838 0.26088 0.0
H3129 H 0.69936 0.66265 0.33333 0.0
H3130 H 0.68864 0.64873 0.23418 0.0
H3131 H 0.67904 0.68328 0.30657 0.0
H3132 H 0.66643 0.70022 0.18734 0.0
H3133 H 0.68623 0.67893 0.21398 0.0
H3134 H 0.64956 0.6864 0.28467 0.0
H3135 H 0.63011 0.70837 0.25822 0.0
C3136 C 0.70302 0.64026 0.27112 0.0
C3137 C 0.70629 0.64376 0.29934 0.0
C3138 C 0.691 0.65206 0.25574 0.0
C3139 C 0.68202 0.66778 0.26809 0.0
C3140 C 0.68532 0.6712 0.29632 0.0
C3141 C 0.69718 0.65936 0.31171 0.0
C3142 C 0.66253 0.69738 0.20858 0.0
C3143 C 0.64661 0.70615 0.22058 0.0
C3144 C 0.67387 0.68496 0.22387 0.0
C3145 C 0.6696 0.68077 0.2516 0.0
C3146 C 0.65357 0.68944 0.26354 0.0
C3147 C 0.64229 0.702 0.24829 0.0
H3148 H 0.31687 0.66681 0.18216 0.0
H3149 H 0.30921 0.63003 0.25254 0.0
H3150 H 0.33768 0.68687 0.20923 0.0
H3151 H 0.33067 0.64982 0.27944 0.0
H3152 H 0.38772 0.71081 0.25655 0.0
H3153 H 0.36791 0.68936 0.22971 0.0
H3154 H 0.33293 0.67959 0.30157 0.0
H3155 H 0.35305 0.70044 0.32854 0.0
C3156 C 0.31973 0.66286 0.20337 0.0
C3157 C 0.31125 0.64672 0.21509 0.0
C3158 C 0.33186 0.67436 0.2189 0.0
C3159 C 0.33601 0.67005 0.24663 0.0
C3160 C 0.32765 0.65381 0.25831 0.0
C3161 C 0.3154 0.64234 0.24279 0.0
C3162 C 0.37586 0.70403 0.26667 0.0
C3163 C 0.37207 0.70743 0.29479 0.0
C3164 C 0.36437 0.69177 0.2512 0.0
C3165 C 0.34869 0.68266 0.26334 0.0
C3166 C 0.345 0.68603 0.2915 0.0
C3167 C 0.35653 0.69817 0.30699 0.0
loop_
_geom_bond_atom_site_label_1
_geom_bond_atom_site_label_2
_geom_bond_distance
_geom_bond_site_symmetry_2
_ccdc_geom_bond_type
Co0 O2 2.143 . S
Co0 O8 2.074 . S
Co0 O11 2.093 . S
Co0 O24 2.097 . S
Co0 N41 2.151 . S
Co0 N49 2.214 . S
Co1 O2 2.160 . S
Co1 O7 2.058 . S
Co1 O17 2.057 . S
Co1 O32 2.037 . S
Co1 N36 2.145 . S
Co1 N57 2.257 . S
O2 Co0 2.143 . S
O2 Co1 2.160 . S
C3 O4 1.278 . S
C3 O11 1.224 . S
O4 C3 1.278 . S
C5 O6 1.245 . S
C5 O17 1.232 . S
O6 C5 1.245 . S
O7 Co1 2.058 . S
O7 C33 1.269 . S
O8 Co0 2.074 . S
O8 C33 1.257 . S
H9 C34 0.930 . S
H10 C40 0.930 . S
O11 Co0 2.093 . S
O11 C3 1.224 . S
H12 C44 0.929 . S
H13 C46 0.930 . S
H14 C47 0.930 . S
H15 C45 0.929 . S
H16 C48 0.928 . S
O17 Co1 2.057 . S
O17 C5 1.232 . S
H18 C37 0.929 . S
H19 C38 0.929 . S
H20 C50 0.931 . S
H21 C42 0.929 . S
H22 C51 0.930 . S
H23 C43 0.931 . S
O24 Co0 2.097 . S
O24 C52 1.214 . S
H25 C53 0.929 . S
H26 C54 0.929 . S
H27 C55 0.930 . S
H28 C56 0.929 . S
H29 C58 0.930 . S
H30 C35 0.930 . S
H31 C39 0.930 . S
O32 Co1 2.037 . S
O32 C52 1.234 . S
C33 O7 1.269 . S
C33 O8 1.257 . S
C34 H9 0.930 . S
C34 C37 1.388 . S
C34 C39 1.418 . S
C35 H30 0.930 . S
C35 C38 1.404 . S
C35 C39 1.353 . S
N36 Co1 2.145 . S
N36 C37 1.397 . S
N36 C38 1.334 . S
C37 H18 0.929 . S
C37 C34 1.388 . S
C37 N36 1.397 . S
C38 H19 0.929 . S
C38 C35 1.404 . S
C38 N36 1.334 . S
C39 H31 0.930 . S
C39 C34 1.418 . S
C39 C35 1.353 . S
C40 H10 0.930 . S
C40 N41 1.330 . S
C40 C42 1.446 . S
N41 Co0 2.151 . S
N41 C40 1.330 . S
N41 C45 1.418 . S
C42 H21 0.929 . S
C42 C40 1.446 . S
C42 C43 1.332 . S
C43 H23 0.931 . S
C43 C42 1.332 . S
C43 C44 1.267 . S
C44 H12 0.929 . S
C44 C43 1.267 . S
C44 C45 1.251 . S
C45 H15 0.929 . S
C45 N41 1.418 . S
C45 C44 1.251 . S
C46 H13 0.930 . S
C46 C48 1.406 . S
C46 C51 1.261 . S
C47 H14 0.930 . S
C47 N49 1.325 . S
C47 C50 1.357 . S
C48 H16 0.928 . S
C48 C46 1.406 . S
C48 N49 1.261 . S
N49 Co0 2.214 . S
N49 C47 1.325 . S
N49 C48 1.261 . S
C50 H20 0.931 . S
C50 C47 1.357 . S
C50 C51 1.312 . S
C51 H22 0.930 . S
C51 C46 1.261 . S
C51 C50 1.312 . S
C52 O24 1.214 . S
C52 O32 1.234 . S
C53 H25 0.929 . S
C53 C56 1.391 . S
C53 C58 1.391 . S
C54 H26 0.929 . S
C54 C55 1.390 . S
C54 N57 1.391 . S
C55 H27 0.930 . S
C55 C54 1.390 . S
C55 C56 1.392 . S
C56 H28 0.929 . S
C56 C53 1.391 . S
C56 C55 1.392 . S
N57 Co1 2.257 . S
N57 C54 1.391 . S
N57 C58 1.388 . S
C58 H29 0.930 . S
C58 C53 1.391 . S
C58 N57 1.388 . S
Co59 O61 2.143 . S
Co59 O67 2.074 . S
Co59 O70 2.093 . S
Co59 O83 2.097 . S
Co59 N100 2.151 . S
Co59 N108 2.214 . S
Co60 O61 2.160 . S
Co60 O66 2.058 . S
Co60 O76 2.057 . S
Co60 O91 2.037 . S
Co60 N95 2.145 . S
Co60 N116 2.257 . S
O61 Co59 2.143 . S
O61 Co60 2.160 . S
C62 O63 1.278 . S
C62 O70 1.224 . S
O63 C62 1.278 . S
C64 O65 1.245 . S
C64 O76 1.232 . S
O65 C64 1.245 . S
O66 Co60 2.058 . S
O66 C92 1.269 . S
O67 Co59 2.074 . S
O67 C92 1.257 . S
H68 C93 0.930 . S
H69 C99 0.930 . S
O70 Co59 2.093 . S
O70 C62 1.224 . S
H71 C103 0.929 . S
H72 C105 0.930 . S
H73 C106 0.930 . S
H74 C104 0.929 . S
H75 C107 0.928 . S
O76 Co60 2.057 . S
O76 C64 1.232 . S
H77 C96 0.929 . S
H78 C97 0.929 . S
H79 C109 0.931 . S
H80 C101 0.929 . S
H81 C110 0.930 . S
H82 C102 0.931 . S
O83 Co59 2.097 . S
O83 C111 1.214 . S
H84 C112 0.929 . S
H85 C113 0.929 . S
H86 C114 0.930 . S
H87 C115 0.929 . S
H88 C117 0.930 . S
H89 C94 0.930 . S
H90 C98 0.930 . S
O91 Co60 2.037 . S
O91 C111 1.234 . S
C92 O66 1.269 . S
C92 O67 1.257 . S
C93 H68 0.930 . S
C93 C96 1.388 . S
C93 C98 1.418 . S
C94 H89 0.930 . S
C94 C97 1.404 . S
C94 C98 1.353 . S
N95 Co60 2.145 . S
N95 C96 1.397 . S
N95 C97 1.334 . S
C96 H77 0.929 . S
C96 C93 1.388 . S
C96 N95 1.397 . S
C97 H78 0.929 . S
C97 C94 1.404 . S
C97 N95 1.334 . S
C98 H90 0.930 . S
C98 C93 1.418 . S
C98 C94 1.353 . S
C99 H69 0.930 . S
C99 N100 1.330 . S
C99 C101 1.446 . S
N100 Co59 2.151 . S
N100 C99 1.330 . S
N100 C104 1.418 . S
C101 H80 0.929 . S
C101 C99 1.446 . S
C101 C102 1.332 . S
C102 H82 0.931 . S
C102 C101 1.332 . S
C102 C103 1.267 . S
C103 H71 0.929 . S
C103 C102 1.267 . S
C103 C104 1.251 . S
C104 H74 0.929 . S
C104 N100 1.418 . S
C104 C103 1.251 . S
C105 H72 0.930 . S
C105 C107 1.406 . S
C105 C110 1.261 . S
C106 H73 0.930 . S
C106 N108 1.325 . S
C106 C109 1.357 . S
C107 H75 0.928 . S
C107 C105 1.406 . S
C107 N108 1.261 . S
N108 Co59 2.214 . S
N108 C106 1.325 . S
N108 C107 1.261 . S
C109 H79 0.931 . S
C109 C106 1.357 . S
C109 C110 1.312 . S
C110 H81 0.930 . S
C110 C105 1.261 . S
C110 C109 1.312 . S
C111 O83 1.214 . S
C111 O91 1.234 . S
C112 H84 0.929 . S
C112 C115 1.391 . S
C112 C117 1.391 . S
C113 H85 0.929 . S
C113 C114 1.390 . S
C113 N116 1.391 . S
C114 H86 0.930 . S
C114 C113 1.390 . S
C114 C115 1.392 . S
C115 H87 0.929 . S
C115 C112 1.391 . S
C115 C114 1.392 . S
N116 Co60 2.257 . S
N116 C113 1.391 . S
N116 C117 1.388 . S
C117 H88 0.930 . S
C117 C112 1.391 . S
C117 N116 1.388 . S
Co118 O120 2.143 . S
Co118 O126 2.074 . S
Co118 O129 2.093 . S
Co118 O142 2.097 . S
Co118 N159 2.151 . S
Co118 N167 2.214 . S
Co119 O120 2.160 . S
Co119 O125 2.058 . S
Co119 O135 2.057 . S
Co119 O150 2.037 . S
Co119 N154 2.145 . S
Co119 N175 2.257 . S
O120 Co118 2.143 . S
O120 Co119 2.160 . S
C121 O122 1.278 . S
C121 O129 1.224 . S
O122 C121 1.278 . S
C123 O124 1.245 . S
C123 O135 1.232 . S
O124 C123 1.245 . S
O125 Co119 2.058 . S
O125 C151 1.269 . S
O126 Co118 2.074 . S
O126 C151 1.257 . S
H127 C152 0.930 . S
H128 C158 0.930 . S
O129 Co118 2.093 . S
O129 C121 1.224 . S
H130 C162 0.929 . S
H131 C164 0.930 . S
H132 C165 0.930 . S
H133 C163 0.929 . S
H134 C166 0.928 . S
O135 Co119 2.057 . S
O135 C123 1.232 . S
H136 C155 0.929 . S
H137 C156 0.929 . S
H138 C168 0.931 . S
H139 C160 0.929 . S
H140 C169 0.930 . S
H141 C161 0.931 . S
O142 Co118 2.097 . S
O142 C170 1.214 . S
H143 C171 0.929 . S
H144 C172 0.929 . S
H145 C173 0.930 . S
H146 C174 0.929 . S
H147 C176 0.930 . S
H148 C153 0.930 . S
H149 C157 0.930 . S
O150 Co119 2.037 . S
O150 C170 1.234 . S
C151 O125 1.269 . S
C151 O126 1.257 . S
C152 H127 0.930 . S
C152 C155 1.388 . S
C152 C157 1.418 . S
C153 H148 0.930 . S
C153 C156 1.404 . S
C153 C157 1.353 . S
N154 Co119 2.145 . S
N154 C155 1.397 . S
N154 C156 1.334 . S
C155 H136 0.929 . S
C155 C152 1.388 . S
C155 N154 1.397 . S
C156 H137 0.929 . S
C156 C153 1.404 . S
C156 N154 1.334 . S
C157 H149 0.930 . S
C157 C152 1.418 . S
C157 C153 1.353 . S
C158 H128 0.930 . S
C158 N159 1.330 . S
C158 C160 1.446 . S
N159 Co118 2.151 . S
N159 C158 1.330 . S
N159 C163 1.418 . S
C160 H139 0.929 . S
C160 C158 1.446 . S
C160 C161 1.332 . S
C161 H141 0.931 . S
C161 C160 1.332 . S
C161 C162 1.267 . S
C162 H130 0.929 . S
C162 C161 1.267 . S
C162 C163 1.251 . S
C163 H133 0.929 . S
C163 N159 1.418 . S
C163 C162 1.251 . S
C164 H131 0.930 . S
C164 C166 1.406 . S
C164 C169 1.261 . S
C165 H132 0.930 . S
C165 N167 1.325 . S
C165 C168 1.357 . S
C166 H134 0.928 . S
C166 C164 1.406 . S
C166 N167 1.261 . S
N167 Co118 2.214 . S
N167 C165 1.325 . S
N167 C166 1.261 . S
C168 H138 0.931 . S
C168 C165 1.357 . S
C168 C169 1.312 . S
C169 H140 0.930 . S
C169 C164 1.261 . S
C169 C168 1.312 . S
C170 O142 1.214 . S
C170 O150 1.234 . S
C171 H143 0.929 . S
C171 C174 1.391 . S
C171 C176 1.391 . S
C172 H144 0.929 . S
C172 C173 1.390 . S
C172 N175 1.391 . S
C173 H145 0.930 . S
C173 C172 1.390 . S
C173 C174 1.392 . S
C174 H146 0.929 . S
C174 C171 1.391 . S
C174 C173 1.392 . S
N175 Co119 2.257 . S
N175 C172 1.391 . S
N175 C176 1.388 . S
C176 H147 0.930 . S
C176 C171 1.391 . S
C176 N175 1.388 . S
Co177 O179 2.143 . S
Co177 O185 2.074 . S
Co177 O188 2.093 . S
Co177 O201 2.097 . S
Co177 N218 2.151 . S
Co177 N226 2.214 . S
Co178 O179 2.160 . S
Co178 O184 2.058 . S
Co178 O194 2.057 . S
Co178 O209 2.037 . S
Co178 N213 2.145 . S
Co178 N234 2.257 . S
O179 Co177 2.143 . S
O179 Co178 2.160 . S
C180 O181 1.278 . S
C180 O188 1.224 . S
O181 C180 1.278 . S
C182 O183 1.245 . S
C182 O194 1.232 . S
O183 C182 1.245 . S
O184 Co178 2.058 . S
O184 C210 1.269 . S
O185 Co177 2.074 . S
O185 C210 1.257 . S
H186 C211 0.930 . S
H187 C217 0.930 . S
O188 Co177 2.093 . S
O188 C180 1.224 . S
H189 C221 0.929 . S
H190 C223 0.930 . S
H191 C224 0.930 . S
H192 C222 0.929 . S
H193 C225 0.928 . S
O194 Co178 2.057 . S
O194 C182 1.232 . S
H195 C214 0.929 . S
H196 C215 0.929 . S
H197 C227 0.931 . S
H198 C219 0.929 . S
H199 C228 0.930 . S
H200 C220 0.931 . S
O201 Co177 2.097 . S
O201 C229 1.214 . S
H202 C230 0.929 . S
H203 C231 0.929 . S
H204 C232 0.930 . S
H205 C233 0.929 . S
H206 C235 0.930 . S
H207 C212 0.930 . S
H208 C216 0.930 . S
O209 Co178 2.037 . S
O209 C229 1.234 . S
C210 O184 1.269 . S
C210 O185 1.257 . S
C211 H186 0.930 . S
C211 C214 1.388 . S
C211 C216 1.418 . S
C212 H207 0.930 . S
C212 C215 1.404 . S
C212 C216 1.353 . S
N213 Co178 2.145 . S
N213 C214 1.397 . S
N213 C215 1.334 . S
C214 H195 0.929 . S
C214 C211 1.388 . S
C214 N213 1.397 . S
C215 H196 0.929 . S
C215 C212 1.404 . S
C215 N213 1.334 . S
C216 H208 0.930 . S
C216 C211 1.418 . S
C216 C212 1.353 . S
C217 H187 0.930 . S
C217 N218 1.330 . S
C217 C219 1.446 . S
N218 Co177 2.151 . S
N218 C217 1.330 . S
N218 C222 1.418 . S
C219 H198 0.929 . S
C219 C217 1.446 . S
C219 C220 1.332 . S
C220 H200 0.931 . S
C220 C219 1.332 . S
C220 C221 1.267 . S
C221 H189 0.929 . S
C221 C220 1.267 . S
C221 C222 1.251 . S
C222 H192 0.929 . S
C222 N218 1.418 . S
C222 C221 1.251 . S
C223 H190 0.930 . S
C223 C225 1.406 . S
C223 C228 1.261 . S
C224 H191 0.930 . S
C224 N226 1.325 . S
C224 C227 1.357 . S
C225 H193 0.928 . S
C225 C223 1.406 . S
C225 N226 1.261 . S
N226 Co177 2.214 . S
N226 C224 1.325 . S
N226 C225 1.261 . S
C227 H197 0.931 . S
C227 C224 1.357 . S
C227 C228 1.312 . S
C228 H199 0.930 . S
C228 C223 1.261 . S
C228 C227 1.312 . S
C229 O201 1.214 . S
C229 O209 1.234 . S
C230 H202 0.929 . S
C230 C233 1.391 . S
C230 C235 1.391 . S
C231 H203 0.929 . S
C231 C232 1.390 . S
C231 N234 1.391 . S
C232 H204 0.930 . S
C232 C231 1.390 . S
C232 C233 1.392 . S
C233 H205 0.929 . S
C233 C230 1.391 . S
C233 C232 1.392 . S
N234 Co178 2.257 . S
N234 C231 1.391 . S
N234 C235 1.388 . S
C235 H206 0.930 . S
C235 C230 1.391 . S
C235 N234 1.388 . S
Co236 O238 2.143 . S
Co236 O244 2.074 . S
Co236 O247 2.093 . S
Co236 O260 2.097 . S
Co236 N277 2.151 . S
Co236 N285 2.214 . S
Co237 O238 2.160 . S
Co237 O243 2.058 . S
Co237 O253 2.057 . S
Co237 O268 2.037 . S
Co237 N272 2.145 . S
Co237 N293 2.257 . S
O238 Co236 2.143 . S
O238 Co237 2.160 . S
C239 O240 1.278 . S
C239 O247 1.224 . S
O240 C239 1.278 . S
C241 O242 1.245 . S
C241 O253 1.232 . S
O242 C241 1.245 . S
O243 Co237 2.058 . S
O243 C269 1.269 . S
O244 Co236 2.074 . S
O244 C269 1.257 . S
H245 C270 0.930 . S
H246 C276 0.930 . S
O247 Co236 2.093 . S
O247 C239 1.224 . S
H248 C280 0.929 . S
H249 C282 0.930 . S
H250 C283 0.930 . S
H251 C281 0.929 . S
H252 C284 0.928 . S
O253 Co237 2.057 . S
O253 C241 1.232 . S
H254 C273 0.929 . S
H255 C274 0.929 . S
H256 C286 0.931 . S
H257 C278 0.929 . S
H258 C287 0.930 . S
H259 C279 0.931 . S
O260 Co236 2.097 . S
O260 C288 1.214 . S
H261 C289 0.929 . S
H262 C290 0.929 . S
H263 C291 0.930 . S
H264 C292 0.929 . S
H265 C294 0.930 . S
H266 C271 0.930 . S
H267 C275 0.930 . S
O268 Co237 2.037 . S
O268 C288 1.234 . S
C269 O243 1.269 . S
C269 O244 1.257 . S
C270 H245 0.930 . S
C270 C273 1.388 . S
C270 C275 1.418 . S
C271 H266 0.930 . S
C271 C274 1.404 . S
C271 C275 1.353 . S
N272 Co237 2.145 . S
N272 C273 1.397 . S
N272 C274 1.334 . S
C273 H254 0.929 . S
C273 C270 1.388 . S
C273 N272 1.397 . S
C274 H255 0.929 . S
C274 C271 1.404 . S
C274 N272 1.334 . S
C275 H267 0.930 . S
C275 C270 1.418 . S
C275 C271 1.353 . S
C276 H246 0.930 . S
C276 N277 1.330 . S
C276 C278 1.446 . S
N277 Co236 2.151 . S
N277 C276 1.330 . S
N277 C281 1.418 . S
C278 H257 0.929 . S
C278 C276 1.446 . S
C278 C279 1.332 . S
C279 H259 0.931 . S
C279 C278 1.332 . S
C279 C280 1.267 . S
C280 H248 0.929 . S
C280 C279 1.267 . S
C280 C281 1.251 . S
C281 H251 0.929 . S
C281 N277 1.418 . S
C281 C280 1.251 . S
C282 H249 0.930 . S
C282 C284 1.406 . S
C282 C287 1.261 . S
C283 H250 0.930 . S
C283 N285 1.325 . S
C283 C286 1.357 . S
C284 H252 0.928 . S
C284 C282 1.406 . S
C284 N285 1.261 . S
N285 Co236 2.214 . S
N285 C283 1.325 . S
N285 C284 1.261 . S
C286 H256 0.931 . S
C286 C283 1.357 . S
C286 C287 1.312 . S
C287 H258 0.930 . S
C287 C282 1.261 . S
C287 C286 1.312 . S
C288 O260 1.214 . S
C288 O268 1.234 . S
C289 H261 0.929 . S
C289 C292 1.391 . S
C289 C294 1.391 . S
C290 H262 0.929 . S
C290 C291 1.390 . S
C290 N293 1.391 . S
C291 H263 0.930 . S
C291 C290 1.390 . S
C291 C292 1.392 . S
C292 H264 0.929 . S
C292 C289 1.391 . S
C292 C291 1.392 . S
N293 Co237 2.257 . S
N293 C290 1.391 . S
N293 C294 1.388 . S
C294 H265 0.930 . S
C294 C289 1.391 . S
C294 N293 1.388 . S
Co295 O297 2.143 . S
Co295 O303 2.074 . S
Co295 O306 2.093 . S
Co295 O319 2.097 . S
Co295 N336 2.151 . S
Co295 N344 2.214 . S
Co296 O297 2.160 . S
Co296 O302 2.058 . S
Co296 O312 2.057 . S
Co296 O327 2.037 . S
Co296 N331 2.145 . S
Co296 N352 2.257 . S
O297 Co295 2.143 . S
O297 Co296 2.160 . S
C298 O299 1.278 . S
C298 O306 1.224 . S
O299 C298 1.278 . S
C300 O301 1.245 . S
C300 O312 1.232 . S
O301 C300 1.245 . S
O302 Co296 2.058 . S
O302 C328 1.269 . S
O303 Co295 2.074 . S
O303 C328 1.257 . S
H304 C329 0.930 . S
H305 C335 0.930 . S
O306 Co295 2.093 . S
O306 C298 1.224 . S
H307 C339 0.929 . S
H308 C341 0.930 . S
H309 C342 0.930 . S
H310 C340 0.929 . S
H311 C343 0.928 . S
O312 Co296 2.057 . S
O312 C300 1.232 . S
H313 C332 0.929 . S
H314 C333 0.929 . S
H315 C345 0.931 . S
H316 C337 0.929 . S
H317 C346 0.930 . S
H318 C338 0.931 . S
O319 Co295 2.097 . S
O319 C347 1.214 . S
H320 C348 0.929 . S
H321 C349 0.929 . S
H322 C350 0.930 . S
H323 C351 0.929 . S
H324 C353 0.930 . S
H325 C330 0.930 . S
H326 C334 0.930 . S
O327 Co296 2.037 . S
O327 C347 1.234 . S
C328 O302 1.269 . S
C328 O303 1.257 . S
C329 H304 0.930 . S
C329 C332 1.388 . S
C329 C334 1.418 . S
C330 H325 0.930 . S
C330 C333 1.404 . S
C330 C334 1.353 . S
N331 Co296 2.145 . S
N331 C332 1.397 . S
N331 C333 1.334 . S
C332 H313 0.929 . S
C332 C329 1.388 . S
C332 N331 1.397 . S
C333 H314 0.929 . S
C333 C330 1.404 . S
C333 N331 1.334 . S
C334 H326 0.930 . S
C334 C329 1.418 . S
C334 C330 1.353 . S
C335 H305 0.930 . S
C335 N336 1.330 . S
C335 C337 1.446 . S
N336 Co295 2.151 . S
N336 C335 1.330 . S
N336 C340 1.418 . S
C337 H316 0.929 . S
C337 C335 1.446 . S
C337 C338 1.332 . S
C338 H318 0.931 . S
C338 C337 1.332 . S
C338 C339 1.267 . S
C339 H307 0.929 . S
C339 C338 1.267 . S
C339 C340 1.251 . S
C340 H310 0.929 . S
C340 N336 1.418 . S
C340 C339 1.251 . S
C341 H308 0.930 . S
C341 C343 1.406 . S
C341 C346 1.261 . S
C342 H309 0.930 . S
C342 N344 1.325 . S
C342 C345 1.357 . S
C343 H311 0.928 . S
C343 C341 1.406 . S
C343 N344 1.261 . S
N344 Co295 2.214 . S
N344 C342 1.325 . S
N344 C343 1.261 . S
C345 H315 0.931 . S
C345 C342 1.357 . S
C345 C346 1.312 . S
C346 H317 0.930 . S
C346 C341 1.261 . S
C346 C345 1.312 . S
C347 O319 1.214 . S
C347 O327 1.234 . S
C348 H320 0.929 . S
C348 C351 1.391 . S
C348 C353 1.391 . S
C349 H321 0.929 . S
C349 C350 1.390 . S
C349 N352 1.391 . S
C350 H322 0.930 . S
C350 C349 1.390 . S
C350 C351 1.392 . S
C351 H323 0.929 . S
C351 C348 1.391 . S
C351 C350 1.392 . S
N352 Co296 2.257 . S
N352 C349 1.391 . S
N352 C353 1.388 . S
C353 H324 0.930 . S
C353 C348 1.391 . S
C353 N352 1.388 . S
Co354 O356 2.143 . S
Co354 O362 2.074 . S
Co354 O365 2.093 . S
Co354 O378 2.097 . S
Co354 N395 2.151 . S
Co354 N403 2.214 . S
Co355 O356 2.160 . S
Co355 O361 2.058 . S
Co355 O371 2.057 . S
Co355 O386 2.037 . S
Co355 N390 2.145 . S
Co355 N411 2.257 . S
O356 Co354 2.143 . S
O356 Co355 2.160 . S
C357 O358 1.278 . S
C357 O365 1.224 . S
O358 C357 1.278 . S
C359 O360 1.245 . S
C359 O371 1.232 . S
O360 C359 1.245 . S
O361 Co355 2.058 . S
O361 C387 1.269 . S
O362 Co354 2.074 . S
O362 C387 1.257 . S
H363 C388 0.930 . S
H364 C394 0.930 . S
O365 Co354 2.093 . S
O365 C357 1.224 . S
H366 C398 0.929 . S
H367 C400 0.930 . S
H368 C401 0.930 . S
H369 C399 0.929 . S
H370 C402 0.928 . S
O371 Co355 2.057 . S
O371 C359 1.232 . S
H372 C391 0.929 . S
H373 C392 0.929 . S
H374 C404 0.931 . S
H375 C396 0.929 . S
H376 C405 0.930 . S
H377 C397 0.931 . S
O378 Co354 2.097 . S
O378 C406 1.214 . S
H379 C407 0.929 . S
H380 C408 0.929 . S
H381 C409 0.930 . S
H382 C410 0.929 . S
H383 C412 0.930 . S
H384 C389 0.930 . S
H385 C393 0.930 . S
O386 Co355 2.037 . S
O386 C406 1.234 . S
C387 O361 1.269 . S
C387 O362 1.257 . S
C388 H363 0.930 . S
C388 C391 1.388 . S
C388 C393 1.418 . S
C389 H384 0.930 . S
C389 C392 1.404 . S
C389 C393 1.353 . S
N390 Co355 2.145 . S
N390 C391 1.397 . S
N390 C392 1.334 . S
C391 H372 0.929 . S
C391 C388 1.388 . S
C391 N390 1.397 . S
C392 H373 0.929 . S
C392 C389 1.404 . S
C392 N390 1.334 . S
C393 H385 0.930 . S
C393 C388 1.418 . S
C393 C389 1.353 . S
C394 H364 0.930 . S
C394 N395 1.330 . S
C394 C396 1.446 . S
N395 Co354 2.151 . S
N395 C394 1.330 . S
N395 C399 1.418 . S
C396 H375 0.929 . S
C396 C394 1.446 . S
C396 C397 1.332 . S
C397 H377 0.931 . S
C397 C396 1.332 . S
C397 C398 1.267 . S
C398 H366 0.929 . S
C398 C397 1.267 . S
C398 C399 1.251 . S
C399 H369 0.929 . S
C399 N395 1.418 . S
C399 C398 1.251 . S
C400 H367 0.930 . S
C400 C402 1.406 . S
C400 C405 1.261 . S
C401 H368 0.930 . S
C401 N403 1.325 . S
C401 C404 1.357 . S
C402 H370 0.928 . S
C402 C400 1.406 . S
C402 N403 1.261 . S
N403 Co354 2.214 . S
N403 C401 1.325 . S
N403 C402 1.261 . S
C404 H374 0.931 . S
C404 C401 1.357 . S
C404 C405 1.312 . S
C405 H376 0.930 . S
C405 C400 1.261 . S
C405 C404 1.312 . S
C406 O378 1.214 . S
C406 O386 1.234 . S
C407 H379 0.929 . S
C407 C410 1.391 . S
C407 C412 1.391 . S
C408 H380 0.929 . S
C408 C409 1.390 . S
C408 N411 1.391 . S
C409 H381 0.930 . S
C409 C408 1.390 . S
C409 C410 1.392 . S
C410 H382 0.929 . S
C410 C407 1.391 . S
C410 C409 1.392 . S
N411 Co355 2.257 . S
N411 C408 1.391 . S
N411 C412 1.388 . S
C412 H383 0.930 . S
C412 C407 1.391 . S
C412 N411 1.388 . S
Co413 O415 2.143 . S
Co413 O421 2.074 . S
Co413 O424 2.093 . S
Co413 O437 2.097 . S
Co413 N454 2.151 . S
Co413 N462 2.214 . S
Co414 O415 2.160 . S
Co414 O420 2.058 . S
Co414 O430 2.057 . S
Co414 O445 2.037 . S
Co414 N449 2.145 . S
Co414 N470 2.257 . S
O415 Co413 2.143 . S
O415 Co414 2.160 . S
C416 O417 1.278 . S
C416 O424 1.224 . S
O417 C416 1.278 . S
C418 O419 1.245 . S
C418 O430 1.232 . S
O419 C418 1.245 . S
O420 Co414 2.058 . S
O420 C446 1.269 . S
O421 Co413 2.074 . S
O421 C446 1.257 . S
H422 C447 0.930 . S
H423 C453 0.930 . S
O424 Co413 2.093 . S
O424 C416 1.224 . S
H425 C457 0.929 . S
H426 C459 0.930 . S
H427 C460 0.930 . S
H428 C458 0.929 . S
H429 C461 0.928 . S
O430 Co414 2.057 . S
O430 C418 1.232 . S
H431 C450 0.929 . S
H432 C451 0.929 . S
H433 C463 0.931 . S
H434 C455 0.929 . S
H435 C464 0.930 . S
H436 C456 0.931 . S
O437 Co413 2.097 . S
O437 C465 1.214 . S
H438 C466 0.929 . S
H439 C467 0.929 . S
H440 C468 0.930 . S
H441 C469 0.929 . S
H442 C471 0.930 . S
H443 C448 0.930 . S
H444 C452 0.930 . S
O445 Co414 2.037 . S
O445 C465 1.234 . S
C446 O420 1.269 . S
C446 O421 1.257 . S
C447 H422 0.930 . S
C447 C450 1.388 . S
C447 C452 1.418 . S
C448 H443 0.930 . S
C448 C451 1.404 . S
C448 C452 1.353 . S
N449 Co414 2.145 . S
N449 C450 1.397 . S
N449 C451 1.334 . S
C450 H431 0.929 . S
C450 C447 1.388 . S
C450 N449 1.397 . S
C451 H432 0.929 . S
C451 C448 1.404 . S
C451 N449 1.334 . S
C452 H444 0.930 . S
C452 C447 1.418 . S
C452 C448 1.353 . S
C453 H423 0.930 . S
C453 N454 1.330 . S
C453 C455 1.446 . S
N454 Co413 2.151 . S
N454 C453 1.330 . S
N454 C458 1.418 . S
C455 H434 0.929 . S
C455 C453 1.446 . S
C455 C456 1.332 . S
C456 H436 0.931 . S
C456 C455 1.332 . S
C456 C457 1.267 . S
C457 H425 0.929 . S
C457 C456 1.267 . S
C457 C458 1.251 . S
C458 H428 0.929 . S
C458 N454 1.418 . S
C458 C457 1.251 . S
C459 H426 0.930 . S
C459 C461 1.406 . S
C459 C464 1.261 . S
C460 H427 0.930 . S
C460 N462 1.325 . S
C460 C463 1.357 . S
C461 H429 0.928 . S
C461 C459 1.406 . S
C461 N462 1.261 . S
N462 Co413 2.214 . S
N462 C460 1.325 . S
N462 C461 1.261 . S
C463 H433 0.931 . S
C463 C460 1.357 . S
C463 C464 1.312 . S
C464 H435 0.930 . S
C464 C459 1.261 . S
C464 C463 1.312 . S
C465 O437 1.214 . S
C465 O445 1.234 . S
C466 H438 0.929 . S
C466 C469 1.391 . S
C466 C471 1.391 . S
C467 H439 0.929 . S
C467 C468 1.390 . S
C467 N470 1.391 . S
C468 H440 0.930 . S
C468 C467 1.390 . S
C468 C469 1.392 . S
C469 H441 0.929 . S
C469 C466 1.391 . S
C469 C468 1.392 . S
N470 Co414 2.257 . S
N470 C467 1.391 . S
N470 C471 1.388 . S
C471 H442 0.930 . S
C471 C466 1.391 . S
C471 N470 1.388 . S
Co472 O474 2.143 . S
Co472 O480 2.074 . S
Co472 O483 2.093 . S
Co472 O496 2.097 . S
Co472 N513 2.151 . S
Co472 N521 2.214 . S
Co473 O474 2.160 . S
Co473 O479 2.058 . S
Co473 O489 2.057 . S
Co473 O504 2.037 . S
Co473 N508 2.145 . S
Co473 N529 2.257 . S
O474 Co472 2.143 . S
O474 Co473 2.160 . S
C475 O476 1.278 . S
C475 O483 1.224 . S
O476 C475 1.278 . S
C477 O478 1.245 . S
C477 O489 1.232 . S
O478 C477 1.245 . S
O479 Co473 2.058 . S
O479 C505 1.269 . S
O480 Co472 2.074 . S
O480 C505 1.257 . S
H481 C506 0.930 . S
H482 C512 0.930 . S
O483 Co472 2.093 . S
O483 C475 1.224 . S
H484 C516 0.929 . S
H485 C518 0.930 . S
H486 C519 0.930 . S
H487 C517 0.929 . S
H488 C520 0.928 . S
O489 Co473 2.057 . S
O489 C477 1.232 . S
H490 C509 0.929 . S
H491 C510 0.929 . S
H492 C522 0.931 . S
H493 C514 0.929 . S
H494 C523 0.930 . S
H495 C515 0.931 . S
O496 Co472 2.097 . S
O496 C524 1.214 . S
H497 C525 0.929 . S
H498 C526 0.929 . S
H499 C527 0.930 . S
H500 C528 0.929 . S
H501 C530 0.930 . S
H502 C507 0.930 . S
H503 C511 0.930 . S
O504 Co473 2.037 . S
O504 C524 1.234 . S
C505 O479 1.269 . S
C505 O480 1.257 . S
C506 H481 0.930 . S
C506 C509 1.388 . S
C506 C511 1.418 . S
C507 H502 0.930 . S
C507 C510 1.404 . S
C507 C511 1.353 . S
N508 Co473 2.145 . S
N508 C509 1.397 . S
N508 C510 1.334 . S
C509 H490 0.929 . S
C509 C506 1.388 . S
C509 N508 1.397 . S
C510 H491 0.929 . S
C510 C507 1.404 . S
C510 N508 1.334 . S
C511 H503 0.930 . S
C511 C506 1.418 . S
C511 C507 1.353 . S
C512 H482 0.930 . S
C512 N513 1.330 . S
C512 C514 1.446 . S
N513 Co472 2.151 . S
N513 C512 1.330 . S
N513 C517 1.418 . S
C514 H493 0.929 . S
C514 C512 1.446 . S
C514 C515 1.332 . S
C515 H495 0.931 . S
C515 C514 1.332 . S
C515 C516 1.267 . S
C516 H484 0.929 . S
C516 C515 1.267 . S
C516 C517 1.251 . S
C517 H487 0.929 . S
C517 N513 1.418 . S
C517 C516 1.251 . S
C518 H485 0.930 . S
C518 C520 1.406 . S
C518 C523 1.261 . S
C519 H486 0.930 . S
C519 N521 1.325 . S
C519 C522 1.357 . S
C520 H488 0.928 . S
C520 C518 1.406 . S
C520 N521 1.261 . S
N521 Co472 2.214 . S
N521 C519 1.325 . S
N521 C520 1.261 . S
C522 H492 0.931 . S
C522 C519 1.357 . S
C522 C523 1.312 . S
C523 H494 0.930 . S
C523 C518 1.261 . S
C523 C522 1.312 . S
C524 O496 1.214 . S
C524 O504 1.234 . S
C525 H497 0.929 . S
C525 C528 1.391 . S
C525 C530 1.391 . S
C526 H498 0.929 . S
C526 C527 1.390 . S
C526 N529 1.391 . S
C527 H499 0.930 . S
C527 C526 1.390 . S
C527 C528 1.392 . S
C528 H500 0.929 . S
C528 C525 1.391 . S
C528 C527 1.392 . S
N529 Co473 2.257 . S
N529 C526 1.391 . S
N529 C530 1.388 . S
C530 H501 0.930 . S
C530 C525 1.391 . S
C530 N529 1.388 . S
Co531 O533 2.143 . S
Co531 O539 2.074 . S
Co531 O542 2.093 . S
Co531 O555 2.097 . S
Co531 N572 2.151 . S
Co531 N580 2.214 . S
Co532 O533 2.160 . S
Co532 O538 2.058 . S
Co532 O548 2.057 . S
Co532 O563 2.037 . S
Co532 N567 2.145 . S
Co532 N588 2.257 . S
O533 Co531 2.143 . S
O533 Co532 2.160 . S
C534 O535 1.278 . S
C534 O542 1.224 . S
O535 C534 1.278 . S
C536 O537 1.245 . S
C536 O548 1.232 . S
O537 C536 1.245 . S
O538 Co532 2.058 . S
O538 C564 1.269 . S
O539 Co531 2.074 . S
O539 C564 1.257 . S
H540 C565 0.930 . S
H541 C571 0.930 . S
O542 Co531 2.093 . S
O542 C534 1.224 . S
H543 C575 0.929 . S
H544 C577 0.930 . S
H545 C578 0.930 . S
H546 C576 0.929 . S
H547 C579 0.928 . S
O548 Co532 2.057 . S
O548 C536 1.232 . S
H549 C568 0.929 . S
H550 C569 0.929 . S
H551 C581 0.931 . S
H552 C573 0.929 . S
H553 C582 0.930 . S
H554 C574 0.931 . S
O555 Co531 2.097 . S
O555 C583 1.214 . S
H556 C584 0.929 . S
H557 C585 0.929 . S
H558 C586 0.930 . S
H559 C587 0.929 . S
H560 C589 0.930 . S
H561 C566 0.930 . S
H562 C570 0.930 . S
O563 Co532 2.037 . S
O563 C583 1.234 . S
C564 O538 1.269 . S
C564 O539 1.257 . S
C565 H540 0.930 . S
C565 C568 1.388 . S
C565 C570 1.418 . S
C566 H561 0.930 . S
C566 C569 1.404 . S
C566 C570 1.353 . S
N567 Co532 2.145 . S
N567 C568 1.397 . S
N567 C569 1.334 . S
C568 H549 0.929 . S
C568 C565 1.388 . S
C568 N567 1.397 . S
C569 H550 0.929 . S
C569 C566 1.404 . S
C569 N567 1.334 . S
C570 H562 0.930 . S
C570 C565 1.418 . S
C570 C566 1.353 . S
C571 H541 0.930 . S
C571 N572 1.330 . S
C571 C573 1.446 . S
N572 Co531 2.151 . S
N572 C571 1.330 . S
N572 C576 1.418 . S
C573 H552 0.929 . S
C573 C571 1.446 . S
C573 C574 1.332 . S
C574 H554 0.931 . S
C574 C573 1.332 . S
C574 C575 1.267 . S
C575 H543 0.929 . S
C575 C574 1.267 . S
C575 C576 1.251 . S
C576 H546 0.929 . S
C576 N572 1.418 . S
C576 C575 1.251 . S
C577 H544 0.930 . S
C577 C579 1.406 . S
C577 C582 1.261 . S
C578 H545 0.930 . S
C578 N580 1.325 . S
C578 C581 1.357 . S
C579 H547 0.928 . S
C579 C577 1.406 . S
C579 N580 1.261 . S
N580 Co531 2.214 . S
N580 C578 1.325 . S
N580 C579 1.261 . S
C581 H551 0.931 . S
C581 C578 1.357 . S
C581 C582 1.312 . S
C582 H553 0.930 . S
C582 C577 1.261 . S
C582 C581 1.312 . S
C583 O555 1.214 . S
C583 O563 1.234 . S
C584 H556 0.929 . S
C584 C587 1.391 . S
C584 C589 1.391 . S
C585 H557 0.929 . S
C585 C586 1.390 . S
C585 N588 1.391 . S
C586 H558 0.930 . S
C586 C585 1.390 . S
C586 C587 1.392 . S
C587 H559 0.929 . S
C587 C584 1.391 . S
C587 C586 1.392 . S
N588 Co532 2.257 . S
N588 C585 1.391 . S
N588 C589 1.388 . S
C589 H560 0.930 . S
C589 C584 1.391 . S
C589 N588 1.388 . S
Co590 O592 2.143 . S
Co590 O598 2.074 . S
Co590 O601 2.093 . S
Co590 O614 2.097 . S
Co590 N631 2.151 . S
Co590 N639 2.214 . S
Co591 O592 2.160 . S
Co591 O597 2.058 . S
Co591 O607 2.057 . S
Co591 O622 2.037 . S
Co591 N626 2.145 . S
Co591 N647 2.257 . S
O592 Co590 2.143 . S
O592 Co591 2.160 . S
C593 O594 1.278 . S
C593 O601 1.224 . S
O594 C593 1.278 . S
C595 O596 1.245 . S
C595 O607 1.232 . S
O596 C595 1.245 . S
O597 Co591 2.058 . S
O597 C623 1.269 . S
O598 Co590 2.074 . S
O598 C623 1.257 . S
H599 C624 0.930 . S
H600 C630 0.930 . S
O601 Co590 2.093 . S
O601 C593 1.224 . S
H602 C634 0.929 . S
H603 C636 0.930 . S
H604 C637 0.930 . S
H605 C635 0.929 . S
H606 C638 0.928 . S
O607 Co591 2.057 . S
O607 C595 1.232 . S
H608 C627 0.929 . S
H609 C628 0.929 . S
H610 C640 0.931 . S
H611 C632 0.929 . S
H612 C641 0.930 . S
H613 C633 0.931 . S
O614 Co590 2.097 . S
O614 C642 1.214 . S
H615 C643 0.929 . S
H616 C644 0.929 . S
H617 C645 0.930 . S
H618 C646 0.929 . S
H619 C648 0.930 . S
H620 C625 0.930 . S
H621 C629 0.930 . S
O622 Co591 2.037 . S
O622 C642 1.234 . S
C623 O597 1.269 . S
C623 O598 1.257 . S
C624 H599 0.930 . S
C624 C627 1.388 . S
C624 C629 1.418 . S
C625 H620 0.930 . S
C625 C628 1.404 . S
C625 C629 1.353 . S
N626 Co591 2.145 . S
N626 C627 1.397 . S
N626 C628 1.334 . S
C627 H608 0.929 . S
C627 C624 1.388 . S
C627 N626 1.397 . S
C628 H609 0.929 . S
C628 C625 1.404 . S
C628 N626 1.334 . S
C629 H621 0.930 . S
C629 C624 1.418 . S
C629 C625 1.353 . S
C630 H600 0.930 . S
C630 N631 1.330 . S
C630 C632 1.446 . S
N631 Co590 2.151 . S
N631 C630 1.330 . S
N631 C635 1.418 . S
C632 H611 0.929 . S
C632 C630 1.446 . S
C632 C633 1.332 . S
C633 H613 0.931 . S
C633 C632 1.332 . S
C633 C634 1.267 . S
C634 H602 0.929 . S
C634 C633 1.267 . S
C634 C635 1.251 . S
C635 H605 0.929 . S
C635 N631 1.418 . S
C635 C634 1.251 . S
C636 H603 0.930 . S
C636 C638 1.406 . S
C636 C641 1.261 . S
C637 H604 0.930 . S
C637 N639 1.325 . S
C637 C640 1.357 . S
C638 H606 0.928 . S
C638 C636 1.406 . S
C638 N639 1.261 . S
N639 Co590 2.214 . S
N639 C637 1.325 . S
N639 C638 1.261 . S
C640 H610 0.931 . S
C640 C637 1.357 . S
C640 C641 1.312 . S
C641 H612 0.930 . S
C641 C636 1.261 . S
C641 C640 1.312 . S
C642 O614 1.214 . S
C642 O622 1.234 . S
C643 H615 0.929 . S
C643 C646 1.391 . S
C643 C648 1.391 . S
C644 H616 0.929 . S
C644 C645 1.390 . S
C644 N647 1.391 . S
C645 H617 0.930 . S
C645 C644 1.390 . S
C645 C646 1.392 . S
C646 H618 0.929 . S
C646 C643 1.391 . S
C646 C645 1.392 . S
N647 Co591 2.257 . S
N647 C644 1.391 . S
N647 C648 1.388 . S
C648 H619 0.930 . S
C648 C643 1.391 . S
C648 N647 1.388 . S
Co649 O651 2.143 . S
Co649 O657 2.074 . S
Co649 O660 2.093 . S
Co649 O673 2.097 . S
Co649 N690 2.151 . S
Co649 N698 2.214 . S
Co650 O651 2.160 . S
Co650 O656 2.058 . S
Co650 O666 2.057 . S
Co650 O681 2.037 . S
Co650 N685 2.145 . S
Co650 N706 2.257 . S
O651 Co649 2.143 . S
O651 Co650 2.160 . S
C652 O653 1.278 . S
C652 O660 1.224 . S
O653 C652 1.278 . S
C654 O655 1.245 . S
C654 O666 1.232 . S
O655 C654 1.245 . S
O656 Co650 2.058 . S
O656 C682 1.269 . S
O657 Co649 2.074 . S
O657 C682 1.257 . S
H658 C683 0.930 . S
H659 C689 0.930 . S
O660 Co649 2.093 . S
O660 C652 1.224 . S
H661 C693 0.929 . S
H662 C695 0.930 . S
H663 C696 0.930 . S
H664 C694 0.929 . S
H665 C697 0.928 . S
O666 Co650 2.057 . S
O666 C654 1.232 . S
H667 C686 0.929 . S
H668 C687 0.929 . S
H669 C699 0.931 . S
H670 C691 0.929 . S
H671 C700 0.930 . S
H672 C692 0.931 . S
O673 Co649 2.097 . S
O673 C701 1.214 . S
H674 C702 0.929 . S
H675 C703 0.929 . S
H676 C704 0.930 . S
H677 C705 0.929 . S
H678 C707 0.930 . S
H679 C684 0.930 . S
H680 C688 0.930 . S
O681 Co650 2.037 . S
O681 C701 1.234 . S
C682 O656 1.269 . S
C682 O657 1.257 . S
C683 H658 0.930 . S
C683 C686 1.388 . S
C683 C688 1.418 . S
C684 H679 0.930 . S
C684 C687 1.404 . S
C684 C688 1.353 . S
N685 Co650 2.145 . S
N685 C686 1.397 . S
N685 C687 1.334 . S
C686 H667 0.929 . S
C686 C683 1.388 . S
C686 N685 1.397 . S
C687 H668 0.929 . S
C687 C684 1.404 . S
C687 N685 1.334 . S
C688 H680 0.930 . S
C688 C683 1.418 . S
C688 C684 1.353 . S
C689 H659 0.930 . S
C689 N690 1.330 . S
C689 C691 1.446 . S
N690 Co649 2.151 . S
N690 C689 1.330 . S
N690 C694 1.418 . S
C691 H670 0.929 . S
C691 C689 1.446 . S
C691 C692 1.332 . S
C692 H672 0.931 . S
C692 C691 1.332 . S
C692 C693 1.267 . S
C693 H661 0.929 . S
C693 C692 1.267 . S
C693 C694 1.251 . S
C694 H664 0.929 . S
C694 N690 1.418 . S
C694 C693 1.251 . S
C695 H662 0.930 . S
C695 C697 1.406 . S
C695 C700 1.261 . S
C696 H663 0.930 . S
C696 N698 1.325 . S
C696 C699 1.357 . S
C697 H665 0.928 . S
C697 C695 1.406 . S
C697 N698 1.261 . S
N698 Co649 2.214 . S
N698 C696 1.325 . S
N698 C697 1.261 . S
C699 H669 0.931 . S
C699 C696 1.357 . S
C699 C700 1.312 . S
C700 H671 0.930 . S
C700 C695 1.261 . S
C700 C699 1.312 . S
C701 O673 1.214 . S
C701 O681 1.234 . S
C702 H674 0.929 . S
C702 C705 1.391 . S
C702 C707 1.391 . S
C703 H675 0.929 . S
C703 C704 1.390 . S
C703 N706 1.391 . S
C704 H676 0.930 . S
C704 C703 1.390 . S
C704 C705 1.392 . S
C705 H677 0.929 . S
C705 C702 1.391 . S
C705 C704 1.392 . S
N706 Co650 2.257 . S
N706 C703 1.391 . S
N706 C707 1.388 . S
C707 H678 0.930 . S
C707 C702 1.391 . S
C707 N706 1.388 . S
Co708 O710 2.143 . S
Co708 O716 2.074 . S
Co708 O719 2.093 . S
Co708 O732 2.097 . S
Co708 N749 2.151 . S
Co708 N757 2.214 . S
Co709 O710 2.160 . S
Co709 O715 2.058 . S
Co709 O725 2.057 . S
Co709 O740 2.037 . S
Co709 N744 2.145 . S
Co709 N765 2.257 . S
O710 Co708 2.143 . S
O710 Co709 2.160 . S
C711 O712 1.278 . S
C711 O719 1.224 . S
O712 C711 1.278 . S
C713 O714 1.245 . S
C713 O725 1.232 . S
O714 C713 1.245 . S
O715 Co709 2.058 . S
O715 C741 1.269 . S
O716 Co708 2.074 . S
O716 C741 1.257 . S
H717 C742 0.930 . S
H718 C748 0.930 . S
O719 Co708 2.093 . S
O719 C711 1.224 . S
H720 C752 0.929 . S
H721 C754 0.930 . S
H722 C755 0.930 . S
H723 C753 0.929 . S
H724 C756 0.928 . S
O725 Co709 2.057 . S
O725 C713 1.232 . S
H726 C745 0.929 . S
H727 C746 0.929 . S
H728 C758 0.931 . S
H729 C750 0.929 . S
H730 C759 0.930 . S
H731 C751 0.931 . S
O732 Co708 2.097 . S
O732 C760 1.214 . S
H733 C761 0.929 . S
H734 C762 0.929 . S
H735 C763 0.930 . S
H736 C764 0.929 . S
H737 C766 0.930 . S
H738 C743 0.930 . S
H739 C747 0.930 . S
O740 Co709 2.037 . S
O740 C760 1.234 . S
C741 O715 1.269 . S
C741 O716 1.257 . S
C742 H717 0.930 . S
C742 C745 1.388 . S
C742 C747 1.418 . S
C743 H738 0.930 . S
C743 C746 1.404 . S
C743 C747 1.353 . S
N744 Co709 2.145 . S
N744 C745 1.397 . S
N744 C746 1.334 . S
C745 H726 0.929 . S
C745 C742 1.388 . S
C745 N744 1.397 . S
C746 H727 0.929 . S
C746 C743 1.404 . S
C746 N744 1.334 . S
C747 H739 0.930 . S
C747 C742 1.418 . S
C747 C743 1.353 . S
C748 H718 0.930 . S
C748 N749 1.330 . S
C748 C750 1.446 . S
N749 Co708 2.151 . S
N749 C748 1.330 . S
N749 C753 1.418 . S
C750 H729 0.929 . S
C750 C748 1.446 . S
C750 C751 1.332 . S
C751 H731 0.931 . S
C751 C750 1.332 . S
C751 C752 1.267 . S
C752 H720 0.929 . S
C752 C751 1.267 . S
C752 C753 1.251 . S
C753 H723 0.929 . S
C753 N749 1.418 . S
C753 C752 1.251 . S
C754 H721 0.930 . S
C754 C756 1.406 . S
C754 C759 1.261 . S
C755 H722 0.930 . S
C755 N757 1.325 . S
C755 C758 1.357 . S
C756 H724 0.928 . S
C756 C754 1.406 . S
C756 N757 1.261 . S
N757 Co708 2.214 . S
N757 C755 1.325 . S
N757 C756 1.261 . S
C758 H728 0.931 . S
C758 C755 1.357 . S
C758 C759 1.312 . S
C759 H730 0.930 . S
C759 C754 1.261 . S
C759 C758 1.312 . S
C760 O732 1.214 . S
C760 O740 1.234 . S
C761 H733 0.929 . S
C761 C764 1.391 . S
C761 C766 1.391 . S
C762 H734 0.929 . S
C762 C763 1.390 . S
C762 N765 1.391 . S
C763 H735 0.930 . S
C763 C762 1.390 . S
C763 C764 1.392 . S
C764 H736 0.929 . S
C764 C761 1.391 . S
C764 C763 1.392 . S
N765 Co709 2.257 . S
N765 C762 1.391 . S
N765 C766 1.388 . S
C766 H737 0.930 . S
C766 C761 1.391 . S
C766 N765 1.388 . S
Co767 O769 2.143 . S
Co767 O775 2.074 . S
Co767 O778 2.093 . S
Co767 O791 2.097 . S
Co767 N808 2.151 . S
Co767 N816 2.214 . S
Co768 O769 2.160 . S
Co768 O774 2.058 . S
Co768 O784 2.057 . S
Co768 O799 2.037 . S
Co768 N803 2.145 . S
Co768 N824 2.257 . S
O769 Co767 2.143 . S
O769 Co768 2.160 . S
C770 O771 1.278 . S
C770 O778 1.224 . S
O771 C770 1.278 . S
C772 O773 1.245 . S
C772 O784 1.232 . S
O773 C772 1.245 . S
O774 Co768 2.058 . S
O774 C800 1.269 . S
O775 Co767 2.074 . S
O775 C800 1.257 . S
H776 C801 0.930 . S
H777 C807 0.930 . S
O778 Co767 2.093 . S
O778 C770 1.224 . S
H779 C811 0.929 . S
H780 C813 0.930 . S
H781 C814 0.930 . S
H782 C812 0.929 . S
H783 C815 0.928 . S
O784 Co768 2.057 . S
O784 C772 1.232 . S
H785 C804 0.929 . S
H786 C805 0.929 . S
H787 C817 0.931 . S
H788 C809 0.929 . S
H789 C818 0.930 . S
H790 C810 0.931 . S
O791 Co767 2.097 . S
O791 C819 1.214 . S
H792 C820 0.929 . S
H793 C821 0.929 . S
H794 C822 0.930 . S
H795 C823 0.929 . S
H796 C825 0.930 . S
H797 C802 0.930 . S
H798 C806 0.930 . S
O799 Co768 2.037 . S
O799 C819 1.234 . S
C800 O774 1.269 . S
C800 O775 1.257 . S
C801 H776 0.930 . S
C801 C804 1.388 . S
C801 C806 1.418 . S
C802 H797 0.930 . S
C802 C805 1.404 . S
C802 C806 1.353 . S
N803 Co768 2.145 . S
N803 C804 1.397 . S
N803 C805 1.334 . S
C804 H785 0.929 . S
C804 C801 1.388 . S
C804 N803 1.397 . S
C805 H786 0.929 . S
C805 C802 1.404 . S
C805 N803 1.334 . S
C806 H798 0.930 . S
C806 C801 1.418 . S
C806 C802 1.353 . S
C807 H777 0.930 . S
C807 N808 1.330 . S
C807 C809 1.446 . S
N808 Co767 2.151 . S
N808 C807 1.330 . S
N808 C812 1.418 . S
C809 H788 0.929 . S
C809 C807 1.446 . S
C809 C810 1.332 . S
C810 H790 0.931 . S
C810 C809 1.332 . S
C810 C811 1.267 . S
C811 H779 0.929 . S
C811 C810 1.267 . S
C811 C812 1.251 . S
C812 H782 0.929 . S
C812 N808 1.418 . S
C812 C811 1.251 . S
C813 H780 0.930 . S
C813 C815 1.406 . S
C813 C818 1.261 . S
C814 H781 0.930 . S
C814 N816 1.325 . S
C814 C817 1.357 . S
C815 H783 0.928 . S
C815 C813 1.406 . S
C815 N816 1.261 . S
N816 Co767 2.214 . S
N816 C814 1.325 . S
N816 C815 1.261 . S
C817 H787 0.931 . S
C817 C814 1.357 . S
C817 C818 1.312 . S
C818 H789 0.930 . S
C818 C813 1.261 . S
C818 C817 1.312 . S
C819 O791 1.214 . S
C819 O799 1.234 . S
C820 H792 0.929 . S
C820 C823 1.391 . S
C820 C825 1.391 . S
C821 H793 0.929 . S
C821 C822 1.390 . S
C821 N824 1.391 . S
C822 H794 0.930 . S
C822 C821 1.390 . S
C822 C823 1.392 . S
C823 H795 0.929 . S
C823 C820 1.391 . S
C823 C822 1.392 . S
N824 Co768 2.257 . S
N824 C821 1.391 . S
N824 C825 1.388 . S
C825 H796 0.930 . S
C825 C820 1.391 . S
C825 N824 1.388 . S
Co826 O828 2.143 . S
Co826 O834 2.074 . S
Co826 O837 2.093 . S
Co826 O850 2.097 . S
Co826 N867 2.151 . S
Co826 N875 2.214 . S
Co827 O828 2.160 . S
Co827 O833 2.058 . S
Co827 O843 2.057 . S
Co827 O858 2.037 . S
Co827 N862 2.145 . S
Co827 N883 2.257 . S
O828 Co826 2.143 . S
O828 Co827 2.160 . S
C829 O830 1.278 . S
C829 O837 1.224 . S
O830 C829 1.278 . S
C831 O832 1.245 . S
C831 O843 1.232 . S
O832 C831 1.245 . S
O833 Co827 2.058 . S
O833 C859 1.269 . S
O834 Co826 2.074 . S
O834 C859 1.257 . S
H835 C860 0.930 . S
H836 C866 0.930 . S
O837 Co826 2.093 . S
O837 C829 1.224 . S
H838 C870 0.929 . S
H839 C872 0.930 . S
H840 C873 0.930 . S
H841 C871 0.929 . S
H842 C874 0.928 . S
O843 Co827 2.057 . S
O843 C831 1.232 . S
H844 C863 0.929 . S
H845 C864 0.929 . S
H846 C876 0.931 . S
H847 C868 0.929 . S
H848 C877 0.930 . S
H849 C869 0.931 . S
O850 Co826 2.097 . S
O850 C878 1.214 . S
H851 C879 0.929 . S
H852 C880 0.929 . S
H853 C881 0.930 . S
H854 C882 0.929 . S
H855 C884 0.930 . S
H856 C861 0.930 . S
H857 C865 0.930 . S
O858 Co827 2.037 . S
O858 C878 1.234 . S
C859 O833 1.269 . S
C859 O834 1.257 . S
C860 H835 0.930 . S
C860 C863 1.388 . S
C860 C865 1.418 . S
C861 H856 0.930 . S
C861 C864 1.404 . S
C861 C865 1.353 . S
N862 Co827 2.145 . S
N862 C863 1.397 . S
N862 C864 1.334 . S
C863 H844 0.929 . S
C863 C860 1.388 . S
C863 N862 1.397 . S
C864 H845 0.929 . S
C864 C861 1.404 . S
C864 N862 1.334 . S
C865 H857 0.930 . S
C865 C860 1.418 . S
C865 C861 1.353 . S
C866 H836 0.930 . S
C866 N867 1.330 . S
C866 C868 1.446 . S
N867 Co826 2.151 . S
N867 C866 1.330 . S
N867 C871 1.418 . S
C868 H847 0.929 . S
C868 C866 1.446 . S
C868 C869 1.332 . S
C869 H849 0.931 . S
C869 C868 1.332 . S
C869 C870 1.267 . S
C870 H838 0.929 . S
C870 C869 1.267 . S
C870 C871 1.251 . S
C871 H841 0.929 . S
C871 N867 1.418 . S
C871 C870 1.251 . S
C872 H839 0.930 . S
C872 C874 1.406 . S
C872 C877 1.261 . S
C873 H840 0.930 . S
C873 N875 1.325 . S
C873 C876 1.357 . S
C874 H842 0.928 . S
C874 C872 1.406 . S
C874 N875 1.261 . S
N875 Co826 2.214 . S
N875 C873 1.325 . S
N875 C874 1.261 . S
C876 H846 0.931 . S
C876 C873 1.357 . S
C876 C877 1.312 . S
C877 H848 0.930 . S
C877 C872 1.261 . S
C877 C876 1.312 . S
C878 O850 1.214 . S
C878 O858 1.234 . S
C879 H851 0.929 . S
C879 C882 1.391 . S
C879 C884 1.391 . S
C880 H852 0.929 . S
C880 C881 1.390 . S
C880 N883 1.391 . S
C881 H853 0.930 . S
C881 C880 1.390 . S
C881 C882 1.392 . S
C882 H854 0.929 . S
C882 C879 1.391 . S
C882 C881 1.392 . S
N883 Co827 2.257 . S
N883 C880 1.391 . S
N883 C884 1.388 . S
C884 H855 0.930 . S
C884 C879 1.391 . S
C884 N883 1.388 . S
Co885 O887 2.143 . S
Co885 O893 2.074 . S
Co885 O896 2.093 . S
Co885 O909 2.097 . S
Co885 N926 2.151 . S
Co885 N934 2.214 . S
Co886 O887 2.160 . S
Co886 O892 2.058 . S
Co886 O902 2.057 . S
Co886 O917 2.037 . S
Co886 N921 2.145 . S
Co886 N942 2.257 . S
O887 Co885 2.143 . S
O887 Co886 2.160 . S
C888 O889 1.278 . S
C888 O896 1.224 . S
O889 C888 1.278 . S
C890 O891 1.245 . S
C890 O902 1.232 . S
O891 C890 1.245 . S
O892 Co886 2.058 . S
O892 C918 1.269 . S
O893 Co885 2.074 . S
O893 C918 1.257 . S
H894 C919 0.930 . S
H895 C925 0.930 . S
O896 Co885 2.093 . S
O896 C888 1.224 . S
H897 C929 0.929 . S
H898 C931 0.930 . S
H899 C932 0.930 . S
H900 C930 0.929 . S
H901 C933 0.928 . S
O902 Co886 2.057 . S
O902 C890 1.232 . S
H903 C922 0.929 . S
H904 C923 0.929 . S
H905 C935 0.931 . S
H906 C927 0.929 . S
H907 C936 0.930 . S
H908 C928 0.931 . S
O909 Co885 2.097 . S
O909 C937 1.214 . S
H910 C938 0.929 . S
H911 C939 0.929 . S
H912 C940 0.930 . S
H913 C941 0.929 . S
H914 C943 0.930 . S
H915 C920 0.930 . S
H916 C924 0.930 . S
O917 Co886 2.037 . S
O917 C937 1.234 . S
C918 O892 1.269 . S
C918 O893 1.257 . S
C919 H894 0.930 . S
C919 C922 1.388 . S
C919 C924 1.418 . S
C920 H915 0.930 . S
C920 C923 1.404 . S
C920 C924 1.353 . S
N921 Co886 2.145 . S
N921 C922 1.397 . S
N921 C923 1.334 . S
C922 H903 0.929 . S
C922 C919 1.388 . S
C922 N921 1.397 . S
C923 H904 0.929 . S
C923 C920 1.404 . S
C923 N921 1.334 . S
C924 H916 0.930 . S
C924 C919 1.418 . S
C924 C920 1.353 . S
C925 H895 0.930 . S
C925 N926 1.330 . S
C925 C927 1.446 . S
N926 Co885 2.151 . S
N926 C925 1.330 . S
N926 C930 1.418 . S
C927 H906 0.929 . S
C927 C925 1.446 . S
C927 C928 1.332 . S
C928 H908 0.931 . S
C928 C927 1.332 . S
C928 C929 1.267 . S
C929 H897 0.929 . S
C929 C928 1.267 . S
C929 C930 1.251 . S
C930 H900 0.929 . S
C930 N926 1.418 . S
C930 C929 1.251 . S
C931 H898 0.930 . S
C931 C933 1.406 . S
C931 C936 1.261 . S
C932 H899 0.930 . S
C932 N934 1.325 . S
C932 C935 1.357 . S
C933 H901 0.928 . S
C933 C931 1.406 . S
C933 N934 1.261 . S
N934 Co885 2.214 . S
N934 C932 1.325 . S
N934 C933 1.261 . S
C935 H905 0.931 . S
C935 C932 1.357 . S
C935 C936 1.312 . S
C936 H907 0.930 . S
C936 C931 1.261 . S
C936 C935 1.312 . S
C937 O909 1.214 . S
C937 O917 1.234 . S
C938 H910 0.929 . S
C938 C941 1.391 . S
C938 C943 1.391 . S
C939 H911 0.929 . S
C939 C940 1.390 . S
C939 N942 1.391 . S
C940 H912 0.930 . S
C940 C939 1.390 . S
C940 C941 1.392 . S
C941 H913 0.929 . S
C941 C938 1.391 . S
C941 C940 1.392 . S
N942 Co886 2.257 . S
N942 C939 1.391 . S
N942 C943 1.388 . S
C943 H914 0.930 . S
C943 C938 1.391 . S
C943 N942 1.388 . S
Co944 O946 2.143 . S
Co944 O952 2.074 . S
Co944 O955 2.093 . S
Co944 O968 2.097 . S
Co944 N985 2.151 . S
Co944 N993 2.214 . S
Co945 O946 2.160 . S
Co945 O951 2.058 . S
Co945 O961 2.057 . S
Co945 O976 2.037 . S
Co945 N980 2.145 . S
Co945 N1001 2.257 . S
O946 Co944 2.143 . S
O946 Co945 2.160 . S
C947 O948 1.278 . S
C947 O955 1.224 . S
O948 C947 1.278 . S
C949 O950 1.245 . S
C949 O961 1.232 . S
O950 C949 1.245 . S
O951 Co945 2.058 . S
O951 C977 1.269 . S
O952 Co944 2.074 . S
O952 C977 1.257 . S
H953 C978 0.930 . S
H954 C984 0.930 . S
O955 Co944 2.093 . S
O955 C947 1.224 . S
H956 C988 0.929 . S
H957 C990 0.930 . S
H958 C991 0.930 . S
H959 C989 0.929 . S
H960 C992 0.928 . S
O961 Co945 2.057 . S
O961 C949 1.232 . S
H962 C981 0.929 . S
H963 C982 0.929 . S
H964 C994 0.931 . S
H965 C986 0.929 . S
H966 C995 0.930 . S
H967 C987 0.931 . S
O968 Co944 2.097 . S
O968 C996 1.214 . S
H969 C997 0.929 . S
H970 C998 0.929 . S
H971 C999 0.930 . S
H972 C1000 0.929 . S
H973 C1002 0.930 . S
H974 C979 0.930 . S
H975 C983 0.930 . S
O976 Co945 2.037 . S
O976 C996 1.234 . S
C977 O951 1.269 . S
C977 O952 1.257 . S
C978 H953 0.930 . S
C978 C981 1.388 . S
C978 C983 1.418 . S
C979 H974 0.930 . S
C979 C982 1.404 . S
C979 C983 1.353 . S
N980 Co945 2.145 . S
N980 C981 1.397 . S
N980 C982 1.334 . S
C981 H962 0.929 . S
C981 C978 1.388 . S
C981 N980 1.397 . S
C982 H963 0.929 . S
C982 C979 1.404 . S
C982 N980 1.334 . S
C983 H975 0.930 . S
C983 C978 1.418 . S
C983 C979 1.353 . S
C984 H954 0.930 . S
C984 N985 1.330 . S
C984 C986 1.446 . S
N985 Co944 2.151 . S
N985 C984 1.330 . S
N985 C989 1.418 . S
C986 H965 0.929 . S
C986 C984 1.446 . S
C986 C987 1.332 . S
C987 H967 0.931 . S
C987 C986 1.332 . S
C987 C988 1.267 . S
C988 H956 0.929 . S
C988 C987 1.267 . S
C988 C989 1.251 . S
C989 H959 0.929 . S
C989 N985 1.418 . S
C989 C988 1.251 . S
C990 H957 0.930 . S
C990 C992 1.406 . S
C990 C995 1.261 . S
C991 H958 0.930 . S
C991 N993 1.325 . S
C991 C994 1.357 . S
C992 H960 0.928 . S
C992 C990 1.406 . S
C992 N993 1.261 . S
N993 Co944 2.214 . S
N993 C991 1.325 . S
N993 C992 1.261 . S
C994 H964 0.931 . S
C994 C991 1.357 . S
C994 C995 1.312 . S
C995 H966 0.930 . S
C995 C990 1.261 . S
C995 C994 1.312 . S
C996 O968 1.214 . S
C996 O976 1.234 . S
C997 H969 0.929 . S
C997 C1000 1.391 . S
C997 C1002 1.391 . S
C998 H970 0.929 . S
C998 C999 1.390 . S
C998 N1001 1.391 . S
C999 H971 0.930 . S
C999 C998 1.390 . S
C999 C1000 1.392 . S
C1000 H972 0.929 . S
C1000 C997 1.391 . S
C1000 C999 1.392 . S
N1001 Co945 2.257 . S
N1001 C998 1.391 . S
N1001 C1002 1.388 . S
C1002 H973 0.930 . S
C1002 C997 1.391 . S
C1002 N1001 1.388 . S
Co1003 O1005 2.143 . S
Co1003 O1011 2.074 . S
Co1003 O1014 2.093 . S
Co1003 O1027 2.097 . S
Co1003 N1044 2.151 . S
Co1003 N1052 2.214 . S
Co1004 O1005 2.160 . S
Co1004 O1010 2.058 . S
Co1004 O1020 2.057 . S
Co1004 O1035 2.037 . S
Co1004 N1039 2.145 . S
Co1004 N1060 2.257 . S
O1005 Co1003 2.143 . S
O1005 Co1004 2.160 . S
C1006 O1007 1.278 . S
C1006 O1014 1.224 . S
O1007 C1006 1.278 . S
C1008 O1009 1.245 . S
C1008 O1020 1.232 . S
O1009 C1008 1.245 . S
O1010 Co1004 2.058 . S
O1010 C1036 1.269 . S
O1011 Co1003 2.074 . S
O1011 C1036 1.257 . S
H1012 C1037 0.930 . S
H1013 C1043 0.930 . S
O1014 Co1003 2.093 . S
O1014 C1006 1.224 . S
H1015 C1047 0.929 . S
H1016 C1049 0.930 . S
H1017 C1050 0.930 . S
H1018 C1048 0.929 . S
H1019 C1051 0.928 . S
O1020 Co1004 2.057 . S
O1020 C1008 1.232 . S
H1021 C1040 0.929 . S
H1022 C1041 0.929 . S
H1023 C1053 0.931 . S
H1024 C1045 0.929 . S
H1025 C1054 0.930 . S
H1026 C1046 0.931 . S
O1027 Co1003 2.097 . S
O1027 C1055 1.214 . S
H1028 C1056 0.929 . S
H1029 C1057 0.929 . S
H1030 C1058 0.930 . S
H1031 C1059 0.929 . S
H1032 C1061 0.930 . S
H1033 C1038 0.930 . S
H1034 C1042 0.930 . S
O1035 Co1004 2.037 . S
O1035 C1055 1.234 . S
C1036 O1010 1.269 . S
C1036 O1011 1.257 . S
C1037 H1012 0.930 . S
C1037 C1040 1.388 . S
C1037 C1042 1.418 . S
C1038 H1033 0.930 . S
C1038 C1041 1.404 . S
C1038 C1042 1.353 . S
N1039 Co1004 2.145 . S
N1039 C1040 1.397 . S
N1039 C1041 1.334 . S
C1040 H1021 0.929 . S
C1040 C1037 1.388 . S
C1040 N1039 1.397 . S
C1041 H1022 0.929 . S
C1041 C1038 1.404 . S
C1041 N1039 1.334 . S
C1042 H1034 0.930 . S
C1042 C1037 1.418 . S
C1042 C1038 1.353 . S
C1043 H1013 0.930 . S
C1043 N1044 1.330 . S
C1043 C1045 1.446 . S
N1044 Co1003 2.151 . S
N1044 C1043 1.330 . S
N1044 C1048 1.418 . S
C1045 H1024 0.929 . S
C1045 C1043 1.446 . S
C1045 C1046 1.332 . S
C1046 H1026 0.931 . S
C1046 C1045 1.332 . S
C1046 C1047 1.267 . S
C1047 H1015 0.929 . S
C1047 C1046 1.267 . S
C1047 C1048 1.251 . S
C1048 H1018 0.929 . S
C1048 N1044 1.418 . S
C1048 C1047 1.251 . S
C1049 H1016 0.930 . S
C1049 C1051 1.406 . S
C1049 C1054 1.261 . S
C1050 H1017 0.930 . S
C1050 N1052 1.325 . S
C1050 C1053 1.357 . S
C1051 H1019 0.928 . S
C1051 C1049 1.406 . S
C1051 N1052 1.261 . S
N1052 Co1003 2.214 . S
N1052 C1050 1.325 . S
N1052 C1051 1.261 . S
C1053 H1023 0.931 . S
C1053 C1050 1.357 . S
C1053 C1054 1.312 . S
C1054 H1025 0.930 . S
C1054 C1049 1.261 . S
C1054 C1053 1.312 . S
C1055 O1027 1.214 . S
C1055 O1035 1.234 . S
C1056 H1028 0.929 . S
C1056 C1059 1.391 . S
C1056 C1061 1.391 . S
C1057 H1029 0.929 . S
C1057 C1058 1.390 . S
C1057 N1060 1.391 . S
C1058 H1030 0.930 . S
C1058 C1057 1.390 . S
C1058 C1059 1.392 . S
C1059 H1031 0.929 . S
C1059 C1056 1.391 . S
C1059 C1058 1.392 . S
N1060 Co1004 2.257 . S
N1060 C1057 1.391 . S
N1060 C1061 1.388 . S
C1061 H1032 0.930 . S
C1061 C1056 1.391 . S
C1061 N1060 1.388 . S
Co1062 O1064 2.143 . S
Co1062 O1070 2.074 . S
Co1062 O1073 2.093 . S
Co1062 O1086 2.097 . S
Co1062 N1103 2.151 . S
Co1062 N1111 2.214 . S
Co1063 O1064 2.160 . S
Co1063 O1069 2.058 . S
Co1063 O1079 2.057 . S
Co1063 O1094 2.037 . S
Co1063 N1098 2.145 . S
Co1063 N1119 2.257 . S
O1064 Co1062 2.143 . S
O1064 Co1063 2.160 . S
C1065 O1066 1.278 . S
C1065 O1073 1.224 . S
O1066 C1065 1.278 . S
C1067 O1068 1.245 . S
C1067 O1079 1.232 . S
O1068 C1067 1.245 . S
O1069 Co1063 2.058 . S
O1069 C1095 1.269 . S
O1070 Co1062 2.074 . S
O1070 C1095 1.257 . S
H1071 C1096 0.930 . S
H1072 C1102 0.930 . S
O1073 Co1062 2.093 . S
O1073 C1065 1.224 . S
H1074 C1106 0.929 . S
H1075 C1108 0.930 . S
H1076 C1109 0.930 . S
H1077 C1107 0.929 . S
H1078 C1110 0.928 . S
O1079 Co1063 2.057 . S
O1079 C1067 1.232 . S
H1080 C1099 0.929 . S
H1081 C1100 0.929 . S
H1082 C1112 0.931 . S
H1083 C1104 0.929 . S
H1084 C1113 0.930 . S
H1085 C1105 0.931 . S
O1086 Co1062 2.097 . S
O1086 C1114 1.214 . S
H1087 C1115 0.929 . S
H1088 C1116 0.929 . S
H1089 C1117 0.930 . S
H1090 C1118 0.929 . S
H1091 C1120 0.930 . S
H1092 C1097 0.930 . S
H1093 C1101 0.930 . S
O1094 Co1063 2.037 . S
O1094 C1114 1.234 . S
C1095 O1069 1.269 . S
C1095 O1070 1.257 . S
C1096 H1071 0.930 . S
C1096 C1099 1.388 . S
C1096 C1101 1.418 . S
C1097 H1092 0.930 . S
C1097 C1100 1.404 . S
C1097 C1101 1.353 . S
N1098 Co1063 2.145 . S
N1098 C1099 1.397 . S
N1098 C1100 1.334 . S
C1099 H1080 0.929 . S
C1099 C1096 1.388 . S
C1099 N1098 1.397 . S
C1100 H1081 0.929 . S
C1100 C1097 1.404 . S
C1100 N1098 1.334 . S
C1101 H1093 0.930 . S
C1101 C1096 1.418 . S
C1101 C1097 1.353 . S
C1102 H1072 0.930 . S
C1102 N1103 1.330 . S
C1102 C1104 1.446 . S
N1103 Co1062 2.151 . S
N1103 C1102 1.330 . S
N1103 C1107 1.418 . S
C1104 H1083 0.929 . S
C1104 C1102 1.446 . S
C1104 C1105 1.332 . S
C1105 H1085 0.931 . S
C1105 C1104 1.332 . S
C1105 C1106 1.267 . S
C1106 H1074 0.929 . S
C1106 C1105 1.267 . S
C1106 C1107 1.251 . S
C1107 H1077 0.929 . S
C1107 N1103 1.418 . S
C1107 C1106 1.251 . S
C1108 H1075 0.930 . S
C1108 C1110 1.406 . S
C1108 C1113 1.261 . S
C1109 H1076 0.930 . S
C1109 N1111 1.325 . S
C1109 C1112 1.357 . S
C1110 H1078 0.928 . S
C1110 C1108 1.406 . S
C1110 N1111 1.261 . S
N1111 Co1062 2.214 . S
N1111 C1109 1.325 . S
N1111 C1110 1.261 . S
C1112 H1082 0.931 . S
C1112 C1109 1.357 . S
C1112 C1113 1.312 . S
C1113 H1084 0.930 . S
C1113 C1108 1.261 . S
C1113 C1112 1.312 . S
C1114 O1086 1.214 . S
C1114 O1094 1.234 . S
C1115 H1087 0.929 . S
C1115 C1118 1.391 . S
C1115 C1120 1.391 . S
C1116 H1088 0.929 . S
C1116 C1117 1.390 . S
C1116 N1119 1.391 . S
C1117 H1089 0.930 . S
C1117 C1116 1.390 . S
C1117 C1118 1.392 . S
C1118 H1090 0.929 . S
C1118 C1115 1.391 . S
C1118 C1117 1.392 . S
N1119 Co1063 2.257 . S
N1119 C1116 1.391 . S
N1119 C1120 1.388 . S
C1120 H1091 0.930 . S
C1120 C1115 1.391 . S
C1120 N1119 1.388 . S
Co1121 O1123 2.143 . S
Co1121 O1129 2.074 . S
Co1121 O1132 2.093 . S
Co1121 O1145 2.097 . S
Co1121 N1162 2.151 . S
Co1121 N1170 2.214 . S
Co1122 O1123 2.160 . S
Co1122 O1128 2.058 . S
Co1122 O1138 2.057 . S
Co1122 O1153 2.037 . S
Co1122 N1157 2.145 . S
Co1122 N1178 2.257 . S
O1123 Co1121 2.143 . S
O1123 Co1122 2.160 . S
C1124 O1125 1.278 . S
C1124 O1132 1.224 . S
O1125 C1124 1.278 . S
C1126 O1127 1.245 . S
C1126 O1138 1.232 . S
O1127 C1126 1.245 . S
O1128 Co1122 2.058 . S
O1128 C1154 1.269 . S
O1129 Co1121 2.074 . S
O1129 C1154 1.257 . S
H1130 C1155 0.930 . S
H1131 C1161 0.930 . S
O1132 Co1121 2.093 . S
O1132 C1124 1.224 . S
H1133 C1165 0.929 . S
H1134 C1167 0.930 . S
H1135 C1168 0.930 . S
H1136 C1166 0.929 . S
H1137 C1169 0.928 . S
O1138 Co1122 2.057 . S
O1138 C1126 1.232 . S
H1139 C1158 0.929 . S
H1140 C1159 0.929 . S
H1141 C1171 0.931 . S
H1142 C1163 0.929 . S
H1143 C1172 0.930 . S
H1144 C1164 0.931 . S
O1145 Co1121 2.097 . S
O1145 C1173 1.214 . S
H1146 C1174 0.929 . S
H1147 C1175 0.929 . S
H1148 C1176 0.930 . S
H1149 C1177 0.929 . S
H1150 C1179 0.930 . S
H1151 C1156 0.930 . S
H1152 C1160 0.930 . S
O1153 Co1122 2.037 . S
O1153 C1173 1.234 . S
C1154 O1128 1.269 . S
C1154 O1129 1.257 . S
C1155 H1130 0.930 . S
C1155 C1158 1.388 . S
C1155 C1160 1.418 . S
C1156 H1151 0.930 . S
C1156 C1159 1.404 . S
C1156 C1160 1.353 . S
N1157 Co1122 2.145 . S
N1157 C1158 1.397 . S
N1157 C1159 1.334 . S
C1158 H1139 0.929 . S
C1158 C1155 1.388 . S
C1158 N1157 1.397 . S
C1159 H1140 0.929 . S
C1159 C1156 1.404 . S
C1159 N1157 1.334 . S
C1160 H1152 0.930 . S
C1160 C1155 1.418 . S
C1160 C1156 1.353 . S
C1161 H1131 0.930 . S
C1161 N1162 1.330 . S
C1161 C1163 1.446 . S
N1162 Co1121 2.151 . S
N1162 C1161 1.330 . S
N1162 C1166 1.418 . S
C1163 H1142 0.929 . S
C1163 C1161 1.446 . S
C1163 C1164 1.332 . S
C1164 H1144 0.931 . S
C1164 C1163 1.332 . S
C1164 C1165 1.267 . S
C1165 H1133 0.929 . S
C1165 C1164 1.267 . S
C1165 C1166 1.251 . S
C1166 H1136 0.929 . S
C1166 N1162 1.418 . S
C1166 C1165 1.251 . S
C1167 H1134 0.930 . S
C1167 C1169 1.406 . S
C1167 C1172 1.261 . S
C1168 H1135 0.930 . S
C1168 N1170 1.325 . S
C1168 C1171 1.357 . S
C1169 H1137 0.928 . S
C1169 C1167 1.406 . S
C1169 N1170 1.261 . S
N1170 Co1121 2.214 . S
N1170 C1168 1.325 . S
N1170 C1169 1.261 . S
C1171 H1141 0.931 . S
C1171 C1168 1.357 . S
C1171 C1172 1.312 . S
C1172 H1143 0.930 . S
C1172 C1167 1.261 . S
C1172 C1171 1.312 . S
C1173 O1145 1.214 . S
C1173 O1153 1.234 . S
C1174 H1146 0.929 . S
C1174 C1177 1.391 . S
C1174 C1179 1.391 . S
C1175 H1147 0.929 . S
C1175 C1176 1.390 . S
C1175 N1178 1.391 . S
C1176 H1148 0.930 . S
C1176 C1175 1.390 . S
C1176 C1177 1.392 . S
C1177 H1149 0.929 . S
C1177 C1174 1.391 . S
C1177 C1176 1.392 . S
N1178 Co1122 2.257 . S
N1178 C1175 1.391 . S
N1178 C1179 1.388 . S
C1179 H1150 0.930 . S
C1179 C1174 1.391 . S
C1179 N1178 1.388 . S
Co1180 O1182 2.143 . S
Co1180 O1188 2.074 . S
Co1180 O1191 2.093 . S
Co1180 O1204 2.097 . S
Co1180 N1221 2.151 . S
Co1180 N1229 2.214 . S
Co1181 O1182 2.160 . S
Co1181 O1187 2.058 . S
Co1181 O1197 2.057 . S
Co1181 O1212 2.037 . S
Co1181 N1216 2.145 . S
Co1181 N1237 2.257 . S
O1182 Co1180 2.143 . S
O1182 Co1181 2.160 . S
C1183 O1184 1.278 . S
C1183 O1191 1.224 . S
O1184 C1183 1.278 . S
C1185 O1186 1.245 . S
C1185 O1197 1.232 . S
O1186 C1185 1.245 . S
O1187 Co1181 2.058 . S
O1187 C1213 1.269 . S
O1188 Co1180 2.074 . S
O1188 C1213 1.257 . S
H1189 C1214 0.930 . S
H1190 C1220 0.930 . S
O1191 Co1180 2.093 . S
O1191 C1183 1.224 . S
H1192 C1224 0.929 . S
H1193 C1226 0.930 . S
H1194 C1227 0.930 . S
H1195 C1225 0.929 . S
H1196 C1228 0.928 . S
O1197 Co1181 2.057 . S
O1197 C1185 1.232 . S
H1198 C1217 0.929 . S
H1199 C1218 0.929 . S
H1200 C1230 0.931 . S
H1201 C1222 0.929 . S
H1202 C1231 0.930 . S
H1203 C1223 0.931 . S
O1204 Co1180 2.097 . S
O1204 C1232 1.214 . S
H1205 C1233 0.929 . S
H1206 C1234 0.929 . S
H1207 C1235 0.930 . S
H1208 C1236 0.929 . S
H1209 C1238 0.930 . S
H1210 C1215 0.930 . S
H1211 C1219 0.930 . S
O1212 Co1181 2.037 . S
O1212 C1232 1.234 . S
C1213 O1187 1.269 . S
C1213 O1188 1.257 . S
C1214 H1189 0.930 . S
C1214 C1217 1.388 . S
C1214 C1219 1.418 . S
C1215 H1210 0.930 . S
C1215 C1218 1.404 . S
C1215 C1219 1.353 . S
N1216 Co1181 2.145 . S
N1216 C1217 1.397 . S
N1216 C1218 1.334 . S
C1217 H1198 0.929 . S
C1217 C1214 1.388 . S
C1217 N1216 1.397 . S
C1218 H1199 0.929 . S
C1218 C1215 1.404 . S
C1218 N1216 1.334 . S
C1219 H1211 0.930 . S
C1219 C1214 1.418 . S
C1219 C1215 1.353 . S
C1220 H1190 0.930 . S
C1220 N1221 1.330 . S
C1220 C1222 1.446 . S
N1221 Co1180 2.151 . S
N1221 C1220 1.330 . S
N1221 C1225 1.418 . S
C1222 H1201 0.929 . S
C1222 C1220 1.446 . S
C1222 C1223 1.332 . S
C1223 H1203 0.931 . S
C1223 C1222 1.332 . S
C1223 C1224 1.267 . S
C1224 H1192 0.929 . S
C1224 C1223 1.267 . S
C1224 C1225 1.251 . S
C1225 H1195 0.929 . S
C1225 N1221 1.418 . S
C1225 C1224 1.251 . S
C1226 H1193 0.930 . S
C1226 C1228 1.406 . S
C1226 C1231 1.261 . S
C1227 H1194 0.930 . S
C1227 N1229 1.325 . S
C1227 C1230 1.357 . S
C1228 H1196 0.928 . S
C1228 C1226 1.406 . S
C1228 N1229 1.261 . S
N1229 Co1180 2.214 . S
N1229 C1227 1.325 . S
N1229 C1228 1.261 . S
C1230 H1200 0.931 . S
C1230 C1227 1.357 . S
C1230 C1231 1.312 . S
C1231 H1202 0.930 . S
C1231 C1226 1.261 . S
C1231 C1230 1.312 . S
C1232 O1204 1.214 . S
C1232 O1212 1.234 . S
C1233 H1205 0.929 . S
C1233 C1236 1.391 . S
C1233 C1238 1.391 . S
C1234 H1206 0.929 . S
C1234 C1235 1.390 . S
C1234 N1237 1.391 . S
C1235 H1207 0.930 . S
C1235 C1234 1.390 . S
C1235 C1236 1.392 . S
C1236 H1208 0.929 . S
C1236 C1233 1.391 . S
C1236 C1235 1.392 . S
N1237 Co1181 2.257 . S
N1237 C1234 1.391 . S
N1237 C1238 1.388 . S
C1238 H1209 0.930 . S
C1238 C1233 1.391 . S
C1238 N1237 1.388 . S
Co1239 O1241 2.143 . S
Co1239 O1247 2.074 . S
Co1239 O1250 2.093 . S
Co1239 O1263 2.097 . S
Co1239 N1280 2.151 . S
Co1239 N1288 2.214 . S
Co1240 O1241 2.160 . S
Co1240 O1246 2.058 . S
Co1240 O1256 2.057 . S
Co1240 O1271 2.037 . S
Co1240 N1275 2.145 . S
Co1240 N1296 2.257 . S
O1241 Co1239 2.143 . S
O1241 Co1240 2.160 . S
C1242 O1243 1.278 . S
C1242 O1250 1.224 . S
O1243 C1242 1.278 . S
C1244 O1245 1.245 . S
C1244 O1256 1.232 . S
O1245 C1244 1.245 . S
O1246 Co1240 2.058 . S
O1246 C1272 1.269 . S
O1247 Co1239 2.074 . S
O1247 C1272 1.257 . S
H1248 C1273 0.930 . S
H1249 C1279 0.930 . S
O1250 Co1239 2.093 . S
O1250 C1242 1.224 . S
H1251 C1283 0.929 . S
H1252 C1285 0.930 . S
H1253 C1286 0.930 . S
H1254 C1284 0.929 . S
H1255 C1287 0.928 . S
O1256 Co1240 2.057 . S
O1256 C1244 1.232 . S
H1257 C1276 0.929 . S
H1258 C1277 0.929 . S
H1259 C1289 0.931 . S
H1260 C1281 0.929 . S
H1261 C1290 0.930 . S
H1262 C1282 0.931 . S
O1263 Co1239 2.097 . S
O1263 C1291 1.214 . S
H1264 C1292 0.929 . S
H1265 C1293 0.929 . S
H1266 C1294 0.930 . S
H1267 C1295 0.929 . S
H1268 C1297 0.930 . S
H1269 C1274 0.930 . S
H1270 C1278 0.930 . S
O1271 Co1240 2.037 . S
O1271 C1291 1.234 . S
C1272 O1246 1.269 . S
C1272 O1247 1.257 . S
C1273 H1248 0.930 . S
C1273 C1276 1.388 . S
C1273 C1278 1.418 . S
C1274 H1269 0.930 . S
C1274 C1277 1.404 . S
C1274 C1278 1.353 . S
N1275 Co1240 2.145 . S
N1275 C1276 1.397 . S
N1275 C1277 1.334 . S
C1276 H1257 0.929 . S
C1276 C1273 1.388 . S
C1276 N1275 1.397 . S
C1277 H1258 0.929 . S
C1277 C1274 1.404 . S
C1277 N1275 1.334 . S
C1278 H1270 0.930 . S
C1278 C1273 1.418 . S
C1278 C1274 1.353 . S
C1279 H1249 0.930 . S
C1279 N1280 1.330 . S
C1279 C1281 1.446 . S
N1280 Co1239 2.151 . S
N1280 C1279 1.330 . S
N1280 C1284 1.418 . S
C1281 H1260 0.929 . S
C1281 C1279 1.446 . S
C1281 C1282 1.332 . S
C1282 H1262 0.931 . S
C1282 C1281 1.332 . S
C1282 C1283 1.267 . S
C1283 H1251 0.929 . S
C1283 C1282 1.267 . S
C1283 C1284 1.251 . S
C1284 H1254 0.929 . S
C1284 N1280 1.418 . S
C1284 C1283 1.251 . S
C1285 H1252 0.930 . S
C1285 C1287 1.406 . S
C1285 C1290 1.261 . S
C1286 H1253 0.930 . S
C1286 N1288 1.325 . S
C1286 C1289 1.357 . S
C1287 H1255 0.928 . S
C1287 C1285 1.406 . S
C1287 N1288 1.261 . S
N1288 Co1239 2.214 . S
N1288 C1286 1.325 . S
N1288 C1287 1.261 . S
C1289 H1259 0.931 . S
C1289 C1286 1.357 . S
C1289 C1290 1.312 . S
C1290 H1261 0.930 . S
C1290 C1285 1.261 . S
C1290 C1289 1.312 . S
C1291 O1263 1.214 . S
C1291 O1271 1.234 . S
C1292 H1264 0.929 . S
C1292 C1295 1.391 . S
C1292 C1297 1.391 . S
C1293 H1265 0.929 . S
C1293 C1294 1.390 . S
C1293 N1296 1.391 . S
C1294 H1266 0.930 . S
C1294 C1293 1.390 . S
C1294 C1295 1.392 . S
C1295 H1267 0.929 . S
C1295 C1292 1.391 . S
C1295 C1294 1.392 . S
N1296 Co1240 2.257 . S
N1296 C1293 1.391 . S
N1296 C1297 1.388 . S
C1297 H1268 0.930 . S
C1297 C1292 1.391 . S
C1297 N1296 1.388 . S
Co1298 O1300 2.143 . S
Co1298 O1306 2.074 . S
Co1298 O1309 2.093 . S
Co1298 O1322 2.097 . S
Co1298 N1339 2.151 . S
Co1298 N1347 2.214 . S
Co1299 O1300 2.160 . S
Co1299 O1305 2.058 . S
Co1299 O1315 2.057 . S
Co1299 O1330 2.037 . S
Co1299 N1334 2.145 . S
Co1299 N1355 2.257 . S
O1300 Co1298 2.143 . S
O1300 Co1299 2.160 . S
C1301 O1302 1.278 . S
C1301 O1309 1.224 . S
O1302 C1301 1.278 . S
C1303 O1304 1.245 . S
C1303 O1315 1.232 . S
O1304 C1303 1.245 . S
O1305 Co1299 2.058 . S
O1305 C1331 1.269 . S
O1306 Co1298 2.074 . S
O1306 C1331 1.257 . S
H1307 C1332 0.930 . S
H1308 C1338 0.930 . S
O1309 Co1298 2.093 . S
O1309 C1301 1.224 . S
H1310 C1342 0.929 . S
H1311 C1344 0.930 . S
H1312 C1345 0.930 . S
H1313 C1343 0.929 . S
H1314 C1346 0.928 . S
O1315 Co1299 2.057 . S
O1315 C1303 1.232 . S
H1316 C1335 0.929 . S
H1317 C1336 0.929 . S
H1318 C1348 0.931 . S
H1319 C1340 0.929 . S
H1320 C1349 0.930 . S
H1321 C1341 0.931 . S
O1322 Co1298 2.097 . S
O1322 C1350 1.214 . S
H1323 C1351 0.929 . S
H1324 C1352 0.929 . S
H1325 C1353 0.930 . S
H1326 C1354 0.929 . S
H1327 C1356 0.930 . S
H1328 C1333 0.930 . S
H1329 C1337 0.930 . S
O1330 Co1299 2.037 . S
O1330 C1350 1.234 . S
C1331 O1305 1.269 . S
C1331 O1306 1.257 . S
C1332 H1307 0.930 . S
C1332 C1335 1.388 . S
C1332 C1337 1.418 . S
C1333 H1328 0.930 . S
C1333 C1336 1.404 . S
C1333 C1337 1.353 . S
N1334 Co1299 2.145 . S
N1334 C1335 1.397 . S
N1334 C1336 1.334 . S
C1335 H1316 0.929 . S
C1335 C1332 1.388 . S
C1335 N1334 1.397 . S
C1336 H1317 0.929 . S
C1336 C1333 1.404 . S
C1336 N1334 1.334 . S
C1337 H1329 0.930 . S
C1337 C1332 1.418 . S
C1337 C1333 1.353 . S
C1338 H1308 0.930 . S
C1338 N1339 1.330 . S
C1338 C1340 1.446 . S
N1339 Co1298 2.151 . S
N1339 C1338 1.330 . S
N1339 C1343 1.418 . S
C1340 H1319 0.929 . S
C1340 C1338 1.446 . S
C1340 C1341 1.332 . S
C1341 H1321 0.931 . S
C1341 C1340 1.332 . S
C1341 C1342 1.267 . S
C1342 H1310 0.929 . S
C1342 C1341 1.267 . S
C1342 C1343 1.251 . S
C1343 H1313 0.929 . S
C1343 N1339 1.418 . S
C1343 C1342 1.251 . S
C1344 H1311 0.930 . S
C1344 C1346 1.406 . S
C1344 C1349 1.261 . S
C1345 H1312 0.930 . S
C1345 N1347 1.325 . S
C1345 C1348 1.357 . S
C1346 H1314 0.928 . S
C1346 C1344 1.406 . S
C1346 N1347 1.261 . S
N1347 Co1298 2.214 . S
N1347 C1345 1.325 . S
N1347 C1346 1.261 . S
C1348 H1318 0.931 . S
C1348 C1345 1.357 . S
C1348 C1349 1.312 . S
C1349 H1320 0.930 . S
C1349 C1344 1.261 . S
C1349 C1348 1.312 . S
C1350 O1322 1.214 . S
C1350 O1330 1.234 . S
C1351 H1323 0.929 . S
C1351 C1354 1.391 . S
C1351 C1356 1.391 . S
C1352 H1324 0.929 . S
C1352 C1353 1.390 . S
C1352 N1355 1.391 . S
C1353 H1325 0.930 . S
C1353 C1352 1.390 . S
C1353 C1354 1.392 . S
C1354 H1326 0.929 . S
C1354 C1351 1.391 . S
C1354 C1353 1.392 . S
N1355 Co1299 2.257 . S
N1355 C1352 1.391 . S
N1355 C1356 1.388 . S
C1356 H1327 0.930 . S
C1356 C1351 1.391 . S
C1356 N1355 1.388 . S
Co1357 O1359 2.143 . S
Co1357 O1365 2.074 . S
Co1357 O1368 2.093 . S
Co1357 O1381 2.097 . S
Co1357 N1398 2.151 . S
Co1357 N1406 2.214 . S
Co1358 O1359 2.160 . S
Co1358 O1364 2.058 . S
Co1358 O1374 2.057 . S
Co1358 O1389 2.037 . S
Co1358 N1393 2.145 . S
Co1358 N1414 2.257 . S
O1359 Co1357 2.143 . S
O1359 Co1358 2.160 . S
C1360 O1361 1.278 . S
C1360 O1368 1.224 . S
O1361 C1360 1.278 . S
C1362 O1363 1.245 . S
C1362 O1374 1.232 . S
O1363 C1362 1.245 . S
O1364 Co1358 2.058 . S
O1364 C1390 1.269 . S
O1365 Co1357 2.074 . S
O1365 C1390 1.257 . S
H1366 C1391 0.930 . S
H1367 C1397 0.930 . S
O1368 Co1357 2.093 . S
O1368 C1360 1.224 . S
H1369 C1401 0.929 . S
H1370 C1403 0.930 . S
H1371 C1404 0.930 . S
H1372 C1402 0.929 . S
H1373 C1405 0.928 . S
O1374 Co1358 2.057 . S
O1374 C1362 1.232 . S
H1375 C1394 0.929 . S
H1376 C1395 0.929 . S
H1377 C1407 0.931 . S
H1378 C1399 0.929 . S
H1379 C1408 0.930 . S
H1380 C1400 0.931 . S
O1381 Co1357 2.097 . S
O1381 C1409 1.214 . S
H1382 C1410 0.929 . S
H1383 C1411 0.929 . S
H1384 C1412 0.930 . S
H1385 C1413 0.929 . S
H1386 C1415 0.930 . S
H1387 C1392 0.930 . S
H1388 C1396 0.930 . S
O1389 Co1358 2.037 . S
O1389 C1409 1.234 . S
C1390 O1364 1.269 . S
C1390 O1365 1.257 . S
C1391 H1366 0.930 . S
C1391 C1394 1.388 . S
C1391 C1396 1.418 . S
C1392 H1387 0.930 . S
C1392 C1395 1.404 . S
C1392 C1396 1.353 . S
N1393 Co1358 2.145 . S
N1393 C1394 1.397 . S
N1393 C1395 1.334 . S
C1394 H1375 0.929 . S
C1394 C1391 1.388 . S
C1394 N1393 1.397 . S
C1395 H1376 0.929 . S
C1395 C1392 1.404 . S
C1395 N1393 1.334 . S
C1396 H1388 0.930 . S
C1396 C1391 1.418 . S
C1396 C1392 1.353 . S
C1397 H1367 0.930 . S
C1397 N1398 1.330 . S
C1397 C1399 1.446 . S
N1398 Co1357 2.151 . S
N1398 C1397 1.330 . S
N1398 C1402 1.418 . S
C1399 H1378 0.929 . S
C1399 C1397 1.446 . S
C1399 C1400 1.332 . S
C1400 H1380 0.931 . S
C1400 C1399 1.332 . S
C1400 C1401 1.267 . S
C1401 H1369 0.929 . S
C1401 C1400 1.267 . S
C1401 C1402 1.251 . S
C1402 H1372 0.929 . S
C1402 N1398 1.418 . S
C1402 C1401 1.251 . S
C1403 H1370 0.930 . S
C1403 C1405 1.406 . S
C1403 C1408 1.261 . S
C1404 H1371 0.930 . S
C1404 N1406 1.325 . S
C1404 C1407 1.357 . S
C1405 H1373 0.928 . S
C1405 C1403 1.406 . S
C1405 N1406 1.261 . S
N1406 Co1357 2.214 . S
N1406 C1404 1.325 . S
N1406 C1405 1.261 . S
C1407 H1377 0.931 . S
C1407 C1404 1.357 . S
C1407 C1408 1.312 . S
C1408 H1379 0.930 . S
C1408 C1403 1.261 . S
C1408 C1407 1.312 . S
C1409 O1381 1.214 . S
C1409 O1389 1.234 . S
C1410 H1382 0.929 . S
C1410 C1413 1.391 . S
C1410 C1415 1.391 . S
C1411 H1383 0.929 . S
C1411 C1412 1.390 . S
C1411 N1414 1.391 . S
C1412 H1384 0.930 . S
C1412 C1411 1.390 . S
C1412 C1413 1.392 . S
C1413 H1385 0.929 . S
C1413 C1410 1.391 . S
C1413 C1412 1.392 . S
N1414 Co1358 2.257 . S
N1414 C1411 1.391 . S
N1414 C1415 1.388 . S
C1415 H1386 0.930 . S
C1415 C1410 1.391 . S
C1415 N1414 1.388 . S
Co1416 O1418 2.143 . S
Co1416 O1424 2.074 . S
Co1416 O1427 2.093 . S
Co1416 O1440 2.097 . S
Co1416 N1457 2.151 . S
Co1416 N1465 2.214 . S
Co1417 O1418 2.160 . S
Co1417 O1423 2.058 . S
Co1417 O1433 2.057 . S
Co1417 O1448 2.037 . S
Co1417 N1452 2.145 . S
Co1417 N1473 2.257 . S
O1418 Co1416 2.143 . S
O1418 Co1417 2.160 . S
C1419 O1420 1.278 . S
C1419 O1427 1.224 . S
O1420 C1419 1.278 . S
C1421 O1422 1.245 . S
C1421 O1433 1.232 . S
O1422 C1421 1.245 . S
O1423 Co1417 2.058 . S
O1423 C1449 1.269 . S
O1424 Co1416 2.074 . S
O1424 C1449 1.257 . S
H1425 C1450 0.930 . S
H1426 C1456 0.930 . S
O1427 Co1416 2.093 . S
O1427 C1419 1.224 . S
H1428 C1460 0.929 . S
H1429 C1462 0.930 . S
H1430 C1463 0.930 . S
H1431 C1461 0.929 . S
H1432 C1464 0.928 . S
O1433 Co1417 2.057 . S
O1433 C1421 1.232 . S
H1434 C1453 0.929 . S
H1435 C1454 0.929 . S
H1436 C1466 0.931 . S
H1437 C1458 0.929 . S
H1438 C1467 0.930 . S
H1439 C1459 0.931 . S
O1440 Co1416 2.097 . S
O1440 C1468 1.214 . S
H1441 C1469 0.929 . S
H1442 C1470 0.929 . S
H1443 C1471 0.930 . S
H1444 C1472 0.929 . S
H1445 C1474 0.930 . S
H1446 C1451 0.930 . S
H1447 C1455 0.930 . S
O1448 Co1417 2.037 . S
O1448 C1468 1.234 . S
C1449 O1423 1.269 . S
C1449 O1424 1.257 . S
C1450 H1425 0.930 . S
C1450 C1453 1.388 . S
C1450 C1455 1.418 . S
C1451 H1446 0.930 . S
C1451 C1454 1.404 . S
C1451 C1455 1.353 . S
N1452 Co1417 2.145 . S
N1452 C1453 1.397 . S
N1452 C1454 1.334 . S
C1453 H1434 0.929 . S
C1453 C1450 1.388 . S
C1453 N1452 1.397 . S
C1454 H1435 0.929 . S
C1454 C1451 1.404 . S
C1454 N1452 1.334 . S
C1455 H1447 0.930 . S
C1455 C1450 1.418 . S
C1455 C1451 1.353 . S
C1456 H1426 0.930 . S
C1456 N1457 1.330 . S
C1456 C1458 1.446 . S
N1457 Co1416 2.151 . S
N1457 C1456 1.330 . S
N1457 C1461 1.418 . S
C1458 H1437 0.929 . S
C1458 C1456 1.446 . S
C1458 C1459 1.332 . S
C1459 H1439 0.931 . S
C1459 C1458 1.332 . S
C1459 C1460 1.267 . S
C1460 H1428 0.929 . S
C1460 C1459 1.267 . S
C1460 C1461 1.251 . S
C1461 H1431 0.929 . S
C1461 N1457 1.418 . S
C1461 C1460 1.251 . S
C1462 H1429 0.930 . S
C1462 C1464 1.406 . S
C1462 C1467 1.261 . S
C1463 H1430 0.930 . S
C1463 N1465 1.325 . S
C1463 C1466 1.357 . S
C1464 H1432 0.928 . S
C1464 C1462 1.406 . S
C1464 N1465 1.261 . S
N1465 Co1416 2.214 . S
N1465 C1463 1.325 . S
N1465 C1464 1.261 . S
C1466 H1436 0.931 . S
C1466 C1463 1.357 . S
C1466 C1467 1.312 . S
C1467 H1438 0.930 . S
C1467 C1462 1.261 . S
C1467 C1466 1.312 . S
C1468 O1440 1.214 . S
C1468 O1448 1.234 . S
C1469 H1441 0.929 . S
C1469 C1472 1.391 . S
C1469 C1474 1.391 . S
C1470 H1442 0.929 . S
C1470 C1471 1.390 . S
C1470 N1473 1.391 . S
C1471 H1443 0.930 . S
C1471 C1470 1.390 . S
C1471 C1472 1.392 . S
C1472 H1444 0.929 . S
C1472 C1469 1.391 . S
C1472 C1471 1.392 . S
N1473 Co1417 2.257 . S
N1473 C1470 1.391 . S
N1473 C1474 1.388 . S
C1474 H1445 0.930 . S
C1474 C1469 1.391 . S
C1474 N1473 1.388 . S
Co1475 O1477 2.143 . S
Co1475 O1483 2.074 . S
Co1475 O1486 2.093 . S
Co1475 O1499 2.097 . S
Co1475 N1516 2.151 . S
Co1475 N1524 2.214 . S
Co1476 O1477 2.160 . S
Co1476 O1482 2.058 . S
Co1476 O1492 2.057 . S
Co1476 O1507 2.037 . S
Co1476 N1511 2.145 . S
Co1476 N1532 2.257 . S
O1477 Co1475 2.143 . S
O1477 Co1476 2.160 . S
C1478 O1479 1.278 . S
C1478 O1486 1.224 . S
O1479 C1478 1.278 . S
C1480 O1481 1.245 . S
C1480 O1492 1.232 . S
O1481 C1480 1.245 . S
O1482 Co1476 2.058 . S
O1482 C1508 1.269 . S
O1483 Co1475 2.074 . S
O1483 C1508 1.257 . S
H1484 C1509 0.930 . S
H1485 C1515 0.930 . S
O1486 Co1475 2.093 . S
O1486 C1478 1.224 . S
H1487 C1519 0.929 . S
H1488 C1521 0.930 . S
H1489 C1522 0.930 . S
H1490 C1520 0.929 . S
H1491 C1523 0.928 . S
O1492 Co1476 2.057 . S
O1492 C1480 1.232 . S
H1493 C1512 0.929 . S
H1494 C1513 0.929 . S
H1495 C1525 0.931 . S
H1496 C1517 0.929 . S
H1497 C1526 0.930 . S
H1498 C1518 0.931 . S
O1499 Co1475 2.097 . S
O1499 C1527 1.214 . S
H1500 C1528 0.929 . S
H1501 C1529 0.929 . S
H1502 C1530 0.930 . S
H1503 C1531 0.929 . S
H1504 C1533 0.930 . S
H1505 C1510 0.930 . S
H1506 C1514 0.930 . S
O1507 Co1476 2.037 . S
O1507 C1527 1.234 . S
C1508 O1482 1.269 . S
C1508 O1483 1.257 . S
C1509 H1484 0.930 . S
C1509 C1512 1.388 . S
C1509 C1514 1.418 . S
C1510 H1505 0.930 . S
C1510 C1513 1.404 . S
C1510 C1514 1.353 . S
N1511 Co1476 2.145 . S
N1511 C1512 1.397 . S
N1511 C1513 1.334 . S
C1512 H1493 0.929 . S
C1512 C1509 1.388 . S
C1512 N1511 1.397 . S
C1513 H1494 0.929 . S
C1513 C1510 1.404 . S
C1513 N1511 1.334 . S
C1514 H1506 0.930 . S
C1514 C1509 1.418 . S
C1514 C1510 1.353 . S
C1515 H1485 0.930 . S
C1515 N1516 1.330 . S
C1515 C1517 1.446 . S
N1516 Co1475 2.151 . S
N1516 C1515 1.330 . S
N1516 C1520 1.418 . S
C1517 H1496 0.929 . S
C1517 C1515 1.446 . S
C1517 C1518 1.332 . S
C1518 H1498 0.931 . S
C1518 C1517 1.332 . S
C1518 C1519 1.267 . S
C1519 H1487 0.929 . S
C1519 C1518 1.267 . S
C1519 C1520 1.251 . S
C1520 H1490 0.929 . S
C1520 N1516 1.418 . S
C1520 C1519 1.251 . S
C1521 H1488 0.930 . S
C1521 C1523 1.406 . S
C1521 C1526 1.261 . S
C1522 H1489 0.930 . S
C1522 N1524 1.325 . S
C1522 C1525 1.357 . S
C1523 H1491 0.928 . S
C1523 C1521 1.406 . S
C1523 N1524 1.261 . S
N1524 Co1475 2.214 . S
N1524 C1522 1.325 . S
N1524 C1523 1.261 . S
C1525 H1495 0.931 . S
C1525 C1522 1.357 . S
C1525 C1526 1.312 . S
C1526 H1497 0.930 . S
C1526 C1521 1.261 . S
C1526 C1525 1.312 . S
C1527 O1499 1.214 . S
C1527 O1507 1.234 . S
C1528 H1500 0.929 . S
C1528 C1531 1.391 . S
C1528 C1533 1.391 . S
C1529 H1501 0.929 . S
C1529 C1530 1.390 . S
C1529 N1532 1.391 . S
C1530 H1502 0.930 . S
C1530 C1529 1.390 . S
C1530 C1531 1.392 . S
C1531 H1503 0.929 . S
C1531 C1528 1.391 . S
C1531 C1530 1.392 . S
N1532 Co1476 2.257 . S
N1532 C1529 1.391 . S
N1532 C1533 1.388 . S
C1533 H1504 0.930 . S
C1533 C1528 1.391 . S
C1533 N1532 1.388 . S
Co1534 O1536 2.143 . S
Co1534 O1542 2.074 . S
Co1534 O1545 2.093 . S
Co1534 O1558 2.097 . S
Co1534 N1575 2.151 . S
Co1534 N1583 2.214 . S
Co1535 O1536 2.160 . S
Co1535 O1541 2.058 . S
Co1535 O1551 2.057 . S
Co1535 O1566 2.037 . S
Co1535 N1570 2.145 . S
Co1535 N1591 2.257 . S
O1536 Co1534 2.143 . S
O1536 Co1535 2.160 . S
C1537 O1538 1.278 . S
C1537 O1545 1.224 . S
O1538 C1537 1.278 . S
C1539 O1540 1.245 . S
C1539 O1551 1.232 . S
O1540 C1539 1.245 . S
O1541 Co1535 2.058 . S
O1541 C1567 1.269 . S
O1542 Co1534 2.074 . S
O1542 C1567 1.257 . S
H1543 C1568 0.930 . S
H1544 C1574 0.930 . S
O1545 Co1534 2.093 . S
O1545 C1537 1.224 . S
H1546 C1578 0.929 . S
H1547 C1580 0.930 . S
H1548 C1581 0.930 . S
H1549 C1579 0.929 . S
H1550 C1582 0.928 . S
O1551 Co1535 2.057 . S
O1551 C1539 1.232 . S
H1552 C1571 0.929 . S
H1553 C1572 0.929 . S
H1554 C1584 0.931 . S
H1555 C1576 0.929 . S
H1556 C1585 0.930 . S
H1557 C1577 0.931 . S
O1558 Co1534 2.097 . S
O1558 C1586 1.214 . S
H1559 C1587 0.929 . S
H1560 C1588 0.929 . S
H1561 C1589 0.930 . S
H1562 C1590 0.929 . S
H1563 C1592 0.930 . S
H1564 C1569 0.930 . S
H1565 C1573 0.930 . S
O1566 Co1535 2.037 . S
O1566 C1586 1.234 . S
C1567 O1541 1.269 . S
C1567 O1542 1.257 . S
C1568 H1543 0.930 . S
C1568 C1571 1.388 . S
C1568 C1573 1.418 . S
C1569 H1564 0.930 . S
C1569 C1572 1.404 . S
C1569 C1573 1.353 . S
N1570 Co1535 2.145 . S
N1570 C1571 1.397 . S
N1570 C1572 1.334 . S
C1571 H1552 0.929 . S
C1571 C1568 1.388 . S
C1571 N1570 1.397 . S
C1572 H1553 0.929 . S
C1572 C1569 1.404 . S
C1572 N1570 1.334 . S
C1573 H1565 0.930 . S
C1573 C1568 1.418 . S
C1573 C1569 1.353 . S
C1574 H1544 0.930 . S
C1574 N1575 1.330 . S
C1574 C1576 1.446 . S
N1575 Co1534 2.151 . S
N1575 C1574 1.330 . S
N1575 C1579 1.418 . S
C1576 H1555 0.929 . S
C1576 C1574 1.446 . S
C1576 C1577 1.332 . S
C1577 H1557 0.931 . S
C1577 C1576 1.332 . S
C1577 C1578 1.267 . S
C1578 H1546 0.929 . S
C1578 C1577 1.267 . S
C1578 C1579 1.251 . S
C1579 H1549 0.929 . S
C1579 N1575 1.418 . S
C1579 C1578 1.251 . S
C1580 H1547 0.930 . S
C1580 C1582 1.406 . S
C1580 C1585 1.261 . S
C1581 H1548 0.930 . S
C1581 N1583 1.325 . S
C1581 C1584 1.357 . S
C1582 H1550 0.928 . S
C1582 C1580 1.406 . S
C1582 N1583 1.261 . S
N1583 Co1534 2.214 . S
N1583 C1581 1.325 . S
N1583 C1582 1.261 . S
C1584 H1554 0.931 . S
C1584 C1581 1.357 . S
C1584 C1585 1.312 . S
C1585 H1556 0.930 . S
C1585 C1580 1.261 . S
C1585 C1584 1.312 . S
C1586 O1558 1.214 . S
C1586 O1566 1.234 . S
C1587 H1559 0.929 . S
C1587 C1590 1.391 . S
C1587 C1592 1.391 . S
C1588 H1560 0.929 . S
C1588 C1589 1.390 . S
C1588 N1591 1.391 . S
C1589 H1561 0.930 . S
C1589 C1588 1.390 . S
C1589 C1590 1.392 . S
C1590 H1562 0.929 . S
C1590 C1587 1.391 . S
C1590 C1589 1.392 . S
N1591 Co1535 2.257 . S
N1591 C1588 1.391 . S
N1591 C1592 1.388 . S
C1592 H1563 0.930 . S
C1592 C1587 1.391 . S
C1592 N1591 1.388 . S
Co1593 O1595 2.143 . S
Co1593 O1601 2.074 . S
Co1593 O1604 2.093 . S
Co1593 O1617 2.097 . S
Co1593 N1634 2.151 . S
Co1593 N1642 2.214 . S
Co1594 O1595 2.160 . S
Co1594 O1600 2.058 . S
Co1594 O1610 2.057 . S
Co1594 O1625 2.037 . S
Co1594 N1629 2.145 . S
Co1594 N1650 2.257 . S
O1595 Co1593 2.143 . S
O1595 Co1594 2.160 . S
C1596 O1597 1.278 . S
C1596 O1604 1.224 . S
O1597 C1596 1.278 . S
C1598 O1599 1.245 . S
C1598 O1610 1.232 . S
O1599 C1598 1.245 . S
O1600 Co1594 2.058 . S
O1600 C1626 1.269 . S
O1601 Co1593 2.074 . S
O1601 C1626 1.257 . S
H1602 C1627 0.930 . S
H1603 C1633 0.930 . S
O1604 Co1593 2.093 . S
O1604 C1596 1.224 . S
H1605 C1637 0.929 . S
H1606 C1639 0.930 . S
H1607 C1640 0.930 . S
H1608 C1638 0.929 . S
H1609 C1641 0.928 . S
O1610 Co1594 2.057 . S
O1610 C1598 1.232 . S
H1611 C1630 0.929 . S
H1612 C1631 0.929 . S
H1613 C1643 0.931 . S
H1614 C1635 0.929 . S
H1615 C1644 0.930 . S
H1616 C1636 0.931 . S
O1617 Co1593 2.097 . S
O1617 C1645 1.214 . S
H1618 C1646 0.929 . S
H1619 C1647 0.929 . S
H1620 C1648 0.930 . S
H1621 C1649 0.929 . S
H1622 C1651 0.930 . S
H1623 C1628 0.930 . S
H1624 C1632 0.930 . S
O1625 Co1594 2.037 . S
O1625 C1645 1.234 . S
C1626 O1600 1.269 . S
C1626 O1601 1.257 . S
C1627 H1602 0.930 . S
C1627 C1630 1.388 . S
C1627 C1632 1.418 . S
C1628 H1623 0.930 . S
C1628 C1631 1.404 . S
C1628 C1632 1.353 . S
N1629 Co1594 2.145 . S
N1629 C1630 1.397 . S
N1629 C1631 1.334 . S
C1630 H1611 0.929 . S
C1630 C1627 1.388 . S
C1630 N1629 1.397 . S
C1631 H1612 0.929 . S
C1631 C1628 1.404 . S
C1631 N1629 1.334 . S
C1632 H1624 0.930 . S
C1632 C1627 1.418 . S
C1632 C1628 1.353 . S
C1633 H1603 0.930 . S
C1633 N1634 1.330 . S
C1633 C1635 1.446 . S
N1634 Co1593 2.151 . S
N1634 C1633 1.330 . S
N1634 C1638 1.418 . S
C1635 H1614 0.929 . S
C1635 C1633 1.446 . S
C1635 C1636 1.332 . S
C1636 H1616 0.931 . S
C1636 C1635 1.332 . S
C1636 C1637 1.267 . S
C1637 H1605 0.929 . S
C1637 C1636 1.267 . S
C1637 C1638 1.251 . S
C1638 H1608 0.929 . S
C1638 N1634 1.418 . S
C1638 C1637 1.251 . S
C1639 H1606 0.930 . S
C1639 C1641 1.406 . S
C1639 C1644 1.261 . S
C1640 H1607 0.930 . S
C1640 N1642 1.325 . S
C1640 C1643 1.357 . S
C1641 H1609 0.928 . S
C1641 C1639 1.406 . S
C1641 N1642 1.261 . S
N1642 Co1593 2.214 . S
N1642 C1640 1.325 . S
N1642 C1641 1.261 . S
C1643 H1613 0.931 . S
C1643 C1640 1.357 . S
C1643 C1644 1.312 . S
C1644 H1615 0.930 . S
C1644 C1639 1.261 . S
C1644 C1643 1.312 . S
C1645 O1617 1.214 . S
C1645 O1625 1.234 . S
C1646 H1618 0.929 . S
C1646 C1649 1.391 . S
C1646 C1651 1.391 . S
C1647 H1619 0.929 . S
C1647 C1648 1.390 . S
C1647 N1650 1.391 . S
C1648 H1620 0.930 . S
C1648 C1647 1.390 . S
C1648 C1649 1.392 . S
C1649 H1621 0.929 . S
C1649 C1646 1.391 . S
C1649 C1648 1.392 . S
N1650 Co1594 2.257 . S
N1650 C1647 1.391 . S
N1650 C1651 1.388 . S
C1651 H1622 0.930 . S
C1651 C1646 1.391 . S
C1651 N1650 1.388 . S
Co1652 O1654 2.143 . S
Co1652 O1660 2.074 . S
Co1652 O1663 2.093 . S
Co1652 O1676 2.097 . S
Co1652 N1693 2.151 . S
Co1652 N1701 2.214 . S
Co1653 O1654 2.160 . S
Co1653 O1659 2.058 . S
Co1653 O1669 2.057 . S
Co1653 O1684 2.037 . S
Co1653 N1688 2.145 . S
Co1653 N1709 2.257 . S
O1654 Co1652 2.143 . S
O1654 Co1653 2.160 . S
C1655 O1656 1.278 . S
C1655 O1663 1.224 . S
O1656 C1655 1.278 . S
C1657 O1658 1.245 . S
C1657 O1669 1.232 . S
O1658 C1657 1.245 . S
O1659 Co1653 2.058 . S
O1659 C1685 1.269 . S
O1660 Co1652 2.074 . S
O1660 C1685 1.257 . S
H1661 C1686 0.930 . S
H1662 C1692 0.930 . S
O1663 Co1652 2.093 . S
O1663 C1655 1.224 . S
H1664 C1696 0.929 . S
H1665 C1698 0.930 . S
H1666 C1699 0.930 . S
H1667 C1697 0.929 . S
H1668 C1700 0.928 . S
O1669 Co1653 2.057 . S
O1669 C1657 1.232 . S
H1670 C1689 0.929 . S
H1671 C1690 0.929 . S
H1672 C1702 0.931 . S
H1673 C1694 0.929 . S
H1674 C1703 0.930 . S
H1675 C1695 0.931 . S
O1676 Co1652 2.097 . S
O1676 C1704 1.214 . S
H1677 C1705 0.929 . S
H1678 C1706 0.929 . S
H1679 C1707 0.930 . S
H1680 C1708 0.929 . S
H1681 C1710 0.930 . S
H1682 C1687 0.930 . S
H1683 C1691 0.930 . S
O1684 Co1653 2.037 . S
O1684 C1704 1.234 . S
C1685 O1659 1.269 . S
C1685 O1660 1.257 . S
C1686 H1661 0.930 . S
C1686 C1689 1.388 . S
C1686 C1691 1.418 . S
C1687 H1682 0.930 . S
C1687 C1690 1.404 . S
C1687 C1691 1.353 . S
N1688 Co1653 2.145 . S
N1688 C1689 1.397 . S
N1688 C1690 1.334 . S
C1689 H1670 0.929 . S
C1689 C1686 1.388 . S
C1689 N1688 1.397 . S
C1690 H1671 0.929 . S
C1690 C1687 1.404 . S
C1690 N1688 1.334 . S
C1691 H1683 0.930 . S
C1691 C1686 1.418 . S
C1691 C1687 1.353 . S
C1692 H1662 0.930 . S
C1692 N1693 1.330 . S
C1692 C1694 1.446 . S
N1693 Co1652 2.151 . S
N1693 C1692 1.330 . S
N1693 C1697 1.418 . S
C1694 H1673 0.929 . S
C1694 C1692 1.446 . S
C1694 C1695 1.332 . S
C1695 H1675 0.931 . S
C1695 C1694 1.332 . S
C1695 C1696 1.267 . S
C1696 H1664 0.929 . S
C1696 C1695 1.267 . S
C1696 C1697 1.251 . S
C1697 H1667 0.929 . S
C1697 N1693 1.418 . S
C1697 C1696 1.251 . S
C1698 H1665 0.930 . S
C1698 C1700 1.406 . S
C1698 C1703 1.261 . S
C1699 H1666 0.930 . S
C1699 N1701 1.325 . S
C1699 C1702 1.357 . S
C1700 H1668 0.928 . S
C1700 C1698 1.406 . S
C1700 N1701 1.261 . S
N1701 Co1652 2.214 . S
N1701 C1699 1.325 . S
N1701 C1700 1.261 . S
C1702 H1672 0.931 . S
C1702 C1699 1.357 . S
C1702 C1703 1.312 . S
C1703 H1674 0.930 . S
C1703 C1698 1.261 . S
C1703 C1702 1.312 . S
C1704 O1676 1.214 . S
C1704 O1684 1.234 . S
C1705 H1677 0.929 . S
C1705 C1708 1.391 . S
C1705 C1710 1.391 . S
C1706 H1678 0.929 . S
C1706 C1707 1.390 . S
C1706 N1709 1.391 . S
C1707 H1679 0.930 . S
C1707 C1706 1.390 . S
C1707 C1708 1.392 . S
C1708 H1680 0.929 . S
C1708 C1705 1.391 . S
C1708 C1707 1.392 . S
N1709 Co1653 2.257 . S
N1709 C1706 1.391 . S
N1709 C1710 1.388 . S
C1710 H1681 0.930 . S
C1710 C1705 1.391 . S
C1710 N1709 1.388 . S
Co1711 O1713 2.143 . S
Co1711 O1719 2.074 . S
Co1711 O1722 2.093 . S
Co1711 O1735 2.097 . S
Co1711 N1752 2.151 . S
Co1711 N1760 2.214 . S
Co1712 O1713 2.160 . S
Co1712 O1718 2.058 . S
Co1712 O1728 2.057 . S
Co1712 O1743 2.037 . S
Co1712 N1747 2.145 . S
Co1712 N1768 2.257 . S
O1713 Co1711 2.143 . S
O1713 Co1712 2.160 . S
C1714 O1715 1.278 . S
C1714 O1722 1.224 . S
O1715 C1714 1.278 . S
C1716 O1717 1.245 . S
C1716 O1728 1.232 . S
O1717 C1716 1.245 . S
O1718 Co1712 2.058 . S
O1718 C1744 1.269 . S
O1719 Co1711 2.074 . S
O1719 C1744 1.257 . S
H1720 C1745 0.930 . S
H1721 C1751 0.930 . S
O1722 Co1711 2.093 . S
O1722 C1714 1.224 . S
H1723 C1755 0.929 . S
H1724 C1757 0.930 . S
H1725 C1758 0.930 . S
H1726 C1756 0.929 . S
H1727 C1759 0.928 . S
O1728 Co1712 2.057 . S
O1728 C1716 1.232 . S
H1729 C1748 0.929 . S
H1730 C1749 0.929 . S
H1731 C1761 0.931 . S
H1732 C1753 0.929 . S
H1733 C1762 0.930 . S
H1734 C1754 0.931 . S
O1735 Co1711 2.097 . S
O1735 C1763 1.214 . S
H1736 C1764 0.929 . S
H1737 C1765 0.929 . S
H1738 C1766 0.930 . S
H1739 C1767 0.929 . S
H1740 C1769 0.930 . S
H1741 C1746 0.930 . S
H1742 C1750 0.930 . S
O1743 Co1712 2.037 . S
O1743 C1763 1.234 . S
C1744 O1718 1.269 . S
C1744 O1719 1.257 . S
C1745 H1720 0.930 . S
C1745 C1748 1.388 . S
C1745 C1750 1.418 . S
C1746 H1741 0.930 . S
C1746 C1749 1.404 . S
C1746 C1750 1.353 . S
N1747 Co1712 2.145 . S
N1747 C1748 1.397 . S
N1747 C1749 1.334 . S
C1748 H1729 0.929 . S
C1748 C1745 1.388 . S
C1748 N1747 1.397 . S
C1749 H1730 0.929 . S
C1749 C1746 1.404 . S
C1749 N1747 1.334 . S
C1750 H1742 0.930 . S
C1750 C1745 1.418 . S
C1750 C1746 1.353 . S
C1751 H1721 0.930 . S
C1751 N1752 1.330 . S
C1751 C1753 1.446 . S
N1752 Co1711 2.151 . S
N1752 C1751 1.330 . S
N1752 C1756 1.418 . S
C1753 H1732 0.929 . S
C1753 C1751 1.446 . S
C1753 C1754 1.332 . S
C1754 H1734 0.931 . S
C1754 C1753 1.332 . S
C1754 C1755 1.267 . S
C1755 H1723 0.929 . S
C1755 C1754 1.267 . S
C1755 C1756 1.251 . S
C1756 H1726 0.929 . S
C1756 N1752 1.418 . S
C1756 C1755 1.251 . S
C1757 H1724 0.930 . S
C1757 C1759 1.406 . S
C1757 C1762 1.261 . S
C1758 H1725 0.930 . S
C1758 N1760 1.325 . S
C1758 C1761 1.357 . S
C1759 H1727 0.928 . S
C1759 C1757 1.406 . S
C1759 N1760 1.261 . S
N1760 Co1711 2.214 . S
N1760 C1758 1.325 . S
N1760 C1759 1.261 . S
C1761 H1731 0.931 . S
C1761 C1758 1.357 . S
C1761 C1762 1.312 . S
C1762 H1733 0.930 . S
C1762 C1757 1.261 . S
C1762 C1761 1.312 . S
C1763 O1735 1.214 . S
C1763 O1743 1.234 . S
C1764 H1736 0.929 . S
C1764 C1767 1.391 . S
C1764 C1769 1.391 . S
C1765 H1737 0.929 . S
C1765 C1766 1.390 . S
C1765 N1768 1.391 . S
C1766 H1738 0.930 . S
C1766 C1765 1.390 . S
C1766 C1767 1.392 . S
C1767 H1739 0.929 . S
C1767 C1764 1.391 . S
C1767 C1766 1.392 . S
N1768 Co1712 2.257 . S
N1768 C1765 1.391 . S
N1768 C1769 1.388 . S
C1769 H1740 0.930 . S
C1769 C1764 1.391 . S
C1769 N1768 1.388 . S
Co1770 O1772 2.143 . S
Co1770 O1778 2.074 . S
Co1770 O1781 2.093 . S
Co1770 O1794 2.097 . S
Co1770 N1811 2.151 . S
Co1770 N1819 2.214 . S
Co1771 O1772 2.160 . S
Co1771 O1777 2.058 . S
Co1771 O1787 2.057 . S
Co1771 O1802 2.037 . S
Co1771 N1806 2.145 . S
Co1771 N1827 2.257 . S
O1772 Co1770 2.143 . S
O1772 Co1771 2.160 . S
C1773 O1774 1.278 . S
C1773 O1781 1.224 . S
O1774 C1773 1.278 . S
C1775 O1776 1.245 . S
C1775 O1787 1.232 . S
O1776 C1775 1.245 . S
O1777 Co1771 2.058 . S
O1777 C1803 1.269 . S
O1778 Co1770 2.074 . S
O1778 C1803 1.257 . S
H1779 C1804 0.930 . S
H1780 C1810 0.930 . S
O1781 Co1770 2.093 . S
O1781 C1773 1.224 . S
H1782 C1814 0.929 . S
H1783 C1816 0.930 . S
H1784 C1817 0.930 . S
H1785 C1815 0.929 . S
H1786 C1818 0.928 . S
O1787 Co1771 2.057 . S
O1787 C1775 1.232 . S
H1788 C1807 0.929 . S
H1789 C1808 0.929 . S
H1790 C1820 0.931 . S
H1791 C1812 0.929 . S
H1792 C1821 0.930 . S
H1793 C1813 0.931 . S
O1794 Co1770 2.097 . S
O1794 C1822 1.214 . S
H1795 C1823 0.929 . S
H1796 C1824 0.929 . S
H1797 C1825 0.930 . S
H1798 C1826 0.929 . S
H1799 C1828 0.930 . S
H1800 C1805 0.930 . S
H1801 C1809 0.930 . S
O1802 Co1771 2.037 . S
O1802 C1822 1.234 . S
C1803 O1777 1.269 . S
C1803 O1778 1.257 . S
C1804 H1779 0.930 . S
C1804 C1807 1.388 . S
C1804 C1809 1.418 . S
C1805 H1800 0.930 . S
C1805 C1808 1.404 . S
C1805 C1809 1.353 . S
N1806 Co1771 2.145 . S
N1806 C1807 1.397 . S
N1806 C1808 1.334 . S
C1807 H1788 0.929 . S
C1807 C1804 1.388 . S
C1807 N1806 1.397 . S
C1808 H1789 0.929 . S
C1808 C1805 1.404 . S
C1808 N1806 1.334 . S
C1809 H1801 0.930 . S
C1809 C1804 1.418 . S
C1809 C1805 1.353 . S
C1810 H1780 0.930 . S
C1810 N1811 1.330 . S
C1810 C1812 1.446 . S
N1811 Co1770 2.151 . S
N1811 C1810 1.330 . S
N1811 C1815 1.418 . S
C1812 H1791 0.929 . S
C1812 C1810 1.446 . S
C1812 C1813 1.332 . S
C1813 H1793 0.931 . S
C1813 C1812 1.332 . S
C1813 C1814 1.267 . S
C1814 H1782 0.929 . S
C1814 C1813 1.267 . S
C1814 C1815 1.251 . S
C1815 H1785 0.929 . S
C1815 N1811 1.418 . S
C1815 C1814 1.251 . S
C1816 H1783 0.930 . S
C1816 C1818 1.406 . S
C1816 C1821 1.261 . S
C1817 H1784 0.930 . S
C1817 N1819 1.325 . S
C1817 C1820 1.357 . S
C1818 H1786 0.928 . S
C1818 C1816 1.406 . S
C1818 N1819 1.261 . S
N1819 Co1770 2.214 . S
N1819 C1817 1.325 . S
N1819 C1818 1.261 . S
C1820 H1790 0.931 . S
C1820 C1817 1.357 . S
C1820 C1821 1.312 . S
C1821 H1792 0.930 . S
C1821 C1816 1.261 . S
C1821 C1820 1.312 . S
C1822 O1794 1.214 . S
C1822 O1802 1.234 . S
C1823 H1795 0.929 . S
C1823 C1826 1.391 . S
C1823 C1828 1.391 . S
C1824 H1796 0.929 . S
C1824 C1825 1.390 . S
C1824 N1827 1.391 . S
C1825 H1797 0.930 . S
C1825 C1824 1.390 . S
C1825 C1826 1.392 . S
C1826 H1798 0.929 . S
C1826 C1823 1.391 . S
C1826 C1825 1.392 . S
N1827 Co1771 2.257 . S
N1827 C1824 1.391 . S
N1827 C1828 1.388 . S
C1828 H1799 0.930 . S
C1828 C1823 1.391 . S
C1828 N1827 1.388 . S
Co1829 O1831 2.143 . S
Co1829 O1837 2.074 . S
Co1829 O1840 2.093 . S
Co1829 O1853 2.097 . S
Co1829 N1870 2.151 . S
Co1829 N1878 2.214 . S
Co1830 O1831 2.160 . S
Co1830 O1836 2.058 . S
Co1830 O1846 2.057 . S
Co1830 O1861 2.037 . S
Co1830 N1865 2.145 . S
Co1830 N1886 2.257 . S
O1831 Co1829 2.143 . S
O1831 Co1830 2.160 . S
C1832 O1833 1.278 . S
C1832 O1840 1.224 . S
O1833 C1832 1.278 . S
C1834 O1835 1.245 . S
C1834 O1846 1.232 . S
O1835 C1834 1.245 . S
O1836 Co1830 2.058 . S
O1836 C1862 1.269 . S
O1837 Co1829 2.074 . S
O1837 C1862 1.257 . S
H1838 C1863 0.930 . S
H1839 C1869 0.930 . S
O1840 Co1829 2.093 . S
O1840 C1832 1.224 . S
H1841 C1873 0.929 . S
H1842 C1875 0.930 . S
H1843 C1876 0.930 . S
H1844 C1874 0.929 . S
H1845 C1877 0.928 . S
O1846 Co1830 2.057 . S
O1846 C1834 1.232 . S
H1847 C1866 0.929 . S
H1848 C1867 0.929 . S
H1849 C1879 0.931 . S
H1850 C1871 0.929 . S
H1851 C1880 0.930 . S
H1852 C1872 0.931 . S
O1853 Co1829 2.097 . S
O1853 C1881 1.214 . S
H1854 C1882 0.929 . S
H1855 C1883 0.929 . S
H1856 C1884 0.930 . S
H1857 C1885 0.929 . S
H1858 C1887 0.930 . S
H1859 C1864 0.930 . S
H1860 C1868 0.930 . S
O1861 Co1830 2.037 . S
O1861 C1881 1.234 . S
C1862 O1836 1.269 . S
C1862 O1837 1.257 . S
C1863 H1838 0.930 . S
C1863 C1866 1.388 . S
C1863 C1868 1.418 . S
C1864 H1859 0.930 . S
C1864 C1867 1.404 . S
C1864 C1868 1.353 . S
N1865 Co1830 2.145 . S
N1865 C1866 1.397 . S
N1865 C1867 1.334 . S
C1866 H1847 0.929 . S
C1866 C1863 1.388 . S
C1866 N1865 1.397 . S
C1867 H1848 0.929 . S
C1867 C1864 1.404 . S
C1867 N1865 1.334 . S
C1868 H1860 0.930 . S
C1868 C1863 1.418 . S
C1868 C1864 1.353 . S
C1869 H1839 0.930 . S
C1869 N1870 1.330 . S
C1869 C1871 1.446 . S
N1870 Co1829 2.151 . S
N1870 C1869 1.330 . S
N1870 C1874 1.418 . S
C1871 H1850 0.929 . S
C1871 C1869 1.446 . S
C1871 C1872 1.332 . S
C1872 H1852 0.931 . S
C1872 C1871 1.332 . S
C1872 C1873 1.267 . S
C1873 H1841 0.929 . S
C1873 C1872 1.267 . S
C1873 C1874 1.251 . S
C1874 H1844 0.929 . S
C1874 N1870 1.418 . S
C1874 C1873 1.251 . S
C1875 H1842 0.930 . S
C1875 C1877 1.406 . S
C1875 C1880 1.261 . S
C1876 H1843 0.930 . S
C1876 N1878 1.325 . S
C1876 C1879 1.357 . S
C1877 H1845 0.928 . S
C1877 C1875 1.406 . S
C1877 N1878 1.261 . S
N1878 Co1829 2.214 . S
N1878 C1876 1.325 . S
N1878 C1877 1.261 . S
C1879 H1849 0.931 . S
C1879 C1876 1.357 . S
C1879 C1880 1.312 . S
C1880 H1851 0.930 . S
C1880 C1875 1.261 . S
C1880 C1879 1.312 . S
C1881 O1853 1.214 . S
C1881 O1861 1.234 . S
C1882 H1854 0.929 . S
C1882 C1885 1.391 . S
C1882 C1887 1.391 . S
C1883 H1855 0.929 . S
C1883 C1884 1.390 . S
C1883 N1886 1.391 . S
C1884 H1856 0.930 . S
C1884 C1883 1.390 . S
C1884 C1885 1.392 . S
C1885 H1857 0.929 . S
C1885 C1882 1.391 . S
C1885 C1884 1.392 . S
N1886 Co1830 2.257 . S
N1886 C1883 1.391 . S
N1886 C1887 1.388 . S
C1887 H1858 0.930 . S
C1887 C1882 1.391 . S
C1887 N1886 1.388 . S
H1888 C1896 0.950 . S
H1889 C1901 0.950 . S
H1890 C1898 0.950 . S
H1891 C1900 0.950 . S
H1892 C1902 0.950 . S
H1893 C1904 0.950 . S
H1894 C1906 0.950 . S
H1895 C1907 0.950 . S
C1896 H1888 0.950 . S
C1896 C1897 1.386 . S
C1896 C1898 1.391 . S
C1897 C1896 1.386 . S
C1897 C1901 1.393 . S
C1898 H1890 0.950 . S
C1898 C1896 1.391 . S
C1898 C1899 1.400 . S
C1899 C1898 1.400 . S
C1899 C1900 1.398 . S
C1899 C1905 1.491 . S
C1900 H1891 0.950 . S
C1900 C1899 1.398 . S
C1900 C1901 1.391 . S
C1901 H1889 0.950 . S
C1901 C1897 1.393 . S
C1901 C1900 1.391 . S
C1902 H1892 0.950 . S
C1902 C1903 1.386 . S
C1902 C1904 1.391 . S
C1903 C1902 1.386 . S
C1903 C1907 1.393 . S
C1904 H1893 0.950 . S
C1904 C1902 1.391 . S
C1904 C1905 1.400 . S
C1905 C1899 1.491 . S
C1905 C1904 1.400 . S
C1905 C1906 1.398 . S
C1906 H1894 0.950 . S
C1906 C1905 1.398 . S
C1906 C1907 1.391 . S
C1907 H1895 0.950 . S
C1907 C1903 1.393 . S
C1907 C1906 1.391 . S
H1908 C1916 0.950 . S
H1909 C1921 0.950 . S
H1910 C1918 0.950 . S
H1911 C1920 0.950 . S
H1912 C1922 0.950 . S
H1913 C1924 0.950 . S
H1914 C1926 0.950 . S
H1915 C1927 0.950 . S
C1916 H1908 0.950 . S
C1916 C1917 1.386 . S
C1916 C1918 1.391 . S
C1917 C1916 1.386 . S
C1917 C1921 1.393 . S
C1918 H1910 0.950 . S
C1918 C1916 1.391 . S
C1918 C1919 1.400 . S
C1919 C1918 1.400 . S
C1919 C1920 1.398 . S
C1919 C1925 1.491 . S
C1920 H1911 0.950 . S
C1920 C1919 1.398 . S
C1920 C1921 1.391 . S
C1921 H1909 0.950 . S
C1921 C1917 1.393 . S
C1921 C1920 1.391 . S
C1922 H1912 0.950 . S
C1922 C1923 1.386 . S
C1922 C1924 1.391 . S
C1923 C1922 1.386 . S
C1923 C1927 1.393 . S
C1924 H1913 0.950 . S
C1924 C1922 1.391 . S
C1924 C1925 1.400 . S
C1925 C1919 1.491 . S
C1925 C1924 1.400 . S
C1925 C1926 1.398 . S
C1926 H1914 0.950 . S
C1926 C1925 1.398 . S
C1926 C1927 1.391 . S
C1927 H1915 0.950 . S
C1927 C1923 1.393 . S
C1927 C1926 1.391 . S
H1928 C1936 0.950 . S
H1929 C1941 0.950 . S
H1930 C1938 0.950 . S
H1931 C1940 0.950 . S
H1932 C1942 0.950 . S
H1933 C1944 0.950 . S
H1934 C1946 0.950 . S
H1935 C1947 0.950 . S
C1936 H1928 0.950 . S
C1936 C1937 1.386 . S
C1936 C1938 1.391 . S
C1937 C1936 1.386 . S
C1937 C1941 1.393 . S
C1938 H1930 0.950 . S
C1938 C1936 1.391 . S
C1938 C1939 1.400 . S
C1939 C1938 1.400 . S
C1939 C1940 1.398 . S
C1939 C1945 1.491 . S
C1940 H1931 0.950 . S
C1940 C1939 1.398 . S
C1940 C1941 1.391 . S
C1941 H1929 0.950 . S
C1941 C1937 1.393 . S
C1941 C1940 1.391 . S
C1942 H1932 0.950 . S
C1942 C1943 1.386 . S
C1942 C1944 1.391 . S
C1943 C1942 1.386 . S
C1943 C1947 1.393 . S
C1944 H1933 0.950 . S
C1944 C1942 1.391 . S
C1944 C1945 1.400 . S
C1945 C1939 1.491 . S
C1945 C1944 1.400 . S
C1945 C1946 1.398 . S
C1946 H1934 0.950 . S
C1946 C1945 1.398 . S
C1946 C1947 1.391 . S
C1947 H1935 0.950 . S
C1947 C1943 1.393 . S
C1947 C1946 1.391 . S
H1948 C1956 0.950 . S
H1949 C1961 0.950 . S
H1950 C1958 0.950 . S
H1951 C1960 0.950 . S
H1952 C1962 0.950 . S
H1953 C1964 0.950 . S
H1954 C1966 0.950 . S
H1955 C1967 0.950 . S
C1956 H1948 0.950 . S
C1956 C1957 1.386 . S
C1956 C1958 1.391 . S
C1957 C1956 1.386 . S
C1957 C1961 1.393 . S
C1958 H1950 0.950 . S
C1958 C1956 1.391 . S
C1958 C1959 1.400 . S
C1959 C1958 1.400 . S
C1959 C1960 1.398 . S
C1959 C1965 1.491 . S
C1960 H1951 0.950 . S
C1960 C1959 1.398 . S
C1960 C1961 1.391 . S
C1961 H1949 0.950 . S
C1961 C1957 1.393 . S
C1961 C1960 1.391 . S
C1962 H1952 0.950 . S
C1962 C1963 1.386 . S
C1962 C1964 1.391 . S
C1963 C1962 1.386 . S
C1963 C1967 1.393 . S
C1964 H1953 0.950 . S
C1964 C1962 1.391 . S
C1964 C1965 1.400 . S
C1965 C1959 1.491 . S
C1965 C1964 1.400 . S
C1965 C1966 1.398 . S
C1966 H1954 0.950 . S
C1966 C1965 1.398 . S
C1966 C1967 1.391 . S
C1967 H1955 0.950 . S
C1967 C1963 1.393 . S
C1967 C1966 1.391 . S
H1968 C1976 0.950 . S
H1969 C1981 0.950 . S
H1970 C1978 0.950 . S
H1971 C1980 0.950 . S
H1972 C1982 0.950 . S
H1973 C1984 0.950 . S
H1974 C1986 0.950 . S
H1975 C1987 0.950 . S
C1976 H1968 0.950 . S
C1976 C1977 1.386 . S
C1976 C1978 1.391 . S
C1977 C1976 1.386 . S
C1977 C1981 1.393 . S
C1978 H1970 0.950 . S
C1978 C1976 1.391 . S
C1978 C1979 1.400 . S
C1979 C1978 1.400 . S
C1979 C1980 1.398 . S
C1979 C1985 1.491 . S
C1980 H1971 0.950 . S
C1980 C1979 1.398 . S
C1980 C1981 1.391 . S
C1981 H1969 0.950 . S
C1981 C1977 1.393 . S
C1981 C1980 1.391 . S
C1982 H1972 0.950 . S
C1982 C1983 1.386 . S
C1982 C1984 1.391 . S
C1983 C1982 1.386 . S
C1983 C1987 1.393 . S
C1984 H1973 0.950 . S
C1984 C1982 1.391 . S
C1984 C1985 1.400 . S
C1985 C1979 1.491 . S
C1985 C1984 1.400 . S
C1985 C1986 1.398 . S
C1986 H1974 0.950 . S
C1986 C1985 1.398 . S
C1986 C1987 1.391 . S
C1987 H1975 0.950 . S
C1987 C1983 1.393 . S
C1987 C1986 1.391 . S
H1988 C1996 0.950 . S
H1989 C2001 0.950 . S
H1990 C1998 0.950 . S
H1991 C2000 0.950 . S
H1992 C2002 0.950 . S
H1993 C2004 0.950 . S
H1994 C2006 0.950 . S
H1995 C2007 0.950 . S
C1996 H1988 0.950 . S
C1996 C1997 1.386 . S
C1996 C1998 1.391 . S
C1997 C1996 1.386 . S
C1997 C2001 1.393 . S
C1998 H1990 0.950 . S
C1998 C1996 1.391 . S
C1998 C1999 1.400 . S
C1999 C1998 1.400 . S
C1999 C2000 1.398 . S
C1999 C2005 1.491 . S
C2000 H1991 0.950 . S
C2000 C1999 1.398 . S
C2000 C2001 1.391 . S
C2001 H1989 0.950 . S
C2001 C1997 1.393 . S
C2001 C2000 1.391 . S
C2002 H1992 0.950 . S
C2002 C2003 1.386 . S
C2002 C2004 1.391 . S
C2003 C2002 1.386 . S
C2003 C2007 1.393 . S
C2004 H1993 0.950 . S
C2004 C2002 1.391 . S
C2004 C2005 1.400 . S
C2005 C1999 1.491 . S
C2005 C2004 1.400 . S
C2005 C2006 1.398 . S
C2006 H1994 0.950 . S
C2006 C2005 1.398 . S
C2006 C2007 1.391 . S
C2007 H1995 0.950 . S
C2007 C2003 1.393 . S
C2007 C2006 1.391 . S
H2008 C2016 0.950 . S
H2009 C2021 0.950 . S
H2010 C2018 0.950 . S
H2011 C2020 0.950 . S
H2012 C2022 0.950 . S
H2013 C2024 0.950 . S
H2014 C2026 0.950 . S
H2015 C2027 0.950 . S
C2016 H2008 0.950 . S
C2016 C2017 1.386 . S
C2016 C2018 1.391 . S
C2017 C2016 1.386 . S
C2017 C2021 1.393 . S
C2018 H2010 0.950 . S
C2018 C2016 1.391 . S
C2018 C2019 1.400 . S
C2019 C2018 1.400 . S
C2019 C2020 1.398 . S
C2019 C2025 1.491 . S
C2020 H2011 0.950 . S
C2020 C2019 1.398 . S
C2020 C2021 1.391 . S
C2021 H2009 0.950 . S
C2021 C2017 1.393 . S
C2021 C2020 1.391 . S
C2022 H2012 0.950 . S
C2022 C2023 1.386 . S
C2022 C2024 1.391 . S
C2023 C2022 1.386 . S
C2023 C2027 1.393 . S
C2024 H2013 0.950 . S
C2024 C2022 1.391 . S
C2024 C2025 1.400 . S
C2025 C2019 1.491 . S
C2025 C2024 1.400 . S
C2025 C2026 1.398 . S
C2026 H2014 0.950 . S
C2026 C2025 1.398 . S
C2026 C2027 1.391 . S
C2027 H2015 0.950 . S
C2027 C2023 1.393 . S
C2027 C2026 1.391 . S
H2028 C2036 0.950 . S
H2029 C2041 0.950 . S
H2030 C2038 0.950 . S
H2031 C2040 0.950 . S
H2032 C2042 0.950 . S
H2033 C2044 0.950 . S
H2034 C2046 0.950 . S
H2035 C2047 0.950 . S
C2036 H2028 0.950 . S
C2036 C2037 1.386 . S
C2036 C2038 1.391 . S
C2037 C2036 1.386 . S
C2037 C2041 1.393 . S
C2038 H2030 0.950 . S
C2038 C2036 1.391 . S
C2038 C2039 1.400 . S
C2039 C2038 1.400 . S
C2039 C2040 1.398 . S
C2039 C2045 1.491 . S
C2040 H2031 0.950 . S
C2040 C2039 1.398 . S
C2040 C2041 1.391 . S
C2041 H2029 0.950 . S
C2041 C2037 1.393 . S
C2041 C2040 1.391 . S
C2042 H2032 0.950 . S
C2042 C2043 1.386 . S
C2042 C2044 1.391 . S
C2043 C2042 1.386 . S
C2043 C2047 1.393 . S
C2044 H2033 0.950 . S
C2044 C2042 1.391 . S
C2044 C2045 1.400 . S
C2045 C2039 1.491 . S
C2045 C2044 1.400 . S
C2045 C2046 1.398 . S
C2046 H2034 0.950 . S
C2046 C2045 1.398 . S
C2046 C2047 1.391 . S
C2047 H2035 0.950 . S
C2047 C2043 1.393 . S
C2047 C2046 1.391 . S
H2048 C2056 0.950 . S
H2049 C2061 0.950 . S
H2050 C2058 0.950 . S
H2051 C2060 0.950 . S
H2052 C2062 0.950 . S
H2053 C2064 0.950 . S
H2054 C2066 0.950 . S
H2055 C2067 0.950 . S
C2056 H2048 0.950 . S
C2056 C2057 1.386 . S
C2056 C2058 1.391 . S
C2057 C2056 1.386 . S
C2057 C2061 1.393 . S
C2058 H2050 0.950 . S
C2058 C2056 1.391 . S
C2058 C2059 1.400 . S
C2059 C2058 1.400 . S
C2059 C2060 1.398 . S
C2059 C2065 1.491 . S
C2060 H2051 0.950 . S
C2060 C2059 1.398 . S
C2060 C2061 1.391 . S
C2061 H2049 0.950 . S
C2061 C2057 1.393 . S
C2061 C2060 1.391 . S
C2062 H2052 0.950 . S
C2062 C2063 1.386 . S
C2062 C2064 1.391 . S
C2063 C2062 1.386 . S
C2063 C2067 1.393 . S
C2064 H2053 0.950 . S
C2064 C2062 1.391 . S
C2064 C2065 1.400 . S
C2065 C2059 1.491 . S
C2065 C2064 1.400 . S
C2065 C2066 1.398 . S
C2066 H2054 0.950 . S
C2066 C2065 1.398 . S
C2066 C2067 1.391 . S
C2067 H2055 0.950 . S
C2067 C2063 1.393 . S
C2067 C2066 1.391 . S
H2068 C2076 0.950 . S
H2069 C2081 0.950 . S
H2070 C2078 0.950 . S
H2071 C2080 0.950 . S
H2072 C2082 0.950 . S
H2073 C2084 0.950 . S
H2074 C2086 0.950 . S
H2075 C2087 0.950 . S
C2076 H2068 0.950 . S
C2076 C2077 1.386 . S
C2076 C2078 1.391 . S
C2077 C2076 1.386 . S
C2077 C2081 1.393 . S
C2078 H2070 0.950 . S
C2078 C2076 1.391 . S
C2078 C2079 1.400 . S
C2079 C2078 1.400 . S
C2079 C2080 1.398 . S
C2079 C2085 1.491 . S
C2080 H2071 0.950 . S
C2080 C2079 1.398 . S
C2080 C2081 1.391 . S
C2081 H2069 0.950 . S
C2081 C2077 1.393 . S
C2081 C2080 1.391 . S
C2082 H2072 0.950 . S
C2082 C2083 1.386 . S
C2082 C2084 1.391 . S
C2083 C2082 1.386 . S
C2083 C2087 1.393 . S
C2084 H2073 0.950 . S
C2084 C2082 1.391 . S
C2084 C2085 1.400 . S
C2085 C2079 1.491 . S
C2085 C2084 1.400 . S
C2085 C2086 1.398 . S
C2086 H2074 0.950 . S
C2086 C2085 1.398 . S
C2086 C2087 1.391 . S
C2087 H2075 0.950 . S
C2087 C2083 1.393 . S
C2087 C2086 1.391 . S
H2088 C2096 0.950 . S
H2089 C2101 0.950 . S
H2090 C2098 0.950 . S
H2091 C2100 0.950 . S
H2092 C2102 0.950 . S
H2093 C2104 0.950 . S
H2094 C2106 0.950 . S
H2095 C2107 0.950 . S
C2096 H2088 0.950 . S
C2096 C2097 1.386 . S
C2096 C2098 1.391 . S
C2097 C2096 1.386 . S
C2097 C2101 1.393 . S
C2098 H2090 0.950 . S
C2098 C2096 1.391 . S
C2098 C2099 1.400 . S
C2099 C2098 1.400 . S
C2099 C2100 1.398 . S
C2099 C2105 1.491 . S
C2100 H2091 0.950 . S
C2100 C2099 1.398 . S
C2100 C2101 1.391 . S
C2101 H2089 0.950 . S
C2101 C2097 1.393 . S
C2101 C2100 1.391 . S
C2102 H2092 0.950 . S
C2102 C2103 1.386 . S
C2102 C2104 1.391 . S
C2103 C2102 1.386 . S
C2103 C2107 1.393 . S
C2104 H2093 0.950 . S
C2104 C2102 1.391 . S
C2104 C2105 1.400 . S
C2105 C2099 1.491 . S
C2105 C2104 1.400 . S
C2105 C2106 1.398 . S
C2106 H2094 0.950 . S
C2106 C2105 1.398 . S
C2106 C2107 1.391 . S
C2107 H2095 0.950 . S
C2107 C2103 1.393 . S
C2107 C2106 1.391 . S
H2108 C2116 0.950 . S
H2109 C2121 0.950 . S
H2110 C2118 0.950 . S
H2111 C2120 0.950 . S
H2112 C2122 0.950 . S
H2113 C2124 0.950 . S
H2114 C2126 0.950 . S
H2115 C2127 0.950 . S
C2116 H2108 0.950 . S
C2116 C2117 1.386 . S
C2116 C2118 1.391 . S
C2117 C2116 1.386 . S
C2117 C2121 1.393 . S
C2118 H2110 0.950 . S
C2118 C2116 1.391 . S
C2118 C2119 1.400 . S
C2119 C2118 1.400 . S
C2119 C2120 1.398 . S
C2119 C2125 1.491 . S
C2120 H2111 0.950 . S
C2120 C2119 1.398 . S
C2120 C2121 1.391 . S
C2121 H2109 0.950 . S
C2121 C2117 1.393 . S
C2121 C2120 1.391 . S
C2122 H2112 0.950 . S
C2122 C2123 1.386 . S
C2122 C2124 1.391 . S
C2123 C2122 1.386 . S
C2123 C2127 1.393 . S
C2124 H2113 0.950 . S
C2124 C2122 1.391 . S
C2124 C2125 1.400 . S
C2125 C2119 1.491 . S
C2125 C2124 1.400 . S
C2125 C2126 1.398 . S
C2126 H2114 0.950 . S
C2126 C2125 1.398 . S
C2126 C2127 1.391 . S
C2127 H2115 0.950 . S
C2127 C2123 1.393 . S
C2127 C2126 1.391 . S
H2128 C2136 0.950 . S
H2129 C2141 0.950 . S
H2130 C2138 0.950 . S
H2131 C2140 0.950 . S
H2132 C2142 0.950 . S
H2133 C2144 0.950 . S
H2134 C2146 0.950 . S
H2135 C2147 0.950 . S
C2136 H2128 0.950 . S
C2136 C2137 1.386 . S
C2136 C2138 1.391 . S
C2137 C2136 1.386 . S
C2137 C2141 1.393 . S
C2138 H2130 0.950 . S
C2138 C2136 1.391 . S
C2138 C2139 1.400 . S
C2139 C2138 1.400 . S
C2139 C2140 1.398 . S
C2139 C2145 1.491 . S
C2140 H2131 0.950 . S
C2140 C2139 1.398 . S
C2140 C2141 1.391 . S
C2141 H2129 0.950 . S
C2141 C2137 1.393 . S
C2141 C2140 1.391 . S
C2142 H2132 0.950 . S
C2142 C2143 1.386 . S
C2142 C2144 1.391 . S
C2143 C2142 1.386 . S
C2143 C2147 1.393 . S
C2144 H2133 0.950 . S
C2144 C2142 1.391 . S
C2144 C2145 1.400 . S
C2145 C2139 1.491 . S
C2145 C2144 1.400 . S
C2145 C2146 1.398 . S
C2146 H2134 0.950 . S
C2146 C2145 1.398 . S
C2146 C2147 1.391 . S
C2147 H2135 0.950 . S
C2147 C2143 1.393 . S
C2147 C2146 1.391 . S
H2148 C2156 0.950 . S
H2149 C2161 0.950 . S
H2150 C2158 0.950 . S
H2151 C2160 0.950 . S
H2152 C2162 0.950 . S
H2153 C2164 0.950 . S
H2154 C2166 0.950 . S
H2155 C2167 0.950 . S
C2156 H2148 0.950 . S
C2156 C2157 1.386 . S
C2156 C2158 1.391 . S
C2157 C2156 1.386 . S
C2157 C2161 1.393 . S
C2158 H2150 0.950 . S
C2158 C2156 1.391 . S
C2158 C2159 1.400 . S
C2159 C2158 1.400 . S
C2159 C2160 1.398 . S
C2159 C2165 1.491 . S
C2160 H2151 0.950 . S
C2160 C2159 1.398 . S
C2160 C2161 1.391 . S
C2161 H2149 0.950 . S
C2161 C2157 1.393 . S
C2161 C2160 1.391 . S
C2162 H2152 0.950 . S
C2162 C2163 1.386 . S
C2162 C2164 1.391 . S
C2163 C2162 1.386 . S
C2163 C2167 1.393 . S
C2164 H2153 0.950 . S
C2164 C2162 1.391 . S
C2164 C2165 1.400 . S
C2165 C2159 1.491 . S
C2165 C2164 1.400 . S
C2165 C2166 1.398 . S
C2166 H2154 0.950 . S
C2166 C2165 1.398 . S
C2166 C2167 1.391 . S
C2167 H2155 0.950 . S
C2167 C2163 1.393 . S
C2167 C2166 1.391 . S
H2168 C2176 0.950 . S
H2169 C2181 0.950 . S
H2170 C2178 0.950 . S
H2171 C2180 0.950 . S
H2172 C2182 0.950 . S
H2173 C2184 0.950 . S
H2174 C2186 0.950 . S
H2175 C2187 0.950 . S
C2176 H2168 0.950 . S
C2176 C2177 1.386 . S
C2176 C2178 1.391 . S
C2177 C2176 1.386 . S
C2177 C2181 1.393 . S
C2178 H2170 0.950 . S
C2178 C2176 1.391 . S
C2178 C2179 1.400 . S
C2179 C2178 1.400 . S
C2179 C2180 1.398 . S
C2179 C2185 1.491 . S
C2180 H2171 0.950 . S
C2180 C2179 1.398 . S
C2180 C2181 1.391 . S
C2181 H2169 0.950 . S
C2181 C2177 1.393 . S
C2181 C2180 1.391 . S
C2182 H2172 0.950 . S
C2182 C2183 1.386 . S
C2182 C2184 1.391 . S
C2183 C2182 1.386 . S
C2183 C2187 1.393 . S
C2184 H2173 0.950 . S
C2184 C2182 1.391 . S
C2184 C2185 1.400 . S
C2185 C2179 1.491 . S
C2185 C2184 1.400 . S
C2185 C2186 1.398 . S
C2186 H2174 0.950 . S
C2186 C2185 1.398 . S
C2186 C2187 1.391 . S
C2187 H2175 0.950 . S
C2187 C2183 1.393 . S
C2187 C2186 1.391 . S
H2188 C2196 0.950 . S
H2189 C2201 0.950 . S
H2190 C2198 0.950 . S
H2191 C2200 0.950 . S
H2192 C2202 0.950 . S
H2193 C2204 0.950 . S
H2194 C2206 0.950 . S
H2195 C2207 0.950 . S
C2196 H2188 0.950 . S
C2196 C2197 1.386 . S
C2196 C2198 1.391 . S
C2197 C2196 1.386 . S
C2197 C2201 1.393 . S
C2198 H2190 0.950 . S
C2198 C2196 1.391 . S
C2198 C2199 1.400 . S
C2199 C2198 1.400 . S
C2199 C2200 1.398 . S
C2199 C2205 1.491 . S
C2200 H2191 0.950 . S
C2200 C2199 1.398 . S
C2200 C2201 1.391 . S
C2201 H2189 0.950 . S
C2201 C2197 1.393 . S
C2201 C2200 1.391 . S
C2202 H2192 0.950 . S
C2202 C2203 1.386 . S
C2202 C2204 1.391 . S
C2203 C2202 1.386 . S
C2203 C2207 1.393 . S
C2204 H2193 0.950 . S
C2204 C2202 1.391 . S
C2204 C2205 1.400 . S
C2205 C2199 1.491 . S
C2205 C2204 1.400 . S
C2205 C2206 1.398 . S
C2206 H2194 0.950 . S
C2206 C2205 1.398 . S
C2206 C2207 1.391 . S
C2207 H2195 0.950 . S
C2207 C2203 1.393 . S
C2207 C2206 1.391 . S
H2208 C2216 0.950 . S
H2209 C2221 0.950 . S
H2210 C2218 0.950 . S
H2211 C2220 0.950 . S
H2212 C2222 0.950 . S
H2213 C2224 0.950 . S
H2214 C2226 0.950 . S
H2215 C2227 0.950 . S
C2216 H2208 0.950 . S
C2216 C2217 1.386 . S
C2216 C2218 1.391 . S
C2217 C2216 1.386 . S
C2217 C2221 1.393 . S
C2218 H2210 0.950 . S
C2218 C2216 1.391 . S
C2218 C2219 1.400 . S
C2219 C2218 1.400 . S
C2219 C2220 1.398 . S
C2219 C2225 1.491 1_554 S
C2220 H2211 0.950 . S
C2220 C2219 1.398 . S
C2220 C2221 1.391 . S
C2221 H2209 0.950 . S
C2221 C2217 1.393 . S
C2221 C2220 1.391 . S
C2222 H2212 0.950 . S
C2222 C2223 1.386 . S
C2222 C2224 1.391 . S
C2223 C2222 1.386 . S
C2223 C2227 1.393 . S
C2224 H2213 0.950 . S
C2224 C2222 1.391 . S
C2224 C2225 1.400 . S
C2225 C2219 1.491 1_556 S
C2225 C2224 1.400 . S
C2225 C2226 1.398 . S
C2226 H2214 0.950 . S
C2226 C2225 1.398 . S
C2226 C2227 1.391 . S
C2227 H2215 0.950 . S
C2227 C2223 1.393 . S
C2227 C2226 1.391 . S
H2228 C2236 0.950 . S
H2229 C2241 0.950 . S
H2230 C2238 0.950 . S
H2231 C2240 0.950 . S
H2232 C2242 0.950 . S
H2233 C2244 0.950 . S
H2234 C2246 0.950 . S
H2235 C2247 0.950 . S
C2236 H2228 0.950 . S
C2236 C2237 1.386 . S
C2236 C2238 1.391 . S
C2237 C2236 1.386 . S
C2237 C2241 1.393 . S
C2238 H2230 0.950 . S
C2238 C2236 1.391 . S
C2238 C2239 1.400 . S
C2239 C2238 1.400 . S
C2239 C2240 1.398 . S
C2239 C2245 1.491 1_556 S
C2240 H2231 0.950 . S
C2240 C2239 1.398 . S
C2240 C2241 1.391 . S
C2241 H2229 0.950 . S
C2241 C2237 1.393 . S
C2241 C2240 1.391 . S
C2242 H2232 0.950 . S
C2242 C2243 1.386 . S
C2242 C2244 1.391 . S
C2243 C2242 1.386 . S
C2243 C2247 1.393 . S
C2244 H2233 0.950 . S
C2244 C2242 1.391 . S
C2244 C2245 1.400 . S
C2245 C2239 1.491 1_554 S
C2245 C2244 1.400 . S
C2245 C2246 1.398 . S
C2246 H2234 0.950 . S
C2246 C2245 1.398 . S
C2246 C2247 1.391 . S
C2247 H2235 0.950 . S
C2247 C2243 1.393 . S
C2247 C2246 1.391 . S
H2248 C2256 0.950 . S
H2249 C2261 0.950 . S
H2250 C2258 0.950 . S
H2251 C2260 0.950 . S
H2252 C2262 0.950 . S
H2253 C2264 0.950 . S
H2254 C2266 0.950 . S
H2255 C2267 0.950 . S
C2256 H2248 0.950 . S
C2256 C2257 1.386 . S
C2256 C2258 1.391 . S
C2257 C2256 1.386 . S
C2257 C2261 1.393 . S
C2258 H2250 0.950 . S
C2258 C2256 1.391 . S
C2258 C2259 1.400 . S
C2259 C2258 1.400 . S
C2259 C2260 1.398 . S
C2259 C2265 1.491 1_556 S
C2260 H2251 0.950 . S
C2260 C2259 1.398 . S
C2260 C2261 1.391 . S
C2261 H2249 0.950 . S
C2261 C2257 1.393 . S
C2261 C2260 1.391 . S
C2262 H2252 0.950 . S
C2262 C2263 1.386 . S
C2262 C2264 1.391 . S
C2263 C2262 1.386 . S
C2263 C2267 1.393 . S
C2264 H2253 0.950 . S
C2264 C2262 1.391 . S
C2264 C2265 1.400 . S
C2265 C2259 1.491 1_554 S
C2265 C2264 1.400 . S
C2265 C2266 1.398 . S
C2266 H2254 0.950 . S
C2266 C2265 1.398 . S
C2266 C2267 1.391 . S
C2267 H2255 0.950 . S
C2267 C2263 1.393 . S
C2267 C2266 1.391 . S
H2268 C2276 0.950 . S
H2269 C2281 0.950 . S
H2270 C2278 0.950 . S
H2271 C2280 0.950 . S
H2272 C2282 0.950 . S
H2273 C2284 0.950 . S
H2274 C2286 0.950 . S
H2275 C2287 0.950 . S
C2276 H2268 0.950 . S
C2276 C2277 1.386 . S
C2276 C2278 1.391 . S
C2277 C2276 1.386 . S
C2277 C2281 1.393 . S
C2278 H2270 0.950 . S
C2278 C2276 1.391 . S
C2278 C2279 1.400 . S
C2279 C2278 1.400 . S
C2279 C2280 1.398 . S
C2279 C2285 1.491 1_556 S
C2280 H2271 0.950 . S
C2280 C2279 1.398 . S
C2280 C2281 1.391 . S
C2281 H2269 0.950 . S
C2281 C2277 1.393 . S
C2281 C2280 1.391 . S
C2282 H2272 0.950 . S
C2282 C2283 1.386 . S
C2282 C2284 1.391 . S
C2283 C2282 1.386 . S
C2283 C2287 1.393 . S
C2284 H2273 0.950 . S
C2284 C2282 1.391 . S
C2284 C2285 1.400 . S
C2285 C2279 1.491 1_554 S
C2285 C2284 1.400 . S
C2285 C2286 1.398 . S
C2286 H2274 0.950 . S
C2286 C2285 1.398 . S
C2286 C2287 1.391 . S
C2287 H2275 0.950 . S
C2287 C2283 1.393 . S
C2287 C2286 1.391 . S
H2288 C2296 0.950 . S
H2289 C2301 0.950 . S
H2290 C2298 0.950 . S
H2291 C2300 0.950 . S
H2292 C2302 0.950 . S
H2293 C2304 0.950 . S
H2294 C2306 0.950 . S
H2295 C2307 0.950 . S
C2296 H2288 0.950 . S
C2296 C2297 1.386 . S
C2296 C2298 1.391 . S
C2297 C2296 1.386 . S
C2297 C2301 1.393 . S
C2298 H2290 0.950 . S
C2298 C2296 1.391 . S
C2298 C2299 1.400 . S
C2299 C2298 1.400 . S
C2299 C2300 1.398 . S
C2299 C2305 1.491 . S
C2300 H2291 0.950 . S
C2300 C2299 1.398 . S
C2300 C2301 1.391 . S
C2301 H2289 0.950 . S
C2301 C2297 1.393 . S
C2301 C2300 1.391 . S
C2302 H2292 0.950 . S
C2302 C2303 1.386 . S
C2302 C2304 1.391 . S
C2303 C2302 1.386 . S
C2303 C2307 1.393 . S
C2304 H2293 0.950 . S
C2304 C2302 1.391 . S
C2304 C2305 1.400 . S
C2305 C2299 1.491 . S
C2305 C2304 1.400 . S
C2305 C2306 1.398 . S
C2306 H2294 0.950 . S
C2306 C2305 1.398 . S
C2306 C2307 1.391 . S
C2307 H2295 0.950 . S
C2307 C2303 1.393 . S
C2307 C2306 1.391 . S
H2308 C2316 0.950 . S
H2309 C2321 0.950 . S
H2310 C2318 0.950 . S
H2311 C2320 0.950 . S
H2312 C2322 0.950 . S
H2313 C2324 0.950 . S
H2314 C2326 0.950 . S
H2315 C2327 0.950 . S
C2316 H2308 0.950 . S
C2316 C2317 1.386 . S
C2316 C2318 1.391 . S
C2317 C2316 1.386 . S
C2317 C2321 1.393 . S
C2318 H2310 0.950 . S
C2318 C2316 1.391 . S
C2318 C2319 1.400 . S
C2319 C2318 1.400 . S
C2319 C2320 1.398 . S
C2319 C2325 1.491 . S
C2320 H2311 0.950 . S
C2320 C2319 1.398 . S
C2320 C2321 1.391 . S
C2321 H2309 0.950 . S
C2321 C2317 1.393 . S
C2321 C2320 1.391 . S
C2322 H2312 0.950 . S
C2322 C2323 1.386 . S
C2322 C2324 1.391 . S
C2323 C2322 1.386 . S
C2323 C2327 1.393 . S
C2324 H2313 0.950 . S
C2324 C2322 1.391 . S
C2324 C2325 1.400 . S
C2325 C2319 1.491 . S
C2325 C2324 1.400 . S
C2325 C2326 1.398 . S
C2326 H2314 0.950 . S
C2326 C2325 1.398 . S
C2326 C2327 1.391 . S
C2327 H2315 0.950 . S
C2327 C2323 1.393 . S
C2327 C2326 1.391 . S
H2328 C2336 0.950 . S
H2329 C2341 0.950 . S
H2330 C2338 0.950 . S
H2331 C2340 0.950 . S
H2332 C2342 0.950 . S
H2333 C2344 0.950 . S
H2334 C2346 0.950 . S
H2335 C2347 0.950 . S
C2336 H2328 0.950 . S
C2336 C2337 1.386 . S
C2336 C2338 1.391 . S
C2337 C2336 1.386 . S
C2337 C2341 1.393 . S
C2338 H2330 0.950 . S
C2338 C2336 1.391 . S
C2338 C2339 1.400 . S
C2339 C2338 1.400 . S
C2339 C2340 1.398 . S
C2339 C2345 1.491 . S
C2340 H2331 0.950 . S
C2340 C2339 1.398 . S
C2340 C2341 1.391 . S
C2341 H2329 0.950 . S
C2341 C2337 1.393 . S
C2341 C2340 1.391 . S
C2342 H2332 0.950 . S
C2342 C2343 1.386 . S
C2342 C2344 1.391 . S
C2343 C2342 1.386 . S
C2343 C2347 1.393 . S
C2344 H2333 0.950 . S
C2344 C2342 1.391 . S
C2344 C2345 1.400 . S
C2345 C2339 1.491 . S
C2345 C2344 1.400 . S
C2345 C2346 1.398 . S
C2346 H2334 0.950 . S
C2346 C2345 1.398 . S
C2346 C2347 1.391 . S
C2347 H2335 0.950 . S
C2347 C2343 1.393 . S
C2347 C2346 1.391 . S
H2348 C2356 0.950 . S
H2349 C2361 0.950 . S
H2350 C2358 0.950 . S
H2351 C2360 0.950 . S
H2352 C2362 0.950 . S
H2353 C2364 0.950 . S
H2354 C2366 0.950 . S
H2355 C2367 0.950 . S
C2356 H2348 0.950 . S
C2356 C2357 1.386 . S
C2356 C2358 1.391 . S
C2357 C2356 1.386 . S
C2357 C2361 1.393 . S
C2358 H2350 0.950 . S
C2358 C2356 1.391 . S
C2358 C2359 1.400 . S
C2359 C2358 1.400 . S
C2359 C2360 1.398 . S
C2359 C2365 1.491 . S
C2360 H2351 0.950 . S
C2360 C2359 1.398 . S
C2360 C2361 1.391 . S
C2361 H2349 0.950 . S
C2361 C2357 1.393 . S
C2361 C2360 1.391 . S
C2362 H2352 0.950 . S
C2362 C2363 1.386 . S
C2362 C2364 1.391 . S
C2363 C2362 1.386 . S
C2363 C2367 1.393 . S
C2364 H2353 0.950 . S
C2364 C2362 1.391 . S
C2364 C2365 1.400 . S
C2365 C2359 1.491 . S
C2365 C2364 1.400 . S
C2365 C2366 1.398 . S
C2366 H2354 0.950 . S
C2366 C2365 1.398 . S
C2366 C2367 1.391 . S
C2367 H2355 0.950 . S
C2367 C2363 1.393 . S
C2367 C2366 1.391 . S
H2368 C2376 0.950 . S
H2369 C2381 0.950 . S
H2370 C2378 0.950 . S
H2371 C2380 0.950 . S
H2372 C2382 0.950 . S
H2373 C2384 0.950 . S
H2374 C2386 0.950 . S
H2375 C2387 0.950 . S
C2376 H2368 0.950 . S
C2376 C2377 1.386 . S
C2376 C2378 1.391 . S
C2377 C2376 1.386 . S
C2377 C2381 1.393 . S
C2378 H2370 0.950 . S
C2378 C2376 1.391 . S
C2378 C2379 1.400 . S
C2379 C2378 1.400 . S
C2379 C2380 1.398 . S
C2379 C2385 1.491 . S
C2380 H2371 0.950 . S
C2380 C2379 1.398 . S
C2380 C2381 1.391 . S
C2381 H2369 0.950 . S
C2381 C2377 1.393 . S
C2381 C2380 1.391 . S
C2382 H2372 0.950 . S
C2382 C2383 1.386 . S
C2382 C2384 1.391 . S
C2383 C2382 1.386 . S
C2383 C2387 1.393 . S
C2384 H2373 0.950 . S
C2384 C2382 1.391 . S
C2384 C2385 1.400 . S
C2385 C2379 1.491 . S
C2385 C2384 1.400 . S
C2385 C2386 1.398 . S
C2386 H2374 0.950 . S
C2386 C2385 1.398 . S
C2386 C2387 1.391 . S
C2387 H2375 0.950 . S
C2387 C2383 1.393 . S
C2387 C2386 1.391 . S
H2388 C2396 0.950 . S
H2389 C2401 0.950 . S
H2390 C2398 0.950 . S
H2391 C2400 0.950 . S
H2392 C2402 0.950 . S
H2393 C2404 0.950 . S
H2394 C2406 0.950 . S
H2395 C2407 0.950 . S
C2396 H2388 0.950 . S
C2396 C2397 1.386 . S
C2396 C2398 1.391 . S
C2397 C2396 1.386 . S
C2397 C2401 1.393 . S
C2398 H2390 0.950 . S
C2398 C2396 1.391 . S
C2398 C2399 1.400 . S
C2399 C2398 1.400 . S
C2399 C2400 1.398 . S
C2399 C2405 1.491 . S
C2400 H2391 0.950 . S
C2400 C2399 1.398 . S
C2400 C2401 1.391 . S
C2401 H2389 0.950 . S
C2401 C2397 1.393 . S
C2401 C2400 1.391 . S
C2402 H2392 0.950 . S
C2402 C2403 1.386 . S
C2402 C2404 1.391 . S
C2403 C2402 1.386 . S
C2403 C2407 1.393 . S
C2404 H2393 0.950 . S
C2404 C2402 1.391 . S
C2404 C2405 1.400 . S
C2405 C2399 1.491 . S
C2405 C2404 1.400 . S
C2405 C2406 1.398 . S
C2406 H2394 0.950 . S
C2406 C2405 1.398 . S
C2406 C2407 1.391 . S
C2407 H2395 0.950 . S
C2407 C2403 1.393 . S
C2407 C2406 1.391 . S
H2408 C2416 0.950 . S
H2409 C2421 0.950 . S
H2410 C2418 0.950 . S
H2411 C2420 0.950 . S
H2412 C2422 0.950 . S
H2413 C2424 0.950 . S
H2414 C2426 0.950 . S
H2415 C2427 0.950 . S
C2416 H2408 0.950 . S
C2416 C2417 1.386 . S
C2416 C2418 1.391 . S
C2417 C2416 1.386 . S
C2417 C2421 1.393 . S
C2418 H2410 0.950 . S
C2418 C2416 1.391 . S
C2418 C2419 1.400 . S
C2419 C2418 1.400 . S
C2419 C2420 1.398 . S
C2419 C2425 1.491 . S
C2420 H2411 0.950 . S
C2420 C2419 1.398 . S
C2420 C2421 1.391 . S
C2421 H2409 0.950 . S
C2421 C2417 1.393 . S
C2421 C2420 1.391 . S
C2422 H2412 0.950 . S
C2422 C2423 1.386 . S
C2422 C2424 1.391 . S
C2423 C2422 1.386 . S
C2423 C2427 1.393 . S
C2424 H2413 0.950 . S
C2424 C2422 1.391 . S
C2424 C2425 1.400 . S
C2425 C2419 1.491 . S
C2425 C2424 1.400 . S
C2425 C2426 1.398 . S
C2426 H2414 0.950 . S
C2426 C2425 1.398 . S
C2426 C2427 1.391 . S
C2427 H2415 0.950 . S
C2427 C2423 1.393 . S
C2427 C2426 1.391 . S
H2428 C2436 0.950 . S
H2429 C2441 0.950 . S
H2430 C2438 0.950 . S
H2431 C2440 0.950 . S
H2432 C2442 0.950 . S
H2433 C2444 0.950 . S
H2434 C2446 0.950 . S
H2435 C2447 0.950 . S
C2436 H2428 0.950 . S
C2436 C2437 1.386 . S
C2436 C2438 1.391 . S
C2437 C2436 1.386 . S
C2437 C2441 1.393 . S
C2438 H2430 0.950 . S
C2438 C2436 1.391 . S
C2438 C2439 1.400 . S
C2439 C2438 1.400 . S
C2439 C2440 1.398 . S
C2439 C2445 1.491 . S
C2440 H2431 0.950 . S
C2440 C2439 1.398 . S
C2440 C2441 1.391 . S
C2441 H2429 0.950 . S
C2441 C2437 1.393 . S
C2441 C2440 1.391 . S
C2442 H2432 0.950 . S
C2442 C2443 1.386 . S
C2442 C2444 1.391 . S
C2443 C2442 1.386 . S
C2443 C2447 1.393 . S
C2444 H2433 0.950 . S
C2444 C2442 1.391 . S
C2444 C2445 1.400 . S
C2445 C2439 1.491 . S
C2445 C2444 1.400 . S
C2445 C2446 1.398 . S
C2446 H2434 0.950 . S
C2446 C2445 1.398 . S
C2446 C2447 1.391 . S
C2447 H2435 0.950 . S
C2447 C2443 1.393 . S
C2447 C2446 1.391 . S
H2448 C2456 0.950 . S
H2449 C2461 0.950 . S
H2450 C2458 0.950 . S
H2451 C2460 0.950 . S
H2452 C2462 0.950 . S
H2453 C2464 0.950 . S
H2454 C2466 0.950 . S
H2455 C2467 0.950 . S
C2456 H2448 0.950 . S
C2456 C2457 1.386 . S
C2456 C2458 1.391 . S
C2457 C2456 1.386 . S
C2457 C2461 1.393 . S
C2458 H2450 0.950 . S
C2458 C2456 1.391 . S
C2458 C2459 1.400 . S
C2459 C2458 1.400 . S
C2459 C2460 1.398 . S
C2459 C2465 1.491 1_556 S
C2460 H2451 0.950 . S
C2460 C2459 1.398 . S
C2460 C2461 1.391 . S
C2461 H2449 0.950 . S
C2461 C2457 1.393 . S
C2461 C2460 1.391 . S
C2462 H2452 0.950 . S
C2462 C2463 1.386 . S
C2462 C2464 1.391 . S
C2463 C2462 1.386 . S
C2463 C2467 1.393 . S
C2464 H2453 0.950 . S
C2464 C2462 1.391 . S
C2464 C2465 1.400 . S
C2465 C2459 1.491 1_554 S
C2465 C2464 1.400 . S
C2465 C2466 1.398 . S
C2466 H2454 0.950 . S
C2466 C2465 1.398 . S
C2466 C2467 1.391 . S
C2467 H2455 0.950 . S
C2467 C2463 1.393 . S
C2467 C2466 1.391 . S
H2468 C2476 0.950 . S
H2469 C2481 0.950 . S
H2470 C2478 0.950 . S
H2471 C2480 0.950 . S
H2472 C2482 0.950 . S
H2473 C2484 0.950 . S
H2474 C2486 0.950 . S
H2475 C2487 0.950 . S
C2476 H2468 0.950 . S
C2476 C2477 1.386 . S
C2476 C2478 1.391 . S
C2477 C2476 1.386 . S
C2477 C2481 1.393 . S
C2478 H2470 0.950 . S
C2478 C2476 1.391 . S
C2478 C2479 1.400 . S
C2479 C2478 1.400 . S
C2479 C2480 1.398 . S
C2479 C2485 1.491 1_554 S
C2480 H2471 0.950 . S
C2480 C2479 1.398 . S
C2480 C2481 1.391 . S
C2481 H2469 0.950 . S
C2481 C2477 1.393 . S
C2481 C2480 1.391 . S
C2482 H2472 0.950 . S
C2482 C2483 1.386 . S
C2482 C2484 1.391 . S
C2483 C2482 1.386 . S
C2483 C2487 1.393 . S
C2484 H2473 0.950 . S
C2484 C2482 1.391 . S
C2484 C2485 1.400 . S
C2485 C2479 1.491 1_556 S
C2485 C2484 1.400 . S
C2485 C2486 1.398 . S
C2486 H2474 0.950 . S
C2486 C2485 1.398 . S
C2486 C2487 1.391 . S
C2487 H2475 0.950 . S
C2487 C2483 1.393 . S
C2487 C2486 1.391 . S
H2488 C2496 0.950 . S
H2489 C2501 0.950 . S
H2490 C2498 0.950 . S
H2491 C2500 0.950 . S
H2492 C2502 0.950 . S
H2493 C2504 0.950 . S
H2494 C2506 0.950 . S
H2495 C2507 0.950 . S
C2496 H2488 0.950 . S
C2496 C2497 1.386 . S
C2496 C2498 1.391 . S
C2497 C2496 1.386 . S
C2497 C2501 1.393 . S
C2498 H2490 0.950 . S
C2498 C2496 1.391 . S
C2498 C2499 1.400 . S
C2499 C2498 1.400 . S
C2499 C2500 1.398 . S
C2499 C2505 1.491 1_554 S
C2500 H2491 0.950 . S
C2500 C2499 1.398 . S
C2500 C2501 1.391 . S
C2501 H2489 0.950 . S
C2501 C2497 1.393 . S
C2501 C2500 1.391 . S
C2502 H2492 0.950 . S
C2502 C2503 1.386 . S
C2502 C2504 1.391 . S
C2503 C2502 1.386 . S
C2503 C2507 1.393 . S
C2504 H2493 0.950 . S
C2504 C2502 1.391 . S
C2504 C2505 1.400 . S
C2505 C2499 1.491 1_556 S
C2505 C2504 1.400 . S
C2505 C2506 1.398 . S
C2506 H2494 0.950 . S
C2506 C2505 1.398 . S
C2506 C2507 1.391 . S
C2507 H2495 0.950 . S
C2507 C2503 1.393 . S
C2507 C2506 1.391 . S
H2508 C2516 0.950 . S
H2509 C2521 0.950 . S
H2510 C2518 0.950 . S
H2511 C2520 0.950 . S
H2512 C2522 0.950 . S
H2513 C2524 0.950 . S
H2514 C2526 0.950 . S
H2515 C2527 0.950 . S
C2516 H2508 0.950 . S
C2516 C2517 1.386 . S
C2516 C2518 1.391 . S
C2517 C2516 1.386 . S
C2517 C2521 1.393 . S
C2518 H2510 0.950 . S
C2518 C2516 1.391 . S
C2518 C2519 1.400 . S
C2519 C2518 1.400 . S
C2519 C2520 1.398 . S
C2519 C2525 1.491 1_556 S
C2520 H2511 0.950 . S
C2520 C2519 1.398 . S
C2520 C2521 1.391 . S
C2521 H2509 0.950 . S
C2521 C2517 1.393 . S
C2521 C2520 1.391 . S
C2522 H2512 0.950 . S
C2522 C2523 1.386 . S
C2522 C2524 1.391 . S
C2523 C2522 1.386 . S
C2523 C2527 1.393 . S
C2524 H2513 0.950 . S
C2524 C2522 1.391 . S
C2524 C2525 1.400 . S
C2525 C2519 1.491 1_554 S
C2525 C2524 1.400 . S
C2525 C2526 1.398 . S
C2526 H2514 0.950 . S
C2526 C2525 1.398 . S
C2526 C2527 1.391 . S
C2527 H2515 0.950 . S
C2527 C2523 1.393 . S
C2527 C2526 1.391 . S
H2528 C2536 0.950 . S
H2529 C2541 0.950 . S
H2530 C2538 0.950 . S
H2531 C2540 0.990 . S
H2532 C2542 0.950 . S
H2533 C2544 0.950 . S
H2534 C2546 0.990 . S
H2535 C2547 0.950 . S
C2536 H2528 0.950 . S
C2536 C2537 1.386 . S
C2536 C2538 1.391 . S
C2537 C2536 1.386 . S
C2537 C2541 1.393 . S
C2538 H2530 0.950 . S
C2538 C2536 1.391 . S
C2538 C2539 1.400 . S
C2539 C2538 1.400 . S
C2539 C2540 1.398 . S
C2539 C2545 1.491 1_545 S
C2540 H2531 0.990 . S
C2540 C2539 1.398 . S
C2540 C2541 1.391 . S
C2541 H2529 0.950 . S
C2541 C2537 1.393 . S
C2541 C2540 1.391 . S
C2542 H2532 0.950 . S
C2542 C2543 1.386 . S
C2542 C2544 1.391 . S
C2543 C2542 1.386 . S
C2543 C2547 1.393 . S
C2544 H2533 0.950 . S
C2544 C2542 1.391 . S
C2544 C2545 1.400 . S
C2545 C2539 1.491 1_565 S
C2545 C2544 1.400 . S
C2545 C2546 1.398 . S
C2546 H2534 0.990 . S
C2546 C2545 1.398 . S
C2546 C2547 1.391 . S
C2547 H2535 0.950 . S
C2547 C2543 1.393 . S
C2547 C2546 1.391 . S
H2548 C2556 0.950 . S
H2549 C2561 0.950 . S
H2550 C2558 0.950 . S
H2551 C2560 0.950 1_455 S
H2552 C2562 0.950 . S
H2553 C2564 0.950 . S
H2554 C2566 0.950 1_655 S
H2555 C2567 0.950 . S
C2556 H2548 0.950 . S
C2556 C2557 1.386 . S
C2556 C2558 1.391 . S
C2557 C2556 1.386 . S
C2557 C2561 1.393 . S
C2558 H2550 0.950 . S
C2558 C2556 1.391 . S
C2558 C2559 1.400 . S
C2559 C2558 1.400 . S
C2559 C2560 1.398 . S
C2559 C2565 1.491 1_655 S
C2560 H2551 0.950 1_655 S
C2560 C2559 1.398 . S
C2560 C2561 1.391 . S
C2561 H2549 0.950 . S
C2561 C2557 1.393 . S
C2561 C2560 1.391 . S
C2562 H2552 0.950 . S
C2562 C2563 1.386 . S
C2562 C2564 1.391 . S
C2563 C2562 1.386 . S
C2563 C2567 1.393 . S
C2564 H2553 0.950 . S
C2564 C2562 1.391 . S
C2564 C2565 1.400 . S
C2565 C2559 1.491 1_455 S
C2565 C2564 1.400 . S
C2565 C2566 1.398 . S
C2566 H2554 0.950 1_455 S
C2566 C2565 1.398 . S
C2566 C2567 1.391 . S
C2567 H2555 0.950 . S
C2567 C2563 1.393 . S
C2567 C2566 1.391 . S
H2568 C2576 0.950 . S
H2569 C2581 0.950 . S
H2570 C2578 0.950 . S
H2571 C2580 0.950 . S
H2572 C2582 0.950 . S
H2573 C2584 0.950 . S
H2574 C2586 0.950 . S
H2575 C2587 0.950 . S
C2576 H2568 0.950 . S
C2576 C2577 1.386 . S
C2576 C2578 1.391 . S
C2577 C2576 1.386 . S
C2577 C2581 1.393 . S
C2578 H2570 0.950 . S
C2578 C2576 1.391 . S
C2578 C2579 1.400 . S
C2579 C2578 1.400 . S
C2579 C2580 1.398 . S
C2579 C2585 1.491 1_545 S
C2580 H2571 0.950 . S
C2580 C2579 1.398 . S
C2580 C2581 1.391 . S
C2581 H2569 0.950 . S
C2581 C2577 1.393 . S
C2581 C2580 1.391 . S
C2582 H2572 0.950 . S
C2582 C2583 1.386 . S
C2582 C2584 1.391 . S
C2583 C2582 1.386 . S
C2583 C2587 1.393 . S
C2584 H2573 0.950 . S
C2584 C2582 1.391 . S
C2584 C2585 1.400 . S
C2585 C2579 1.491 1_565 S
C2585 C2584 1.400 . S
C2585 C2586 1.398 . S
C2586 H2574 0.950 . S
C2586 C2585 1.398 . S
C2586 C2587 1.391 . S
C2587 H2575 0.950 . S
C2587 C2583 1.393 . S
C2587 C2586 1.391 . S
H2588 C2596 0.950 . S
H2589 C2601 0.950 . S
H2590 C2598 0.950 . S
H2591 C2600 0.950 1_655 S
H2592 C2602 0.950 . S
H2593 C2604 0.950 . S
H2594 C2606 0.950 1_455 S
H2595 C2607 0.950 . S
C2596 H2588 0.950 . S
C2596 C2597 1.386 . S
C2596 C2598 1.391 . S
C2597 C2596 1.386 . S
C2597 C2601 1.393 . S
C2598 H2590 0.950 . S
C2598 C2596 1.391 . S
C2598 C2599 1.400 . S
C2599 C2598 1.400 . S
C2599 C2600 1.398 . S
C2599 C2605 1.491 1_455 S
C2600 H2591 0.950 1_455 S
C2600 C2599 1.398 . S
C2600 C2601 1.391 . S
C2601 H2589 0.950 . S
C2601 C2597 1.393 . S
C2601 C2600 1.391 . S
C2602 H2592 0.950 . S
C2602 C2603 1.386 . S
C2602 C2604 1.391 . S
C2603 C2602 1.386 . S
C2603 C2607 1.393 . S
C2604 H2593 0.950 . S
C2604 C2602 1.391 . S
C2604 C2605 1.400 . S
C2605 C2599 1.491 1_655 S
C2605 C2604 1.400 . S
C2605 C2606 1.398 . S
C2606 H2594 0.950 1_655 S
C2606 C2605 1.398 . S
C2606 C2607 1.391 . S
C2607 H2595 0.950 . S
C2607 C2603 1.393 . S
C2607 C2606 1.391 . S
H2608 C2616 0.950 . S
H2609 C2621 0.950 . S
H2610 C2618 0.950 1_545 S
H2611 C2620 0.950 . S
H2612 C2622 0.950 . S
H2613 C2624 0.950 1_565 S
H2614 C2626 0.950 . S
H2615 C2627 0.950 . S
C2616 H2608 0.950 . S
C2616 C2617 1.386 . S
C2616 C2618 1.391 . S
C2617 C2616 1.386 . S
C2617 C2621 1.393 . S
C2618 H2610 0.950 1_565 S
C2618 C2616 1.391 . S
C2618 C2619 1.400 . S
C2619 C2618 1.400 . S
C2619 C2620 1.398 . S
C2619 C2625 1.491 1_565 S
C2620 H2611 0.950 . S
C2620 C2619 1.398 . S
C2620 C2621 1.391 . S
C2621 H2609 0.950 . S
C2621 C2617 1.393 . S
C2621 C2620 1.391 . S
C2622 H2612 0.950 . S
C2622 C2623 1.386 . S
C2622 C2624 1.391 . S
C2623 C2622 1.386 . S
C2623 C2627 1.393 . S
C2624 H2613 0.950 1_545 S
C2624 C2622 1.391 . S
C2624 C2625 1.400 . S
C2625 C2619 1.491 1_545 S
C2625 C2624 1.400 . S
C2625 C2626 1.398 . S
C2626 H2614 0.950 . S
C2626 C2625 1.398 . S
C2626 C2627 1.391 . S
C2627 H2615 0.950 . S
C2627 C2623 1.393 . S
C2627 C2626 1.391 . S
H2628 C2636 0.950 . S
H2629 C2641 0.950 . S
H2630 C2638 0.950 . S
H2631 C2640 0.950 . S
H2632 C2642 0.950 . S
H2633 C2644 0.950 . S
H2634 C2646 0.950 . S
H2635 C2647 0.950 . S
C2636 H2628 0.950 . S
C2636 C2637 1.386 . S
C2636 C2638 1.391 . S
C2637 C2636 1.386 . S
C2637 C2641 1.393 . S
C2638 H2630 0.950 . S
C2638 C2636 1.391 . S
C2638 C2639 1.400 . S
C2639 C2638 1.400 . S
C2639 C2640 1.398 . S
C2639 C2645 1.491 1_655 S
C2640 H2631 0.950 . S
C2640 C2639 1.398 . S
C2640 C2641 1.391 . S
C2641 H2629 0.950 . S
C2641 C2637 1.393 . S
C2641 C2640 1.391 . S
C2642 H2632 0.950 . S
C2642 C2643 1.386 . S
C2642 C2644 1.391 . S
C2643 C2642 1.386 . S
C2643 C2647 1.393 . S
C2644 H2633 0.950 . S
C2644 C2642 1.391 . S
C2644 C2645 1.400 . S
C2645 C2639 1.491 1_455 S
C2645 C2644 1.400 . S
C2645 C2646 1.398 . S
C2646 H2634 0.950 . S
C2646 C2645 1.398 . S
C2646 C2647 1.391 . S
C2647 H2635 0.950 . S
C2647 C2643 1.393 . S
C2647 C2646 1.391 . S
H2648 C2656 0.950 . S
H2649 C2661 0.950 . S
H2650 C2658 0.950 . S
H2651 C2660 0.950 1_545 S
H2652 C2662 0.950 . S
H2653 C2664 0.950 . S
H2654 C2666 0.950 1_565 S
H2655 C2667 0.950 . S
C2656 H2648 0.950 . S
C2656 C2657 1.386 . S
C2656 C2658 1.391 . S
C2657 C2656 1.386 . S
C2657 C2661 1.393 . S
C2658 H2650 0.950 . S
C2658 C2656 1.391 . S
C2658 C2659 1.400 . S
C2659 C2658 1.400 . S
C2659 C2660 1.398 . S
C2659 C2665 1.491 1_565 S
C2660 H2651 0.950 1_565 S
C2660 C2659 1.398 . S
C2660 C2661 1.391 . S
C2661 H2649 0.950 . S
C2661 C2657 1.393 . S
C2661 C2660 1.391 . S
C2662 H2652 0.950 . S
C2662 C2663 1.386 . S
C2662 C2664 1.391 . S
C2663 C2662 1.386 . S
C2663 C2667 1.393 . S
C2664 H2653 0.950 . S
C2664 C2662 1.391 . S
C2664 C2665 1.400 . S
C2665 C2659 1.491 1_545 S
C2665 C2664 1.400 . S
C2665 C2666 1.398 . S
C2666 H2654 0.950 1_545 S
C2666 C2665 1.398 . S
C2666 C2667 1.391 . S
C2667 H2655 0.950 . S
C2667 C2663 1.393 . S
C2667 C2666 1.391 . S
H2668 C2676 0.950 . S
H2669 C2681 0.950 . S
H2670 C2678 0.950 1_455 S
H2671 C2680 0.950 . S
H2672 C2682 0.950 . S
H2673 C2684 0.950 1_655 S
H2674 C2686 0.950 . S
H2675 C2687 0.950 . S
C2676 H2668 0.950 . S
C2676 C2677 1.386 . S
C2676 C2678 1.391 . S
C2677 C2676 1.386 . S
C2677 C2681 1.393 . S
C2678 H2670 0.950 1_655 S
C2678 C2676 1.391 . S
C2678 C2679 1.400 . S
C2679 C2678 1.400 . S
C2679 C2680 1.398 . S
C2679 C2685 1.491 1_655 S
C2680 H2671 0.950 . S
C2680 C2679 1.398 . S
C2680 C2681 1.391 . S
C2681 H2669 0.950 . S
C2681 C2677 1.393 . S
C2681 C2680 1.391 . S
C2682 H2672 0.950 . S
C2682 C2683 1.386 . S
C2682 C2684 1.391 . S
C2683 C2682 1.386 . S
C2683 C2687 1.393 . S
C2684 H2673 0.950 1_455 S
C2684 C2682 1.391 . S
C2684 C2685 1.400 . S
C2685 C2679 1.491 1_455 S
C2685 C2684 1.400 . S
C2685 C2686 1.398 . S
C2686 H2674 0.950 . S
C2686 C2685 1.398 . S
C2686 C2687 1.391 . S
C2687 H2675 0.950 . S
C2687 C2683 1.393 . S
C2687 C2686 1.391 . S
H2688 C2696 0.950 . S
H2689 C2701 0.950 . S
H2690 C2698 0.950 . S
H2691 C2700 0.950 . S
H2692 C2702 0.950 . S
H2693 C2704 0.950 . S
H2694 C2706 0.950 . S
H2695 C2707 0.950 . S
C2696 H2688 0.950 . S
C2696 C2697 1.386 . S
C2696 C2698 1.391 . S
C2697 C2696 1.386 . S
C2697 C2701 1.393 . S
C2698 H2690 0.950 . S
C2698 C2696 1.391 . S
C2698 C2699 1.400 . S
C2699 C2698 1.400 . S
C2699 C2700 1.398 . S
C2699 C2705 1.491 . S
C2700 H2691 0.950 . S
C2700 C2699 1.398 . S
C2700 C2701 1.391 . S
C2701 H2689 0.950 . S
C2701 C2697 1.393 . S
C2701 C2700 1.391 . S
C2702 H2692 0.950 . S
C2702 C2703 1.386 . S
C2702 C2704 1.391 . S
C2703 C2702 1.386 . S
C2703 C2707 1.393 . S
C2704 H2693 0.950 . S
C2704 C2702 1.391 . S
C2704 C2705 1.400 . S
C2705 C2699 1.491 . S
C2705 C2704 1.400 . S
C2705 C2706 1.398 . S
C2706 H2694 0.950 . S
C2706 C2705 1.398 . S
C2706 C2707 1.391 . S
C2707 H2695 0.950 . S
C2707 C2703 1.393 . S
C2707 C2706 1.391 . S
H2708 C2716 0.950 . S
H2709 C2721 0.950 . S
H2710 C2718 0.950 . S
H2711 C2720 0.950 . S
H2712 C2722 0.950 . S
H2713 C2724 0.950 . S
H2714 C2726 0.950 . S
H2715 C2727 0.950 . S
C2716 H2708 0.950 . S
C2716 C2717 1.386 . S
C2716 C2718 1.391 . S
C2717 C2716 1.386 . S
C2717 C2721 1.393 . S
C2718 H2710 0.950 . S
C2718 C2716 1.391 . S
C2718 C2719 1.400 . S
C2719 C2718 1.400 . S
C2719 C2720 1.398 . S
C2719 C2725 1.491 . S
C2720 H2711 0.950 . S
C2720 C2719 1.398 . S
C2720 C2721 1.391 . S
C2721 H2709 0.950 . S
C2721 C2717 1.393 . S
C2721 C2720 1.391 . S
C2722 H2712 0.950 . S
C2722 C2723 1.386 . S
C2722 C2724 1.391 . S
C2723 C2722 1.386 . S
C2723 C2727 1.393 . S
C2724 H2713 0.950 . S
C2724 C2722 1.391 . S
C2724 C2725 1.400 . S
C2725 C2719 1.491 . S
C2725 C2724 1.400 . S
C2725 C2726 1.398 . S
C2726 H2714 0.950 . S
C2726 C2725 1.398 . S
C2726 C2727 1.391 . S
C2727 H2715 0.950 . S
C2727 C2723 1.393 . S
C2727 C2726 1.391 . S
H2728 C2736 0.950 . S
H2729 C2741 0.950 . S
H2730 C2738 0.950 . S
H2731 C2740 0.950 . S
H2732 C2742 0.950 . S
H2733 C2744 0.950 . S
H2734 C2746 0.950 . S
H2735 C2747 0.950 . S
C2736 H2728 0.950 . S
C2736 C2737 1.386 . S
C2736 C2738 1.391 . S
C2737 C2736 1.386 . S
C2737 C2741 1.393 . S
C2738 H2730 0.950 . S
C2738 C2736 1.391 . S
C2738 C2739 1.400 . S
C2739 C2738 1.400 . S
C2739 C2740 1.398 . S
C2739 C2745 1.491 . S
C2740 H2731 0.950 . S
C2740 C2739 1.398 . S
C2740 C2741 1.391 . S
C2741 H2729 0.950 . S
C2741 C2737 1.393 . S
C2741 C2740 1.391 . S
C2742 H2732 0.950 . S
C2742 C2743 1.386 . S
C2742 C2744 1.391 . S
C2743 C2742 1.386 . S
C2743 C2747 1.393 . S
C2744 H2733 0.950 . S
C2744 C2742 1.391 . S
C2744 C2745 1.400 . S
C2745 C2739 1.491 . S
C2745 C2744 1.400 . S
C2745 C2746 1.398 . S
C2746 H2734 0.950 . S
C2746 C2745 1.398 . S
C2746 C2747 1.391 . S
C2747 H2735 0.950 . S
C2747 C2743 1.393 . S
C2747 C2746 1.391 . S
H2748 C2756 0.950 . S
H2749 C2761 0.950 . S
H2750 C2758 0.950 . S
H2751 C2760 0.950 . S
H2752 C2762 0.950 . S
H2753 C2764 0.950 . S
H2754 C2766 0.950 . S
H2755 C2767 0.950 . S
C2756 H2748 0.950 . S
C2756 C2757 1.386 . S
C2756 C2758 1.391 . S
C2757 C2756 1.386 . S
C2757 C2761 1.393 . S
C2758 H2750 0.950 . S
C2758 C2756 1.391 . S
C2758 C2759 1.400 . S
C2759 C2758 1.400 . S
C2759 C2760 1.398 . S
C2759 C2765 1.491 . S
C2760 H2751 0.950 . S
C2760 C2759 1.398 . S
C2760 C2761 1.391 . S
C2761 H2749 0.950 . S
C2761 C2757 1.393 . S
C2761 C2760 1.391 . S
C2762 H2752 0.950 . S
C2762 C2763 1.386 . S
C2762 C2764 1.391 . S
C2763 C2762 1.386 . S
C2763 C2767 1.393 . S
C2764 H2753 0.950 . S
C2764 C2762 1.391 . S
C2764 C2765 1.400 . S
C2765 C2759 1.491 . S
C2765 C2764 1.400 . S
C2765 C2766 1.398 . S
C2766 H2754 0.950 . S
C2766 C2765 1.398 . S
C2766 C2767 1.391 . S
C2767 H2755 0.950 . S
C2767 C2763 1.393 . S
C2767 C2766 1.391 . S
H2768 C2776 0.950 . S
H2769 C2781 0.950 . S
H2770 C2778 0.950 . S
H2771 C2780 0.950 . S
H2772 C2782 0.950 . S
H2773 C2784 0.950 . S
H2774 C2786 0.950 . S
H2775 C2787 0.950 . S
C2776 H2768 0.950 . S
C2776 C2777 1.386 . S
C2776 C2778 1.391 . S
C2777 C2776 1.386 . S
C2777 C2781 1.393 . S
C2778 H2770 0.950 . S
C2778 C2776 1.391 . S
C2778 C2779 1.400 . S
C2779 C2778 1.400 . S
C2779 C2780 1.398 . S
C2779 C2785 1.491 . S
C2780 H2771 0.950 . S
C2780 C2779 1.398 . S
C2780 C2781 1.391 . S
C2781 H2769 0.950 . S
C2781 C2777 1.393 . S
C2781 C2780 1.391 . S
C2782 H2772 0.950 . S
C2782 C2783 1.386 . S
C2782 C2784 1.391 . S
C2783 C2782 1.386 . S
C2783 C2787 1.393 . S
C2784 H2773 0.950 . S
C2784 C2782 1.391 . S
C2784 C2785 1.400 . S
C2785 C2779 1.491 . S
C2785 C2784 1.400 . S
C2785 C2786 1.398 . S
C2786 H2774 0.950 . S
C2786 C2785 1.398 . S
C2786 C2787 1.391 . S
C2787 H2775 0.950 . S
C2787 C2783 1.393 . S
C2787 C2786 1.391 . S
H2788 C2796 0.950 . S
H2789 C2801 0.950 . S
H2790 C2798 0.950 . S
H2791 C2800 0.950 . S
H2792 C2802 0.950 . S
H2793 C2804 0.950 . S
H2794 C2806 0.950 . S
H2795 C2807 0.950 . S
C2796 H2788 0.950 . S
C2796 C2797 1.386 . S
C2796 C2798 1.391 . S
C2797 C2796 1.386 . S
C2797 C2801 1.393 . S
C2798 H2790 0.950 . S
C2798 C2796 1.391 . S
C2798 C2799 1.400 . S
C2799 C2798 1.400 . S
C2799 C2800 1.398 . S
C2799 C2805 1.491 . S
C2800 H2791 0.950 . S
C2800 C2799 1.398 . S
C2800 C2801 1.391 . S
C2801 H2789 0.950 . S
C2801 C2797 1.393 . S
C2801 C2800 1.391 . S
C2802 H2792 0.950 . S
C2802 C2803 1.386 . S
C2802 C2804 1.391 . S
C2803 C2802 1.386 . S
C2803 C2807 1.393 . S
C2804 H2793 0.950 . S
C2804 C2802 1.391 . S
C2804 C2805 1.400 . S
C2805 C2799 1.491 . S
C2805 C2804 1.400 . S
C2805 C2806 1.398 . S
C2806 H2794 0.950 . S
C2806 C2805 1.398 . S
C2806 C2807 1.391 . S
C2807 H2795 0.950 . S
C2807 C2803 1.393 . S
C2807 C2806 1.391 . S
H2808 C2816 0.950 . S
H2809 C2821 0.950 . S
H2810 C2818 0.950 . S
H2811 C2820 0.950 . S
H2812 C2822 0.950 . S
H2813 C2824 0.950 . S
H2814 C2826 0.950 . S
H2815 C2827 0.950 . S
C2816 H2808 0.950 . S
C2816 C2817 1.386 . S
C2816 C2818 1.391 . S
C2817 C2816 1.386 . S
C2817 C2821 1.393 . S
C2818 H2810 0.950 . S
C2818 C2816 1.391 . S
C2818 C2819 1.400 . S
C2819 C2818 1.400 . S
C2819 C2820 1.398 . S
C2819 C2825 1.491 . S
C2820 H2811 0.950 . S
C2820 C2819 1.398 . S
C2820 C2821 1.391 . S
C2821 H2809 0.950 . S
C2821 C2817 1.393 . S
C2821 C2820 1.391 . S
C2822 H2812 0.950 . S
C2822 C2823 1.386 . S
C2822 C2824 1.391 . S
C2823 C2822 1.386 . S
C2823 C2827 1.393 . S
C2824 H2813 0.950 . S
C2824 C2822 1.391 . S
C2824 C2825 1.400 . S
C2825 C2819 1.491 . S
C2825 C2824 1.400 . S
C2825 C2826 1.398 . S
C2826 H2814 0.950 . S
C2826 C2825 1.398 . S
C2826 C2827 1.391 . S
C2827 H2815 0.950 . S
C2827 C2823 1.393 . S
C2827 C2826 1.391 . S
H2828 C2836 0.950 . S
H2829 C2841 0.950 . S
H2830 C2838 0.950 . S
H2831 C2840 0.950 . S
H2832 C2842 0.950 . S
H2833 C2844 0.950 . S
H2834 C2846 0.950 . S
H2835 C2847 0.950 . S
C2836 H2828 0.950 . S
C2836 C2837 1.386 . S
C2836 C2838 1.391 . S
C2837 C2836 1.386 . S
C2837 C2841 1.393 . S
C2838 H2830 0.950 . S
C2838 C2836 1.391 . S
C2838 C2839 1.400 . S
C2839 C2838 1.400 . S
C2839 C2840 1.398 . S
C2839 C2845 1.491 . S
C2840 H2831 0.950 . S
C2840 C2839 1.398 . S
C2840 C2841 1.391 . S
C2841 H2829 0.950 . S
C2841 C2837 1.393 . S
C2841 C2840 1.391 . S
C2842 H2832 0.950 . S
C2842 C2843 1.386 . S
C2842 C2844 1.391 . S
C2843 C2842 1.386 . S
C2843 C2847 1.393 . S
C2844 H2833 0.950 . S
C2844 C2842 1.391 . S
C2844 C2845 1.400 . S
C2845 C2839 1.491 . S
C2845 C2844 1.400 . S
C2845 C2846 1.398 . S
C2846 H2834 0.950 . S
C2846 C2845 1.398 . S
C2846 C2847 1.391 . S
C2847 H2835 0.950 . S
C2847 C2843 1.393 . S
C2847 C2846 1.391 . S
H2848 C2856 0.950 . S
H2849 C2861 0.950 . S
H2850 C2858 0.950 . S
H2851 C2860 0.950 . S
H2852 C2862 0.950 . S
H2853 C2864 0.950 . S
H2854 C2866 0.950 . S
H2855 C2867 0.950 . S
C2856 H2848 0.950 . S
C2856 C2857 1.386 . S
C2856 C2858 1.391 . S
C2857 C2856 1.386 . S
C2857 C2861 1.393 . S
C2858 H2850 0.950 . S
C2858 C2856 1.391 . S
C2858 C2859 1.400 . S
C2859 C2858 1.400 . S
C2859 C2860 1.398 . S
C2859 C2865 1.491 . S
C2860 H2851 0.950 . S
C2860 C2859 1.398 . S
C2860 C2861 1.391 . S
C2861 H2849 0.950 . S
C2861 C2857 1.393 . S
C2861 C2860 1.391 . S
C2862 H2852 0.950 . S
C2862 C2863 1.386 . S
C2862 C2864 1.391 . S
C2863 C2862 1.386 . S
C2863 C2867 1.393 . S
C2864 H2853 0.950 . S
C2864 C2862 1.391 . S
C2864 C2865 1.400 . S
C2865 C2859 1.491 . S
C2865 C2864 1.400 . S
C2865 C2866 1.398 . S
C2866 H2854 0.950 . S
C2866 C2865 1.398 . S
C2866 C2867 1.391 . S
C2867 H2855 0.950 . S
C2867 C2863 1.393 . S
C2867 C2866 1.391 . S
H2868 C2876 0.950 . S
H2869 C2881 0.950 . S
H2870 C2878 0.950 . S
H2871 C2880 0.950 . S
H2872 C2882 0.950 . S
H2873 C2884 0.950 . S
H2874 C2886 0.950 . S
H2875 C2887 0.950 . S
C2876 H2868 0.950 . S
C2876 C2877 1.386 . S
C2876 C2878 1.391 . S
C2877 C2876 1.386 . S
C2877 C2881 1.393 . S
C2878 H2870 0.950 . S
C2878 C2876 1.391 . S
C2878 C2879 1.400 . S
C2879 C2878 1.400 . S
C2879 C2880 1.398 . S
C2879 C2885 1.491 . S
C2880 H2871 0.950 . S
C2880 C2879 1.398 . S
C2880 C2881 1.391 . S
C2881 H2869 0.950 . S
C2881 C2877 1.393 . S
C2881 C2880 1.391 . S
C2882 H2872 0.950 . S
C2882 C2883 1.386 . S
C2882 C2884 1.391 . S
C2883 C2882 1.386 . S
C2883 C2887 1.393 . S
C2884 H2873 0.950 . S
C2884 C2882 1.391 . S
C2884 C2885 1.400 . S
C2885 C2879 1.491 . S
C2885 C2884 1.400 . S
C2885 C2886 1.398 . S
C2886 H2874 0.950 . S
C2886 C2885 1.398 . S
C2886 C2887 1.391 . S
C2887 H2875 0.950 . S
C2887 C2883 1.393 . S
C2887 C2886 1.391 . S
H2888 C2896 0.950 . S
H2889 C2901 0.950 . S
H2890 C2898 0.950 . S
H2891 C2900 0.950 . S
H2892 C2902 0.950 . S
H2893 C2904 0.950 . S
H2894 C2906 0.950 . S
H2895 C2907 0.950 . S
C2896 H2888 0.950 . S
C2896 C2897 1.386 . S
C2896 C2898 1.391 . S
C2897 C2896 1.386 . S
C2897 C2901 1.393 . S
C2898 H2890 0.950 . S
C2898 C2896 1.391 . S
C2898 C2899 1.400 . S
C2899 C2898 1.400 . S
C2899 C2900 1.398 . S
C2899 C2905 1.491 . S
C2900 H2891 0.950 . S
C2900 C2899 1.398 . S
C2900 C2901 1.391 . S
C2901 H2889 0.950 . S
C2901 C2897 1.393 . S
C2901 C2900 1.391 . S
C2902 H2892 0.950 . S
C2902 C2903 1.386 . S
C2902 C2904 1.391 . S
C2903 C2902 1.386 . S
C2903 C2907 1.393 . S
C2904 H2893 0.950 . S
C2904 C2902 1.391 . S
C2904 C2905 1.400 . S
C2905 C2899 1.491 . S
C2905 C2904 1.400 . S
C2905 C2906 1.398 . S
C2906 H2894 0.950 . S
C2906 C2905 1.398 . S
C2906 C2907 1.391 . S
C2907 H2895 0.950 . S
C2907 C2903 1.393 . S
C2907 C2906 1.391 . S
H2908 C2916 0.950 . S
H2909 C2921 0.950 . S
H2910 C2918 0.950 . S
H2911 C2920 0.950 . S
H2912 C2922 0.950 . S
H2913 C2924 0.950 . S
H2914 C2926 0.950 . S
H2915 C2927 0.950 . S
C2916 H2908 0.950 . S
C2916 C2917 1.386 . S
C2916 C2918 1.391 . S
C2917 C2916 1.386 . S
C2917 C2921 1.393 . S
C2918 H2910 0.950 . S
C2918 C2916 1.391 . S
C2918 C2919 1.400 . S
C2919 C2918 1.400 . S
C2919 C2920 1.398 . S
C2919 C2925 1.491 . S
C2920 H2911 0.950 . S
C2920 C2919 1.398 . S
C2920 C2921 1.391 . S
C2921 H2909 0.950 . S
C2921 C2917 1.393 . S
C2921 C2920 1.391 . S
C2922 H2912 0.950 . S
C2922 C2923 1.386 . S
C2922 C2924 1.391 . S
C2923 C2922 1.386 . S
C2923 C2927 1.393 . S
C2924 H2913 0.950 . S
C2924 C2922 1.391 . S
C2924 C2925 1.400 . S
C2925 C2919 1.491 . S
C2925 C2924 1.400 . S
C2925 C2926 1.398 . S
C2926 H2914 0.950 . S
C2926 C2925 1.398 . S
C2926 C2927 1.391 . S
C2927 H2915 0.950 . S
C2927 C2923 1.393 . S
C2927 C2926 1.391 . S
H2928 C2936 0.950 . S
H2929 C2941 0.950 . S
H2930 C2938 0.950 . S
H2931 C2940 0.950 . S
H2932 C2942 0.950 . S
H2933 C2944 0.950 . S
H2934 C2946 0.950 . S
H2935 C2947 0.950 . S
C2936 H2928 0.950 . S
C2936 C2937 1.386 . S
C2936 C2938 1.391 . S
C2937 C2936 1.386 . S
C2937 C2941 1.393 . S
C2938 H2930 0.950 . S
C2938 C2936 1.391 . S
C2938 C2939 1.400 . S
C2939 C2938 1.400 . S
C2939 C2940 1.398 . S
C2939 C2945 1.491 . S
C2940 H2931 0.950 . S
C2940 C2939 1.398 . S
C2940 C2941 1.391 . S
C2941 H2929 0.950 . S
C2941 C2937 1.393 . S
C2941 C2940 1.391 . S
C2942 H2932 0.950 . S
C2942 C2943 1.386 . S
C2942 C2944 1.391 . S
C2943 C2942 1.386 . S
C2943 C2947 1.393 . S
C2944 H2933 0.950 . S
C2944 C2942 1.391 . S
C2944 C2945 1.400 . S
C2945 C2939 1.491 . S
C2945 C2944 1.400 . S
C2945 C2946 1.398 . S
C2946 H2934 0.950 . S
C2946 C2945 1.398 . S
C2946 C2947 1.391 . S
C2947 H2935 0.950 . S
C2947 C2943 1.393 . S
C2947 C2946 1.391 . S
H2948 C2956 0.950 . S
H2949 C2961 0.950 . S
H2950 C2958 0.950 . S
H2951 C2960 0.950 . S
H2952 C2962 0.950 . S
H2953 C2964 0.950 . S
H2954 C2966 0.950 . S
H2955 C2967 0.950 . S
C2956 H2948 0.950 . S
C2956 C2957 1.386 . S
C2956 C2958 1.391 . S
C2957 C2956 1.386 . S
C2957 C2961 1.393 . S
C2958 H2950 0.950 . S
C2958 C2956 1.391 . S
C2958 C2959 1.400 . S
C2959 C2958 1.400 . S
C2959 C2960 1.398 . S
C2959 C2965 1.491 . S
C2960 H2951 0.950 . S
C2960 C2959 1.398 . S
C2960 C2961 1.391 . S
C2961 H2949 0.950 . S
C2961 C2957 1.393 . S
C2961 C2960 1.391 . S
C2962 H2952 0.950 . S
C2962 C2963 1.386 . S
C2962 C2964 1.391 . S
C2963 C2962 1.386 . S
C2963 C2967 1.393 . S
C2964 H2953 0.950 . S
C2964 C2962 1.391 . S
C2964 C2965 1.400 . S
C2965 C2959 1.491 . S
C2965 C2964 1.400 . S
C2965 C2966 1.398 . S
C2966 H2954 0.950 . S
C2966 C2965 1.398 . S
C2966 C2967 1.391 . S
C2967 H2955 0.950 . S
C2967 C2963 1.393 . S
C2967 C2966 1.391 . S
H2968 C2976 0.950 . S
H2969 C2981 0.950 . S
H2970 C2978 0.950 . S
H2971 C2980 0.950 . S
H2972 C2982 0.950 . S
H2973 C2984 0.950 . S
H2974 C2986 0.950 . S
H2975 C2987 0.950 . S
C2976 H2968 0.950 . S
C2976 C2977 1.386 . S
C2976 C2978 1.391 . S
C2977 C2976 1.386 . S
C2977 C2981 1.393 . S
C2978 H2970 0.950 . S
C2978 C2976 1.391 . S
C2978 C2979 1.400 . S
C2979 C2978 1.400 . S
C2979 C2980 1.398 . S
C2979 C2985 1.491 . S
C2980 H2971 0.950 . S
C2980 C2979 1.398 . S
C2980 C2981 1.391 . S
C2981 H2969 0.950 . S
C2981 C2977 1.393 . S
C2981 C2980 1.391 . S
C2982 H2972 0.950 . S
C2982 C2983 1.386 . S
C2982 C2984 1.391 . S
C2983 C2982 1.386 . S
C2983 C2987 1.393 . S
C2984 H2973 0.950 . S
C2984 C2982 1.391 . S
C2984 C2985 1.400 . S
C2985 C2979 1.491 . S
C2985 C2984 1.400 . S
C2985 C2986 1.398 . S
C2986 H2974 0.950 . S
C2986 C2985 1.398 . S
C2986 C2987 1.391 . S
C2987 H2975 0.950 . S
C2987 C2983 1.393 . S
C2987 C2986 1.391 . S
H2988 C2996 0.950 . S
H2989 C3001 0.950 . S
H2990 C2998 0.950 . S
H2991 C3000 0.950 . S
H2992 C3002 0.950 . S
H2993 C3004 0.950 . S
H2994 C3006 0.950 . S
H2995 C3007 0.950 . S
C2996 H2988 0.950 . S
C2996 C2997 1.386 . S
C2996 C2998 1.391 . S
C2997 C2996 1.386 . S
C2997 C3001 1.393 . S
C2998 H2990 0.950 . S
C2998 C2996 1.391 . S
C2998 C2999 1.400 . S
C2999 C2998 1.400 . S
C2999 C3000 1.398 . S
C2999 C3005 1.491 . S
C3000 H2991 0.950 . S
C3000 C2999 1.398 . S
C3000 C3001 1.391 . S
C3001 H2989 0.950 . S
C3001 C2997 1.393 . S
C3001 C3000 1.391 . S
C3002 H2992 0.950 . S
C3002 C3003 1.386 . S
C3002 C3004 1.391 . S
C3003 C3002 1.386 . S
C3003 C3007 1.393 . S
C3004 H2993 0.950 . S
C3004 C3002 1.391 . S
C3004 C3005 1.400 . S
C3005 C2999 1.491 . S
C3005 C3004 1.400 . S
C3005 C3006 1.398 . S
C3006 H2994 0.950 . S
C3006 C3005 1.398 . S
C3006 C3007 1.391 . S
C3007 H2995 0.950 . S
C3007 C3003 1.393 . S
C3007 C3006 1.391 . S
H3008 C3016 0.950 . S
H3009 C3021 0.950 . S
H3010 C3018 0.950 . S
H3011 C3020 0.950 . S
H3012 C3022 0.950 . S
H3013 C3024 0.950 . S
H3014 C3026 0.950 . S
H3015 C3027 0.950 . S
C3016 H3008 0.950 . S
C3016 C3017 1.386 . S
C3016 C3018 1.391 . S
C3017 C3016 1.386 . S
C3017 C3021 1.393 . S
C3018 H3010 0.950 . S
C3018 C3016 1.391 . S
C3018 C3019 1.400 . S
C3019 C3018 1.400 . S
C3019 C3020 1.398 . S
C3019 C3025 1.491 . S
C3020 H3011 0.950 . S
C3020 C3019 1.398 . S
C3020 C3021 1.391 . S
C3021 H3009 0.950 . S
C3021 C3017 1.393 . S
C3021 C3020 1.391 . S
C3022 H3012 0.950 . S
C3022 C3023 1.386 . S
C3022 C3024 1.391 . S
C3023 C3022 1.386 . S
C3023 C3027 1.393 . S
C3024 H3013 0.950 . S
C3024 C3022 1.391 . S
C3024 C3025 1.400 . S
C3025 C3019 1.491 . S
C3025 C3024 1.400 . S
C3025 C3026 1.398 . S
C3026 H3014 0.950 . S
C3026 C3025 1.398 . S
C3026 C3027 1.391 . S
C3027 H3015 0.950 . S
C3027 C3023 1.393 . S
C3027 C3026 1.391 . S
H3028 C3036 0.950 . S
H3029 C3041 0.950 . S
H3030 C3038 0.950 . S
H3031 C3040 0.950 . S
H3032 C3042 0.950 . S
H3033 C3044 0.950 . S
H3034 C3046 0.950 . S
H3035 C3047 0.950 . S
C3036 H3028 0.950 . S
C3036 C3037 1.386 . S
C3036 C3038 1.391 . S
C3037 C3036 1.386 . S
C3037 C3041 1.393 . S
C3038 H3030 0.950 . S
C3038 C3036 1.391 . S
C3038 C3039 1.400 . S
C3039 C3038 1.400 . S
C3039 C3040 1.398 . S
C3039 C3045 1.491 . S
C3040 H3031 0.950 . S
C3040 C3039 1.398 . S
C3040 C3041 1.391 . S
C3041 H3029 0.950 . S
C3041 C3037 1.393 . S
C3041 C3040 1.391 . S
C3042 H3032 0.950 . S
C3042 C3043 1.386 . S
C3042 C3044 1.391 . S
C3043 C3042 1.386 . S
C3043 C3047 1.393 . S
C3044 H3033 0.950 . S
C3044 C3042 1.391 . S
C3044 C3045 1.400 . S
C3045 C3039 1.491 . S
C3045 C3044 1.400 . S
C3045 C3046 1.398 . S
C3046 H3034 0.950 . S
C3046 C3045 1.398 . S
C3046 C3047 1.391 . S
C3047 H3035 0.950 . S
C3047 C3043 1.393 . S
C3047 C3046 1.391 . S
H3048 C3056 0.950 . S
H3049 C3061 0.950 . S
H3050 C3058 0.950 . S
H3051 C3060 0.950 . S
H3052 C3062 0.950 . S
H3053 C3064 0.950 . S
H3054 C3066 0.950 . S
H3055 C3067 0.950 . S
C3056 H3048 0.950 . S
C3056 C3057 1.386 . S
C3056 C3058 1.391 . S
C3057 C3056 1.386 . S
C3057 C3061 1.393 . S
C3058 H3050 0.950 . S
C3058 C3056 1.391 . S
C3058 C3059 1.400 . S
C3059 C3058 1.400 . S
C3059 C3060 1.398 . S
C3059 C3065 1.491 . S
C3060 H3051 0.950 . S
C3060 C3059 1.398 . S
C3060 C3061 1.391 . S
C3061 H3049 0.950 . S
C3061 C3057 1.393 . S
C3061 C3060 1.391 . S
C3062 H3052 0.950 . S
C3062 C3063 1.386 . S
C3062 C3064 1.391 . S
C3063 C3062 1.386 . S
C3063 C3067 1.393 . S
C3064 H3053 0.950 . S
C3064 C3062 1.391 . S
C3064 C3065 1.400 . S
C3065 C3059 1.491 . S
C3065 C3064 1.400 . S
C3065 C3066 1.398 . S
C3066 H3054 0.950 . S
C3066 C3065 1.398 . S
C3066 C3067 1.391 . S
C3067 H3055 0.950 . S
C3067 C3063 1.393 . S
C3067 C3066 1.391 . S
H3068 C3076 0.950 . S
H3069 C3081 0.950 . S
H3070 C3078 0.950 . S
H3071 C3080 0.950 . S
H3072 C3082 0.950 . S
H3073 C3084 0.950 . S
H3074 C3086 0.950 . S
H3075 C3087 0.950 . S
C3076 H3068 0.950 . S
C3076 C3077 1.386 . S
C3076 C3078 1.391 . S
C3077 C3076 1.386 . S
C3077 C3081 1.393 . S
C3078 H3070 0.950 . S
C3078 C3076 1.391 . S
C3078 C3079 1.400 . S
C3079 C3078 1.400 . S
C3079 C3080 1.398 . S
C3079 C3085 1.491 . S
C3080 H3071 0.950 . S
C3080 C3079 1.398 . S
C3080 C3081 1.391 . S
C3081 H3069 0.950 . S
C3081 C3077 1.393 . S
C3081 C3080 1.391 . S
C3082 H3072 0.950 . S
C3082 C3083 1.386 . S
C3082 C3084 1.391 . S
C3083 C3082 1.386 . S
C3083 C3087 1.393 . S
C3084 H3073 0.950 . S
C3084 C3082 1.391 . S
C3084 C3085 1.400 . S
C3085 C3079 1.491 . S
C3085 C3084 1.400 . S
C3085 C3086 1.398 . S
C3086 H3074 0.950 . S
C3086 C3085 1.398 . S
C3086 C3087 1.391 . S
C3087 H3075 0.950 . S
C3087 C3083 1.393 . S
C3087 C3086 1.391 . S
H3088 C3096 0.950 . S
H3089 C3101 0.950 . S
H3090 C3098 0.950 . S
H3091 C3100 0.950 . S
H3092 C3102 0.950 . S
H3093 C3104 0.950 . S
H3094 C3106 0.950 . S
H3095 C3107 0.950 . S
C3096 H3088 0.950 . S
C3096 C3097 1.386 . S
C3096 C3098 1.391 . S
C3097 C3096 1.386 . S
C3097 C3101 1.393 . S
C3098 H3090 0.950 . S
C3098 C3096 1.391 . S
C3098 C3099 1.400 . S
C3099 C3098 1.400 . S
C3099 C3100 1.398 . S
C3099 C3105 1.491 . S
C3100 H3091 0.950 . S
C3100 C3099 1.398 . S
C3100 C3101 1.391 . S
C3101 H3089 0.950 . S
C3101 C3097 1.393 . S
C3101 C3100 1.391 . S
C3102 H3092 0.950 . S
C3102 C3103 1.386 . S
C3102 C3104 1.391 . S
C3103 C3102 1.386 . S
C3103 C3107 1.393 . S
C3104 H3093 0.950 . S
C3104 C3102 1.391 . S
C3104 C3105 1.400 . S
C3105 C3099 1.491 . S
C3105 C3104 1.400 . S
C3105 C3106 1.398 . S
C3106 H3094 0.950 . S
C3106 C3105 1.398 . S
C3106 C3107 1.391 . S
C3107 H3095 0.950 . S
C3107 C3103 1.393 . S
C3107 C3106 1.391 . S
H3108 C3116 0.950 . S
H3109 C3121 0.950 . S
H3110 C3118 0.950 . S
H3111 C3120 0.950 . S
H3112 C3122 0.950 . S
H3113 C3124 0.950 . S
H3114 C3126 0.950 . S
H3115 C3127 0.950 . S
C3116 H3108 0.950 . S
C3116 C3117 1.386 . S
C3116 C3118 1.391 . S
C3117 C3116 1.386 . S
C3117 C3121 1.393 . S
C3118 H3110 0.950 . S
C3118 C3116 1.391 . S
C3118 C3119 1.400 . S
C3119 C3118 1.400 . S
C3119 C3120 1.398 . S
C3119 C3125 1.491 . S
C3120 H3111 0.950 . S
C3120 C3119 1.398 . S
C3120 C3121 1.391 . S
C3121 H3109 0.950 . S
C3121 C3117 1.393 . S
C3121 C3120 1.391 . S
C3122 H3112 0.950 . S
C3122 C3123 1.386 . S
C3122 C3124 1.391 . S
C3123 C3122 1.386 . S
C3123 C3127 1.393 . S
C3124 H3113 0.950 . S
C3124 C3122 1.391 . S
C3124 C3125 1.400 . S
C3125 C3119 1.491 . S
C3125 C3124 1.400 . S
C3125 C3126 1.398 . S
C3126 H3114 0.950 . S
C3126 C3125 1.398 . S
C3126 C3127 1.391 . S
C3127 H3115 0.950 . S
C3127 C3123 1.393 . S
C3127 C3126 1.391 . S
H3128 C3136 0.950 . S
H3129 C3141 0.950 . S
H3130 C3138 0.950 . S
H3131 C3140 0.950 . S
H3132 C3142 0.950 . S
H3133 C3144 0.950 . S
H3134 C3146 0.950 . S
H3135 C3147 0.950 . S
C3136 H3128 0.950 . S
C3136 C3137 1.386 . S
C3136 C3138 1.391 . S
C3137 C3136 1.386 . S
C3137 C3141 1.393 . S
C3138 H3130 0.950 . S
C3138 C3136 1.391 . S
C3138 C3139 1.400 . S
C3139 C3138 1.400 . S
C3139 C3140 1.398 . S
C3139 C3145 1.491 . S
C3140 H3131 0.950 . S
C3140 C3139 1.398 . S
C3140 C3141 1.391 . S
C3141 H3129 0.950 . S
C3141 C3137 1.393 . S
C3141 C3140 1.391 . S
C3142 H3132 0.950 . S
C3142 C3143 1.386 . S
C3142 C3144 1.391 . S
C3143 C3142 1.386 . S
C3143 C3147 1.393 . S
C3144 H3133 0.950 . S
C3144 C3142 1.391 . S
C3144 C3145 1.400 . S
C3145 C3139 1.491 . S
C3145 C3144 1.400 . S
C3145 C3146 1.398 . S
C3146 H3134 0.950 . S
C3146 C3145 1.398 . S
C3146 C3147 1.391 . S
C3147 H3135 0.950 . S
C3147 C3143 1.393 . S
C3147 C3146 1.391 . S
H3148 C3156 0.950 . S
H3149 C3161 0.950 . S
H3150 C3158 0.950 . S
H3151 C3160 0.950 . S
H3152 C3162 0.950 . S
H3153 C3164 0.950 . S
H3154 C3166 0.950 . S
H3155 C3167 0.950 . S
C3156 H3148 0.950 . S
C3156 C3157 1.386 . S
C3156 C3158 1.391 . S
C3157 C3156 1.386 . S
C3157 C3161 1.393 . S
C3158 H3150 0.950 . S
C3158 C3156 1.391 . S
C3158 C3159 1.400 . S
C3159 C3158 1.400 . S
C3159 C3160 1.398 . S
C3159 C3165 1.491 . S
C3160 H3151 0.950 . S
C3160 C3159 1.398 . S
C3160 C3161 1.391 . S
C3161 H3149 0.950 . S
C3161 C3157 1.393 . S
C3161 C3160 1.391 . S
C3162 H3152 0.950 . S
C3162 C3163 1.386 . S
C3162 C3164 1.391 . S
C3163 C3162 1.386 . S
C3163 C3167 1.393 . S
C3164 H3153 0.950 . S
C3164 C3162 1.391 . S
C3164 C3165 1.400 . S
C3165 C3159 1.491 . S
C3165 C3164 1.400 . S
C3165 C3166 1.398 . S
C3166 H3154 0.950 . S
C3166 C3165 1.398 . S
C3166 C3167 1.391 . S
C3167 H3155 0.950 . S
C3167 C3163 1.393 . S
C3167 C3166 1.391 . S
C1897 C1763 1.705 . S
C1903 C52 1.703 . S
C1917 C111 1.707 . S
C1923 C1822 1.707 . S
C1937 C1881 1.705 . S
C1943 C170 1.701 . S
C1957 C1704 1.706 . S
C1963 C229 1.706 . S
C1977 C288 1.704 . S
C1983 C1645 1.710 . S
C1997 C1468 1.712 . S
C2003 C347 1.708 . S
C2017 C406 1.703 . S
C2023 C1527 1.710 . S
C2037 C1586 1.705 . S
C2043 C465 1.701 . S
C2057 C524 1.711 . S
C2063 C1291 1.709 . S
C2077 C583 1.712 . S
C2083 C1350 1.708 . S
C2097 C1409 1.704 . S
C2103 C642 1.705 . S
C2117 C701 1.705 . S
C2123 C1232 1.701 . S
C2137 C1173 1.705 . S
C2143 C760 1.710 . S
C2157 C996 1.709 . S
C2163 C819 1.709 . S
C2177 C878 1.712 . S
C2183 C1055 1.709 . S
C2197 C937 1.711 . S
C2203 C1114 1.709 . S
C2217 C33 1.509 . S
C2223 C593 1.481 . S
C2237 C652 1.474 . S
C2243 C92 1.511 . S
C2257 C475 1.489 . S
C2263 C151 1.501 . S
C2277 C534 1.475 . S
C2283 C210 1.507 . S
C2297 C269 1.502 . S
C2303 C829 1.491 . S
C2317 C888 1.491 . S
C2323 C328 1.502 . S
C2337 C711 1.488 . S
C2343 C387 1.505 . S
C2357 C770 1.485 . S
C2363 C446 1.507 . S
C2377 C977 1.511 . S
C2383 C1537 1.473 . S
C2397 C1596 1.475 . S
C2403 C1036 1.507 . S
C2417 C1419 1.491 . S
C2423 C1095 1.503 . S
C2437 C1154 1.503 . S
C2443 C1478 1.483 . S
C2457 C1213 1.511 . S
C2463 C1773 1.473 . S
C2477 C1832 1.482 . S
C2483 C1272 1.503 . S
C2497 C1655 1.486 . S
C2503 C1331 1.507 . S
C2517 C1390 1.502 . S
C2523 C1714 1.491 . S
C2537 C5 1.599 . S
C2543 C241 1.596 . S
C2557 C64 1.606 . S
C2563 C300 1.603 . S
C2577 C359 1.605 . S
C2583 C123 1.607 . S
C2597 C182 1.607 . S
C2603 C418 1.605 . S
C2617 C477 1.795 . S
C2623 C713 1.793 . S
C2637 C772 1.796 . S
C2643 C536 1.797 . S
C2657 C831 1.788 . S
C2663 C595 1.791 . S
C2677 C654 1.794 . S
C2683 C890 1.791 . S
C2697 C949 1.607 . S
C2703 C1185 1.605 . S
C2717 C1244 1.607 . S
C2723 C1008 1.605 . S
C2737 C1067 1.604 . S
C2743 C1303 1.607 . S
C2757 C1362 1.607 . S
C2763 C1126 1.605 . S
C2777 C1657 1.787 . S
C2783 C1421 1.788 . S
C2797 C1480 1.793 . S
C2803 C1716 1.795 . S
C2817 C1539 1.788 . S
C2823 C1775 1.787 . S
C2837 C1598 1.796 . S
C2843 C1834 1.797 . S
C2857 C3 1.019 . S
C2863 C298 0.999 . S
C2877 C62 1.024 . S
C2883 C357 1.019 . S
C2897 C416 1.014 . S
C2903 C121 0.996 . S
C2917 C239 0.997 . S
C2923 C180 1.004 . S
C2937 C800 1.880 . S
C2943 C505 1.881 . S
C2957 C859 1.874 . S
C2963 C564 1.875 . S
C2977 C918 1.875 . S
C2983 C623 1.873 . S
C2997 C682 1.874 . S
C3003 C741 1.876 . S
C3017 C947 0.997 . S
C3023 C1242 1.016 . S
C3037 C1301 0.998 . S
C3043 C1006 1.003 . S
C3057 C1360 1.017 . S
C3063 C1065 1.025 . S
C3077 C1124 1.000 . S
C3083 C1183 1.021 . S
C3097 C1744 1.879 . S
C3103 C1449 1.877 . S
C3117 C1508 1.873 . S
C3123 C1803 1.874 . S
C3137 C1567 1.873 . S
C3143 C1862 1.873 . S
C3157 C1685 1.881 . S
C3163 C1626 1.881 . S
