# Generated by pormake.
# Topology mer, (4)-cn, num edge types: 1
# Building blocks:
#     Node 0, Type 0, BuildingBlock: AZAVOO_clean_sbu_0, # of connection points: 4
#     Node 1, Type 0, BuildingBlock: AZAVOO_clean_sbu_0, # of connection points: 4
#     Node 2, Type 0, BuildingBlock: AZAVOO_clean_sbu_0, # of connection points: 4
#     Node 3, Type 0, BuildingBlock: AZAVOO_clean_sbu_0, # of connection points: 4
#     Node 4, Type 0, BuildingBlock: AZAVOO_clean_sbu_0, # of connection points: 4
#     Node 5, Type 0, BuildingBlock: AZAVOO_clean_sbu_0, # of connection points: 4
#     Node 6, Type 0, BuildingBlock: AZAVOO_clean_sbu_0, # of connection points: 4
#     Node 7, Type 0, BuildingBlock: AZAVOO_clean_sbu_0, # of connection points: 4
#     Node 8, Type 0, BuildingBlock: AZAVOO_clean_sbu_0, # of connection points: 4
#     Node 9, Type 0, BuildingBlock: AZAVOO_clean_sbu_0, # of connection points: 4
#     Node 10, Type 0, BuildingBlock: AZAVOO_clean_sbu_0, # of connection points: 4
#     Node 11, Type 0, BuildingBlock: AZAVOO_clean_sbu_0, # of connection points: 4
#     Node 12, Type 0, BuildingBlock: AZAVOO_clean_sbu_0, # of connection points: 4
#     Node 13, Type 0, BuildingBlock: AZAVOO_clean_sbu_0, # of connection points: 4
#     Node 14, Type 0, BuildingBlock: AZAVOO_clean_sbu_0, # of connection points: 4
#     Node 15, Type 0, BuildingBlock: AZAVOO_clean_sbu_0, # of connection points: 4
#     Node 16, Type 0, BuildingBlock: AZAVOO_clean_sbu_0, # of connection points: 4
#     Node 17, Type 0, BuildingBlock: AZAVOO_clean_sbu_0, # of connection points: 4
#     Node 18, Type 0, BuildingBlock: AZAVOO_clean_sbu_0, # of connection points: 4
#     Node 19, Type 0, BuildingBlock: AZAVOO_clean_sbu_0, # of connection points: 4
#     Node 20, Type 0, BuildingBlock: AZAVOO_clean_sbu_0, # of connection points: 4
#     Node 21, Type 0, BuildingBlock: AZAVOO_clean_sbu_0, # of connection points: 4
#     Node 22, Type 0, BuildingBlock: AZAVOO_clean_sbu_0, # of connection points: 4
#     Node 23, Type 0, BuildingBlock: AZAVOO_clean_sbu_0, # of connection points: 4
#     Node 24, Type 0, BuildingBlock: AZAVOO_clean_sbu_0, # of connection points: 4
#     Node 25, Type 0, BuildingBlock: AZAVOO_clean_sbu_0, # of connection points: 4
#     Node 26, Type 0, BuildingBlock: AZAVOO_clean_sbu_0, # of connection points: 4
#     Node 27, Type 0, BuildingBlock: AZAVOO_clean_sbu_0, # of connection points: 4
#     Node 28, Type 0, BuildingBlock: AZAVOO_clean_sbu_0, # of connection points: 4
#     Node 29, Type 0, BuildingBlock: AZAVOO_clean_sbu_0, # of connection points: 4
#     Node 30, Type 0, BuildingBlock: AZAVOO_clean_sbu_0, # of connection points: 4
#     Node 31, Type 0, BuildingBlock: AZAVOO_clean_sbu_0, # of connection points: 4
#     Edge 32, Type (0, 0), BuildingBlock: EZIPEK_clean_linker_0, # of connection points: 2
#     Edge 33, Type (0, 0), BuildingBlock: EZIPEK_clean_linker_0, # of connection points: 2
#     Edge 34, Type (0, 0), BuildingBlock: EZIPEK_clean_linker_0, # of connection points: 2
#     Edge 35, Type (0, 0), BuildingBlock: EZIPEK_clean_linker_0, # of connection points: 2
#     Edge 36, Type (0, 0), BuildingBlock: EZIPEK_clean_linker_0, # of connection points: 2
#     Edge 37, Type (0, 0), BuildingBlock: EZIPEK_clean_linker_0, # of connection points: 2
#     Edge 38, Type (0, 0), BuildingBlock: EZIPEK_clean_linker_0, # of connection points: 2
#     Edge 39, Type (0, 0), BuildingBlock: EZIPEK_clean_linker_0, # of connection points: 2
#     Edge 40, Type (0, 0), BuildingBlock: EZIPEK_clean_linker_0, # of connection points: 2
#     Edge 41, Type (0, 0), BuildingBlock: EZIPEK_clean_linker_0, # of connection points: 2
#     Edge 42, Type (0, 0), BuildingBlock: EZIPEK_clean_linker_0, # of connection points: 2
#     Edge 43, Type (0, 0), BuildingBlock: EZIPEK_clean_linker_0, # of connection points: 2
#     Edge 44, Type (0, 0), BuildingBlock: EZIPEK_clean_linker_0, # of connection points: 2
#     Edge 45, Type (0, 0), BuildingBlock: EZIPEK_clean_linker_0, # of connection points: 2
#     Edge 46, Type (0, 0), BuildingBlock: EZIPEK_clean_linker_0, # of connection points: 2
#     Edge 47, Type (0, 0), BuildingBlock: EZIPEK_clean_linker_0, # of connection points: 2
#     Edge 48, Type (0, 0), BuildingBlock: EZIPEK_clean_linker_0, # of connection points: 2
#     Edge 49, Type (0, 0), BuildingBlock: EZIPEK_clean_linker_0, # of connection points: 2
#     Edge 50, Type (0, 0), BuildingBlock: EZIPEK_clean_linker_0, # of connection points: 2
#     Edge 51, Type (0, 0), BuildingBlock: EZIPEK_clean_linker_0, # of connection points: 2
#     Edge 52, Type (0, 0), BuildingBlock: EZIPEK_clean_linker_0, # of connection points: 2
#     Edge 53, Type (0, 0), BuildingBlock: EZIPEK_clean_linker_0, # of connection points: 2
#     Edge 54, Type (0, 0), BuildingBlock: EZIPEK_clean_linker_0, # of connection points: 2
#     Edge 55, Type (0, 0), BuildingBlock: EZIPEK_clean_linker_0, # of connection points: 2
#     Edge 56, Type (0, 0), BuildingBlock: EZIPEK_clean_linker_0, # of connection points: 2
#     Edge 57, Type (0, 0), BuildingBlock: EZIPEK_clean_linker_0, # of connection points: 2
#     Edge 58, Type (0, 0), BuildingBlock: EZIPEK_clean_linker_0, # of connection points: 2
#     Edge 59, Type (0, 0), BuildingBlock: EZIPEK_clean_linker_0, # of connection points: 2
#     Edge 60, Type (0, 0), BuildingBlock: EZIPEK_clean_linker_0, # of connection points: 2
#     Edge 61, Type (0, 0), BuildingBlock: EZIPEK_clean_linker_0, # of connection points: 2
#     Edge 62, Type (0, 0), BuildingBlock: EZIPEK_clean_linker_0, # of connection points: 2
#     Edge 63, Type (0, 0), BuildingBlock: EZIPEK_clean_linker_0, # of connection points: 2
#     Edge 64, Type (0, 0), BuildingBlock: EZIPEK_clean_linker_0, # of connection points: 2
#     Edge 65, Type (0, 0), BuildingBlock: EZIPEK_clean_linker_0, # of connection points: 2
#     Edge 66, Type (0, 0), BuildingBlock: EZIPEK_clean_linker_0, # of connection points: 2
#     Edge 67, Type (0, 0), BuildingBlock: EZIPEK_clean_linker_0, # of connection points: 2
#     Edge 68, Type (0, 0), BuildingBlock: EZIPEK_clean_linker_0, # of connection points: 2
#     Edge 69, Type (0, 0), BuildingBlock: EZIPEK_clean_linker_0, # of connection points: 2
#     Edge 70, Type (0, 0), BuildingBlock: EZIPEK_clean_linker_0, # of connection points: 2
#     Edge 71, Type (0, 0), BuildingBlock: EZIPEK_clean_linker_0, # of connection points: 2
#     Edge 72, Type (0, 0), BuildingBlock: EZIPEK_clean_linker_0, # of connection points: 2
#     Edge 73, Type (0, 0), BuildingBlock: EZIPEK_clean_linker_0, # of connection points: 2
#     Edge 74, Type (0, 0), BuildingBlock: EZIPEK_clean_linker_0, # of connection points: 2
#     Edge 75, Type (0, 0), BuildingBlock: EZIPEK_clean_linker_0, # of connection points: 2
#     Edge 76, Type (0, 0), BuildingBlock: EZIPEK_clean_linker_0, # of connection points: 2
#     Edge 77, Type (0, 0), BuildingBlock: EZIPEK_clean_linker_0, # of connection points: 2
#     Edge 78, Type (0, 0), BuildingBlock: EZIPEK_clean_linker_0, # of connection points: 2
#     Edge 79, Type (0, 0), BuildingBlock: EZIPEK_clean_linker_0, # of connection points: 2
#     Edge 80, Type (0, 0), BuildingBlock: EZIPEK_clean_linker_0, # of connection points: 2
#     Edge 81, Type (0, 0), BuildingBlock: EZIPEK_clean_linker_0, # of connection points: 2
#     Edge 82, Type (0, 0), BuildingBlock: EZIPEK_clean_linker_0, # of connection points: 2
#     Edge 83, Type (0, 0), BuildingBlock: EZIPEK_clean_linker_0, # of connection points: 2
#     Edge 84, Type (0, 0), BuildingBlock: EZIPEK_clean_linker_0, # of connection points: 2
#     Edge 85, Type (0, 0), BuildingBlock: EZIPEK_clean_linker_0, # of connection points: 2
#     Edge 86, Type (0, 0), BuildingBlock: EZIPEK_clean_linker_0, # of connection points: 2
#     Edge 87, Type (0, 0), BuildingBlock: EZIPEK_clean_linker_0, # of connection points: 2
#     Edge 88, Type (0, 0), BuildingBlock: EZIPEK_clean_linker_0, # of connection points: 2
#     Edge 89, Type (0, 0), BuildingBlock: EZIPEK_clean_linker_0, # of connection points: 2
#     Edge 90, Type (0, 0), BuildingBlock: EZIPEK_clean_linker_0, # of connection points: 2
#     Edge 91, Type (0, 0), BuildingBlock: EZIPEK_clean_linker_0, # of connection points: 2
#     Edge 92, Type (0, 0), BuildingBlock: EZIPEK_clean_linker_0, # of connection points: 2
#     Edge 93, Type (0, 0), BuildingBlock: EZIPEK_clean_linker_0, # of connection points: 2
#     Edge 94, Type (0, 0), BuildingBlock: EZIPEK_clean_linker_0, # of connection points: 2
#     Edge 95, Type (0, 0), BuildingBlock: EZIPEK_clean_linker_0, # of connection points: 2
# Relax obj value: 0.176
# Max RMSD: 0.169
# Mean RMSD: 0.165
data_MOF--net-mer--node1-AZAVOO_clean_sbu_0--edge1-EZIPEK_clean_linker_0
_symmetry_space_group_name_H-M    P1
_symmetry_Int_Tables_number       1
_symmetry_cell_setting            triclinic
loop_
_symmetry_equiv_pos_as_xyz
'x, y, z'
_cell_length_a     51.404927
_cell_length_b     51.24586
_cell_length_c     29.950803
_cell_angle_alpha  90.034136
_cell_angle_beta   90.161823
_cell_angle_gamma 90.152403
loop_
_atom_site_label
_atom_site_type_symbol
_atom_site_fract_x
_atom_site_fract_y
_atom_site_fract_z
_atom_type_partial_charge
Mg0 Mg 0.09462 0.24457 0.27497 0.0
O1 O 0.09876 0.24593 0.35104 0.0
O2 O 0.14125 0.24322 0.36652 0.0
Mg3 Mg 0.16405 0.24013 0.30116 0.0
C4 C 0.11756 0.24478 0.37881 0.0
C5 C 0.03748 0.24191 0.25631 0.0
O6 O 0.04788 0.22482 0.22904 0.0
O7 O 0.10898 0.28662 0.26791 0.0
O8 O 0.15189 0.28116 0.27822 0.0
O9 O 0.09341 0.20097 0.27681 0.0
O10 O 0.12926 0.22451 0.26819 0.0
C11 C 0.13233 0.29534 0.26813 0.0
C12 C 0.1184 0.20205 0.27222 0.0
O13 O 0.05217 0.2556 0.28123 0.0
Mg14 Mg 0.70465 0.0856 0.37548 0.0
O15 O 0.74159 0.11075 0.36588 0.0
O16 O 0.7753 0.08809 0.39326 0.0
Mg17 Mg 0.75972 0.0506 0.42508 0.0
C18 C 0.7659 0.10807 0.37363 0.0
C19 C 0.66942 0.1286 0.33467 0.0
O20 O 0.66527 0.13281 0.37731 0.0
O21 O 0.71767 0.05838 0.32138 0.0
O22 O 0.74807 0.03439 0.35563 0.0
O23 O 0.69593 0.10322 0.44194 0.0
O24 O 0.72165 0.06966 0.43297 0.0
C25 C 0.73364 0.03951 0.32194 0.0
C26 C 0.71198 0.08678 0.4596 0.0
O27 O 0.68415 0.11006 0.32298 0.0
Mg28 Mg 0.90033 0.75026 0.2925 0.0
O29 O 0.89775 0.75198 0.36856 0.0
O30 O 0.85543 0.75082 0.38544 0.0
Mg31 Mg 0.83133 0.75187 0.32081 0.0
C32 C 0.87935 0.75172 0.39692 0.0
C33 C 0.95688 0.74844 0.26523 0.0
O34 O 0.94541 0.75803 0.22963 0.0
O35 O 0.8883 0.70735 0.29151 0.0
O36 O 0.84507 0.71122 0.2989 0.0
O37 O 0.89923 0.79382 0.28765 0.0
O38 O 0.86459 0.76817 0.28457 0.0
C39 C 0.86533 0.69772 0.29045 0.0
C40 C 0.87426 0.79128 0.28399 0.0
O41 O 0.94316 0.7413 0.29825 0.0
Mg42 Mg 0.2759 0.9097 0.38893 0.0
O43 O 0.23833 0.88532 0.38413 0.0
O44 O 0.2062 0.90643 0.41897 0.0
Mg45 Mg 0.22381 0.94193 0.45289 0.0
C46 C 0.21448 0.88748 0.39545 0.0
C47 C 0.31646 0.8803 0.32816 0.0
O48 O 0.33335 0.89214 0.35419 0.0
O49 O 0.25972 0.93887 0.34024 0.0
O50 O 0.23013 0.95872 0.38305 0.0
O51 O 0.28888 0.89111 0.4522 0.0
O52 O 0.2628 0.9247 0.44965 0.0
C53 C 0.24268 0.95648 0.34645 0.0
C54 C 0.27452 0.90759 0.47357 0.0
O55 O 0.29235 0.88461 0.33315 0.0
Mg56 Mg 0.10384 0.75986 0.72409 0.0
O57 O 0.10647 0.75719 0.64826 0.0
O58 O 0.14868 0.75837 0.63077 0.0
Mg59 Mg 0.1723 0.76493 0.69518 0.0
C60 C 0.12474 0.75677 0.61969 0.0
C61 C 0.04582 0.76176 0.73676 0.0
O62 O 0.0544 0.78115 0.76146 0.0
O63 O 0.11927 0.71817 0.73322 0.0
O64 O 0.16202 0.724 0.72278 0.0
O65 O 0.10081 0.80324 0.71906 0.0
O66 O 0.13795 0.78218 0.72824 0.0
C67 C 0.14266 0.70973 0.73388 0.0
C68 C 0.12584 0.80399 0.72316 0.0
O69 O 0.062 0.74661 0.71816 0.0
Mg70 Mg 0.27159 0.08676 0.61962 0.0
O71 O 0.2323 0.10676 0.62867 0.0
O72 O 0.20172 0.08372 0.59305 0.0
Mg73 Mg 0.22193 0.04948 0.55899 0.0
C74 C 0.20875 0.10303 0.61704 0.0
C75 C 0.31098 0.11368 0.6876 0.0
O76 O 0.32655 0.09491 0.67447 0.0
O77 O 0.26067 0.05383 0.66731 0.0
O78 O 0.233 0.03024 0.62538 0.0
O79 O 0.27868 0.10909 0.55759 0.0
O80 O 0.26003 0.07045 0.55781 0.0
C81 C 0.24649 0.03364 0.66076 0.0
C82 C 0.26876 0.08993 0.53502 0.0
O83 O 0.28758 0.11408 0.67382 0.0
Mg84 Mg 0.89593 0.22602 0.71811 0.0
O85 O 0.88761 0.229 0.64316 0.0
O86 O 0.84467 0.22344 0.63412 0.0
Mg87 Mg 0.82645 0.2144 0.70209 0.0
C88 C 0.86731 0.22816 0.61863 0.0
C89 C 0.95139 0.24212 0.7416 0.0
O90 O 0.94192 0.23542 0.78063 0.0
O91 O 0.8775 0.26624 0.72839 0.0
O92 O 0.83499 0.25672 0.72421 0.0
O93 O 0.90265 0.18289 0.71286 0.0
O94 O 0.86447 0.20081 0.72682 0.0
C95 C 0.85359 0.27282 0.73129 0.0
C96 C 0.87797 0.18007 0.71951 0.0
O97 O 0.93639 0.24262 0.70784 0.0
Mg98 Mg 0.72103 0.90308 0.60448 0.0
O99 O 0.75941 0.88258 0.62106 0.0
O100 O 0.79167 0.90458 0.58811 0.0
Mg101 Mg 0.77341 0.93634 0.5442 0.0
C102 C 0.78353 0.886 0.61283 0.0
C103 C 0.68624 0.8883 0.69099 0.0
O104 O 0.68137 0.9133 0.69552 0.0
O105 O 0.73177 0.93772 0.64854 0.0
O106 O 0.76108 0.95915 0.60675 0.0
O107 O 0.71546 0.8769 0.54647 0.0
O108 O 0.73616 0.91491 0.54354 0.0
C109 C 0.7467 0.95724 0.6413 0.0
C110 C 0.72889 0.89371 0.52393 0.0
O111 O 0.70101 0.88033 0.65995 0.0
Mg112 Mg 0.87728 0.76412 0.69329 0.0
O113 O 0.88635 0.76193 0.61772 0.0
O114 O 0.84759 0.76051 0.58341 0.0
Mg115 Mg 0.81487 0.763 0.63442 0.0
C116 C 0.87241 0.76047 0.58241 0.0
C117 C 0.93664 0.76998 0.69731 0.0
O118 O 0.93014 0.79117 0.67535 0.0
O119 O 0.86652 0.7211 0.69108 0.0
O120 O 0.82747 0.72228 0.6585 0.0
O121 O 0.87578 0.80787 0.69141 0.0
O122 O 0.84175 0.78218 0.68074 0.0
C123 C 0.84614 0.70965 0.67665 0.0
C124 C 0.85144 0.80533 0.6811 0.0
O125 O 0.91911 0.754 0.70919 0.0
Mg126 Mg 0.24591 0.89805 0.76963 0.0
O127 O 0.25359 0.9073 0.6948 0.0
O128 O 0.24634 0.86844 0.66222 0.0
Mg129 Mg 0.23259 0.83685 0.70989 0.0
C130 C 0.25293 0.8925 0.66027 0.0
C131 C 0.27017 0.95799 0.79326 0.0
O132 O 0.28417 0.9711 0.8224 0.0
O133 O 0.28428 0.87595 0.76942 0.0
O134 O 0.27395 0.83768 0.73876 0.0
O135 O 0.20264 0.90721 0.76405 0.0
O136 O 0.2206 0.86899 0.75149 0.0
C137 C 0.29055 0.85307 0.75675 0.0
C138 C 0.20009 0.88301 0.7523 0.0
O139 O 0.26697 0.93364 0.7991 0.0
Mg140 Mg 0.11582 0.22967 0.67519 0.0
O141 O 0.10989 0.23449 0.5994 0.0
O142 O 0.14965 0.23393 0.56917 0.0
Mg143 Mg 0.18017 0.2263 0.62343 0.0
C144 C 0.12497 0.23598 0.56574 0.0
C145 C 0.06305 0.23793 0.72272 0.0
O146 O 0.07652 0.22751 0.75545 0.0
O147 O 0.13091 0.27167 0.67943 0.0
O148 O 0.1712 0.26653 0.65295 0.0
O149 O 0.11404 0.1858 0.66942 0.0
O150 O 0.15025 0.20893 0.6658 0.0
C151 C 0.15356 0.2806 0.67078 0.0
C152 C 0.13896 0.1866 0.6636 0.0
O153 O 0.07397 0.24232 0.6855 0.0
Mg154 Mg 0.75786 0.09093 0.75127 0.0
O155 O 0.74556 0.08556 0.67644 0.0
O156 O 0.75965 0.1222 0.64328 0.0
Mg157 Mg 0.77976 0.14991 0.69077 0.0
C158 C 0.74823 0.10007 0.64182 0.0
C159 C 0.72707 0.03435 0.77299 0.0
O160 O 0.71129 0.02233 0.80062 0.0
O161 O 0.7245 0.11981 0.76168 0.0
O162 O 0.7412 0.1547 0.72703 0.0
O163 O 0.79974 0.07621 0.74174 0.0
O164 O 0.78665 0.11654 0.73263 0.0
C165 C 0.72335 0.14374 0.75006 0.0
C166 C 0.80527 0.10027 0.7326 0.0
O167 O 0.73239 0.05823 0.77988 0.0
Mg168 Mg 0.87217 0.2273 0.32186 0.0
O169 O 0.87603 0.23283 0.39772 0.0
O170 O 0.83615 0.2411 0.42404 0.0
Mg171 Mg 0.80683 0.23793 0.36678 0.0
C172 C 0.86058 0.23813 0.42974 0.0
C173 C 0.92624 0.23288 0.27646 0.0
O174 O 0.91167 0.22942 0.24083 0.0
O175 O 0.86606 0.27104 0.31292 0.0
O176 O 0.82503 0.27461 0.33675 0.0
O177 O 0.86577 0.18408 0.33039 0.0
O178 O 0.83409 0.21302 0.32978 0.0
C179 C 0.84561 0.28443 0.31986 0.0
C180 C 0.84122 0.18912 0.33427 0.0
O181 O 0.91579 0.23291 0.31484 0.0
Mg182 Mg 0.75529 0.89186 0.23498 0.0
O183 O 0.75298 0.88787 0.31076 0.0
O184 O 0.75198 0.84555 0.3289 0.0
Mg185 Mg 0.75661 0.82257 0.26415 0.0
C186 C 0.75123 0.86964 0.33959 0.0
C187 C 0.73956 0.95051 0.21329 0.0
O188 O 0.73985 0.944 0.17088 0.0
O189 O 0.7126 0.87974 0.23025 0.0
O190 O 0.71589 0.83711 0.24535 0.0
O191 O 0.79845 0.89247 0.23932 0.0
O192 O 0.77451 0.85664 0.23212 0.0
C193 C 0.70247 0.85716 0.23494 0.0
C194 C 0.79687 0.86726 0.23922 0.0
O195 O 0.74422 0.93374 0.2433 0.0
Mg196 Mg 0.12207 0.76475 0.32307 0.0
O197 O 0.11525 0.76297 0.39903 0.0
O198 O 0.15443 0.76775 0.43099 0.0
Mg199 Mg 0.18552 0.77289 0.37747 0.0
C200 C 0.12987 0.76435 0.43348 0.0
C201 C 0.06818 0.76029 0.27954 0.0
O202 O 0.0796 0.77713 0.25293 0.0
O203 O 0.13804 0.7233 0.32682 0.0
O204 O 0.17695 0.73073 0.35715 0.0
O205 O 0.11909 0.80859 0.32396 0.0
O206 O 0.15565 0.78642 0.33174 0.0
C207 C 0.1598 0.715 0.34175 0.0
C208 C 0.14384 0.8084 0.33211 0.0
O209 O 0.08084 0.7505 0.31186 0.0
Mg210 Mg 0.24005 0.1034 0.24423 0.0
O211 O 0.24366 0.1014 0.32091 0.0
O212 O 0.24283 0.14205 0.34792 0.0
Mg213 Mg 0.23542 0.16958 0.28877 0.0
C214 C 0.24471 0.11744 0.35346 0.0
C215 C 0.23708 0.0442 0.2278 0.0
O216 O 0.21628 0.05131 0.20542 0.0
O217 O 0.28159 0.11868 0.24144 0.0
O218 O 0.27646 0.16011 0.26283 0.0
O219 O 0.19683 0.10043 0.24779 0.0
O220 O 0.2191 0.13754 0.24862 0.0
C221 C 0.2907 0.14149 0.24841 0.0
C222 C 0.19712 0.12558 0.25122 0.0
O223 O 0.25301 0.06157 0.24104 0.0
Mg224 Mg 0.60319 0.74776 0.77844 0.0
O225 O 0.60725 0.75015 0.8544 0.0
O226 O 0.64969 0.74601 0.86961 0.0
Mg227 Mg 0.67199 0.73956 0.80446 0.0
C228 C 0.62617 0.74913 0.88195 0.0
C229 C 0.54728 0.7492 0.7557 0.0
O230 O 0.55808 0.73349 0.72653 0.0
O231 O 0.61987 0.7888 0.77087 0.0
O232 O 0.66245 0.7813 0.78073 0.0
O233 O 0.59833 0.70468 0.78229 0.0
O234 O 0.63621 0.72467 0.77312 0.0
C235 C 0.64357 0.79643 0.77084 0.0
C236 C 0.62331 0.7033 0.77822 0.0
O237 O 0.56165 0.76137 0.78331 0.0
Mg238 Mg 0.21772 0.58771 0.88563 0.0
O239 O 0.25623 0.60822 0.87012 0.0
O240 O 0.28831 0.58829 0.90705 0.0
Mg241 Mg 0.27032 0.55402 0.94584 0.0
C242 C 0.28013 0.60613 0.88082 0.0
C243 C 0.17532 0.61417 0.82108 0.0
O244 O 0.15911 0.5989 0.84265 0.0
O245 O 0.22897 0.55387 0.83939 0.0
O246 O 0.2595 0.53337 0.88005 0.0
O247 O 0.21277 0.61226 0.94738 0.0
O248 O 0.23238 0.57402 0.9475 0.0
C249 C 0.24502 0.53513 0.84546 0.0
C250 C 0.22543 0.59454 0.96913 0.0
O251 O 0.19955 0.61279 0.82953 0.0
Mg252 Mg 0.39582 0.2527 0.77702 0.0
O253 O 0.39136 0.24951 0.85227 0.0
O254 O 0.34988 0.25841 0.86842 0.0
Mg255 Mg 0.32891 0.26949 0.80329 0.0
C256 C 0.37294 0.25221 0.88015 0.0
C257 C 0.45356 0.21658 0.78737 0.0
O258 O 0.4522 0.19111 0.79199 0.0
O259 O 0.37297 0.21517 0.76576 0.0
O260 O 0.33162 0.22706 0.77693 0.0
O261 O 0.40671 0.29505 0.78386 0.0
O262 O 0.36664 0.2805 0.77297 0.0
C263 C 0.34865 0.21013 0.76588 0.0
C264 C 0.38214 0.29995 0.77922 0.0
O265 O 0.43275 0.22953 0.78365 0.0
Mg266 Mg 0.77926 0.38667 0.88759 0.0
O267 O 0.73646 0.37318 0.87965 0.0
O268 O 0.71153 0.39846 0.92343 0.0
Mg269 Mg 0.73755 0.42725 0.95983 0.0
C270 C 0.71431 0.37995 0.89536 0.0
C271 C 0.81143 0.36754 0.80348 0.0
O272 O 0.82158 0.39106 0.80573 0.0
O273 O 0.77043 0.42204 0.84379 0.0
O274 O 0.74679 0.44541 0.89212 0.0
O275 O 0.78581 0.36071 0.94687 0.0
O276 O 0.76953 0.40013 0.9504 0.0
C277 C 0.75763 0.44249 0.85412 0.0
C278 C 0.77537 0.37888 0.97071 0.0
O279 O 0.79305 0.36125 0.82965 0.0
Mg280 Mg 0.59712 0.2596 0.21106 0.0
O281 O 0.59511 0.25407 0.13554 0.0
O282 O 0.63584 0.25796 0.11052 0.0
Mg283 Mg 0.66304 0.26751 0.16868 0.0
C284 C 0.61163 0.2541 0.10398 0.0
C285 C 0.54311 0.2556 0.24637 0.0
O286 O 0.55479 0.27209 0.27342 0.0
O287 O 0.61521 0.21983 0.22225 0.0
O288 O 0.65639 0.22757 0.20153 0.0
O289 O 0.5918 0.30245 0.20313 0.0
O290 O 0.63008 0.28284 0.20737 0.0
C291 C 0.63895 0.21291 0.21881 0.0
C292 C 0.61693 0.30405 0.20382 0.0
O293 O 0.55616 0.24452 0.21597 0.0
Mg294 Mg 0.78758 0.60142 0.10886 0.0
O295 O 0.75122 0.62373 0.13203 0.0
O296 O 0.71669 0.60625 0.09733 0.0
Mg297 Mg 0.73043 0.57327 0.05257 0.0
C298 C 0.7268 0.6226 0.1244 0.0
C299 C 0.8233 0.61131 0.19636 0.0
O300 O 0.82371 0.58587 0.20142 0.0
O301 O 0.77672 0.5673 0.15358 0.0
O302 O 0.74233 0.55178 0.11603 0.0
O303 O 0.79178 0.62781 0.04951 0.0
O304 O 0.7693 0.59099 0.04872 0.0
C305 C 0.75825 0.55084 0.1488 0.0
C306 C 0.77694 0.61162 0.02814 0.0
O307 O 0.81103 0.62149 0.16382 0.0
Mg308 Mg 0.39559 0.74543 0.22871 0.0
O309 O 0.39325 0.74664 0.15233 0.0
O310 O 0.35183 0.73743 0.13506 0.0
Mg311 Mg 0.32914 0.72749 0.19861 0.0
C312 C 0.37497 0.74368 0.12389 0.0
C313 C 0.45414 0.78095 0.22659 0.0
O314 O 0.4543 0.80624 0.23379 0.0
O315 O 0.37267 0.78294 0.23496 0.0
O316 O 0.33153 0.76984 0.22431 0.0
O317 O 0.40622 0.7027 0.22797 0.0
O318 O 0.36623 0.7182 0.23168 0.0
C319 C 0.34829 0.78733 0.23454 0.0
C320 C 0.38141 0.69838 0.2298 0.0
O321 O 0.43276 0.76865 0.22755 0.0
Mg322 Mg 0.21276 0.402 0.09901 0.0
O323 O 0.24897 0.37755 0.11531 0.0
O324 O 0.28406 0.39887 0.09002 0.0
Mg325 Mg 0.27029 0.43448 0.05096 0.0
C326 C 0.27353 0.37986 0.11063 0.0
C327 C 0.17486 0.38465 0.17943 0.0
O328 O 0.17152 0.40971 0.18649 0.0
O329 O 0.22423 0.43171 0.15253 0.0
O330 O 0.25743 0.45106 0.11723 0.0
O331 O 0.20749 0.38233 0.03225 0.0
O332 O 0.23111 0.4178 0.04274 0.0
C333 C 0.24205 0.44907 0.15041 0.0
C334 C 0.22246 0.40026 0.01588 0.0
O335 O 0.18957 0.37696 0.148 0.0
Mg336 Mg 0.38059 0.26605 0.17547 0.0
O337 O 0.38444 0.25808 0.09995 0.0
O338 O 0.34418 0.24937 0.0751 0.0
Mg339 Mg 0.31528 0.25293 0.1321 0.0
C340 C 0.36856 0.25211 0.06861 0.0
C341 C 0.43201 0.25555 0.22368 0.0
O342 O 0.41533 0.25118 0.25597 0.0
O343 O 0.37534 0.22276 0.18733 0.0
O344 O 0.33445 0.21702 0.16372 0.0
O345 O 0.37395 0.30868 0.16395 0.0
O346 O 0.34266 0.27902 0.16647 0.0
C347 C 0.3555 0.20834 0.18087 0.0
C348 C 0.34951 0.30291 0.16039 0.0
O349 O 0.42382 0.26206 0.18523 0.0
Mg350 Mg 0.73627 0.39973 0.25452 0.0
O351 O 0.74655 0.38765 0.18264 0.0
O352 O 0.73397 0.34657 0.16998 0.0
Mg353 Mg 0.72368 0.33007 0.2384 0.0
C354 C 0.74375 0.36808 0.15653 0.0
C355 C 0.74374 0.45943 0.25782 0.0
O356 O 0.72412 0.45711 0.28553 0.0
O357 O 0.7748 0.38206 0.27487 0.0
O358 O 0.76536 0.34012 0.26093 0.0
O359 O 0.69486 0.40638 0.23443 0.0
O360 O 0.71043 0.36865 0.2586 0.0
C361 C 0.78121 0.35808 0.27296 0.0
C362 C 0.69155 0.38172 0.2415 0.0
O363 O 0.75461 0.43903 0.24268 0.0
Mg364 Mg 0.61277 0.73135 0.17547 0.0
O365 O 0.61391 0.73987 0.10027 0.0
O366 O 0.65469 0.75113 0.08241 0.0
Mg367 Mg 0.6801 0.74618 0.14467 0.0
C368 C 0.63091 0.74724 0.07193 0.0
C369 C 0.55714 0.73931 0.20948 0.0
O370 O 0.57013 0.73914 0.2473 0.0
O371 O 0.61662 0.77509 0.19033 0.0
O372 O 0.65871 0.781 0.17415 0.0
O373 O 0.62149 0.68887 0.16397 0.0
O374 O 0.65145 0.71928 0.17415 0.0
C375 C 0.63686 0.78948 0.188 0.0
C376 C 0.64585 0.69525 0.16612 0.0
O377 O 0.56903 0.73508 0.17318 0.0
Mg378 Mg 0.26489 0.59655 0.25801 0.0
O379 O 0.2559 0.5987 0.18284 0.0
O380 O 0.25838 0.64035 0.16153 0.0
Mg381 Mg 0.2716 0.66445 0.22181 0.0
C382 C 0.25385 0.61637 0.1531 0.0
C383 C 0.26217 0.53611 0.26554 0.0
O384 O 0.28553 0.53927 0.28255 0.0
O385 O 0.22544 0.61407 0.27451 0.0
O386 O 0.23322 0.65588 0.2571 0.0
O387 O 0.30775 0.59207 0.24437 0.0
O388 O 0.28775 0.62973 0.25465 0.0
C389 C 0.21862 0.63797 0.27292 0.0
C390 C 0.30879 0.6173 0.24615 0.0
O391 O 0.24821 0.55597 0.25769 0.0
Mg392 Mg 0.38542 0.72521 0.82969 0.0
O393 O 0.38812 0.7341 0.90468 0.0
O394 O 0.34752 0.74183 0.92814 0.0
Mg395 Mg 0.31914 0.73368 0.87075 0.0
C396 C 0.37195 0.74027 0.93517 0.0
C397 C 0.43729 0.73431 0.78236 0.0
O398 O 0.42171 0.73024 0.74819 0.0
O399 O 0.37652 0.76772 0.81539 0.0
O400 O 0.33475 0.76996 0.83583 0.0
O401 O 0.38192 0.68218 0.84287 0.0
O402 O 0.34857 0.70908 0.83786 0.0
C403 C 0.35518 0.78009 0.81899 0.0
C404 C 0.35702 0.68576 0.84451 0.0
O405 O 0.42825 0.7334 0.82173 0.0
Mg406 Mg 0.26847 0.3995 0.7278 0.0
O407 O 0.25631 0.40784 0.80069 0.0
O408 O 0.25893 0.36851 0.83368 0.0
Mg409 Mg 0.27504 0.33712 0.7877 0.0
C410 C 0.25339 0.39278 0.83442 0.0
C411 C 0.24445 0.46063 0.70328 0.0
O412 O 0.23425 0.47308 0.66919 0.0
O413 O 0.22968 0.37864 0.71737 0.0
O414 O 0.23691 0.33956 0.74854 0.0
O415 O 0.31161 0.40651 0.74203 0.0
O416 O 0.29154 0.36883 0.74888 0.0
C417 C 0.22269 0.35531 0.72633 0.0
C418 C 0.31266 0.38194 0.75197 0.0
O419 O 0.25069 0.4368 0.69821 0.0
Mg420 Mg 0.61391 0.27117 0.81271 0.0
O421 O 0.60591 0.2622 0.88614 0.0
O422 O 0.64234 0.26807 0.92547 0.0
Mg423 Mg 0.67425 0.27931 0.87729 0.0
C424 C 0.61833 0.26223 0.92287 0.0
C425 C 0.55975 0.25035 0.76963 0.0
O426 O 0.57033 0.2512 0.72978 0.0
O427 O 0.63437 0.23145 0.80201 0.0
O428 O 0.66955 0.24013 0.84351 0.0
O429 O 0.60859 0.31419 0.82535 0.0
O430 O 0.64633 0.29355 0.82771 0.0
C431 C 0.65667 0.225 0.81776 0.0
C432 C 0.63346 0.31469 0.83218 0.0
O433 O 0.57294 0.2565 0.80378 0.0
Mg434 Mg 0.73466 0.59614 0.74555 0.0
O435 O 0.7422 0.60553 0.81941 0.0
O436 O 0.74253 0.64883 0.82799 0.0
Mg437 Mg 0.72949 0.66679 0.76176 0.0
C438 C 0.74546 0.62584 0.84352 0.0
C439 C 0.73538 0.53619 0.75766 0.0
O440 O 0.71092 0.53904 0.74595 0.0
O441 O 0.77516 0.61127 0.72792 0.0
O442 O 0.76888 0.65438 0.73489 0.0
O443 O 0.69197 0.5934 0.75973 0.0
O444 O 0.71273 0.6295 0.73977 0.0
C445 C 0.78312 0.63482 0.72532 0.0
C446 C 0.69172 0.61833 0.75288 0.0
O447 O 0.7505 0.55579 0.7576 0.0
C448 C 0.16385 0.15469 0.21753 0.0
C449 C 0.17293 0.14068 0.25519 0.0
C450 C 0.14268 0.16392 0.30381 0.0
C451 C 0.13412 0.1784 0.26633 0.0
N452 N 0.131 0.18337 0.18653 0.0
N453 N 0.16667 0.12636 0.33083 0.0
C454 C 0.14292 0.17236 0.22278 0.0
C455 C 0.16082 0.14341 0.29734 0.0
N456 N 0.17575 0.1516 0.17709 0.0
N457 N 0.13441 0.17057 0.34559 0.0
H458 H 0.17938 0.11084 0.326 0.0
H459 H 0.15717 0.12597 0.36147 0.0
H460 H 0.12069 0.18515 0.35103 0.0
H461 H 0.14212 0.16275 0.37482 0.0
H462 H 0.17234 0.16361 0.14969 0.0
H463 H 0.19007 0.13761 0.17139 0.0
H464 H 0.13483 0.17799 0.15369 0.0
H465 H 0.11547 0.19633 0.1894 0.0
C466 C 0.78789 0.15018 0.39241 0.0
C467 C 0.78399 0.1295 0.36177 0.0
C468 C 0.81634 0.14887 0.31136 0.0
C469 C 0.82199 0.16814 0.34407 0.0
N470 N 0.81765 0.18294 0.41986 0.0
N471 N 0.79661 0.10688 0.29478 0.0
C472 C 0.80882 0.1678 0.38562 0.0
C473 C 0.79885 0.12818 0.32196 0.0
N474 N 0.77177 0.15286 0.42831 0.0
N475 N 0.82707 0.15076 0.26976 0.0
H476 H 0.78346 0.09184 0.30109 0.0
H477 H 0.80892 0.10325 0.26795 0.0
H478 H 0.84009 0.16551 0.2609 0.0
H479 H 0.82159 0.13896 0.24302 0.0
H480 H 0.77187 0.16922 0.44898 0.0
H481 H 0.75687 0.13967 0.43533 0.0
H482 H 0.81046 0.18204 0.4523 0.0
H483 H 0.83454 0.19386 0.41682 0.0
C484 C 0.84953 0.83173 0.30424 0.0
C485 C 0.85757 0.81346 0.27165 0.0
C486 C 0.82782 0.83237 0.21662 0.0
C487 C 0.81962 0.8507 0.24916 0.0
N488 N 0.82537 0.87103 0.32143 0.0
N489 N 0.85916 0.79951 0.19484 0.0
C490 C 0.83152 0.85156 0.29209 0.0
C491 C 0.84813 0.81474 0.2272 0.0
N492 N 0.85804 0.82917 0.3473 0.0
N493 N 0.81589 0.8316 0.17572 0.0
H494 H 0.87426 0.78646 0.20133 0.0
H495 H 0.85507 0.80127 0.16094 0.0
H496 H 0.80263 0.84566 0.16504 0.0
H497 H 0.81823 0.81645 0.15295 0.0
H498 H 0.85066 0.83977 0.37405 0.0
H499 H 0.87158 0.81513 0.35682 0.0
H500 H 0.8355 0.8745 0.35097 0.0
H501 H 0.81093 0.88481 0.3154 0.0
C502 C 0.15679 0.84084 0.39023 0.0
C503 C 0.15841 0.832 0.34556 0.0
C504 C 0.19415 0.86258 0.33181 0.0
C505 C 0.19525 0.86827 0.37827 0.0
N506 N 0.18013 0.85922 0.45306 0.0
N507 N 0.17989 0.83258 0.27415 0.0
C508 C 0.1771 0.8566 0.4079 0.0
C509 C 0.17749 0.84233 0.31643 0.0
N510 N 0.13592 0.83407 0.41581 0.0
N511 N 0.20797 0.87731 0.30206 0.0
H512 H 0.16692 0.81897 0.26069 0.0
H513 H 0.19557 0.8369 0.25344 0.0
H514 H 0.21942 0.8932 0.3115 0.0
H515 H 0.20594 0.87556 0.26757 0.0
H516 H 0.13248 0.84183 0.4474 0.0
H517 H 0.12064 0.82284 0.40336 0.0
H518 H 0.16896 0.84899 0.47618 0.0
H519 H 0.19556 0.86941 0.46758 0.0
C520 C 0.13869 0.84372 0.76677 0.0
C521 C 0.13994 0.82919 0.7264 0.0
C522 C 0.17228 0.8599 0.69727 0.0
C523 C 0.1749 0.87077 0.74046 0.0
N524 N 0.16003 0.87471 0.81623 0.0
N525 N 0.15627 0.82414 0.65164 0.0
C526 C 0.15743 0.86368 0.7749 0.0
C527 C 0.15606 0.83769 0.6909 0.0
N528 N 0.11995 0.8381 0.79764 0.0
N529 N 0.18531 0.87117 0.66258 0.0
H530 H 0.14346 0.8088 0.64528 0.0
H531 H 0.16963 0.82739 0.62619 0.0
H532 H 0.19636 0.88811 0.66695 0.0
H533 H 0.18322 0.86549 0.6294 0.0
H534 H 0.11629 0.84964 0.82552 0.0
H535 H 0.1066 0.82291 0.79384 0.0
H536 H 0.1504 0.86804 0.84455 0.0
H537 H 0.17276 0.89014 0.82265 0.0
C538 C 0.17829 0.13881 0.59507 0.0
C539 C 0.18921 0.12296 0.62908 0.0
C540 C 0.16592 0.14804 0.68618 0.0
C541 C 0.15411 0.16304 0.65191 0.0
N542 N 0.14462 0.16939 0.57404 0.0
N543 N 0.19049 0.10927 0.70601 0.0
C544 C 0.15893 0.15734 0.60641 0.0
C545 C 0.18217 0.12664 0.67444 0.0
N546 N 0.18738 0.13712 0.55226 0.0
N547 N 0.16214 0.15471 0.72989 0.0
H548 H 0.20247 0.09349 0.69846 0.0
H549 H 0.18397 0.10922 0.73887 0.0
H550 H 0.14953 0.16957 0.73967 0.0
H551 H 0.17251 0.14659 0.75632 0.0
H552 H 0.18235 0.15024 0.52716 0.0
H553 H 0.20172 0.12396 0.54248 0.0
H554 H 0.14528 0.16435 0.54038 0.0
H555 H 0.13016 0.18278 0.58173 0.0
C556 C 0.84222 0.11797 0.68791 0.0
C557 C 0.83193 0.11092 0.72995 0.0
C558 C 0.85731 0.14537 0.76635 0.0
C559 C 0.86594 0.15383 0.7238 0.0
N560 N 0.87478 0.14272 0.64722 0.0
N561 N 0.83568 0.11164 0.80975 0.0
C562 C 0.86122 0.13821 0.68551 0.0
C563 C 0.84184 0.12242 0.76943 0.0
N564 N 0.83269 0.10631 0.65027 0.0
N565 N 0.86321 0.15975 0.80351 0.0
H566 H 0.82436 0.09477 0.81222 0.0
H567 H 0.84359 0.11781 0.84001 0.0
H568 H 0.87582 0.17573 0.8028 0.0
H569 H 0.85494 0.15651 0.8347 0.0
H570 H 0.83701 0.11263 0.61808 0.0
H571 H 0.81952 0.09078 0.65178 0.0
H572 H 0.8736 0.13073 0.6192 0.0
H573 H 0.88903 0.15719 0.64502 0.0
C574 C 0.81631 0.83854 0.69303 0.0
C575 C 0.83587 0.8278 0.66533 0.0
C576 C 0.8211 0.85487 0.60291 0.0
C577 C 0.80259 0.86702 0.63137 0.0
N578 N 0.78714 0.87478 0.70631 0.0
N579 N 0.86072 0.82977 0.59736 0.0
C580 C 0.80146 0.86007 0.6773 0.0
C581 C 0.83955 0.83737 0.62146 0.0
N582 N 0.8118 0.82808 0.73427 0.0
N583 N 0.82019 0.85861 0.55772 0.0
H584 H 0.87439 0.81668 0.60968 0.0
H585 H 0.866 0.83828 0.56712 0.0
H586 H 0.80689 0.87077 0.54192 0.0
H587 H 0.83108 0.84767 0.53522 0.0
H588 H 0.79581 0.83302 0.7538 0.0
H589 H 0.82313 0.81317 0.7478 0.0
H590 H 0.78752 0.87215 0.74078 0.0
H591 H 0.77699 0.89142 0.69651 0.0
C592 C 0.64842 0.66603 0.81116 0.0
C593 C 0.63635 0.67787 0.77374 0.0
C594 C 0.65552 0.64547 0.72382 0.0
C595 C 0.66853 0.63442 0.76095 0.0
N596 N 0.67181 0.62862 0.84042 0.0
N597 N 0.62265 0.67547 0.69675 0.0
C598 C 0.66303 0.64283 0.80491 0.0
C599 C 0.63792 0.66636 0.73077 0.0
N600 N 0.64683 0.67758 0.85217 0.0
N601 N 0.66082 0.63655 0.68178 0.0
H602 H 0.6099 0.69112 0.70049 0.0
H603 H 0.621 0.66635 0.66581 0.0
H604 H 0.67236 0.62017 0.67597 0.0
H605 H 0.65469 0.64581 0.6527 0.0
H606 H 0.65764 0.67167 0.8798 0.0
H607 H 0.6356 0.69414 0.85787 0.0
H608 H 0.66624 0.63219 0.87325 0.0
H609 H 0.68291 0.61176 0.83661 0.0
C610 C 0.29678 0.65194 0.88617 0.0
C611 C 0.29865 0.62677 0.86682 0.0
C612 C 0.33861 0.64067 0.82878 0.0
C613 C 0.33862 0.66408 0.85429 0.0
N614 N 0.32235 0.68615 0.91924 0.0
N615 N 0.32314 0.59602 0.82275 0.0
C616 C 0.31897 0.66812 0.88633 0.0
C617 C 0.32025 0.62069 0.83923 0.0
N618 N 0.27407 0.66076 0.9041 0.0
N619 N 0.35511 0.63791 0.79343 0.0
H620 H 0.30939 0.58134 0.82785 0.0
H621 H 0.33989 0.58981 0.80644 0.0
H622 H 0.36834 0.65229 0.78389 0.0
H623 H 0.35402 0.62234 0.77112 0.0
H624 H 0.27198 0.67981 0.91584 0.0
H625 H 0.25666 0.65039 0.90248 0.0
H626 H 0.30921 0.6886 0.94537 0.0
H627 H 0.34017 0.69545 0.92367 0.0
C628 C 0.35429 0.33418 0.81443 0.0
C629 C 0.37164 0.3269 0.78003 0.0
C630 C 0.35647 0.36321 0.73361 0.0
C631 C 0.33693 0.36845 0.76578 0.0
N632 N 0.32169 0.36468 0.84107 0.0
N633 N 0.39548 0.33904 0.71414 0.0
C634 C 0.33745 0.3558 0.80782 0.0
C635 C 0.37497 0.34315 0.74218 0.0
N636 N 0.35377 0.31996 0.85292 0.0
N637 N 0.35607 0.37595 0.69354 0.0
H638 H 0.40905 0.32426 0.7193 0.0
H639 H 0.40045 0.35155 0.68816 0.0
H640 H 0.34337 0.39126 0.68668 0.0
H641 H 0.36751 0.37077 0.66636 0.0
H642 H 0.33989 0.32199 0.87787 0.0
H643 H 0.36771 0.30578 0.85963 0.0
H644 H 0.32159 0.35751 0.87354 0.0
H645 H 0.30988 0.38093 0.8365 0.0
C646 C 0.6634 0.35152 0.81722 0.0
C647 C 0.64756 0.3379 0.84798 0.0
C648 C 0.67439 0.35305 0.91024 0.0
C649 C 0.6906 0.36646 0.87942 0.0
N650 N 0.69657 0.38449 0.80573 0.0
N651 N 0.63311 0.33118 0.92312 0.0
C652 C 0.68386 0.36759 0.83347 0.0
C653 C 0.65138 0.34074 0.89442 0.0
N654 N 0.65949 0.34816 0.77242 0.0
N655 N 0.68181 0.35066 0.95393 0.0
H656 H 0.61606 0.32236 0.9116 0.0
H657 H 0.63354 0.33423 0.95748 0.0
H658 H 0.69894 0.35874 0.96665 0.0
H659 H 0.67216 0.33886 0.97685 0.0
H660 H 0.67241 0.35472 0.74815 0.0
H661 H 0.64366 0.3377 0.75969 0.0
H662 H 0.69101 0.38792 0.77281 0.0
H663 H 0.71127 0.39694 0.81692 0.0
C664 C 0.64659 0.33873 0.17449 0.0
C665 C 0.63037 0.32929 0.20908 0.0
C666 C 0.65024 0.35962 0.26242 0.0
C667 C 0.66741 0.36804 0.22848 0.0
N668 N 0.67769 0.37156 0.15039 0.0
N669 N 0.61193 0.33467 0.28258 0.0
C670 C 0.66408 0.35961 0.18373 0.0
C671 C 0.63045 0.34126 0.25185 0.0
N672 N 0.64578 0.3271 0.13343 0.0
N673 N 0.65374 0.36833 0.3052 0.0
H674 H 0.59762 0.32064 0.27679 0.0
H675 H 0.60935 0.34449 0.31266 0.0
H676 H 0.66707 0.38297 0.31345 0.0
H677 H 0.64433 0.36044 0.33281 0.0
H678 H 0.65913 0.33082 0.10814 0.0
H679 H 0.63206 0.31282 0.12521 0.0
H680 H 0.67501 0.36765 0.11659 0.0
H681 H 0.69016 0.38721 0.15654 0.0
C682 C 0.6906 0.63603 0.17542 0.0
C683 C 0.70949 0.64276 0.14291 0.0
C684 C 0.68453 0.681 0.12232 0.0
C685 C 0.66676 0.67605 0.15726 0.0
N686 N 0.65531 0.65103 0.22262 0.0
N687 N 0.7285 0.67605 0.09621 0.0
C688 C 0.67046 0.65415 0.18561 0.0
C689 C 0.70794 0.66685 0.1203 0.0
N690 N 0.69177 0.61229 0.19599 0.0
N691 N 0.67787 0.69736 0.08845 0.0
H692 H 0.74638 0.66651 0.09516 0.0
H693 H 0.72859 0.69452 0.08161 0.0
H694 H 0.65898 0.70428 0.08559 0.0
H695 H 0.68939 0.70033 0.0603 0.0
H696 H 0.677 0.60502 0.21624 0.0
H697 H 0.70716 0.59936 0.191 0.0
H698 H 0.65879 0.63684 0.24679 0.0
H699 H 0.64041 0.6639 0.23096 0.0
C700 C 0.34761 0.63496 0.2045 0.0
C701 C 0.33355 0.63193 0.24482 0.0
C702 C 0.35805 0.66754 0.27939 0.0
C703 C 0.37039 0.67215 0.23789 0.0
N704 N 0.38452 0.6552 0.16733 0.0
N705 N 0.33103 0.6389 0.32416 0.0
C706 C 0.36774 0.65407 0.20245 0.0
C707 C 0.34075 0.64613 0.28353 0.0
N708 N 0.34081 0.62064 0.16781 0.0
N709 N 0.36227 0.68428 0.31427 0.0
H710 H 0.31862 0.62291 0.32806 0.0
H711 H 0.33701 0.64704 0.35434 0.0
H712 H 0.3764 0.69894 0.31334 0.0
H713 H 0.35134 0.68425 0.34347 0.0
H714 H 0.34827 0.62404 0.13605 0.0
H715 H 0.32667 0.60602 0.16887 0.0
H716 H 0.38477 0.64159 0.14152 0.0
H717 H 0.40001 0.66838 0.16672 0.0
C718 C 0.30331 0.36071 0.16825 0.0
C719 C 0.29067 0.35876 0.12623 0.0
C720 C 0.31892 0.32272 0.10509 0.0
C721 C 0.33007 0.32293 0.14834 0.0
N722 N 0.33084 0.33976 0.22357 0.0
N723 N 0.28205 0.33428 0.05901 0.0
C724 C 0.32168 0.34128 0.18076 0.0
C725 C 0.29701 0.33851 0.0961 0.0
N726 N 0.29808 0.38136 0.19568 0.0
N727 N 0.33034 0.30876 0.07176 0.0
H728 H 0.26544 0.34518 0.05196 0.0
H729 H 0.28452 0.31827 0.03799 0.0
H730 H 0.34789 0.29918 0.07666 0.0
H731 H 0.32441 0.30954 0.0385 0.0
H732 H 0.30872 0.38555 0.22444 0.0
H733 H 0.28391 0.39525 0.18824 0.0
H734 H 0.32347 0.3508 0.24981 0.0
H735 H 0.34469 0.3261 0.23359 0.0
C736 C 0.96522 0.25591 0.24453 0.0
C737 C 0.95479 0.23592 0.27214 0.0
C738 C -0.00117 0.22332 0.29489 0.0
C739 C 0.00916 0.24132 0.26369 0.0
N740 N 0.0028 0.27259 0.2047 0.0
N741 N 0.96169 0.19734 0.31699 0.0
C742 C 0.99253 0.25701 0.23726 0.0
C743 C 0.97159 0.21882 0.29582 0.0
N744 N 0.94919 0.27452 0.22689 0.0
N745 N 0.01506 0.21058 0.32379 0.0
H746 H 0.94195 0.19264 0.31703 0.0
H747 H 0.97325 0.18273 0.33071 0.0
H748 H 0.03523 0.2129 0.32345 0.0
H749 H 0.00842 0.19946 0.35055 0.0
H750 H 0.95597 0.29101 0.21023 0.0
H751 H 0.92918 0.27484 0.23243 0.0
H752 H 0.99154 0.28212 0.18083 0.0
H753 H 0.02279 0.27458 0.19964 0.0
C754 C 0.71191 0.00076 0.28819 0.0
C755 C 0.73172 0.02004 0.28593 0.0
C756 C 0.75237 0.99718 0.22382 0.0
C757 C 0.73347 0.97716 0.22807 0.0
N758 N 0.69134 0.96327 0.25312 0.0
N759 N 0.76586 0.04102 0.24448 0.0
C760 C 0.71179 0.98026 0.25647 0.0
C761 C 0.75034 0.01973 0.25119 0.0
N762 N 0.69409 0.00128 0.32204 0.0
N763 N 0.77301 0.99387 0.19576 0.0
H764 H 0.76427 0.05779 0.26393 0.0
H765 H 0.77842 0.04302 0.21749 0.0
H766 H 0.77453 0.97799 0.17416 0.0
H767 H 0.7891 0.00624 0.19507 0.0
H768 H 0.68119 0.98609 0.32863 0.0
H769 H 0.69313 0.01632 0.34546 0.0
H770 H 0.6739 0.96552 0.27027 0.0
H771 H 0.69099 0.94819 0.22965 0.0
C772 C 0.02345 0.76904 0.30785 0.0
C773 C 0.03979 0.75636 0.27654 0.0
C774 C 0.00177 0.7363 0.24058 0.0
C775 C 0.9854 0.75051 0.26981 0.0
N776 N 0.98016 0.78436 0.32522 0.0
N777 N 0.04503 0.73059 0.20983 0.0
C778 C 0.99607 0.76783 0.30207 0.0
C779 C 0.02909 0.74079 0.24183 0.0
N780 N 0.03408 0.78244 0.34301 0.0
N781 N 0.99124 0.7179 0.21275 0.0
H782 H 0.06523 0.73257 0.21079 0.0
H783 H 0.03824 0.7216 0.18086 0.0
H784 H 0.97131 0.71409 0.21115 0.0
H785 H 0.00226 0.70498 0.19386 0.0
H786 H 0.02324 0.78913 0.37 0.0
H787 H 0.05401 0.78551 0.34694 0.0
H788 H 0.98699 0.7995 0.34529 0.0
H789 H 0.96 0.7847 0.32133 0.0
C790 C 0.23979 0.00383 0.33053 0.0
C791 C 0.24053 0.97797 0.31387 0.0
C792 C 0.23934 0.99524 0.23743 0.0
C793 C 0.2356 0.02051 0.25533 0.0
N794 N 0.22164 0.04617 0.31837 0.0
N795 N 0.23618 0.94864 0.25088 0.0
C796 C 0.23236 0.02393 0.30168 0.0
C797 C 0.23896 0.97342 0.26699 0.0
N798 N 0.2478 0.00974 0.37294 0.0
N799 N 0.24362 0.99217 0.19279 0.0
H800 H 0.23486 0.93237 0.27159 0.0
H801 H 0.23274 0.94451 0.21732 0.0
H802 H 0.24326 0.00785 0.17057 0.0
H803 H 0.24909 0.97448 0.17852 0.0
H804 H 0.24915 0.02892 0.38446 0.0
H805 H 0.25641 0.99618 0.39428 0.0
H806 H 0.21674 0.04786 0.35195 0.0
H807 H 0.21454 0.06104 0.29799 0.0
C808 C 0.00931 0.76414 0.68123 0.0
C809 C 0.01783 0.76021 0.72588 0.0
C810 C 0.97284 0.76218 0.75221 0.0
C811 C 0.96427 0.76469 0.7073 0.0
N812 N 0.97357 0.76127 0.62863 0.0
N813 N 0.0078 0.74972 0.80232 0.0
C814 C 0.98229 0.76354 0.67164 0.0
C815 C -0.00042 0.75738 0.76092 0.0
N816 N 0.02679 0.77003 0.64838 0.0
N817 N 0.9558 0.76581 0.78662 0.0
H818 H 0.02727 0.74587 0.80963 0.0
H819 H 0.99513 0.74478 0.82807 0.0
H820 H 0.93612 0.7698 0.78184 0.0
H821 H 0.96157 0.7671 0.81991 0.0
H822 H 0.02127 0.77601 0.6165 0.0
H823 H 0.04679 0.77133 0.65378 0.0
H824 H 0.98584 0.75768 0.60171 0.0
H825 H 0.95386 0.7603 0.62036 0.0
C826 C 0.23938 0.99101 0.76386 0.0
C827 C 0.25886 0.97219 0.75511 0.0
C828 C 0.26529 0.99023 0.68034 0.0
C829 C 0.24887 0.01148 0.69194 0.0
N830 N 0.21979 0.03245 0.74351 0.0
N831 N 0.2907 0.9533 0.70609 0.0
C832 C 0.23553 0.01184 0.73324 0.0
C833 C 0.27152 0.97126 0.71323 0.0
N834 N 0.22455 0.98864 0.80145 0.0
N835 N 0.27523 0.98844 0.63812 0.0
H836 H 0.29511 0.93858 0.7289 0.0
H837 H 0.30305 0.9535 0.67862 0.0
H838 H 0.27237 0.00263 0.61368 0.0
H839 H 0.2849 0.97208 0.6261 0.0
H840 H 0.20859 0.00037 0.8085 0.0
H841 H 0.2269 0.97323 0.82388 0.0
H842 H 0.21167 0.03544 0.77488 0.0
H843 H 0.2158 0.04743 0.72096 0.0
C844 C 0.0187 0.22105 0.70431 0.0
C845 C 0.03446 0.23986 0.72639 0.0
C846 C 0.99548 0.2619 0.75462 0.0
C847 C 0.97989 0.24205 0.73511 0.0
N848 N 0.97664 0.19997 0.69902 0.0
N849 N 0.03872 0.27646 0.77646 0.0
C850 C 0.99145 0.22096 0.71171 0.0
C851 C 0.02309 0.25979 0.75279 0.0
N852 N 0.02977 0.20308 0.67645 0.0
N853 N 0.98382 0.28309 0.77371 0.0
H854 H 0.05897 0.27614 0.77436 0.0
H855 H 0.03181 0.28956 0.80017 0.0
H856 H 0.96366 0.28509 0.77567 0.0
H857 H 0.9939 0.29955 0.78462 0.0
H858 H 0.01906 0.19127 0.65484 0.0
H859 H 0.0498 0.20095 0.67262 0.0
H860 H 0.98439 0.18266 0.68674 0.0
H861 H 0.95666 0.1987 0.70444 0.0
C862 C 0.72426 0.02071 0.69335 0.0
C863 C 0.73754 0.01963 0.73479 0.0
C864 C 0.75956 0.97934 0.71261 0.0
C865 C 0.74541 0.97974 0.67194 0.0
N866 N 0.71805 0.00244 0.61923 0.0
N867 N 0.77193 0.00245 0.78043 0.0
C868 C 0.72912 0.00114 0.66076 0.0
C869 C 0.75663 0.00036 0.74318 0.0
N870 N 0.70599 0.03965 0.68637 0.0
N871 N 0.77506 0.95846 0.72244 0.0
H872 H 0.77019 0.01796 0.80283 0.0
H873 H 0.78763 0.99031 0.78727 0.0
H874 H 0.77835 0.94328 0.69993 0.0
H875 H 0.78374 0.95544 0.75343 0.0
H876 H 0.69336 0.04013 0.65921 0.0
H877 H 0.70284 0.05484 0.70892 0.0
H878 H 0.7077 0.01844 0.60743 0.0
H879 H 0.72047 0.98803 0.59502 0.0
C880 C 0.50128 0.76147 0.73826 0.0
C881 C 0.51918 0.74681 0.76397 0.0
C882 C 0.4835 0.72205 0.79746 0.0
C883 C 0.46543 0.73849 0.77532 0.0
N884 N 0.45691 0.77664 0.73025 0.0
N885 N 0.52775 0.71583 0.82293 0.0
C886 C 0.47422 0.75894 0.74705 0.0
C887 C 0.5104 0.72802 0.79526 0.0
N888 N 0.51011 0.7775 0.70512 0.0
N889 N 0.47515 0.69982 0.81829 0.0
H890 H 0.54779 0.71887 0.8214 0.0
H891 H 0.52211 0.70428 0.84985 0.0
H892 H 0.4557 0.69398 0.81895 0.0
H893 H 0.48771 0.68569 0.83087 0.0
H894 H 0.49793 0.78635 0.68181 0.0
H895 H 0.52987 0.78052 0.69897 0.0
H896 H 0.46249 0.79341 0.71313 0.0
H897 H 0.43702 0.7759 0.73684 0.0
C898 C 0.232 0.47215 0.78172 0.0
C899 C 0.24907 0.47535 0.74504 0.0
C900 C 0.26403 0.51735 0.77486 0.0
C901 C 0.24693 0.51425 0.81152 0.0
N902 N 0.21903 0.48649 0.85559 0.0
N903 N 0.28586 0.49693 0.71214 0.0
C904 C 0.23239 0.49084 0.81689 0.0
C905 C 0.26661 0.49669 0.74352 0.0
N906 N 0.21437 0.45214 0.78163 0.0
N907 N 0.27716 0.54035 0.76928 0.0
H908 H 0.28829 0.48173 0.68931 0.0
H909 H 0.30079 0.51068 0.71142 0.0
H910 H 0.27587 0.55578 0.79186 0.0
H911 H 0.28784 0.54491 0.74085 0.0
H912 H 0.19912 0.45068 0.8043 0.0
H913 H 0.2142 0.43759 0.75727 0.0
H914 H 0.21048 0.46865 0.86356 0.0
H915 H 0.21812 0.50015 0.88138 0.0
C916 C 0.49808 0.22146 0.81856 0.0
C917 C 0.47931 0.22968 0.78702 0.0
C918 C 0.51246 0.257 0.75121 0.0
C919 C 0.53197 0.2436 0.77573 0.0
N920 N 0.54316 0.21089 0.8309 0.0
N921 N 0.4685 0.25624 0.72244 0.0
C922 C 0.52475 0.22541 0.8093 0.0
C923 C 0.48627 0.24805 0.75342 0.0
N924 N 0.49036 0.21054 0.85799 0.0
N925 N 0.51869 0.27886 0.72734 0.0
H926 H 0.44906 0.25064 0.72216 0.0
H927 H 0.47351 0.2673 0.69458 0.0
H928 H 0.53749 0.28649 0.72597 0.0
H929 H 0.50481 0.29103 0.71293 0.0
H930 H 0.50323 0.2065 0.88403 0.0
H931 H 0.47078 0.20853 0.86657 0.0
H932 H 0.53848 0.19585 0.85289 0.0
H933 H 0.56294 0.21185 0.82347 0.0
C934 C 0.74589 0.46397 0.78065 0.0
C935 C 0.75714 0.46532 0.82394 0.0
C936 C 0.7542 0.51279 0.82325 0.0
C937 C 0.74394 0.51178 0.77925 0.0
N938 N 0.73541 0.48709 0.7122 0.0
N939 N 0.78018 0.4909 0.87894 0.0
C940 C 0.74145 0.48754 0.75665 0.0
C941 C 0.76408 0.48976 0.84259 0.0
N942 N 0.73839 0.44047 0.76327 0.0
N943 N 0.75283 0.53518 0.84803 0.0
H944 H 0.78839 0.47425 0.89321 0.0
H945 H 0.78762 0.50836 0.89153 0.0
H946 H 0.744 0.55223 0.83674 0.0
H947 H 0.75778 0.53596 0.88177 0.0
H948 H 0.72712 0.43864 0.73448 0.0
H949 H 0.74229 0.42277 0.77887 0.0
H950 H 0.73581 0.47018 0.6929 0.0
H951 H 0.73226 0.50403 0.69368 0.0
C952 C 0.47289 0.23261 0.24748 0.0
C953 C 0.46019 0.25569 0.23296 0.0
C954 C 0.50196 0.27808 0.22596 0.0
C955 C 0.51456 0.25565 0.24317 0.0
N956 N 0.51235 0.21311 0.27708 0.0
N957 N 0.46176 0.3021 0.21936 0.0
C958 C 0.50011 0.23333 0.25605 0.0
C959 C 0.47447 0.27895 0.22541 0.0
N960 N 0.4592 0.2098 0.25111 0.0
N961 N 0.51622 0.29816 0.20836 0.0
H962 H 0.44154 0.30372 0.22002 0.0
H963 H 0.47124 0.32008 0.21836 0.0
H964 H 0.5365 0.29835 0.20771 0.0
H965 H 0.50794 0.31356 0.19069 0.0
H966 H 0.46786 0.19178 0.25694 0.0
H967 H 0.43927 0.20847 0.24489 0.0
H968 H 0.50252 0.19749 0.29154 0.0
H969 H 0.53235 0.21298 0.2832 0.0
C970 C 0.75698 0.53043 0.22617 0.0
C971 C 0.7564 0.52798 0.17879 0.0
C972 C 0.74223 0.48294 0.1859 0.0
C973 C 0.74693 0.4838 0.23231 0.0
N974 N 0.76099 0.50782 0.29724 0.0
N975 N 0.75649 0.4989 0.11489 0.0
C976 C 0.755 0.50742 0.25281 0.0
C977 C 0.75147 0.50334 0.15904 0.0
N978 N 0.75807 0.5545 0.24568 0.0
N979 N 0.72769 0.4634 0.16745 0.0
H980 H 0.7655 0.51264 0.09438 0.0
H981 H 0.75464 0.48045 0.10044 0.0
H982 H 0.71932 0.44847 0.18628 0.0
H983 H 0.72112 0.4643 0.13452 0.0
H984 H 0.75607 0.5574 0.27992 0.0
H985 H 0.75855 0.5718 0.22743 0.0
H986 H 0.76942 0.52388 0.31304 0.0
H987 H 0.75923 0.49136 0.31752 0.0
C988 C 0.4865 0.7452 0.24319 0.0
C989 C 0.47878 0.76717 0.2174 0.0
C990 C 0.52202 0.76984 0.1842 0.0
C991 C 0.52961 0.74746 0.20891 0.0
N992 N 0.51722 0.70971 0.25188 0.0
N993 N 0.48619 0.79424 0.15284 0.0
C994 C 0.51121 0.73377 0.23519 0.0
C995 C 0.4956 0.77751 0.18448 0.0
N996 N 0.47109 0.73613 0.27696 0.0
N997 N 0.54014 0.78483 0.16277 0.0
H998 H 0.46663 0.79959 0.15117 0.0
H999 H 0.49709 0.80039 0.1255 0.0
H1000 H 0.55998 0.78077 0.16295 0.0
H1001 H 0.53576 0.80283 0.14845 0.0
H1002 H 0.47712 0.72198 0.29965 0.0
H1003 H 0.45312 0.74416 0.28501 0.0
H1004 H 0.50366 0.69762 0.2674 0.0
H1005 H 0.53511 0.70073 0.24618 0.0
C1006 C 0.2443 0.49617 0.16548 0.0
C1007 C 0.2431 0.47058 0.1831 0.0
C1008 C 0.25166 0.48811 0.25791 0.0
C1009 C 0.25677 0.51279 0.23834 0.0
N1010 N 0.26578 0.53767 0.17151 0.0
N1011 N 0.24797 0.44135 0.24582 0.0
C1012 C 0.25534 0.51609 0.19152 0.0
C1013 C 0.24719 0.4662 0.22944 0.0
N1014 N 0.23467 0.50151 0.1239 0.0
N1015 N 0.25081 0.48574 0.30328 0.0
H1016 H 0.24474 0.42495 0.22595 0.0
H1017 H 0.25349 0.43695 0.27843 0.0
H1018 H 0.25458 0.50139 0.32466 0.0
H1019 H 0.24464 0.46883 0.31944 0.0
H1020 H 0.2334 0.52043 0.11127 0.0
H1021 H 0.22521 0.48749 0.1044 0.0
H1022 H 0.26696 0.53976 0.13694 0.0
H1023 H 0.27615 0.55185 0.18915 0.0
C1024 C 0.12092 0.26685 0.45311 0.0
C1025 C 0.11206 0.24535 0.42734 0.0
C1026 C 0.10236 0.22083 0.49573 0.0
C1027 C 0.11409 0.24116 0.52075 0.0
N1028 N 0.12402 0.28664 0.52666 0.0
N1029 N 0.08767 0.20507 0.42331 0.0
C1030 C 0.12005 0.26525 0.50036 0.0
C1031 C 0.10039 0.22339 0.44844 0.0
N1032 N 0.13064 0.28851 0.43234 0.0
N1033 N 0.09383 0.19894 0.5172 0.0
H1034 H 0.08587 0.20635 0.38875 0.0
H1035 H 0.07722 0.18952 0.43659 0.0
H1036 H 0.09241 0.198 0.55187 0.0
H1037 H 0.08823 0.1818 0.50118 0.0
H1038 H 0.14021 0.30356 0.44907 0.0
H1039 H 0.12992 0.29099 0.39778 0.0
H1040 H 0.12683 0.30543 0.51439 0.0
H1041 H 0.1214 0.28576 0.56117 0.0
C1042 C 0.74001 0.06997 0.57544 0.0
C1043 C 0.73523 0.09352 0.59879 0.0
C1044 C 0.71797 0.11305 0.53072 0.0
C1045 C 0.71989 0.08875 0.50783 0.0
N1046 N 0.72547 0.04185 0.51548 0.0
N1047 N 0.71041 0.13335 0.60212 0.0
C1048 C 0.72878 0.06644 0.53217 0.0
C1049 C 0.72095 0.11356 0.57758 0.0
N1050 N 0.75578 0.05135 0.5935 0.0
N1051 N 0.71542 0.13611 0.50824 0.0
H1052 H 0.71142 0.13382 0.63694 0.0
H1053 H 0.6982 0.14738 0.58813 0.0
H1054 H 0.71681 0.13781 0.47375 0.0
H1055 H 0.71585 0.15414 0.5244 0.0
H1056 H 0.76201 0.03507 0.57562 0.0
H1057 H 0.76419 0.05316 0.62506 0.0
H1058 H 0.73048 0.02512 0.53322 0.0
H1059 H 0.71467 0.03785 0.48682 0.0
C1060 C 0.89419 0.77545 0.466 0.0
C1061 C 0.88572 0.75195 0.44516 0.0
C1062 C 0.8811 0.73118 0.51828 0.0
C1063 C 0.88466 0.75583 0.53846 0.0
N1064 N 0.90477 0.79794 0.53549 0.0
N1065 N 0.87452 0.70635 0.45003 0.0
C1066 C 0.89451 0.77697 0.51348 0.0
C1067 C 0.88065 0.72929 0.47096 0.0
N1068 N 0.90055 0.79658 0.44041 0.0
N1069 N 0.87891 0.7097 0.54495 0.0
H1070 H 0.8755 0.70411 0.41544 0.0
H1071 H 0.86791 0.68975 0.46648 0.0
H1072 H 0.8807 0.71107 0.57962 0.0
H1073 H 0.87777 0.69063 0.53319 0.0
H1074 H 0.90393 0.81517 0.45313 0.0
H1075 H 0.90186 0.79564 0.40574 0.0
H1076 H 0.91355 0.81379 0.51989 0.0
H1077 H 0.90692 0.79798 0.57011 0.0
C1078 C 0.27975 0.88461 0.59383 0.0
C1079 C 0.26282 0.90158 0.61645 0.0
C1080 C 0.26049 0.92754 0.54829 0.0
C1081 C 0.27083 0.90608 0.52319 0.0
N1082 N 0.28296 0.86 0.5265 0.0
N1083 N 0.23505 0.93943 0.61331 0.0
C1084 C 0.27864 0.88338 0.54704 0.0
C1085 C 0.25252 0.92327 0.59328 0.0
N1086 N 0.29669 0.86949 0.61723 0.0
N1087 N 0.25972 0.95217 0.53099 0.0
H1088 H 0.22913 0.93706 0.64632 0.0
H1089 H 0.22531 0.9541 0.59593 0.0
H1090 H 0.26876 0.95732 0.50122 0.0
H1091 H 0.25356 0.96823 0.5495 0.0
H1092 H 0.31029 0.85747 0.60167 0.0
H1093 H 0.29915 0.87224 0.65152 0.0
H1094 H 0.28779 0.84325 0.54449 0.0
H1095 H 0.27748 0.85604 0.49372 0.0
C1096 C 0.12542 0.73504 0.4993 0.0
C1097 C 0.11903 0.75891 0.4782 0.0
C1098 C 0.10854 0.77872 0.55003 0.0
C1099 C 0.11811 0.75596 0.57161 0.0
N1100 N 0.12781 0.71015 0.56842 0.0
N1101 N 0.09491 0.79885 0.48029 0.0
C1102 C 0.12389 0.73324 0.54662 0.0
C1103 C 0.10733 0.77929 0.50262 0.0
N1104 N 0.13361 0.71452 0.47382 0.0
N1105 N 0.10195 0.80016 0.57465 0.0
H1106 H 0.09265 0.79844 0.44569 0.0
H1107 H 0.08445 0.81362 0.49589 0.0
H1108 H 0.10153 0.80012 0.60944 0.0
H1109 H 0.09796 0.81833 0.56076 0.0
H1110 H 0.14094 0.69718 0.48669 0.0
H1111 H 0.13325 0.71509 0.43897 0.0
H1112 H 0.13053 0.69233 0.55248 0.0
H1113 H 0.12639 0.70853 0.60307 0.0
C1114 C 0.23613 0.0906 0.42258 0.0
C1115 C 0.2525 0.10751 0.39808 0.0
C1116 C 0.28366 0.10781 0.46023 0.0
C1117 C 0.26649 0.09161 0.48515 0.0
N1118 N 0.23731 0.05514 0.47481 0.0
N1119 N 0.29628 0.12256 0.38656 0.0
C1120 C 0.24572 0.07923 0.46228 0.0
C1121 C 0.27762 0.1135 0.41492 0.0
N1122 N 0.21147 0.08538 0.4085 0.0
N1123 N 0.30634 0.11659 0.4788 0.0
H1124 H 0.29297 0.12364 0.35229 0.0
H1125 H 0.31561 0.12558 0.39571 0.0
H1126 H 0.31409 0.10877 0.50808 0.0
H1127 H 0.3175 0.13146 0.46478 0.0
H1128 H 0.19832 0.07469 0.42773 0.0
H1129 H 0.20391 0.09315 0.37916 0.0
H1130 H 0.22291 0.04497 0.45736 0.0
H1131 H 0.24812 0.04368 0.49676 0.0
C1132 C 0.87266 0.2114 0.49563 0.0
C1133 C 0.86994 0.23646 0.47632 0.0
C1134 C 0.8724 0.25639 0.55069 0.0
C1135 C 0.87018 0.23115 0.56983 0.0
N1136 N 0.86541 0.18461 0.56072 0.0
N1137 N 0.86814 0.28309 0.48397 0.0
C1138 C 0.86979 0.20861 0.54238 0.0
C1139 C 0.87039 0.25911 0.50347 0.0
N1140 N 0.87786 0.19023 0.46937 0.0
N1141 N 0.87613 0.27761 0.57764 0.0
H1142 H 0.86825 0.2855 0.44939 0.0
H1143 H 0.86533 0.30033 0.50168 0.0
H1144 H 0.87689 0.27627 0.61238 0.0
H1145 H 0.88021 0.29624 0.56568 0.0
H1146 H 0.88236 0.1719 0.4822 0.0
H1147 H 0.88036 0.19151 0.43495 0.0
H1148 H 0.86189 0.16787 0.54189 0.0
H1149 H 0.86294 0.18184 0.59486 0.0
C1150 C 0.75401 0.86878 0.46652 0.0
C1151 C 0.73575 0.88852 0.47701 0.0
C1152 C 0.7262 0.89451 0.39766 0.0
C1153 C 0.74644 0.87671 0.38687 0.0
N1154 N 0.78337 0.85126 0.41122 0.0
N1155 N 0.70734 0.92324 0.45287 0.0
C1156 C 0.76141 0.86501 0.42136 0.0
C1157 C 0.72296 0.90253 0.44264 0.0
N1158 N 0.76405 0.85337 0.49952 0.0
N1159 N 0.70883 0.90235 0.36569 0.0
H1160 H 0.7032 0.92891 0.48552 0.0
H1161 H 0.70008 0.93603 0.42887 0.0
H1162 H 0.70933 0.89595 0.3327 0.0
H1163 H 0.69213 0.91302 0.37284 0.0
H1164 H 0.77505 0.83675 0.49313 0.0
H1165 H 0.75996 0.85615 0.53326 0.0
H1166 H 0.79649 0.84472 0.43529 0.0
H1167 H 0.78995 0.84863 0.37866 0.0
C1168 C 0.61548 0.72678 0.00021 0.0
C1169 C 0.62368 0.74933 0.0242 0.0
C1170 C 0.6283 0.77361 0.95418 0.0
C1171 C 0.62092 0.75086 0.93035 0.0
N1172 N 0.59998 0.70874 0.93014 0.0
N1173 N 0.63135 0.79567 0.02581 0.0
C1174 C 0.61188 0.72846 0.95327 0.0
C1175 C 0.62799 0.77327 0.00164 0.0
N1176 N 0.61292 0.70332 0.02153 0.0
N1177 N 0.63607 0.7953 0.93126 0.0
H1178 H 0.63092 0.79589 0.06061 0.0
H1179 H 0.63234 0.8142 0.01173 0.0
H1180 H 0.63461 0.79664 0.8966 0.0
H1181 H 0.64469 0.81152 0.94617 0.0
H1182 H 0.61045 0.68567 0.00478 0.0
H1183 H 0.61511 0.70095 0.05585 0.0
H1184 H 0.59069 0.69306 0.94548 0.0
H1185 H 0.59705 0.70934 0.89571 0.0
C1186 C 0.25604 0.61347 0.0265 0.0
C1187 C 0.23342 0.59866 0.01644 0.0
C1188 C 0.22387 0.59506 0.09656 0.0
C1189 C 0.24727 0.60881 0.10645 0.0
N1190 N 0.28875 0.62517 0.0812 0.0
N1191 N 0.19843 0.57105 0.04167 0.0
C1192 C 0.26425 0.61632 0.07149 0.0
C1193 C 0.21821 0.588 0.05147 0.0
N1194 N 0.26949 0.62528 0.99299 0.0
N1195 N 0.20636 0.59002 0.12976 0.0
H1196 H 0.19327 0.56609 0.00902 0.0
H1197 H 0.18851 0.56034 0.0658 0.0
H1198 H 0.20944 0.59534 0.16296 0.0
H1199 H 0.18779 0.58259 0.12391 0.0
H1200 H 0.28421 0.63897 0.99822 0.0
H1201 H 0.26442 0.62272 0.95981 0.0
H1202 H 0.303 0.62828 0.05711 0.0
H1203 H 0.29581 0.62692 0.11372 0.0
C1204 C 0.38801 0.27146 0.99893 0.0
C1205 C 0.37778 0.24953 0.02203 0.0
C1206 C 0.37004 0.22682 0.95123 0.0
C1207 C 0.37865 0.24933 0.92823 0.0
N1208 N 0.4038 0.28912 0.92892 0.0
N1209 N 0.36718 0.20385 0.0219 0.0
C1210 C 0.39041 0.27031 0.95172 0.0
C1211 C 0.37149 0.22632 0.99856 0.0
N1212 N 0.39375 0.29398 0.02143 0.0
N1213 N 0.35995 0.20625 0.92778 0.0
H1214 H 0.3689 0.20316 0.05657 0.0
H1215 H 0.36447 0.18566 0.0071 0.0
H1216 H 0.36022 0.20548 0.89298 0.0
H1217 H 0.35053 0.19047 0.94255 0.0
H1218 H 0.39764 0.31165 0.00561 0.0
H1219 H 0.39329 0.29558 0.05605 0.0
H1220 H 0.41489 0.30353 0.94448 0.0
H1221 H 0.40599 0.2888 0.89434 0.0
C1222 C 0.76187 0.34839 0.08524 0.0
C1223 C 0.75236 0.3704 0.1091 0.0
C1224 C 0.76518 0.39765 0.04626 0.0
C1225 C 0.76875 0.37532 0.01887 0.0
N1226 N 0.76222 0.3283 0.0127 0.0
N1227 N 0.73723 0.41506 0.10256 0.0
C1228 C 0.76477 0.35023 0.03824 0.0
C1229 C 0.7517 0.39483 0.0869 0.0
N1230 N 0.76929 0.32617 0.10687 0.0
N1231 N 0.77539 0.42138 0.0351 0.0
H1232 H 0.72463 0.41329 0.12952 0.0
H1233 H 0.73507 0.43226 0.08431 0.0
H1234 H 0.78835 0.42393 0.00876 0.0
H1235 H 0.77387 0.43757 0.05609 0.0
H1236 H 0.77784 0.31054 0.09013 0.0
H1237 H 0.77037 0.32477 0.14153 0.0
H1238 H 0.75776 0.31017 0.02658 0.0
H1239 H 0.76071 0.32861 0.97807 0.0
C1240 C 0.60941 0.22935 0.03251 0.0
C1241 C 0.60258 0.25184 0.05735 0.0
C1242 C 0.59196 0.27507 0.98844 0.0
C1243 C 0.60493 0.25528 0.96461 0.0
N1244 N 0.61872 0.21081 0.95918 0.0
N1245 N 0.58392 0.29497 0.06058 0.0
C1246 C 0.61096 0.23125 0.98521 0.0
C1247 C 0.59201 0.27412 0.0358 0.0
N1248 N 0.61515 0.20678 0.05464 0.0
N1249 N 0.58004 0.29473 0.96551 0.0
H1250 H 0.58304 0.29457 0.09534 0.0
H1251 H 0.57888 0.31295 0.047 0.0
H1252 H 0.57944 0.29504 0.93069 0.0
H1253 H 0.56876 0.30912 0.98043 0.0
H1254 H 0.62056 0.18945 0.03924 0.0
H1255 H 0.61341 0.20521 0.08927 0.0
H1256 H 0.62419 0.19263 0.97128 0.0
H1257 H 0.6189 0.21209 0.92436 0.0
C1258 C 0.78481 0.60562 0.94649 0.0
C1259 C 0.76931 0.61622 0.98104 0.0
C1260 C 0.73913 0.6346 0.92573 0.0
C1261 C 0.75371 0.6226 0.89094 0.0
N1262 N 0.78983 0.59546 0.86803 0.0
N1263 N 0.73077 0.63852 0.00503 0.0
C1264 C 0.77632 0.60767 0.90131 0.0
C1265 C 0.74629 0.6302 0.971 0.0
N1266 N 0.80817 0.59436 0.9569 0.0
N1267 N 0.71841 0.65025 0.91568 0.0
H1268 H 0.73621 0.63667 0.03826 0.0
H1269 H 0.71203 0.64578 0.00087 0.0
H1270 H 0.71071 0.65225 0.88375 0.0
H1271 H 0.70938 0.66244 0.93868 0.0
H1272 H 0.82199 0.58892 0.93338 0.0
H1273 H 0.81477 0.59202 0.98962 0.0
H1274 H 0.80377 0.58114 0.87372 0.0
H1275 H 0.78658 0.59871 0.83419 0.0
C1276 C 0.38505 0.71876 0.00617 0.0
C1277 C 0.38085 0.74216 0.98201 0.0
C1278 C 0.38183 0.76742 0.05164 0.0
C1279 C 0.3813 0.74367 0.07576 0.0
N1280 N 0.3842 0.69683 0.07787 0.0
N1281 N 0.37799 0.78891 0.97946 0.0
C1282 C 0.38395 0.71937 0.05351 0.0
C1283 C 0.38045 0.76664 0.00413 0.0
N1284 N 0.38964 0.69596 0.98376 0.0
N1285 N 0.38343 0.79053 0.07434 0.0
H1286 H 0.37865 0.78871 0.94465 0.0
H1287 H 0.3749 0.80735 0.99293 0.0
H1288 H 0.38426 0.79142 0.10912 0.0
H1289 H 0.38569 0.80862 0.05912 0.0
H1290 H 0.3952 0.67866 0.99914 0.0
H1291 H 0.38986 0.69463 0.94905 0.0
H1292 H 0.38287 0.6782 0.06423 0.0
H1293 H 0.3847 0.69684 0.11262 0.0
C1294 C 0.26341 0.40595 0.9113 0.0
C1295 C 0.24451 0.40325 0.87757 0.0
C1296 C 0.2103 0.40347 0.93438 0.0
C1297 C 0.22973 0.40074 0.96795 0.0
N1298 N 0.27483 0.39341 0.98601 0.0
N1299 N 0.19968 0.39978 0.85548 0.0
C1300 C 0.25637 0.40072 0.95589 0.0
C1301 C 0.21777 0.40239 0.88863 0.0
N1302 N 0.28816 0.41311 0.90044 0.0
N1303 N 0.18499 0.40768 0.94609 0.0
H1304 H 0.20472 0.40057 0.82178 0.0
H1305 H 0.1801 0.39588 0.86136 0.0
H1306 H 0.17887 0.40872 0.97921 0.0
H1307 H 0.17046 0.41224 0.9231 0.0
H1308 H 0.30248 0.41693 0.9243 0.0
H1309 H 0.29313 0.41826 0.86784 0.0
H1310 H 0.29439 0.39106 0.97794 0.0
H1311 H 0.26971 0.38624 0.01716 0.0
C1312 C 0.16284 0.36191 0.2514 0.0
C1313 C 0.15958 0.36496 0.20457 0.0
C1314 C 0.13507 0.32401 0.20076 0.0
C1315 C 0.13795 0.32102 0.24767 0.0
N1316 N 0.14927 0.33942 0.31899 0.0
N1317 N 0.13618 0.35337 0.13756 0.0
C1318 C 0.15007 0.34084 0.27346 0.0
C1319 C 0.14357 0.34743 0.18024 0.0
N1320 N 0.17926 0.37815 0.2743 0.0
N1321 N 0.12589 0.30384 0.17519 0.0
H1322 H 0.14163 0.37069 0.12177 0.0
H1323 H 0.12248 0.34256 0.11967 0.0
H1324 H 0.11945 0.28616 0.18834 0.0
H1325 H 0.12664 0.30382 0.14043 0.0
H1326 H 0.1847 0.37517 0.30741 0.0
H1327 H 0.18894 0.39375 0.25936 0.0
H1328 H 0.15563 0.35434 0.33997 0.0
H1329 H 0.13999 0.32416 0.33569 0.0
C1330 C 0.66573 0.19489 0.28105 0.0
C1331 C 0.64779 0.19038 0.24561 0.0
C1332 C 0.64361 0.14463 0.26858 0.0
C1333 C 0.6628 0.14904 0.30194 0.0
N1334 N 0.69739 0.17605 0.33114 0.0
N1335 N 0.62276 0.16037 0.20078 0.0
C1336 C 0.67554 0.17344 0.30534 0.0
C1337 C 0.63761 0.16502 0.23787 0.0
N1338 N 0.67214 0.21976 0.29373 0.0
N1339 N 0.63067 0.12133 0.26718 0.0
H1340 H 0.61822 0.17493 0.17772 0.0
H1341 H 0.61673 0.14182 0.19095 0.0
H1342 H 0.63501 0.10592 0.28869 0.0
H1343 H 0.61459 0.11782 0.2468 0.0
H1344 H 0.68303 0.22391 0.32228 0.0
H1345 H 0.66432 0.23644 0.27908 0.0
H1346 H 0.70903 0.19274 0.33081 0.0
H1347 H 0.70545 0.16066 0.34924 0.0
C1348 C 0.85855 0.6442 0.20364 0.0
C1349 C 0.83956 0.62853 0.22478 0.0
C1350 C 0.84641 0.65276 0.29444 0.0
C1351 C 0.86104 0.6716 0.2705 0.0
N1352 N 0.87897 0.68651 0.20008 0.0
N1353 N 0.81519 0.61716 0.29067 0.0
C1354 C 0.8671 0.66744 0.22472 0.0
C1355 C 0.83378 0.63221 0.27065 0.0
N1356 N 0.86832 0.63684 0.16316 0.0
N1357 N 0.84457 0.65474 0.33981 0.0
H1358 H 0.80585 0.60176 0.2744 0.0
H1359 H 0.80798 0.62081 0.32251 0.0
H1360 H 0.85383 0.66959 0.35772 0.0
H1361 H 0.83604 0.64052 0.35986 0.0
H1362 H 0.884 0.64618 0.148 0.0
H1363 H 0.86255 0.61966 0.14715 0.0
H1364 H 0.88066 0.68563 0.16546 0.0
H1365 H 0.88524 0.70427 0.21314 0.0
C1366 C 0.34077 0.83578 0.23515 0.0
C1367 C 0.33909 0.81126 0.25687 0.0
C1368 C 0.32103 0.83199 0.32366 0.0
C1369 C 0.32439 0.85675 0.30323 0.0
N1370 N 0.33934 0.88309 0.24185 0.0
N1371 N 0.33171 0.78604 0.32381 0.0
C1372 C 0.33482 0.85892 0.25955 0.0
C1373 C 0.33017 0.80934 0.30158 0.0
N1374 N 0.34743 0.83675 0.19102 0.0
N1375 N 0.3089 0.83009 0.36417 0.0
H1376 H 0.33811 0.76878 0.30906 0.0
H1377 H 0.32866 0.78407 0.35799 0.0
H1378 H 0.30344 0.84621 0.38317 0.0
H1379 H 0.30267 0.81249 0.37786 0.0
H1380 H 0.34673 0.85363 0.17177 0.0
H1381 H 0.35202 0.8201 0.17262 0.0
H1382 H 0.34919 0.88625 0.21204 0.0
H1383 H 0.33452 0.90029 0.25851 0.0
C1384 C 0.16546 0.63923 0.75039 0.0
C1385 C 0.16516 0.63768 0.79772 0.0
C1386 C 0.14592 0.68148 0.80197 0.0
C1387 C 0.14827 0.684 0.75487 0.0
N1388 N 0.16134 0.6663 0.68393 0.0
N1389 N 0.15844 0.65828 0.86917 0.0
C1390 C 0.15832 0.6631 0.72895 0.0
C1391 C 0.15604 0.65896 0.82364 0.0
N1392 N 0.17209 0.61766 0.72609 0.0
N1393 N 0.13421 0.70076 0.82626 0.0
H1394 H 0.16553 0.64218 0.88661 0.0
H1395 H 0.15539 0.67434 0.88976 0.0
H1396 H 0.12832 0.71853 0.81277 0.0
H1397 H 0.1287 0.69859 0.85947 0.0
H1398 H 0.17044 0.61643 0.69153 0.0
H1399 H 0.17769 0.60014 0.74097 0.0
H1400 H 0.1711 0.65316 0.66351 0.0
H1401 H 0.15498 0.68291 0.66704 0.0
C1402 C 0.3366 0.15519 0.68268 0.0
C1403 C 0.32189 0.13746 0.70898 0.0
C1404 C 0.32671 0.16633 0.77412 0.0
C1405 C 0.3397 0.18488 0.74688 0.0
N1406 N 0.35304 0.19922 0.67367 0.0
N1407 N 0.30058 0.12678 0.77813 0.0
C1408 C 0.34377 0.17984 0.7008 0.0
C1409 C 0.31625 0.14323 0.7543 0.0
N1410 N 0.34364 0.14859 0.64012 0.0
N1411 N 0.32511 0.17048 0.81912 0.0
H1412 H 0.29358 0.10918 0.76525 0.0
H1413 H 0.29326 0.13117 0.80961 0.0
H1414 H 0.33228 0.1873 0.83445 0.0
H1415 H 0.31841 0.1566 0.84171 0.0
H1416 H 0.3572 0.15904 0.62153 0.0
H1417 H 0.33728 0.13167 0.62409 0.0
H1418 H 0.35352 0.1979 0.639 0.0
H1419 H 0.35816 0.21774 0.68524 0.0
C1420 C 0.82955 0.31486 0.7193 0.0
C1421 C 0.84667 0.29964 0.74596 0.0
C1422 C 0.84606 0.33355 0.8038 0.0
C1423 C 0.8257 0.34637 0.78055 0.0
N1424 N 0.79735 0.34949 0.71674 0.0
N1425 N 0.86918 0.29317 0.81613 0.0
C1426 C 0.81736 0.33721 0.73823 0.0
C1427 C 0.85479 0.30882 0.78859 0.0
N1428 N 0.82548 0.30821 0.67563 0.0
N1429 N 0.8569 0.3449 0.84079 0.0
H1430 H 0.87559 0.27463 0.80722 0.0
H1431 H 0.8729 0.29756 0.8495 0.0
H1432 H 0.8505 0.3626 0.85392 0.0
H1433 H 0.87373 0.33798 0.85611 0.0
H1434 H 0.8151 0.31972 0.65322 0.0
H1435 H 0.8346 0.29229 0.66067 0.0
H1436 H 0.7883 0.3421 0.68826 0.0
H1437 H 0.78884 0.36652 0.72894 0.0
C1438 C 0.67679 0.86241 0.76047 0.0
C1439 C 0.67081 0.86861 0.71554 0.0
C1440 C 0.64415 0.8292 0.70859 0.0
C1441 C 0.65003 0.82279 0.75366 0.0
N1442 N 0.66684 0.83587 0.82544 0.0
N1443 N 0.64303 0.86264 0.6515 0.0
C1444 C 0.66472 0.84031 0.78061 0.0
C1445 C 0.65248 0.85356 0.69126 0.0
N1446 N 0.69486 0.87692 0.78311 0.0
N1447 N 0.63241 0.81132 0.68116 0.0
H1448 H 0.64872 0.88055 0.63803 0.0
H1449 H 0.62771 0.85382 0.63433 0.0
H1450 H 0.62648 0.79287 0.69164 0.0
H1451 H 0.63059 0.81385 0.64679 0.0
H1452 H 0.7024 0.87171 0.81413 0.0
H1453 H 0.70337 0.89366 0.76964 0.0
H1454 H 0.67522 0.84905 0.84774 0.0
H1455 H 0.65814 0.81987 0.84091 0.0
C1456 C 0.82833 0.66691 0.65016 0.0
C1457 C 0.84243 0.68107 0.68314 0.0
C1458 C 0.82748 0.65115 0.74074 0.0
C1459 C 0.80949 0.64083 0.70962 0.0
N1460 N 0.7992 0.63052 0.63368 0.0
N1461 N 0.86604 0.67763 0.75274 0.0
C1462 C 0.81259 0.64554 0.66362 0.0
C1463 C 0.8458 0.67004 0.72616 0.0
N1464 N 0.82893 0.6751 0.60684 0.0
N1465 N 0.82565 0.64416 0.78456 0.0
H1466 H 0.88084 0.68981 0.74139 0.0
H1467 H 0.87001 0.66922 0.78365 0.0
H1468 H 0.81285 0.62956 0.79501 0.0
H1469 H 0.83598 0.65324 0.8102 0.0
H1470 H 0.81742 0.66738 0.58143 0.0
H1471 H 0.84111 0.69022 0.59664 0.0
H1472 H 0.80107 0.63206 0.59921 0.0
H1473 H 0.78755 0.61495 0.64406 0.0
C1474 C 0.34731 0.80649 0.75196 0.0
C1475 C 0.35217 0.80587 0.7982 0.0
C1476 C 0.32997 0.84757 0.80647 0.0
C1477 C 0.31734 0.84282 0.76496 0.0
N1478 N 0.3181 0.82049 0.69361 0.0
N1479 N 0.35227 0.82753 0.86913 0.0
C1480 C 0.32779 0.82351 0.73576 0.0
C1481 C 0.34521 0.8273 0.82522 0.0
N1482 N 0.36056 0.7901 0.72423 0.0
N1483 N 0.32782 0.87109 0.82749 0.0
H1484 H 0.36469 0.81341 0.88235 0.0
H1485 H 0.34518 0.84097 0.89217 0.0
H1486 H 0.31943 0.88731 0.81238 0.0
H1487 H 0.33775 0.87562 0.85686 0.0
H1488 H 0.35927 0.79088 0.68956 0.0
H1489 H 0.37502 0.77762 0.73598 0.0
H1490 H 0.32248 0.80473 0.67303 0.0
H1491 H 0.30475 0.83331 0.67977 0.0
C1492 C 0.17521 0.32199 0.64937 0.0
C1493 C 0.16092 0.30794 0.68181 0.0
C1494 C 0.17924 0.33544 0.74085 0.0
C1495 C 0.19757 0.34515 0.70954 0.0
N1496 N 0.2119 0.35017 0.63331 0.0
N1497 N 0.1416 0.30776 0.75506 0.0
C1498 C 0.19464 0.33995 0.6633 0.0
C1499 C 0.16019 0.31696 0.72656 0.0
N1500 N 0.17023 0.31759 0.60523 0.0
N1501 N 0.1812 0.343 0.78452 0.0
H1502 H 0.12672 0.29531 0.74489 0.0
H1503 H 0.13928 0.31405 0.78779 0.0
H1504 H 0.19438 0.35726 0.79496 0.0
H1505 H 0.17031 0.33522 0.81052 0.0
H1506 H 0.17813 0.3285 0.57928 0.0
H1507 H 0.1561 0.30427 0.59502 0.0
H1508 H 0.213 0.34441 0.60006 0.0
H1509 H 0.22605 0.36385 0.64191 0.0
C1510 C 0.67714 0.15817 0.76964 0.0
C1511 C 0.70458 0.16151 0.77179 0.0
C1512 C 0.69898 0.2064 0.79382 0.0
C1513 C 0.67172 0.20272 0.79891 0.0
N1514 N 0.63532 0.17264 0.79813 0.0
N1515 N 0.7403 0.18576 0.8044 0.0
C1516 C 0.66075 0.17784 0.78867 0.0
C1517 C 0.71501 0.18454 0.79038 0.0
N1518 N 0.66677 0.13696 0.74851 0.0
N1519 N 0.70965 0.2307 0.78901 0.0
H1520 H 0.75247 0.16948 0.80463 0.0
H1521 H 0.7479 0.20216 0.82056 0.0
H1522 H 0.69843 0.24742 0.78437 0.0
H1523 H 0.72945 0.23353 0.78302 0.0
H1524 H 0.64692 0.13493 0.74222 0.0
H1525 H 0.67827 0.12241 0.73441 0.0
H1526 H 0.62713 0.15413 0.7946 0.0
H1527 H 0.62311 0.18619 0.81329 0.0
C1528 C 0.81677 0.34859 0.32761 0.0
C1529 C 0.80814 0.35006 0.28278 0.0
C1530 C 0.8399 0.31735 0.26004 0.0
C1531 C 0.84405 0.31195 0.30578 0.0
N1532 N 0.84661 0.3282 0.38037 0.0
N1533 N 0.81723 0.34399 0.20494 0.0
C1534 C 0.83621 0.33004 0.33857 0.0
C1535 C 0.82209 0.33739 0.24836 0.0
N1536 N 0.80496 0.36327 0.35972 0.0
N1537 N 0.85141 0.30202 0.22853 0.0
H1538 H 0.80422 0.35884 0.19661 0.0
H1539 H 0.82707 0.33625 0.17771 0.0
H1540 H 0.86536 0.2881 0.23693 0.0
H1541 H 0.84751 0.3031 0.19449 0.0
H1542 H 0.80848 0.36121 0.39376 0.0
H1543 H 0.79114 0.37744 0.35203 0.0
H1544 H 0.84285 0.34132 0.40608 0.0
H1545 H 0.86093 0.31441 0.38759 0.0
C1546 C 0.64169 0.82072 0.2498 0.0
C1547 C 0.6366 0.81667 0.20404 0.0
C1548 C 0.66405 0.85362 0.18391 0.0
C1549 C 0.67429 0.85294 0.22787 0.0
N1550 N 0.66693 0.84459 0.30554 0.0
N1551 N 0.63236 0.83536 0.13159 0.0
C1552 C 0.66055 0.83976 0.26205 0.0
C1553 C 0.64385 0.83579 0.17264 0.0
N1554 N 0.6302 0.80475 0.2804 0.0
N1555 N 0.67502 0.86953 0.15266 0.0
H1556 H 0.6176 0.82193 0.12434 0.0
H1557 H 0.63585 0.84906 0.10667 0.0
H1558 H 0.68911 0.8834 0.16086 0.0
H1559 H 0.67023 0.86912 0.1189 0.0
H1560 H 0.63433 0.80498 0.31441 0.0
H1561 H 0.616 0.79121 0.27095 0.0
H1562 H 0.65758 0.83619 0.33274 0.0
H1563 H 0.6809 0.85858 0.31402 0.0
C1564 C 0.15621 0.67109 0.30335 0.0
C1565 C 0.16706 0.6868 0.33775 0.0
C1566 C 0.20327 0.65608 0.34383 0.0
C1567 C 0.19692 0.64695 0.30068 0.0
N1568 N 0.16567 0.64193 0.24156 0.0
N1569 N 0.19667 0.68908 0.40049 0.0
C1570 C 0.17258 0.6529 0.28137 0.0
C1571 C 0.18904 0.67729 0.36169 0.0
N1572 N 0.13041 0.6728 0.29309 0.0
N1573 N 0.22323 0.64472 0.36689 0.0
H1574 H 0.18454 0.70186 0.41778 0.0
H1575 H 0.21478 0.68626 0.41536 0.0
H1576 H 0.23362 0.62894 0.3541 0.0
H1577 H 0.22797 0.64922 0.39981 0.0
H1578 H 0.12132 0.66065 0.26989 0.0
H1579 H 0.11751 0.68354 0.31256 0.0
H1580 H 0.14928 0.6476 0.2235 0.0
H1581 H 0.17711 0.62772 0.22621 0.0
C1582 C 0.33257 0.16501 0.26482 0.0
C1583 C 0.31807 0.14794 0.23656 0.0
C1584 C 0.34411 0.16171 0.17281 0.0
C1585 C 0.3546 0.18177 0.19965 0.0
N1586 N 0.37056 0.19296 0.27242 0.0
N1587 N 0.3193 0.12147 0.16943 0.0
C1588 C 0.35316 0.17978 0.24633 0.0
C1589 C 0.32713 0.1431 0.19248 0.0
N1590 N 0.32553 0.16851 0.30825 0.0
N1591 N 0.34932 0.16172 0.12822 0.0
H1592 H 0.30838 0.10659 0.18381 0.0
H1593 H 0.32626 0.11666 0.13789 0.0
H1594 H 0.36303 0.17455 0.11484 0.0
H1595 H 0.33997 0.14975 0.10508 0.0
H1596 H 0.33346 0.1829 0.3288 0.0
H1597 H 0.31065 0.15786 0.3229 0.0
H1598 H 0.3714 0.19103 0.30702 0.0
H1599 H 0.38608 0.20329 0.25862 0.0
loop_
_geom_bond_atom_site_label_1
_geom_bond_atom_site_label_2
_geom_bond_distance
_geom_bond_site_symmetry_2
_ccdc_geom_bond_type
Mg0 O1 2.028 . S
Mg0 O7 1.986 . S
Mg0 O9 2.114 . S
Mg0 O10 2.251 . S
Mg0 O13 2.010 . S
O1 Mg0 2.028 . S
O1 C4 1.250 . S
O2 Mg3 2.028 . S
O2 C4 1.248 . S
Mg3 O2 2.028 . S
Mg3 O8 2.032 . S
Mg3 O10 2.079 . S
C4 O1 1.250 . S
C4 O2 1.248 . S
C5 O6 1.264 . S
C5 O13 1.249 . S
O6 C5 1.264 . S
O7 Mg0 1.986 . S
O7 C11 1.246 . S
O8 Mg3 2.032 . S
O8 C11 1.259 . S
O9 Mg0 2.114 . S
O9 C12 1.252 . S
O10 Mg0 2.251 . S
O10 Mg3 2.079 . S
O10 C12 1.273 . S
C11 O7 1.246 . S
C11 O8 1.259 . S
C12 O9 1.252 . S
C12 O10 1.273 . S
O13 Mg0 2.010 . S
O13 C5 1.249 . S
Mg14 O15 2.028 . S
Mg14 O21 1.986 . S
Mg14 O23 2.114 . S
Mg14 O24 2.251 . S
Mg14 O27 2.010 . S
O15 Mg14 2.028 . S
O15 C18 1.250 . S
O16 Mg17 2.028 . S
O16 C18 1.248 . S
Mg17 O16 2.028 . S
Mg17 O22 2.032 . S
Mg17 O24 2.079 . S
C18 O15 1.250 . S
C18 O16 1.248 . S
C19 O20 1.264 . S
C19 O27 1.249 . S
O20 C19 1.264 . S
O21 Mg14 1.986 . S
O21 C25 1.246 . S
O22 Mg17 2.032 . S
O22 C25 1.259 . S
O23 Mg14 2.114 . S
O23 C26 1.252 . S
O24 Mg14 2.251 . S
O24 Mg17 2.079 . S
O24 C26 1.273 . S
C25 O21 1.246 . S
C25 O22 1.259 . S
C26 O23 1.252 . S
C26 O24 1.273 . S
O27 Mg14 2.010 . S
O27 C19 1.249 . S
Mg28 O29 2.028 . S
Mg28 O35 1.986 . S
Mg28 O37 2.114 . S
Mg28 O38 2.251 . S
Mg28 O41 2.010 . S
O29 Mg28 2.028 . S
O29 C32 1.250 . S
O30 Mg31 2.028 . S
O30 C32 1.248 . S
Mg31 O30 2.028 . S
Mg31 O36 2.032 . S
Mg31 O38 2.079 . S
C32 O29 1.250 . S
C32 O30 1.248 . S
C33 O34 1.264 . S
C33 O41 1.249 . S
O34 C33 1.264 . S
O35 Mg28 1.986 . S
O35 C39 1.246 . S
O36 Mg31 2.032 . S
O36 C39 1.259 . S
O37 Mg28 2.114 . S
O37 C40 1.252 . S
O38 Mg28 2.251 . S
O38 Mg31 2.079 . S
O38 C40 1.273 . S
C39 O35 1.246 . S
C39 O36 1.259 . S
C40 O37 1.252 . S
C40 O38 1.273 . S
O41 Mg28 2.010 . S
O41 C33 1.249 . S
Mg42 O43 2.028 . S
Mg42 O49 1.986 . S
Mg42 O51 2.114 . S
Mg42 O52 2.251 . S
Mg42 O55 2.010 . S
O43 Mg42 2.028 . S
O43 C46 1.250 . S
O44 Mg45 2.028 . S
O44 C46 1.248 . S
Mg45 O44 2.028 . S
Mg45 O50 2.032 . S
Mg45 O52 2.079 . S
C46 O43 1.250 . S
C46 O44 1.248 . S
C47 O48 1.264 . S
C47 O55 1.249 . S
O48 C47 1.264 . S
O49 Mg42 1.986 . S
O49 C53 1.246 . S
O50 Mg45 2.032 . S
O50 C53 1.259 . S
O51 Mg42 2.114 . S
O51 C54 1.252 . S
O52 Mg42 2.251 . S
O52 Mg45 2.079 . S
O52 C54 1.273 . S
C53 O49 1.246 . S
C53 O50 1.259 . S
C54 O51 1.252 . S
C54 O52 1.273 . S
O55 Mg42 2.010 . S
O55 C47 1.249 . S
Mg56 O57 2.028 . S
Mg56 O63 1.986 . S
Mg56 O65 2.114 . S
Mg56 O66 2.251 . S
Mg56 O69 2.010 . S
O57 Mg56 2.028 . S
O57 C60 1.250 . S
O58 Mg59 2.028 . S
O58 C60 1.248 . S
Mg59 O58 2.028 . S
Mg59 O64 2.032 . S
Mg59 O66 2.079 . S
C60 O57 1.250 . S
C60 O58 1.248 . S
C61 O62 1.264 . S
C61 O69 1.249 . S
O62 C61 1.264 . S
O63 Mg56 1.986 . S
O63 C67 1.246 . S
O64 Mg59 2.032 . S
O64 C67 1.259 . S
O65 Mg56 2.114 . S
O65 C68 1.252 . S
O66 Mg56 2.251 . S
O66 Mg59 2.079 . S
O66 C68 1.273 . S
C67 O63 1.246 . S
C67 O64 1.259 . S
C68 O65 1.252 . S
C68 O66 1.273 . S
O69 Mg56 2.010 . S
O69 C61 1.249 . S
Mg70 O71 2.028 . S
Mg70 O77 1.986 . S
Mg70 O79 2.114 . S
Mg70 O80 2.251 . S
Mg70 O83 2.010 . S
O71 Mg70 2.028 . S
O71 C74 1.250 . S
O72 Mg73 2.028 . S
O72 C74 1.248 . S
Mg73 O72 2.028 . S
Mg73 O78 2.032 . S
Mg73 O80 2.079 . S
C74 O71 1.250 . S
C74 O72 1.248 . S
C75 O76 1.264 . S
C75 O83 1.249 . S
O76 C75 1.264 . S
O77 Mg70 1.986 . S
O77 C81 1.246 . S
O78 Mg73 2.032 . S
O78 C81 1.259 . S
O79 Mg70 2.114 . S
O79 C82 1.252 . S
O80 Mg70 2.251 . S
O80 Mg73 2.079 . S
O80 C82 1.273 . S
C81 O77 1.246 . S
C81 O78 1.259 . S
C82 O79 1.252 . S
C82 O80 1.273 . S
O83 Mg70 2.010 . S
O83 C75 1.249 . S
Mg84 O85 2.028 . S
Mg84 O91 1.986 . S
Mg84 O93 2.114 . S
Mg84 O94 2.251 . S
Mg84 O97 2.010 . S
O85 Mg84 2.028 . S
O85 C88 1.250 . S
O86 Mg87 2.028 . S
O86 C88 1.248 . S
Mg87 O86 2.028 . S
Mg87 O92 2.032 . S
Mg87 O94 2.079 . S
C88 O85 1.250 . S
C88 O86 1.248 . S
C89 O90 1.264 . S
C89 O97 1.249 . S
O90 C89 1.264 . S
O91 Mg84 1.986 . S
O91 C95 1.246 . S
O92 Mg87 2.032 . S
O92 C95 1.259 . S
O93 Mg84 2.114 . S
O93 C96 1.252 . S
O94 Mg84 2.251 . S
O94 Mg87 2.079 . S
O94 C96 1.273 . S
C95 O91 1.246 . S
C95 O92 1.259 . S
C96 O93 1.252 . S
C96 O94 1.273 . S
O97 Mg84 2.010 . S
O97 C89 1.249 . S
Mg98 O99 2.028 . S
Mg98 O105 1.986 . S
Mg98 O107 2.114 . S
Mg98 O108 2.251 . S
Mg98 O111 2.010 . S
O99 Mg98 2.028 . S
O99 C102 1.250 . S
O100 Mg101 2.028 . S
O100 C102 1.248 . S
Mg101 O100 2.028 . S
Mg101 O106 2.032 . S
Mg101 O108 2.079 . S
C102 O99 1.250 . S
C102 O100 1.248 . S
C103 O104 1.264 . S
C103 O111 1.249 . S
O104 C103 1.264 . S
O105 Mg98 1.986 . S
O105 C109 1.246 . S
O106 Mg101 2.032 . S
O106 C109 1.259 . S
O107 Mg98 2.114 . S
O107 C110 1.252 . S
O108 Mg98 2.251 . S
O108 Mg101 2.079 . S
O108 C110 1.273 . S
C109 O105 1.246 . S
C109 O106 1.259 . S
C110 O107 1.252 . S
C110 O108 1.273 . S
O111 Mg98 2.010 . S
O111 C103 1.249 . S
Mg112 O113 2.028 . S
Mg112 O119 1.986 . S
Mg112 O121 2.114 . S
Mg112 O122 2.251 . S
Mg112 O125 2.010 . S
O113 Mg112 2.028 . S
O113 C116 1.250 . S
O114 Mg115 2.028 . S
O114 C116 1.248 . S
Mg115 O114 2.028 . S
Mg115 O120 2.032 . S
Mg115 O122 2.079 . S
C116 O113 1.250 . S
C116 O114 1.248 . S
C117 O118 1.264 . S
C117 O125 1.249 . S
O118 C117 1.264 . S
O119 Mg112 1.986 . S
O119 C123 1.246 . S
O120 Mg115 2.032 . S
O120 C123 1.259 . S
O121 Mg112 2.114 . S
O121 C124 1.252 . S
O122 Mg112 2.251 . S
O122 Mg115 2.079 . S
O122 C124 1.273 . S
C123 O119 1.246 . S
C123 O120 1.259 . S
C124 O121 1.252 . S
C124 O122 1.273 . S
O125 Mg112 2.010 . S
O125 C117 1.249 . S
Mg126 O127 2.028 . S
Mg126 O133 1.986 . S
Mg126 O135 2.114 . S
Mg126 O136 2.251 . S
Mg126 O139 2.010 . S
O127 Mg126 2.028 . S
O127 C130 1.250 . S
O128 Mg129 2.028 . S
O128 C130 1.248 . S
Mg129 O128 2.028 . S
Mg129 O134 2.032 . S
Mg129 O136 2.079 . S
C130 O127 1.250 . S
C130 O128 1.248 . S
C131 O132 1.264 . S
C131 O139 1.249 . S
O132 C131 1.264 . S
O133 Mg126 1.986 . S
O133 C137 1.246 . S
O134 Mg129 2.032 . S
O134 C137 1.259 . S
O135 Mg126 2.114 . S
O135 C138 1.252 . S
O136 Mg126 2.251 . S
O136 Mg129 2.079 . S
O136 C138 1.273 . S
C137 O133 1.246 . S
C137 O134 1.259 . S
C138 O135 1.252 . S
C138 O136 1.273 . S
O139 Mg126 2.010 . S
O139 C131 1.249 . S
Mg140 O141 2.028 . S
Mg140 O147 1.986 . S
Mg140 O149 2.114 . S
Mg140 O150 2.251 . S
Mg140 O153 2.010 . S
O141 Mg140 2.028 . S
O141 C144 1.250 . S
O142 Mg143 2.028 . S
O142 C144 1.248 . S
Mg143 O142 2.028 . S
Mg143 O148 2.032 . S
Mg143 O150 2.079 . S
C144 O141 1.250 . S
C144 O142 1.248 . S
C145 O146 1.264 . S
C145 O153 1.249 . S
O146 C145 1.264 . S
O147 Mg140 1.986 . S
O147 C151 1.246 . S
O148 Mg143 2.032 . S
O148 C151 1.259 . S
O149 Mg140 2.114 . S
O149 C152 1.252 . S
O150 Mg140 2.251 . S
O150 Mg143 2.079 . S
O150 C152 1.273 . S
C151 O147 1.246 . S
C151 O148 1.259 . S
C152 O149 1.252 . S
C152 O150 1.273 . S
O153 Mg140 2.010 . S
O153 C145 1.249 . S
Mg154 O155 2.028 . S
Mg154 O161 1.986 . S
Mg154 O163 2.114 . S
Mg154 O164 2.251 . S
Mg154 O167 2.010 . S
O155 Mg154 2.028 . S
O155 C158 1.250 . S
O156 Mg157 2.028 . S
O156 C158 1.248 . S
Mg157 O156 2.028 . S
Mg157 O162 2.032 . S
Mg157 O164 2.079 . S
C158 O155 1.250 . S
C158 O156 1.248 . S
C159 O160 1.264 . S
C159 O167 1.249 . S
O160 C159 1.264 . S
O161 Mg154 1.986 . S
O161 C165 1.246 . S
O162 Mg157 2.032 . S
O162 C165 1.259 . S
O163 Mg154 2.114 . S
O163 C166 1.252 . S
O164 Mg154 2.251 . S
O164 Mg157 2.079 . S
O164 C166 1.273 . S
C165 O161 1.246 . S
C165 O162 1.259 . S
C166 O163 1.252 . S
C166 O164 1.273 . S
O167 Mg154 2.010 . S
O167 C159 1.249 . S
Mg168 O169 2.028 . S
Mg168 O175 1.986 . S
Mg168 O177 2.114 . S
Mg168 O178 2.251 . S
Mg168 O181 2.010 . S
O169 Mg168 2.028 . S
O169 C172 1.250 . S
O170 Mg171 2.028 . S
O170 C172 1.248 . S
Mg171 O170 2.028 . S
Mg171 O176 2.032 . S
Mg171 O178 2.079 . S
C172 O169 1.250 . S
C172 O170 1.248 . S
C173 O174 1.264 . S
C173 O181 1.249 . S
O174 C173 1.264 . S
O175 Mg168 1.986 . S
O175 C179 1.246 . S
O176 Mg171 2.032 . S
O176 C179 1.259 . S
O177 Mg168 2.114 . S
O177 C180 1.252 . S
O178 Mg168 2.251 . S
O178 Mg171 2.079 . S
O178 C180 1.273 . S
C179 O175 1.246 . S
C179 O176 1.259 . S
C180 O177 1.252 . S
C180 O178 1.273 . S
O181 Mg168 2.010 . S
O181 C173 1.249 . S
Mg182 O183 2.028 . S
Mg182 O189 1.986 . S
Mg182 O191 2.114 . S
Mg182 O192 2.251 . S
Mg182 O195 2.010 . S
O183 Mg182 2.028 . S
O183 C186 1.250 . S
O184 Mg185 2.028 . S
O184 C186 1.248 . S
Mg185 O184 2.028 . S
Mg185 O190 2.032 . S
Mg185 O192 2.079 . S
C186 O183 1.250 . S
C186 O184 1.248 . S
C187 O188 1.264 . S
C187 O195 1.249 . S
O188 C187 1.264 . S
O189 Mg182 1.986 . S
O189 C193 1.246 . S
O190 Mg185 2.032 . S
O190 C193 1.259 . S
O191 Mg182 2.114 . S
O191 C194 1.252 . S
O192 Mg182 2.251 . S
O192 Mg185 2.079 . S
O192 C194 1.273 . S
C193 O189 1.246 . S
C193 O190 1.259 . S
C194 O191 1.252 . S
C194 O192 1.273 . S
O195 Mg182 2.010 . S
O195 C187 1.249 . S
Mg196 O197 2.028 . S
Mg196 O203 1.986 . S
Mg196 O205 2.114 . S
Mg196 O206 2.251 . S
Mg196 O209 2.010 . S
O197 Mg196 2.028 . S
O197 C200 1.250 . S
O198 Mg199 2.028 . S
O198 C200 1.248 . S
Mg199 O198 2.028 . S
Mg199 O204 2.032 . S
Mg199 O206 2.079 . S
C200 O197 1.250 . S
C200 O198 1.248 . S
C201 O202 1.264 . S
C201 O209 1.249 . S
O202 C201 1.264 . S
O203 Mg196 1.986 . S
O203 C207 1.246 . S
O204 Mg199 2.032 . S
O204 C207 1.259 . S
O205 Mg196 2.114 . S
O205 C208 1.252 . S
O206 Mg196 2.251 . S
O206 Mg199 2.079 . S
O206 C208 1.273 . S
C207 O203 1.246 . S
C207 O204 1.259 . S
C208 O205 1.252 . S
C208 O206 1.273 . S
O209 Mg196 2.010 . S
O209 C201 1.249 . S
Mg210 O211 2.028 . S
Mg210 O217 1.986 . S
Mg210 O219 2.114 . S
Mg210 O220 2.251 . S
Mg210 O223 2.010 . S
O211 Mg210 2.028 . S
O211 C214 1.250 . S
O212 Mg213 2.028 . S
O212 C214 1.248 . S
Mg213 O212 2.028 . S
Mg213 O218 2.032 . S
Mg213 O220 2.079 . S
C214 O211 1.250 . S
C214 O212 1.248 . S
C215 O216 1.264 . S
C215 O223 1.249 . S
O216 C215 1.264 . S
O217 Mg210 1.986 . S
O217 C221 1.246 . S
O218 Mg213 2.032 . S
O218 C221 1.259 . S
O219 Mg210 2.114 . S
O219 C222 1.252 . S
O220 Mg210 2.251 . S
O220 Mg213 2.079 . S
O220 C222 1.273 . S
C221 O217 1.246 . S
C221 O218 1.259 . S
C222 O219 1.252 . S
C222 O220 1.273 . S
O223 Mg210 2.010 . S
O223 C215 1.249 . S
Mg224 O225 2.028 . S
Mg224 O231 1.986 . S
Mg224 O233 2.114 . S
Mg224 O234 2.251 . S
Mg224 O237 2.010 . S
O225 Mg224 2.028 . S
O225 C228 1.250 . S
O226 Mg227 2.028 . S
O226 C228 1.248 . S
Mg227 O226 2.028 . S
Mg227 O232 2.032 . S
Mg227 O234 2.079 . S
C228 O225 1.250 . S
C228 O226 1.248 . S
C229 O230 1.264 . S
C229 O237 1.249 . S
O230 C229 1.264 . S
O231 Mg224 1.986 . S
O231 C235 1.246 . S
O232 Mg227 2.032 . S
O232 C235 1.259 . S
O233 Mg224 2.114 . S
O233 C236 1.252 . S
O234 Mg224 2.251 . S
O234 Mg227 2.079 . S
O234 C236 1.273 . S
C235 O231 1.246 . S
C235 O232 1.259 . S
C236 O233 1.252 . S
C236 O234 1.273 . S
O237 Mg224 2.010 . S
O237 C229 1.249 . S
Mg238 O239 2.028 . S
Mg238 O245 1.986 . S
Mg238 O247 2.114 . S
Mg238 O248 2.251 . S
Mg238 O251 2.010 . S
O239 Mg238 2.028 . S
O239 C242 1.250 . S
O240 Mg241 2.028 . S
O240 C242 1.248 . S
Mg241 O240 2.028 . S
Mg241 O246 2.032 . S
Mg241 O248 2.079 . S
C242 O239 1.250 . S
C242 O240 1.248 . S
C243 O244 1.264 . S
C243 O251 1.249 . S
O244 C243 1.264 . S
O245 Mg238 1.986 . S
O245 C249 1.246 . S
O246 Mg241 2.032 . S
O246 C249 1.259 . S
O247 Mg238 2.114 . S
O247 C250 1.252 . S
O248 Mg238 2.251 . S
O248 Mg241 2.079 . S
O248 C250 1.273 . S
C249 O245 1.246 . S
C249 O246 1.259 . S
C250 O247 1.252 . S
C250 O248 1.273 . S
O251 Mg238 2.010 . S
O251 C243 1.249 . S
Mg252 O253 2.028 . S
Mg252 O259 1.986 . S
Mg252 O261 2.114 . S
Mg252 O262 2.251 . S
Mg252 O265 2.010 . S
O253 Mg252 2.028 . S
O253 C256 1.250 . S
O254 Mg255 2.028 . S
O254 C256 1.248 . S
Mg255 O254 2.028 . S
Mg255 O260 2.032 . S
Mg255 O262 2.079 . S
C256 O253 1.250 . S
C256 O254 1.248 . S
C257 O258 1.264 . S
C257 O265 1.249 . S
O258 C257 1.264 . S
O259 Mg252 1.986 . S
O259 C263 1.246 . S
O260 Mg255 2.032 . S
O260 C263 1.259 . S
O261 Mg252 2.114 . S
O261 C264 1.252 . S
O262 Mg252 2.251 . S
O262 Mg255 2.079 . S
O262 C264 1.273 . S
C263 O259 1.246 . S
C263 O260 1.259 . S
C264 O261 1.252 . S
C264 O262 1.273 . S
O265 Mg252 2.010 . S
O265 C257 1.249 . S
Mg266 O267 2.028 . S
Mg266 O273 1.986 . S
Mg266 O275 2.114 . S
Mg266 O276 2.251 . S
Mg266 O279 2.010 . S
O267 Mg266 2.028 . S
O267 C270 1.250 . S
O268 Mg269 2.028 . S
O268 C270 1.248 . S
Mg269 O268 2.028 . S
Mg269 O274 2.032 . S
Mg269 O276 2.079 . S
C270 O267 1.250 . S
C270 O268 1.248 . S
C271 O272 1.264 . S
C271 O279 1.249 . S
O272 C271 1.264 . S
O273 Mg266 1.986 . S
O273 C277 1.246 . S
O274 Mg269 2.032 . S
O274 C277 1.259 . S
O275 Mg266 2.114 . S
O275 C278 1.252 . S
O276 Mg266 2.251 . S
O276 Mg269 2.079 . S
O276 C278 1.273 . S
C277 O273 1.246 . S
C277 O274 1.259 . S
C278 O275 1.252 . S
C278 O276 1.273 . S
O279 Mg266 2.010 . S
O279 C271 1.249 . S
Mg280 O281 2.028 . S
Mg280 O287 1.986 . S
Mg280 O289 2.114 . S
Mg280 O290 2.251 . S
Mg280 O293 2.010 . S
O281 Mg280 2.028 . S
O281 C284 1.250 . S
O282 Mg283 2.028 . S
O282 C284 1.248 . S
Mg283 O282 2.028 . S
Mg283 O288 2.032 . S
Mg283 O290 2.079 . S
C284 O281 1.250 . S
C284 O282 1.248 . S
C285 O286 1.264 . S
C285 O293 1.249 . S
O286 C285 1.264 . S
O287 Mg280 1.986 . S
O287 C291 1.246 . S
O288 Mg283 2.032 . S
O288 C291 1.259 . S
O289 Mg280 2.114 . S
O289 C292 1.252 . S
O290 Mg280 2.251 . S
O290 Mg283 2.079 . S
O290 C292 1.273 . S
C291 O287 1.246 . S
C291 O288 1.259 . S
C292 O289 1.252 . S
C292 O290 1.273 . S
O293 Mg280 2.010 . S
O293 C285 1.249 . S
Mg294 O295 2.028 . S
Mg294 O301 1.986 . S
Mg294 O303 2.114 . S
Mg294 O304 2.251 . S
Mg294 O307 2.010 . S
O295 Mg294 2.028 . S
O295 C298 1.250 . S
O296 Mg297 2.028 . S
O296 C298 1.248 . S
Mg297 O296 2.028 . S
Mg297 O302 2.032 . S
Mg297 O304 2.079 . S
C298 O295 1.250 . S
C298 O296 1.248 . S
C299 O300 1.264 . S
C299 O307 1.249 . S
O300 C299 1.264 . S
O301 Mg294 1.986 . S
O301 C305 1.246 . S
O302 Mg297 2.032 . S
O302 C305 1.259 . S
O303 Mg294 2.114 . S
O303 C306 1.252 . S
O304 Mg294 2.251 . S
O304 Mg297 2.079 . S
O304 C306 1.273 . S
C305 O301 1.246 . S
C305 O302 1.259 . S
C306 O303 1.252 . S
C306 O304 1.273 . S
O307 Mg294 2.010 . S
O307 C299 1.249 . S
Mg308 O309 2.028 . S
Mg308 O315 1.986 . S
Mg308 O317 2.114 . S
Mg308 O318 2.251 . S
Mg308 O321 2.010 . S
O309 Mg308 2.028 . S
O309 C312 1.250 . S
O310 Mg311 2.028 . S
O310 C312 1.248 . S
Mg311 O310 2.028 . S
Mg311 O316 2.032 . S
Mg311 O318 2.079 . S
C312 O309 1.250 . S
C312 O310 1.248 . S
C313 O314 1.264 . S
C313 O321 1.249 . S
O314 C313 1.264 . S
O315 Mg308 1.986 . S
O315 C319 1.246 . S
O316 Mg311 2.032 . S
O316 C319 1.259 . S
O317 Mg308 2.114 . S
O317 C320 1.252 . S
O318 Mg308 2.251 . S
O318 Mg311 2.079 . S
O318 C320 1.273 . S
C319 O315 1.246 . S
C319 O316 1.259 . S
C320 O317 1.252 . S
C320 O318 1.273 . S
O321 Mg308 2.010 . S
O321 C313 1.249 . S
Mg322 O323 2.028 . S
Mg322 O329 1.986 . S
Mg322 O331 2.114 . S
Mg322 O332 2.251 . S
Mg322 O335 2.010 . S
O323 Mg322 2.028 . S
O323 C326 1.250 . S
O324 Mg325 2.028 . S
O324 C326 1.248 . S
Mg325 O324 2.028 . S
Mg325 O330 2.032 . S
Mg325 O332 2.079 . S
C326 O323 1.250 . S
C326 O324 1.248 . S
C327 O328 1.264 . S
C327 O335 1.249 . S
O328 C327 1.264 . S
O329 Mg322 1.986 . S
O329 C333 1.246 . S
O330 Mg325 2.032 . S
O330 C333 1.259 . S
O331 Mg322 2.114 . S
O331 C334 1.252 . S
O332 Mg322 2.251 . S
O332 Mg325 2.079 . S
O332 C334 1.273 . S
C333 O329 1.246 . S
C333 O330 1.259 . S
C334 O331 1.252 . S
C334 O332 1.273 . S
O335 Mg322 2.010 . S
O335 C327 1.249 . S
Mg336 O337 2.028 . S
Mg336 O343 1.986 . S
Mg336 O345 2.114 . S
Mg336 O346 2.251 . S
Mg336 O349 2.010 . S
O337 Mg336 2.028 . S
O337 C340 1.250 . S
O338 Mg339 2.028 . S
O338 C340 1.248 . S
Mg339 O338 2.028 . S
Mg339 O344 2.032 . S
Mg339 O346 2.079 . S
C340 O337 1.250 . S
C340 O338 1.248 . S
C341 O342 1.264 . S
C341 O349 1.249 . S
O342 C341 1.264 . S
O343 Mg336 1.986 . S
O343 C347 1.246 . S
O344 Mg339 2.032 . S
O344 C347 1.259 . S
O345 Mg336 2.114 . S
O345 C348 1.252 . S
O346 Mg336 2.251 . S
O346 Mg339 2.079 . S
O346 C348 1.273 . S
C347 O343 1.246 . S
C347 O344 1.259 . S
C348 O345 1.252 . S
C348 O346 1.273 . S
O349 Mg336 2.010 . S
O349 C341 1.249 . S
Mg350 O351 2.028 . S
Mg350 O357 1.986 . S
Mg350 O359 2.114 . S
Mg350 O360 2.251 . S
Mg350 O363 2.010 . S
O351 Mg350 2.028 . S
O351 C354 1.250 . S
O352 Mg353 2.028 . S
O352 C354 1.248 . S
Mg353 O352 2.028 . S
Mg353 O358 2.032 . S
Mg353 O360 2.079 . S
C354 O351 1.250 . S
C354 O352 1.248 . S
C355 O356 1.264 . S
C355 O363 1.249 . S
O356 C355 1.264 . S
O357 Mg350 1.986 . S
O357 C361 1.246 . S
O358 Mg353 2.032 . S
O358 C361 1.259 . S
O359 Mg350 2.114 . S
O359 C362 1.252 . S
O360 Mg350 2.251 . S
O360 Mg353 2.079 . S
O360 C362 1.273 . S
C361 O357 1.246 . S
C361 O358 1.259 . S
C362 O359 1.252 . S
C362 O360 1.273 . S
O363 Mg350 2.010 . S
O363 C355 1.249 . S
Mg364 O365 2.028 . S
Mg364 O371 1.986 . S
Mg364 O373 2.114 . S
Mg364 O374 2.251 . S
Mg364 O377 2.010 . S
O365 Mg364 2.028 . S
O365 C368 1.250 . S
O366 Mg367 2.028 . S
O366 C368 1.248 . S
Mg367 O366 2.028 . S
Mg367 O372 2.032 . S
Mg367 O374 2.079 . S
C368 O365 1.250 . S
C368 O366 1.248 . S
C369 O370 1.264 . S
C369 O377 1.249 . S
O370 C369 1.264 . S
O371 Mg364 1.986 . S
O371 C375 1.246 . S
O372 Mg367 2.032 . S
O372 C375 1.259 . S
O373 Mg364 2.114 . S
O373 C376 1.252 . S
O374 Mg364 2.251 . S
O374 Mg367 2.079 . S
O374 C376 1.273 . S
C375 O371 1.246 . S
C375 O372 1.259 . S
C376 O373 1.252 . S
C376 O374 1.273 . S
O377 Mg364 2.010 . S
O377 C369 1.249 . S
Mg378 O379 2.028 . S
Mg378 O385 1.986 . S
Mg378 O387 2.114 . S
Mg378 O388 2.251 . S
Mg378 O391 2.010 . S
O379 Mg378 2.028 . S
O379 C382 1.250 . S
O380 Mg381 2.028 . S
O380 C382 1.248 . S
Mg381 O380 2.028 . S
Mg381 O386 2.032 . S
Mg381 O388 2.079 . S
C382 O379 1.250 . S
C382 O380 1.248 . S
C383 O384 1.264 . S
C383 O391 1.249 . S
O384 C383 1.264 . S
O385 Mg378 1.986 . S
O385 C389 1.246 . S
O386 Mg381 2.032 . S
O386 C389 1.259 . S
O387 Mg378 2.114 . S
O387 C390 1.252 . S
O388 Mg378 2.251 . S
O388 Mg381 2.079 . S
O388 C390 1.273 . S
C389 O385 1.246 . S
C389 O386 1.259 . S
C390 O387 1.252 . S
C390 O388 1.273 . S
O391 Mg378 2.010 . S
O391 C383 1.249 . S
Mg392 O393 2.028 . S
Mg392 O399 1.986 . S
Mg392 O401 2.114 . S
Mg392 O402 2.251 . S
Mg392 O405 2.010 . S
O393 Mg392 2.028 . S
O393 C396 1.250 . S
O394 Mg395 2.028 . S
O394 C396 1.248 . S
Mg395 O394 2.028 . S
Mg395 O400 2.032 . S
Mg395 O402 2.079 . S
C396 O393 1.250 . S
C396 O394 1.248 . S
C397 O398 1.264 . S
C397 O405 1.249 . S
O398 C397 1.264 . S
O399 Mg392 1.986 . S
O399 C403 1.246 . S
O400 Mg395 2.032 . S
O400 C403 1.259 . S
O401 Mg392 2.114 . S
O401 C404 1.252 . S
O402 Mg392 2.251 . S
O402 Mg395 2.079 . S
O402 C404 1.273 . S
C403 O399 1.246 . S
C403 O400 1.259 . S
C404 O401 1.252 . S
C404 O402 1.273 . S
O405 Mg392 2.010 . S
O405 C397 1.249 . S
Mg406 O407 2.028 . S
Mg406 O413 1.986 . S
Mg406 O415 2.114 . S
Mg406 O416 2.251 . S
Mg406 O419 2.010 . S
O407 Mg406 2.028 . S
O407 C410 1.250 . S
O408 Mg409 2.028 . S
O408 C410 1.248 . S
Mg409 O408 2.028 . S
Mg409 O414 2.032 . S
Mg409 O416 2.079 . S
C410 O407 1.250 . S
C410 O408 1.248 . S
C411 O412 1.264 . S
C411 O419 1.249 . S
O412 C411 1.264 . S
O413 Mg406 1.986 . S
O413 C417 1.246 . S
O414 Mg409 2.032 . S
O414 C417 1.259 . S
O415 Mg406 2.114 . S
O415 C418 1.252 . S
O416 Mg406 2.251 . S
O416 Mg409 2.079 . S
O416 C418 1.273 . S
C417 O413 1.246 . S
C417 O414 1.259 . S
C418 O415 1.252 . S
C418 O416 1.273 . S
O419 Mg406 2.010 . S
O419 C411 1.249 . S
Mg420 O421 2.028 . S
Mg420 O427 1.986 . S
Mg420 O429 2.114 . S
Mg420 O430 2.251 . S
Mg420 O433 2.010 . S
O421 Mg420 2.028 . S
O421 C424 1.250 . S
O422 Mg423 2.028 . S
O422 C424 1.248 . S
Mg423 O422 2.028 . S
Mg423 O428 2.032 . S
Mg423 O430 2.079 . S
C424 O421 1.250 . S
C424 O422 1.248 . S
C425 O426 1.264 . S
C425 O433 1.249 . S
O426 C425 1.264 . S
O427 Mg420 1.986 . S
O427 C431 1.246 . S
O428 Mg423 2.032 . S
O428 C431 1.259 . S
O429 Mg420 2.114 . S
O429 C432 1.252 . S
O430 Mg420 2.251 . S
O430 Mg423 2.079 . S
O430 C432 1.273 . S
C431 O427 1.246 . S
C431 O428 1.259 . S
C432 O429 1.252 . S
C432 O430 1.273 . S
O433 Mg420 2.010 . S
O433 C425 1.249 . S
Mg434 O435 2.028 . S
Mg434 O441 1.986 . S
Mg434 O443 2.114 . S
Mg434 O444 2.251 . S
Mg434 O447 2.010 . S
O435 Mg434 2.028 . S
O435 C438 1.250 . S
O436 Mg437 2.028 . S
O436 C438 1.248 . S
Mg437 O436 2.028 . S
Mg437 O442 2.032 . S
Mg437 O444 2.079 . S
C438 O435 1.250 . S
C438 O436 1.248 . S
C439 O440 1.264 . S
C439 O447 1.249 . S
O440 C439 1.264 . S
O441 Mg434 1.986 . S
O441 C445 1.246 . S
O442 Mg437 2.032 . S
O442 C445 1.259 . S
O443 Mg434 2.114 . S
O443 C446 1.252 . S
O444 Mg434 2.251 . S
O444 Mg437 2.079 . S
O444 C446 1.273 . S
C445 O441 1.246 . S
C445 O442 1.259 . S
C446 O443 1.252 . S
C446 O444 1.273 . S
O447 Mg434 2.010 . S
O447 C439 1.249 . S
C448 C449 1.363 . S
C448 C454 1.379 . S
C448 N456 1.356 . S
C449 C448 1.363 . S
C449 C455 1.363 . S
C450 C451 1.363 . S
C450 C455 1.379 . S
C450 N457 1.356 . S
C451 C450 1.363 . S
C451 C454 1.363 . S
N452 C454 1.356 . S
N452 H464 0.984 . S
N452 H465 0.985 . S
N453 C455 1.356 . S
N453 H458 0.984 . S
N453 H459 0.985 . S
C454 C448 1.379 . S
C454 C451 1.363 . S
C454 N452 1.356 . S
C455 C449 1.363 . S
C455 C450 1.379 . S
C455 N453 1.356 . S
N456 C448 1.356 . S
N456 H462 0.984 . S
N456 H463 0.984 . S
N457 C450 1.356 . S
N457 H460 0.984 . S
N457 H461 0.985 . S
H458 N453 0.984 . S
H459 N453 0.985 . S
H460 N457 0.984 . S
H461 N457 0.985 . S
H462 N456 0.984 . S
H463 N456 0.984 . S
H464 N452 0.984 . S
H465 N452 0.985 . S
C466 C467 1.363 . S
C466 C472 1.379 . S
C466 N474 1.356 . S
C467 C466 1.363 . S
C467 C473 1.363 . S
C468 C469 1.363 . S
C468 C473 1.379 . S
C468 N475 1.356 . S
C469 C468 1.363 . S
C469 C472 1.363 . S
N470 C472 1.356 . S
N470 H482 0.984 . S
N470 H483 0.985 . S
N471 C473 1.356 . S
N471 H476 0.984 . S
N471 H477 0.985 . S
C472 C466 1.379 . S
C472 C469 1.363 . S
C472 N470 1.356 . S
C473 C467 1.363 . S
C473 C468 1.379 . S
C473 N471 1.356 . S
N474 C466 1.356 . S
N474 H480 0.984 . S
N474 H481 0.984 . S
N475 C468 1.356 . S
N475 H478 0.984 . S
N475 H479 0.985 . S
H476 N471 0.984 . S
H477 N471 0.985 . S
H478 N475 0.984 . S
H479 N475 0.985 . S
H480 N474 0.984 . S
H481 N474 0.984 . S
H482 N470 0.984 . S
H483 N470 0.985 . S
C484 C485 1.363 . S
C484 C490 1.379 . S
C484 N492 1.356 . S
C485 C484 1.363 . S
C485 C491 1.363 . S
C486 C487 1.363 . S
C486 C491 1.379 . S
C486 N493 1.356 . S
C487 C486 1.363 . S
C487 C490 1.363 . S
N488 C490 1.356 . S
N488 H500 0.984 . S
N488 H501 0.985 . S
N489 C491 1.356 . S
N489 H494 0.984 . S
N489 H495 0.985 . S
C490 C484 1.379 . S
C490 C487 1.363 . S
C490 N488 1.356 . S
C491 C485 1.363 . S
C491 C486 1.379 . S
C491 N489 1.356 . S
N492 C484 1.356 . S
N492 H498 0.984 . S
N492 H499 0.984 . S
N493 C486 1.356 . S
N493 H496 0.984 . S
N493 H497 0.985 . S
H494 N489 0.984 . S
H495 N489 0.985 . S
H496 N493 0.984 . S
H497 N493 0.985 . S
H498 N492 0.984 . S
H499 N492 0.984 . S
H500 N488 0.984 . S
H501 N488 0.985 . S
C502 C503 1.363 . S
C502 C508 1.379 . S
C502 N510 1.356 . S
C503 C502 1.363 . S
C503 C509 1.363 . S
C504 C505 1.363 . S
C504 C509 1.379 . S
C504 N511 1.356 . S
C505 C504 1.363 . S
C505 C508 1.363 . S
N506 C508 1.356 . S
N506 H518 0.984 . S
N506 H519 0.985 . S
N507 C509 1.356 . S
N507 H512 0.984 . S
N507 H513 0.985 . S
C508 C502 1.379 . S
C508 C505 1.363 . S
C508 N506 1.356 . S
C509 C503 1.363 . S
C509 C504 1.379 . S
C509 N507 1.356 . S
N510 C502 1.356 . S
N510 H516 0.984 . S
N510 H517 0.984 . S
N511 C504 1.356 . S
N511 H514 0.984 . S
N511 H515 0.985 . S
H512 N507 0.984 . S
H513 N507 0.985 . S
H514 N511 0.984 . S
H515 N511 0.985 . S
H516 N510 0.984 . S
H517 N510 0.984 . S
H518 N506 0.984 . S
H519 N506 0.985 . S
C520 C521 1.363 . S
C520 C526 1.379 . S
C520 N528 1.356 . S
C521 C520 1.363 . S
C521 C527 1.363 . S
C522 C523 1.363 . S
C522 C527 1.379 . S
C522 N529 1.356 . S
C523 C522 1.363 . S
C523 C526 1.363 . S
N524 C526 1.356 . S
N524 H536 0.984 . S
N524 H537 0.985 . S
N525 C527 1.356 . S
N525 H530 0.984 . S
N525 H531 0.985 . S
C526 C520 1.379 . S
C526 C523 1.363 . S
C526 N524 1.356 . S
C527 C521 1.363 . S
C527 C522 1.379 . S
C527 N525 1.356 . S
N528 C520 1.356 . S
N528 H534 0.984 . S
N528 H535 0.984 . S
N529 C522 1.356 . S
N529 H532 0.984 . S
N529 H533 0.985 . S
H530 N525 0.984 . S
H531 N525 0.985 . S
H532 N529 0.984 . S
H533 N529 0.985 . S
H534 N528 0.984 . S
H535 N528 0.984 . S
H536 N524 0.984 . S
H537 N524 0.985 . S
C538 C539 1.363 . S
C538 C544 1.379 . S
C538 N546 1.356 . S
C539 C538 1.363 . S
C539 C545 1.363 . S
C540 C541 1.363 . S
C540 C545 1.379 . S
C540 N547 1.356 . S
C541 C540 1.363 . S
C541 C544 1.363 . S
N542 C544 1.356 . S
N542 H554 0.984 . S
N542 H555 0.985 . S
N543 C545 1.356 . S
N543 H548 0.984 . S
N543 H549 0.985 . S
C544 C538 1.379 . S
C544 C541 1.363 . S
C544 N542 1.356 . S
C545 C539 1.363 . S
C545 C540 1.379 . S
C545 N543 1.356 . S
N546 C538 1.356 . S
N546 H552 0.984 . S
N546 H553 0.984 . S
N547 C540 1.356 . S
N547 H550 0.984 . S
N547 H551 0.985 . S
H548 N543 0.984 . S
H549 N543 0.985 . S
H550 N547 0.984 . S
H551 N547 0.985 . S
H552 N546 0.984 . S
H553 N546 0.984 . S
H554 N542 0.984 . S
H555 N542 0.985 . S
C556 C557 1.363 . S
C556 C562 1.379 . S
C556 N564 1.356 . S
C557 C556 1.363 . S
C557 C563 1.363 . S
C558 C559 1.363 . S
C558 C563 1.379 . S
C558 N565 1.356 . S
C559 C558 1.363 . S
C559 C562 1.363 . S
N560 C562 1.356 . S
N560 H572 0.984 . S
N560 H573 0.985 . S
N561 C563 1.356 . S
N561 H566 0.984 . S
N561 H567 0.985 . S
C562 C556 1.379 . S
C562 C559 1.363 . S
C562 N560 1.356 . S
C563 C557 1.363 . S
C563 C558 1.379 . S
C563 N561 1.356 . S
N564 C556 1.356 . S
N564 H570 0.984 . S
N564 H571 0.984 . S
N565 C558 1.356 . S
N565 H568 0.984 . S
N565 H569 0.985 . S
H566 N561 0.984 . S
H567 N561 0.985 . S
H568 N565 0.984 . S
H569 N565 0.985 . S
H570 N564 0.984 . S
H571 N564 0.984 . S
H572 N560 0.984 . S
H573 N560 0.985 . S
C574 C575 1.363 . S
C574 C580 1.379 . S
C574 N582 1.356 . S
C575 C574 1.363 . S
C575 C581 1.363 . S
C576 C577 1.363 . S
C576 C581 1.379 . S
C576 N583 1.356 . S
C577 C576 1.363 . S
C577 C580 1.363 . S
N578 C580 1.356 . S
N578 H590 0.984 . S
N578 H591 0.985 . S
N579 C581 1.356 . S
N579 H584 0.984 . S
N579 H585 0.985 . S
C580 C574 1.379 . S
C580 C577 1.363 . S
C580 N578 1.356 . S
C581 C575 1.363 . S
C581 C576 1.379 . S
C581 N579 1.356 . S
N582 C574 1.356 . S
N582 H588 0.984 . S
N582 H589 0.984 . S
N583 C576 1.356 . S
N583 H586 0.984 . S
N583 H587 0.985 . S
H584 N579 0.984 . S
H585 N579 0.985 . S
H586 N583 0.984 . S
H587 N583 0.985 . S
H588 N582 0.984 . S
H589 N582 0.984 . S
H590 N578 0.984 . S
H591 N578 0.985 . S
C592 C593 1.363 . S
C592 C598 1.379 . S
C592 N600 1.356 . S
C593 C592 1.363 . S
C593 C599 1.363 . S
C594 C595 1.363 . S
C594 C599 1.379 . S
C594 N601 1.356 . S
C595 C594 1.363 . S
C595 C598 1.363 . S
N596 C598 1.356 . S
N596 H608 0.984 . S
N596 H609 0.985 . S
N597 C599 1.356 . S
N597 H602 0.984 . S
N597 H603 0.985 . S
C598 C592 1.379 . S
C598 C595 1.363 . S
C598 N596 1.356 . S
C599 C593 1.363 . S
C599 C594 1.379 . S
C599 N597 1.356 . S
N600 C592 1.356 . S
N600 H606 0.984 . S
N600 H607 0.984 . S
N601 C594 1.356 . S
N601 H604 0.984 . S
N601 H605 0.985 . S
H602 N597 0.984 . S
H603 N597 0.985 . S
H604 N601 0.984 . S
H605 N601 0.985 . S
H606 N600 0.984 . S
H607 N600 0.984 . S
H608 N596 0.984 . S
H609 N596 0.985 . S
C610 C611 1.363 . S
C610 C616 1.379 . S
C610 N618 1.356 . S
C611 C610 1.363 . S
C611 C617 1.363 . S
C612 C613 1.363 . S
C612 C617 1.379 . S
C612 N619 1.356 . S
C613 C612 1.363 . S
C613 C616 1.363 . S
N614 C616 1.356 . S
N614 H626 0.984 . S
N614 H627 0.985 . S
N615 C617 1.356 . S
N615 H620 0.984 . S
N615 H621 0.985 . S
C616 C610 1.379 . S
C616 C613 1.363 . S
C616 N614 1.356 . S
C617 C611 1.363 . S
C617 C612 1.379 . S
C617 N615 1.356 . S
N618 C610 1.356 . S
N618 H624 0.984 . S
N618 H625 0.984 . S
N619 C612 1.356 . S
N619 H622 0.984 . S
N619 H623 0.985 . S
H620 N615 0.984 . S
H621 N615 0.985 . S
H622 N619 0.984 . S
H623 N619 0.985 . S
H624 N618 0.984 . S
H625 N618 0.984 . S
H626 N614 0.984 . S
H627 N614 0.985 . S
C628 C629 1.363 . S
C628 C634 1.379 . S
C628 N636 1.356 . S
C629 C628 1.363 . S
C629 C635 1.363 . S
C630 C631 1.363 . S
C630 C635 1.379 . S
C630 N637 1.356 . S
C631 C630 1.363 . S
C631 C634 1.363 . S
N632 C634 1.356 . S
N632 H644 0.984 . S
N632 H645 0.985 . S
N633 C635 1.356 . S
N633 H638 0.984 . S
N633 H639 0.985 . S
C634 C628 1.379 . S
C634 C631 1.363 . S
C634 N632 1.356 . S
C635 C629 1.363 . S
C635 C630 1.379 . S
C635 N633 1.356 . S
N636 C628 1.356 . S
N636 H642 0.984 . S
N636 H643 0.984 . S
N637 C630 1.356 . S
N637 H640 0.984 . S
N637 H641 0.985 . S
H638 N633 0.984 . S
H639 N633 0.985 . S
H640 N637 0.984 . S
H641 N637 0.985 . S
H642 N636 0.984 . S
H643 N636 0.984 . S
H644 N632 0.984 . S
H645 N632 0.985 . S
C646 C647 1.363 . S
C646 C652 1.379 . S
C646 N654 1.356 . S
C647 C646 1.363 . S
C647 C653 1.363 . S
C648 C649 1.363 . S
C648 C653 1.379 . S
C648 N655 1.356 . S
C649 C648 1.363 . S
C649 C652 1.363 . S
N650 C652 1.356 . S
N650 H662 0.984 . S
N650 H663 0.985 . S
N651 C653 1.356 . S
N651 H656 0.984 . S
N651 H657 0.985 . S
C652 C646 1.379 . S
C652 C649 1.363 . S
C652 N650 1.356 . S
C653 C647 1.363 . S
C653 C648 1.379 . S
C653 N651 1.356 . S
N654 C646 1.356 . S
N654 H660 0.984 . S
N654 H661 0.984 . S
N655 C648 1.356 . S
N655 H658 0.984 . S
N655 H659 0.985 . S
H656 N651 0.984 . S
H657 N651 0.985 . S
H658 N655 0.984 . S
H659 N655 0.985 . S
H660 N654 0.984 . S
H661 N654 0.984 . S
H662 N650 0.984 . S
H663 N650 0.985 . S
C664 C665 1.363 . S
C664 C670 1.379 . S
C664 N672 1.356 . S
C665 C664 1.363 . S
C665 C671 1.363 . S
C666 C667 1.363 . S
C666 C671 1.379 . S
C666 N673 1.356 . S
C667 C666 1.363 . S
C667 C670 1.363 . S
N668 C670 1.356 . S
N668 H680 0.984 . S
N668 H681 0.985 . S
N669 C671 1.356 . S
N669 H674 0.984 . S
N669 H675 0.985 . S
C670 C664 1.379 . S
C670 C667 1.363 . S
C670 N668 1.356 . S
C671 C665 1.363 . S
C671 C666 1.379 . S
C671 N669 1.356 . S
N672 C664 1.356 . S
N672 H678 0.984 . S
N672 H679 0.984 . S
N673 C666 1.356 . S
N673 H676 0.984 . S
N673 H677 0.985 . S
H674 N669 0.984 . S
H675 N669 0.985 . S
H676 N673 0.984 . S
H677 N673 0.985 . S
H678 N672 0.984 . S
H679 N672 0.984 . S
H680 N668 0.984 . S
H681 N668 0.985 . S
C682 C683 1.363 . S
C682 C688 1.379 . S
C682 N690 1.356 . S
C683 C682 1.363 . S
C683 C689 1.363 . S
C684 C685 1.363 . S
C684 C689 1.379 . S
C684 N691 1.356 . S
C685 C684 1.363 . S
C685 C688 1.363 . S
N686 C688 1.356 . S
N686 H698 0.984 . S
N686 H699 0.985 . S
N687 C689 1.356 . S
N687 H692 0.984 . S
N687 H693 0.985 . S
C688 C682 1.379 . S
C688 C685 1.363 . S
C688 N686 1.356 . S
C689 C683 1.363 . S
C689 C684 1.379 . S
C689 N687 1.356 . S
N690 C682 1.356 . S
N690 H696 0.984 . S
N690 H697 0.984 . S
N691 C684 1.356 . S
N691 H694 0.984 . S
N691 H695 0.985 . S
H692 N687 0.984 . S
H693 N687 0.985 . S
H694 N691 0.984 . S
H695 N691 0.985 . S
H696 N690 0.984 . S
H697 N690 0.984 . S
H698 N686 0.984 . S
H699 N686 0.985 . S
C700 C701 1.363 . S
C700 C706 1.379 . S
C700 N708 1.356 . S
C701 C700 1.363 . S
C701 C707 1.363 . S
C702 C703 1.363 . S
C702 C707 1.379 . S
C702 N709 1.356 . S
C703 C702 1.363 . S
C703 C706 1.363 . S
N704 C706 1.356 . S
N704 H716 0.984 . S
N704 H717 0.985 . S
N705 C707 1.356 . S
N705 H710 0.984 . S
N705 H711 0.985 . S
C706 C700 1.379 . S
C706 C703 1.363 . S
C706 N704 1.356 . S
C707 C701 1.363 . S
C707 C702 1.379 . S
C707 N705 1.356 . S
N708 C700 1.356 . S
N708 H714 0.984 . S
N708 H715 0.984 . S
N709 C702 1.356 . S
N709 H712 0.984 . S
N709 H713 0.985 . S
H710 N705 0.984 . S
H711 N705 0.985 . S
H712 N709 0.984 . S
H713 N709 0.985 . S
H714 N708 0.984 . S
H715 N708 0.984 . S
H716 N704 0.984 . S
H717 N704 0.985 . S
C718 C719 1.363 . S
C718 C724 1.379 . S
C718 N726 1.356 . S
C719 C718 1.363 . S
C719 C725 1.363 . S
C720 C721 1.363 . S
C720 C725 1.379 . S
C720 N727 1.356 . S
C721 C720 1.363 . S
C721 C724 1.363 . S
N722 C724 1.356 . S
N722 H734 0.984 . S
N722 H735 0.985 . S
N723 C725 1.356 . S
N723 H728 0.984 . S
N723 H729 0.985 . S
C724 C718 1.379 . S
C724 C721 1.363 . S
C724 N722 1.356 . S
C725 C719 1.363 . S
C725 C720 1.379 . S
C725 N723 1.356 . S
N726 C718 1.356 . S
N726 H732 0.984 . S
N726 H733 0.984 . S
N727 C720 1.356 . S
N727 H730 0.984 . S
N727 H731 0.985 . S
H728 N723 0.984 . S
H729 N723 0.985 . S
H730 N727 0.984 . S
H731 N727 0.985 . S
H732 N726 0.984 . S
H733 N726 0.984 . S
H734 N722 0.984 . S
H735 N722 0.985 . S
C736 C737 1.363 . S
C736 C742 1.379 1_655 S
C736 N744 1.356 . S
C737 C736 1.363 . S
C737 C743 1.363 . S
C738 C739 1.363 . S
C738 C743 1.379 1_455 S
C738 N745 1.356 . S
C739 C738 1.363 . S
C739 C742 1.363 . S
N740 C742 1.356 . S
N740 H752 0.984 . S
N740 H753 0.985 . S
N741 C743 1.356 . S
N741 H746 0.984 . S
N741 H747 0.985 . S
C742 C736 1.379 1_455 S
C742 C739 1.363 . S
C742 N740 1.356 . S
C743 C737 1.363 . S
C743 C738 1.379 1_655 S
C743 N741 1.356 . S
N744 C736 1.356 . S
N744 H750 0.984 . S
N744 H751 0.984 . S
N745 C738 1.356 . S
N745 H748 0.984 . S
N745 H749 0.985 . S
H746 N741 0.984 . S
H747 N741 0.985 . S
H748 N745 0.984 . S
H749 N745 0.985 . S
H750 N744 0.984 . S
H751 N744 0.984 . S
H752 N740 0.984 . S
H753 N740 0.985 . S
C754 C755 1.363 . S
C754 C760 1.379 1_545 S
C754 N762 1.356 . S
C755 C754 1.363 . S
C755 C761 1.363 . S
C756 C757 1.363 . S
C756 C761 1.379 1_565 S
C756 N763 1.356 . S
C757 C756 1.363 . S
C757 C760 1.363 . S
N758 C760 1.356 . S
N758 H770 0.984 . S
N758 H771 0.985 . S
N759 C761 1.356 . S
N759 H764 0.984 . S
N759 H765 0.985 . S
C760 C754 1.379 1_565 S
C760 C757 1.363 . S
C760 N758 1.356 . S
C761 C755 1.363 . S
C761 C756 1.379 1_545 S
C761 N759 1.356 . S
N762 C754 1.356 . S
N762 H768 0.984 . S
N762 H769 0.984 . S
N763 C756 1.356 . S
N763 H766 0.984 . S
N763 H767 0.985 . S
H764 N759 0.984 . S
H765 N759 0.985 . S
H766 N763 0.984 . S
H767 N763 0.985 . S
H768 N762 0.984 . S
H769 N762 0.984 . S
H770 N758 0.984 . S
H771 N758 0.985 . S
C772 C773 1.363 . S
C772 C778 1.379 1_455 S
C772 N780 1.356 . S
C773 C772 1.363 . S
C773 C779 1.363 . S
C774 C775 1.363 . S
C774 C779 1.379 1_655 S
C774 N781 1.356 . S
C775 C774 1.363 . S
C775 C778 1.363 . S
N776 C778 1.356 . S
N776 H788 0.984 . S
N776 H789 0.985 . S
N777 C779 1.356 . S
N777 H782 0.984 . S
N777 H783 0.985 . S
C778 C772 1.379 1_655 S
C778 C775 1.363 . S
C778 N776 1.356 . S
C779 C773 1.363 . S
C779 C774 1.379 1_455 S
C779 N777 1.356 . S
N780 C772 1.356 . S
N780 H786 0.984 . S
N780 H787 0.984 . S
N781 C774 1.356 . S
N781 H784 0.984 . S
N781 H785 0.985 . S
H782 N777 0.984 . S
H783 N777 0.985 . S
H784 N781 0.984 . S
H785 N781 0.985 . S
H786 N780 0.984 . S
H787 N780 0.984 . S
H788 N776 0.984 . S
H789 N776 0.985 . S
C790 C791 1.363 . S
C790 C796 1.379 1_565 S
C790 N798 1.356 . S
C791 C790 1.363 . S
C791 C797 1.363 . S
C792 C793 1.363 . S
C792 C797 1.379 1_545 S
C792 N799 1.356 . S
C793 C792 1.363 . S
C793 C796 1.363 . S
N794 C796 1.356 . S
N794 H806 0.984 . S
N794 H807 0.985 . S
N795 C797 1.356 . S
N795 H800 0.984 . S
N795 H801 0.985 . S
C796 C790 1.379 1_545 S
C796 C793 1.363 . S
C796 N794 1.356 . S
C797 C791 1.363 . S
C797 C792 1.379 1_565 S
C797 N795 1.356 . S
N798 C790 1.356 . S
N798 H804 0.984 . S
N798 H805 0.984 . S
N799 C792 1.356 . S
N799 H802 0.984 . S
N799 H803 0.985 . S
H800 N795 0.984 . S
H801 N795 0.985 . S
H802 N799 0.984 . S
H803 N799 0.985 . S
H804 N798 0.984 . S
H805 N798 0.984 . S
H806 N794 0.984 . S
H807 N794 0.985 . S
C808 C809 1.363 . S
C808 C814 1.379 1_455 S
C808 N816 1.356 . S
C809 C808 1.363 . S
C809 C815 1.363 . S
C810 C811 1.363 . S
C810 C815 1.379 1_655 S
C810 N817 1.356 . S
C811 C810 1.363 . S
C811 C814 1.363 . S
N812 C814 1.356 . S
N812 H824 0.984 . S
N812 H825 0.985 . S
N813 C815 1.356 . S
N813 H818 0.984 . S
N813 H819 0.985 . S
C814 C808 1.379 1_655 S
C814 C811 1.363 . S
C814 N812 1.356 . S
C815 C809 1.363 . S
C815 C810 1.379 1_455 S
C815 N813 1.356 . S
N816 C808 1.356 . S
N816 H822 0.984 . S
N816 H823 0.984 . S
N817 C810 1.356 . S
N817 H820 0.984 . S
N817 H821 0.985 . S
H818 N813 0.984 . S
H819 N813 0.985 . S
H820 N817 0.984 . S
H821 N817 0.985 . S
H822 N816 0.984 . S
H823 N816 0.984 . S
H824 N812 0.984 . S
H825 N812 0.985 . S
C826 C827 1.363 . S
C826 C832 1.379 1_565 S
C826 N834 1.356 . S
C827 C826 1.363 . S
C827 C833 1.363 . S
C828 C829 1.363 . S
C828 C833 1.379 1_545 S
C828 N835 1.356 . S
C829 C828 1.363 . S
C829 C832 1.363 . S
N830 C832 1.356 . S
N830 H842 0.984 . S
N830 H843 0.985 . S
N831 C833 1.356 . S
N831 H836 0.984 . S
N831 H837 0.985 . S
C832 C826 1.379 1_545 S
C832 C829 1.363 . S
C832 N830 1.356 . S
C833 C827 1.363 . S
C833 C828 1.379 1_565 S
C833 N831 1.356 . S
N834 C826 1.356 . S
N834 H840 0.984 . S
N834 H841 0.984 . S
N835 C828 1.356 . S
N835 H838 0.984 . S
N835 H839 0.985 . S
H836 N831 0.984 . S
H837 N831 0.985 . S
H838 N835 0.984 . S
H839 N835 0.985 . S
H840 N834 0.984 . S
H841 N834 0.984 . S
H842 N830 0.984 . S
H843 N830 0.985 . S
C844 C845 1.363 . S
C844 C850 1.379 1_455 S
C844 N852 1.356 . S
C845 C844 1.363 . S
C845 C851 1.363 . S
C846 C847 1.363 . S
C846 C851 1.379 1_655 S
C846 N853 1.356 . S
C847 C846 1.363 . S
C847 C850 1.363 . S
N848 C850 1.356 . S
N848 H860 0.984 . S
N848 H861 0.985 . S
N849 C851 1.356 . S
N849 H854 0.984 . S
N849 H855 0.985 . S
C850 C844 1.379 1_655 S
C850 C847 1.363 . S
C850 N848 1.356 . S
C851 C845 1.363 . S
C851 C846 1.379 1_455 S
C851 N849 1.356 . S
N852 C844 1.356 . S
N852 H858 0.984 . S
N852 H859 0.984 . S
N853 C846 1.356 . S
N853 H856 0.984 . S
N853 H857 0.985 . S
H854 N849 0.984 . S
H855 N849 0.985 . S
H856 N853 0.984 . S
H857 N853 0.985 . S
H858 N852 0.984 . S
H859 N852 0.984 . S
H860 N848 0.984 . S
H861 N848 0.985 . S
C862 C863 1.363 . S
C862 C868 1.379 1_545 S
C862 N870 1.356 . S
C863 C862 1.363 . S
C863 C869 1.363 . S
C864 C865 1.363 . S
C864 C869 1.379 1_565 S
C864 N871 1.356 . S
C865 C864 1.363 . S
C865 C868 1.363 . S
N866 C868 1.356 . S
N866 H878 0.984 . S
N866 H879 0.985 . S
N867 C869 1.356 . S
N867 H872 0.984 . S
N867 H873 0.985 . S
C868 C862 1.379 1_565 S
C868 C865 1.363 . S
C868 N866 1.356 . S
C869 C863 1.363 . S
C869 C864 1.379 1_545 S
C869 N867 1.356 . S
N870 C862 1.356 . S
N870 H876 0.984 . S
N870 H877 0.984 . S
N871 C864 1.356 . S
N871 H874 0.984 . S
N871 H875 0.985 . S
H872 N867 0.984 . S
H873 N867 0.985 . S
H874 N871 0.984 . S
H875 N871 0.985 . S
H876 N870 0.984 . S
H877 N870 0.984 . S
H878 N866 0.984 . S
H879 N866 0.985 . S
C880 C881 1.363 . S
C880 C886 1.379 . S
C880 N888 1.356 . S
C881 C880 1.363 . S
C881 C887 1.363 . S
C882 C883 1.363 . S
C882 C887 1.379 . S
C882 N889 1.356 . S
C883 C882 1.363 . S
C883 C886 1.363 . S
N884 C886 1.356 . S
N884 H896 0.984 . S
N884 H897 0.985 . S
N885 C887 1.356 . S
N885 H890 0.984 . S
N885 H891 0.985 . S
C886 C880 1.379 . S
C886 C883 1.363 . S
C886 N884 1.356 . S
C887 C881 1.363 . S
C887 C882 1.379 . S
C887 N885 1.356 . S
N888 C880 1.356 . S
N888 H894 0.984 . S
N888 H895 0.984 . S
N889 C882 1.356 . S
N889 H892 0.984 . S
N889 H893 0.985 . S
H890 N885 0.984 . S
H891 N885 0.985 . S
H892 N889 0.984 . S
H893 N889 0.985 . S
H894 N888 0.984 . S
H895 N888 0.984 . S
H896 N884 0.984 . S
H897 N884 0.985 . S
C898 C899 1.363 . S
C898 C904 1.379 . S
C898 N906 1.356 . S
C899 C898 1.363 . S
C899 C905 1.363 . S
C900 C901 1.363 . S
C900 C905 1.379 . S
C900 N907 1.356 . S
C901 C900 1.363 . S
C901 C904 1.363 . S
N902 C904 1.356 . S
N902 H914 0.984 . S
N902 H915 0.985 . S
N903 C905 1.356 . S
N903 H908 0.984 . S
N903 H909 0.985 . S
C904 C898 1.379 . S
C904 C901 1.363 . S
C904 N902 1.356 . S
C905 C899 1.363 . S
C905 C900 1.379 . S
C905 N903 1.356 . S
N906 C898 1.356 . S
N906 H912 0.984 . S
N906 H913 0.984 . S
N907 C900 1.356 . S
N907 H910 0.984 . S
N907 H911 0.985 . S
H908 N903 0.984 . S
H909 N903 0.985 . S
H910 N907 0.984 . S
H911 N907 0.985 . S
H912 N906 0.984 . S
H913 N906 0.984 . S
H914 N902 0.984 . S
H915 N902 0.985 . S
C916 C917 1.363 . S
C916 C922 1.379 . S
C916 N924 1.356 . S
C917 C916 1.363 . S
C917 C923 1.363 . S
C918 C919 1.363 . S
C918 C923 1.379 . S
C918 N925 1.356 . S
C919 C918 1.363 . S
C919 C922 1.363 . S
N920 C922 1.356 . S
N920 H932 0.984 . S
N920 H933 0.985 . S
N921 C923 1.356 . S
N921 H926 0.984 . S
N921 H927 0.985 . S
C922 C916 1.379 . S
C922 C919 1.363 . S
C922 N920 1.356 . S
C923 C917 1.363 . S
C923 C918 1.379 . S
C923 N921 1.356 . S
N924 C916 1.356 . S
N924 H930 0.984 . S
N924 H931 0.984 . S
N925 C918 1.356 . S
N925 H928 0.984 . S
N925 H929 0.985 . S
H926 N921 0.984 . S
H927 N921 0.985 . S
H928 N925 0.984 . S
H929 N925 0.985 . S
H930 N924 0.984 . S
H931 N924 0.984 . S
H932 N920 0.984 . S
H933 N920 0.985 . S
C934 C935 1.363 . S
C934 C940 1.379 . S
C934 N942 1.356 . S
C935 C934 1.363 . S
C935 C941 1.363 . S
C936 C937 1.363 . S
C936 C941 1.379 . S
C936 N943 1.356 . S
C937 C936 1.363 . S
C937 C940 1.363 . S
N938 C940 1.356 . S
N938 H950 0.984 . S
N938 H951 0.985 . S
N939 C941 1.356 . S
N939 H944 0.984 . S
N939 H945 0.985 . S
C940 C934 1.379 . S
C940 C937 1.363 . S
C940 N938 1.356 . S
C941 C935 1.363 . S
C941 C936 1.379 . S
C941 N939 1.356 . S
N942 C934 1.356 . S
N942 H948 0.984 . S
N942 H949 0.984 . S
N943 C936 1.356 . S
N943 H946 0.984 . S
N943 H947 0.985 . S
H944 N939 0.984 . S
H945 N939 0.985 . S
H946 N943 0.984 . S
H947 N943 0.985 . S
H948 N942 0.984 . S
H949 N942 0.984 . S
H950 N938 0.984 . S
H951 N938 0.985 . S
C952 C953 1.363 . S
C952 C958 1.379 . S
C952 N960 1.356 . S
C953 C952 1.363 . S
C953 C959 1.363 . S
C954 C955 1.363 . S
C954 C959 1.379 . S
C954 N961 1.356 . S
C955 C954 1.363 . S
C955 C958 1.363 . S
N956 C958 1.356 . S
N956 H968 0.984 . S
N956 H969 0.985 . S
N957 C959 1.356 . S
N957 H962 0.984 . S
N957 H963 0.985 . S
C958 C952 1.379 . S
C958 C955 1.363 . S
C958 N956 1.356 . S
C959 C953 1.363 . S
C959 C954 1.379 . S
C959 N957 1.356 . S
N960 C952 1.356 . S
N960 H966 0.984 . S
N960 H967 0.984 . S
N961 C954 1.356 . S
N961 H964 0.984 . S
N961 H965 0.985 . S
H962 N957 0.984 . S
H963 N957 0.985 . S
H964 N961 0.984 . S
H965 N961 0.985 . S
H966 N960 0.984 . S
H967 N960 0.984 . S
H968 N956 0.984 . S
H969 N956 0.985 . S
C970 C971 1.363 . S
C970 C976 1.379 . S
C970 N978 1.356 . S
C971 C970 1.363 . S
C971 C977 1.363 . S
C972 C973 1.363 . S
C972 C977 1.379 . S
C972 N979 1.356 . S
C973 C972 1.363 . S
C973 C976 1.363 . S
N974 C976 1.356 . S
N974 H986 0.984 . S
N974 H987 0.985 . S
N975 C977 1.356 . S
N975 H980 0.984 . S
N975 H981 0.985 . S
C976 C970 1.379 . S
C976 C973 1.363 . S
C976 N974 1.356 . S
C977 C971 1.363 . S
C977 C972 1.379 . S
C977 N975 1.356 . S
N978 C970 1.356 . S
N978 H984 0.984 . S
N978 H985 0.984 . S
N979 C972 1.356 . S
N979 H982 0.984 . S
N979 H983 0.985 . S
H980 N975 0.984 . S
H981 N975 0.985 . S
H982 N979 0.984 . S
H983 N979 0.985 . S
H984 N978 0.984 . S
H985 N978 0.984 . S
H986 N974 0.984 . S
H987 N974 0.985 . S
C988 C989 1.363 . S
C988 C994 1.379 . S
C988 N996 1.356 . S
C989 C988 1.363 . S
C989 C995 1.363 . S
C990 C991 1.363 . S
C990 C995 1.379 . S
C990 N997 1.356 . S
C991 C990 1.363 . S
C991 C994 1.363 . S
N992 C994 1.356 . S
N992 H1004 0.984 . S
N992 H1005 0.985 . S
N993 C995 1.356 . S
N993 H998 0.984 . S
N993 H999 0.985 . S
C994 C988 1.379 . S
C994 C991 1.363 . S
C994 N992 1.356 . S
C995 C989 1.363 . S
C995 C990 1.379 . S
C995 N993 1.356 . S
N996 C988 1.356 . S
N996 H1002 0.984 . S
N996 H1003 0.984 . S
N997 C990 1.356 . S
N997 H1000 0.984 . S
N997 H1001 0.985 . S
H998 N993 0.984 . S
H999 N993 0.985 . S
H1000 N997 0.984 . S
H1001 N997 0.985 . S
H1002 N996 0.984 . S
H1003 N996 0.984 . S
H1004 N992 0.984 . S
H1005 N992 0.985 . S
C1006 C1007 1.363 . S
C1006 C1012 1.379 . S
C1006 N1014 1.356 . S
C1007 C1006 1.363 . S
C1007 C1013 1.363 . S
C1008 C1009 1.363 . S
C1008 C1013 1.379 . S
C1008 N1015 1.356 . S
C1009 C1008 1.363 . S
C1009 C1012 1.363 . S
N1010 C1012 1.356 . S
N1010 H1022 0.984 . S
N1010 H1023 0.985 . S
N1011 C1013 1.356 . S
N1011 H1016 0.984 . S
N1011 H1017 0.985 . S
C1012 C1006 1.379 . S
C1012 C1009 1.363 . S
C1012 N1010 1.356 . S
C1013 C1007 1.363 . S
C1013 C1008 1.379 . S
C1013 N1011 1.356 . S
N1014 C1006 1.356 . S
N1014 H1020 0.984 . S
N1014 H1021 0.984 . S
N1015 C1008 1.356 . S
N1015 H1018 0.984 . S
N1015 H1019 0.985 . S
H1016 N1011 0.984 . S
H1017 N1011 0.985 . S
H1018 N1015 0.984 . S
H1019 N1015 0.985 . S
H1020 N1014 0.984 . S
H1021 N1014 0.984 . S
H1022 N1010 0.984 . S
H1023 N1010 0.985 . S
C1024 C1025 1.363 . S
C1024 C1030 1.379 . S
C1024 N1032 1.356 . S
C1025 C1024 1.363 . S
C1025 C1031 1.363 . S
C1026 C1027 1.363 . S
C1026 C1031 1.379 . S
C1026 N1033 1.356 . S
C1027 C1026 1.363 . S
C1027 C1030 1.363 . S
N1028 C1030 1.356 . S
N1028 H1040 0.984 . S
N1028 H1041 0.985 . S
N1029 C1031 1.356 . S
N1029 H1034 0.984 . S
N1029 H1035 0.985 . S
C1030 C1024 1.379 . S
C1030 C1027 1.363 . S
C1030 N1028 1.356 . S
C1031 C1025 1.363 . S
C1031 C1026 1.379 . S
C1031 N1029 1.356 . S
N1032 C1024 1.356 . S
N1032 H1038 0.984 . S
N1032 H1039 0.984 . S
N1033 C1026 1.356 . S
N1033 H1036 0.984 . S
N1033 H1037 0.985 . S
H1034 N1029 0.984 . S
H1035 N1029 0.985 . S
H1036 N1033 0.984 . S
H1037 N1033 0.985 . S
H1038 N1032 0.984 . S
H1039 N1032 0.984 . S
H1040 N1028 0.984 . S
H1041 N1028 0.985 . S
C1042 C1043 1.363 . S
C1042 C1048 1.379 . S
C1042 N1050 1.356 . S
C1043 C1042 1.363 . S
C1043 C1049 1.363 . S
C1044 C1045 1.363 . S
C1044 C1049 1.379 . S
C1044 N1051 1.356 . S
C1045 C1044 1.363 . S
C1045 C1048 1.363 . S
N1046 C1048 1.356 . S
N1046 H1058 0.984 . S
N1046 H1059 0.985 . S
N1047 C1049 1.356 . S
N1047 H1052 0.984 . S
N1047 H1053 0.985 . S
C1048 C1042 1.379 . S
C1048 C1045 1.363 . S
C1048 N1046 1.356 . S
C1049 C1043 1.363 . S
C1049 C1044 1.379 . S
C1049 N1047 1.356 . S
N1050 C1042 1.356 . S
N1050 H1056 0.984 . S
N1050 H1057 0.984 . S
N1051 C1044 1.356 . S
N1051 H1054 0.984 . S
N1051 H1055 0.985 . S
H1052 N1047 0.984 . S
H1053 N1047 0.985 . S
H1054 N1051 0.984 . S
H1055 N1051 0.985 . S
H1056 N1050 0.984 . S
H1057 N1050 0.984 . S
H1058 N1046 0.984 . S
H1059 N1046 0.985 . S
C1060 C1061 1.363 . S
C1060 C1066 1.379 . S
C1060 N1068 1.356 . S
C1061 C1060 1.363 . S
C1061 C1067 1.363 . S
C1062 C1063 1.363 . S
C1062 C1067 1.379 . S
C1062 N1069 1.356 . S
C1063 C1062 1.363 . S
C1063 C1066 1.363 . S
N1064 C1066 1.356 . S
N1064 H1076 0.984 . S
N1064 H1077 0.985 . S
N1065 C1067 1.356 . S
N1065 H1070 0.984 . S
N1065 H1071 0.985 . S
C1066 C1060 1.379 . S
C1066 C1063 1.363 . S
C1066 N1064 1.356 . S
C1067 C1061 1.363 . S
C1067 C1062 1.379 . S
C1067 N1065 1.356 . S
N1068 C1060 1.356 . S
N1068 H1074 0.984 . S
N1068 H1075 0.984 . S
N1069 C1062 1.356 . S
N1069 H1072 0.984 . S
N1069 H1073 0.985 . S
H1070 N1065 0.984 . S
H1071 N1065 0.985 . S
H1072 N1069 0.984 . S
H1073 N1069 0.985 . S
H1074 N1068 0.984 . S
H1075 N1068 0.984 . S
H1076 N1064 0.984 . S
H1077 N1064 0.985 . S
C1078 C1079 1.363 . S
C1078 C1084 1.379 . S
C1078 N1086 1.356 . S
C1079 C1078 1.363 . S
C1079 C1085 1.363 . S
C1080 C1081 1.363 . S
C1080 C1085 1.379 . S
C1080 N1087 1.356 . S
C1081 C1080 1.363 . S
C1081 C1084 1.363 . S
N1082 C1084 1.356 . S
N1082 H1094 0.984 . S
N1082 H1095 0.985 . S
N1083 C1085 1.356 . S
N1083 H1088 0.984 . S
N1083 H1089 0.985 . S
C1084 C1078 1.379 . S
C1084 C1081 1.363 . S
C1084 N1082 1.356 . S
C1085 C1079 1.363 . S
C1085 C1080 1.379 . S
C1085 N1083 1.356 . S
N1086 C1078 1.356 . S
N1086 H1092 0.984 . S
N1086 H1093 0.984 . S
N1087 C1080 1.356 . S
N1087 H1090 0.984 . S
N1087 H1091 0.985 . S
H1088 N1083 0.984 . S
H1089 N1083 0.985 . S
H1090 N1087 0.984 . S
H1091 N1087 0.985 . S
H1092 N1086 0.984 . S
H1093 N1086 0.984 . S
H1094 N1082 0.984 . S
H1095 N1082 0.985 . S
C1096 C1097 1.363 . S
C1096 C1102 1.379 . S
C1096 N1104 1.356 . S
C1097 C1096 1.363 . S
C1097 C1103 1.363 . S
C1098 C1099 1.363 . S
C1098 C1103 1.379 . S
C1098 N1105 1.356 . S
C1099 C1098 1.363 . S
C1099 C1102 1.363 . S
N1100 C1102 1.356 . S
N1100 H1112 0.984 . S
N1100 H1113 0.985 . S
N1101 C1103 1.356 . S
N1101 H1106 0.984 . S
N1101 H1107 0.985 . S
C1102 C1096 1.379 . S
C1102 C1099 1.363 . S
C1102 N1100 1.356 . S
C1103 C1097 1.363 . S
C1103 C1098 1.379 . S
C1103 N1101 1.356 . S
N1104 C1096 1.356 . S
N1104 H1110 0.984 . S
N1104 H1111 0.984 . S
N1105 C1098 1.356 . S
N1105 H1108 0.984 . S
N1105 H1109 0.985 . S
H1106 N1101 0.984 . S
H1107 N1101 0.985 . S
H1108 N1105 0.984 . S
H1109 N1105 0.985 . S
H1110 N1104 0.984 . S
H1111 N1104 0.984 . S
H1112 N1100 0.984 . S
H1113 N1100 0.985 . S
C1114 C1115 1.363 . S
C1114 C1120 1.379 . S
C1114 N1122 1.356 . S
C1115 C1114 1.363 . S
C1115 C1121 1.363 . S
C1116 C1117 1.363 . S
C1116 C1121 1.379 . S
C1116 N1123 1.356 . S
C1117 C1116 1.363 . S
C1117 C1120 1.363 . S
N1118 C1120 1.356 . S
N1118 H1130 0.984 . S
N1118 H1131 0.985 . S
N1119 C1121 1.356 . S
N1119 H1124 0.984 . S
N1119 H1125 0.985 . S
C1120 C1114 1.379 . S
C1120 C1117 1.363 . S
C1120 N1118 1.356 . S
C1121 C1115 1.363 . S
C1121 C1116 1.379 . S
C1121 N1119 1.356 . S
N1122 C1114 1.356 . S
N1122 H1128 0.984 . S
N1122 H1129 0.984 . S
N1123 C1116 1.356 . S
N1123 H1126 0.984 . S
N1123 H1127 0.985 . S
H1124 N1119 0.984 . S
H1125 N1119 0.985 . S
H1126 N1123 0.984 . S
H1127 N1123 0.985 . S
H1128 N1122 0.984 . S
H1129 N1122 0.984 . S
H1130 N1118 0.984 . S
H1131 N1118 0.985 . S
C1132 C1133 1.363 . S
C1132 C1138 1.379 . S
C1132 N1140 1.356 . S
C1133 C1132 1.363 . S
C1133 C1139 1.363 . S
C1134 C1135 1.363 . S
C1134 C1139 1.379 . S
C1134 N1141 1.356 . S
C1135 C1134 1.363 . S
C1135 C1138 1.363 . S
N1136 C1138 1.356 . S
N1136 H1148 0.984 . S
N1136 H1149 0.985 . S
N1137 C1139 1.356 . S
N1137 H1142 0.984 . S
N1137 H1143 0.985 . S
C1138 C1132 1.379 . S
C1138 C1135 1.363 . S
C1138 N1136 1.356 . S
C1139 C1133 1.363 . S
C1139 C1134 1.379 . S
C1139 N1137 1.356 . S
N1140 C1132 1.356 . S
N1140 H1146 0.984 . S
N1140 H1147 0.984 . S
N1141 C1134 1.356 . S
N1141 H1144 0.984 . S
N1141 H1145 0.985 . S
H1142 N1137 0.984 . S
H1143 N1137 0.985 . S
H1144 N1141 0.984 . S
H1145 N1141 0.985 . S
H1146 N1140 0.984 . S
H1147 N1140 0.984 . S
H1148 N1136 0.984 . S
H1149 N1136 0.985 . S
C1150 C1151 1.363 . S
C1150 C1156 1.379 . S
C1150 N1158 1.356 . S
C1151 C1150 1.363 . S
C1151 C1157 1.363 . S
C1152 C1153 1.363 . S
C1152 C1157 1.379 . S
C1152 N1159 1.356 . S
C1153 C1152 1.363 . S
C1153 C1156 1.363 . S
N1154 C1156 1.356 . S
N1154 H1166 0.984 . S
N1154 H1167 0.985 . S
N1155 C1157 1.356 . S
N1155 H1160 0.984 . S
N1155 H1161 0.985 . S
C1156 C1150 1.379 . S
C1156 C1153 1.363 . S
C1156 N1154 1.356 . S
C1157 C1151 1.363 . S
C1157 C1152 1.379 . S
C1157 N1155 1.356 . S
N1158 C1150 1.356 . S
N1158 H1164 0.984 . S
N1158 H1165 0.984 . S
N1159 C1152 1.356 . S
N1159 H1162 0.984 . S
N1159 H1163 0.985 . S
H1160 N1155 0.984 . S
H1161 N1155 0.985 . S
H1162 N1159 0.984 . S
H1163 N1159 0.985 . S
H1164 N1158 0.984 . S
H1165 N1158 0.984 . S
H1166 N1154 0.984 . S
H1167 N1154 0.985 . S
C1168 C1169 1.363 . S
C1168 C1174 1.379 1_554 S
C1168 N1176 1.356 . S
C1169 C1168 1.363 . S
C1169 C1175 1.363 . S
C1170 C1171 1.363 . S
C1170 C1175 1.379 1_556 S
C1170 N1177 1.356 . S
C1171 C1170 1.363 . S
C1171 C1174 1.363 . S
N1172 C1174 1.356 . S
N1172 H1184 0.984 . S
N1172 H1185 0.985 . S
N1173 C1175 1.356 . S
N1173 H1178 0.984 . S
N1173 H1179 0.985 . S
C1174 C1168 1.379 1_556 S
C1174 C1171 1.363 . S
C1174 N1172 1.356 . S
C1175 C1169 1.363 . S
C1175 C1170 1.379 1_554 S
C1175 N1173 1.356 . S
N1176 C1168 1.356 . S
N1176 H1182 0.984 . S
N1176 H1183 0.984 . S
N1177 C1170 1.356 . S
N1177 H1180 0.984 . S
N1177 H1181 0.985 . S
H1178 N1173 0.984 . S
H1179 N1173 0.985 . S
H1180 N1177 0.984 . S
H1181 N1177 0.985 . S
H1182 N1176 0.984 . S
H1183 N1176 0.984 . S
H1184 N1172 0.984 . S
H1185 N1172 0.985 . S
C1186 C1187 1.363 1_554 S
C1186 C1192 1.379 . S
C1186 N1194 1.356 1_554 S
C1187 C1186 1.363 1_556 S
C1187 C1193 1.363 1_556 S
C1188 C1189 1.363 . S
C1188 C1193 1.379 . S
C1188 N1195 1.356 . S
C1189 C1188 1.363 . S
C1189 C1192 1.363 . S
N1190 C1192 1.356 . S
N1190 H1202 0.984 . S
N1190 H1203 0.985 . S
N1191 C1193 1.356 1_556 S
N1191 H1196 0.984 . S
N1191 H1197 0.985 . S
C1192 C1186 1.379 . S
C1192 C1189 1.363 . S
C1192 N1190 1.356 . S
C1193 C1187 1.363 1_554 S
C1193 C1188 1.379 . S
C1193 N1191 1.356 1_554 S
N1194 C1186 1.356 1_556 S
N1194 H1200 0.984 . S
N1194 H1201 0.984 . S
N1195 C1188 1.356 . S
N1195 H1198 0.984 . S
N1195 H1199 0.985 . S
H1196 N1191 0.984 . S
H1197 N1191 0.985 . S
H1198 N1195 0.984 . S
H1199 N1195 0.985 . S
H1200 N1194 0.984 . S
H1201 N1194 0.984 . S
H1202 N1190 0.984 . S
H1203 N1190 0.985 . S
C1204 C1205 1.363 . S
C1204 C1210 1.379 1_554 S
C1204 N1212 1.356 . S
C1205 C1204 1.363 . S
C1205 C1211 1.363 . S
C1206 C1207 1.363 . S
C1206 C1211 1.379 1_556 S
C1206 N1213 1.356 . S
C1207 C1206 1.363 . S
C1207 C1210 1.363 . S
N1208 C1210 1.356 . S
N1208 H1220 0.984 . S
N1208 H1221 0.985 . S
N1209 C1211 1.356 . S
N1209 H1214 0.984 . S
N1209 H1215 0.985 . S
C1210 C1204 1.379 1_556 S
C1210 C1207 1.363 . S
C1210 N1208 1.356 . S
C1211 C1205 1.363 . S
C1211 C1206 1.379 1_554 S
C1211 N1209 1.356 . S
N1212 C1204 1.356 . S
N1212 H1218 0.984 . S
N1212 H1219 0.984 . S
N1213 C1206 1.356 . S
N1213 H1216 0.984 . S
N1213 H1217 0.985 . S
H1214 N1209 0.984 . S
H1215 N1209 0.985 . S
H1216 N1213 0.984 . S
H1217 N1213 0.985 . S
H1218 N1212 0.984 . S
H1219 N1212 0.984 . S
H1220 N1208 0.984 . S
H1221 N1208 0.985 . S
C1222 C1223 1.363 . S
C1222 C1228 1.379 . S
C1222 N1230 1.356 . S
C1223 C1222 1.363 . S
C1223 C1229 1.363 . S
C1224 C1225 1.363 1_554 S
C1224 C1229 1.379 . S
C1224 N1231 1.356 1_554 S
C1225 C1224 1.363 1_556 S
C1225 C1228 1.363 1_556 S
N1226 C1228 1.356 1_556 S
N1226 H1238 0.984 . S
N1226 H1239 0.985 . S
N1227 C1229 1.356 . S
N1227 H1232 0.984 . S
N1227 H1233 0.985 . S
C1228 C1222 1.379 . S
C1228 C1225 1.363 1_554 S
C1228 N1226 1.356 1_554 S
C1229 C1223 1.363 . S
C1229 C1224 1.379 . S
C1229 N1227 1.356 . S
N1230 C1222 1.356 . S
N1230 H1236 0.984 . S
N1230 H1237 0.984 . S
N1231 C1224 1.356 1_556 S
N1231 H1234 0.984 . S
N1231 H1235 0.985 . S
H1232 N1227 0.984 . S
H1233 N1227 0.985 . S
H1234 N1231 0.984 . S
H1235 N1231 0.985 . S
H1236 N1230 0.984 . S
H1237 N1230 0.984 . S
H1238 N1226 0.984 . S
H1239 N1226 0.985 . S
C1240 C1241 1.363 . S
C1240 C1246 1.379 1_554 S
C1240 N1248 1.356 . S
C1241 C1240 1.363 . S
C1241 C1247 1.363 . S
C1242 C1243 1.363 . S
C1242 C1247 1.379 1_556 S
C1242 N1249 1.356 . S
C1243 C1242 1.363 . S
C1243 C1246 1.363 . S
N1244 C1246 1.356 . S
N1244 H1256 0.984 . S
N1244 H1257 0.985 . S
N1245 C1247 1.356 . S
N1245 H1250 0.984 . S
N1245 H1251 0.985 . S
C1246 C1240 1.379 1_556 S
C1246 C1243 1.363 . S
C1246 N1244 1.356 . S
C1247 C1241 1.363 . S
C1247 C1242 1.379 1_554 S
C1247 N1245 1.356 . S
N1248 C1240 1.356 . S
N1248 H1254 0.984 . S
N1248 H1255 0.984 . S
N1249 C1242 1.356 . S
N1249 H1252 0.984 . S
N1249 H1253 0.985 . S
H1250 N1245 0.984 . S
H1251 N1245 0.985 . S
H1252 N1249 0.984 . S
H1253 N1249 0.985 . S
H1254 N1248 0.984 . S
H1255 N1248 0.984 . S
H1256 N1244 0.984 . S
H1257 N1244 0.985 . S
C1258 C1259 1.363 1_556 S
C1258 C1264 1.379 . S
C1258 N1266 1.356 1_556 S
C1259 C1258 1.363 1_554 S
C1259 C1265 1.363 1_554 S
C1260 C1261 1.363 . S
C1260 C1265 1.379 . S
C1260 N1267 1.356 . S
C1261 C1260 1.363 . S
C1261 C1264 1.363 . S
N1262 C1264 1.356 . S
N1262 H1274 0.984 . S
N1262 H1275 0.985 . S
N1263 C1265 1.356 1_554 S
N1263 H1268 0.984 . S
N1263 H1269 0.985 . S
C1264 C1258 1.379 . S
C1264 C1261 1.363 . S
C1264 N1262 1.356 . S
C1265 C1259 1.363 1_556 S
C1265 C1260 1.379 . S
C1265 N1263 1.356 1_556 S
N1266 C1258 1.356 1_554 S
N1266 H1272 0.984 . S
N1266 H1273 0.984 . S
N1267 C1260 1.356 . S
N1267 H1270 0.984 . S
N1267 H1271 0.985 . S
H1268 N1263 0.984 . S
H1269 N1263 0.985 . S
H1270 N1267 0.984 . S
H1271 N1267 0.985 . S
H1272 N1266 0.984 . S
H1273 N1266 0.984 . S
H1274 N1262 0.984 . S
H1275 N1262 0.985 . S
C1276 C1277 1.363 . S
C1276 C1282 1.379 1_556 S
C1276 N1284 1.356 . S
C1277 C1276 1.363 . S
C1277 C1283 1.363 . S
C1278 C1279 1.363 . S
C1278 C1283 1.379 1_554 S
C1278 N1285 1.356 . S
C1279 C1278 1.363 . S
C1279 C1282 1.363 . S
N1280 C1282 1.356 . S
N1280 H1292 0.984 . S
N1280 H1293 0.985 . S
N1281 C1283 1.356 . S
N1281 H1286 0.984 . S
N1281 H1287 0.985 . S
C1282 C1276 1.379 1_554 S
C1282 C1279 1.363 . S
C1282 N1280 1.356 . S
C1283 C1277 1.363 . S
C1283 C1278 1.379 1_556 S
C1283 N1281 1.356 . S
N1284 C1276 1.356 . S
N1284 H1290 0.984 . S
N1284 H1291 0.984 . S
N1285 C1278 1.356 . S
N1285 H1288 0.984 . S
N1285 H1289 0.985 . S
H1286 N1281 0.984 . S
H1287 N1281 0.985 . S
H1288 N1285 0.984 . S
H1289 N1285 0.985 . S
H1290 N1284 0.984 . S
H1291 N1284 0.984 . S
H1292 N1280 0.984 . S
H1293 N1280 0.985 . S
C1294 C1295 1.363 . S
C1294 C1300 1.379 . S
C1294 N1302 1.356 . S
C1295 C1294 1.363 . S
C1295 C1301 1.363 . S
C1296 C1297 1.363 1_556 S
C1296 C1301 1.379 . S
C1296 N1303 1.356 1_556 S
C1297 C1296 1.363 1_554 S
C1297 C1300 1.363 1_554 S
N1298 C1300 1.356 1_554 S
N1298 H1310 0.984 . S
N1298 H1311 0.985 . S
N1299 C1301 1.356 . S
N1299 H1304 0.984 . S
N1299 H1305 0.985 . S
C1300 C1294 1.379 . S
C1300 C1297 1.363 1_556 S
C1300 N1298 1.356 1_556 S
C1301 C1295 1.363 . S
C1301 C1296 1.379 . S
C1301 N1299 1.356 . S
N1302 C1294 1.356 . S
N1302 H1308 0.984 . S
N1302 H1309 0.984 . S
N1303 C1296 1.356 1_554 S
N1303 H1306 0.984 . S
N1303 H1307 0.985 . S
H1304 N1299 0.984 . S
H1305 N1299 0.985 . S
H1306 N1303 0.984 . S
H1307 N1303 0.985 . S
H1308 N1302 0.984 . S
H1309 N1302 0.984 . S
H1310 N1298 0.984 . S
H1311 N1298 0.985 . S
C1312 C1313 1.363 . S
C1312 C1318 1.379 . S
C1312 N1320 1.356 . S
C1313 C1312 1.363 . S
C1313 C1319 1.363 . S
C1314 C1315 1.363 . S
C1314 C1319 1.379 . S
C1314 N1321 1.356 . S
C1315 C1314 1.363 . S
C1315 C1318 1.363 . S
N1316 C1318 1.356 . S
N1316 H1328 0.984 . S
N1316 H1329 0.985 . S
N1317 C1319 1.356 . S
N1317 H1322 0.984 . S
N1317 H1323 0.985 . S
C1318 C1312 1.379 . S
C1318 C1315 1.363 . S
C1318 N1316 1.356 . S
C1319 C1313 1.363 . S
C1319 C1314 1.379 . S
C1319 N1317 1.356 . S
N1320 C1312 1.356 . S
N1320 H1326 0.984 . S
N1320 H1327 0.984 . S
N1321 C1314 1.356 . S
N1321 H1324 0.984 . S
N1321 H1325 0.985 . S
H1322 N1317 0.984 . S
H1323 N1317 0.985 . S
H1324 N1321 0.984 . S
H1325 N1321 0.985 . S
H1326 N1320 0.984 . S
H1327 N1320 0.984 . S
H1328 N1316 0.984 . S
H1329 N1316 0.985 . S
C1330 C1331 1.363 . S
C1330 C1336 1.379 . S
C1330 N1338 1.356 . S
C1331 C1330 1.363 . S
C1331 C1337 1.363 . S
C1332 C1333 1.363 . S
C1332 C1337 1.379 . S
C1332 N1339 1.356 . S
C1333 C1332 1.363 . S
C1333 C1336 1.363 . S
N1334 C1336 1.356 . S
N1334 H1346 0.984 . S
N1334 H1347 0.985 . S
N1335 C1337 1.356 . S
N1335 H1340 0.984 . S
N1335 H1341 0.985 . S
C1336 C1330 1.379 . S
C1336 C1333 1.363 . S
C1336 N1334 1.356 . S
C1337 C1331 1.363 . S
C1337 C1332 1.379 . S
C1337 N1335 1.356 . S
N1338 C1330 1.356 . S
N1338 H1344 0.984 . S
N1338 H1345 0.984 . S
N1339 C1332 1.356 . S
N1339 H1342 0.984 . S
N1339 H1343 0.985 . S
H1340 N1335 0.984 . S
H1341 N1335 0.985 . S
H1342 N1339 0.984 . S
H1343 N1339 0.985 . S
H1344 N1338 0.984 . S
H1345 N1338 0.984 . S
H1346 N1334 0.984 . S
H1347 N1334 0.985 . S
C1348 C1349 1.363 . S
C1348 C1354 1.379 . S
C1348 N1356 1.356 . S
C1349 C1348 1.363 . S
C1349 C1355 1.363 . S
C1350 C1351 1.363 . S
C1350 C1355 1.379 . S
C1350 N1357 1.356 . S
C1351 C1350 1.363 . S
C1351 C1354 1.363 . S
N1352 C1354 1.356 . S
N1352 H1364 0.984 . S
N1352 H1365 0.985 . S
N1353 C1355 1.356 . S
N1353 H1358 0.984 . S
N1353 H1359 0.985 . S
C1354 C1348 1.379 . S
C1354 C1351 1.363 . S
C1354 N1352 1.356 . S
C1355 C1349 1.363 . S
C1355 C1350 1.379 . S
C1355 N1353 1.356 . S
N1356 C1348 1.356 . S
N1356 H1362 0.984 . S
N1356 H1363 0.984 . S
N1357 C1350 1.356 . S
N1357 H1360 0.984 . S
N1357 H1361 0.985 . S
H1358 N1353 0.984 . S
H1359 N1353 0.985 . S
H1360 N1357 0.984 . S
H1361 N1357 0.985 . S
H1362 N1356 0.984 . S
H1363 N1356 0.984 . S
H1364 N1352 0.984 . S
H1365 N1352 0.985 . S
C1366 C1367 1.363 . S
C1366 C1372 1.379 . S
C1366 N1374 1.356 . S
C1367 C1366 1.363 . S
C1367 C1373 1.363 . S
C1368 C1369 1.363 . S
C1368 C1373 1.379 . S
C1368 N1375 1.356 . S
C1369 C1368 1.363 . S
C1369 C1372 1.363 . S
N1370 C1372 1.356 . S
N1370 H1382 0.984 . S
N1370 H1383 0.985 . S
N1371 C1373 1.356 . S
N1371 H1376 0.984 . S
N1371 H1377 0.985 . S
C1372 C1366 1.379 . S
C1372 C1369 1.363 . S
C1372 N1370 1.356 . S
C1373 C1367 1.363 . S
C1373 C1368 1.379 . S
C1373 N1371 1.356 . S
N1374 C1366 1.356 . S
N1374 H1380 0.984 . S
N1374 H1381 0.984 . S
N1375 C1368 1.356 . S
N1375 H1378 0.984 . S
N1375 H1379 0.985 . S
H1376 N1371 0.984 . S
H1377 N1371 0.985 . S
H1378 N1375 0.984 . S
H1379 N1375 0.985 . S
H1380 N1374 0.984 . S
H1381 N1374 0.984 . S
H1382 N1370 0.984 . S
H1383 N1370 0.985 . S
C1384 C1385 1.363 . S
C1384 C1390 1.379 . S
C1384 N1392 1.356 . S
C1385 C1384 1.363 . S
C1385 C1391 1.363 . S
C1386 C1387 1.363 . S
C1386 C1391 1.379 . S
C1386 N1393 1.356 . S
C1387 C1386 1.363 . S
C1387 C1390 1.363 . S
N1388 C1390 1.356 . S
N1388 H1400 0.984 . S
N1388 H1401 0.985 . S
N1389 C1391 1.356 . S
N1389 H1394 0.984 . S
N1389 H1395 0.985 . S
C1390 C1384 1.379 . S
C1390 C1387 1.363 . S
C1390 N1388 1.356 . S
C1391 C1385 1.363 . S
C1391 C1386 1.379 . S
C1391 N1389 1.356 . S
N1392 C1384 1.356 . S
N1392 H1398 0.984 . S
N1392 H1399 0.984 . S
N1393 C1386 1.356 . S
N1393 H1396 0.984 . S
N1393 H1397 0.985 . S
H1394 N1389 0.984 . S
H1395 N1389 0.985 . S
H1396 N1393 0.984 . S
H1397 N1393 0.985 . S
H1398 N1392 0.984 . S
H1399 N1392 0.984 . S
H1400 N1388 0.984 . S
H1401 N1388 0.985 . S
C1402 C1403 1.363 . S
C1402 C1408 1.379 . S
C1402 N1410 1.356 . S
C1403 C1402 1.363 . S
C1403 C1409 1.363 . S
C1404 C1405 1.363 . S
C1404 C1409 1.379 . S
C1404 N1411 1.356 . S
C1405 C1404 1.363 . S
C1405 C1408 1.363 . S
N1406 C1408 1.356 . S
N1406 H1418 0.984 . S
N1406 H1419 0.985 . S
N1407 C1409 1.356 . S
N1407 H1412 0.984 . S
N1407 H1413 0.985 . S
C1408 C1402 1.379 . S
C1408 C1405 1.363 . S
C1408 N1406 1.356 . S
C1409 C1403 1.363 . S
C1409 C1404 1.379 . S
C1409 N1407 1.356 . S
N1410 C1402 1.356 . S
N1410 H1416 0.984 . S
N1410 H1417 0.984 . S
N1411 C1404 1.356 . S
N1411 H1414 0.984 . S
N1411 H1415 0.985 . S
H1412 N1407 0.984 . S
H1413 N1407 0.985 . S
H1414 N1411 0.984 . S
H1415 N1411 0.985 . S
H1416 N1410 0.984 . S
H1417 N1410 0.984 . S
H1418 N1406 0.984 . S
H1419 N1406 0.985 . S
C1420 C1421 1.363 . S
C1420 C1426 1.379 . S
C1420 N1428 1.356 . S
C1421 C1420 1.363 . S
C1421 C1427 1.363 . S
C1422 C1423 1.363 . S
C1422 C1427 1.379 . S
C1422 N1429 1.356 . S
C1423 C1422 1.363 . S
C1423 C1426 1.363 . S
N1424 C1426 1.356 . S
N1424 H1436 0.984 . S
N1424 H1437 0.985 . S
N1425 C1427 1.356 . S
N1425 H1430 0.984 . S
N1425 H1431 0.985 . S
C1426 C1420 1.379 . S
C1426 C1423 1.363 . S
C1426 N1424 1.356 . S
C1427 C1421 1.363 . S
C1427 C1422 1.379 . S
C1427 N1425 1.356 . S
N1428 C1420 1.356 . S
N1428 H1434 0.984 . S
N1428 H1435 0.984 . S
N1429 C1422 1.356 . S
N1429 H1432 0.984 . S
N1429 H1433 0.985 . S
H1430 N1425 0.984 . S
H1431 N1425 0.985 . S
H1432 N1429 0.984 . S
H1433 N1429 0.985 . S
H1434 N1428 0.984 . S
H1435 N1428 0.984 . S
H1436 N1424 0.984 . S
H1437 N1424 0.985 . S
C1438 C1439 1.363 . S
C1438 C1444 1.379 . S
C1438 N1446 1.356 . S
C1439 C1438 1.363 . S
C1439 C1445 1.363 . S
C1440 C1441 1.363 . S
C1440 C1445 1.379 . S
C1440 N1447 1.356 . S
C1441 C1440 1.363 . S
C1441 C1444 1.363 . S
N1442 C1444 1.356 . S
N1442 H1454 0.984 . S
N1442 H1455 0.985 . S
N1443 C1445 1.356 . S
N1443 H1448 0.984 . S
N1443 H1449 0.985 . S
C1444 C1438 1.379 . S
C1444 C1441 1.363 . S
C1444 N1442 1.356 . S
C1445 C1439 1.363 . S
C1445 C1440 1.379 . S
C1445 N1443 1.356 . S
N1446 C1438 1.356 . S
N1446 H1452 0.984 . S
N1446 H1453 0.984 . S
N1447 C1440 1.356 . S
N1447 H1450 0.984 . S
N1447 H1451 0.985 . S
H1448 N1443 0.984 . S
H1449 N1443 0.985 . S
H1450 N1447 0.984 . S
H1451 N1447 0.985 . S
H1452 N1446 0.984 . S
H1453 N1446 0.984 . S
H1454 N1442 0.984 . S
H1455 N1442 0.985 . S
C1456 C1457 1.363 . S
C1456 C1462 1.379 . S
C1456 N1464 1.356 . S
C1457 C1456 1.363 . S
C1457 C1463 1.363 . S
C1458 C1459 1.363 . S
C1458 C1463 1.379 . S
C1458 N1465 1.356 . S
C1459 C1458 1.363 . S
C1459 C1462 1.363 . S
N1460 C1462 1.356 . S
N1460 H1472 0.984 . S
N1460 H1473 0.985 . S
N1461 C1463 1.356 . S
N1461 H1466 0.984 . S
N1461 H1467 0.985 . S
C1462 C1456 1.379 . S
C1462 C1459 1.363 . S
C1462 N1460 1.356 . S
C1463 C1457 1.363 . S
C1463 C1458 1.379 . S
C1463 N1461 1.356 . S
N1464 C1456 1.356 . S
N1464 H1470 0.984 . S
N1464 H1471 0.984 . S
N1465 C1458 1.356 . S
N1465 H1468 0.984 . S
N1465 H1469 0.985 . S
H1466 N1461 0.984 . S
H1467 N1461 0.985 . S
H1468 N1465 0.984 . S
H1469 N1465 0.985 . S
H1470 N1464 0.984 . S
H1471 N1464 0.984 . S
H1472 N1460 0.984 . S
H1473 N1460 0.985 . S
C1474 C1475 1.363 . S
C1474 C1480 1.379 . S
C1474 N1482 1.356 . S
C1475 C1474 1.363 . S
C1475 C1481 1.363 . S
C1476 C1477 1.363 . S
C1476 C1481 1.379 . S
C1476 N1483 1.356 . S
C1477 C1476 1.363 . S
C1477 C1480 1.363 . S
N1478 C1480 1.356 . S
N1478 H1490 0.984 . S
N1478 H1491 0.985 . S
N1479 C1481 1.356 . S
N1479 H1484 0.984 . S
N1479 H1485 0.985 . S
C1480 C1474 1.379 . S
C1480 C1477 1.363 . S
C1480 N1478 1.356 . S
C1481 C1475 1.363 . S
C1481 C1476 1.379 . S
C1481 N1479 1.356 . S
N1482 C1474 1.356 . S
N1482 H1488 0.984 . S
N1482 H1489 0.984 . S
N1483 C1476 1.356 . S
N1483 H1486 0.984 . S
N1483 H1487 0.985 . S
H1484 N1479 0.984 . S
H1485 N1479 0.985 . S
H1486 N1483 0.984 . S
H1487 N1483 0.985 . S
H1488 N1482 0.984 . S
H1489 N1482 0.984 . S
H1490 N1478 0.984 . S
H1491 N1478 0.985 . S
C1492 C1493 1.363 . S
C1492 C1498 1.379 . S
C1492 N1500 1.356 . S
C1493 C1492 1.363 . S
C1493 C1499 1.363 . S
C1494 C1495 1.363 . S
C1494 C1499 1.379 . S
C1494 N1501 1.356 . S
C1495 C1494 1.363 . S
C1495 C1498 1.363 . S
N1496 C1498 1.356 . S
N1496 H1508 0.984 . S
N1496 H1509 0.985 . S
N1497 C1499 1.356 . S
N1497 H1502 0.984 . S
N1497 H1503 0.985 . S
C1498 C1492 1.379 . S
C1498 C1495 1.363 . S
C1498 N1496 1.356 . S
C1499 C1493 1.363 . S
C1499 C1494 1.379 . S
C1499 N1497 1.356 . S
N1500 C1492 1.356 . S
N1500 H1506 0.984 . S
N1500 H1507 0.984 . S
N1501 C1494 1.356 . S
N1501 H1504 0.984 . S
N1501 H1505 0.985 . S
H1502 N1497 0.984 . S
H1503 N1497 0.985 . S
H1504 N1501 0.984 . S
H1505 N1501 0.985 . S
H1506 N1500 0.984 . S
H1507 N1500 0.984 . S
H1508 N1496 0.984 . S
H1509 N1496 0.985 . S
C1510 C1511 1.363 . S
C1510 C1516 1.379 . S
C1510 N1518 1.356 . S
C1511 C1510 1.363 . S
C1511 C1517 1.363 . S
C1512 C1513 1.363 . S
C1512 C1517 1.379 . S
C1512 N1519 1.356 . S
C1513 C1512 1.363 . S
C1513 C1516 1.363 . S
N1514 C1516 1.356 . S
N1514 H1526 0.984 . S
N1514 H1527 0.985 . S
N1515 C1517 1.356 . S
N1515 H1520 0.984 . S
N1515 H1521 0.985 . S
C1516 C1510 1.379 . S
C1516 C1513 1.363 . S
C1516 N1514 1.356 . S
C1517 C1511 1.363 . S
C1517 C1512 1.379 . S
C1517 N1515 1.356 . S
N1518 C1510 1.356 . S
N1518 H1524 0.984 . S
N1518 H1525 0.984 . S
N1519 C1512 1.356 . S
N1519 H1522 0.984 . S
N1519 H1523 0.985 . S
H1520 N1515 0.984 . S
H1521 N1515 0.985 . S
H1522 N1519 0.984 . S
H1523 N1519 0.985 . S
H1524 N1518 0.984 . S
H1525 N1518 0.984 . S
H1526 N1514 0.984 . S
H1527 N1514 0.985 . S
C1528 C1529 1.363 . S
C1528 C1534 1.379 . S
C1528 N1536 1.356 . S
C1529 C1528 1.363 . S
C1529 C1535 1.363 . S
C1530 C1531 1.363 . S
C1530 C1535 1.379 . S
C1530 N1537 1.356 . S
C1531 C1530 1.363 . S
C1531 C1534 1.363 . S
N1532 C1534 1.356 . S
N1532 H1544 0.984 . S
N1532 H1545 0.985 . S
N1533 C1535 1.356 . S
N1533 H1538 0.984 . S
N1533 H1539 0.985 . S
C1534 C1528 1.379 . S
C1534 C1531 1.363 . S
C1534 N1532 1.356 . S
C1535 C1529 1.363 . S
C1535 C1530 1.379 . S
C1535 N1533 1.356 . S
N1536 C1528 1.356 . S
N1536 H1542 0.984 . S
N1536 H1543 0.984 . S
N1537 C1530 1.356 . S
N1537 H1540 0.984 . S
N1537 H1541 0.985 . S
H1538 N1533 0.984 . S
H1539 N1533 0.985 . S
H1540 N1537 0.984 . S
H1541 N1537 0.985 . S
H1542 N1536 0.984 . S
H1543 N1536 0.984 . S
H1544 N1532 0.984 . S
H1545 N1532 0.985 . S
C1546 C1547 1.363 . S
C1546 C1552 1.379 . S
C1546 N1554 1.356 . S
C1547 C1546 1.363 . S
C1547 C1553 1.363 . S
C1548 C1549 1.363 . S
C1548 C1553 1.379 . S
C1548 N1555 1.356 . S
C1549 C1548 1.363 . S
C1549 C1552 1.363 . S
N1550 C1552 1.356 . S
N1550 H1562 0.984 . S
N1550 H1563 0.985 . S
N1551 C1553 1.356 . S
N1551 H1556 0.984 . S
N1551 H1557 0.985 . S
C1552 C1546 1.379 . S
C1552 C1549 1.363 . S
C1552 N1550 1.356 . S
C1553 C1547 1.363 . S
C1553 C1548 1.379 . S
C1553 N1551 1.356 . S
N1554 C1546 1.356 . S
N1554 H1560 0.984 . S
N1554 H1561 0.984 . S
N1555 C1548 1.356 . S
N1555 H1558 0.984 . S
N1555 H1559 0.985 . S
H1556 N1551 0.984 . S
H1557 N1551 0.985 . S
H1558 N1555 0.984 . S
H1559 N1555 0.985 . S
H1560 N1554 0.984 . S
H1561 N1554 0.984 . S
H1562 N1550 0.984 . S
H1563 N1550 0.985 . S
C1564 C1565 1.363 . S
C1564 C1570 1.379 . S
C1564 N1572 1.356 . S
C1565 C1564 1.363 . S
C1565 C1571 1.363 . S
C1566 C1567 1.363 . S
C1566 C1571 1.379 . S
C1566 N1573 1.356 . S
C1567 C1566 1.363 . S
C1567 C1570 1.363 . S
N1568 C1570 1.356 . S
N1568 H1580 0.984 . S
N1568 H1581 0.985 . S
N1569 C1571 1.356 . S
N1569 H1574 0.984 . S
N1569 H1575 0.985 . S
C1570 C1564 1.379 . S
C1570 C1567 1.363 . S
C1570 N1568 1.356 . S
C1571 C1565 1.363 . S
C1571 C1566 1.379 . S
C1571 N1569 1.356 . S
N1572 C1564 1.356 . S
N1572 H1578 0.984 . S
N1572 H1579 0.984 . S
N1573 C1566 1.356 . S
N1573 H1576 0.984 . S
N1573 H1577 0.985 . S
H1574 N1569 0.984 . S
H1575 N1569 0.985 . S
H1576 N1573 0.984 . S
H1577 N1573 0.985 . S
H1578 N1572 0.984 . S
H1579 N1572 0.984 . S
H1580 N1568 0.984 . S
H1581 N1568 0.985 . S
C1582 C1583 1.363 . S
C1582 C1588 1.379 . S
C1582 N1590 1.356 . S
C1583 C1582 1.363 . S
C1583 C1589 1.363 . S
C1584 C1585 1.363 . S
C1584 C1589 1.379 . S
C1584 N1591 1.356 . S
C1585 C1584 1.363 . S
C1585 C1588 1.363 . S
N1586 C1588 1.356 . S
N1586 H1598 0.984 . S
N1586 H1599 0.985 . S
N1587 C1589 1.356 . S
N1587 H1592 0.984 . S
N1587 H1593 0.985 . S
C1588 C1582 1.379 . S
C1588 C1585 1.363 . S
C1588 N1586 1.356 . S
C1589 C1583 1.363 . S
C1589 C1584 1.379 . S
C1589 N1587 1.356 . S
N1590 C1582 1.356 . S
N1590 H1596 0.984 . S
N1590 H1597 0.984 . S
N1591 C1584 1.356 . S
N1591 H1594 0.984 . S
N1591 H1595 0.985 . S
H1592 N1587 0.984 . S
H1593 N1587 0.985 . S
H1594 N1591 0.984 . S
H1595 N1591 0.985 . S
H1596 N1590 0.984 . S
H1597 N1590 0.984 . S
H1598 N1586 0.984 . S
H1599 N1586 0.985 . S
C449 C222 1.302 . S
C451 C12 1.312 . S
C467 C18 1.401 . S
C469 C180 1.423 . S
C485 C40 1.312 . S
C487 C194 1.302 . S
C503 C208 1.423 . S
C505 C46 1.401 . S
C521 C68 1.312 . S
C523 C138 1.302 . S
C539 C74 1.401 . S
C541 C152 1.423 . S
C557 C166 1.302 . S
C559 C96 1.312 . S
C575 C124 1.423 . S
C577 C102 1.401 . S
C593 C236 1.312 . S
C595 C446 1.302 . S
C611 C242 1.401 . S
C613 C404 1.423 . S
C629 C264 1.312 . S
C631 C418 1.302 . S
C647 C432 1.423 . S
C649 C270 1.401 . S
C665 C292 1.312 . S
C667 C362 1.302 . S
C683 C298 1.401 . S
C685 C376 1.423 . S
C701 C390 1.302 . S
C703 C320 1.312 . S
C719 C326 1.401 . S
C721 C348 1.423 . S
C737 C173 1.143 . S
C739 C5 1.145 . S
C755 C25 1.224 . S
C757 C187 1.174 . S
C773 C201 1.143 . S
C775 C33 1.145 . S
C791 C53 1.224 . S
C793 C215 1.174 . S
C809 C61 1.145 . S
C811 C117 1.143 . S
C827 C131 1.175 . S
C829 C81 1.224 . S
C845 C145 1.143 . S
C847 C89 1.145 . S
C863 C159 1.175 . S
C865 C109 1.224 . S
C881 C229 1.145 . S
C883 C397 1.143 . S
C899 C411 1.174 . S
C901 C249 1.224 . S
C917 C257 1.145 . S
C919 C425 1.143 . S
C935 C277 1.224 . S
C937 C439 1.174 . S
C953 C341 1.143 . S
C955 C285 1.145 . S
C971 C305 1.224 . S
C973 C355 1.175 . S
C989 C313 1.145 . S
C991 C369 1.143 . S
C1007 C333 1.224 . S
C1009 C383 1.175 . S
C1025 C4 1.469 . S
C1027 C144 1.474 . S
C1043 C158 1.417 . S
C1045 C26 1.450 . S
C1061 C32 1.469 . S
C1063 C116 1.474 . S
C1079 C130 1.417 . S
C1081 C54 1.450 . S
C1097 C200 1.474 . S
C1099 C60 1.469 . S
C1115 C214 1.417 . S
C1117 C82 1.450 . S
C1133 C172 1.474 . S
C1135 C88 1.469 . S
C1151 C110 1.450 . S
C1153 C186 1.417 . S
C1169 C368 1.474 . S
C1171 C228 1.469 . S
C1187 C250 1.450 . S
C1189 C382 1.417 . S
C1205 C340 1.474 . S
C1207 C256 1.469 . S
C1223 C354 1.417 . S
C1225 C278 1.450 . S
C1241 C284 1.469 . S
C1243 C424 1.474 . S
C1259 C306 1.450 . S
C1261 C438 1.417 . S
C1277 C396 1.474 . S
C1279 C312 1.469 . S
C1295 C410 1.417 . S
C1297 C334 1.450 . S
C1313 C327 1.194 . S
C1315 C11 1.312 . S
C1331 C291 1.312 . S
C1333 C19 1.194 . S
C1349 C299 1.194 . S
C1351 C39 1.312 . S
C1367 C319 1.312 . S
C1369 C47 1.194 . S
C1385 C243 1.194 . S
C1387 C67 1.312 . S
C1403 C75 1.194 . S
C1405 C263 1.312 . S
C1421 C95 1.312 . S
C1423 C271 1.194 . S
C1439 C103 1.194 . S
C1441 C235 1.312 . S
C1457 C123 1.368 . S
C1459 C445 1.345 . S
C1475 C403 1.368 . S
C1477 C137 1.345 . S
C1493 C151 1.368 . S
C1495 C417 1.345 . S
C1511 C165 1.345 . S
C1513 C431 1.368 . S
C1529 C361 1.345 . S
C1531 C179 1.368 . S
C1547 C375 1.368 . S
C1549 C193 1.345 . S
C1565 C207 1.368 . S
C1567 C389 1.345 . S
C1583 C221 1.345 . S
C1585 C347 1.368 . S
