# Generated by pormake.
# Topology umg, (4)-cn, num edge types: 1
# Building blocks:
#     Node 0, Type 0, BuildingBlock: QUQFOY_clean_sbu_1, # of connection points: 4
#     Node 1, Type 0, BuildingBlock: QUQFOY_clean_sbu_1, # of connection points: 4
#     Node 2, Type 0, BuildingBlock: QUQFOY_clean_sbu_1, # of connection points: 4
#     Node 3, Type 0, BuildingBlock: QUQFOY_clean_sbu_1, # of connection points: 4
#     Node 4, Type 0, BuildingBlock: QUQFOY_clean_sbu_1, # of connection points: 4
#     Node 5, Type 0, BuildingBlock: QUQFOY_clean_sbu_1, # of connection points: 4
#     Node 6, Type 0, BuildingBlock: QUQFOY_clean_sbu_1, # of connection points: 4
#     Node 7, Type 0, BuildingBlock: QUQFOY_clean_sbu_1, # of connection points: 4
#     Node 8, Type 0, BuildingBlock: QUQFOY_clean_sbu_1, # of connection points: 4
#     Node 9, Type 0, BuildingBlock: QUQFOY_clean_sbu_1, # of connection points: 4
#     Node 10, Type 0, BuildingBlock: QUQFOY_clean_sbu_1, # of connection points: 4
#     Node 11, Type 0, BuildingBlock: QUQFOY_clean_sbu_1, # of connection points: 4
#     Edge 12, Type (0, 0), BuildingBlock: XIVTED_clean_linker_0, # of connection points: 2
#     Edge 13, Type (0, 0), BuildingBlock: XIVTED_clean_linker_0, # of connection points: 2
#     Edge 14, Type (0, 0), BuildingBlock: XIVTED_clean_linker_0, # of connection points: 2
#     Edge 15, Type (0, 0), BuildingBlock: XIVTED_clean_linker_0, # of connection points: 2
#     Edge 16, Type (0, 0), BuildingBlock: XIVTED_clean_linker_0, # of connection points: 2
#     Edge 17, Type (0, 0), BuildingBlock: XIVTED_clean_linker_0, # of connection points: 2
#     Edge 18, Type (0, 0), BuildingBlock: XIVTED_clean_linker_0, # of connection points: 2
#     Edge 19, Type (0, 0), BuildingBlock: XIVTED_clean_linker_0, # of connection points: 2
#     Edge 20, Type (0, 0), BuildingBlock: XIVTED_clean_linker_0, # of connection points: 2
#     Edge 21, Type (0, 0), BuildingBlock: XIVTED_clean_linker_0, # of connection points: 2
#     Edge 22, Type (0, 0), BuildingBlock: XIVTED_clean_linker_0, # of connection points: 2
#     Edge 23, Type (0, 0), BuildingBlock: XIVTED_clean_linker_0, # of connection points: 2
#     Edge 24, Type (0, 0), BuildingBlock: XIVTED_clean_linker_0, # of connection points: 2
#     Edge 25, Type (0, 0), BuildingBlock: XIVTED_clean_linker_0, # of connection points: 2
#     Edge 26, Type (0, 0), BuildingBlock: XIVTED_clean_linker_0, # of connection points: 2
#     Edge 27, Type (0, 0), BuildingBlock: XIVTED_clean_linker_0, # of connection points: 2
#     Edge 28, Type (0, 0), BuildingBlock: XIVTED_clean_linker_0, # of connection points: 2
#     Edge 29, Type (0, 0), BuildingBlock: XIVTED_clean_linker_0, # of connection points: 2
#     Edge 30, Type (0, 0), BuildingBlock: XIVTED_clean_linker_0, # of connection points: 2
#     Edge 31, Type (0, 0), BuildingBlock: XIVTED_clean_linker_0, # of connection points: 2
#     Edge 32, Type (0, 0), BuildingBlock: XIVTED_clean_linker_0, # of connection points: 2
#     Edge 33, Type (0, 0), BuildingBlock: XIVTED_clean_linker_0, # of connection points: 2
#     Edge 34, Type (0, 0), BuildingBlock: XIVTED_clean_linker_0, # of connection points: 2
#     Edge 35, Type (0, 0), BuildingBlock: XIVTED_clean_linker_0, # of connection points: 2
# Relax obj value: 0.080
# Max RMSD: 0.189
# Mean RMSD: 0.189
data_MOF--net-umg--node1-QUQFOY_clean_sbu_1--edge1-XIVTED_clean_linker_0
_symmetry_space_group_name_H-M    P1
_symmetry_Int_Tables_number       1
_symmetry_cell_setting            triclinic
loop_
_symmetry_equiv_pos_as_xyz
'x, y, z'
_cell_length_a     29.119448
_cell_length_b     29.111204
_cell_length_c     87.980873
_cell_angle_alpha  89.812743
_cell_angle_beta   90.404692
_cell_angle_gamma 119.93727
loop_
_atom_site_label
_atom_site_type_symbol
_atom_site_fract_x
_atom_site_fract_y
_atom_site_fract_z
_atom_type_partial_charge
O0 O 0.34841 0.6441 0.06306 0.0
Cd1 Cd 0.31877 0.59183 0.08105 0.0
Cd2 Cd 0.32847 0.68249 0.09369 0.0
O3 O 0.36494 0.71974 0.07362 0.0
O4 O 0.33461 0.53442 0.075 0.0
O5 O 0.37163 0.58683 0.09479 0.0
C6 C 0.36896 0.55046 0.08593 0.0
C7 C 0.36683 0.69591 0.11778 0.0
C8 C 0.36609 0.69372 0.06218 0.0
C9 C 0.21808 0.58992 0.09014 0.0
O10 O 0.24734 0.63918 0.09282 0.0
O11 O 0.23865 0.56178 0.08638 0.0
O12 O 0.35234 0.72822 0.11244 0.0
O13 O 0.36224 0.65841 0.10903 0.0
O14 O 0.72914 0.32997 0.40241 0.0
Cd15 Cd 0.74496 0.31046 0.42352 0.0
Cd16 Cd 0.65675 0.32281 0.42891 0.0
O17 O 0.66987 0.35454 0.40708 0.0
O18 O 0.8205 0.32436 0.4223 0.0
O19 O 0.7974 0.37315 0.43578 0.0
C20 C 0.83441 0.36591 0.43056 0.0
C21 C 0.6765 0.36609 0.45229 0.0
C22 C 0.70061 0.34922 0.39792 0.0
C23 C 0.6415 0.21338 0.43223 0.0
O24 O 0.62009 0.24188 0.43034 0.0
O25 O 0.69183 0.23388 0.43148 0.0
O26 O 0.6318 0.35281 0.44563 0.0
O27 O 0.71004 0.35788 0.4451 0.0
O28 O 0.39896 0.7162 0.73242 0.0
Cd29 Cd 0.44665 0.73445 0.75148 0.0
Cd30 Cd 0.35328 0.64946 0.76117 0.0
O31 O 0.32079 0.65377 0.74059 0.0
O32 O 0.50557 0.80803 0.7465 0.0
O33 O 0.44998 0.79114 0.7654 0.0
C34 C 0.48796 0.82553 0.75711 0.0
C35 C 0.33554 0.66979 0.78518 0.0
C36 C 0.34992 0.6844 0.7301 0.0
C37 C 0.44746 0.6337 0.75929 0.0
O38 O 0.3975 0.61253 0.76064 0.0
O39 O 0.47601 0.68341 0.75678 0.0
O40 O 0.30434 0.62406 0.7791 0.0
O41 O 0.37436 0.70443 0.77715 0.0
O42 O 0.69316 0.38474 0.06284 0.0
Cd43 Cd 0.72174 0.43747 0.08076 0.0
Cd44 Cd 0.71308 0.34828 0.09401 0.0
O45 O 0.67735 0.30993 0.07389 0.0
O46 O 0.70462 0.49391 0.07443 0.0
O47 O 0.66817 0.44139 0.09418 0.0
C48 C 0.67025 0.47746 0.08523 0.0
C49 C 0.67477 0.33407 0.11799 0.0
C50 C 0.67617 0.33521 0.06221 0.0
C51 C 0.82307 0.44134 0.0905 0.0
O52 O 0.79416 0.39224 0.09343 0.0
O53 O 0.80207 0.46887 0.08635 0.0
O54 O 0.69003 0.30245 0.11272 0.0
O55 O 0.67853 0.37133 0.10922 0.0
O56 O 0.32125 0.71626 0.40098 0.0
Cd57 Cd 0.29939 0.72494 0.4224 0.0
Cd58 Cd 0.38324 0.70964 0.42859 0.0
O59 O 0.37087 0.68042 0.40638 0.0
O60 O 0.22259 0.70789 0.42155 0.0
O61 O 0.24857 0.6564 0.43248 0.0
C62 C 0.2104 0.66394 0.42839 0.0
C63 C 0.36653 0.66575 0.45185 0.0
C64 C 0.34758 0.69455 0.39666 0.0
C65 C 0.40058 0.81903 0.433 0.0
O66 O 0.42162 0.79062 0.43044 0.0
O67 O 0.35023 0.79866 0.4324 0.0
O68 O 0.41013 0.67883 0.44474 0.0
O69 O 0.33222 0.67447 0.44516 0.0
O70 O 0.65339 0.31451 0.73103 0.0
Cd71 Cd 0.60405 0.29239 0.74969 0.0
Cd72 Cd 0.69479 0.37522 0.76131 0.0
O73 O 0.72969 0.37573 0.74086 0.0
O74 O 0.54681 0.21831 0.74431 0.0
O75 O 0.60254 0.23611 0.76346 0.0
C76 C 0.56497 0.20132 0.75504 0.0
C77 C 0.71412 0.35554 0.78536 0.0
C78 C 0.70256 0.34751 0.72964 0.0
C79 C 0.60025 0.39033 0.75876 0.0
O80 O 0.64991 0.4114 0.76094 0.0
O81 O 0.57259 0.3413 0.75524 0.0
O82 O 0.74395 0.40163 0.77935 0.0
O83 O 0.67585 0.32011 0.77722 0.0
O84 O 0.40347 0.70462 0.61964 0.0
Cd85 Cd 0.45272 0.72396 0.60117 0.0
Cd86 Cd 0.36245 0.70829 0.5876 0.0
O87 O 0.32598 0.67368 0.60802 0.0
O88 O 0.50874 0.70588 0.60734 0.0
O89 O 0.45029 0.66472 0.58898 0.0
C90 C 0.48842 0.66838 0.59735 0.0
C91 C 0.34494 0.66849 0.56365 0.0
C92 C 0.35326 0.68213 0.62012 0.0
C93 C 0.45373 0.82043 0.58945 0.0
O94 O 0.40413 0.7899 0.58757 0.0
O95 O 0.48324 0.80144 0.59334 0.0
O96 O 0.31353 0.6831 0.56942 0.0
O97 O 0.38398 0.67369 0.5719 0.0
O98 O 0.72466 0.38341 0.95225 0.0
Cd99 Cd 0.74737 0.43459 0.93394 0.0
Cd100 Cd 0.66557 0.34508 0.92163 0.0
O101 O 0.66424 0.30799 0.94185 0.0
O102 O 0.82104 0.49144 0.93985 0.0
O103 O 0.80443 0.43773 0.92036 0.0
C104 C 0.83869 0.47444 0.92911 0.0
C105 C 0.68589 0.32759 0.89755 0.0
C106 C 0.69186 0.33405 0.95328 0.0
C107 C 0.64953 0.43885 0.92479 0.0
O108 O 0.62884 0.38946 0.92222 0.0
O109 O 0.69843 0.46637 0.92852 0.0
O110 O 0.6397 0.29728 0.90339 0.0
O111 O 0.72105 0.36547 0.90585 0.0
O112 O 0.33707 0.72041 0.27927 0.0
Cd113 Cd 0.31748 0.73623 0.25818 0.0
Cd114 Cd 0.32745 0.64624 0.2529 0.0
O115 O 0.35948 0.6594 0.27473 0.0
O116 O 0.33245 0.81218 0.25942 0.0
O117 O 0.38004 0.78784 0.24586 0.0
C118 C 0.37356 0.82535 0.2511 0.0
C119 C 0.37025 0.66551 0.22955 0.0
C120 C 0.35532 0.69109 0.28384 0.0
C121 C 0.21904 0.63344 0.24949 0.0
O122 O 0.24666 0.61109 0.25144 0.0
O123 O 0.24052 0.6839 0.2502 0.0
O124 O 0.35641 0.62058 0.23609 0.0
O125 O 0.36289 0.69944 0.23686 0.0
O126 O 0.65065 0.33992 0.61936 0.0
Cd127 Cd 0.59868 0.31339 0.60116 0.0
Cd128 Cd 0.6888 0.32486 0.58798 0.0
O129 O 0.72615 0.35837 0.60843 0.0
O130 O 0.5422 0.33036 0.6073 0.0
O131 O 0.59591 0.36828 0.58791 0.0
C132 C 0.55939 0.36559 0.59666 0.0
C133 C 0.70464 0.3651 0.56415 0.0
C134 C 0.70027 0.35751 0.62012 0.0
C135 C 0.59595 0.21401 0.59045 0.0
O136 O 0.64511 0.24373 0.58786 0.0
O137 O 0.56786 0.23395 0.59481 0.0
O138 O 0.73582 0.34931 0.56959 0.0
O139 O 0.66707 0.36106 0.57272 0.0
O140 O 0.32887 0.64501 0.95189 0.0
Cd141 Cd 0.30664 0.59375 0.93361 0.0
Cd142 Cd 0.38844 0.68385 0.92157 0.0
O143 O 0.38909 0.72072 0.94169 0.0
O144 O 0.23312 0.53664 0.93935 0.0
O145 O 0.24938 0.59005 0.91976 0.0
C146 C 0.21528 0.55339 0.92847 0.0
C147 C 0.3674 0.70066 0.89737 0.0
C148 C 0.36129 0.69445 0.95299 0.0
C149 C 0.405 0.59038 0.92491 0.0
O150 O 0.42554 0.6398 0.92243 0.0
O151 O 0.35608 0.56259 0.92843 0.0
O152 O 0.41362 0.73139 0.90327 0.0
O153 O 0.33263 0.66274 0.90565 0.0
O154 O 0.72268 0.31463 0.28068 0.0
Cd155 Cd 0.73021 0.29178 0.25927 0.0
Cd156 Cd 0.71681 0.3771 0.25311 0.0
O157 O 0.68808 0.36542 0.27534 0.0
O158 O 0.71223 0.21465 0.26012 0.0
O159 O 0.66108 0.24125 0.24928 0.0
C160 C 0.6682 0.20282 0.25332 0.0
C161 C 0.67278 0.35931 0.22977 0.0
C162 C 0.70187 0.34177 0.28503 0.0
C163 C 0.82505 0.39198 0.24866 0.0
O164 O 0.79763 0.41402 0.25132 0.0
O165 O 0.80374 0.34153 0.24917 0.0
O166 O 0.6863 0.4035 0.23668 0.0
O167 O 0.68115 0.3252 0.23668 0.0
H168 H 0.28744 0.69168 0.97225 0.0
H169 H 0.43763 0.69153 0.04301 0.0
H170 H 0.4547 0.74829 0.96841 0.0
H171 H 0.32681 0.74807 0.04686 0.0
H172 H 0.44609 0.71227 0.01577 0.0
H173 H 0.29965 0.71221 0.9995 0.0
C174 C 0.32697 0.70996 0.9771 0.0
C175 C 0.37024 0.71882 0.96815 0.0
C176 C 0.42116 0.72165 0.02266 0.0
C177 C 0.38408 0.74014 0.99927 0.0
C178 C 0.41642 0.70991 0.03816 0.0
C179 C 0.38191 0.71866 0.04712 0.0
C180 C 0.38948 0.74015 0.01601 0.0
C181 C 0.35437 0.7415 0.04031 0.0
C182 C 0.33393 0.72161 0.99261 0.0
C183 C 0.42055 0.7416 0.97496 0.0
N184 N 0.35762 0.75016 0.02504 0.0
N185 N 0.42594 0.75019 0.99024 0.0
H186 H 0.78358 0.3788 0.37909 0.0
H187 H 0.63923 0.37238 0.30097 0.0
H188 H 0.62306 0.34973 0.37954 0.0
H189 H 0.75956 0.32834 0.30692 0.0
H190 H 0.63914 0.38384 0.32885 0.0
H191 H 0.78382 0.38487 0.35157 0.0
C192 C 0.74846 0.37428 0.37338 0.0
C193 C 0.7029 0.3628 0.38161 0.0
C194 C 0.66541 0.37172 0.32392 0.0
C195 C 0.70268 0.36899 0.3499 0.0
C196 C 0.66553 0.36524 0.30808 0.0
C197 C 0.69917 0.34901 0.3016 0.0
C198 C 0.70014 0.36322 0.33313 0.0
C199 C 0.7325 0.34035 0.31133 0.0
C200 C 0.74856 0.37758 0.35764 0.0
C201 C 0.6589 0.35834 0.37359 0.0
N202 N 0.73228 0.34781 0.32648 0.0
N203 N 0.65951 0.36068 0.35807 0.0
H204 H 0.37088 0.76624 0.7113 0.0
H205 H 0.30657 0.59221 0.6376 0.0
H206 H 0.28473 0.59559 0.71344 0.0
H207 H 0.34943 0.75674 0.637 0.0
H208 H 0.28836 0.58905 0.66499 0.0
H209 H 0.3539 0.76158 0.68402 0.0
C210 C 0.34728 0.72774 0.70602 0.0
C211 C 0.32917 0.68126 0.71457 0.0
C212 C 0.30029 0.62543 0.65878 0.0
C213 C 0.31104 0.67533 0.6832 0.0
C214 C 0.31033 0.62706 0.64317 0.0
C215 C 0.32889 0.67464 0.63515 0.0
C216 C 0.3101 0.67207 0.66633 0.0
C217 C 0.3346 0.7192 0.64285 0.0
C218 C 0.33764 0.72498 0.69043 0.0
C219 C 0.29901 0.63233 0.70721 0.0
N220 N 0.32596 0.71706 0.65803 0.0
N221 N 0.29183 0.63055 0.69185 0.0
H222 H 0.60557 0.33549 0.04191 0.0
H223 H 0.7646 0.339 0.97373 0.0
H224 H 0.71802 0.28169 0.04806 0.0
H225 H 0.59707 0.27793 0.96759 0.0
H226 H 0.74984 0.31834 1.00093 0.0
H227 H 0.60017 0.31449 0.01474 0.0
C228 C 0.62776 0.31761 0.03758 0.0
C229 C 0.66185 0.30974 0.04717 0.0
C230 C 0.71611 0.308 0.99355 0.0
C231 C 0.65779 0.28802 0.01615 0.0
C232 C 0.72452 0.31974 0.97807 0.0
C233 C 0.68189 0.3097 0.96847 0.0
C234 C 0.66508 0.28817 0.99952 0.0
C235 C 0.6308 0.2856 0.97464 0.0
C236 C 0.62477 0.30574 0.02212 0.0
C237 C 0.69073 0.28757 0.04102 0.0
N238 N 0.62391 0.27695 0.98988 0.0
N239 N 0.68919 0.27881 0.02578 0.0
H240 H 0.38646 0.77472 0.30266 0.0
H241 H 0.37736 0.63092 0.38089 0.0
H242 H 0.35419 0.61305 0.30226 0.0
H243 H 0.33416 0.75174 0.37464 0.0
H244 H 0.38883 0.63008 0.35304 0.0
H245 H 0.3922 0.77523 0.33021 0.0
C246 C 0.38119 0.7394 0.30839 0.0
C247 C 0.36887 0.69345 0.30017 0.0
C248 C 0.37687 0.65662 0.3579 0.0
C249 C 0.37471 0.69357 0.33189 0.0
C250 C 0.37038 0.65715 0.37372 0.0
C251 C 0.35444 0.69119 0.3801 0.0
C252 C 0.3687 0.69133 0.34863 0.0
C253 C 0.34597 0.72442 0.37031 0.0
C254 C 0.38429 0.73966 0.32414 0.0
C255 C 0.36346 0.64919 0.30821 0.0
N256 N 0.35347 0.72381 0.35517 0.0
N257 N 0.36565 0.64999 0.32373 0.0
H258 H 0.76026 0.44202 0.71511 0.0
H259 H 0.74882 0.31063 0.63459 0.0
H260 H 0.69346 0.27364 0.70913 0.0
H261 H 0.70395 0.42988 0.6403 0.0
H262 H 0.76708 0.31456 0.66207 0.0
H263 H 0.77791 0.45437 0.68763 0.0
C264 C 0.75119 0.40796 0.7081 0.0
C265 C 0.7255 0.35676 0.7143 0.0
C266 C 0.7549 0.34103 0.65717 0.0
C267 C 0.74592 0.37062 0.68316 0.0
C268 C 0.74498 0.33917 0.64154 0.0
C269 C 0.7253 0.3703 0.63527 0.0
C270 C 0.74614 0.37507 0.66642 0.0
C271 C 0.71947 0.4056 0.64477 0.0
C272 C 0.76086 0.41499 0.69247 0.0
C273 C 0.71342 0.31373 0.70472 0.0
N274 N 0.72969 0.40697 0.65992 0.0
N275 N 0.72359 0.32157 0.68959 0.0
H276 H 0.40558 0.75804 0.21393 0.0
H277 H 0.3867 0.6255 0.13302 0.0
H278 H 0.37305 0.59719 0.20846 0.0
H279 H 0.38295 0.77058 0.13934 0.0
H280 H 0.40073 0.62255 0.16035 0.0
H281 H 0.41723 0.77086 0.18654 0.0
C282 C 0.40177 0.7256 0.207 0.0
C283 C 0.38768 0.67617 0.21351 0.0
C284 C 0.39748 0.65535 0.15573 0.0
C285 C 0.40057 0.69066 0.18202 0.0
C286 C 0.38966 0.65723 0.14011 0.0
C287 C 0.38315 0.69816 0.13387 0.0
C288 C 0.39913 0.69482 0.16521 0.0
C289 C 0.38741 0.73812 0.14364 0.0
C290 C 0.40822 0.73295 0.19133 0.0
C291 C 0.38367 0.63586 0.20393 0.0
N292 N 0.39475 0.73524 0.15883 0.0
N293 N 0.38947 0.64378 0.18864 0.0
H294 H 0.76849 0.39989 0.46824 0.0
H295 H 0.63612 0.38702 0.54857 0.0
H296 H 0.60894 0.37142 0.47307 0.0
H297 H 0.77953 0.3798 0.54295 0.0
H298 H 0.63406 0.4006 0.52119 0.0
H299 H 0.78118 0.41254 0.49564 0.0
C300 C 0.73633 0.39718 0.47502 0.0
C301 C 0.68728 0.38394 0.46833 0.0
C302 C 0.66634 0.39672 0.52598 0.0
C303 C 0.7016 0.398 0.49984 0.0
C304 C 0.66772 0.38918 0.54163 0.0
C305 C 0.70787 0.38177 0.54808 0.0
C306 C 0.7055 0.39716 0.51668 0.0
C307 C 0.74767 0.38499 0.53849 0.0
C308 C 0.7436 0.4042 0.4907 0.0
C309 C 0.64731 0.38133 0.47774 0.0
N310 N 0.74526 0.39203 0.52327 0.0
N311 N 0.65513 0.38768 0.49305 0.0
H312 H 0.26054 0.60486 0.8058 0.0
H313 H 0.43124 0.7759 0.87666 0.0
H314 H 0.40072 0.7588 0.8016 0.0
H315 H 0.27843 0.63441 0.88098 0.0
H316 H 0.41707 0.77421 0.84919 0.0
H317 H 0.2622 0.61841 0.83328 0.0
C318 C 0.29118 0.64185 0.81061 0.0
C319 C 0.33079 0.68052 0.80138 0.0
C320 C 0.3863 0.74391 0.85616 0.0
C321 C 0.3334 0.69603 0.83287 0.0
C322 C 0.39437 0.74493 0.87187 0.0
C323 C 0.35619 0.70502 0.88114 0.0
C324 C 0.33996 0.70236 0.84964 0.0
C325 C 0.30911 0.66588 0.87428 0.0
C326 C 0.29219 0.64955 0.82632 0.0
C327 C 0.36951 0.72771 0.80827 0.0
N328 N 0.30263 0.66516 0.85895 0.0
N329 N 0.37023 0.73383 0.82359 0.0
H330 H 0.6556 0.40437 0.13335 0.0
H331 H 0.63501 0.26731 0.2138 0.0
H332 H 0.65818 0.25844 0.13934 0.0
H333 H 0.67088 0.4295 0.209 0.0
H334 H 0.62287 0.25597 0.18637 0.0
H335 H 0.64167 0.40633 0.16067 0.0
C336 C 0.65239 0.37224 0.14036 0.0
C337 C 0.65854 0.33135 0.13404 0.0
C338 C 0.6327 0.29387 0.19131 0.0
C339 C 0.64264 0.33354 0.16535 0.0
C340 C 0.63943 0.30037 0.207 0.0
C341 C 0.65465 0.34971 0.21372 0.0
C342 C 0.64122 0.33694 0.18217 0.0
C343 C 0.65935 0.39085 0.20431 0.0
C344 C 0.64464 0.37356 0.15597 0.0
C345 C 0.654 0.29089 0.14371 0.0
N346 N 0.65331 0.38376 0.18897 0.0
N347 N 0.64669 0.29319 0.15888 0.0
H348 H 0.26599 0.6501 0.5432 0.0
H349 H 0.43708 0.66068 0.47186 0.0
H350 H 0.41357 0.64968 0.54735 0.0
H351 H 0.27677 0.63162 0.46853 0.0
H352 H 0.42641 0.6482 0.49945 0.0
H353 H 0.266 0.63535 0.51587 0.0
C354 C 0.298 0.64613 0.53841 0.0
C355 C 0.34003 0.65159 0.54757 0.0
C356 C 0.39329 0.64368 0.49263 0.0
C357 C 0.34079 0.63547 0.51622 0.0
C358 C 0.39932 0.65057 0.47687 0.0
C359 C 0.35802 0.64781 0.46788 0.0
C360 C 0.3458 0.63441 0.49943 0.0
C361 C 0.30996 0.63473 0.47502 0.0
C362 C 0.29805 0.63774 0.52278 0.0
C363 C 0.38043 0.64599 0.54071 0.0
N364 N 0.30546 0.62928 0.49035 0.0
N365 N 0.3802 0.63899 0.52543 0.0
H366 H 0.62143 0.25184 0.87691 0.0
H367 H 0.78925 0.42152 0.80598 0.0
H368 H 0.77438 0.39343 0.88119 0.0
H369 H 0.65031 0.2665 0.80185 0.0
H370 H 0.78851 0.40873 0.83349 0.0
H371 H 0.63478 0.25284 0.84947 0.0
C372 C 0.65816 0.28269 0.87212 0.0
C373 C 0.69662 0.32283 0.88137 0.0
C374 C 0.75861 0.37718 0.82655 0.0
C375 C 0.71191 0.32468 0.84991 0.0
C376 C 0.75909 0.38445 0.81082 0.0
C377 C 0.71955 0.34524 0.80159 0.0
C378 C 0.71797 0.3306 0.83313 0.0
C379 C 0.68146 0.29798 0.80852 0.0
C380 C 0.66576 0.28331 0.85643 0.0
C381 C 0.74349 0.36179 0.87451 0.0
N382 N 0.68122 0.29228 0.82386 0.0
N383 N 0.74951 0.36213 0.85919 0.0
H384 H 0.90076 0.54638 0.08778 0.0
H385 H 0.14006 0.48467 0.08863 0.0
H386 H 0.87904 0.38988 0.09477 0.0
H387 H 0.16264 0.6423 0.09317 0.0
H388 H 0.04391 0.44887 0.08922 0.0
H389 H 0.997 0.58242 0.08813 0.0
C390 C 0.91611 0.51964 0.08944 0.0
C391 C 0.88158 0.46502 0.09127 0.0
C392 C 0.07002 0.49128 0.09014 0.0
C393 C 0.99163 0.50586 0.09153 0.0
C394 C 0.12491 0.51173 0.08978 0.0
C395 C 0.15964 0.56658 0.09088 0.0
C396 C 0.04967 0.52596 0.09143 0.0
C397 C 0.13757 0.59972 0.09235 0.0
C398 C 0.97105 0.54021 0.08965 0.0
C399 C 0.90392 0.43227 0.09336 0.0
N400 N 0.08416 0.57895 0.0925 0.0
N401 N 0.95734 0.45312 0.09335 0.0
H402 H 0.53392 0.15931 0.43577 0.0
H403 H 0.50843 0.87281 0.43634 0.0
H404 H 0.66847 0.13502 0.43414 0.0
H405 H 0.37398 0.8974 0.43529 0.0
H406 H 0.56738 0.96834 0.43794 0.0
H407 H 0.47539 0.06396 0.43792 0.0
C408 C 0.55135 0.134 0.43595 0.0
C409 C 0.60645 0.15549 0.43467 0.0
C410 C 0.52501 0.95293 0.43747 0.0
C411 C 0.53899 0.04551 0.43711 0.0
C412 C 0.49113 0.89822 0.43658 0.0
C413 C 0.43592 0.87678 0.43558 0.0
C414 C 0.50379 0.98687 0.43735 0.0
C415 C 0.41615 0.91197 0.43601 0.0
C416 C 0.51769 0.07937 0.43717 0.0
C417 C 0.62636 0.1204 0.43505 0.0
N418 N 0.45007 0.96524 0.43676 0.0
N419 N 0.59263 0.06716 0.43616 0.0
H420 H 0.49461 0.36192 0.75658 0.0
H421 H 0.55317 0.66203 0.75897 0.0
H422 H 0.65076 0.49757 0.76302 0.0
H423 H 0.39591 0.52557 0.76133 0.0
H424 H 0.58991 0.60242 0.75945 0.0
H425 H 0.45752 0.42126 0.75732 0.0
C426 C 0.52107 0.40402 0.7582 0.0
C427 C 0.57591 0.42461 0.75974 0.0
C428 C 0.54736 0.5856 0.75992 0.0
C429 C 0.53381 0.49285 0.76047 0.0
C430 C 0.52638 0.61966 0.75963 0.0
C431 C 0.47134 0.59896 0.76011 0.0
C432 C 0.51309 0.53038 0.76056 0.0
C433 C 0.4386 0.54354 0.76096 0.0
C434 C 0.49988 0.43791 0.75863 0.0
C435 C 0.60823 0.47968 0.7618 0.0
N436 N 0.45991 0.51131 0.76109 0.0
N437 N 0.58677 0.51176 0.76203 0.0
H438 H 0.49129 0.13494 0.59278 0.0
H439 H 0.55835 0.89979 0.58985 0.0
H440 H 0.6484 0.15994 0.58498 0.0
H441 H 0.39919 0.87383 0.5861 0.0
H442 H 0.59231 0.99556 0.58912 0.0
H443 H 0.45648 0.03895 0.59145 0.0
C444 C 0.51841 0.12037 0.59073 0.0
C445 C 0.57287 0.15574 0.58901 0.0
C446 C 0.54996 0.96883 0.58837 0.0
C447 C 0.53344 0.04602 0.58761 0.0
C448 C 0.53057 0.91413 0.58879 0.0
C449 C 0.47583 0.87856 0.58805 0.0
C450 C 0.51436 0.98817 0.58738 0.0
C451 C 0.44172 0.89961 0.58668 0.0
C452 C 0.49854 0.06558 0.58995 0.0
C453 C 0.60613 0.13441 0.58637 0.0
N454 N 0.46149 0.9529 0.58651 0.0
N455 N 0.58596 0.08112 0.58585 0.0
H456 H 0.37716 0.48485 0.92664 0.0
H457 H 0.67754 0.54434 0.92697 0.0
H458 H 0.51266 0.6418 0.92178 0.0
H459 H 0.54196 0.38781 0.92113 0.0
H460 H 0.61777 0.581 0.92658 0.0
H461 H 0.43698 0.44829 0.92616 0.0
C462 C 0.41934 0.5116 0.92544 0.0
C463 C 0.43973 0.56649 0.92423 0.0
C464 C 0.60123 0.53864 0.92533 0.0
C465 C 0.50852 0.52501 0.9238 0.0
C466 C 0.63535 0.51771 0.92556 0.0
C467 C 0.61493 0.46289 0.92406 0.0
C468 C 0.54621 0.50448 0.92375 0.0
C469 C 0.55974 0.43033 0.92228 0.0
C470 C 0.45351 0.49073 0.92515 0.0
C471 C 0.49492 0.59921 0.92271 0.0
N472 N 0.52743 0.45154 0.92226 0.0
N473 N 0.52727 0.57804 0.92261 0.0
H474 H 0.14265 0.66291 0.24726 0.0
H475 H 0.90137 0.36286 0.24589 0.0
H476 H 0.16277 0.5257 0.24619 0.0
H477 H 0.88089 0.49989 0.24573 0.0
H478 H 0.99735 0.422 0.24422 0.0
H479 H 0.04663 0.60405 0.24503 0.0
C480 C 0.12703 0.62055 0.24645 0.0
C481 C 0.16101 0.59937 0.24702 0.0
C482 C 0.97178 0.43908 0.24443 0.0
C483 C 0.05105 0.53165 0.24452 0.0
C484 C 0.91691 0.40526 0.24534 0.0
C485 C 0.88285 0.42629 0.24606 0.0
C486 C 0.99282 0.49437 0.24426 0.0
C487 C 0.90545 0.48172 0.24532 0.0
C488 C 0.07215 0.58691 0.24519 0.0
C489 C 0.1383 0.544 0.2459 0.0
N490 N 0.95887 0.51372 0.24457 0.0
N491 N 0.08491 0.5122 0.24479 0.0
H492 H 0.63754 0.51967 0.06276 0.0
H493 H 0.4278 0.55426 0.11084 0.0
H494 H 0.60972 0.47105 0.10976 0.0
H495 H 0.40285 0.51032 0.06345 0.0
H496 H 0.503 0.53811 0.11135 0.0
H497 H 0.56169 0.5343 0.06345 0.0
C498 C 0.61612 0.51304 0.07331 0.0
C499 C 0.62997 0.49417 0.08623 0.0
C500 C 0.48061 0.53154 0.1009 0.0
C501 C 0.5432 0.51065 0.08704 0.0
C502 C 0.43769 0.54053 0.10061 0.0
C503 C 0.40887 0.53329 0.0871 0.0
C504 C 0.49567 0.51677 0.08749 0.0
C505 C 0.42363 0.51588 0.07414 0.0
C506 C 0.57252 0.52079 0.07363 0.0
C507 C 0.60033 0.4856 0.09954 0.0
N508 N 0.46648 0.50896 0.07459 0.0
N509 N 0.5584 0.49411 0.09963 0.0
H510 H 0.92404 0.35935 0.42521 0.0
H511 H 0.11925 0.67033 0.4265 0.0
H512 H 0.87281 0.46784 0.43992 0.0
H513 H 0.17484 0.55999 0.4348 0.0
H514 H 0.02758 0.59672 0.42861 0.0
H515 H 1.01625 0.43249 0.42602 0.0
C516 C 0.9322 0.39832 0.42876 0.0
C517 C 0.89068 0.40741 0.43255 0.0
C518 C 0.06001 0.58888 0.43008 0.0
C519 C 0.9956 0.49129 0.43311 0.0
C520 C 0.11221 0.63079 0.42885 0.0
C521 C 0.15474 0.62134 0.43052 0.0
C522 C 0.05036 0.53709 0.43264 0.0
C523 C 0.14329 0.56919 0.43351 0.0
C524 C 0.98471 0.44 0.42921 0.0
C525 C 0.90356 0.45888 0.43698 0.0
N526 N 0.09229 0.52899 0.4343 0.0
N527 N 0.95473 0.49897 0.43696 0.0
H528 H 0.51976 0.12491 0.73322 0.0
H529 H 0.48133 0.87958 0.78177 0.0
H530 H 0.57378 0.14852 0.77984 0.0
H531 H 0.53147 0.90079 0.735 0.0
H532 H 0.49883 0.97154 0.78214 0.0
H533 H 0.50394 0.03406 0.73446 0.0
C534 C 0.52736 0.11069 0.74381 0.0
C535 C 0.54811 0.14433 0.75645 0.0
C536 C 0.50643 0.956 0.77188 0.0
C537 C 0.53003 0.04049 0.75791 0.0
C538 C 0.49666 0.90376 0.77167 0.0
C539 C 0.50533 0.88266 0.75836 0.0
C540 C 0.52328 0.98657 0.75857 0.0
C541 C 0.52476 0.91558 0.74555 0.0
C542 C 0.51887 0.05909 0.74444 0.0
C543 C 0.5578 0.12387 0.76983 0.0
N544 N 0.53229 0.96557 0.74589 0.0
N545 N 0.54843 0.0731 0.77025 0.0
H546 H 0.53312 0.63766 0.61967 0.0
H547 H 0.56245 0.424 0.57183 0.0
H548 H 0.47754 0.60448 0.57323 0.0
H549 H 0.52156 0.40102 0.61936 0.0
H550 H 0.54656 0.49939 0.57142 0.0
H551 H 0.54749 0.56148 0.6191 0.0
C552 C 0.52485 0.61494 0.60928 0.0
C553 C 0.50416 0.62737 0.59647 0.0
C554 C 0.54064 0.47742 0.58187 0.0
C555 C 0.52047 0.54048 0.59577 0.0
C556 C 0.5495 0.43442 0.58212 0.0
C557 C 0.54291 0.40603 0.59563 0.0
C558 C 0.52673 0.49304 0.59534 0.0
C559 C 0.52652 0.42145 0.60867 0.0
C560 C 0.53248 0.57122 0.60902 0.0
C561 C 0.4935 0.59615 0.58336 0.0
N562 N 0.51974 0.4644 0.60826 0.0
N563 N 0.50203 0.55425 0.5833 0.0
H564 H 0.16053 0.55831 0.90355 0.0
H565 H 0.91415 0.51886 0.95133 0.0
H566 H 0.14074 0.5119 0.95074 0.0
H567 H 0.89274 0.46712 0.90461 0.0
H568 H 1.00524 0.53539 0.95056 0.0
H569 H 0.06853 0.54046 0.90292 0.0
C570 C 0.13667 0.54378 0.91371 0.0
C571 C 0.15818 0.53623 0.9272 0.0
C572 C 0.98064 0.52078 0.94046 0.0
C573 C 0.0541 0.51777 0.92667 0.0
C574 C 0.92889 0.51188 0.94082 0.0
C575 C 0.8958 0.4916 0.92801 0.0
C576 C 0.99994 0.51045 0.92709 0.0
C577 C 0.91693 0.48273 0.91475 0.0
C578 C 0.08438 0.53379 0.91334 0.0
C579 C 0.12563 0.51775 0.94006 0.0
N580 N 0.96781 0.49244 0.9146 0.0
N581 N 0.07553 0.5099 0.93955 0.0
H582 H 0.47464 0.86232 0.24135 0.0
H583 H 0.56442 0.16843 0.24693 0.0
H584 H 0.36862 0.91594 0.25653 0.0
H585 H 0.67331 0.11087 0.25501 0.0
H586 H 0.49171 0.07694 0.24503 0.0
H587 H 0.54694 0.95429 0.24079 0.0
C588 C 0.4663 0.89348 0.24435 0.0
C589 C 0.41539 0.88137 0.24902 0.0
C590 C 0.53156 0.08439 0.24715 0.0
C591 C 0.49817 0.98672 0.24832 0.0
C592 C 0.57319 0.13655 0.24815 0.0
C593 C 0.62512 0.14734 0.25116 0.0
C594 C 0.54188 0.04253 0.24886 0.0
C595 C 0.6339 0.10435 0.25272 0.0
C596 C 0.50775 0.94588 0.24413 0.0
C597 C 0.40721 0.92347 0.25288 0.0
N598 N 0.5927 0.05375 0.25149 0.0
N599 N 0.44816 0.97434 0.25241 0.0
loop_
_geom_bond_atom_site_label_1
_geom_bond_atom_site_label_2
_geom_bond_distance
_geom_bond_site_symmetry_2
_ccdc_geom_bond_type
O0 Cd1 2.223 . S
O0 C8 1.315 . S
Cd1 O0 2.223 . S
Cd1 O4 2.297 . S
Cd1 O5 2.439 . S
Cd1 O11 2.240 . S
Cd2 O3 2.240 . S
Cd2 O10 2.223 . S
Cd2 O12 2.297 . S
Cd2 O13 2.439 . S
O3 Cd2 2.240 . S
O3 C8 1.279 . S
O4 Cd1 2.297 . S
O4 C6 1.247 . S
O5 Cd1 2.439 . S
O5 C6 1.208 . S
C6 O4 1.247 . S
C6 O5 1.208 . S
C7 O12 1.247 . S
C7 O13 1.208 . S
C8 O0 1.315 . S
C8 O3 1.279 . S
C9 O10 1.315 . S
C9 O11 1.279 . S
O10 Cd2 2.223 . S
O10 C9 1.315 . S
O11 Cd1 2.240 . S
O11 C9 1.279 . S
O12 Cd2 2.297 . S
O12 C7 1.247 . S
O13 Cd2 2.439 . S
O13 C7 1.208 . S
O14 Cd15 2.223 . S
O14 C22 1.315 . S
Cd15 O14 2.223 . S
Cd15 O18 2.297 . S
Cd15 O19 2.439 . S
Cd15 O25 2.240 . S
Cd16 O17 2.240 . S
Cd16 O24 2.223 . S
Cd16 O26 2.297 . S
Cd16 O27 2.439 . S
O17 Cd16 2.240 . S
O17 C22 1.279 . S
O18 Cd15 2.297 . S
O18 C20 1.247 . S
O19 Cd15 2.439 . S
O19 C20 1.208 . S
C20 O18 1.247 . S
C20 O19 1.208 . S
C21 O26 1.247 . S
C21 O27 1.208 . S
C22 O14 1.315 . S
C22 O17 1.279 . S
C23 O24 1.315 . S
C23 O25 1.279 . S
O24 Cd16 2.223 . S
O24 C23 1.315 . S
O25 Cd15 2.240 . S
O25 C23 1.279 . S
O26 Cd16 2.297 . S
O26 C21 1.247 . S
O27 Cd16 2.439 . S
O27 C21 1.208 . S
O28 Cd29 2.223 . S
O28 C36 1.315 . S
Cd29 O28 2.223 . S
Cd29 O32 2.297 . S
Cd29 O33 2.439 . S
Cd29 O39 2.240 . S
Cd30 O31 2.240 . S
Cd30 O38 2.223 . S
Cd30 O40 2.297 . S
Cd30 O41 2.439 . S
O31 Cd30 2.240 . S
O31 C36 1.279 . S
O32 Cd29 2.297 . S
O32 C34 1.247 . S
O33 Cd29 2.439 . S
O33 C34 1.208 . S
C34 O32 1.247 . S
C34 O33 1.208 . S
C35 O40 1.247 . S
C35 O41 1.208 . S
C36 O28 1.315 . S
C36 O31 1.279 . S
C37 O38 1.315 . S
C37 O39 1.279 . S
O38 Cd30 2.223 . S
O38 C37 1.315 . S
O39 Cd29 2.240 . S
O39 C37 1.279 . S
O40 Cd30 2.297 . S
O40 C35 1.247 . S
O41 Cd30 2.439 . S
O41 C35 1.208 . S
O42 Cd43 2.223 . S
O42 C50 1.315 . S
Cd43 O42 2.223 . S
Cd43 O46 2.297 . S
Cd43 O47 2.439 . S
Cd43 O53 2.240 . S
Cd44 O45 2.240 . S
Cd44 O52 2.223 . S
Cd44 O54 2.297 . S
Cd44 O55 2.439 . S
O45 Cd44 2.240 . S
O45 C50 1.279 . S
O46 Cd43 2.297 . S
O46 C48 1.247 . S
O47 Cd43 2.439 . S
O47 C48 1.208 . S
C48 O46 1.247 . S
C48 O47 1.208 . S
C49 O54 1.247 . S
C49 O55 1.208 . S
C50 O42 1.315 . S
C50 O45 1.279 . S
C51 O52 1.315 . S
C51 O53 1.279 . S
O52 Cd44 2.223 . S
O52 C51 1.315 . S
O53 Cd43 2.240 . S
O53 C51 1.279 . S
O54 Cd44 2.297 . S
O54 C49 1.247 . S
O55 Cd44 2.439 . S
O55 C49 1.208 . S
O56 Cd57 2.223 . S
O56 C64 1.315 . S
Cd57 O56 2.223 . S
Cd57 O60 2.297 . S
Cd57 O61 2.439 . S
Cd57 O67 2.240 . S
Cd58 O59 2.240 . S
Cd58 O66 2.223 . S
Cd58 O68 2.297 . S
Cd58 O69 2.439 . S
O59 Cd58 2.240 . S
O59 C64 1.279 . S
O60 Cd57 2.297 . S
O60 C62 1.247 . S
O61 Cd57 2.439 . S
O61 C62 1.208 . S
C62 O60 1.247 . S
C62 O61 1.208 . S
C63 O68 1.247 . S
C63 O69 1.208 . S
C64 O56 1.315 . S
C64 O59 1.279 . S
C65 O66 1.315 . S
C65 O67 1.279 . S
O66 Cd58 2.223 . S
O66 C65 1.315 . S
O67 Cd57 2.240 . S
O67 C65 1.279 . S
O68 Cd58 2.297 . S
O68 C63 1.247 . S
O69 Cd58 2.439 . S
O69 C63 1.208 . S
O70 Cd71 2.223 . S
O70 C78 1.315 . S
Cd71 O70 2.223 . S
Cd71 O74 2.297 . S
Cd71 O75 2.439 . S
Cd71 O81 2.240 . S
Cd72 O73 2.240 . S
Cd72 O80 2.223 . S
Cd72 O82 2.297 . S
Cd72 O83 2.439 . S
O73 Cd72 2.240 . S
O73 C78 1.279 . S
O74 Cd71 2.297 . S
O74 C76 1.247 . S
O75 Cd71 2.439 . S
O75 C76 1.208 . S
C76 O74 1.247 . S
C76 O75 1.208 . S
C77 O82 1.247 . S
C77 O83 1.208 . S
C78 O70 1.315 . S
C78 O73 1.279 . S
C79 O80 1.315 . S
C79 O81 1.279 . S
O80 Cd72 2.223 . S
O80 C79 1.315 . S
O81 Cd71 2.240 . S
O81 C79 1.279 . S
O82 Cd72 2.297 . S
O82 C77 1.247 . S
O83 Cd72 2.439 . S
O83 C77 1.208 . S
O84 Cd85 2.223 . S
O84 C92 1.315 . S
Cd85 O84 2.223 . S
Cd85 O88 2.297 . S
Cd85 O89 2.439 . S
Cd85 O95 2.240 . S
Cd86 O87 2.240 . S
Cd86 O94 2.223 . S
Cd86 O96 2.297 . S
Cd86 O97 2.439 . S
O87 Cd86 2.240 . S
O87 C92 1.279 . S
O88 Cd85 2.297 . S
O88 C90 1.247 . S
O89 Cd85 2.439 . S
O89 C90 1.208 . S
C90 O88 1.247 . S
C90 O89 1.208 . S
C91 O96 1.247 . S
C91 O97 1.208 . S
C92 O84 1.315 . S
C92 O87 1.279 . S
C93 O94 1.315 . S
C93 O95 1.279 . S
O94 Cd86 2.223 . S
O94 C93 1.315 . S
O95 Cd85 2.240 . S
O95 C93 1.279 . S
O96 Cd86 2.297 . S
O96 C91 1.247 . S
O97 Cd86 2.439 . S
O97 C91 1.208 . S
O98 Cd99 2.223 . S
O98 C106 1.315 . S
Cd99 O98 2.223 . S
Cd99 O102 2.297 . S
Cd99 O103 2.439 . S
Cd99 O109 2.240 . S
Cd100 O101 2.240 . S
Cd100 O108 2.223 . S
Cd100 O110 2.297 . S
Cd100 O111 2.439 . S
O101 Cd100 2.240 . S
O101 C106 1.279 . S
O102 Cd99 2.297 . S
O102 C104 1.247 . S
O103 Cd99 2.439 . S
O103 C104 1.208 . S
C104 O102 1.247 . S
C104 O103 1.208 . S
C105 O110 1.247 . S
C105 O111 1.208 . S
C106 O98 1.315 . S
C106 O101 1.279 . S
C107 O108 1.315 . S
C107 O109 1.279 . S
O108 Cd100 2.223 . S
O108 C107 1.315 . S
O109 Cd99 2.240 . S
O109 C107 1.279 . S
O110 Cd100 2.297 . S
O110 C105 1.247 . S
O111 Cd100 2.439 . S
O111 C105 1.208 . S
O112 Cd113 2.223 . S
O112 C120 1.315 . S
Cd113 O112 2.223 . S
Cd113 O116 2.297 . S
Cd113 O117 2.439 . S
Cd113 O123 2.240 . S
Cd114 O115 2.240 . S
Cd114 O122 2.223 . S
Cd114 O124 2.297 . S
Cd114 O125 2.439 . S
O115 Cd114 2.240 . S
O115 C120 1.279 . S
O116 Cd113 2.297 . S
O116 C118 1.247 . S
O117 Cd113 2.439 . S
O117 C118 1.208 . S
C118 O116 1.247 . S
C118 O117 1.208 . S
C119 O124 1.247 . S
C119 O125 1.208 . S
C120 O112 1.315 . S
C120 O115 1.279 . S
C121 O122 1.315 . S
C121 O123 1.279 . S
O122 Cd114 2.223 . S
O122 C121 1.315 . S
O123 Cd113 2.240 . S
O123 C121 1.279 . S
O124 Cd114 2.297 . S
O124 C119 1.247 . S
O125 Cd114 2.439 . S
O125 C119 1.208 . S
O126 Cd127 2.223 . S
O126 C134 1.315 . S
Cd127 O126 2.223 . S
Cd127 O130 2.297 . S
Cd127 O131 2.439 . S
Cd127 O137 2.240 . S
Cd128 O129 2.240 . S
Cd128 O136 2.223 . S
Cd128 O138 2.297 . S
Cd128 O139 2.439 . S
O129 Cd128 2.240 . S
O129 C134 1.279 . S
O130 Cd127 2.297 . S
O130 C132 1.247 . S
O131 Cd127 2.439 . S
O131 C132 1.208 . S
C132 O130 1.247 . S
C132 O131 1.208 . S
C133 O138 1.247 . S
C133 O139 1.208 . S
C134 O126 1.315 . S
C134 O129 1.279 . S
C135 O136 1.315 . S
C135 O137 1.279 . S
O136 Cd128 2.223 . S
O136 C135 1.315 . S
O137 Cd127 2.240 . S
O137 C135 1.279 . S
O138 Cd128 2.297 . S
O138 C133 1.247 . S
O139 Cd128 2.439 . S
O139 C133 1.208 . S
O140 Cd141 2.223 . S
O140 C148 1.315 . S
Cd141 O140 2.223 . S
Cd141 O144 2.297 . S
Cd141 O145 2.439 . S
Cd141 O151 2.240 . S
Cd142 O143 2.240 . S
Cd142 O150 2.223 . S
Cd142 O152 2.297 . S
Cd142 O153 2.439 . S
O143 Cd142 2.240 . S
O143 C148 1.279 . S
O144 Cd141 2.297 . S
O144 C146 1.247 . S
O145 Cd141 2.439 . S
O145 C146 1.208 . S
C146 O144 1.247 . S
C146 O145 1.208 . S
C147 O152 1.247 . S
C147 O153 1.208 . S
C148 O140 1.315 . S
C148 O143 1.279 . S
C149 O150 1.315 . S
C149 O151 1.279 . S
O150 Cd142 2.223 . S
O150 C149 1.315 . S
O151 Cd141 2.240 . S
O151 C149 1.279 . S
O152 Cd142 2.297 . S
O152 C147 1.247 . S
O153 Cd142 2.439 . S
O153 C147 1.208 . S
O154 Cd155 2.223 . S
O154 C162 1.315 . S
Cd155 O154 2.223 . S
Cd155 O158 2.297 . S
Cd155 O159 2.439 . S
Cd155 O165 2.240 . S
Cd156 O157 2.240 . S
Cd156 O164 2.223 . S
Cd156 O166 2.297 . S
Cd156 O167 2.439 . S
O157 Cd156 2.240 . S
O157 C162 1.279 . S
O158 Cd155 2.297 . S
O158 C160 1.247 . S
O159 Cd155 2.439 . S
O159 C160 1.208 . S
C160 O158 1.247 . S
C160 O159 1.208 . S
C161 O166 1.247 . S
C161 O167 1.208 . S
C162 O154 1.315 . S
C162 O157 1.279 . S
C163 O164 1.315 . S
C163 O165 1.279 . S
O164 Cd156 2.223 . S
O164 C163 1.315 . S
O165 Cd155 2.240 . S
O165 C163 1.279 . S
O166 Cd156 2.297 . S
O166 C161 1.247 . S
O167 Cd156 2.439 . S
O167 C161 1.208 . S
H168 C174 0.930 . S
H169 C178 0.930 . S
H170 C183 0.929 . S
H171 C181 0.929 . S
H172 C176 0.929 . S
H173 C182 0.929 . S
C174 H168 0.930 . S
C174 C175 1.367 . S
C174 C182 1.378 . S
C175 C174 1.367 . S
C175 C183 1.433 . S
C176 H172 0.929 . S
C176 C178 1.378 . S
C176 C180 1.350 . S
C177 C180 1.463 1_556 S
C177 C182 1.350 . S
C177 N185 1.427 . S
C178 H169 0.930 . S
C178 C176 1.378 . S
C178 C179 1.367 . S
C179 C178 1.367 . S
C179 C181 1.433 . S
C180 C176 1.350 . S
C180 C177 1.463 1_554 S
C180 N184 1.427 . S
C181 H171 0.929 . S
C181 C179 1.433 . S
C181 N184 1.384 . S
C182 H173 0.929 . S
C182 C174 1.378 . S
C182 C177 1.350 . S
C183 H170 0.929 . S
C183 C175 1.433 . S
C183 N185 1.384 . S
N184 C180 1.427 . S
N184 C181 1.384 . S
N185 C177 1.427 . S
N185 C183 1.384 . S
H186 C192 0.930 . S
H187 C196 0.930 . S
H188 C201 0.929 . S
H189 C199 0.929 . S
H190 C194 0.929 . S
H191 C200 0.929 . S
C192 H186 0.930 . S
C192 C193 1.367 . S
C192 C200 1.378 . S
C193 C192 1.367 . S
C193 C201 1.433 . S
C194 H190 0.929 . S
C194 C196 1.378 . S
C194 C198 1.350 . S
C195 C198 1.463 . S
C195 C200 1.350 . S
C195 N203 1.427 . S
C196 H187 0.930 . S
C196 C194 1.378 . S
C196 C197 1.367 . S
C197 C196 1.367 . S
C197 C199 1.433 . S
C198 C194 1.350 . S
C198 C195 1.463 . S
C198 N202 1.427 . S
C199 H189 0.929 . S
C199 C197 1.433 . S
C199 N202 1.384 . S
C200 H191 0.929 . S
C200 C192 1.378 . S
C200 C195 1.350 . S
C201 H188 0.929 . S
C201 C193 1.433 . S
C201 N203 1.384 . S
N202 C198 1.427 . S
N202 C199 1.384 . S
N203 C195 1.427 . S
N203 C201 1.384 . S
H204 C210 0.930 . S
H205 C214 0.930 . S
H206 C219 0.929 . S
H207 C217 0.929 . S
H208 C212 0.929 . S
H209 C218 0.929 . S
C210 H204 0.930 . S
C210 C211 1.367 . S
C210 C218 1.378 . S
C211 C210 1.367 . S
C211 C219 1.433 . S
C212 H208 0.929 . S
C212 C214 1.378 . S
C212 C216 1.350 . S
C213 C216 1.463 . S
C213 C218 1.350 . S
C213 N221 1.427 . S
C214 H205 0.930 . S
C214 C212 1.378 . S
C214 C215 1.367 . S
C215 C214 1.367 . S
C215 C217 1.433 . S
C216 C212 1.350 . S
C216 C213 1.463 . S
C216 N220 1.427 . S
C217 H207 0.929 . S
C217 C215 1.433 . S
C217 N220 1.384 . S
C218 H209 0.929 . S
C218 C210 1.378 . S
C218 C213 1.350 . S
C219 H206 0.929 . S
C219 C211 1.433 . S
C219 N221 1.384 . S
N220 C216 1.427 . S
N220 C217 1.384 . S
N221 C213 1.427 . S
N221 C219 1.384 . S
H222 C228 0.930 . S
H223 C232 0.930 . S
H224 C237 0.929 . S
H225 C235 0.929 . S
H226 C230 0.929 . S
H227 C236 0.929 . S
C228 H222 0.930 . S
C228 C229 1.367 . S
C228 C236 1.378 . S
C229 C228 1.367 . S
C229 C237 1.433 . S
C230 H226 0.929 . S
C230 C232 1.378 . S
C230 C234 1.350 . S
C231 C234 1.463 1_554 S
C231 C236 1.350 . S
C231 N239 1.427 . S
C232 H223 0.930 . S
C232 C230 1.378 . S
C232 C233 1.367 . S
C233 C232 1.367 . S
C233 C235 1.433 . S
C234 C230 1.350 . S
C234 C231 1.463 1_556 S
C234 N238 1.427 . S
C235 H225 0.929 . S
C235 C233 1.433 . S
C235 N238 1.384 . S
C236 H227 0.929 . S
C236 C228 1.378 . S
C236 C231 1.350 . S
C237 H224 0.929 . S
C237 C229 1.433 . S
C237 N239 1.384 . S
N238 C234 1.427 . S
N238 C235 1.384 . S
N239 C231 1.427 . S
N239 C237 1.384 . S
H240 C246 0.930 . S
H241 C250 0.930 . S
H242 C255 0.929 . S
H243 C253 0.929 . S
H244 C248 0.929 . S
H245 C254 0.929 . S
C246 H240 0.930 . S
C246 C247 1.367 . S
C246 C254 1.378 . S
C247 C246 1.367 . S
C247 C255 1.433 . S
C248 H244 0.929 . S
C248 C250 1.378 . S
C248 C252 1.350 . S
C249 C252 1.463 . S
C249 C254 1.350 . S
C249 N257 1.427 . S
C250 H241 0.930 . S
C250 C248 1.378 . S
C250 C251 1.367 . S
C251 C250 1.367 . S
C251 C253 1.433 . S
C252 C248 1.350 . S
C252 C249 1.463 . S
C252 N256 1.427 . S
C253 H243 0.929 . S
C253 C251 1.433 . S
C253 N256 1.384 . S
C254 H245 0.929 . S
C254 C246 1.378 . S
C254 C249 1.350 . S
C255 H242 0.929 . S
C255 C247 1.433 . S
C255 N257 1.384 . S
N256 C252 1.427 . S
N256 C253 1.384 . S
N257 C249 1.427 . S
N257 C255 1.384 . S
H258 C264 0.930 . S
H259 C268 0.930 . S
H260 C273 0.929 . S
H261 C271 0.929 . S
H262 C266 0.929 . S
H263 C272 0.929 . S
C264 H258 0.930 . S
C264 C265 1.367 . S
C264 C272 1.378 . S
C265 C264 1.367 . S
C265 C273 1.433 . S
C266 H262 0.929 . S
C266 C268 1.378 . S
C266 C270 1.350 . S
C267 C270 1.463 . S
C267 C272 1.350 . S
C267 N275 1.427 . S
C268 H259 0.930 . S
C268 C266 1.378 . S
C268 C269 1.367 . S
C269 C268 1.367 . S
C269 C271 1.433 . S
C270 C266 1.350 . S
C270 C267 1.463 . S
C270 N274 1.427 . S
C271 H261 0.929 . S
C271 C269 1.433 . S
C271 N274 1.384 . S
C272 H263 0.929 . S
C272 C264 1.378 . S
C272 C267 1.350 . S
C273 H260 0.929 . S
C273 C265 1.433 . S
C273 N275 1.384 . S
N274 C270 1.427 . S
N274 C271 1.384 . S
N275 C267 1.427 . S
N275 C273 1.384 . S
H276 C282 0.930 . S
H277 C286 0.930 . S
H278 C291 0.929 . S
H279 C289 0.929 . S
H280 C284 0.929 . S
H281 C290 0.929 . S
C282 H276 0.930 . S
C282 C283 1.367 . S
C282 C290 1.378 . S
C283 C282 1.367 . S
C283 C291 1.433 . S
C284 H280 0.929 . S
C284 C286 1.378 . S
C284 C288 1.350 . S
C285 C288 1.463 . S
C285 C290 1.350 . S
C285 N293 1.427 . S
C286 H277 0.930 . S
C286 C284 1.378 . S
C286 C287 1.367 . S
C287 C286 1.367 . S
C287 C289 1.433 . S
C288 C284 1.350 . S
C288 C285 1.463 . S
C288 N292 1.427 . S
C289 H279 0.929 . S
C289 C287 1.433 . S
C289 N292 1.384 . S
C290 H281 0.929 . S
C290 C282 1.378 . S
C290 C285 1.350 . S
C291 H278 0.929 . S
C291 C283 1.433 . S
C291 N293 1.384 . S
N292 C288 1.427 . S
N292 C289 1.384 . S
N293 C285 1.427 . S
N293 C291 1.384 . S
H294 C300 0.930 . S
H295 C304 0.930 . S
H296 C309 0.929 . S
H297 C307 0.929 . S
H298 C302 0.929 . S
H299 C308 0.929 . S
C300 H294 0.930 . S
C300 C301 1.367 . S
C300 C308 1.378 . S
C301 C300 1.367 . S
C301 C309 1.433 . S
C302 H298 0.929 . S
C302 C304 1.378 . S
C302 C306 1.350 . S
C303 C306 1.463 . S
C303 C308 1.350 . S
C303 N311 1.427 . S
C304 H295 0.930 . S
C304 C302 1.378 . S
C304 C305 1.367 . S
C305 C304 1.367 . S
C305 C307 1.433 . S
C306 C302 1.350 . S
C306 C303 1.463 . S
C306 N310 1.427 . S
C307 H297 0.929 . S
C307 C305 1.433 . S
C307 N310 1.384 . S
C308 H299 0.929 . S
C308 C300 1.378 . S
C308 C303 1.350 . S
C309 H296 0.929 . S
C309 C301 1.433 . S
C309 N311 1.384 . S
N310 C306 1.427 . S
N310 C307 1.384 . S
N311 C303 1.427 . S
N311 C309 1.384 . S
H312 C318 0.930 . S
H313 C322 0.930 . S
H314 C327 0.929 . S
H315 C325 0.929 . S
H316 C320 0.929 . S
H317 C326 0.929 . S
C318 H312 0.930 . S
C318 C319 1.367 . S
C318 C326 1.378 . S
C319 C318 1.367 . S
C319 C327 1.433 . S
C320 H316 0.929 . S
C320 C322 1.378 . S
C320 C324 1.350 . S
C321 C324 1.463 . S
C321 C326 1.350 . S
C321 N329 1.427 . S
C322 H313 0.930 . S
C322 C320 1.378 . S
C322 C323 1.367 . S
C323 C322 1.367 . S
C323 C325 1.433 . S
C324 C320 1.350 . S
C324 C321 1.463 . S
C324 N328 1.427 . S
C325 H315 0.929 . S
C325 C323 1.433 . S
C325 N328 1.384 . S
C326 H317 0.929 . S
C326 C318 1.378 . S
C326 C321 1.350 . S
C327 H314 0.929 . S
C327 C319 1.433 . S
C327 N329 1.384 . S
N328 C324 1.427 . S
N328 C325 1.384 . S
N329 C321 1.427 . S
N329 C327 1.384 . S
H330 C336 0.930 . S
H331 C340 0.930 . S
H332 C345 0.929 . S
H333 C343 0.929 . S
H334 C338 0.929 . S
H335 C344 0.929 . S
C336 H330 0.930 . S
C336 C337 1.367 . S
C336 C344 1.378 . S
C337 C336 1.367 . S
C337 C345 1.433 . S
C338 H334 0.929 . S
C338 C340 1.378 . S
C338 C342 1.350 . S
C339 C342 1.463 . S
C339 C344 1.350 . S
C339 N347 1.427 . S
C340 H331 0.930 . S
C340 C338 1.378 . S
C340 C341 1.367 . S
C341 C340 1.367 . S
C341 C343 1.433 . S
C342 C338 1.350 . S
C342 C339 1.463 . S
C342 N346 1.427 . S
C343 H333 0.929 . S
C343 C341 1.433 . S
C343 N346 1.384 . S
C344 H335 0.929 . S
C344 C336 1.378 . S
C344 C339 1.350 . S
C345 H332 0.929 . S
C345 C337 1.433 . S
C345 N347 1.384 . S
N346 C342 1.427 . S
N346 C343 1.384 . S
N347 C339 1.427 . S
N347 C345 1.384 . S
H348 C354 0.930 . S
H349 C358 0.930 . S
H350 C363 0.929 . S
H351 C361 0.929 . S
H352 C356 0.929 . S
H353 C362 0.929 . S
C354 H348 0.930 . S
C354 C355 1.367 . S
C354 C362 1.378 . S
C355 C354 1.367 . S
C355 C363 1.433 . S
C356 H352 0.929 . S
C356 C358 1.378 . S
C356 C360 1.350 . S
C357 C360 1.463 . S
C357 C362 1.350 . S
C357 N365 1.427 . S
C358 H349 0.930 . S
C358 C356 1.378 . S
C358 C359 1.367 . S
C359 C358 1.367 . S
C359 C361 1.433 . S
C360 C356 1.350 . S
C360 C357 1.463 . S
C360 N364 1.427 . S
C361 H351 0.929 . S
C361 C359 1.433 . S
C361 N364 1.384 . S
C362 H353 0.929 . S
C362 C354 1.378 . S
C362 C357 1.350 . S
C363 H350 0.929 . S
C363 C355 1.433 . S
C363 N365 1.384 . S
N364 C360 1.427 . S
N364 C361 1.384 . S
N365 C357 1.427 . S
N365 C363 1.384 . S
H366 C372 0.930 . S
H367 C376 0.930 . S
H368 C381 0.929 . S
H369 C379 0.929 . S
H370 C374 0.929 . S
H371 C380 0.929 . S
C372 H366 0.930 . S
C372 C373 1.367 . S
C372 C380 1.378 . S
C373 C372 1.367 . S
C373 C381 1.433 . S
C374 H370 0.929 . S
C374 C376 1.378 . S
C374 C378 1.350 . S
C375 C378 1.463 . S
C375 C380 1.350 . S
C375 N383 1.427 . S
C376 H367 0.930 . S
C376 C374 1.378 . S
C376 C377 1.367 . S
C377 C376 1.367 . S
C377 C379 1.433 . S
C378 C374 1.350 . S
C378 C375 1.463 . S
C378 N382 1.427 . S
C379 H369 0.929 . S
C379 C377 1.433 . S
C379 N382 1.384 . S
C380 H371 0.929 . S
C380 C372 1.378 . S
C380 C375 1.350 . S
C381 H368 0.929 . S
C381 C373 1.433 . S
C381 N383 1.384 . S
N382 C378 1.427 . S
N382 C379 1.384 . S
N383 C375 1.427 . S
N383 C381 1.384 . S
H384 C390 0.930 . S
H385 C394 0.930 . S
H386 C399 0.929 . S
H387 C397 0.929 . S
H388 C392 0.929 . S
H389 C398 0.929 . S
C390 H384 0.930 . S
C390 C391 1.367 . S
C390 C398 1.378 . S
C391 C390 1.367 . S
C391 C399 1.433 . S
C392 H388 0.929 . S
C392 C394 1.378 . S
C392 C396 1.350 . S
C393 C396 1.463 1_655 S
C393 C398 1.350 . S
C393 N401 1.427 . S
C394 H385 0.930 . S
C394 C392 1.378 . S
C394 C395 1.367 . S
C395 C394 1.367 . S
C395 C397 1.433 . S
C396 C392 1.350 . S
C396 C393 1.463 1_455 S
C396 N400 1.427 . S
C397 H387 0.929 . S
C397 C395 1.433 . S
C397 N400 1.384 . S
C398 H389 0.929 . S
C398 C390 1.378 . S
C398 C393 1.350 . S
C399 H386 0.929 . S
C399 C391 1.433 . S
C399 N401 1.384 . S
N400 C396 1.427 . S
N400 C397 1.384 . S
N401 C393 1.427 . S
N401 C399 1.384 . S
H402 C408 0.930 . S
H403 C412 0.930 . S
H404 C417 0.929 . S
H405 C415 0.929 . S
H406 C410 0.929 . S
H407 C416 0.929 . S
C408 H402 0.930 . S
C408 C409 1.367 . S
C408 C416 1.378 . S
C409 C408 1.367 . S
C409 C417 1.433 . S
C410 H406 0.929 . S
C410 C412 1.378 . S
C410 C414 1.350 . S
C411 C414 1.463 1_545 S
C411 C416 1.350 . S
C411 N419 1.427 . S
C412 H403 0.930 . S
C412 C410 1.378 . S
C412 C413 1.367 . S
C413 C412 1.367 . S
C413 C415 1.433 . S
C414 C410 1.350 . S
C414 C411 1.463 1_565 S
C414 N418 1.427 . S
C415 H405 0.929 . S
C415 C413 1.433 . S
C415 N418 1.384 . S
C416 H407 0.929 . S
C416 C408 1.378 . S
C416 C411 1.350 . S
C417 H404 0.929 . S
C417 C409 1.433 . S
C417 N419 1.384 . S
N418 C414 1.427 . S
N418 C415 1.384 . S
N419 C411 1.427 . S
N419 C417 1.384 . S
H420 C426 0.930 . S
H421 C430 0.930 . S
H422 C435 0.929 . S
H423 C433 0.929 . S
H424 C428 0.929 . S
H425 C434 0.929 . S
C426 H420 0.930 . S
C426 C427 1.367 . S
C426 C434 1.378 . S
C427 C426 1.367 . S
C427 C435 1.433 . S
C428 H424 0.929 . S
C428 C430 1.378 . S
C428 C432 1.350 . S
C429 C432 1.463 . S
C429 C434 1.350 . S
C429 N437 1.427 . S
C430 H421 0.930 . S
C430 C428 1.378 . S
C430 C431 1.367 . S
C431 C430 1.367 . S
C431 C433 1.433 . S
C432 C428 1.350 . S
C432 C429 1.463 . S
C432 N436 1.427 . S
C433 H423 0.929 . S
C433 C431 1.433 . S
C433 N436 1.384 . S
C434 H425 0.929 . S
C434 C426 1.378 . S
C434 C429 1.350 . S
C435 H422 0.929 . S
C435 C427 1.433 . S
C435 N437 1.384 . S
N436 C432 1.427 . S
N436 C433 1.384 . S
N437 C429 1.427 . S
N437 C435 1.384 . S
H438 C444 0.930 . S
H439 C448 0.930 . S
H440 C453 0.929 . S
H441 C451 0.929 . S
H442 C446 0.929 . S
H443 C452 0.929 . S
C444 H438 0.930 . S
C444 C445 1.367 . S
C444 C452 1.378 . S
C445 C444 1.367 . S
C445 C453 1.433 . S
C446 H442 0.929 . S
C446 C448 1.378 . S
C446 C450 1.350 . S
C447 C450 1.463 1_545 S
C447 C452 1.350 . S
C447 N455 1.427 . S
C448 H439 0.930 . S
C448 C446 1.378 . S
C448 C449 1.367 . S
C449 C448 1.367 . S
C449 C451 1.433 . S
C450 C446 1.350 . S
C450 C447 1.463 1_565 S
C450 N454 1.427 . S
C451 H441 0.929 . S
C451 C449 1.433 . S
C451 N454 1.384 . S
C452 H443 0.929 . S
C452 C444 1.378 . S
C452 C447 1.350 . S
C453 H440 0.929 . S
C453 C445 1.433 . S
C453 N455 1.384 . S
N454 C450 1.427 . S
N454 C451 1.384 . S
N455 C447 1.427 . S
N455 C453 1.384 . S
H456 C462 0.930 . S
H457 C466 0.930 . S
H458 C471 0.929 . S
H459 C469 0.929 . S
H460 C464 0.929 . S
H461 C470 0.929 . S
C462 H456 0.930 . S
C462 C463 1.367 . S
C462 C470 1.378 . S
C463 C462 1.367 . S
C463 C471 1.433 . S
C464 H460 0.929 . S
C464 C466 1.378 . S
C464 C468 1.350 . S
C465 C468 1.463 . S
C465 C470 1.350 . S
C465 N473 1.427 . S
C466 H457 0.930 . S
C466 C464 1.378 . S
C466 C467 1.367 . S
C467 C466 1.367 . S
C467 C469 1.433 . S
C468 C464 1.350 . S
C468 C465 1.463 . S
C468 N472 1.427 . S
C469 H459 0.929 . S
C469 C467 1.433 . S
C469 N472 1.384 . S
C470 H461 0.929 . S
C470 C462 1.378 . S
C470 C465 1.350 . S
C471 H458 0.929 . S
C471 C463 1.433 . S
C471 N473 1.384 . S
N472 C468 1.427 . S
N472 C469 1.384 . S
N473 C465 1.427 . S
N473 C471 1.384 . S
H474 C480 0.930 . S
H475 C484 0.930 . S
H476 C489 0.929 . S
H477 C487 0.929 . S
H478 C482 0.929 . S
H479 C488 0.929 . S
C480 H474 0.930 . S
C480 C481 1.367 . S
C480 C488 1.378 . S
C481 C480 1.367 . S
C481 C489 1.433 . S
C482 H478 0.929 . S
C482 C484 1.378 . S
C482 C486 1.350 . S
C483 C486 1.463 1_455 S
C483 C488 1.350 . S
C483 N491 1.427 . S
C484 H475 0.930 . S
C484 C482 1.378 . S
C484 C485 1.367 . S
C485 C484 1.367 . S
C485 C487 1.433 . S
C486 C482 1.350 . S
C486 C483 1.463 1_655 S
C486 N490 1.427 . S
C487 H477 0.929 . S
C487 C485 1.433 . S
C487 N490 1.384 . S
C488 H479 0.929 . S
C488 C480 1.378 . S
C488 C483 1.350 . S
C489 H476 0.929 . S
C489 C481 1.433 . S
C489 N491 1.384 . S
N490 C486 1.427 . S
N490 C487 1.384 . S
N491 C483 1.427 . S
N491 C489 1.384 . S
H492 C498 0.930 . S
H493 C502 0.930 . S
H494 C507 0.929 . S
H495 C505 0.929 . S
H496 C500 0.929 . S
H497 C506 0.929 . S
C498 H492 0.930 . S
C498 C499 1.367 . S
C498 C506 1.378 . S
C499 C498 1.367 . S
C499 C507 1.433 . S
C500 H496 0.929 . S
C500 C502 1.378 . S
C500 C504 1.350 . S
C501 C504 1.463 . S
C501 C506 1.350 . S
C501 N509 1.427 . S
C502 H493 0.930 . S
C502 C500 1.378 . S
C502 C503 1.367 . S
C503 C502 1.367 . S
C503 C505 1.433 . S
C504 C500 1.350 . S
C504 C501 1.463 . S
C504 N508 1.427 . S
C505 H495 0.929 . S
C505 C503 1.433 . S
C505 N508 1.384 . S
C506 H497 0.929 . S
C506 C498 1.378 . S
C506 C501 1.350 . S
C507 H494 0.929 . S
C507 C499 1.433 . S
C507 N509 1.384 . S
N508 C504 1.427 . S
N508 C505 1.384 . S
N509 C501 1.427 . S
N509 C507 1.384 . S
H510 C516 0.930 . S
H511 C520 0.930 . S
H512 C525 0.929 . S
H513 C523 0.929 . S
H514 C518 0.929 . S
H515 C524 0.929 . S
C516 H510 0.930 . S
C516 C517 1.367 . S
C516 C524 1.378 . S
C517 C516 1.367 . S
C517 C525 1.433 . S
C518 H514 0.929 . S
C518 C520 1.378 . S
C518 C522 1.350 . S
C519 C522 1.463 1_655 S
C519 C524 1.350 . S
C519 N527 1.427 . S
C520 H511 0.930 . S
C520 C518 1.378 . S
C520 C521 1.367 . S
C521 C520 1.367 . S
C521 C523 1.433 . S
C522 C518 1.350 . S
C522 C519 1.463 1_455 S
C522 N526 1.427 . S
C523 H513 0.929 . S
C523 C521 1.433 . S
C523 N526 1.384 . S
C524 H515 0.929 . S
C524 C516 1.378 . S
C524 C519 1.350 . S
C525 H512 0.929 . S
C525 C517 1.433 . S
C525 N527 1.384 . S
N526 C522 1.427 . S
N526 C523 1.384 . S
N527 C519 1.427 . S
N527 C525 1.384 . S
H528 C534 0.930 . S
H529 C538 0.930 . S
H530 C543 0.929 . S
H531 C541 0.929 . S
H532 C536 0.929 . S
H533 C542 0.929 . S
C534 H528 0.930 . S
C534 C535 1.367 . S
C534 C542 1.378 . S
C535 C534 1.367 . S
C535 C543 1.433 . S
C536 H532 0.929 . S
C536 C538 1.378 . S
C536 C540 1.350 . S
C537 C540 1.463 1_545 S
C537 C542 1.350 . S
C537 N545 1.427 . S
C538 H529 0.930 . S
C538 C536 1.378 . S
C538 C539 1.367 . S
C539 C538 1.367 . S
C539 C541 1.433 . S
C540 C536 1.350 . S
C540 C537 1.463 1_565 S
C540 N544 1.427 . S
C541 H531 0.929 . S
C541 C539 1.433 . S
C541 N544 1.384 . S
C542 H533 0.929 . S
C542 C534 1.378 . S
C542 C537 1.350 . S
C543 H530 0.929 . S
C543 C535 1.433 . S
C543 N545 1.384 . S
N544 C540 1.427 . S
N544 C541 1.384 . S
N545 C537 1.427 . S
N545 C543 1.384 . S
H546 C552 0.930 . S
H547 C556 0.930 . S
H548 C561 0.929 . S
H549 C559 0.929 . S
H550 C554 0.929 . S
H551 C560 0.929 . S
C552 H546 0.930 . S
C552 C553 1.367 . S
C552 C560 1.378 . S
C553 C552 1.367 . S
C553 C561 1.433 . S
C554 H550 0.929 . S
C554 C556 1.378 . S
C554 C558 1.350 . S
C555 C558 1.463 . S
C555 C560 1.350 . S
C555 N563 1.427 . S
C556 H547 0.930 . S
C556 C554 1.378 . S
C556 C557 1.367 . S
C557 C556 1.367 . S
C557 C559 1.433 . S
C558 C554 1.350 . S
C558 C555 1.463 . S
C558 N562 1.427 . S
C559 H549 0.929 . S
C559 C557 1.433 . S
C559 N562 1.384 . S
C560 H551 0.929 . S
C560 C552 1.378 . S
C560 C555 1.350 . S
C561 H548 0.929 . S
C561 C553 1.433 . S
C561 N563 1.384 . S
N562 C558 1.427 . S
N562 C559 1.384 . S
N563 C555 1.427 . S
N563 C561 1.384 . S
H564 C570 0.930 . S
H565 C574 0.930 . S
H566 C579 0.929 . S
H567 C577 0.929 . S
H568 C572 0.929 . S
H569 C578 0.929 . S
C570 H564 0.930 . S
C570 C571 1.367 . S
C570 C578 1.378 . S
C571 C570 1.367 . S
C571 C579 1.433 . S
C572 H568 0.929 . S
C572 C574 1.378 . S
C572 C576 1.350 . S
C573 C576 1.463 1_455 S
C573 C578 1.350 . S
C573 N581 1.427 . S
C574 H565 0.930 . S
C574 C572 1.378 . S
C574 C575 1.367 . S
C575 C574 1.367 . S
C575 C577 1.433 . S
C576 C572 1.350 . S
C576 C573 1.463 1_655 S
C576 N580 1.427 . S
C577 H567 0.929 . S
C577 C575 1.433 . S
C577 N580 1.384 . S
C578 H569 0.929 . S
C578 C570 1.378 . S
C578 C573 1.350 . S
C579 H566 0.929 . S
C579 C571 1.433 . S
C579 N581 1.384 . S
N580 C576 1.427 . S
N580 C577 1.384 . S
N581 C573 1.427 . S
N581 C579 1.384 . S
H582 C588 0.930 . S
H583 C592 0.930 . S
H584 C597 0.929 . S
H585 C595 0.929 . S
H586 C590 0.929 . S
H587 C596 0.929 . S
C588 H582 0.930 . S
C588 C589 1.367 . S
C588 C596 1.378 . S
C589 C588 1.367 . S
C589 C597 1.433 . S
C590 H586 0.929 . S
C590 C592 1.378 . S
C590 C594 1.350 . S
C591 C594 1.463 1_565 S
C591 C596 1.350 . S
C591 N599 1.427 . S
C592 H583 0.930 . S
C592 C590 1.378 . S
C592 C593 1.367 . S
C593 C592 1.367 . S
C593 C595 1.433 . S
C594 C590 1.350 . S
C594 C591 1.463 1_545 S
C594 N598 1.427 . S
C595 H585 0.929 . S
C595 C593 1.433 . S
C595 N598 1.384 . S
C596 H587 0.929 . S
C596 C588 1.378 . S
C596 C591 1.350 . S
C597 H584 0.929 . S
C597 C589 1.433 . S
C597 N599 1.384 . S
N598 C594 1.427 . S
N598 C595 1.384 . S
N599 C591 1.427 . S
N599 C597 1.384 . S
C175 C148 1.170 . S
C179 C8 1.154 . S
C193 C22 1.155 . S
C197 C162 1.165 . S
C211 C36 1.154 . S
C215 C92 1.170 . S
C229 C50 1.168 . S
C233 C106 1.153 . S
C247 C120 1.153 . S
C251 C64 1.174 . S
C265 C78 1.176 . S
C269 C134 1.157 . S
C283 C119 1.514 . S
C287 C7 1.511 . S
C301 C21 1.510 . S
C305 C133 1.513 . S
C319 C35 1.509 . S
C323 C147 1.512 . S
C337 C49 1.508 . S
C341 C161 1.507 . S
C355 C91 1.513 . S
C359 C63 1.511 . S
C373 C105 1.512 . S
C377 C77 1.515 . S
C391 C51 1.634 . S
C395 C9 1.630 . S
C409 C23 1.625 . S
C413 C65 1.630 . S
C427 C79 1.636 . S
C431 C37 1.632 . S
C445 C135 1.631 . S
C449 C93 1.635 . S
C463 C149 1.634 . S
C467 C107 1.637 . S
C481 C121 1.636 . S
C485 C163 1.636 . S
C499 C48 1.219 . S
C503 C6 1.223 . S
C517 C20 1.220 . S
C521 C62 1.219 . S
C535 C76 1.218 . S
C539 C34 1.222 . S
C553 C90 1.218 . S
C557 C132 1.223 . S
C571 C146 1.221 . S
C575 C104 1.218 . S
C589 C118 1.223 . S
C593 C160 1.223 . S
