# Generated by pormake.
# Topology ecf, (8)-cn, num edge types: 1
# Building blocks:
#     Node 0, Type 0, BuildingBlock: TAGTUT_clean_sbu_1, # of connection points: 8
#     Node 1, Type 0, BuildingBlock: TAGTUT_clean_sbu_1, # of connection points: 8
#     Node 2, Type 0, BuildingBlock: TAGTUT_clean_sbu_1, # of connection points: 8
#     Node 3, Type 0, BuildingBlock: TAGTUT_clean_sbu_1, # of connection points: 8
#     Node 4, Type 0, BuildingBlock: TAGTUT_clean_sbu_1, # of connection points: 8
#     Node 5, Type 0, BuildingBlock: TAGTUT_clean_sbu_1, # of connection points: 8
#     Edge 6, Type (0, 0), BuildingBlock: MIFKUJ_clean_linker_0, # of connection points: 2
#     Edge 7, Type (0, 0), BuildingBlock: MIFKUJ_clean_linker_0, # of connection points: 2
#     Edge 8, Type (0, 0), BuildingBlock: MIFKUJ_clean_linker_0, # of connection points: 2
#     Edge 9, Type (0, 0), BuildingBlock: MIFKUJ_clean_linker_0, # of connection points: 2
#     Edge 10, Type (0, 0), BuildingBlock: MIFKUJ_clean_linker_0, # of connection points: 2
#     Edge 11, Type (0, 0), BuildingBlock: MIFKUJ_clean_linker_0, # of connection points: 2
#     Edge 12, Type (0, 0), BuildingBlock: MIFKUJ_clean_linker_0, # of connection points: 2
#     Edge 13, Type (0, 0), BuildingBlock: MIFKUJ_clean_linker_0, # of connection points: 2
#     Edge 14, Type (0, 0), BuildingBlock: MIFKUJ_clean_linker_0, # of connection points: 2
#     Edge 15, Type (0, 0), BuildingBlock: MIFKUJ_clean_linker_0, # of connection points: 2
#     Edge 16, Type (0, 0), BuildingBlock: MIFKUJ_clean_linker_0, # of connection points: 2
#     Edge 17, Type (0, 0), BuildingBlock: MIFKUJ_clean_linker_0, # of connection points: 2
#     Edge 18, Type (0, 0), BuildingBlock: MIFKUJ_clean_linker_0, # of connection points: 2
#     Edge 19, Type (0, 0), BuildingBlock: MIFKUJ_clean_linker_0, # of connection points: 2
#     Edge 20, Type (0, 0), BuildingBlock: MIFKUJ_clean_linker_0, # of connection points: 2
#     Edge 21, Type (0, 0), BuildingBlock: MIFKUJ_clean_linker_0, # of connection points: 2
#     Edge 22, Type (0, 0), BuildingBlock: MIFKUJ_clean_linker_0, # of connection points: 2
#     Edge 23, Type (0, 0), BuildingBlock: MIFKUJ_clean_linker_0, # of connection points: 2
#     Edge 24, Type (0, 0), BuildingBlock: MIFKUJ_clean_linker_0, # of connection points: 2
#     Edge 25, Type (0, 0), BuildingBlock: MIFKUJ_clean_linker_0, # of connection points: 2
#     Edge 26, Type (0, 0), BuildingBlock: MIFKUJ_clean_linker_0, # of connection points: 2
#     Edge 27, Type (0, 0), BuildingBlock: MIFKUJ_clean_linker_0, # of connection points: 2
#     Edge 28, Type (0, 0), BuildingBlock: MIFKUJ_clean_linker_0, # of connection points: 2
#     Edge 29, Type (0, 0), BuildingBlock: MIFKUJ_clean_linker_0, # of connection points: 2
# Relax obj value: 0.205
# Max RMSD: 0.205
# Mean RMSD: 0.189
data_MOF--net-ecf--node1-TAGTUT_clean_sbu_1--edge1-MIFKUJ_clean_linker_0
_symmetry_space_group_name_H-M    P1
_symmetry_Int_Tables_number       1
_symmetry_cell_setting            triclinic
loop_
_symmetry_equiv_pos_as_xyz
'x, y, z'
_cell_length_a     42.208681
_cell_length_b     42.366796
_cell_length_c     34.962765
_cell_angle_alpha  95.690744
_cell_angle_beta   91.791136
_cell_angle_gamma 119.91321
loop_
_atom_site_label
_atom_site_type_symbol
_atom_site_fract_x
_atom_site_fract_y
_atom_site_fract_z
_atom_type_partial_charge
C0 C 0.05929 0.22846 0.17779 0.0
C1 C 0.13424 0.33606 0.15637 0.0
C2 C 0.24315 0.31437 0.19412 0.0
Mg3 Mg 0.10626 0.30315 0.2304 0.0
O4 O 0.13752 0.28367 0.23199 0.0
Mg5 Mg 0.15169 0.27025 0.18119 0.0
Mg6 Mg 0.18718 0.31817 0.25803 0.0
O7 O 0.2367 0.35411 0.28332 0.0
Mg8 Mg 0.2776 0.34825 0.28147 0.0
Mg9 Mg 0.22349 0.36891 0.33361 0.0
C10 C 0.13333 0.32512 0.32077 0.0
C11 C 0.1973 0.39888 0.26479 0.0
O12 O 0.08868 0.22992 0.16642 0.0
O13 O 0.06012 0.25337 0.20255 0.0
O14 O 0.14454 0.31237 0.15036 0.0
O15 O 0.12228 0.34075 0.18828 0.0
O16 O 0.10999 0.31977 0.29268 0.0
O17 O 0.16242 0.32323 0.31486 0.0
C18 C 0.17288 0.23622 0.25105 0.0
O19 O 0.1864 0.2669 0.27299 0.0
O20 O 0.15903 0.2313 0.21625 0.0
O21 O 0.28411 0.41595 0.34454 0.0
O22 O 0.3185 0.40373 0.30457 0.0
O23 O 0.23861 0.33102 0.364 0.0
C24 C 0.31475 0.42509 0.3303 0.0
O25 O 0.27009 0.31373 0.32512 0.0
O26 O 0.27079 0.32775 0.21971 0.0
C27 C 0.2554 0.31313 0.35666 0.0
O28 O 0.21238 0.31162 0.20237 0.0
O29 O 0.18614 0.36864 0.24285 0.0
O30 O 0.211 0.40462 0.29963 0.0
C31 C 0.8638 0.29751 0.6774 0.0
C32 C 0.92057 0.23994 0.64774 0.0
C33 C 0.80546 0.12141 0.68779 0.0
Mg34 Mg 0.91087 0.27418 0.7247 0.0
O35 O 0.86399 0.23432 0.72785 0.0
Mg36 Mg 0.8341 0.20744 0.67721 0.0
Mg37 Mg 0.86151 0.19208 0.75138 0.0
O38 O 0.86006 0.15022 0.77397 0.0
Mg39 Mg 0.81636 0.10605 0.77311 0.0
Mg40 Mg 0.8904 0.17578 0.82423 0.0
C41 C 0.92021 0.26218 0.81312 0.0
C42 C 0.94227 0.20097 0.75318 0.0
O43 O 0.84024 0.26349 0.66589 0.0
O44 O 0.89236 0.30757 0.70053 0.0
O45 O 0.88539 0.22179 0.64207 0.0
O46 O 0.93703 0.2591 0.68012 0.0
O47 O 0.9306 0.28241 0.78569 0.0
O48 O 0.89248 0.22912 0.80787 0.0
C49 C 0.78088 0.18474 0.74877 0.0
O50 O 0.80502 0.18137 0.76846 0.0
O51 O 0.78576 0.1941 0.71459 0.0
O52 O 0.88713 0.1205 0.83379 0.0
O53 O 0.84008 0.07551 0.79318 0.0
O54 O 0.83814 0.15529 0.85851 0.0
C55 C 0.86717 0.08675 0.81875 0.0
O56 O 0.78836 0.11333 0.82003 0.0
O57 O 0.79551 0.09886 0.71297 0.0
C58 C 0.80349 0.13202 0.85299 0.0
O59 O 0.8313 0.15502 0.69568 0.0
O60 O 0.91692 0.20232 0.73359 0.0
O61 O 0.93909 0.19264 0.78769 0.0
C62 C 0.5588 0.86926 0.18304 0.0
C63 C 0.66449 0.90198 0.14536 0.0
C64 C 0.64649 0.77654 0.19003 0.0
Mg65 Mg 0.63767 0.90704 0.22511 0.0
O66 O 0.6227 0.85806 0.22972 0.0
Mg67 Mg 0.60423 0.82266 0.18077 0.0
Mg68 Mg 0.65981 0.84656 0.25118 0.0
O69 O 0.69627 0.83476 0.27253 0.0
Mg70 Mg 0.68313 0.78616 0.27503 0.0
Mg71 Mg 0.71625 0.8699 0.32125 0.0
C72 C 0.67276 0.91642 0.31183 0.0
C73 C 0.74169 0.91411 0.24691 0.0
O74 O 0.56094 0.84051 0.1723 0.0
O75 O 0.58468 0.89778 0.20397 0.0
O76 O 0.64143 0.86733 0.14185 0.0
O77 O 0.67108 0.92257 0.17731 0.0
O78 O 0.66173 0.92866 0.28518 0.0
O79 O 0.67114 0.8851 0.30644 0.0
C80 C 0.579 0.77665 0.25484 0.0
O81 O 0.61127 0.79767 0.27201 0.0
O82 O 0.56963 0.78087 0.22126 0.0
O83 O 0.76017 0.8522 0.32768 0.0
O84 O 0.7378 0.79824 0.28925 0.0
O85 O 0.68171 0.82566 0.36066 0.0
C86 C 0.76341 0.82532 0.31193 0.0
O87 O 0.65661 0.76979 0.32686 0.0
O88 O 0.65698 0.76339 0.2161 0.0
C89 C 0.66273 0.79054 0.35858 0.0
O90 O 0.64894 0.80811 0.19647 0.0
O91 O 0.70925 0.89486 0.22957 0.0
O92 O 0.74989 0.90978 0.28075 0.0
C93 C 0.91374 0.78008 0.68974 0.0
C94 C 0.86409 0.66702 0.64333 0.0
C95 C 0.74027 0.65854 0.69047 0.0
Mg96 Mg 0.89308 0.70804 0.72437 0.0
O97 O 0.85131 0.71203 0.72965 0.0
Mg98 Mg 0.82537 0.71548 0.68239 0.0
Mg99 Mg 0.80957 0.67191 0.75042 0.0
O100 O 0.76766 0.63194 0.77117 0.0
Mg101 Mg 0.72471 0.63438 0.77448 0.0
Mg102 Mg 0.79433 0.63252 0.8203 0.0
C103 C 0.87968 0.68761 0.80978 0.0
C104 C 0.81945 0.6005 0.74629 0.0
O105 O 0.88013 0.76827 0.67798 0.0
O106 O 0.92436 0.76153 0.70767 0.0
O107 O 0.84442 0.68223 0.64195 0.0
O108 O 0.88192 0.66935 0.67464 0.0
O109 O 0.90136 0.6969 0.78275 0.0
O110 O 0.8468 0.68184 0.80484 0.0
C111 C 0.79931 0.74314 0.75895 0.0
O112 O 0.79781 0.71667 0.77512 0.0
O113 O 0.80806 0.74762 0.72433 0.0
O114 O 0.73974 0.58098 0.82781 0.0
O115 O 0.69393 0.58162 0.79342 0.0
O116 O 0.77746 0.66977 0.85659 0.0
C117 C 0.70595 0.56609 0.81461 0.0
O118 O 0.73633 0.6759 0.82116 0.0
O119 O 0.71762 0.64665 0.71639 0.0
C120 C 0.75716 0.6839 0.85201 0.0
O121 O 0.77303 0.66397 0.69562 0.0
O122 O 0.82118 0.62584 0.72747 0.0
O123 O 0.8108 0.5983 0.78115 0.0
C124 C 0.12368 0.9153 0.19983 0.0
C125 C 0.18518 0.8673 0.14631 0.0
C126 C 0.07983 0.74303 0.17575 0.0
Mg127 Mg 0.18069 0.8946 0.2282 0.0
O128 O 0.13606 0.85179 0.23106 0.0
Mg129 Mg 0.1022 0.82777 0.1822 0.0
Mg130 Mg 0.13914 0.80937 0.24467 0.0
O131 O 0.1416 0.76648 0.25737 0.0
Mg132 Mg 0.09647 0.72253 0.25531 0.0
Mg133 Mg 0.17201 0.78937 0.30842 0.0
C134 C 0.19738 0.877 0.31048 0.0
C135 C 0.22184 0.82485 0.23818 0.0
O136 O 0.10174 0.88208 0.18436 0.0
O137 O 0.1552 0.92571 0.21714 0.0
O138 O 0.15016 0.84831 0.14395 0.0
O139 O 0.20412 0.88601 0.17784 0.0
O140 O 0.20526 0.8998 0.28577 0.0
O141 O 0.17145 0.84316 0.30252 0.0
C142 C 0.05712 0.79414 0.25521 0.0
O143 O 0.08461 0.79266 0.26927 0.0
O144 O 0.05701 0.80596 0.22288 0.0
O145 O 0.17066 0.73356 0.30704 0.0
O146 O 0.11968 0.69046 0.26965 0.0
O147 O 0.12082 0.76769 0.34343 0.0
C148 C 0.14931 0.70039 0.29074 0.0
O149 O 0.07042 0.7296 0.30372 0.0
O150 O 0.07178 0.71751 0.1971 0.0
C151 C 0.08588 0.74741 0.33685 0.0
O152 O 0.10545 0.77617 0.18721 0.0
O153 O 0.1953 0.82677 0.22173 0.0
O154 O 0.21924 0.81184 0.27033 0.0
C155 C 0.26167 0.19931 0.69416 0.0
C156 C 0.37174 0.22754 0.67776 0.0
C157 C 0.32744 0.0858 0.68645 0.0
Mg158 Mg 0.32966 0.21789 0.74945 0.0
O159 O 0.30695 0.16643 0.73919 0.0
Mg160 Mg 0.29821 0.14407 0.68392 0.0
Mg161 Mg 0.33454 0.14455 0.76007 0.0
O162 O 0.36384 0.12444 0.78098 0.0
Mg163 Mg 0.35132 0.0754 0.7699 0.0
Mg164 Mg 0.37351 0.14715 0.8362 0.0
C165 C 0.33704 0.19994 0.8353 0.0
C166 C 0.41733 0.21117 0.78344 0.0
O167 O 0.26291 0.17191 0.67634 0.0
O168 O 0.28422 0.21999 0.72335 0.0
O169 O 0.34711 0.19444 0.66548 0.0
O170 O 0.37295 0.24251 0.71177 0.0
O171 O 0.33789 0.22262 0.8128 0.0
O172 O 0.33361 0.16877 0.82202 0.0
C173 C 0.2503 0.08178 0.73748 0.0
O174 O 0.27806 0.09403 0.76249 0.0
O175 O 0.25216 0.09607 0.70643 0.0
O176 O 0.41597 0.1269 0.84205 0.0
O177 O 0.40292 0.08272 0.7926 0.0
O178 O 0.3273 0.09352 0.85429 0.0
C179 C 0.42364 0.10463 0.82229 0.0
O180 O 0.30979 0.04706 0.8069 0.0
O181 O 0.33334 0.06648 0.70866 0.0
C182 C 0.30649 0.05979 0.84017 0.0
O183 O 0.33325 0.11814 0.69866 0.0
O184 O 0.39026 0.19568 0.75733 0.0
O185 O 0.41658 0.19822 0.81509 0.0
H186 H 0.25575 0.46233 0.25249 0.0
H187 H 0.25596 0.51901 0.2438 0.0
H188 H 0.13774 0.46086 0.23796 0.0
H189 H 0.13738 0.40365 0.24516 0.0
H190 H 0.16341 0.51717 0.1949 0.0
H191 H 0.19211 0.49939 0.32574 0.0
H192 H 0.22896 0.48999 0.37468 0.0
H193 H 0.32579 0.58786 0.35227 0.0
H194 H 0.28958 0.59744 0.30279 0.0
H195 H 0.10497 0.62689 0.28661 0.0
H196 H 0.12255 0.58043 0.27347 0.0
H197 H 0.23666 0.66524 0.28264 0.0
H198 H 0.21918 0.71219 0.29645 0.0
H199 H 0.22563 0.60453 0.3147 0.0
H200 H 0.19405 0.63 0.19531 0.0
H201 H 0.15714 0.64102 0.1482 0.0
H202 H 0.06739 0.53107 0.14778 0.0
H203 H 0.10352 0.51954 0.19539 0.0
C204 C 0.22984 0.46154 0.24775 0.0
C205 C 0.19653 0.4292 0.2496 0.0
C206 C 0.23003 0.49379 0.24287 0.0
C207 C 0.19706 0.49421 0.24118 0.0
C208 C 0.16351 0.46105 0.23937 0.0
C209 C 0.16325 0.42851 0.24351 0.0
C210 C 0.19763 0.5294 0.24747 0.0
C211 C 0.17698 0.53632 0.22102 0.0
C212 C 0.21651 0.55497 0.28097 0.0
C213 C 0.23823 0.549 0.31051 0.0
C214 C 0.2213 0.51876 0.33115 0.0
C215 C 0.24206 0.51339 0.35896 0.0
C216 C 0.27968 0.53833 0.36663 0.0
C217 C 0.29666 0.56856 0.34634 0.0
C218 C 0.27604 0.57397 0.31842 0.0
C219 C 0.13387 0.63561 0.2866 0.0
C220 C 0.16074 0.67302 0.29211 0.0
C221 C 0.14382 0.60913 0.27877 0.0
C222 C 0.18073 0.61966 0.27581 0.0
C223 C 0.20797 0.6568 0.28428 0.0
C224 C 0.19801 0.68346 0.29246 0.0
C225 C 0.19016 0.5915 0.26293 0.0
C226 C 0.2128 0.58595 0.28807 0.0
C227 C 0.17329 0.56738 0.22813 0.0
C228 C 0.15148 0.57397 0.19911 0.0
C229 C 0.16636 0.60823 0.18537 0.0
C230 C 0.14558 0.61456 0.15855 0.0
C231 C 0.10993 0.58678 0.14504 0.0
C232 C 0.09502 0.55256 0.15827 0.0
C233 C 0.11566 0.54609 0.18513 0.0
H234 H 0.09388 0.59174 0.12428 0.0
H235 H 0.29564 0.53427 0.38837 0.0
H236 H 0.44988 0.06275 0.78711 0.0
H237 H 0.51312 0.07617 0.79045 0.0
H238 H 0.54399 0.1677 0.87884 0.0
H239 H 0.48071 0.15498 0.87497 0.0
H240 H 0.58749 0.19027 0.82684 0.0
H241 H 0.55074 0.09106 0.89723 0.0
H242 H 0.51324 0.02892 0.91536 0.0
H243 H 0.53367 0.98239 0.8109 0.0
H244 H 0.57096 0.04423 0.79186 0.0
H245 H 0.75676 0.15829 0.81722 0.0
H246 H 0.69995 0.14686 0.84468 0.0
H247 H 0.67072 0.18512 0.74714 0.0
H248 H 0.72732 0.1967 0.71963 0.0
H249 H 0.63159 0.10135 0.8206 0.0
H250 H 0.62204 0.22516 0.77146 0.0
H251 H 0.66026 0.29221 0.77225 0.0
H252 H 0.7383 0.29574 0.85685 0.0
H253 H 0.70002 0.22888 0.85737 0.0
C254 C 0.46986 0.08527 0.80793 0.0
C255 C 0.46009 0.10798 0.83048 0.0
C256 C 0.50615 0.0928 0.80999 0.0
C257 C 0.53354 0.12296 0.83495 0.0
C258 C 0.52345 0.14433 0.85924 0.0
C259 C 0.48712 0.13688 0.85712 0.0
C260 C 0.57298 0.13458 0.83207 0.0
C261 C 0.59714 0.17085 0.82572 0.0
C262 C 0.58617 0.1097 0.832 0.0
C263 C 0.56345 0.07232 0.84298 0.0
C264 C 0.54699 0.06756 0.87794 0.0
C265 C 0.52583 0.03239 0.88843 0.0
C266 C 0.52102 0.00172 0.86426 0.0
C267 C 0.53741 0.00618 0.82958 0.0
C268 C 0.55862 0.0413 0.81896 0.0
C269 C 0.73833 0.16438 0.80163 0.0
C270 C 0.74665 0.17822 0.76602 0.0
C271 C 0.70581 0.15786 0.81744 0.0
C272 C 0.68111 0.16546 0.79825 0.0
C273 C 0.68955 0.17961 0.76291 0.0
C274 C 0.72188 0.18591 0.74699 0.0
C275 C 0.64547 0.15666 0.81365 0.0
C276 C 0.62202 0.12088 0.82216 0.0
C277 C 0.63334 0.18242 0.81727 0.0
C278 C 0.65813 0.22197 0.8144 0.0
C279 C 0.64734 0.24025 0.79024 0.0
C280 C 0.66891 0.27825 0.79062 0.0
C281 C 0.70151 0.29826 0.81486 0.0
C282 C 0.71292 0.28022 0.83826 0.0
C283 C 0.69132 0.24225 0.83817 0.0
H284 H 0.71813 0.3277 0.81519 0.0
H285 H 0.50463 0.97451 0.87244 0.0
H286 H 0.30903 0.48475 0.3552 0.0
H287 H 0.35589 0.54922 0.35555 0.0
H288 H 0.43511 0.5174 0.32544 0.0
H289 H 0.38818 0.45253 0.3241 0.0
H290 H 0.45792 0.58932 0.38519 0.0
H291 H 0.39764 0.52161 0.2568 0.0
H292 H 0.34359 0.48431 0.20963 0.0
H293 H 0.31318 0.56717 0.22633 0.0
H294 H 0.3658 0.6039 0.27519 0.0
H295 H 0.59229 0.73047 0.29134 0.0
H296 H 0.54812 0.67572 0.31795 0.0
H297 H 0.46185 0.69787 0.28699 0.0
H298 H 0.50613 0.7519 0.25877 0.0
H299 H 0.43891 0.63262 0.26452 0.0
H300 H 0.49803 0.70483 0.38355 0.0
H301 H 0.54657 0.74469 0.43563 0.0
H302 H 0.57389 0.66048 0.44389 0.0
H303 H 0.52672 0.62075 0.39089 0.0
C304 C 0.33668 0.49144 0.34979 0.0
C305 C 0.34489 0.46358 0.33926 0.0
C306 C 0.36329 0.52826 0.34992 0.0
C307 C 0.3986 0.53778 0.3402 0.0
C308 C 0.40788 0.51038 0.33306 0.0
C309 C 0.38106 0.47342 0.33215 0.0
C310 C 0.424 0.57543 0.33221 0.0
C311 C 0.45427 0.59899 0.35874 0.0
C312 C 0.41776 0.5882 0.29858 0.0
C313 C 0.38532 0.5652 0.27021 0.0
C314 C 0.37892 0.53143 0.25115 0.0
C315 C 0.34852 0.51038 0.22406 0.0
C316 C 0.32477 0.52319 0.21518 0.0
C317 C 0.33132 0.55702 0.23348 0.0
C318 C 0.36129 0.57786 0.26105 0.0
C319 C 0.56407 0.72404 0.29109 0.0
C320 C 0.55257 0.74541 0.27341 0.0
C321 C 0.53878 0.69278 0.30641 0.0
C322 C 0.50159 0.68277 0.30511 0.0
C323 C 0.49035 0.70491 0.28838 0.0
C324 C 0.51555 0.73572 0.27225 0.0
C325 C 0.47396 0.64726 0.31725 0.0
C326 C 0.44296 0.62373 0.29138 0.0
C327 C 0.47909 0.63514 0.35214 0.0
C328 C 0.50888 0.65982 0.38288 0.0
C329 C 0.51481 0.69502 0.39598 0.0
C330 C 0.54211 0.71763 0.42575 0.0
C331 C 0.56334 0.70518 0.4431 0.0
C332 C 0.55754 0.67021 0.43046 0.0
C333 C 0.5306 0.64767 0.40042 0.0
H334 H 0.58424 0.7226 0.46636 0.0
H335 H 0.30139 0.50698 0.19399 0.0
H336 H 0.91183 0.37131 0.68613 0.0
H337 H 0.8981 0.41963 0.6774 0.0
H338 H 0.78736 0.3382 0.63245 0.0
H339 H 0.80068 0.28928 0.64171 0.0
H340 H 0.87094 0.44423 0.62119 0.0
H341 H 0.73351 0.3605 0.67748 0.0
H342 H 0.70181 0.30286 0.70662 0.0
H343 H 0.80317 0.32995 0.76928 0.0
H344 H 0.83528 0.38783 0.74082 0.0
H345 H 0.80529 0.57242 0.66962 0.0
H346 H 0.80421 0.51654 0.64112 0.0
H347 H 0.84407 0.5062 0.75162 0.0
H348 H 0.84361 0.56076 0.78047 0.0
H349 H 0.78444 0.44051 0.71613 0.0
H350 H 0.91698 0.52661 0.67706 0.0
H351 H 0.95681 0.58359 0.64934 0.0
H352 H 0.87087 0.55461 0.56034 0.0
H353 H 0.83152 0.49654 0.58623 0.0
C354 C 0.88468 0.36355 0.67375 0.0
C355 C 0.85707 0.32639 0.66552 0.0
C356 C 0.87704 0.3913 0.66833 0.0
C357 C 0.84163 0.38248 0.65472 0.0
C358 C 0.81482 0.34552 0.64326 0.0
C359 C 0.82246 0.31762 0.6487 0.0
C360 C 0.83173 0.41153 0.65923 0.0
C361 C 0.85131 0.44304 0.64114 0.0
C362 C 0.80665 0.4103 0.68581 0.0
C363 C 0.78672 0.37824 0.70689 0.0
C364 C 0.74883 0.35438 0.69796 0.0
C365 C 0.73088 0.3216 0.71416 0.0
C366 C 0.75058 0.31258 0.7394 0.0
C367 C 0.78801 0.33685 0.74951 0.0
C368 C 0.80606 0.36968 0.73347 0.0
C369 C 0.81444 0.55854 0.68757 0.0
C370 C 0.8246 0.57092 0.72722 0.0
C371 C 0.81383 0.52664 0.67128 0.0
C372 C 0.82427 0.50731 0.69421 0.0
C373 C 0.8356 0.52048 0.73346 0.0
C374 C 0.8356 0.55183 0.74984 0.0
C375 C 0.82369 0.4733 0.67803 0.0
C376 C 0.80258 0.44101 0.69458 0.0
C377 C 0.84751 0.47387 0.65029 0.0
C378 C 0.87148 0.50758 0.63352 0.0
C379 C 0.9069 0.5323 0.65127 0.0
C380 C 0.92942 0.5646 0.63577 0.0
C381 C 0.91654 0.57246 0.60283 0.0
C382 C 0.88111 0.54813 0.58534 0.0
C383 C 0.85882 0.51539 0.60019 0.0
H384 H 0.93411 0.59735 0.59085 0.0
H385 H 0.73688 0.28675 0.75108 0.0
H386 H 0.28796 0.84339 0.27348 0.0
H387 H 0.34509 0.86152 0.24461 0.0
H388 H 0.29287 0.85447 0.13349 0.0
H389 H 0.23469 0.83572 0.16247 0.0
H390 H 0.33277 0.81916 0.12972 0.0
H391 H 0.35628 0.93702 0.17308 0.0
H392 H 0.35719 0.98725 0.2161 0.0
H393 H 0.42994 0.98173 0.30029 0.0
H394 H 0.42902 0.93105 0.25811 0.0
H395 H 0.55219 0.92669 0.16421 0.0
H396 H 0.49542 0.92753 0.15054 0.0
H397 H 0.43239 0.81306 0.16658 0.0
H398 H 0.48897 0.81167 0.17732 0.0
H399 H 0.45016 0.92318 0.19411 0.0
H400 H 0.3477 0.76913 0.12985 0.0
H401 H 0.34687 0.72222 0.08148 0.0
H402 H 0.43277 0.80664 0.02689 0.0
H403 H 0.43379 0.85415 0.07457 0.0
C404 C 0.28848 0.84584 0.24293 0.0
C405 C 0.25674 0.83801 0.22024 0.0
C406 C 0.32132 0.85654 0.22651 0.0
C407 C 0.32334 0.85978 0.18702 0.0
C408 C 0.29187 0.85236 0.1641 0.0
C409 C 0.25878 0.84182 0.1807 0.0
C410 C 0.35816 0.86859 0.17032 0.0
C411 C 0.35858 0.84217 0.14316 0.0
C412 C 0.39168 0.89952 0.18661 0.0
C413 C 0.39256 0.93014 0.21233 0.0
C414 C 0.37233 0.94636 0.20085 0.0
C415 C 0.37286 0.97494 0.2251 0.0
C416 C 0.39362 0.98769 0.26089 0.0
C417 C 0.41392 0.97187 0.27251 0.0
C418 C 0.41346 0.94325 0.24839 0.0
C419 C 0.5261 0.90158 0.16397 0.0
C420 C 0.5248 0.86913 0.17189 0.0
C421 C 0.49367 0.90203 0.15613 0.0
C422 C 0.45935 0.87027 0.15703 0.0
C423 C 0.45825 0.83767 0.1643 0.0
C424 C 0.49065 0.83695 0.17094 0.0
C425 C 0.42504 0.87216 0.15554 0.0
C426 C 0.42469 0.9007 0.17938 0.0
C427 C 0.39175 0.84379 0.1351 0.0
C428 C 0.39086 0.81527 0.10593 0.0
C429 C 0.36621 0.77776 0.10735 0.0
C430 C 0.36577 0.75103 0.08009 0.0
C431 C 0.38978 0.76144 0.05116 0.0
C432 C 0.41424 0.79861 0.04937 0.0
C433 C 0.41479 0.82546 0.07655 0.0
H434 H 0.38941 0.7407 0.0301 0.0
H435 H 0.39399 0.00982 0.27963 0.0
H436 H 0.44595 0.23308 0.71519 0.0
H437 H 0.5056 0.28717 0.70789 0.0
H438 H 0.52196 0.3188 0.8314 0.0
H439 H 0.46386 0.26492 0.83881 0.0
H440 H 0.5318 0.35702 0.72283 0.0
H441 H 0.60704 0.35391 0.86817 0.0
H442 H 0.60951 0.30662 0.90158 0.0
H443 H 0.56976 0.23184 0.79623 0.0
H444 H 0.56893 0.27921 0.76157 0.0
H445 H 0.63191 0.52895 0.81711 0.0
H446 H 0.59151 0.4626 0.80146 0.0
H447 H 0.68596 0.44871 0.79526 0.0
H448 H 0.72634 0.51473 0.81302 0.0
H449 H 0.63615 0.39333 0.82034 0.0
H450 H 0.64025 0.44886 0.71178 0.0
H451 H 0.64085 0.49382 0.67172 0.0
H452 H 0.52874 0.45857 0.69108 0.0
H453 H 0.5276 0.41383 0.73183 0.0
C454 C 0.46248 0.25176 0.7406 0.0
C455 C 0.45082 0.24479 0.77759 0.0
C456 C 0.49646 0.28236 0.73645 0.0
C457 C 0.5187 0.30614 0.76925 0.0
C458 C 0.50598 0.29994 0.80586 0.0
C459 C 0.4726 0.26936 0.81004 0.0
C460 C 0.55432 0.33911 0.76623 0.0
C461 C 0.55493 0.36485 0.74362 0.0
C462 C 0.58542 0.34839 0.7916 0.0
C463 C 0.58785 0.32034 0.81213 0.0
C464 C 0.5995 0.32769 0.85183 0.0
C465 C 0.60064 0.3008 0.87104 0.0
C466 C 0.58993 0.26628 0.85104 0.0
C467 C 0.57828 0.25865 0.81169 0.0
C468 C 0.57762 0.28559 0.79219 0.0
C469 C 0.6439 0.51153 0.81359 0.0
C470 C 0.68204 0.52676 0.81605 0.0
C471 C 0.62095 0.4738 0.80403 0.0
C472 C 0.63589 0.45105 0.79555 0.0
C473 C 0.67394 0.46588 0.8011 0.0
C474 C 0.69691 0.50354 0.81161 0.0
C475 C 0.61145 0.41202 0.7802 0.0
C476 C 0.61351 0.3852 0.79878 0.0
C477 C 0.5837 0.40132 0.74979 0.0
C478 C 0.58388 0.42795 0.72496 0.0
C479 C 0.61575 0.45079 0.70766 0.0
C480 C 0.61619 0.47626 0.68483 0.0
C481 C 0.58485 0.47905 0.67885 0.0
C482 C 0.55298 0.45634 0.69568 0.0
C483 C 0.5524 0.43085 0.71861 0.0
H484 H 0.58525 0.4988 0.66117 0.0
H485 H 0.59058 0.24545 0.86606 0.0
H486 H 0.19927 0.19102 0.23114 0.0
H487 H 0.16824 0.12609 0.23971 0.0
H488 H 0.09514 0.14126 0.31284 0.0
H489 H 0.12778 0.20689 0.30617 0.0
H490 H 0.1049 0.07802 0.32498 0.0
H491 H 0.0676 0.12612 0.22859 0.0
H492 H 0.08438 0.17223 0.18466 0.0
H493 H 0.13324 0.12199 0.11467 0.0
H494 H 0.11927 0.07697 0.16041 0.0
H495 H 0.05238 0.90036 0.19004 0.0
H496 H 0.03023 0.94249 0.21142 0.0
H497 H 0.14207 0.02957 0.2428 0.0
H498 H 0.16437 0.98877 0.2208 0.0
H499 H 0.0656 0.02544 0.18697 0.0
H500 H 0.12844 0.04251 0.34793 0.0
H501 H 0.12064 0.00143 0.39629 0.0
H502 H 0.01916 0.91723 0.33432 0.0
H503 H 0.02511 0.95837 0.28663 0.0
C504 C 0.17817 0.1809 0.25096 0.0
C505 C 0.16568 0.20345 0.26795 0.0
C506 C 0.16034 0.1439 0.25578 0.0
C507 C 0.12881 0.12896 0.27598 0.0
C508 C 0.11932 0.15238 0.29709 0.0
C509 C 0.13797 0.18976 0.29323 0.0
C510 C 0.10204 0.08938 0.26685 0.0
C511 C 0.09567 0.06618 0.29505 0.0
C512 C 0.08747 0.07419 0.22809 0.0
C513 C 0.09217 0.09808 0.19792 0.0
C514 C 0.08173 0.12474 0.20375 0.0
C515 C 0.09096 0.15086 0.17854 0.0
C516 C 0.10933 0.14985 0.14632 0.0
C517 C 0.11876 0.12264 0.13947 0.0
C518 C 0.11039 0.09689 0.16524 0.0
C519 C 0.0722 0.92875 0.20068 0.0
C520 C 0.11014 0.94127 0.20409 0.0
C521 C 0.05943 0.95243 0.21338 0.0
C522 C 0.08457 0.98841 0.2299 0.0
C523 C 0.12232 0.00138 0.23115 0.0
C524 C 0.13503 0.97816 0.21816 0.0
C525 C 0.07339 0.0147 0.24424 0.0
C526 C 0.07258 0.03656 0.21733 0.0
C527 C 0.08099 0.02832 0.28406 0.0
C528 C 0.07726 0.00377 0.31344 0.0
C529 C 0.1041 0.0155 0.34478 0.0
C530 C 0.10001 0.99212 0.37217 0.0
C531 C 0.06947 0.95671 0.36837 0.0
C532 C 0.04281 0.94467 0.33728 0.0
C533 C 0.04648 0.96808 0.3101 0.0
H534 H 0.06646 0.93861 0.3895 0.0
H535 H 0.11649 0.17027 0.12686 0.0
H536 H 0.94516 0.17602 0.67961 0.0
H537 H -0.00092 0.17994 0.65065 0.0
H538 H 0.06679 0.24295 0.75584 0.0
H539 H 0.0128 0.23809 0.7853 0.0
H540 H 0.09781 0.2684 0.68165 0.0
H541 H 0.03885 0.16004 0.74965 0.0
H542 H 0.98532 0.10159 0.76137 0.0
H543 H 0.97602 0.0567 0.64321 0.0
H544 H 0.02917 0.11524 0.63062 0.0
H545 H 0.24805 0.25145 0.72833 0.0
H546 H 0.19371 0.25607 0.71761 0.0
H547 H 0.15215 0.16736 0.62354 0.0
H548 H 0.20651 0.16163 0.63503 0.0
H549 H 0.10276 0.15327 0.67103 0.0
H550 H 0.17181 0.25761 0.60756 0.0
H551 H 0.22475 0.31647 0.59582 0.0
H552 H 0.21572 0.36907 0.70302 0.0
H553 H 0.16291 0.31049 0.71554 0.0
C554 C 0.97169 0.19108 0.69628 0.0
C555 C 0.97509 0.20674 0.7346 0.0
C556 C 0.00232 0.1933 0.67975 0.0
C557 C 0.03673 0.21184 0.70115 0.0
C558 C 0.04041 0.22884 0.73886 0.0
C559 C 0.00967 0.22586 0.75569 0.0
C560 C 0.06833 0.21054 0.68607 0.0
C561 C 0.09907 0.24332 0.6791 0.0
C562 C 0.06914 0.17746 0.6814 0.0
C563 C 0.03755 0.14216 0.68904 0.0
C564 C 0.02515 0.13784 0.72607 0.0
C565 C 0.99494 0.10469 0.7329 0.0
C566 C 0.97715 0.07555 0.703 0.0
C567 C 0.98973 0.07939 0.66628 0.0
C568 C 0.01987 0.11254 0.65928 0.0
C569 C 0.22781 0.23328 0.7048 0.0
C570 C 0.23147 0.20579 0.6829 0.0
C571 C 0.19678 0.2363 0.69837 0.0
C572 C 0.16891 0.21239 0.66941 0.0
C573 C 0.17336 0.18621 0.64597 0.0
C574 C 0.20443 0.18295 0.65261 0.0
C575 C 0.13334 0.2116 0.66797 0.0
C576 C 0.10153 0.17831 0.672 0.0
C577 C 0.13157 0.24424 0.66973 0.0
C578 C 0.16342 0.2796 0.66248 0.0
C579 C 0.18123 0.28169 0.62871 0.0
C580 C 0.21118 0.31502 0.6219 0.0
C581 C 0.2236 0.34649 0.64866 0.0
C582 C 0.20608 0.34469 0.68231 0.0
C583 C 0.17606 0.31144 0.68922 0.0
H584 H 0.24679 0.37226 0.64333 0.0
H585 H 0.95366 0.05002 0.70833 0.0
H586 H 0.99243 0.21583 0.19756 0.0
H587 H 0.93694 0.15655 0.19469 0.0
H588 H 0.98817 0.10487 0.13018 0.0
H589 H 0.04372 0.16499 0.13097 0.0
H590 H 0.91448 0.06636 0.11176 0.0
H591 H 0.99438 0.10634 0.22136 0.0
H592 H 0.03689 0.14237 0.27922 0.0
H593 H 0.95061 0.14945 0.33384 0.0
H594 H 0.90778 0.11455 0.27587 0.0
H595 H 0.8078 0.91992 0.24183 0.0
H596 H 0.86107 0.96775 0.21506 0.0
H597 H 0.79683 0.01567 0.18169 0.0
H598 H 0.74327 0.96761 0.20858 0.0
H599 H 0.8823 0.04845 0.24644 0.0
H600 H 0.80851 0.00465 0.11077 0.0
H601 H 0.77315 0.94697 0.06622 0.0
H602 H 0.86375 0.92785 0.07342 0.0
H603 H 0.89954 0.98534 0.11826 0.0
C604 C 0.99182 0.19216 0.18182 0.0
C605 C 0.02328 0.19482 0.16634 0.0
C606 C 0.95999 0.15821 0.18027 0.0
C607 C 0.95909 0.12626 0.16363 0.0
C608 C 0.98867 0.12922 0.14386 0.0
C609 C 0.02053 0.16352 0.14481 0.0
C610 C 0.92927 0.09031 0.17168 0.0
C611 C 0.90738 0.06268 0.14117 0.0
C612 C 0.92147 0.08413 0.21026 0.0
C613 C 0.94786 0.10806 0.24398 0.0
C614 C 0.9846 0.11623 0.24533 0.0
C615 C 0.00875 0.13631 0.27824 0.0
C616 C 0.99642 0.14801 0.31019 0.0
C617 C 0.96009 0.14028 0.30907 0.0
C618 C 0.9359 0.12048 0.27613 0.0
C619 C 0.80495 0.94031 0.22807 0.0
C620 C 0.77167 0.94029 0.22681 0.0
C621 C 0.83519 0.96731 0.21266 0.0
C622 C 0.83248 0.99467 0.19604 0.0
C623 C 0.79896 0.99413 0.19371 0.0
C624 C 0.76852 0.96683 0.20888 0.0
C625 C 0.86594 0.0267 0.18653 0.0
C626 C 0.88906 0.05301 0.21704 0.0
C627 C 0.87612 0.03039 0.14854 0.0
C628 C 0.85657 -0.00086 0.11763 0.0
C629 C 0.82093 0.98828 0.10249 0.0
C630 C 0.80076 0.95553 0.07747 0.0
C631 C 0.81602 0.93355 0.06738 0.0
C632 C 0.8519 0.9448 0.08141 0.0
C633 C 0.87218 0.97752 0.1065 0.0
H634 H 0.80008 0.90778 0.04868 0.0
H635 H 0.01504 0.1631 0.33583 0.0
H636 H 0.89294 0.04656 0.78133 0.0
H637 H 0.8844 0.98811 0.79763 0.0
H638 H 0.84146 0.00317 0.904 0.0
H639 H 0.85087 0.06227 0.88799 0.0
H640 H 0.89982 0.95695 0.86218 0.0
H641 H 0.75721 0.91746 0.89776 0.0
H642 H 0.716 0.94318 0.89881 0.0
H643 H 0.75769 0.99121 0.79594 0.0
H644 H 0.79905 0.96573 0.79456 0.0
H645 H 0.81197 0.76262 0.83725 0.0
H646 H 0.82002 0.81938 0.87275 0.0
H647 H 0.78815 0.84635 0.76788 0.0
H648 H 0.77971 0.78974 0.73249 0.0
H649 H 0.76577 0.87055 0.83403 0.0
H650 H 0.87571 0.86695 0.79067 0.0
H651 H 0.91893 0.84387 0.79513 0.0
H652 H 0.94371 0.88322 0.91628 0.0
H653 H 0.89965 0.90531 0.91294 0.0
C654 C 0.88336 0.03813 0.80898 0.0
C655 C 0.87276 0.05864 0.83359 0.0
C656 C 0.87854 0.00487 0.81835 0.0
C657 C 0.8621 0.99133 0.85188 0.0
C658 C 0.85438 0.01334 0.87814 0.0
C659 C 0.8598 0.047 0.86902 0.0
C660 C 0.84659 0.95182 0.85449 0.0
C661 C 0.87047 0.93798 0.85704 0.0
C662 C 0.80826 0.92718 0.84812 0.0
C663 C 0.78171 0.94038 0.84668 0.0
C664 C 0.75754 0.93356 0.87552 0.0
C665 C 0.73416 0.94806 0.87613 0.0
C666 C 0.73438 0.96902 0.84759 0.0
C667 C 0.75767 0.97513 0.81815 0.0
C668 C 0.78111 0.96069 0.81749 0.0
C669 C 0.80535 0.78 0.82211 0.0
C670 C 0.7956 0.77203 0.78201 0.0
C671 C 0.81009 0.81245 0.84243 0.0
C672 C 0.80517 0.83725 0.8228 0.0
C673 C 0.7921 0.82757 0.78357 0.0
C674 C 0.78753 0.79534 0.76329 0.0
C675 C 0.81913 0.8756 0.84038 0.0
C676 C 0.79496 0.88932 0.84118 0.0
C677 C 0.8572 0.90011 0.85018 0.0
C678 C 0.88407 0.88734 0.85167 0.0
C679 C 0.89018 0.87044 0.8183 0.0
C680 C 0.91482 0.85756 0.82061 0.0
C681 C 0.93411 0.86218 0.85587 0.0
C682 C 0.92873 0.87961 0.88898 0.0
C683 C 0.90382 0.89218 0.88695 0.0
H684 H 0.95323 0.85226 0.85752 0.0
H685 H 0.71642 0.98041 0.8482 0.0
H686 H 0.81608 0.86211 0.37356 0.0
H687 H 0.86859 0.85393 0.38931 0.0
H688 H 0.84026 0.78028 0.28314 0.0
H689 H 0.78787 0.78718 0.2682 0.0
H690 H 0.85008 0.75026 0.34132 0.0
H691 H 0.9152 0.87193 0.29478 0.0
H692 H 0.93674 0.93819 0.29852 0.0
H693 H 0.9838 0.95578 0.41479 0.0
H694 H 0.96227 0.88956 0.41171 0.0
H695 H 0.98532 0.76222 0.22928 0.0
H696 H 0.93607 0.7596 0.26597 0.0
H697 H 0.01025 0.80579 0.36997 0.0
H698 H 0.05978 0.80821 0.33321 0.0
H699 H 0.98067 0.84806 0.3483 0.0
H700 H 0.93033 0.72364 0.37571 0.0
H701 H 0.90963 0.65741 0.36206 0.0
H702 H 0.83429 0.6453 0.26877 0.0
H703 H 0.85419 0.71111 0.28221 0.0
C704 C 0.82139 0.84442 0.35359 0.0
C705 C 0.79751 0.82468 0.32007 0.0
C706 C 0.85128 0.83976 0.36263 0.0
C707 C 0.85788 0.81598 0.33771 0.0
C708 C 0.83516 0.79806 0.30328 0.0
C709 C 0.80525 0.80215 0.29467 0.0
C710 C 0.88784 0.80856 0.3464 0.0
C711 C 0.87873 0.77164 0.34334 0.0
C712 C 0.92515 0.83649 0.35082 0.0
C713 C 0.93673 0.87587 0.35322 0.0
C714 C 0.92979 0.88992 0.32126 0.0
C715 C 0.94207 0.92745 0.32322 0.0
C716 C 0.96147 0.95115 0.35694 0.0
C717 C 0.96862 0.93737 0.38876 0.0
C718 C 0.95641 0.89986 0.38692 0.0
C719 C 0.99077 0.77073 0.26018 0.0
C720 C 0.02618 0.78557 0.27846 0.0
C721 C 0.96258 0.76887 0.28123 0.0
C722 C 0.96949 0.78222 0.32078 0.0
C723 C 0.00435 0.79503 0.3396 0.0
C724 C 0.03253 0.79642 0.31858 0.0
C725 C 0.94256 0.78965 0.3393 0.0
C726 C 0.95221 0.82662 0.3481 0.0
C727 C 0.90554 0.76175 0.3387 0.0
C728 C 0.89385 0.72227 0.33005 0.0
C729 C 0.90952 0.70681 0.35224 0.0
C730 C 0.89787 0.66938 0.34458 0.0
C731 C 0.87085 0.64726 0.31446 0.0
C732 C 0.85523 0.66245 0.2921 0.0
C733 C 0.86653 0.69975 0.29989 0.0
H734 H 0.86194 0.61834 0.30853 0.0
H735 H 0.97111 0.98022 0.35834 0.0
H736 H 0.22884 0.05289 0.80565 0.0
H737 H 0.16562 0.00975 0.81907 0.0
H738 H 0.12728 0.00445 0.7014 0.0
H739 H 0.18912 0.04627 0.6877 0.0
H740 H 0.08246 0.01183 0.7546 0.0
H741 H 0.14658 0.94122 0.72354 0.0
H742 H 0.19345 0.92453 0.73852 0.0
H743 H 0.15522 0.90158 0.85046 0.0
H744 H 0.10838 0.91859 0.83618 0.0
H745 H 0.97988 0.80953 0.66151 0.0
H746 H 0.03211 0.86979 0.68614 0.0
H747 H 0.96075 0.8959 0.75091 0.0
H748 H 0.90804 0.8366 0.72357 0.0
H749 H 0.05411 0.8839 0.7593 0.0
H750 H 0.0092 0.98883 0.78401 0.0
H751 H 0.96271 0.00258 0.75869 0.0
H752 H 0.96408 0.95485 0.64494 0.0
H753 H 0.01073 0.94112 0.66957 0.0
C754 C 0.20683 0.04225 0.78271 0.0
C755 C 0.21388 0.05304 0.74566 0.0
C756 C 0.17085 0.01818 0.79059 0.0
C757 C 0.14189 0.00499 0.76149 0.0
C758 C 0.14917 0.0153 0.72454 0.0
C759 C 0.1847 0.03885 0.71664 0.0
C760 C 0.10415 0.97691 0.76659 0.0
C761 C 0.07585 0.98385 0.75679 0.0
C762 C 0.09573 0.94073 0.76995 0.0
C763 C 0.1244 0.93154 0.77902 0.0
C764 C 0.14844 0.93292 0.75146 0.0
C765 C 0.17492 0.92335 0.75978 0.0
C766 C 0.17726 0.91195 0.79538 0.0
C767 C 0.15333 0.91038 0.82287 0.0
C768 C 0.12688 0.92006 0.81473 0.0
C769 C 0.97523 0.82905 0.67924 0.0
C770 C 0.94039 0.8189 0.69079 0.0
C771 C 0.005 0.8631 0.69391 0.0
C772 C 0.00038 0.88678 0.72128 0.0
C773 C 0.96494 0.87805 0.72993 0.0
C774 C 0.93488 0.84437 0.71409 0.0
C775 C 0.0333 0.91846 0.74279 0.0
C776 C 0.06007 0.91193 0.75891 0.0
C777 C 0.04045 0.95486 0.74405 0.0
C778 C 0.01302 0.96357 0.72871 0.0
C779 C -0.00041 0.98137 0.75359 0.0
C780 C 0.97322 0.98912 0.73938 0.0
C781 C 0.96031 0.97939 0.70027 0.0
C782 C 0.97396 0.96219 0.67525 0.0
C783 C 0.00033 0.95438 0.68932 0.0
H784 H 0.93976 0.98521 0.68932 0.0
H785 H 0.1976 0.90427 0.8016 0.0
H786 H 0.19347 0.25304 0.14402 0.0
H787 H 0.20536 0.22938 0.08218 0.0
H788 H 0.31545 0.3224 0.09426 0.0
H789 H 0.30403 0.34563 0.15595 0.0
H790 H 0.27547 0.30317 0.01751 0.0
H791 H 0.30539 0.24652 0.11882 0.0
H792 H 0.28642 0.20917 0.17253 0.0
H793 H 0.19919 0.11916 0.09715 0.0
H794 H 0.21749 0.15615 0.04308 0.0
H795 H 0.37259 0.26536 0.88238 0.0
H796 H 0.35449 0.28076 0.94402 0.0
H797 H 0.26867 0.16769 0.94047 0.0
H798 H 0.28866 0.15187 0.88014 0.0
H799 H 0.28724 0.19194 0.01056 0.0
H800 H 0.25438 0.23884 0.90928 0.0
H801 H 0.26139 0.27212 0.85325 0.0
H802 H 0.33784 0.37389 0.92257 0.0
H803 H 0.3317 0.34114 0.9789 0.0
C804 C 0.21994 0.2687 0.13312 0.0
C805 C 0.2478 0.30127 0.15482 0.0
C806 C 0.2268 0.25504 0.09793 0.0
C807 C 0.26139 0.27409 0.08363 0.0
C808 C 0.2886 0.30725 0.10464 0.0
C809 C 0.28204 0.32044 0.13996 0.0
C810 C 0.27031 0.25929 0.04767 0.0
C811 C 0.27834 0.27902 0.01599 0.0
C812 C 0.27242 0.22686 0.04504 0.0
C813 C 0.26268 0.20413 0.07702 0.0
C814 C 0.28216 0.21877 0.11374 0.0
C815 C 0.27152 0.19768 0.14424 0.0
C816 C 0.24158 0.16184 0.13827 0.0
C817 C 0.22238 0.14692 0.10172 0.0
C818 C 0.23293 0.1679 0.07113 0.0
C819 C 0.35062 0.24361 0.89542 0.0
C820 C 0.33213 0.20742 0.87644 0.0
C821 C 0.3398 0.2525 0.93041 0.0
C822 C 0.30908 0.22577 0.94646 0.0
C823 C 0.29216 0.18906 0.92879 0.0
C824 C 0.30376 0.17995 0.89431 0.0
C825 C 0.29377 0.23656 0.98029 0.0
C826 C 0.28433 0.21603 0.01162 0.0
C827 C 0.28893 0.26756 0.98203 0.0
C828 C 0.29283 0.28746 0.94823 0.0
C829 C 0.27289 0.26828 0.91251 0.0
C830 C 0.27668 0.28706 0.8807 0.0
C831 C 0.30011 0.32508 0.88433 0.0
C832 C 0.31974 0.34442 0.91979 0.0
C833 C 0.3161 0.32577 0.95169 0.0
H834 H 0.303 0.33957 0.85967 0.0
H835 H 0.23326 0.14561 0.16196 0.0
H836 H 0.98779 0.24475 0.64769 0.0
H837 H 0.02647 0.2557 0.59443 0.0
H838 H 0.94539 0.26173 0.52179 0.0
H839 H 0.9047 0.24517 0.57338 0.0
H840 H 0.9727 0.23884 0.47735 0.0
H841 H 0.03518 0.34157 0.57894 0.0
H842 H 0.06348 0.37185 0.64483 0.0
H843 H 0.13974 0.33302 0.63475 0.0
H844 H 0.11154 0.302 0.56917 0.0
H845 H 0.08599 0.34729 0.34547 0.0
H846 H 0.05513 0.33515 0.4047 0.0
H847 H 0.12239 0.2929 0.44509 0.0
H848 H 0.15391 0.30548 0.38581 0.0
H849 H 0.10506 0.33146 0.50517 0.0
H850 H 0.04386 0.23983 0.39328 0.0
H851 H 0.01815 0.22311 0.32535 0.0
H852 H 0.93556 0.24992 0.35423 0.0
H853 H 0.96277 0.27008 0.42174 0.0
C854 C 0.97776 0.24703 0.61989 0.0
C855 C 0.94289 0.24335 0.61463 0.0
C856 C 0.00039 0.25439 0.5895 0.0
C857 C 0.99 0.26122 0.55389 0.0
C858 C 0.95464 0.25674 0.54856 0.0
C859 C 0.9312 0.24727 0.57824 0.0
C860 C 0.01574 0.27376 0.52251 0.0
C861 C 0.00146 0.25953 0.48377 0.0
C862 C 0.05382 0.30029 0.53003 0.0
C863 C 0.07101 0.31919 0.56933 0.0
C864 C 0.05787 0.33936 0.59091 0.0
C865 C 0.07387 0.3566 0.62822 0.0
C866 C 0.10329 0.3542 0.64407 0.0
C867 C 0.11686 0.33469 0.62257 0.0
C868 C 0.10089 0.31729 0.58533 0.0
C869 C 0.095 0.33635 0.36737 0.0
C870 C 0.12217 0.32695 0.36059 0.0
C871 C 0.0772 0.32931 0.40125 0.0
C872 C 0.08571 0.3122 0.42898 0.0
C873 C 0.1151 0.30583 0.42399 0.0
C874 C 0.13321 0.31316 0.39009 0.0
C875 C 0.06145 0.29753 0.46069 0.0
C876 C 0.07616 0.31096 0.49921 0.0
C877 C 0.02345 0.27138 0.45288 0.0
C878 C 0.0057 0.2569 0.4127 0.0
C879 C 0.02044 0.24254 0.38519 0.0
C880 C 0.00567 0.23256 0.34667 0.0
C881 C 0.97499 0.23501 0.33555 0.0
C882 C 0.9593 0.24795 0.36288 0.0
C883 C 0.97465 0.25906 0.40123 0.0
H884 H 0.96345 0.22695 0.30575 0.0
H885 H 0.11565 0.36755 0.67295 0.0
H886 H 0.63297 0.88006 0.07081 0.0
H887 H 0.65215 0.91582 0.01625 0.0
H888 H 0.74872 0.00044 0.0864 0.0
H889 H 0.72909 0.96569 0.14125 0.0
H890 H 0.67033 -0.00094 0.03082 0.0
H891 H 0.81408 0.0153 0.99627 0.0
H892 H 0.84245 0.97732 0.98247 0.0
H893 H 0.73629 0.87971 0.96916 0.0
H894 H 0.70702 0.91702 0.98084 0.0
H895 H 0.83105 0.14408 0.92827 0.0
H896 H 0.802 0.10338 0.97671 0.0
H897 H 0.70045 0.04538 0.90325 0.0
H898 H 0.72928 0.08592 0.8543 0.0
H899 H 0.77457 0.0261 0.95231 0.0
H900 H 0.63138 0.00294 0.96803 0.0
H901 H 0.59712 0.03572 0.96271 0.0
H902 H 0.69555 0.13859 1.00017 0.0
H903 H 0.7303 0.1064 0.00604 0.0
C904 C 0.65878 0.90584 0.07436 0.0
C905 C 0.67966 0.91986 0.11048 0.0
C906 C 0.66963 0.92628 0.04315 0.0
C907 C 0.70218 0.96055 0.04708 0.0
C908 C 0.72386 0.97378 0.08251 0.0
C909 C 0.7126 0.95384 0.11391 0.0
C910 C 0.71141 0.98494 0.0164 0.0
C911 C 0.69293 0.00466 0.01338 0.0
C912 C 0.74071 0.99209 0.99336 0.0
C913 C 0.75828 0.96911 0.99045 0.0
C914 C 0.79669 0.98571 0.99061 0.0
C915 C 0.81295 0.9643 0.98268 0.0
C916 C 0.79117 0.92612 0.97499 0.0
C917 C 0.75313 0.90927 0.9755 0.0
C918 C 0.73666 0.93059 0.98275 0.0
C919 C 0.80212 0.12373 0.92288 0.0
C920 C 0.78275 0.118 0.88696 0.0
C921 C 0.78563 0.10019 0.95057 0.0
C922 C 0.74926 0.07098 0.94332 0.0
C923 C 0.72857 0.06768 0.90942 0.0
C924 C 0.74513 0.09105 0.88151 0.0
C925 C 0.73501 0.04144 0.96863 0.0
C926 C 0.75233 0.02062 0.97027 0.0
C927 C 0.70413 0.03258 0.98947 0.0
C928 C 0.68347 0.05226 0.98714 0.0
C929 C 0.64566 0.03254 0.97532 0.0
C930 C 0.62617 0.05102 0.97215 0.0
C931 C 0.64417 0.08922 0.981 0.0
C932 C 0.68167 0.10901 0.99319 0.0
C933 C 0.70129 0.09067 0.99635 0.0
H934 H 0.62905 0.10348 0.97847 0.0
H935 H 0.80379 0.90958 0.96876 0.0
H936 H 0.68238 0.66974 0.68007 0.0
H937 H 0.66472 0.68997 0.62462 0.0
H938 H 0.7546 0.69287 0.56643 0.0
H939 H 0.77318 0.67357 0.62262 0.0
H940 H 0.75133 0.75002 0.55467 0.0
H941 H 0.66259 0.62301 0.54232 0.0
H942 H 0.61491 0.56482 0.56203 0.0
H943 H 0.54507 0.61057 0.58063 0.0
H944 H 0.59258 0.66926 0.56158 0.0
H945 H 0.63382 0.71773 0.36689 0.0
H946 H 0.64248 0.69351 0.42424 0.0
H947 H 0.68662 0.80026 0.49083 0.0
H948 H 0.67945 0.82518 0.43319 0.0
H949 H 0.62249 0.68603 0.49609 0.0
H950 H 0.76137 0.81862 0.54623 0.0
H951 H 0.81127 0.86938 0.51762 0.0
H952 H 0.78383 0.79934 0.40972 0.0
H953 H 0.73407 0.74845 0.43766 0.0
C954 C 0.69837 0.67445 0.65544 0.0
C955 C 0.72919 0.66984 0.65585 0.0
C956 C 0.68809 0.68593 0.62357 0.0
C957 C 0.70788 0.69246 0.59088 0.0
C958 C 0.73879 0.68802 0.59121 0.0
C959 C 0.74938 0.6769 0.62336 0.0
C960 C 0.69665 0.70456 0.55681 0.0
C961 C 0.72309 0.73596 0.54204 0.0
C962 C 0.65999 0.68591 0.53937 0.0
C963 C 0.63134 0.65069 0.55093 0.0
C964 C 0.6372 0.62078 0.55093 0.0
C965 C 0.61018 0.58769 0.56194 0.0
C966 C 0.57703 0.58404 0.57269 0.0
C967 C 0.57079 0.61346 0.57237 0.0
C968 C 0.59775 0.64664 0.56145 0.0
C969 C 0.64452 0.73599 0.39388 0.0
C970 C 0.65645 0.77367 0.39509 0.0
C971 C 0.64954 0.72201 0.42674 0.0
C972 C 0.66595 0.74518 0.46172 0.0
C973 C 0.67451 0.78195 0.46399 0.0
C974 C 0.66996 0.79609 0.43102 0.0
C975 C 0.67697 0.7317 0.49462 0.0
C976 C 0.65057 0.70012 0.50906 0.0
C977 C 0.71389 0.74922 0.51078 0.0
C978 C 0.74382 0.77991 0.49392 0.0
C979 C 0.76607 0.81415 0.5164 0.0
C980 C 0.79431 0.84298 0.50027 0.0
C981 C 0.80068 0.83772 0.4618 0.0
C982 C 0.77884 0.80361 0.4394 0.0
C983 C 0.75056 0.77479 0.45534 0.0
H984 H 0.82261 0.86002 0.4494 0.0
H985 H 0.55613 0.55839 0.58119 0.0
H986 H 0.92763 0.66396 0.82422 0.0
H987 H 0.95712 0.66661 0.88666 0.0
H988 H 0.8968 0.71235 0.94349 0.0
H989 H 0.86542 0.70716 0.88117 0.0
H990 H 0.00213 0.71886 0.93303 0.0
H991 H 0.89186 0.70291 0.03692 0.0
H992 H 0.82438 0.66974 0.03651 0.0
H993 H 0.81588 0.58696 0.94847 0.0
H994 H 0.8833 0.61939 0.94868 0.0
H995 H 0.08912 0.78866 0.12109 0.0
H996 H 0.05196 0.775 0.06069 0.0
H997 H 0.98357 0.66314 0.08279 0.0
H998 H 0.0197 0.67729 0.14459 0.0
H999 H 0.94162 0.68426 0.05353 0.0
H1000 H 0.05191 0.68969 0.0196 0.0
H1001 H 0.11853 0.71545 0.01748 0.0
H1002 H 0.12541 0.80369 0.96074 0.0
H1003 H 0.05898 0.77911 0.96355 0.0
C1004 C 0.9201 0.67379 0.85019 0.0
C1005 C 0.89407 0.68513 0.84788 0.0
C1006 C 0.93718 0.67557 0.88593 0.0
C1007 C 0.92931 0.68956 0.92024 0.0
C1008 C 0.90287 0.70052 0.91787 0.0
C1009 C 0.88496 0.69769 0.88216 0.0
C1010 C 0.95031 0.69456 0.95787 0.0
C1011 C 0.98875 0.71113 0.95929 0.0
C1012 C 0.93315 0.68396 0.9923 0.0
C1013 C 0.89262 0.66377 0.99262 0.0
C1014 C 0.8756 0.67752 0.01764 0.0
C1015 C 0.83736 0.65888 0.01739 0.0
C1016 C 0.81586 0.62633 0.99239 0.0
C1017 C 0.83256 0.61224 0.96772 0.0
C1018 C 0.87078 0.63076 0.96788 0.0
C1019 C 0.06602 0.76137 0.11361 0.0
C1020 C 0.05746 0.73434 0.13821 0.0
C1021 C 0.04483 0.75333 0.07861 0.0
C1022 C 0.01506 0.71782 0.06669 0.0
C1023 C 0.0063 0.69076 0.09121 0.0
C1024 C 0.02724 0.69894 0.12651 0.0
C1025 C 0.99334 0.70888 0.02858 0.0
C1026 C 0.95488 0.69176 0.02716 0.0
C1027 C 0.01037 0.71777 0.99382 0.0
C1028 C 0.05047 0.73283 0.99231 0.0
C1029 C 0.06768 0.71487 0.00713 0.0
C1030 C 0.10543 0.72927 0.00581 0.0
C1031 C 0.12623 0.76133 0.98922 0.0
C1032 C 0.1093 0.77903 0.97386 0.0
C1033 C 0.07162 0.76492 0.97538 0.0
H1034 H 0.15543 0.77236 0.98811 0.0
H1035 H 0.78626 0.61199 0.99219 0.0
H1036 H 0.27144 0.01643 0.66767 0.0
H1037 H 0.24862 0.98114 0.60364 0.0
H1038 H 0.32181 0.07728 0.55223 0.0
H1039 H 0.34391 0.11337 0.61695 0.0
H1040 H 0.25713 0.03599 0.50766 0.0
H1041 H 0.34554 0.01296 0.56782 0.0
H1042 H 0.37341 0.99693 0.61999 0.0
H1043 H 0.27614 0.89079 0.61281 0.0
H1044 H 0.24747 0.90639 0.56095 0.0
H1045 H 0.26076 0.94158 0.33243 0.0
H1046 H 0.28182 0.97602 0.39688 0.0
H1047 H 0.19571 0.88447 0.44416 0.0
H1048 H 0.17371 0.84966 0.37905 0.0
H1049 H 0.26694 0.92347 0.49027 0.0
H1050 H 0.18007 0.94695 0.42682 0.0
H1051 H 0.15446 0.96377 0.37346 0.0
H1052 H 0.25102 0.07085 0.38614 0.0
H1053 H 0.27782 0.05425 0.4388 0.0
C1054 C 0.28226 0.03025 0.64267 0.0
C1055 C 0.3098 0.06748 0.64722 0.0
C1056 C 0.26933 0.00998 0.60608 0.0
C1057 C 0.28428 0.02617 0.57311 0.0
C1058 C 0.31016 0.06405 0.5773 0.0
C1059 C 0.32271 0.08469 0.61418 0.0
C1060 C 0.27414 0.00279 0.53492 0.0
C1061 C 0.25976 0.01169 0.50373 0.0
C1062 C 0.27693 0.97062 0.52984 0.0
C1063 C 0.29424 0.96097 0.56072 0.0
C1064 C 0.33 0.98629 0.57753 0.0
C1065 C 0.34595 0.97727 0.60703 0.0
C1066 C 0.32653 0.94289 0.61977 0.0
C1067 C 0.29114 0.91742 0.60294 0.0
C1068 C 0.27504 0.92632 0.57347 0.0
C1069 C 0.24658 0.92832 0.35652 0.0
C1070 C 0.21518 0.89293 0.35041 0.0
C1071 C 0.25866 0.94821 0.39339 0.0
C1072 C 0.23986 0.93317 0.42517 0.0
C1073 C 0.21041 0.89669 0.41989 0.0
C1074 C 0.19803 0.87672 0.38271 0.0
C1075 C 0.24983 0.95658 0.46317 0.0
C1076 C 0.26428 0.94774 0.49426 0.0
C1077 C 0.24737 0.98893 0.46798 0.0
C1078 C 0.2312 -0.00087 0.43646 0.0
C1079 C 0.19609 0.97392 0.41794 0.0
C1080 C 0.18133 0.98344 0.38782 0.0
C1081 C 0.20111 0.01835 0.37636 0.0
C1082 C 0.23575 0.04379 0.39499 0.0
C1083 C 0.25078 0.0343 0.42493 0.0
H1084 H 0.18955 0.0257 0.35313 0.0
H1085 H 0.33892 0.93597 0.64262 0.0
H1086 H 0.77451 0.68618 0.9284 0.0
H1087 H 0.75122 0.70733 0.98217 0.0
H1088 H 0.70746 0.75192 0.90429 0.0
H1089 H 0.73007 0.73035 0.85008 0.0
H1090 H 0.73819 0.79186 0.9897 0.0
H1091 H 0.65028 0.67612 0.90968 0.0
H1092 H 0.63481 0.61595 0.8748 0.0
H1093 H 0.65568 0.58269 0.98034 0.0
H1094 H 0.67194 0.64299 0.01569 0.0
H1095 H 0.62513 0.79556 0.12522 0.0
H1096 H 0.63264 0.77799 0.05907 0.0
H1097 H 0.65865 0.69938 0.09809 0.0
H1098 H 0.64954 0.71539 0.16373 0.0
H1099 H 0.63159 0.67877 0.02488 0.0
H1100 H 0.72871 0.79068 0.10194 0.0
H1101 H 0.74803 0.84923 0.14324 0.0
H1102 H 0.71417 0.88805 0.05028 0.0
H1103 H 0.69446 0.82968 0.00861 0.0
C1104 C 0.76112 0.70164 0.92284 0.0
C1105 C 0.75334 0.70588 0.88497 0.0
C1106 C 0.74788 0.71371 0.95359 0.0
C1107 C 0.72725 0.73058 0.94682 0.0
C1108 C 0.72327 0.73882 0.90983 0.0
C1109 C 0.73603 0.72629 0.87896 0.0
C1110 C 0.70438 0.7331 0.97649 0.0
C1111 C 0.71444 0.76734 0.99693 0.0
C1112 C 0.67384 0.70089 0.98612 0.0
C1113 C 0.66254 0.66411 0.96524 0.0
C1114 C 0.65173 0.65603 0.92539 0.0
C1115 C 0.64283 0.62191 0.90554 0.0
C1116 C 0.64432 0.59553 0.92532 0.0
C1117 C 0.65455 0.60316 0.96504 0.0
C1118 C 0.66357 0.63728 0.985 0.0
C1119 C 0.63097 0.7735 0.11957 0.0
C1120 C 0.63816 0.75791 0.14998 0.0
C1121 C 0.63536 0.76356 0.0817 0.0
C1122 C 0.64773 0.73855 0.07408 0.0
C1123 C 0.64967 0.7192 0.10346 0.0
C1124 C 0.64464 0.72861 0.14114 0.0
C1125 C 0.66533 0.73757 0.03844 0.0
C1126 C 0.65459 0.70352 0.01697 0.0
C1127 C 0.69572 0.76985 0.0284 0.0
C1128 C 0.71015 0.80596 0.05224 0.0
C1129 C 0.72567 0.81189 0.09029 0.0
C1130 C 0.73652 0.84494 0.11381 0.0
C1131 C 0.73213 0.87228 0.09948 0.0
C1132 C 0.7174 0.86682 0.06142 0.0
C1133 C 0.70655 0.83386 0.03776 0.0
H1134 H 0.7403 0.89773 0.11783 0.0
H1135 H 0.63751 0.56917 0.90989 0.0
H1136 H 0.01183 0.71825 0.33082 0.0
H1137 H 0.97194 0.70297 0.38291 0.0
H1138 H 0.06555 0.74856 0.46681 0.0
H1139 H 0.1065 0.76464 0.41475 0.0
H1140 H -0.00197 0.66422 0.45746 0.0
H1141 H 0.0357 0.7923 0.47701 0.0
H1142 H 0.04578 0.85117 0.45917 0.0
H1143 H 0.93016 0.80306 0.42881 0.0
H1144 H 0.91947 0.74347 0.4451 0.0
H1145 H 0.91877 0.65103 0.63382 0.0
H1146 H 0.95122 0.6578 0.57649 0.0
H1147 H 0.86625 0.66359 0.51135 0.0
H1148 H 0.83442 0.65908 0.56953 0.0
H1149 H 0.92902 0.72271 0.50943 0.0
H1150 H 0.89072 0.59518 0.47751 0.0
H1151 H 0.87826 0.53263 0.48412 0.0
H1152 H 0.98924 0.57666 0.53239 0.0
H1153 H 0.00252 0.6394 0.52534 0.0
C1154 C 0.02419 0.72583 0.36034 0.0
C1155 C 0.06239 0.74263 0.36867 0.0
C1156 C 0.00125 0.7174 0.38999 0.0
C1157 C 0.01585 0.72533 0.42841 0.0
C1158 C 0.05396 0.7428 0.43715 0.0
C1159 C 0.0772 0.7519 0.40744 0.0
C1160 C 0.99064 0.71096 0.45852 0.0
C1161 C 0.98334 0.67725 0.46952 0.0
C1162 C 0.97034 0.72728 0.47227 0.0
C1163 C 0.97689 0.76301 0.46147 0.0
C1164 C 0.01249 0.79393 0.46566 0.0
C1165 C 0.0183 0.82755 0.45603 0.0
C1166 C 0.98867 0.83081 0.44265 0.0
C1167 C 0.95314 0.80047 0.43899 0.0
C1168 C 0.94721 0.76673 0.44836 0.0
C1169 C 0.90605 0.65231 0.60707 0.0
C1170 C 0.87443 0.65554 0.60661 0.0
C1171 C 0.92465 0.65587 0.57404 0.0
C1172 C 0.91129 0.66127 0.53957 0.0
C1173 C 0.87722 0.65968 0.53776 0.0
C1174 C 0.85892 0.65689 0.57104 0.0
C1175 C 0.93612 0.67561 0.50866 0.0
C1176 C 0.94347 0.70943 0.49741 0.0
C1177 C 0.95603 0.65911 0.49401 0.0
C1178 C 0.94745 0.62194 0.50133 0.0
C1179 C 0.91233 0.59152 0.48991 0.0
C1180 C 0.90526 0.55601 0.49327 0.0
C1181 C 0.93293 0.55067 0.50866 0.0
C1182 C 0.96783 0.58082 0.52047 0.0
C1183 C 0.97519 0.61633 0.5166 0.0
H1184 H 0.9273 0.52318 0.51153 0.0
H1185 H 0.99326 0.85686 0.43521 0.0
H1186 H 0.30244 0.07338 0.91724 0.0
H1187 H 0.2755 0.02743 0.96121 0.0
H1188 H 0.22919 0.94121 0.86493 0.0
H1189 H 0.25583 0.98685 0.82016 0.0
H1190 H 0.1869 0.94172 0.94471 0.0
H1191 H 0.29079 0.93962 0.88625 0.0
H1192 H 0.35261 0.97274 0.86379 0.0
H1193 H 0.39657 0.03219 0.97733 0.0
H1194 H 0.33482 -0.00016 1.00024 0.0
H1195 H 0.15797 0.82312 0.07715 0.0
H1196 H 0.17808 0.84228 0.01449 0.0
H1197 H 0.27201 0.94164 0.07129 0.0
H1198 H 0.25297 0.92227 0.13391 0.0
H1199 H 0.28595 0.92437 1.00084 0.0
H1200 H 0.18888 0.93465 0.05998 0.0
H1201 H 0.12933 0.90992 0.08769 0.0
H1202 H 0.07397 0.84475 0.97907 0.0
H1203 H 0.13338 0.86834 0.95102 0.0
C1204 C 0.28552 0.04478 0.90516 0.0
C1205 C 0.28201 0.03367 0.86527 0.0
C1206 C 0.27019 0.01863 0.93036 0.0
C1207 C 0.25083 0.98121 0.91594 0.0
C1208 C 0.24396 0.97013 0.87613 0.0
C1209 C 0.25943 0.99624 0.85079 0.0
C1210 C 0.24274 0.95413 0.94268 0.0
C1211 C 0.20806 0.93694 0.95633 0.0
C1212 C 0.27092 0.94903 0.95819 0.0
C1213 C 0.30821 0.96754 0.94484 0.0
C1214 C 0.31362 0.95993 0.90633 0.0
C1215 C 0.34863 0.97854 0.89353 0.0
C1216 C 0.37849 0.00462 0.9191 0.0
C1217 C 0.37341 0.01201 0.95755 0.0
C1218 C 0.33843 0.99352 0.97047 0.0
C1219 C 0.1837 0.84835 0.07626 0.0
C1220 C 0.20322 0.87197 0.1103 0.0
C1221 C 0.19513 0.85916 0.04045 0.0
C1222 C 0.22559 0.89391 0.03847 0.0
C1223 C 0.24806 0.91491 0.07228 0.0
C1224 C 0.23702 0.90387 0.10812 0.0
C1225 C 0.22988 0.91163 0.00322 0.0
C1226 C 0.26412 0.92766 0.98825 0.0
C1227 C 0.20141 0.91629 0.98705 0.0
C1228 C 0.16561 0.9027 0.00362 0.0
C1229 C 0.16404 0.91477 0.04211 0.0
C1230 C 0.13032 0.90093 0.05789 0.0
C1231 C 0.09791 0.87554 0.03523 0.0
C1232 C 0.09914 0.86415 0.99668 0.0
C1233 C 0.13283 0.8777 0.98084 0.0
H1234 H 0.07182 0.86483 0.04748 0.0
H1235 H 0.40557 0.01904 0.90912 0.0
H1236 H 0.38272 0.29553 0.67244 0.0
H1237 H 0.37508 0.31388 0.61077 0.0
H1238 H 0.3927 0.23031 0.55177 0.0
H1239 H 0.39831 0.21047 0.61364 0.0
H1240 H 0.39724 0.33269 0.54432 0.0
H1241 H 0.32579 0.18096 0.4786 0.0
H1242 H 0.29936 0.11884 0.49801 0.0
H1243 H 0.2779 0.15736 0.60677 0.0
H1244 H 0.30386 0.21961 0.58798 0.0
H1245 H 0.27969 0.26401 0.35038 0.0
H1246 H 0.31 0.25114 0.40238 0.0
H1247 H 0.28368 0.31459 0.48577 0.0
H1248 H 0.25318 0.32749 0.43415 0.0
H1249 H 0.28932 0.22144 0.47347 0.0
H1250 H 0.36442 0.37272 0.5435 0.0
H1251 H 0.38388 0.4339 0.52448 0.0
H1252 H 0.3914 0.39568 0.40857 0.0
H1253 H 0.37267 0.33451 0.42706 0.0
C1254 C 0.38708 0.28238 0.64659 0.0
C1255 C 0.38987 0.25079 0.64766 0.0
C1256 C 0.38233 0.2927 0.61111 0.0
C1257 C 0.38135 0.27214 0.57654 0.0
C1258 C 0.39185 0.24557 0.57808 0.0
C1259 C 0.39572 0.23466 0.61353 0.0
C1260 C 0.36291 0.2739 0.54057 0.0
C1261 C 0.37371 0.30834 0.52885 0.0
C1262 C 0.33223 0.24207 0.51998 0.0
C1263 C 0.31723 0.20501 0.53206 0.0
C1264 C 0.3155 0.17616 0.50671 0.0
C1265 C 0.30058 0.14096 0.51759 0.0
C1266 C 0.28708 0.13426 0.55368 0.0
C1267 C 0.28852 0.16272 0.57896 0.0
C1268 C 0.30335 0.19795 0.56822 0.0
C1269 C 0.2795 0.27443 0.37989 0.0
C1270 C 0.26443 0.29717 0.38808 0.0
C1271 C 0.2969 0.26711 0.40951 0.0
C1272 C 0.29982 0.28272 0.44764 0.0
C1273 C 0.2822 0.30286 0.45633 0.0
C1274 C 0.26447 0.3099 0.4268 0.0
C1275 C 0.32331 0.28014 0.47799 0.0
C1276 C 0.31334 0.24562 0.48854 0.0
C1277 C 0.35433 0.31186 0.49777 0.0
C1278 C 0.36682 0.34893 0.48664 0.0
C1279 C 0.37047 0.37745 0.51403 0.0
C1280 C 0.38134 0.41211 0.50332 0.0
C1281 C 0.38877 0.41864 0.46531 0.0
C1282 C 0.38554 0.39056 0.43798 0.0
C1283 C 0.37477 0.35588 0.44855 0.0
H1284 H 0.39708 0.44546 0.45706 0.0
H1285 H 0.27526 0.10696 0.56196 0.0
H1286 H 0.15013 0.32713 0.0823 0.0
H1287 H 0.119 0.33086 0.02492 0.0
H1288 H 0.07034 0.38183 0.09528 0.0
H1289 H 0.10075 0.37726 0.1533 0.0
H1290 H 0.01885 0.32321 0.05383 0.0
H1291 H 0.12759 0.42603 0.02472 0.0
H1292 H 0.19332 0.46416 0.01608 0.0
H1293 H 0.18384 0.38323 0.92505 0.0
H1294 H 0.11817 0.34433 0.93348 0.0
H1295 H 0.97119 0.33374 0.83731 0.0
H1296 H 0.01059 0.35983 0.89756 0.0
H1297 H 0.96126 0.25222 0.93424 0.0
H1298 H 0.92024 0.2262 0.87484 0.0
H1299 H 0.06191 0.35161 0.92459 0.0
H1300 H 0.96576 0.25638 0.02968 0.0
H1301 H 0.89972 0.22265 0.03872 0.0
H1302 H 0.88384 0.29884 0.98019 0.0
H1303 H 0.94986 0.33328 0.97121 0.0
C1304 C 0.13388 0.34035 0.08568 0.0
C1305 C 0.12722 0.351 0.12257 0.0
C1306 C 0.11608 0.34258 0.05263 0.0
C1307 C 0.09187 0.3562 0.05572 0.0
C1308 C 0.08853 0.37079 0.09222 0.0
C1309 C 0.1062 0.36839 0.1254 0.0
C1310 C 0.0662 0.3498 0.0219 0.0
C1311 C 0.02831 0.3299 0.02566 0.0
C1312 C 0.07839 0.35886 0.9852 0.0
C1313 C 0.11792 0.38216 0.97989 0.0
C1314 C 0.13956 0.41623 0.00303 0.0
C1315 C 0.17681 0.438 0.99813 0.0
C1316 C 0.19275 0.4261 0.97006 0.0
C1317 C 0.17145 0.39242 0.94677 0.0
C1318 C 0.13418 0.37052 0.95155 0.0
C1319 C 0.96841 0.31553 0.85827 0.0
C1320 C 0.94267 0.27765 0.85087 0.0
C1321 C 0.99112 0.33058 0.89275 0.0
C1322 C 0.98892 0.30815 0.92065 0.0
C1323 C 0.96309 0.27032 0.91354 0.0
C1324 C 0.93981 0.25532 0.87926 0.0
C1325 C 0.01464 0.32415 0.95639 0.0
C1326 C 0.05246 0.34562 0.9529 0.0
C1327 C 0.00237 0.31732 0.9935 0.0
C1328 C 0.96274 0.29726 0.99956 0.0
C1329 C 0.94823 0.26607 0.01896 0.0
C1330 C 0.91078 0.24679 0.02401 0.0
C1331 C 0.88758 0.25854 0.00996 0.0
C1332 C 0.90182 0.2897 0.99096 0.0
C1333 C 0.93924 0.30909 0.98585 0.0
H1334 H 0.85859 0.24353 0.01384 0.0
H1335 H 0.2216 0.443 0.96632 0.0
H1336 H 0.83768 0.14143 0.62149 0.0
H1337 H 0.81301 0.10891 0.55641 0.0
H1338 H 0.70974 0.03649 0.59944 0.0
H1339 H 0.73518 0.06772 0.66491 0.0
H1340 H 0.72817 0.99736 0.55783 0.0
H1341 H 0.72186 0.10435 0.53916 0.0
H1342 H 0.74504 0.17075 0.54145 0.0
H1343 H 0.82625 0.18 0.46525 0.0
H1344 H 0.80383 0.11371 0.46286 0.0
H1345 H 0.65775 0.96872 0.34109 0.0
H1346 H 0.67802 0.00517 0.40449 0.0
H1347 H 0.74046 0.95354 0.43169 0.0
H1348 H 0.71874 0.91562 0.36887 0.0
H1349 H 0.73947 0.05459 0.43817 0.0
H1350 H 0.7461 0.94859 0.52608 0.0
H1351 H 0.71548 0.88136 0.52537 0.0
H1352 H 0.61878 0.86839 0.46484 0.0
H1353 H 0.64868 0.93551 0.46548 0.0
C1354 C 0.80945 0.11912 0.61683 0.0
C1355 C 0.78828 0.10697 0.64805 0.0
C1356 C 0.79532 0.10054 0.57962 0.0
C1357 C 0.75941 0.07027 0.57292 0.0
C1358 C 0.7376 0.05954 0.60392 0.0
C1359 C 0.75203 0.07751 0.64123 0.0
C1360 C 0.74549 0.04812 0.53428 0.0
C1361 C 0.73046 0.00991 0.5317 0.0
C1362 C 0.7481 0.06433 0.50017 0.0
C1363 C 0.76133 0.10411 0.50107 0.0
C1364 C 0.74478 0.12058 0.52305 0.0
C1365 C 0.75777 0.15819 0.52435 0.0
C1366 C 0.78714 0.17959 0.50357 0.0
C1367 C 0.8035 0.16339 0.48134 0.0
C1368 C 0.79063 0.12579 0.47995 0.0
C1369 C 0.67584 0.9651 0.36052 0.0
C1370 C 0.68657 0.93915 0.34992 0.0
C1371 C 0.68747 0.98605 0.39677 0.0
C1372 C 0.71045 0.98187 0.42306 0.0
C1373 C 0.72204 0.95667 0.41222 0.0
C1374 C 0.70975 0.93508 0.37616 0.0
C1375 C 0.722 0.00388 0.46179 0.0
C1376 C 0.73692 0.04207 0.46436 0.0
C1377 C 0.71803 0.98749 0.49601 0.0
C1378 C 0.69977 0.94706 0.49559 0.0
C1379 C 0.71827 0.93139 0.51274 0.0
C1380 C 0.70105 0.89331 0.51233 0.0
C1381 C 0.66521 0.87065 0.49511 0.0
C1382 C 0.64656 0.88599 0.47814 0.0
C1383 C 0.66365 0.92404 0.47845 0.0
H1384 H 0.65186 0.84121 0.49497 0.0
H1385 H 0.79719 0.20871 0.50466 0.0
loop_
_geom_bond_atom_site_label_1
_geom_bond_atom_site_label_2
_geom_bond_distance
_geom_bond_site_symmetry_2
_ccdc_geom_bond_type
C0 O12 1.241 . S
C0 O13 1.280 . S
C1 O14 1.277 . S
C1 O15 1.245 . S
C2 O26 1.247 . S
C2 O28 1.289 . S
Mg3 O4 1.926 . S
Mg3 O13 1.984 . S
Mg3 O15 1.988 . S
Mg3 O16 2.061 . S
O4 Mg3 1.926 . S
O4 Mg5 1.986 . S
O4 Mg6 1.917 . S
Mg5 O4 1.986 . S
Mg5 O12 2.042 . S
Mg5 O14 2.041 . S
Mg5 O20 2.038 . S
Mg5 O28 2.238 . S
Mg6 O4 1.917 . S
Mg6 O7 1.917 . S
Mg6 O17 2.106 . S
Mg6 O19 2.079 . S
Mg6 O28 2.106 . S
Mg6 O29 2.079 . S
O7 Mg6 1.917 . S
O7 Mg8 1.926 . S
O7 Mg9 1.986 . S
Mg8 O7 1.926 . S
Mg8 O22 1.984 . S
Mg8 O25 1.988 . S
Mg8 O26 2.061 . S
Mg9 O7 1.986 . S
Mg9 O17 2.238 . S
Mg9 O21 2.042 . S
Mg9 O23 2.041 . S
Mg9 O30 2.038 . S
C10 O16 1.247 . S
C10 O17 1.289 . S
C11 O29 1.245 . S
C11 O30 1.274 . S
O12 C0 1.241 . S
O12 Mg5 2.042 . S
O13 C0 1.280 . S
O13 Mg3 1.984 . S
O14 C1 1.277 . S
O14 Mg5 2.041 . S
O15 C1 1.245 . S
O15 Mg3 1.988 . S
O16 Mg3 2.061 . S
O16 C10 1.247 . S
O17 Mg6 2.106 . S
O17 Mg9 2.238 . S
O17 C10 1.289 . S
C18 O19 1.245 . S
C18 O20 1.274 . S
O19 Mg6 2.079 . S
O19 C18 1.245 . S
O20 Mg5 2.038 . S
O20 C18 1.274 . S
O21 Mg9 2.042 . S
O21 C24 1.241 . S
O22 Mg8 1.984 . S
O22 C24 1.280 . S
O23 Mg9 2.041 . S
O23 C27 1.277 . S
C24 O21 1.241 . S
C24 O22 1.280 . S
O25 Mg8 1.988 . S
O25 C27 1.245 . S
O26 C2 1.247 . S
O26 Mg8 2.061 . S
C27 O23 1.277 . S
C27 O25 1.245 . S
O28 C2 1.289 . S
O28 Mg5 2.238 . S
O28 Mg6 2.106 . S
O29 Mg6 2.079 . S
O29 C11 1.245 . S
O30 Mg9 2.038 . S
O30 C11 1.274 . S
C31 O43 1.241 . S
C31 O44 1.280 . S
C32 O45 1.277 . S
C32 O46 1.245 . S
C33 O57 1.247 . S
C33 O59 1.289 . S
Mg34 O35 1.926 . S
Mg34 O44 1.984 . S
Mg34 O46 1.988 . S
Mg34 O47 2.061 . S
O35 Mg34 1.926 . S
O35 Mg36 1.986 . S
O35 Mg37 1.917 . S
Mg36 O35 1.986 . S
Mg36 O43 2.042 . S
Mg36 O45 2.041 . S
Mg36 O51 2.038 . S
Mg36 O59 2.238 . S
Mg37 O35 1.917 . S
Mg37 O38 1.917 . S
Mg37 O48 2.106 . S
Mg37 O50 2.079 . S
Mg37 O59 2.106 . S
Mg37 O60 2.079 . S
O38 Mg37 1.917 . S
O38 Mg39 1.926 . S
O38 Mg40 1.986 . S
Mg39 O38 1.926 . S
Mg39 O53 1.984 . S
Mg39 O56 1.988 . S
Mg39 O57 2.061 . S
Mg40 O38 1.986 . S
Mg40 O48 2.238 . S
Mg40 O52 2.042 . S
Mg40 O54 2.041 . S
Mg40 O61 2.038 . S
C41 O47 1.247 . S
C41 O48 1.289 . S
C42 O60 1.245 . S
C42 O61 1.274 . S
O43 C31 1.241 . S
O43 Mg36 2.042 . S
O44 C31 1.280 . S
O44 Mg34 1.984 . S
O45 C32 1.277 . S
O45 Mg36 2.041 . S
O46 C32 1.245 . S
O46 Mg34 1.988 . S
O47 Mg34 2.061 . S
O47 C41 1.247 . S
O48 Mg37 2.106 . S
O48 Mg40 2.238 . S
O48 C41 1.289 . S
C49 O50 1.245 . S
C49 O51 1.274 . S
O50 Mg37 2.079 . S
O50 C49 1.245 . S
O51 Mg36 2.038 . S
O51 C49 1.274 . S
O52 Mg40 2.042 . S
O52 C55 1.241 . S
O53 Mg39 1.984 . S
O53 C55 1.280 . S
O54 Mg40 2.041 . S
O54 C58 1.277 . S
C55 O52 1.241 . S
C55 O53 1.280 . S
O56 Mg39 1.988 . S
O56 C58 1.245 . S
O57 C33 1.247 . S
O57 Mg39 2.061 . S
C58 O54 1.277 . S
C58 O56 1.245 . S
O59 C33 1.289 . S
O59 Mg36 2.238 . S
O59 Mg37 2.106 . S
O60 Mg37 2.079 . S
O60 C42 1.245 . S
O61 Mg40 2.038 . S
O61 C42 1.274 . S
C62 O74 1.241 . S
C62 O75 1.280 . S
C63 O76 1.277 . S
C63 O77 1.245 . S
C64 O88 1.247 . S
C64 O90 1.289 . S
Mg65 O66 1.926 . S
Mg65 O75 1.984 . S
Mg65 O77 1.988 . S
Mg65 O78 2.061 . S
O66 Mg65 1.926 . S
O66 Mg67 1.986 . S
O66 Mg68 1.917 . S
Mg67 O66 1.986 . S
Mg67 O74 2.042 . S
Mg67 O76 2.041 . S
Mg67 O82 2.038 . S
Mg67 O90 2.238 . S
Mg68 O66 1.917 . S
Mg68 O69 1.917 . S
Mg68 O79 2.106 . S
Mg68 O81 2.079 . S
Mg68 O90 2.106 . S
Mg68 O91 2.079 . S
O69 Mg68 1.917 . S
O69 Mg70 1.926 . S
O69 Mg71 1.986 . S
Mg70 O69 1.926 . S
Mg70 O84 1.984 . S
Mg70 O87 1.988 . S
Mg70 O88 2.061 . S
Mg71 O69 1.986 . S
Mg71 O79 2.238 . S
Mg71 O83 2.042 . S
Mg71 O85 2.041 . S
Mg71 O92 2.038 . S
C72 O78 1.247 . S
C72 O79 1.289 . S
C73 O91 1.245 . S
C73 O92 1.274 . S
O74 C62 1.241 . S
O74 Mg67 2.042 . S
O75 C62 1.280 . S
O75 Mg65 1.984 . S
O76 C63 1.277 . S
O76 Mg67 2.041 . S
O77 C63 1.245 . S
O77 Mg65 1.988 . S
O78 Mg65 2.061 . S
O78 C72 1.247 . S
O79 Mg68 2.106 . S
O79 Mg71 2.238 . S
O79 C72 1.289 . S
C80 O81 1.245 . S
C80 O82 1.274 . S
O81 Mg68 2.079 . S
O81 C80 1.245 . S
O82 Mg67 2.038 . S
O82 C80 1.274 . S
O83 Mg71 2.042 . S
O83 C86 1.241 . S
O84 Mg70 1.984 . S
O84 C86 1.280 . S
O85 Mg71 2.041 . S
O85 C89 1.277 . S
C86 O83 1.241 . S
C86 O84 1.280 . S
O87 Mg70 1.988 . S
O87 C89 1.245 . S
O88 C64 1.247 . S
O88 Mg70 2.061 . S
C89 O85 1.277 . S
C89 O87 1.245 . S
O90 C64 1.289 . S
O90 Mg67 2.238 . S
O90 Mg68 2.106 . S
O91 Mg68 2.079 . S
O91 C73 1.245 . S
O92 Mg71 2.038 . S
O92 C73 1.274 . S
C93 O105 1.241 . S
C93 O106 1.280 . S
C94 O107 1.277 . S
C94 O108 1.245 . S
C95 O119 1.247 . S
C95 O121 1.289 . S
Mg96 O97 1.926 . S
Mg96 O106 1.984 . S
Mg96 O108 1.988 . S
Mg96 O109 2.061 . S
O97 Mg96 1.926 . S
O97 Mg98 1.986 . S
O97 Mg99 1.917 . S
Mg98 O97 1.986 . S
Mg98 O105 2.042 . S
Mg98 O107 2.041 . S
Mg98 O113 2.038 . S
Mg98 O121 2.238 . S
Mg99 O97 1.917 . S
Mg99 O100 1.917 . S
Mg99 O110 2.106 . S
Mg99 O112 2.079 . S
Mg99 O121 2.106 . S
Mg99 O122 2.079 . S
O100 Mg99 1.917 . S
O100 Mg101 1.926 . S
O100 Mg102 1.986 . S
Mg101 O100 1.926 . S
Mg101 O115 1.984 . S
Mg101 O118 1.988 . S
Mg101 O119 2.061 . S
Mg102 O100 1.986 . S
Mg102 O110 2.238 . S
Mg102 O114 2.042 . S
Mg102 O116 2.041 . S
Mg102 O123 2.038 . S
C103 O109 1.247 . S
C103 O110 1.289 . S
C104 O122 1.245 . S
C104 O123 1.274 . S
O105 C93 1.241 . S
O105 Mg98 2.042 . S
O106 C93 1.280 . S
O106 Mg96 1.984 . S
O107 C94 1.277 . S
O107 Mg98 2.041 . S
O108 C94 1.245 . S
O108 Mg96 1.988 . S
O109 Mg96 2.061 . S
O109 C103 1.247 . S
O110 Mg99 2.106 . S
O110 Mg102 2.238 . S
O110 C103 1.289 . S
C111 O112 1.245 . S
C111 O113 1.274 . S
O112 Mg99 2.079 . S
O112 C111 1.245 . S
O113 Mg98 2.038 . S
O113 C111 1.274 . S
O114 Mg102 2.042 . S
O114 C117 1.241 . S
O115 Mg101 1.984 . S
O115 C117 1.280 . S
O116 Mg102 2.041 . S
O116 C120 1.277 . S
C117 O114 1.241 . S
C117 O115 1.280 . S
O118 Mg101 1.988 . S
O118 C120 1.245 . S
O119 C95 1.247 . S
O119 Mg101 2.061 . S
C120 O116 1.277 . S
C120 O118 1.245 . S
O121 C95 1.289 . S
O121 Mg98 2.238 . S
O121 Mg99 2.106 . S
O122 Mg99 2.079 . S
O122 C104 1.245 . S
O123 Mg102 2.038 . S
O123 C104 1.274 . S
C124 O136 1.241 . S
C124 O137 1.280 . S
C125 O138 1.277 . S
C125 O139 1.245 . S
C126 O150 1.247 . S
C126 O152 1.289 . S
Mg127 O128 1.926 . S
Mg127 O137 1.984 . S
Mg127 O139 1.988 . S
Mg127 O140 2.061 . S
O128 Mg127 1.926 . S
O128 Mg129 1.986 . S
O128 Mg130 1.917 . S
Mg129 O128 1.986 . S
Mg129 O136 2.042 . S
Mg129 O138 2.041 . S
Mg129 O144 2.038 . S
Mg129 O152 2.238 . S
Mg130 O128 1.917 . S
Mg130 O131 1.917 . S
Mg130 O141 2.106 . S
Mg130 O143 2.079 . S
Mg130 O152 2.106 . S
Mg130 O153 2.079 . S
O131 Mg130 1.917 . S
O131 Mg132 1.926 . S
O131 Mg133 1.986 . S
Mg132 O131 1.926 . S
Mg132 O146 1.984 . S
Mg132 O149 1.988 . S
Mg132 O150 2.061 . S
Mg133 O131 1.986 . S
Mg133 O141 2.238 . S
Mg133 O145 2.042 . S
Mg133 O147 2.041 . S
Mg133 O154 2.038 . S
C134 O140 1.247 . S
C134 O141 1.289 . S
C135 O153 1.245 . S
C135 O154 1.274 . S
O136 C124 1.241 . S
O136 Mg129 2.042 . S
O137 C124 1.280 . S
O137 Mg127 1.984 . S
O138 C125 1.277 . S
O138 Mg129 2.041 . S
O139 C125 1.245 . S
O139 Mg127 1.988 . S
O140 Mg127 2.061 . S
O140 C134 1.247 . S
O141 Mg130 2.106 . S
O141 Mg133 2.238 . S
O141 C134 1.289 . S
C142 O143 1.245 . S
C142 O144 1.274 . S
O143 Mg130 2.079 . S
O143 C142 1.245 . S
O144 Mg129 2.038 . S
O144 C142 1.274 . S
O145 Mg133 2.042 . S
O145 C148 1.241 . S
O146 Mg132 1.984 . S
O146 C148 1.280 . S
O147 Mg133 2.041 . S
O147 C151 1.277 . S
C148 O145 1.241 . S
C148 O146 1.280 . S
O149 Mg132 1.988 . S
O149 C151 1.245 . S
O150 C126 1.247 . S
O150 Mg132 2.061 . S
C151 O147 1.277 . S
C151 O149 1.245 . S
O152 C126 1.289 . S
O152 Mg129 2.238 . S
O152 Mg130 2.106 . S
O153 Mg130 2.079 . S
O153 C135 1.245 . S
O154 Mg133 2.038 . S
O154 C135 1.274 . S
C155 O167 1.241 . S
C155 O168 1.280 . S
C156 O169 1.277 . S
C156 O170 1.245 . S
C157 O181 1.247 . S
C157 O183 1.289 . S
Mg158 O159 1.926 . S
Mg158 O168 1.984 . S
Mg158 O170 1.988 . S
Mg158 O171 2.061 . S
O159 Mg158 1.926 . S
O159 Mg160 1.986 . S
O159 Mg161 1.917 . S
Mg160 O159 1.986 . S
Mg160 O167 2.042 . S
Mg160 O169 2.041 . S
Mg160 O175 2.038 . S
Mg160 O183 2.238 . S
Mg161 O159 1.917 . S
Mg161 O162 1.917 . S
Mg161 O172 2.106 . S
Mg161 O174 2.079 . S
Mg161 O183 2.106 . S
Mg161 O184 2.079 . S
O162 Mg161 1.917 . S
O162 Mg163 1.926 . S
O162 Mg164 1.986 . S
Mg163 O162 1.926 . S
Mg163 O177 1.984 . S
Mg163 O180 1.988 . S
Mg163 O181 2.061 . S
Mg164 O162 1.986 . S
Mg164 O172 2.238 . S
Mg164 O176 2.042 . S
Mg164 O178 2.041 . S
Mg164 O185 2.038 . S
C165 O171 1.247 . S
C165 O172 1.289 . S
C166 O184 1.245 . S
C166 O185 1.274 . S
O167 C155 1.241 . S
O167 Mg160 2.042 . S
O168 C155 1.280 . S
O168 Mg158 1.984 . S
O169 C156 1.277 . S
O169 Mg160 2.041 . S
O170 C156 1.245 . S
O170 Mg158 1.988 . S
O171 Mg158 2.061 . S
O171 C165 1.247 . S
O172 Mg161 2.106 . S
O172 Mg164 2.238 . S
O172 C165 1.289 . S
C173 O174 1.245 . S
C173 O175 1.274 . S
O174 Mg161 2.079 . S
O174 C173 1.245 . S
O175 Mg160 2.038 . S
O175 C173 1.274 . S
O176 Mg164 2.042 . S
O176 C179 1.241 . S
O177 Mg163 1.984 . S
O177 C179 1.280 . S
O178 Mg164 2.041 . S
O178 C182 1.277 . S
C179 O176 1.241 . S
C179 O177 1.280 . S
O180 Mg163 1.988 . S
O180 C182 1.245 . S
O181 C157 1.247 . S
O181 Mg163 2.061 . S
C182 O178 1.277 . S
C182 O180 1.245 . S
O183 C157 1.289 . S
O183 Mg160 2.238 . S
O183 Mg161 2.106 . S
O184 Mg161 2.079 . S
O184 C166 1.245 . S
O185 Mg164 2.038 . S
O185 C166 1.274 . S
H186 C204 0.951 . S
H187 C206 0.951 . S
H188 C208 0.950 . S
H189 C209 0.950 . S
H190 C211 0.950 . S
H191 C214 0.950 . S
H192 C215 0.950 . S
H193 C217 0.950 . S
H194 C218 0.950 . S
H195 C219 0.951 . S
H196 C221 0.951 . S
H197 C223 0.950 . S
H198 C224 0.950 . S
H199 C226 0.950 . S
H200 C229 0.950 . S
H201 C230 0.950 . S
H202 C232 0.950 . S
H203 C233 0.950 . S
C204 H186 0.951 . S
C204 C205 1.366 . S
C204 C206 1.388 . S
C205 C204 1.366 . S
C205 C209 1.385 . S
C206 H187 0.951 . S
C206 C204 1.388 . S
C206 C207 1.366 . S
C207 C206 1.366 . S
C207 C208 1.414 . S
C207 C210 1.499 . S
C208 H188 0.950 . S
C208 C207 1.414 . S
C208 C209 1.374 . S
C209 H189 0.950 . S
C209 C205 1.385 . S
C209 C208 1.374 . S
C210 C207 1.499 . S
C210 C211 1.373 . S
C210 C212 1.389 . S
C211 H190 0.950 . S
C211 C210 1.373 . S
C211 C227 1.377 . S
C212 C210 1.389 . S
C212 C213 1.524 . S
C212 C226 1.377 . S
C213 C212 1.524 . S
C213 C214 1.397 . S
C213 C218 1.363 . S
C214 H191 0.950 . S
C214 C213 1.397 . S
C214 C215 1.334 . S
C215 H192 0.950 . S
C215 C214 1.334 . S
C215 C216 1.287 . S
C216 C215 1.287 . S
C216 C217 1.524 . S
C216 H235 0.913 . S
C217 H193 0.950 . S
C217 C216 1.524 . S
C217 C218 1.415 . S
C218 H194 0.950 . S
C218 C213 1.363 . S
C218 C217 1.415 . S
C219 H195 0.951 . S
C219 C220 1.366 . S
C219 C221 1.388 . S
C220 C219 1.366 . S
C220 C224 1.385 . S
C221 H196 0.951 . S
C221 C219 1.388 . S
C221 C222 1.366 . S
C222 C221 1.366 . S
C222 C223 1.414 . S
C222 C225 1.499 . S
C223 H197 0.950 . S
C223 C222 1.414 . S
C223 C224 1.374 . S
C224 H198 0.950 . S
C224 C220 1.385 . S
C224 C223 1.374 . S
C225 C222 1.499 . S
C225 C226 1.373 . S
C225 C227 1.389 . S
C226 H199 0.950 . S
C226 C212 1.377 . S
C226 C225 1.373 . S
C227 C211 1.377 . S
C227 C225 1.389 . S
C227 C228 1.524 . S
C228 C227 1.524 . S
C228 C229 1.397 . S
C228 C233 1.363 . S
C229 H200 0.950 . S
C229 C228 1.397 . S
C229 C230 1.334 . S
C230 H201 0.950 . S
C230 C229 1.334 . S
C230 C231 1.287 . S
C231 C230 1.287 . S
C231 C232 1.524 . S
C231 H234 0.999 . S
C232 H202 0.950 . S
C232 C231 1.524 . S
C232 C233 1.415 . S
C233 H203 0.950 . S
C233 C228 1.363 . S
C233 C232 1.415 . S
H234 C231 0.999 . S
H235 C216 0.913 . S
H236 C254 0.951 . S
H237 C256 0.951 . S
H238 C258 0.950 . S
H239 C259 0.950 . S
H240 C261 0.950 . S
H241 C264 0.950 . S
H242 C265 0.950 . S
H243 C267 0.950 . S
H244 C268 0.950 . S
H245 C269 0.951 . S
H246 C271 0.951 . S
H247 C273 0.950 . S
H248 C274 0.950 . S
H249 C276 0.950 . S
H250 C279 0.950 . S
H251 C280 0.950 . S
H252 C282 0.950 . S
H253 C283 0.950 . S
C254 H236 0.951 . S
C254 C255 1.366 . S
C254 C256 1.388 . S
C255 C254 1.366 . S
C255 C259 1.385 . S
C256 H237 0.951 . S
C256 C254 1.388 . S
C256 C257 1.366 . S
C257 C256 1.366 . S
C257 C258 1.414 . S
C257 C260 1.499 . S
C258 H238 0.950 . S
C258 C257 1.414 . S
C258 C259 1.374 . S
C259 H239 0.950 . S
C259 C255 1.385 . S
C259 C258 1.374 . S
C260 C257 1.499 . S
C260 C261 1.373 . S
C260 C262 1.389 . S
C261 H240 0.950 . S
C261 C260 1.373 . S
C261 C277 1.377 . S
C262 C260 1.389 . S
C262 C263 1.524 . S
C262 C276 1.377 . S
C263 C262 1.524 . S
C263 C264 1.397 . S
C263 C268 1.363 . S
C264 H241 0.950 . S
C264 C263 1.397 . S
C264 C265 1.334 . S
C265 H242 0.950 . S
C265 C264 1.334 . S
C265 C266 1.287 . S
C266 C265 1.287 . S
C266 C267 1.524 . S
C266 H285 0.913 . S
C267 H243 0.950 . S
C267 C266 1.524 . S
C267 C268 1.415 . S
C268 H244 0.950 . S
C268 C263 1.363 . S
C268 C267 1.415 . S
C269 H245 0.951 . S
C269 C270 1.366 . S
C269 C271 1.388 . S
C270 C269 1.366 . S
C270 C274 1.385 . S
C271 H246 0.951 . S
C271 C269 1.388 . S
C271 C272 1.366 . S
C272 C271 1.366 . S
C272 C273 1.414 . S
C272 C275 1.499 . S
C273 H247 0.950 . S
C273 C272 1.414 . S
C273 C274 1.374 . S
C274 H248 0.950 . S
C274 C270 1.385 . S
C274 C273 1.374 . S
C275 C272 1.499 . S
C275 C276 1.373 . S
C275 C277 1.389 . S
C276 H249 0.950 . S
C276 C262 1.377 . S
C276 C275 1.373 . S
C277 C261 1.377 . S
C277 C275 1.389 . S
C277 C278 1.524 . S
C278 C277 1.524 . S
C278 C279 1.397 . S
C278 C283 1.363 . S
C279 H250 0.950 . S
C279 C278 1.397 . S
C279 C280 1.334 . S
C280 H251 0.950 . S
C280 C279 1.334 . S
C280 C281 1.287 . S
C281 C280 1.287 . S
C281 C282 1.524 . S
C281 H284 0.999 . S
C282 H252 0.950 . S
C282 C281 1.524 . S
C282 C283 1.415 . S
C283 H253 0.950 . S
C283 C278 1.363 . S
C283 C282 1.415 . S
H284 C281 0.999 . S
H285 C266 0.913 . S
H286 C304 0.951 . S
H287 C306 0.951 . S
H288 C308 0.950 . S
H289 C309 0.950 . S
H290 C311 0.950 . S
H291 C314 0.950 . S
H292 C315 0.950 . S
H293 C317 0.950 . S
H294 C318 0.950 . S
H295 C319 0.951 . S
H296 C321 0.951 . S
H297 C323 0.950 . S
H298 C324 0.950 . S
H299 C326 0.950 . S
H300 C329 0.950 . S
H301 C330 0.950 . S
H302 C332 0.950 . S
H303 C333 0.950 . S
C304 H286 0.951 . S
C304 C305 1.366 . S
C304 C306 1.388 . S
C305 C304 1.366 . S
C305 C309 1.385 . S
C306 H287 0.951 . S
C306 C304 1.388 . S
C306 C307 1.366 . S
C307 C306 1.366 . S
C307 C308 1.414 . S
C307 C310 1.499 . S
C308 H288 0.950 . S
C308 C307 1.414 . S
C308 C309 1.374 . S
C309 H289 0.950 . S
C309 C305 1.385 . S
C309 C308 1.374 . S
C310 C307 1.499 . S
C310 C311 1.373 . S
C310 C312 1.389 . S
C311 H290 0.950 . S
C311 C310 1.373 . S
C311 C327 1.377 . S
C312 C310 1.389 . S
C312 C313 1.524 . S
C312 C326 1.377 . S
C313 C312 1.524 . S
C313 C314 1.397 . S
C313 C318 1.363 . S
C314 H291 0.950 . S
C314 C313 1.397 . S
C314 C315 1.334 . S
C315 H292 0.950 . S
C315 C314 1.334 . S
C315 C316 1.287 . S
C316 C315 1.287 . S
C316 C317 1.524 . S
C316 H335 0.913 . S
C317 H293 0.950 . S
C317 C316 1.524 . S
C317 C318 1.415 . S
C318 H294 0.950 . S
C318 C313 1.363 . S
C318 C317 1.415 . S
C319 H295 0.951 . S
C319 C320 1.366 . S
C319 C321 1.388 . S
C320 C319 1.366 . S
C320 C324 1.385 . S
C321 H296 0.951 . S
C321 C319 1.388 . S
C321 C322 1.366 . S
C322 C321 1.366 . S
C322 C323 1.414 . S
C322 C325 1.499 . S
C323 H297 0.950 . S
C323 C322 1.414 . S
C323 C324 1.374 . S
C324 H298 0.950 . S
C324 C320 1.385 . S
C324 C323 1.374 . S
C325 C322 1.499 . S
C325 C326 1.373 . S
C325 C327 1.389 . S
C326 H299 0.950 . S
C326 C312 1.377 . S
C326 C325 1.373 . S
C327 C311 1.377 . S
C327 C325 1.389 . S
C327 C328 1.524 . S
C328 C327 1.524 . S
C328 C329 1.397 . S
C328 C333 1.363 . S
C329 H300 0.950 . S
C329 C328 1.397 . S
C329 C330 1.334 . S
C330 H301 0.950 . S
C330 C329 1.334 . S
C330 C331 1.287 . S
C331 C330 1.287 . S
C331 C332 1.524 . S
C331 H334 0.999 . S
C332 H302 0.950 . S
C332 C331 1.524 . S
C332 C333 1.415 . S
C333 H303 0.950 . S
C333 C328 1.363 . S
C333 C332 1.415 . S
H334 C331 0.999 . S
H335 C316 0.913 . S
H336 C354 0.951 . S
H337 C356 0.951 . S
H338 C358 0.950 . S
H339 C359 0.950 . S
H340 C361 0.950 . S
H341 C364 0.950 . S
H342 C365 0.950 . S
H343 C367 0.950 . S
H344 C368 0.950 . S
H345 C369 0.951 . S
H346 C371 0.951 . S
H347 C373 0.950 . S
H348 C374 0.950 . S
H349 C376 0.950 . S
H350 C379 0.950 . S
H351 C380 0.950 . S
H352 C382 0.950 . S
H353 C383 0.950 . S
C354 H336 0.951 . S
C354 C355 1.366 . S
C354 C356 1.388 . S
C355 C354 1.366 . S
C355 C359 1.385 . S
C356 H337 0.951 . S
C356 C354 1.388 . S
C356 C357 1.366 . S
C357 C356 1.366 . S
C357 C358 1.414 . S
C357 C360 1.499 . S
C358 H338 0.950 . S
C358 C357 1.414 . S
C358 C359 1.374 . S
C359 H339 0.950 . S
C359 C355 1.385 . S
C359 C358 1.374 . S
C360 C357 1.499 . S
C360 C361 1.373 . S
C360 C362 1.389 . S
C361 H340 0.950 . S
C361 C360 1.373 . S
C361 C377 1.377 . S
C362 C360 1.389 . S
C362 C363 1.524 . S
C362 C376 1.377 . S
C363 C362 1.524 . S
C363 C364 1.397 . S
C363 C368 1.363 . S
C364 H341 0.950 . S
C364 C363 1.397 . S
C364 C365 1.334 . S
C365 H342 0.950 . S
C365 C364 1.334 . S
C365 C366 1.287 . S
C366 C365 1.287 . S
C366 C367 1.524 . S
C366 H385 0.913 . S
C367 H343 0.950 . S
C367 C366 1.524 . S
C367 C368 1.415 . S
C368 H344 0.950 . S
C368 C363 1.363 . S
C368 C367 1.415 . S
C369 H345 0.951 . S
C369 C370 1.366 . S
C369 C371 1.388 . S
C370 C369 1.366 . S
C370 C374 1.385 . S
C371 H346 0.951 . S
C371 C369 1.388 . S
C371 C372 1.366 . S
C372 C371 1.366 . S
C372 C373 1.414 . S
C372 C375 1.499 . S
C373 H347 0.950 . S
C373 C372 1.414 . S
C373 C374 1.374 . S
C374 H348 0.950 . S
C374 C370 1.385 . S
C374 C373 1.374 . S
C375 C372 1.499 . S
C375 C376 1.373 . S
C375 C377 1.389 . S
C376 H349 0.950 . S
C376 C362 1.377 . S
C376 C375 1.373 . S
C377 C361 1.377 . S
C377 C375 1.389 . S
C377 C378 1.524 . S
C378 C377 1.524 . S
C378 C379 1.397 . S
C378 C383 1.363 . S
C379 H350 0.950 . S
C379 C378 1.397 . S
C379 C380 1.334 . S
C380 H351 0.950 . S
C380 C379 1.334 . S
C380 C381 1.287 . S
C381 C380 1.287 . S
C381 C382 1.524 . S
C381 H384 0.999 . S
C382 H352 0.950 . S
C382 C381 1.524 . S
C382 C383 1.415 . S
C383 H353 0.950 . S
C383 C378 1.363 . S
C383 C382 1.415 . S
H384 C381 0.999 . S
H385 C366 0.913 . S
H386 C404 0.951 . S
H387 C406 0.951 . S
H388 C408 0.950 . S
H389 C409 0.950 . S
H390 C411 0.950 . S
H391 C414 0.950 . S
H392 C415 0.950 . S
H393 C417 0.950 . S
H394 C418 0.950 . S
H395 C419 0.951 . S
H396 C421 0.951 . S
H397 C423 0.950 . S
H398 C424 0.950 . S
H399 C426 0.950 . S
H400 C429 0.950 . S
H401 C430 0.950 . S
H402 C432 0.950 . S
H403 C433 0.950 . S
C404 H386 0.951 . S
C404 C405 1.366 . S
C404 C406 1.388 . S
C405 C404 1.366 . S
C405 C409 1.385 . S
C406 H387 0.951 . S
C406 C404 1.388 . S
C406 C407 1.366 . S
C407 C406 1.366 . S
C407 C408 1.414 . S
C407 C410 1.499 . S
C408 H388 0.950 . S
C408 C407 1.414 . S
C408 C409 1.374 . S
C409 H389 0.950 . S
C409 C405 1.385 . S
C409 C408 1.374 . S
C410 C407 1.499 . S
C410 C411 1.373 . S
C410 C412 1.389 . S
C411 H390 0.950 . S
C411 C410 1.373 . S
C411 C427 1.377 . S
C412 C410 1.389 . S
C412 C413 1.524 . S
C412 C426 1.377 . S
C413 C412 1.524 . S
C413 C414 1.397 . S
C413 C418 1.363 . S
C414 H391 0.950 . S
C414 C413 1.397 . S
C414 C415 1.334 . S
C415 H392 0.950 . S
C415 C414 1.334 . S
C415 C416 1.287 . S
C416 C415 1.287 . S
C416 C417 1.524 . S
C416 H435 0.916 . S
C417 H393 0.950 . S
C417 C416 1.524 . S
C417 C418 1.415 . S
C418 H394 0.950 . S
C418 C413 1.363 . S
C418 C417 1.415 . S
C419 H395 0.951 . S
C419 C420 1.366 . S
C419 C421 1.388 . S
C420 C419 1.366 . S
C420 C424 1.385 . S
C421 H396 0.951 . S
C421 C419 1.388 . S
C421 C422 1.366 . S
C422 C421 1.366 . S
C422 C423 1.414 . S
C422 C425 1.499 . S
C423 H397 0.950 . S
C423 C422 1.414 . S
C423 C424 1.374 . S
C424 H398 0.950 . S
C424 C420 1.385 . S
C424 C423 1.374 . S
C425 C422 1.499 . S
C425 C426 1.373 . S
C425 C427 1.389 . S
C426 H399 0.950 . S
C426 C412 1.377 . S
C426 C425 1.373 . S
C427 C411 1.377 . S
C427 C425 1.389 . S
C427 C428 1.524 . S
C428 C427 1.524 . S
C428 C429 1.397 . S
C428 C433 1.363 . S
C429 H400 0.950 . S
C429 C428 1.397 . S
C429 C430 1.334 . S
C430 H401 0.950 . S
C430 C429 1.334 . S
C430 C431 1.287 . S
C431 C430 1.287 . S
C431 C432 1.524 . S
C431 H434 0.999 . S
C432 H402 0.950 . S
C432 C431 1.524 . S
C432 C433 1.415 . S
C433 H403 0.950 . S
C433 C428 1.363 . S
C433 C432 1.415 . S
H434 C431 0.999 . S
H435 C416 0.916 . S
H436 C454 0.951 . S
H437 C456 0.951 . S
H438 C458 0.950 . S
H439 C459 0.950 . S
H440 C461 0.950 . S
H441 C464 0.950 . S
H442 C465 0.950 . S
H443 C467 0.950 . S
H444 C468 0.950 . S
H445 C469 0.951 . S
H446 C471 0.951 . S
H447 C473 0.950 . S
H448 C474 0.950 . S
H449 C476 0.950 . S
H450 C479 0.950 . S
H451 C480 0.950 . S
H452 C482 0.950 . S
H453 C483 0.950 . S
C454 H436 0.951 . S
C454 C455 1.366 . S
C454 C456 1.388 . S
C455 C454 1.366 . S
C455 C459 1.385 . S
C456 H437 0.951 . S
C456 C454 1.388 . S
C456 C457 1.366 . S
C457 C456 1.366 . S
C457 C458 1.414 . S
C457 C460 1.499 . S
C458 H438 0.950 . S
C458 C457 1.414 . S
C458 C459 1.374 . S
C459 H439 0.950 . S
C459 C455 1.385 . S
C459 C458 1.374 . S
C460 C457 1.499 . S
C460 C461 1.373 . S
C460 C462 1.389 . S
C461 H440 0.950 . S
C461 C460 1.373 . S
C461 C477 1.377 . S
C462 C460 1.389 . S
C462 C463 1.524 . S
C462 C476 1.377 . S
C463 C462 1.524 . S
C463 C464 1.397 . S
C463 C468 1.363 . S
C464 H441 0.950 . S
C464 C463 1.397 . S
C464 C465 1.334 . S
C465 H442 0.950 . S
C465 C464 1.334 . S
C465 C466 1.287 . S
C466 C465 1.287 . S
C466 C467 1.524 . S
C466 H485 0.913 . S
C467 H443 0.950 . S
C467 C466 1.524 . S
C467 C468 1.415 . S
C468 H444 0.950 . S
C468 C463 1.363 . S
C468 C467 1.415 . S
C469 H445 0.951 . S
C469 C470 1.366 . S
C469 C471 1.388 . S
C470 C469 1.366 . S
C470 C474 1.385 . S
C471 H446 0.951 . S
C471 C469 1.388 . S
C471 C472 1.366 . S
C472 C471 1.366 . S
C472 C473 1.414 . S
C472 C475 1.499 . S
C473 H447 0.950 . S
C473 C472 1.414 . S
C473 C474 1.374 . S
C474 H448 0.950 . S
C474 C470 1.385 . S
C474 C473 1.374 . S
C475 C472 1.499 . S
C475 C476 1.373 . S
C475 C477 1.389 . S
C476 H449 0.950 . S
C476 C462 1.377 . S
C476 C475 1.373 . S
C477 C461 1.377 . S
C477 C475 1.389 . S
C477 C478 1.524 . S
C478 C477 1.524 . S
C478 C479 1.397 . S
C478 C483 1.363 . S
C479 H450 0.950 . S
C479 C478 1.397 . S
C479 C480 1.334 . S
C480 H451 0.950 . S
C480 C479 1.334 . S
C480 C481 1.287 . S
C481 C480 1.287 . S
C481 C482 1.524 . S
C481 H484 0.999 . S
C482 H452 0.950 . S
C482 C481 1.524 . S
C482 C483 1.415 . S
C483 H453 0.950 . S
C483 C478 1.363 . S
C483 C482 1.415 . S
H484 C481 0.999 . S
H485 C466 0.913 . S
H486 C504 0.951 . S
H487 C506 0.951 . S
H488 C508 0.950 . S
H489 C509 0.950 . S
H490 C511 0.950 . S
H491 C514 0.950 . S
H492 C515 0.950 . S
H493 C517 0.950 . S
H494 C518 0.950 . S
H495 C519 0.951 . S
H496 C521 0.951 . S
H497 C523 0.950 . S
H498 C524 0.950 . S
H499 C526 0.950 . S
H500 C529 0.950 . S
H501 C530 0.950 . S
H502 C532 0.950 . S
H503 C533 0.950 . S
C504 H486 0.951 . S
C504 C505 1.366 . S
C504 C506 1.388 . S
C505 C504 1.366 . S
C505 C509 1.385 . S
C506 H487 0.951 . S
C506 C504 1.388 . S
C506 C507 1.366 . S
C507 C506 1.366 . S
C507 C508 1.414 . S
C507 C510 1.499 . S
C508 H488 0.950 . S
C508 C507 1.414 . S
C508 C509 1.374 . S
C509 H489 0.950 . S
C509 C505 1.385 . S
C509 C508 1.374 . S
C510 C507 1.499 . S
C510 C511 1.373 . S
C510 C512 1.389 . S
C511 H490 0.950 . S
C511 C510 1.373 . S
C511 C527 1.377 . S
C512 C510 1.389 . S
C512 C513 1.524 . S
C512 C526 1.377 . S
C513 C512 1.524 . S
C513 C514 1.397 . S
C513 C518 1.363 . S
C514 H491 0.950 . S
C514 C513 1.397 . S
C514 C515 1.334 . S
C515 H492 0.950 . S
C515 C514 1.334 . S
C515 C516 1.287 . S
C516 C515 1.287 . S
C516 C517 1.524 . S
C516 H535 0.913 . S
C517 H493 0.950 . S
C517 C516 1.524 . S
C517 C518 1.415 . S
C518 H494 0.950 . S
C518 C513 1.363 . S
C518 C517 1.415 . S
C519 H495 0.951 . S
C519 C520 1.366 . S
C519 C521 1.388 1_565 S
C520 C519 1.366 . S
C520 C524 1.385 1_565 S
C521 H496 0.951 . S
C521 C519 1.388 1_545 S
C521 C522 1.366 . S
C522 C521 1.366 . S
C522 C523 1.414 . S
C522 C525 1.499 . S
C523 H497 0.950 . S
C523 C522 1.414 . S
C523 C524 1.374 . S
C524 H498 0.950 . S
C524 C520 1.385 1_545 S
C524 C523 1.374 . S
C525 C522 1.499 . S
C525 C526 1.373 . S
C525 C527 1.389 . S
C526 H499 0.950 . S
C526 C512 1.377 . S
C526 C525 1.373 . S
C527 C511 1.377 . S
C527 C525 1.389 . S
C527 C528 1.524 . S
C528 C527 1.524 . S
C528 C529 1.397 . S
C528 C533 1.363 . S
C529 H500 0.950 . S
C529 C528 1.397 . S
C529 C530 1.334 . S
C530 H501 0.950 . S
C530 C529 1.334 . S
C530 C531 1.287 . S
C531 C530 1.287 . S
C531 C532 1.524 . S
C531 H534 0.999 . S
C532 H502 0.950 . S
C532 C531 1.524 . S
C532 C533 1.415 . S
C533 H503 0.950 . S
C533 C528 1.363 . S
C533 C532 1.415 . S
H534 C531 0.999 . S
H535 C516 0.913 . S
H536 C554 0.951 . S
H537 C556 0.951 . S
H538 C558 0.950 . S
H539 C559 0.950 . S
H540 C561 0.950 . S
H541 C564 0.950 . S
H542 C565 0.950 . S
H543 C567 0.950 . S
H544 C568 0.950 1_455 S
H545 C569 0.951 . S
H546 C571 0.951 . S
H547 C573 0.950 . S
H548 C574 0.950 . S
H549 C576 0.950 . S
H550 C579 0.950 . S
H551 C580 0.950 . S
H552 C582 0.950 . S
H553 C583 0.950 . S
C554 H536 0.951 . S
C554 C555 1.366 . S
C554 C556 1.388 . S
C555 C554 1.366 . S
C555 C559 1.385 . S
C556 H537 0.951 . S
C556 C554 1.388 . S
C556 C557 1.366 . S
C557 C556 1.366 . S
C557 C558 1.414 . S
C557 C560 1.499 1_655 S
C558 H538 0.950 . S
C558 C557 1.414 . S
C558 C559 1.374 . S
C559 H539 0.950 . S
C559 C555 1.385 . S
C559 C558 1.374 . S
C560 C557 1.499 1_455 S
C560 C561 1.373 . S
C560 C562 1.389 . S
C561 H540 0.950 . S
C561 C560 1.373 . S
C561 C577 1.377 . S
C562 C560 1.389 . S
C562 C563 1.524 1_455 S
C562 C576 1.377 . S
C563 C562 1.524 1_655 S
C563 C564 1.397 . S
C563 C568 1.363 . S
C564 H541 0.950 . S
C564 C563 1.397 . S
C564 C565 1.334 . S
C565 H542 0.950 . S
C565 C564 1.334 . S
C565 C566 1.287 . S
C566 C565 1.287 . S
C566 C567 1.524 . S
C566 H585 0.913 . S
C567 H543 0.950 . S
C567 C566 1.524 . S
C567 C568 1.415 . S
C568 H544 0.950 1_655 S
C568 C563 1.363 . S
C568 C567 1.415 . S
C569 H545 0.951 . S
C569 C570 1.366 . S
C569 C571 1.388 . S
C570 C569 1.366 . S
C570 C574 1.385 . S
C571 H546 0.951 . S
C571 C569 1.388 . S
C571 C572 1.366 . S
C572 C571 1.366 . S
C572 C573 1.414 . S
C572 C575 1.499 . S
C573 H547 0.950 . S
C573 C572 1.414 . S
C573 C574 1.374 . S
C574 H548 0.950 . S
C574 C570 1.385 . S
C574 C573 1.374 . S
C575 C572 1.499 . S
C575 C576 1.373 . S
C575 C577 1.389 . S
C576 H549 0.950 . S
C576 C562 1.377 . S
C576 C575 1.373 . S
C577 C561 1.377 . S
C577 C575 1.389 . S
C577 C578 1.524 . S
C578 C577 1.524 . S
C578 C579 1.397 . S
C578 C583 1.363 . S
C579 H550 0.950 . S
C579 C578 1.397 . S
C579 C580 1.334 . S
C580 H551 0.950 . S
C580 C579 1.334 . S
C580 C581 1.287 . S
C581 C580 1.287 . S
C581 C582 1.524 . S
C581 H584 0.999 . S
C582 H552 0.950 . S
C582 C581 1.524 . S
C582 C583 1.415 . S
C583 H553 0.950 . S
C583 C578 1.363 . S
C583 C582 1.415 . S
H584 C581 0.999 . S
H585 C566 0.913 . S
H586 C604 0.951 . S
H587 C606 0.951 . S
H588 C608 0.950 . S
H589 C609 0.950 . S
H590 C611 0.950 . S
H591 C614 0.950 . S
H592 C615 0.931 1_455 S
H593 C617 0.950 . S
H594 C618 0.950 . S
H595 C619 0.951 . S
H596 C621 0.951 . S
H597 C623 0.950 . S
H598 C624 0.950 . S
H599 C626 0.950 . S
H600 C629 0.950 . S
H601 C630 0.950 . S
H602 C632 0.950 . S
H603 C633 0.950 1_545 S
C604 H586 0.951 . S
C604 C605 1.366 1_655 S
C604 C606 1.388 . S
C605 C604 1.366 1_455 S
C605 C609 1.385 . S
C606 H587 0.951 . S
C606 C604 1.388 . S
C606 C607 1.366 . S
C607 C606 1.366 . S
C607 C608 1.414 . S
C607 C610 1.499 . S
C608 H588 0.950 . S
C608 C607 1.414 . S
C608 C609 1.374 1_655 S
C609 H589 0.950 . S
C609 C605 1.385 . S
C609 C608 1.374 1_455 S
C610 C607 1.499 . S
C610 C611 1.373 . S
C610 C612 1.389 . S
C611 H590 0.950 . S
C611 C610 1.373 . S
C611 C627 1.377 . S
C612 C610 1.389 . S
C612 C613 1.524 . S
C612 C626 1.377 . S
C613 C612 1.524 . S
C613 C614 1.397 . S
C613 C618 1.363 . S
C614 H591 0.950 . S
C614 C613 1.397 . S
C614 C615 1.334 . S
C615 H592 0.931 1_655 S
C615 C614 1.334 . S
C615 C616 1.287 . S
C616 C615 1.287 . S
C616 C617 1.524 . S
C616 H635 0.913 . S
C617 H593 0.950 . S
C617 C616 1.524 . S
C617 C618 1.415 . S
C618 H594 0.950 . S
C618 C613 1.363 . S
C618 C617 1.415 . S
C619 H595 0.951 . S
C619 C620 1.366 . S
C619 C621 1.388 . S
C620 C619 1.366 . S
C620 C624 1.385 . S
C621 H596 0.951 . S
C621 C619 1.388 . S
C621 C622 1.366 . S
C622 C621 1.366 . S
C622 C623 1.414 . S
C622 C625 1.499 1_565 S
C623 H597 0.950 . S
C623 C622 1.414 . S
C623 C624 1.374 . S
C624 H598 0.950 . S
C624 C620 1.385 . S
C624 C623 1.374 . S
C625 C622 1.499 1_545 S
C625 C626 1.373 . S
C625 C627 1.389 . S
C626 H599 0.950 . S
C626 C612 1.377 . S
C626 C625 1.373 . S
C627 C611 1.377 . S
C627 C625 1.389 . S
C627 C628 1.524 . S
C628 C627 1.524 . S
C628 C629 1.397 1_545 S
C628 C633 1.363 1_545 S
C629 H600 0.950 . S
C629 C628 1.397 1_565 S
C629 C630 1.334 . S
C630 H601 0.950 . S
C630 C629 1.334 . S
C630 C631 1.287 . S
C631 C630 1.287 . S
C631 C632 1.524 . S
C631 H634 0.999 . S
C632 H602 0.950 . S
C632 C631 1.524 . S
C632 C633 1.415 . S
C633 H603 0.950 1_565 S
C633 C628 1.363 1_565 S
C633 C632 1.415 . S
H634 C631 0.999 . S
H635 C616 0.913 . S
H636 C654 0.952 . S
H637 C656 0.951 . S
H638 C658 0.950 . S
H639 C659 0.970 . S
H640 C661 0.950 . S
H641 C664 0.950 . S
H642 C665 0.950 . S
H643 C667 0.950 . S
H644 C668 0.950 . S
H645 C669 0.951 . S
H646 C671 0.951 . S
H647 C673 0.950 . S
H648 C674 0.950 . S
H649 C676 0.950 . S
H650 C679 0.950 . S
H651 C680 0.950 . S
H652 C682 0.950 . S
H653 C683 0.950 . S
C654 H636 0.952 . S
C654 C655 1.367 . S
C654 C656 1.386 1_545 S
C655 C654 1.367 . S
C655 C659 1.402 . S
C656 H637 0.951 . S
C656 C654 1.386 1_565 S
C656 C657 1.366 . S
C657 C656 1.366 . S
C657 C658 1.414 . S
C657 C660 1.499 . S
C658 H638 0.950 . S
C658 C657 1.414 . S
C658 C659 1.338 1_565 S
C659 H639 0.970 . S
C659 C655 1.402 . S
C659 C658 1.338 1_545 S
C660 C657 1.499 . S
C660 C661 1.373 . S
C660 C662 1.389 . S
C661 H640 0.950 . S
C661 C660 1.373 . S
C661 C677 1.377 . S
C662 C660 1.389 . S
C662 C663 1.524 . S
C662 C676 1.377 . S
C663 C662 1.524 . S
C663 C664 1.397 . S
C663 C668 1.363 . S
C664 H641 0.950 . S
C664 C663 1.397 . S
C664 C665 1.334 . S
C665 H642 0.950 . S
C665 C664 1.334 . S
C665 C666 1.287 . S
C666 C665 1.287 . S
C666 C667 1.524 . S
C666 H685 0.913 . S
C667 H643 0.950 . S
C667 C666 1.524 . S
C667 C668 1.415 . S
C668 H644 0.950 . S
C668 C663 1.363 . S
C668 C667 1.415 . S
C669 H645 0.951 . S
C669 C670 1.366 . S
C669 C671 1.388 . S
C670 C669 1.366 . S
C670 C674 1.385 . S
C671 H646 0.951 . S
C671 C669 1.388 . S
C671 C672 1.366 . S
C672 C671 1.366 . S
C672 C673 1.414 . S
C672 C675 1.499 . S
C673 H647 0.950 . S
C673 C672 1.414 . S
C673 C674 1.374 . S
C674 H648 0.950 . S
C674 C670 1.385 . S
C674 C673 1.374 . S
C675 C672 1.499 . S
C675 C676 1.373 . S
C675 C677 1.389 . S
C676 H649 0.950 . S
C676 C662 1.377 . S
C676 C675 1.373 . S
C677 C661 1.377 . S
C677 C675 1.389 . S
C677 C678 1.524 . S
C678 C677 1.524 . S
C678 C679 1.397 . S
C678 C683 1.363 . S
C679 H650 0.950 . S
C679 C678 1.397 . S
C679 C680 1.334 . S
C680 H651 0.950 . S
C680 C679 1.334 . S
C680 C681 1.287 . S
C681 C680 1.287 . S
C681 C682 1.524 . S
C681 H684 0.999 . S
C682 H652 0.950 . S
C682 C681 1.524 . S
C682 C683 1.415 . S
C683 H653 0.950 . S
C683 C678 1.363 . S
C683 C682 1.415 . S
H684 C681 0.999 . S
H685 C666 0.913 . S
H686 C704 0.951 . S
H687 C706 0.951 . S
H688 C708 0.950 . S
H689 C709 0.950 . S
H690 C711 0.950 . S
H691 C714 0.950 . S
H692 C715 0.950 . S
H693 C717 0.950 . S
H694 C718 0.950 . S
H695 C719 0.951 . S
H696 C721 0.951 . S
H697 C723 0.950 . S
H698 C724 0.950 . S
H699 C726 0.950 1_455 S
H700 C729 0.950 . S
H701 C730 0.950 . S
H702 C732 0.950 . S
H703 C733 0.950 . S
C704 H686 0.951 . S
C704 C705 1.366 . S
C704 C706 1.388 . S
C705 C704 1.366 . S
C705 C709 1.385 . S
C706 H687 0.951 . S
C706 C704 1.388 . S
C706 C707 1.366 . S
C707 C706 1.366 . S
C707 C708 1.414 . S
C707 C710 1.499 . S
C708 H688 0.950 . S
C708 C707 1.414 . S
C708 C709 1.374 . S
C709 H689 0.950 . S
C709 C705 1.385 . S
C709 C708 1.374 . S
C710 C707 1.499 . S
C710 C711 1.373 . S
C710 C712 1.389 . S
C711 H690 0.950 . S
C711 C710 1.373 . S
C711 C727 1.377 . S
C712 C710 1.389 . S
C712 C713 1.524 . S
C712 C726 1.377 . S
C713 C712 1.524 . S
C713 C714 1.397 . S
C713 C718 1.363 . S
C714 H691 0.950 . S
C714 C713 1.397 . S
C714 C715 1.334 . S
C715 H692 0.950 . S
C715 C714 1.334 . S
C715 C716 1.287 . S
C716 C715 1.287 . S
C716 C717 1.524 . S
C716 H735 0.913 . S
C717 H693 0.950 . S
C717 C716 1.524 . S
C717 C718 1.415 . S
C718 H694 0.950 . S
C718 C713 1.363 . S
C718 C717 1.415 . S
C719 H695 0.951 . S
C719 C720 1.366 . S
C719 C721 1.388 . S
C720 C719 1.366 . S
C720 C724 1.385 . S
C721 H696 0.951 . S
C721 C719 1.388 . S
C721 C722 1.366 . S
C722 C721 1.366 . S
C722 C723 1.414 . S
C722 C725 1.499 1_455 S
C723 H697 0.950 . S
C723 C722 1.414 . S
C723 C724 1.374 . S
C724 H698 0.950 . S
C724 C720 1.385 . S
C724 C723 1.374 . S
C725 C722 1.499 1_655 S
C725 C726 1.373 . S
C725 C727 1.389 . S
C726 H699 0.950 1_655 S
C726 C712 1.377 . S
C726 C725 1.373 . S
C727 C711 1.377 . S
C727 C725 1.389 . S
C727 C728 1.524 . S
C728 C727 1.524 . S
C728 C729 1.397 . S
C728 C733 1.363 . S
C729 H700 0.950 . S
C729 C728 1.397 . S
C729 C730 1.334 . S
C730 H701 0.950 . S
C730 C729 1.334 . S
C730 C731 1.287 . S
C731 C730 1.287 . S
C731 C732 1.524 . S
C731 H734 0.999 . S
C732 H702 0.950 . S
C732 C731 1.524 . S
C732 C733 1.415 . S
C733 H703 0.950 . S
C733 C728 1.363 . S
C733 C732 1.415 . S
H734 C731 0.999 . S
H735 C716 0.913 . S
H736 C754 0.951 . S
H737 C756 0.951 . S
H738 C758 0.950 . S
H739 C759 0.950 . S
H740 C761 0.950 1_545 S
H741 C764 0.950 . S
H742 C765 0.950 . S
H743 C767 0.950 . S
H744 C768 0.950 . S
H745 C769 0.951 . S
H746 C771 0.951 . S
H747 C773 0.950 . S
H748 C774 0.950 . S
H749 C776 0.950 . S
H750 C779 0.950 . S
H751 C780 0.950 . S
H752 C782 0.950 1_655 S
H753 C783 0.950 . S
C754 H736 0.951 . S
C754 C755 1.366 . S
C754 C756 1.388 . S
C755 C754 1.366 . S
C755 C759 1.385 . S
C756 H737 0.951 . S
C756 C754 1.388 . S
C756 C757 1.366 . S
C757 C756 1.366 . S
C757 C758 1.414 . S
C757 C760 1.499 1_545 S
C758 H738 0.950 . S
C758 C757 1.414 . S
C758 C759 1.374 . S
C759 H739 0.950 . S
C759 C755 1.385 . S
C759 C758 1.374 . S
C760 C757 1.499 1_565 S
C760 C761 1.373 . S
C760 C762 1.389 . S
C761 H740 0.950 1_565 S
C761 C760 1.373 . S
C761 C777 1.377 . S
C762 C760 1.389 . S
C762 C763 1.524 . S
C762 C776 1.377 . S
C763 C762 1.524 . S
C763 C764 1.397 . S
C763 C768 1.363 . S
C764 H741 0.950 . S
C764 C763 1.397 . S
C764 C765 1.334 . S
C765 H742 0.950 . S
C765 C764 1.334 . S
C765 C766 1.287 . S
C766 C765 1.287 . S
C766 C767 1.524 . S
C766 H785 0.913 . S
C767 H743 0.950 . S
C767 C766 1.524 . S
C767 C768 1.415 . S
C768 H744 0.950 . S
C768 C763 1.363 . S
C768 C767 1.415 . S
C769 H745 0.951 . S
C769 C770 1.366 . S
C769 C771 1.388 1_655 S
C770 C769 1.366 . S
C770 C774 1.385 1_655 S
C771 H746 0.951 . S
C771 C769 1.388 1_455 S
C771 C772 1.366 . S
C772 C771 1.366 . S
C772 C773 1.414 . S
C772 C775 1.499 . S
C773 H747 0.950 . S
C773 C772 1.414 . S
C773 C774 1.374 . S
C774 H748 0.950 . S
C774 C770 1.385 1_455 S
C774 C773 1.374 . S
C775 C772 1.499 . S
C775 C776 1.373 . S
C775 C777 1.389 . S
C776 H749 0.950 . S
C776 C762 1.377 . S
C776 C775 1.373 . S
C777 C761 1.377 . S
C777 C775 1.389 . S
C777 C778 1.524 . S
C778 C777 1.524 . S
C778 C779 1.397 . S
C778 C783 1.363 . S
C779 H750 0.950 . S
C779 C778 1.397 . S
C779 C780 1.334 1_455 S
C780 H751 0.950 . S
C780 C779 1.334 1_655 S
C780 C781 1.287 . S
C781 C780 1.287 . S
C781 C782 1.524 1_655 S
C781 H784 0.999 . S
C782 H752 0.950 1_455 S
C782 C781 1.524 1_455 S
C782 C783 1.415 . S
C783 H753 0.950 . S
C783 C778 1.363 . S
C783 C782 1.415 . S
H784 C781 0.999 . S
H785 C766 0.913 . S
H786 C804 0.951 . S
H787 C806 0.951 . S
H788 C808 0.950 . S
H789 C809 0.950 . S
H790 C811 0.950 . S
H791 C814 0.950 . S
H792 C815 0.950 . S
H793 C817 0.950 . S
H794 C818 0.950 . S
H795 C819 0.951 . S
H796 C821 0.951 . S
H797 C823 0.950 . S
H798 C824 0.950 . S
H799 C826 0.950 1_556 S
H800 C829 0.950 . S
H801 C830 0.950 . S
H802 C832 0.950 . S
H803 C833 0.950 . S
C804 H786 0.951 . S
C804 C805 1.366 . S
C804 C806 1.388 . S
C805 C804 1.366 . S
C805 C809 1.385 . S
C806 H787 0.951 . S
C806 C804 1.388 . S
C806 C807 1.366 . S
C807 C806 1.366 . S
C807 C808 1.414 . S
C807 C810 1.499 . S
C808 H788 0.950 . S
C808 C807 1.414 . S
C808 C809 1.374 . S
C809 H789 0.950 . S
C809 C805 1.385 . S
C809 C808 1.374 . S
C810 C807 1.499 . S
C810 C811 1.373 . S
C810 C812 1.389 . S
C811 H790 0.950 . S
C811 C810 1.373 . S
C811 C827 1.377 1_554 S
C812 C810 1.389 . S
C812 C813 1.524 . S
C812 C826 1.387 . S
C813 C812 1.524 . S
C813 C814 1.397 . S
C813 C818 1.363 . S
C814 H791 0.950 . S
C814 C813 1.397 . S
C814 C815 1.334 . S
C815 H792 0.950 . S
C815 C814 1.334 . S
C815 C816 1.287 . S
C816 C815 1.287 . S
C816 C817 1.524 . S
C816 H835 0.913 . S
C817 H793 0.950 . S
C817 C816 1.524 . S
C817 C818 1.415 . S
C818 H794 0.950 . S
C818 C813 1.363 . S
C818 C817 1.415 . S
C819 H795 0.951 . S
C819 C820 1.366 . S
C819 C821 1.388 . S
C820 C819 1.366 . S
C820 C824 1.385 . S
C821 H796 0.951 . S
C821 C819 1.388 . S
C821 C822 1.366 . S
C822 C821 1.366 . S
C822 C823 1.414 . S
C822 C825 1.499 . S
C823 H797 0.950 . S
C823 C822 1.414 . S
C823 C824 1.374 . S
C824 H798 0.950 . S
C824 C820 1.385 . S
C824 C823 1.374 . S
C825 C822 1.499 . S
C825 C826 1.363 1_556 S
C825 C827 1.389 . S
C826 H799 0.950 1_554 S
C826 C812 1.387 . S
C826 C825 1.363 1_554 S
C827 C811 1.377 1_556 S
C827 C825 1.389 . S
C827 C828 1.524 . S
C828 C827 1.524 . S
C828 C829 1.397 . S
C828 C833 1.363 . S
C829 H800 0.950 . S
C829 C828 1.397 . S
C829 C830 1.334 . S
C830 H801 0.950 . S
C830 C829 1.334 . S
C830 C831 1.287 . S
C831 C830 1.287 . S
C831 C832 1.524 . S
C831 H834 0.999 . S
C832 H802 0.950 . S
C832 C831 1.524 . S
C832 C833 1.415 . S
C833 H803 0.950 . S
C833 C828 1.363 . S
C833 C832 1.415 . S
H834 C831 0.999 . S
H835 C816 0.913 . S
H836 C854 0.951 . S
H837 C856 0.951 . S
H838 C858 0.950 . S
H839 C859 0.950 . S
H840 C861 0.950 . S
H841 C864 0.950 . S
H842 C865 0.950 . S
H843 C867 0.950 . S
H844 C868 0.950 . S
H845 C869 0.951 . S
H846 C871 0.951 . S
H847 C873 0.950 . S
H848 C874 0.950 . S
H849 C876 0.950 . S
H850 C879 0.950 . S
H851 C880 0.950 . S
H852 C882 0.950 . S
H853 C883 0.950 . S
C854 H836 0.951 . S
C854 C855 1.366 . S
C854 C856 1.388 . S
C855 C854 1.366 . S
C855 C859 1.385 . S
C856 H837 0.951 . S
C856 C854 1.388 . S
C856 C857 1.366 . S
C857 C856 1.366 . S
C857 C858 1.414 . S
C857 C860 1.499 . S
C858 H838 0.950 . S
C858 C857 1.414 . S
C858 C859 1.374 . S
C859 H839 0.950 . S
C859 C855 1.385 . S
C859 C858 1.374 . S
C860 C857 1.499 . S
C860 C861 1.373 . S
C860 C862 1.389 1_655 S
C861 H840 0.950 . S
C861 C860 1.373 . S
C861 C877 1.377 . S
C862 C860 1.389 1_455 S
C862 C863 1.524 . S
C862 C876 1.377 . S
C863 C862 1.524 . S
C863 C864 1.397 . S
C863 C868 1.363 . S
C864 H841 0.950 . S
C864 C863 1.397 . S
C864 C865 1.334 . S
C865 H842 0.950 . S
C865 C864 1.334 . S
C865 C866 1.287 . S
C866 C865 1.287 . S
C866 C867 1.524 . S
C866 H885 0.913 . S
C867 H843 0.950 . S
C867 C866 1.524 . S
C867 C868 1.415 . S
C868 H844 0.950 . S
C868 C863 1.363 . S
C868 C867 1.415 . S
C869 H845 0.951 . S
C869 C870 1.366 . S
C869 C871 1.388 . S
C870 C869 1.366 . S
C870 C874 1.385 . S
C871 H846 0.951 . S
C871 C869 1.388 . S
C871 C872 1.366 . S
C872 C871 1.366 . S
C872 C873 1.414 . S
C872 C875 1.499 . S
C873 H847 0.950 . S
C873 C872 1.414 . S
C873 C874 1.374 . S
C874 H848 0.950 . S
C874 C870 1.385 . S
C874 C873 1.374 . S
C875 C872 1.499 . S
C875 C876 1.373 . S
C875 C877 1.389 1_455 S
C876 H849 0.950 . S
C876 C862 1.377 . S
C876 C875 1.373 . S
C877 C861 1.377 . S
C877 C875 1.389 1_655 S
C877 C878 1.524 . S
C878 C877 1.524 . S
C878 C879 1.397 . S
C878 C883 1.363 . S
C879 H850 0.950 . S
C879 C878 1.397 . S
C879 C880 1.334 . S
C880 H851 0.950 . S
C880 C879 1.334 . S
C880 C881 1.287 . S
C881 C880 1.287 . S
C881 C882 1.524 . S
C881 H884 0.999 . S
C882 H852 0.950 . S
C882 C881 1.524 . S
C882 C883 1.415 . S
C883 H853 0.950 . S
C883 C878 1.363 . S
C883 C882 1.415 . S
H884 C881 0.999 . S
H885 C866 0.913 . S
H886 C904 0.951 . S
H887 C906 0.951 . S
H888 C908 0.950 . S
H889 C909 0.950 . S
H890 C911 0.950 . S
H891 C914 0.941 1_545 S
H892 C915 0.948 1_545 S
H893 C917 0.950 . S
H894 C918 0.950 1_556 S
H895 C919 0.951 . S
H896 C921 0.951 . S
H897 C923 0.950 1_565 S
H898 C924 0.950 . S
H899 C926 0.954 1_545 S
H900 C929 0.950 . S
H901 C930 0.950 . S
H902 C932 0.946 1_545 S
H903 C933 0.940 1_544 S
C904 H886 0.951 . S
C904 C905 1.366 . S
C904 C906 1.388 . S
C905 C904 1.366 . S
C905 C909 1.385 . S
C906 H887 0.951 . S
C906 C904 1.388 . S
C906 C907 1.366 . S
C907 C906 1.366 . S
C907 C908 1.414 . S
C907 C910 1.499 . S
C908 H888 0.950 . S
C908 C907 1.414 . S
C908 C909 1.374 . S
C909 H889 0.950 . S
C909 C905 1.385 . S
C909 C908 1.374 . S
C910 C907 1.499 . S
C910 C911 1.373 . S
C910 C912 1.389 . S
C911 H890 0.950 . S
C911 C910 1.373 . S
C911 C927 1.377 1_554 S
C912 C910 1.389 . S
C912 C913 1.524 . S
C912 C926 1.377 1_554 S
C913 C912 1.524 . S
C913 C914 1.397 . S
C913 C918 1.363 . S
C914 H891 0.941 1_565 S
C914 C913 1.397 . S
C914 C915 1.334 . S
C915 H892 0.948 1_565 S
C915 C914 1.334 . S
C915 C916 1.287 . S
C916 C915 1.287 . S
C916 C917 1.524 . S
C916 H935 0.913 . S
C917 H893 0.950 . S
C917 C916 1.524 . S
C917 C918 1.415 . S
C918 H894 0.950 1_554 S
C918 C913 1.363 . S
C918 C917 1.415 . S
C919 H895 0.951 . S
C919 C920 1.366 . S
C919 C921 1.388 . S
C920 C919 1.366 . S
C920 C924 1.385 . S
C921 H896 0.951 . S
C921 C919 1.388 . S
C921 C922 1.366 . S
C922 C921 1.366 . S
C922 C923 1.414 . S
C922 C925 1.499 1_545 S
C923 H897 0.950 1_545 S
C923 C922 1.414 . S
C923 C924 1.374 . S
C924 H898 0.950 . S
C924 C920 1.385 . S
C924 C923 1.374 . S
C925 C922 1.499 1_565 S
C925 C926 1.373 . S
C925 C927 1.389 . S
C926 H899 0.954 1_565 S
C926 C912 1.377 1_556 S
C926 C925 1.373 . S
C927 C911 1.377 1_556 S
C927 C925 1.389 . S
C927 C928 1.524 . S
C928 C927 1.524 . S
C928 C929 1.397 . S
C928 C933 1.362 . S
C929 H900 0.950 . S
C929 C928 1.397 . S
C929 C930 1.334 . S
C930 H901 0.950 . S
C930 C929 1.334 . S
C930 C931 1.287 . S
C931 C930 1.287 . S
C931 C932 1.526 . S
C931 H934 0.999 . S
C932 H902 0.946 1_565 S
C932 C931 1.526 . S
C932 C933 1.418 . S
C933 H903 0.940 1_566 S
C933 C928 1.362 . S
C933 C932 1.418 . S
H934 C931 0.999 . S
H935 C916 0.913 . S
H936 C954 0.951 . S
H937 C956 0.951 . S
H938 C958 0.950 . S
H939 C959 0.950 . S
H940 C961 0.950 . S
H941 C964 0.950 . S
H942 C965 0.950 . S
H943 C967 0.950 . S
H944 C968 0.950 . S
H945 C969 0.951 . S
H946 C971 0.951 . S
H947 C973 0.950 . S
H948 C974 0.950 . S
H949 C976 0.950 . S
H950 C979 0.950 . S
H951 C980 0.950 . S
H952 C982 0.950 . S
H953 C983 0.950 . S
C954 H936 0.951 . S
C954 C955 1.366 . S
C954 C956 1.388 . S
C955 C954 1.366 . S
C955 C959 1.385 . S
C956 H937 0.951 . S
C956 C954 1.388 . S
C956 C957 1.366 . S
C957 C956 1.366 . S
C957 C958 1.414 . S
C957 C960 1.499 . S
C958 H938 0.950 . S
C958 C957 1.414 . S
C958 C959 1.374 . S
C959 H939 0.950 . S
C959 C955 1.385 . S
C959 C958 1.374 . S
C960 C957 1.499 . S
C960 C961 1.373 . S
C960 C962 1.389 . S
C961 H940 0.950 . S
C961 C960 1.373 . S
C961 C977 1.377 . S
C962 C960 1.389 . S
C962 C963 1.524 . S
C962 C976 1.377 . S
C963 C962 1.524 . S
C963 C964 1.397 . S
C963 C968 1.363 . S
C964 H941 0.950 . S
C964 C963 1.397 . S
C964 C965 1.334 . S
C965 H942 0.950 . S
C965 C964 1.334 . S
C965 C966 1.287 . S
C966 C965 1.287 . S
C966 C967 1.524 . S
C966 H985 0.913 . S
C967 H943 0.950 . S
C967 C966 1.524 . S
C967 C968 1.415 . S
C968 H944 0.950 . S
C968 C963 1.363 . S
C968 C967 1.415 . S
C969 H945 0.951 . S
C969 C970 1.366 . S
C969 C971 1.388 . S
C970 C969 1.366 . S
C970 C974 1.385 . S
C971 H946 0.951 . S
C971 C969 1.388 . S
C971 C972 1.366 . S
C972 C971 1.366 . S
C972 C973 1.414 . S
C972 C975 1.499 . S
C973 H947 0.950 . S
C973 C972 1.414 . S
C973 C974 1.374 . S
C974 H948 0.950 . S
C974 C970 1.385 . S
C974 C973 1.374 . S
C975 C972 1.499 . S
C975 C976 1.373 . S
C975 C977 1.389 . S
C976 H949 0.950 . S
C976 C962 1.377 . S
C976 C975 1.373 . S
C977 C961 1.377 . S
C977 C975 1.389 . S
C977 C978 1.524 . S
C978 C977 1.524 . S
C978 C979 1.397 . S
C978 C983 1.363 . S
C979 H950 0.950 . S
C979 C978 1.397 . S
C979 C980 1.334 . S
C980 H951 0.950 . S
C980 C979 1.334 . S
C980 C981 1.287 . S
C981 C980 1.287 . S
C981 C982 1.524 . S
C981 H984 0.999 . S
C982 H952 0.950 . S
C982 C981 1.524 . S
C982 C983 1.415 . S
C983 H953 0.950 . S
C983 C978 1.363 . S
C983 C982 1.415 . S
H984 C981 0.999 . S
H985 C966 0.913 . S
H986 C1004 0.951 . S
H987 C1006 0.951 . S
H988 C1008 0.950 . S
H989 C1009 0.950 . S
H990 C1011 0.950 . S
H991 C1014 0.950 . S
H992 C1015 0.953 . S
H993 C1017 0.950 . S
H994 C1018 0.950 . S
H995 C1019 0.951 . S
H996 C1021 0.951 . S
H997 C1023 0.950 . S
H998 C1024 0.950 . S
H999 C1026 0.950 . S
H1000 C1029 0.950 . S
H1001 C1030 0.953 . S
H1002 C1032 0.950 . S
H1003 C1033 0.950 . S
C1004 H986 0.951 . S
C1004 C1005 1.366 . S
C1004 C1006 1.388 . S
C1005 C1004 1.366 . S
C1005 C1009 1.385 . S
C1006 H987 0.951 . S
C1006 C1004 1.388 . S
C1006 C1007 1.366 . S
C1007 C1006 1.366 . S
C1007 C1008 1.414 . S
C1007 C1010 1.499 . S
C1008 H988 0.950 . S
C1008 C1007 1.414 . S
C1008 C1009 1.374 . S
C1009 H989 0.950 . S
C1009 C1005 1.385 . S
C1009 C1008 1.374 . S
C1010 C1007 1.499 . S
C1010 C1011 1.373 1_655 S
C1010 C1012 1.389 . S
C1011 H990 0.950 . S
C1011 C1010 1.373 1_455 S
C1011 C1027 1.377 1_556 S
C1012 C1010 1.389 . S
C1012 C1013 1.524 . S
C1012 C1026 1.377 1_656 S
C1013 C1012 1.524 . S
C1013 C1014 1.397 . S
C1013 C1018 1.363 1_556 S
C1014 H991 0.950 . S
C1014 C1013 1.397 . S
C1014 C1015 1.338 . S
C1015 H992 0.953 . S
C1015 C1014 1.338 . S
C1015 C1016 1.280 1_556 S
C1016 C1015 1.280 1_554 S
C1016 C1017 1.524 . S
C1016 H1035 0.913 . S
C1017 H993 0.950 . S
C1017 C1016 1.524 . S
C1017 C1018 1.415 . S
C1018 H994 0.950 . S
C1018 C1013 1.363 1_554 S
C1018 C1017 1.415 . S
C1019 H995 0.951 . S
C1019 C1020 1.366 . S
C1019 C1021 1.388 . S
C1020 C1019 1.366 . S
C1020 C1024 1.385 . S
C1021 H996 0.951 . S
C1021 C1019 1.388 . S
C1021 C1022 1.366 . S
C1022 C1021 1.366 . S
C1022 C1023 1.414 . S
C1022 C1025 1.499 . S
C1023 H997 0.950 . S
C1023 C1022 1.414 . S
C1023 C1024 1.374 . S
C1024 H998 0.950 . S
C1024 C1020 1.385 . S
C1024 C1023 1.374 . S
C1025 C1022 1.499 . S
C1025 C1026 1.373 . S
C1025 C1027 1.389 . S
C1026 H999 0.950 . S
C1026 C1012 1.377 1_454 S
C1026 C1025 1.373 . S
C1027 C1011 1.377 1_554 S
C1027 C1025 1.389 . S
C1027 C1028 1.525 1_554 S
C1028 C1027 1.525 1_556 S
C1028 C1029 1.397 1_556 S
C1028 C1033 1.362 . S
C1029 H1000 0.950 . S
C1029 C1028 1.397 1_554 S
C1029 C1030 1.338 . S
C1030 H1001 0.953 . S
C1030 C1029 1.338 . S
C1030 C1031 1.281 1_554 S
C1031 C1030 1.281 1_556 S
C1031 C1032 1.524 . S
C1031 H1034 0.999 . S
C1032 H1002 0.950 . S
C1032 C1031 1.524 . S
C1032 C1033 1.415 . S
C1033 H1003 0.950 . S
C1033 C1028 1.362 . S
C1033 C1032 1.415 . S
H1034 C1031 0.999 . S
H1035 C1016 0.913 . S
H1036 C1054 0.951 . S
H1037 C1056 0.951 . S
H1038 C1058 0.950 . S
H1039 C1059 0.950 . S
H1040 C1061 0.950 . S
H1041 C1064 0.950 . S
H1042 C1065 0.950 . S
H1043 C1067 0.950 . S
H1044 C1068 0.950 . S
H1045 C1069 0.951 . S
H1046 C1071 0.951 . S
H1047 C1073 0.950 . S
H1048 C1074 0.950 . S
H1049 C1076 0.950 . S
H1050 C1079 0.950 . S
H1051 C1080 0.950 . S
H1052 C1082 0.950 . S
H1053 C1083 0.950 . S
C1054 H1036 0.951 . S
C1054 C1055 1.366 . S
C1054 C1056 1.388 . S
C1055 C1054 1.366 . S
C1055 C1059 1.385 . S
C1056 H1037 0.951 . S
C1056 C1054 1.388 . S
C1056 C1057 1.366 . S
C1057 C1056 1.366 . S
C1057 C1058 1.414 . S
C1057 C1060 1.499 . S
C1058 H1038 0.950 . S
C1058 C1057 1.414 . S
C1058 C1059 1.374 . S
C1059 H1039 0.950 . S
C1059 C1055 1.385 . S
C1059 C1058 1.374 . S
C1060 C1057 1.499 . S
C1060 C1061 1.373 . S
C1060 C1062 1.389 . S
C1061 H1040 0.950 . S
C1061 C1060 1.373 . S
C1061 C1077 1.377 . S
C1062 C1060 1.389 . S
C1062 C1063 1.524 1_545 S
C1062 C1076 1.377 1_545 S
C1063 C1062 1.524 1_565 S
C1063 C1064 1.397 1_565 S
C1063 C1068 1.363 . S
C1064 H1041 0.950 . S
C1064 C1063 1.397 1_545 S
C1064 C1065 1.334 1_545 S
C1065 H1042 0.950 . S
C1065 C1064 1.334 1_565 S
C1065 C1066 1.287 . S
C1066 C1065 1.287 . S
C1066 C1067 1.524 . S
C1066 H1085 0.913 . S
C1067 H1043 0.950 . S
C1067 C1066 1.524 . S
C1067 C1068 1.415 . S
C1068 H1044 0.950 . S
C1068 C1063 1.363 . S
C1068 C1067 1.415 . S
C1069 H1045 0.951 . S
C1069 C1070 1.366 . S
C1069 C1071 1.388 . S
C1070 C1069 1.366 . S
C1070 C1074 1.385 . S
C1071 H1046 0.951 . S
C1071 C1069 1.388 . S
C1071 C1072 1.366 . S
C1072 C1071 1.366 . S
C1072 C1073 1.414 . S
C1072 C1075 1.499 . S
C1073 H1047 0.950 . S
C1073 C1072 1.414 . S
C1073 C1074 1.374 . S
C1074 H1048 0.950 . S
C1074 C1070 1.385 . S
C1074 C1073 1.374 . S
C1075 C1072 1.499 . S
C1075 C1076 1.373 . S
C1075 C1077 1.389 1_565 S
C1076 H1049 0.950 . S
C1076 C1062 1.377 1_565 S
C1076 C1075 1.373 . S
C1077 C1061 1.377 . S
C1077 C1075 1.389 1_545 S
C1077 C1078 1.524 . S
C1078 C1077 1.524 . S
C1078 C1079 1.397 . S
C1078 C1083 1.363 . S
C1079 H1050 0.950 . S
C1079 C1078 1.397 . S
C1079 C1080 1.334 . S
C1080 H1051 0.950 . S
C1080 C1079 1.334 . S
C1080 C1081 1.287 . S
C1081 C1080 1.287 . S
C1081 C1082 1.524 . S
C1081 H1084 0.999 . S
C1082 H1052 0.950 . S
C1082 C1081 1.524 . S
C1082 C1083 1.415 . S
C1083 H1053 0.950 . S
C1083 C1078 1.363 . S
C1083 C1082 1.415 . S
H1084 C1081 0.999 . S
H1085 C1066 0.913 . S
H1086 C1104 0.951 . S
H1087 C1106 0.951 . S
H1088 C1108 0.950 . S
H1089 C1109 0.950 . S
H1090 C1111 0.950 . S
H1091 C1114 0.950 . S
H1092 C1115 0.950 . S
H1093 C1117 0.950 . S
H1094 C1118 0.950 . S
H1095 C1119 0.951 . S
H1096 C1121 0.951 . S
H1097 C1123 0.950 . S
H1098 C1124 0.950 . S
H1099 C1126 0.950 . S
H1100 C1129 0.950 . S
H1101 C1130 0.950 . S
H1102 C1132 0.950 . S
H1103 C1133 0.950 . S
C1104 H1086 0.951 . S
C1104 C1105 1.366 . S
C1104 C1106 1.388 . S
C1105 C1104 1.366 . S
C1105 C1109 1.385 . S
C1106 H1087 0.951 . S
C1106 C1104 1.388 . S
C1106 C1107 1.366 . S
C1107 C1106 1.366 . S
C1107 C1108 1.414 . S
C1107 C1110 1.499 . S
C1108 H1088 0.950 . S
C1108 C1107 1.414 . S
C1108 C1109 1.374 . S
C1109 H1089 0.950 . S
C1109 C1105 1.385 . S
C1109 C1108 1.374 . S
C1110 C1107 1.499 . S
C1110 C1111 1.373 . S
C1110 C1112 1.389 1_556 S
C1111 H1090 0.950 . S
C1111 C1110 1.373 . S
C1111 C1127 1.377 1_556 S
C1112 C1110 1.389 1_554 S
C1112 C1113 1.524 . S
C1112 C1126 1.377 . S
C1113 C1112 1.524 . S
C1113 C1114 1.397 1_554 S
C1113 C1118 1.363 . S
C1114 H1091 0.950 . S
C1114 C1113 1.397 1_556 S
C1114 C1115 1.334 . S
C1115 H1092 0.950 . S
C1115 C1114 1.334 . S
C1115 C1116 1.287 1_556 S
C1116 C1115 1.287 1_554 S
C1116 C1117 1.524 . S
C1116 H1135 0.913 . S
C1117 H1093 0.950 . S
C1117 C1116 1.524 . S
C1117 C1118 1.415 . S
C1118 H1094 0.950 . S
C1118 C1113 1.363 . S
C1118 C1117 1.415 . S
C1119 H1095 0.951 . S
C1119 C1120 1.366 . S
C1119 C1121 1.388 . S
C1120 C1119 1.366 . S
C1120 C1124 1.385 . S
C1121 H1096 0.951 . S
C1121 C1119 1.388 . S
C1121 C1122 1.366 . S
C1122 C1121 1.366 . S
C1122 C1123 1.414 . S
C1122 C1125 1.499 . S
C1123 H1097 0.950 . S
C1123 C1122 1.414 . S
C1123 C1124 1.374 . S
C1124 H1098 0.950 . S
C1124 C1120 1.385 . S
C1124 C1123 1.374 . S
C1125 C1122 1.499 . S
C1125 C1126 1.373 . S
C1125 C1127 1.389 . S
C1126 H1099 0.950 . S
C1126 C1112 1.377 . S
C1126 C1125 1.373 . S
C1127 C1111 1.377 1_554 S
C1127 C1125 1.389 . S
C1127 C1128 1.524 1_554 S
C1128 C1127 1.524 1_556 S
C1128 C1129 1.397 1_556 S
C1128 C1133 1.363 . S
C1129 H1100 0.950 . S
C1129 C1128 1.397 1_554 S
C1129 C1130 1.334 . S
C1130 H1101 0.950 . S
C1130 C1129 1.334 . S
C1130 C1131 1.287 1_554 S
C1131 C1130 1.287 1_556 S
C1131 C1132 1.524 . S
C1131 H1134 0.999 . S
C1132 H1102 0.950 . S
C1132 C1131 1.524 . S
C1132 C1133 1.415 . S
C1133 H1103 0.950 . S
C1133 C1128 1.363 . S
C1133 C1132 1.415 . S
H1134 C1131 0.999 . S
H1135 C1116 0.913 . S
H1136 C1154 0.951 . S
H1137 C1156 0.951 . S
H1138 C1158 0.950 . S
H1139 C1159 0.950 . S
H1140 C1161 0.950 . S
H1141 C1164 0.950 . S
H1142 C1165 0.950 1_455 S
H1143 C1167 0.950 . S
H1144 C1168 0.950 . S
H1145 C1169 0.951 . S
H1146 C1171 0.951 1_455 S
H1147 C1173 0.950 . S
H1148 C1174 0.950 . S
H1149 C1176 0.950 . S
H1150 C1179 0.950 . S
H1151 C1180 0.950 . S
H1152 C1182 0.950 . S
H1153 C1183 0.950 . S
C1154 H1136 0.951 . S
C1154 C1155 1.366 . S
C1154 C1156 1.388 . S
C1155 C1154 1.366 . S
C1155 C1159 1.385 . S
C1156 H1137 0.951 . S
C1156 C1154 1.388 . S
C1156 C1157 1.366 . S
C1157 C1156 1.366 . S
C1157 C1158 1.414 . S
C1157 C1160 1.499 . S
C1158 H1138 0.950 . S
C1158 C1157 1.414 . S
C1158 C1159 1.374 . S
C1159 H1139 0.950 . S
C1159 C1155 1.385 . S
C1159 C1158 1.374 . S
C1160 C1157 1.499 . S
C1160 C1161 1.373 . S
C1160 C1162 1.389 . S
C1161 H1140 0.950 . S
C1161 C1160 1.373 . S
C1161 C1177 1.377 . S
C1162 C1160 1.389 . S
C1162 C1163 1.524 1_455 S
C1162 C1176 1.377 1_455 S
C1163 C1162 1.524 1_655 S
C1163 C1164 1.397 1_655 S
C1163 C1168 1.363 . S
C1164 H1141 0.950 . S
C1164 C1163 1.397 1_455 S
C1164 C1165 1.334 1_455 S
C1165 H1142 0.950 1_655 S
C1165 C1164 1.334 1_655 S
C1165 C1166 1.287 . S
C1166 C1165 1.287 . S
C1166 C1167 1.524 . S
C1166 H1185 0.913 . S
C1167 H1143 0.950 . S
C1167 C1166 1.524 . S
C1167 C1168 1.415 . S
C1168 H1144 0.950 . S
C1168 C1163 1.363 . S
C1168 C1167 1.415 . S
C1169 H1145 0.951 . S
C1169 C1170 1.366 . S
C1169 C1171 1.388 . S
C1170 C1169 1.366 . S
C1170 C1174 1.385 . S
C1171 H1146 0.951 1_655 S
C1171 C1169 1.388 . S
C1171 C1172 1.366 . S
C1172 C1171 1.366 . S
C1172 C1173 1.414 . S
C1172 C1175 1.499 . S
C1173 H1147 0.950 . S
C1173 C1172 1.414 . S
C1173 C1174 1.374 . S
C1174 H1148 0.950 . S
C1174 C1170 1.385 . S
C1174 C1173 1.374 . S
C1175 C1172 1.499 . S
C1175 C1176 1.373 . S
C1175 C1177 1.389 1_655 S
C1176 H1149 0.950 . S
C1176 C1162 1.377 1_655 S
C1176 C1175 1.373 . S
C1177 C1161 1.377 . S
C1177 C1175 1.389 1_455 S
C1177 C1178 1.524 . S
C1178 C1177 1.524 . S
C1178 C1179 1.397 . S
C1178 C1183 1.363 . S
C1179 H1150 0.950 . S
C1179 C1178 1.397 . S
C1179 C1180 1.334 . S
C1180 H1151 0.950 . S
C1180 C1179 1.334 . S
C1180 C1181 1.287 . S
C1181 C1180 1.287 . S
C1181 C1182 1.524 . S
C1181 H1184 0.999 . S
C1182 H1152 0.950 . S
C1182 C1181 1.524 . S
C1182 C1183 1.415 . S
C1183 H1153 0.950 . S
C1183 C1178 1.363 . S
C1183 C1182 1.415 . S
H1184 C1181 0.999 . S
H1185 C1166 0.913 . S
H1186 C1204 0.951 . S
H1187 C1206 0.951 . S
H1188 C1208 0.950 . S
H1189 C1209 0.950 . S
H1190 C1211 0.950 . S
H1191 C1214 0.950 . S
H1192 C1215 0.950 . S
H1193 C1217 0.950 . S
H1194 C1218 0.950 . S
H1195 C1219 0.951 . S
H1196 C1221 0.951 . S
H1197 C1223 0.950 1_545 S
H1198 C1224 0.950 . S
H1199 C1226 0.950 . S
H1200 C1229 0.950 . S
H1201 C1230 0.950 . S
H1202 C1232 0.950 . S
H1203 C1233 0.950 . S
C1204 H1186 0.951 . S
C1204 C1205 1.366 . S
C1204 C1206 1.388 . S
C1205 C1204 1.366 . S
C1205 C1209 1.385 . S
C1206 H1187 0.951 . S
C1206 C1204 1.388 . S
C1206 C1207 1.366 . S
C1207 C1206 1.366 . S
C1207 C1208 1.414 . S
C1207 C1210 1.499 . S
C1208 H1188 0.950 . S
C1208 C1207 1.414 . S
C1208 C1209 1.374 . S
C1209 H1189 0.950 . S
C1209 C1205 1.385 . S
C1209 C1208 1.374 . S
C1210 C1207 1.499 . S
C1210 C1211 1.373 . S
C1210 C1212 1.389 1_556 S
C1211 H1190 0.950 . S
C1211 C1210 1.373 . S
C1211 C1227 1.377 1_546 S
C1212 C1210 1.389 1_554 S
C1212 C1213 1.524 . S
C1212 C1226 1.377 . S
C1213 C1212 1.524 . S
C1213 C1214 1.397 1_554 S
C1213 C1218 1.363 . S
C1214 H1191 0.950 . S
C1214 C1213 1.397 1_556 S
C1214 C1215 1.334 . S
C1215 H1192 0.950 . S
C1215 C1214 1.334 . S
C1215 C1216 1.287 . S
C1216 C1215 1.287 . S
C1216 C1217 1.524 1_556 S
C1216 H1235 0.913 . S
C1217 H1193 0.950 . S
C1217 C1216 1.524 1_554 S
C1217 C1218 1.415 . S
C1218 H1194 0.950 . S
C1218 C1213 1.363 . S
C1218 C1217 1.415 . S
C1219 H1195 0.951 . S
C1219 C1220 1.366 . S
C1219 C1221 1.388 . S
C1220 C1219 1.366 . S
C1220 C1224 1.385 . S
C1221 H1196 0.951 . S
C1221 C1219 1.388 . S
C1221 C1222 1.366 . S
C1222 C1221 1.366 . S
C1222 C1223 1.414 . S
C1222 C1225 1.493 1_565 S
C1223 H1197 0.950 1_565 S
C1223 C1222 1.414 . S
C1223 C1224 1.374 . S
C1224 H1198 0.950 . S
C1224 C1220 1.385 . S
C1224 C1223 1.374 . S
C1225 C1222 1.493 1_545 S
C1225 C1226 1.375 . S
C1225 C1227 1.392 1_545 S
C1226 H1199 0.950 . S
C1226 C1212 1.377 . S
C1226 C1225 1.375 . S
C1227 C1211 1.377 1_564 S
C1227 C1225 1.392 1_565 S
C1227 C1228 1.524 . S
C1228 C1227 1.524 . S
C1228 C1229 1.397 . S
C1228 C1233 1.363 1_554 S
C1229 H1200 0.950 . S
C1229 C1228 1.397 . S
C1229 C1230 1.334 . S
C1230 H1201 0.950 . S
C1230 C1229 1.334 . S
C1230 C1231 1.287 . S
C1231 C1230 1.287 . S
C1231 C1232 1.524 1_554 S
C1231 H1234 0.999 . S
C1232 H1202 0.950 . S
C1232 C1231 1.524 1_556 S
C1232 C1233 1.415 . S
C1233 H1203 0.950 . S
C1233 C1228 1.363 1_556 S
C1233 C1232 1.415 . S
H1234 C1231 0.999 . S
H1235 C1216 0.913 . S
H1236 C1254 0.951 . S
H1237 C1256 0.951 . S
H1238 C1258 0.950 . S
H1239 C1259 0.950 . S
H1240 C1261 0.950 . S
H1241 C1264 0.950 . S
H1242 C1265 0.950 . S
H1243 C1267 0.950 . S
H1244 C1268 0.950 . S
H1245 C1269 0.951 . S
H1246 C1271 0.951 . S
H1247 C1273 0.950 . S
H1248 C1274 0.950 . S
H1249 C1276 0.950 . S
H1250 C1279 0.950 . S
H1251 C1280 0.950 . S
H1252 C1282 0.950 . S
H1253 C1283 0.950 . S
C1254 H1236 0.951 . S
C1254 C1255 1.366 . S
C1254 C1256 1.388 . S
C1255 C1254 1.366 . S
C1255 C1259 1.385 . S
C1256 H1237 0.951 . S
C1256 C1254 1.388 . S
C1256 C1257 1.366 . S
C1257 C1256 1.366 . S
C1257 C1258 1.414 . S
C1257 C1260 1.499 . S
C1258 H1238 0.950 . S
C1258 C1257 1.414 . S
C1258 C1259 1.374 . S
C1259 H1239 0.950 . S
C1259 C1255 1.385 . S
C1259 C1258 1.374 . S
C1260 C1257 1.499 . S
C1260 C1261 1.373 . S
C1260 C1262 1.389 . S
C1261 H1240 0.950 . S
C1261 C1260 1.373 . S
C1261 C1277 1.377 . S
C1262 C1260 1.389 . S
C1262 C1263 1.524 . S
C1262 C1276 1.377 . S
C1263 C1262 1.524 . S
C1263 C1264 1.397 . S
C1263 C1268 1.363 . S
C1264 H1241 0.950 . S
C1264 C1263 1.397 . S
C1264 C1265 1.334 . S
C1265 H1242 0.950 . S
C1265 C1264 1.334 . S
C1265 C1266 1.287 . S
C1266 C1265 1.287 . S
C1266 C1267 1.524 . S
C1266 H1285 0.913 . S
C1267 H1243 0.950 . S
C1267 C1266 1.524 . S
C1267 C1268 1.415 . S
C1268 H1244 0.950 . S
C1268 C1263 1.363 . S
C1268 C1267 1.415 . S
C1269 H1245 0.951 . S
C1269 C1270 1.366 . S
C1269 C1271 1.388 . S
C1270 C1269 1.366 . S
C1270 C1274 1.385 . S
C1271 H1246 0.951 . S
C1271 C1269 1.388 . S
C1271 C1272 1.366 . S
C1272 C1271 1.366 . S
C1272 C1273 1.414 . S
C1272 C1275 1.499 . S
C1273 H1247 0.950 . S
C1273 C1272 1.414 . S
C1273 C1274 1.374 . S
C1274 H1248 0.950 . S
C1274 C1270 1.385 . S
C1274 C1273 1.374 . S
C1275 C1272 1.499 . S
C1275 C1276 1.373 . S
C1275 C1277 1.389 . S
C1276 H1249 0.950 . S
C1276 C1262 1.377 . S
C1276 C1275 1.373 . S
C1277 C1261 1.377 . S
C1277 C1275 1.389 . S
C1277 C1278 1.524 . S
C1278 C1277 1.524 . S
C1278 C1279 1.397 . S
C1278 C1283 1.363 . S
C1279 H1250 0.950 . S
C1279 C1278 1.397 . S
C1279 C1280 1.334 . S
C1280 H1251 0.950 . S
C1280 C1279 1.334 . S
C1280 C1281 1.287 . S
C1281 C1280 1.287 . S
C1281 C1282 1.524 . S
C1281 H1284 0.999 . S
C1282 H1252 0.950 . S
C1282 C1281 1.524 . S
C1282 C1283 1.415 . S
C1283 H1253 0.950 . S
C1283 C1278 1.363 . S
C1283 C1282 1.415 . S
H1284 C1281 0.999 . S
H1285 C1266 0.913 . S
H1286 C1304 0.951 . S
H1287 C1306 0.951 . S
H1288 C1308 0.950 . S
H1289 C1309 0.950 . S
H1290 C1311 0.950 . S
H1291 C1314 0.950 1_554 S
H1292 C1315 0.950 . S
H1293 C1317 0.950 . S
H1294 C1318 0.950 . S
H1295 C1319 0.951 . S
H1296 C1321 0.951 . S
H1297 C1323 0.950 . S
H1298 C1324 0.950 . S
H1299 C1326 0.950 . S
H1300 C1329 0.950 . S
H1301 C1330 0.950 . S
H1302 C1332 0.950 . S
H1303 C1333 0.950 . S
C1304 H1286 0.951 . S
C1304 C1305 1.366 . S
C1304 C1306 1.388 . S
C1305 C1304 1.366 . S
C1305 C1309 1.385 . S
C1306 H1287 0.951 . S
C1306 C1304 1.388 . S
C1306 C1307 1.366 . S
C1307 C1306 1.366 . S
C1307 C1308 1.414 . S
C1307 C1310 1.499 1_455 S
C1308 H1288 0.950 . S
C1308 C1307 1.414 . S
C1308 C1309 1.374 . S
C1309 H1289 0.950 . S
C1309 C1305 1.385 . S
C1309 C1308 1.374 . S
C1310 C1307 1.499 1_655 S
C1310 C1311 1.373 . S
C1310 C1312 1.389 1_554 S
C1311 H1290 0.950 . S
C1311 C1310 1.373 . S
C1311 C1327 1.377 1_554 S
C1312 C1310 1.389 1_556 S
C1312 C1313 1.524 1_655 S
C1312 C1326 1.377 . S
C1313 C1312 1.524 1_455 S
C1313 C1314 1.397 . S
C1313 C1318 1.363 . S
C1314 H1291 0.950 1_556 S
C1314 C1313 1.397 . S
C1314 C1315 1.334 . S
C1315 H1292 0.950 . S
C1315 C1314 1.334 . S
C1315 C1316 1.287 . S
C1316 C1315 1.287 . S
C1316 C1317 1.524 . S
C1316 H1335 0.913 . S
C1317 H1293 0.950 . S
C1317 C1316 1.524 . S
C1317 C1318 1.415 . S
C1318 H1294 0.950 . S
C1318 C1313 1.363 . S
C1318 C1317 1.415 . S
C1319 H1295 0.951 . S
C1319 C1320 1.366 . S
C1319 C1321 1.388 . S
C1320 C1319 1.366 . S
C1320 C1324 1.385 . S
C1321 H1296 0.951 . S
C1321 C1319 1.388 . S
C1321 C1322 1.366 . S
C1322 C1321 1.366 . S
C1322 C1323 1.414 . S
C1322 C1325 1.499 . S
C1323 H1297 0.950 . S
C1323 C1322 1.414 . S
C1323 C1324 1.374 . S
C1324 H1298 0.950 . S
C1324 C1320 1.385 . S
C1324 C1323 1.374 . S
C1325 C1322 1.499 . S
C1325 C1326 1.373 . S
C1325 C1327 1.389 . S
C1326 H1299 0.950 . S
C1326 C1312 1.377 . S
C1326 C1325 1.373 . S
C1327 C1311 1.377 1_556 S
C1327 C1325 1.389 . S
C1327 C1328 1.524 . S
C1328 C1327 1.524 . S
C1328 C1329 1.397 . S
C1328 C1333 1.363 1_556 S
C1329 H1300 0.950 . S
C1329 C1328 1.397 . S
C1329 C1330 1.334 . S
C1330 H1301 0.950 . S
C1330 C1329 1.334 . S
C1330 C1331 1.288 1_556 S
C1331 C1330 1.288 1_554 S
C1331 C1332 1.524 . S
C1331 H1334 0.999 . S
C1332 H1302 0.950 . S
C1332 C1331 1.524 . S
C1332 C1333 1.415 . S
C1333 H1303 0.950 . S
C1333 C1328 1.363 1_554 S
C1333 C1332 1.415 . S
H1334 C1331 0.999 . S
H1335 C1316 0.913 . S
H1336 C1354 0.951 . S
H1337 C1356 0.951 . S
H1338 C1358 0.950 . S
H1339 C1359 0.950 . S
H1340 C1361 0.950 . S
H1341 C1364 0.950 . S
H1342 C1365 0.950 . S
H1343 C1367 0.950 . S
H1344 C1368 0.950 . S
H1345 C1369 0.951 . S
H1346 C1371 0.951 . S
H1347 C1373 0.950 . S
H1348 C1374 0.950 . S
H1349 C1376 0.950 . S
H1350 C1379 0.950 . S
H1351 C1380 0.950 . S
H1352 C1382 0.950 . S
H1353 C1383 0.950 . S
C1354 H1336 0.951 . S
C1354 C1355 1.366 . S
C1354 C1356 1.388 . S
C1355 C1354 1.366 . S
C1355 C1359 1.385 . S
C1356 H1337 0.951 . S
C1356 C1354 1.388 . S
C1356 C1357 1.366 . S
C1357 C1356 1.366 . S
C1357 C1358 1.414 . S
C1357 C1360 1.499 . S
C1358 H1338 0.950 . S
C1358 C1357 1.414 . S
C1358 C1359 1.374 . S
C1359 H1339 0.950 . S
C1359 C1355 1.385 . S
C1359 C1358 1.374 . S
C1360 C1357 1.499 . S
C1360 C1361 1.373 1_545 S
C1360 C1362 1.389 . S
C1361 H1340 0.950 . S
C1361 C1360 1.373 1_565 S
C1361 C1377 1.377 . S
C1362 C1360 1.389 . S
C1362 C1363 1.524 . S
C1362 C1376 1.377 1_545 S
C1363 C1362 1.524 . S
C1363 C1364 1.397 . S
C1363 C1368 1.363 . S
C1364 H1341 0.950 . S
C1364 C1363 1.397 . S
C1364 C1365 1.334 . S
C1365 H1342 0.950 . S
C1365 C1364 1.334 . S
C1365 C1366 1.287 . S
C1366 C1365 1.287 . S
C1366 C1367 1.524 . S
C1366 H1385 0.913 . S
C1367 H1343 0.950 . S
C1367 C1366 1.524 . S
C1367 C1368 1.415 . S
C1368 H1344 0.950 . S
C1368 C1363 1.363 . S
C1368 C1367 1.415 . S
C1369 H1345 0.951 . S
C1369 C1370 1.366 . S
C1369 C1371 1.388 . S
C1370 C1369 1.366 . S
C1370 C1374 1.385 . S
C1371 H1346 0.951 . S
C1371 C1369 1.388 . S
C1371 C1372 1.366 . S
C1372 C1371 1.366 . S
C1372 C1373 1.414 . S
C1372 C1375 1.499 . S
C1373 H1347 0.950 . S
C1373 C1372 1.414 . S
C1373 C1374 1.374 . S
C1374 H1348 0.950 . S
C1374 C1370 1.385 . S
C1374 C1373 1.374 . S
C1375 C1372 1.499 . S
C1375 C1376 1.373 . S
C1375 C1377 1.389 . S
C1376 H1349 0.950 . S
C1376 C1362 1.377 1_565 S
C1376 C1375 1.373 . S
C1377 C1361 1.377 . S
C1377 C1375 1.389 . S
C1377 C1378 1.524 . S
C1378 C1377 1.524 . S
C1378 C1379 1.397 . S
C1378 C1383 1.363 . S
C1379 H1350 0.950 . S
C1379 C1378 1.397 . S
C1379 C1380 1.334 . S
C1380 H1351 0.950 . S
C1380 C1379 1.334 . S
C1380 C1381 1.287 . S
C1381 C1380 1.287 . S
C1381 C1382 1.524 . S
C1381 H1384 0.999 . S
C1382 H1352 0.950 . S
C1382 C1381 1.524 . S
C1382 C1383 1.415 . S
C1383 H1353 0.950 . S
C1383 C1378 1.363 . S
C1383 C1382 1.415 . S
H1384 C1381 0.999 . S
H1385 C1366 0.913 . S
C205 C11 1.253 . S
C220 C148 1.288 . S
C255 C179 1.316 . S
C270 C49 1.301 . S
C305 C24 1.335 . S
C320 C80 1.322 . S
C355 C31 1.303 . S
C370 C104 1.273 . S
C405 C135 1.279 . S
C420 C62 1.298 . S
C455 C166 1.250 . S
C470 C117 1.269 . S
C505 C18 0.866 . S
C520 C124 0.883 . S
C555 C42 0.855 . S
C570 C155 0.867 . S
C605 C0 0.912 . S
C620 C73 0.901 . S
C655 C55 0.873 . S
C670 C111 0.856 . S
C705 C86 0.869 . S
C720 C142 0.859 . S
C755 C173 0.859 . S
C770 C93 0.874 . S
C805 C2 1.797 . S
C820 C165 1.846 . S
C855 C32 1.904 . S
C870 C10 1.853 . S
C905 C63 1.750 . S
C920 C58 1.653 . S
C955 C95 1.677 . S
C970 C89 1.685 . S
C1005 C103 1.682 . S
C1020 C126 1.626 . S
C1055 C157 1.540 . S
C1070 C134 1.585 . S
C1105 C120 1.350 . S
C1120 C64 1.317 . S
C1155 C151 1.450 . S
C1170 C94 1.353 . S
C1205 C182 1.533 . S
C1220 C125 1.444 . S
C1255 C156 1.254 . S
C1270 C27 1.314 . S
C1305 C1 1.161 . S
C1320 C41 1.162 . S
C1355 C33 1.371 . S
C1370 C72 1.330 . S
