# Generated by pormake.
# Topology wmc, (6)-cn, num edge types: 1
# Building blocks:
#     Node 0, Type 0, BuildingBlock: LEVNOQ01_clean_sbu_1, # of connection points: 6
#     Node 1, Type 0, BuildingBlock: LEVNOQ01_clean_sbu_1, # of connection points: 6
#     Node 2, Type 0, BuildingBlock: LEVNOQ01_clean_sbu_1, # of connection points: 6
#     Node 3, Type 0, BuildingBlock: LEVNOQ01_clean_sbu_1, # of connection points: 6
#     Node 4, Type 0, BuildingBlock: LEVNOQ01_clean_sbu_1, # of connection points: 6
#     Node 5, Type 0, BuildingBlock: LEVNOQ01_clean_sbu_1, # of connection points: 6
#     Node 6, Type 0, BuildingBlock: LEVNOQ01_clean_sbu_1, # of connection points: 6
#     Node 7, Type 0, BuildingBlock: LEVNOQ01_clean_sbu_1, # of connection points: 6
#     Node 8, Type 0, BuildingBlock: LEVNOQ01_clean_sbu_1, # of connection points: 6
#     Node 9, Type 0, BuildingBlock: LEVNOQ01_clean_sbu_1, # of connection points: 6
#     Node 10, Type 0, BuildingBlock: LEVNOQ01_clean_sbu_1, # of connection points: 6
#     Node 11, Type 0, BuildingBlock: LEVNOQ01_clean_sbu_1, # of connection points: 6
#     Node 12, Type 0, BuildingBlock: LEVNOQ01_clean_sbu_1, # of connection points: 6
#     Node 13, Type 0, BuildingBlock: LEVNOQ01_clean_sbu_1, # of connection points: 6
#     Node 14, Type 0, BuildingBlock: LEVNOQ01_clean_sbu_1, # of connection points: 6
#     Node 15, Type 0, BuildingBlock: LEVNOQ01_clean_sbu_1, # of connection points: 6
#     Node 16, Type 0, BuildingBlock: LEVNOQ01_clean_sbu_1, # of connection points: 6
#     Node 17, Type 0, BuildingBlock: LEVNOQ01_clean_sbu_1, # of connection points: 6
#     Edge 18, Type (0, 0), None
#     Edge 19, Type (0, 0), None
#     Edge 20, Type (0, 0), None
#     Edge 21, Type (0, 0), None
#     Edge 22, Type (0, 0), None
#     Edge 23, Type (0, 0), None
#     Edge 24, Type (0, 0), None
#     Edge 25, Type (0, 0), None
#     Edge 26, Type (0, 0), None
#     Edge 27, Type (0, 0), None
#     Edge 28, Type (0, 0), None
#     Edge 29, Type (0, 0), None
#     Edge 30, Type (0, 0), None
#     Edge 31, Type (0, 0), None
#     Edge 32, Type (0, 0), None
#     Edge 33, Type (0, 0), None
#     Edge 34, Type (0, 0), None
#     Edge 35, Type (0, 0), None
#     Edge 36, Type (0, 0), None
#     Edge 37, Type (0, 0), None
#     Edge 38, Type (0, 0), None
#     Edge 39, Type (0, 0), None
#     Edge 40, Type (0, 0), None
#     Edge 41, Type (0, 0), None
#     Edge 42, Type (0, 0), None
#     Edge 43, Type (0, 0), None
#     Edge 44, Type (0, 0), None
#     Edge 45, Type (0, 0), None
#     Edge 46, Type (0, 0), None
#     Edge 47, Type (0, 0), None
#     Edge 48, Type (0, 0), None
#     Edge 49, Type (0, 0), None
#     Edge 50, Type (0, 0), None
#     Edge 51, Type (0, 0), None
#     Edge 52, Type (0, 0), None
#     Edge 53, Type (0, 0), None
#     Edge 54, Type (0, 0), None
#     Edge 55, Type (0, 0), None
#     Edge 56, Type (0, 0), None
#     Edge 57, Type (0, 0), None
#     Edge 58, Type (0, 0), None
#     Edge 59, Type (0, 0), None
#     Edge 60, Type (0, 0), None
#     Edge 61, Type (0, 0), None
#     Edge 62, Type (0, 0), None
#     Edge 63, Type (0, 0), None
#     Edge 64, Type (0, 0), None
#     Edge 65, Type (0, 0), None
#     Edge 66, Type (0, 0), None
#     Edge 67, Type (0, 0), None
#     Edge 68, Type (0, 0), None
#     Edge 69, Type (0, 0), None
#     Edge 70, Type (0, 0), None
#     Edge 71, Type (0, 0), None
# Relax obj value: 0.347
# Max RMSD: 0.247
# Mean RMSD: 0.247
data_MOF--net-wmc--node1-LEVNOQ01_clean_sbu_1--edge1-none
_symmetry_space_group_name_H-M    P1
_symmetry_Int_Tables_number       1
_symmetry_cell_setting            triclinic
loop_
_symmetry_equiv_pos_as_xyz
'x, y, z'
_cell_length_a     21.462254
_cell_length_b     21.693918
_cell_length_c     15.311307
_cell_angle_alpha  89.989133
_cell_angle_beta   86.352935
_cell_angle_gamma 120.35038
loop_
_atom_site_label
_atom_site_type_symbol
_atom_site_fract_x
_atom_site_fract_y
_atom_site_fract_z
_atom_type_partial_charge
O0 O 0.63092 0.0998 0.76147 0.0
Mg1 Mg 0.61181 0.15909 0.85361 0.0
O2 O 0.52038 0.04996 0.82014 0.0
Mg3 Mg 0.52394 0.07656 -0.02636 0.0
O4 O 0.65882 0.17939 0.96916 0.0
O5 O 0.70641 0.24499 0.8409 0.0
O6 O 0.51032 0.08675 0.12587 0.0
O7 O 0.63774 0.11745 0.00755 0.0
Mg8 Mg 0.47947 -0.01558 0.0311 0.0
O9 O 0.403 0.00039 0.95882 0.0
O10 O 0.43759 0.97372 0.16366 0.0
O11 O 0.59296 0.00675 0.05426 0.0
O12 O 0.41386 0.90434 0.94819 0.0
C13 C 0.52046 0.2141 0.89375 0.0
C14 C 0.5645 0.0594 0.75483 0.0
C15 C 0.71257 0.23343 0.92126 0.0
C16 C 0.47317 0.03808 0.18544 0.0
C17 C 0.64653 0.07065 0.04692 0.0
C18 C 0.37971 0.93687 0.9292 0.0
O19 O 0.54476 0.19981 0.82442 0.0
O20 O 0.51156 0.17808 0.96373 0.0
O21 O 0.81775 0.47563 0.83017 0.0
Mg22 Mg 0.78951 0.40342 0.9338 0.0
O23 O 0.90997 0.47163 0.87621 0.0
Mg24 Mg 0.87764 0.42809 0.02794 0.0
O25 O 0.77199 0.44403 0.04854 0.0
O26 O 0.68245 0.35703 -0.02159 0.0
O27 O 0.85842 0.38654 0.1694 0.0
O28 O 0.83193 0.49678 0.0653 0.0
Mg29 Mg 0.96566 0.48652 0.06719 0.0
O30 O 0.95802 0.39553 -0.00689 0.0
O31 O 0.96928 0.45875 0.20166 0.0
O32 O 0.94598 0.57934 0.0635 0.0
O33 O 0.05077 0.5062 -0.02388 0.0
C34 C 0.78071 0.28477 0.95623 0.0
C35 C 0.88107 0.48648 0.81549 0.0
C36 C 0.70377 0.40929 0.0309 0.0
C37 C 0.90623 0.40755 0.22434 0.0
C38 C 0.8798 0.5624 0.07127 0.0
C39 C 0.02033 0.44035 0.95489 0.0
O40 O 0.82714 0.32975 0.90142 0.0
O41 O 0.77917 0.30938 0.02983 0.0
O42 O 0.56055 0.45441 0.78481 0.0
Mg43 Mg 0.56973 0.41584 0.90507 0.0
O44 O 0.45073 0.39879 0.84292 0.0
Mg45 Mg 0.51915 0.42123 0.969 0.0
O46 O 0.5014 0.30579 0.96005 0.0
O47 O 0.57641 0.33391 0.8425 0.0
O48 O 0.56109 0.44851 0.11294 0.0
O49 O 0.45188 0.30755 0.02125 0.0
Mg50 Mg 0.46979 0.45368 0.01988 0.0
O51 O 0.56249 0.53976 0.94481 0.0
O52 O 0.49003 0.49177 0.14714 0.0
O53 O 0.37763 0.34592 0.05667 0.0
O54 O 0.45141 0.52361 0.95171 0.0
C55 C 0.66928 0.45205 0.02133 0.0
C56 C 0.49421 0.42639 0.77504 0.0
C57 C 0.5301 0.28589 0.89744 0.0
C58 C 0.53838 0.47914 0.1678 0.0
C59 C 0.39333 0.29694 0.06117 0.0
C60 C 0.51994 0.56402 0.93091 0.0
O61 O 0.67641 0.47606 0.94436 0.0
O62 O 0.60835 0.43243 0.06309 0.0
O63 O 0.81846 0.33016 0.33018 0.0
Mg64 Mg 0.78996 0.37415 0.43354 0.0
O65 O 0.91042 0.42662 0.37616 0.0
Mg66 Mg 0.87768 0.4376 0.52786 0.0
O67 O 0.77203 0.31596 0.54831 0.0
O68 O 0.68278 0.31345 0.47751 0.0
O69 O 0.85808 0.45973 0.66927 0.0
O70 O 0.83197 0.32317 0.5651 0.0
Mg71 Mg 0.96557 0.46718 0.56732 0.0
O72 O 0.95796 0.55055 0.49321 0.0
O73 O 0.96888 0.49839 0.70181 0.0
O74 O 0.94603 0.35472 0.56359 0.0
O75 O 0.05079 0.53274 0.47643 0.0
C76 C 0.78088 0.48405 0.45566 0.0
C77 C 0.88168 0.38278 0.31552 0.0
C78 C 0.7039 0.28251 0.53029 0.0
C79 C 0.90578 0.48646 0.72434 0.0
C80 C 0.87987 0.30546 0.57119 0.0
C81 C 0.02032 0.56812 0.45512 0.0
O82 O 0.82728 0.48532 0.40096 0.0
O83 O 0.77923 0.45782 0.52928 0.0
O84 O 0.63067 0.5197 0.2615 0.0
Mg85 Mg 0.61204 0.44113 0.35321 0.0
O86 O 0.52015 0.45823 0.32007 0.0
Mg87 Mg 0.52401 0.43534 0.47349 0.0
O88 O 0.65899 0.46752 0.46875 0.0
O89 O 0.70691 0.45049 0.34009 0.0
O90 O 0.51056 0.41154 0.62576 0.0
O91 O 0.63781 0.50825 0.50736 0.0
Mg92 Mg 0.4795 0.48291 0.53107 0.0
O93 O 0.40303 0.3905 0.45883 0.0
O94 O 0.43769 0.45168 0.66363 0.0
O95 O 0.59297 0.57409 0.55418 0.0
O96 O 0.41382 0.49738 0.44826 0.0
C97 C 0.52087 0.29455 0.39335 0.0
C98 C 0.56419 0.49325 0.25485 0.0
C99 C 0.71288 0.46765 0.42063 0.0
C100 C 0.47339 0.423 0.68534 0.0
C101 C 0.64656 0.5638 0.54678 0.0
C102 C 0.37969 0.43071 0.42926 0.0
O103 O 0.54541 0.33328 0.3241 0.0
O104 O 0.51171 0.32151 0.46333 0.0
O105 O 0.56037 0.0937 0.28485 0.0
Mg106 Mg 0.56968 0.14176 0.40488 0.0
O107 O 0.45056 0.03983 0.34298 0.0
Mg108 Mg 0.51914 0.08594 0.46891 0.0
O109 O 0.50152 0.18371 0.45975 0.0
O110 O 0.57638 0.23031 0.34203 0.0
O111 O 0.56127 0.10078 0.61279 0.0
O112 O 0.45194 0.13246 0.52108 0.0
Mg113 Mg 0.46982 0.00416 0.52004 0.0
O114 O 0.56243 0.01071 0.44483 0.0
O115 O 0.49021 -0.01347 0.64734 0.0
O116 O 0.37769 0.01986 0.5566 0.0
O117 O 0.45138 0.91575 0.45208 0.0
C118 C 0.66936 0.20524 0.5209 0.0
C119 C 0.49401 0.05549 0.27512 0.0
C120 C 0.53022 0.23221 0.39702 0.0
C121 C 0.53863 0.04754 0.6678 0.0
C122 C 0.39338 0.08455 0.561 0.0
C123 C 0.51989 0.94388 0.4311 0.0
O124 O 0.67641 0.18824 0.44398 0.0
O125 O 0.60847 0.16402 0.56279 0.0
O126 O 0.29755 0.43289 0.09467 0.0
Mg127 Mg 0.27867 0.49241 0.18671 0.0
O128 O 0.18702 0.38337 0.15333 0.0
Mg129 Mg 0.1907 0.40997 0.30681 0.0
O130 O 0.32562 0.51276 0.30229 0.0
O131 O 0.3734 0.57813 0.1739 0.0
O132 O 0.17713 0.4202 0.45904 0.0
O133 O 0.30448 0.45082 0.34074 0.0
Mg134 Mg 0.14619 0.31786 0.3643 0.0
O135 O 0.06973 0.33384 0.29204 0.0
O136 O 0.10433 0.30719 0.49685 0.0
O137 O 0.25964 0.34011 0.38748 0.0
O138 O 0.08054 0.23776 0.28145 0.0
C139 C 0.18741 0.54759 0.22685 0.0
C140 C 0.23109 0.39266 0.08802 0.0
C141 C 0.37944 0.56671 0.25434 0.0
C142 C 0.13997 0.37155 0.51861 0.0
C143 C 0.31322 0.404 0.38015 0.0
C144 C 0.0464 0.27031 0.26247 0.0
O145 O 0.21182 0.53335 0.15756 0.0
O146 O 0.17838 0.51151 0.29682 0.0
O147 O 0.48455 0.80912 0.16358 0.0
Mg148 Mg 0.45627 0.73682 0.26713 0.0
O149 O 0.57672 0.80502 0.20958 0.0
Mg150 Mg 0.54433 0.76139 0.36132 0.0
O151 O 0.43865 0.77731 0.38191 0.0
O152 O 0.34918 0.6904 0.3116 0.0
O153 O 0.5251 0.7198 0.50278 0.0
O154 O 0.49858 0.83004 0.39874 0.0
Mg155 Mg 0.63234 0.81982 0.40059 0.0
O156 O 0.62472 0.72886 0.32648 0.0
O157 O 0.63595 0.79203 0.53505 0.0
O158 O 0.61262 0.91262 0.39696 0.0
O159 O 0.71746 0.83954 0.30951 0.0
C160 C 0.44752 0.61814 0.28938 0.0
C161 C 0.54785 0.81992 0.14888 0.0
C162 C 0.37046 0.74261 0.36415 0.0
C163 C 0.5729 0.74082 0.55773 0.0
C164 C 0.54644 0.89566 0.40477 0.0
C165 C 0.68703 0.7737 0.28826 0.0
O166 O 0.49392 0.66319 0.23463 0.0
O167 O 0.44588 0.64267 0.36301 0.0
O168 O 0.22731 0.78788 0.11804 0.0
Mg169 Mg 0.23651 0.74926 0.23827 0.0
O170 O 0.11748 0.73214 0.17612 0.0
Mg171 Mg 0.18588 0.7546 0.3022 0.0
O172 O 0.16822 0.63919 0.29318 0.0
O173 O 0.24324 0.66739 0.17561 0.0
O174 O 0.2278 0.78186 0.44616 0.0
O175 O 0.11865 0.64089 0.3544 0.0
Mg176 Mg 0.13646 0.78697 0.35306 0.0
O177 O 0.22916 0.87312 0.27807 0.0
O178 O 0.15663 0.825 0.48035 0.0
O179 O 0.04432 0.67918 0.38975 0.0
O180 O 0.11806 0.85692 0.28497 0.0
C181 C 0.336 0.7854 0.35458 0.0
C182 C 0.16097 0.7598 0.10826 0.0
C183 C 0.19695 0.61935 0.23054 0.0
C184 C 0.20503 0.81244 0.50102 0.0
C185 C 0.06007 0.63023 0.39426 0.0
C186 C 0.1866 0.89737 0.26421 0.0
O187 O 0.34317 0.80945 0.27762 0.0
O188 O 0.27507 0.7658 0.39632 0.0
O189 O 0.48513 0.66346 0.6636 0.0
Mg190 Mg 0.45665 0.7075 0.76691 0.0
O191 O 0.5771 0.75993 0.70955 0.0
Mg192 Mg 0.54435 0.77097 0.86124 0.0
O193 O 0.43868 0.64934 0.88172 0.0
O194 O 0.34946 0.64684 0.81086 0.0
O195 O 0.5248 0.79316 0.00266 0.0
O196 O 0.49862 0.65655 0.89856 0.0
Mg197 Mg 0.63224 0.80052 0.90068 0.0
O198 O 0.62466 0.88391 0.82657 0.0
O199 O 0.6356 0.83175 0.03517 0.0
O200 O 0.61267 0.68805 0.89697 0.0
O201 O 0.71747 0.86606 0.80979 0.0
C202 C 0.44765 0.81747 0.78892 0.0
C203 C 0.54835 0.71608 0.64891 0.0
C204 C 0.37057 0.61589 0.86365 0.0
C205 C 0.57252 0.81987 0.05772 0.0
C206 C 0.5465 0.63881 0.90463 0.0
C207 C 0.68701 0.90145 0.78848 0.0
O208 O 0.49404 0.81868 0.73426 0.0
O209 O 0.44593 0.79124 0.86255 0.0
O210 O 0.29734 0.85319 0.59472 0.0
Mg211 Mg 0.27887 0.77465 0.68638 0.0
O212 O 0.18684 0.79152 0.65329 0.0
Mg213 Mg 0.19075 0.76871 0.80671 0.0
O214 O 0.32576 0.80095 0.80195 0.0
O215 O 0.37382 0.78418 0.67322 0.0
O216 O 0.17733 0.74493 0.95898 0.0
O217 O 0.30453 0.84163 0.84061 0.0
Mg218 Mg 0.1462 0.81624 0.86429 0.0
O219 O 0.06975 0.72382 0.79206 0.0
O220 O 0.10439 0.785 -0.00316 0.0
O221 O 0.25965 0.90743 0.88747 0.0
O222 O 0.0805 0.83068 0.78151 0.0
C223 C 0.18774 0.62801 0.72651 0.0
C224 C 0.23084 0.8266 0.58807 0.0
C225 C 0.37971 0.80119 0.75382 0.0
C226 C 0.14014 0.75637 0.01856 0.0
C227 C 0.31325 0.89714 0.88009 0.0
C228 C 0.04638 0.76401 0.76252 0.0
O229 O 0.21235 0.66678 0.65729 0.0
O230 O 0.1785 0.65492 0.7965 0.0
O231 O 0.22716 0.42713 0.61805 0.0
Mg232 Mg 0.23646 0.47518 0.73809 0.0
O233 O 0.11734 0.37328 0.67615 0.0
Mg234 Mg 0.18587 0.41933 0.8021 0.0
O235 O 0.16831 0.51714 0.7929 0.0
O236 O 0.24322 0.56374 0.67521 0.0
O237 O 0.22793 0.43413 0.94601 0.0
O238 O 0.11869 0.4659 0.85421 0.0
Mg239 Mg 0.13649 0.33757 0.85317 0.0
O240 O 0.22912 0.34406 0.77806 0.0
O241 O 0.15678 0.31988 -0.0195 0.0
O242 O 0.04436 0.35329 0.88965 0.0
O243 O 0.11804 0.24914 0.78526 0.0
C244 C 0.33606 0.53863 0.85421 0.0
C245 C 0.16081 0.38894 0.60829 0.0
C246 C 0.19705 0.56565 0.73018 0.0
C247 C 0.20523 0.38087 0.00099 0.0
C248 C 0.0601 0.41798 0.89407 0.0
C249 C 0.18655 0.27723 0.76435 0.0
O250 O 0.34317 0.52166 0.77729 0.0
O251 O 0.27515 0.49738 0.89605 0.0
O252 O 0.96422 0.76619 0.42801 0.0
Mg253 Mg 0.94536 0.82572 0.52004 0.0
O254 O 0.8537 0.71668 0.48667 0.0
Mg255 Mg 0.85736 0.74325 0.64015 0.0
O256 O -0.00774 0.84605 0.63566 0.0
O257 O 0.04011 0.91145 0.50729 0.0
O258 O 0.84381 0.7535 0.79237 0.0
O259 O 0.97114 0.78408 0.67404 0.0
Mg260 Mg 0.81285 0.65111 0.69767 0.0
O261 O 0.73639 0.66708 0.6254 0.0
O262 O 0.77104 0.6405 0.83024 0.0
O263 O 0.92633 0.67338 0.72079 0.0
O264 O 0.74718 0.57099 0.61486 0.0
C265 C 0.85409 0.88089 0.56021 0.0
C266 C 0.89777 0.72597 0.42136 0.0
C267 C 0.04611 0.90001 0.58775 0.0
C268 C 0.80667 0.70487 0.85197 0.0
C269 C -0.0201 0.73728 0.71344 0.0
C270 C 0.71305 0.60354 0.59586 0.0
O271 O 0.87851 0.86667 0.49091 0.0
O272 O 0.84504 0.84479 0.63017 0.0
O273 O 0.15117 0.14245 0.49721 0.0
Mg274 Mg 0.1229 0.07013 0.60074 0.0
O275 O 0.24333 0.13829 0.54316 0.0
Mg276 Mg 0.21094 0.09464 0.6949 0.0
O277 O 0.10526 0.11057 0.71554 0.0
O278 O 0.01581 0.02366 0.64522 0.0
O279 O 0.19172 0.05306 0.83637 0.0
O280 O 0.16521 0.16332 0.73229 0.0
Mg281 Mg 0.29894 0.15309 0.7341 0.0
O282 O 0.29132 0.06209 0.66005 0.0
O283 O 0.30256 0.12539 0.8686 0.0
O284 O 0.27926 0.24591 0.73029 0.0
O285 O 0.38407 0.17276 0.64307 0.0
C286 C 0.11415 0.95143 0.62286 0.0
C287 C 0.21445 0.15322 0.48249 0.0
C288 C 0.03708 0.07587 0.69777 0.0
C289 C 0.23954 0.07415 0.89131 0.0
C290 C 0.21309 0.22896 0.73816 0.0
C291 C 0.35363 0.10691 0.62185 0.0
O292 O 0.16058 -0.00348 0.56815 0.0
O293 O 0.11248 0.97592 0.69651 0.0
O294 O 0.89403 0.1212 0.45146 0.0
Mg295 Mg 0.90322 0.08257 0.5717 0.0
O296 O 0.7842 0.06549 0.50953 0.0
Mg297 Mg 0.85258 0.08791 0.63562 0.0
O298 O 0.83491 0.97249 0.62657 0.0
O299 O 0.90997 0.00072 0.50904 0.0
O300 O 0.89441 0.11517 0.77963 0.0
O301 O 0.78535 0.9742 0.68777 0.0
Mg302 Mg 0.80316 0.12031 0.68641 0.0
O303 O 0.8959 0.20644 0.61145 0.0
O304 O 0.82329 0.15839 0.81369 0.0
O305 O 0.71103 0.01252 0.72311 0.0
O306 O 0.78479 0.19022 0.61818 0.0
C307 C 0.00264 0.11868 0.68813 0.0
C308 C 0.82769 0.09314 0.44167 0.0
C309 C 0.86366 0.95266 0.56394 0.0
C310 C 0.87165 0.14579 0.83443 0.0
C311 C 0.72677 0.96356 0.72762 0.0
C312 C 0.85334 0.23066 0.59747 0.0
O313 O 0.00986 0.14273 0.61116 0.0
O314 O 0.94169 0.09909 0.72983 0.0
O315 O 0.15181 -0.0032 -0.00278 0.0
Mg316 Mg 0.12332 0.04088 0.1005 0.0
O317 O 0.24374 0.09332 0.04312 0.0
Mg318 Mg 0.21095 0.10435 0.19482 0.0
O319 O 0.10528 0.98271 0.21531 0.0
O320 O 0.01612 0.98024 0.14437 0.0
O321 O 0.19138 0.12652 0.33625 0.0
O322 O 0.16523 -0.01008 0.2321 0.0
Mg323 Mg 0.29882 0.13388 0.23421 0.0
O324 O 0.29124 0.21729 0.16015 0.0
O325 O 0.30218 0.16504 0.36874 0.0
O326 O 0.27929 0.02143 0.23035 0.0
O327 O 0.38406 0.19946 0.14336 0.0
C328 C 0.11429 0.15085 0.12237 0.0
C329 C 0.21501 0.04944 -0.01749 0.0
C330 C 0.03719 0.94927 0.19717 0.0
C331 C 0.23911 0.15319 0.39131 0.0
C332 C 0.21312 0.97218 0.23806 0.0
C333 C 0.3536 0.23485 0.12206 0.0
O334 O 0.1607 0.15204 0.06775 0.0
O335 O 0.11253 0.12461 0.19603 0.0
O336 O 0.96394 0.18667 0.92816 0.0
Mg337 Mg 0.94557 0.10811 0.01975 0.0
O338 O 0.85344 0.12485 -0.01331 0.0
Mg339 Mg 0.8574 0.1021 0.14012 0.0
O340 O -0.00759 0.13434 0.13535 0.0
O341 O 0.04056 0.11774 0.00658 0.0
O342 O 0.84404 0.07832 0.29237 0.0
O343 O 0.97118 0.17504 0.17395 0.0
Mg344 Mg 0.81286 0.14963 0.19774 0.0
O345 O 0.7364 0.05721 0.12552 0.0
O346 O 0.77111 0.11839 0.33031 0.0
O347 O 0.92631 0.24085 0.22082 0.0
O348 O 0.74711 0.16406 0.11501 0.0
C349 C 0.85445 0.96143 0.05988 0.0
C350 C 0.89743 0.15998 0.92149 0.0
C351 C 0.04639 0.13464 0.08722 0.0
C352 C 0.80686 0.08976 0.35199 0.0
C353 C -0.02009 0.23057 0.2134 0.0
C354 C 0.713 0.09739 0.09601 0.0
O355 O 0.87909 0.00022 -0.00932 0.0
O356 O 0.84516 -0.01169 0.12987 0.0
O357 O 0.89386 0.76054 0.95139 0.0
Mg358 Mg 0.90316 0.8086 0.07143 0.0
O359 O 0.78404 0.70665 0.00949 0.0
Mg360 Mg 0.85256 0.75272 0.13544 0.0
O361 O 0.83499 0.85053 0.12625 0.0
O362 O 0.90993 0.89716 0.00858 0.0
O363 O 0.89458 0.76747 0.27937 0.0
O364 O 0.78537 0.79927 0.18754 0.0
Mg365 Mg 0.8032 0.67092 0.18649 0.0
O366 O 0.89583 0.67746 0.11136 0.0
O367 O 0.82349 0.6532 0.3138 0.0
O368 O 0.71108 0.68666 0.223 0.0
O369 O 0.78475 0.58254 0.11847 0.0
C370 C 0.00271 0.87201 0.18765 0.0
C371 C 0.82751 0.72232 0.94164 0.0
C372 C 0.86375 0.89906 0.06354 0.0
C373 C 0.87191 0.71419 0.33433 0.0
C374 C 0.7268 0.75135 0.22742 0.0
C375 C 0.85327 0.61065 0.09758 0.0
O376 O 0.00985 0.8551 0.11071 0.0
O377 O 0.94179 0.83072 0.22945 0.0
loop_
_geom_bond_atom_site_label_1
_geom_bond_atom_site_label_2
_geom_bond_distance
_geom_bond_site_symmetry_2
_ccdc_geom_bond_type
O0 Mg1 1.990 . S
O0 C14 1.253 . S
Mg1 O0 1.990 . S
Mg1 O4 2.180 1_556 S
Mg1 O5 2.117 . S
Mg1 O19 2.030 . S
O2 Mg3 2.072 1_556 S
O2 C14 1.260 . S
Mg3 O2 2.072 1_554 S
Mg3 O4 2.099 . S
Mg3 O6 2.079 . S
Mg3 O7 2.072 . S
Mg3 O9 2.099 . S
Mg3 O20 2.079 . S
O4 Mg1 2.180 1_554 S
O4 Mg3 2.099 . S
O4 C15 1.279 1_554 S
O5 Mg1 2.117 . S
O5 C15 1.250 . S
O6 Mg3 2.079 . S
O6 C16 1.264 . S
O7 Mg3 2.072 . S
O7 C17 1.260 . S
Mg8 O9 2.180 1_565 S
Mg8 O10 2.030 1_565 S
Mg8 O11 1.990 . S
Mg8 O12 2.117 . S
O9 Mg3 2.099 . S
O9 Mg8 2.180 1_545 S
O9 C18 1.279 1_544 S
O10 Mg8 2.030 1_545 S
O10 C16 1.248 . S
O11 Mg8 1.990 . S
O11 C17 1.253 1_565 S
O12 Mg8 2.117 . S
O12 C18 1.250 1_554 S
C13 O19 1.248 . S
C13 O20 1.264 1_556 S
C14 O0 1.253 . S
C14 O2 1.260 . S
C15 O4 1.279 1_556 S
C15 O5 1.250 . S
C16 O6 1.264 . S
C16 O10 1.248 . S
C17 O7 1.260 . S
C17 O11 1.253 1_545 S
C18 O9 1.279 1_566 S
C18 O12 1.250 1_556 S
O19 Mg1 2.030 . S
O19 C13 1.248 . S
O20 Mg3 2.079 . S
O20 C13 1.264 1_554 S
O21 Mg22 1.990 . S
O21 C35 1.253 . S
Mg22 O21 1.990 . S
Mg22 O25 2.180 1_556 S
Mg22 O26 2.117 . S
Mg22 O40 2.030 . S
O23 Mg24 2.072 1_556 S
O23 C35 1.260 . S
Mg24 O23 2.072 1_554 S
Mg24 O25 2.099 . S
Mg24 O27 2.079 . S
Mg24 O28 2.072 . S
Mg24 O30 2.099 . S
Mg24 O41 2.079 . S
O25 Mg22 2.180 1_554 S
O25 Mg24 2.099 . S
O25 C36 1.279 1_554 S
O26 Mg22 2.117 . S
O26 C36 1.250 . S
O27 Mg24 2.079 . S
O27 C37 1.264 . S
O28 Mg24 2.072 . S
O28 C38 1.260 . S
Mg29 O30 2.180 1_455 S
Mg29 O31 2.030 1_455 S
Mg29 O32 1.990 . S
Mg29 O33 2.117 . S
O30 Mg24 2.099 . S
O30 Mg29 2.180 1_655 S
O30 C39 1.279 1_654 S
O31 Mg29 2.030 1_655 S
O31 C37 1.248 . S
O32 Mg29 1.990 . S
O32 C38 1.253 1_455 S
O33 Mg29 2.117 . S
O33 C39 1.250 1_554 S
C34 O40 1.248 . S
C34 O41 1.264 1_556 S
C35 O21 1.253 . S
C35 O23 1.260 . S
C36 O25 1.279 1_556 S
C36 O26 1.250 . S
C37 O27 1.264 . S
C37 O31 1.248 . S
C38 O28 1.260 . S
C38 O32 1.253 1_655 S
C39 O30 1.279 1_456 S
C39 O33 1.250 1_556 S
O40 Mg22 2.030 . S
O40 C34 1.248 . S
O41 Mg24 2.079 . S
O41 C34 1.264 1_554 S
O42 Mg43 1.990 . S
O42 C56 1.253 . S
Mg43 O42 1.990 . S
Mg43 O46 2.180 1_556 S
Mg43 O47 2.117 . S
Mg43 O61 2.030 . S
O44 Mg45 2.072 1_556 S
O44 C56 1.260 . S
Mg45 O44 2.072 1_554 S
Mg45 O46 2.099 . S
Mg45 O48 2.079 . S
Mg45 O49 2.072 . S
Mg45 O51 2.099 . S
Mg45 O62 2.079 . S
O46 Mg43 2.180 1_554 S
O46 Mg45 2.099 . S
O46 C57 1.279 1_554 S
O47 Mg43 2.117 . S
O47 C57 1.250 . S
O48 Mg45 2.079 . S
O48 C58 1.264 . S
O49 Mg45 2.072 . S
O49 C59 1.260 . S
Mg50 O51 2.180 . S
Mg50 O52 2.030 . S
Mg50 O53 1.990 . S
Mg50 O54 2.117 . S
O51 Mg45 2.099 . S
O51 Mg50 2.180 . S
O51 C60 1.279 1_554 S
O52 Mg50 2.030 . S
O52 C58 1.248 . S
O53 Mg50 1.990 . S
O53 C59 1.253 . S
O54 Mg50 2.117 . S
O54 C60 1.250 1_554 S
C55 O61 1.248 . S
C55 O62 1.264 1_556 S
C56 O42 1.253 . S
C56 O44 1.260 . S
C57 O46 1.279 1_556 S
C57 O47 1.250 . S
C58 O48 1.264 . S
C58 O52 1.248 . S
C59 O49 1.260 . S
C59 O53 1.253 . S
C60 O51 1.279 1_556 S
C60 O54 1.250 1_556 S
O61 Mg43 2.030 . S
O61 C55 1.248 . S
O62 Mg45 2.079 . S
O62 C55 1.264 1_554 S
O63 Mg64 1.990 . S
O63 C77 1.253 . S
Mg64 O63 1.990 . S
Mg64 O67 2.180 . S
Mg64 O68 2.117 . S
Mg64 O82 2.030 . S
O65 Mg66 2.072 . S
O65 C77 1.260 . S
Mg66 O65 2.072 . S
Mg66 O67 2.099 . S
Mg66 O69 2.079 . S
Mg66 O70 2.072 . S
Mg66 O72 2.099 . S
Mg66 O83 2.079 . S
O67 Mg64 2.180 . S
O67 Mg66 2.099 . S
O67 C78 1.279 . S
O68 Mg64 2.117 . S
O68 C78 1.250 . S
O69 Mg66 2.079 . S
O69 C79 1.264 . S
O70 Mg66 2.072 . S
O70 C80 1.260 . S
Mg71 O72 2.180 1_455 S
Mg71 O73 2.030 1_455 S
Mg71 O74 1.990 . S
Mg71 O75 2.117 . S
O72 Mg66 2.099 . S
O72 Mg71 2.180 1_655 S
O72 C81 1.279 1_655 S
O73 Mg71 2.030 1_655 S
O73 C79 1.248 . S
O74 Mg71 1.990 . S
O74 C80 1.253 1_455 S
O75 Mg71 2.117 . S
O75 C81 1.250 . S
C76 O82 1.248 . S
C76 O83 1.264 . S
C77 O63 1.253 . S
C77 O65 1.260 . S
C78 O67 1.279 . S
C78 O68 1.250 . S
C79 O69 1.264 . S
C79 O73 1.248 . S
C80 O70 1.260 . S
C80 O74 1.253 1_655 S
C81 O72 1.279 1_455 S
C81 O75 1.250 . S
O82 Mg64 2.030 . S
O82 C76 1.248 . S
O83 Mg66 2.079 . S
O83 C76 1.264 . S
O84 Mg85 1.990 . S
O84 C98 1.253 . S
Mg85 O84 1.990 . S
Mg85 O88 2.180 . S
Mg85 O89 2.117 . S
Mg85 O103 2.030 . S
O86 Mg87 2.072 . S
O86 C98 1.260 . S
Mg87 O86 2.072 . S
Mg87 O88 2.099 . S
Mg87 O90 2.079 . S
Mg87 O91 2.072 . S
Mg87 O93 2.099 . S
Mg87 O104 2.079 . S
O88 Mg85 2.180 . S
O88 Mg87 2.099 . S
O88 C99 1.279 . S
O89 Mg85 2.117 . S
O89 C99 1.250 . S
O90 Mg87 2.079 . S
O90 C100 1.264 . S
O91 Mg87 2.072 . S
O91 C101 1.260 . S
Mg92 O93 2.180 . S
Mg92 O94 2.030 . S
Mg92 O95 1.990 . S
Mg92 O96 2.117 . S
O93 Mg87 2.099 . S
O93 Mg92 2.180 . S
O93 C102 1.279 . S
O94 Mg92 2.030 . S
O94 C100 1.248 . S
O95 Mg92 1.990 . S
O95 C101 1.253 . S
O96 Mg92 2.117 . S
O96 C102 1.250 . S
C97 O103 1.248 . S
C97 O104 1.264 . S
C98 O84 1.253 . S
C98 O86 1.260 . S
C99 O88 1.279 . S
C99 O89 1.250 . S
C100 O90 1.264 . S
C100 O94 1.248 . S
C101 O91 1.260 . S
C101 O95 1.253 . S
C102 O93 1.279 . S
C102 O96 1.250 . S
O103 Mg85 2.030 . S
O103 C97 1.248 . S
O104 Mg87 2.079 . S
O104 C97 1.264 . S
O105 Mg106 1.990 . S
O105 C119 1.253 . S
Mg106 O105 1.990 . S
Mg106 O109 2.180 . S
Mg106 O110 2.117 . S
Mg106 O124 2.030 . S
O107 Mg108 2.072 . S
O107 C119 1.260 . S
Mg108 O107 2.072 . S
Mg108 O109 2.099 . S
Mg108 O111 2.079 . S
Mg108 O112 2.072 . S
Mg108 O114 2.099 . S
Mg108 O125 2.079 . S
O109 Mg106 2.180 . S
O109 Mg108 2.099 . S
O109 C120 1.279 . S
O110 Mg106 2.117 . S
O110 C120 1.250 . S
O111 Mg108 2.079 . S
O111 C121 1.264 . S
O112 Mg108 2.072 . S
O112 C122 1.260 . S
Mg113 O114 2.180 1_565 S
Mg113 O115 2.030 1_565 S
Mg113 O116 1.990 . S
Mg113 O117 2.117 . S
O114 Mg108 2.099 . S
O114 Mg113 2.180 1_545 S
O114 C123 1.279 1_545 S
O115 Mg113 2.030 1_545 S
O115 C121 1.248 . S
O116 Mg113 1.990 . S
O116 C122 1.253 1_565 S
O117 Mg113 2.117 . S
O117 C123 1.250 . S
C118 O124 1.248 . S
C118 O125 1.264 . S
C119 O105 1.253 . S
C119 O107 1.260 . S
C120 O109 1.279 . S
C120 O110 1.250 . S
C121 O111 1.264 . S
C121 O115 1.248 . S
C122 O112 1.260 . S
C122 O116 1.253 1_545 S
C123 O114 1.279 1_565 S
C123 O117 1.250 . S
O124 Mg106 2.030 . S
O124 C118 1.248 . S
O125 Mg108 2.079 . S
O125 C118 1.264 . S
O126 Mg127 1.990 . S
O126 C140 1.253 . S
Mg127 O126 1.990 . S
Mg127 O130 2.180 . S
Mg127 O131 2.117 . S
Mg127 O145 2.030 . S
O128 Mg129 2.072 . S
O128 C140 1.260 . S
Mg129 O128 2.072 . S
Mg129 O130 2.099 . S
Mg129 O132 2.079 . S
Mg129 O133 2.072 . S
Mg129 O135 2.099 . S
Mg129 O146 2.079 . S
O130 Mg127 2.180 . S
O130 Mg129 2.099 . S
O130 C141 1.279 . S
O131 Mg127 2.117 . S
O131 C141 1.250 . S
O132 Mg129 2.079 . S
O132 C142 1.264 . S
O133 Mg129 2.072 . S
O133 C143 1.260 . S
Mg134 O135 2.180 . S
Mg134 O136 2.030 . S
Mg134 O137 1.990 . S
Mg134 O138 2.117 . S
O135 Mg129 2.099 . S
O135 Mg134 2.180 . S
O135 C144 1.279 . S
O136 Mg134 2.030 . S
O136 C142 1.248 . S
O137 Mg134 1.990 . S
O137 C143 1.253 . S
O138 Mg134 2.117 . S
O138 C144 1.250 . S
C139 O145 1.248 . S
C139 O146 1.264 . S
C140 O126 1.253 . S
C140 O128 1.260 . S
C141 O130 1.279 . S
C141 O131 1.250 . S
C142 O132 1.264 . S
C142 O136 1.248 . S
C143 O133 1.260 . S
C143 O137 1.253 . S
C144 O135 1.279 . S
C144 O138 1.250 . S
O145 Mg127 2.030 . S
O145 C139 1.248 . S
O146 Mg129 2.079 . S
O146 C139 1.264 . S
O147 Mg148 1.990 . S
O147 C161 1.253 . S
Mg148 O147 1.990 . S
Mg148 O151 2.180 . S
Mg148 O152 2.117 . S
Mg148 O166 2.030 . S
O149 Mg150 2.072 . S
O149 C161 1.260 . S
Mg150 O149 2.072 . S
Mg150 O151 2.099 . S
Mg150 O153 2.079 . S
Mg150 O154 2.072 . S
Mg150 O156 2.099 . S
Mg150 O167 2.079 . S
O151 Mg148 2.180 . S
O151 Mg150 2.099 . S
O151 C162 1.279 . S
O152 Mg148 2.117 . S
O152 C162 1.250 . S
O153 Mg150 2.079 . S
O153 C163 1.264 . S
O154 Mg150 2.072 . S
O154 C164 1.260 . S
Mg155 O156 2.180 . S
Mg155 O157 2.030 . S
Mg155 O158 1.990 . S
Mg155 O159 2.117 . S
O156 Mg150 2.099 . S
O156 Mg155 2.180 . S
O156 C165 1.279 . S
O157 Mg155 2.030 . S
O157 C163 1.248 . S
O158 Mg155 1.990 . S
O158 C164 1.253 . S
O159 Mg155 2.117 . S
O159 C165 1.250 . S
C160 O166 1.248 . S
C160 O167 1.264 . S
C161 O147 1.253 . S
C161 O149 1.260 . S
C162 O151 1.279 . S
C162 O152 1.250 . S
C163 O153 1.264 . S
C163 O157 1.248 . S
C164 O154 1.260 . S
C164 O158 1.253 . S
C165 O156 1.279 . S
C165 O159 1.250 . S
O166 Mg148 2.030 . S
O166 C160 1.248 . S
O167 Mg150 2.079 . S
O167 C160 1.264 . S
O168 Mg169 1.990 . S
O168 C182 1.253 . S
Mg169 O168 1.990 . S
Mg169 O172 2.180 . S
Mg169 O173 2.117 . S
Mg169 O187 2.030 . S
O170 Mg171 2.072 . S
O170 C182 1.260 . S
Mg171 O170 2.072 . S
Mg171 O172 2.099 . S
Mg171 O174 2.079 . S
Mg171 O175 2.072 . S
Mg171 O177 2.099 . S
Mg171 O188 2.079 . S
O172 Mg169 2.180 . S
O172 Mg171 2.099 . S
O172 C183 1.279 . S
O173 Mg169 2.117 . S
O173 C183 1.250 . S
O174 Mg171 2.079 . S
O174 C184 1.264 . S
O175 Mg171 2.072 . S
O175 C185 1.260 . S
Mg176 O177 2.180 . S
Mg176 O178 2.030 . S
Mg176 O179 1.990 . S
Mg176 O180 2.117 . S
O177 Mg171 2.099 . S
O177 Mg176 2.180 . S
O177 C186 1.279 . S
O178 Mg176 2.030 . S
O178 C184 1.248 . S
O179 Mg176 1.990 . S
O179 C185 1.253 . S
O180 Mg176 2.117 . S
O180 C186 1.250 . S
C181 O187 1.248 . S
C181 O188 1.264 . S
C182 O168 1.253 . S
C182 O170 1.260 . S
C183 O172 1.279 . S
C183 O173 1.250 . S
C184 O174 1.264 . S
C184 O178 1.248 . S
C185 O175 1.260 . S
C185 O179 1.253 . S
C186 O177 1.279 . S
C186 O180 1.250 . S
O187 Mg169 2.030 . S
O187 C181 1.248 . S
O188 Mg171 2.079 . S
O188 C181 1.264 . S
O189 Mg190 1.990 . S
O189 C203 1.253 . S
Mg190 O189 1.990 . S
Mg190 O193 2.180 . S
Mg190 O194 2.117 . S
Mg190 O208 2.030 . S
O191 Mg192 2.072 . S
O191 C203 1.260 . S
Mg192 O191 2.072 . S
Mg192 O193 2.099 . S
Mg192 O195 2.079 . S
Mg192 O196 2.072 . S
Mg192 O198 2.099 . S
Mg192 O209 2.079 . S
O193 Mg190 2.180 . S
O193 Mg192 2.099 . S
O193 C204 1.279 . S
O194 Mg190 2.117 . S
O194 C204 1.250 . S
O195 Mg192 2.079 . S
O195 C205 1.264 1_556 S
O196 Mg192 2.072 . S
O196 C206 1.260 . S
Mg197 O198 2.180 . S
Mg197 O199 2.030 1_556 S
Mg197 O200 1.990 . S
Mg197 O201 2.117 . S
O198 Mg192 2.099 . S
O198 Mg197 2.180 . S
O198 C207 1.279 . S
O199 Mg197 2.030 1_554 S
O199 C205 1.248 . S
O200 Mg197 1.990 . S
O200 C206 1.253 . S
O201 Mg197 2.117 . S
O201 C207 1.250 . S
C202 O208 1.248 . S
C202 O209 1.264 . S
C203 O189 1.253 . S
C203 O191 1.260 . S
C204 O193 1.279 . S
C204 O194 1.250 . S
C205 O195 1.264 1_554 S
C205 O199 1.248 . S
C206 O196 1.260 . S
C206 O200 1.253 . S
C207 O198 1.279 . S
C207 O201 1.250 . S
O208 Mg190 2.030 . S
O208 C202 1.248 . S
O209 Mg192 2.079 . S
O209 C202 1.264 . S
O210 Mg211 1.990 . S
O210 C224 1.253 . S
Mg211 O210 1.990 . S
Mg211 O214 2.180 . S
Mg211 O215 2.117 . S
Mg211 O229 2.030 . S
O212 Mg213 2.072 . S
O212 C224 1.260 . S
Mg213 O212 2.072 . S
Mg213 O214 2.099 . S
Mg213 O216 2.079 . S
Mg213 O217 2.072 . S
Mg213 O219 2.099 . S
Mg213 O230 2.079 . S
O214 Mg211 2.180 . S
O214 Mg213 2.099 . S
O214 C225 1.279 . S
O215 Mg211 2.117 . S
O215 C225 1.250 . S
O216 Mg213 2.079 . S
O216 C226 1.264 1_556 S
O217 Mg213 2.072 . S
O217 C227 1.260 . S
Mg218 O219 2.180 . S
Mg218 O220 2.030 1_556 S
Mg218 O221 1.990 . S
Mg218 O222 2.117 . S
O219 Mg213 2.099 . S
O219 Mg218 2.180 . S
O219 C228 1.279 . S
O220 Mg218 2.030 1_554 S
O220 C226 1.248 . S
O221 Mg218 1.990 . S
O221 C227 1.253 . S
O222 Mg218 2.117 . S
O222 C228 1.250 . S
C223 O229 1.248 . S
C223 O230 1.264 . S
C224 O210 1.253 . S
C224 O212 1.260 . S
C225 O214 1.279 . S
C225 O215 1.250 . S
C226 O216 1.264 1_554 S
C226 O220 1.248 . S
C227 O217 1.260 . S
C227 O221 1.253 . S
C228 O219 1.279 . S
C228 O222 1.250 . S
O229 Mg211 2.030 . S
O229 C223 1.248 . S
O230 Mg213 2.079 . S
O230 C223 1.264 . S
O231 Mg232 1.990 . S
O231 C245 1.253 . S
Mg232 O231 1.990 . S
Mg232 O235 2.180 . S
Mg232 O236 2.117 . S
Mg232 O250 2.030 . S
O233 Mg234 2.072 . S
O233 C245 1.260 . S
Mg234 O233 2.072 . S
Mg234 O235 2.099 . S
Mg234 O237 2.079 . S
Mg234 O238 2.072 . S
Mg234 O240 2.099 . S
Mg234 O251 2.079 . S
O235 Mg232 2.180 . S
O235 Mg234 2.099 . S
O235 C246 1.279 . S
O236 Mg232 2.117 . S
O236 C246 1.250 . S
O237 Mg234 2.079 . S
O237 C247 1.264 1_556 S
O238 Mg234 2.072 . S
O238 C248 1.260 . S
Mg239 O240 2.180 . S
Mg239 O241 2.030 1_556 S
Mg239 O242 1.990 . S
Mg239 O243 2.117 . S
O240 Mg234 2.099 . S
O240 Mg239 2.180 . S
O240 C249 1.279 . S
O241 Mg239 2.030 1_554 S
O241 C247 1.248 . S
O242 Mg239 1.990 . S
O242 C248 1.253 . S
O243 Mg239 2.117 . S
O243 C249 1.250 . S
C244 O250 1.248 . S
C244 O251 1.264 . S
C245 O231 1.253 . S
C245 O233 1.260 . S
C246 O235 1.279 . S
C246 O236 1.250 . S
C247 O237 1.264 1_554 S
C247 O241 1.248 . S
C248 O238 1.260 . S
C248 O242 1.253 . S
C249 O240 1.279 . S
C249 O243 1.250 . S
O250 Mg232 2.030 . S
O250 C244 1.248 . S
O251 Mg234 2.079 . S
O251 C244 1.264 . S
O252 Mg253 1.990 . S
O252 C266 1.253 . S
Mg253 O252 1.990 . S
Mg253 O256 2.180 1_655 S
Mg253 O257 2.117 1_655 S
Mg253 O271 2.030 . S
O254 Mg255 2.072 . S
O254 C266 1.260 . S
Mg255 O254 2.072 . S
Mg255 O256 2.099 1_655 S
Mg255 O258 2.079 . S
Mg255 O259 2.072 1_655 S
Mg255 O261 2.099 . S
Mg255 O272 2.079 . S
O256 Mg253 2.180 1_455 S
O256 Mg255 2.099 1_455 S
O256 C267 1.279 . S
O257 Mg253 2.117 1_455 S
O257 C267 1.250 . S
O258 Mg255 2.079 . S
O258 C268 1.264 . S
O259 Mg255 2.072 1_455 S
O259 C269 1.260 . S
Mg260 O261 2.180 . S
Mg260 O262 2.030 . S
Mg260 O263 1.990 . S
Mg260 O264 2.117 . S
O261 Mg255 2.099 . S
O261 Mg260 2.180 . S
O261 C270 1.279 . S
O262 Mg260 2.030 . S
O262 C268 1.248 . S
O263 Mg260 1.990 . S
O263 C269 1.253 1_655 S
O264 Mg260 2.117 . S
O264 C270 1.250 . S
C265 O271 1.248 . S
C265 O272 1.264 . S
C266 O252 1.253 . S
C266 O254 1.260 . S
C267 O256 1.279 . S
C267 O257 1.250 . S
C268 O258 1.264 . S
C268 O262 1.248 . S
C269 O259 1.260 . S
C269 O263 1.253 1_455 S
C270 O261 1.279 . S
C270 O264 1.250 . S
O271 Mg253 2.030 . S
O271 C265 1.248 . S
O272 Mg255 2.079 . S
O272 C265 1.264 . S
O273 Mg274 1.990 . S
O273 C287 1.253 . S
Mg274 O273 1.990 . S
Mg274 O277 2.180 . S
Mg274 O278 2.117 . S
Mg274 O292 2.030 1_545 S
O275 Mg276 2.072 . S
O275 C287 1.260 . S
Mg276 O275 2.072 . S
Mg276 O277 2.099 . S
Mg276 O279 2.079 . S
Mg276 O280 2.072 . S
Mg276 O282 2.099 . S
Mg276 O293 2.079 . S
O277 Mg274 2.180 . S
O277 Mg276 2.099 . S
O277 C288 1.279 . S
O278 Mg274 2.117 . S
O278 C288 1.250 . S
O279 Mg276 2.079 . S
O279 C289 1.264 . S
O280 Mg276 2.072 . S
O280 C290 1.260 . S
Mg281 O282 2.180 . S
Mg281 O283 2.030 . S
Mg281 O284 1.990 . S
Mg281 O285 2.117 . S
O282 Mg276 2.099 . S
O282 Mg281 2.180 . S
O282 C291 1.279 . S
O283 Mg281 2.030 . S
O283 C289 1.248 . S
O284 Mg281 1.990 . S
O284 C290 1.253 . S
O285 Mg281 2.117 . S
O285 C291 1.250 . S
C286 O292 1.248 . S
C286 O293 1.264 1_565 S
C287 O273 1.253 . S
C287 O275 1.260 . S
C288 O277 1.279 . S
C288 O278 1.250 . S
C289 O279 1.264 . S
C289 O283 1.248 . S
C290 O280 1.260 . S
C290 O284 1.253 . S
C291 O282 1.279 . S
C291 O285 1.250 . S
O292 Mg274 2.030 1_565 S
O292 C286 1.248 . S
O293 Mg276 2.079 . S
O293 C286 1.264 1_545 S
O294 Mg295 1.990 . S
O294 C308 1.253 . S
Mg295 O294 1.990 . S
Mg295 O298 2.180 1_545 S
Mg295 O299 2.117 1_545 S
Mg295 O313 2.030 1_655 S
O296 Mg297 2.072 . S
O296 C308 1.260 . S
Mg297 O296 2.072 . S
Mg297 O298 2.099 1_545 S
Mg297 O300 2.079 . S
Mg297 O301 2.072 1_545 S
Mg297 O303 2.099 . S
Mg297 O314 2.079 . S
O298 Mg295 2.180 1_565 S
O298 Mg297 2.099 1_565 S
O298 C309 1.279 . S
O299 Mg295 2.117 1_565 S
O299 C309 1.250 . S
O300 Mg297 2.079 . S
O300 C310 1.264 . S
O301 Mg297 2.072 1_565 S
O301 C311 1.260 . S
Mg302 O303 2.180 . S
Mg302 O304 2.030 . S
Mg302 O305 1.990 . S
Mg302 O306 2.117 . S
O303 Mg297 2.099 . S
O303 Mg302 2.180 . S
O303 C312 1.279 . S
O304 Mg302 2.030 . S
O304 C310 1.248 . S
O305 Mg302 1.990 . S
O305 C311 1.253 1_545 S
O306 Mg302 2.117 . S
O306 C312 1.250 . S
C307 O313 1.248 . S
C307 O314 1.264 1_455 S
C308 O294 1.253 . S
C308 O296 1.260 . S
C309 O298 1.279 . S
C309 O299 1.250 . S
C310 O300 1.264 . S
C310 O304 1.248 . S
C311 O301 1.260 . S
C311 O305 1.253 1_565 S
C312 O303 1.279 . S
C312 O306 1.250 . S
O313 Mg295 2.030 1_455 S
O313 C307 1.248 . S
O314 Mg297 2.079 . S
O314 C307 1.264 1_655 S
O315 Mg316 1.990 1_556 S
O315 C329 1.253 . S
Mg316 O315 1.990 1_554 S
Mg316 O319 2.180 1_545 S
Mg316 O320 2.117 1_545 S
Mg316 O334 2.030 . S
O317 Mg318 2.072 . S
O317 C329 1.260 1_554 S
Mg318 O317 2.072 . S
Mg318 O319 2.099 1_545 S
Mg318 O321 2.079 . S
Mg318 O322 2.072 1_545 S
Mg318 O324 2.099 . S
Mg318 O335 2.079 . S
O319 Mg316 2.180 1_565 S
O319 Mg318 2.099 1_565 S
O319 C330 1.279 . S
O320 Mg316 2.117 1_565 S
O320 C330 1.250 . S
O321 Mg318 2.079 . S
O321 C331 1.264 . S
O322 Mg318 2.072 1_565 S
O322 C332 1.260 . S
Mg323 O324 2.180 . S
Mg323 O325 2.030 . S
Mg323 O326 1.990 . S
Mg323 O327 2.117 . S
O324 Mg318 2.099 . S
O324 Mg323 2.180 . S
O324 C333 1.279 . S
O325 Mg323 2.030 . S
O325 C331 1.248 . S
O326 Mg323 1.990 . S
O326 C332 1.253 1_545 S
O327 Mg323 2.117 . S
O327 C333 1.250 . S
C328 O334 1.248 . S
C328 O335 1.264 . S
C329 O315 1.253 . S
C329 O317 1.260 1_556 S
C330 O319 1.279 . S
C330 O320 1.250 . S
C331 O321 1.264 . S
C331 O325 1.248 . S
C332 O322 1.260 . S
C332 O326 1.253 1_565 S
C333 O324 1.279 . S
C333 O327 1.250 . S
O334 Mg316 2.030 . S
O334 C328 1.248 . S
O335 Mg318 2.079 . S
O335 C328 1.264 . S
O336 Mg337 1.990 1_556 S
O336 C350 1.253 . S
Mg337 O336 1.990 1_554 S
Mg337 O340 2.180 1_655 S
Mg337 O341 2.117 1_655 S
Mg337 O355 2.030 1_545 S
O338 Mg339 2.072 . S
O338 C350 1.260 1_554 S
Mg339 O338 2.072 . S
Mg339 O340 2.099 1_655 S
Mg339 O342 2.079 . S
Mg339 O343 2.072 1_655 S
Mg339 O345 2.099 . S
Mg339 O356 2.079 . S
O340 Mg337 2.180 1_455 S
O340 Mg339 2.099 1_455 S
O340 C351 1.279 . S
O341 Mg337 2.117 1_455 S
O341 C351 1.250 . S
O342 Mg339 2.079 . S
O342 C352 1.264 . S
O343 Mg339 2.072 1_455 S
O343 C353 1.260 . S
Mg344 O345 2.180 . S
Mg344 O346 2.030 . S
Mg344 O347 1.990 . S
Mg344 O348 2.117 . S
O345 Mg339 2.099 . S
O345 Mg344 2.180 . S
O345 C354 1.279 . S
O346 Mg344 2.030 . S
O346 C352 1.248 . S
O347 Mg344 1.990 . S
O347 C353 1.253 1_655 S
O348 Mg344 2.117 . S
O348 C354 1.250 . S
C349 O355 1.248 . S
C349 O356 1.264 1_565 S
C350 O336 1.253 . S
C350 O338 1.260 1_556 S
C351 O340 1.279 . S
C351 O341 1.250 . S
C352 O342 1.264 . S
C352 O346 1.248 . S
C353 O343 1.260 . S
C353 O347 1.253 1_455 S
C354 O345 1.279 . S
C354 O348 1.250 . S
O355 Mg337 2.030 1_565 S
O355 C349 1.248 . S
O356 Mg339 2.079 . S
O356 C349 1.264 1_545 S
O357 Mg358 1.990 1_556 S
O357 C371 1.253 . S
Mg358 O357 1.990 1_554 S
Mg358 O361 2.180 . S
Mg358 O362 2.117 . S
Mg358 O376 2.030 1_655 S
O359 Mg360 2.072 . S
O359 C371 1.260 1_554 S
Mg360 O359 2.072 . S
Mg360 O361 2.099 . S
Mg360 O363 2.079 . S
Mg360 O364 2.072 . S
Mg360 O366 2.099 . S
Mg360 O377 2.079 . S
O361 Mg358 2.180 . S
O361 Mg360 2.099 . S
O361 C372 1.279 . S
O362 Mg358 2.117 . S
O362 C372 1.250 . S
O363 Mg360 2.079 . S
O363 C373 1.264 . S
O364 Mg360 2.072 . S
O364 C374 1.260 . S
Mg365 O366 2.180 . S
Mg365 O367 2.030 . S
Mg365 O368 1.990 . S
Mg365 O369 2.117 . S
O366 Mg360 2.099 . S
O366 Mg365 2.180 . S
O366 C375 1.279 . S
O367 Mg365 2.030 . S
O367 C373 1.248 . S
O368 Mg365 1.990 . S
O368 C374 1.253 . S
O369 Mg365 2.117 . S
O369 C375 1.250 . S
C370 O376 1.248 . S
C370 O377 1.264 1_455 S
C371 O357 1.253 . S
C371 O359 1.260 1_556 S
C372 O361 1.279 . S
C372 O362 1.250 . S
C373 O363 1.264 . S
C373 O367 1.248 . S
C374 O364 1.260 . S
C374 O368 1.253 . S
C375 O366 1.279 . S
C375 O369 1.250 . S
O376 Mg358 2.030 1_455 S
O376 C370 1.248 . S
O377 Mg360 2.079 . S
O377 C370 1.264 1_655 S
C13 C57 1.095 . S
C15 C34 1.095 . S
C55 C36 1.095 . S
C99 C76 1.095 . S
C120 C97 1.095 . S
C118 C78 1.095 . S
C183 C139 1.095 . S
C160 C141 1.095 . S
C162 C181 1.095 . S
C202 C225 1.095 . S
C246 C223 1.095 . S
C244 C204 1.095 . S
C309 C265 1.095 . S
C286 C267 1.095 . S
C307 C288 1.095 . S
C328 C351 1.095 . S
C372 C349 1.095 . S
C330 C370 1.095 . S
C119 C16 1.790 . S
C77 C37 1.790 . S
C98 C58 1.790 . S
C35 C79 1.790 . S
C100 C56 1.790 . S
C14 C121 1.790 . S
C142 C245 1.790 . S
C163 C203 1.790 . S
C224 C184 1.790 . S
C205 C161 1.790 . S
C226 C182 1.790 . S
C247 C140 1.790 . S
C268 C371 1.789 . S
C289 C329 1.790 . S
C310 C350 1.790 . S
C331 C287 1.790 . S
C352 C308 1.790 . S
C373 C266 1.789 . S
C227 C18 2.839 . S
C39 C248 2.839 . S
C206 C60 2.840 . S
C81 C185 2.840 . S
C102 C143 2.839 . S
C164 C123 2.839 . S
C144 C353 2.840 . S
C165 C374 2.839 . S
C186 C332 2.840 . S
C311 C207 2.840 . S
C269 C228 2.840 . S
C290 C249 2.839 . S
C101 C270 2.839 . S
C291 C122 2.839 . S
C80 C312 2.839 . S
C333 C59 2.840 . S
C354 C17 2.840 . S
C38 C375 2.839 . S
