# Generated by pormake.
# Topology uom, (4)-cn, num edge types: 1
# Building blocks:
#     Node 0, Type 0, BuildingBlock: NAWXER_clean_sbu_0, # of connection points: 4
#     Node 1, Type 0, BuildingBlock: NAWXER_clean_sbu_0, # of connection points: 4
#     Node 2, Type 0, BuildingBlock: NAWXER_clean_sbu_0, # of connection points: 4
#     Node 3, Type 0, BuildingBlock: NAWXER_clean_sbu_0, # of connection points: 4
#     Node 4, Type 0, BuildingBlock: NAWXER_clean_sbu_0, # of connection points: 4
#     Node 5, Type 0, BuildingBlock: NAWXER_clean_sbu_0, # of connection points: 4
#     Edge 6, Type (0, 0), BuildingBlock: FUNLAD_clean_linker_1, # of connection points: 2
#     Edge 7, Type (0, 0), BuildingBlock: FUNLAD_clean_linker_1, # of connection points: 2
#     Edge 8, Type (0, 0), BuildingBlock: FUNLAD_clean_linker_1, # of connection points: 2
#     Edge 9, Type (0, 0), BuildingBlock: FUNLAD_clean_linker_1, # of connection points: 2
#     Edge 10, Type (0, 0), BuildingBlock: FUNLAD_clean_linker_1, # of connection points: 2
#     Edge 11, Type (0, 0), BuildingBlock: FUNLAD_clean_linker_1, # of connection points: 2
#     Edge 12, Type (0, 0), BuildingBlock: FUNLAD_clean_linker_1, # of connection points: 2
#     Edge 13, Type (0, 0), BuildingBlock: FUNLAD_clean_linker_1, # of connection points: 2
#     Edge 14, Type (0, 0), BuildingBlock: FUNLAD_clean_linker_1, # of connection points: 2
#     Edge 15, Type (0, 0), BuildingBlock: FUNLAD_clean_linker_1, # of connection points: 2
#     Edge 16, Type (0, 0), BuildingBlock: FUNLAD_clean_linker_1, # of connection points: 2
#     Edge 17, Type (0, 0), BuildingBlock: FUNLAD_clean_linker_1, # of connection points: 2
# Relax obj value: 0.104
# Max RMSD: 0.115
# Mean RMSD: 0.115
data_MOF--net-uom--node1-NAWXER_clean_sbu_0--edge1-FUNLAD_clean_linker_1
_symmetry_space_group_name_H-M    P1
_symmetry_Int_Tables_number       1
_symmetry_cell_setting            triclinic
loop_
_symmetry_equiv_pos_as_xyz
'x, y, z'
_cell_length_a     29.776303
_cell_length_b     30.363905
_cell_length_c     39.666832
_cell_angle_alpha  90.355471
_cell_angle_beta   89.789524
_cell_angle_gamma 120.45664
loop_
_atom_site_label
_atom_site_type_symbol
_atom_site_fract_x
_atom_site_fract_y
_atom_site_fract_z
_atom_type_partial_charge
C0 C 0.27002 0.97845 1.00851 0.0
C1 C 0.28199 0.06049 0.1182 0.0
O2 O 0.2965 0.02743 1.00774 0.0
Zn3 Zn 0.3223 0.09125 0.04199 0.0
O4 O 0.25218 0.95576 0.03648 0.0
Zn5 Zn 0.27856 0.01702 0.06423 0.0
O6 O 0.23436 0.04758 0.04338 0.0
O7 O 0.28723 0.12433 1.02238 0.0
O8 O 0.26227 0.01305 0.11224 0.0
O9 O 0.30536 0.09262 0.09443 0.0
O10 O 0.39757 0.12341 0.03978 0.0
O11 O 0.36015 0.04632 0.06197 0.0
C12 C 0.24131 0.08748 1.02792 0.0
C13 C 0.40121 0.08679 0.052 0.0
C14 C 0.37774 0.38024 0.39212 0.0
C15 C 0.23788 0.2088 0.41711 0.0
O16 O 0.38048 0.34377 0.40539 0.0
Zn17 Zn 0.30818 0.2919 0.40229 0.0
O18 O 0.33392 0.37261 0.38112 0.0
Zn19 Zn 0.2557 0.30916 0.37797 0.0
O20 O 0.21518 0.33203 0.40314 0.0
O21 O 0.26834 0.31914 0.4349 0.0
O22 O 0.22303 0.23497 0.40017 0.0
O23 O 0.28593 0.22665 0.42331 0.0
O24 O 0.29496 0.26939 0.35003 0.0
O25 O 0.24188 0.29352 0.33015 0.0
C26 C 0.23296 0.33118 0.43212 0.0
C27 C 0.26842 0.27192 0.32552 0.0
C28 C 0.00543 0.26314 0.6459 0.0
C29 C 0.93166 0.22479 0.76027 0.0
O30 O 0.95772 0.23614 0.65408 0.0
Zn31 Zn 0.96639 0.24389 0.70277 0.0
O32 O 0.03994 0.28498 0.66902 0.0
Zn33 Zn 0.0427 0.29066 0.72308 0.0
O34 O 0.08516 0.26133 0.73457 0.0
O35 O 0.00785 0.20526 0.71405 0.0
O36 O 0.98118 0.25494 0.75967 0.0
O37 O 0.90673 0.20856 0.7327 0.0
O38 O 0.98879 0.32197 0.71096 0.0
O39 O 0.06881 0.36244 0.73149 0.0
C40 C 0.05205 0.21569 0.72616 0.0
C41 C 0.02831 0.36293 0.72205 0.0
C42 C 0.6981 0.00014 0.04505 0.0
C43 C 0.85712 -0.00241 1.02007 0.0
O44 O 0.7387 0.03717 0.05879 0.0
Zn45 Zn 0.81953 0.06326 0.06312 0.0
O46 O 0.70164 0.96576 1.02891 0.0
Zn47 Zn 0.77605 0.99431 1.03375 0.0
O48 O 0.78667 0.98187 0.08522 0.0
O49 O 0.83111 0.05644 0.111 0.0
O50 O 0.81152 0.9633 1.01108 0.0
O51 O 0.86344 0.03442 0.03922 0.0
O52 O 0.85084 0.12961 0.04101 0.0
O53 O 0.80773 0.06437 1.00615 0.0
C54 C 0.80849 0.00792 0.11185 0.0
C55 C 0.83558 0.11267 1.01126 0.0
C56 C 0.87796 0.88658 0.42704 0.0
C57 C 0.7369 0.71696 0.39752 0.0
O58 O 0.83156 0.86579 0.43819 0.0
Zn59 Zn 0.80673 0.80419 0.41124 0.0
O60 O 0.88993 0.86444 0.40403 0.0
Zn61 Zn 0.85474 0.79418 0.37594 0.0
O62 O 0.85909 0.81789 0.32984 0.0
O63 O 0.80846 0.83405 0.36191 0.0
O64 O 0.77836 0.72869 0.3808 0.0
O65 O 0.73623 0.74935 0.41756 0.0
O66 O 0.85528 0.7767 0.43202 0.0
O67 O 0.9008 0.77017 0.3902 0.0
C68 C 0.83026 0.83729 0.33339 0.0
C69 C 0.8902 0.76697 0.42149 0.0
C70 C 0.06248 0.7175 0.73031 0.0
C71 C 0.04031 0.86611 0.73432 0.0
O72 O 0.02495 0.7197 0.74399 0.0
Zn73 Zn 0.04849 0.79013 0.73263 0.0
O74 O 0.09879 0.75658 0.71525 0.0
Zn75 Zn 0.11961 0.83322 0.70434 0.0
O76 O 0.18531 0.87259 0.72872 0.0
O77 O 0.11735 0.83136 0.76235 0.0
O78 O 0.08115 0.87367 0.71843 0.0
O79 O 0.00924 0.82235 0.74663 0.0
O80 O 0.03879 0.78706 0.67928 0.0
O81 O 0.11559 0.83316 0.65495 0.0
C82 C 0.16647 0.86119 0.75837 0.0
C83 C 0.06635 0.8046 0.65257 0.0
H84 H 0.26137 0.0513 0.17261 0.0
C85 C 0.27707 0.07864 0.15212 0.0
H86 H 0.30714 0.15527 0.13747 0.0
H87 H 0.18745 0.15342 0.27966 0.0
H88 H 0.10725 0.09217 0.25184 0.0
H89 H 0.10878 0.05711 0.19589 0.0
H90 H 0.19064 0.08243 0.16763 0.0
C91 C 0.29066 0.12772 0.15782 0.0
C92 C 0.28859 0.14804 0.19191 0.0
C93 C 0.24024 0.13416 0.20761 0.0
C94 C 0.23924 0.15619 0.23931 0.0
C95 C 0.19052 0.13957 0.25509 0.0
C96 C 0.14413 0.10413 0.23948 0.0
C97 C 0.14501 0.08429 0.208 0.0
C98 C 0.19234 0.09899 0.19213 0.0
H99 H 0.24882 0.25579 0.27126 0.0
C100 C 0.26719 0.24839 0.29237 0.0
H101 H 0.30536 0.20992 0.30901 0.0
H102 H 0.38787 0.18228 0.16947 0.0
H103 H 0.46795 0.24578 0.19635 0.0
H104 H 0.46608 0.28655 0.24989 0.0
H105 H 0.38414 0.26393 0.27698 0.0
C106 C 0.28642 0.21696 0.28808 0.0
C107 C 0.28648 0.19369 0.25468 0.0
C108 C 0.3347 0.20757 0.23891 0.0
C109 C 0.33575 0.18466 0.20768 0.0
C110 C 0.38465 0.19899 0.19287 0.0
C111 C 0.43099 0.2353 0.20808 0.0
C112 C 0.42994 0.25818 0.23825 0.0
C113 C 0.38255 0.24468 0.25358 0.0
H114 H 0.23139 0.34461 0.4866 0.0
C115 C 0.20944 0.33739 0.46335 0.0
H116 H 0.13556 0.31381 0.44243 0.0
H117 H 0.02932 0.1969 0.5788 0.0
H118 H 0.00584 0.12666 0.54005 0.0
H119 H 0.03846 0.14251 0.48158 0.0
H120 H 0.09691 0.22856 0.46203 0.0
C121 C 0.1593 0.32522 0.4651 0.0
C122 C 0.13281 0.31695 0.49851 0.0
C123 C 0.09709 0.26645 0.50929 0.0
C124 C 0.07634 0.25748 0.54265 0.0
C125 C 0.04424 0.20632 0.55339 0.0
C126 C 0.03078 0.16547 0.53146 0.0
C127 C 0.0494 0.17435 0.4986 0.0
C128 C 0.08273 0.22405 0.48765 0.0
H129 H 0.99104 0.25486 0.59074 0.0
C130 C 0.0212 0.26917 0.60994 0.0
H131 H 0.10178 0.30606 0.61994 0.0
H132 H 0.19548 0.41837 0.48465 0.0
H133 H 0.21632 0.48941 0.52241 0.0
H134 H 0.17876 0.47441 0.57961 0.0
H135 H 0.12027 0.38843 0.59947 0.0
C136 C 0.07165 0.29098 0.6007 0.0
C137 C 0.08945 0.29934 0.56475 0.0
C138 C 0.12339 0.34996 0.55334 0.0
C139 C 0.14514 0.35872 0.5203 0.0
C140 C 0.17862 0.40962 0.50965 0.0
C141 C 0.19066 0.45074 0.53099 0.0
C142 C 0.1695 0.44229 0.5632 0.0
C143 C 0.13615 0.39265 0.57433 0.0
H144 H 0.88328 0.18734 0.9857 0.0
C145 C 0.85412 0.14736 0.98188 0.0
H146 H 0.81047 0.08877 0.94634 0.0
H147 H 0.85462 0.24686 0.82759 0.0
H148 H 0.77802 0.24526 0.85026 0.0
H149 H 0.74031 0.20376 0.90467 0.0
H150 H 0.77953 0.16421 0.93704 0.0
C151 C 0.83943 0.12875 0.95036 0.0
C152 C 0.86542 0.15895 0.91964 0.0
C153 C 0.84174 0.18119 0.90077 0.0
C154 C 0.86284 0.20409 0.86898 0.0
C155 C 0.83938 0.22761 0.85133 0.0
C156 C 0.79556 0.22724 0.86417 0.0
C157 C 0.77435 0.20392 0.89483 0.0
C158 C 0.7971 0.18123 0.91308 0.0
H159 H 0.86449 0.1754 0.79319 0.0
C160 C 0.90457 0.20686 0.79303 0.0
H161 H 0.96994 0.25762 0.82215 0.0
H162 H 0.92128 0.12102 0.9499 0.0
H163 H 0.99764 0.12225 0.92734 0.0
H164 H 0.03268 0.15929 0.87155 0.0
H165 H 0.99223 0.19628 0.83821 0.0
C166 C 0.92956 0.22677 0.82239 0.0
C167 C 0.90691 0.20352 0.85575 0.0
C168 C 0.93116 0.18204 0.875 0.0
C169 C 0.91051 0.15993 0.90699 0.0
C170 C 0.93523 0.13829 0.92545 0.0
C171 C 0.97903 0.13855 0.91277 0.0
C172 C 0.99887 0.15958 0.88141 0.0
C173 C 0.97534 0.18096 0.86259 0.0
H174 H 0.7899 0.93859 0.13986 0.0
C175 C 0.80874 0.97991 0.14218 0.0
H176 H 0.85319 0.04349 0.17384 0.0
H177 H 0.74367 0.82454 0.26449 0.0
H178 H 0.66051 0.81358 0.2477 0.0
H179 H 0.65609 0.87637 0.21081 0.0
H180 H 0.73492 0.94948 0.18954 0.0
C181 C 0.83238 0.00214 0.1714 0.0
C182 C 0.83499 0.97078 0.19961 0.0
C183 C 0.78867 0.93043 0.21404 0.0
C184 C 0.79132 0.89646 0.23752 0.0
C185 C 0.7442 0.85349 0.2485 0.0
C186 C 0.69608 0.84639 0.23875 0.0
C187 C 0.69358 0.88156 0.21783 0.0
C188 C 0.73917 0.92312 0.20555 0.0
H189 H 0.80199 0.88558 0.31197 0.0
C190 C 0.82357 0.86644 0.30603 0.0
H191 H 0.86715 0.85409 0.26913 0.0
H192 H 0.93156 0.04448 0.17773 0.0
H193 H 0.01489 0.05963 0.19804 0.0
H194 H 0.01956 0.00585 0.24262 0.0
H195 H 0.94103 0.93602 0.26673 0.0
C196 C 0.84407 0.87168 0.275 0.0
C197 C 0.84046 0.90551 0.24905 0.0
C198 C 0.88681 0.94738 0.23586 0.0
C199 C 0.8841 0.97949 0.21083 0.0
C200 C 0.93116 0.01957 0.19724 0.0
C201 C 0.97936 0.02869 0.20863 0.0
C202 C 0.98201 -0.00163 0.23369 0.0
C203 C 0.93649 0.95821 0.24723 0.0
H204 H 0.99626 0.7697 0.62101 0.0
C205 C 0.03857 0.79256 0.61999 0.0
H206 H 0.10355 0.83264 0.58763 0.0
H207 H 0.94178 0.68977 0.47008 0.0
H208 H 0.98899 0.64492 0.47787 0.0
H209 H 0.0553 0.67108 0.52253 0.0
H210 H 0.07443 0.74214 0.55998 0.0
C211 C 0.06144 0.81003 0.58993 0.0
C212 C 0.02825 0.80002 0.55942 0.0
C213 C 0.0191 0.76005 0.53675 0.0
C214 C 0.98179 0.7459 0.51032 0.0
C215 C 0.97105 0.70352 0.48964 0.0
C216 C 0.99758 0.67711 0.49404 0.0
C217 C 0.03484 0.69176 0.51924 0.0
C218 C 0.04545 0.73256 0.54054 0.0
H219 H 0.96236 0.76927 0.43762 0.0
C220 C 0.92458 0.76215 0.44625 0.0
H221 H 0.87622 0.75164 0.4878 0.0
H222 H 0.03934 0.88084 0.59695 0.0
H223 H 0.99172 0.92544 0.58983 0.0
H224 H 0.92836 0.90234 0.54373 0.0
H225 H 0.91275 0.83531 0.50405 0.0
C226 C 0.91386 0.75797 0.4795 0.0
C227 C 0.95491 0.77299 0.50594 0.0
C228 C 0.96545 0.81416 0.52809 0.0
C229 C 0.002 0.82756 0.55479 0.0
C230 C 0.01136 0.86851 0.5766 0.0
C231 C 0.98466 0.89477 0.57266 0.0
C232 C 0.94901 0.88179 0.54667 0.0
C233 C 0.93998 0.84265 0.52426 0.0
H234 H 0.22739 0.90868 0.97694 0.0
C235 C 0.2562 0.94921 0.97645 0.0
H236 H 0.30261 0.01367 0.9462 0.0
H237 H 0.22742 0.8243 0.83419 0.0
H238 H 0.27705 0.79648 0.86722 0.0
H239 H 0.31705 0.83846 0.92128 0.0
H240 H 0.30722 0.90808 0.94291 0.0
C241 C 0.27478 0.97287 0.94668 0.0
C242 C 0.2522 0.94761 0.91366 0.0
C243 C 0.25918 0.9076 0.90112 0.0
C244 C 0.23698 0.88402 0.86957 0.0
C245 C 0.24368 0.84359 0.85791 0.0
C246 C 0.27214 0.82736 0.87656 0.0
C247 C 0.29462 0.85097 0.90703 0.0
C248 C 0.28846 0.89072 0.91925 0.0
H249 H 0.24037 0.914 0.78495 0.0
C250 C 0.19985 0.88458 0.78842 0.0
H251 H 0.13892 0.84347 0.82336 0.0
H252 H 0.23269 0.02451 0.92956 0.0
H253 H 0.18604 0.05403 0.89543 0.0
H254 H 0.14815 0.0134 0.84069 0.0
H255 H 0.15789 0.94366 0.81938 0.0
C256 C 0.17959 0.87239 0.81973 0.0
C257 C 0.20865 0.901 0.85038 0.0
C258 C 0.20297 0.94197 0.86241 0.0
C259 C 0.2248 0.96534 0.89401 0.0
C260 C 0.21767 0.00569 0.90556 0.0
C261 C 0.19058 0.02284 0.88632 0.0
C262 C 0.16933 2e-05 0.85548 0.0
C263 C 0.17521 0.95999 0.84357 0.0
H264 H 0.19845 0.12659 1.0132 0.0
C265 C 0.19513 0.08976 1.01753 0.0
H266 H 0.14534 0.00954 1.01983 0.0
H267 H 0.9622 0.03884 0.07545 0.0
H268 H 0.00544 0.04684 0.12871 0.0
H269 H 0.092 0.05459 0.13035 0.0
H270 H 0.1358 0.05452 0.07874 0.0
C271 C 0.14855 0.04643 1.0159 0.0
C272 C 0.09908 0.04656 1.01428 0.0
C273 C 0.07422 0.04676 0.04475 0.0
C274 C 0.02451 0.04237 0.0438 0.0
C275 C 0.00028 0.0425 0.07463 0.0
C276 C 0.02458 0.0469 0.10544 0.0
C277 C 0.07326 0.05121 0.10636 0.0
C278 C 0.09796 0.0511 0.07649 0.0
H279 H 0.90011 0.95942 1.00283 0.0
C280 C 0.90366 -0.00427 1.00974 0.0
H281 H 0.95384 0.07462 1.01888 0.0
H282 H 0.13632 0.04417 0.95165 0.0
H283 H 0.09283 0.03584 0.8982 0.0
H284 H 0.0061 0.02788 0.89658 0.0
H285 H 0.96245 0.02837 0.9483 0.0
C286 C 0.9507 0.03845 1.01193 0.0
C287 C -0.00021 0.03748 1.01239 0.0
C288 C 0.02436 0.03675 0.98196 0.0
C289 C 0.07427 0.04134 0.98291 0.0
C290 C 0.09833 0.04073 0.95223 0.0
C291 C 0.07382 0.03601 0.92145 0.0
C292 C 0.02503 0.0316 0.92052 0.0
C293 C 0.00038 0.03193 0.95037 0.0
H294 H 0.9102 0.96525 0.44715 0.0
C295 C 0.91929 0.93607 0.43992 0.0
H296 H 0.97709 0.91652 0.43163 0.0
H297 H 0.13597 0.12923 0.37088 0.0
H298 H 0.0945 0.08306 0.31954 0.0
H299 H 0.01539 -0.00233 0.32171 0.0
H300 H 0.97732 0.95821 0.37527 0.0
C301 C 0.96875 0.9463 0.43881 0.0
C302 C 0.01331 -0.00093 0.43821 0.0
C303 C 0.03523 0.02116 0.40659 0.0
C304 C 0.08076 0.07007 0.40534 0.0
C305 C 0.1015 0.09189 0.37341 0.0
C306 C 0.07806 0.06582 0.34366 0.0
C307 C 0.03357 0.01777 0.34489 0.0
C308 C 0.01221 -0.00448 0.37587 0.0
H309 H 0.20745 0.1283 0.43204 0.0
C310 C 0.19805 0.1583 0.42921 0.0
H311 H 0.14021 0.1791 0.43166 0.0
H312 H 0.97955 0.96769 0.50237 0.0
H313 H 0.02104 0.01382 0.55411 0.0
H314 H 0.10168 0.0982 0.552 0.0
H315 H 0.14103 0.13693 0.49822 0.0
C316 C 0.14922 0.14871 0.43388 0.0
C317 C 0.10449 0.09622 0.43572 0.0
C318 C 0.08263 0.07421 0.46729 0.0
C319 C 0.03654 0.02554 0.46853 0.0
C320 C 0.01487 0.00437 0.50026 0.0
C321 C 0.03825 0.03051 0.53002 0.0
C322 C 0.08363 0.07803 0.52883 0.0
C323 C 0.10579 0.09983 0.49787 0.0
H324 H 0.10227 0.18383 0.73918 0.0
C325 C 0.06384 0.17436 0.73042 0.0
H326 H 0.98967 0.11583 0.71401 0.0
H327 H 0.06661 0.96786 0.66455 0.0
H328 H 0.06622 0.00641 0.6113 0.0
H329 H 0.05236 0.07985 0.60944 0.0
H330 H 0.04011 0.116 0.66089 0.0
C331 C 0.02783 0.12554 0.72347 0.0
C332 C 0.03946 0.08355 0.72525 0.0
C333 C 0.04634 0.06275 0.69494 0.0
C334 C 0.05438 0.0205 0.69607 0.0
C335 C 0.06099 0.00037 0.66531 0.0
C336 C 0.06051 0.0219 0.63449 0.0
C337 C 0.05282 0.06331 0.63343 0.0
C338 C 0.04573 0.08361 0.66319 0.0
H339 H 0.99241 0.90077 0.74753 0.0
C340 C 0.02983 0.90852 0.7377 0.0
H341 H 0.10292 0.96371 0.71791 0.0
H342 H 0.02588 0.11353 0.78788 0.0
H343 H 0.03058 0.07794 0.84143 0.0
H344 H 0.04808 0.00671 0.84353 0.0
H345 H 0.06083 0.97075 0.79227 0.0
C346 C 0.06579 0.95614 0.72819 0.0
C347 C 0.05534 -0.00096 0.72755 0.0
C348 C 0.04945 0.0205 0.75794 0.0
C349 C 0.04083 0.06248 0.75675 0.0
C350 C 0.03353 0.0823 0.78736 0.0
C351 C 0.03604 0.06217 0.81828 0.0
C352 C 0.04586 0.02209 0.81948 0.0
C353 C 0.05273 0.00149 0.78978 0.0
H354 H 0.614 0.96762 0.03479 0.0
C355 C 0.64824 -0.00052 0.04629 0.0
H356 H 0.67916 0.07055 0.07158 0.0
H357 H 0.47313 0.05453 0.99635 0.0
H358 H 0.51926 0.06292 0.94418 0.0
H359 H 0.60239 0.06346 0.94413 0.0
H360 H 0.63917 0.05441 0.9962 0.0
C361 C 0.64538 0.03889 0.05956 0.0
C362 C 0.59644 0.04069 0.0594 0.0
C363 C 0.57662 0.0481 1.02882 0.0
C364 C 0.52999 0.05027 1.02904 0.0
C365 C 0.50945 0.05469 0.99791 0.0
C366 C 0.53539 0.05924 0.96769 0.0
C367 C 0.58208 0.05936 0.96765 0.0
C368 C 0.60264 0.05387 0.99775 0.0
H369 H 0.48677 0.12418 0.04537 0.0
C370 C 0.4519 0.08908 0.05282 0.0
H371 H 0.42026 0.01251 0.06851 0.0
H372 H 0.62448 0.02685 0.12236 0.0
H373 H 0.58023 0.02182 0.17492 0.0
H374 H 0.50127 0.02891 0.17559 0.0
H375 H 0.46599 0.04091 0.12371 0.0
C376 C 0.45486 0.04753 0.06061 0.0
C377 C 0.50467 0.04733 0.06004 0.0
C378 C 0.52505 0.04082 0.09063 0.0
C379 C 0.57092 0.0374 0.09029 0.0
C380 C 0.59008 0.03028 0.12119 0.0
C381 C 0.565 0.02722 0.15155 0.0
C382 C 0.52051 0.03114 0.15192 0.0
C383 C 0.5006 0.03788 0.12193 0.0
H384 H 0.69506 0.63769 0.37849 0.0
C385 C 0.69093 0.66543 0.3936 0.0
H386 H 0.64052 0.67882 0.42384 0.0
H387 H 0.48668 0.46419 0.33628 0.0
H388 H 0.51753 0.51699 0.28632 0.0
H389 H 0.58444 0.60835 0.29049 0.0
H390 H 0.62179 0.64705 0.34452 0.0
C391 C 0.64482 0.65182 0.40804 0.0
C392 C 0.60006 0.59846 0.40559 0.0
C393 C 0.57667 0.57717 0.37397 0.0
C394 C 0.53587 0.52527 0.37182 0.0
C395 C 0.51588 0.50402 0.33963 0.0
C396 C 0.53354 0.53381 0.31068 0.0
C397 C 0.57137 0.58518 0.313 0.0
C398 C 0.59279 0.60682 0.34419 0.0
H399 H 0.41846 0.46286 0.38168 0.0
C400 C 0.42389 0.43199 0.39039 0.0
H401 H 0.47707 0.41192 0.40964 0.0
H402 H 0.63638 0.62722 0.47009 0.0
H403 H 0.60248 0.57569 0.52038 0.0
H404 H 0.52826 0.48736 0.5171 0.0
H405 H 0.48785 0.44988 0.46349 0.0
C406 C 0.47148 0.44225 0.40004 0.0
C407 C 0.5163 0.49568 0.40155 0.0
C408 C 0.53905 0.51728 0.43322 0.0
C409 C 0.58115 0.56858 0.43521 0.0
C410 C 0.60378 0.58876 0.46711 0.0
C411 C 0.58477 0.55956 0.49623 0.0
C412 C 0.54305 0.50982 0.49437 0.0
C413 C 0.52028 0.48874 0.46336 0.0
H414 H 0.09958 0.67259 0.71894 0.0
C415 C 0.06557 0.6707 0.73068 0.0
H416 H 0.99468 0.62329 0.75618 0.0
H417 H 0.06594 0.47533 0.67217 0.0
H418 H 0.04818 0.50845 0.62168 0.0
H419 H 0.02103 0.57278 0.62545 0.0
H420 H 0.01283 0.60524 0.67972 0.0
C421 C 0.02846 0.62616 0.74349 0.0
C422 C 0.03453 0.58045 0.74155 0.0
C423 C 0.03605 0.55967 0.70969 0.0
C424 C 0.04855 0.52036 0.70762 0.0
C425 C 0.0539 0.50324 0.67534 0.0
C426 C 0.04425 0.52226 0.6461 0.0
C427 C 0.02922 0.55863 0.64822 0.0
C428 C 0.02508 0.57724 0.67955 0.0
H429 H 0.98895 0.40679 0.71514 0.0
C430 C 0.0249 0.40954 0.72383 0.0
H431 H 0.09878 0.45773 0.74567 0.0
H432 H 0.03332 0.61082 0.80647 0.0
H433 H 0.04681 0.57469 0.85718 0.0
H434 H 0.06381 0.50327 0.85377 0.0
H435 H 0.068 0.46787 0.79965 0.0
C436 C 0.06325 0.4544 0.73566 0.0
C437 C 0.05588 0.49934 0.73752 0.0
C438 C 0.05313 0.51927 0.76939 0.0
C439 C 0.04259 0.55998 0.7714 0.0
C440 C 0.0408 0.57966 0.80352 0.0
C441 C 0.04845 0.55926 0.83283 0.0
C442 C 0.05805 0.51907 0.83091 0.0
C443 C 0.06037 0.49912 0.79965 0.0
loop_
_geom_bond_atom_site_label_1
_geom_bond_atom_site_label_2
_geom_bond_distance
_geom_bond_site_symmetry_2
_ccdc_geom_bond_type
C0 O2 1.247 . S
C0 O4 1.258 . S
C1 O8 1.247 . S
C1 O9 1.258 . S
O2 C0 1.247 . S
O2 Zn3 2.028 1_556 S
Zn3 O2 2.028 1_554 S
Zn3 O7 2.035 . S
Zn3 O9 2.035 . S
Zn3 O10 2.028 . S
O4 C0 1.258 . S
O4 Zn5 2.035 1_556 S
Zn5 O4 2.035 1_554 S
Zn5 O6 2.028 . S
Zn5 O8 2.028 . S
Zn5 O11 2.035 . S
O6 Zn5 2.028 . S
O6 C12 1.247 . S
O7 Zn3 2.035 . S
O7 C12 1.258 . S
O8 C1 1.247 . S
O8 Zn5 2.028 . S
O9 C1 1.258 . S
O9 Zn3 2.035 . S
O10 Zn3 2.028 . S
O10 C13 1.247 . S
O11 Zn5 2.035 . S
O11 C13 1.258 . S
C12 O6 1.247 . S
C12 O7 1.258 . S
C13 O10 1.247 . S
C13 O11 1.258 . S
C14 O16 1.247 . S
C14 O18 1.258 . S
C15 O22 1.247 . S
C15 O23 1.258 . S
O16 C14 1.247 . S
O16 Zn17 2.028 . S
Zn17 O16 2.028 . S
Zn17 O21 2.035 . S
Zn17 O23 2.035 . S
Zn17 O24 2.028 . S
O18 C14 1.258 . S
O18 Zn19 2.035 . S
Zn19 O18 2.035 . S
Zn19 O20 2.028 . S
Zn19 O22 2.028 . S
Zn19 O25 2.035 . S
O20 Zn19 2.028 . S
O20 C26 1.247 . S
O21 Zn17 2.035 . S
O21 C26 1.258 . S
O22 C15 1.247 . S
O22 Zn19 2.028 . S
O23 C15 1.258 . S
O23 Zn17 2.035 . S
O24 Zn17 2.028 . S
O24 C27 1.247 . S
O25 Zn19 2.035 . S
O25 C27 1.258 . S
C26 O20 1.247 . S
C26 O21 1.258 . S
C27 O24 1.247 . S
C27 O25 1.258 . S
C28 O30 1.247 1_455 S
C28 O32 1.258 . S
C29 O36 1.247 1_655 S
C29 O37 1.258 . S
O30 C28 1.247 1_655 S
O30 Zn31 2.028 . S
Zn31 O30 2.028 . S
Zn31 O35 2.035 . S
Zn31 O37 2.035 . S
Zn31 O38 2.028 . S
O32 C28 1.258 . S
O32 Zn33 2.035 . S
Zn33 O32 2.035 . S
Zn33 O34 2.028 . S
Zn33 O36 2.028 . S
Zn33 O39 2.035 . S
O34 Zn33 2.028 . S
O34 C40 1.247 . S
O35 Zn31 2.035 . S
O35 C40 1.258 1_655 S
O36 C29 1.247 1_455 S
O36 Zn33 2.028 . S
O37 C29 1.258 . S
O37 Zn31 2.035 . S
O38 Zn31 2.028 . S
O38 C41 1.247 1_655 S
O39 Zn33 2.035 . S
O39 C41 1.258 . S
C40 O34 1.247 . S
C40 O35 1.258 1_455 S
C41 O38 1.247 1_455 S
C41 O39 1.258 . S
C42 O44 1.247 . S
C42 O46 1.258 1_545 S
C43 O50 1.247 1_545 S
C43 O51 1.258 . S
O44 C42 1.247 . S
O44 Zn45 2.028 . S
Zn45 O44 2.028 . S
Zn45 O49 2.035 . S
Zn45 O51 2.035 . S
Zn45 O52 2.028 1_554 S
O46 C42 1.258 1_565 S
O46 Zn47 2.035 . S
Zn47 O46 2.035 . S
Zn47 O48 2.028 . S
Zn47 O50 2.028 . S
Zn47 O53 2.035 1_554 S
O48 Zn47 2.028 . S
O48 C54 1.247 . S
O49 Zn45 2.035 . S
O49 C54 1.258 1_545 S
O50 C43 1.247 1_565 S
O50 Zn47 2.028 . S
O51 C43 1.258 . S
O51 Zn45 2.035 . S
O52 Zn45 2.028 1_556 S
O52 C55 1.247 . S
O53 Zn47 2.035 1_556 S
O53 C55 1.258 1_565 S
C54 O48 1.247 . S
C54 O49 1.258 1_565 S
C55 O52 1.247 . S
C55 O53 1.258 1_545 S
C56 O58 1.247 . S
C56 O60 1.258 . S
C57 O64 1.247 . S
C57 O65 1.258 . S
O58 C56 1.247 . S
O58 Zn59 2.028 . S
Zn59 O58 2.028 . S
Zn59 O63 2.035 . S
Zn59 O65 2.035 . S
Zn59 O66 2.028 . S
O60 C56 1.258 . S
O60 Zn61 2.035 . S
Zn61 O60 2.035 . S
Zn61 O62 2.028 . S
Zn61 O64 2.028 . S
Zn61 O67 2.035 . S
O62 Zn61 2.028 . S
O62 C68 1.247 . S
O63 Zn59 2.035 . S
O63 C68 1.258 . S
O64 C57 1.247 . S
O64 Zn61 2.028 . S
O65 C57 1.258 . S
O65 Zn59 2.035 . S
O66 Zn59 2.028 . S
O66 C69 1.247 . S
O67 Zn61 2.035 . S
O67 C69 1.258 . S
C68 O62 1.247 . S
C68 O63 1.258 . S
C69 O66 1.247 . S
C69 O67 1.258 . S
C70 O72 1.247 . S
C70 O74 1.258 . S
C71 O78 1.247 . S
C71 O79 1.258 . S
O72 C70 1.247 . S
O72 Zn73 2.028 . S
Zn73 O72 2.028 . S
Zn73 O77 2.035 . S
Zn73 O79 2.035 . S
Zn73 O80 2.028 . S
O74 C70 1.258 . S
O74 Zn75 2.035 . S
Zn75 O74 2.035 . S
Zn75 O76 2.028 . S
Zn75 O78 2.028 . S
Zn75 O81 2.035 . S
O76 Zn75 2.028 . S
O76 C82 1.247 . S
O77 Zn73 2.035 . S
O77 C82 1.258 . S
O78 C71 1.247 . S
O78 Zn75 2.028 . S
O79 C71 1.258 . S
O79 Zn73 2.035 . S
O80 Zn73 2.028 . S
O80 C83 1.247 . S
O81 Zn75 2.035 . S
O81 C83 1.258 . S
C82 O76 1.247 . S
C82 O77 1.258 . S
C83 O80 1.247 . S
C83 O81 1.258 . S
H84 C85 0.951 . S
C85 H84 0.951 . S
C85 C91 1.265 . S
H86 C91 0.950 . S
H87 C95 0.949 . S
H88 C96 0.950 . S
H89 C97 0.951 . S
H90 C98 0.951 . S
C91 C85 1.265 . S
C91 H86 0.950 . S
C91 C92 1.478 . S
C92 C91 1.478 . S
C92 C93 1.397 . S
C92 C109 1.394 . S
C93 C92 1.397 . S
C93 C94 1.438 . S
C93 C98 1.429 . S
C94 C93 1.438 . S
C94 C95 1.428 . S
C94 C107 1.394 . S
C95 H87 0.949 . S
C95 C94 1.428 . S
C95 C96 1.345 . S
C96 H88 0.950 . S
C96 C95 1.345 . S
C96 C97 1.424 . S
C97 H89 0.951 . S
C97 C96 1.424 . S
C97 C98 1.347 . S
C98 H90 0.951 . S
C98 C93 1.429 . S
C98 C97 1.347 . S
H99 C100 0.951 . S
C100 H99 0.951 . S
C100 C106 1.265 . S
H101 C106 0.950 . S
H102 C110 0.949 . S
H103 C111 0.950 . S
H104 C112 0.951 . S
H105 C113 0.951 . S
C106 C100 1.265 . S
C106 H101 0.950 . S
C106 C107 1.478 . S
C107 C94 1.394 . S
C107 C106 1.478 . S
C107 C108 1.397 . S
C108 C107 1.397 . S
C108 C109 1.438 . S
C108 C113 1.429 . S
C109 C92 1.394 . S
C109 C108 1.438 . S
C109 C110 1.428 . S
C110 H102 0.949 . S
C110 C109 1.428 . S
C110 C111 1.345 . S
C111 H103 0.950 . S
C111 C110 1.345 . S
C111 C112 1.424 . S
C112 H104 0.951 . S
C112 C111 1.424 . S
C112 C113 1.347 . S
C113 H105 0.951 . S
C113 C108 1.429 . S
C113 C112 1.347 . S
H114 C115 0.951 . S
C115 H114 0.951 . S
C115 C121 1.265 . S
H116 C121 0.950 . S
H117 C125 0.949 . S
H118 C126 0.950 1_655 S
H119 C127 0.951 . S
H120 C128 0.951 . S
C121 C115 1.265 . S
C121 H116 0.950 . S
C121 C122 1.478 . S
C122 C121 1.478 . S
C122 C123 1.397 . S
C122 C139 1.394 . S
C123 C122 1.397 . S
C123 C124 1.438 . S
C123 C128 1.429 . S
C124 C123 1.438 . S
C124 C125 1.428 . S
C124 C137 1.394 . S
C125 H117 0.949 . S
C125 C124 1.428 . S
C125 C126 1.345 . S
C126 H118 0.950 1_455 S
C126 C125 1.345 . S
C126 C127 1.424 . S
C127 H119 0.951 . S
C127 C126 1.424 . S
C127 C128 1.347 . S
C128 H120 0.951 . S
C128 C123 1.429 . S
C128 C127 1.347 . S
H129 C130 0.951 . S
C130 H129 0.951 . S
C130 C136 1.265 . S
H131 C136 0.950 . S
H132 C140 0.949 . S
H133 C141 0.950 . S
H134 C142 0.951 . S
H135 C143 0.951 . S
C136 C130 1.265 . S
C136 H131 0.950 . S
C136 C137 1.478 . S
C137 C124 1.394 . S
C137 C136 1.478 . S
C137 C138 1.397 . S
C138 C137 1.397 . S
C138 C139 1.438 . S
C138 C143 1.429 . S
C139 C122 1.394 . S
C139 C138 1.438 . S
C139 C140 1.428 . S
C140 H132 0.949 . S
C140 C139 1.428 . S
C140 C141 1.345 . S
C141 H133 0.950 . S
C141 C140 1.345 . S
C141 C142 1.424 . S
C142 H134 0.951 . S
C142 C141 1.424 . S
C142 C143 1.347 . S
C143 H135 0.951 . S
C143 C138 1.429 . S
C143 C142 1.347 . S
H144 C145 0.951 . S
C145 H144 0.951 . S
C145 C151 1.265 . S
H146 C151 0.950 . S
H147 C155 0.949 . S
H148 C156 0.950 . S
H149 C157 0.951 1_565 S
H150 C158 0.951 . S
C151 C145 1.265 . S
C151 H146 0.950 . S
C151 C152 1.478 . S
C152 C151 1.478 . S
C152 C153 1.397 . S
C152 C169 1.394 . S
C153 C152 1.397 . S
C153 C154 1.438 . S
C153 C158 1.429 . S
C154 C153 1.438 . S
C154 C155 1.428 . S
C154 C167 1.394 . S
C155 H147 0.949 . S
C155 C154 1.428 . S
C155 C156 1.345 . S
C156 H148 0.950 . S
C156 C155 1.345 . S
C156 C157 1.424 . S
C157 H149 0.951 1_545 S
C157 C156 1.424 . S
C157 C158 1.347 . S
C158 H150 0.951 . S
C158 C153 1.429 . S
C158 C157 1.347 . S
H159 C160 0.951 . S
C160 H159 0.951 . S
C160 C166 1.265 . S
H161 C166 0.950 . S
H162 C170 0.949 . S
H163 C171 0.950 . S
H164 C172 0.951 . S
H165 C173 0.951 . S
C166 C160 1.265 . S
C166 H161 0.950 . S
C166 C167 1.478 . S
C167 C154 1.394 . S
C167 C166 1.478 . S
C167 C168 1.397 . S
C168 C167 1.397 . S
C168 C169 1.438 . S
C168 C173 1.429 . S
C169 C152 1.394 . S
C169 C168 1.438 . S
C169 C170 1.428 . S
C170 H162 0.949 . S
C170 C169 1.428 . S
C170 C171 1.345 . S
C171 H163 0.950 . S
C171 C170 1.345 . S
C171 C172 1.424 . S
C172 H164 0.951 . S
C172 C171 1.424 . S
C172 C173 1.347 . S
C173 H165 0.951 . S
C173 C168 1.429 . S
C173 C172 1.347 . S
H174 C175 0.951 . S
C175 H174 0.951 . S
C175 C181 1.265 . S
H176 C181 0.950 . S
H177 C185 0.949 . S
H178 C186 0.950 . S
H179 C187 0.951 . S
H180 C188 0.951 . S
C181 C175 1.265 . S
C181 H176 0.950 . S
C181 C182 1.478 . S
C182 C181 1.478 . S
C182 C183 1.397 . S
C182 C199 1.394 . S
C183 C182 1.397 . S
C183 C184 1.438 . S
C183 C188 1.429 . S
C184 C183 1.438 . S
C184 C185 1.428 . S
C184 C197 1.394 . S
C185 H177 0.949 . S
C185 C184 1.428 . S
C185 C186 1.345 . S
C186 H178 0.950 . S
C186 C185 1.345 . S
C186 C187 1.424 . S
C187 H179 0.951 . S
C187 C186 1.424 . S
C187 C188 1.347 . S
C188 H180 0.951 . S
C188 C183 1.429 . S
C188 C187 1.347 . S
H189 C190 0.951 . S
C190 H189 0.951 . S
C190 C196 1.265 . S
H191 C196 0.950 . S
H192 C200 0.949 . S
H193 C201 0.950 . S
H194 C202 0.951 . S
H195 C203 0.951 . S
C196 C190 1.265 . S
C196 H191 0.950 . S
C196 C197 1.478 . S
C197 C184 1.394 . S
C197 C196 1.478 . S
C197 C198 1.397 . S
C198 C197 1.397 . S
C198 C199 1.438 . S
C198 C203 1.429 . S
C199 C182 1.394 . S
C199 C198 1.438 . S
C199 C200 1.428 . S
C200 H192 0.949 . S
C200 C199 1.428 . S
C200 C201 1.345 . S
C201 H193 0.950 . S
C201 C200 1.345 . S
C201 C202 1.424 . S
C202 H194 0.951 . S
C202 C201 1.424 . S
C202 C203 1.347 . S
C203 H195 0.951 . S
C203 C198 1.429 . S
C203 C202 1.347 . S
H204 C205 0.951 1_655 S
C205 H204 0.951 1_455 S
C205 C211 1.265 . S
H206 C211 0.950 . S
H207 C215 0.949 . S
H208 C216 0.950 . S
H209 C217 0.951 . S
H210 C218 0.951 1_455 S
C211 C205 1.265 . S
C211 H206 0.950 . S
C211 C212 1.478 1_455 S
C212 C211 1.478 1_655 S
C212 C213 1.397 . S
C212 C229 1.394 . S
C213 C212 1.397 . S
C213 C214 1.438 . S
C213 C218 1.429 . S
C214 C213 1.438 . S
C214 C215 1.428 . S
C214 C227 1.394 . S
C215 H207 0.949 . S
C215 C214 1.428 . S
C215 C216 1.345 . S
C216 H208 0.950 . S
C216 C215 1.345 . S
C216 C217 1.424 . S
C217 H209 0.951 . S
C217 C216 1.424 . S
C217 C218 1.347 . S
C218 H210 0.951 1_655 S
C218 C213 1.429 . S
C218 C217 1.347 . S
H219 C220 0.951 . S
C220 H219 0.951 . S
C220 C226 1.265 . S
H221 C226 0.950 . S
H222 C230 0.943 1_455 S
H223 C231 0.950 . S
H224 C232 0.951 . S
H225 C233 0.951 . S
C226 C220 1.265 . S
C226 H221 0.950 . S
C226 C227 1.478 . S
C227 C214 1.394 . S
C227 C226 1.478 . S
C227 C228 1.397 . S
C228 C227 1.397 . S
C228 C229 1.438 . S
C228 C233 1.429 . S
C229 C212 1.394 . S
C229 C228 1.438 . S
C229 C230 1.427 . S
C230 H222 0.943 1_655 S
C230 C229 1.427 . S
C230 C231 1.352 . S
C231 H223 0.950 . S
C231 C230 1.352 . S
C231 C232 1.424 . S
C232 H224 0.951 . S
C232 C231 1.424 . S
C232 C233 1.347 . S
C233 H225 0.951 . S
C233 C228 1.429 . S
C233 C232 1.347 . S
H234 C235 0.951 . S
C235 H234 0.951 . S
C235 C241 1.265 . S
H236 C241 0.950 . S
H237 C245 0.949 . S
H238 C246 0.950 . S
H239 C247 0.951 . S
H240 C248 0.951 . S
C241 C235 1.265 . S
C241 H236 0.950 . S
C241 C242 1.478 1_545 S
C242 C241 1.478 1_565 S
C242 C243 1.397 . S
C242 C259 1.394 1_565 S
C243 C242 1.397 . S
C243 C244 1.438 . S
C243 C248 1.429 . S
C244 C243 1.438 . S
C244 C245 1.428 . S
C244 C257 1.394 . S
C245 H237 0.949 . S
C245 C244 1.428 . S
C245 C246 1.345 . S
C246 H238 0.950 . S
C246 C245 1.345 . S
C246 C247 1.424 . S
C247 H239 0.951 . S
C247 C246 1.424 . S
C247 C248 1.347 . S
C248 H240 0.951 . S
C248 C243 1.429 . S
C248 C247 1.347 . S
H249 C250 0.951 . S
C250 H249 0.951 . S
C250 C256 1.265 . S
H251 C256 0.950 . S
H252 C260 0.949 . S
H253 C261 0.950 . S
H254 C262 0.951 . S
H255 C263 0.951 . S
C256 C250 1.265 . S
C256 H251 0.950 . S
C256 C257 1.478 . S
C257 C244 1.394 . S
C257 C256 1.478 . S
C257 C258 1.397 . S
C258 C257 1.397 . S
C258 C259 1.438 1_565 S
C258 C263 1.429 1_565 S
C259 C242 1.394 1_545 S
C259 C258 1.438 1_545 S
C259 C260 1.428 . S
C260 H252 0.949 . S
C260 C259 1.428 . S
C260 C261 1.345 . S
C261 H253 0.950 . S
C261 C260 1.345 . S
C261 C262 1.424 . S
C262 H254 0.951 . S
C262 C261 1.424 . S
C262 C263 1.347 . S
C263 H255 0.951 . S
C263 C258 1.429 1_545 S
C263 C262 1.347 . S
H264 C265 0.951 . S
C265 H264 0.951 . S
C265 C271 1.265 . S
H266 C271 0.950 . S
H267 C275 0.949 . S
H268 C276 0.948 1_665 S
H269 C277 0.951 1_565 S
H270 C278 0.951 . S
C271 C265 1.265 . S
C271 H266 0.950 . S
C271 C272 1.478 . S
C272 C271 1.478 . S
C272 C273 1.397 . S
C272 C289 1.394 1_554 S
C273 C272 1.397 . S
C273 C274 1.438 . S
C273 C278 1.429 . S
C274 C273 1.438 . S
C274 C275 1.428 1_455 S
C274 C287 1.394 . S
C275 H267 0.949 . S
C275 C274 1.428 1_655 S
C275 C276 1.355 1_655 S
C276 H268 0.948 1_445 S
C276 C275 1.355 1_455 S
C276 C277 1.415 . S
C277 H269 0.951 1_545 S
C277 C276 1.415 . S
C277 C278 1.347 . S
C278 H270 0.951 . S
C278 C273 1.429 . S
C278 C277 1.347 . S
H279 C280 0.952 . S
C280 H279 0.952 . S
C280 C286 1.265 1_565 S
H281 C286 0.950 . S
H282 C290 0.949 . S
H283 C291 0.950 . S
H284 C292 0.951 . S
H285 C293 0.951 1_655 S
C286 C280 1.265 1_545 S
C286 H281 0.950 . S
C286 C287 1.478 1_655 S
C287 C274 1.394 . S
C287 C286 1.478 1_455 S
C287 C288 1.397 1_554 S
C288 C287 1.397 1_556 S
C288 C289 1.438 . S
C288 C293 1.429 . S
C289 C272 1.394 1_556 S
C289 C288 1.438 . S
C289 C290 1.428 . S
C290 H282 0.949 . S
C290 C289 1.428 . S
C290 C291 1.345 . S
C291 H283 0.950 . S
C291 C290 1.345 . S
C291 C292 1.424 . S
C292 H284 0.951 . S
C292 C291 1.424 . S
C292 C293 1.347 . S
C293 H285 0.951 1_455 S
C293 C288 1.429 . S
C293 C292 1.347 . S
H294 C295 0.951 . S
C295 H294 0.951 . S
C295 C301 1.265 . S
H296 C301 0.950 1_455 S
H297 C305 0.949 . S
H298 C306 0.950 . S
H299 C307 0.951 . S
H300 C308 0.949 . S
C301 C295 1.265 . S
C301 H296 0.950 1_655 S
C301 C302 1.478 1_655 S
C302 C301 1.478 1_455 S
C302 C303 1.397 1_565 S
C302 C319 1.394 1_565 S
C303 C302 1.397 1_545 S
C303 C304 1.438 . S
C303 C308 1.430 1_545 S
C304 C303 1.438 . S
C304 C305 1.428 . S
C304 C317 1.394 . S
C305 H297 0.949 . S
C305 C304 1.428 . S
C305 C306 1.345 . S
C306 H298 0.950 . S
C306 C305 1.345 . S
C306 C307 1.424 . S
C307 H299 0.951 . S
C307 C306 1.424 . S
C307 C308 1.348 1_545 S
C308 H300 0.949 . S
C308 C303 1.430 1_565 S
C308 C307 1.348 1_565 S
H309 C310 0.951 . S
C310 H309 0.951 . S
C310 C316 1.265 . S
H311 C316 0.950 . S
H312 C320 0.949 . S
H313 C321 0.950 . S
H314 C322 0.951 . S
H315 C323 0.951 . S
C316 C310 1.265 . S
C316 H311 0.950 . S
C316 C317 1.478 . S
C317 C304 1.394 . S
C317 C316 1.478 . S
C317 C318 1.397 . S
C318 C317 1.397 . S
C318 C319 1.438 . S
C318 C323 1.429 . S
C319 C302 1.394 1_545 S
C319 C318 1.438 . S
C319 C320 1.428 1_445 S
C320 H312 0.949 . S
C320 C319 1.428 1_665 S
C320 C321 1.345 1_565 S
C321 H313 0.950 . S
C321 C320 1.345 1_545 S
C321 C322 1.424 1_655 S
C322 H314 0.951 . S
C322 C321 1.424 1_455 S
C322 C323 1.347 . S
C323 H315 0.951 . S
C323 C318 1.429 . S
C323 C322 1.347 . S
H324 C325 0.951 . S
C325 H324 0.951 . S
C325 C331 1.265 1_455 S
H326 C331 0.950 . S
H327 C335 0.949 . S
H328 C336 0.950 . S
H329 C337 0.951 . S
H330 C338 0.951 . S
C331 C325 1.265 1_655 S
C331 H326 0.950 . S
C331 C332 1.478 1_655 S
C332 C331 1.478 1_455 S
C332 C333 1.397 . S
C332 C349 1.394 . S
C333 C332 1.397 . S
C333 C334 1.438 . S
C333 C338 1.429 1_455 S
C334 C333 1.438 . S
C334 C335 1.428 1_545 S
C334 C347 1.394 . S
C335 H327 0.949 . S
C335 C334 1.428 1_565 S
C335 C336 1.345 . S
C336 H328 0.950 . S
C336 C335 1.345 . S
C336 C337 1.424 1_465 S
C337 H329 0.951 . S
C337 C336 1.424 1_645 S
C337 C338 1.347 . S
C338 H330 0.951 . S
C338 C333 1.429 1_655 S
C338 C337 1.347 . S
H339 C340 0.951 . S
C340 H339 0.951 . S
C340 C346 1.265 . S
H341 C346 0.950 1_545 S
H342 C350 0.949 . S
H343 C351 0.950 . S
H344 C352 0.951 . S
H345 C353 0.951 . S
C346 C340 1.265 . S
C346 H341 0.950 1_565 S
C346 C347 1.478 1_565 S
C347 C334 1.394 . S
C347 C346 1.478 1_545 S
C347 C348 1.397 . S
C348 C347 1.397 . S
C348 C349 1.438 . S
C348 C353 1.429 . S
C349 C332 1.394 . S
C349 C348 1.438 . S
C349 C350 1.428 . S
C350 H342 0.949 . S
C350 C349 1.428 . S
C350 C351 1.345 . S
C351 H343 0.950 . S
C351 C350 1.345 . S
C351 C352 1.424 . S
C352 H344 0.951 . S
C352 C351 1.424 . S
C352 C353 1.347 . S
C353 H345 0.951 . S
C353 C348 1.429 . S
C353 C352 1.347 . S
H354 C355 0.951 1_565 S
C355 H354 0.951 1_545 S
C355 C361 1.265 . S
H356 C361 0.950 . S
H357 C365 0.949 . S
H358 C366 0.950 . S
H359 C367 0.951 . S
H360 C368 0.951 . S
C361 C355 1.265 . S
C361 H356 0.950 . S
C361 C362 1.478 . S
C362 C361 1.478 . S
C362 C363 1.397 1_554 S
C362 C379 1.394 . S
C363 C362 1.397 1_556 S
C363 C364 1.438 . S
C363 C368 1.429 . S
C364 C363 1.438 . S
C364 C365 1.428 . S
C364 C377 1.394 1_556 S
C365 H357 0.949 . S
C365 C364 1.428 . S
C365 C366 1.345 . S
C366 H358 0.950 . S
C366 C365 1.345 . S
C366 C367 1.424 . S
C367 H359 0.951 . S
C367 C366 1.424 . S
C367 C368 1.347 . S
C368 H360 0.951 . S
C368 C363 1.429 . S
C368 C367 1.347 . S
H369 C370 0.951 . S
C370 H369 0.951 . S
C370 C376 1.265 . S
H371 C376 0.950 . S
H372 C380 0.949 . S
H373 C381 0.950 . S
H374 C382 0.951 . S
H375 C383 0.951 . S
C376 C370 1.265 . S
C376 H371 0.950 . S
C376 C377 1.478 . S
C377 C364 1.394 1_554 S
C377 C376 1.478 . S
C377 C378 1.397 . S
C378 C377 1.397 . S
C378 C379 1.438 . S
C378 C383 1.429 . S
C379 C362 1.394 . S
C379 C378 1.438 . S
C379 C380 1.428 . S
C380 H372 0.949 . S
C380 C379 1.428 . S
C380 C381 1.345 1_545 S
C381 H373 0.950 . S
C381 C380 1.345 1_565 S
C381 C382 1.424 . S
C382 H374 0.951 . S
C382 C381 1.424 . S
C382 C383 1.347 1_565 S
C383 H375 0.951 . S
C383 C378 1.429 . S
C383 C382 1.347 1_545 S
H384 C385 0.951 . S
C385 H384 0.951 . S
C385 C391 1.265 . S
H386 C391 0.950 . S
H387 C395 0.949 . S
H388 C396 0.950 . S
H389 C397 0.951 . S
H390 C398 0.951 . S
C391 C385 1.265 . S
C391 H386 0.950 . S
C391 C392 1.478 . S
C392 C391 1.478 . S
C392 C393 1.397 . S
C392 C409 1.394 . S
C393 C392 1.397 . S
C393 C394 1.438 . S
C393 C398 1.429 . S
C394 C393 1.438 . S
C394 C395 1.428 . S
C394 C407 1.394 . S
C395 H387 0.949 . S
C395 C394 1.428 . S
C395 C396 1.345 . S
C396 H388 0.950 . S
C396 C395 1.345 . S
C396 C397 1.424 . S
C397 H389 0.951 . S
C397 C396 1.424 . S
C397 C398 1.347 . S
C398 H390 0.951 . S
C398 C393 1.429 . S
C398 C397 1.347 . S
H399 C400 0.951 . S
C400 H399 0.951 . S
C400 C406 1.265 . S
H401 C406 0.950 . S
H402 C410 0.949 . S
H403 C411 0.950 . S
H404 C412 0.951 . S
H405 C413 0.951 . S
C406 C400 1.265 . S
C406 H401 0.950 . S
C406 C407 1.478 . S
C407 C394 1.394 . S
C407 C406 1.478 . S
C407 C408 1.397 . S
C408 C407 1.397 . S
C408 C409 1.438 . S
C408 C413 1.429 . S
C409 C392 1.394 . S
C409 C408 1.438 . S
C409 C410 1.428 . S
C410 H402 0.949 . S
C410 C409 1.428 . S
C410 C411 1.345 . S
C411 H403 0.950 . S
C411 C410 1.345 . S
C411 C412 1.424 . S
C412 H404 0.951 . S
C412 C411 1.424 . S
C412 C413 1.347 . S
C413 H405 0.951 . S
C413 C408 1.429 . S
C413 C412 1.347 . S
H414 C415 0.951 . S
C415 H414 0.951 . S
C415 C421 1.265 . S
H416 C421 0.950 . S
H417 C425 0.949 . S
H418 C426 0.950 1_655 S
H419 C427 0.953 . S
H420 C428 0.951 . S
C421 C415 1.265 . S
C421 H416 0.950 . S
C421 C422 1.478 . S
C422 C421 1.478 . S
C422 C423 1.397 . S
C422 C439 1.394 . S
C423 C422 1.397 . S
C423 C424 1.438 . S
C423 C428 1.429 . S
C424 C423 1.438 . S
C424 C425 1.428 . S
C424 C437 1.394 . S
C425 H417 0.949 . S
C425 C424 1.428 . S
C425 C426 1.345 . S
C426 H418 0.950 1_455 S
C426 C425 1.345 . S
C426 C427 1.424 . S
C427 H419 0.953 . S
C427 C426 1.424 . S
C427 C428 1.347 . S
C428 H420 0.951 . S
C428 C423 1.429 . S
C428 C427 1.347 . S
H429 C430 0.951 1_655 S
C430 H429 0.951 1_455 S
C430 C436 1.265 . S
H431 C436 0.950 . S
H432 C440 0.949 . S
H433 C441 0.950 . S
H434 C442 0.951 . S
H435 C443 0.951 . S
C436 C430 1.265 . S
C436 H431 0.950 . S
C436 C437 1.478 . S
C437 C424 1.394 . S
C437 C436 1.478 . S
C437 C438 1.397 . S
C438 C437 1.397 . S
C438 C439 1.438 . S
C438 C443 1.429 . S
C439 C422 1.394 . S
C439 C438 1.438 . S
C439 C440 1.428 . S
C440 H432 0.949 . S
C440 C439 1.428 . S
C440 C441 1.345 . S
C441 H433 0.950 . S
C441 C440 1.345 . S
C441 C442 1.424 . S
C442 H434 0.951 . S
C442 C441 1.424 . S
C442 C443 1.347 . S
C443 H435 0.951 . S
C443 C438 1.429 . S
C443 C442 1.347 . S
C85 C1 1.736 . S
C100 C27 1.722 . S
C115 C26 1.737 . S
C130 C28 1.720 . S
C145 C55 1.716 . S
C160 C29 1.721 . S
C175 C54 1.722 . S
C190 C68 1.681 . S
C205 C83 1.683 . S
C220 C69 1.722 . S
C235 C0 1.670 . S
C250 C82 1.733 . S
C265 C12 1.133 . S
C280 C43 1.135 1_565 S
C295 C56 1.050 . S
C310 C15 1.051 . S
C325 C40 1.049 . S
C340 C71 1.052 . S
C355 C42 1.568 . S
C370 C13 1.568 . S
C385 C57 1.569 . S
C400 C14 1.568 . S
C415 C70 1.567 . S
C430 C41 1.569 . S
