# Generated by pormake.
# Topology uob, (4)-cn, num edge types: 1
# Building blocks:
#     Node 0, Type 0, BuildingBlock: MUDLON_clean_sbu_0, # of connection points: 4
#     Node 1, Type 0, BuildingBlock: MUDLON_clean_sbu_0, # of connection points: 4
#     Node 2, Type 0, BuildingBlock: MUDLON_clean_sbu_0, # of connection points: 4
#     Node 3, Type 0, BuildingBlock: MUDLON_clean_sbu_0, # of connection points: 4
#     Node 4, Type 0, BuildingBlock: MUDLON_clean_sbu_0, # of connection points: 4
#     Node 5, Type 0, BuildingBlock: MUDLON_clean_sbu_0, # of connection points: 4
#     Node 6, Type 0, BuildingBlock: MUDLON_clean_sbu_0, # of connection points: 4
#     Node 7, Type 0, BuildingBlock: MUDLON_clean_sbu_0, # of connection points: 4
#     Node 8, Type 0, BuildingBlock: MUDLON_clean_sbu_0, # of connection points: 4
#     Node 9, Type 0, BuildingBlock: MUDLON_clean_sbu_0, # of connection points: 4
#     Node 10, Type 0, BuildingBlock: MUDLON_clean_sbu_0, # of connection points: 4
#     Node 11, Type 0, BuildingBlock: MUDLON_clean_sbu_0, # of connection points: 4
#     Node 12, Type 0, BuildingBlock: MUDLON_clean_sbu_0, # of connection points: 4
#     Node 13, Type 0, BuildingBlock: MUDLON_clean_sbu_0, # of connection points: 4
#     Node 14, Type 0, BuildingBlock: MUDLON_clean_sbu_0, # of connection points: 4
#     Node 15, Type 0, BuildingBlock: MUDLON_clean_sbu_0, # of connection points: 4
#     Edge 16, Type (0, 0), BuildingBlock: KIFKEQ_clean_linker_1, # of connection points: 2
#     Edge 17, Type (0, 0), BuildingBlock: KIFKEQ_clean_linker_1, # of connection points: 2
#     Edge 18, Type (0, 0), BuildingBlock: KIFKEQ_clean_linker_1, # of connection points: 2
#     Edge 19, Type (0, 0), BuildingBlock: KIFKEQ_clean_linker_1, # of connection points: 2
#     Edge 20, Type (0, 0), BuildingBlock: KIFKEQ_clean_linker_1, # of connection points: 2
#     Edge 21, Type (0, 0), BuildingBlock: KIFKEQ_clean_linker_1, # of connection points: 2
#     Edge 22, Type (0, 0), BuildingBlock: KIFKEQ_clean_linker_1, # of connection points: 2
#     Edge 23, Type (0, 0), BuildingBlock: KIFKEQ_clean_linker_1, # of connection points: 2
#     Edge 24, Type (0, 0), BuildingBlock: KIFKEQ_clean_linker_1, # of connection points: 2
#     Edge 25, Type (0, 0), BuildingBlock: KIFKEQ_clean_linker_1, # of connection points: 2
#     Edge 26, Type (0, 0), BuildingBlock: KIFKEQ_clean_linker_1, # of connection points: 2
#     Edge 27, Type (0, 0), BuildingBlock: KIFKEQ_clean_linker_1, # of connection points: 2
#     Edge 28, Type (0, 0), BuildingBlock: KIFKEQ_clean_linker_1, # of connection points: 2
#     Edge 29, Type (0, 0), BuildingBlock: KIFKEQ_clean_linker_1, # of connection points: 2
#     Edge 30, Type (0, 0), BuildingBlock: KIFKEQ_clean_linker_1, # of connection points: 2
#     Edge 31, Type (0, 0), BuildingBlock: KIFKEQ_clean_linker_1, # of connection points: 2
#     Edge 32, Type (0, 0), BuildingBlock: KIFKEQ_clean_linker_1, # of connection points: 2
#     Edge 33, Type (0, 0), BuildingBlock: KIFKEQ_clean_linker_1, # of connection points: 2
#     Edge 34, Type (0, 0), BuildingBlock: KIFKEQ_clean_linker_1, # of connection points: 2
#     Edge 35, Type (0, 0), BuildingBlock: KIFKEQ_clean_linker_1, # of connection points: 2
#     Edge 36, Type (0, 0), BuildingBlock: KIFKEQ_clean_linker_1, # of connection points: 2
#     Edge 37, Type (0, 0), BuildingBlock: KIFKEQ_clean_linker_1, # of connection points: 2
#     Edge 38, Type (0, 0), BuildingBlock: KIFKEQ_clean_linker_1, # of connection points: 2
#     Edge 39, Type (0, 0), BuildingBlock: KIFKEQ_clean_linker_1, # of connection points: 2
#     Edge 40, Type (0, 0), BuildingBlock: KIFKEQ_clean_linker_1, # of connection points: 2
#     Edge 41, Type (0, 0), BuildingBlock: KIFKEQ_clean_linker_1, # of connection points: 2
#     Edge 42, Type (0, 0), BuildingBlock: KIFKEQ_clean_linker_1, # of connection points: 2
#     Edge 43, Type (0, 0), BuildingBlock: KIFKEQ_clean_linker_1, # of connection points: 2
#     Edge 44, Type (0, 0), BuildingBlock: KIFKEQ_clean_linker_1, # of connection points: 2
#     Edge 45, Type (0, 0), BuildingBlock: KIFKEQ_clean_linker_1, # of connection points: 2
#     Edge 46, Type (0, 0), BuildingBlock: KIFKEQ_clean_linker_1, # of connection points: 2
#     Edge 47, Type (0, 0), BuildingBlock: KIFKEQ_clean_linker_1, # of connection points: 2
# Relax obj value: 0.172
# Max RMSD: 0.257
# Mean RMSD: 0.257
data_MOF--net-uob--node1-MUDLON_clean_sbu_0--edge1-KIFKEQ_clean_linker_1
_symmetry_space_group_name_H-M    P1
_symmetry_Int_Tables_number       1
_symmetry_cell_setting            triclinic
loop_
_symmetry_equiv_pos_as_xyz
'x, y, z'
_cell_length_a     55.45523
_cell_length_b     55.768968
_cell_length_c     29.268502
_cell_angle_alpha  89.980054
_cell_angle_beta   90.083104
_cell_angle_gamma 90.069701
loop_
_atom_site_label
_atom_site_type_symbol
_atom_site_fract_x
_atom_site_fract_y
_atom_site_fract_z
_atom_type_partial_charge
Mg0 Mg 0.14022 0.07579 0.31231 0.0
C1 C 0.14693 0.10652 0.39681 0.0
O2 O 0.1698 0.10311 0.38721 0.0
C3 C 0.14356 0.08511 0.21122 0.0
O4 O 0.14969 0.06236 0.2126 0.0
C5 C 0.17932 0.04937 0.36454 0.0
O6 O 0.16042 0.04185 0.38748 0.0
O7 O 0.17601 0.06194 0.32873 0.0
O8 O 0.1309 0.09852 0.36967 0.0
O9 O 0.1113 0.04938 0.30805 0.0
C10 C 0.09944 0.04393 0.34377 0.0
O11 O 0.10656 0.05244 0.38342 0.0
O12 O 0.13945 0.09598 0.2486 0.0
Mg13 Mg 0.95829 0.64234 0.56305 0.0
C14 C 0.94626 0.63845 0.65839 0.0
O15 O 0.96966 0.64204 0.65645 0.0
C16 C 0.95382 0.63554 0.46336 0.0
O17 O 0.97662 0.63091 0.47188 0.0
C18 C 0.96679 0.69524 0.57794 0.0
O19 O 0.94649 0.6964 0.55486 0.0
O20 O 0.97726 0.67508 0.58197 0.0
O21 O 0.93448 0.63738 0.62108 0.0
O22 O 0.98164 0.61101 0.56406 0.0
C23 C 0.97118 0.59102 0.57099 0.0
O24 O 0.94773 0.59083 0.57746 0.0
O25 O 0.94054 0.64251 0.49622 0.0
Mg26 Mg 0.38453 0.4462 0.81664 0.0
C27 C 0.41285 0.42183 0.8929 0.0
O28 O 0.43139 0.43103 0.87116 0.0
C29 C 0.38984 0.44124 0.71688 0.0
O30 O 0.39192 0.46441 0.72409 0.0
C31 C 0.33514 0.4454 0.85155 0.0
O32 O 0.34219 0.42292 0.85191 0.0
O33 O 0.34926 0.46105 0.83448 0.0
O34 O 0.39204 0.42324 0.8749 0.0
O35 O 0.41402 0.47211 0.81394 0.0
C36 C 0.42185 0.4837 0.84831 0.0
O37 O 0.41027 0.48211 0.88733 0.0
O38 O 0.38518 0.42771 0.75079 0.0
Mg39 Mg 0.56969 0.88002 0.06283 0.0
C40 C 0.58378 0.88067 0.15786 0.0
O41 O 0.56055 0.87601 0.15743 0.0
C42 C 0.57265 0.8857 0.96276 0.0
O43 O 0.54975 0.88937 0.97187 0.0
C44 C 0.56008 0.82731 0.07694 0.0
O45 O 0.58049 0.82592 0.05436 0.0
O46 O 0.54989 0.84761 0.08091 0.0
O47 O 0.59449 0.88373 0.11986 0.0
O48 O 0.54727 0.91201 0.06525 0.0
C49 C 0.5582 0.93167 0.07306 0.0
O50 O 0.58163 0.93124 0.07975 0.0
O51 O 0.5866 0.87982 0.99544 0.0
Mg52 Mg 0.1393 0.44234 0.06311 0.0
C53 C 0.15068 0.41162 0.97936 0.0
O54 O 0.17302 0.41788 0.98831 0.0
C55 C 0.14272 0.43373 0.16498 0.0
O56 O 0.1503 0.45605 0.16354 0.0
C57 C 0.17745 0.47043 0.01248 0.0
O58 O 0.15867 0.4749 0.98641 0.0
O59 O 0.17419 0.45909 0.04977 0.0
O60 O 0.13393 0.41783 1.0065 0.0
O61 O 0.10793 0.466 0.06055 0.0
C62 C 0.08841 0.4553 0.04986 0.0
O63 O 0.0891 0.43212 0.042 0.0
O64 O 0.13777 0.42309 0.12771 0.0
Mg65 Mg 0.57047 0.64049 0.31112 0.0
C66 C 0.5855 0.64254 0.21693 0.0
O67 O 0.56216 0.64652 0.21691 0.0
C68 C 0.57246 0.6332 0.41087 0.0
O69 O 0.5499 0.62852 0.40027 0.0
C70 C 0.55939 0.69279 0.29875 0.0
O71 O 0.57975 0.69436 0.32157 0.0
O72 O 0.54953 0.67233 0.2942 0.0
O73 O 0.59601 0.63902 0.25503 0.0
O74 O 0.54993 0.60732 0.30505 0.0
C75 C 0.56235 0.58871 0.29627 0.0
O76 O 0.58578 0.59101 0.29125 0.0
O77 O 0.58653 0.64031 0.37932 0.0
Mg78 Mg 0.38548 0.07274 0.559 0.0
C79 C 0.38255 0.0885 0.46254 0.0
O80 O 0.37029 0.06834 0.46246 0.0
C81 C 0.39274 0.07791 0.65833 0.0
O82 O 0.39426 0.05469 0.65129 0.0
C83 C 0.33361 0.07336 0.53961 0.0
O84 O 0.33944 0.09599 0.54573 0.0
O85 O 0.34967 0.05752 0.54702 0.0
O86 O 0.39152 0.09592 0.50007 0.0
O87 O 0.41542 0.04727 0.55983 0.0
C88 C 0.42641 0.04077 0.52377 0.0
O89 O 0.41804 0.04752 0.48382 0.0
O90 O 0.38783 0.09142 0.62451 0.0
Mg91 Mg 0.95512 0.8823 0.81156 0.0
C92 C 0.94237 0.88183 0.71538 0.0
O93 O 0.96563 0.87737 0.71643 0.0
C94 C 0.94698 0.87929 0.91305 0.0
O95 O 0.97043 0.87609 0.91146 0.0
C96 C 0.96591 0.82988 0.7996 0.0
O97 O 0.94546 0.82838 0.82203 0.0
O98 O 0.97585 0.85031 0.79518 0.0
O99 O 0.93137 0.88501 0.75298 0.0
O100 O 0.97614 0.91532 0.8106 0.0
C101 C 0.96426 0.93405 0.80008 0.0
O102 O 0.94112 0.93193 0.79132 0.0
O103 O 0.93536 0.88121 0.87573 0.0
Mg104 Mg 0.63835 0.57118 0.8191 0.0
C105 C 0.64075 0.58635 0.91358 0.0
O106 O 0.64685 0.56359 0.91364 0.0
C107 C 0.62775 0.57484 0.72018 0.0
O108 O 0.62246 0.55244 0.7299 0.0
C109 C 0.69035 0.56993 0.83387 0.0
O110 O 0.68586 0.59159 0.8183 0.0
O111 O 0.67326 0.55468 0.83357 0.0
O112 O 0.63558 0.59623 0.8756 0.0
O113 O 0.60645 0.54843 0.82605 0.0
C114 C 0.58728 0.56008 0.83505 0.0
O115 O 0.58876 0.58346 0.83981 0.0
O116 O 0.63619 0.58808 0.75181 0.0
Mg117 Mg 0.45864 0.14221 0.06293 0.0
C118 C 0.44596 0.1395 0.15809 0.0
O119 O 0.46936 0.14314 0.15662 0.0
C120 C 0.45453 0.13551 0.96322 0.0
O121 O 0.4773 0.13082 0.97196 0.0
C122 C 0.46705 0.19506 0.07594 0.0
O123 O 0.44686 0.19576 0.05243 0.0
O124 O 0.47765 0.17504 0.08108 0.0
O125 O 0.43445 0.13794 0.12054 0.0
O126 O 0.48153 0.11053 0.06501 0.0
C127 C 0.47062 0.09077 0.072 0.0
O128 O 0.44713 0.09108 0.0778 0.0
O129 O 0.44115 0.14238 0.99598 0.0
Mg130 Mg 0.8862 0.94926 0.31408 0.0
C131 C 0.88464 0.93645 0.41074 0.0
O132 O 0.87727 0.95883 0.40972 0.0
C133 C 0.88314 0.93895 0.21302 0.0
O134 O 0.8756 0.96128 0.21333 0.0
C135 C 0.83423 0.95016 0.32905 0.0
O136 O 0.83892 0.92823 0.31525 0.0
O137 O 0.85114 0.96558 0.32736 0.0
O138 O 0.8901 0.92626 0.3733 0.0
O139 O 0.91775 0.97271 0.31581 0.0
C140 C 0.93703 0.96202 0.3279 0.0
O141 O 0.9359 0.93908 0.33791 0.0
O142 O 0.88789 0.92879 0.25086 0.0
Mg143 Mg 0.07343 0.38178 0.56962 0.0
C144 C 0.0849 0.39058 0.66392 0.0
O145 O 0.06132 0.39226 0.66065 0.0
C146 C 0.08113 0.37708 0.46868 0.0
O147 O 0.0576 0.37457 0.47104 0.0
C148 C 0.06201 0.32926 0.58433 0.0
O149 O 0.08089 0.3268 0.55767 0.0
O150 O 0.05343 0.35011 0.5908 0.0
O151 O 0.09697 0.38665 0.62782 0.0
O152 O 0.05113 0.4138 0.56599 0.0
C153 C 0.0619 0.43371 0.57205 0.0
O154 O 0.08525 0.4336 0.57971 0.0
O155 O 0.09308 0.37909 0.5056 0.0
Mg156 Mg 0.64081 0.94946 0.55731 0.0
C157 C 0.64246 0.93503 0.46215 0.0
O158 O 0.64919 0.95763 0.46259 0.0
C159 C 0.62997 0.94516 0.65594 0.0
O160 O 0.62478 0.96762 0.64658 0.0
C161 C 0.69277 0.95048 0.54179 0.0
O162 O 0.68818 0.92864 0.55632 0.0
O163 O 0.67582 0.96582 0.54312 0.0
O164 O 0.63736 0.92496 0.49996 0.0
O165 O 0.60932 0.97276 0.55127 0.0
C166 C 0.59008 0.96173 0.54007 0.0
O167 O 0.59117 0.93852 0.53271 0.0
O168 O 0.63851 0.9321 0.62419 0.0
Mg169 Mg 0.07342 0.13975 0.80807 0.0
C170 C 0.08672 0.14536 0.7109 0.0
O171 O 0.06574 0.15612 0.71341 0.0
C172 C 0.08389 0.14488 0.90802 0.0
O173 O 0.06088 0.15047 0.90674 0.0
C174 C 0.06364 0.19267 0.80122 0.0
O175 O 0.08472 0.19312 0.82173 0.0
O176 O 0.05305 0.1726 0.79612 0.0
O177 O 0.09552 0.13595 0.74689 0.0
O178 O 0.05095 0.10783 0.81319 0.0
C179 C 0.04152 0.0979 0.77838 0.0
O180 O 0.04396 0.10807 0.73817 0.0
O181 O 0.09473 0.14065 0.87061 0.0
Mg182 Mg 0.88585 0.57071 0.05983 0.0
C183 C 0.88357 0.58661 0.96343 0.0
O184 O 0.87077 0.56678 0.96326 0.0
C185 C 0.89205 0.57628 0.15956 0.0
O186 O 0.89348 0.55301 0.15309 0.0
C187 C 0.83353 0.57152 0.04396 0.0
O188 O 0.83869 0.59341 0.0575 0.0
O189 O 0.85011 0.5558 0.04575 0.0
O190 O 0.89269 0.59376 1.00102 0.0
O191 O 0.91551 0.54496 0.06222 0.0
C192 C 0.9269 0.5383 0.02672 0.0
O193 O 0.91915 0.54512 0.98635 0.0
O194 O 0.88758 0.58961 0.12526 0.0
Mg195 Mg 0.45271 0.38388 0.30958 0.0
C196 C 0.42609 0.40949 0.23383 0.0
O197 O 0.43486 0.42837 0.25492 0.0
C198 C 0.44902 0.38544 0.40999 0.0
O199 O 0.47203 0.38923 0.40197 0.0
C200 C 0.46438 0.33148 0.2943 0.0
O201 O 0.44578 0.32886 0.32163 0.0
O202 O 0.47263 0.35243 0.28719 0.0
O203 O 0.42826 0.38903 0.25247 0.0
O204 O 0.47539 0.4157 0.31335 0.0
C205 C 0.48843 0.4231 0.28054 0.0
O206 O 0.48967 0.41031 0.24293 0.0
O207 O 0.43527 0.38088 0.37624 0.0
H208 H 0.30052 0.10447 0.50523 0.0
H209 H 0.3146 0.02868 0.52063 0.0
H210 H 0.26475 0.09547 0.46041 0.0
H211 H 0.27819 0.0197 0.47574 0.0
H212 H 0.19336 0.02297 0.43901 0.0
H213 H 0.23127 0.02637 0.4815 0.0
H214 H 0.25788 0.07665 0.38145 0.0
H215 H 0.22024 0.07323 0.3388 0.0
C216 C 0.29589 0.08584 0.49947 0.0
C217 C 0.31053 0.06729 0.51652 0.0
C218 C 0.27546 0.08072 0.47338 0.0
C219 C 0.26888 0.05691 0.46401 0.0
C220 C 0.28292 0.03823 0.48235 0.0
C221 C 0.3037 0.04338 0.50806 0.0
C222 C 0.20748 0.03438 0.42556 0.0
C223 C 0.20365 0.04798 0.38566 0.0
C224 C 0.2292 0.03627 0.4499 0.0
C225 C 0.24736 0.05202 0.43511 0.0
C226 C 0.24403 0.06461 0.39397 0.0
C227 C 0.22251 0.06251 0.36937 0.0
H228 H 0.99166 0.83162 0.72005 0.0
H229 H 0.95674 0.78228 0.81258 0.0
H230 H 0.99715 0.79917 0.66483 0.0
H231 H 0.96284 0.74974 0.75775 0.0
H232 H 0.99213 0.69364 0.65804 0.0
H233 H 0.99734 0.72611 0.71343 0.0
H234 H 0.9627 0.77528 0.62042 0.0
H235 H 0.95691 0.74273 0.56539 0.0
C236 C 0.9858 0.81373 0.72921 0.0
C237 C 0.9737 0.80951 0.77069 0.0
C238 C 0.98882 0.79521 0.69744 0.0
C239 C 0.98035 0.77201 0.70699 0.0
C240 C 0.96969 0.76744 0.74966 0.0
C241 C 0.96617 0.78606 0.78099 0.0
C242 C 0.98613 0.7115 0.64892 0.0
C243 C 0.97408 0.71565 0.60732 0.0
C244 C 0.98899 0.73001 0.68078 0.0
C245 C 0.98038 0.75315 0.67121 0.0
C246 C 0.96967 0.75763 0.62851 0.0
C247 C 0.96632 0.73901 0.59707 0.0
H248 H 0.30676 0.41651 0.90332 0.0
H249 H 0.312 0.48929 0.85356 0.0
H250 H 0.2704 0.4267 0.94485 0.0
H251 H 0.27502 0.49951 0.89553 0.0
H252 H 0.19089 0.49114 0.9314 0.0
H253 H 0.23005 0.48812 0.89363 0.0
H254 H 0.25903 0.45211 0.01208 0.0
H255 H 0.22 0.455 0.04986 0.0
C256 C 0.30014 0.43473 0.90108 0.0
C257 C 0.31236 0.45208 0.87498 0.0
C258 C 0.27936 0.44062 0.92535 0.0
C259 C 0.26999 0.46398 0.924 0.0
C260 C 0.28187 0.48136 0.89729 0.0
C261 C 0.303 0.47551 0.87329 0.0
C262 C 0.20574 0.48304 0.94983 0.0
C263 C 0.20217 0.47304 0.99351 0.0
C264 C 0.2282 0.48138 0.92816 0.0
C265 C 0.2475 0.46955 0.94958 0.0
C266 C 0.24436 0.46098 0.9944 0.0
C267 C 0.222 0.46278 0.01617 0.0
H268 H 0.56963 0.77975 0.06458 0.0
H269 H 0.53415 0.82901 0.15626 0.0
H270 H 0.56336 0.74724 0.11946 0.0
H271 H 0.52845 0.79657 0.21153 0.0
H272 H 0.56833 0.74041 0.31187 0.0
H273 H 0.56249 0.77291 0.25681 0.0
H274 H 0.52883 0.72339 0.1631 0.0
H275 H 0.53406 0.69096 0.21856 0.0
C276 C 0.56006 0.78352 0.096 0.0
C277 C 0.55239 0.80693 0.10604 0.0
C278 C 0.55642 0.76491 0.12736 0.0
C279 C 0.54551 0.76945 0.16979 0.0
C280 C 0.53696 0.79263 0.1791 0.0
C281 C 0.5401 0.81113 0.14731 0.0
C282 C 0.55909 0.7366 0.28005 0.0
C283 C 0.55167 0.71313 0.26961 0.0
C284 C 0.55572 0.7552 0.24858 0.0
C285 C 0.54532 0.7506 0.20564 0.0
C286 C 0.53695 0.72738 0.19592 0.0
C287 C 0.53982 0.70887 0.22783 0.0
H288 H 0.70244 0.5312 0.88817 0.0
H289 H 0.72933 0.59933 0.8395 0.0
H290 H 0.73679 0.52848 0.94111 0.0
H291 H 0.7631 0.59663 0.89223 0.0
H292 H 0.796 0.60231 0.03282 0.0
H293 H 0.76217 0.59867 0.98042 0.0
H294 H 0.78537 0.52753 0.94316 0.0
H295 H 0.81978 0.53116 0.99576 0.0
C296 C 0.71586 0.54533 0.88805 0.0
C297 C 0.71298 0.56561 0.85987 0.0
C298 C 0.73547 0.54377 0.91843 0.0
C299 C 0.75232 0.56258 0.92136 0.0
C300 C 0.75012 0.5821 0.89134 0.0
C301 C 0.73079 0.58356 0.86092 0.0
C302 C 0.79384 0.58571 0.01404 0.0
C303 C 0.81081 0.56713 0.01823 0.0
C304 C 0.77448 0.5837 0.98379 0.0
C305 C 0.7714 0.563 0.95711 0.0
C306 C 0.78739 0.54372 0.96323 0.0
C307 C 0.80703 0.5458 0.9934 0.0
H308 H 0.48781 0.33365 0.21221 0.0
H309 H 0.45752 0.28358 0.30911 0.0
H310 H 0.49378 0.30096 0.15774 0.0
H311 H 0.46395 0.25087 0.25486 0.0
H312 H 0.49289 0.1949 0.15559 0.0
H313 H 0.49755 0.22804 0.20968 0.0
H314 H 0.46106 0.27533 0.11563 0.0
H315 H 0.45596 0.24215 0.06186 0.0
C316 C 0.483 0.31559 0.22238 0.0
C317 C 0.47208 0.31121 0.26496 0.0
C318 C 0.48631 0.29693 0.19105 0.0
C319 C 0.47925 0.27343 0.20202 0.0
C320 C 0.46971 0.2688 0.24562 0.0
C321 C 0.46597 0.28753 0.27662 0.0
C322 C 0.48637 0.2125 0.14595 0.0
C323 C 0.47401 0.21592 0.10444 0.0
C324 C 0.4889 0.2314 0.17709 0.0
C325 C 0.47959 0.2542 0.16691 0.0
C326 C 0.46857 0.25798 0.12424 0.0
C327 C 0.4656 0.23898 0.0935 0.0
H328 H 0.82196 0.98996 0.38019 0.0
H329 H 0.79568 0.92043 0.33783 0.0
H330 H 0.78797 0.99341 0.43362 0.0
H331 H 0.76229 0.92386 0.39108 0.0
H332 H 0.73132 0.92081 0.53341 0.0
H333 H 0.76467 0.92408 0.48 0.0
H334 H 0.7389 0.99333 0.43617 0.0
H335 H 0.70494 0.99003 0.48976 0.0
C336 C 0.80874 0.97567 0.38153 0.0
C337 C 0.81171 0.9548 0.35502 0.0
C338 C 0.78935 0.97765 0.41218 0.0
C339 C 0.77281 0.9587 0.41706 0.0
C340 C 0.77504 0.93855 0.38864 0.0
C341 C 0.79415 0.93666 0.35793 0.0
C342 C 0.73282 0.93694 0.51298 0.0
C343 C 0.71525 0.95504 0.51559 0.0
C344 C 0.75191 0.93874 0.48219 0.0
C345 C 0.7541 0.95875 0.45338 0.0
C346 C 0.73755 0.97767 0.45792 0.0
C347 C 0.71818 0.97578 0.48865 0.0
H348 H 0.06767 0.28128 0.56914 0.0
H349 H 0.04059 0.3319 0.66819 0.0
H350 H 0.06192 0.2487 0.62414 0.0
H351 H 0.03544 0.29936 0.72344 0.0
H352 H 0.0765 0.23945 0.81404 0.0
H353 H 0.07008 0.27288 0.76135 0.0
H354 H 0.0278 0.227 0.67365 0.0
H355 H 0.03352 0.19369 0.72693 0.0
C356 C 0.06004 0.28536 0.60228 0.0
C357 C 0.05458 0.30914 0.61428 0.0
C358 C 0.0567 0.26673 0.6337 0.0
C359 C 0.04831 0.27157 0.67805 0.0
C360 C 0.04195 0.29518 0.68949 0.0
C361 C 0.04478 0.31374 0.65773 0.0
C362 C 0.06529 0.23665 0.78417 0.0
C363 C 0.05567 0.21387 0.77458 0.0
C364 C 0.06159 0.25579 0.75405 0.0
C365 C 0.0486 0.25243 0.71329 0.0
C366 C 0.03798 0.23 0.70474 0.0
C367 C 0.0412 0.21099 0.7354 0.0
H368 H 0.07223 0.03529 0.26724 0.0
H369 H 0.07414 0.02298 0.41295 0.0
H370 H 0.03254 0.01611 0.26327 0.0
H371 H 0.03465 1.00372 0.4088 0.0
H372 H 0.9776 0.94679 0.37111 0.0
H373 H 0.01694 0.96613 0.37395 0.0
H374 H 0.98957 0.02481 0.29293 0.0
H375 H 0.94983 1.00543 0.29021 0.0
C376 C 0.06431 0.02828 0.29831 0.0
C377 C 0.07637 0.03059 0.34041 0.0
C378 C 0.0415 0.01753 0.29607 0.0
C379 C 0.03047 1.00853 0.33575 0.0
C380 C 0.04276 1.0104 0.37763 0.0
C381 C 0.06537 0.02144 0.37998 0.0
C382 C 0.97987 0.96385 0.35394 0.0
C383 C 0.96056 0.97459 0.33043 0.0
C384 C 1.00242 0.97496 0.35575 0.0
C385 C 1.00634 0.99695 0.33364 0.0
C386 C 0.98709 1.00775 0.30999 0.0
C387 C 0.96433 0.99676 0.30871 0.0
H388 H 0.95481 0.5468 0.59584 0.0
H389 H 0.01826 0.58349 0.54633 0.0
H390 H 0.97669 0.50906 0.59585 0.0
H391 H 0.04004 0.54549 0.5449 0.0
H392 H 0.01476 0.44144 0.54783 0.0
H393 H 0.99318 0.47953 0.54616 0.0
H394 H 0.05723 0.51597 0.59402 0.0
H395 H 0.07893 0.47811 0.59423 0.0
C396 C 0.97343 0.5468 0.58468 0.0
C397 C 0.9848 0.56818 0.57114 0.0
C398 C 0.98594 0.52507 0.58437 0.0
C399 C 1.01013 0.52412 0.57019 0.0
C400 C 0.02153 0.54556 0.55663 0.0
C401 C 1.00903 0.56735 0.55724 0.0
C402 C 0.02422 0.4576 0.55791 0.0
C403 C 0.04856 0.45672 0.57113 0.0
C404 C 1.01182 0.47945 0.5572 0.0
C405 C 0.02343 0.5009 0.57001 0.0
C406 C 0.04779 0.49994 0.58322 0.0
C407 C 0.06021 0.47815 0.58363 0.0
H408 H 0.45417 0.48334 0.77767 0.0
H409 H 0.44367 0.51123 0.91393 0.0
H410 H 0.49443 0.50103 0.77579 0.0
H411 H 0.48399 0.52885 0.91196 0.0
H412 H 0.54569 0.5793 0.86776 0.0
H413 H 0.50585 0.56108 0.87094 0.0
H414 H 0.53461 0.49571 0.81392 0.0
H415 H 0.57476 0.51408 0.8105 0.0
C416 C 0.46036 0.49338 0.80713 0.0
C417 C 0.44562 0.49594 0.84593 0.0
C418 C 0.48354 0.5033 0.80618 0.0
C419 C 0.49246 0.51622 0.84381 0.0
C420 C 0.47758 0.51912 0.8823 0.0
C421 C 0.45447 0.50901 0.88343 0.0
C422 C 0.54362 0.561 0.85603 0.0
C423 C 0.56344 0.54815 0.8388 0.0
C424 C 0.52076 0.55052 0.8581 0.0
C425 C 0.51704 0.52697 0.84265 0.0
C426 C 0.53687 0.51399 0.82569 0.0
C427 C 0.55988 0.52443 0.82402 0.0
H428 H 0.57568 0.9754 0.09852 0.0
H429 H 0.51123 0.94043 0.04883 0.0
H430 H 0.55471 0.01368 0.09897 0.0
H431 H 0.4904 0.97893 0.0479 0.0
H432 H 0.45301 0.04694 0.0963 0.0
H433 H 0.47404 1.00872 0.09731 0.0
H434 H 0.53881 0.04373 0.04928 0.0
H435 H 0.51787 0.08221 0.04966 0.0
C436 C 0.55704 0.97589 0.08746 0.0
C437 C 0.54512 0.95483 0.07369 0.0
C438 C 0.54505 0.99792 0.08741 0.0
C439 C 0.52086 0.9995 0.07332 0.0
C440 C 0.50892 0.97838 0.05959 0.0
C441 C 0.52089 0.95629 0.05991 0.0
C442 C 0.47176 0.04653 0.08601 0.0
C443 C 0.48377 0.06765 0.07292 0.0
C444 C 0.48379 0.02453 0.08629 0.0
C445 C 0.50812 0.02304 0.0732 0.0
C446 C 0.52016 0.04422 0.06018 0.0
C447 C 0.50814 0.06629 0.06018 0.0
H448 H 0.07649 0.49995 0.08292 0.0
H449 H 0.04748 0.43953 1.00852 0.0
H450 H 0.03712 0.51992 0.07811 0.0
H451 H 1.00854 0.45944 1.00358 0.0
H452 H 0.95193 0.51548 0.95929 0.0
H453 H 0.9913 0.49616 0.96493 0.0
H454 H 0.99413 0.51279 0.10886 0.0
H455 H 0.9546 0.53204 0.10342 0.0
C456 C 0.0618 0.49101 0.0654 0.0
C457 C 0.06511 0.46817 0.04614 0.0
C458 C 0.03926 0.50235 0.06291 0.0
C459 C 0.01977 0.49122 0.04045 0.0
C460 C 0.02324 0.46854 0.02077 0.0
C461 C 0.04556 0.45711 0.02382 0.0
C462 C 0.96085 0.5149 0.99222 0.0
C463 C 0.95006 0.52521 0.03092 0.0
C464 C 0.9834 0.50381 0.99544 0.0
C465 C 0.99584 0.50307 0.03729 0.0
C466 C 0.98507 0.51332 0.07606 0.0
C467 C 0.96233 0.52413 0.073 0.0
H468 H 0.51816 0.44435 0.21778 0.0
H469 H 0.48452 0.4563 0.34891 0.0
H470 H 0.53542 0.48461 0.2205 0.0
H471 H 0.50193 0.49644 0.35166 0.0
H472 H 0.51573 0.57576 0.31612 0.0
H473 H 0.49793 0.53565 0.31188 0.0
H474 H 0.56587 0.50727 0.26456 0.0
H475 H 0.58356 0.54718 0.2684 0.0
C476 C 0.51456 0.45548 0.2473 0.0
C477 C 0.49999 0.44706 0.28314 0.0
C478 C 0.5245 0.47854 0.24889 0.0
C479 C 0.51996 0.49376 0.28622 0.0
C480 C 0.50549 0.48528 0.32215 0.0
C481 C 0.49569 0.46218 0.32072 0.0
C482 C 0.52681 0.56097 0.30463 0.0
C483 C 0.55106 0.56468 0.29266 0.0
C484 C 0.51667 0.53798 0.30247 0.0
C485 C 0.53051 0.51827 0.28793 0.0
C486 C 0.55465 0.52209 0.27544 0.0
C487 C 0.56482 0.54498 0.27791 0.0
H488 H 0.45504 0.03453 0.59926 0.0
H489 H 0.45116 0.01892 0.45483 0.0
H490 H 0.49508 0.01625 0.6026 0.0
H491 H 0.49107 1.00061 0.45836 0.0
H492 H 0.54954 0.94542 0.49807 0.0
H493 H 0.51002 0.96429 0.49465 0.0
H494 H 0.53734 0.02475 0.57094 0.0
H495 H 0.57723 1.00582 0.5743 0.0
C496 C 0.46262 0.02703 0.56833 0.0
C497 C 0.44986 0.02811 0.52678 0.0
C498 C 0.48564 0.01678 0.57019 0.0
C499 C 0.49625 1.00711 0.53071 0.0
C500 C 0.48331 1.00781 0.48939 0.0
C501 C 0.46045 0.01832 0.48739 0.0
C502 C 0.54722 0.96279 0.514 0.0
C503 C 0.56654 0.97414 0.53646 0.0
C504 C 0.52456 0.97363 0.51185 0.0
C505 C 0.52056 0.99597 0.53257 0.0
C506 C 0.53987 1.00742 0.55497 0.0
C507 C 0.56272 0.99669 0.55659 0.0
H508 H 0.04082 0.06791 0.85252 0.0
H509 H 0.01538 0.07412 0.71338 0.0
H510 H 0.02256 0.02811 0.85794 0.0
H511 H 0.9972 0.03436 0.71891 0.0
H512 H 0.94504 0.97516 0.76565 0.0
H513 H 0.96352 0.01469 0.76121 0.0
H514 H 0.0283 0.98689 0.82365 0.0
H515 H 1.00974 0.94707 0.82823 0.0
C516 C 0.03124 0.06086 0.82317 0.0
C517 C 0.02951 0.07423 0.78253 0.0
C518 C 0.02096 0.03798 0.82619 0.0
C519 C 1.0085 0.02809 0.78883 0.0
C520 C 1.00653 0.04158 0.74841 0.0
C521 C 0.01701 0.06434 0.74521 0.0
C522 C 0.96324 0.9774 0.77847 0.0
C523 C 0.97593 0.95793 0.7973 0.0
C524 C 0.97386 1.00006 0.77568 0.0
C525 C 0.99736 1.0039 0.79201 0.0
C526 C 1.01007 0.9845 0.81111 0.0
C527 C 0.99951 0.96169 0.81349 0.0
H528 H 0.12555 0.11731 0.68761 0.0
H529 H 0.07473 0.16844 0.63243 0.0
H530 H 0.14187 0.1109 0.61091 0.0
H531 H 0.0912 0.16232 0.55647 0.0
H532 H 0.10154 0.11716 0.42623 0.0
H533 H 0.08924 0.12893 0.50269 0.0
H534 H 0.16374 0.12974 0.54599 0.0
H535 H 0.17614 0.11761 0.46931 0.0
C536 C 0.11813 0.12742 0.6593 0.0
C537 C 0.09865 0.14311 0.66597 0.0
C538 C 0.12752 0.12384 0.61544 0.0
C539 C 0.11761 0.13592 0.57759 0.0
C540 C 0.0989 0.15241 0.58477 0.0
C541 C 0.08952 0.15594 0.62839 0.0
C542 C 0.11535 0.12013 0.45183 0.0
C543 C 0.13981 0.11641 0.44168 0.0
C544 C 0.10831 0.12698 0.49565 0.0
C545 C 0.12553 0.13023 0.53041 0.0
C546 C 0.15005 0.12713 0.52001 0.0
C547 C 0.15714 0.12038 0.47601 0.0
H548 H 0.89839 0.6299 0.67688 0.0
H549 H 0.96787 0.63892 0.74175 0.0
H550 H 0.88029 0.62177 0.75148 0.0
H551 H 0.95011 0.63014 0.81541 0.0
H552 H 0.91166 0.62647 0.94868 0.0
H553 H 0.92393 0.64314 0.87507 0.0
H554 H 0.88098 0.58963 0.80559 0.0
H555 H 0.86816 0.57363 0.87865 0.0
C556 C 0.90976 0.63024 0.707 0.0
C557 C 0.93459 0.63485 0.70331 0.0
C558 C 0.89943 0.62551 0.74972 0.0
C559 C 0.91375 0.62524 0.78954 0.0
C560 C 0.93842 0.63057 0.78575 0.0
C561 C 0.94868 0.63536 0.74326 0.0
C562 C 0.90458 0.61854 0.91766 0.0
C563 C 0.88918 0.59856 0.91955 0.0
C564 C 0.91169 0.62799 0.87546 0.0
C565 C 0.90364 0.61758 0.83431 0.0
C566 C 0.88735 0.5983 0.83643 0.0
C567 C 0.88017 0.58897 0.8785 0.0
H568 H 0.40683 0.37434 0.17925 0.0
H569 H 0.43145 0.44792 0.17707 0.0
H570 H 0.40314 0.37498 0.0959 0.0
H571 H 0.42791 0.44836 0.09413 0.0
H572 H 0.45116 0.42964 0.94956 0.0
H573 H 0.45195 0.426 0.03253 0.0
H574 H 0.37992 0.39664 0.03069 0.0
H575 H 0.37894 0.40039 0.9474 0.0
C576 C 0.41105 0.39075 0.16114 0.0
C577 C 0.41958 0.41103 0.18482 0.0
C578 C 0.40897 0.39107 0.11346 0.0
C579 C 0.41568 0.41157 0.08863 0.0
C580 C 0.42306 0.43217 0.11244 0.0
C581 C 0.42485 0.43197 0.16001 0.0
C582 C 0.43564 0.42199 0.96663 0.0
C583 C 0.41494 0.41543 0.94185 0.0
C584 C 0.43601 0.42015 0.0142 0.0
C585 C 0.41584 0.41143 0.03799 0.0
C586 C 0.39568 0.40349 0.01315 0.0
C587 C 0.39516 0.40562 0.96551 0.0
H588 H 0.62358 0.89022 0.44628 0.0
H589 H 0.65342 0.95212 0.37771 0.0
H590 H 0.61367 0.87251 0.37217 0.0
H591 H 0.64295 0.93489 0.30428 0.0
H592 H 0.63033 0.89565 0.1736 0.0
H593 H 0.64896 0.90425 0.24765 0.0
H594 H 0.58363 0.88168 0.31569 0.0
H595 H 0.56544 0.87254 0.24244 0.0
C596 C 0.62825 0.89991 0.41546 0.0
C597 C 0.63896 0.92271 0.41789 0.0
C598 C 0.62249 0.88984 0.37301 0.0
C599 C 0.6273 0.90238 0.33224 0.0
C600 C 0.6392 0.92459 0.33483 0.0
C601 C 0.64499 0.9346 0.3771 0.0
C602 C 0.62014 0.8922 0.20446 0.0
C603 C 0.59632 0.88372 0.20212 0.0
C604 C 0.63076 0.8972 0.24686 0.0
C605 C 0.61774 0.8938 0.28765 0.0
C606 C 0.59433 0.88424 0.28515 0.0
C607 C 0.58378 0.87924 0.24296 0.0
H608 H 0.06443 0.40539 0.74302 0.0
H609 H 0.13143 0.37886 0.68745 0.0
H610 H 0.08218 0.40646 0.81862 0.0
H611 H 0.1492 0.37926 0.76412 0.0
H612 H 0.17704 0.41404 0.90071 0.0
H613 H 0.16251 0.4066 0.82332 0.0
H614 H 0.09513 0.38026 0.87802 0.0
H615 H 0.10931 0.38859 0.95514 0.0
C616 C 0.08296 0.39963 0.74701 0.0
C617 C 0.09651 0.39199 0.70927 0.0
C618 C 0.0931 0.4 0.79055 0.0
C619 C 0.117 0.39253 0.79766 0.0
C620 C 0.13074 0.38517 0.75979 0.0
C621 C 0.12059 0.38494 0.71593 0.0
C622 C 0.15933 0.40616 0.8962 0.0
C623 C 0.14415 0.4022 0.93389 0.0
C624 C 0.151 0.40187 0.85181 0.0
C625 C 0.12745 0.39334 0.84442 0.0
C626 C 0.1131 0.38752 0.88246 0.0
C627 C 0.12129 0.39208 0.92668 0.0
H628 H 0.6318 0.62693 0.20139 0.0
H629 H 0.56788 0.65271 0.13259 0.0
H630 H 0.65019 0.61824 0.1273 0.0
H631 H 0.58576 0.64342 0.0593 0.0
H632 H 0.62413 0.63208 0.92851 0.0
H633 H 0.61577 0.65083 1.0023 0.0
H634 H 0.64267 0.58773 0.07131 0.0
H635 H 0.65165 0.56949 0.99822 0.0
C636 C 0.62182 0.63102 0.17052 0.0
C637 C 0.59826 0.64014 0.17286 0.0
C638 C 0.63228 0.62595 0.1281 0.0
C639 C 0.61936 0.62991 0.0873 0.0
C640 C 0.59638 0.64036 0.08983 0.0
C641 C 0.58599 0.64545 0.13204 0.0
C642 C 0.62862 0.62244 0.9595 0.0
C643 C 0.63819 0.59917 0.95751 0.0
C644 C 0.62376 0.63312 1.00177 0.0
C645 C 0.62834 0.6207 0.04279 0.0
C646 C 0.63916 0.59798 0.04058 0.0
C647 C 0.64406 0.58738 0.99849 0.0
H648 H 0.36767 0.07496 0.37777 0.0
H649 H 0.40965 0.12903 0.44772 0.0
H650 H 0.38045 0.09096 0.30469 0.0
H651 H 0.42187 0.14568 0.37408 0.0
H652 H 0.4669 0.1412 0.24198 0.0
H653 H 0.44872 0.13278 0.31542 0.0
H654 H 0.37952 0.12279 0.24991 0.0
H655 H 0.39807 0.13055 0.17556 0.0
C656 C 0.37931 0.09057 0.37758 0.0
C657 C 0.38794 0.1005 0.41862 0.0
C658 C 0.38647 0.0999 0.33551 0.0
C659 C 0.40236 0.1195 0.33338 0.0
C660 C 0.40996 0.13027 0.37449 0.0
C661 C 0.40287 0.12083 0.41671 0.0
C662 C 0.44775 0.13738 0.2431 0.0
C663 C 0.43398 0.13627 0.2028 0.0
C664 C 0.43725 0.13279 0.28545 0.0
C665 C 0.41264 0.12709 0.28872 0.0
C666 C 0.39861 0.12682 0.24854 0.0
C667 C 0.40919 0.13134 0.20596 0.0
H668 H 0.96114 0.87378 0.63109 0.0
H669 H 0.89598 0.89672 0.69902 0.0
H670 H 0.9433 0.88318 0.55759 0.0
H671 H 0.87775 0.90561 0.62481 0.0
H672 H 0.87423 0.95397 0.49516 0.0
H673 H 0.88457 0.93668 0.56868 0.0
H674 H 0.91305 0.87397 0.50095 0.0
H675 H 0.90325 0.89168 0.42686 0.0
C676 C 0.94282 0.88048 0.6303 0.0
C677 C 0.9301 0.88485 0.67093 0.0
C678 C 0.93248 0.88565 0.588 0.0
C679 C 0.90912 0.89526 0.58528 0.0
C680 C 0.89591 0.89852 0.62583 0.0
C681 C 0.9063 0.89335 0.6683 0.0
C682 C 0.88247 0.93637 0.49585 0.0
C683 C 0.88827 0.92435 0.45514 0.0
C684 C 0.88818 0.92634 0.53813 0.0
C685 C 0.89977 0.904 0.54073 0.0
C686 C 0.90444 0.89139 0.50005 0.0
C687 C 0.89875 0.90148 0.45763 0.0
H688 H 0.1293 0.12711 0.92366 0.0
H689 H 0.06565 0.15252 0.99338 0.0
H690 H 0.14698 0.11565 0.99697 0.0
H691 H 0.0831 0.14074 0.0663 0.0
H692 H 0.12597 0.13036 0.19563 0.0
H693 H 0.1147 0.14811 0.12239 0.0
H694 H 0.13896 0.08426 0.05287 0.0
H695 H 0.15058 0.0667 0.12577 0.0
C696 C 0.11919 0.13051 0.95461 0.0
C697 C 0.09597 0.14057 0.95257 0.0
C698 C 0.12926 0.1238 0.99662 0.0
C699 C 0.1164 0.1271 0.03755 0.0
C700 C 0.09364 0.13814 0.03558 0.0
C701 C 0.08355 0.14477 0.99364 0.0
C702 C 0.1292 0.12024 0.16467 0.0
C703 C 0.13902 0.09702 0.16666 0.0
C704 C 0.12261 0.13037 0.12269 0.0
C705 C 0.12577 0.11757 0.08172 0.0
C706 C 0.1365 0.09475 0.08363 0.0
C707 C 0.14302 0.0846 0.12556 0.0
H708 H 0.90842 0.6456 0.4294 0.0
H709 H 0.97627 0.61256 0.39353 0.0
H710 H 0.89156 0.63305 0.35533 0.0
H711 H 0.95936 0.59991 0.32077 0.0
H712 H 0.91058 0.55254 0.23271 0.0
H713 H 0.92409 0.56903 0.30524 0.0
H714 H 0.90104 0.63952 0.26328 0.0
H715 H 0.88765 0.62305 0.18947 0.0
C716 C 0.91977 0.63588 0.40571 0.0
C717 C 0.94366 0.62999 0.41756 0.0
C718 C 0.91014 0.62878 0.36336 0.0
C719 C 0.92413 0.61535 0.33261 0.0
C720 C 0.94812 0.61005 0.34403 0.0
C721 C 0.95781 0.6174 0.38575 0.0
C722 C 0.90814 0.57154 0.23879 0.0
C723 C 0.89816 0.58649 0.20502 0.0
C724 C 0.91598 0.58097 0.28039 0.0
C725 C 0.91376 0.60555 0.28969 0.0
C726 C 0.9029 0.62048 0.2569 0.0
C727 C 0.89534 0.61106 0.2147 0.0
H728 H 0.3834 0.39506 0.68497 0.0
H729 H 0.40962 0.46502 0.64508 0.0
H730 H 0.39615 0.37893 0.61053 0.0
H731 H 0.42256 0.44882 0.57203 0.0
H732 H 0.47304 0.40351 0.48335 0.0
H733 H 0.45669 0.41509 0.55715 0.0
H734 H 0.38661 0.38884 0.5171 0.0
H735 H 0.40288 0.37746 0.442 0.0
C736 C 0.39168 0.40699 0.66036 0.0
C737 C 0.39558 0.4313 0.67111 0.0
C738 C 0.39888 0.39778 0.61783 0.0
C739 C 0.41047 0.41264 0.58586 0.0
C740 C 0.41382 0.43696 0.59625 0.0
C741 C 0.40632 0.44622 0.63813 0.0
C742 C 0.45419 0.3999 0.49015 0.0
C743 C 0.43923 0.38971 0.45649 0.0
C744 C 0.44485 0.4066 0.53248 0.0
C745 C 0.4204 0.40299 0.5426 0.0
C746 C 0.40556 0.39175 0.51004 0.0
C747 C 0.41486 0.38533 0.46712 0.0
H748 H 0.60484 0.96709 0.72371 0.0
H749 H 0.6412 0.9007 0.69162 0.0
H750 H 0.59226 0.95061 0.79673 0.0
H751 H 0.62859 0.88422 0.76579 0.0
H752 H 0.61893 0.88015 0.92973 0.0
H753 H 0.63436 0.89296 0.8549 0.0
H754 H 0.56303 0.91654 0.81684 0.0
H755 H 0.54761 0.90375 0.89059 0.0
C756 C 0.61033 0.94901 0.73231 0.0
C757 C 0.62393 0.93517 0.70157 0.0
C758 C 0.603 0.93954 0.77417 0.0
C759 C 0.60925 0.91606 0.78676 0.0
C760 C 0.62355 0.90239 0.7569 0.0
C761 C 0.63067 0.9118 0.71447 0.0
C762 C 0.60652 0.88781 0.90514 0.0
C763 C 0.58206 0.89109 0.91636 0.0
C764 C 0.61535 0.89506 0.86232 0.0
C765 C 0.59993 0.90598 0.83032 0.0
C766 C 0.5754 0.90848 0.84107 0.0
C767 C 0.56656 0.90104 0.88337 0.0
H768 H 0.06102 0.37239 0.38394 0.0
H769 H 0.12788 0.3905 0.45169 0.0
H770 H 0.07866 0.38329 0.31069 0.0
H771 H 0.14564 0.40117 0.37809 0.0
H772 H 0.15198 0.45115 0.25055 0.0
H773 H 0.13953 0.43417 0.32352 0.0
H774 H 0.10925 0.37296 0.25351 0.0
H775 H 0.12145 0.39007 0.18032 0.0
C776 C 0.07961 0.37834 0.38315 0.0
C777 C 0.09296 0.38074 0.42377 0.0
C778 C 0.08978 0.38447 0.34105 0.0
C779 C 0.11353 0.39324 0.33853 0.0
C780 C 0.1272 0.39476 0.37895 0.0
C781 C 0.11706 0.38849 0.42109 0.0
C782 C 0.14291 0.43393 0.25069 0.0
C783 C 0.13755 0.42208 0.20951 0.0
C784 C 0.1359 0.42412 0.2926 0.0
C785 C 0.12327 0.40225 0.29436 0.0
C786 C 0.11868 0.38998 0.25329 0.0
C787 C 0.12579 0.39974 0.21136 0.0
H788 H 0.6384 0.61946 0.68462 0.0
H789 H 0.60384 0.55216 0.65147 0.0
H790 H 0.62618 0.63553 0.60988 0.0
H791 H 0.59171 0.56819 0.57778 0.0
H792 H 0.54721 0.61344 0.48104 0.0
H793 H 0.56207 0.60082 0.55535 0.0
H794 H 0.6329 0.62764 0.5219 0.0
H795 H 0.61801 0.64034 0.44657 0.0
C796 C 0.62836 0.60807 0.66141 0.0
C797 C 0.62198 0.58457 0.6742 0.0
C798 C 0.62146 0.61724 0.61864 0.0
C799 C 0.60778 0.60318 0.58826 0.0
C800 C 0.60193 0.57957 0.60074 0.0
C801 C 0.60902 0.57036 0.64299 0.0
C802 C 0.56593 0.61688 0.48939 0.0
C803 C 0.58145 0.62775 0.45757 0.0
C804 C 0.57445 0.60953 0.53201 0.0
C805 C 0.5987 0.613 0.54424 0.0
C806 C 0.61411 0.62477 0.51335 0.0
C807 C 0.60559 0.63196 0.47025 0.0
H808 H 0.38785 0.12435 0.68963 0.0
H809 H 0.41234 0.05392 0.73012 0.0
H810 H 0.40142 0.14044 0.76361 0.0
H811 H 0.42602 0.07003 0.80284 0.0
H812 H 0.47732 0.11326 0.89288 0.0
H813 H 0.4606 0.10103 0.81969 0.0
H814 H 0.39248 0.13334 0.85487 0.0
H815 H 0.40915 0.14549 0.92929 0.0
C816 C 0.39594 0.11231 0.71429 0.0
C817 C 0.39912 0.08788 0.70382 0.0
C818 C 0.40361 0.1215 0.75658 0.0
C819 C 0.41494 0.10649 0.78866 0.0
C820 C 0.41756 0.08204 0.77854 0.0
C821 C 0.40962 0.07282 0.73685 0.0
C822 C 0.45882 0.11801 0.88514 0.0
C823 C 0.44453 0.13023 0.91721 0.0
C824 C 0.44925 0.1109 0.84318 0.0
C825 C 0.42522 0.11608 0.83182 0.0
C826 C 0.41109 0.12918 0.86285 0.0
C827 C 0.42061 0.13604 0.90541 0.0
H828 H 0.87454 0.9555 0.1266 0.0
H829 H 0.90447 0.89516 0.19985 0.0
H830 H 0.8876 0.93791 0.05464 0.0
H831 H 0.91727 0.8774 0.12762 0.0
H832 H 0.96642 0.87541 0.99855 0.0
H833 H 0.94826 0.88703 0.07091 0.0
H834 H 0.88197 0.90463 1.00094 0.0
H835 H 0.90026 0.89327 0.92825 0.0
C836 C 0.88359 0.9383 0.12735 0.0
C837 C 0.88862 0.92685 0.16908 0.0
C838 C 0.89096 0.92813 0.08599 0.0
C839 C 0.9036 0.90629 0.08534 0.0
C840 C 0.90785 0.8944 0.12697 0.0
C841 C 0.90038 0.90452 0.16836 0.0
C842 C 0.94787 0.88147 0.99858 0.0
C843 C 0.93488 0.88357 0.9575 0.0
C844 C 0.9374 0.88801 0.04018 0.0
C845 C 0.91369 0.8969 0.04173 0.0
C846 C 0.90038 0.89815 1.00085 0.0
C847 C 0.91082 0.89149 0.95922 0.0
loop_
_geom_bond_atom_site_label_1
_geom_bond_atom_site_label_2
_geom_bond_distance
_geom_bond_site_symmetry_2
_ccdc_geom_bond_type
Mg0 O7 2.141 . S
Mg0 O8 2.048 . S
Mg0 O9 2.048 . S
Mg0 O12 2.141 . S
C1 O2 1.313 . S
C1 O8 1.195 . S
O2 C1 1.313 . S
C3 O4 1.245 . S
C3 O12 1.289 . S
O4 C3 1.245 . S
C5 O6 1.245 . S
C5 O7 1.289 . S
O6 C5 1.245 . S
O7 Mg0 2.141 . S
O7 C5 1.289 . S
O8 Mg0 2.048 . S
O8 C1 1.195 . S
O9 Mg0 2.048 . S
O9 C10 1.195 . S
C10 O9 1.195 . S
C10 O11 1.313 . S
O11 C10 1.313 . S
O12 Mg0 2.141 . S
O12 C3 1.289 . S
Mg13 O20 2.141 . S
Mg13 O21 2.048 . S
Mg13 O22 2.048 . S
Mg13 O25 2.141 . S
C14 O15 1.313 . S
C14 O21 1.195 . S
O15 C14 1.313 . S
C16 O17 1.245 . S
C16 O25 1.289 . S
O17 C16 1.245 . S
C18 O19 1.245 . S
C18 O20 1.289 . S
O19 C18 1.245 . S
O20 Mg13 2.141 . S
O20 C18 1.289 . S
O21 Mg13 2.048 . S
O21 C14 1.195 . S
O22 Mg13 2.048 . S
O22 C23 1.195 . S
C23 O22 1.195 . S
C23 O24 1.313 . S
O24 C23 1.313 . S
O25 Mg13 2.141 . S
O25 C16 1.289 . S
Mg26 O33 2.141 . S
Mg26 O34 2.048 . S
Mg26 O35 2.048 . S
Mg26 O38 2.141 . S
C27 O28 1.313 . S
C27 O34 1.195 . S
O28 C27 1.313 . S
C29 O30 1.245 . S
C29 O38 1.289 . S
O30 C29 1.245 . S
C31 O32 1.245 . S
C31 O33 1.289 . S
O32 C31 1.245 . S
O33 Mg26 2.141 . S
O33 C31 1.289 . S
O34 Mg26 2.048 . S
O34 C27 1.195 . S
O35 Mg26 2.048 . S
O35 C36 1.195 . S
C36 O35 1.195 . S
C36 O37 1.313 . S
O37 C36 1.313 . S
O38 Mg26 2.141 . S
O38 C29 1.289 . S
Mg39 O46 2.141 . S
Mg39 O47 2.048 . S
Mg39 O48 2.048 . S
Mg39 O51 2.141 . S
C40 O41 1.313 . S
C40 O47 1.195 . S
O41 C40 1.313 . S
C42 O43 1.245 . S
C42 O51 1.289 1_556 S
O43 C42 1.245 . S
C44 O45 1.245 . S
C44 O46 1.289 . S
O45 C44 1.245 . S
O46 Mg39 2.141 . S
O46 C44 1.289 . S
O47 Mg39 2.048 . S
O47 C40 1.195 . S
O48 Mg39 2.048 . S
O48 C49 1.195 . S
C49 O48 1.195 . S
C49 O50 1.313 . S
O50 C49 1.313 . S
O51 Mg39 2.141 . S
O51 C42 1.289 1_554 S
Mg52 O59 2.141 . S
Mg52 O60 2.048 1_554 S
Mg52 O61 2.048 . S
Mg52 O64 2.141 . S
C53 O54 1.313 . S
C53 O60 1.195 . S
O54 C53 1.313 . S
C55 O56 1.245 . S
C55 O64 1.289 . S
O56 C55 1.245 . S
C57 O58 1.245 . S
C57 O59 1.289 . S
O58 C57 1.245 . S
O59 Mg52 2.141 . S
O59 C57 1.289 . S
O60 Mg52 2.048 1_556 S
O60 C53 1.195 . S
O61 Mg52 2.048 . S
O61 C62 1.195 . S
C62 O61 1.195 . S
C62 O63 1.313 . S
O63 C62 1.313 . S
O64 Mg52 2.141 . S
O64 C55 1.289 . S
Mg65 O72 2.141 . S
Mg65 O73 2.048 . S
Mg65 O74 2.048 . S
Mg65 O77 2.141 . S
C66 O67 1.313 . S
C66 O73 1.195 . S
O67 C66 1.313 . S
C68 O69 1.245 . S
C68 O77 1.289 . S
O69 C68 1.245 . S
C70 O71 1.245 . S
C70 O72 1.289 . S
O71 C70 1.245 . S
O72 Mg65 2.141 . S
O72 C70 1.289 . S
O73 Mg65 2.048 . S
O73 C66 1.195 . S
O74 Mg65 2.048 . S
O74 C75 1.195 . S
C75 O74 1.195 . S
C75 O76 1.313 . S
O76 C75 1.313 . S
O77 Mg65 2.141 . S
O77 C68 1.289 . S
Mg78 O85 2.141 . S
Mg78 O86 2.048 . S
Mg78 O87 2.048 . S
Mg78 O90 2.141 . S
C79 O80 1.313 . S
C79 O86 1.195 . S
O80 C79 1.313 . S
C81 O82 1.245 . S
C81 O90 1.289 . S
O82 C81 1.245 . S
C83 O84 1.245 . S
C83 O85 1.289 . S
O84 C83 1.245 . S
O85 Mg78 2.141 . S
O85 C83 1.289 . S
O86 Mg78 2.048 . S
O86 C79 1.195 . S
O87 Mg78 2.048 . S
O87 C88 1.195 . S
C88 O87 1.195 . S
C88 O89 1.313 . S
O89 C88 1.313 . S
O90 Mg78 2.141 . S
O90 C81 1.289 . S
Mg91 O98 2.141 . S
Mg91 O99 2.048 . S
Mg91 O100 2.048 . S
Mg91 O103 2.141 . S
C92 O93 1.313 . S
C92 O99 1.195 . S
O93 C92 1.313 . S
C94 O95 1.245 . S
C94 O103 1.289 . S
O95 C94 1.245 . S
C96 O97 1.245 . S
C96 O98 1.289 . S
O97 C96 1.245 . S
O98 Mg91 2.141 . S
O98 C96 1.289 . S
O99 Mg91 2.048 . S
O99 C92 1.195 . S
O100 Mg91 2.048 . S
O100 C101 1.195 . S
C101 O100 1.195 . S
C101 O102 1.313 . S
O102 C101 1.313 . S
O103 Mg91 2.141 . S
O103 C94 1.289 . S
Mg104 O111 2.141 . S
Mg104 O112 2.048 . S
Mg104 O113 2.048 . S
Mg104 O116 2.141 . S
C105 O106 1.313 . S
C105 O112 1.195 . S
O106 C105 1.313 . S
C107 O108 1.245 . S
C107 O116 1.289 . S
O108 C107 1.245 . S
C109 O110 1.245 . S
C109 O111 1.289 . S
O110 C109 1.245 . S
O111 Mg104 2.141 . S
O111 C109 1.289 . S
O112 Mg104 2.048 . S
O112 C105 1.195 . S
O113 Mg104 2.048 . S
O113 C114 1.195 . S
C114 O113 1.195 . S
C114 O115 1.313 . S
O115 C114 1.313 . S
O116 Mg104 2.141 . S
O116 C107 1.289 . S
Mg117 O124 2.141 . S
Mg117 O125 2.048 . S
Mg117 O126 2.048 . S
Mg117 O129 2.141 . S
C118 O119 1.313 . S
C118 O125 1.195 . S
O119 C118 1.313 . S
C120 O121 1.245 . S
C120 O129 1.289 1_556 S
O121 C120 1.245 . S
C122 O123 1.245 . S
C122 O124 1.289 . S
O123 C122 1.245 . S
O124 Mg117 2.141 . S
O124 C122 1.289 . S
O125 Mg117 2.048 . S
O125 C118 1.195 . S
O126 Mg117 2.048 . S
O126 C127 1.195 . S
C127 O126 1.195 . S
C127 O128 1.313 . S
O128 C127 1.313 . S
O129 Mg117 2.141 . S
O129 C120 1.289 1_554 S
Mg130 O137 2.141 . S
Mg130 O138 2.048 . S
Mg130 O139 2.048 . S
Mg130 O142 2.141 . S
C131 O132 1.313 . S
C131 O138 1.195 . S
O132 C131 1.313 . S
C133 O134 1.245 . S
C133 O142 1.289 . S
O134 C133 1.245 . S
C135 O136 1.245 . S
C135 O137 1.289 . S
O136 C135 1.245 . S
O137 Mg130 2.141 . S
O137 C135 1.289 . S
O138 Mg130 2.048 . S
O138 C131 1.195 . S
O139 Mg130 2.048 . S
O139 C140 1.195 . S
C140 O139 1.195 . S
C140 O141 1.313 . S
O141 C140 1.313 . S
O142 Mg130 2.141 . S
O142 C133 1.289 . S
Mg143 O150 2.141 . S
Mg143 O151 2.048 . S
Mg143 O152 2.048 . S
Mg143 O155 2.141 . S
C144 O145 1.313 . S
C144 O151 1.195 . S
O145 C144 1.313 . S
C146 O147 1.245 . S
C146 O155 1.289 . S
O147 C146 1.245 . S
C148 O149 1.245 . S
C148 O150 1.289 . S
O149 C148 1.245 . S
O150 Mg143 2.141 . S
O150 C148 1.289 . S
O151 Mg143 2.048 . S
O151 C144 1.195 . S
O152 Mg143 2.048 . S
O152 C153 1.195 . S
C153 O152 1.195 . S
C153 O154 1.313 . S
O154 C153 1.313 . S
O155 Mg143 2.141 . S
O155 C146 1.289 . S
Mg156 O163 2.141 . S
Mg156 O164 2.048 . S
Mg156 O165 2.048 . S
Mg156 O168 2.141 . S
C157 O158 1.313 . S
C157 O164 1.195 . S
O158 C157 1.313 . S
C159 O160 1.245 . S
C159 O168 1.289 . S
O160 C159 1.245 . S
C161 O162 1.245 . S
C161 O163 1.289 . S
O162 C161 1.245 . S
O163 Mg156 2.141 . S
O163 C161 1.289 . S
O164 Mg156 2.048 . S
O164 C157 1.195 . S
O165 Mg156 2.048 . S
O165 C166 1.195 . S
C166 O165 1.195 . S
C166 O167 1.313 . S
O167 C166 1.313 . S
O168 Mg156 2.141 . S
O168 C159 1.289 . S
Mg169 O176 2.141 . S
Mg169 O177 2.048 . S
Mg169 O178 2.048 . S
Mg169 O181 2.141 . S
C170 O171 1.313 . S
C170 O177 1.195 . S
O171 C170 1.313 . S
C172 O173 1.245 . S
C172 O181 1.289 . S
O173 C172 1.245 . S
C174 O175 1.245 . S
C174 O176 1.289 . S
O175 C174 1.245 . S
O176 Mg169 2.141 . S
O176 C174 1.289 . S
O177 Mg169 2.048 . S
O177 C170 1.195 . S
O178 Mg169 2.048 . S
O178 C179 1.195 . S
C179 O178 1.195 . S
C179 O180 1.313 . S
O180 C179 1.313 . S
O181 Mg169 2.141 . S
O181 C172 1.289 . S
Mg182 O189 2.141 . S
Mg182 O190 2.048 1_554 S
Mg182 O191 2.048 . S
Mg182 O194 2.141 . S
C183 O184 1.313 . S
C183 O190 1.195 . S
O184 C183 1.313 . S
C185 O186 1.245 . S
C185 O194 1.289 . S
O186 C185 1.245 . S
C187 O188 1.245 . S
C187 O189 1.289 . S
O188 C187 1.245 . S
O189 Mg182 2.141 . S
O189 C187 1.289 . S
O190 Mg182 2.048 1_556 S
O190 C183 1.195 . S
O191 Mg182 2.048 . S
O191 C192 1.195 . S
C192 O191 1.195 . S
C192 O193 1.313 . S
O193 C192 1.313 . S
O194 Mg182 2.141 . S
O194 C185 1.289 . S
Mg195 O202 2.141 . S
Mg195 O203 2.048 . S
Mg195 O204 2.048 . S
Mg195 O207 2.141 . S
C196 O197 1.313 . S
C196 O203 1.195 . S
O197 C196 1.313 . S
C198 O199 1.245 . S
C198 O207 1.289 . S
O199 C198 1.245 . S
C200 O201 1.245 . S
C200 O202 1.289 . S
O201 C200 1.245 . S
O202 Mg195 2.141 . S
O202 C200 1.289 . S
O203 Mg195 2.048 . S
O203 C196 1.195 . S
O204 Mg195 2.048 . S
O204 C205 1.195 . S
C205 O204 1.195 . S
C205 O206 1.313 . S
O206 C205 1.313 . S
O207 Mg195 2.141 . S
O207 C198 1.289 . S
H208 C216 0.950 . S
H209 C221 0.950 . S
H210 C218 0.950 . S
H211 C220 0.950 . S
H212 C222 0.950 . S
H213 C224 0.950 . S
H214 C226 0.950 . S
H215 C227 0.950 . S
C216 H208 0.950 . S
C216 C217 1.386 . S
C216 C218 1.391 . S
C217 C216 1.386 . S
C217 C221 1.393 . S
C218 H210 0.950 . S
C218 C216 1.391 . S
C218 C219 1.400 . S
C219 C218 1.400 . S
C219 C220 1.398 . S
C219 C225 1.491 . S
C220 H211 0.950 . S
C220 C219 1.398 . S
C220 C221 1.391 . S
C221 H209 0.950 . S
C221 C217 1.393 . S
C221 C220 1.391 . S
C222 H212 0.950 . S
C222 C223 1.386 . S
C222 C224 1.391 . S
C223 C222 1.386 . S
C223 C227 1.393 . S
C224 H213 0.950 . S
C224 C222 1.391 . S
C224 C225 1.400 . S
C225 C219 1.491 . S
C225 C224 1.400 . S
C225 C226 1.398 . S
C226 H214 0.950 . S
C226 C225 1.398 . S
C226 C227 1.391 . S
C227 H215 0.950 . S
C227 C223 1.393 . S
C227 C226 1.391 . S
H228 C236 0.950 . S
H229 C241 0.950 . S
H230 C238 0.950 . S
H231 C240 0.950 . S
H232 C242 0.950 . S
H233 C244 0.950 . S
H234 C246 0.950 . S
H235 C247 0.950 . S
C236 H228 0.950 . S
C236 C237 1.386 . S
C236 C238 1.391 . S
C237 C236 1.386 . S
C237 C241 1.393 . S
C238 H230 0.950 . S
C238 C236 1.391 . S
C238 C239 1.400 . S
C239 C238 1.400 . S
C239 C240 1.398 . S
C239 C245 1.491 . S
C240 H231 0.950 . S
C240 C239 1.398 . S
C240 C241 1.391 . S
C241 H229 0.950 . S
C241 C237 1.393 . S
C241 C240 1.391 . S
C242 H232 0.950 . S
C242 C243 1.386 . S
C242 C244 1.391 . S
C243 C242 1.386 . S
C243 C247 1.393 . S
C244 H233 0.950 . S
C244 C242 1.391 . S
C244 C245 1.400 . S
C245 C239 1.491 . S
C245 C244 1.400 . S
C245 C246 1.398 . S
C246 H234 0.950 . S
C246 C245 1.398 . S
C246 C247 1.391 . S
C247 H235 0.950 . S
C247 C243 1.393 . S
C247 C246 1.391 . S
H248 C256 0.950 . S
H249 C261 0.950 . S
H250 C258 0.950 . S
H251 C260 0.950 . S
H252 C262 0.950 1_554 S
H253 C264 0.950 . S
H254 C266 0.950 . S
H255 C267 0.950 . S
C256 H248 0.950 . S
C256 C257 1.386 . S
C256 C258 1.391 . S
C257 C256 1.386 . S
C257 C261 1.393 . S
C258 H250 0.950 . S
C258 C256 1.391 . S
C258 C259 1.400 . S
C259 C258 1.400 . S
C259 C260 1.398 . S
C259 C265 1.491 . S
C260 H251 0.950 . S
C260 C259 1.398 . S
C260 C261 1.391 . S
C261 H249 0.950 . S
C261 C257 1.393 . S
C261 C260 1.391 . S
C262 H252 0.950 1_556 S
C262 C263 1.386 . S
C262 C264 1.391 . S
C263 C262 1.386 . S
C263 C267 1.393 . S
C264 H253 0.950 . S
C264 C262 1.391 . S
C264 C265 1.400 . S
C265 C259 1.491 . S
C265 C264 1.400 . S
C265 C266 1.398 . S
C266 H254 0.950 . S
C266 C265 1.398 . S
C266 C267 1.391 . S
C267 H255 0.950 . S
C267 C263 1.393 . S
C267 C266 1.391 . S
H268 C276 0.950 . S
H269 C281 0.950 . S
H270 C278 0.950 . S
H271 C280 0.950 . S
H272 C282 0.950 . S
H273 C284 0.950 . S
H274 C286 0.950 . S
H275 C287 0.950 . S
C276 H268 0.950 . S
C276 C277 1.386 . S
C276 C278 1.391 . S
C277 C276 1.386 . S
C277 C281 1.393 . S
C278 H270 0.950 . S
C278 C276 1.391 . S
C278 C279 1.400 . S
C279 C278 1.400 . S
C279 C280 1.398 . S
C279 C285 1.491 . S
C280 H271 0.950 . S
C280 C279 1.398 . S
C280 C281 1.391 . S
C281 H269 0.950 . S
C281 C277 1.393 . S
C281 C280 1.391 . S
C282 H272 0.950 . S
C282 C283 1.386 . S
C282 C284 1.391 . S
C283 C282 1.386 . S
C283 C287 1.393 . S
C284 H273 0.950 . S
C284 C282 1.391 . S
C284 C285 1.400 . S
C285 C279 1.491 . S
C285 C284 1.400 . S
C285 C286 1.398 . S
C286 H274 0.950 . S
C286 C285 1.398 . S
C286 C287 1.391 . S
C287 H275 0.950 . S
C287 C283 1.393 . S
C287 C286 1.391 . S
H288 C296 0.950 . S
H289 C301 0.950 . S
H290 C298 0.950 . S
H291 C300 0.950 . S
H292 C302 0.950 . S
H293 C304 0.950 . S
H294 C306 0.950 . S
H295 C307 0.950 . S
C296 H288 0.950 . S
C296 C297 1.386 . S
C296 C298 1.391 . S
C297 C296 1.386 . S
C297 C301 1.393 . S
C298 H290 0.950 . S
C298 C296 1.391 . S
C298 C299 1.400 . S
C299 C298 1.400 . S
C299 C300 1.398 . S
C299 C305 1.491 . S
C300 H291 0.950 . S
C300 C299 1.398 . S
C300 C301 1.391 . S
C301 H289 0.950 . S
C301 C297 1.393 . S
C301 C300 1.391 . S
C302 H292 0.950 . S
C302 C303 1.386 . S
C302 C304 1.391 . S
C303 C302 1.386 . S
C303 C307 1.393 1_556 S
C304 H293 0.950 . S
C304 C302 1.391 . S
C304 C305 1.400 . S
C305 C299 1.491 . S
C305 C304 1.400 . S
C305 C306 1.398 . S
C306 H294 0.950 . S
C306 C305 1.398 . S
C306 C307 1.391 1_556 S
C307 H295 0.950 . S
C307 C303 1.393 1_554 S
C307 C306 1.391 1_554 S
H308 C316 0.950 . S
H309 C321 0.950 . S
H310 C318 0.950 . S
H311 C320 0.950 . S
H312 C322 0.950 . S
H313 C324 0.950 . S
H314 C326 0.950 . S
H315 C327 0.950 . S
C316 H308 0.950 . S
C316 C317 1.386 . S
C316 C318 1.391 . S
C317 C316 1.386 . S
C317 C321 1.393 . S
C318 H310 0.950 . S
C318 C316 1.391 . S
C318 C319 1.400 . S
C319 C318 1.400 . S
C319 C320 1.398 . S
C319 C325 1.491 . S
C320 H311 0.950 . S
C320 C319 1.398 . S
C320 C321 1.391 . S
C321 H309 0.950 . S
C321 C317 1.393 . S
C321 C320 1.391 . S
C322 H312 0.950 . S
C322 C323 1.386 . S
C322 C324 1.391 . S
C323 C322 1.386 . S
C323 C327 1.393 . S
C324 H313 0.950 . S
C324 C322 1.391 . S
C324 C325 1.400 . S
C325 C319 1.491 . S
C325 C324 1.400 . S
C325 C326 1.398 . S
C326 H314 0.950 . S
C326 C325 1.398 . S
C326 C327 1.391 . S
C327 H315 0.950 . S
C327 C323 1.393 . S
C327 C326 1.391 . S
H328 C336 0.950 . S
H329 C341 0.950 . S
H330 C338 0.950 . S
H331 C340 0.950 . S
H332 C342 0.950 . S
H333 C344 0.950 . S
H334 C346 0.950 . S
H335 C347 0.950 . S
C336 H328 0.950 . S
C336 C337 1.386 . S
C336 C338 1.391 . S
C337 C336 1.386 . S
C337 C341 1.393 . S
C338 H330 0.950 . S
C338 C336 1.391 . S
C338 C339 1.400 . S
C339 C338 1.400 . S
C339 C340 1.398 . S
C339 C345 1.491 . S
C340 H331 0.950 . S
C340 C339 1.398 . S
C340 C341 1.391 . S
C341 H329 0.950 . S
C341 C337 1.393 . S
C341 C340 1.391 . S
C342 H332 0.950 . S
C342 C343 1.386 . S
C342 C344 1.391 . S
C343 C342 1.386 . S
C343 C347 1.393 . S
C344 H333 0.950 . S
C344 C342 1.391 . S
C344 C345 1.400 . S
C345 C339 1.491 . S
C345 C344 1.400 . S
C345 C346 1.398 . S
C346 H334 0.950 . S
C346 C345 1.398 . S
C346 C347 1.391 . S
C347 H335 0.950 . S
C347 C343 1.393 . S
C347 C346 1.391 . S
H348 C356 0.950 . S
H349 C361 0.950 . S
H350 C358 0.950 . S
H351 C360 0.950 . S
H352 C362 0.950 . S
H353 C364 0.950 . S
H354 C366 0.950 . S
H355 C367 0.950 . S
C356 H348 0.950 . S
C356 C357 1.386 . S
C356 C358 1.391 . S
C357 C356 1.386 . S
C357 C361 1.393 . S
C358 H350 0.950 . S
C358 C356 1.391 . S
C358 C359 1.400 . S
C359 C358 1.400 . S
C359 C360 1.398 . S
C359 C365 1.491 . S
C360 H351 0.950 . S
C360 C359 1.398 . S
C360 C361 1.391 . S
C361 H349 0.950 . S
C361 C357 1.393 . S
C361 C360 1.391 . S
C362 H352 0.950 . S
C362 C363 1.386 . S
C362 C364 1.391 . S
C363 C362 1.386 . S
C363 C367 1.393 . S
C364 H353 0.950 . S
C364 C362 1.391 . S
C364 C365 1.400 . S
C365 C359 1.491 . S
C365 C364 1.400 . S
C365 C366 1.398 . S
C366 H354 0.950 . S
C366 C365 1.398 . S
C366 C367 1.391 . S
C367 H355 0.950 . S
C367 C363 1.393 . S
C367 C366 1.391 . S
H368 C376 0.950 . S
H369 C381 0.950 . S
H370 C378 0.950 1_655 S
H371 C380 0.950 1_565 S
H372 C382 0.950 . S
H373 C384 0.950 1_455 S
H374 C386 0.950 1_545 S
H375 C387 0.950 . S
C376 H368 0.950 . S
C376 C377 1.386 . S
C376 C378 1.391 . S
C377 C376 1.386 . S
C377 C381 1.393 . S
C378 H370 0.950 1_455 S
C378 C376 1.391 . S
C378 C379 1.400 . S
C379 C378 1.400 . S
C379 C380 1.398 . S
C379 C385 1.491 1_445 S
C380 H371 0.950 1_545 S
C380 C379 1.398 . S
C380 C381 1.391 . S
C381 H369 0.950 . S
C381 C377 1.393 . S
C381 C380 1.391 . S
C382 H372 0.950 . S
C382 C383 1.386 . S
C382 C384 1.391 . S
C383 C382 1.386 . S
C383 C387 1.393 . S
C384 H373 0.950 1_655 S
C384 C382 1.391 . S
C384 C385 1.400 . S
C385 C379 1.491 1_665 S
C385 C384 1.400 . S
C385 C386 1.398 . S
C386 H374 0.950 1_565 S
C386 C385 1.398 . S
C386 C387 1.391 . S
C387 H375 0.950 . S
C387 C383 1.393 . S
C387 C386 1.391 . S
H388 C396 0.950 . S
H389 C401 0.950 . S
H390 C398 0.950 . S
H391 C400 0.950 . S
H392 C402 0.950 . S
H393 C404 0.950 . S
H394 C406 0.950 . S
H395 C407 0.950 . S
C396 H388 0.950 . S
C396 C397 1.386 . S
C396 C398 1.391 . S
C397 C396 1.386 . S
C397 C401 1.393 . S
C398 H390 0.950 . S
C398 C396 1.391 . S
C398 C399 1.400 . S
C399 C398 1.400 . S
C399 C400 1.398 . S
C399 C405 1.491 1_655 S
C400 H391 0.950 . S
C400 C399 1.398 . S
C400 C401 1.391 . S
C401 H389 0.950 . S
C401 C397 1.393 . S
C401 C400 1.391 . S
C402 H392 0.950 . S
C402 C403 1.386 . S
C402 C404 1.391 . S
C403 C402 1.386 . S
C403 C407 1.393 . S
C404 H393 0.950 . S
C404 C402 1.391 . S
C404 C405 1.400 . S
C405 C399 1.491 1_455 S
C405 C404 1.400 . S
C405 C406 1.398 . S
C406 H394 0.950 . S
C406 C405 1.398 . S
C406 C407 1.391 . S
C407 H395 0.950 . S
C407 C403 1.393 . S
C407 C406 1.391 . S
H408 C416 0.950 . S
H409 C421 0.950 . S
H410 C418 0.950 . S
H411 C420 0.950 . S
H412 C422 0.950 . S
H413 C424 0.950 . S
H414 C426 0.950 . S
H415 C427 0.950 . S
C416 H408 0.950 . S
C416 C417 1.386 . S
C416 C418 1.391 . S
C417 C416 1.386 . S
C417 C421 1.393 . S
C418 H410 0.950 . S
C418 C416 1.391 . S
C418 C419 1.400 . S
C419 C418 1.400 . S
C419 C420 1.398 . S
C419 C425 1.491 . S
C420 H411 0.950 . S
C420 C419 1.398 . S
C420 C421 1.391 . S
C421 H409 0.950 . S
C421 C417 1.393 . S
C421 C420 1.391 . S
C422 H412 0.950 . S
C422 C423 1.386 . S
C422 C424 1.391 . S
C423 C422 1.386 . S
C423 C427 1.393 . S
C424 H413 0.950 . S
C424 C422 1.391 . S
C424 C425 1.400 . S
C425 C419 1.491 . S
C425 C424 1.400 . S
C425 C426 1.398 . S
C426 H414 0.950 . S
C426 C425 1.398 . S
C426 C427 1.391 . S
C427 H415 0.950 . S
C427 C423 1.393 . S
C427 C426 1.391 . S
H428 C436 0.950 . S
H429 C441 0.950 . S
H430 C438 0.958 . S
H431 C440 0.950 . S
H432 C442 0.950 . S
H433 C444 0.958 . S
H434 C446 0.950 . S
H435 C447 0.950 . S
C436 H428 0.950 . S
C436 C437 1.386 . S
C436 C438 1.386 1_565 S
C437 C436 1.386 . S
C437 C441 1.393 . S
C438 H430 0.958 . S
C438 C436 1.386 1_545 S
C438 C439 1.397 1_545 S
C439 C438 1.397 1_565 S
C439 C440 1.398 . S
C439 C445 1.491 1_565 S
C440 H431 0.950 . S
C440 C439 1.398 . S
C440 C441 1.391 . S
C441 H429 0.950 . S
C441 C437 1.393 . S
C441 C440 1.391 . S
C442 H432 0.950 . S
C442 C443 1.386 . S
C442 C444 1.386 1_545 S
C443 C442 1.386 . S
C443 C447 1.393 . S
C444 H433 0.958 . S
C444 C442 1.386 1_565 S
C444 C445 1.397 1_565 S
C445 C439 1.491 1_545 S
C445 C444 1.397 1_545 S
C445 C446 1.398 . S
C446 H434 0.950 . S
C446 C445 1.398 . S
C446 C447 1.391 . S
C447 H435 0.950 . S
C447 C443 1.393 . S
C447 C446 1.391 . S
H448 C456 0.950 . S
H449 C461 0.950 1_556 S
H450 C458 0.950 . S
H451 C460 0.950 1_656 S
H452 C462 0.950 1_556 S
H453 C464 0.950 1_556 S
H454 C466 0.950 1_455 S
H455 C467 0.950 . S
C456 H448 0.950 . S
C456 C457 1.386 . S
C456 C458 1.391 . S
C457 C456 1.386 . S
C457 C461 1.393 . S
C458 H450 0.950 . S
C458 C456 1.391 . S
C458 C459 1.400 . S
C459 C458 1.400 . S
C459 C460 1.398 . S
C459 C465 1.491 1_455 S
C460 H451 0.950 1_454 S
C460 C459 1.398 . S
C460 C461 1.391 . S
C461 H449 0.950 1_554 S
C461 C457 1.393 . S
C461 C460 1.391 . S
C462 H452 0.950 1_554 S
C462 C463 1.386 . S
C462 C464 1.391 . S
C463 C462 1.386 . S
C463 C467 1.393 . S
C464 H453 0.950 1_554 S
C464 C462 1.391 . S
C464 C465 1.400 . S
C465 C459 1.491 1_655 S
C465 C464 1.400 . S
C465 C466 1.398 . S
C466 H454 0.950 1_655 S
C466 C465 1.398 . S
C466 C467 1.391 . S
C467 H455 0.950 . S
C467 C463 1.393 . S
C467 C466 1.391 . S
H468 C476 0.950 . S
H469 C481 0.950 . S
H470 C478 0.950 . S
H471 C480 0.950 . S
H472 C482 0.950 . S
H473 C484 0.950 . S
H474 C486 0.950 . S
H475 C487 0.950 . S
C476 H468 0.950 . S
C476 C477 1.386 . S
C476 C478 1.391 . S
C477 C476 1.386 . S
C477 C481 1.393 . S
C478 H470 0.950 . S
C478 C476 1.391 . S
C478 C479 1.400 . S
C479 C478 1.400 . S
C479 C480 1.398 . S
C479 C485 1.491 . S
C480 H471 0.950 . S
C480 C479 1.398 . S
C480 C481 1.391 . S
C481 H469 0.950 . S
C481 C477 1.393 . S
C481 C480 1.391 . S
C482 H472 0.950 . S
C482 C483 1.386 . S
C482 C484 1.391 . S
C483 C482 1.386 . S
C483 C487 1.393 . S
C484 H473 0.950 . S
C484 C482 1.391 . S
C484 C485 1.400 . S
C485 C479 1.491 . S
C485 C484 1.400 . S
C485 C486 1.398 . S
C486 H474 0.950 . S
C486 C485 1.398 . S
C486 C487 1.391 . S
C487 H475 0.950 . S
C487 C483 1.393 . S
C487 C486 1.391 . S
H488 C496 0.950 . S
H489 C501 0.950 . S
H490 C498 0.950 . S
H491 C500 0.950 1_565 S
H492 C502 0.950 . S
H493 C504 0.950 . S
H494 C506 0.950 1_545 S
H495 C507 0.950 . S
C496 H488 0.950 . S
C496 C497 1.386 . S
C496 C498 1.391 . S
C497 C496 1.386 . S
C497 C501 1.393 . S
C498 H490 0.950 . S
C498 C496 1.391 . S
C498 C499 1.400 . S
C499 C498 1.400 . S
C499 C500 1.398 . S
C499 C505 1.491 1_545 S
C500 H491 0.950 1_545 S
C500 C499 1.398 . S
C500 C501 1.391 . S
C501 H489 0.950 . S
C501 C497 1.393 . S
C501 C500 1.391 . S
C502 H492 0.950 . S
C502 C503 1.386 . S
C502 C504 1.391 . S
C503 C502 1.386 . S
C503 C507 1.393 . S
C504 H493 0.950 . S
C504 C502 1.391 . S
C504 C505 1.400 . S
C505 C499 1.491 1_565 S
C505 C504 1.400 . S
C505 C506 1.398 . S
C506 H494 0.950 1_565 S
C506 C505 1.398 . S
C506 C507 1.391 . S
C507 H495 0.950 . S
C507 C503 1.393 . S
C507 C506 1.391 . S
H508 C516 0.950 . S
H509 C521 0.950 . S
H510 C518 0.950 1_565 S
H511 C520 0.950 1_655 S
H512 C522 0.950 . S
H513 C524 0.950 1_545 S
H514 C526 0.950 1_455 S
H515 C527 0.950 . S
C516 H508 0.950 . S
C516 C517 1.386 . S
C516 C518 1.391 . S
C517 C516 1.386 . S
C517 C521 1.393 . S
C518 H510 0.950 1_545 S
C518 C516 1.391 . S
C518 C519 1.400 . S
C519 C518 1.400 . S
C519 C520 1.398 . S
C519 C525 1.491 1_445 S
C520 H511 0.950 1_455 S
C520 C519 1.398 . S
C520 C521 1.391 . S
C521 H509 0.950 . S
C521 C517 1.393 . S
C521 C520 1.391 . S
C522 H512 0.950 . S
C522 C523 1.386 . S
C522 C524 1.391 . S
C523 C522 1.386 . S
C523 C527 1.393 . S
C524 H513 0.950 1_565 S
C524 C522 1.391 . S
C524 C525 1.400 . S
C525 C519 1.491 1_665 S
C525 C524 1.400 . S
C525 C526 1.398 . S
C526 H514 0.950 1_655 S
C526 C525 1.398 . S
C526 C527 1.391 . S
C527 H515 0.950 . S
C527 C523 1.393 . S
C527 C526 1.391 . S
H528 C536 0.950 . S
H529 C541 0.950 . S
H530 C538 0.950 . S
H531 C540 0.950 . S
H532 C542 0.950 . S
H533 C544 0.950 . S
H534 C546 0.950 . S
H535 C547 0.950 . S
C536 H528 0.950 . S
C536 C537 1.386 . S
C536 C538 1.391 . S
C537 C536 1.386 . S
C537 C541 1.393 . S
C538 H530 0.950 . S
C538 C536 1.391 . S
C538 C539 1.400 . S
C539 C538 1.400 . S
C539 C540 1.398 . S
C539 C545 1.491 . S
C540 H531 0.950 . S
C540 C539 1.398 . S
C540 C541 1.391 . S
C541 H529 0.950 . S
C541 C537 1.393 . S
C541 C540 1.391 . S
C542 H532 0.950 . S
C542 C543 1.386 . S
C542 C544 1.391 . S
C543 C542 1.386 . S
C543 C547 1.393 . S
C544 H533 0.950 . S
C544 C542 1.391 . S
C544 C545 1.400 . S
C545 C539 1.491 . S
C545 C544 1.400 . S
C545 C546 1.398 . S
C546 H534 0.950 . S
C546 C545 1.398 . S
C546 C547 1.391 . S
C547 H535 0.950 . S
C547 C543 1.393 . S
C547 C546 1.391 . S
H548 C556 0.950 . S
H549 C561 0.950 . S
H550 C558 0.950 . S
H551 C560 0.950 . S
H552 C562 0.950 . S
H553 C564 0.950 . S
H554 C566 0.950 . S
H555 C567 0.950 . S
C556 H548 0.950 . S
C556 C557 1.386 . S
C556 C558 1.391 . S
C557 C556 1.386 . S
C557 C561 1.393 . S
C558 H550 0.950 . S
C558 C556 1.391 . S
C558 C559 1.400 . S
C559 C558 1.400 . S
C559 C560 1.398 . S
C559 C565 1.491 . S
C560 H551 0.950 . S
C560 C559 1.398 . S
C560 C561 1.391 . S
C561 H549 0.950 . S
C561 C557 1.393 . S
C561 C560 1.391 . S
C562 H552 0.950 . S
C562 C563 1.386 . S
C562 C564 1.391 . S
C563 C562 1.386 . S
C563 C567 1.393 . S
C564 H553 0.950 . S
C564 C562 1.391 . S
C564 C565 1.400 . S
C565 C559 1.491 . S
C565 C564 1.400 . S
C565 C566 1.398 . S
C566 H554 0.950 . S
C566 C565 1.398 . S
C566 C567 1.391 . S
C567 H555 0.950 . S
C567 C563 1.393 . S
C567 C566 1.391 . S
H568 C576 0.950 . S
H569 C581 0.950 . S
H570 C578 0.950 . S
H571 C580 0.950 . S
H572 C582 0.950 . S
H573 C584 0.950 . S
H574 C586 0.946 1_554 S
H575 C587 0.950 . S
C576 H568 0.950 . S
C576 C577 1.386 . S
C576 C578 1.391 . S
C577 C576 1.386 . S
C577 C581 1.393 . S
C578 H570 0.950 . S
C578 C576 1.391 . S
C578 C579 1.400 . S
C579 C578 1.400 . S
C579 C580 1.398 . S
C579 C585 1.491 . S
C580 H571 0.950 . S
C580 C579 1.398 . S
C580 C581 1.391 . S
C581 H569 0.950 . S
C581 C577 1.393 . S
C581 C580 1.391 . S
C582 H572 0.950 . S
C582 C583 1.386 . S
C582 C584 1.391 1_556 S
C583 C582 1.386 . S
C583 C587 1.393 . S
C584 H573 0.950 . S
C584 C582 1.391 1_554 S
C584 C585 1.400 . S
C585 C579 1.491 . S
C585 C584 1.400 . S
C585 C586 1.392 1_554 S
C586 H574 0.946 1_556 S
C586 C585 1.392 1_556 S
C586 C587 1.401 . S
C587 H575 0.950 . S
C587 C583 1.393 . S
C587 C586 1.401 . S
H588 C596 0.950 . S
H589 C601 0.950 . S
H590 C598 0.950 . S
H591 C600 0.950 . S
H592 C602 0.950 . S
H593 C604 0.950 . S
H594 C606 0.950 . S
H595 C607 0.950 . S
C596 H588 0.950 . S
C596 C597 1.386 . S
C596 C598 1.391 . S
C597 C596 1.386 . S
C597 C601 1.393 . S
C598 H590 0.950 . S
C598 C596 1.391 . S
C598 C599 1.400 . S
C599 C598 1.400 . S
C599 C600 1.398 . S
C599 C605 1.491 . S
C600 H591 0.950 . S
C600 C599 1.398 . S
C600 C601 1.391 . S
C601 H589 0.950 . S
C601 C597 1.393 . S
C601 C600 1.391 . S
C602 H592 0.950 . S
C602 C603 1.386 . S
C602 C604 1.391 . S
C603 C602 1.386 . S
C603 C607 1.393 . S
C604 H593 0.950 . S
C604 C602 1.391 . S
C604 C605 1.400 . S
C605 C599 1.491 . S
C605 C604 1.400 . S
C605 C606 1.398 . S
C606 H594 0.950 . S
C606 C605 1.398 . S
C606 C607 1.391 . S
C607 H595 0.950 . S
C607 C603 1.393 . S
C607 C606 1.391 . S
H608 C616 0.950 . S
H609 C621 0.950 . S
H610 C618 0.950 . S
H611 C620 0.950 . S
H612 C622 0.950 . S
H613 C624 0.950 . S
H614 C626 0.950 . S
H615 C627 0.950 . S
C616 H608 0.950 . S
C616 C617 1.386 . S
C616 C618 1.391 . S
C617 C616 1.386 . S
C617 C621 1.393 . S
C618 H610 0.950 . S
C618 C616 1.391 . S
C618 C619 1.400 . S
C619 C618 1.400 . S
C619 C620 1.398 . S
C619 C625 1.491 . S
C620 H611 0.950 . S
C620 C619 1.398 . S
C620 C621 1.391 . S
C621 H609 0.950 . S
C621 C617 1.393 . S
C621 C620 1.391 . S
C622 H612 0.950 . S
C622 C623 1.386 . S
C622 C624 1.391 . S
C623 C622 1.386 . S
C623 C627 1.393 . S
C624 H613 0.950 . S
C624 C622 1.391 . S
C624 C625 1.400 . S
C625 C619 1.491 . S
C625 C624 1.400 . S
C625 C626 1.398 . S
C626 H614 0.950 . S
C626 C625 1.398 . S
C626 C627 1.391 . S
C627 H615 0.950 . S
C627 C623 1.393 . S
C627 C626 1.391 . S
H628 C636 0.950 . S
H629 C641 0.950 . S
H630 C638 0.950 . S
H631 C640 0.950 . S
H632 C642 0.950 . S
H633 C644 0.950 1_554 S
H634 C646 0.950 . S
H635 C647 0.950 . S
C636 H628 0.950 . S
C636 C637 1.386 . S
C636 C638 1.391 . S
C637 C636 1.386 . S
C637 C641 1.393 . S
C638 H630 0.950 . S
C638 C636 1.391 . S
C638 C639 1.400 . S
C639 C638 1.400 . S
C639 C640 1.398 . S
C639 C645 1.491 . S
C640 H631 0.950 . S
C640 C639 1.398 . S
C640 C641 1.391 . S
C641 H629 0.950 . S
C641 C637 1.393 . S
C641 C640 1.391 . S
C642 H632 0.950 . S
C642 C643 1.386 . S
C642 C644 1.391 . S
C643 C642 1.386 . S
C643 C647 1.393 . S
C644 H633 0.950 1_556 S
C644 C642 1.391 . S
C644 C645 1.400 1_556 S
C645 C639 1.491 . S
C645 C644 1.400 1_554 S
C645 C646 1.398 . S
C646 H634 0.950 . S
C646 C645 1.398 . S
C646 C647 1.391 1_554 S
C647 H635 0.950 . S
C647 C643 1.393 . S
C647 C646 1.391 1_556 S
H648 C656 0.950 . S
H649 C661 0.950 . S
H650 C658 0.950 . S
H651 C660 0.950 . S
H652 C662 0.950 . S
H653 C664 0.950 . S
H654 C666 0.950 . S
H655 C667 0.950 . S
C656 H648 0.950 . S
C656 C657 1.386 . S
C656 C658 1.391 . S
C657 C656 1.386 . S
C657 C661 1.393 . S
C658 H650 0.950 . S
C658 C656 1.391 . S
C658 C659 1.400 . S
C659 C658 1.400 . S
C659 C660 1.398 . S
C659 C665 1.491 . S
C660 H651 0.950 . S
C660 C659 1.398 . S
C660 C661 1.391 . S
C661 H649 0.950 . S
C661 C657 1.393 . S
C661 C660 1.391 . S
C662 H652 0.950 . S
C662 C663 1.386 . S
C662 C664 1.391 . S
C663 C662 1.386 . S
C663 C667 1.393 . S
C664 H653 0.950 . S
C664 C662 1.391 . S
C664 C665 1.400 . S
C665 C659 1.491 . S
C665 C664 1.400 . S
C665 C666 1.398 . S
C666 H654 0.950 . S
C666 C665 1.398 . S
C666 C667 1.391 . S
C667 H655 0.950 . S
C667 C663 1.393 . S
C667 C666 1.391 . S
H668 C676 0.950 . S
H669 C681 0.950 . S
H670 C678 0.950 . S
H671 C680 0.950 . S
H672 C682 0.950 . S
H673 C684 0.950 . S
H674 C686 0.950 . S
H675 C687 0.950 . S
C676 H668 0.950 . S
C676 C677 1.386 . S
C676 C678 1.391 . S
C677 C676 1.386 . S
C677 C681 1.393 . S
C678 H670 0.950 . S
C678 C676 1.391 . S
C678 C679 1.400 . S
C679 C678 1.400 . S
C679 C680 1.398 . S
C679 C685 1.491 . S
C680 H671 0.950 . S
C680 C679 1.398 . S
C680 C681 1.391 . S
C681 H669 0.950 . S
C681 C677 1.393 . S
C681 C680 1.391 . S
C682 H672 0.950 . S
C682 C683 1.386 . S
C682 C684 1.391 . S
C683 C682 1.386 . S
C683 C687 1.393 . S
C684 H673 0.950 . S
C684 C682 1.391 . S
C684 C685 1.400 . S
C685 C679 1.491 . S
C685 C684 1.400 . S
C685 C686 1.398 . S
C686 H674 0.950 . S
C686 C685 1.398 . S
C686 C687 1.391 . S
C687 H675 0.950 . S
C687 C683 1.393 . S
C687 C686 1.391 . S
H688 C696 0.950 . S
H689 C701 0.950 . S
H690 C698 0.950 1_554 S
H691 C700 0.950 . S
H692 C702 0.950 . S
H693 C704 0.950 . S
H694 C706 0.950 . S
H695 C707 0.950 . S
C696 H688 0.950 . S
C696 C697 1.386 . S
C696 C698 1.391 . S
C697 C696 1.386 . S
C697 C701 1.393 . S
C698 H690 0.950 1_556 S
C698 C696 1.391 . S
C698 C699 1.400 1_556 S
C699 C698 1.400 1_554 S
C699 C700 1.398 . S
C699 C705 1.491 . S
C700 H691 0.950 . S
C700 C699 1.398 . S
C700 C701 1.391 1_554 S
C701 H689 0.950 . S
C701 C697 1.393 . S
C701 C700 1.391 1_556 S
C702 H692 0.950 . S
C702 C703 1.386 . S
C702 C704 1.391 . S
C703 C702 1.386 . S
C703 C707 1.393 . S
C704 H693 0.950 . S
C704 C702 1.391 . S
C704 C705 1.400 . S
C705 C699 1.491 . S
C705 C704 1.400 . S
C705 C706 1.398 . S
C706 H694 0.950 . S
C706 C705 1.398 . S
C706 C707 1.391 . S
C707 H695 0.950 . S
C707 C703 1.393 . S
C707 C706 1.391 . S
H708 C716 0.950 . S
H709 C721 0.950 . S
H710 C718 0.950 . S
H711 C720 0.950 . S
H712 C722 0.950 . S
H713 C724 0.950 . S
H714 C726 0.950 . S
H715 C727 0.950 . S
C716 H708 0.950 . S
C716 C717 1.386 . S
C716 C718 1.391 . S
C717 C716 1.386 . S
C717 C721 1.393 . S
C718 H710 0.950 . S
C718 C716 1.391 . S
C718 C719 1.400 . S
C719 C718 1.400 . S
C719 C720 1.398 . S
C719 C725 1.491 . S
C720 H711 0.950 . S
C720 C719 1.398 . S
C720 C721 1.391 . S
C721 H709 0.950 . S
C721 C717 1.393 . S
C721 C720 1.391 . S
C722 H712 0.950 . S
C722 C723 1.386 . S
C722 C724 1.391 . S
C723 C722 1.386 . S
C723 C727 1.393 . S
C724 H713 0.950 . S
C724 C722 1.391 . S
C724 C725 1.400 . S
C725 C719 1.491 . S
C725 C724 1.400 . S
C725 C726 1.398 . S
C726 H714 0.950 . S
C726 C725 1.398 . S
C726 C727 1.391 . S
C727 H715 0.950 . S
C727 C723 1.393 . S
C727 C726 1.391 . S
H728 C736 0.950 . S
H729 C741 0.950 . S
H730 C738 0.950 . S
H731 C740 0.950 . S
H732 C742 0.950 . S
H733 C744 0.950 . S
H734 C746 0.950 . S
H735 C747 0.950 . S
C736 H728 0.950 . S
C736 C737 1.386 . S
C736 C738 1.391 . S
C737 C736 1.386 . S
C737 C741 1.393 . S
C738 H730 0.950 . S
C738 C736 1.391 . S
C738 C739 1.400 . S
C739 C738 1.400 . S
C739 C740 1.398 . S
C739 C745 1.491 . S
C740 H731 0.950 . S
C740 C739 1.398 . S
C740 C741 1.391 . S
C741 H729 0.950 . S
C741 C737 1.393 . S
C741 C740 1.391 . S
C742 H732 0.950 . S
C742 C743 1.386 . S
C742 C744 1.391 . S
C743 C742 1.386 . S
C743 C747 1.393 . S
C744 H733 0.950 . S
C744 C742 1.391 . S
C744 C745 1.400 . S
C745 C739 1.491 . S
C745 C744 1.400 . S
C745 C746 1.398 . S
C746 H734 0.950 . S
C746 C745 1.398 . S
C746 C747 1.391 . S
C747 H735 0.950 . S
C747 C743 1.393 . S
C747 C746 1.391 . S
H748 C756 0.950 . S
H749 C761 0.950 . S
H750 C758 0.950 . S
H751 C760 0.950 . S
H752 C762 0.950 . S
H753 C764 0.950 . S
H754 C766 0.950 . S
H755 C767 0.950 . S
C756 H748 0.950 . S
C756 C757 1.386 . S
C756 C758 1.391 . S
C757 C756 1.386 . S
C757 C761 1.393 . S
C758 H750 0.950 . S
C758 C756 1.391 . S
C758 C759 1.400 . S
C759 C758 1.400 . S
C759 C760 1.398 . S
C759 C765 1.491 . S
C760 H751 0.950 . S
C760 C759 1.398 . S
C760 C761 1.391 . S
C761 H749 0.950 . S
C761 C757 1.393 . S
C761 C760 1.391 . S
C762 H752 0.950 . S
C762 C763 1.386 . S
C762 C764 1.391 . S
C763 C762 1.386 . S
C763 C767 1.393 . S
C764 H753 0.950 . S
C764 C762 1.391 . S
C764 C765 1.400 . S
C765 C759 1.491 . S
C765 C764 1.400 . S
C765 C766 1.398 . S
C766 H754 0.950 . S
C766 C765 1.398 . S
C766 C767 1.391 . S
C767 H755 0.950 . S
C767 C763 1.393 . S
C767 C766 1.391 . S
H768 C776 0.950 . S
H769 C781 0.950 . S
H770 C778 0.950 . S
H771 C780 0.950 . S
H772 C782 0.950 . S
H773 C784 0.950 . S
H774 C786 0.950 . S
H775 C787 0.950 . S
C776 H768 0.950 . S
C776 C777 1.386 . S
C776 C778 1.391 . S
C777 C776 1.386 . S
C777 C781 1.393 . S
C778 H770 0.950 . S
C778 C776 1.391 . S
C778 C779 1.400 . S
C779 C778 1.400 . S
C779 C780 1.398 . S
C779 C785 1.491 . S
C780 H771 0.950 . S
C780 C779 1.398 . S
C780 C781 1.391 . S
C781 H769 0.950 . S
C781 C777 1.393 . S
C781 C780 1.391 . S
C782 H772 0.950 . S
C782 C783 1.386 . S
C782 C784 1.391 . S
C783 C782 1.386 . S
C783 C787 1.393 . S
C784 H773 0.950 . S
C784 C782 1.391 . S
C784 C785 1.400 . S
C785 C779 1.491 . S
C785 C784 1.400 . S
C785 C786 1.398 . S
C786 H774 0.950 . S
C786 C785 1.398 . S
C786 C787 1.391 . S
C787 H775 0.950 . S
C787 C783 1.393 . S
C787 C786 1.391 . S
H788 C796 0.950 . S
H789 C801 0.950 . S
H790 C798 0.950 . S
H791 C800 0.950 . S
H792 C802 0.950 . S
H793 C804 0.950 . S
H794 C806 0.950 . S
H795 C807 0.950 . S
C796 H788 0.950 . S
C796 C797 1.386 . S
C796 C798 1.391 . S
C797 C796 1.386 . S
C797 C801 1.393 . S
C798 H790 0.950 . S
C798 C796 1.391 . S
C798 C799 1.400 . S
C799 C798 1.400 . S
C799 C800 1.398 . S
C799 C805 1.491 . S
C800 H791 0.950 . S
C800 C799 1.398 . S
C800 C801 1.391 . S
C801 H789 0.950 . S
C801 C797 1.393 . S
C801 C800 1.391 . S
C802 H792 0.950 . S
C802 C803 1.386 . S
C802 C804 1.391 . S
C803 C802 1.386 . S
C803 C807 1.393 . S
C804 H793 0.950 . S
C804 C802 1.391 . S
C804 C805 1.400 . S
C805 C799 1.491 . S
C805 C804 1.400 . S
C805 C806 1.398 . S
C806 H794 0.950 . S
C806 C805 1.398 . S
C806 C807 1.391 . S
C807 H795 0.950 . S
C807 C803 1.393 . S
C807 C806 1.391 . S
H808 C816 0.950 . S
H809 C821 0.950 . S
H810 C818 0.950 . S
H811 C820 0.950 . S
H812 C822 0.950 . S
H813 C824 0.950 . S
H814 C826 0.950 . S
H815 C827 0.950 . S
C816 H808 0.950 . S
C816 C817 1.386 . S
C816 C818 1.391 . S
C817 C816 1.386 . S
C817 C821 1.393 . S
C818 H810 0.950 . S
C818 C816 1.391 . S
C818 C819 1.400 . S
C819 C818 1.400 . S
C819 C820 1.398 . S
C819 C825 1.491 . S
C820 H811 0.950 . S
C820 C819 1.398 . S
C820 C821 1.391 . S
C821 H809 0.950 . S
C821 C817 1.393 . S
C821 C820 1.391 . S
C822 H812 0.950 . S
C822 C823 1.386 . S
C822 C824 1.391 . S
C823 C822 1.386 . S
C823 C827 1.393 . S
C824 H813 0.950 . S
C824 C822 1.391 . S
C824 C825 1.400 . S
C825 C819 1.491 . S
C825 C824 1.400 . S
C825 C826 1.398 . S
C826 H814 0.950 . S
C826 C825 1.398 . S
C826 C827 1.391 . S
C827 H815 0.950 . S
C827 C823 1.393 . S
C827 C826 1.391 . S
H828 C836 0.950 . S
H829 C841 0.950 . S
H830 C838 0.950 . S
H831 C840 0.950 . S
H832 C842 0.950 . S
H833 C844 0.950 . S
H834 C846 0.950 1_554 S
H835 C847 0.950 . S
C836 H828 0.950 . S
C836 C837 1.386 . S
C836 C838 1.391 . S
C837 C836 1.386 . S
C837 C841 1.393 . S
C838 H830 0.950 . S
C838 C836 1.391 . S
C838 C839 1.400 . S
C839 C838 1.400 . S
C839 C840 1.398 . S
C839 C845 1.491 . S
C840 H831 0.950 . S
C840 C839 1.398 . S
C840 C841 1.391 . S
C841 H829 0.950 . S
C841 C837 1.393 . S
C841 C840 1.391 . S
C842 H832 0.950 . S
C842 C843 1.386 . S
C842 C844 1.391 1_556 S
C843 C842 1.386 . S
C843 C847 1.393 . S
C844 H833 0.950 . S
C844 C842 1.391 1_554 S
C844 C845 1.400 . S
C845 C839 1.491 . S
C845 C844 1.400 . S
C845 C846 1.398 1_554 S
C846 H834 0.950 1_556 S
C846 C845 1.398 1_556 S
C846 C847 1.391 . S
C847 H835 0.950 . S
C847 C843 1.393 . S
C847 C846 1.391 . S
C217 C83 2.073 . S
C223 C5 2.063 . S
C237 C96 2.074 . S
C243 C18 2.081 . S
C257 C31 2.075 . S
C263 C57 2.062 1_556 S
C277 C44 2.069 . S
C283 C70 2.066 . S
C297 C109 2.070 . S
C303 C187 2.083 1_556 S
C317 C200 2.067 . S
C323 C122 2.084 . S
C337 C135 2.065 . S
C343 C161 2.084 . S
C357 C148 2.081 . S
C363 C174 2.074 . S
C377 C10 1.972 . S
C383 C140 1.968 . S
C397 C23 1.991 . S
C403 C153 1.990 . S
C417 C36 1.972 . S
C423 C114 1.968 . S
C437 C49 1.980 . S
C443 C127 1.974 . S
C457 C62 1.969 . S
C463 C192 1.975 . S
C477 C205 1.985 . S
C483 C75 1.989 . S
C497 C88 1.972 . S
C503 C166 1.967 . S
C517 C179 1.975 . S
C523 C101 1.969 . S
C537 C170 0.424 . S
C543 C1 0.435 . S
C557 C14 0.428 . S
C563 C183 0.435 . S
C577 C196 0.428 . S
C583 C27 0.426 . S
C597 C157 0.428 . S
C603 C40 0.435 . S
C617 C144 0.433 . S
C623 C53 0.430 . S
C637 C66 0.428 . S
C643 C105 0.434 . S
C657 C79 0.429 . S
C663 C118 0.426 . S
C677 C92 0.431 . S
C683 C131 0.424 . S
C697 C172 1.851 . S
C703 C3 1.848 . S
C717 C16 1.850 . S
C723 C185 1.850 . S
C737 C29 1.850 . S
C743 C198 1.849 . S
C757 C159 1.848 . S
C763 C42 1.845 . S
C777 C146 1.845 . S
C783 C55 1.848 . S
C797 C107 1.848 . S
C803 C68 1.851 . S
C817 C81 1.848 . S
C823 C120 1.851 . S
C837 C133 1.845 . S
C843 C94 1.848 . S
