# Generated by pormake.
# Topology zfj, (5)-cn, num edge types: 1
# Building blocks:
#     Node 0, Type 0, BuildingBlock: XOMCOT_clean_sbu_1, # of connection points: 5
#     Node 1, Type 0, BuildingBlock: XOMCOT_clean_sbu_1, # of connection points: 5
#     Node 2, Type 0, BuildingBlock: XOMCOT_clean_sbu_1, # of connection points: 5
#     Node 3, Type 0, BuildingBlock: XOMCOT_clean_sbu_1, # of connection points: 5
#     Node 4, Type 0, BuildingBlock: XOMCOT_clean_sbu_1, # of connection points: 5
#     Node 5, Type 0, BuildingBlock: XOMCOT_clean_sbu_1, # of connection points: 5
#     Node 6, Type 0, BuildingBlock: XOMCOT_clean_sbu_1, # of connection points: 5
#     Node 7, Type 0, BuildingBlock: XOMCOT_clean_sbu_1, # of connection points: 5
#     Node 8, Type 0, BuildingBlock: XOMCOT_clean_sbu_1, # of connection points: 5
#     Node 9, Type 0, BuildingBlock: XOMCOT_clean_sbu_1, # of connection points: 5
#     Node 10, Type 0, BuildingBlock: XOMCOT_clean_sbu_1, # of connection points: 5
#     Node 11, Type 0, BuildingBlock: XOMCOT_clean_sbu_1, # of connection points: 5
#     Node 12, Type 0, BuildingBlock: XOMCOT_clean_sbu_1, # of connection points: 5
#     Node 13, Type 0, BuildingBlock: XOMCOT_clean_sbu_1, # of connection points: 5
#     Node 14, Type 0, BuildingBlock: XOMCOT_clean_sbu_1, # of connection points: 5
#     Node 15, Type 0, BuildingBlock: XOMCOT_clean_sbu_1, # of connection points: 5
#     Edge 16, Type (0, 0), BuildingBlock: KIFKEQ_clean_linker_1, # of connection points: 2
#     Edge 17, Type (0, 0), BuildingBlock: KIFKEQ_clean_linker_1, # of connection points: 2
#     Edge 18, Type (0, 0), BuildingBlock: KIFKEQ_clean_linker_1, # of connection points: 2
#     Edge 19, Type (0, 0), BuildingBlock: KIFKEQ_clean_linker_1, # of connection points: 2
#     Edge 20, Type (0, 0), BuildingBlock: KIFKEQ_clean_linker_1, # of connection points: 2
#     Edge 21, Type (0, 0), BuildingBlock: KIFKEQ_clean_linker_1, # of connection points: 2
#     Edge 22, Type (0, 0), BuildingBlock: KIFKEQ_clean_linker_1, # of connection points: 2
#     Edge 23, Type (0, 0), BuildingBlock: KIFKEQ_clean_linker_1, # of connection points: 2
#     Edge 24, Type (0, 0), BuildingBlock: KIFKEQ_clean_linker_1, # of connection points: 2
#     Edge 25, Type (0, 0), BuildingBlock: KIFKEQ_clean_linker_1, # of connection points: 2
#     Edge 26, Type (0, 0), BuildingBlock: KIFKEQ_clean_linker_1, # of connection points: 2
#     Edge 27, Type (0, 0), BuildingBlock: KIFKEQ_clean_linker_1, # of connection points: 2
#     Edge 28, Type (0, 0), BuildingBlock: KIFKEQ_clean_linker_1, # of connection points: 2
#     Edge 29, Type (0, 0), BuildingBlock: KIFKEQ_clean_linker_1, # of connection points: 2
#     Edge 30, Type (0, 0), BuildingBlock: KIFKEQ_clean_linker_1, # of connection points: 2
#     Edge 31, Type (0, 0), BuildingBlock: KIFKEQ_clean_linker_1, # of connection points: 2
#     Edge 32, Type (0, 0), BuildingBlock: KIFKEQ_clean_linker_1, # of connection points: 2
#     Edge 33, Type (0, 0), BuildingBlock: KIFKEQ_clean_linker_1, # of connection points: 2
#     Edge 34, Type (0, 0), BuildingBlock: KIFKEQ_clean_linker_1, # of connection points: 2
#     Edge 35, Type (0, 0), BuildingBlock: KIFKEQ_clean_linker_1, # of connection points: 2
#     Edge 36, Type (0, 0), BuildingBlock: KIFKEQ_clean_linker_1, # of connection points: 2
#     Edge 37, Type (0, 0), BuildingBlock: KIFKEQ_clean_linker_1, # of connection points: 2
#     Edge 38, Type (0, 0), BuildingBlock: KIFKEQ_clean_linker_1, # of connection points: 2
#     Edge 39, Type (0, 0), BuildingBlock: KIFKEQ_clean_linker_1, # of connection points: 2
#     Edge 40, Type (0, 0), BuildingBlock: KIFKEQ_clean_linker_1, # of connection points: 2
#     Edge 41, Type (0, 0), BuildingBlock: KIFKEQ_clean_linker_1, # of connection points: 2
#     Edge 42, Type (0, 0), BuildingBlock: KIFKEQ_clean_linker_1, # of connection points: 2
#     Edge 43, Type (0, 0), BuildingBlock: KIFKEQ_clean_linker_1, # of connection points: 2
#     Edge 44, Type (0, 0), BuildingBlock: KIFKEQ_clean_linker_1, # of connection points: 2
#     Edge 45, Type (0, 0), BuildingBlock: KIFKEQ_clean_linker_1, # of connection points: 2
#     Edge 46, Type (0, 0), BuildingBlock: KIFKEQ_clean_linker_1, # of connection points: 2
#     Edge 47, Type (0, 0), BuildingBlock: KIFKEQ_clean_linker_1, # of connection points: 2
#     Edge 48, Type (0, 0), BuildingBlock: KIFKEQ_clean_linker_1, # of connection points: 2
#     Edge 49, Type (0, 0), BuildingBlock: KIFKEQ_clean_linker_1, # of connection points: 2
#     Edge 50, Type (0, 0), BuildingBlock: KIFKEQ_clean_linker_1, # of connection points: 2
#     Edge 51, Type (0, 0), BuildingBlock: KIFKEQ_clean_linker_1, # of connection points: 2
#     Edge 52, Type (0, 0), BuildingBlock: KIFKEQ_clean_linker_1, # of connection points: 2
#     Edge 53, Type (0, 0), BuildingBlock: KIFKEQ_clean_linker_1, # of connection points: 2
#     Edge 54, Type (0, 0), BuildingBlock: KIFKEQ_clean_linker_1, # of connection points: 2
#     Edge 55, Type (0, 0), BuildingBlock: KIFKEQ_clean_linker_1, # of connection points: 2
# Relax obj value: 0.172
# Max RMSD: 0.146
# Mean RMSD: 0.146
data_MOF--net-zfj--node1-XOMCOT_clean_sbu_1--edge1-KIFKEQ_clean_linker_1
_symmetry_space_group_name_H-M    P1
_symmetry_Int_Tables_number       1
_symmetry_cell_setting            triclinic
loop_
_symmetry_equiv_pos_as_xyz
'x, y, z'
_cell_length_a     35.662719
_cell_length_b     35.625467
_cell_length_c     51.017968
_cell_angle_alpha  89.853744
_cell_angle_beta   90.035737
_cell_angle_gamma 89.931297
loop_
_atom_site_label
_atom_site_type_symbol
_atom_site_fract_x
_atom_site_fract_y
_atom_site_fract_z
_atom_type_partial_charge
C0 C 0.53858 0.26375 0.17145 0.0
C1 C 0.53554 0.29976 0.18059 0.0
N2 N 0.50111 0.31271 0.17469 0.0
N3 N 0.50656 0.25376 0.15919 0.0
C4 C 0.48359 0.2838 0.16258 0.0
H5 H 0.56316 0.24611 0.17312 0.0
Co6 Co 0.50196 0.20548 0.14385 0.0
C7 C 0.46257 0.25298 0.10071 0.0
O8 O 0.47018 0.28636 0.11003 0.0
N9 N 0.49852 0.15683 0.1297 0.0
C10 C 0.504 0.10939 0.10171 0.0
C11 C 0.50384 0.14775 0.1043 0.0
C12 C 0.49557 0.12334 0.1422 0.0
N13 N 0.49898 0.09392 0.12556 0.0
O14 O 0.45646 0.19742 0.16301 0.0
H15 H 0.50937 0.16774 0.08881 0.0
H16 H 0.49294 0.1206 0.16325 0.0
O17 O 0.4739 0.22355 0.11281 0.0
C18 C 0.4636 0.19118 0.18713 0.0
O19 O 0.49882 0.19127 0.19475 0.0
N20 N 0.54825 0.21233 0.12671 0.0
C21 C 0.62281 0.22626 0.1131 0.0
C22 C 0.59399 0.2503 0.10463 0.0
C23 C 0.55687 0.24277 0.11158 0.0
C24 C 0.57558 0.18763 0.13397 0.0
C25 C 0.61287 0.19365 0.12696 0.0
H26 H 0.53585 0.26318 0.10662 0.0
H27 H 0.56876 0.16408 0.1465 0.0
H28 H 0.45466 0.28471 0.15621 0.0
H29 H 0.55771 0.31589 0.18967 0.0
H30 H 0.50829 0.09408 0.08366 0.0
H31 H 0.60013 0.27617 0.09433 0.0
H32 H 0.63389 0.17377 0.13349 0.0
C33 C 0.25161 0.5371 0.67359 0.0
C34 C 0.21368 0.53779 0.67772 0.0
N35 N 0.19766 0.51182 0.66218 0.0
N36 N 0.25973 0.5109 0.65549 0.0
C37 C 0.22626 0.49591 0.64874 0.0
H38 H 0.27214 0.55478 0.68308 0.0
Co39 Co 0.30882 0.50151 0.64552 0.0
C40 C 0.30765 0.47625 0.59093 0.0
O41 O 0.3369 0.4981 0.58739 0.0
N42 N 0.3595 0.4913 0.63689 0.0
C43 C 0.40938 0.4565 0.62666 0.0
C44 C 0.37122 0.45665 0.62976 0.0
C45 C 0.39168 0.51136 0.63895 0.0
N46 N 0.42227 0.4909 0.6325 0.0
O47 O 0.30838 0.45608 0.66569 0.0
H48 H 0.35307 0.43261 0.62735 0.0
H49 H 0.39323 0.54001 0.64558 0.0
O50 O 0.29196 0.47454 0.61355 0.0
C51 C 0.31529 0.46246 0.68978 0.0
O52 O 0.32049 0.49739 0.69715 0.0
N53 N 0.30845 0.54823 0.62777 0.0
C54 C 0.2928 0.62273 0.61427 0.0
C55 C 0.275 0.59315 0.6013 0.0
C56 C 0.28274 0.5562 0.60858 0.0
C57 C 0.32623 0.57684 0.64041 0.0
C58 C 0.31953 0.61428 0.63354 0.0
H59 H 0.26517 0.53458 0.60042 0.0
H60 H 0.34276 0.57097 0.65768 0.0
H61 H 0.22295 0.47368 0.63451 0.0
H62 H 0.19895 0.55662 0.69078 0.0
H63 H 0.42652 0.43246 0.62167 0.0
H64 H 0.25341 0.59861 0.58683 0.0
H65 H 0.33264 0.63643 0.64479 0.0
C66 C 0.96615 0.26559 0.17278 0.0
C67 C 0.96268 0.2276 0.17637 0.0
N68 N 0.99004 0.21034 0.16274 0.0
N69 N 0.99554 0.27249 0.15692 0.0
C70 C 0.00958 0.23823 0.15099 0.0
H71 H 0.9484 0.28697 0.18127 0.0
Co72 Co 0.01083 0.32083 0.14801 0.0
C73 C 0.03973 0.31723 0.09405 0.0
O74 O 0.0242 0.35018 0.08995 0.0
N75 N 0.02716 0.37025 0.14007 0.0
C76 C 0.06814 0.4159 0.13165 0.0
C77 C 0.06374 0.37816 0.13578 0.0
C78 C 0.01001 0.40426 0.13892 0.0
N79 N 0.03432 0.43237 0.13361 0.0
O80 O 0.05455 0.31489 0.16955 0.0
H81 H 0.08607 0.3576 0.13566 0.0
H82 H 0.98046 0.40884 0.1419 0.0
O83 O 0.037 0.30151 0.11663 0.0
C84 C 0.04626 0.32071 0.19351 0.0
O85 O 0.01096 0.32681 0.19953 0.0
N86 N 0.96565 0.32654 0.12932 0.0
C87 C 0.88977 0.32012 0.11612 0.0
C88 C 0.9172 0.29977 0.10245 0.0
C89 C 0.9549 0.30306 0.10952 0.0
C90 C 0.93945 0.34718 0.14231 0.0
C91 C 0.90166 0.34541 0.13547 0.0
H92 H 0.97445 0.28359 0.1009 0.0
H93 H 0.94734 0.36249 0.15972 0.0
H94 H 0.03393 0.23385 0.13873 0.0
H95 H 0.94126 0.21371 0.18786 0.0
H96 H 0.09444 0.43023 0.12824 0.0
H97 H 0.9095 0.27889 0.08805 0.0
H98 H 0.8817 0.36178 0.14662 0.0
C99 C 0.25416 0.97348 0.67456 0.0
C100 C 0.29228 0.96862 0.67545 0.0
N101 N 0.30811 0.99334 0.65881 0.0
N102 N 0.24581 1.00098 0.65733 0.0
C103 C 0.27936 0.01291 0.64817 0.0
H104 H 0.23362 0.95721 0.68524 0.0
Co105 Co 0.19659 0.01319 0.64864 0.0
C106 C 0.19734 0.03934 0.59379 0.0
O107 O 0.16575 0.02107 0.5903 0.0
N108 N 0.14614 0.02616 0.64103 0.0
C109 C 0.09739 0.0633 0.63198 0.0
C110 C 0.13564 0.06149 0.63452 0.0
C111 C 0.11323 0.00733 0.64314 0.0
N112 N 0.0833 0.02922 0.63748 0.0
O113 O 0.20054 0.05857 0.66852 0.0
H114 H 0.15473 0.08481 0.63206 0.0
H115 H 0.11069 0.97842 0.6491 0.0
O116 O 0.21348 0.03878 0.61627 0.0
C117 C 0.19505 0.05192 0.69277 0.0
O118 O 0.18964 0.01697 0.70013 0.0
N119 N 0.19325 0.96653 0.63137 0.0
C120 C 0.20389 0.89046 0.61946 0.0
C121 C 0.22221 0.91862 0.60506 0.0
C122 C 0.2168 0.95634 0.61144 0.0
C123 C 0.17496 0.93957 0.64536 0.0
C124 C 0.17885 0.90163 0.63921 0.0
H125 H 0.2347 0.97667 0.60204 0.0
H126 H 0.16 0.94714 0.66297 0.0
H127 H 0.28264 0.0343 0.63326 0.0
H128 H 0.30723 0.94808 0.68714 0.0
H129 H 0.0811 0.08815 0.62749 0.0
H130 H 0.24294 0.91171 0.59035 0.0
H131 H 0.16395 0.88121 0.65099 0.0
C132 C 0.5192 0.23963 0.82451 0.0
C133 C 0.51809 0.20182 0.81946 0.0
N134 N 0.49441 0.18552 0.83664 0.0
N135 N 0.49633 0.24741 0.84477 0.0
C136 C 0.48148 0.2139 0.85176 0.0
H137 H 0.53654 0.26009 0.81459 0.0
Co138 Co 0.49155 0.29536 0.85901 0.0
C139 C 0.47684 0.2821 0.91473 0.0
O140 O 0.50344 0.30657 0.91968 0.0
N141 N 0.48558 0.34492 0.87248 0.0
C142 C 0.45871 0.39379 0.89248 0.0
C143 C 0.45683 0.35589 0.88805 0.0
C144 C 0.50276 0.37771 0.86613 0.0
N145 N 0.48761 0.40745 0.87866 0.0
O146 O 0.44401 0.30102 0.84207 0.0
H147 H 0.43459 0.33782 0.89493 0.0
H148 H 0.52456 0.38052 0.85164 0.0
O149 O 0.46798 0.2743 0.89101 0.0
C150 C 0.45004 0.31152 0.81854 0.0
O151 O 0.48495 0.31619 0.81096 0.0
N152 N 0.54045 0.28972 0.87329 0.0
C153 C 0.61628 0.27512 0.88402 0.0
C154 C 0.58803 0.25157 0.8938 0.0
C155 C 0.55049 0.25903 0.88794 0.0
C156 C 0.56765 0.31221 0.86309 0.0
C157 C 0.60543 0.3063 0.86891 0.0
H158 H 0.52975 0.2387 0.89394 0.0
H159 H 0.56065 0.33309 0.84867 0.0
H160 H 0.46215 0.21027 0.8679 0.0
H161 H 0.53481 0.18729 0.80498 0.0
H162 H 0.43907 0.41041 0.90374 0.0
H163 H 0.5948 0.22622 0.90455 0.0
H164 H 0.62597 0.32518 0.86055 0.0
C165 C 0.24938 0.53028 0.33222 0.0
C166 C 0.28688 0.52773 0.32647 0.0
N167 N 0.30316 0.50425 0.34385 0.0
N168 N 0.24162 0.50835 0.35305 0.0
C169 C 0.27499 0.4928 0.35977 0.0
H170 H 0.22926 0.54832 0.32253 0.0
Co171 Co 0.19422 0.50739 0.36881 0.0
C172 C 0.20386 0.45281 0.41191 0.0
O173 O 0.17447 0.43369 0.40402 0.0
N174 N 0.14634 0.50722 0.38435 0.0
C175 C 0.10017 0.5138 0.41326 0.0
C176 C 0.13839 0.51379 0.4098 0.0
C177 C 0.11242 0.50393 0.37267 0.0
N178 N 0.08375 0.50767 0.38988 0.0
O179 O 0.18352 0.46096 0.35129 0.0
H180 H 0.1591 0.5192 0.42482 0.0
H181 H 0.10881 0.49925 0.35189 0.0
O182 O 0.21454 0.4816 0.39904 0.0
C183 C 0.17419 0.46716 0.32754 0.0
O184 O 0.17132 0.50217 0.31962 0.0
N185 N 0.20439 0.55397 0.38398 0.0
C186 C 0.22272 0.62792 0.39664 0.0
C187 C 0.24523 0.59787 0.40523 0.0
C188 C 0.23545 0.56104 0.3988 0.0
C189 C 0.1816 0.58252 0.37611 0.0
C190 C 0.18978 0.61956 0.38268 0.0
H191 H 0.2541 0.53851 0.40443 0.0
H192 H 0.15752 0.57662 0.3639 0.0
H193 H 0.2788 0.47436 0.37644 0.0
H194 H 0.30134 0.54364 0.31148 0.0
H195 H 0.08563 0.51919 0.43148 0.0
H196 H 0.27121 0.60267 0.41565 0.0
H197 H 0.17089 0.64146 0.37614 0.0
C198 C 0.97474 0.24444 0.83844 0.0
C199 C 0.97281 0.28247 0.83462 0.0
N200 N 0.99812 0.29903 0.85043 0.0
N201 N 1.00106 0.2368 0.85663 0.0
C202 C 0.01486 0.27065 0.8637 0.0
H203 H 0.95799 0.22353 0.82854 0.0
Co204 Co 0.01315 0.18801 0.86656 0.0
C205 C 0.03394 0.19039 0.92228 0.0
O206 O 0.01541 0.15882 0.9253 0.0
N207 N 0.02626 0.13799 0.87549 0.0
C208 C 0.06313 0.08997 0.88677 0.0
C209 C 0.06118 0.12813 0.88332 0.0
C210 C 0.00784 0.10483 0.87369 0.0
N211 N 0.02955 0.07534 0.88064 0.0
O212 O 0.06005 0.19226 0.84848 0.0
H213 H 0.0841 0.14757 0.8861 0.0
H214 H 0.97932 0.10173 0.86715 0.0
O215 O 0.0354 0.20617 0.89967 0.0
C216 C 0.05486 0.18626 0.82413 0.0
O217 O 0.02051 0.17992 0.81595 0.0
N218 N 0.96516 0.18415 0.88174 0.0
C219 C 0.8879 0.19203 0.89001 0.0
C220 C 0.91382 0.21172 0.90548 0.0
C221 C 0.95227 0.20769 0.90088 0.0
C222 C 0.94036 0.1647 0.86671 0.0
C223 C 0.90189 0.16705 0.87114 0.0
H224 H 0.97106 0.22641 0.91101 0.0
H225 H 0.95017 0.14982 0.84961 0.0
H226 H 0.03704 0.27438 0.87794 0.0
H227 H 0.95371 0.29686 0.8215 0.0
H228 H 0.08778 0.07408 0.89236 0.0
H229 H 0.90466 0.23243 0.91959 0.0
H230 H 0.88329 0.15112 0.85863 0.0
C231 C 0.26086 0.98056 0.34103 0.0
C232 C 0.22252 0.98061 0.33856 0.0
N233 N 0.20845 0.00661 0.35497 0.0
N234 N 0.27106 0.00648 0.35883 0.0
C235 C 0.23848 0.0219 0.3671 0.0
H236 H 0.28019 0.96258 0.3306 0.0
Co237 Co 0.3208 0.01612 0.3675 0.0
C238 C 0.32094 0.04532 0.42165 0.0
O239 O 0.35223 0.02667 0.42566 0.0
N240 N 0.37172 0.02661 0.37508 0.0
C241 C 0.42206 0.06162 0.3835 0.0
C242 C 0.38394 0.06181 0.38012 0.0
C243 C 0.40353 0.00569 0.37472 0.0
N244 N 0.4344 0.02631 0.38008 0.0
O245 O 0.31947 0.06062 0.3463 0.0
H246 H 0.36611 0.08634 0.38118 0.0
H247 H 0.40457 0.97613 0.37037 0.0
O248 O 0.30491 0.04406 0.39914 0.0
C249 C 0.32601 0.05235 0.32243 0.0
O250 O 0.33073 0.01684 0.31635 0.0
N251 N 0.32157 0.97028 0.38601 0.0
C252 C 0.30896 0.89604 0.40135 0.0
C253 C 0.29203 0.92574 0.41481 0.0
C254 C 0.29821 0.9626 0.40661 0.0
C255 C 0.33836 0.94159 0.37282 0.0
C256 C 0.3332 0.90431 0.38054 0.0
H257 H 0.28131 0.98422 0.41541 0.0
H258 H 0.35327 0.94735 0.35482 0.0
H259 H 0.23674 0.04411 0.38147 0.0
H260 H 0.20619 0.9623 0.3261 0.0
H261 H 0.43953 0.08585 0.38725 0.0
H262 H 0.27227 0.92039 0.4305 0.0
H263 H 0.34553 0.88206 0.36894 0.0
C264 C 0.4909 0.73591 0.83286 0.0
C265 C 0.49185 0.69748 0.83126 0.0
N266 N 0.50717 0.68415 0.85348 0.0
N267 N 0.50608 0.74688 0.85582 0.0
C268 C 0.5154 0.71452 0.8682 0.0
H269 H 0.4797 0.75473 0.81817 0.0
Co270 Co 0.51187 0.79739 0.86427 0.0
C271 C 0.53283 0.80149 0.92039 0.0
O272 O 0.51222 0.83197 0.9221 0.0
N273 N 0.51854 0.84911 0.87129 0.0
C274 C 0.55151 0.90143 0.87749 0.0
C275 C 0.55221 0.86306 0.87865 0.0
C276 C 0.49785 0.88004 0.86545 0.0
N277 N 0.5174 0.9121 0.86915 0.0
O278 O 0.55958 0.79779 0.84671 0.0
H279 H 0.57654 0.8462 0.8834 0.0
H280 H 0.47023 0.87933 0.8568 0.0
O281 O 0.53536 0.78406 0.89845 0.0
C282 C 0.55449 0.80736 0.82285 0.0
O283 O 0.52005 0.81396 0.81491 0.0
N284 N 0.46339 0.79655 0.8788 0.0
C285 C 0.38768 0.78147 0.888 0.0
C286 C 0.41519 0.76881 0.9055 0.0
C287 C 0.45297 0.77576 0.90019 0.0
C288 C 0.4368 0.8096 0.86187 0.0
C289 C 0.39877 0.80262 0.86616 0.0
H290 H 0.47343 0.76157 0.91217 0.0
H291 H 0.44532 0.82298 0.84379 0.0
H292 H 0.52837 0.7131 0.88734 0.0
H293 H 0.4815 0.6805 0.81524 0.0
H294 H 0.57481 0.92009 0.88134 0.0
H295 H 0.40779 0.75116 0.92202 0.0
H296 H 0.37837 0.81221 0.8519 0.0
C297 C 0.75347 0.46893 0.33967 0.0
C298 C 0.7918 0.46651 0.33836 0.0
N299 N 0.80662 0.49186 0.35496 0.0
N300 N 0.74375 0.49554 0.3571 0.0
C301 C 0.77676 0.50912 0.36617 0.0
H302 H 0.73379 0.45219 0.32861 0.0
Co303 Co 0.69361 0.5071 0.36394 0.0
C304 C 0.68999 0.53599 0.41836 0.0
O305 O 0.65702 0.51999 0.42094 0.0
N306 N 0.64238 0.51924 0.36942 0.0
C307 C 0.59264 0.55685 0.37281 0.0
C308 C 0.63097 0.55494 0.37369 0.0
C309 C 0.60995 0.49995 0.3658 0.0
N310 N 0.57937 0.52233 0.36778 0.0
O311 O 0.69836 0.55265 0.34409 0.0
H312 H 0.64954 0.57857 0.37652 0.0
H313 H 0.60851 0.47076 0.36026 0.0
O314 O 0.70794 0.53313 0.39666 0.0
C315 C 0.69336 0.54747 0.31963 0.0
O316 O 0.68946 0.51287 0.3112 0.0
N317 N 0.68939 0.46053 0.3813 0.0
C318 C 0.70152 0.38491 0.39395 0.0
C319 C 0.71401 0.41361 0.41059 0.0
C320 C 0.70866 0.45112 0.40357 0.0
C321 C 0.67514 0.43304 0.36569 0.0
C322 C 0.68073 0.39514 0.37164 0.0
H323 H 0.72322 0.4719 0.41494 0.0
H324 H 0.66268 0.44048 0.34706 0.0
H325 H 0.77885 0.53151 0.38037 0.0
H326 H 0.80747 0.44704 0.32636 0.0
H327 H 0.57577 0.58194 0.37496 0.0
H328 H 0.73 0.40734 0.42811 0.0
H329 H 0.67139 0.37433 0.35768 0.0
C330 C 0.03532 0.74594 0.84018 0.0
C331 C 0.03787 0.78425 0.83809 0.0
N332 N 0.01394 0.79964 0.85542 0.0
N333 N 0.00984 0.73711 0.85868 0.0
C334 C 0.99727 0.77046 0.86771 0.0
H335 H 0.05107 0.72568 0.82889 0.0
Co336 Co 0.99697 0.68802 0.86692 0.0
C337 C 0.96933 0.6884 0.92176 0.0
O338 O 0.98493 0.65533 0.92524 0.0
N339 N 0.98334 0.63786 0.87399 0.0
C340 C 0.94465 0.58954 0.87972 0.0
C341 C 0.94756 0.62784 0.87929 0.0
C342 C 1.0016 0.60473 0.87099 0.0
N343 N 0.97858 0.57499 0.87439 0.0
O344 O 0.95147 0.69337 0.8471 0.0
H345 H 0.9246 0.64732 0.88195 0.0
H346 H 0.03045 0.60213 0.86486 0.0
O347 O 0.97193 0.7049 0.89946 0.0
C348 C 0.95747 0.68716 0.82286 0.0
O349 O 0.99207 0.68044 0.81534 0.0
N350 N 0.04363 0.68311 0.88392 0.0
C351 C 0.1199 0.69243 0.89536 0.0
C352 C 0.09217 0.70705 0.912 0.0
C353 C 0.05432 0.70302 0.90556 0.0
C354 C 0.07012 0.66724 0.86822 0.0
C355 C 0.10829 0.67133 0.87361 0.0
H356 H 0.03439 0.71894 0.91682 0.0
H357 H 0.06175 0.65445 0.84994 0.0
H358 H 0.97591 0.77341 0.8826 0.0
H359 H 0.05635 0.79964 0.82513 0.0
H360 H 0.91925 0.57357 0.88294 0.0
H361 H 0.09955 0.72353 0.92903 0.0
H362 H 0.12833 0.6605 0.85961 0.0
C363 C 0.76072 0.02858 0.33923 0.0
C364 C 0.72239 0.02834 0.33694 0.0
N365 N 0.7084 0.00562 0.35564 0.0
N366 N 0.77102 0.00601 0.35921 0.0
C367 C 0.73846 0.99246 0.36898 0.0
H368 H 0.77997 0.04446 0.32717 0.0
Co369 Co 0.82089 0.99804 0.3683 0.0
C370 C 0.82192 0.97432 0.42397 0.0
O371 O 0.85286 0.9938 0.42705 0.0
N372 N 0.87195 0.98932 0.37629 0.0
C373 C 0.92309 0.95647 0.38657 0.0
C374 C 0.88497 0.9551 0.38338 0.0
C375 C 0.90324 0.01078 0.37443 0.0
N376 N 0.93461 0.99146 0.38091 0.0
O377 O 0.82012 0.95114 0.34988 0.0
H378 H 0.86771 0.93043 0.38601 0.0
H379 H 0.90345 0.03975 0.36819 0.0
O380 O 0.80564 0.97354 0.40153 0.0
C381 C 0.82691 0.957 0.32569 0.0
O382 O 0.83225 0.99176 0.31787 0.0
N383 N 0.82102 0.04595 0.38379 0.0
C384 C 0.80463 0.12153 0.39261 0.0
C385 C 0.7915 0.09383 0.40978 0.0
C386 C 0.79917 0.0561 0.40467 0.0
C387 C 0.83509 0.0728 0.36747 0.0
C388 C 0.82743 0.11077 0.37157 0.0
H389 H 0.78436 0.03548 0.41611 0.0
H390 H 0.8495 0.06451 0.34976 0.0
H391 H 0.73675 0.97309 0.38529 0.0
H392 H 0.706 0.04436 0.32297 0.0
H393 H 0.94114 0.93313 0.39172 0.0
H394 H 0.77269 0.10098 0.42568 0.0
H395 H 0.83749 0.13135 0.35759 0.0
C396 C 0.47108 0.76407 0.18225 0.0
C397 C 0.46944 0.80249 0.18347 0.0
N398 N 0.49094 0.81671 0.16417 0.0
N399 N 0.49364 0.7537 0.16236 0.0
C400 C 0.50525 0.78648 0.15151 0.0
H401 H 0.45644 0.74474 0.195 0.0
Co402 Co 0.50256 0.70289 0.15539 0.0
C403 C 0.52726 0.69742 0.1001 0.0
O404 O 0.5083 0.66592 0.09833 0.0
N405 N 0.51202 0.65089 0.14996 0.0
C406 C 0.54757 0.59982 0.14546 0.0
C407 C 0.54659 0.63815 0.14366 0.0
C408 C 0.49254 0.6192 0.15594 0.0
N409 N 0.51368 0.58777 0.15334 0.0
O410 O 0.54927 0.70551 0.17399 0.0
H411 H 0.57028 0.65586 0.13897 0.0
H412 H 0.4644 0.619 0.16372 0.0
O413 O 0.52747 0.71573 0.12175 0.0
C414 C 0.54471 0.69917 0.19838 0.0
O415 O 0.51035 0.69503 0.20719 0.0
N416 N 0.45507 0.70079 0.13937 0.0
C417 C 0.37968 0.71462 0.12815 0.0
C418 C 0.4078 0.72731 0.11122 0.0
C419 C 0.44537 0.72099 0.11753 0.0
C420 C 0.42787 0.68714 0.15554 0.0
C421 C 0.38997 0.69357 0.15025 0.0
H422 H 0.46609 0.73559 0.10607 0.0
H423 H 0.43565 0.67429 0.17397 0.0
H424 H 0.52405 0.78822 0.13492 0.0
H425 H 0.45306 0.81874 0.19724 0.0
H426 H 0.5718 0.58217 0.14202 0.0
H427 H 0.40099 0.74487 0.09451 0.0
H428 H 0.36901 0.68401 0.1641 0.0
C429 C 0.74922 0.47774 0.67619 0.0
C430 C 0.71085 0.47721 0.67838 0.0
N431 N 0.69656 0.50237 0.66132 0.0
N432 N 0.75918 0.50318 0.6579 0.0
C433 C 0.72647 0.51775 0.64911 0.0
H434 H 0.76874 0.4605 0.68712 0.0
Co435 Co 0.80864 0.5137 0.64901 0.0
C436 C 0.80837 0.53632 0.59349 0.0
O437 O 0.83965 0.5172 0.59077 0.0
N438 N 0.85922 0.52554 0.6411 0.0
C439 C 0.90748 0.5636 0.63307 0.0
C440 C 0.86925 0.56086 0.63423 0.0
C441 C 0.89243 0.5074 0.64422 0.0
N442 N 0.92206 0.53001 0.63941 0.0
O443 O 0.80559 0.56011 0.66798 0.0
H444 H 0.84982 0.58375 0.631 0.0
H445 H 0.89546 0.47908 0.65137 0.0
O446 O 0.79218 0.53779 0.61592 0.0
C447 C 0.81154 0.55405 0.69228 0.0
O448 O 0.81614 0.51918 0.7001 0.0
N449 N 0.8112 0.46616 0.63291 0.0
C450 C 0.79988 0.38956 0.62306 0.0
C451 C 0.7809 0.41714 0.60844 0.0
C452 C 0.78676 0.45515 0.61374 0.0
C453 C 0.83019 0.43982 0.64705 0.0
C454 C 0.82611 0.40162 0.64181 0.0
H455 H 0.76856 0.47519 0.60423 0.0
H456 H 0.8459 0.4481 0.66417 0.0
H457 H 0.72456 0.5394 0.63426 0.0
H458 H 0.69465 0.45908 0.69111 0.0
H459 H 0.92342 0.58868 0.62865 0.0
H460 H 0.75933 0.40971 0.59447 0.0
H461 H 0.84175 0.38181 0.65364 0.0
C462 C 0.04007 0.76386 0.17026 0.0
C463 C 0.04664 0.72595 0.1704 0.0
N464 N 0.02194 0.70959 0.15407 0.0
N465 N 0.0115 0.77161 0.1538 0.0
C466 C 1.00065 0.73784 0.1444 0.0
H467 H 0.05564 0.78465 0.18116 0.0
Co468 Co 0.99606 0.82049 0.14661 0.0
C469 C 0.965 0.82024 0.09257 0.0
O470 O 0.9785 0.8542 0.08914 0.0
N471 N 0.98011 0.87034 0.14063 0.0
C472 C 0.93953 0.91752 0.1365 0.0
C473 C 0.94373 0.87932 0.13652 0.0
C474 C 0.99743 0.90399 0.1434 0.0
N475 N 0.97326 0.9331 0.14097 0.0
O476 O 0.9521 0.81305 0.16764 0.0
H477 H 0.9213 0.85916 0.13428 0.0
H478 H 0.02658 0.90736 0.14856 0.0
O479 O 0.96973 0.80342 0.11461 0.0
C480 C 0.95946 0.81784 0.19186 0.0
O481 O 0.99445 0.82405 0.19865 0.0
N482 N 0.04137 0.82751 0.12828 0.0
C483 C 0.11721 0.81713 0.11615 0.0
C484 C 0.08901 0.80347 0.09953 0.0
C485 C 0.05138 0.808 0.1063 0.0
C486 C 0.06833 0.84344 0.14356 0.0
C487 C 0.10633 0.83871 0.13786 0.0
H488 H 0.03118 0.79226 0.0952 0.0
H489 H 0.06056 0.85605 0.16203 0.0
H490 H 0.97841 0.73408 0.13024 0.0
H491 H 0.06807 0.71151 0.18159 0.0
H492 H 0.91344 0.93268 0.134 0.0
H493 H 0.09585 0.78689 0.08243 0.0
H494 H 0.12677 0.84902 0.15178 0.0
C495 C 0.7543 0.03365 0.68111 0.0
C496 C 0.79262 0.03572 0.68352 0.0
N497 N 0.80809 0.01231 0.66587 0.0
N498 N 0.74558 0.00894 0.66212 0.0
C499 C 0.77896 0.99639 0.65312 0.0
H500 H 0.73399 0.0495 0.69229 0.0
Co501 Co 0.69664 0.99748 0.65239 0.0
C502 C 0.69924 0.9736 0.59718 0.0
O503 O 0.66777 0.9921 0.59355 0.0
N504 N 0.64652 0.98479 0.64351 0.0
C505 C 0.59943 0.94672 0.63281 0.0
C506 C 0.63716 0.94911 0.63731 0.0
C507 C 0.61327 1.00343 0.64315 0.0
N508 N 0.5843 0.98089 0.63643 0.0
O509 O 0.69984 0.95139 0.67191 0.0
H510 H 0.65673 0.92596 0.63614 0.0
H511 H 0.60986 0.03274 0.64774 0.0
O512 O 0.71466 0.97303 0.61992 0.0
C513 C 0.69248 0.95706 0.69603 0.0
O514 O 0.68591 0.99165 0.70366 0.0
N515 N 0.69402 0.04469 0.63569 0.0
C516 C 0.70456 0.1212 0.62484 0.0
C517 C 0.72436 0.09354 0.61095 0.0
C518 C 0.71888 0.0556 0.61674 0.0
C519 C 0.67426 0.07107 0.64916 0.0
C520 C 0.67802 0.10922 0.64342 0.0
H521 H 0.7376 0.03562 0.60778 0.0
H522 H 0.65778 0.06282 0.66597 0.0
H523 H 0.78195 0.97591 0.63764 0.0
H524 H 0.80794 0.05379 0.69676 0.0
H525 H 0.58414 0.92142 0.62802 0.0
H526 H 0.74621 0.10092 0.59717 0.0
H527 H 0.66173 0.12909 0.65468 0.0
H528 H 0.45242 0.18958 0.07057 0.0
H529 H 0.44002 0.31021 0.0688 0.0
H530 H 0.44305 0.18754 0.02313 0.0
H531 H 0.4303 0.3081 0.02185 0.0
H532 H 0.41195 0.30296 0.93808 0.0
H533 H 0.39442 0.28842 0.98339 0.0
H534 H 0.48619 0.20936 0.98819 0.0
H535 H 0.50311 0.2238 0.94296 0.0
C536 C 0.44723 0.21557 0.06021 0.0
C537 C 0.44839 0.25018 0.07341 0.0
C538 C 0.44166 0.21436 0.03303 0.0
C539 C 0.43641 0.24768 0.01863 0.0
C540 C 0.43403 0.28183 0.03226 0.0
C541 C 0.43996 0.28306 0.05929 0.0
C542 C 0.42706 0.28114 0.9485 0.0
C543 C 0.45851 0.26409 0.93715 0.0
C544 C 0.41736 0.2731 0.97449 0.0
C545 C 0.43921 0.2481 0.98952 0.0
C546 C 0.4685 0.22845 0.97716 0.0
C547 C 0.47823 0.23663 0.95124 0.0
H548 H 0.17442 0.41222 0.45286 0.0
H549 H 0.27079 0.47809 0.43024 0.0
H550 H 0.19893 0.4079 0.49767 0.0
H551 H 0.2948 0.47427 0.47467 0.0
H552 H 0.34545 0.44705 0.5501 0.0
H553 H 0.32068 0.43169 0.50699 0.0
H554 H 0.20821 0.45221 0.53497 0.0
H555 H 0.23327 0.46663 0.57861 0.0
C556 C 0.20111 0.42521 0.45732 0.0
C557 C 0.22064 0.44558 0.43801 0.0
C558 C 0.21495 0.423 0.48302 0.0
C559 C 0.24882 0.44069 0.48978 0.0
C560 C 0.26891 0.4598 0.47013 0.0
C561 C 0.25501 0.46224 0.44463 0.0
C562 C 0.31534 0.44727 0.54722 0.0
C563 C 0.29127 0.45833 0.56754 0.0
C564 C 0.30116 0.43874 0.52248 0.0
C565 C 0.26257 0.4416 0.51734 0.0
C566 C 0.2381 0.44968 0.53829 0.0
C567 C 0.25238 0.45789 0.56328 0.0
H568 H 0.03563 0.26564 0.93244 0.0
H569 H 0.0625 0.1576 0.96589 0.0
H570 H 0.04624 0.29509 0.97484 0.0
H571 H 0.07542 0.18697 0.00797 0.0
H572 H 0.03348 0.24208 0.0845 0.0
H573 H 0.04082 0.21128 0.04229 0.0
H574 H 0.08396 0.3145 0.00917 0.0
H575 H 0.07431 0.34557 0.05109 0.0
C576 C 0.04509 0.24843 0.9487 0.0
C577 C 0.04795 0.20939 0.94601 0.0
C578 C 0.05133 0.26525 0.97309 0.0
C579 C 0.06127 0.24343 0.99519 0.0
C580 C 0.06678 0.20464 0.99176 0.0
C581 C 0.05976 0.1878 0.96755 0.0
C582 C 0.04541 0.25782 0.06834 0.0
C583 C 0.05304 0.29623 0.07096 0.0
C584 C 0.04972 0.2402 0.04402 0.0
C585 C 0.06245 0.26048 0.02194 0.0
C586 C 0.07302 0.29818 0.02537 0.0
C587 C 0.06795 0.31593 0.0495 0.0
H588 H 0.35191 0.07773 0.4645 0.0
H589 H 0.24571 0.04416 0.43165 0.0
H590 H 0.32208 0.08849 0.50675 0.0
H591 H 0.21607 0.05239 0.47412 0.0
H592 H 0.16496 0.07203 0.55141 0.0
H593 H 0.19412 0.08617 0.50938 0.0
H594 H 0.30143 0.05108 0.54072 0.0
H595 H 0.27233 0.03939 0.58305 0.0
C596 C 0.32197 0.07327 0.46628 0.0
C597 C 0.30113 0.05999 0.44487 0.0
C598 C 0.30489 0.07895 0.4906 0.0
C599 C 0.26671 0.07051 0.49429 0.0
C600 C 0.24541 0.05963 0.47224 0.0
C601 C 0.26238 0.05481 0.44774 0.0
C602 C 0.19499 0.06836 0.54939 0.0
C603 C 0.21642 0.05455 0.57041 0.0
C604 C 0.2117 0.07606 0.5252 0.0
C605 C 0.25014 0.06915 0.52122 0.0
C606 C 0.27189 0.05731 0.54287 0.0
C607 C 0.25524 0.05045 0.56726 0.0
H608 H 0.53161 0.72764 0.935 0.0
H609 H 0.56266 0.83785 0.962 0.0
H610 H 0.53905 0.70305 0.9792 0.0
H611 H 0.57273 0.81316 1.00601 0.0
H612 H 0.52637 0.77114 0.08517 0.0
H613 H 0.53676 0.79561 0.04122 0.0
H614 H 0.5723 0.68538 0.01571 0.0
H615 H 0.55931 0.6608 0.05935 0.0
C616 C 0.54154 0.74627 0.95023 0.0
C617 C 0.54643 0.78463 0.94513 0.0
C618 C 0.54589 0.73223 0.97574 0.0
C619 C 0.556 0.75613 0.99663 0.0
C620 C 0.5638 0.79398 0.99082 0.0
C621 C 0.55855 0.80812 0.96549 0.0
C622 C 0.53723 0.75244 0.07028 0.0
C623 C 0.54183 0.71408 0.07559 0.0
C624 C 0.54333 0.76642 0.04494 0.0
C625 C 0.55494 0.74246 0.02445 0.0
C626 C 0.56229 0.70459 0.03054 0.0
C627 C 0.55531 0.69051 0.05568 0.0
H628 H 0.65736 0.56842 0.46072 0.0
H629 H 0.76456 0.53284 0.4305 0.0
H630 H 0.68558 0.57989 0.50345 0.0
H631 H 0.79256 0.54195 0.47344 0.0
H632 H 0.84157 0.56656 0.55067 0.0
H633 H 0.81341 0.57795 0.50789 0.0
H634 H 0.70546 0.54463 0.53887 0.0
H635 H 0.73358 0.53575 0.58194 0.0
C636 C 0.68715 0.56352 0.46319 0.0
C637 C 0.70876 0.54966 0.44234 0.0
C638 C 0.7033 0.56967 0.48779 0.0
C639 C 0.74133 0.56124 0.49232 0.0
C640 C 0.76334 0.54932 0.47089 0.0
C641 C 0.7473 0.54396 0.44613 0.0
C642 C 0.81161 0.56271 0.54838 0.0
C643 C 0.78973 0.55021 0.56953 0.0
C644 C 0.79547 0.56878 0.52377 0.0
C645 C 0.75718 0.56149 0.5195 0.0
C646 C 0.73493 0.55103 0.54121 0.0
C647 C 0.75099 0.54582 0.56602 0.0
H648 H 0.93292 0.84886 0.04849 0.0
H649 H 0.97054 0.74486 0.08318 0.0
H650 H 0.92347 0.81721 1.00672 0.0
H651 H 0.96296 0.71345 0.04131 0.0
H652 H 0.93842 0.65841 0.96567 0.0
H653 H 0.92665 0.68965 0.00729 0.0
H654 H 0.96149 0.79512 0.97292 0.0
H655 H 0.97131 0.76397 0.9311 0.0
C656 C 0.93866 0.81904 0.04725 0.0
C657 C 0.95254 0.79936 0.0691 0.0
C658 C 0.93363 0.80094 0.02321 0.0
C659 C 0.94301 0.7628 0.0203 0.0
C660 C 0.95491 0.74269 0.04267 0.0
C661 C 0.95934 0.7607 0.06682 0.0
C662 C 0.94268 0.68846 0.96693 0.0
C663 C 0.95587 0.70874 0.94518 0.0
C664 C 0.9363 0.70635 0.99088 0.0
C665 C 0.94369 0.74491 0.99381 0.0
C666 C 0.95497 0.76553 0.97153 0.0
C667 C 0.96071 0.74768 0.94743 0.0
H668 H 0.85478 0.94433 0.46712 0.0
H669 H 0.74696 0.97405 0.43484 0.0
H670 H 0.82593 0.9324 0.5096 0.0
H671 H 0.71817 0.96462 0.47752 0.0
H672 H 0.66829 0.94068 0.5546 0.0
H673 H 0.69793 0.92905 0.51241 0.0
H674 H 0.80372 0.96748 0.5441 0.0
H675 H 0.77423 0.97653 0.58662 0.0
C676 C 0.82473 0.9478 0.46911 0.0
C677 C 0.80308 0.96012 0.44775 0.0
C678 C 0.80819 0.94142 0.49355 0.0
C679 C 0.7697 0.94819 0.49742 0.0
C680 C 0.74776 0.95854 0.4755 0.0
C681 C 0.76423 0.96406 0.45089 0.0
C682 C 0.69814 0.94556 0.55262 0.0
C683 C 0.719 0.95953 0.57379 0.0
C684 C 0.71511 0.93937 0.52833 0.0
C685 C 0.75319 0.94803 0.5244 0.0
C686 C 0.77448 0.95998 0.54619 0.0
C687 C 0.75761 0.96529 0.57069 0.0
H688 H 0.50002 0.84977 0.11656 0.0
H689 H 0.49333 0.87325 0.19928 0.0
H690 H 0.50263 0.91714 0.10729 0.0
H691 H 0.49697 0.94023 0.19034 0.0
H692 H 0.46196 0.0581 0.16477 0.0
H693 H 0.46148 0.99077 0.17392 0.0
H694 H 0.53853 0.97261 0.10981 0.0
H695 H 0.5381 0.03957 0.10042 0.0
C696 C 0.49974 0.86933 0.13276 0.0
C697 C 0.49614 0.85617 0.15861 0.0
C698 C 0.50125 0.90803 0.12752 0.0
C699 C 0.49962 0.9345 0.14804 0.0
C700 C 0.49729 0.92102 0.17393 0.0
C701 C 0.49541 0.8825 0.17911 0.0
C702 C 0.47893 0.03969 0.15278 0.0
C703 C 0.49981 0.05427 0.13177 0.0
C704 C 0.47879 1.001 0.15802 0.0
C705 C 0.49992 0.97588 0.14258 0.0
C706 C 0.52126 0.99072 0.12182 0.0
C707 C 0.5211 0.02927 0.11645 0.0
H708 H 0.66387 0.52061 0.61503 0.0
H709 H 0.64049 0.49994 0.69677 0.0
H710 H 0.59652 0.526 0.60629 0.0
H711 H 0.57342 0.50484 0.68809 0.0
H712 H 0.45459 0.53717 0.66804 0.0
H713 H 0.52189 0.54802 0.67397 0.0
H714 H 0.54511 0.47842 0.6067 0.0
H715 H 0.47804 0.46803 0.60071 0.0
C716 C 0.64437 0.51786 0.63118 0.0
C717 C 0.65737 0.50951 0.65654 0.0
C718 C 0.60586 0.52069 0.62617 0.0
C719 C 0.57966 0.51572 0.64649 0.0
C720 C 0.59284 0.50915 0.67205 0.0
C721 C 0.63123 0.50592 0.67699 0.0
C722 C 0.47408 0.52495 0.65421 0.0
C723 C 0.46117 0.50151 0.63404 0.0
C724 C 0.51258 0.5309 0.65771 0.0
C725 C 0.53881 0.5139 0.64088 0.0
C726 C 0.52566 0.49215 0.61987 0.0
C727 C 0.4873 0.4859 0.61658 0.0
H728 H 0.97995 0.47166 0.15896 0.0
H729 H 0.07191 0.48337 0.10456 0.0
H730 H 0.97324 0.54003 0.1604 0.0
H731 H 0.06534 0.55136 0.10608 0.0
H732 H 0.08089 0.66276 0.15013 0.0
H733 H 0.07959 0.59562 0.14194 0.0
H734 H 0.95899 0.5997 0.13452 0.0
H735 H 0.96041 0.66759 0.14313 0.0
C736 C 0.99821 0.48874 0.14691 0.0
C737 C 0.02692 0.47212 0.132 0.0
C738 C 0.99435 0.52788 0.14772 0.0
C739 C 0.01913 0.55105 0.13364 0.0
C740 C 0.04633 0.53427 0.11756 0.0
C741 C 0.05016 0.49532 0.11675 0.0
C742 C 0.05408 0.64938 0.14677 0.0
C743 C 0.02073 0.67033 0.14748 0.0
C744 C 0.05335 0.61097 0.14179 0.0
C745 C 0.01919 0.59236 0.1375 0.0
C746 C 0.98571 0.6133 0.13786 0.0
C747 C 0.98652 0.65208 0.14258 0.0
H748 H 0.84166 0.99926 0.61913 0.0
H749 H 0.86391 0.01454 0.70155 0.0
H750 H 0.90922 0.99692 0.61051 0.0
H751 H 0.9312 0.01252 0.69301 0.0
H752 H 0.05053 0.98125 0.67183 0.0
H753 H 0.98322 0.97051 0.67753 0.0
H754 H 0.9601 0.04573 0.61299 0.0
H755 H 0.02726 0.05611 0.60721 0.0
C756 C 0.86099 1.00151 0.63542 0.0
C757 C 0.84757 0.00734 0.66099 0.0
C758 C 0.8996 1.00044 0.63048 0.0
C759 C 0.92551 0.00463 0.65108 0.0
C760 C 0.91199 0.00889 0.67676 0.0
C761 C 0.87348 0.01042 0.68163 0.0
C762 C 0.03107 0.99487 0.65857 0.0
C763 C 0.0441 0.01972 0.63918 0.0
C764 C 0.99257 0.98897 0.66195 0.0
C765 C 0.96638 0.0074 0.64577 0.0
C766 C 0.97955 0.0309 0.62564 0.0
C767 C 0.01796 0.03713 0.62248 0.0
H768 H 0.48025 0.64794 0.89576 0.0
H769 H 0.54373 0.63277 0.82491 0.0
H770 H 0.47923 0.58013 0.90272 0.0
H771 H 0.54572 0.56516 0.83248 0.0
H772 H 0.5005 0.44543 0.83378 0.0
H773 H 0.50942 0.5129 0.82905 0.0
H774 H 0.50711 0.52457 0.91351 0.0
H775 H 0.49544 0.45737 0.91763 0.0
C776 C 0.495 0.6299 0.88217 0.0
C777 C 0.51201 0.64519 0.85985 0.0
C778 C 0.49464 0.59097 0.88609 0.0
C779 C 0.51211 0.56656 0.86804 0.0
C780 C 0.53095 0.58254 0.84646 0.0
C781 C 0.53035 0.62131 0.84222 0.0
C782 C 0.50233 0.46259 0.85122 0.0
C783 C 0.49721 0.44646 0.87603 0.0
C784 C 0.50767 0.50135 0.84864 0.0
C785 C 0.50893 0.52479 0.87091 0.0
C786 C 0.50536 0.50799 0.89582 0.0
C787 C 0.49905 0.46941 0.89829 0.0
H788 H 0.83969 0.51944 0.39903 0.0
H789 H 0.86378 0.47842 0.32127 0.0
H790 H 0.9069 0.52606 0.40731 0.0
H791 H 0.93046 0.48332 0.32986 0.0
H792 H 0.0485 0.52586 0.34432 0.0
H793 H 0.9812 0.52569 0.33584 0.0
H794 H 0.96107 0.48732 0.41499 0.0
H795 H 0.02823 0.48796 0.42347 0.0
C796 C 0.85922 0.51203 0.38366 0.0
C797 C 0.84617 0.49807 0.35957 0.0
C798 C 0.89782 0.5154 0.38849 0.0
C799 C 0.9243 0.50499 0.36932 0.0
C800 C 0.9111 0.49196 0.34504 0.0
C801 C 0.87267 0.48865 0.34023 0.0
C802 C 0.02975 0.51714 0.35984 0.0
C803 C 0.04391 0.50691 0.38457 0.0
C804 C 0.99107 0.51708 0.35501 0.0
C805 C 0.96549 0.50655 0.37474 0.0
C806 C 0.97972 0.49631 0.39946 0.0
C807 C 0.01835 0.49654 0.40431 0.0
H808 H 0.05605 0.02011 0.91198 0.0
H809 H 0.98233 0.04146 0.84647 0.0
H810 H 0.0457 0.95271 0.90716 0.0
H811 H 0.97151 0.97408 0.84187 0.0
H812 H 0.01636 0.8549 0.81932 0.0
H813 H 0.01398 0.9223 0.82727 0.0
H814 H 0.997 0.90147 0.90985 0.0
H815 H 0.99971 0.83366 0.90178 0.0
C816 C 0.03734 0.01037 0.89673 0.0
C817 C 0.02026 0.03603 0.87947 0.0
C818 C 0.03109 0.97185 0.89414 0.0
C819 C 0.00789 0.95813 0.87408 0.0
C820 C 0.98974 0.98386 0.8574 0.0
C821 C 0.99571 0.02243 0.86016 0.0
C822 C 0.01186 0.86474 0.83913 0.0
C823 C 0.00855 0.83912 0.85996 0.0
C824 C 0.01012 0.9033 0.84366 0.0
C825 C 0.00537 0.91716 0.86919 0.0
C826 C 1.00091 0.89155 0.88999 0.0
C827 C 1.00218 0.85283 0.88537 0.0
H828 H 0.46634 0.97327 0.34927 0.0
H829 H 0.49007 0.05309 0.41051 0.0
H830 H 0.5334 0.95954 0.34537 0.0
H831 H 0.55692 0.0399 0.40644 0.0
H832 H 0.67513 0.99534 0.40287 0.0
H833 H 0.60756 0.99208 0.41144 0.0
H834 H 0.58586 0.99837 0.32824 0.0
H835 H 0.65304 1.00115 0.31981 0.0
C836 C 0.48581 0.9873 0.36223 0.0
C837 C 0.47306 0.01453 0.38001 0.0
C838 C 0.52419 0.97967 0.35989 0.0
C839 C 0.55048 0.9988 0.3755 0.0
C840 C 0.53743 0.02446 0.39428 0.0
C841 C 0.49919 0.03233 0.39642 0.0
C842 C 0.65586 0.9952 0.38646 0.0
C843 C 0.66925 0.9989 0.36069 0.0
C844 C 0.61724 0.9936 0.39134 0.0
C845 C 0.59137 0.99514 0.37051 0.0
C846 C 0.60499 0.99679 0.3447 0.0
C847 C 0.64345 0.99879 0.33987 0.0
H848 H 0.47501 0.14773 0.88112 0.0
H849 H 0.49954 0.13249 0.79892 0.0
H850 H 0.47339 0.07957 0.88702 0.0
H851 H 0.4986 0.06467 0.805 0.0
H852 H 0.55822 0.95899 0.83967 0.0
H853 H 0.54521 0.02486 0.83026 0.0
H854 H 0.441 0.0168 0.87299 0.0
H855 H 0.45422 0.95001 0.88214 0.0
C856 C 0.47926 0.12997 0.8642 0.0
C857 C 0.4881 0.14567 0.83962 0.0
C858 C 0.47831 0.0909 0.8676 0.0
C859 C 0.48632 0.06685 0.84653 0.0
C860 C 0.4929 0.08254 0.82168 0.0
C861 C 0.49363 0.12142 0.81825 0.0
C862 C 0.53235 0.97123 0.84676 0.0
C863 C 0.50723 0.94967 0.86164 0.0
C864 C 0.52476 0.00882 0.84128 0.0
C865 C 0.49205 0.02598 0.85086 0.0
C866 C 0.46646 1.00427 0.86541 0.0
C867 C 0.47381 0.96618 0.8705 0.0
H868 H 0.34237 0.48678 0.38819 0.0
H869 H 0.35481 0.50614 0.30506 0.0
H870 H 0.41073 0.48451 0.39282 0.0
H871 H 0.42272 0.50457 0.30982 0.0
H872 H 0.53115 0.56314 0.33903 0.0
H873 H 0.46445 0.55178 0.33256 0.0
H874 H 0.47259 0.4501 0.37846 0.0
H875 H 0.54023 0.46163 0.38475 0.0
C876 C 0.35954 0.48977 0.37083 0.0
C877 C 0.343 0.49734 0.3463 0.0
C878 C 0.39873 0.48848 0.37351 0.0
C879 C 0.42207 0.49489 0.35174 0.0
C880 C 0.40547 0.50018 0.32703 0.0
C881 C 0.36652 0.50124 0.32434 0.0
C882 C 0.51876 0.53823 0.34758 0.0
C883 C 0.54074 0.51332 0.36244 0.0
C884 C 0.48063 0.53156 0.34375 0.0
C885 C 0.46325 0.5 0.35496 0.0
C886 C 0.48524 0.4747 0.36965 0.0
C887 C 0.52384 0.48109 0.37309 0.0
H888 H 0.98942 0.35111 0.81241 0.0
H889 H 0.02089 0.33749 0.89362 0.0
H890 H 0.99022 0.41898 0.81754 0.0
H891 H 0.02217 0.406 0.89867 0.0
H892 H 0.04155 0.53668 0.88788 0.0
H893 H 0.05317 0.46904 0.88157 0.0
H894 H 0.94495 0.4584 0.84434 0.0
H895 H 0.93358 0.52509 0.85064 0.0
C896 C 0.99676 0.36262 0.83134 0.0
C897 C 0.00426 0.33889 0.85276 0.0
C898 C 0.99739 0.4015 0.83423 0.0
C899 C 0.00572 0.4177 0.85858 0.0
C900 C 0.01575 0.3942 0.87964 0.0
C901 C 0.01499 0.35504 0.87676 0.0
C902 C 0.02055 0.51971 0.87821 0.0
C903 C 0.98661 0.53594 0.86987 0.0
C904 C 0.02704 0.48115 0.87476 0.0
C905 C 1.00001 0.45858 0.86238 0.0
C906 C 0.96645 0.47514 0.85371 0.0
C907 C 0.95978 0.51325 0.85752 0.0
H908 H 0.99017 0.97106 0.41375 0.0
H909 H 0.96615 0.03885 0.34562 0.0
H910 H 0.05699 0.98338 0.40849 0.0
H911 H 0.03329 0.05162 0.34036 0.0
H912 H 0.15304 0.00441 0.319 0.0
H913 H 0.08584 0.00942 0.32704 0.0
H914 H 0.10764 0.03156 0.40883 0.0
H915 H 0.17515 0.02608 0.40071 0.0
C916 C 0.99924 0.98912 0.39788 0.0
C917 C 0.97307 1.00369 0.37994 0.0
C918 C 0.03747 0.99647 0.395 0.0
C919 C 0.05047 0.01832 0.37393 0.0
C920 C 0.02411 0.03444 0.35668 0.0
C921 C 0.98571 0.0274 0.35978 0.0
C922 C 0.14347 0.01071 0.33864 0.0
C923 C 0.16929 0.01442 0.35928 0.0
C924 C 0.105 0.014 0.3432 0.0
C925 C 0.09139 0.02077 0.36859 0.0
C926 C 0.11729 0.02609 0.38908 0.0
C927 C 0.1559 0.0232 0.38443 0.0
H928 H 0.46221 0.35319 0.13857 0.0
H929 H 0.51608 0.36075 0.21401 0.0
H930 H 0.45821 0.4218 0.13644 0.0
H931 H 0.51154 0.42903 0.21227 0.0
H932 H 0.55911 0.53806 0.1773 0.0
H933 H 0.54745 0.472 0.18545 0.0
H934 H 0.43568 0.48374 0.15375 0.0
H935 H 0.44794 0.55076 0.14522 0.0
C936 C 0.47196 0.36946 0.15511 0.0
C937 C 0.48992 0.35162 0.17631 0.0
C938 C 0.46974 0.40882 0.15389 0.0
C939 C 0.48531 0.43104 0.17393 0.0
C940 C 0.50012 0.41289 0.19617 0.0
C941 C 0.50254 0.37375 0.19728 0.0
C942 C 0.53196 0.52667 0.17216 0.0
C943 C 0.50457 0.54955 0.1604 0.0
C944 C 0.52505 0.48878 0.17711 0.0
C945 C 0.49052 0.4724 0.17038 0.0
C946 C 0.46263 0.49542 0.1591 0.0
C947 C 0.46949 0.53377 0.15438 0.0
H948 H 0.15911 0.48855 0.61913 0.0
H949 H 0.14611 0.51909 0.70047 0.0
H950 H 0.09059 0.48669 0.61431 0.0
H951 H 0.07825 0.51788 0.69552 0.0
H952 H 0.97264 0.57591 0.6615 0.0
H953 H 0.03938 0.56436 0.66757 0.0
H954 H 0.02739 0.45465 0.63283 0.0
H955 H 0.95971 0.46635 0.62689 0.0
C956 C 0.14171 0.49405 0.63607 0.0
C957 C 0.15798 0.50477 0.66004 0.0
C958 C 0.10257 0.49299 0.63332 0.0
C959 C 0.07927 0.50271 0.65446 0.0
C960 C 0.09561 0.51089 0.6788 0.0
C961 C 0.13445 0.51176 0.68157 0.0
C962 C 0.98421 0.54934 0.65514 0.0
C963 C 0.96116 0.52207 0.64363 0.0
C964 C 0.02233 0.5426 0.65879 0.0
C965 C 0.03846 0.50856 0.65075 0.0
C966 C 0.01555 0.48113 0.63915 0.0
C967 C 0.977 0.48769 0.63591 0.0
H968 H 0.92656 0.98298 0.16345 0.0
H969 H 0.036 0.97234 0.1282 0.0
H970 H 0.93648 0.04983 0.16923 0.0
H971 H 0.04635 0.04009 0.13434 0.0
H972 H 0.01742 0.17084 0.12138 0.0
H973 H 0.01867 0.10223 0.11696 0.0
H974 H 0.97698 0.09111 0.19603 0.0
H975 H 0.9758 0.15908 0.20038 0.0
C976 C 0.95279 0.99501 0.15688 0.0
C977 C 0.9804 0.97244 0.1452 0.0
C978 C 0.95867 0.0333 0.16046 0.0
C979 C 0.99229 0.05024 0.15237 0.0
C980 C 0.02012 0.02779 0.14069 0.0
C981 C 0.01435 0.98909 0.13736 0.0
C982 C 0.00926 0.15364 0.13793 0.0
C983 C 0.99579 0.17034 0.16104 0.0
C984 C 0.01 0.1144 0.13542 0.0
C985 C 0.9973 0.09133 0.15601 0.0
C986 C 0.98613 0.10814 0.17962 0.0
C987 C 0.98537 0.14709 0.18209 0.0
H988 H 0.35554 0.93511 0.65417 0.0
H989 H 0.34922 0.05579 0.64873 0.0
H990 H 0.42258 0.93745 0.64552 0.0
H991 H 0.41715 0.05831 0.64 0.0
H992 H 0.54632 0.03357 0.66449 0.0
H993 H 0.47804 0.04122 0.66663 0.0
H994 H 0.46485 0.95557 0.60769 0.0
H995 H 0.53263 0.94829 0.60528 0.0
C996 C 0.36861 0.96218 0.65109 0.0
C997 C 0.34731 0.99528 0.65226 0.0
C998 C 0.40693 0.96353 0.64591 0.0
C999 C 0.42506 0.99806 0.64199 0.0
C1000 C 0.40382 0.03133 0.643 0.0
C1001 C 0.36509 0.02991 0.64781 0.0
C1002 C 0.52886 0.01707 0.65156 0.0
C1003 C 0.54485 0.98977 0.63509 0.0
C1004 C 0.4898 0.02146 0.65278 0.0
C1005 C 0.46619 0.99856 0.63761 0.0
C1006 C 0.48235 0.9731 0.61996 0.0
C1007 C 0.52117 0.96883 0.61867 0.0
H1008 H 0.85117 0.29973 0.07138 0.0
H1009 H 0.83646 0.31749 0.1546 0.0
H1010 H 0.78726 0.27538 0.06867 0.0
H1011 H 0.77251 0.29607 0.15144 0.0
H1012 H 0.67955 0.21445 0.14823 0.0
H1013 H 0.74323 0.23712 0.14642 0.0
H1014 H 0.72077 0.28968 0.07162 0.0
H1015 H 0.65712 0.26443 0.07245 0.0
C1016 C 0.83428 0.29899 0.089 0.0
C1017 C 0.84928 0.31056 0.11321 0.0
C1018 C 0.79751 0.28535 0.08738 0.0
C1019 C 0.77494 0.28314 0.10993 0.0
C1020 C 0.78937 0.29644 0.13378 0.0
C1021 C 0.82603 0.30959 0.13547 0.0
C1022 C 0.6882 0.22986 0.13095 0.0
C1023 C 0.66289 0.2375 0.11046 0.0
C1024 C 0.72471 0.2436 0.13019 0.0
C1025 C 0.73694 0.266 0.10916 0.0
C1026 C 0.71225 0.27259 0.08815 0.0
C1027 C 0.67562 0.25842 0.08876 0.0
H1028 H 0.33415 0.68624 0.60505 0.0
H1029 H 0.2208 0.64705 0.61662 0.0
H1030 H 0.31097 0.75133 0.60323 0.0
H1031 H 0.19805 0.71186 0.61535 0.0
H1032 H 0.20781 0.83558 0.65733 0.0
H1033 H 0.22783 0.77076 0.65255 0.0
H1034 H 0.24762 0.7888 0.57019 0.0
H1035 H 0.22511 0.85352 0.57422 0.0
C1036 C 0.30435 0.69155 0.60687 0.0
C1037 C 0.27921 0.66172 0.61077 0.0
C1038 C 0.29116 0.72857 0.60573 0.0
C1039 C 0.25282 0.7362 0.60901 0.0
C1040 C 0.22768 0.70643 0.61256 0.0
C1041 C 0.24071 0.66949 0.61319 0.0
C1042 C 0.21524 0.82582 0.63795 0.0
C1043 C 0.21433 0.85012 0.6161 0.0
C1044 C 0.22719 0.78872 0.63538 0.0
C1045 C 0.23931 0.77518 0.61108 0.0
C1046 C 0.23856 0.79896 0.58916 0.0
C1047 C 0.22581 0.836 0.59158 0.0
H1048 H 0.84497 0.21254 0.93278 0.0
H1049 H 0.83788 0.19364 0.84919 0.0
H1050 H 0.78017 0.23446 0.93274 0.0
H1051 H 0.7729 0.21199 0.84967 0.0
H1052 H 0.67326 0.28576 0.84868 0.0
H1053 H 0.73796 0.26675 0.85226 0.0
H1054 H 0.71582 0.2184 0.92849 0.0
H1055 H 0.65125 0.24062 0.92595 0.0
C1056 C 0.82964 0.21258 0.91447 0.0
C1057 C 0.84706 0.20125 0.89101 0.0
C1058 C 0.79225 0.22475 0.91451 0.0
C1059 C 0.77128 0.22553 0.89113 0.0
C1060 C 0.7883 0.21277 0.86796 0.0
C1061 C 0.82564 0.2013 0.86783 0.0
C1062 C 0.68213 0.27206 0.8666 0.0
C1063 C 0.65666 0.26493 0.88706 0.0
C1064 C 0.71933 0.26033 0.86841 0.0
C1065 C 0.73215 0.24028 0.89044 0.0
C1066 C 0.70705 0.23383 0.91123 0.0
C1067 C 0.66981 0.24618 0.90961 0.0
H1068 H 0.23749 0.87047 0.4043 0.0
H1069 H 0.3527 0.83336 0.40789 0.0
H1070 H 0.21641 0.80532 0.40622 0.0
H1071 H 0.33133 0.76783 0.41023 0.0
H1072 H 0.26234 0.65872 0.43796 0.0
H1073 H 0.28447 0.72344 0.44232 0.0
H1074 H 0.23153 0.75218 0.36898 0.0
H1075 H 0.21145 0.68765 0.3635 0.0
C1076 C 0.25826 0.84841 0.40618 0.0
C1077 C 0.29673 0.85689 0.40605 0.0
C1078 C 0.24618 0.81121 0.40713 0.0
C1079 C 0.2723 0.78181 0.40838 0.0
C1080 C 0.31074 0.79018 0.40947 0.0
C1081 C 0.32291 0.82749 0.40802 0.0
C1082 C 0.25572 0.67863 0.42258 0.0
C1083 C 0.23474 0.66767 0.40044 0.0
C1084 C 0.26826 0.71568 0.42521 0.0
C1085 C 0.25938 0.74259 0.40608 0.0
C1086 C 0.23822 0.73194 0.38418 0.0
C1087 C 0.22642 0.69492 0.38124 0.0
H1088 H 0.18282 0.65045 0.88417 0.0
H1089 H 0.14864 0.75919 0.91334 0.0
H1090 H 0.24794 0.67153 0.88378 0.0
H1091 H 0.21379 0.77915 0.91411 0.0
H1092 H 0.34442 0.74786 0.85107 0.0
H1093 H 0.28055 0.72399 0.85583 0.0
H1094 H 0.27845 0.76184 0.93612 0.0
H1095 H 0.34284 0.78539 0.93144 0.0
C1096 C 0.18905 0.67863 0.89073 0.0
C1097 C 0.16014 0.70305 0.89864 0.0
C1098 C 0.22639 0.6906 0.8906 0.0
C1099 C 0.23577 0.72699 0.89882 0.0
C1100 C 0.20732 0.75082 0.90791 0.0
C1101 C 0.16992 0.73914 0.90762 0.0
C1102 C 0.33021 0.75131 0.86967 0.0
C1103 C 0.34835 0.76875 0.89083 0.0
C1104 C 0.29389 0.73729 0.87247 0.0
C1105 C 0.27474 0.74091 0.89637 0.0
C1106 C 0.29266 0.75874 0.91749 0.0
C1107 C 0.32936 0.77216 0.91483 0.0
H1108 H 0.804 0.16757 0.43553 0.0
H1109 H 0.77159 0.16251 0.35408 0.0
H1110 H 0.77698 0.23091 0.43861 0.0
H1111 H 0.74425 0.22526 0.35725 0.0
H1112 H 0.76882 0.36006 0.41385 0.0
H1113 H 0.79221 0.29605 0.41605 0.0
H1114 H 0.68836 0.25554 0.38337 0.0
H1115 H 0.66372 0.31953 0.38234 0.0
C1116 C 0.79121 0.18009 0.41833 0.0
C1117 C 0.79023 0.16044 0.3945 0.0
C1118 C 0.77578 0.21617 0.42009 0.0
C1119 C 0.75833 0.23273 0.39821 0.0
C1120 C 0.7572 0.21295 0.37446 0.0
C1121 C 0.77323 0.17729 0.37258 0.0
C1122 C 0.75026 0.33762 0.40791 0.0
C1123 C 0.71418 0.3453 0.3979 0.0
C1124 C 0.76393 0.30088 0.40902 0.0
C1125 C 0.74219 0.27099 0.39972 0.0
C1126 C 0.70583 0.27826 0.3904 0.0
C1127 C 0.69183 0.31495 0.38972 0.0
H1128 H 0.33629 0.74937 0.16441 0.0
H1129 H 0.33596 0.7116 0.08408 0.0
H1130 H 0.27383 0.77634 0.15838 0.0
H1131 H 0.27294 0.73827 0.07813 0.0
H1132 H 0.14258 0.7487 0.09882 0.0
H1133 H 0.20643 0.72487 0.0992 0.0
H1134 H 0.24587 0.83077 0.12922 0.0
H1135 H 0.18209 0.85577 0.12764 0.0
C1136 C 0.32258 0.74641 0.14558 0.0
C1137 C 0.34069 0.72809 0.12477 0.0
C1138 C 0.28711 0.76224 0.14204 0.0
C1139 C 0.26882 0.75961 0.11775 0.0
C1140 C 0.28656 0.74067 0.09704 0.0
C1141 C 0.32244 0.72542 0.10044 0.0
C1142 C 0.1648 0.76758 0.10465 0.0
C1143 C 0.15686 0.80436 0.11322 0.0
C1144 C 0.20143 0.75366 0.10505 0.0
C1145 C 0.23089 0.77588 0.11444 0.0
C1146 C 0.22344 0.81295 0.12218 0.0
C1147 C 0.18688 0.82716 0.12135 0.0
H1148 H 0.70239 0.17559 0.66302 0.0
H1149 H 0.73169 0.15948 0.58151 0.0
H1150 H 0.72362 0.2395 0.66057 0.0
H1151 H 0.75709 0.22269 0.58 0.0
H1152 H 0.77329 0.35032 0.58009 0.0
H1153 H 0.7474 0.28726 0.57936 0.0
H1154 H 0.77833 0.27268 0.66071 0.0
H1155 H 0.80004 0.33644 0.66231 0.0
C1156 C 0.71303 0.18551 0.64441 0.0
C1157 C 0.71513 0.16174 0.62246 0.0
C1158 C 0.72626 0.22229 0.64321 0.0
C1159 C 0.74314 0.23635 0.62029 0.0
C1160 C 0.74431 0.21309 0.59805 0.0
C1161 C 0.73016 0.17643 0.59904 0.0
C1162 C 0.77415 0.33389 0.59795 0.0
C1163 C 0.78872 0.34913 0.62129 0.0
C1164 C 0.75971 0.29732 0.59742 0.0
C1165 C 0.76007 0.27472 0.62009 0.0
C1166 C 0.77633 0.28937 0.64301 0.0
C1167 C 0.78986 0.32605 0.64372 0.0
H1168 H 0.34368 0.12686 0.32916 0.0
H1169 H 0.32528 0.0427 0.26978 0.0
H1170 H 0.36765 0.16981 0.29556 0.0
H1171 H 0.34981 0.08482 0.23657 0.0
H1172 H 0.39152 0.16674 0.178 0.0
H1173 H 0.34758 0.14168 0.21058 0.0
H1174 H 0.42645 0.16801 0.27218 0.0
H1175 H 0.46945 0.19341 0.24001 0.0
C1176 C 0.34391 0.11788 0.30889 0.0
C1177 C 0.33318 0.08124 0.30217 0.0
C1178 C 0.35786 0.14233 0.28965 0.0
C1179 C 0.36115 0.13061 0.26337 0.0
C1180 C 0.34749 0.09501 0.25649 0.0
C1181 C 0.33373 0.07065 0.27564 0.0
C1182 C 0.39894 0.16791 0.19857 0.0
C1183 C 0.43414 0.18149 0.2064 0.0
C1184 C 0.3739 0.15343 0.21723 0.0
C1185 C 0.38357 0.15254 0.24404 0.0
C1186 C 0.41776 0.16854 0.25184 0.0
C1187 C 0.44269 0.18275 0.23328 0.0
H1188 H 0.37837 0.3356 0.82946 0.0
H1189 H 0.45368 0.31008 0.76573 0.0
H1190 H 0.33411 0.36365 0.79815 0.0
H1191 H 0.41038 0.33827 0.73479 0.0
H1192 H 0.32895 0.38772 0.68029 0.0
H1193 H 0.35091 0.34099 0.7121 0.0
H1194 H 0.33906 0.42243 0.77418 0.0
H1195 H 0.31655 0.46838 0.74274 0.0
C1196 C 0.38497 0.3351 0.80874 0.0
C1197 C 0.41964 0.32122 0.80004 0.0
C1198 C 0.35982 0.35133 0.79082 0.0
C1199 C 0.36885 0.35359 0.76395 0.0
C1200 C 0.40221 0.3368 0.75521 0.0
C1201 C 0.42729 0.32094 0.77304 0.0
C1202 C 0.3301 0.3952 0.70084 0.0
C1203 C 0.32167 0.43188 0.70895 0.0
C1204 C 0.34283 0.36853 0.71905 0.0
C1205 C 0.34719 0.37807 0.74569 0.0
C1206 C 0.33581 0.41389 0.75395 0.0
C1207 C 0.32327 0.44045 0.73581 0.0
H1208 H 0.15578 0.39334 0.33769 0.0
H1209 H 0.17414 0.47239 0.2747 0.0
H1210 H 0.13456 0.34655 0.30568 0.0
H1211 H 0.15276 0.42654 0.24316 0.0
H1212 H 0.11989 0.34123 0.18686 0.0
H1213 H 0.16105 0.36746 0.22058 0.0
H1214 H 0.07753 0.34303 0.27951 0.0
H1215 H 0.03716 0.31629 0.24611 0.0
C1216 C 0.15589 0.40047 0.31704 0.0
C1217 C 0.16601 0.43668 0.30874 0.0
C1218 C 0.14369 0.37379 0.29872 0.0
C1219 C 0.14185 0.38279 0.2718 0.0
C1220 C 0.15425 0.41831 0.26358 0.0
C1221 C 0.16606 0.44487 0.28179 0.0
C1222 C 0.111 0.34029 0.20715 0.0
C1223 C 0.0751 0.32732 0.21381 0.0
C1224 C 0.1344 0.35558 0.22645 0.0
C1225 C 0.1223 0.358 0.25271 0.0
C1226 C 0.08791 0.34156 0.25959 0.0
C1227 C 0.06457 0.32647 0.24035 0.0
H1228 H 0.05133 0.19249 0.77138 0.0
H1229 H 0.12852 0.16842 0.83444 0.0
H1230 H 0.09664 0.17009 0.73974 0.0
H1231 H 0.17489 0.14664 0.80245 0.0
H1232 H 0.17785 0.12618 0.68388 0.0
H1233 H 0.15484 0.17107 0.71643 0.0
H1234 H 0.17487 0.08951 0.77776 0.0
H1235 H 0.19857 0.04564 0.7456 0.0
C1236 C 0.07854 0.18337 0.77842 0.0
C1237 C 0.08612 0.18149 0.80541 0.0
C1238 C 0.10479 0.17085 0.76018 0.0
C1239 C 0.13935 0.15601 0.76849 0.0
C1240 C 0.14828 0.15732 0.79541 0.0
C1241 C 0.12187 0.17003 0.81375 0.0
C1242 C 0.17842 0.11844 0.70443 0.0
C1243 C 0.18933 0.08219 0.71215 0.0
C1244 C 0.16502 0.14402 0.72307 0.0
C1245 C 0.16239 0.13375 0.74973 0.0
C1246 C 0.17663 0.09867 0.75754 0.0
C1247 C 0.1899 0.07324 0.73899 0.0
H1248 H 0.69186 0.96172 0.74903 0.0
H1249 H 0.67841 0.88255 0.68579 0.0
H1250 H 0.66856 0.91563 0.77998 0.0
H1251 H 0.65572 0.83556 0.71712 0.0
H1252 H 0.55231 0.80494 0.77001 0.0
H1253 H 0.59653 0.83252 0.73952 0.0
H1254 H 0.67166 0.85712 0.80372 0.0
H1255 H 0.6264 0.82987 0.83454 0.0
C1256 C 0.68481 0.93402 0.74183 0.0
C1257 C 0.68633 0.92599 0.71489 0.0
C1258 C 0.67177 0.90735 0.7597 0.0
C1259 C 0.6598 0.8719 0.75109 0.0
C1260 C 0.66419 0.86281 0.72437 0.0
C1261 C 0.67741 0.88961 0.70642 0.0
C1262 C 0.57868 0.81542 0.77759 0.0
C1263 C 0.58569 0.81575 0.80469 0.0
C1264 C 0.60429 0.83097 0.76002 0.0
C1265 C 0.63759 0.84749 0.76911 0.0
C1266 C 0.64602 0.84509 0.79609 0.0
C1267 C 0.6203 0.82923 0.81375 0.0
H1268 H 0.61658 0.67829 0.18524 0.0
H1269 H 0.54406 0.69834 0.25149 0.0
H1270 H 0.66343 0.65056 0.21461 0.0
H1271 H 0.58992 0.67003 0.28053 0.0
H1272 H 0.67606 0.6207 0.33165 0.0
H1273 H 0.64975 0.6678 0.30186 0.0
H1274 H 0.66389 0.59124 0.23702 0.0
H1275 H 0.69092 0.54505 0.26647 0.0
C1276 C 0.61105 0.67766 0.20611 0.0
C1277 C 0.57645 0.69005 0.21601 0.0
C1278 C 0.63773 0.66149 0.22294 0.0
C1279 C 0.63033 0.65756 0.24996 0.0
C1280 C 0.59691 0.67278 0.25996 0.0
C1281 C 0.57035 0.68878 0.24321 0.0
C1282 C 0.67456 0.61445 0.31091 0.0
C1283 C 0.68507 0.57895 0.30148 0.0
C1284 C 0.65921 0.64131 0.29384 0.0
C1285 C 0.65415 0.63319 0.26704 0.0
C1286 C 0.66754 0.59876 0.25742 0.0
C1287 C 0.68279 0.57203 0.27441 0.0
H1288 H 0.83393 0.62657 0.6822 0.0
H1289 H 0.80706 0.55002 0.74514 0.0
H1290 H 0.85986 0.67082 0.71411 0.0
H1291 H 0.83354 0.59323 0.7767 0.0
H1292 H 0.9629 0.68928 0.76994 0.0
H1293 H 0.91746 0.66719 0.73823 0.0
H1294 H 0.8365 0.65125 0.80028 0.0
H1295 H 0.88289 0.67265 0.83236 0.0
C1296 C 0.83261 0.61967 0.70287 0.0
C1297 C 0.819 0.58463 0.71115 0.0
C1298 C 0.84772 0.64484 0.72116 0.0
C1299 C 0.84936 0.63541 0.74801 0.0
C1300 C 0.83262 0.60174 0.75632 0.0
C1301 C 0.81769 0.5767 0.73813 0.0
C1302 C 0.93514 0.68182 0.77681 0.0
C1303 C 0.9267 0.68206 0.80371 0.0
C1304 C 0.90883 0.66948 0.75851 0.0
C1305 C 0.87333 0.65695 0.76664 0.0
C1306 C 0.8638 0.66014 0.79338 0.0
C1307 C 0.89025 0.67264 0.81176 0.0
H1308 H 0.88516 0.83547 0.18419 0.0
H1309 H 0.96708 0.81309 0.24459 0.0
H1310 H 0.84156 0.85872 0.21748 0.0
H1311 H 0.9244 0.83702 0.27752 0.0
H1312 H 0.84577 0.88327 0.33538 0.0
H1313 H 0.86764 0.83743 0.303 0.0
H1314 H 0.84432 0.91692 0.24092 0.0
H1315 H 0.82197 0.96173 0.27292 0.0
C1316 C 0.89344 0.83451 0.20461 0.0
C1317 C 0.92974 0.82307 0.21174 0.0
C1318 C 0.86862 0.84809 0.22368 0.0
C1319 C 0.87966 0.85039 0.25018 0.0
C1320 C 0.9147 0.83555 0.25743 0.0
C1321 C 0.93941 0.82211 0.23844 0.0
C1322 C 0.84433 0.89034 0.31474 0.0
C1323 C 0.83276 0.92625 0.30669 0.0
C1324 C 0.85705 0.86424 0.29619 0.0
C1325 C 0.85819 0.87358 0.26931 0.0
C1326 C 0.84361 0.90843 0.26131 0.0
C1327 C 0.83113 0.9344 0.27976 0.0
loop_
_geom_bond_atom_site_label_1
_geom_bond_atom_site_label_2
_geom_bond_distance
_geom_bond_site_symmetry_2
_ccdc_geom_bond_type
C0 C1 1.351 . S
C0 N3 1.368 . S
C0 H5 0.931 . S
C1 C0 1.351 . S
C1 N2 1.373 . S
C1 H29 0.930 . S
N2 C1 1.373 . S
N2 C4 1.340 . S
N3 C0 1.368 . S
N3 C4 1.321 . S
N3 Co6 2.135 . S
C4 N2 1.340 . S
C4 N3 1.321 . S
C4 H28 0.930 . S
H5 C0 0.931 . S
Co6 N3 2.135 . S
Co6 N9 2.121 . S
Co6 O14 2.055 . S
Co6 O17 2.039 . S
Co6 N20 2.140 . S
C7 O8 1.227 . S
C7 O17 1.265 . S
O8 C7 1.227 . S
N9 Co6 2.121 . S
N9 C11 1.375 . S
N9 C12 1.313 . S
C10 C11 1.338 . S
C10 N13 1.377 . S
C10 H30 0.930 . S
C11 N9 1.375 . S
C11 C10 1.338 . S
C11 H15 0.931 . S
C12 N9 1.313 . S
C12 N13 1.344 . S
C12 H16 0.930 . S
N13 C10 1.377 . S
N13 C12 1.344 . S
O14 Co6 2.055 . S
O14 C18 1.253 . S
H15 C11 0.931 . S
H16 C12 0.930 . S
O17 Co6 2.039 . S
O17 C7 1.265 . S
C18 O14 1.253 . S
C18 O19 1.227 . S
O19 C18 1.227 . S
N20 Co6 2.140 . S
N20 C23 1.346 . S
N20 C24 1.345 . S
C21 C22 1.387 . S
C21 C25 1.391 . S
C22 C21 1.387 . S
C22 C23 1.369 . S
C22 H31 0.929 . S
C23 N20 1.346 . S
C23 C22 1.369 . S
C23 H26 0.928 . S
C24 N20 1.345 . S
C24 C25 1.371 . S
C24 H27 0.931 . S
C25 C21 1.391 . S
C25 C24 1.371 . S
C25 H32 0.930 . S
H26 C23 0.928 . S
H27 C24 0.931 . S
H28 C4 0.930 . S
H29 C1 0.930 . S
H30 C10 0.930 . S
H31 C22 0.929 . S
H32 C25 0.930 . S
C33 C34 1.351 . S
C33 N36 1.368 . S
C33 H38 0.931 . S
C34 C33 1.351 . S
C34 N35 1.373 . S
C34 H62 0.930 . S
N35 C34 1.373 . S
N35 C37 1.340 . S
N36 C33 1.368 . S
N36 C37 1.321 . S
N36 Co39 2.135 . S
C37 N35 1.340 . S
C37 N36 1.321 . S
C37 H61 0.930 . S
H38 C33 0.931 . S
Co39 N36 2.135 . S
Co39 N42 2.121 . S
Co39 O47 2.055 . S
Co39 O50 2.039 . S
Co39 N53 2.140 . S
C40 O41 1.227 . S
C40 O50 1.265 . S
O41 C40 1.227 . S
N42 Co39 2.121 . S
N42 C44 1.375 . S
N42 C45 1.313 . S
C43 C44 1.338 . S
C43 N46 1.377 . S
C43 H63 0.930 . S
C44 N42 1.375 . S
C44 C43 1.338 . S
C44 H48 0.931 . S
C45 N42 1.313 . S
C45 N46 1.344 . S
C45 H49 0.930 . S
N46 C43 1.377 . S
N46 C45 1.344 . S
O47 Co39 2.055 . S
O47 C51 1.253 . S
H48 C44 0.931 . S
H49 C45 0.930 . S
O50 Co39 2.039 . S
O50 C40 1.265 . S
C51 O47 1.253 . S
C51 O52 1.227 . S
O52 C51 1.227 . S
N53 Co39 2.140 . S
N53 C56 1.346 . S
N53 C57 1.345 . S
C54 C55 1.387 . S
C54 C58 1.391 . S
C55 C54 1.387 . S
C55 C56 1.369 . S
C55 H64 0.929 . S
C56 N53 1.346 . S
C56 C55 1.369 . S
C56 H59 0.928 . S
C57 N53 1.345 . S
C57 C58 1.371 . S
C57 H60 0.931 . S
C58 C54 1.391 . S
C58 C57 1.371 . S
C58 H65 0.930 . S
H59 C56 0.928 . S
H60 C57 0.931 . S
H61 C37 0.930 . S
H62 C34 0.930 . S
H63 C43 0.930 . S
H64 C55 0.929 . S
H65 C58 0.930 . S
C66 C67 1.351 . S
C66 N69 1.368 . S
C66 H71 0.931 . S
C67 C66 1.351 . S
C67 N68 1.373 . S
C67 H95 0.930 . S
N68 C67 1.373 . S
N68 C70 1.340 . S
N69 C66 1.368 . S
N69 C70 1.321 . S
N69 Co72 2.135 . S
C70 N68 1.340 . S
C70 N69 1.321 . S
C70 H94 0.930 . S
H71 C66 0.931 . S
Co72 N69 2.135 . S
Co72 N75 2.121 . S
Co72 O80 2.055 . S
Co72 O83 2.039 . S
Co72 N86 2.140 1_455 S
C73 O74 1.227 1_455 S
C73 O83 1.265 . S
O74 C73 1.227 1_655 S
N75 Co72 2.121 . S
N75 C77 1.375 1_455 S
N75 C78 1.313 . S
C76 C77 1.338 . S
C76 N79 1.377 1_655 S
C76 H96 0.930 . S
C77 N75 1.375 1_655 S
C77 C76 1.338 . S
C77 H81 0.931 . S
C78 N75 1.313 . S
C78 N79 1.344 . S
C78 H82 0.930 . S
N79 C76 1.377 1_455 S
N79 C78 1.344 . S
O80 Co72 2.055 . S
O80 C84 1.253 . S
H81 C77 0.931 . S
H82 C78 0.930 . S
O83 Co72 2.039 . S
O83 C73 1.265 . S
C84 O80 1.253 . S
C84 O85 1.227 . S
O85 C84 1.227 . S
N86 Co72 2.140 1_655 S
N86 C89 1.346 . S
N86 C90 1.345 . S
C87 C88 1.387 . S
C87 C91 1.391 . S
C88 C87 1.387 . S
C88 C89 1.369 . S
C88 H97 0.929 . S
C89 N86 1.346 . S
C89 C88 1.369 . S
C89 H92 0.928 . S
C90 N86 1.345 . S
C90 C91 1.371 . S
C90 H93 0.931 . S
C91 C87 1.391 . S
C91 C90 1.371 . S
C91 H98 0.930 . S
H92 C89 0.928 . S
H93 C90 0.931 . S
H94 C70 0.930 . S
H95 C67 0.930 . S
H96 C76 0.930 . S
H97 C88 0.929 . S
H98 C91 0.930 . S
C99 C100 1.351 . S
C99 N102 1.368 . S
C99 H104 0.931 . S
C100 C99 1.351 . S
C100 N101 1.373 . S
C100 H128 0.930 . S
N101 C100 1.373 . S
N101 C103 1.340 . S
N102 C99 1.368 . S
N102 C103 1.321 . S
N102 Co105 2.135 . S
C103 N101 1.340 . S
C103 N102 1.321 . S
C103 H127 0.930 . S
H104 C99 0.931 . S
Co105 N102 2.135 . S
Co105 N108 2.121 . S
Co105 O113 2.055 . S
Co105 O116 2.039 . S
Co105 N119 2.140 1_545 S
C106 O107 1.227 1_545 S
C106 O116 1.265 . S
O107 C106 1.227 1_565 S
N108 Co105 2.121 . S
N108 C110 1.375 1_545 S
N108 C111 1.313 . S
C109 C110 1.338 . S
C109 N112 1.377 1_565 S
C109 H129 0.930 . S
C110 N108 1.375 1_565 S
C110 C109 1.338 . S
C110 H114 0.931 . S
C111 N108 1.313 . S
C111 N112 1.344 . S
C111 H115 0.930 . S
N112 C109 1.377 1_545 S
N112 C111 1.344 . S
O113 Co105 2.055 . S
O113 C117 1.253 . S
H114 C110 0.931 . S
H115 C111 0.930 . S
O116 Co105 2.039 . S
O116 C106 1.265 . S
C117 O113 1.253 . S
C117 O118 1.227 . S
O118 C117 1.227 . S
N119 Co105 2.140 1_565 S
N119 C122 1.346 . S
N119 C123 1.345 . S
C120 C121 1.387 . S
C120 C124 1.391 . S
C121 C120 1.387 . S
C121 C122 1.369 . S
C121 H130 0.929 . S
C122 N119 1.346 . S
C122 C121 1.369 . S
C122 H125 0.928 . S
C123 N119 1.345 . S
C123 C124 1.371 . S
C123 H126 0.931 . S
C124 C120 1.391 . S
C124 C123 1.371 . S
C124 H131 0.930 . S
H125 C122 0.928 . S
H126 C123 0.931 . S
H127 C103 0.930 . S
H128 C100 0.930 . S
H129 C109 0.930 . S
H130 C121 0.929 . S
H131 C124 0.930 . S
C132 C133 1.351 . S
C132 N135 1.368 . S
C132 H137 0.931 . S
C133 C132 1.351 . S
C133 N134 1.373 . S
C133 H161 0.930 . S
N134 C133 1.373 . S
N134 C136 1.340 . S
N135 C132 1.368 . S
N135 C136 1.321 . S
N135 Co138 2.135 . S
C136 N134 1.340 . S
C136 N135 1.321 . S
C136 H160 0.930 . S
H137 C132 0.931 . S
Co138 N135 2.135 . S
Co138 N141 2.121 . S
Co138 O146 2.055 . S
Co138 O149 2.039 . S
Co138 N152 2.140 . S
C139 O140 1.227 . S
C139 O149 1.265 . S
O140 C139 1.227 . S
N141 Co138 2.121 . S
N141 C143 1.375 . S
N141 C144 1.313 . S
C142 C143 1.338 . S
C142 N145 1.377 . S
C142 H162 0.930 . S
C143 N141 1.375 . S
C143 C142 1.338 . S
C143 H147 0.931 . S
C144 N141 1.313 . S
C144 N145 1.344 . S
C144 H148 0.930 . S
N145 C142 1.377 . S
N145 C144 1.344 . S
O146 Co138 2.055 . S
O146 C150 1.253 . S
H147 C143 0.931 . S
H148 C144 0.930 . S
O149 Co138 2.039 . S
O149 C139 1.265 . S
C150 O146 1.253 . S
C150 O151 1.227 . S
O151 C150 1.227 . S
N152 Co138 2.140 . S
N152 C155 1.346 . S
N152 C156 1.345 . S
C153 C154 1.387 . S
C153 C157 1.391 . S
C154 C153 1.387 . S
C154 C155 1.369 . S
C154 H163 0.929 . S
C155 N152 1.346 . S
C155 C154 1.369 . S
C155 H158 0.928 . S
C156 N152 1.345 . S
C156 C157 1.371 . S
C156 H159 0.931 . S
C157 C153 1.391 . S
C157 C156 1.371 . S
C157 H164 0.930 . S
H158 C155 0.928 . S
H159 C156 0.931 . S
H160 C136 0.930 . S
H161 C133 0.930 . S
H162 C142 0.930 . S
H163 C154 0.929 . S
H164 C157 0.930 . S
C165 C166 1.351 . S
C165 N168 1.368 . S
C165 H170 0.931 . S
C166 C165 1.351 . S
C166 N167 1.373 . S
C166 H194 0.930 . S
N167 C166 1.373 . S
N167 C169 1.340 . S
N168 C165 1.368 . S
N168 C169 1.321 . S
N168 Co171 2.135 . S
C169 N167 1.340 . S
C169 N168 1.321 . S
C169 H193 0.930 . S
H170 C165 0.931 . S
Co171 N168 2.135 . S
Co171 N174 2.121 . S
Co171 O179 2.055 . S
Co171 O182 2.039 . S
Co171 N185 2.140 . S
C172 O173 1.227 . S
C172 O182 1.265 . S
O173 C172 1.227 . S
N174 Co171 2.121 . S
N174 C176 1.375 . S
N174 C177 1.313 . S
C175 C176 1.338 . S
C175 N178 1.377 . S
C175 H195 0.930 . S
C176 N174 1.375 . S
C176 C175 1.338 . S
C176 H180 0.931 . S
C177 N174 1.313 . S
C177 N178 1.344 . S
C177 H181 0.930 . S
N178 C175 1.377 . S
N178 C177 1.344 . S
O179 Co171 2.055 . S
O179 C183 1.253 . S
H180 C176 0.931 . S
H181 C177 0.930 . S
O182 Co171 2.039 . S
O182 C172 1.265 . S
C183 O179 1.253 . S
C183 O184 1.227 . S
O184 C183 1.227 . S
N185 Co171 2.140 . S
N185 C188 1.346 . S
N185 C189 1.345 . S
C186 C187 1.387 . S
C186 C190 1.391 . S
C187 C186 1.387 . S
C187 C188 1.369 . S
C187 H196 0.929 . S
C188 N185 1.346 . S
C188 C187 1.369 . S
C188 H191 0.928 . S
C189 N185 1.345 . S
C189 C190 1.371 . S
C189 H192 0.931 . S
C190 C186 1.391 . S
C190 C189 1.371 . S
C190 H197 0.930 . S
H191 C188 0.928 . S
H192 C189 0.931 . S
H193 C169 0.930 . S
H194 C166 0.930 . S
H195 C175 0.930 . S
H196 C187 0.929 . S
H197 C190 0.930 . S
C198 C199 1.351 . S
C198 N201 1.368 . S
C198 H203 0.931 . S
C199 C198 1.351 . S
C199 N200 1.373 . S
C199 H227 0.930 . S
N200 C199 1.373 . S
N200 C202 1.340 . S
N201 C198 1.368 . S
N201 C202 1.321 . S
N201 Co204 2.135 . S
C202 N200 1.340 . S
C202 N201 1.321 . S
C202 H226 0.930 . S
H203 C198 0.931 . S
Co204 N201 2.135 . S
Co204 N207 2.121 . S
Co204 O212 2.055 . S
Co204 O215 2.039 . S
Co204 N218 2.140 1_455 S
C205 O206 1.227 1_455 S
C205 O215 1.265 . S
O206 C205 1.227 1_655 S
N207 Co204 2.121 . S
N207 C209 1.375 1_455 S
N207 C210 1.313 . S
C208 C209 1.338 . S
C208 N211 1.377 1_655 S
C208 H228 0.930 . S
C209 N207 1.375 1_655 S
C209 C208 1.338 . S
C209 H213 0.931 . S
C210 N207 1.313 . S
C210 N211 1.344 . S
C210 H214 0.930 . S
N211 C208 1.377 1_455 S
N211 C210 1.344 . S
O212 Co204 2.055 . S
O212 C216 1.253 . S
H213 C209 0.931 . S
H214 C210 0.930 . S
O215 Co204 2.039 . S
O215 C205 1.265 . S
C216 O212 1.253 . S
C216 O217 1.227 . S
O217 C216 1.227 . S
N218 Co204 2.140 1_655 S
N218 C221 1.346 . S
N218 C222 1.345 . S
C219 C220 1.387 . S
C219 C223 1.391 . S
C220 C219 1.387 . S
C220 C221 1.369 . S
C220 H229 0.929 . S
C221 N218 1.346 . S
C221 C220 1.369 . S
C221 H224 0.928 . S
C222 N218 1.345 . S
C222 C223 1.371 . S
C222 H225 0.931 . S
C223 C219 1.391 . S
C223 C222 1.371 . S
C223 H230 0.930 . S
H224 C221 0.928 . S
H225 C222 0.931 . S
H226 C202 0.930 . S
H227 C199 0.930 . S
H228 C208 0.930 . S
H229 C220 0.929 . S
H230 C223 0.930 . S
C231 C232 1.351 . S
C231 N234 1.368 . S
C231 H236 0.931 . S
C232 C231 1.351 . S
C232 N233 1.373 . S
C232 H260 0.930 . S
N233 C232 1.373 . S
N233 C235 1.340 . S
N234 C231 1.368 . S
N234 C235 1.321 . S
N234 Co237 2.135 . S
C235 N233 1.340 . S
C235 N234 1.321 . S
C235 H259 0.930 . S
H236 C231 0.931 . S
Co237 N234 2.135 . S
Co237 N240 2.121 . S
Co237 O245 2.055 . S
Co237 O248 2.039 . S
Co237 N251 2.140 1_545 S
C238 O239 1.227 1_545 S
C238 O248 1.265 . S
O239 C238 1.227 1_565 S
N240 Co237 2.121 . S
N240 C242 1.375 1_545 S
N240 C243 1.313 . S
C241 C242 1.338 . S
C241 N244 1.377 1_565 S
C241 H261 0.930 . S
C242 N240 1.375 1_565 S
C242 C241 1.338 . S
C242 H246 0.931 . S
C243 N240 1.313 . S
C243 N244 1.344 . S
C243 H247 0.930 . S
N244 C241 1.377 1_545 S
N244 C243 1.344 . S
O245 Co237 2.055 . S
O245 C249 1.253 . S
H246 C242 0.931 . S
H247 C243 0.930 . S
O248 Co237 2.039 . S
O248 C238 1.265 . S
C249 O245 1.253 . S
C249 O250 1.227 . S
O250 C249 1.227 . S
N251 Co237 2.140 1_565 S
N251 C254 1.346 . S
N251 C255 1.345 . S
C252 C253 1.387 . S
C252 C256 1.391 . S
C253 C252 1.387 . S
C253 C254 1.369 . S
C253 H262 0.929 . S
C254 N251 1.346 . S
C254 C253 1.369 . S
C254 H257 0.928 . S
C255 N251 1.345 . S
C255 C256 1.371 . S
C255 H258 0.931 . S
C256 C252 1.391 . S
C256 C255 1.371 . S
C256 H263 0.930 . S
H257 C254 0.928 . S
H258 C255 0.931 . S
H259 C235 0.930 . S
H260 C232 0.930 . S
H261 C241 0.930 . S
H262 C253 0.929 . S
H263 C256 0.930 . S
C264 C265 1.351 . S
C264 N267 1.368 . S
C264 H269 0.931 . S
C265 C264 1.351 . S
C265 N266 1.373 . S
C265 H293 0.930 . S
N266 C265 1.373 . S
N266 C268 1.340 . S
N267 C264 1.368 . S
N267 C268 1.321 . S
N267 Co270 2.135 . S
C268 N266 1.340 . S
C268 N267 1.321 . S
C268 H292 0.930 . S
H269 C264 0.931 . S
Co270 N267 2.135 . S
Co270 N273 2.121 . S
Co270 O278 2.055 . S
Co270 O281 2.039 . S
Co270 N284 2.140 . S
C271 O272 1.227 . S
C271 O281 1.265 . S
O272 C271 1.227 . S
N273 Co270 2.121 . S
N273 C275 1.375 . S
N273 C276 1.313 . S
C274 C275 1.338 . S
C274 N277 1.377 . S
C274 H294 0.930 . S
C275 N273 1.375 . S
C275 C274 1.338 . S
C275 H279 0.931 . S
C276 N273 1.313 . S
C276 N277 1.344 . S
C276 H280 0.930 . S
N277 C274 1.377 . S
N277 C276 1.344 . S
O278 Co270 2.055 . S
O278 C282 1.253 . S
H279 C275 0.931 . S
H280 C276 0.930 . S
O281 Co270 2.039 . S
O281 C271 1.265 . S
C282 O278 1.253 . S
C282 O283 1.227 . S
O283 C282 1.227 . S
N284 Co270 2.140 . S
N284 C287 1.346 . S
N284 C288 1.345 . S
C285 C286 1.387 . S
C285 C289 1.391 . S
C286 C285 1.387 . S
C286 C287 1.369 . S
C286 H295 0.929 . S
C287 N284 1.346 . S
C287 C286 1.369 . S
C287 H290 0.928 . S
C288 N284 1.345 . S
C288 C289 1.371 . S
C288 H291 0.931 . S
C289 C285 1.391 . S
C289 C288 1.371 . S
C289 H296 0.930 . S
H290 C287 0.928 . S
H291 C288 0.931 . S
H292 C268 0.930 . S
H293 C265 0.930 . S
H294 C274 0.930 . S
H295 C286 0.929 . S
H296 C289 0.930 . S
C297 C298 1.351 . S
C297 N300 1.368 . S
C297 H302 0.931 . S
C298 C297 1.351 . S
C298 N299 1.373 . S
C298 H326 0.930 . S
N299 C298 1.373 . S
N299 C301 1.340 . S
N300 C297 1.368 . S
N300 C301 1.321 . S
N300 Co303 2.135 . S
C301 N299 1.340 . S
C301 N300 1.321 . S
C301 H325 0.930 . S
H302 C297 0.931 . S
Co303 N300 2.135 . S
Co303 N306 2.121 . S
Co303 O311 2.055 . S
Co303 O314 2.039 . S
Co303 N317 2.140 . S
C304 O305 1.227 . S
C304 O314 1.265 . S
O305 C304 1.227 . S
N306 Co303 2.121 . S
N306 C308 1.375 . S
N306 C309 1.313 . S
C307 C308 1.338 . S
C307 N310 1.377 . S
C307 H327 0.930 . S
C308 N306 1.375 . S
C308 C307 1.338 . S
C308 H312 0.931 . S
C309 N306 1.313 . S
C309 N310 1.344 . S
C309 H313 0.930 . S
N310 C307 1.377 . S
N310 C309 1.344 . S
O311 Co303 2.055 . S
O311 C315 1.253 . S
H312 C308 0.931 . S
H313 C309 0.930 . S
O314 Co303 2.039 . S
O314 C304 1.265 . S
C315 O311 1.253 . S
C315 O316 1.227 . S
O316 C315 1.227 . S
N317 Co303 2.140 . S
N317 C320 1.346 . S
N317 C321 1.345 . S
C318 C319 1.387 . S
C318 C322 1.391 . S
C319 C318 1.387 . S
C319 C320 1.369 . S
C319 H328 0.929 . S
C320 N317 1.346 . S
C320 C319 1.369 . S
C320 H323 0.928 . S
C321 N317 1.345 . S
C321 C322 1.371 . S
C321 H324 0.931 . S
C322 C318 1.391 . S
C322 C321 1.371 . S
C322 H329 0.930 . S
H323 C320 0.928 . S
H324 C321 0.931 . S
H325 C301 0.930 . S
H326 C298 0.930 . S
H327 C307 0.930 . S
H328 C319 0.929 . S
H329 C322 0.930 . S
C330 C331 1.351 . S
C330 N333 1.368 . S
C330 H335 0.931 . S
C331 C330 1.351 . S
C331 N332 1.373 . S
C331 H359 0.930 . S
N332 C331 1.373 . S
N332 C334 1.340 . S
N333 C330 1.368 . S
N333 C334 1.321 . S
N333 Co336 2.135 . S
C334 N332 1.340 . S
C334 N333 1.321 . S
C334 H358 0.930 . S
H335 C330 0.931 . S
Co336 N333 2.135 . S
Co336 N339 2.121 . S
Co336 O344 2.055 . S
Co336 O347 2.039 . S
Co336 N350 2.140 1_655 S
C337 O338 1.227 1_655 S
C337 O347 1.265 . S
O338 C337 1.227 1_455 S
N339 Co336 2.121 . S
N339 C341 1.375 1_655 S
N339 C342 1.313 . S
C340 C341 1.338 . S
C340 N343 1.377 1_455 S
C340 H360 0.930 . S
C341 N339 1.375 1_455 S
C341 C340 1.338 . S
C341 H345 0.931 . S
C342 N339 1.313 . S
C342 N343 1.344 . S
C342 H346 0.930 . S
N343 C340 1.377 1_655 S
N343 C342 1.344 . S
O344 Co336 2.055 . S
O344 C348 1.253 . S
H345 C341 0.931 . S
H346 C342 0.930 . S
O347 Co336 2.039 . S
O347 C337 1.265 . S
C348 O344 1.253 . S
C348 O349 1.227 . S
O349 C348 1.227 . S
N350 Co336 2.140 1_455 S
N350 C353 1.346 . S
N350 C354 1.345 . S
C351 C352 1.387 . S
C351 C355 1.391 . S
C352 C351 1.387 . S
C352 C353 1.369 . S
C352 H361 0.929 . S
C353 N350 1.346 . S
C353 C352 1.369 . S
C353 H356 0.928 . S
C354 N350 1.345 . S
C354 C355 1.371 . S
C354 H357 0.931 . S
C355 C351 1.391 . S
C355 C354 1.371 . S
C355 H362 0.930 . S
H356 C353 0.928 . S
H357 C354 0.931 . S
H358 C334 0.930 . S
H359 C331 0.930 . S
H360 C340 0.930 . S
H361 C352 0.929 . S
H362 C355 0.930 . S
C363 C364 1.351 . S
C363 N366 1.368 . S
C363 H368 0.931 . S
C364 C363 1.351 . S
C364 N365 1.373 . S
C364 H392 0.930 . S
N365 C364 1.373 . S
N365 C367 1.340 . S
N366 C363 1.368 . S
N366 C367 1.321 . S
N366 Co369 2.135 . S
C367 N365 1.340 . S
C367 N366 1.321 . S
C367 H391 0.930 . S
H368 C363 0.931 . S
Co369 N366 2.135 . S
Co369 N372 2.121 . S
Co369 O377 2.055 . S
Co369 O380 2.039 . S
Co369 N383 2.140 1_565 S
C370 O371 1.227 1_565 S
C370 O380 1.265 . S
O371 C370 1.227 1_545 S
N372 Co369 2.121 . S
N372 C374 1.375 1_565 S
N372 C375 1.313 . S
C373 C374 1.338 . S
C373 N376 1.377 1_545 S
C373 H393 0.930 . S
C374 N372 1.375 1_545 S
C374 C373 1.338 . S
C374 H378 0.931 . S
C375 N372 1.313 . S
C375 N376 1.344 . S
C375 H379 0.930 . S
N376 C373 1.377 1_565 S
N376 C375 1.344 . S
O377 Co369 2.055 . S
O377 C381 1.253 . S
H378 C374 0.931 . S
H379 C375 0.930 . S
O380 Co369 2.039 . S
O380 C370 1.265 . S
C381 O377 1.253 . S
C381 O382 1.227 . S
O382 C381 1.227 . S
N383 Co369 2.140 1_545 S
N383 C386 1.346 . S
N383 C387 1.345 . S
C384 C385 1.387 . S
C384 C388 1.391 . S
C385 C384 1.387 . S
C385 C386 1.369 . S
C385 H394 0.929 . S
C386 N383 1.346 . S
C386 C385 1.369 . S
C386 H389 0.928 . S
C387 N383 1.345 . S
C387 C388 1.371 . S
C387 H390 0.931 . S
C388 C384 1.391 . S
C388 C387 1.371 . S
C388 H395 0.930 . S
H389 C386 0.928 . S
H390 C387 0.931 . S
H391 C367 0.930 . S
H392 C364 0.930 . S
H393 C373 0.930 . S
H394 C385 0.929 . S
H395 C388 0.930 . S
C396 C397 1.351 . S
C396 N399 1.368 . S
C396 H401 0.931 . S
C397 C396 1.351 . S
C397 N398 1.373 . S
C397 H425 0.930 . S
N398 C397 1.373 . S
N398 C400 1.340 . S
N399 C396 1.368 . S
N399 C400 1.321 . S
N399 Co402 2.135 . S
C400 N398 1.340 . S
C400 N399 1.321 . S
C400 H424 0.930 . S
H401 C396 0.931 . S
Co402 N399 2.135 . S
Co402 N405 2.121 . S
Co402 O410 2.055 . S
Co402 O413 2.039 . S
Co402 N416 2.140 . S
C403 O404 1.227 . S
C403 O413 1.265 . S
O404 C403 1.227 . S
N405 Co402 2.121 . S
N405 C407 1.375 . S
N405 C408 1.313 . S
C406 C407 1.338 . S
C406 N409 1.377 . S
C406 H426 0.930 . S
C407 N405 1.375 . S
C407 C406 1.338 . S
C407 H411 0.931 . S
C408 N405 1.313 . S
C408 N409 1.344 . S
C408 H412 0.930 . S
N409 C406 1.377 . S
N409 C408 1.344 . S
O410 Co402 2.055 . S
O410 C414 1.253 . S
H411 C407 0.931 . S
H412 C408 0.930 . S
O413 Co402 2.039 . S
O413 C403 1.265 . S
C414 O410 1.253 . S
C414 O415 1.227 . S
O415 C414 1.227 . S
N416 Co402 2.140 . S
N416 C419 1.346 . S
N416 C420 1.345 . S
C417 C418 1.387 . S
C417 C421 1.391 . S
C418 C417 1.387 . S
C418 C419 1.369 . S
C418 H427 0.929 . S
C419 N416 1.346 . S
C419 C418 1.369 . S
C419 H422 0.928 . S
C420 N416 1.345 . S
C420 C421 1.371 . S
C420 H423 0.931 . S
C421 C417 1.391 . S
C421 C420 1.371 . S
C421 H428 0.930 . S
H422 C419 0.928 . S
H423 C420 0.931 . S
H424 C400 0.930 . S
H425 C397 0.930 . S
H426 C406 0.930 . S
H427 C418 0.929 . S
H428 C421 0.930 . S
C429 C430 1.351 . S
C429 N432 1.368 . S
C429 H434 0.931 . S
C430 C429 1.351 . S
C430 N431 1.373 . S
C430 H458 0.930 . S
N431 C430 1.373 . S
N431 C433 1.340 . S
N432 C429 1.368 . S
N432 C433 1.321 . S
N432 Co435 2.135 . S
C433 N431 1.340 . S
C433 N432 1.321 . S
C433 H457 0.930 . S
H434 C429 0.931 . S
Co435 N432 2.135 . S
Co435 N438 2.121 . S
Co435 O443 2.055 . S
Co435 O446 2.039 . S
Co435 N449 2.140 . S
C436 O437 1.227 . S
C436 O446 1.265 . S
O437 C436 1.227 . S
N438 Co435 2.121 . S
N438 C440 1.375 . S
N438 C441 1.313 . S
C439 C440 1.338 . S
C439 N442 1.377 . S
C439 H459 0.930 . S
C440 N438 1.375 . S
C440 C439 1.338 . S
C440 H444 0.931 . S
C441 N438 1.313 . S
C441 N442 1.344 . S
C441 H445 0.930 . S
N442 C439 1.377 . S
N442 C441 1.344 . S
O443 Co435 2.055 . S
O443 C447 1.253 . S
H444 C440 0.931 . S
H445 C441 0.930 . S
O446 Co435 2.039 . S
O446 C436 1.265 . S
C447 O443 1.253 . S
C447 O448 1.227 . S
O448 C447 1.227 . S
N449 Co435 2.140 . S
N449 C452 1.346 . S
N449 C453 1.345 . S
C450 C451 1.387 . S
C450 C454 1.391 . S
C451 C450 1.387 . S
C451 C452 1.369 . S
C451 H460 0.929 . S
C452 N449 1.346 . S
C452 C451 1.369 . S
C452 H455 0.928 . S
C453 N449 1.345 . S
C453 C454 1.371 . S
C453 H456 0.931 . S
C454 C450 1.391 . S
C454 C453 1.371 . S
C454 H461 0.930 . S
H455 C452 0.928 . S
H456 C453 0.931 . S
H457 C433 0.930 . S
H458 C430 0.930 . S
H459 C439 0.930 . S
H460 C451 0.929 . S
H461 C454 0.930 . S
C462 C463 1.351 . S
C462 N465 1.368 . S
C462 H467 0.931 . S
C463 C462 1.351 . S
C463 N464 1.373 . S
C463 H491 0.930 . S
N464 C463 1.373 . S
N464 C466 1.340 . S
N465 C462 1.368 . S
N465 C466 1.321 . S
N465 Co468 2.135 . S
C466 N464 1.340 . S
C466 N465 1.321 . S
C466 H490 0.930 . S
H467 C462 0.931 . S
Co468 N465 2.135 . S
Co468 N471 2.121 . S
Co468 O476 2.055 . S
Co468 O479 2.039 . S
Co468 N482 2.140 1_655 S
C469 O470 1.227 1_655 S
C469 O479 1.265 . S
O470 C469 1.227 1_455 S
N471 Co468 2.121 . S
N471 C473 1.375 1_655 S
N471 C474 1.313 . S
C472 C473 1.338 . S
C472 N475 1.377 1_455 S
C472 H492 0.930 . S
C473 N471 1.375 1_455 S
C473 C472 1.338 . S
C473 H477 0.931 . S
C474 N471 1.313 . S
C474 N475 1.344 . S
C474 H478 0.930 . S
N475 C472 1.377 1_655 S
N475 C474 1.344 . S
O476 Co468 2.055 . S
O476 C480 1.253 . S
H477 C473 0.931 . S
H478 C474 0.930 . S
O479 Co468 2.039 . S
O479 C469 1.265 . S
C480 O476 1.253 . S
C480 O481 1.227 . S
O481 C480 1.227 . S
N482 Co468 2.140 1_455 S
N482 C485 1.346 . S
N482 C486 1.345 . S
C483 C484 1.387 . S
C483 C487 1.391 . S
C484 C483 1.387 . S
C484 C485 1.369 . S
C484 H493 0.929 . S
C485 N482 1.346 . S
C485 C484 1.369 . S
C485 H488 0.928 . S
C486 N482 1.345 . S
C486 C487 1.371 . S
C486 H489 0.931 . S
C487 C483 1.391 . S
C487 C486 1.371 . S
C487 H494 0.930 . S
H488 C485 0.928 . S
H489 C486 0.931 . S
H490 C466 0.930 . S
H491 C463 0.930 . S
H492 C472 0.930 . S
H493 C484 0.929 . S
H494 C487 0.930 . S
C495 C496 1.351 . S
C495 N498 1.368 . S
C495 H500 0.931 . S
C496 C495 1.351 . S
C496 N497 1.373 . S
C496 H524 0.930 . S
N497 C496 1.373 . S
N497 C499 1.340 . S
N498 C495 1.368 . S
N498 C499 1.321 . S
N498 Co501 2.135 . S
C499 N497 1.340 . S
C499 N498 1.321 . S
C499 H523 0.930 . S
H500 C495 0.931 . S
Co501 N498 2.135 . S
Co501 N504 2.121 . S
Co501 O509 2.055 . S
Co501 O512 2.039 . S
Co501 N515 2.140 1_565 S
C502 O503 1.227 1_565 S
C502 O512 1.265 . S
O503 C502 1.227 1_545 S
N504 Co501 2.121 . S
N504 C506 1.375 1_565 S
N504 C507 1.313 . S
C505 C506 1.338 . S
C505 N508 1.377 1_545 S
C505 H525 0.930 . S
C506 N504 1.375 1_545 S
C506 C505 1.338 . S
C506 H510 0.931 . S
C507 N504 1.313 . S
C507 N508 1.344 . S
C507 H511 0.930 . S
N508 C505 1.377 1_565 S
N508 C507 1.344 . S
O509 Co501 2.055 . S
O509 C513 1.253 . S
H510 C506 0.931 . S
H511 C507 0.930 . S
O512 Co501 2.039 . S
O512 C502 1.265 . S
C513 O509 1.253 . S
C513 O514 1.227 . S
O514 C513 1.227 . S
N515 Co501 2.140 1_545 S
N515 C518 1.346 . S
N515 C519 1.345 . S
C516 C517 1.387 . S
C516 C520 1.391 . S
C517 C516 1.387 . S
C517 C518 1.369 . S
C517 H526 0.929 . S
C518 N515 1.346 . S
C518 C517 1.369 . S
C518 H521 0.928 . S
C519 N515 1.345 . S
C519 C520 1.371 . S
C519 H522 0.931 . S
C520 C516 1.391 . S
C520 C519 1.371 . S
C520 H527 0.930 . S
H521 C518 0.928 . S
H522 C519 0.931 . S
H523 C499 0.930 . S
H524 C496 0.930 . S
H525 C505 0.930 . S
H526 C517 0.929 . S
H527 C520 0.930 . S
H528 C536 0.950 . S
H529 C541 0.950 . S
H530 C538 0.950 . S
H531 C540 0.950 . S
H532 C542 0.950 . S
H533 C544 0.950 . S
H534 C546 0.950 . S
H535 C547 0.950 . S
C536 H528 0.950 . S
C536 C537 1.386 . S
C536 C538 1.391 . S
C537 C536 1.386 . S
C537 C541 1.393 . S
C538 H530 0.950 . S
C538 C536 1.391 . S
C538 C539 1.400 . S
C539 C538 1.400 . S
C539 C540 1.398 . S
C539 C545 1.491 1_554 S
C540 H531 0.950 . S
C540 C539 1.398 . S
C540 C541 1.391 . S
C541 H529 0.950 . S
C541 C537 1.393 . S
C541 C540 1.391 . S
C542 H532 0.950 . S
C542 C543 1.386 . S
C542 C544 1.391 . S
C543 C542 1.386 . S
C543 C547 1.393 . S
C544 H533 0.950 . S
C544 C542 1.391 . S
C544 C545 1.400 . S
C545 C539 1.491 1_556 S
C545 C544 1.400 . S
C545 C546 1.398 . S
C546 H534 0.950 . S
C546 C545 1.398 . S
C546 C547 1.391 . S
C547 H535 0.950 . S
C547 C543 1.393 . S
C547 C546 1.391 . S
H548 C556 0.950 . S
H549 C561 0.950 . S
H550 C558 0.950 . S
H551 C560 0.950 . S
H552 C562 0.950 . S
H553 C564 0.950 . S
H554 C566 0.950 . S
H555 C567 0.950 . S
C556 H548 0.950 . S
C556 C557 1.386 . S
C556 C558 1.391 . S
C557 C556 1.386 . S
C557 C561 1.393 . S
C558 H550 0.950 . S
C558 C556 1.391 . S
C558 C559 1.400 . S
C559 C558 1.400 . S
C559 C560 1.398 . S
C559 C565 1.491 . S
C560 H551 0.950 . S
C560 C559 1.398 . S
C560 C561 1.391 . S
C561 H549 0.950 . S
C561 C557 1.393 . S
C561 C560 1.391 . S
C562 H552 0.950 . S
C562 C563 1.386 . S
C562 C564 1.391 . S
C563 C562 1.386 . S
C563 C567 1.393 . S
C564 H553 0.950 . S
C564 C562 1.391 . S
C564 C565 1.400 . S
C565 C559 1.491 . S
C565 C564 1.400 . S
C565 C566 1.398 . S
C566 H554 0.950 . S
C566 C565 1.398 . S
C566 C567 1.391 . S
C567 H555 0.950 . S
C567 C563 1.393 . S
C567 C566 1.391 . S
H568 C576 0.950 . S
H569 C581 0.950 . S
H570 C578 0.950 . S
H571 C580 0.950 . S
H572 C582 0.950 . S
H573 C584 0.950 . S
H574 C586 0.950 . S
H575 C587 0.950 . S
C576 H568 0.950 . S
C576 C577 1.386 . S
C576 C578 1.391 . S
C577 C576 1.386 . S
C577 C581 1.393 . S
C578 H570 0.950 . S
C578 C576 1.391 . S
C578 C579 1.400 . S
C579 C578 1.400 . S
C579 C580 1.398 . S
C579 C585 1.491 1_556 S
C580 H571 0.950 . S
C580 C579 1.398 . S
C580 C581 1.391 . S
C581 H569 0.950 . S
C581 C577 1.393 . S
C581 C580 1.391 . S
C582 H572 0.950 . S
C582 C583 1.386 . S
C582 C584 1.391 . S
C583 C582 1.386 . S
C583 C587 1.393 . S
C584 H573 0.950 . S
C584 C582 1.391 . S
C584 C585 1.400 . S
C585 C579 1.491 1_554 S
C585 C584 1.400 . S
C585 C586 1.398 . S
C586 H574 0.950 . S
C586 C585 1.398 . S
C586 C587 1.391 . S
C587 H575 0.950 . S
C587 C583 1.393 . S
C587 C586 1.391 . S
H588 C596 0.950 . S
H589 C601 0.950 . S
H590 C598 0.950 . S
H591 C600 0.950 . S
H592 C602 0.950 . S
H593 C604 0.950 . S
H594 C606 0.950 . S
H595 C607 0.950 . S
C596 H588 0.950 . S
C596 C597 1.386 1_565 S
C596 C598 1.391 . S
C597 C596 1.386 1_545 S
C597 C601 1.393 . S
C598 H590 0.950 . S
C598 C596 1.391 . S
C598 C599 1.400 1_565 S
C599 C598 1.400 1_545 S
C599 C600 1.398 . S
C599 C605 1.491 . S
C600 H591 0.950 . S
C600 C599 1.398 . S
C600 C601 1.391 . S
C601 H589 0.950 . S
C601 C597 1.393 . S
C601 C600 1.391 . S
C602 H592 0.950 . S
C602 C603 1.386 . S
C602 C604 1.391 . S
C603 C602 1.386 . S
C603 C607 1.393 1_545 S
C604 H593 0.950 . S
C604 C602 1.391 . S
C604 C605 1.400 . S
C605 C599 1.491 . S
C605 C604 1.400 . S
C605 C606 1.398 1_545 S
C606 H594 0.950 . S
C606 C605 1.398 1_565 S
C606 C607 1.391 . S
C607 H595 0.950 . S
C607 C603 1.393 1_565 S
C607 C606 1.391 . S
H608 C616 0.950 . S
H609 C621 0.950 . S
H610 C618 0.950 . S
H611 C620 0.950 . S
H612 C622 0.950 . S
H613 C624 0.950 . S
H614 C626 0.950 . S
H615 C627 0.950 . S
C616 H608 0.950 . S
C616 C617 1.386 . S
C616 C618 1.391 . S
C617 C616 1.386 . S
C617 C621 1.393 . S
C618 H610 0.950 . S
C618 C616 1.391 . S
C618 C619 1.400 . S
C619 C618 1.400 . S
C619 C620 1.398 . S
C619 C625 1.491 1_556 S
C620 H611 0.950 . S
C620 C619 1.398 . S
C620 C621 1.391 . S
C621 H609 0.950 . S
C621 C617 1.393 . S
C621 C620 1.391 . S
C622 H612 0.950 . S
C622 C623 1.386 . S
C622 C624 1.391 . S
C623 C622 1.386 . S
C623 C627 1.393 . S
C624 H613 0.950 . S
C624 C622 1.391 . S
C624 C625 1.400 . S
C625 C619 1.491 1_554 S
C625 C624 1.400 . S
C625 C626 1.398 . S
C626 H614 0.950 . S
C626 C625 1.398 . S
C626 C627 1.391 . S
C627 H615 0.950 . S
C627 C623 1.393 . S
C627 C626 1.391 . S
H628 C636 0.950 . S
H629 C641 0.950 . S
H630 C638 0.950 . S
H631 C640 0.950 . S
H632 C642 0.950 . S
H633 C644 0.950 . S
H634 C646 0.950 . S
H635 C647 0.950 . S
C636 H628 0.950 . S
C636 C637 1.386 . S
C636 C638 1.391 . S
C637 C636 1.386 . S
C637 C641 1.393 . S
C638 H630 0.950 . S
C638 C636 1.391 . S
C638 C639 1.400 . S
C639 C638 1.400 . S
C639 C640 1.398 . S
C639 C645 1.491 . S
C640 H631 0.950 . S
C640 C639 1.398 . S
C640 C641 1.391 . S
C641 H629 0.950 . S
C641 C637 1.393 . S
C641 C640 1.391 . S
C642 H632 0.950 . S
C642 C643 1.386 . S
C642 C644 1.391 . S
C643 C642 1.386 . S
C643 C647 1.393 . S
C644 H633 0.950 . S
C644 C642 1.391 . S
C644 C645 1.400 . S
C645 C639 1.491 . S
C645 C644 1.400 . S
C645 C646 1.398 . S
C646 H634 0.950 . S
C646 C645 1.398 . S
C646 C647 1.391 . S
C647 H635 0.950 . S
C647 C643 1.393 . S
C647 C646 1.391 . S
H648 C656 0.950 . S
H649 C661 0.950 . S
H650 C658 0.950 . S
H651 C660 0.950 . S
H652 C662 0.950 . S
H653 C664 0.950 . S
H654 C666 0.950 . S
H655 C667 0.950 . S
C656 H648 0.950 . S
C656 C657 1.386 . S
C656 C658 1.391 . S
C657 C656 1.386 . S
C657 C661 1.393 . S
C658 H650 0.950 . S
C658 C656 1.391 . S
C658 C659 1.400 . S
C659 C658 1.400 . S
C659 C660 1.398 . S
C659 C665 1.491 1_554 S
C660 H651 0.950 . S
C660 C659 1.398 . S
C660 C661 1.391 . S
C661 H649 0.950 . S
C661 C657 1.393 . S
C661 C660 1.391 . S
C662 H652 0.950 . S
C662 C663 1.386 . S
C662 C664 1.391 . S
C663 C662 1.386 . S
C663 C667 1.393 . S
C664 H653 0.950 . S
C664 C662 1.391 . S
C664 C665 1.400 . S
C665 C659 1.491 1_556 S
C665 C664 1.400 . S
C665 C666 1.398 . S
C666 H654 0.950 . S
C666 C665 1.398 . S
C666 C667 1.391 . S
C667 H655 0.950 . S
C667 C663 1.393 . S
C667 C666 1.391 . S
H668 C676 0.950 . S
H669 C681 0.950 1_545 S
H670 C678 0.950 . S
H671 C680 0.950 1_545 S
H672 C682 0.950 1_545 S
H673 C684 0.950 1_545 S
H674 C686 0.950 . S
H675 C687 0.950 . S
C676 H668 0.950 . S
C676 C677 1.386 . S
C676 C678 1.391 . S
C677 C676 1.386 . S
C677 C681 1.393 . S
C678 H670 0.950 . S
C678 C676 1.391 . S
C678 C679 1.400 . S
C679 C678 1.400 . S
C679 C680 1.398 . S
C679 C685 1.491 . S
C680 H671 0.950 1_565 S
C680 C679 1.398 . S
C680 C681 1.391 . S
C681 H669 0.950 1_565 S
C681 C677 1.393 . S
C681 C680 1.391 . S
C682 H672 0.950 1_565 S
C682 C683 1.386 . S
C682 C684 1.391 . S
C683 C682 1.386 . S
C683 C687 1.393 . S
C684 H673 0.950 1_565 S
C684 C682 1.391 . S
C684 C685 1.400 . S
C685 C679 1.491 . S
C685 C684 1.400 . S
C685 C686 1.398 . S
C686 H674 0.950 . S
C686 C685 1.398 . S
C686 C687 1.391 . S
C687 H675 0.950 . S
C687 C683 1.393 . S
C687 C686 1.391 . S
H688 C696 0.950 . S
H689 C701 0.950 . S
H690 C698 0.950 . S
H691 C700 0.950 . S
H692 C702 0.950 . S
H693 C704 0.950 . S
H694 C706 0.950 1_565 S
H695 C707 0.950 . S
C696 H688 0.950 . S
C696 C697 1.386 . S
C696 C698 1.391 . S
C697 C696 1.386 . S
C697 C701 1.393 . S
C698 H690 0.950 . S
C698 C696 1.391 . S
C698 C699 1.400 . S
C699 C698 1.400 . S
C699 C700 1.398 . S
C699 C705 1.491 . S
C700 H691 0.950 . S
C700 C699 1.398 . S
C700 C701 1.391 . S
C701 H689 0.950 . S
C701 C697 1.393 . S
C701 C700 1.391 . S
C702 H692 0.950 . S
C702 C703 1.386 . S
C702 C704 1.391 . S
C703 C702 1.386 . S
C703 C707 1.393 . S
C704 H693 0.950 . S
C704 C702 1.391 . S
C704 C705 1.400 1_545 S
C705 C699 1.491 . S
C705 C704 1.400 1_565 S
C705 C706 1.398 1_565 S
C706 H694 0.950 1_545 S
C706 C705 1.398 1_545 S
C706 C707 1.391 . S
C707 H695 0.950 . S
C707 C703 1.393 . S
C707 C706 1.391 . S
H708 C716 0.950 . S
H709 C721 0.950 . S
H710 C718 0.950 . S
H711 C720 0.950 . S
H712 C722 0.950 . S
H713 C724 0.950 . S
H714 C726 0.950 . S
H715 C727 0.950 . S
C716 H708 0.950 . S
C716 C717 1.386 . S
C716 C718 1.391 . S
C717 C716 1.386 . S
C717 C721 1.393 . S
C718 H710 0.950 . S
C718 C716 1.391 . S
C718 C719 1.400 . S
C719 C718 1.400 . S
C719 C720 1.398 . S
C719 C725 1.491 . S
C720 H711 0.950 . S
C720 C719 1.398 . S
C720 C721 1.391 . S
C721 H709 0.950 . S
C721 C717 1.393 . S
C721 C720 1.391 . S
C722 H712 0.950 . S
C722 C723 1.386 . S
C722 C724 1.391 . S
C723 C722 1.386 . S
C723 C727 1.393 . S
C724 H713 0.950 . S
C724 C722 1.391 . S
C724 C725 1.400 . S
C725 C719 1.491 . S
C725 C724 1.400 . S
C725 C726 1.398 . S
C726 H714 0.950 . S
C726 C725 1.398 . S
C726 C727 1.391 . S
C727 H715 0.950 . S
C727 C723 1.393 . S
C727 C726 1.391 . S
H728 C736 0.950 . S
H729 C741 0.950 . S
H730 C738 0.950 . S
H731 C740 0.950 . S
H732 C742 0.950 . S
H733 C744 0.950 . S
H734 C746 0.950 . S
H735 C747 0.950 . S
C736 H728 0.950 . S
C736 C737 1.386 1_655 S
C736 C738 1.391 . S
C737 C736 1.386 1_455 S
C737 C741 1.393 . S
C738 H730 0.950 . S
C738 C736 1.391 . S
C738 C739 1.400 . S
C739 C738 1.400 . S
C739 C740 1.398 1_655 S
C739 C745 1.491 . S
C740 H731 0.950 . S
C740 C739 1.398 1_455 S
C740 C741 1.391 . S
C741 H729 0.950 . S
C741 C737 1.393 . S
C741 C740 1.391 . S
C742 H732 0.950 . S
C742 C743 1.386 1_455 S
C742 C744 1.391 . S
C743 C742 1.386 1_655 S
C743 C747 1.393 . S
C744 H733 0.950 . S
C744 C742 1.391 . S
C744 C745 1.400 1_455 S
C745 C739 1.491 . S
C745 C744 1.400 1_655 S
C745 C746 1.398 . S
C746 H734 0.950 . S
C746 C745 1.398 . S
C746 C747 1.391 . S
C747 H735 0.950 . S
C747 C743 1.393 . S
C747 C746 1.391 . S
H748 C756 0.950 . S
H749 C761 0.950 . S
H750 C758 0.950 . S
H751 C760 0.950 . S
H752 C762 0.950 . S
H753 C764 0.950 . S
H754 C766 0.950 1_655 S
H755 C767 0.950 . S
C756 H748 0.950 . S
C756 C757 1.386 1_545 S
C756 C758 1.391 . S
C757 C756 1.386 1_565 S
C757 C761 1.393 . S
C758 H750 0.950 . S
C758 C756 1.391 . S
C758 C759 1.400 1_545 S
C759 C758 1.400 1_565 S
C759 C760 1.398 . S
C759 C765 1.491 . S
C760 H751 0.950 . S
C760 C759 1.398 . S
C760 C761 1.391 . S
C761 H749 0.950 . S
C761 C757 1.393 . S
C761 C760 1.391 . S
C762 H752 0.950 . S
C762 C763 1.386 1_565 S
C762 C764 1.391 . S
C763 C762 1.386 1_545 S
C763 C767 1.393 . S
C764 H753 0.950 . S
C764 C762 1.391 . S
C764 C765 1.400 1_455 S
C765 C759 1.491 . S
C765 C764 1.400 1_655 S
C765 C766 1.398 1_665 S
C766 H754 0.950 1_455 S
C766 C765 1.398 1_445 S
C766 C767 1.391 . S
C767 H755 0.950 . S
C767 C763 1.393 . S
C767 C766 1.391 . S
H768 C776 0.950 . S
H769 C781 0.950 . S
H770 C778 0.950 . S
H771 C780 0.950 . S
H772 C782 0.950 . S
H773 C784 0.950 . S
H774 C786 0.950 . S
H775 C787 0.950 . S
C776 H768 0.950 . S
C776 C777 1.386 . S
C776 C778 1.391 . S
C777 C776 1.386 . S
C777 C781 1.393 . S
C778 H770 0.950 . S
C778 C776 1.391 . S
C778 C779 1.400 . S
C779 C778 1.400 . S
C779 C780 1.398 . S
C779 C785 1.491 . S
C780 H771 0.950 . S
C780 C779 1.398 . S
C780 C781 1.391 . S
C781 H769 0.950 . S
C781 C777 1.393 . S
C781 C780 1.391 . S
C782 H772 0.950 . S
C782 C783 1.386 . S
C782 C784 1.391 . S
C783 C782 1.386 . S
C783 C787 1.393 . S
C784 H773 0.950 . S
C784 C782 1.391 . S
C784 C785 1.400 . S
C785 C779 1.491 . S
C785 C784 1.400 . S
C785 C786 1.398 . S
C786 H774 0.950 . S
C786 C785 1.398 . S
C786 C787 1.391 . S
C787 H775 0.950 . S
C787 C783 1.393 . S
C787 C786 1.391 . S
H788 C796 0.950 . S
H789 C801 0.950 . S
H790 C798 0.950 . S
H791 C800 0.950 . S
H792 C802 0.950 . S
H793 C804 0.950 . S
H794 C806 0.950 1_655 S
H795 C807 0.950 . S
C796 H788 0.950 . S
C796 C797 1.386 . S
C796 C798 1.391 . S
C797 C796 1.386 . S
C797 C801 1.393 . S
C798 H790 0.950 . S
C798 C796 1.391 . S
C798 C799 1.400 . S
C799 C798 1.400 . S
C799 C800 1.398 . S
C799 C805 1.491 . S
C800 H791 0.950 . S
C800 C799 1.398 . S
C800 C801 1.391 . S
C801 H789 0.950 . S
C801 C797 1.393 . S
C801 C800 1.391 . S
C802 H792 0.950 . S
C802 C803 1.386 . S
C802 C804 1.391 . S
C803 C802 1.386 . S
C803 C807 1.393 . S
C804 H793 0.950 . S
C804 C802 1.391 . S
C804 C805 1.400 1_455 S
C805 C799 1.491 . S
C805 C804 1.400 1_655 S
C805 C806 1.398 1_655 S
C806 H794 0.950 1_455 S
C806 C805 1.398 1_455 S
C806 C807 1.391 . S
C807 H795 0.950 . S
C807 C803 1.393 . S
C807 C806 1.391 . S
H808 C816 0.950 . S
H809 C821 0.950 . S
H810 C818 0.950 1_565 S
H811 C820 0.950 . S
H812 C822 0.950 . S
H813 C824 0.950 . S
H814 C826 0.950 . S
H815 C827 0.950 . S
C816 H808 0.950 . S
C816 C817 1.386 . S
C816 C818 1.391 . S
C817 C816 1.386 . S
C817 C821 1.393 1_455 S
C818 H810 0.950 1_545 S
C818 C816 1.391 . S
C818 C819 1.400 1_445 S
C819 C818 1.400 1_665 S
C819 C820 1.398 1_565 S
C819 C825 1.491 . S
C820 H811 0.950 . S
C820 C819 1.398 1_545 S
C820 C821 1.391 . S
C821 H809 0.950 . S
C821 C817 1.393 1_655 S
C821 C820 1.391 . S
C822 H812 0.950 . S
C822 C823 1.386 . S
C822 C824 1.391 . S
C823 C822 1.386 . S
C823 C827 1.393 1_655 S
C824 H813 0.950 . S
C824 C822 1.391 . S
C824 C825 1.400 . S
C825 C819 1.491 . S
C825 C824 1.400 . S
C825 C826 1.398 1_655 S
C826 H814 0.950 . S
C826 C825 1.398 1_455 S
C826 C827 1.391 . S
C827 H815 0.950 . S
C827 C823 1.393 1_455 S
C827 C826 1.391 . S
H828 C836 0.950 . S
H829 C841 0.950 . S
H830 C838 0.950 . S
H831 C840 0.950 . S
H832 C842 0.950 . S
H833 C844 0.950 . S
H834 C846 0.950 . S
H835 C847 0.950 . S
C836 H828 0.950 . S
C836 C837 1.386 1_565 S
C836 C838 1.391 . S
C837 C836 1.386 1_545 S
C837 C841 1.393 . S
C838 H830 0.950 . S
C838 C836 1.391 . S
C838 C839 1.400 . S
C839 C838 1.400 . S
C839 C840 1.398 1_565 S
C839 C845 1.491 . S
C840 H831 0.950 . S
C840 C839 1.398 1_545 S
C840 C841 1.391 . S
C841 H829 0.950 . S
C841 C837 1.393 . S
C841 C840 1.391 . S
C842 H832 0.950 . S
C842 C843 1.386 1_545 S
C842 C844 1.391 . S
C843 C842 1.386 1_565 S
C843 C847 1.393 . S
C844 H833 0.950 . S
C844 C842 1.391 . S
C844 C845 1.400 1_545 S
C845 C839 1.491 . S
C845 C844 1.400 1_565 S
C845 C846 1.398 . S
C846 H834 0.950 . S
C846 C845 1.398 . S
C846 C847 1.391 . S
C847 H835 0.950 . S
C847 C843 1.393 . S
C847 C846 1.391 . S
H848 C856 0.950 . S
H849 C861 0.950 . S
H850 C858 0.950 . S
H851 C860 0.950 . S
H852 C862 0.950 . S
H853 C864 0.950 . S
H854 C866 0.950 1_545 S
H855 C867 0.950 . S
C856 H848 0.950 . S
C856 C857 1.386 . S
C856 C858 1.391 . S
C857 C856 1.386 . S
C857 C861 1.393 . S
C858 H850 0.950 . S
C858 C856 1.391 . S
C858 C859 1.400 . S
C859 C858 1.400 . S
C859 C860 1.398 . S
C859 C865 1.491 . S
C860 H851 0.950 . S
C860 C859 1.398 . S
C860 C861 1.391 . S
C861 H849 0.950 . S
C861 C857 1.393 . S
C861 C860 1.391 . S
C862 H852 0.950 . S
C862 C863 1.386 . S
C862 C864 1.391 . S
C863 C862 1.386 . S
C863 C867 1.393 . S
C864 H853 0.950 . S
C864 C862 1.391 . S
C864 C865 1.400 1_565 S
C865 C859 1.491 . S
C865 C864 1.400 1_545 S
C865 C866 1.398 1_545 S
C866 H854 0.950 1_565 S
C866 C865 1.398 1_565 S
C866 C867 1.391 . S
C867 H855 0.950 . S
C867 C863 1.393 . S
C867 C866 1.391 . S
H868 C876 0.950 . S
H869 C881 0.950 . S
H870 C878 0.950 . S
H871 C880 0.950 . S
H872 C882 0.950 . S
H873 C884 0.950 . S
H874 C886 0.950 . S
H875 C887 0.950 . S
C876 H868 0.950 . S
C876 C877 1.386 . S
C876 C878 1.391 . S
C877 C876 1.386 . S
C877 C881 1.393 . S
C878 H870 0.950 . S
C878 C876 1.391 . S
C878 C879 1.400 . S
C879 C878 1.400 . S
C879 C880 1.398 . S
C879 C885 1.491 . S
C880 H871 0.950 . S
C880 C879 1.398 . S
C880 C881 1.391 . S
C881 H869 0.950 . S
C881 C877 1.393 . S
C881 C880 1.391 . S
C882 H872 0.950 . S
C882 C883 1.386 . S
C882 C884 1.391 . S
C883 C882 1.386 . S
C883 C887 1.393 . S
C884 H873 0.950 . S
C884 C882 1.391 . S
C884 C885 1.400 . S
C885 C879 1.491 . S
C885 C884 1.400 . S
C885 C886 1.398 . S
C886 H874 0.950 . S
C886 C885 1.398 . S
C886 C887 1.391 . S
C887 H875 0.950 . S
C887 C883 1.393 . S
C887 C886 1.391 . S
H888 C896 0.950 . S
H889 C901 0.950 . S
H890 C898 0.950 . S
H891 C900 0.950 . S
H892 C902 0.950 . S
H893 C904 0.950 . S
H894 C906 0.950 . S
H895 C907 0.950 . S
C896 H888 0.950 . S
C896 C897 1.386 1_655 S
C896 C898 1.391 . S
C897 C896 1.386 1_455 S
C897 C901 1.393 . S
C898 H890 0.950 . S
C898 C896 1.391 . S
C898 C899 1.400 1_655 S
C899 C898 1.400 1_455 S
C899 C900 1.398 . S
C899 C905 1.491 . S
C900 H891 0.950 . S
C900 C899 1.398 . S
C900 C901 1.391 . S
C901 H889 0.950 . S
C901 C897 1.393 . S
C901 C900 1.391 . S
C902 H892 0.950 . S
C902 C903 1.386 1_455 S
C902 C904 1.391 . S
C903 C902 1.386 1_655 S
C903 C907 1.393 . S
C904 H893 0.950 . S
C904 C902 1.391 . S
C904 C905 1.400 . S
C905 C899 1.491 . S
C905 C904 1.400 . S
C905 C906 1.398 1_455 S
C906 H894 0.950 . S
C906 C905 1.398 1_655 S
C906 C907 1.391 . S
C907 H895 0.950 . S
C907 C903 1.393 . S
C907 C906 1.391 . S
H908 C916 0.950 . S
H909 C921 0.950 . S
H910 C918 0.942 1_455 S
H911 C920 0.950 1_455 S
H912 C922 0.950 . S
H913 C924 0.950 1_565 S
H914 C926 0.950 . S
H915 C927 0.950 . S
C916 H908 0.950 . S
C916 C917 1.386 1_545 S
C916 C918 1.391 . S
C917 C916 1.386 1_565 S
C917 C921 1.393 . S
C918 H910 0.942 1_655 S
C918 C916 1.391 . S
C918 C919 1.400 1_655 S
C919 C918 1.400 1_455 S
C919 C920 1.398 1_445 S
C919 C925 1.491 . S
C920 H911 0.950 1_655 S
C920 C919 1.398 1_665 S
C920 C921 1.391 . S
C921 H909 0.950 . S
C921 C917 1.393 . S
C921 C920 1.391 . S
C922 H912 0.950 . S
C922 C923 1.386 . S
C922 C924 1.391 . S
C923 C922 1.386 . S
C923 C927 1.393 . S
C924 H913 0.950 1_545 S
C924 C922 1.391 . S
C924 C925 1.400 . S
C925 C919 1.491 . S
C925 C924 1.400 . S
C925 C926 1.398 . S
C926 H914 0.950 . S
C926 C925 1.398 . S
C926 C927 1.391 . S
C927 H915 0.950 . S
C927 C923 1.393 . S
C927 C926 1.391 . S
H928 C936 0.950 . S
H929 C941 0.950 . S
H930 C938 0.950 . S
H931 C940 0.950 . S
H932 C942 0.950 . S
H933 C944 0.950 . S
H934 C946 0.950 . S
H935 C947 0.950 . S
C936 H928 0.950 . S
C936 C937 1.386 . S
C936 C938 1.391 . S
C937 C936 1.386 . S
C937 C941 1.393 . S
C938 H930 0.950 . S
C938 C936 1.391 . S
C938 C939 1.400 . S
C939 C938 1.400 . S
C939 C940 1.398 . S
C939 C945 1.491 . S
C940 H931 0.950 . S
C940 C939 1.398 . S
C940 C941 1.391 . S
C941 H929 0.950 . S
C941 C937 1.393 . S
C941 C940 1.391 . S
C942 H932 0.950 . S
C942 C943 1.386 . S
C942 C944 1.391 . S
C943 C942 1.386 . S
C943 C947 1.393 . S
C944 H933 0.950 . S
C944 C942 1.391 . S
C944 C945 1.400 . S
C945 C939 1.491 . S
C945 C944 1.400 . S
C945 C946 1.398 . S
C946 H934 0.950 . S
C946 C945 1.398 . S
C946 C947 1.391 . S
C947 H935 0.950 . S
C947 C943 1.393 . S
C947 C946 1.391 . S
H948 C956 0.950 . S
H949 C961 0.950 . S
H950 C958 0.950 . S
H951 C960 0.950 . S
H952 C962 0.950 . S
H953 C964 0.950 1_455 S
H954 C966 0.950 . S
H955 C967 0.950 . S
C956 H948 0.950 . S
C956 C957 1.386 . S
C956 C958 1.391 . S
C957 C956 1.386 . S
C957 C961 1.393 . S
C958 H950 0.950 . S
C958 C956 1.391 . S
C958 C959 1.400 . S
C959 C958 1.400 . S
C959 C960 1.398 . S
C959 C965 1.491 . S
C960 H951 0.950 . S
C960 C959 1.398 . S
C960 C961 1.391 . S
C961 H949 0.950 . S
C961 C957 1.393 . S
C961 C960 1.391 . S
C962 H952 0.950 . S
C962 C963 1.386 . S
C962 C964 1.391 . S
C963 C962 1.386 . S
C963 C967 1.393 . S
C964 H953 0.950 1_655 S
C964 C962 1.391 . S
C964 C965 1.400 1_655 S
C965 C959 1.491 . S
C965 C964 1.400 1_455 S
C965 C966 1.398 1_455 S
C966 H954 0.950 . S
C966 C965 1.398 1_655 S
C966 C967 1.391 . S
C967 H955 0.950 . S
C967 C963 1.393 . S
C967 C966 1.391 . S
H968 C976 0.950 . S
H969 C981 0.950 . S
H970 C978 0.950 1_545 S
H971 C980 0.950 . S
H972 C982 0.950 . S
H973 C984 0.950 . S
H974 C986 0.950 . S
H975 C987 0.950 1_655 S
C976 H968 0.950 . S
C976 C977 1.386 . S
C976 C978 1.391 . S
C977 C976 1.386 . S
C977 C981 1.393 1_655 S
C978 H970 0.950 1_565 S
C978 C976 1.391 . S
C978 C979 1.400 1_665 S
C979 C978 1.400 1_445 S
C979 C980 1.398 1_545 S
C979 C985 1.491 . S
C980 H971 0.950 . S
C980 C979 1.398 1_565 S
C980 C981 1.391 . S
C981 H969 0.950 . S
C981 C977 1.393 1_455 S
C981 C980 1.391 . S
C982 H972 0.950 . S
C982 C983 1.386 . S
C982 C984 1.391 . S
C983 C982 1.386 . S
C983 C987 1.393 . S
C984 H973 0.950 . S
C984 C982 1.391 . S
C984 C985 1.400 . S
C985 C979 1.491 . S
C985 C984 1.400 . S
C985 C986 1.398 1_455 S
C986 H974 0.950 . S
C986 C985 1.398 1_655 S
C986 C987 1.391 1_655 S
C987 H975 0.950 1_455 S
C987 C983 1.393 . S
C987 C986 1.391 1_455 S
H988 C996 0.950 . S
H989 C1001 0.950 . S
H990 C998 0.950 . S
H991 C1000 0.950 . S
H992 C1002 0.950 . S
H993 C1004 0.950 . S
H994 C1006 0.950 . S
H995 C1007 0.950 . S
C996 H988 0.950 . S
C996 C997 1.386 1_565 S
C996 C998 1.391 . S
C997 C996 1.386 1_545 S
C997 C1001 1.393 . S
C998 H990 0.950 . S
C998 C996 1.391 . S
C998 C999 1.400 1_565 S
C999 C998 1.400 1_545 S
C999 C1000 1.398 . S
C999 C1005 1.491 . S
C1000 H991 0.950 . S
C1000 C999 1.398 . S
C1000 C1001 1.391 . S
C1001 H989 0.950 . S
C1001 C997 1.393 . S
C1001 C1000 1.391 . S
C1002 H992 0.950 . S
C1002 C1003 1.386 1_545 S
C1002 C1004 1.391 . S
C1003 C1002 1.386 1_565 S
C1003 C1007 1.393 . S
C1004 H993 0.950 . S
C1004 C1002 1.391 . S
C1004 C1005 1.400 . S
C1005 C999 1.491 . S
C1005 C1004 1.400 . S
C1005 C1006 1.398 1_545 S
C1006 H994 0.950 . S
C1006 C1005 1.398 1_565 S
C1006 C1007 1.391 . S
C1007 H995 0.950 . S
C1007 C1003 1.393 . S
C1007 C1006 1.391 . S
H1008 C1016 0.950 . S
H1009 C1021 0.950 . S
H1010 C1018 0.950 . S
H1011 C1020 0.950 . S
H1012 C1022 0.950 . S
H1013 C1024 0.950 . S
H1014 C1026 0.950 . S
H1015 C1027 0.950 . S
C1016 H1008 0.950 . S
C1016 C1017 1.386 . S
C1016 C1018 1.391 . S
C1017 C1016 1.386 . S
C1017 C1021 1.393 . S
C1018 H1010 0.950 . S
C1018 C1016 1.391 . S
C1018 C1019 1.400 . S
C1019 C1018 1.400 . S
C1019 C1020 1.398 . S
C1019 C1025 1.491 . S
C1020 H1011 0.950 . S
C1020 C1019 1.398 . S
C1020 C1021 1.391 . S
C1021 H1009 0.950 . S
C1021 C1017 1.393 . S
C1021 C1020 1.391 . S
C1022 H1012 0.950 . S
C1022 C1023 1.386 . S
C1022 C1024 1.391 . S
C1023 C1022 1.386 . S
C1023 C1027 1.393 . S
C1024 H1013 0.950 . S
C1024 C1022 1.391 . S
C1024 C1025 1.400 . S
C1025 C1019 1.491 . S
C1025 C1024 1.400 . S
C1025 C1026 1.398 . S
C1026 H1014 0.950 . S
C1026 C1025 1.398 . S
C1026 C1027 1.391 . S
C1027 H1015 0.950 . S
C1027 C1023 1.393 . S
C1027 C1026 1.391 . S
H1028 C1036 0.950 . S
H1029 C1041 0.950 . S
H1030 C1038 0.950 . S
H1031 C1040 0.950 . S
H1032 C1042 0.950 . S
H1033 C1044 0.950 . S
H1034 C1046 0.950 . S
H1035 C1047 0.950 . S
C1036 H1028 0.950 . S
C1036 C1037 1.386 . S
C1036 C1038 1.391 . S
C1037 C1036 1.386 . S
C1037 C1041 1.393 . S
C1038 H1030 0.950 . S
C1038 C1036 1.391 . S
C1038 C1039 1.400 . S
C1039 C1038 1.400 . S
C1039 C1040 1.398 . S
C1039 C1045 1.491 . S
C1040 H1031 0.950 . S
C1040 C1039 1.398 . S
C1040 C1041 1.391 . S
C1041 H1029 0.950 . S
C1041 C1037 1.393 . S
C1041 C1040 1.391 . S
C1042 H1032 0.950 . S
C1042 C1043 1.386 . S
C1042 C1044 1.391 . S
C1043 C1042 1.386 . S
C1043 C1047 1.393 . S
C1044 H1033 0.950 . S
C1044 C1042 1.391 . S
C1044 C1045 1.400 . S
C1045 C1039 1.491 . S
C1045 C1044 1.400 . S
C1045 C1046 1.398 . S
C1046 H1034 0.950 . S
C1046 C1045 1.398 . S
C1046 C1047 1.391 . S
C1047 H1035 0.950 . S
C1047 C1043 1.393 . S
C1047 C1046 1.391 . S
H1048 C1056 0.950 . S
H1049 C1061 0.950 . S
H1050 C1058 0.950 . S
H1051 C1060 0.950 . S
H1052 C1062 0.950 . S
H1053 C1064 0.950 . S
H1054 C1066 0.950 . S
H1055 C1067 0.950 . S
C1056 H1048 0.950 . S
C1056 C1057 1.386 . S
C1056 C1058 1.391 . S
C1057 C1056 1.386 . S
C1057 C1061 1.393 . S
C1058 H1050 0.950 . S
C1058 C1056 1.391 . S
C1058 C1059 1.400 . S
C1059 C1058 1.400 . S
C1059 C1060 1.398 . S
C1059 C1065 1.491 . S
C1060 H1051 0.950 . S
C1060 C1059 1.398 . S
C1060 C1061 1.391 . S
C1061 H1049 0.950 . S
C1061 C1057 1.393 . S
C1061 C1060 1.391 . S
C1062 H1052 0.950 . S
C1062 C1063 1.386 . S
C1062 C1064 1.391 . S
C1063 C1062 1.386 . S
C1063 C1067 1.393 . S
C1064 H1053 0.950 . S
C1064 C1062 1.391 . S
C1064 C1065 1.400 . S
C1065 C1059 1.491 . S
C1065 C1064 1.400 . S
C1065 C1066 1.398 . S
C1066 H1054 0.950 . S
C1066 C1065 1.398 . S
C1066 C1067 1.391 . S
C1067 H1055 0.950 . S
C1067 C1063 1.393 . S
C1067 C1066 1.391 . S
H1068 C1076 0.950 . S
H1069 C1081 0.950 . S
H1070 C1078 0.950 . S
H1071 C1080 0.950 . S
H1072 C1082 0.950 . S
H1073 C1084 0.950 . S
H1074 C1086 0.950 . S
H1075 C1087 0.950 . S
C1076 H1068 0.950 . S
C1076 C1077 1.386 . S
C1076 C1078 1.391 . S
C1077 C1076 1.386 . S
C1077 C1081 1.393 . S
C1078 H1070 0.950 . S
C1078 C1076 1.391 . S
C1078 C1079 1.400 . S
C1079 C1078 1.400 . S
C1079 C1080 1.398 . S
C1079 C1085 1.491 . S
C1080 H1071 0.950 . S
C1080 C1079 1.398 . S
C1080 C1081 1.391 . S
C1081 H1069 0.950 . S
C1081 C1077 1.393 . S
C1081 C1080 1.391 . S
C1082 H1072 0.950 . S
C1082 C1083 1.386 . S
C1082 C1084 1.391 . S
C1083 C1082 1.386 . S
C1083 C1087 1.393 . S
C1084 H1073 0.950 . S
C1084 C1082 1.391 . S
C1084 C1085 1.400 . S
C1085 C1079 1.491 . S
C1085 C1084 1.400 . S
C1085 C1086 1.398 . S
C1086 H1074 0.950 . S
C1086 C1085 1.398 . S
C1086 C1087 1.391 . S
C1087 H1075 0.950 . S
C1087 C1083 1.393 . S
C1087 C1086 1.391 . S
H1088 C1096 0.950 . S
H1089 C1101 0.950 . S
H1090 C1098 0.950 . S
H1091 C1100 0.950 . S
H1092 C1102 0.950 . S
H1093 C1104 0.950 . S
H1094 C1106 0.950 . S
H1095 C1107 0.950 . S
C1096 H1088 0.950 . S
C1096 C1097 1.386 . S
C1096 C1098 1.391 . S
C1097 C1096 1.386 . S
C1097 C1101 1.393 . S
C1098 H1090 0.950 . S
C1098 C1096 1.391 . S
C1098 C1099 1.400 . S
C1099 C1098 1.400 . S
C1099 C1100 1.398 . S
C1099 C1105 1.491 . S
C1100 H1091 0.950 . S
C1100 C1099 1.398 . S
C1100 C1101 1.391 . S
C1101 H1089 0.950 . S
C1101 C1097 1.393 . S
C1101 C1100 1.391 . S
C1102 H1092 0.950 . S
C1102 C1103 1.386 . S
C1102 C1104 1.391 . S
C1103 C1102 1.386 . S
C1103 C1107 1.393 . S
C1104 H1093 0.950 . S
C1104 C1102 1.391 . S
C1104 C1105 1.400 . S
C1105 C1099 1.491 . S
C1105 C1104 1.400 . S
C1105 C1106 1.398 . S
C1106 H1094 0.950 . S
C1106 C1105 1.398 . S
C1106 C1107 1.391 . S
C1107 H1095 0.950 . S
C1107 C1103 1.393 . S
C1107 C1106 1.391 . S
H1108 C1116 0.950 . S
H1109 C1121 0.950 . S
H1110 C1118 0.950 . S
H1111 C1120 0.950 . S
H1112 C1122 0.950 . S
H1113 C1124 0.950 . S
H1114 C1126 0.950 . S
H1115 C1127 0.950 . S
C1116 H1108 0.950 . S
C1116 C1117 1.386 . S
C1116 C1118 1.391 . S
C1117 C1116 1.386 . S
C1117 C1121 1.393 . S
C1118 H1110 0.950 . S
C1118 C1116 1.391 . S
C1118 C1119 1.400 . S
C1119 C1118 1.400 . S
C1119 C1120 1.398 . S
C1119 C1125 1.491 . S
C1120 H1111 0.950 . S
C1120 C1119 1.398 . S
C1120 C1121 1.391 . S
C1121 H1109 0.950 . S
C1121 C1117 1.393 . S
C1121 C1120 1.391 . S
C1122 H1112 0.950 . S
C1122 C1123 1.386 . S
C1122 C1124 1.391 . S
C1123 C1122 1.386 . S
C1123 C1127 1.393 . S
C1124 H1113 0.950 . S
C1124 C1122 1.391 . S
C1124 C1125 1.400 . S
C1125 C1119 1.491 . S
C1125 C1124 1.400 . S
C1125 C1126 1.398 . S
C1126 H1114 0.950 . S
C1126 C1125 1.398 . S
C1126 C1127 1.391 . S
C1127 H1115 0.950 . S
C1127 C1123 1.393 . S
C1127 C1126 1.391 . S
H1128 C1136 0.950 . S
H1129 C1141 0.950 . S
H1130 C1138 0.950 . S
H1131 C1140 0.950 . S
H1132 C1142 0.950 . S
H1133 C1144 0.950 . S
H1134 C1146 0.950 . S
H1135 C1147 0.950 . S
C1136 H1128 0.950 . S
C1136 C1137 1.386 . S
C1136 C1138 1.391 . S
C1137 C1136 1.386 . S
C1137 C1141 1.393 . S
C1138 H1130 0.950 . S
C1138 C1136 1.391 . S
C1138 C1139 1.400 . S
C1139 C1138 1.400 . S
C1139 C1140 1.398 . S
C1139 C1145 1.491 . S
C1140 H1131 0.950 . S
C1140 C1139 1.398 . S
C1140 C1141 1.391 . S
C1141 H1129 0.950 . S
C1141 C1137 1.393 . S
C1141 C1140 1.391 . S
C1142 H1132 0.950 . S
C1142 C1143 1.386 . S
C1142 C1144 1.391 . S
C1143 C1142 1.386 . S
C1143 C1147 1.393 . S
C1144 H1133 0.950 . S
C1144 C1142 1.391 . S
C1144 C1145 1.400 . S
C1145 C1139 1.491 . S
C1145 C1144 1.400 . S
C1145 C1146 1.398 . S
C1146 H1134 0.950 . S
C1146 C1145 1.398 . S
C1146 C1147 1.391 . S
C1147 H1135 0.950 . S
C1147 C1143 1.393 . S
C1147 C1146 1.391 . S
H1148 C1156 0.950 . S
H1149 C1161 0.950 . S
H1150 C1158 0.950 . S
H1151 C1160 0.950 . S
H1152 C1162 0.950 . S
H1153 C1164 0.950 . S
H1154 C1166 0.950 . S
H1155 C1167 0.950 . S
C1156 H1148 0.950 . S
C1156 C1157 1.386 . S
C1156 C1158 1.391 . S
C1157 C1156 1.386 . S
C1157 C1161 1.393 . S
C1158 H1150 0.950 . S
C1158 C1156 1.391 . S
C1158 C1159 1.400 . S
C1159 C1158 1.400 . S
C1159 C1160 1.398 . S
C1159 C1165 1.491 . S
C1160 H1151 0.950 . S
C1160 C1159 1.398 . S
C1160 C1161 1.391 . S
C1161 H1149 0.950 . S
C1161 C1157 1.393 . S
C1161 C1160 1.391 . S
C1162 H1152 0.950 . S
C1162 C1163 1.386 . S
C1162 C1164 1.391 . S
C1163 C1162 1.386 . S
C1163 C1167 1.393 . S
C1164 H1153 0.950 . S
C1164 C1162 1.391 . S
C1164 C1165 1.400 . S
C1165 C1159 1.491 . S
C1165 C1164 1.400 . S
C1165 C1166 1.398 . S
C1166 H1154 0.950 . S
C1166 C1165 1.398 . S
C1166 C1167 1.391 . S
C1167 H1155 0.950 . S
C1167 C1163 1.393 . S
C1167 C1166 1.391 . S
H1168 C1176 0.950 . S
H1169 C1181 0.950 . S
H1170 C1178 0.950 . S
H1171 C1180 0.950 . S
H1172 C1182 0.950 . S
H1173 C1184 0.950 . S
H1174 C1186 0.950 . S
H1175 C1187 0.950 . S
C1176 H1168 0.950 . S
C1176 C1177 1.386 . S
C1176 C1178 1.391 . S
C1177 C1176 1.386 . S
C1177 C1181 1.393 . S
C1178 H1170 0.950 . S
C1178 C1176 1.391 . S
C1178 C1179 1.400 . S
C1179 C1178 1.400 . S
C1179 C1180 1.398 . S
C1179 C1185 1.491 . S
C1180 H1171 0.950 . S
C1180 C1179 1.398 . S
C1180 C1181 1.391 . S
C1181 H1169 0.950 . S
C1181 C1177 1.393 . S
C1181 C1180 1.391 . S
C1182 H1172 0.950 . S
C1182 C1183 1.386 . S
C1182 C1184 1.391 . S
C1183 C1182 1.386 . S
C1183 C1187 1.393 . S
C1184 H1173 0.950 . S
C1184 C1182 1.391 . S
C1184 C1185 1.400 . S
C1185 C1179 1.491 . S
C1185 C1184 1.400 . S
C1185 C1186 1.398 . S
C1186 H1174 0.950 . S
C1186 C1185 1.398 . S
C1186 C1187 1.391 . S
C1187 H1175 0.950 . S
C1187 C1183 1.393 . S
C1187 C1186 1.391 . S
H1188 C1196 0.950 . S
H1189 C1201 0.950 . S
H1190 C1198 0.950 . S
H1191 C1200 0.950 . S
H1192 C1202 0.950 . S
H1193 C1204 0.950 . S
H1194 C1206 0.950 . S
H1195 C1207 0.950 . S
C1196 H1188 0.950 . S
C1196 C1197 1.386 . S
C1196 C1198 1.391 . S
C1197 C1196 1.386 . S
C1197 C1201 1.393 . S
C1198 H1190 0.950 . S
C1198 C1196 1.391 . S
C1198 C1199 1.400 . S
C1199 C1198 1.400 . S
C1199 C1200 1.398 . S
C1199 C1205 1.491 . S
C1200 H1191 0.950 . S
C1200 C1199 1.398 . S
C1200 C1201 1.391 . S
C1201 H1189 0.950 . S
C1201 C1197 1.393 . S
C1201 C1200 1.391 . S
C1202 H1192 0.950 . S
C1202 C1203 1.386 . S
C1202 C1204 1.391 . S
C1203 C1202 1.386 . S
C1203 C1207 1.393 . S
C1204 H1193 0.950 . S
C1204 C1202 1.391 . S
C1204 C1205 1.400 . S
C1205 C1199 1.491 . S
C1205 C1204 1.400 . S
C1205 C1206 1.398 . S
C1206 H1194 0.950 . S
C1206 C1205 1.398 . S
C1206 C1207 1.391 . S
C1207 H1195 0.950 . S
C1207 C1203 1.393 . S
C1207 C1206 1.391 . S
H1208 C1216 0.950 . S
H1209 C1221 0.950 . S
H1210 C1218 0.950 . S
H1211 C1220 0.950 . S
H1212 C1222 0.950 . S
H1213 C1224 0.950 . S
H1214 C1226 0.950 . S
H1215 C1227 0.950 . S
C1216 H1208 0.950 . S
C1216 C1217 1.386 . S
C1216 C1218 1.391 . S
C1217 C1216 1.386 . S
C1217 C1221 1.393 . S
C1218 H1210 0.950 . S
C1218 C1216 1.391 . S
C1218 C1219 1.400 . S
C1219 C1218 1.400 . S
C1219 C1220 1.398 . S
C1219 C1225 1.491 . S
C1220 H1211 0.950 . S
C1220 C1219 1.398 . S
C1220 C1221 1.391 . S
C1221 H1209 0.950 . S
C1221 C1217 1.393 . S
C1221 C1220 1.391 . S
C1222 H1212 0.950 . S
C1222 C1223 1.386 . S
C1222 C1224 1.391 . S
C1223 C1222 1.386 . S
C1223 C1227 1.393 . S
C1224 H1213 0.950 . S
C1224 C1222 1.391 . S
C1224 C1225 1.400 . S
C1225 C1219 1.491 . S
C1225 C1224 1.400 . S
C1225 C1226 1.398 . S
C1226 H1214 0.950 . S
C1226 C1225 1.398 . S
C1226 C1227 1.391 . S
C1227 H1215 0.950 . S
C1227 C1223 1.393 . S
C1227 C1226 1.391 . S
H1228 C1236 0.950 . S
H1229 C1241 0.950 . S
H1230 C1238 0.950 . S
H1231 C1240 0.950 . S
H1232 C1242 0.950 . S
H1233 C1244 0.950 . S
H1234 C1246 0.950 . S
H1235 C1247 0.950 . S
C1236 H1228 0.950 . S
C1236 C1237 1.386 . S
C1236 C1238 1.391 . S
C1237 C1236 1.386 . S
C1237 C1241 1.393 . S
C1238 H1230 0.950 . S
C1238 C1236 1.391 . S
C1238 C1239 1.400 . S
C1239 C1238 1.400 . S
C1239 C1240 1.398 . S
C1239 C1245 1.491 . S
C1240 H1231 0.950 . S
C1240 C1239 1.398 . S
C1240 C1241 1.391 . S
C1241 H1229 0.950 . S
C1241 C1237 1.393 . S
C1241 C1240 1.391 . S
C1242 H1232 0.950 . S
C1242 C1243 1.386 . S
C1242 C1244 1.391 . S
C1243 C1242 1.386 . S
C1243 C1247 1.393 . S
C1244 H1233 0.950 . S
C1244 C1242 1.391 . S
C1244 C1245 1.400 . S
C1245 C1239 1.491 . S
C1245 C1244 1.400 . S
C1245 C1246 1.398 . S
C1246 H1234 0.950 . S
C1246 C1245 1.398 . S
C1246 C1247 1.391 . S
C1247 H1235 0.950 . S
C1247 C1243 1.393 . S
C1247 C1246 1.391 . S
H1248 C1256 0.950 . S
H1249 C1261 0.950 . S
H1250 C1258 0.950 . S
H1251 C1260 0.950 . S
H1252 C1262 0.950 . S
H1253 C1264 0.950 . S
H1254 C1266 0.950 . S
H1255 C1267 0.950 . S
C1256 H1248 0.950 . S
C1256 C1257 1.386 . S
C1256 C1258 1.391 . S
C1257 C1256 1.386 . S
C1257 C1261 1.393 . S
C1258 H1250 0.950 . S
C1258 C1256 1.391 . S
C1258 C1259 1.400 . S
C1259 C1258 1.400 . S
C1259 C1260 1.398 . S
C1259 C1265 1.491 . S
C1260 H1251 0.950 . S
C1260 C1259 1.398 . S
C1260 C1261 1.391 . S
C1261 H1249 0.950 . S
C1261 C1257 1.393 . S
C1261 C1260 1.391 . S
C1262 H1252 0.950 . S
C1262 C1263 1.386 . S
C1262 C1264 1.391 . S
C1263 C1262 1.386 . S
C1263 C1267 1.393 . S
C1264 H1253 0.950 . S
C1264 C1262 1.391 . S
C1264 C1265 1.400 . S
C1265 C1259 1.491 . S
C1265 C1264 1.400 . S
C1265 C1266 1.398 . S
C1266 H1254 0.950 . S
C1266 C1265 1.398 . S
C1266 C1267 1.391 . S
C1267 H1255 0.950 . S
C1267 C1263 1.393 . S
C1267 C1266 1.391 . S
H1268 C1276 0.950 . S
H1269 C1281 0.950 . S
H1270 C1278 0.950 . S
H1271 C1280 0.950 . S
H1272 C1282 0.950 . S
H1273 C1284 0.950 . S
H1274 C1286 0.950 . S
H1275 C1287 0.950 . S
C1276 H1268 0.950 . S
C1276 C1277 1.386 . S
C1276 C1278 1.391 . S
C1277 C1276 1.386 . S
C1277 C1281 1.393 . S
C1278 H1270 0.950 . S
C1278 C1276 1.391 . S
C1278 C1279 1.400 . S
C1279 C1278 1.400 . S
C1279 C1280 1.398 . S
C1279 C1285 1.491 . S
C1280 H1271 0.950 . S
C1280 C1279 1.398 . S
C1280 C1281 1.391 . S
C1281 H1269 0.950 . S
C1281 C1277 1.393 . S
C1281 C1280 1.391 . S
C1282 H1272 0.950 . S
C1282 C1283 1.386 . S
C1282 C1284 1.391 . S
C1283 C1282 1.386 . S
C1283 C1287 1.393 . S
C1284 H1273 0.950 . S
C1284 C1282 1.391 . S
C1284 C1285 1.400 . S
C1285 C1279 1.491 . S
C1285 C1284 1.400 . S
C1285 C1286 1.398 . S
C1286 H1274 0.950 . S
C1286 C1285 1.398 . S
C1286 C1287 1.391 . S
C1287 H1275 0.950 . S
C1287 C1283 1.393 . S
C1287 C1286 1.391 . S
H1288 C1296 0.950 . S
H1289 C1301 0.950 . S
H1290 C1298 0.950 . S
H1291 C1300 0.950 . S
H1292 C1302 0.950 . S
H1293 C1304 0.950 . S
H1294 C1306 0.950 . S
H1295 C1307 0.950 . S
C1296 H1288 0.950 . S
C1296 C1297 1.386 . S
C1296 C1298 1.391 . S
C1297 C1296 1.386 . S
C1297 C1301 1.393 . S
C1298 H1290 0.950 . S
C1298 C1296 1.391 . S
C1298 C1299 1.400 . S
C1299 C1298 1.400 . S
C1299 C1300 1.398 . S
C1299 C1305 1.491 . S
C1300 H1291 0.950 . S
C1300 C1299 1.398 . S
C1300 C1301 1.391 . S
C1301 H1289 0.950 . S
C1301 C1297 1.393 . S
C1301 C1300 1.391 . S
C1302 H1292 0.950 . S
C1302 C1303 1.386 . S
C1302 C1304 1.391 . S
C1303 C1302 1.386 . S
C1303 C1307 1.393 . S
C1304 H1293 0.950 . S
C1304 C1302 1.391 . S
C1304 C1305 1.400 . S
C1305 C1299 1.491 . S
C1305 C1304 1.400 . S
C1305 C1306 1.398 . S
C1306 H1294 0.950 . S
C1306 C1305 1.398 . S
C1306 C1307 1.391 . S
C1307 H1295 0.950 . S
C1307 C1303 1.393 . S
C1307 C1306 1.391 . S
H1308 C1316 0.950 . S
H1309 C1321 0.950 . S
H1310 C1318 0.950 . S
H1311 C1320 0.950 . S
H1312 C1322 0.950 . S
H1313 C1324 0.950 . S
H1314 C1326 0.950 . S
H1315 C1327 0.950 . S
C1316 H1308 0.950 . S
C1316 C1317 1.386 . S
C1316 C1318 1.391 . S
C1317 C1316 1.386 . S
C1317 C1321 1.393 . S
C1318 H1310 0.950 . S
C1318 C1316 1.391 . S
C1318 C1319 1.400 . S
C1319 C1318 1.400 . S
C1319 C1320 1.398 . S
C1319 C1325 1.491 . S
C1320 H1311 0.950 . S
C1320 C1319 1.398 . S
C1320 C1321 1.391 . S
C1321 H1309 0.950 . S
C1321 C1317 1.393 . S
C1321 C1320 1.391 . S
C1322 H1312 0.950 . S
C1322 C1323 1.386 . S
C1322 C1324 1.391 . S
C1323 C1322 1.386 . S
C1323 C1327 1.393 . S
C1324 H1313 0.950 . S
C1324 C1322 1.391 . S
C1324 C1325 1.400 . S
C1325 C1319 1.491 . S
C1325 C1324 1.400 . S
C1325 C1326 1.398 . S
C1326 H1314 0.950 . S
C1326 C1325 1.398 . S
C1326 C1327 1.391 . S
C1327 H1315 0.950 . S
C1327 C1323 1.393 . S
C1327 C1326 1.391 . S
C537 C7 1.454 . S
C543 C139 1.445 . S
C557 C172 1.446 . S
C563 C40 1.446 . S
C577 C205 1.439 . S
C583 C73 1.456 . S
C597 C238 1.454 . S
C603 C106 1.445 . S
C617 C271 1.453 . S
C623 C403 1.446 . S
C637 C304 1.442 . S
C643 C436 1.456 . S
C657 C469 1.439 . S
C663 C337 1.455 . S
C677 C370 1.442 . S
C683 C502 1.456 . S
C697 N398 1.267 . S
C703 N13 1.260 . S
C717 N431 1.275 . S
C723 N46 1.264 . S
C737 N79 1.279 . S
C743 N464 1.282 . S
C757 N497 1.267 . S
C763 N112 1.260 . S
C777 N266 1.278 . S
C783 N145 1.268 . S
C797 N299 1.267 . S
C803 N178 1.260 . S
C817 N211 1.259 . S
C823 N332 1.267 . S
C837 N244 1.279 . S
C843 N365 1.283 . S
C857 N134 1.281 . S
C863 N277 1.279 . S
C877 N167 1.267 . S
C883 N310 1.261 . S
C897 N200 1.282 . S
C903 N343 1.275 . S
C917 N376 1.273 . S
C923 N233 1.274 . S
C937 N2 1.280 . S
C943 N409 1.278 . S
C957 N35 1.270 . S
C963 N442 1.266 . S
C977 N475 1.267 . S
C983 N68 1.278 . S
C997 N101 1.283 . S
C1003 N508 1.279 . S
C1017 C87 1.322 . S
C1023 C21 1.320 . S
C1037 C54 1.320 . S
C1043 C120 1.322 . S
C1057 C219 1.323 . S
C1063 C153 1.319 . S
C1077 C252 1.326 . S
C1083 C186 1.318 . S
C1097 C351 1.325 . S
C1103 C285 1.319 . S
C1117 C384 1.322 . S
C1123 C318 1.321 . S
C1137 C417 1.316 . S
C1143 C483 1.327 . S
C1157 C516 1.321 . S
C1163 C450 1.322 . S
C1177 C249 1.220 . S
C1183 C18 1.235 . S
C1197 C150 1.221 . S
C1203 C51 1.238 . S
C1217 C183 1.221 . S
C1223 C84 1.238 . S
C1237 C216 1.239 . S
C1243 C117 1.236 . S
C1257 C513 1.221 . S
C1263 C282 1.239 . S
C1277 C414 1.238 . S
C1283 C315 1.221 . S
C1297 C447 1.239 . S
C1303 C348 1.237 . S
C1317 C480 1.233 . S
C1323 C381 1.221 . S
