# Generated by pormake.
# Topology und, (4)-cn, num edge types: 1
# Building blocks:
#     Node 0, Type 0, BuildingBlock: CEKHIL_clean_sbu_0, # of connection points: 4
#     Node 1, Type 0, BuildingBlock: CEKHIL_clean_sbu_0, # of connection points: 4
#     Node 2, Type 0, BuildingBlock: CEKHIL_clean_sbu_0, # of connection points: 4
#     Node 3, Type 0, BuildingBlock: CEKHIL_clean_sbu_0, # of connection points: 4
#     Node 4, Type 0, BuildingBlock: CEKHIL_clean_sbu_0, # of connection points: 4
#     Node 5, Type 0, BuildingBlock: CEKHIL_clean_sbu_0, # of connection points: 4
#     Node 6, Type 0, BuildingBlock: CEKHIL_clean_sbu_0, # of connection points: 4
#     Node 7, Type 0, BuildingBlock: CEKHIL_clean_sbu_0, # of connection points: 4
#     Node 8, Type 0, BuildingBlock: CEKHIL_clean_sbu_0, # of connection points: 4
#     Node 9, Type 0, BuildingBlock: CEKHIL_clean_sbu_0, # of connection points: 4
#     Node 10, Type 0, BuildingBlock: CEKHIL_clean_sbu_0, # of connection points: 4
#     Node 11, Type 0, BuildingBlock: CEKHIL_clean_sbu_0, # of connection points: 4
#     Node 12, Type 0, BuildingBlock: CEKHIL_clean_sbu_0, # of connection points: 4
#     Node 13, Type 0, BuildingBlock: CEKHIL_clean_sbu_0, # of connection points: 4
#     Node 14, Type 0, BuildingBlock: CEKHIL_clean_sbu_0, # of connection points: 4
#     Node 15, Type 0, BuildingBlock: CEKHIL_clean_sbu_0, # of connection points: 4
#     Edge 16, Type (0, 0), BuildingBlock: KIFKEQ_clean_linker_1, # of connection points: 2
#     Edge 17, Type (0, 0), BuildingBlock: KIFKEQ_clean_linker_1, # of connection points: 2
#     Edge 18, Type (0, 0), BuildingBlock: KIFKEQ_clean_linker_1, # of connection points: 2
#     Edge 19, Type (0, 0), BuildingBlock: KIFKEQ_clean_linker_1, # of connection points: 2
#     Edge 20, Type (0, 0), BuildingBlock: KIFKEQ_clean_linker_1, # of connection points: 2
#     Edge 21, Type (0, 0), BuildingBlock: KIFKEQ_clean_linker_1, # of connection points: 2
#     Edge 22, Type (0, 0), BuildingBlock: KIFKEQ_clean_linker_1, # of connection points: 2
#     Edge 23, Type (0, 0), BuildingBlock: KIFKEQ_clean_linker_1, # of connection points: 2
#     Edge 24, Type (0, 0), BuildingBlock: KIFKEQ_clean_linker_1, # of connection points: 2
#     Edge 25, Type (0, 0), BuildingBlock: KIFKEQ_clean_linker_1, # of connection points: 2
#     Edge 26, Type (0, 0), BuildingBlock: KIFKEQ_clean_linker_1, # of connection points: 2
#     Edge 27, Type (0, 0), BuildingBlock: KIFKEQ_clean_linker_1, # of connection points: 2
#     Edge 28, Type (0, 0), BuildingBlock: KIFKEQ_clean_linker_1, # of connection points: 2
#     Edge 29, Type (0, 0), BuildingBlock: KIFKEQ_clean_linker_1, # of connection points: 2
#     Edge 30, Type (0, 0), BuildingBlock: KIFKEQ_clean_linker_1, # of connection points: 2
#     Edge 31, Type (0, 0), BuildingBlock: KIFKEQ_clean_linker_1, # of connection points: 2
#     Edge 32, Type (0, 0), BuildingBlock: KIFKEQ_clean_linker_1, # of connection points: 2
#     Edge 33, Type (0, 0), BuildingBlock: KIFKEQ_clean_linker_1, # of connection points: 2
#     Edge 34, Type (0, 0), BuildingBlock: KIFKEQ_clean_linker_1, # of connection points: 2
#     Edge 35, Type (0, 0), BuildingBlock: KIFKEQ_clean_linker_1, # of connection points: 2
#     Edge 36, Type (0, 0), BuildingBlock: KIFKEQ_clean_linker_1, # of connection points: 2
#     Edge 37, Type (0, 0), BuildingBlock: KIFKEQ_clean_linker_1, # of connection points: 2
#     Edge 38, Type (0, 0), BuildingBlock: KIFKEQ_clean_linker_1, # of connection points: 2
#     Edge 39, Type (0, 0), BuildingBlock: KIFKEQ_clean_linker_1, # of connection points: 2
#     Edge 40, Type (0, 0), BuildingBlock: KIFKEQ_clean_linker_1, # of connection points: 2
#     Edge 41, Type (0, 0), BuildingBlock: KIFKEQ_clean_linker_1, # of connection points: 2
#     Edge 42, Type (0, 0), BuildingBlock: KIFKEQ_clean_linker_1, # of connection points: 2
#     Edge 43, Type (0, 0), BuildingBlock: KIFKEQ_clean_linker_1, # of connection points: 2
#     Edge 44, Type (0, 0), BuildingBlock: KIFKEQ_clean_linker_1, # of connection points: 2
#     Edge 45, Type (0, 0), BuildingBlock: KIFKEQ_clean_linker_1, # of connection points: 2
#     Edge 46, Type (0, 0), BuildingBlock: KIFKEQ_clean_linker_1, # of connection points: 2
#     Edge 47, Type (0, 0), BuildingBlock: KIFKEQ_clean_linker_1, # of connection points: 2
# Relax obj value: 0.006
# Max RMSD: 0.041
# Mean RMSD: 0.041
data_MOF--net-und--node1-CEKHIL_clean_sbu_0--edge1-KIFKEQ_clean_linker_1
_symmetry_space_group_name_H-M    P1
_symmetry_Int_Tables_number       1
_symmetry_cell_setting            triclinic
loop_
_symmetry_equiv_pos_as_xyz
'x, y, z'
_cell_length_a     60.328033
_cell_length_b     60.329843
_cell_length_c     22.217398
_cell_angle_alpha  89.999261
_cell_angle_beta   90.006236
_cell_angle_gamma 93.31157
loop_
_atom_site_label
_atom_site_type_symbol
_atom_site_fract_x
_atom_site_fract_y
_atom_site_fract_z
_atom_type_partial_charge
Co0 Co 0.24612 0.35462 0.0448 0.0
O1 O 0.23776 0.37651 0.10173 0.0
O2 O 0.22057 0.36989 0.01513 0.0
C3 C 0.24884 0.32749 0.11362 0.0
O4 O 0.25071 0.33243 0.97621 0.0
Co5 Co 0.29283 0.33611 0.05981 0.0
O6 O 0.28228 0.31542 0.99524 0.0
C7 C 0.28867 0.38116 0.01228 0.0
C8 C 0.22192 0.38104 0.06543 0.0
C9 C 0.26489 0.3178 0.96372 0.0
O10 O 0.2676 0.37722 1.00601 0.0
O11 O 0.30125 0.36786 0.03886 0.0
O12 O 0.22975 0.33128 0.09003 0.0
O13 O 0.26506 0.34127 0.09874 0.0
Co14 Co 0.92161 0.02883 0.26009 0.0
O15 O 0.8995 0.0349 0.20109 0.0
O16 O 0.90365 0.05276 0.28744 0.0
C17 C 0.94939 0.02855 0.19234 0.0
O18 O 0.94372 0.02714 0.33056 0.0
Co19 Co 0.94693 0.98542 0.25047 0.0
O20 O 0.96754 1.00101 0.30755 0.0
C21 C 0.90157 0.98418 0.30292 0.0
C22 C 0.89351 0.05071 0.23573 0.0
C23 C 0.96161 0.01687 0.34061 0.0
O24 O 0.90086 0.00543 0.29884 0.0
O25 O 0.91772 0.97339 0.28304 0.0
O26 O 0.94348 0.04716 0.21478 0.0
O27 O 0.9375 0.01108 0.20831 0.0
Co28 Co 0.25663 0.68308 0.54744 0.0
O29 O 0.26393 0.66076 0.60459 0.0
O30 O 0.28103 0.66633 0.5174 0.0
C31 C 0.25584 0.71037 0.61646 0.0
O32 O 0.25348 0.70534 0.47818 0.0
Co33 Co 0.2123 0.70642 0.56096 0.0
O34 O 0.22579 0.7274 0.501 0.0
C35 C 0.21222 0.6606 0.51241 0.0
C36 C 0.27946 0.65547 0.5681 0.0
C37 C 0.242 0.72241 0.46784 0.0
O38 O 0.23359 0.66171 0.5098 0.0
O39 O 0.20108 0.67588 0.53579 0.0
O40 O 0.27451 0.70549 0.59225 0.0
O41 O 0.23872 0.69783 0.60126 0.0
Co42 Co 0.58979 0.01448 0.74903 0.0
O43 O 0.61012 0.00544 0.68886 0.0
O44 O 0.60502 0.9885 0.77619 0.0
C45 C 0.56159 0.01807 0.68402 0.0
O46 O 0.56893 0.01963 0.82033 0.0
Co47 Co 0.57264 0.06186 0.73705 0.0
O48 O 0.55194 0.05122 0.80148 0.0
C49 C 0.6179 0.05626 0.78135 0.0
C50 C 0.61493 0.98935 0.72395 0.0
C51 C 0.55441 0.03389 0.83316 0.0
O52 O 0.61361 0.03518 0.7854 0.0
O53 O 0.6046 0.06951 0.75745 0.0
O54 O 0.56526 0.99882 0.70685 0.0
O55 O 0.57608 0.0339 0.69713 0.0
Co56 Co 0.76077 0.68447 1.00698 0.0
O57 O 0.76815 0.66327 0.94695 0.0
O58 O 0.78549 0.66744 0.03406 0.0
C59 C 0.75936 0.71282 0.94151 0.0
O60 O 0.75752 0.70583 0.07825 0.0
Co61 Co 0.71535 0.70594 0.99693 0.0
O62 O 0.72873 0.7268 0.05753 0.0
C63 C 0.71711 0.65999 0.04109 0.0
C64 C 0.784 0.65757 0.98185 0.0
C65 C 0.74542 0.72236 0.08964 0.0
O66 O 0.73842 0.66231 0.04385 0.0
O67 O 0.70502 0.67465 0.01844 0.0
O68 O 0.77819 0.70755 0.96402 0.0
O69 O 0.7424 0.69979 0.95545 0.0
Co70 Co 0.09178 0.01374 0.80009 0.0
O71 O 0.11384 0.00533 0.8565 0.0
O72 O 0.1068 0.98805 0.77027 0.0
C73 C 0.06493 0.01673 0.86946 0.0
O74 O 0.06934 0.01838 0.73214 0.0
Co75 Co 0.0735 0.0606 0.81524 0.0
O76 O 0.05215 0.04973 0.75258 0.0
C77 C 0.11831 0.05612 0.76617 0.0
C78 C 0.11814 0.9894 0.82026 0.0
C79 C 0.05444 0.03241 0.72072 0.0
O80 O 0.11431 0.03504 0.76046 0.0
O81 O 0.10516 0.06882 0.79288 0.0
O82 O 0.06856 0.99756 0.8461 0.0
O83 O 0.07874 0.03285 0.85412 0.0
Co84 Co 0.74284 0.35409 0.50702 0.0
O85 O 0.73518 0.37531 0.44742 0.0
O86 O 0.71778 0.37065 0.53427 0.0
C87 C 0.74478 0.32603 0.44086 0.0
O88 O 0.74647 0.33256 0.57777 0.0
Co89 Co 0.78881 0.33375 0.49602 0.0
O90 O 0.77605 0.31267 0.55693 0.0
C91 C 0.78603 0.37945 0.54082 0.0
C92 C 0.71922 0.38069 0.48228 0.0
C93 C 0.75914 0.31645 0.58899 0.0
O94 O 0.76478 0.37652 0.5444 0.0
O95 O 0.79842 0.36524 0.51728 0.0
O96 O 0.72583 0.33085 0.46347 0.0
O97 O 0.76149 0.33933 0.45514 0.0
Co98 Co 0.41973 0.02878 0.28874 0.0
O99 O 0.39642 0.03442 0.34462 0.0
O100 O 0.4022 0.05263 0.25915 0.0
C101 C 0.44639 0.02868 0.35976 0.0
O102 O 0.44297 0.02743 0.22098 0.0
Co103 Co 0.44538 0.98568 0.30097 0.0
O104 O 0.46652 1.00119 0.24514 0.0
C105 C 0.40074 0.98401 0.2442 0.0
C106 C 0.39094 0.05015 0.30899 0.0
C107 C 0.46092 0.01715 0.21195 0.0
O108 O 0.39985 0.00525 0.24767 0.0
O109 O 0.4167 0.97334 0.26573 0.0
O110 O 0.44063 0.04724 0.3367 0.0
O111 O 0.43497 0.0111 0.34238 0.0
Co112 Co 0.74836 0.85523 0.54707 0.0
O113 O 0.74077 0.87735 0.6043 0.0
O114 O 0.72341 0.87151 0.51784 0.0
C115 C 0.74993 0.82826 0.61692 0.0
O116 O 0.75175 0.83269 0.4783 0.0
Co117 Co 0.79348 0.83325 0.56132 0.0
O118 O 0.78071 0.81221 0.50081 0.0
C119 C 0.79199 0.87737 0.5031 0.0
C120 C 0.72479 0.88222 0.56884 0.0
C121 C 0.76419 0.81633 0.46769 0.0
O122 O 0.77068 0.87696 0.50752 0.0
O123 O 0.80383 0.86225 0.52428 0.0
O124 O 0.73111 0.83265 0.5928 0.0
O125 O 0.76676 0.84112 0.60124 0.0
Co126 Co 0.41643 0.52923 0.75816 0.0
O127 O 0.39395 0.53586 0.70087 0.0
O128 O 0.3995 0.55371 0.78697 0.0
C129 C 0.44383 0.5281 0.68966 0.0
O130 O 0.43891 0.52656 0.82703 0.0
Co131 Co 0.43845 0.48413 0.74615 0.0
O132 O 0.45951 0.49749 0.80629 0.0
C133 C 0.3929 0.48533 0.79339 0.0
C134 C 0.38849 0.55155 0.7366 0.0
C135 C 0.45541 0.51438 0.83804 0.0
O136 O 0.39523 0.5066 0.7976 0.0
O137 O 0.40733 0.47351 0.76859 0.0
O138 O 0.43853 0.5469 0.71226 0.0
O139 O 0.43128 0.511 0.70526 0.0
Co140 Co 0.76143 0.18451 0.04741 0.0
O141 O 0.77 0.16386 0.10726 0.0
O142 O 0.78741 0.1691 0.0207 0.0
C143 C 0.75786 0.2124 0.11339 0.0
O144 O 0.75667 0.20572 0.97655 0.0
Co145 Co 0.71414 0.20191 0.05915 0.0
O146 O 0.72486 0.22247 0.99452 0.0
C147 C 0.71956 0.15673 0.0142 0.0
C148 C 0.78621 0.159 0.07266 0.0
C149 C 0.74234 0.22014 0.96335 0.0
O150 O 0.74065 0.16098 0.00995 0.0
O151 O 0.70639 0.16999 0.03861 0.0
O152 O 0.77714 0.20875 0.09074 0.0
O153 O 0.74198 0.19811 0.09932 0.0
Co154 Co 0.08716 0.50944 0.25608 0.0
O155 O 0.10963 0.5028 0.19869 0.0
O156 O 0.10457 0.48543 0.28566 0.0
C157 C 0.05968 0.5096 0.1875 0.0
O158 O 0.06473 0.51203 0.32534 0.0
Co159 Co 0.06324 0.55353 0.24224 0.0
O160 O 0.04262 0.53972 0.30253 0.0
C161 C 0.10923 0.55424 0.28912 0.0
C162 C 0.11531 0.48733 0.23483 0.0
C163 C 0.04759 0.52345 0.33554 0.0
O164 O 0.10806 0.53291 0.29373 0.0
O165 O 0.09393 0.56511 0.26485 0.0
O166 O 0.06526 0.49104 0.21103 0.0
O167 O 0.07183 0.52698 0.20268 0.0
Co168 Co 0.26354 0.18472 0.50553 0.0
O169 O 0.27036 0.16245 0.44787 0.0
O170 O 0.28841 0.16818 0.53361 0.0
C171 C 0.2617 0.21217 0.43739 0.0
O172 O 0.26067 0.20703 0.57474 0.0
Co173 Co 0.21793 0.20588 0.49471 0.0
O174 O 0.23106 0.22703 0.555 0.0
C175 C 0.22016 0.1604 0.54161 0.0
C176 C 0.28624 0.15718 0.48324 0.0
C177 C 0.24815 0.22322 0.58633 0.0
O178 O 0.24142 0.16313 0.5453 0.0
O179 O 0.20796 0.17458 0.51719 0.0
O180 O 0.28069 0.20717 0.45944 0.0
O181 O 0.24486 0.1993 0.45325 0.0
Co182 Co 0.58659 0.51449 0.29764 0.0
O183 O 0.60734 0.50588 0.35729 0.0
O184 O 0.60213 0.48873 0.27029 0.0
C185 C 0.5586 0.51757 0.3637 0.0
O186 O 0.56536 0.51912 0.22684 0.0
Co187 Co 0.5685 0.56142 0.30978 0.0
O188 O 0.54808 0.5506 0.2449 0.0
C189 C 0.61384 0.55675 0.26503 0.0
C190 C 0.61219 0.48976 0.32231 0.0
C191 C 0.55072 0.53321 0.21362 0.0
O192 O 0.60992 0.53562 0.2605 0.0
O193 O 0.60035 0.56966 0.28955 0.0
O194 O 0.56249 0.49842 0.34062 0.0
O195 O 0.57272 0.53366 0.34997 0.0
Co196 Co 0.24687 0.85427 1.00781 0.0
O197 O 0.24042 0.87727 0.95179 0.0
O198 O 0.22256 0.87124 0.03763 0.0
C199 C 0.24746 0.82746 0.93724 0.0
O200 O 0.24922 0.83116 0.07574 0.0
Co201 Co 0.29113 0.83049 0.99322 0.0
O202 O 0.27761 0.80987 0.05356 0.0
C203 C 0.29128 0.87474 0.05142 0.0
C204 C 0.22466 0.88248 0.98763 0.0
C205 C 0.26118 0.81444 0.08646 0.0
O206 O 0.26997 0.87487 0.0483 0.0
O207 O 0.30253 0.85935 0.02922 0.0
O208 O 0.22881 0.83278 0.96062 0.0
O209 O 0.26477 0.8395 0.95366 0.0
Co210 Co 0.91702 0.52419 0.79632 0.0
O211 O 0.89638 0.53288 0.85619 0.0
O212 O 0.90161 0.55011 0.76932 0.0
C213 C 0.945 0.52074 0.86209 0.0
O214 O 0.93817 0.51945 0.72536 0.0
Co215 Co 0.93476 0.47704 0.80796 0.0
O216 O 0.95536 0.48793 0.74357 0.0
C217 C 0.88937 0.48219 0.76409 0.0
C218 C 0.89156 0.54904 0.82135 0.0
C219 C 0.95281 0.50533 0.71229 0.0
O220 O 0.89349 0.50328 0.75927 0.0
O221 O 0.90278 0.46916 0.78845 0.0
O222 O 0.94127 0.53999 0.83938 0.0
O223 O 0.93074 0.50481 0.84822 0.0
H224 H 0.22014 0.29212 0.13797 0.0
H225 H 0.28302 0.32377 0.19198 0.0
H226 H 0.22344 0.26428 0.21649 0.0
H227 H 0.28587 0.29679 0.2725 0.0
H228 H 0.29522 0.23277 0.37341 0.0
H229 H 0.29235 0.25988 0.29337 0.0
H230 H 0.22133 0.25931 0.32128 0.0
H231 H 0.22421 0.23119 0.39934 0.0
C232 C 0.23464 0.29312 0.16683 0.0
C233 C 0.25135 0.31001 0.15891 0.0
C234 C 0.23645 0.27732 0.21225 0.0
C235 C 0.25486 0.27832 0.25129 0.0
C236 C 0.27163 0.29523 0.24281 0.0
C237 C 0.26998 0.31078 0.19678 0.0
C238 C 0.27902 0.23854 0.36259 0.0
C239 C 0.25993 0.22989 0.39242 0.0
C240 C 0.27736 0.25418 0.31684 0.0
C241 C 0.25659 0.26182 0.30058 0.0
C242 C 0.23754 0.25348 0.33162 0.0
C243 C 0.23918 0.23753 0.37676 0.0
H244 H 0.94911 0.03555 0.44762 0.0
H245 H 0.00504 0.00869 0.35763 0.0
H246 H 0.9706 0.03836 0.54098 0.0
H247 H 0.02663 0.01204 0.44973 0.0
H248 H 0.0527 0.99853 0.63682 0.0
H249 H 0.0298 0.99546 0.54613 0.0
H250 H 1.00087 0.05723 0.59068 0.0
H251 H 0.02297 0.05991 0.68155 0.0
C252 C 0.96611 0.03068 0.44742 0.0
C253 C 0.97529 0.02183 0.39517 0.0
C254 C 0.97846 0.03221 0.50101 0.0
C255 C 1.00034 0.02512 0.5034 0.0
C256 C 0.00969 0.01709 0.45034 0.0
C257 C 0.99734 0.01541 0.39718 0.0
C258 C 0.04132 0.01134 0.62751 0.0
C259 C 0.03984 0.02946 0.66675 0.0
C260 C 0.02828 0.0097 0.57516 0.0
C261 C 0.0135 0.0262 0.56056 0.0
C262 C 0.01177 0.04406 0.60048 0.0
C263 C 0.02467 0.04564 0.65272 0.0
H264 H 0.222 0.71613 0.69421 0.0
H265 H 0.28644 0.74427 0.64081 0.0
H266 H 0.22024 0.7437 0.77339 0.0
H267 H 0.28426 0.7728 0.71807 0.0
H268 H 0.28412 0.80688 0.90008 0.0
H269 H 0.28608 0.77847 0.82257 0.0
H270 H 0.21542 0.78104 0.79218 0.0
H271 H 0.21342 0.80846 0.87186 0.0
C272 C 0.23565 0.72848 0.69887 0.0
C273 C 0.25436 0.7281 0.6615 0.0
C274 C 0.23461 0.7444 0.74412 0.0
C275 C 0.2521 0.76056 0.75231 0.0
C276 C 0.27067 0.76037 0.71395 0.0
C277 C 0.27186 0.74417 0.66929 0.0
C278 C 0.26902 0.80118 0.87704 0.0
C279 C 0.24861 0.80975 0.89201 0.0
C280 C 0.27015 0.78506 0.8322 0.0
C281 C 0.25093 0.77747 0.80074 0.0
C282 C 0.23051 0.78613 0.81606 0.0
C283 C 0.22934 0.80194 0.86159 0.0
H284 H 0.50409 0.00763 0.19528 0.0
H285 H 0.44956 0.03741 0.10618 0.0
H286 H 0.52616 0.01142 0.10405 0.0
H287 H 0.47151 0.04067 0.01379 0.0
H288 H 0.52459 0.06237 0.87635 0.0
H289 H 0.50256 0.0594 0.96725 0.0
H290 H 0.5292 0.99598 1.00585 0.0
H291 H 0.55202 0.99929 0.91498 0.0
C292 C 0.49681 0.01508 0.15616 0.0
C293 C 0.475 0.02221 0.15816 0.0
C294 C 0.50943 0.01702 0.10349 0.0
C295 C 0.5006 0.02604 0.05097 0.0
C296 C 0.47898 0.03378 0.05339 0.0
C297 C 0.46636 0.03197 0.10644 0.0
C298 C 0.52582 0.04769 0.9039 0.0
C299 C 0.54027 0.03107 0.88803 0.0
C300 C 0.51297 0.04594 0.95615 0.0
C301 C 0.514 0.02748 0.99428 0.0
C302 C 0.5282 0.01065 0.97815 0.0
C303 C 0.54121 0.01244 0.92575 0.0
H304 H 0.28797 0.78353 0.13118 0.0
H305 H 0.22611 0.81377 0.16721 0.0
H306 H 0.28392 0.76208 0.22242 0.0
H307 H 0.22149 0.79123 0.25849 0.0
H308 H 0.23111 0.76511 0.44883 0.0
H309 H 0.23506 0.78692 0.35703 0.0
H310 H 0.26518 0.73216 0.2694 0.0
H311 H 0.26204 0.71075 0.3624 0.0
C312 C 0.27323 0.78541 0.1581 0.0
C313 C 0.25732 0.80049 0.14134 0.0
C314 C 0.27085 0.77287 0.21068 0.0
C315 C 0.25234 0.77469 0.24826 0.0
C316 C 0.23618 0.78956 0.23129 0.0
C317 C 0.2387 0.80239 0.17862 0.0
C318 C 0.23877 0.75779 0.41008 0.0
C319 C 0.24634 0.73617 0.41311 0.0
C320 C 0.24081 0.77024 0.35705 0.0
C321 C 0.25026 0.76137 0.30513 0.0
C322 C 0.25809 0.73979 0.30848 0.0
C323 C 0.25631 0.72743 0.3619 0.0
H324 H 0.4667 0.99225 0.39902 0.0
H325 H 0.46532 0.06312 0.4244 0.0
H326 H 0.49432 0.99046 0.47846 0.0
H327 H 0.49217 0.0613 0.50589 0.0
H328 H 0.55705 0.0528 0.60766 0.0
H329 H 0.52963 0.05567 0.52803 0.0
H330 H 0.49776 0.99297 0.584 0.0
H331 H 0.52587 0.98969 0.66168 0.0
C332 C 0.47228 0.00743 0.42179 0.0
C333 C 0.46391 0.02781 0.40563 0.0
C334 C 0.48795 0.00641 0.46774 0.0
C335 C 0.49533 0.02571 0.49913 0.0
C336 C 0.48709 0.04615 0.48228 0.0
C337 C 0.47164 0.0472 0.43571 0.0
C338 C 0.54406 0.03974 0.60313 0.0
C339 C 0.54361 0.02096 0.64049 0.0
C340 C 0.52828 0.0414 0.55763 0.0
C341 C 0.51156 0.02446 0.54914 0.0
C342 C 0.51071 0.00607 0.58822 0.0
C343 C 0.52667 0.00427 0.63313 0.0
H344 H 0.27152 0.214 0.68884 0.0
H345 H 0.23396 0.26467 0.60631 0.0
H346 H 0.27467 0.23607 0.78093 0.0
H347 H 0.23773 0.28703 0.69701 0.0
H348 H 0.22873 0.31281 0.88743 0.0
H349 H 0.22507 0.28968 0.79721 0.0
H350 H 0.2914 0.26818 0.82504 0.0
H351 H 0.2947 0.2904 0.91551 0.0
C352 C 0.26429 0.23001 0.68994 0.0
C353 C 0.25246 0.23749 0.64016 0.0
C354 C 0.26606 0.24273 0.74281 0.0
C355 C 0.25627 0.26338 0.74698 0.0
C356 C 0.24501 0.27105 0.69638 0.0
C357 C 0.24305 0.25827 0.64395 0.0
C358 C 0.24246 0.30305 0.87441 0.0
C359 C 0.26196 0.30353 0.90913 0.0
C360 C 0.24046 0.28986 0.82235 0.0
C361 C 0.25798 0.27698 0.80339 0.0
C362 C 0.27738 0.27747 0.83841 0.0
C363 C 0.2793 0.29043 0.89045 0.0
H364 H 0.02975 0.988 0.89474 0.0
H365 H 0.06075 0.05156 0.94562 0.0
H366 H 1.00191 0.99153 0.97299 0.0
H367 H 0.03364 0.05468 0.0259 0.0
H368 H 0.96893 0.0627 0.12783 0.0
H369 H 0.99624 0.06042 0.04765 0.0
H370 H 0.99826 0.98975 0.07836 0.0
H371 H 0.97016 0.99198 0.15636 0.0
C372 C 0.03061 1.0027 0.92284 0.0
C373 C 0.04737 0.01949 0.9143 0.0
C374 C 0.0148 0.00465 0.96808 0.0
C375 C 0.01564 0.02328 1.00633 0.0
C376 C 0.03228 0.04023 0.99693 0.0
C377 C 0.04789 0.03842 0.95107 0.0
C378 C 0.97535 0.04673 0.11758 0.0
C379 C 0.9674 0.0275 0.14801 0.0
C380 C 0.99106 0.04541 0.07176 0.0
C381 C 0.99936 0.02487 0.0561 0.0
C382 C 0.99185 0.00576 0.08811 0.0
C383 C 0.9759 0.00704 0.13325 0.0
H384 H 0.79334 0.73302 0.8786 0.0
H385 H 0.72235 0.73272 0.90362 0.0
H386 H 0.79113 0.76027 0.79877 0.0
H387 H 0.72014 0.76105 0.82581 0.0
H388 H 0.72009 0.79385 0.64196 0.0
H389 H 0.72246 0.76613 0.72122 0.0
H390 H 0.78552 0.7972 0.7776 0.0
H391 H 0.78361 0.82397 0.69634 0.0
C392 C 0.77729 0.73914 0.8677 0.0
C393 C 0.758 0.73078 0.89713 0.0
C394 C 0.77601 0.75486 0.82204 0.0
C395 C 0.75544 0.76291 0.80556 0.0
C396 C 0.7362 0.75491 0.83632 0.0
C397 C 0.73745 0.73884 0.88132 0.0
C398 C 0.73451 0.79456 0.6711 0.0
C399 C 0.7517 0.81094 0.66298 0.0
C400 C 0.73579 0.77883 0.71693 0.0
C401 C 0.75413 0.77944 0.75621 0.0
C402 C 0.77133 0.79591 0.7477 0.0
C403 C 0.77021 0.81135 0.70124 0.0
H404 H 0.7111 0.30519 0.37806 0.0
H405 H 0.78227 0.30752 0.40103 0.0
H406 H 0.71386 0.27862 0.29667 0.0
H407 H 0.78506 0.27992 0.32158 0.0
H408 H 0.78586 0.24836 0.13708 0.0
H409 H 0.7824 0.27578 0.21659 0.0
H410 H 0.72071 0.242 0.27349 0.0
H411 H 0.72367 0.21545 0.19201 0.0
C412 C 0.72732 0.29967 0.36635 0.0
C413 C 0.74649 0.3084 0.39567 0.0
C414 C 0.72891 0.28436 0.31978 0.0
C415 C 0.7497 0.27712 0.30222 0.0
C416 C 0.76883 0.28547 0.3329 0.0
C417 C 0.76725 0.3011 0.37885 0.0
C418 C 0.77146 0.24702 0.16628 0.0
C419 C 0.75501 0.22987 0.15844 0.0
C420 C 0.76958 0.26257 0.21228 0.0
C421 C 0.75137 0.26104 0.25198 0.0
C422 C 0.73479 0.24395 0.24336 0.0
C423 C 0.7365 0.22866 0.19675 0.0
H424 H 0.7121 0.24664 0.91348 0.0
H425 H 0.77894 0.22608 0.8888 0.0
H426 H 0.71559 0.26939 0.82404 0.0
H427 H 0.78275 0.24972 0.79949 0.0
H428 H 0.77438 0.27542 0.60876 0.0
H429 H 0.77066 0.25262 0.69856 0.0
H430 H 0.73209 0.30225 0.78268 0.0
H431 H 0.73524 0.32484 0.69142 0.0
C432 C 0.72771 0.24711 0.88935 0.0
C433 C 0.74527 0.2344 0.90874 0.0
C434 C 0.72974 0.26038 0.83793 0.0
C435 C 0.74946 0.26159 0.80422 0.0
C436 C 0.76715 0.24901 0.8237 0.0
C437 C 0.76505 0.23552 0.87518 0.0
C438 C 0.76498 0.28148 0.64627 0.0
C439 C 0.7551 0.30204 0.64274 0.0
C440 C 0.76303 0.26843 0.69819 0.0
C441 C 0.75129 0.27557 0.74853 0.0
C442 C 0.74109 0.29601 0.74471 0.0
C443 C 0.74287 0.30903 0.69234 0.0
H444 H 0.73388 0.76485 0.10772 0.0
H445 H 0.76625 0.71152 0.1948 0.0
H446 H 0.73791 0.78714 0.19855 0.0
H447 H 0.7695 0.73346 0.28702 0.0
H448 H 0.79174 0.78605 0.42307 0.0
H449 H 0.78784 0.76404 0.33263 0.0
H450 H 0.72455 0.79154 0.29715 0.0
H451 H 0.72897 0.81458 0.38751 0.0
C452 C 0.74186 0.75785 0.14645 0.0
C453 C 0.7498 0.73637 0.14388 0.0
C454 C 0.74395 0.77059 0.19894 0.0
C455 C 0.75382 0.76217 0.25081 0.0
C456 C 0.76205 0.74074 0.24793 0.0
C457 C 0.76021 0.72808 0.19499 0.0
C458 C 0.77686 0.78746 0.39639 0.0
C459 C 0.76062 0.8022 0.41303 0.0
C460 C 0.77457 0.77459 0.34431 0.0
C461 C 0.75585 0.77579 0.30716 0.0
C462 C 0.7394 0.79035 0.324 0.0
C463 C 0.74182 0.80348 0.37614 0.0
H464 H 0.54627 0.49691 0.13768 0.0
H465 H 0.52307 0.56263 0.1647 0.0
H466 H 0.523 0.49272 0.0478 0.0
H467 H 0.50068 0.55879 0.07463 0.0
H468 H 0.44614 0.53764 0.9407 0.0
H469 H 0.46854 0.54132 0.03213 0.0
H470 H 0.51984 0.50513 0.94726 0.0
H471 H 0.49718 0.50084 0.8572 0.0
C472 C 0.53632 0.51048 0.12446 0.0
C473 C 0.5366 0.53005 0.15881 0.0
C474 C 0.52305 0.50816 0.07262 0.0
C475 C 0.50985 0.52544 0.05358 0.0
C476 C 0.5102 0.54495 0.08812 0.0
C477 C 0.52326 0.54718 0.13991 0.0
C478 C 0.46229 0.53068 0.94145 0.0
C479 C 0.46979 0.51892 0.89159 0.0
C480 C 0.47519 0.53277 0.99393 0.0
C481 C 0.49604 0.52336 0.99761 0.0
C482 C 0.50371 0.51213 0.94697 0.0
C483 C 0.49075 0.50986 0.89492 0.0
H484 H 0.05781 0.50143 0.43974 0.0
H485 H 0.00537 0.53573 0.35428 0.0
H486 H 0.03564 0.49796 0.53171 0.0
H487 H 0.98304 0.53171 0.4449 0.0
H488 H 0.95668 0.54119 0.63461 0.0
H489 H 0.97996 0.54519 0.54471 0.0
H490 H 1.00381 0.47998 0.57555 0.0
H491 H 0.98137 0.47631 0.66556 0.0
C492 C 0.04143 0.50789 0.44019 0.0
C493 C 0.03346 0.5189 0.38959 0.0
C494 C 0.02867 0.50594 0.49299 0.0
C495 C 0.00753 0.51476 0.49626 0.0
C496 C 0.9994 0.5252 0.44491 0.0
C497 C 0.01218 0.5273 0.39254 0.0
C498 C 0.96697 0.52777 0.6223 0.0
C499 C 0.96705 0.50846 0.65768 0.0
C500 C 0.98026 0.52998 0.57046 0.0
C501 C 0.99385 0.51288 0.55248 0.0
C502 C 0.99395 0.49368 0.58817 0.0
C503 C 0.98085 0.49154 0.63992 0.0
H504 H 0.03952 0.54619 0.14888 0.0
H505 H 0.04008 0.47524 0.12399 0.0
H506 H 0.01181 0.54821 0.06975 0.0
H507 H 0.01319 0.47728 0.04269 0.0
H508 H 0.94904 0.48611 0.93897 0.0
H509 H 0.97602 0.48319 0.01959 0.0
H510 H 0.00835 0.5458 0.96445 0.0
H511 H 0.9806 0.54915 0.88582 0.0
C512 C 0.03371 0.53103 0.12632 0.0
C513 C 0.0419 0.51057 0.14245 0.0
C514 C 0.018 0.53219 0.08052 0.0
C515 C 0.01041 0.51294 0.04922 0.0
C516 C 0.01842 0.49241 0.06621 0.0
C517 C 0.03389 0.49122 0.11269 0.0
C518 C 0.96203 0.49915 0.94391 0.0
C519 C 0.96271 0.5179 0.90645 0.0
C520 C 0.97756 0.49746 0.99 0.0
C521 C 0.99431 0.51434 0.99895 0.0
C522 C 0.99537 0.53274 0.95989 0.0
C523 C 0.97963 0.53458 0.91441 0.0
H524 H 0.46323 0.4911 0.64969 0.0
H525 H 0.46393 0.56221 0.62674 0.0
H526 H 0.4911 0.48897 0.57073 0.0
H527 H 0.49083 0.56009 0.54585 0.0
H528 H 0.55469 0.55163 0.44248 0.0
H529 H 0.5278 0.55403 0.52343 0.0
H530 H 0.49541 0.49177 0.46575 0.0
H531 H 0.52312 0.48891 0.38678 0.0
C532 C 0.46933 0.50625 0.62758 0.0
C533 C 0.46149 0.5268 0.64429 0.0
C534 C 0.48513 0.50505 0.58192 0.0
C535 C 0.49314 0.52434 0.55142 0.0
C536 C 0.48535 0.54492 0.56882 0.0
C537 C 0.46984 0.54614 0.61508 0.0
C538 C 0.54171 0.53855 0.44694 0.0
C539 C 0.54098 0.52007 0.40855 0.0
C540 C 0.52622 0.53994 0.49324 0.0
C541 C 0.50943 0.52304 0.50149 0.0
C542 C 0.50838 0.50485 0.46173 0.0
C543 C 0.5241 0.5033 0.41603 0.0
H544 H 0.11687 0.44279 0.25879 0.0
H545 H 0.15101 0.49711 0.16409 0.0
H546 H 0.14206 0.41685 0.21294 0.0
H547 H 0.17637 0.47143 0.12001 0.0
H548 H 0.23162 0.41883 0.12717 0.0
H549 H 0.20585 0.44436 0.16991 0.0
H550 H 0.15074 0.40568 0.09187 0.0
H551 H 0.17679 0.38027 0.0472 0.0
C552 C 0.13001 0.44921 0.22925 0.0
C553 C 0.13214 0.47196 0.21535 0.0
C554 C 0.14418 0.43438 0.20246 0.0
C555 C 0.16098 0.44218 0.16258 0.0
C556 C 0.16352 0.46501 0.15043 0.0
C557 C 0.14909 0.47968 0.17591 0.0
C558 C 0.21402 0.41598 0.11824 0.0
C559 C 0.20618 0.39772 0.08341 0.0
C560 C 0.19931 0.43052 0.14292 0.0
C561 C 0.17635 0.42683 0.13465 0.0
C562 C 0.1684 0.40873 0.09924 0.0
C563 C 0.18326 0.3944 0.07313 0.0
H564 H 0.78849 0.92274 0.50855 0.0
H565 H 0.82218 0.87125 0.41739 0.0
H566 H 0.81342 0.95107 0.45917 0.0
H567 H 0.84612 0.89903 0.36679 0.0
H568 H 0.90528 0.94567 0.36266 0.0
H569 H 0.87634 0.92212 0.40886 0.0
H570 H 0.82773 0.96894 0.36101 0.0
H571 H 0.85736 0.99328 0.31543 0.0
C572 C 0.80087 0.91758 0.47699 0.0
C573 C 0.80383 0.89491 0.46753 0.0
C574 C 0.81506 0.93371 0.44872 0.0
C575 C 0.83212 0.92723 0.41035 0.0
C576 C 0.83366 0.90456 0.39758 0.0
C577 C 0.81988 0.88863 0.42631 0.0
C578 C 0.88846 0.95105 0.36176 0.0
C579 C 0.88354 0.97112 0.33424 0.0
C580 C 0.87181 0.93748 0.38817 0.0
C581 C 0.84962 0.94335 0.38711 0.0
C582 C 0.84467 0.96393 0.36213 0.0
C583 C 0.86158 0.9778 0.33599 0.0
H584 H 0.27046 0.61925 0.63758 0.0
H585 H 0.32402 0.65497 0.54373 0.0
H586 H 0.29677 0.59424 0.68052 0.0
H587 H 0.35058 0.63018 0.58859 0.0
H588 H 0.38663 0.5962 0.75863 0.0
H589 H 0.36054 0.62147 0.71366 0.0
H590 H 0.32592 0.56586 0.62602 0.0
H591 H 0.35219 0.54085 0.66903 0.0
C592 C 0.28786 0.6216 0.62571 0.0
C593 C 0.2952 0.6389 0.58689 0.0
C594 C 0.30287 0.60737 0.65052 0.0
C595 C 0.32565 0.6105 0.63834 0.0
C596 C 0.33307 0.62762 0.599 0.0
C597 C 0.3179 0.64157 0.57283 0.0
C598 C 0.37325 0.58942 0.73043 0.0
C599 C 0.3713 0.56659 0.71758 0.0
C600 C 0.35855 0.60385 0.70421 0.0
C601 C 0.3414 0.59554 0.66608 0.0
C602 C 0.33904 0.57264 0.65509 0.0
C603 C 0.354 0.55837 0.67993 0.0
H604 H 0.68267 0.13189 0.04874 0.0
H605 H 0.73343 0.13697 0.91157 0.0
H606 H 0.66246 0.10288 0.99056 0.0
H607 H 0.7128 0.1083 0.85255 0.0
H608 H 0.64261 0.09333 0.74733 0.0
H609 H 0.67192 0.11322 0.80519 0.0
H610 H 0.66708 0.06224 0.94153 0.0
H611 H 0.6381 0.04192 0.88282 0.0
C612 C 0.6897 0.12647 1.00673 0.0
C613 C 0.70954 0.13671 0.98448 0.0
C614 C 0.67821 0.10982 0.97367 0.0
C615 C 0.68612 0.10345 0.91719 0.0
C616 C 0.70645 0.11294 0.8961 0.0
C617 C 0.71824 0.12925 0.92991 0.0
C618 C 0.64821 0.08609 0.78888 0.0
C619 C 0.63805 0.06616 0.81076 0.0
C620 C 0.66503 0.0974 0.82176 0.0
C621 C 0.67166 0.08921 0.87769 0.0
C622 C 0.66223 0.06879 0.89839 0.0
C623 C 0.64575 0.05719 0.86474 0.0
H624 H 0.14204 0.5399 0.36407 0.0
H625 H 0.11963 0.59844 0.27548 0.0
H626 H 0.16992 0.56333 0.41919 0.0
H627 H 0.14706 0.62136 0.33055 0.0
H628 H 0.16728 0.65316 0.50987 0.0
H629 H 0.14567 0.62514 0.45361 0.0
H630 H 0.2057 0.59649 0.3938 0.0
H631 H 0.2279 0.625 0.45017 0.0
C632 C 0.14327 0.55761 0.35553 0.0
C633 C 0.12829 0.56732 0.31617 0.0
C634 C 0.15924 0.57093 0.38692 0.0
C635 C 0.16033 0.59407 0.37941 0.0
C636 C 0.14632 0.60354 0.33749 0.0
C637 C 0.13057 0.59036 0.30611 0.0
C638 C 0.17608 0.64087 0.48538 0.0
C639 C 0.19943 0.64162 0.48393 0.0
C640 C 0.16361 0.62481 0.45315 0.0
C641 C 0.17408 0.60892 0.41904 0.0
C642 C 0.19733 0.60867 0.4199 0.0
C643 C 0.20996 0.625 0.45198 0.0
H644 H 0.63273 0.98656 0.61233 0.0
H645 H 0.63196 0.95446 0.78622 0.0
H646 H 0.65811 0.96013 0.57445 0.0
H647 H 0.65757 0.92762 0.74764 0.0
H648 H 0.72406 0.90353 0.67642 0.0
H649 H 0.69667 0.92792 0.71446 0.0
H650 H 0.66026 0.92075 0.54758 0.0
H651 H 0.68799 0.89617 0.50894 0.0
C652 C 0.63794 0.97379 0.64263 0.0
C653 C 0.63037 0.97273 0.7026 0.0
C654 C 0.65238 0.95848 0.62052 0.0
C655 C 0.65983 0.94169 0.65778 0.0
C656 C 0.65224 0.94048 0.71784 0.0
C657 C 0.63756 0.9558 0.73998 0.0
C658 C 0.71028 0.90714 0.6475 0.0
C659 C 0.7083 0.89795 0.58933 0.0
C660 C 0.69442 0.92099 0.66975 0.0
C661 C 0.67617 0.92618 0.63439 0.0
C662 C 0.67421 0.91715 0.57592 0.0
C663 C 0.69008 0.9031 0.55368 0.0
H664 H 0.37204 0.44617 0.75873 0.0
H665 H 0.37001 0.49801 0.89242 0.0
H666 H 0.34255 0.42472 0.81208 0.0
H667 H 0.34087 0.47615 0.94665 0.0
H668 H 0.3243 0.40644 0.05298 0.0
H669 H 0.34578 0.4355 0.99802 0.0
H670 H 0.29971 0.42869 0.84971 0.0
H671 H 0.27774 0.4 0.9055 0.0
C672 C 0.36509 0.45308 0.79909 0.0
C673 C 0.37337 0.47368 0.82165 0.0
C674 C 0.34814 0.44089 0.8293 0.0
C675 C 0.33951 0.44886 0.88328 0.0
C676 C 0.34727 0.46975 0.90496 0.0
C677 C 0.36387 0.48221 0.87392 0.0
C678 C 0.31848 0.41154 0.00926 0.0
C679 C 0.29944 0.40098 0.98334 0.0
C680 C 0.33069 0.4282 0.97802 0.0
C681 C 0.32435 0.43422 0.91977 0.0
C682 C 0.30484 0.4243 0.89468 0.0
C683 C 0.29228 0.408 0.92662 0.0
H684 H 0.78769 0.1404 0.18347 0.0
H685 H 0.8218 0.14232 0.01239 0.0
H686 H 0.81386 0.11508 0.22275 0.0
H687 H 0.84842 0.11672 0.05247 0.0
H688 H 0.87333 0.05066 0.12623 0.0
H689 H 0.84867 0.07744 0.0857 0.0
H690 H 0.85294 0.11396 0.25285 0.0
H691 H 0.87772 0.08693 0.29387 0.0
C692 C 0.80084 0.13544 0.15405 0.0
C693 C 0.80257 0.14337 0.0945 0.0
C694 C 0.81599 0.12102 0.17698 0.0
C695 C 0.83332 0.11394 0.14103 0.0
C696 C 0.83514 0.12177 0.08127 0.0
C697 C 0.81996 0.13645 0.05829 0.0
C698 C 0.86897 0.06433 0.15466 0.0
C699 C 0.87741 0.06655 0.21361 0.0
C700 C 0.85499 0.07983 0.13101 0.0
C701 C 0.84892 0.09793 0.16575 0.0
C702 C 0.85719 0.1001 0.22497 0.0
C703 C 0.87135 0.08462 0.24858 0.0
H704 H 0.78483 0.63811 0.87165 0.0
H705 H 0.81985 0.64144 0.04133 0.0
H706 H 0.81147 0.61318 0.83209 0.0
H707 H 0.84681 0.61637 1.00119 0.0
H708 H 0.87246 0.55061 0.93164 0.0
H709 H 0.84757 0.57731 0.97051 0.0
H710 H 0.85067 0.61215 0.80067 0.0
H711 H 0.87579 0.58504 0.76106 0.0
C712 C 0.79824 0.63351 0.90069 0.0
C713 C 0.80012 0.64171 0.95995 0.0
C714 C 0.81366 0.61935 0.87761 0.0
C715 C 0.83136 0.61284 0.9132 0.0
C716 C 0.83326 0.62095 0.97266 0.0
C717 C 0.81783 0.6353 0.99573 0.0
C718 C 0.8679 0.56393 0.90226 0.0
C719 C 0.87609 0.56561 0.84296 0.0
C720 C 0.85374 0.57939 0.92495 0.0
C721 C 0.84719 0.59696 0.88898 0.0
C722 C 0.8553 0.5987 0.82948 0.0
C723 C 0.8697 0.58322 0.80675 0.0
H724 H 0.23385 0.13779 0.64 0.0
H725 H 0.18112 0.13887 0.50861 0.0
H726 H 0.21274 0.10846 0.69543 0.0
H727 H 0.16041 0.1092 0.56319 0.0
H728 H 0.13659 0.04478 0.65905 0.0
H729 H 0.1649 0.06661 0.60156 0.0
H730 H 0.1725 0.11318 0.74854 0.0
H731 H 0.14383 0.09183 0.80521 0.0
C732 C 0.21802 0.1314 0.62222 0.0
C733 C 0.209 0.1407 0.57031 0.0
C734 C 0.20599 0.11468 0.65394 0.0
C735 C 0.18506 0.10663 0.63331 0.0
C736 C 0.17663 0.11503 0.57959 0.0
C737 C 0.18839 0.13208 0.54869 0.0
C738 C 0.1447 0.0594 0.67952 0.0
C739 C 0.13799 0.06674 0.73633 0.0
C740 C 0.16078 0.07187 0.64661 0.0
C741 C 0.17079 0.09148 0.67083 0.0
C742 C 0.16512 0.098 0.72921 0.0
C743 C 0.14868 0.08587 0.76142 0.0
H744 H 0.6834 0.39682 0.54207 0.0
H745 H 0.7182 0.40004 0.37207 0.0
H746 H 0.6565 0.42205 0.50214 0.0
H747 H 0.69165 0.42508 0.33278 0.0
H748 H 0.62759 0.45361 0.26211 0.0
H749 H 0.65244 0.42625 0.30173 0.0
H750 H 0.65607 0.46123 0.47134 0.0
H751 H 0.63145 0.48819 0.43242 0.0
C752 C 0.68536 0.40294 0.49645 0.0
C753 C 0.70301 0.39649 0.46051 0.0
C754 C 0.66999 0.41738 0.4735 0.0
C755 C 0.67187 0.4255 0.41404 0.0
C756 C 0.68948 0.4189 0.3783 0.0
C757 C 0.70485 0.40468 0.40124 0.0
C758 C 0.63375 0.45541 0.30774 0.0
C759 C 0.62759 0.47314 0.34386 0.0
C760 C 0.64798 0.43979 0.33049 0.0
C761 C 0.65615 0.44149 0.38993 0.0
C762 C 0.64984 0.45918 0.42583 0.0
C763 C 0.63584 0.47478 0.4031 0.0
H764 H 0.35606 0.99124 0.23645 0.0
H765 H 0.4057 0.94702 0.1789 0.0
H766 H 0.32692 0.96606 0.19198 0.0
H767 H 0.3772 0.92267 0.13319 0.0
H768 H 0.32506 0.86917 0.12746 0.0
H769 H 0.34933 0.89742 0.17494 0.0
H770 H 0.31104 0.94865 0.0974 0.0
H771 H 0.28584 0.91982 0.05144 0.0
C772 C 0.36073 0.97636 0.21358 0.0
C773 C 0.38305 0.97079 0.21221 0.0
C774 C 0.34411 0.962 0.18809 0.0
C775 C 0.3497 0.94206 0.16049 0.0
C776 C 0.3722 0.93745 0.156 0.0
C777 C 0.38859 0.95148 0.18197 0.0
C778 C 0.32168 0.88646 0.12096 0.0
C779 C 0.30388 0.89237 0.08499 0.0
C780 C 0.33565 0.90267 0.14787 0.0
C781 C 0.33255 0.92532 0.13842 0.0
C782 C 0.31393 0.93134 0.10521 0.0
C783 C 0.29957 0.91491 0.07888 0.0
H784 H 0.77271 0.40142 0.64062 0.0
H785 H 0.82442 0.40178 0.50609 0.0
H786 H 0.79404 0.43049 0.69655 0.0
H787 H 0.84532 0.43122 0.5611 0.0
H788 H 0.86976 0.49473 0.65988 0.0
H789 H 0.84085 0.47349 0.60303 0.0
H790 H 0.83493 0.42533 0.74656 0.0
H791 H 0.86421 0.4461 0.80253 0.0
C792 C 0.78832 0.40813 0.62222 0.0
C793 C 0.79702 0.39928 0.56928 0.0
C794 C 0.80048 0.42468 0.65424 0.0
C795 C 0.82121 0.43304 0.63288 0.0
C796 C 0.82926 0.42516 0.57809 0.0
C797 C 0.81738 0.40825 0.5469 0.0
C798 C 0.86189 0.4799 0.67984 0.0
C799 C 0.86925 0.47194 0.73538 0.0
C800 C 0.84546 0.46776 0.64727 0.0
C801 C 0.83575 0.44786 0.67062 0.0
C802 C 0.84206 0.44074 0.72793 0.0
C803 C 0.85884 0.45254 0.75975 0.0
H804 H 0.27552 0.12049 0.41731 0.0
H805 H 0.3311 0.15606 0.50283 0.0
H806 H 0.3006 0.09455 0.37312 0.0
H807 H 0.35642 0.1303 0.45671 0.0
H808 H 0.38991 0.09479 0.28732 0.0
H809 H 0.36492 0.12069 0.33397 0.0
H810 H 0.3294 0.06579 0.4224 0.0
H811 H 0.35464 0.0401 0.37759 0.0
C812 C 0.29311 0.1226 0.42711 0.0
C813 C 0.30138 0.14014 0.46389 0.0
C814 C 0.30742 0.10782 0.40163 0.0
C815 C 0.3304 0.1106 0.41108 0.0
C816 C 0.33875 0.12797 0.44845 0.0
C817 C 0.32429 0.14249 0.47533 0.0
C818 C 0.37654 0.08829 0.31596 0.0
C819 C 0.37406 0.06545 0.32849 0.0
C820 C 0.36247 0.10309 0.3432 0.0
C821 C 0.34542 0.09518 0.38213 0.0
C822 C 0.34246 0.07228 0.39272 0.0
C823 C 0.35681 0.05761 0.36683 0.0
H824 H 0.63953 0.59238 0.30417 0.0
H825 H 0.63231 0.54513 0.15852 0.0
H826 H 0.66847 0.61347 0.24764 0.0
H827 H 0.66081 0.56673 0.10111 0.0
H828 H 0.6776 0.63928 1.00851 0.0
H829 H 0.65643 0.60992 0.06318 0.0
H830 H 0.7091 0.60772 0.19401 0.0
H831 H 0.73068 0.6367 0.1384 0.0
C832 C 0.64446 0.58631 0.26057 0.0
C833 C 0.63373 0.56717 0.23562 0.0
C834 C 0.66103 0.5983 0.22841 0.0
C835 C 0.66676 0.59166 0.17017 0.0
C836 C 0.65667 0.57207 0.14607 0.0
C837 C 0.64048 0.55972 0.17896 0.0
C838 C 0.68486 0.6322 0.04823 0.0
C839 C 0.70573 0.64031 0.06937 0.0
C840 C 0.67282 0.61535 0.07922 0.0
C841 C 0.68121 0.60664 0.13261 0.0
C842 C 0.70237 0.61418 0.15278 0.0
C843 C 0.71469 0.63068 0.12092 0.0
H844 H 0.23436 0.91863 0.9185 0.0
H845 H 0.18001 0.88356 0.01073 0.0
H846 H 0.20861 0.94401 0.87487 0.0
H847 H 0.15399 0.9088 0.96539 0.0
H848 H 0.11721 0.94425 0.80182 0.0
H849 H 0.14264 0.91809 0.84596 0.0
H850 H 0.18157 0.97306 0.92391 0.0
H851 H 0.15606 0.99892 0.88165 0.0
C852 C 0.2169 0.91651 0.92989 0.0
C853 C 0.2092 0.89929 0.96851 0.0
C854 C 0.20218 0.93095 0.90467 0.0
C855 C 0.17933 0.92819 0.91626 0.0
C856 C 0.17154 0.91111 0.95533 0.0
C857 C 0.18641 0.89691 0.98185 0.0
C858 C 0.13141 0.95066 0.82762 0.0
C859 C 0.1348 0.97358 0.838 0.0
C860 C 0.14574 0.93574 0.85344 0.0
C861 C 0.16394 0.94361 0.88866 0.0
C862 C 0.16767 0.96657 0.89705 0.0
C863 C 0.15313 0.98134 0.87264 0.0
loop_
_geom_bond_atom_site_label_1
_geom_bond_atom_site_label_2
_geom_bond_distance
_geom_bond_site_symmetry_2
_ccdc_geom_bond_type
Co0 O1 2.216 . S
Co0 O2 2.091 . S
Co0 O4 2.004 1_554 S
Co0 O10 2.021 1_554 S
Co0 O12 2.137 . S
Co0 O13 2.244 . S
O1 Co0 2.216 . S
O1 C8 1.247 . S
O2 Co0 2.091 . S
O2 C8 1.261 . S
C3 O12 1.247 . S
C3 O13 1.272 . S
O4 Co0 2.004 1_556 S
O4 C9 1.259 . S
Co5 O6 2.061 1_554 S
Co5 O11 2.053 . S
Co5 O13 2.135 . S
O6 Co5 2.061 1_556 S
O6 C9 1.235 . S
C7 O10 1.238 . S
C7 O11 1.239 1_556 S
C8 O1 1.247 . S
C8 O2 1.261 . S
C9 O4 1.259 . S
C9 O6 1.235 . S
O10 Co0 2.021 1_556 S
O10 C7 1.238 . S
O11 Co5 2.053 . S
O11 C7 1.239 1_554 S
O12 Co0 2.137 . S
O12 C3 1.247 . S
O13 Co0 2.244 . S
O13 C3 1.272 . S
O13 Co5 2.135 . S
Co14 O15 2.216 . S
Co14 O16 2.091 . S
Co14 O18 2.004 . S
Co14 O24 2.021 . S
Co14 O26 2.137 . S
Co14 O27 2.244 . S
O15 Co14 2.216 . S
O15 C22 1.247 . S
O16 Co14 2.091 . S
O16 C22 1.261 . S
C17 O26 1.247 . S
C17 O27 1.272 . S
O18 Co14 2.004 . S
O18 C23 1.259 . S
Co19 O20 2.061 . S
Co19 O25 2.052 . S
Co19 O27 2.135 1_565 S
O20 Co19 2.061 . S
O20 C23 1.235 1_565 S
C21 O24 1.238 1_565 S
C21 O25 1.241 . S
C22 O15 1.247 . S
C22 O16 1.261 . S
C23 O18 1.259 . S
C23 O20 1.235 1_545 S
O24 Co14 2.021 . S
O24 C21 1.238 1_545 S
O25 Co19 2.052 . S
O25 C21 1.241 . S
O26 Co14 2.137 . S
O26 C17 1.247 . S
O27 Co14 2.244 . S
O27 C17 1.272 . S
O27 Co19 2.135 1_545 S
Co28 O29 2.216 . S
Co28 O30 2.091 . S
Co28 O32 2.004 . S
Co28 O38 2.021 . S
Co28 O40 2.137 . S
Co28 O41 2.244 . S
O29 Co28 2.216 . S
O29 C36 1.247 . S
O30 Co28 2.091 . S
O30 C36 1.261 . S
C31 O40 1.247 . S
C31 O41 1.272 . S
O32 Co28 2.004 . S
O32 C37 1.259 . S
Co33 O34 2.061 . S
Co33 O39 2.052 . S
Co33 O41 2.135 . S
O34 Co33 2.061 . S
O34 C37 1.235 . S
C35 O38 1.238 . S
C35 O39 1.241 . S
C36 O29 1.247 . S
C36 O30 1.261 . S
C37 O32 1.259 . S
C37 O34 1.235 . S
O38 Co28 2.021 . S
O38 C35 1.238 . S
O39 Co33 2.052 . S
O39 C35 1.241 . S
O40 Co28 2.137 . S
O40 C31 1.247 . S
O41 Co28 2.244 . S
O41 C31 1.272 . S
O41 Co33 2.135 . S
Co42 O43 2.216 . S
Co42 O44 2.091 1_545 S
Co42 O46 2.004 . S
Co42 O52 2.021 . S
Co42 O54 2.137 1_545 S
Co42 O55 2.244 . S
O43 Co42 2.216 . S
O43 C50 1.247 1_545 S
O44 Co42 2.091 1_565 S
O44 C50 1.261 . S
C45 O54 1.247 1_545 S
C45 O55 1.272 . S
O46 Co42 2.004 . S
O46 C51 1.259 . S
Co47 O48 2.061 . S
Co47 O53 2.052 . S
Co47 O55 2.135 . S
O48 Co47 2.061 . S
O48 C51 1.235 . S
C49 O52 1.238 . S
C49 O53 1.241 . S
C50 O43 1.247 1_565 S
C50 O44 1.261 . S
C51 O46 1.259 . S
C51 O48 1.235 . S
O52 Co42 2.021 . S
O52 C49 1.238 . S
O53 Co47 2.052 . S
O53 C49 1.241 . S
O54 Co42 2.137 1_565 S
O54 C45 1.247 1_565 S
O55 Co42 2.244 . S
O55 C45 1.272 . S
O55 Co47 2.135 . S
Co56 O57 2.216 1_554 S
Co56 O58 2.091 . S
Co56 O60 2.004 . S
Co56 O66 2.021 . S
Co56 O68 2.137 1_554 S
Co56 O69 2.244 1_554 S
O57 Co56 2.216 1_556 S
O57 C64 1.247 . S
O58 Co56 2.091 . S
O58 C64 1.261 1_554 S
C59 O68 1.247 . S
C59 O69 1.272 . S
O60 Co56 2.004 . S
O60 C65 1.259 . S
Co61 O62 2.061 . S
Co61 O67 2.052 . S
Co61 O69 2.135 1_554 S
O62 Co61 2.061 . S
O62 C65 1.235 . S
C63 O66 1.238 . S
C63 O67 1.241 . S
C64 O57 1.247 . S
C64 O58 1.261 1_556 S
C65 O60 1.259 . S
C65 O62 1.235 . S
O66 Co56 2.021 . S
O66 C63 1.238 . S
O67 Co61 2.052 . S
O67 C63 1.241 . S
O68 Co56 2.137 1_556 S
O68 C59 1.247 . S
O69 Co56 2.244 1_556 S
O69 C59 1.272 . S
O69 Co61 2.135 1_556 S
Co70 O71 2.216 . S
Co70 O72 2.091 1_545 S
Co70 O74 2.004 . S
Co70 O80 2.021 . S
Co70 O82 2.137 1_545 S
Co70 O83 2.244 . S
O71 Co70 2.216 . S
O71 C78 1.247 1_545 S
O72 Co70 2.091 1_565 S
O72 C78 1.261 . S
C73 O82 1.247 1_545 S
C73 O83 1.272 . S
O74 Co70 2.004 . S
O74 C79 1.259 . S
Co75 O76 2.061 . S
Co75 O81 2.052 . S
Co75 O83 2.135 . S
O76 Co75 2.061 . S
O76 C79 1.235 . S
C77 O80 1.238 . S
C77 O81 1.241 . S
C78 O71 1.247 1_565 S
C78 O72 1.261 . S
C79 O74 1.259 . S
C79 O76 1.235 . S
O80 Co70 2.021 . S
O80 C77 1.238 . S
O81 Co75 2.052 . S
O81 C77 1.241 . S
O82 Co70 2.137 1_565 S
O82 C73 1.247 1_565 S
O83 Co70 2.244 . S
O83 C73 1.272 . S
O83 Co75 2.135 . S
Co84 O85 2.216 . S
Co84 O86 2.091 . S
Co84 O88 2.004 . S
Co84 O94 2.021 . S
Co84 O96 2.137 . S
Co84 O97 2.244 . S
O85 Co84 2.216 . S
O85 C92 1.247 . S
O86 Co84 2.091 . S
O86 C92 1.261 . S
C87 O96 1.247 . S
C87 O97 1.272 . S
O88 Co84 2.004 . S
O88 C93 1.259 . S
Co89 O90 2.061 . S
Co89 O95 2.052 . S
Co89 O97 2.135 . S
O90 Co89 2.061 . S
O90 C93 1.235 . S
C91 O94 1.238 . S
C91 O95 1.241 . S
C92 O85 1.247 . S
C92 O86 1.261 . S
C93 O88 1.259 . S
C93 O90 1.235 . S
O94 Co84 2.021 . S
O94 C91 1.238 . S
O95 Co89 2.052 . S
O95 C91 1.241 . S
O96 Co84 2.137 . S
O96 C87 1.247 . S
O97 Co84 2.244 . S
O97 C87 1.272 . S
O97 Co89 2.135 . S
Co98 O99 2.216 . S
Co98 O100 2.091 . S
Co98 O102 2.004 . S
Co98 O108 2.021 . S
Co98 O110 2.137 . S
Co98 O111 2.244 . S
O99 Co98 2.216 . S
O99 C106 1.247 . S
O100 Co98 2.091 . S
O100 C106 1.261 . S
C101 O110 1.247 . S
C101 O111 1.272 . S
O102 Co98 2.004 . S
O102 C107 1.259 . S
Co103 O104 2.061 . S
Co103 O109 2.052 . S
Co103 O111 2.135 1_565 S
O104 Co103 2.061 . S
O104 C107 1.235 1_565 S
C105 O108 1.238 1_565 S
C105 O109 1.241 . S
C106 O99 1.247 . S
C106 O100 1.261 . S
C107 O102 1.259 . S
C107 O104 1.235 1_545 S
O108 Co98 2.021 . S
O108 C105 1.238 1_545 S
O109 Co103 2.052 . S
O109 C105 1.241 . S
O110 Co98 2.137 . S
O110 C101 1.247 . S
O111 Co98 2.244 . S
O111 C101 1.272 . S
O111 Co103 2.135 1_545 S
Co112 O113 2.216 . S
Co112 O114 2.091 . S
Co112 O116 2.004 . S
Co112 O122 2.021 . S
Co112 O124 2.137 . S
Co112 O125 2.244 . S
O113 Co112 2.216 . S
O113 C120 1.247 . S
O114 Co112 2.091 . S
O114 C120 1.261 . S
C115 O124 1.247 . S
C115 O125 1.272 . S
O116 Co112 2.004 . S
O116 C121 1.259 . S
Co117 O118 2.061 . S
Co117 O123 2.052 . S
Co117 O125 2.135 . S
O118 Co117 2.061 . S
O118 C121 1.235 . S
C119 O122 1.238 . S
C119 O123 1.241 . S
C120 O113 1.247 . S
C120 O114 1.261 . S
C121 O116 1.259 . S
C121 O118 1.235 . S
O122 Co112 2.021 . S
O122 C119 1.238 . S
O123 Co117 2.052 . S
O123 C119 1.241 . S
O124 Co112 2.137 . S
O124 C115 1.247 . S
O125 Co112 2.244 . S
O125 C115 1.272 . S
O125 Co117 2.135 . S
Co126 O127 2.216 . S
Co126 O128 2.091 . S
Co126 O130 2.004 . S
Co126 O136 2.021 . S
Co126 O138 2.137 . S
Co126 O139 2.244 . S
O127 Co126 2.216 . S
O127 C134 1.247 . S
O128 Co126 2.091 . S
O128 C134 1.261 . S
C129 O138 1.247 . S
C129 O139 1.272 . S
O130 Co126 2.004 . S
O130 C135 1.259 . S
Co131 O132 2.061 . S
Co131 O137 2.052 . S
Co131 O139 2.135 . S
O132 Co131 2.061 . S
O132 C135 1.235 . S
C133 O136 1.238 . S
C133 O137 1.241 . S
C134 O127 1.247 . S
C134 O128 1.261 . S
C135 O130 1.259 . S
C135 O132 1.235 . S
O136 Co126 2.021 . S
O136 C133 1.238 . S
O137 Co131 2.052 . S
O137 C133 1.241 . S
O138 Co126 2.137 . S
O138 C129 1.247 . S
O139 Co126 2.244 . S
O139 C129 1.272 . S
O139 Co131 2.135 . S
Co140 O141 2.216 . S
Co140 O142 2.091 . S
Co140 O144 2.004 1_554 S
Co140 O150 2.021 1_554 S
Co140 O152 2.137 . S
Co140 O153 2.244 . S
O141 Co140 2.216 . S
O141 C148 1.247 . S
O142 Co140 2.091 . S
O142 C148 1.261 . S
C143 O152 1.247 . S
C143 O153 1.272 . S
O144 Co140 2.004 1_556 S
O144 C149 1.259 . S
Co145 O146 2.061 1_554 S
Co145 O151 2.053 . S
Co145 O153 2.135 . S
O146 Co145 2.061 1_556 S
O146 C149 1.235 . S
C147 O150 1.238 . S
C147 O151 1.238 1_556 S
C148 O141 1.247 . S
C148 O142 1.261 . S
C149 O144 1.259 . S
C149 O146 1.235 . S
O150 Co140 2.021 1_556 S
O150 C147 1.238 . S
O151 Co145 2.053 . S
O151 C147 1.238 1_554 S
O152 Co140 2.137 . S
O152 C143 1.247 . S
O153 Co140 2.244 . S
O153 C143 1.272 . S
O153 Co145 2.135 . S
Co154 O155 2.216 . S
Co154 O156 2.091 . S
Co154 O158 2.004 . S
Co154 O164 2.021 . S
Co154 O166 2.137 . S
Co154 O167 2.244 . S
O155 Co154 2.216 . S
O155 C162 1.247 . S
O156 Co154 2.091 . S
O156 C162 1.261 . S
C157 O166 1.247 . S
C157 O167 1.272 . S
O158 Co154 2.004 . S
O158 C163 1.259 . S
Co159 O160 2.061 . S
Co159 O165 2.052 . S
Co159 O167 2.135 . S
O160 Co159 2.061 . S
O160 C163 1.235 . S
C161 O164 1.238 . S
C161 O165 1.241 . S
C162 O155 1.247 . S
C162 O156 1.261 . S
C163 O158 1.259 . S
C163 O160 1.235 . S
O164 Co154 2.021 . S
O164 C161 1.238 . S
O165 Co159 2.052 . S
O165 C161 1.241 . S
O166 Co154 2.137 . S
O166 C157 1.247 . S
O167 Co154 2.244 . S
O167 C157 1.272 . S
O167 Co159 2.135 . S
Co168 O169 2.216 . S
Co168 O170 2.091 . S
Co168 O172 2.004 . S
Co168 O178 2.021 . S
Co168 O180 2.137 . S
Co168 O181 2.244 . S
O169 Co168 2.216 . S
O169 C176 1.247 . S
O170 Co168 2.091 . S
O170 C176 1.261 . S
C171 O180 1.247 . S
C171 O181 1.272 . S
O172 Co168 2.004 . S
O172 C177 1.259 . S
Co173 O174 2.061 . S
Co173 O179 2.052 . S
Co173 O181 2.135 . S
O174 Co173 2.061 . S
O174 C177 1.235 . S
C175 O178 1.238 . S
C175 O179 1.241 . S
C176 O169 1.247 . S
C176 O170 1.261 . S
C177 O172 1.259 . S
C177 O174 1.235 . S
O178 Co168 2.021 . S
O178 C175 1.238 . S
O179 Co173 2.052 . S
O179 C175 1.241 . S
O180 Co168 2.137 . S
O180 C171 1.247 . S
O181 Co168 2.244 . S
O181 C171 1.272 . S
O181 Co173 2.135 . S
Co182 O183 2.216 . S
Co182 O184 2.091 . S
Co182 O186 2.004 . S
Co182 O192 2.021 . S
Co182 O194 2.137 . S
Co182 O195 2.244 . S
O183 Co182 2.216 . S
O183 C190 1.247 . S
O184 Co182 2.091 . S
O184 C190 1.261 . S
C185 O194 1.247 . S
C185 O195 1.272 . S
O186 Co182 2.004 . S
O186 C191 1.259 . S
Co187 O188 2.061 . S
Co187 O193 2.052 . S
Co187 O195 2.135 . S
O188 Co187 2.061 . S
O188 C191 1.235 . S
C189 O192 1.238 . S
C189 O193 1.241 . S
C190 O183 1.247 . S
C190 O184 1.261 . S
C191 O186 1.259 . S
C191 O188 1.235 . S
O192 Co182 2.021 . S
O192 C189 1.238 . S
O193 Co187 2.052 . S
O193 C189 1.241 . S
O194 Co182 2.137 . S
O194 C185 1.247 . S
O195 Co182 2.244 . S
O195 C185 1.272 . S
O195 Co187 2.135 . S
Co196 O197 2.216 1_554 S
Co196 O198 2.091 . S
Co196 O200 2.004 . S
Co196 O206 2.021 . S
Co196 O208 2.137 1_554 S
Co196 O209 2.244 1_554 S
O197 Co196 2.216 1_556 S
O197 C204 1.247 . S
O198 Co196 2.091 . S
O198 C204 1.261 1_554 S
C199 O208 1.247 . S
C199 O209 1.272 . S
O200 Co196 2.004 . S
O200 C205 1.259 . S
Co201 O202 2.061 . S
Co201 O207 2.052 . S
Co201 O209 2.135 1_554 S
O202 Co201 2.061 . S
O202 C205 1.235 . S
C203 O206 1.238 . S
C203 O207 1.241 . S
C204 O197 1.247 . S
C204 O198 1.261 1_556 S
C205 O200 1.259 . S
C205 O202 1.235 . S
O206 Co196 2.021 . S
O206 C203 1.238 . S
O207 Co201 2.052 . S
O207 C203 1.241 . S
O208 Co196 2.137 1_556 S
O208 C199 1.247 . S
O209 Co196 2.244 1_556 S
O209 C199 1.272 . S
O209 Co201 2.135 1_556 S
Co210 O211 2.216 . S
Co210 O212 2.091 . S
Co210 O214 2.004 . S
Co210 O220 2.021 . S
Co210 O222 2.137 . S
Co210 O223 2.244 . S
O211 Co210 2.216 . S
O211 C218 1.247 . S
O212 Co210 2.091 . S
O212 C218 1.261 . S
C213 O222 1.247 . S
C213 O223 1.272 . S
O214 Co210 2.004 . S
O214 C219 1.259 . S
Co215 O216 2.061 . S
Co215 O221 2.052 . S
Co215 O223 2.135 . S
O216 Co215 2.061 . S
O216 C219 1.235 . S
C217 O220 1.238 . S
C217 O221 1.241 . S
C218 O211 1.247 . S
C218 O212 1.261 . S
C219 O214 1.259 . S
C219 O216 1.235 . S
O220 Co210 2.021 . S
O220 C217 1.238 . S
O221 Co215 2.052 . S
O221 C217 1.241 . S
O222 Co210 2.137 . S
O222 C213 1.247 . S
O223 Co210 2.244 . S
O223 C213 1.272 . S
O223 Co215 2.135 . S
H224 C232 0.950 . S
H225 C237 0.950 . S
H226 C234 0.950 . S
H227 C236 0.950 . S
H228 C238 0.950 . S
H229 C240 0.950 . S
H230 C242 0.950 . S
H231 C243 0.950 . S
C232 H224 0.950 . S
C232 C233 1.386 . S
C232 C234 1.391 . S
C233 C232 1.386 . S
C233 C237 1.393 . S
C234 H226 0.950 . S
C234 C232 1.391 . S
C234 C235 1.400 . S
C235 C234 1.400 . S
C235 C236 1.398 . S
C235 C241 1.491 . S
C236 H227 0.950 . S
C236 C235 1.398 . S
C236 C237 1.391 . S
C237 H225 0.950 . S
C237 C233 1.393 . S
C237 C236 1.391 . S
C238 H228 0.950 . S
C238 C239 1.386 . S
C238 C240 1.391 . S
C239 C238 1.386 . S
C239 C243 1.393 . S
C240 H229 0.950 . S
C240 C238 1.391 . S
C240 C241 1.400 . S
C241 C235 1.491 . S
C241 C240 1.400 . S
C241 C242 1.398 . S
C242 H230 0.950 . S
C242 C241 1.398 . S
C242 C243 1.391 . S
C243 H231 0.950 . S
C243 C239 1.393 . S
C243 C242 1.391 . S
H244 C252 0.950 . S
H245 C257 0.940 1_565 S
H246 C254 0.950 . S
H247 C256 0.972 . S
H248 C258 0.950 . S
H249 C260 0.950 . S
H250 C262 0.950 . S
H251 C263 0.950 . S
C252 H244 0.950 . S
C252 C253 1.386 . S
C252 C254 1.391 . S
C253 C252 1.386 . S
C253 C257 1.404 . S
C254 H246 0.950 . S
C254 C252 1.391 . S
C254 C255 1.400 . S
C255 C254 1.400 . S
C255 C256 1.379 1_545 S
C255 C261 1.491 1_655 S
C256 H247 0.972 . S
C256 C255 1.379 1_565 S
C256 C257 1.388 1_565 S
C257 H245 0.940 1_545 S
C257 C253 1.404 . S
C257 C256 1.388 1_545 S
C258 H248 0.950 . S
C258 C259 1.386 1_565 S
C258 C260 1.391 . S
C259 C258 1.386 1_545 S
C259 C263 1.393 . S
C260 H249 0.950 . S
C260 C258 1.391 . S
C260 C261 1.400 1_565 S
C261 C255 1.491 1_455 S
C261 C260 1.400 1_545 S
C261 C262 1.398 . S
C262 H250 0.950 . S
C262 C261 1.398 . S
C262 C263 1.391 . S
C263 H251 0.950 . S
C263 C259 1.393 . S
C263 C262 1.391 . S
H264 C272 0.950 . S
H265 C277 0.950 . S
H266 C274 0.950 . S
H267 C276 0.950 . S
H268 C278 0.950 . S
H269 C280 0.950 . S
H270 C282 0.950 . S
H271 C283 0.950 . S
C272 H264 0.950 . S
C272 C273 1.386 . S
C272 C274 1.391 . S
C273 C272 1.386 . S
C273 C277 1.393 . S
C274 H266 0.950 . S
C274 C272 1.391 . S
C274 C275 1.400 . S
C275 C274 1.400 . S
C275 C276 1.398 . S
C275 C281 1.491 . S
C276 H267 0.950 . S
C276 C275 1.398 . S
C276 C277 1.391 . S
C277 H265 0.950 . S
C277 C273 1.393 . S
C277 C276 1.391 . S
C278 H268 0.950 . S
C278 C279 1.386 . S
C278 C280 1.391 . S
C279 C278 1.386 . S
C279 C283 1.393 . S
C280 H269 0.950 . S
C280 C278 1.391 . S
C280 C281 1.400 . S
C281 C275 1.491 . S
C281 C280 1.400 . S
C281 C282 1.398 . S
C282 H270 0.950 . S
C282 C281 1.398 . S
C282 C283 1.391 . S
C283 H271 0.950 . S
C283 C279 1.393 . S
C283 C282 1.391 . S
H284 C292 0.950 . S
H285 C297 0.950 . S
H286 C294 0.950 . S
H287 C296 0.950 1_556 S
H288 C298 0.950 . S
H289 C300 0.950 . S
H290 C302 0.950 . S
H291 C303 0.950 . S
C292 H284 0.950 . S
C292 C293 1.386 . S
C292 C294 1.391 . S
C293 C292 1.386 . S
C293 C297 1.393 . S
C294 H286 0.950 . S
C294 C292 1.391 . S
C294 C295 1.400 . S
C295 C294 1.400 . S
C295 C296 1.398 . S
C295 C301 1.491 1_554 S
C296 H287 0.950 1_554 S
C296 C295 1.398 . S
C296 C297 1.391 . S
C297 H285 0.950 . S
C297 C293 1.393 . S
C297 C296 1.391 . S
C298 H288 0.950 . S
C298 C299 1.386 . S
C298 C300 1.391 . S
C299 C298 1.386 . S
C299 C303 1.393 . S
C300 H289 0.950 . S
C300 C298 1.391 . S
C300 C301 1.400 . S
C301 C295 1.491 1_556 S
C301 C300 1.400 . S
C301 C302 1.398 1_556 S
C302 H290 0.950 . S
C302 C301 1.398 1_554 S
C302 C303 1.391 1_554 S
C303 H291 0.950 . S
C303 C299 1.393 . S
C303 C302 1.391 1_556 S
H304 C312 0.950 . S
H305 C317 0.950 . S
H306 C314 0.950 . S
H307 C316 0.950 . S
H308 C318 0.950 . S
H309 C320 0.950 . S
H310 C322 0.950 . S
H311 C323 0.950 . S
C312 H304 0.950 . S
C312 C313 1.386 . S
C312 C314 1.391 . S
C313 C312 1.386 . S
C313 C317 1.393 . S
C314 H306 0.950 . S
C314 C312 1.391 . S
C314 C315 1.400 . S
C315 C314 1.400 . S
C315 C316 1.398 . S
C315 C321 1.491 . S
C316 H307 0.950 . S
C316 C315 1.398 . S
C316 C317 1.391 . S
C317 H305 0.950 . S
C317 C313 1.393 . S
C317 C316 1.391 . S
C318 H308 0.950 . S
C318 C319 1.386 . S
C318 C320 1.391 . S
C319 C318 1.386 . S
C319 C323 1.393 . S
C320 H309 0.950 . S
C320 C318 1.391 . S
C320 C321 1.400 . S
C321 C315 1.491 . S
C321 C320 1.400 . S
C321 C322 1.398 . S
C322 H310 0.950 . S
C322 C321 1.398 . S
C322 C323 1.391 . S
C323 H311 0.950 . S
C323 C319 1.393 . S
C323 C322 1.391 . S
H324 C332 0.932 1_565 S
H325 C337 0.950 . S
H326 C334 0.953 . S
H327 C336 0.950 . S
H328 C338 0.950 . S
H329 C340 0.950 . S
H330 C342 0.950 . S
H331 C343 0.950 . S
C332 H324 0.932 1_545 S
C332 C333 1.386 . S
C332 C334 1.391 . S
C333 C332 1.386 . S
C333 C337 1.393 . S
C334 H326 0.953 . S
C334 C332 1.391 . S
C334 C335 1.400 . S
C335 C334 1.400 . S
C335 C336 1.398 . S
C335 C341 1.491 . S
C336 H327 0.950 . S
C336 C335 1.398 . S
C336 C337 1.391 . S
C337 H325 0.950 . S
C337 C333 1.393 . S
C337 C336 1.391 . S
C338 H328 0.950 . S
C338 C339 1.386 . S
C338 C340 1.391 . S
C339 C338 1.386 . S
C339 C343 1.393 . S
C340 H329 0.950 . S
C340 C338 1.391 . S
C340 C341 1.400 . S
C341 C335 1.491 . S
C341 C340 1.400 . S
C341 C342 1.398 . S
C342 H330 0.950 . S
C342 C341 1.398 . S
C342 C343 1.391 . S
C343 H331 0.950 . S
C343 C339 1.393 . S
C343 C342 1.391 . S
H344 C352 0.950 . S
H345 C357 0.950 . S
H346 C354 0.950 . S
H347 C356 0.950 . S
H348 C358 0.950 . S
H349 C360 0.950 . S
H350 C362 0.950 . S
H351 C363 0.950 . S
C352 H344 0.950 . S
C352 C353 1.386 . S
C352 C354 1.391 . S
C353 C352 1.386 . S
C353 C357 1.393 . S
C354 H346 0.950 . S
C354 C352 1.391 . S
C354 C355 1.400 . S
C355 C354 1.400 . S
C355 C356 1.398 . S
C355 C361 1.491 . S
C356 H347 0.950 . S
C356 C355 1.398 . S
C356 C357 1.391 . S
C357 H345 0.950 . S
C357 C353 1.393 . S
C357 C356 1.391 . S
C358 H348 0.950 . S
C358 C359 1.386 . S
C358 C360 1.391 . S
C359 C358 1.386 . S
C359 C363 1.393 . S
C360 H349 0.950 . S
C360 C358 1.391 . S
C360 C361 1.400 . S
C361 C355 1.491 . S
C361 C360 1.400 . S
C361 C362 1.398 . S
C362 H350 0.950 . S
C362 C361 1.398 . S
C362 C363 1.391 . S
C363 H351 0.950 . S
C363 C359 1.393 . S
C363 C362 1.391 . S
H364 C372 0.950 . S
H365 C377 0.950 . S
H366 C374 0.950 . S
H367 C376 0.950 1_554 S
H368 C378 0.950 . S
H369 C380 0.950 . S
H370 C382 0.950 . S
H371 C383 0.950 . S
C372 H364 0.950 . S
C372 C373 1.386 1_565 S
C372 C374 1.391 . S
C373 C372 1.386 1_545 S
C373 C377 1.393 . S
C374 H366 0.950 . S
C374 C372 1.391 . S
C374 C375 1.400 1_565 S
C375 C374 1.400 1_545 S
C375 C376 1.398 . S
C375 C381 1.491 1_456 S
C376 H367 0.950 1_556 S
C376 C375 1.398 . S
C376 C377 1.391 . S
C377 H365 0.950 . S
C377 C373 1.393 . S
C377 C376 1.391 . S
C378 H368 0.950 . S
C378 C379 1.386 . S
C378 C380 1.391 . S
C379 C378 1.386 . S
C379 C383 1.393 1_545 S
C380 H369 0.950 . S
C380 C378 1.391 . S
C380 C381 1.400 . S
C381 C375 1.491 1_654 S
C381 C380 1.400 . S
C381 C382 1.398 1_545 S
C382 H370 0.950 . S
C382 C381 1.398 1_565 S
C382 C383 1.391 . S
C383 H371 0.950 . S
C383 C379 1.393 1_565 S
C383 C382 1.391 . S
H384 C392 0.950 . S
H385 C397 0.950 . S
H386 C394 0.950 . S
H387 C396 0.950 . S
H388 C398 0.950 . S
H389 C400 0.950 . S
H390 C402 0.950 . S
H391 C403 0.950 . S
C392 H384 0.950 . S
C392 C393 1.386 . S
C392 C394 1.391 . S
C393 C392 1.386 . S
C393 C397 1.393 . S
C394 H386 0.950 . S
C394 C392 1.391 . S
C394 C395 1.400 . S
C395 C394 1.400 . S
C395 C396 1.398 . S
C395 C401 1.491 . S
C396 H387 0.950 . S
C396 C395 1.398 . S
C396 C397 1.391 . S
C397 H385 0.950 . S
C397 C393 1.393 . S
C397 C396 1.391 . S
C398 H388 0.950 . S
C398 C399 1.386 . S
C398 C400 1.391 . S
C399 C398 1.386 . S
C399 C403 1.393 . S
C400 H389 0.950 . S
C400 C398 1.391 . S
C400 C401 1.400 . S
C401 C395 1.491 . S
C401 C400 1.400 . S
C401 C402 1.398 . S
C402 H390 0.950 . S
C402 C401 1.398 . S
C402 C403 1.391 . S
C403 H391 0.950 . S
C403 C399 1.393 . S
C403 C402 1.391 . S
H404 C412 0.950 . S
H405 C417 0.950 . S
H406 C414 0.950 . S
H407 C416 0.950 . S
H408 C418 0.950 . S
H409 C420 0.950 . S
H410 C422 0.950 . S
H411 C423 0.950 . S
C412 H404 0.950 . S
C412 C413 1.386 . S
C412 C414 1.391 . S
C413 C412 1.386 . S
C413 C417 1.393 . S
C414 H406 0.950 . S
C414 C412 1.391 . S
C414 C415 1.400 . S
C415 C414 1.400 . S
C415 C416 1.398 . S
C415 C421 1.491 . S
C416 H407 0.950 . S
C416 C415 1.398 . S
C416 C417 1.391 . S
C417 H405 0.950 . S
C417 C413 1.393 . S
C417 C416 1.391 . S
C418 H408 0.950 . S
C418 C419 1.386 . S
C418 C420 1.391 . S
C419 C418 1.386 . S
C419 C423 1.393 . S
C420 H409 0.950 . S
C420 C418 1.391 . S
C420 C421 1.400 . S
C421 C415 1.491 . S
C421 C420 1.400 . S
C421 C422 1.398 . S
C422 H410 0.950 . S
C422 C421 1.398 . S
C422 C423 1.391 . S
C423 H411 0.950 . S
C423 C419 1.393 . S
C423 C422 1.391 . S
H424 C432 0.950 . S
H425 C437 0.950 . S
H426 C434 0.950 . S
H427 C436 0.950 . S
H428 C438 0.950 . S
H429 C440 0.950 . S
H430 C442 0.950 . S
H431 C443 0.950 . S
C432 H424 0.950 . S
C432 C433 1.386 . S
C432 C434 1.391 . S
C433 C432 1.386 . S
C433 C437 1.393 . S
C434 H426 0.950 . S
C434 C432 1.391 . S
C434 C435 1.400 . S
C435 C434 1.400 . S
C435 C436 1.398 . S
C435 C441 1.491 . S
C436 H427 0.950 . S
C436 C435 1.398 . S
C436 C437 1.391 . S
C437 H425 0.950 . S
C437 C433 1.393 . S
C437 C436 1.391 . S
C438 H428 0.950 . S
C438 C439 1.386 . S
C438 C440 1.391 . S
C439 C438 1.386 . S
C439 C443 1.393 . S
C440 H429 0.950 . S
C440 C438 1.391 . S
C440 C441 1.400 . S
C441 C435 1.491 . S
C441 C440 1.400 . S
C441 C442 1.398 . S
C442 H430 0.950 . S
C442 C441 1.398 . S
C442 C443 1.391 . S
C443 H431 0.950 . S
C443 C439 1.393 . S
C443 C442 1.391 . S
H444 C452 0.950 . S
H445 C457 0.950 . S
H446 C454 0.950 . S
H447 C456 0.950 . S
H448 C458 0.950 . S
H449 C460 0.950 . S
H450 C462 0.950 . S
H451 C463 0.950 . S
C452 H444 0.950 . S
C452 C453 1.386 . S
C452 C454 1.391 . S
C453 C452 1.386 . S
C453 C457 1.393 . S
C454 H446 0.950 . S
C454 C452 1.391 . S
C454 C455 1.400 . S
C455 C454 1.400 . S
C455 C456 1.398 . S
C455 C461 1.491 . S
C456 H447 0.950 . S
C456 C455 1.398 . S
C456 C457 1.391 . S
C457 H445 0.950 . S
C457 C453 1.393 . S
C457 C456 1.391 . S
C458 H448 0.950 . S
C458 C459 1.386 . S
C458 C460 1.391 . S
C459 C458 1.386 . S
C459 C463 1.393 . S
C460 H449 0.950 . S
C460 C458 1.391 . S
C460 C461 1.400 . S
C461 C455 1.491 . S
C461 C460 1.400 . S
C461 C462 1.398 . S
C462 H450 0.950 . S
C462 C461 1.398 . S
C462 C463 1.391 . S
C463 H451 0.950 . S
C463 C459 1.393 . S
C463 C462 1.391 . S
H464 C472 0.950 . S
H465 C477 0.950 . S
H466 C474 0.950 1_556 S
H467 C476 0.950 . S
H468 C478 0.950 . S
H469 C480 0.968 . S
H470 C482 0.950 . S
H471 C483 0.950 . S
C472 H464 0.950 . S
C472 C473 1.386 . S
C472 C474 1.391 . S
C473 C472 1.386 . S
C473 C477 1.393 . S
C474 H466 0.950 1_554 S
C474 C472 1.391 . S
C474 C475 1.400 . S
C475 C474 1.400 . S
C475 C476 1.398 . S
C475 C481 1.491 1_554 S
C476 H467 0.950 . S
C476 C475 1.398 . S
C476 C477 1.391 . S
C477 H465 0.950 . S
C477 C473 1.393 . S
C477 C476 1.391 . S
C478 H468 0.950 . S
C478 C479 1.386 . S
C478 C480 1.376 1_556 S
C479 C478 1.386 . S
C479 C483 1.393 . S
C480 H469 0.968 . S
C480 C478 1.376 1_554 S
C480 C481 1.398 1_554 S
C481 C475 1.491 1_556 S
C481 C480 1.398 1_556 S
C481 C482 1.398 . S
C482 H470 0.950 . S
C482 C481 1.398 . S
C482 C483 1.391 . S
C483 H471 0.950 . S
C483 C479 1.393 . S
C483 C482 1.391 . S
H484 C492 0.950 . S
H485 C497 0.950 . S
H486 C494 0.950 . S
H487 C496 0.950 1_655 S
H488 C498 0.950 . S
H489 C500 0.950 . S
H490 C502 0.950 1_455 S
H491 C503 0.950 . S
C492 H484 0.950 . S
C492 C493 1.386 . S
C492 C494 1.391 . S
C493 C492 1.386 . S
C493 C497 1.393 . S
C494 H486 0.950 . S
C494 C492 1.391 . S
C494 C495 1.400 . S
C495 C494 1.400 . S
C495 C496 1.398 . S
C495 C501 1.491 1_455 S
C496 H487 0.950 1_455 S
C496 C495 1.398 . S
C496 C497 1.391 . S
C497 H485 0.950 . S
C497 C493 1.393 . S
C497 C496 1.391 . S
C498 H488 0.950 . S
C498 C499 1.386 . S
C498 C500 1.391 . S
C499 C498 1.386 . S
C499 C503 1.393 . S
C500 H489 0.950 . S
C500 C498 1.391 . S
C500 C501 1.400 . S
C501 C495 1.491 1_655 S
C501 C500 1.400 . S
C501 C502 1.398 . S
C502 H490 0.950 1_655 S
C502 C501 1.398 . S
C502 C503 1.391 . S
C503 H491 0.950 . S
C503 C499 1.393 . S
C503 C502 1.391 . S
H504 C512 0.950 . S
H505 C517 0.950 . S
H506 C514 0.950 1_655 S
H507 C516 0.950 1_556 S
H508 C518 0.950 . S
H509 C520 0.950 1_455 S
H510 C522 0.954 . S
H511 C523 0.950 . S
C512 H504 0.950 . S
C512 C513 1.386 . S
C512 C514 1.391 . S
C513 C512 1.386 . S
C513 C517 1.393 . S
C514 H506 0.950 1_455 S
C514 C512 1.391 . S
C514 C515 1.400 . S
C515 C514 1.400 . S
C515 C516 1.398 . S
C515 C521 1.491 1_454 S
C516 H507 0.950 1_554 S
C516 C515 1.398 . S
C516 C517 1.391 . S
C517 H505 0.950 . S
C517 C513 1.393 . S
C517 C516 1.391 . S
C518 H508 0.950 . S
C518 C519 1.386 . S
C518 C520 1.391 . S
C519 C518 1.386 . S
C519 C523 1.393 . S
C520 H509 0.950 1_655 S
C520 C518 1.391 . S
C520 C521 1.400 . S
C521 C515 1.491 1_656 S
C521 C520 1.400 . S
C521 C522 1.398 1_556 S
C522 H510 0.954 . S
C522 C521 1.398 1_554 S
C522 C523 1.387 1_554 S
C523 H511 0.950 . S
C523 C519 1.393 . S
C523 C522 1.387 1_556 S
H524 C532 0.950 . S
H525 C537 0.950 . S
H526 C534 0.950 . S
H527 C536 0.950 . S
H528 C538 0.950 . S
H529 C540 0.950 . S
H530 C542 0.950 . S
H531 C543 0.950 . S
C532 H524 0.950 . S
C532 C533 1.386 . S
C532 C534 1.391 . S
C533 C532 1.386 . S
C533 C537 1.393 . S
C534 H526 0.950 . S
C534 C532 1.391 . S
C534 C535 1.400 . S
C535 C534 1.400 . S
C535 C536 1.398 . S
C535 C541 1.491 . S
C536 H527 0.950 . S
C536 C535 1.398 . S
C536 C537 1.391 . S
C537 H525 0.950 . S
C537 C533 1.393 . S
C537 C536 1.391 . S
C538 H528 0.950 . S
C538 C539 1.386 . S
C538 C540 1.391 . S
C539 C538 1.386 . S
C539 C543 1.393 . S
C540 H529 0.950 . S
C540 C538 1.391 . S
C540 C541 1.400 . S
C541 C535 1.491 . S
C541 C540 1.400 . S
C541 C542 1.398 . S
C542 H530 0.950 . S
C542 C541 1.398 . S
C542 C543 1.391 . S
C543 H531 0.950 . S
C543 C539 1.393 . S
C543 C542 1.391 . S
H544 C552 0.950 . S
H545 C557 0.950 . S
H546 C554 0.950 . S
H547 C556 0.950 . S
H548 C558 0.950 . S
H549 C560 0.950 . S
H550 C562 0.950 . S
H551 C563 0.950 . S
C552 H544 0.950 . S
C552 C553 1.386 . S
C552 C554 1.391 . S
C553 C552 1.386 . S
C553 C557 1.393 . S
C554 H546 0.950 . S
C554 C552 1.391 . S
C554 C555 1.400 . S
C555 C554 1.400 . S
C555 C556 1.398 . S
C555 C561 1.491 . S
C556 H547 0.950 . S
C556 C555 1.398 . S
C556 C557 1.391 . S
C557 H545 0.950 . S
C557 C553 1.393 . S
C557 C556 1.391 . S
C558 H548 0.950 . S
C558 C559 1.386 . S
C558 C560 1.391 . S
C559 C558 1.386 . S
C559 C563 1.393 . S
C560 H549 0.950 . S
C560 C558 1.391 . S
C560 C561 1.400 . S
C561 C555 1.491 . S
C561 C560 1.400 . S
C561 C562 1.398 . S
C562 H550 0.950 . S
C562 C561 1.398 . S
C562 C563 1.391 . S
C563 H551 0.950 . S
C563 C559 1.393 . S
C563 C562 1.391 . S
H564 C572 0.950 . S
H565 C577 0.950 . S
H566 C574 0.950 . S
H567 C576 0.950 . S
H568 C578 0.950 . S
H569 C580 0.950 . S
H570 C582 0.950 . S
H571 C583 0.950 . S
C572 H564 0.950 . S
C572 C573 1.386 . S
C572 C574 1.391 . S
C573 C572 1.386 . S
C573 C577 1.393 . S
C574 H566 0.950 . S
C574 C572 1.391 . S
C574 C575 1.400 . S
C575 C574 1.400 . S
C575 C576 1.398 . S
C575 C581 1.491 . S
C576 H567 0.950 . S
C576 C575 1.398 . S
C576 C577 1.391 . S
C577 H565 0.950 . S
C577 C573 1.393 . S
C577 C576 1.391 . S
C578 H568 0.950 . S
C578 C579 1.386 . S
C578 C580 1.391 . S
C579 C578 1.386 . S
C579 C583 1.393 . S
C580 H569 0.950 . S
C580 C578 1.391 . S
C580 C581 1.400 . S
C581 C575 1.491 . S
C581 C580 1.400 . S
C581 C582 1.398 . S
C582 H570 0.950 . S
C582 C581 1.398 . S
C582 C583 1.391 . S
C583 H571 0.950 . S
C583 C579 1.393 . S
C583 C582 1.391 . S
H584 C592 0.950 . S
H585 C597 0.950 . S
H586 C594 0.950 . S
H587 C596 0.950 . S
H588 C598 0.950 . S
H589 C600 0.950 . S
H590 C602 0.950 . S
H591 C603 0.950 . S
C592 H584 0.950 . S
C592 C593 1.386 . S
C592 C594 1.391 . S
C593 C592 1.386 . S
C593 C597 1.393 . S
C594 H586 0.950 . S
C594 C592 1.391 . S
C594 C595 1.400 . S
C595 C594 1.400 . S
C595 C596 1.398 . S
C595 C601 1.491 . S
C596 H587 0.950 . S
C596 C595 1.398 . S
C596 C597 1.391 . S
C597 H585 0.950 . S
C597 C593 1.393 . S
C597 C596 1.391 . S
C598 H588 0.950 . S
C598 C599 1.386 . S
C598 C600 1.391 . S
C599 C598 1.386 . S
C599 C603 1.393 . S
C600 H589 0.950 . S
C600 C598 1.391 . S
C600 C601 1.400 . S
C601 C595 1.491 . S
C601 C600 1.400 . S
C601 C602 1.398 . S
C602 H590 0.950 . S
C602 C601 1.398 . S
C602 C603 1.391 . S
C603 H591 0.950 . S
C603 C599 1.393 . S
C603 C602 1.391 . S
H604 C612 0.950 1_554 S
H605 C617 0.950 . S
H606 C614 0.950 . S
H607 C616 0.950 . S
H608 C618 0.950 . S
H609 C620 0.950 . S
H610 C622 0.950 . S
H611 C623 0.950 . S
C612 H604 0.950 1_556 S
C612 C613 1.386 . S
C612 C614 1.391 . S
C613 C612 1.386 . S
C613 C617 1.393 . S
C614 H606 0.950 . S
C614 C612 1.391 . S
C614 C615 1.400 . S
C615 C614 1.400 . S
C615 C616 1.398 . S
C615 C621 1.491 . S
C616 H607 0.950 . S
C616 C615 1.398 . S
C616 C617 1.391 . S
C617 H605 0.950 . S
C617 C613 1.393 . S
C617 C616 1.391 . S
C618 H608 0.950 . S
C618 C619 1.386 . S
C618 C620 1.391 . S
C619 C618 1.386 . S
C619 C623 1.393 . S
C620 H609 0.950 . S
C620 C618 1.391 . S
C620 C621 1.400 . S
C621 C615 1.491 . S
C621 C620 1.400 . S
C621 C622 1.398 . S
C622 H610 0.950 . S
C622 C621 1.398 . S
C622 C623 1.391 . S
C623 H611 0.950 . S
C623 C619 1.393 . S
C623 C622 1.391 . S
H624 C632 0.950 . S
H625 C637 0.950 . S
H626 C634 0.950 . S
H627 C636 0.950 . S
H628 C638 0.950 . S
H629 C640 0.950 . S
H630 C642 0.950 . S
H631 C643 0.950 . S
C632 H624 0.950 . S
C632 C633 1.386 . S
C632 C634 1.391 . S
C633 C632 1.386 . S
C633 C637 1.393 . S
C634 H626 0.950 . S
C634 C632 1.391 . S
C634 C635 1.400 . S
C635 C634 1.400 . S
C635 C636 1.398 . S
C635 C641 1.491 . S
C636 H627 0.950 . S
C636 C635 1.398 . S
C636 C637 1.391 . S
C637 H625 0.950 . S
C637 C633 1.393 . S
C637 C636 1.391 . S
C638 H628 0.950 . S
C638 C639 1.386 . S
C638 C640 1.391 . S
C639 C638 1.386 . S
C639 C643 1.393 . S
C640 H629 0.950 . S
C640 C638 1.391 . S
C640 C641 1.400 . S
C641 C635 1.491 . S
C641 C640 1.400 . S
C641 C642 1.398 . S
C642 H630 0.950 . S
C642 C641 1.398 . S
C642 C643 1.391 . S
C643 H631 0.950 . S
C643 C639 1.393 . S
C643 C642 1.391 . S
H644 C652 0.950 . S
H645 C657 0.950 . S
H646 C654 0.950 . S
H647 C656 0.950 . S
H648 C658 0.950 . S
H649 C660 0.950 . S
H650 C662 0.950 . S
H651 C663 0.950 . S
C652 H644 0.950 . S
C652 C653 1.386 . S
C652 C654 1.391 . S
C653 C652 1.386 . S
C653 C657 1.393 . S
C654 H646 0.950 . S
C654 C652 1.391 . S
C654 C655 1.400 . S
C655 C654 1.400 . S
C655 C656 1.398 . S
C655 C661 1.491 . S
C656 H647 0.950 . S
C656 C655 1.398 . S
C656 C657 1.391 . S
C657 H645 0.950 . S
C657 C653 1.393 . S
C657 C656 1.391 . S
C658 H648 0.950 . S
C658 C659 1.386 . S
C658 C660 1.391 . S
C659 C658 1.386 . S
C659 C663 1.393 . S
C660 H649 0.950 . S
C660 C658 1.391 . S
C660 C661 1.400 . S
C661 C655 1.491 . S
C661 C660 1.400 . S
C661 C662 1.398 . S
C662 H650 0.950 . S
C662 C661 1.398 . S
C662 C663 1.391 . S
C663 H651 0.950 . S
C663 C659 1.393 . S
C663 C662 1.391 . S
H664 C672 0.950 . S
H665 C677 0.950 . S
H666 C674 0.950 . S
H667 C676 0.950 . S
H668 C678 0.950 . S
H669 C680 0.950 . S
H670 C682 0.950 . S
H671 C683 0.950 . S
C672 H664 0.950 . S
C672 C673 1.386 . S
C672 C674 1.391 . S
C673 C672 1.386 . S
C673 C677 1.393 . S
C674 H666 0.950 . S
C674 C672 1.391 . S
C674 C675 1.400 . S
C675 C674 1.400 . S
C675 C676 1.398 . S
C675 C681 1.491 . S
C676 H667 0.950 . S
C676 C675 1.398 . S
C676 C677 1.391 . S
C677 H665 0.950 . S
C677 C673 1.393 . S
C677 C676 1.391 . S
C678 H668 0.950 . S
C678 C679 1.386 . S
C678 C680 1.391 . S
C679 C678 1.386 . S
C679 C683 1.393 . S
C680 H669 0.950 . S
C680 C678 1.391 . S
C680 C681 1.400 . S
C681 C675 1.491 . S
C681 C680 1.400 . S
C681 C682 1.398 . S
C682 H670 0.950 . S
C682 C681 1.398 . S
C682 C683 1.391 . S
C683 H671 0.950 . S
C683 C679 1.393 . S
C683 C682 1.391 . S
H684 C692 0.950 . S
H685 C697 0.950 . S
H686 C694 0.950 . S
H687 C696 0.950 . S
H688 C698 0.950 . S
H689 C700 0.950 . S
H690 C702 0.950 . S
H691 C703 0.950 . S
C692 H684 0.950 . S
C692 C693 1.386 . S
C692 C694 1.391 . S
C693 C692 1.386 . S
C693 C697 1.393 . S
C694 H686 0.950 . S
C694 C692 1.391 . S
C694 C695 1.400 . S
C695 C694 1.400 . S
C695 C696 1.398 . S
C695 C701 1.491 . S
C696 H687 0.950 . S
C696 C695 1.398 . S
C696 C697 1.391 . S
C697 H685 0.950 . S
C697 C693 1.393 . S
C697 C696 1.391 . S
C698 H688 0.950 . S
C698 C699 1.386 . S
C698 C700 1.391 . S
C699 C698 1.386 . S
C699 C703 1.393 . S
C700 H689 0.950 . S
C700 C698 1.391 . S
C700 C701 1.400 . S
C701 C695 1.491 . S
C701 C700 1.400 . S
C701 C702 1.398 . S
C702 H690 0.950 . S
C702 C701 1.398 . S
C702 C703 1.391 . S
C703 H691 0.950 . S
C703 C699 1.393 . S
C703 C702 1.391 . S
H704 C712 0.950 . S
H705 C717 0.950 1_554 S
H706 C714 0.950 . S
H707 C716 0.950 . S
H708 C718 0.950 . S
H709 C720 0.950 . S
H710 C722 0.950 . S
H711 C723 0.950 . S
C712 H704 0.950 . S
C712 C713 1.386 . S
C712 C714 1.391 . S
C713 C712 1.386 . S
C713 C717 1.393 . S
C714 H706 0.950 . S
C714 C712 1.391 . S
C714 C715 1.400 . S
C715 C714 1.400 . S
C715 C716 1.398 . S
C715 C721 1.491 . S
C716 H707 0.950 . S
C716 C715 1.398 . S
C716 C717 1.391 . S
C717 H705 0.950 1_556 S
C717 C713 1.393 . S
C717 C716 1.391 . S
C718 H708 0.950 . S
C718 C719 1.386 . S
C718 C720 1.391 . S
C719 C718 1.386 . S
C719 C723 1.393 . S
C720 H709 0.950 . S
C720 C718 1.391 . S
C720 C721 1.400 . S
C721 C715 1.491 . S
C721 C720 1.400 . S
C721 C722 1.398 . S
C722 H710 0.950 . S
C722 C721 1.398 . S
C722 C723 1.391 . S
C723 H711 0.950 . S
C723 C719 1.393 . S
C723 C722 1.391 . S
H724 C732 0.950 . S
H725 C737 0.950 . S
H726 C734 0.950 . S
H727 C736 0.950 . S
H728 C738 0.950 . S
H729 C740 0.950 . S
H730 C742 0.950 . S
H731 C743 0.950 . S
C732 H724 0.950 . S
C732 C733 1.386 . S
C732 C734 1.391 . S
C733 C732 1.386 . S
C733 C737 1.393 . S
C734 H726 0.950 . S
C734 C732 1.391 . S
C734 C735 1.400 . S
C735 C734 1.400 . S
C735 C736 1.398 . S
C735 C741 1.491 . S
C736 H727 0.950 . S
C736 C735 1.398 . S
C736 C737 1.391 . S
C737 H725 0.950 . S
C737 C733 1.393 . S
C737 C736 1.391 . S
C738 H728 0.950 . S
C738 C739 1.386 . S
C738 C740 1.391 . S
C739 C738 1.386 . S
C739 C743 1.393 . S
C740 H729 0.950 . S
C740 C738 1.391 . S
C740 C741 1.400 . S
C741 C735 1.491 . S
C741 C740 1.400 . S
C741 C742 1.398 . S
C742 H730 0.950 . S
C742 C741 1.398 . S
C742 C743 1.391 . S
C743 H731 0.950 . S
C743 C739 1.393 . S
C743 C742 1.391 . S
H744 C752 0.950 . S
H745 C757 0.950 . S
H746 C754 0.950 . S
H747 C756 0.950 . S
H748 C758 0.950 . S
H749 C760 0.950 . S
H750 C762 0.950 . S
H751 C763 0.950 . S
C752 H744 0.950 . S
C752 C753 1.386 . S
C752 C754 1.391 . S
C753 C752 1.386 . S
C753 C757 1.393 . S
C754 H746 0.950 . S
C754 C752 1.391 . S
C754 C755 1.400 . S
C755 C754 1.400 . S
C755 C756 1.398 . S
C755 C761 1.491 . S
C756 H747 0.950 . S
C756 C755 1.398 . S
C756 C757 1.391 . S
C757 H745 0.950 . S
C757 C753 1.393 . S
C757 C756 1.391 . S
C758 H748 0.950 . S
C758 C759 1.386 . S
C758 C760 1.391 . S
C759 C758 1.386 . S
C759 C763 1.393 . S
C760 H749 0.950 . S
C760 C758 1.391 . S
C760 C761 1.400 . S
C761 C755 1.491 . S
C761 C760 1.400 . S
C761 C762 1.398 . S
C762 H750 0.950 . S
C762 C761 1.398 . S
C762 C763 1.391 . S
C763 H751 0.950 . S
C763 C759 1.393 . S
C763 C762 1.391 . S
H764 C772 0.950 . S
H765 C777 0.950 . S
H766 C774 0.950 . S
H767 C776 0.950 . S
H768 C778 0.950 . S
H769 C780 0.950 . S
H770 C782 0.950 . S
H771 C783 0.950 . S
C772 H764 0.950 . S
C772 C773 1.386 . S
C772 C774 1.391 . S
C773 C772 1.386 . S
C773 C777 1.393 . S
C774 H766 0.950 . S
C774 C772 1.391 . S
C774 C775 1.400 . S
C775 C774 1.400 . S
C775 C776 1.398 . S
C775 C781 1.491 . S
C776 H767 0.950 . S
C776 C775 1.398 . S
C776 C777 1.391 . S
C777 H765 0.950 . S
C777 C773 1.393 . S
C777 C776 1.391 . S
C778 H768 0.950 . S
C778 C779 1.386 . S
C778 C780 1.391 . S
C779 C778 1.386 . S
C779 C783 1.393 . S
C780 H769 0.950 . S
C780 C778 1.391 . S
C780 C781 1.400 . S
C781 C775 1.491 . S
C781 C780 1.400 . S
C781 C782 1.398 . S
C782 H770 0.950 . S
C782 C781 1.398 . S
C782 C783 1.391 . S
C783 H771 0.950 . S
C783 C779 1.393 . S
C783 C782 1.391 . S
H784 C792 0.950 . S
H785 C797 0.950 . S
H786 C794 0.950 . S
H787 C796 0.950 . S
H788 C798 0.950 . S
H789 C800 0.950 . S
H790 C802 0.950 . S
H791 C803 0.950 . S
C792 H784 0.950 . S
C792 C793 1.386 . S
C792 C794 1.391 . S
C793 C792 1.386 . S
C793 C797 1.393 . S
C794 H786 0.950 . S
C794 C792 1.391 . S
C794 C795 1.400 . S
C795 C794 1.400 . S
C795 C796 1.398 . S
C795 C801 1.491 . S
C796 H787 0.950 . S
C796 C795 1.398 . S
C796 C797 1.391 . S
C797 H785 0.950 . S
C797 C793 1.393 . S
C797 C796 1.391 . S
C798 H788 0.950 . S
C798 C799 1.386 . S
C798 C800 1.391 . S
C799 C798 1.386 . S
C799 C803 1.393 . S
C800 H789 0.950 . S
C800 C798 1.391 . S
C800 C801 1.400 . S
C801 C795 1.491 . S
C801 C800 1.400 . S
C801 C802 1.398 . S
C802 H790 0.950 . S
C802 C801 1.398 . S
C802 C803 1.391 . S
C803 H791 0.950 . S
C803 C799 1.393 . S
C803 C802 1.391 . S
H804 C812 0.950 . S
H805 C817 0.950 . S
H806 C814 0.950 . S
H807 C816 0.950 . S
H808 C818 0.950 . S
H809 C820 0.950 . S
H810 C822 0.950 . S
H811 C823 0.950 . S
C812 H804 0.950 . S
C812 C813 1.386 . S
C812 C814 1.391 . S
C813 C812 1.386 . S
C813 C817 1.393 . S
C814 H806 0.950 . S
C814 C812 1.391 . S
C814 C815 1.400 . S
C815 C814 1.400 . S
C815 C816 1.398 . S
C815 C821 1.491 . S
C816 H807 0.950 . S
C816 C815 1.398 . S
C816 C817 1.391 . S
C817 H805 0.950 . S
C817 C813 1.393 . S
C817 C816 1.391 . S
C818 H808 0.950 . S
C818 C819 1.386 . S
C818 C820 1.391 . S
C819 C818 1.386 . S
C819 C823 1.393 . S
C820 H809 0.950 . S
C820 C818 1.391 . S
C820 C821 1.400 . S
C821 C815 1.491 . S
C821 C820 1.400 . S
C821 C822 1.398 . S
C822 H810 0.950 . S
C822 C821 1.398 . S
C822 C823 1.391 . S
C823 H811 0.950 . S
C823 C819 1.393 . S
C823 C822 1.391 . S
H824 C832 0.950 . S
H825 C837 0.950 . S
H826 C834 0.950 . S
H827 C836 0.950 . S
H828 C838 0.950 . S
H829 C840 0.950 . S
H830 C842 0.950 . S
H831 C843 0.950 . S
C832 H824 0.950 . S
C832 C833 1.386 . S
C832 C834 1.391 . S
C833 C832 1.386 . S
C833 C837 1.393 . S
C834 H826 0.950 . S
C834 C832 1.391 . S
C834 C835 1.400 . S
C835 C834 1.400 . S
C835 C836 1.398 . S
C835 C841 1.491 . S
C836 H827 0.950 . S
C836 C835 1.398 . S
C836 C837 1.391 . S
C837 H825 0.950 . S
C837 C833 1.393 . S
C837 C836 1.391 . S
C838 H828 0.950 . S
C838 C839 1.386 . S
C838 C840 1.391 . S
C839 C838 1.386 . S
C839 C843 1.393 . S
C840 H829 0.950 . S
C840 C838 1.391 . S
C840 C841 1.400 . S
C841 C835 1.491 . S
C841 C840 1.400 . S
C841 C842 1.398 . S
C842 H830 0.950 . S
C842 C841 1.398 . S
C842 C843 1.391 . S
C843 H831 0.950 . S
C843 C839 1.393 . S
C843 C842 1.391 . S
H844 C852 0.950 . S
H845 C857 0.950 . S
H846 C854 0.950 . S
H847 C856 0.950 . S
H848 C858 0.950 . S
H849 C860 0.950 . S
H850 C862 0.950 . S
H851 C863 0.950 . S
C852 H844 0.950 . S
C852 C853 1.386 . S
C852 C854 1.391 . S
C853 C852 1.386 . S
C853 C857 1.393 . S
C854 H846 0.950 . S
C854 C852 1.391 . S
C854 C855 1.400 . S
C855 C854 1.400 . S
C855 C856 1.398 . S
C855 C861 1.491 . S
C856 H847 0.950 . S
C856 C855 1.398 . S
C856 C857 1.391 . S
C857 H845 0.950 . S
C857 C853 1.393 . S
C857 C856 1.391 . S
C858 H848 0.950 . S
C858 C859 1.386 . S
C858 C860 1.391 . S
C859 C858 1.386 . S
C859 C863 1.393 . S
C860 H849 0.950 . S
C860 C858 1.391 . S
C860 C861 1.400 . S
C861 C855 1.491 . S
C861 C860 1.400 . S
C861 C862 1.398 . S
C862 H850 0.950 . S
C862 C861 1.398 . S
C862 C863 1.391 . S
C863 H851 0.950 . S
C863 C859 1.393 . S
C863 C862 1.391 . S
C233 C3 1.499 . S
C239 C171 1.499 . S
C253 C23 1.320 . S
C259 C79 1.320 . S
C273 C31 1.503 . S
C279 C199 1.503 . S
C293 C107 1.314 . S
C299 C51 1.314 . S
C313 C205 1.319 . S
C319 C37 1.319 . S
C333 C101 1.503 . S
C339 C45 1.503 . S
C353 C177 1.312 . S
C359 C9 1.312 . S
C373 C73 1.500 . S
C379 C17 1.500 . S
C393 C59 1.504 . S
C399 C115 1.504 . S
C413 C87 1.499 . S
C419 C143 1.499 . S
C433 C149 1.328 . S
C439 C93 1.328 . S
C453 C65 1.323 . S
C459 C121 1.323 . S
C473 C191 1.330 . S
C479 C135 1.330 . S
C493 C163 1.316 . S
C499 C219 1.316 . S
C513 C157 1.504 . S
C519 C213 1.504 . S
C533 C129 1.504 . S
C539 C185 1.504 . S
C553 C162 1.486 . S
C559 C8 1.485 . S
C573 C119 1.471 . S
C579 C21 1.469 . S
C593 C36 1.486 . S
C599 C134 1.487 . S
C613 C147 1.459 . S
C619 C49 1.474 . S
C633 C161 1.474 . S
C639 C35 1.465 . S
C653 C50 1.487 . S
C659 C120 1.484 . S
C673 C133 1.464 . S
C679 C7 1.466 . S
C693 C148 1.487 . S
C699 C22 1.484 . S
C713 C64 1.484 . S
C719 C218 1.487 . S
C733 C175 1.462 . S
C739 C77 1.469 . S
C753 C92 1.487 . S
C759 C190 1.485 . S
C773 C105 1.463 . S
C779 C203 1.467 . S
C793 C91 1.458 . S
C799 C217 1.474 . S
C813 C176 1.485 . S
C819 C106 1.485 . S
C833 C189 1.466 . S
C839 C63 1.464 . S
C853 C204 1.485 . S
C859 C78 1.485 . S
