# Generated by pormake.
# Topology smm, (6)-cn, num edge types: 1
# Building blocks:
#     Node 0, Type 0, BuildingBlock: PAMTOO_clean_sbu_0, # of connection points: 6
#     Node 1, Type 0, BuildingBlock: PAMTOO_clean_sbu_0, # of connection points: 6
#     Node 2, Type 0, BuildingBlock: PAMTOO_clean_sbu_0, # of connection points: 6
#     Node 3, Type 0, BuildingBlock: PAMTOO_clean_sbu_0, # of connection points: 6
#     Node 4, Type 0, BuildingBlock: PAMTOO_clean_sbu_0, # of connection points: 6
#     Node 5, Type 0, BuildingBlock: PAMTOO_clean_sbu_0, # of connection points: 6
#     Node 6, Type 0, BuildingBlock: PAMTOO_clean_sbu_0, # of connection points: 6
#     Node 7, Type 0, BuildingBlock: PAMTOO_clean_sbu_0, # of connection points: 6
#     Node 8, Type 0, BuildingBlock: PAMTOO_clean_sbu_0, # of connection points: 6
#     Edge 9, Type (0, 0), BuildingBlock: KIFKEQ_clean_linker_1, # of connection points: 2
#     Edge 10, Type (0, 0), BuildingBlock: KIFKEQ_clean_linker_1, # of connection points: 2
#     Edge 11, Type (0, 0), BuildingBlock: KIFKEQ_clean_linker_1, # of connection points: 2
#     Edge 12, Type (0, 0), BuildingBlock: KIFKEQ_clean_linker_1, # of connection points: 2
#     Edge 13, Type (0, 0), BuildingBlock: KIFKEQ_clean_linker_1, # of connection points: 2
#     Edge 14, Type (0, 0), BuildingBlock: KIFKEQ_clean_linker_1, # of connection points: 2
#     Edge 15, Type (0, 0), BuildingBlock: KIFKEQ_clean_linker_1, # of connection points: 2
#     Edge 16, Type (0, 0), BuildingBlock: KIFKEQ_clean_linker_1, # of connection points: 2
#     Edge 17, Type (0, 0), BuildingBlock: KIFKEQ_clean_linker_1, # of connection points: 2
#     Edge 18, Type (0, 0), BuildingBlock: KIFKEQ_clean_linker_1, # of connection points: 2
#     Edge 19, Type (0, 0), BuildingBlock: KIFKEQ_clean_linker_1, # of connection points: 2
#     Edge 20, Type (0, 0), BuildingBlock: KIFKEQ_clean_linker_1, # of connection points: 2
#     Edge 21, Type (0, 0), BuildingBlock: KIFKEQ_clean_linker_1, # of connection points: 2
#     Edge 22, Type (0, 0), BuildingBlock: KIFKEQ_clean_linker_1, # of connection points: 2
#     Edge 23, Type (0, 0), BuildingBlock: KIFKEQ_clean_linker_1, # of connection points: 2
#     Edge 24, Type (0, 0), BuildingBlock: KIFKEQ_clean_linker_1, # of connection points: 2
#     Edge 25, Type (0, 0), BuildingBlock: KIFKEQ_clean_linker_1, # of connection points: 2
#     Edge 26, Type (0, 0), BuildingBlock: KIFKEQ_clean_linker_1, # of connection points: 2
#     Edge 27, Type (0, 0), BuildingBlock: KIFKEQ_clean_linker_1, # of connection points: 2
#     Edge 28, Type (0, 0), BuildingBlock: KIFKEQ_clean_linker_1, # of connection points: 2
#     Edge 29, Type (0, 0), BuildingBlock: KIFKEQ_clean_linker_1, # of connection points: 2
#     Edge 30, Type (0, 0), BuildingBlock: KIFKEQ_clean_linker_1, # of connection points: 2
#     Edge 31, Type (0, 0), BuildingBlock: KIFKEQ_clean_linker_1, # of connection points: 2
#     Edge 32, Type (0, 0), BuildingBlock: KIFKEQ_clean_linker_1, # of connection points: 2
#     Edge 33, Type (0, 0), BuildingBlock: KIFKEQ_clean_linker_1, # of connection points: 2
#     Edge 34, Type (0, 0), BuildingBlock: KIFKEQ_clean_linker_1, # of connection points: 2
#     Edge 35, Type (0, 0), BuildingBlock: KIFKEQ_clean_linker_1, # of connection points: 2
# Relax obj value: 0.052
# Max RMSD: 0.133
# Mean RMSD: 0.133
data_MOF--net-smm--node1-PAMTOO_clean_sbu_0--edge1-KIFKEQ_clean_linker_1
_symmetry_space_group_name_H-M    P1
_symmetry_Int_Tables_number       1
_symmetry_cell_setting            triclinic
loop_
_symmetry_equiv_pos_as_xyz
'x, y, z'
_cell_length_a     72.041781
_cell_length_b     72.051004
_cell_length_c     14.549841
_cell_angle_alpha  90.042401
_cell_angle_beta   90.055351
_cell_angle_gamma 119.94102
loop_
_atom_site_label
_atom_site_type_symbol
_atom_site_fract_x
_atom_site_fract_y
_atom_site_fract_z
_atom_type_partial_charge
Dy0 Dy 1.00391 0.16233 0.02975 0.0
Dy1 Dy 0.05126 0.21609 -0.01069 0.0
C2 C 0.03872 0.19807 0.18897 0.0
O3 O 0.99451 0.18787 0.04525 0.0
O4 O 0.02552 0.22209 0.04205 0.0
O5 O 0.9933 0.1356 0.12264 0.0
O6 O 0.97066 0.13717 0.02943 0.0
O7 O 0.02544 0.18864 0.92991 0.0
O8 O 0.9999 0.16087 0.87524 0.0
O9 O 0.06339 0.19276 0.98153 0.0
O10 O 0.03271 0.15866 0.00111 0.0
O11 O 0.05759 0.23617 0.86953 0.0
O12 O 0.08249 0.24397 0.9732 0.0
C13 C 1.00463 0.2091 0.05367 0.0
O14 O 0.02165 0.18083 0.15559 0.0
O15 O 0.05304 0.21431 0.13962 0.0
C16 C 0.96496 0.10245 0.06935 0.0
C17 C 0.94702 0.05794 0.03827 0.0
C18 C 0.95826 0.06742 0.11994 0.0
C19 C 0.96705 0.08938 0.13532 0.0
C20 C 0.95387 0.09308 -0.01263 0.0
C21 C 0.94501 0.07106 0.97204 0.0
C22 C 0.97394 0.12556 0.08907 0.0
C23 C 1.01582 0.17934 0.85546 0.0
C24 C 0.05361 0.17154 -0.01119 0.0
C25 C 0.08434 0.27304 0.88574 0.0
C26 C 0.10208 0.31769 0.85572 0.0
C27 C 0.09387 0.30305 0.7821 0.0
C28 C 0.08515 0.28104 0.797 0.0
C29 C 0.09201 0.2875 0.95991 0.0
C30 C 0.10077 0.30956 0.94504 0.0
C31 C 0.07703 0.24994 0.8974 0.0
H32 H 0.95987 0.05779 0.17305 0.0
H33 H 0.97536 0.09615 0.19947 0.0
H34 H 0.95195 0.10268 0.9351 0.0
H35 H 0.93669 0.06435 0.90791 0.0
H36 H 0.09479 0.30862 0.71225 0.0
H37 H 0.0795 0.27027 0.73853 0.0
H38 H 0.09157 0.28183 0.02924 0.0
H39 H 0.10659 0.32025 0.00365 0.0
Dy40 Dy 0.8875 0.85694 0.02688 0.0
Dy41 Dy 0.83351 0.85007 -0.01218 0.0
C42 C 0.8519 0.85622 0.1868 0.0
O43 O 0.86205 0.82204 0.04831 0.0
O44 O 0.82766 0.81845 0.0389 0.0
O45 O 0.91435 0.87384 0.11897 0.0
O46 O 0.9133 0.84967 0.02697 0.0
O47 O 0.86063 0.85114 0.92765 0.0
O48 O 0.88818 0.85288 0.87293 0.0
O49 O 0.85662 0.88533 0.9842 0.0
O50 O 0.89098 0.88892 -0.01213 0.0
O51 O 0.81344 0.83703 0.8675 0.0
O52 O 0.80573 0.85369 0.97351 0.0
C53 C 0.84073 0.81077 0.05428 0.0
O54 O 0.86944 0.85711 0.15275 0.0
O55 O 0.8352 0.85332 0.138 0.0
C56 C 0.94786 0.87897 0.06865 0.0
C57 C 0.99265 0.90549 0.04262 0.0
C58 C 0.98283 0.90637 0.12481 0.0
C59 C 0.96076 0.89327 0.1376 0.0
C60 C 0.95753 0.87812 -0.01393 0.0
C61 C 0.97967 0.89124 0.97322 0.0
C62 C 0.92468 0.8647 0.08658 0.0
C63 C 0.86966 0.8503 0.8533 0.0
C64 C 0.87784 0.89683 0.9822 0.0
C65 C 0.77664 0.82691 0.8848 0.0
C66 C 0.73216 0.79997 0.85314 0.0
C67 C 0.747 0.80537 0.78107 0.0
C68 C 0.76894 0.8187 0.79675 0.0
C69 C 0.76194 0.82122 0.95754 0.0
C70 C 0.73994 0.8079 0.94182 0.0
C71 C 0.79971 0.84262 0.89679 0.0
H72 H 0.99226 0.91686 0.18043 0.0
H73 H 0.95377 0.89414 0.20226 0.0
H74 H 0.94805 0.86727 0.9315 0.0
H75 H 0.98658 0.8903 0.90856 0.0
H76 H 0.74162 0.79983 0.71169 0.0
H77 H 0.77989 0.82302 0.7393 0.0
H78 H 0.76737 0.8273 0.02628 0.0
H79 H 0.72902 0.80386 -0.00085 0.0
Dy80 Dy 0.19596 0.0457 0.0237 0.0
Dy81 Dy 0.20147 1.00144 -0.00757 0.0
C82 C 0.18994 0.0141 0.1799 0.0
O83 O 0.23121 0.05774 0.0069 0.0
O84 O 0.23245 0.02746 0.04914 0.0
O85 O 0.18575 0.06286 0.11278 0.0
O86 O 0.20059 0.07658 0.98154 0.0
O87 O 0.21046 0.02223 0.86942 0.0
O88 O 0.18651 0.03392 0.88264 0.0
O89 O 0.1663 0.9893 0.97183 0.0
O90 O 0.16245 0.0178 0.02342 0.0
O91 O 0.20024 0.97709 0.90082 0.0
O92 O 0.21025 0.97864 0.04276 0.0
C93 C 0.24186 0.04829 0.03544 0.0
O94 O 0.20211 0.0339 0.15318 0.0
O95 O 0.18506 0.99794 0.12493 0.0
C96 C 0.17453 0.08524 0.03856 0.0
C97 C 0.1466 0.1022 0.01934 0.0
C98 C 0.14401 0.08829 0.09219 0.0
C99 C 0.15788 0.08002 0.10203 0.0
C100 C 0.17681 0.09881 0.96474 0.0
C101 C 0.16303 0.10717 0.95524 0.0
C102 C 0.19055 0.07819 0.05338 0.0
C103 C 0.19673 0.02692 0.83253 0.0
C104 C 0.1544 0.99781 -0.00493 0.0
C105 C 0.22363 0.96299 0.93491 0.0
C106 C 0.24986 0.94537 0.88412 0.0
C107 C 0.24039 0.95208 0.81675 0.0
C108 C 0.2274 0.9607 0.84178 0.0
C109 C 0.23347 0.95674 0.0021 0.0
C110 C 0.24645 0.94817 0.97717 0.0
C111 C 0.20765 0.96934 0.96292 0.0
H112 H 0.13167 0.08432 0.14334 0.0
H113 H 0.15579 0.06989 0.16059 0.0
H114 H 0.18955 0.10334 0.91508 0.0
H115 H 0.16531 0.11765 0.89779 0.0
H116 H 0.24238 0.95 0.74442 0.0
H117 H 0.21984 0.96501 0.78801 0.0
H118 H 0.23073 0.95799 0.07446 0.0
H119 H 0.2537 0.94359 0.03122 0.0
Dy120 Dy 0.67012 0.49435 0.36185 0.0
Dy121 Dy 0.71789 0.55005 0.31299 0.0
C122 C 0.70745 0.53542 0.49836 0.0
O123 O 0.66027 0.51962 0.38181 0.0
O124 O 0.69014 0.55431 0.35511 0.0
O125 O 0.66418 0.47009 0.46412 0.0
O126 O 0.6377 0.46973 0.39019 0.0
O127 O 0.69247 0.5218 0.24355 0.0
O128 O 0.66538 0.49123 0.20961 0.0
O129 O 0.72909 0.5257 0.31518 0.0
O130 O 0.69862 0.49086 0.32403 0.0
O131 O 0.72362 0.57082 0.19637 0.0
O132 O 0.74987 0.57618 0.28737 0.0
C133 C 0.66972 0.54098 0.37683 0.0
O134 O 0.69541 0.52226 0.43442 0.0
O135 O 0.72262 0.55342 0.4654 0.0
C136 C 0.63445 0.43582 0.42453 0.0
C137 C 0.61587 0.3911 0.39201 0.0
C138 C 0.62928 0.40085 0.46849 0.0
C139 C 0.63834 0.4229 0.48478 0.0
C140 C 0.62127 0.42611 0.34731 0.0
C141 C 0.61204 0.40404 0.33156 0.0
C142 C 0.64373 0.45912 0.44391 0.0
C143 C 0.68086 0.50905 0.17753 0.0
C144 C 0.71962 0.50436 0.31677 0.0
C145 C 0.75237 0.60662 0.20979 0.0
C146 C 0.77036 0.65146 0.18796 0.0
C147 C 0.76196 0.63752 0.11216 0.0
C148 C 0.7531 0.61542 0.12303 0.0
C149 C 0.76051 0.62038 0.28614 0.0
C150 C 0.76945 0.64258 0.27528 0.0
C151 C 0.74382 0.58324 0.2171 0.0
H152 H 0.63241 0.39132 0.5169 0.0
H153 H 0.64831 0.42984 0.54502 0.0
H154 H 0.61796 0.43552 0.29897 0.0
H155 H 0.60201 0.39712 0.27147 0.0
H156 H 0.76265 0.64372 0.04369 0.0
H157 H 0.74705 0.60515 0.06306 0.0
H158 H 0.76011 0.61403 0.35402 0.0
H159 H 0.77552 0.65277 0.33537 0.0
Dy160 Dy 0.55109 0.18702 0.36356 0.0
Dy161 Dy 0.5021 0.18275 0.32884 0.0
C162 C 0.52503 0.19169 0.51658 0.0
O163 O 0.52779 0.15177 0.35049 0.0
O164 O 0.49572 0.15079 0.38108 0.0
O165 O 0.57854 0.19711 0.45226 0.0
O166 O 0.5771 0.1821 0.32094 0.0
O167 O 0.5119 0.17041 0.21015 0.0
O168 O 0.5477 0.19402 0.22109 0.0
O169 O 0.52645 0.21733 0.2994 0.0
O170 O 0.5565 0.22041 0.37229 0.0
O171 O 0.47969 0.18544 0.23843 0.0
O172 O 0.47088 0.17504 0.37977 0.0
C173 C 0.50724 0.14125 0.37252 0.0
O174 O 0.53126 0.17862 0.48691 0.0
O175 O 0.51487 0.1982 0.46321 0.0
C176 C 0.6119 0.20822 0.37708 0.0
C177 C 0.65665 0.23642 0.3546 0.0
C178 C 0.6466 0.23489 0.43946 0.0
C179 C 0.62457 0.22095 0.45055 0.0
C180 C 0.62182 0.20998 0.29174 0.0
C181 C 0.64387 0.22394 0.28061 0.0
C182 C 0.5889 0.19218 0.39243 0.0
C183 C 0.53075 0.18177 0.17226 0.0
C184 C 0.54591 0.22901 0.33433 0.0
C185 C 0.44223 0.16252 0.27102 0.0
C186 C 0.39884 0.13624 0.21623 0.0
C187 C 0.41552 0.14374 0.15125 0.0
C188 C 0.43694 0.15674 0.17824 0.0
C189 C 0.4256 0.15473 0.33606 0.0
C190 C 0.40423 0.14172 0.30917 0.0
C191 C 0.46448 0.17816 0.30018 0.0
H192 H 0.65585 0.24398 0.49846 0.0
H193 H 0.61752 0.21982 0.51753 0.0
H194 H 0.61263 0.20037 0.23365 0.0
H195 H 0.65091 0.22489 0.21383 0.0
H196 H 0.41202 0.13963 0.07927 0.0
H197 H 0.4493 0.16255 0.12609 0.0
H198 H 0.42909 0.15916 0.40782 0.0
H199 H 0.39186 0.13652 0.36107 0.0
Dy200 Dy 0.85844 0.37915 0.36607 0.0
Dy201 Dy 0.86591 0.33144 0.3179 0.0
C202 C 0.86038 0.34159 0.49761 0.0
O203 O 0.89352 0.38933 0.38475 0.0
O204 O 0.89756 0.35885 0.3657 0.0
O205 O 0.84035 0.38466 0.47118 0.0
O206 O 0.86589 0.4114 0.3962 0.0
O207 O 0.86339 0.35471 0.22804 0.0
O208 O 0.85979 0.38348 0.2148 0.0
O209 O 0.83043 0.32058 0.31568 0.0
O210 O 0.82645 0.35124 0.32587 0.0
O211 O 0.88123 0.32555 0.20311 0.0
O212 O 0.86084 0.29953 0.29517 0.0
C213 C 0.90506 0.37947 0.38472 0.0
O214 O 0.86026 0.35281 0.4283 0.0
O215 O 0.8632 0.32605 0.47024 0.0
C216 C 0.83509 0.4139 0.43272 0.0
C217 C 0.80882 0.4323 0.39975 0.0
C218 C 0.80983 0.42459 0.48759 0.0
C219 C 0.82283 0.41553 0.50381 0.0
C220 C 0.83377 0.42114 0.34448 0.0
C221 C 0.82085 0.43027 0.3283 0.0
C222 C 0.84948 0.4051 0.45145 0.0
C223 C 0.86191 0.36846 0.17455 0.0
C224 C 0.81872 0.33024 0.31684 0.0
C225 C 0.88875 0.29716 0.21519 0.0
C226 C 0.91532 0.279 0.18836 0.0
C227 C 0.91054 0.28864 0.11502 0.0
C228 C 0.89741 0.29757 0.12832 0.0
C229 C 0.89389 0.28806 0.28935 0.0
C230 C 0.90709 0.2791 0.27607 0.0
C231 C 0.87374 0.30548 0.22438 0.0
H232 H 0.80051 0.4255 0.54398 0.0
H233 H 0.82343 0.40992 0.57223 0.0
H234 H 0.84293 0.42002 0.28796 0.0
H235 H 0.82072 0.4362 0.26007 0.0
H236 H 0.9169 0.28923 0.04699 0.0
H237 H 0.89374 0.30457 0.07008 0.0
H238 H 0.88747 0.28755 0.35715 0.0
H239 H 0.91034 0.27171 0.33396 0.0
Dy240 Dy 0.34138 0.8312 0.70002 0.0
Dy241 Dy 0.38365 0.88107 0.65676 0.0
C242 C 0.37045 0.86158 0.85126 0.0
O243 O 0.331 0.85489 0.74149 0.0
O244 O 0.35554 0.88616 0.6676 0.0
O245 O 0.32933 0.80367 0.79009 0.0
O246 O 0.30881 0.8051 0.6852 0.0
O247 O 0.36467 0.87087 0.52846 0.0
O248 O 0.33759 0.83579 0.55269 0.0
O249 O 0.39588 0.85769 0.66396 0.0
O250 O 0.36561 0.82522 0.63258 0.0
O251 O 0.40749 0.90378 0.56329 0.0
O252 O 0.40866 0.91173 0.7076 0.0
C253 C 0.33742 0.87461 0.71267 0.0
O254 O 0.36619 0.84401 0.80874 0.0
O255 O 0.37543 0.87878 0.80408 0.0
C256 C 0.3027 0.77032 0.72695 0.0
C257 C 0.28419 0.72563 0.69683 0.0
C258 C 0.29553 0.73514 0.77824 0.0
C259 C 0.30456 0.75717 0.79329 0.0
C260 C 0.29165 0.7609 0.64475 0.0
C261 C 0.28246 0.73879 0.63002 0.0
C262 C 0.31097 0.79335 0.74774 0.0
C263 C 0.34768 0.85303 0.50192 0.0
C264 C 0.38649 0.83714 0.6427 0.0
C265 C 0.42304 0.94093 0.60225 0.0
C266 C 0.43917 0.98443 0.55285 0.0
C267 C 0.4247 0.96774 0.49499 0.0
C268 C 0.41673 0.94623 0.51934 0.0
C269 C 0.437 0.95754 0.66099 0.0
C270 C 0.4449 0.97898 0.6369 0.0
C271 C 0.41676 0.91854 0.62622 0.0
H272 H 0.29694 0.72543 0.83157 0.0
H273 H 0.31269 0.76388 0.85783 0.0
H274 H 0.28981 0.7705 0.59224 0.0
H275 H 0.27399 0.73199 0.56625 0.0
H276 H 0.42003 0.97126 0.42943 0.0
H277 H 0.40604 0.9338 0.47231 0.0
H278 H 0.44217 0.95393 0.72516 0.0
H279 H 0.45564 0.99131 0.68414 0.0
Dy280 Dy 0.22187 0.52368 0.69818 0.0
Dy281 Dy 0.16645 0.51667 0.6468 0.0
C282 C 0.18182 0.52175 0.82928 0.0
O283 O 0.19647 0.48867 0.71598 0.0
O284 O 0.16208 0.48487 0.69345 0.0
O285 O 0.2452 0.54104 0.80533 0.0
O286 O 0.2467 0.51612 0.7264 0.0
O287 O 0.1942 0.51971 0.57061 0.0
O288 O 0.2256 0.52342 0.54583 0.0
O289 O 0.19114 0.55211 0.64276 0.0
O290 O 0.2255 0.55599 0.66916 0.0
O291 O 0.14521 0.50086 0.53229 0.0
O292 O 0.14015 0.52236 0.62051 0.0
C293 C 0.17506 0.47723 0.7138 0.0
O294 O 0.19357 0.5218 0.7615 0.0
O295 O 0.16369 0.51922 0.79955 0.0
C296 C 0.27985 0.54672 0.76696 0.0
C297 C 0.32461 0.57315 0.73721 0.0
C298 C 0.31575 0.57083 0.82572 0.0
C299 C 0.29365 0.55777 0.84033 0.0
C300 C 0.28853 0.5494 0.67812 0.0
C301 C 0.31061 0.56241 0.66349 0.0
C302 C 0.25663 0.53213 0.78394 0.0
C303 C 0.20818 0.52139 0.50944 0.0
C304 C 0.21236 0.56365 0.65359 0.0
C305 C 0.10945 0.49401 0.5447 0.0
C306 C 0.06455 0.46736 0.52207 0.0
C307 C 0.07869 0.47097 0.44873 0.0
C308 C 0.10081 0.48412 0.45998 0.0
C309 C 0.09548 0.49027 0.61871 0.0
C310 C 0.07326 0.4771 0.60746 0.0
C311 C 0.13287 0.50882 0.5517 0.0
H312 H 0.32591 0.57915 0.88393 0.0
H313 H 0.28736 0.55614 0.90929 0.0
H314 H 0.27829 0.54121 0.61991 0.0
H315 H 0.31677 0.5636 0.59457 0.0
H316 H 0.07265 0.46407 0.38161 0.0
H317 H 0.11122 0.48685 0.40165 0.0
H318 H 0.10166 0.49765 0.68499 0.0
H319 H 0.06293 0.47449 0.66582 0.0
Dy320 Dy 0.52757 0.71053 0.69465 0.0
Dy321 Dy 0.53294 0.66604 0.65841 0.0
C322 C 0.52364 0.67961 0.84748 0.0
O323 O 0.56288 0.72262 0.67851 0.0
O324 O 0.56443 0.69192 0.71142 0.0
O325 O 0.51669 0.72676 0.78586 0.0
O326 O 0.53276 0.74193 0.65822 0.0
O327 O 0.54294 0.68806 0.53931 0.0
O328 O 0.519 0.69985 0.55238 0.0
O329 O 0.49782 0.65429 0.63773 0.0
O330 O 0.4941 0.68243 0.69565 0.0
O331 O 0.53208 0.64234 0.56391 0.0
O332 O 0.54084 0.64243 0.70701 0.0
C333 C 0.57365 0.71288 0.70162 0.0
O334 O 0.5361 0.69906 0.81819 0.0
O335 O 0.51766 0.66308 0.79355 0.0
C336 C 0.50658 0.75042 0.71485 0.0
C337 C 0.4789 0.76779 0.69468 0.0
C338 C 0.4746 0.75175 0.76033 0.0
C339 C 0.48829 0.74326 0.77054 0.0
C340 C 0.51081 0.76629 0.64898 0.0
C341 C 0.4972 0.77483 0.63897 0.0
C342 C 0.52219 0.74283 0.72966 0.0
C343 C 0.52984 0.69357 0.50235 0.0
C344 C 0.48598 0.66264 0.66443 0.0
C345 C 0.55423 0.62693 0.59943 0.0
C346 C 0.5816 0.61069 0.54837 0.0
C347 C 0.58054 0.62649 0.49488 0.0
C348 C 0.56697 0.63449 0.52 0.0
C349 C 0.55542 0.61138 0.65302 0.0
C350 C 0.56882 0.60334 0.62795 0.0
C351 C 0.53855 0.6337 0.62603 0.0
H352 H 0.4606 0.74565 0.80394 0.0
H353 H 0.4846 0.73123 0.82287 0.0
H354 H 0.52495 0.77246 0.60611 0.0
H355 H 0.50141 0.78741 0.58889 0.0
H356 H 0.59024 0.63277 0.43371 0.0
H357 H 0.56637 0.64644 0.47698 0.0
H358 H 0.54558 0.60506 0.71393 0.0
H359 H 0.56869 0.59092 0.67016 0.0
H360 H 0.09006 0.33883 0.73324 0.0
H361 H 0.13789 0.35026 0.93896 0.0
H362 H 0.10796 0.37698 0.70006 0.0
H363 H 0.15525 0.38861 0.90882 0.0
H364 H 0.19398 0.45332 0.7601 0.0
H365 H 0.17642 0.41521 0.79625 0.0
H366 H 0.11462 0.41038 0.76104 0.0
H367 H 0.13202 0.44814 0.7228 0.0
C368 C 0.10437 0.34945 0.77167 0.0
C369 C 0.11248 0.3413 0.83873 0.0
C370 C 0.11454 0.37146 0.75337 0.0
C371 C 0.13312 0.38604 0.80172 0.0
C372 C 0.14115 0.37792 0.86934 0.0
C373 C 0.13098 0.35588 0.88758 0.0
C374 C 0.17665 0.44415 0.75985 0.0
C375 C 0.16453 0.45397 0.73765 0.0
C376 C 0.16654 0.42225 0.78131 0.0
C377 C 0.14403 0.40954 0.78124 0.0
C378 C 0.13195 0.41945 0.76018 0.0
C379 C 0.14202 0.44127 0.73866 0.0
H380 H 0.71157 0.76477 0.74123 0.0
H381 H 0.69951 0.80502 0.92287 0.0
H382 H 0.6736 0.74435 0.70362 0.0
H383 H 0.6613 0.784 0.88791 0.0
H384 H 0.59825 0.75659 0.72278 0.0
H385 H 0.63629 0.77737 0.76203 0.0
H386 H 0.6396 0.71916 0.76927 0.0
H387 H 0.60192 0.69853 0.72852 0.0
C388 C 0.70082 0.76925 0.77337 0.0
C389 C 0.70869 0.78664 0.83478 0.0
C390 C 0.67896 0.75737 0.75251 0.0
C391 C 0.66433 0.76253 0.79249 0.0
C392 C 0.67213 0.77974 0.85488 0.0
C393 C 0.69402 0.79163 0.87588 0.0
C394 C 0.60714 0.74825 0.73204 0.0
C395 C 0.59696 0.72587 0.72202 0.0
C396 C 0.62891 0.76014 0.75546 0.0
C397 C 0.64107 0.74996 0.76883 0.0
C398 C 0.63087 0.7276 0.75837 0.0
C399 C 0.60915 0.71574 0.73539 0.0
H400 H 0.2777 0.95489 0.73865 0.0
H401 H 0.25105 0.91192 0.96955 0.0
H402 H 0.29791 0.93743 0.6951 0.0
H403 H 0.27214 0.89528 0.92918 0.0
H404 H 0.29677 0.85559 0.78516 0.0
H405 H 0.27555 0.87231 0.82383 0.0
H406 H 0.32749 0.9336 0.73559 0.0
H407 H 0.34832 0.91675 0.694 0.0
C408 C 0.27612 0.94173 0.78033 0.0
C409 C 0.26267 0.93494 0.85792 0.0
C410 C 0.28798 0.93185 0.75597 0.0
C411 C 0.28683 0.91487 0.80854 0.0
C412 C 0.27335 0.90808 0.88606 0.0
C413 C 0.26144 0.9179 0.91018 0.0
C414 C 0.30365 0.87262 0.77367 0.0
C415 C 0.32428 0.88473 0.73594 0.0
C416 C 0.2915 0.8823 0.79653 0.0
C417 C 0.29968 0.90442 0.78308 0.0
C418 C 0.32037 0.91649 0.74554 0.0
C419 C 0.33243 0.9068 0.72204 0.0
H420 H 0.36606 0.10162 0.30372 0.0
H421 H 0.37945 0.14149 0.06349 0.0
H422 H 0.32847 0.08118 0.2592 0.0
H423 H 0.34193 0.12052 0.01723 0.0
H424 H 0.26829 0.09196 0.0182 0.0
H425 H 0.3061 0.11327 0.06083 0.0
H426 H 0.30595 0.05566 0.14383 0.0
H427 H 0.26834 0.03449 0.10276 0.0
C428 C 0.36102 0.10605 0.24134 0.0
C429 C 0.37589 0.12324 0.18726 0.0
C430 C 0.33945 0.09416 0.21525 0.0
C431 C 0.3321 0.09913 0.13434 0.0
C432 C 0.34695 0.11634 0.08032 0.0
C433 C 0.36855 0.12821 0.1063 0.0
C434 C 0.27633 0.08383 0.04526 0.0
C435 C 0.26514 0.06146 0.05711 0.0
C436 C 0.29806 0.09605 0.06938 0.0
C437 C 0.30911 0.08622 0.10633 0.0
C438 C 0.29793 0.06385 0.11708 0.0
C439 C 0.27631 0.05166 0.09277 0.0
H440 H 0.94711 0.28006 0.29718 0.0
H441 H 0.91286 0.25372 0.04309 0.0
H442 H 0.96836 0.26269 0.26899 0.0
H443 H 0.93436 0.23686 0.0141 0.0
H444 H 0.9611 0.1914 0.03881 0.0
H445 H 0.9395 0.20781 0.07567 0.0
H446 H 0.99647 0.26569 0.15994 0.0
H447 H 1.01816 0.24928 0.12345 0.0
C448 C 0.94406 0.27053 0.23552 0.0
C449 C 0.92831 0.26838 0.17227 0.0
C450 C 0.95637 0.26074 0.21896 0.0
C451 C 0.95308 0.24839 0.13923 0.0
C452 C 0.9372 0.24609 0.07658 0.0
C453 C 0.92502 0.25598 0.09275 0.0
C454 C 0.96906 0.2076 0.06552 0.0
C455 C 0.99143 0.21903 0.07761 0.0
C456 C 0.95666 0.21705 0.08619 0.0
C457 C 0.96625 0.2381 0.12045 0.0
C458 C 0.98855 0.2494 0.13425 0.0
C459 C 1.00101 0.24004 0.11257 0.0
H460 H 0.86027 0.78704 0.09154 0.0
H461 H 0.79794 0.78192 0.07526 0.0
H462 H 0.84323 0.749 0.12831 0.0
H463 H 0.78109 0.7442 0.11397 0.0
H464 H 0.75677 0.67289 0.07567 0.0
H465 H 0.77403 0.71115 0.04644 0.0
H466 H 0.82333 0.72229 0.24414 0.0
H467 H 0.80653 0.68377 0.27034 0.0
C468 C 0.84297 0.77791 0.09621 0.0
C469 C 0.83056 0.78768 0.07958 0.0
C470 C 0.83318 0.75606 0.11801 0.0
C471 C 0.81073 0.74341 0.12372 0.0
C472 C 0.79838 0.75329 0.1086 0.0
C473 C 0.80812 0.77505 0.0868 0.0
C474 C 0.77138 0.68343 0.11254 0.0
C475 C 0.78029 0.67512 0.17498 0.0
C476 C 0.78117 0.70548 0.09659 0.0
C477 C 0.80013 0.71992 0.14285 0.0
C478 C 0.8089 0.71166 0.20639 0.0
C479 C 0.79909 0.68956 0.22233 0.0
H480 H 0.03261 0.47374 0.59118 0.0
H481 H 0.04265 0.43035 0.42126 0.0
H482 H 0.99412 0.45235 0.5641 0.0
H483 H 1.00442 0.40966 0.39041 0.0
H484 H 0.93317 0.365 0.41727 0.0
H485 H 0.97089 0.38565 0.45672 0.0
H486 H 0.96766 0.4439 0.44723 0.0
H487 H 0.9296 0.42311 0.4102 0.0
C488 C 0.02664 0.45959 0.54842 0.0
C489 C 0.04086 0.45387 0.50834 0.0
C490 C 1.00454 0.44746 0.5318 0.0
C491 C 0.99602 0.42926 0.47463 0.0
C492 C 1.01025 0.4234 0.43561 0.0
C493 C 0.03229 0.43547 0.45239 0.0
C494 C 0.94041 0.38221 0.42348 0.0
C495 C 0.9282 0.39233 0.40975 0.0
C496 C 0.96218 0.39411 0.44581 0.0
C497 C 0.97252 0.41654 0.45461 0.0
C498 C 0.96027 0.42665 0.44209 0.0
C499 C 0.9384 0.41471 0.42017 0.0
H500 H 0.59124 0.60266 0.37405 0.0
H501 H 0.60375 0.59766 0.66096 0.0
H502 H 0.6126 0.5862 0.3316 0.0
H503 H 0.62427 0.58047 0.61803 0.0
H504 H 0.63696 0.52744 0.50137 0.0
H505 H 0.61625 0.54483 0.54196 0.0
H506 H 0.65188 0.59453 0.34337 0.0
H507 H 0.67287 0.57742 0.30412 0.0
C508 C 0.59863 0.59827 0.42822 0.0
C509 C 0.5955 0.60147 0.52127 0.0
C510 C 0.6108 0.5887 0.4037 0.0
C511 C 0.61996 0.58182 0.47146 0.0
C512 C 0.61711 0.58523 0.5642 0.0
C513 C 0.60523 0.59505 0.58871 0.0
C514 C 0.64028 0.54201 0.46606 0.0
C515 C 0.65654 0.55101 0.3994 0.0
C516 C 0.62853 0.55205 0.48974 0.0
C517 C 0.6324 0.57107 0.44586 0.0
C518 C 0.64841 0.57985 0.37807 0.0
C519 C 0.66049 0.57009 0.35593 0.0
H520 H 0.52495 0.11522 0.3645 0.0
H521 H 0.46601 0.11437 0.42949 0.0
H522 H 0.50832 0.07745 0.40484 0.0
H523 H 0.4496 0.0768 0.47212 0.0
H524 H 0.42001 1.00401 0.46182 0.0
H525 H 0.43622 0.04131 0.41358 0.0
H526 H 0.49629 0.05443 0.53544 0.0
H527 H 0.48043 0.01703 0.57941 0.0
C528 C 0.50845 0.10702 0.38733 0.0
C529 C 0.49688 0.11795 0.3936 0.0
C530 C 0.49893 0.08534 0.41122 0.0
C531 C 0.47758 0.07398 0.44227 0.0
C532 C 0.46595 0.08487 0.44745 0.0
C533 C 0.47545 0.10653 0.42337 0.0
C534 C 0.43673 0.01479 0.47748 0.0
C535 C 0.44884 1.00739 0.52473 0.0
C536 C 0.446 0.03629 0.45071 0.0
C537 C 0.46763 0.051 0.4704 0.0
C538 C 0.47969 0.04359 0.51782 0.0
C539 C 0.47046 0.02212 0.54436 0.0
H540 H 0.10295 0.08279 0.03864 0.0
H541 H 0.15886 0.14403 0.98379 0.0
H542 H 0.08038 0.09896 0.02556 0.0
H543 H 0.13661 0.16057 0.97492 0.0
H544 H 0.09039 0.18296 0.89097 0.0
H545 H 0.11217 0.16565 0.89312 0.0
H546 H 0.0694 0.12038 0.09459 0.0
H547 H 0.04712 0.13682 0.08711 0.0
C548 C 0.11044 0.09978 0.02458 0.0
C549 C 0.13271 0.11207 0.01178 0.0
C550 C 0.0975 0.10917 0.01754 0.0
C551 C 0.10649 0.13124 -0.00086 0.0
C552 C 0.12885 0.14349 -0.013 0.0
C553 C 0.14172 0.13402 -0.00743 0.0
C554 C 0.08566 0.16921 0.93509 0.0
C555 C 0.06698 0.16118 -0.01171 0.0
C556 C 0.09823 0.15932 0.9371 0.0
C557 C 0.09273 0.14147 -0.00577 0.0
C558 C 0.07404 0.13366 0.04787 0.0
C559 C 0.06126 0.1432 0.04409 0.0
H560 H 0.91964 0.92664 0.94398 0.0
H561 H 0.8586 0.9208 0.01298 0.0
H562 H 0.93639 0.96551 0.95062 0.0
H563 H 0.87545 0.95953 0.02254 0.0
H564 H 0.90792 0.03049 0.96194 0.0
H565 H 0.89157 0.99203 0.93827 0.0
H566 H 0.94681 0.99336 0.0617 0.0
H567 H 0.96362 0.03201 0.08095 0.0
C568 C 0.90976 0.93361 0.96035 0.0
C569 C 0.88775 0.92051 0.97805 0.0
C570 C 0.91941 0.95594 0.96484 0.0
C571 C 0.90734 0.96575 -0.01217 0.0
C572 C 0.88523 0.95263 0.00338 0.0
C573 C 0.87555 0.93033 -0.00187 0.0
C574 C 0.91674 0.02264 0.98268 0.0
C575 C 0.93713 0.03441 0.02315 0.0
C576 C 0.90723 1.0005 0.97019 0.0
C577 C 0.91781 0.98949 -0.00187 0.0
C578 C 0.93827 1.00128 0.03814 0.0
C579 C 0.94781 0.02345 0.05037 0.0
H580 H 0.02034 0.89494 0.95889 0.0
H581 H 0.01884 0.94706 0.09894 0.0
H582 H 0.05893 0.91709 0.93984 0.0
H583 H 0.05752 0.96873 0.08519 0.0
H584 H 0.12459 1.01048 0.97845 0.0
H585 H 0.08575 0.98833 0.98357 0.0
H586 H 0.09174 0.93195 0.01838 0.0
H587 H 0.1306 0.95412 0.00882 0.0
C588 C 0.0282 0.91115 -0.01459 0.0
C589 C 1.01634 0.91915 0.03029 0.0
C590 C 0.05046 0.9238 0.97569 0.0
C591 C 0.06156 0.94481 0.01099 0.0
C592 C 0.04965 0.9528 0.05572 0.0
C593 C 0.02739 0.9402 0.06488 0.0
C594 C 0.1176 0.99333 -0.01339 0.0
C595 C 0.13071 0.98407 -0.00671 0.0
C596 C 0.09527 0.98059 -0.00971 0.0
C597 C 0.08541 0.95826 0.00229 0.0
C598 C 0.0986 0.949 0.0077 0.0
C599 C 0.12095 0.96173 0.00256 0.0
H600 H 0.70952 0.46393 0.26198 0.0
H601 H 0.76146 0.52268 0.37207 0.0
H602 H 0.73135 0.44683 0.27729 0.0
H603 H 0.78324 0.50556 0.38745 0.0
H604 H 0.80346 0.45966 0.51377 0.0
H605 H 0.78256 0.47727 0.48651 0.0
H606 H 0.76409 0.44729 0.2196 0.0
H607 H 0.78452 0.42912 0.24775 0.0
C608 C 0.72567 0.47327 0.28863 0.0
C609 C 0.73369 0.49469 0.31601 0.0
C610 C 0.73822 0.46348 0.29705 0.0
C611 C 0.75899 0.47474 0.33447 0.0
C612 C 0.76721 0.49632 0.3595 0.0
C613 C 0.75478 0.50621 0.34979 0.0
C614 C 0.79479 0.4566 0.44957 0.0
C615 C 0.79573 0.44288 0.38315 0.0
C616 C 0.78302 0.46696 0.43343 0.0
C617 C 0.77173 0.46383 0.35058 0.0
C618 C 0.7725 0.45 0.28433 0.0
C619 C 0.78439 0.43972 0.30025 0.0
H620 H 0.57421 0.36258 0.34476 0.0
H621 H 0.63467 0.36621 0.40241 0.0
H622 H 0.55731 0.32383 0.32621 0.0
H623 H 0.61817 0.32769 0.38041 0.0
H624 H 0.57925 0.25699 0.44161 0.0
H625 H 0.59558 0.29553 0.45133 0.0
H626 H 0.55268 0.2942 0.24012 0.0
H627 H 0.53556 0.25512 0.23366 0.0
C628 C 0.58397 0.35512 0.35226 0.0
C629 C 0.60576 0.36751 0.37605 0.0
C630 C 0.57429 0.33283 0.34119 0.0
C631 C 0.5862 0.32231 0.35259 0.0
C632 C 0.60819 0.33492 0.37355 0.0
C633 C 0.61776 0.35712 0.38584 0.0
C634 C 0.5733 0.26485 0.39667 0.0
C635 C 0.5561 0.25283 0.33646 0.0
C636 C 0.58283 0.28714 0.40182 0.0
C637 C 0.57575 0.29833 0.3459 0.0
C638 C 0.55852 0.28629 0.28522 0.0
C639 C 0.54874 0.26383 0.28098 0.0
H640 H 0.68285 0.27625 0.43003 0.0
H641 H 0.68452 0.22846 0.25633 0.0
H642 H 0.72161 0.29837 0.41791 0.0
H643 H 0.72313 0.25108 0.24024 0.0
H644 H 0.79469 0.28619 0.31504 0.0
H645 H 0.75588 0.26388 0.32232 0.0
H646 H 0.74973 0.32051 0.31548 0.0
H647 H 0.78848 0.34284 0.31065 0.0
C648 C 0.69143 0.27044 0.389 0.0
C649 C 0.68039 0.25047 0.34421 0.0
C650 C 0.71372 0.2833 0.38102 0.0
C651 C 0.72566 0.27664 0.32775 0.0
C652 C 0.7146 0.25672 0.28264 0.0
C653 C 0.69233 0.24383 0.29083 0.0
C654 C 0.78511 0.29394 0.31436 0.0
C655 C 0.79492 0.31642 0.31252 0.0
C656 C 0.76274 0.28108 0.31823 0.0
C657 C 0.74951 0.29031 0.32008 0.0
C658 C 0.75932 0.31277 0.31598 0.0
C659 C 0.78165 0.32562 0.31236 0.0
H660 H 0.46825 0.78163 0.53712 0.0
H661 H 0.45714 0.77596 0.8304 0.0
H662 H 0.44631 0.79857 0.52247 0.0
H663 H 0.43438 0.79199 0.81415 0.0
H664 H 0.37548 0.79814 0.71417 0.0
H665 H 0.39768 0.78132 0.72742 0.0
H666 H 0.44906 0.83488 0.58574 0.0
H667 H 0.42707 0.85214 0.5755 0.0
C668 C 0.46128 0.78404 0.59866 0.0
C669 C 0.46469 0.77741 0.68512 0.0
C670 C 0.44861 0.79368 0.58995 0.0
C671 C 0.43865 0.79662 0.66709 0.0
C672 C 0.44171 0.78975 0.75331 0.0
C673 C 0.45468 0.78043 0.76238 0.0
C674 C 0.39145 0.80623 0.68506 0.0
C675 C 0.3995 0.82638 0.64311 0.0
C676 C 0.4042 0.79668 0.69337 0.0
C677 C 0.42509 0.80678 0.65764 0.0
C678 C 0.43298 0.8267 0.61363 0.0
C679 C 0.42043 0.83657 0.60777 0.0
H680 H 0.20407 0.58959 0.54238 0.0
H681 H 0.24308 0.59099 0.77014 0.0
H682 H 0.22181 0.62877 0.54588 0.0
H683 H 0.25973 0.62965 0.77846 0.0
H684 H 0.30132 0.69986 0.72847 0.0
H685 H 0.28421 0.66121 0.71165 0.0
H686 H 0.22595 0.65909 0.6212 0.0
H687 H 0.24362 0.69798 0.63424 0.0
C688 C 0.21631 0.59831 0.59366 0.0
C689 C 0.22241 0.5873 0.65512 0.0
C690 C 0.22642 0.62078 0.59628 0.0
C691 C 0.2425 0.63269 0.66197 0.0
C692 C 0.24804 0.62137 0.72478 0.0
C693 C 0.23836 0.59908 0.72057 0.0
C694 C 0.28487 0.69112 0.7048 0.0
C695 C 0.27383 0.70201 0.68307 0.0
C696 C 0.27492 0.66884 0.69564 0.0
C697 C 0.25345 0.65669 0.66612 0.0
C698 C 0.24253 0.66772 0.643 0.0
C699 C 0.25264 0.69008 0.6508 0.0
H700 H 0.46232 0.61975 0.7007 0.0
H701 H 0.45611 0.67451 0.6293 0.0
H702 H 0.4233 0.59785 0.71433 0.0
H703 H 0.41709 0.65254 0.64115 0.0
H704 H 0.34629 0.60002 0.59265 0.0
H705 H 0.385 0.62077 0.5677 0.0
H706 H 0.39548 0.59693 0.82298 0.0
H707 H 0.35687 0.57591 0.84738 0.0
C708 C 0.45259 0.62702 0.68653 0.0
C709 C 0.46229 0.64886 0.66414 0.0
C710 C 0.43026 0.61452 0.69503 0.0
C711 C 0.41705 0.62346 0.67934 0.0
C712 C 0.42675 0.64513 0.65348 0.0
C713 C 0.44911 0.65774 0.64706 0.0
C714 C 0.35681 0.59906 0.64326 0.0
C715 C 0.34833 0.58624 0.72223 0.0
C716 C 0.37903 0.6111 0.6292 0.0
C717 C 0.39336 0.61047 0.69319 0.0
C718 C 0.38491 0.59761 0.77182 0.0
C719 C 0.36273 0.58575 0.78632 0.0
H720 H 0.98946 0.17517 0.71711 0.0
H721 H 0.05622 0.2017 0.78704 0.0
H722 H 0.99914 0.18456 0.55629 0.0
H723 H 0.06599 0.21089 0.62469 0.0
H724 H 0.06257 0.23276 0.30275 0.0
H725 H 0.06012 0.2328 0.47183 0.0
H726 H 1.01704 0.16446 0.4677 0.0
H727 H 0.01957 0.16412 0.30272 0.0
C728 C 1.00622 0.18338 0.69786 0.0
C729 C 0.02215 0.18774 0.76298 0.0
C730 C 1.01176 0.18885 0.60657 0.0
C731 C 0.03326 0.19831 0.57917 0.0
C732 C 0.04938 0.20384 0.64513 0.0
C733 C 0.0438 0.19855 0.73721 0.0
C734 C 0.05292 0.21777 0.33851 0.0
C735 C 0.04076 0.19857 0.28951 0.0
C736 C 0.05152 0.21782 0.43457 0.0
C737 C 0.03792 0.19872 0.48109 0.0
C738 C 0.02721 0.17944 0.43251 0.0
C739 C 0.02867 0.17932 0.33793 0.0
H740 H 0.8478 0.86892 0.78504 0.0
H741 H 0.87344 0.82793 0.71458 0.0
H742 H 0.83887 0.86996 0.62266 0.0
H743 H 0.8644 0.82877 0.55348 0.0
H744 H 0.88576 0.87032 0.30177 0.0
H745 H 0.88512 0.86695 0.46662 0.0
H746 H 0.81693 0.84273 0.46856 0.0
H747 H 0.81725 0.84572 0.29979 0.0
C748 C 0.85076 0.85954 0.73509 0.0
C749 C 0.86123 0.84833 0.76081 0.0
C750 C 0.84565 0.86012 0.64293 0.0
C751 C 0.85107 0.8495 0.57676 0.0
C752 C 0.86019 0.83712 0.60397 0.0
C753 C 0.86544 0.83671 0.69542 0.0
C754 C 0.87053 0.86436 0.33645 0.0
C755 C 0.85139 0.85763 0.28742 0.0
C756 C 0.87025 0.86249 0.43097 0.0
C757 C 0.8509 0.85404 0.47886 0.0
C758 C 0.83194 0.84899 0.43184 0.0
C759 C 0.83217 0.85073 0.33591 0.0
H760 H 0.16267 0.02587 0.74698 0.0
H761 H 0.21497 0.01333 0.70599 0.0
H762 H 0.15121 0.01532 0.58846 0.0
H763 H 0.20329 1.00271 0.54824 0.0
H764 H 0.18506 0.04187 0.28683 0.0
H765 H 0.17768 0.03852 0.45027 0.0
H766 H 0.1685 0.97451 0.44644 0.0
H767 H 0.1757 0.97769 0.28097 0.0
C768 C 0.17162 0.02076 0.70439 0.0
C769 C 0.18995 0.02076 0.73773 0.0
C770 C 0.16479 0.01438 0.61479 0.0
C771 C 0.17614 1.00782 0.55826 0.0
C772 C 0.19397 1.00711 0.59232 0.0
C773 C 0.20088 0.01358 0.68164 0.0
C774 C 0.18096 0.02688 0.32035 0.0
C775 C 0.18171 1.0103 0.27311 0.0
C776 C 0.17633 0.02483 0.41322 0.0
C777 C 0.1727 1.00631 0.45956 0.0
C778 C 0.17129 0.98887 0.4108 0.0
C779 C 0.17561 0.9908 0.31711 0.0
H780 H 0.66917 0.5171 0.58505 0.0
H781 H 0.73696 0.54454 0.63172 0.0
H782 H 0.66267 0.51202 0.74981 0.0
H783 H 0.73061 0.53774 0.7959 0.0
H784 H 0.71651 0.54081 0.09393 0.0
H785 H 0.72239 0.54824 0.93038 0.0
H786 H 0.66096 0.49202 0.87406 0.0
H787 H 0.65441 0.48625 0.03779 0.0
C788 C 0.68261 0.52162 0.63104 0.0
C789 C 0.70352 0.53118 0.59679 0.0
C790 C 0.67895 0.51861 0.72547 0.0
C791 C 0.69609 0.5244 0.78719 0.0
C792 C 0.71702 0.53357 0.75153 0.0
C793 C 0.72071 0.53727 0.65739 0.0
C794 C 0.70402 0.53062 0.0465 0.0
C795 C 0.68478 0.51345 0.07856 0.0
C796 C 0.70755 0.53448 0.95229 0.0
C797 C 0.69215 0.52076 0.8879 0.0
C798 C 0.67303 0.5033 0.92076 0.0
C799 C 0.66933 0.49981 0.01491 0.0
H800 H 0.55926 0.19644 0.60851 0.0
H801 H 0.50437 0.20541 0.63015 0.0
H802 H 0.56365 0.19907 0.77244 0.0
H803 H 0.50937 0.2091 0.79693 0.0
H804 H 0.4979 0.16635 0.0496 0.0
H805 H 0.50043 0.17716 0.89012 0.0
H806 H 0.56929 0.21621 0.91676 0.0
H807 H 0.567 0.20442 0.07404 0.0
C808 C 0.54857 0.19971 0.64867 0.0
C809 C 0.53088 0.19972 0.60887 0.0
C810 C 0.55129 0.20156 0.74243 0.0
C811 C 0.53643 0.20366 0.7966 0.0
C812 C 0.52062 0.2069 0.75549 0.0
C813 C 0.5178 0.20487 0.66094 0.0
C814 C 0.51357 0.17699 0.02085 0.0
C815 C 0.53222 0.18486 0.07383 0.0
C816 C 0.51497 0.18359 0.93067 0.0
C817 C 0.53498 0.1982 0.89329 0.0
C818 C 0.55367 0.20528 0.94516 0.0
C819 C 0.55233 0.1984 0.03464 0.0
H820 H 0.87557 0.38063 0.57776 0.0
H821 H 0.84205 0.31281 0.63333 0.0
H822 H 0.87625 0.38806 0.74207 0.0
H823 H 0.84097 0.31984 0.79587 0.0
H824 H 0.86326 0.33657 0.08329 0.0
H825 H 0.86314 0.33123 0.92039 0.0
H826 H 0.85752 0.38757 0.87374 0.0
H827 H 0.8594 0.39382 0.03965 0.0
C828 C 0.86791 0.36736 0.62537 0.0
C829 C 0.85884 0.34621 0.59411 0.0
C830 C 0.86818 0.37155 0.71929 0.0
C831 C 0.85884 0.35458 0.78281 0.0
C832 C 0.84893 0.33337 0.74981 0.0
C833 C 0.84929 0.32927 0.65662 0.0
C834 C 0.8624 0.34809 0.03865 0.0
C835 C 0.86161 0.36578 0.07433 0.0
C836 C 0.86191 0.34479 0.94458 0.0
C837 C 0.86001 0.35878 0.8832 0.0
C838 C 0.85921 0.37657 0.91884 0.0
C839 C 0.86011 0.3801 0.01378 0.0
H840 H 0.35459 0.88662 0.39552 0.0
H841 H 0.32494 0.81758 0.39481 0.0
H842 H 0.35293 0.88665 0.2297 0.0
H843 H 0.32254 0.81751 0.22755 0.0
H844 H 0.36957 0.83458 0.98133 0.0
H845 H 0.35443 0.82944 0.13455 0.0
H846 H 0.33673 0.87767 0.08068 0.0
H847 H 0.35278 0.8834 0.92839 0.0
C848 C 0.34711 0.87138 0.35974 0.0
C849 C 0.34077 0.85218 0.40692 0.0
C850 C 0.34585 0.87136 0.26472 0.0
C851 C 0.3382 0.8521 0.21595 0.0
C852 C 0.32903 0.83261 0.264 0.0
C853 C 0.33035 0.83264 0.35944 0.0
C854 C 0.36254 0.84412 0.00284 0.0
C855 C 0.3628 0.85974 0.94502 0.0
C856 C 0.35343 0.84087 0.08948 0.0
C857 C 0.34415 0.85299 0.11893 0.0
C858 C 0.34388 0.86821 0.05966 0.0
C859 C 0.35332 0.8717 0.97342 0.0
H860 H 0.16968 0.53901 0.96482 0.0
H861 H 0.20656 0.50794 0.91269 0.0
H862 H 0.17755 0.54055 0.12802 0.0
H863 H 0.21314 0.50774 0.07716 0.0
H864 H 0.23545 0.52471 0.37221 0.0
H865 H 0.23066 0.52653 0.20738 0.0
H866 H 0.16849 0.52014 0.25723 0.0
H867 H 0.17441 0.52036 0.42102 0.0
C868 C 0.17938 0.53237 -0.01108 0.0
C869 C 0.18756 0.5234 0.92691 0.0
C870 C 0.18372 0.533 0.08266 0.0
C871 C 0.19577 0.524 0.11694 0.0
C872 C 0.20412 0.51517 0.05387 0.0
C873 C 0.20028 0.51515 0.95959 0.0
C874 C 0.22083 0.52381 0.34754 0.0
C875 C 0.2051 0.52204 0.40947 0.0
C876 C 0.21796 0.52465 0.25285 0.0
C877 C 0.19913 0.52341 0.21792 0.0
C878 C 0.18341 0.52154 0.28064 0.0
C879 C 0.18653 0.5212 0.37509 0.0
H880 H 0.55334 0.68841 0.3707 0.0
H881 H 0.49373 0.68787 0.4191 0.0
H882 H 0.54298 0.67865 0.21056 0.0
H883 H 0.48373 0.67841 0.25822 0.0
H884 H 0.50822 0.64379 0.95334 0.0
H885 H 0.50236 0.6425 0.1199 0.0
H886 H 0.51541 0.70784 0.11487 0.0
H887 H 0.52161 0.70945 0.95078 0.0
C888 C 0.53801 0.68601 0.34722 0.0
C889 C 0.52437 0.68897 0.40613 0.0
C890 C 0.53199 0.68014 0.25679 0.0
C891 C 0.51234 0.67719 0.2252 0.0
C892 C 0.49868 0.68016 0.28343 0.0
C893 C 0.50463 0.68595 0.37413 0.0
C894 C 0.50922 0.65759 -0.01219 0.0
C895 C 0.51601 0.6769 0.94109 0.0
C896 C 0.50567 0.65676 0.08191 0.0
C897 C 0.50843 0.67505 0.12768 0.0
C898 C 0.51293 0.69354 0.07933 0.0
C899 C 0.51682 0.69451 -0.0138 0.0
loop_
_geom_bond_atom_site_label_1
_geom_bond_atom_site_label_2
_geom_bond_distance
_geom_bond_site_symmetry_2
_ccdc_geom_bond_type
Dy0 O3 2.307 . S
Dy0 O5 2.395 1_556 S
Dy0 O6 2.379 . S
Dy0 O8 2.339 . S
Dy0 O10 2.298 1_655 S
Dy0 O14 2.275 1_656 S
Dy0 C22 2.738 1_556 S
Dy1 O4 2.298 . S
Dy1 O7 2.275 1_554 S
Dy1 O9 2.307 . S
Dy1 O11 2.395 1_554 S
Dy1 O12 2.379 . S
Dy1 O15 2.339 . S
Dy1 C31 2.738 1_554 S
C2 O14 1.254 . S
C2 O15 1.257 . S
O3 Dy0 2.307 . S
O3 C13 1.266 1_556 S
O4 Dy1 2.298 . S
O4 C13 1.236 1_455 S
O5 Dy0 2.395 1_554 S
O5 C22 1.255 . S
O6 Dy0 2.379 . S
O6 C22 1.249 1_556 S
O7 Dy1 2.275 1_556 S
O7 C23 1.254 . S
O8 Dy0 2.339 . S
O8 C23 1.257 1_655 S
O9 Dy1 2.307 . S
O9 C24 1.266 . S
O10 Dy0 2.298 1_455 S
O10 C24 1.236 1_556 S
O11 Dy1 2.395 1_556 S
O11 C31 1.255 . S
O12 Dy1 2.379 . S
O12 C31 1.249 1_554 S
C13 O3 1.266 1_554 S
C13 O4 1.236 1_655 S
O14 Dy0 2.275 1_454 S
O14 C2 1.254 . S
O15 Dy1 2.339 . S
O15 C2 1.257 . S
C16 C19 1.344 . S
C16 C20 1.328 1_554 S
C16 C22 1.516 . S
C17 C18 1.304 . S
C17 C21 1.323 1_554 S
C18 C17 1.304 . S
C18 C19 1.371 . S
C18 H32 0.930 . S
C19 C16 1.344 . S
C19 C18 1.371 . S
C19 H33 0.931 . S
C20 C16 1.328 1_556 S
C20 C21 1.433 . S
C20 H34 0.931 . S
C21 C17 1.323 1_556 S
C21 C20 1.433 . S
C21 H35 0.933 . S
C22 Dy0 2.738 1_554 S
C22 O5 1.255 . S
C22 O6 1.249 1_554 S
C22 C16 1.516 . S
C23 O7 1.254 . S
C23 O8 1.257 1_455 S
C24 O9 1.266 . S
C24 O10 1.236 1_554 S
C25 C28 1.344 . S
C25 C29 1.328 1_556 S
C25 C31 1.516 . S
C26 C27 1.304 . S
C26 C30 1.323 1_556 S
C27 C26 1.304 . S
C27 C28 1.371 . S
C27 H36 0.930 . S
C28 C25 1.344 . S
C28 C27 1.371 . S
C28 H37 0.931 . S
C29 C25 1.328 1_554 S
C29 C30 1.433 . S
C29 H38 0.931 . S
C30 C26 1.323 1_554 S
C30 C29 1.433 . S
C30 H39 0.933 . S
C31 Dy1 2.738 1_556 S
C31 O11 1.255 . S
C31 O12 1.249 1_556 S
C31 C25 1.516 . S
H32 C18 0.930 . S
H33 C19 0.931 . S
H34 C20 0.931 . S
H35 C21 0.933 . S
H36 C27 0.930 . S
H37 C28 0.931 . S
H38 C29 0.931 . S
H39 C30 0.933 . S
Dy40 O43 2.307 . S
Dy40 O45 2.395 1_556 S
Dy40 O46 2.379 . S
Dy40 O48 2.339 . S
Dy40 O50 2.298 . S
Dy40 O54 2.275 1_556 S
Dy40 C62 2.738 1_556 S
Dy41 O44 2.298 . S
Dy41 O47 2.275 1_554 S
Dy41 O49 2.307 . S
Dy41 O51 2.395 1_554 S
Dy41 O52 2.379 . S
Dy41 O55 2.339 . S
Dy41 C71 2.738 1_554 S
C42 O54 1.254 . S
C42 O55 1.257 . S
O43 Dy40 2.307 . S
O43 C53 1.266 1_556 S
O44 Dy41 2.298 . S
O44 C53 1.236 . S
O45 Dy40 2.395 1_554 S
O45 C62 1.255 . S
O46 Dy40 2.379 . S
O46 C62 1.249 1_556 S
O47 Dy41 2.275 1_556 S
O47 C63 1.254 . S
O48 Dy40 2.339 . S
O48 C63 1.257 . S
O49 Dy41 2.307 . S
O49 C64 1.266 . S
O50 Dy40 2.298 . S
O50 C64 1.236 1_556 S
O51 Dy41 2.395 1_556 S
O51 C71 1.255 . S
O52 Dy41 2.379 . S
O52 C71 1.249 1_554 S
C53 O43 1.266 1_554 S
C53 O44 1.236 . S
O54 Dy40 2.275 1_554 S
O54 C42 1.254 . S
O55 Dy41 2.339 . S
O55 C42 1.257 . S
C56 C59 1.344 . S
C56 C60 1.328 1_554 S
C56 C62 1.516 . S
C57 C58 1.304 . S
C57 C61 1.323 1_554 S
C58 C57 1.304 . S
C58 C59 1.371 . S
C58 H72 0.930 . S
C59 C56 1.344 . S
C59 C58 1.371 . S
C59 H73 0.931 . S
C60 C56 1.328 1_556 S
C60 C61 1.433 . S
C60 H74 0.931 . S
C61 C57 1.323 1_556 S
C61 C60 1.433 . S
C61 H75 0.933 . S
C62 Dy40 2.738 1_554 S
C62 O45 1.255 . S
C62 O46 1.249 1_554 S
C62 C56 1.516 . S
C63 O47 1.254 . S
C63 O48 1.257 . S
C64 O49 1.266 . S
C64 O50 1.236 1_554 S
C65 C68 1.344 . S
C65 C69 1.328 1_556 S
C65 C71 1.516 . S
C66 C67 1.304 . S
C66 C70 1.323 1_556 S
C67 C66 1.304 . S
C67 C68 1.371 . S
C67 H76 0.930 . S
C68 C65 1.344 . S
C68 C67 1.371 . S
C68 H77 0.931 . S
C69 C65 1.328 1_554 S
C69 C70 1.433 . S
C69 H78 0.931 . S
C70 C66 1.323 1_554 S
C70 C69 1.433 . S
C70 H79 0.933 . S
C71 Dy41 2.738 1_556 S
C71 O51 1.255 . S
C71 O52 1.249 1_556 S
C71 C65 1.516 . S
H72 C58 0.930 . S
H73 C59 0.931 . S
H74 C60 0.931 . S
H75 C61 0.933 . S
H76 C67 0.930 . S
H77 C68 0.931 . S
H78 C69 0.931 . S
H79 C70 0.933 . S
Dy80 O83 2.307 . S
Dy80 O85 2.395 1_556 S
Dy80 O86 2.379 . S
Dy80 O88 2.339 . S
Dy80 O90 2.298 . S
Dy80 O94 2.275 1_556 S
Dy80 C102 2.738 1_556 S
Dy81 O84 2.298 1_565 S
Dy81 O87 2.275 1_564 S
Dy81 O89 2.307 . S
Dy81 O91 2.395 1_554 S
Dy81 O92 2.379 . S
Dy81 O95 2.339 . S
Dy81 C111 2.738 1_554 S
C82 O94 1.254 . S
C82 O95 1.257 1_545 S
O83 Dy80 2.307 . S
O83 C93 1.266 1_556 S
O84 Dy81 2.298 1_545 S
O84 C93 1.236 . S
O85 Dy80 2.395 1_554 S
O85 C102 1.255 . S
O86 Dy80 2.379 . S
O86 C102 1.249 1_556 S
O87 Dy81 2.275 1_546 S
O87 C103 1.254 . S
O88 Dy80 2.339 . S
O88 C103 1.257 . S
O89 Dy81 2.307 . S
O89 C104 1.266 . S
O90 Dy80 2.298 . S
O90 C104 1.236 1_546 S
O91 Dy81 2.395 1_556 S
O91 C111 1.255 . S
O92 Dy81 2.379 . S
O92 C111 1.249 1_554 S
C93 O83 1.266 1_554 S
C93 O84 1.236 . S
O94 Dy80 2.275 1_554 S
O94 C82 1.254 . S
O95 Dy81 2.339 . S
O95 C82 1.257 1_565 S
C96 C99 1.344 . S
C96 C100 1.328 1_554 S
C96 C102 1.516 . S
C97 C98 1.304 . S
C97 C101 1.323 1_554 S
C98 C97 1.304 . S
C98 C99 1.371 . S
C98 H112 0.930 . S
C99 C96 1.344 . S
C99 C98 1.371 . S
C99 H113 0.931 . S
C100 C96 1.328 1_556 S
C100 C101 1.433 . S
C100 H114 0.931 . S
C101 C97 1.323 1_556 S
C101 C100 1.433 . S
C101 H115 0.933 . S
C102 Dy80 2.738 1_554 S
C102 O85 1.255 . S
C102 O86 1.249 1_554 S
C102 C96 1.516 . S
C103 O87 1.254 . S
C103 O88 1.257 . S
C104 O89 1.266 . S
C104 O90 1.236 1_564 S
C105 C108 1.344 . S
C105 C109 1.328 1_556 S
C105 C111 1.516 . S
C106 C107 1.304 . S
C106 C110 1.323 1_556 S
C107 C106 1.304 . S
C107 C108 1.371 . S
C107 H116 0.930 . S
C108 C105 1.344 . S
C108 C107 1.371 . S
C108 H117 0.931 . S
C109 C105 1.328 1_554 S
C109 C110 1.433 . S
C109 H118 0.931 . S
C110 C106 1.323 1_554 S
C110 C109 1.433 . S
C110 H119 0.933 . S
C111 Dy81 2.738 1_556 S
C111 O91 1.255 . S
C111 O92 1.249 1_556 S
C111 C105 1.516 . S
H112 C98 0.930 . S
H113 C99 0.931 . S
H114 C100 0.931 . S
H115 C101 0.933 . S
H116 C107 0.930 . S
H117 C108 0.931 . S
H118 C109 0.931 . S
H119 C110 0.933 . S
Dy120 O123 2.307 . S
Dy120 O125 2.395 . S
Dy120 O126 2.379 . S
Dy120 O128 2.339 . S
Dy120 O130 2.298 . S
Dy120 O134 2.275 . S
Dy120 C142 2.738 . S
Dy121 O124 2.298 . S
Dy121 O127 2.275 . S
Dy121 O129 2.307 . S
Dy121 O131 2.395 . S
Dy121 O132 2.379 . S
Dy121 O135 2.339 . S
Dy121 C151 2.738 . S
C122 O134 1.254 . S
C122 O135 1.257 . S
O123 Dy120 2.307 . S
O123 C133 1.266 . S
O124 Dy121 2.298 . S
O124 C133 1.236 . S
O125 Dy120 2.395 . S
O125 C142 1.255 . S
O126 Dy120 2.379 . S
O126 C142 1.249 . S
O127 Dy121 2.275 . S
O127 C143 1.254 . S
O128 Dy120 2.339 . S
O128 C143 1.257 . S
O129 Dy121 2.307 . S
O129 C144 1.266 . S
O130 Dy120 2.298 . S
O130 C144 1.236 . S
O131 Dy121 2.395 . S
O131 C151 1.255 . S
O132 Dy121 2.379 . S
O132 C151 1.249 . S
C133 O123 1.266 . S
C133 O124 1.236 . S
O134 Dy120 2.275 . S
O134 C122 1.254 . S
O135 Dy121 2.339 . S
O135 C122 1.257 . S
C136 C139 1.344 . S
C136 C140 1.328 . S
C136 C142 1.516 . S
C137 C138 1.304 . S
C137 C141 1.323 . S
C138 C137 1.304 . S
C138 C139 1.371 . S
C138 H152 0.930 . S
C139 C136 1.344 . S
C139 C138 1.371 . S
C139 H153 0.931 . S
C140 C136 1.328 . S
C140 C141 1.433 . S
C140 H154 0.931 . S
C141 C137 1.323 . S
C141 C140 1.433 . S
C141 H155 0.933 . S
C142 Dy120 2.738 . S
C142 O125 1.255 . S
C142 O126 1.249 . S
C142 C136 1.516 . S
C143 O127 1.254 . S
C143 O128 1.257 . S
C144 O129 1.266 . S
C144 O130 1.236 . S
C145 C148 1.344 . S
C145 C149 1.328 . S
C145 C151 1.516 . S
C146 C147 1.304 . S
C146 C150 1.323 . S
C147 C146 1.304 . S
C147 C148 1.371 . S
C147 H156 0.930 . S
C148 C145 1.344 . S
C148 C147 1.371 . S
C148 H157 0.931 . S
C149 C145 1.328 . S
C149 C150 1.433 . S
C149 H158 0.931 . S
C150 C146 1.323 . S
C150 C149 1.433 . S
C150 H159 0.933 . S
C151 Dy121 2.738 . S
C151 O131 1.255 . S
C151 O132 1.249 . S
C151 C145 1.516 . S
H152 C138 0.930 . S
H153 C139 0.931 . S
H154 C140 0.931 . S
H155 C141 0.933 . S
H156 C147 0.930 . S
H157 C148 0.931 . S
H158 C149 0.931 . S
H159 C150 0.933 . S
Dy160 O163 2.307 . S
Dy160 O165 2.395 . S
Dy160 O166 2.379 . S
Dy160 O168 2.339 . S
Dy160 O170 2.298 . S
Dy160 O174 2.275 . S
Dy160 C182 2.738 . S
Dy161 O164 2.298 . S
Dy161 O167 2.275 . S
Dy161 O169 2.307 . S
Dy161 O171 2.395 . S
Dy161 O172 2.379 . S
Dy161 O175 2.339 . S
Dy161 C191 2.738 . S
C162 O174 1.254 . S
C162 O175 1.257 . S
O163 Dy160 2.307 . S
O163 C173 1.266 . S
O164 Dy161 2.298 . S
O164 C173 1.236 . S
O165 Dy160 2.395 . S
O165 C182 1.255 . S
O166 Dy160 2.379 . S
O166 C182 1.249 . S
O167 Dy161 2.275 . S
O167 C183 1.254 . S
O168 Dy160 2.339 . S
O168 C183 1.257 . S
O169 Dy161 2.307 . S
O169 C184 1.266 . S
O170 Dy160 2.298 . S
O170 C184 1.236 . S
O171 Dy161 2.395 . S
O171 C191 1.255 . S
O172 Dy161 2.379 . S
O172 C191 1.249 . S
C173 O163 1.266 . S
C173 O164 1.236 . S
O174 Dy160 2.275 . S
O174 C162 1.254 . S
O175 Dy161 2.339 . S
O175 C162 1.257 . S
C176 C179 1.344 . S
C176 C180 1.328 . S
C176 C182 1.516 . S
C177 C178 1.304 . S
C177 C181 1.323 . S
C178 C177 1.304 . S
C178 C179 1.371 . S
C178 H192 0.930 . S
C179 C176 1.344 . S
C179 C178 1.371 . S
C179 H193 0.931 . S
C180 C176 1.328 . S
C180 C181 1.433 . S
C180 H194 0.931 . S
C181 C177 1.323 . S
C181 C180 1.433 . S
C181 H195 0.933 . S
C182 Dy160 2.738 . S
C182 O165 1.255 . S
C182 O166 1.249 . S
C182 C176 1.516 . S
C183 O167 1.254 . S
C183 O168 1.257 . S
C184 O169 1.266 . S
C184 O170 1.236 . S
C185 C188 1.344 . S
C185 C189 1.328 . S
C185 C191 1.516 . S
C186 C187 1.304 . S
C186 C190 1.323 . S
C187 C186 1.304 . S
C187 C188 1.371 . S
C187 H196 0.930 . S
C188 C185 1.344 . S
C188 C187 1.371 . S
C188 H197 0.931 . S
C189 C185 1.328 . S
C189 C190 1.433 . S
C189 H198 0.931 . S
C190 C186 1.323 . S
C190 C189 1.433 . S
C190 H199 0.933 . S
C191 Dy161 2.738 . S
C191 O171 1.255 . S
C191 O172 1.249 . S
C191 C185 1.516 . S
H192 C178 0.930 . S
H193 C179 0.931 . S
H194 C180 0.931 . S
H195 C181 0.933 . S
H196 C187 0.930 . S
H197 C188 0.931 . S
H198 C189 0.931 . S
H199 C190 0.933 . S
Dy200 O203 2.307 . S
Dy200 O205 2.395 . S
Dy200 O206 2.379 . S
Dy200 O208 2.339 . S
Dy200 O210 2.298 . S
Dy200 O214 2.275 . S
Dy200 C222 2.738 . S
Dy201 O204 2.298 . S
Dy201 O207 2.275 . S
Dy201 O209 2.307 . S
Dy201 O211 2.395 . S
Dy201 O212 2.379 . S
Dy201 O215 2.339 . S
Dy201 C231 2.738 . S
C202 O214 1.254 . S
C202 O215 1.257 . S
O203 Dy200 2.307 . S
O203 C213 1.266 . S
O204 Dy201 2.298 . S
O204 C213 1.236 . S
O205 Dy200 2.395 . S
O205 C222 1.255 . S
O206 Dy200 2.379 . S
O206 C222 1.249 . S
O207 Dy201 2.275 . S
O207 C223 1.254 . S
O208 Dy200 2.339 . S
O208 C223 1.257 . S
O209 Dy201 2.307 . S
O209 C224 1.266 . S
O210 Dy200 2.298 . S
O210 C224 1.236 . S
O211 Dy201 2.395 . S
O211 C231 1.255 . S
O212 Dy201 2.379 . S
O212 C231 1.249 . S
C213 O203 1.266 . S
C213 O204 1.236 . S
O214 Dy200 2.275 . S
O214 C202 1.254 . S
O215 Dy201 2.339 . S
O215 C202 1.257 . S
C216 C219 1.344 . S
C216 C220 1.328 . S
C216 C222 1.516 . S
C217 C218 1.304 . S
C217 C221 1.323 . S
C218 C217 1.304 . S
C218 C219 1.371 . S
C218 H232 0.930 . S
C219 C216 1.344 . S
C219 C218 1.371 . S
C219 H233 0.931 . S
C220 C216 1.328 . S
C220 C221 1.433 . S
C220 H234 0.931 . S
C221 C217 1.323 . S
C221 C220 1.433 . S
C221 H235 0.933 . S
C222 Dy200 2.738 . S
C222 O205 1.255 . S
C222 O206 1.249 . S
C222 C216 1.516 . S
C223 O207 1.254 . S
C223 O208 1.257 . S
C224 O209 1.266 . S
C224 O210 1.236 . S
C225 C228 1.344 . S
C225 C229 1.328 . S
C225 C231 1.516 . S
C226 C227 1.304 . S
C226 C230 1.323 . S
C227 C226 1.304 . S
C227 C228 1.371 . S
C227 H236 0.930 . S
C228 C225 1.344 . S
C228 C227 1.371 . S
C228 H237 0.931 . S
C229 C225 1.328 . S
C229 C230 1.433 . S
C229 H238 0.931 . S
C230 C226 1.323 . S
C230 C229 1.433 . S
C230 H239 0.933 . S
C231 Dy201 2.738 . S
C231 O211 1.255 . S
C231 O212 1.249 . S
C231 C225 1.516 . S
H232 C218 0.930 . S
H233 C219 0.931 . S
H234 C220 0.931 . S
H235 C221 0.933 . S
H236 C227 0.930 . S
H237 C228 0.931 . S
H238 C229 0.931 . S
H239 C230 0.933 . S
Dy240 O243 2.307 . S
Dy240 O245 2.395 . S
Dy240 O246 2.379 . S
Dy240 O248 2.339 . S
Dy240 O250 2.298 . S
Dy240 O254 2.275 . S
Dy240 C262 2.738 . S
Dy241 O244 2.298 . S
Dy241 O247 2.275 . S
Dy241 O249 2.307 . S
Dy241 O251 2.395 . S
Dy241 O252 2.379 . S
Dy241 O255 2.339 . S
Dy241 C271 2.738 . S
C242 O254 1.254 . S
C242 O255 1.257 . S
O243 Dy240 2.307 . S
O243 C253 1.266 . S
O244 Dy241 2.298 . S
O244 C253 1.236 . S
O245 Dy240 2.395 . S
O245 C262 1.255 . S
O246 Dy240 2.379 . S
O246 C262 1.249 . S
O247 Dy241 2.275 . S
O247 C263 1.254 . S
O248 Dy240 2.339 . S
O248 C263 1.257 . S
O249 Dy241 2.307 . S
O249 C264 1.266 . S
O250 Dy240 2.298 . S
O250 C264 1.236 . S
O251 Dy241 2.395 . S
O251 C271 1.255 . S
O252 Dy241 2.379 . S
O252 C271 1.249 . S
C253 O243 1.266 . S
C253 O244 1.236 . S
O254 Dy240 2.275 . S
O254 C242 1.254 . S
O255 Dy241 2.339 . S
O255 C242 1.257 . S
C256 C259 1.344 . S
C256 C260 1.328 . S
C256 C262 1.516 . S
C257 C258 1.304 . S
C257 C261 1.323 . S
C258 C257 1.304 . S
C258 C259 1.371 . S
C258 H272 0.930 . S
C259 C256 1.344 . S
C259 C258 1.371 . S
C259 H273 0.931 . S
C260 C256 1.328 . S
C260 C261 1.433 . S
C260 H274 0.931 . S
C261 C257 1.323 . S
C261 C260 1.433 . S
C261 H275 0.933 . S
C262 Dy240 2.738 . S
C262 O245 1.255 . S
C262 O246 1.249 . S
C262 C256 1.516 . S
C263 O247 1.254 . S
C263 O248 1.257 . S
C264 O249 1.266 . S
C264 O250 1.236 . S
C265 C268 1.344 . S
C265 C269 1.328 . S
C265 C271 1.516 . S
C266 C267 1.304 . S
C266 C270 1.323 . S
C267 C266 1.304 . S
C267 C268 1.371 . S
C267 H276 0.930 . S
C268 C265 1.344 . S
C268 C267 1.371 . S
C268 H277 0.931 . S
C269 C265 1.328 . S
C269 C270 1.433 . S
C269 H278 0.931 . S
C270 C266 1.323 . S
C270 C269 1.433 . S
C270 H279 0.933 . S
C271 Dy241 2.738 . S
C271 O251 1.255 . S
C271 O252 1.249 . S
C271 C265 1.516 . S
H272 C258 0.930 . S
H273 C259 0.931 . S
H274 C260 0.931 . S
H275 C261 0.933 . S
H276 C267 0.930 . S
H277 C268 0.931 . S
H278 C269 0.931 . S
H279 C270 0.933 . S
Dy280 O283 2.307 . S
Dy280 O285 2.395 . S
Dy280 O286 2.379 . S
Dy280 O288 2.339 . S
Dy280 O290 2.298 . S
Dy280 O294 2.275 . S
Dy280 C302 2.738 . S
Dy281 O284 2.298 . S
Dy281 O287 2.275 . S
Dy281 O289 2.307 . S
Dy281 O291 2.395 . S
Dy281 O292 2.379 . S
Dy281 O295 2.339 . S
Dy281 C311 2.738 . S
C282 O294 1.254 . S
C282 O295 1.257 . S
O283 Dy280 2.307 . S
O283 C293 1.266 . S
O284 Dy281 2.298 . S
O284 C293 1.236 . S
O285 Dy280 2.395 . S
O285 C302 1.255 . S
O286 Dy280 2.379 . S
O286 C302 1.249 . S
O287 Dy281 2.275 . S
O287 C303 1.254 . S
O288 Dy280 2.339 . S
O288 C303 1.257 . S
O289 Dy281 2.307 . S
O289 C304 1.266 . S
O290 Dy280 2.298 . S
O290 C304 1.236 . S
O291 Dy281 2.395 . S
O291 C311 1.255 . S
O292 Dy281 2.379 . S
O292 C311 1.249 . S
C293 O283 1.266 . S
C293 O284 1.236 . S
O294 Dy280 2.275 . S
O294 C282 1.254 . S
O295 Dy281 2.339 . S
O295 C282 1.257 . S
C296 C299 1.344 . S
C296 C300 1.328 . S
C296 C302 1.516 . S
C297 C298 1.304 . S
C297 C301 1.323 . S
C298 C297 1.304 . S
C298 C299 1.371 . S
C298 H312 0.930 . S
C299 C296 1.344 . S
C299 C298 1.371 . S
C299 H313 0.931 . S
C300 C296 1.328 . S
C300 C301 1.433 . S
C300 H314 0.931 . S
C301 C297 1.323 . S
C301 C300 1.433 . S
C301 H315 0.933 . S
C302 Dy280 2.738 . S
C302 O285 1.255 . S
C302 O286 1.249 . S
C302 C296 1.516 . S
C303 O287 1.254 . S
C303 O288 1.257 . S
C304 O289 1.266 . S
C304 O290 1.236 . S
C305 C308 1.344 . S
C305 C309 1.328 . S
C305 C311 1.516 . S
C306 C307 1.304 . S
C306 C310 1.323 . S
C307 C306 1.304 . S
C307 C308 1.371 . S
C307 H316 0.930 . S
C308 C305 1.344 . S
C308 C307 1.371 . S
C308 H317 0.931 . S
C309 C305 1.328 . S
C309 C310 1.433 . S
C309 H318 0.931 . S
C310 C306 1.323 . S
C310 C309 1.433 . S
C310 H319 0.933 . S
C311 Dy281 2.738 . S
C311 O291 1.255 . S
C311 O292 1.249 . S
C311 C305 1.516 . S
H312 C298 0.930 . S
H313 C299 0.931 . S
H314 C300 0.931 . S
H315 C301 0.933 . S
H316 C307 0.930 . S
H317 C308 0.931 . S
H318 C309 0.931 . S
H319 C310 0.933 . S
Dy320 O323 2.307 . S
Dy320 O325 2.395 . S
Dy320 O326 2.379 . S
Dy320 O328 2.339 . S
Dy320 O330 2.298 . S
Dy320 O334 2.275 . S
Dy320 C342 2.738 . S
Dy321 O324 2.298 . S
Dy321 O327 2.275 . S
Dy321 O329 2.307 . S
Dy321 O331 2.395 . S
Dy321 O332 2.379 . S
Dy321 O335 2.339 . S
Dy321 C351 2.738 . S
C322 O334 1.254 . S
C322 O335 1.257 . S
O323 Dy320 2.307 . S
O323 C333 1.266 . S
O324 Dy321 2.298 . S
O324 C333 1.236 . S
O325 Dy320 2.395 . S
O325 C342 1.255 . S
O326 Dy320 2.379 . S
O326 C342 1.249 . S
O327 Dy321 2.275 . S
O327 C343 1.254 . S
O328 Dy320 2.339 . S
O328 C343 1.257 . S
O329 Dy321 2.307 . S
O329 C344 1.266 . S
O330 Dy320 2.298 . S
O330 C344 1.236 . S
O331 Dy321 2.395 . S
O331 C351 1.255 . S
O332 Dy321 2.379 . S
O332 C351 1.249 . S
C333 O323 1.266 . S
C333 O324 1.236 . S
O334 Dy320 2.275 . S
O334 C322 1.254 . S
O335 Dy321 2.339 . S
O335 C322 1.257 . S
C336 C339 1.344 . S
C336 C340 1.328 . S
C336 C342 1.516 . S
C337 C338 1.304 . S
C337 C341 1.323 . S
C338 C337 1.304 . S
C338 C339 1.371 . S
C338 H352 0.930 . S
C339 C336 1.344 . S
C339 C338 1.371 . S
C339 H353 0.931 . S
C340 C336 1.328 . S
C340 C341 1.433 . S
C340 H354 0.931 . S
C341 C337 1.323 . S
C341 C340 1.433 . S
C341 H355 0.933 . S
C342 Dy320 2.738 . S
C342 O325 1.255 . S
C342 O326 1.249 . S
C342 C336 1.516 . S
C343 O327 1.254 . S
C343 O328 1.257 . S
C344 O329 1.266 . S
C344 O330 1.236 . S
C345 C348 1.344 . S
C345 C349 1.328 . S
C345 C351 1.516 . S
C346 C347 1.304 . S
C346 C350 1.323 . S
C347 C346 1.304 . S
C347 C348 1.371 . S
C347 H356 0.930 . S
C348 C345 1.344 . S
C348 C347 1.371 . S
C348 H357 0.931 . S
C349 C345 1.328 . S
C349 C350 1.433 . S
C349 H358 0.931 . S
C350 C346 1.323 . S
C350 C349 1.433 . S
C350 H359 0.933 . S
C351 Dy321 2.738 . S
C351 O331 1.255 . S
C351 O332 1.249 . S
C351 C345 1.516 . S
H352 C338 0.930 . S
H353 C339 0.931 . S
H354 C340 0.931 . S
H355 C341 0.933 . S
H356 C347 0.930 . S
H357 C348 0.931 . S
H358 C349 0.931 . S
H359 C350 0.933 . S
H360 C368 0.950 . S
H361 C373 0.950 . S
H362 C370 0.950 . S
H363 C372 0.950 . S
H364 C374 0.950 . S
H365 C376 0.950 . S
H366 C378 0.950 . S
H367 C379 0.950 . S
C368 H360 0.950 . S
C368 C369 1.386 . S
C368 C370 1.391 . S
C369 C368 1.386 . S
C369 C373 1.393 . S
C370 H362 0.950 . S
C370 C368 1.391 . S
C370 C371 1.400 . S
C371 C370 1.400 . S
C371 C372 1.398 . S
C371 C377 1.491 . S
C372 H363 0.950 . S
C372 C371 1.398 . S
C372 C373 1.391 . S
C373 H361 0.950 . S
C373 C369 1.393 . S
C373 C372 1.391 . S
C374 H364 0.950 . S
C374 C375 1.386 . S
C374 C376 1.391 . S
C375 C374 1.386 . S
C375 C379 1.393 . S
C376 H365 0.950 . S
C376 C374 1.391 . S
C376 C377 1.400 . S
C377 C371 1.491 . S
C377 C376 1.400 . S
C377 C378 1.398 . S
C378 H366 0.950 . S
C378 C377 1.398 . S
C378 C379 1.391 . S
C379 H367 0.950 . S
C379 C375 1.393 . S
C379 C378 1.391 . S
H380 C388 0.950 . S
H381 C393 0.950 . S
H382 C390 0.950 . S
H383 C392 0.950 . S
H384 C394 0.950 . S
H385 C396 0.950 . S
H386 C398 0.950 . S
H387 C399 0.950 . S
C388 H380 0.950 . S
C388 C389 1.386 . S
C388 C390 1.391 . S
C389 C388 1.386 . S
C389 C393 1.393 . S
C390 H382 0.950 . S
C390 C388 1.391 . S
C390 C391 1.400 . S
C391 C390 1.400 . S
C391 C392 1.398 . S
C391 C397 1.491 . S
C392 H383 0.950 . S
C392 C391 1.398 . S
C392 C393 1.391 . S
C393 H381 0.950 . S
C393 C389 1.393 . S
C393 C392 1.391 . S
C394 H384 0.950 . S
C394 C395 1.386 . S
C394 C396 1.391 . S
C395 C394 1.386 . S
C395 C399 1.393 . S
C396 H385 0.950 . S
C396 C394 1.391 . S
C396 C397 1.400 . S
C397 C391 1.491 . S
C397 C396 1.400 . S
C397 C398 1.398 . S
C398 H386 0.950 . S
C398 C397 1.398 . S
C398 C399 1.391 . S
C399 H387 0.950 . S
C399 C395 1.393 . S
C399 C398 1.391 . S
H400 C408 0.950 . S
H401 C413 0.950 . S
H402 C410 0.950 . S
H403 C412 0.950 . S
H404 C414 0.950 . S
H405 C416 0.950 . S
H406 C418 0.950 . S
H407 C419 0.950 . S
C408 H400 0.950 . S
C408 C409 1.386 . S
C408 C410 1.391 . S
C409 C408 1.386 . S
C409 C413 1.393 . S
C410 H402 0.950 . S
C410 C408 1.391 . S
C410 C411 1.400 . S
C411 C410 1.400 . S
C411 C412 1.398 . S
C411 C417 1.491 . S
C412 H403 0.950 . S
C412 C411 1.398 . S
C412 C413 1.391 . S
C413 H401 0.950 . S
C413 C409 1.393 . S
C413 C412 1.391 . S
C414 H404 0.950 . S
C414 C415 1.386 . S
C414 C416 1.391 . S
C415 C414 1.386 . S
C415 C419 1.393 . S
C416 H405 0.950 . S
C416 C414 1.391 . S
C416 C417 1.400 . S
C417 C411 1.491 . S
C417 C416 1.400 . S
C417 C418 1.398 . S
C418 H406 0.950 . S
C418 C417 1.398 . S
C418 C419 1.391 . S
C419 H407 0.950 . S
C419 C415 1.393 . S
C419 C418 1.391 . S
H420 C428 0.950 . S
H421 C433 0.950 . S
H422 C430 0.950 . S
H423 C432 0.950 . S
H424 C434 0.950 . S
H425 C436 0.950 . S
H426 C438 0.950 . S
H427 C439 0.950 . S
C428 H420 0.950 . S
C428 C429 1.386 . S
C428 C430 1.391 . S
C429 C428 1.386 . S
C429 C433 1.393 . S
C430 H422 0.950 . S
C430 C428 1.391 . S
C430 C431 1.400 . S
C431 C430 1.400 . S
C431 C432 1.398 . S
C431 C437 1.491 . S
C432 H423 0.950 . S
C432 C431 1.398 . S
C432 C433 1.391 . S
C433 H421 0.950 . S
C433 C429 1.393 . S
C433 C432 1.391 . S
C434 H424 0.950 . S
C434 C435 1.386 1_556 S
C434 C436 1.391 1_556 S
C435 C434 1.386 1_554 S
C435 C439 1.393 . S
C436 H425 0.950 . S
C436 C434 1.391 1_554 S
C436 C437 1.400 . S
C437 C431 1.491 . S
C437 C436 1.400 . S
C437 C438 1.398 . S
C438 H426 0.950 . S
C438 C437 1.398 . S
C438 C439 1.391 . S
C439 H427 0.950 . S
C439 C435 1.393 . S
C439 C438 1.391 . S
H440 C448 0.950 . S
H441 C453 0.950 . S
H442 C450 0.950 . S
H443 C452 0.950 . S
H444 C454 0.950 . S
H445 C456 0.950 . S
H446 C458 0.950 . S
H447 C459 0.950 . S
C448 H440 0.950 . S
C448 C449 1.386 . S
C448 C450 1.391 . S
C449 C448 1.386 . S
C449 C453 1.393 . S
C450 H442 0.950 . S
C450 C448 1.391 . S
C450 C451 1.400 . S
C451 C450 1.400 . S
C451 C452 1.398 . S
C451 C457 1.491 . S
C452 H443 0.950 . S
C452 C451 1.398 . S
C452 C453 1.391 . S
C453 H441 0.950 . S
C453 C449 1.393 . S
C453 C452 1.391 . S
C454 H444 0.950 . S
C454 C455 1.386 1_556 S
C454 C456 1.391 1_556 S
C455 C454 1.386 1_554 S
C455 C459 1.393 . S
C456 H445 0.950 . S
C456 C454 1.391 1_554 S
C456 C457 1.400 . S
C457 C451 1.491 . S
C457 C456 1.400 . S
C457 C458 1.398 . S
C458 H446 0.950 . S
C458 C457 1.398 . S
C458 C459 1.391 . S
C459 H447 0.950 . S
C459 C455 1.393 . S
C459 C458 1.391 . S
H460 C468 0.950 . S
H461 C473 0.950 1_556 S
H462 C470 0.950 . S
H463 C472 0.950 . S
H464 C474 0.950 . S
H465 C476 0.950 . S
H466 C478 0.950 . S
H467 C479 0.950 . S
C468 H460 0.950 . S
C468 C469 1.386 . S
C468 C470 1.391 . S
C469 C468 1.386 . S
C469 C473 1.393 . S
C470 H462 0.950 . S
C470 C468 1.391 . S
C470 C471 1.400 . S
C471 C470 1.400 . S
C471 C472 1.398 . S
C471 C477 1.491 . S
C472 H463 0.950 . S
C472 C471 1.398 . S
C472 C473 1.391 . S
C473 H461 0.950 1_554 S
C473 C469 1.393 . S
C473 C472 1.391 . S
C474 H464 0.950 . S
C474 C475 1.386 . S
C474 C476 1.391 . S
C475 C474 1.386 . S
C475 C479 1.393 . S
C476 H465 0.950 . S
C476 C474 1.391 . S
C476 C477 1.400 . S
C477 C471 1.491 . S
C477 C476 1.400 . S
C477 C478 1.398 . S
C478 H466 0.950 . S
C478 C477 1.398 . S
C478 C479 1.391 . S
C479 H467 0.950 . S
C479 C475 1.393 . S
C479 C478 1.391 . S
H480 C488 0.945 . S
H481 C493 0.950 . S
H482 C490 0.950 . S
H483 C492 0.950 . S
H484 C494 0.950 . S
H485 C496 0.950 . S
H486 C498 0.950 . S
H487 C499 0.950 . S
C488 H480 0.945 . S
C488 C489 1.429 . S
C488 C490 1.354 1_455 S
C489 C488 1.429 . S
C489 C493 1.393 . S
C490 H482 0.950 . S
C490 C488 1.354 1_655 S
C490 C491 1.400 . S
C491 C490 1.400 . S
C491 C492 1.398 . S
C491 C497 1.491 . S
C492 H483 0.950 . S
C492 C491 1.398 . S
C492 C493 1.391 1_655 S
C493 H481 0.950 . S
C493 C489 1.393 . S
C493 C492 1.391 1_455 S
C494 H484 0.950 . S
C494 C495 1.386 . S
C494 C496 1.391 . S
C495 C494 1.386 . S
C495 C499 1.393 . S
C496 H485 0.950 . S
C496 C494 1.391 . S
C496 C497 1.400 . S
C497 C491 1.491 . S
C497 C496 1.400 . S
C497 C498 1.398 . S
C498 H486 0.950 . S
C498 C497 1.398 . S
C498 C499 1.391 . S
C499 H487 0.950 . S
C499 C495 1.393 . S
C499 C498 1.391 . S
H500 C508 0.950 . S
H501 C513 0.950 . S
H502 C510 0.950 . S
H503 C512 0.950 . S
H504 C514 0.950 . S
H505 C516 0.950 . S
H506 C518 0.950 . S
H507 C519 0.950 . S
C508 H500 0.950 . S
C508 C509 1.386 . S
C508 C510 1.391 . S
C509 C508 1.386 . S
C509 C513 1.393 . S
C510 H502 0.950 . S
C510 C508 1.391 . S
C510 C511 1.400 . S
C511 C510 1.400 . S
C511 C512 1.398 . S
C511 C517 1.491 . S
C512 H503 0.950 . S
C512 C511 1.398 . S
C512 C513 1.391 . S
C513 H501 0.950 . S
C513 C509 1.393 . S
C513 C512 1.391 . S
C514 H504 0.950 . S
C514 C515 1.386 . S
C514 C516 1.391 . S
C515 C514 1.386 . S
C515 C519 1.393 . S
C516 H505 0.950 . S
C516 C514 1.391 . S
C516 C517 1.400 . S
C517 C511 1.491 . S
C517 C516 1.400 . S
C517 C518 1.398 . S
C518 H506 0.950 . S
C518 C517 1.398 . S
C518 C519 1.391 . S
C519 H507 0.950 . S
C519 C515 1.393 . S
C519 C518 1.391 . S
H520 C528 0.950 . S
H521 C533 0.950 . S
H522 C530 0.950 . S
H523 C532 0.950 . S
H524 C534 0.950 . S
H525 C536 0.950 . S
H526 C538 0.950 . S
H527 C539 0.950 . S
C528 H520 0.950 . S
C528 C529 1.386 . S
C528 C530 1.391 . S
C529 C528 1.386 . S
C529 C533 1.393 . S
C530 H522 0.950 . S
C530 C528 1.391 . S
C530 C531 1.400 . S
C531 C530 1.400 . S
C531 C532 1.398 . S
C531 C537 1.491 . S
C532 H523 0.950 . S
C532 C531 1.398 . S
C532 C533 1.391 . S
C533 H521 0.950 . S
C533 C529 1.393 . S
C533 C532 1.391 . S
C534 H524 0.950 . S
C534 C535 1.386 . S
C534 C536 1.391 . S
C535 C534 1.386 . S
C535 C539 1.393 . S
C536 H525 0.950 . S
C536 C534 1.391 . S
C536 C537 1.400 . S
C537 C531 1.491 . S
C537 C536 1.400 . S
C537 C538 1.398 . S
C538 H526 0.950 . S
C538 C537 1.398 . S
C538 C539 1.391 . S
C539 H527 0.950 . S
C539 C535 1.393 . S
C539 C538 1.391 . S
H540 C548 0.950 . S
H541 C553 0.950 1_556 S
H542 C550 0.950 . S
H543 C552 0.950 1_556 S
H544 C554 0.950 . S
H545 C556 0.950 . S
H546 C558 0.950 . S
H547 C559 0.950 . S
C548 H540 0.950 . S
C548 C549 1.386 . S
C548 C550 1.391 . S
C549 C548 1.386 . S
C549 C553 1.393 . S
C550 H542 0.950 . S
C550 C548 1.391 . S
C550 C551 1.400 . S
C551 C550 1.400 . S
C551 C552 1.398 . S
C551 C557 1.491 . S
C552 H543 0.950 1_554 S
C552 C551 1.398 . S
C552 C553 1.391 . S
C553 H541 0.950 1_554 S
C553 C549 1.393 . S
C553 C552 1.391 . S
C554 H544 0.950 . S
C554 C555 1.386 1_556 S
C554 C556 1.391 . S
C555 C554 1.386 1_554 S
C555 C559 1.393 . S
C556 H545 0.950 . S
C556 C554 1.391 . S
C556 C557 1.400 1_556 S
C557 C551 1.491 . S
C557 C556 1.400 1_554 S
C557 C558 1.398 . S
C558 H546 0.950 . S
C558 C557 1.398 . S
C558 C559 1.391 . S
C559 H547 0.950 . S
C559 C555 1.393 . S
C559 C558 1.391 . S
H560 C568 0.950 1_556 S
H561 C573 0.950 . S
H562 C570 0.950 . S
H563 C572 0.950 . S
H564 C574 0.950 . S
H565 C576 0.950 . S
H566 C578 0.950 . S
H567 C579 0.950 . S
C568 H560 0.950 1_554 S
C568 C569 1.386 . S
C568 C570 1.391 . S
C569 C568 1.386 . S
C569 C573 1.393 . S
C570 H562 0.950 . S
C570 C568 1.391 . S
C570 C571 1.400 . S
C571 C570 1.400 . S
C571 C572 1.398 . S
C571 C577 1.491 . S
C572 H563 0.950 . S
C572 C571 1.398 . S
C572 C573 1.391 . S
C573 H561 0.950 . S
C573 C569 1.393 . S
C573 C572 1.391 . S
C574 H564 0.950 . S
C574 C575 1.386 . S
C574 C576 1.391 1_545 S
C575 C574 1.386 . S
C575 C579 1.393 . S
C576 H565 0.950 . S
C576 C574 1.391 1_565 S
C576 C577 1.400 . S
C577 C571 1.491 . S
C577 C576 1.400 . S
C577 C578 1.398 . S
C578 H566 0.950 . S
C578 C577 1.398 . S
C578 C579 1.391 1_565 S
C579 H567 0.950 . S
C579 C575 1.393 . S
C579 C578 1.391 1_545 S
H580 C588 0.950 . S
H581 C593 0.950 . S
H582 C590 0.950 . S
H583 C592 0.950 . S
H584 C594 0.950 1_545 S
H585 C596 0.950 . S
H586 C598 0.950 . S
H587 C599 0.950 . S
C588 H580 0.950 . S
C588 C589 1.391 . S
C588 C590 1.391 . S
C589 C588 1.391 . S
C589 C593 1.393 . S
C590 H582 0.950 . S
C590 C588 1.391 . S
C590 C591 1.400 . S
C591 C590 1.400 . S
C591 C592 1.398 . S
C591 C597 1.491 . S
C592 H583 0.950 . S
C592 C591 1.398 . S
C592 C593 1.391 . S
C593 H581 0.950 . S
C593 C589 1.393 . S
C593 C592 1.391 . S
C594 H584 0.950 1_565 S
C594 C595 1.386 . S
C594 C596 1.391 . S
C595 C594 1.386 . S
C595 C599 1.393 . S
C596 H585 0.950 . S
C596 C594 1.391 . S
C596 C597 1.400 . S
C597 C591 1.491 . S
C597 C596 1.400 . S
C597 C598 1.398 . S
C598 H586 0.950 . S
C598 C597 1.398 . S
C598 C599 1.391 . S
C599 H587 0.950 . S
C599 C595 1.393 . S
C599 C598 1.391 . S
H600 C608 0.950 . S
H601 C613 0.950 . S
H602 C610 0.950 . S
H603 C612 0.950 . S
H604 C614 0.950 . S
H605 C616 0.950 . S
H606 C618 0.950 . S
H607 C619 0.950 . S
C608 H600 0.950 . S
C608 C609 1.386 . S
C608 C610 1.391 . S
C609 C608 1.386 . S
C609 C613 1.393 . S
C610 H602 0.950 . S
C610 C608 1.391 . S
C610 C611 1.400 . S
C611 C610 1.400 . S
C611 C612 1.398 . S
C611 C617 1.491 . S
C612 H603 0.950 . S
C612 C611 1.398 . S
C612 C613 1.391 . S
C613 H601 0.950 . S
C613 C609 1.393 . S
C613 C612 1.391 . S
C614 H604 0.950 . S
C614 C615 1.386 . S
C614 C616 1.391 . S
C615 C614 1.386 . S
C615 C619 1.393 . S
C616 H605 0.950 . S
C616 C614 1.391 . S
C616 C617 1.400 . S
C617 C611 1.491 . S
C617 C616 1.400 . S
C617 C618 1.398 . S
C618 H606 0.950 . S
C618 C617 1.398 . S
C618 C619 1.391 . S
C619 H607 0.950 . S
C619 C615 1.393 . S
C619 C618 1.391 . S
H620 C628 0.950 . S
H621 C633 0.950 . S
H622 C630 0.950 . S
H623 C632 0.950 . S
H624 C634 0.950 . S
H625 C636 0.950 . S
H626 C638 0.950 . S
H627 C639 0.950 . S
C628 H620 0.950 . S
C628 C629 1.386 . S
C628 C630 1.391 . S
C629 C628 1.386 . S
C629 C633 1.393 . S
C630 H622 0.950 . S
C630 C628 1.391 . S
C630 C631 1.400 . S
C631 C630 1.400 . S
C631 C632 1.398 . S
C631 C637 1.491 . S
C632 H623 0.950 . S
C632 C631 1.398 . S
C632 C633 1.391 . S
C633 H621 0.950 . S
C633 C629 1.393 . S
C633 C632 1.391 . S
C634 H624 0.950 . S
C634 C635 1.386 . S
C634 C636 1.391 . S
C635 C634 1.386 . S
C635 C639 1.393 . S
C636 H625 0.950 . S
C636 C634 1.391 . S
C636 C637 1.400 . S
C637 C631 1.491 . S
C637 C636 1.400 . S
C637 C638 1.398 . S
C638 H626 0.950 . S
C638 C637 1.398 . S
C638 C639 1.391 . S
C639 H627 0.950 . S
C639 C635 1.393 . S
C639 C638 1.391 . S
H640 C648 0.950 . S
H641 C653 0.950 . S
H642 C650 0.950 . S
H643 C652 0.950 . S
H644 C654 0.950 . S
H645 C656 0.950 . S
H646 C658 0.950 . S
H647 C659 0.950 . S
C648 H640 0.950 . S
C648 C649 1.386 . S
C648 C650 1.391 . S
C649 C648 1.386 . S
C649 C653 1.393 . S
C650 H642 0.950 . S
C650 C648 1.391 . S
C650 C651 1.400 . S
C651 C650 1.400 . S
C651 C652 1.398 . S
C651 C657 1.491 . S
C652 H643 0.950 . S
C652 C651 1.398 . S
C652 C653 1.391 . S
C653 H641 0.950 . S
C653 C649 1.393 . S
C653 C652 1.391 . S
C654 H644 0.950 . S
C654 C655 1.386 . S
C654 C656 1.391 . S
C655 C654 1.386 . S
C655 C659 1.393 . S
C656 H645 0.950 . S
C656 C654 1.391 . S
C656 C657 1.400 . S
C657 C651 1.491 . S
C657 C656 1.400 . S
C657 C658 1.398 . S
C658 H646 0.950 . S
C658 C657 1.398 . S
C658 C659 1.391 . S
C659 H647 0.950 . S
C659 C655 1.393 . S
C659 C658 1.391 . S
H660 C668 0.950 . S
H661 C673 0.950 . S
H662 C670 0.950 . S
H663 C672 0.950 . S
H664 C674 0.950 . S
H665 C676 0.950 . S
H666 C678 0.950 . S
H667 C679 0.950 . S
C668 H660 0.950 . S
C668 C669 1.386 . S
C668 C670 1.391 . S
C669 C668 1.386 . S
C669 C673 1.393 . S
C670 H662 0.950 . S
C670 C668 1.391 . S
C670 C671 1.400 . S
C671 C670 1.400 . S
C671 C672 1.398 . S
C671 C677 1.491 . S
C672 H663 0.950 . S
C672 C671 1.398 . S
C672 C673 1.391 . S
C673 H661 0.950 . S
C673 C669 1.393 . S
C673 C672 1.391 . S
C674 H664 0.950 . S
C674 C675 1.386 . S
C674 C676 1.391 . S
C675 C674 1.386 . S
C675 C679 1.393 . S
C676 H665 0.950 . S
C676 C674 1.391 . S
C676 C677 1.400 . S
C677 C671 1.491 . S
C677 C676 1.400 . S
C677 C678 1.398 . S
C678 H666 0.950 . S
C678 C677 1.398 . S
C678 C679 1.391 . S
C679 H667 0.950 . S
C679 C675 1.393 . S
C679 C678 1.391 . S
H680 C688 0.950 . S
H681 C693 0.950 . S
H682 C690 0.950 . S
H683 C692 0.950 . S
H684 C694 0.950 . S
H685 C696 0.950 . S
H686 C698 0.950 . S
H687 C699 0.950 . S
C688 H680 0.950 . S
C688 C689 1.386 . S
C688 C690 1.391 . S
C689 C688 1.386 . S
C689 C693 1.393 . S
C690 H682 0.950 . S
C690 C688 1.391 . S
C690 C691 1.400 . S
C691 C690 1.400 . S
C691 C692 1.398 . S
C691 C697 1.491 . S
C692 H683 0.950 . S
C692 C691 1.398 . S
C692 C693 1.391 . S
C693 H681 0.950 . S
C693 C689 1.393 . S
C693 C692 1.391 . S
C694 H684 0.950 . S
C694 C695 1.386 . S
C694 C696 1.391 . S
C695 C694 1.386 . S
C695 C699 1.393 . S
C696 H685 0.950 . S
C696 C694 1.391 . S
C696 C697 1.400 . S
C697 C691 1.491 . S
C697 C696 1.400 . S
C697 C698 1.398 . S
C698 H686 0.950 . S
C698 C697 1.398 . S
C698 C699 1.391 . S
C699 H687 0.950 . S
C699 C695 1.393 . S
C699 C698 1.391 . S
H700 C708 0.950 . S
H701 C713 0.950 . S
H702 C710 0.950 . S
H703 C712 0.950 . S
H704 C714 0.950 . S
H705 C716 0.950 . S
H706 C718 0.950 . S
H707 C719 0.950 . S
C708 H700 0.950 . S
C708 C709 1.386 . S
C708 C710 1.391 . S
C709 C708 1.386 . S
C709 C713 1.393 . S
C710 H702 0.950 . S
C710 C708 1.391 . S
C710 C711 1.400 . S
C711 C710 1.400 . S
C711 C712 1.398 . S
C711 C717 1.491 . S
C712 H703 0.950 . S
C712 C711 1.398 . S
C712 C713 1.391 . S
C713 H701 0.950 . S
C713 C709 1.393 . S
C713 C712 1.391 . S
C714 H704 0.950 . S
C714 C715 1.386 . S
C714 C716 1.391 . S
C715 C714 1.386 . S
C715 C719 1.393 . S
C716 H705 0.950 . S
C716 C714 1.391 . S
C716 C717 1.400 . S
C717 C711 1.491 . S
C717 C716 1.400 . S
C717 C718 1.398 . S
C718 H706 0.950 . S
C718 C717 1.398 . S
C718 C719 1.391 . S
C719 H707 0.950 . S
C719 C715 1.393 . S
C719 C718 1.391 . S
H720 C728 0.950 . S
H721 C733 0.950 . S
H722 C730 0.950 . S
H723 C732 0.950 . S
H724 C734 0.950 . S
H725 C736 0.950 . S
H726 C738 0.950 . S
H727 C739 0.950 . S
C728 H720 0.950 . S
C728 C729 1.386 1_655 S
C728 C730 1.391 . S
C729 C728 1.386 1_455 S
C729 C733 1.393 . S
C730 H722 0.950 . S
C730 C728 1.391 . S
C730 C731 1.400 1_655 S
C731 C730 1.400 1_455 S
C731 C732 1.398 . S
C731 C737 1.491 . S
C732 H723 0.950 . S
C732 C731 1.398 . S
C732 C733 1.391 . S
C733 H721 0.950 . S
C733 C729 1.393 . S
C733 C732 1.391 . S
C734 H724 0.950 . S
C734 C735 1.386 . S
C734 C736 1.391 . S
C735 C734 1.386 . S
C735 C739 1.393 1_455 S
C736 H725 0.950 . S
C736 C734 1.391 . S
C736 C737 1.400 . S
C737 C731 1.491 . S
C737 C736 1.400 . S
C737 C738 1.398 1_455 S
C738 H726 0.950 . S
C738 C737 1.398 1_655 S
C738 C739 1.391 . S
C739 H727 0.950 . S
C739 C735 1.393 1_655 S
C739 C738 1.391 . S
H740 C748 0.950 . S
H741 C753 0.950 . S
H742 C750 0.950 . S
H743 C752 0.950 . S
H744 C754 0.950 . S
H745 C756 0.950 . S
H746 C758 0.950 . S
H747 C759 0.950 . S
C748 H740 0.950 . S
C748 C749 1.386 . S
C748 C750 1.391 . S
C749 C748 1.386 . S
C749 C753 1.393 . S
C750 H742 0.950 . S
C750 C748 1.391 . S
C750 C751 1.400 . S
C751 C750 1.400 . S
C751 C752 1.398 . S
C751 C757 1.491 . S
C752 H743 0.950 . S
C752 C751 1.398 . S
C752 C753 1.391 . S
C753 H741 0.950 . S
C753 C749 1.393 . S
C753 C752 1.391 . S
C754 H744 0.950 . S
C754 C755 1.386 . S
C754 C756 1.391 . S
C755 C754 1.386 . S
C755 C759 1.393 . S
C756 H745 0.950 . S
C756 C754 1.391 . S
C756 C757 1.400 . S
C757 C751 1.491 . S
C757 C756 1.400 . S
C757 C758 1.398 . S
C758 H746 0.950 . S
C758 C757 1.398 . S
C758 C759 1.391 . S
C759 H747 0.950 . S
C759 C755 1.393 . S
C759 C758 1.391 . S
H760 C768 0.950 1_565 S
H761 C773 0.950 . S
H762 C770 0.948 1_565 S
H763 C772 0.950 . S
H764 C774 0.950 . S
H765 C776 0.950 . S
H766 C778 0.950 . S
H767 C779 0.950 . S
C768 H760 0.950 1_545 S
C768 C769 1.386 . S
C768 C770 1.392 . S
C769 C768 1.386 . S
C769 C773 1.393 . S
C770 H762 0.948 1_545 S
C770 C768 1.392 . S
C770 C771 1.403 . S
C771 C770 1.403 . S
C771 C772 1.398 . S
C771 C777 1.491 . S
C772 H763 0.950 . S
C772 C771 1.398 . S
C772 C773 1.391 . S
C773 H761 0.950 . S
C773 C769 1.393 . S
C773 C772 1.391 . S
C774 H764 0.950 . S
C774 C775 1.386 . S
C774 C776 1.391 . S
C775 C774 1.386 . S
C775 C779 1.393 1_545 S
C776 H765 0.950 . S
C776 C774 1.391 . S
C776 C777 1.400 . S
C777 C771 1.491 . S
C777 C776 1.400 . S
C777 C778 1.398 1_545 S
C778 H766 0.950 . S
C778 C777 1.398 1_565 S
C778 C779 1.391 . S
C779 H767 0.950 . S
C779 C775 1.393 1_565 S
C779 C778 1.391 . S
H780 C788 0.950 . S
H781 C793 0.950 . S
H782 C790 0.950 . S
H783 C792 0.950 . S
H784 C794 0.950 . S
H785 C796 0.950 . S
H786 C798 0.950 . S
H787 C799 0.950 . S
C788 H780 0.950 . S
C788 C789 1.386 . S
C788 C790 1.391 . S
C789 C788 1.386 . S
C789 C793 1.393 . S
C790 H782 0.950 . S
C790 C788 1.391 . S
C790 C791 1.400 . S
C791 C790 1.400 . S
C791 C792 1.398 . S
C791 C797 1.491 . S
C792 H783 0.950 . S
C792 C791 1.398 . S
C792 C793 1.391 . S
C793 H781 0.950 . S
C793 C789 1.393 . S
C793 C792 1.391 . S
C794 H784 0.950 . S
C794 C795 1.386 . S
C794 C796 1.391 1_554 S
C795 C794 1.386 . S
C795 C799 1.393 . S
C796 H785 0.950 . S
C796 C794 1.391 1_556 S
C796 C797 1.400 . S
C797 C791 1.491 . S
C797 C796 1.400 . S
C797 C798 1.398 . S
C798 H786 0.950 . S
C798 C797 1.398 . S
C798 C799 1.391 1_556 S
C799 H787 0.950 . S
C799 C795 1.393 . S
C799 C798 1.391 1_554 S
H800 C808 0.950 . S
H801 C813 0.950 . S
H802 C810 0.950 . S
H803 C812 0.950 . S
H804 C814 0.950 . S
H805 C816 0.950 . S
H806 C818 0.950 . S
H807 C819 0.950 . S
C808 H800 0.950 . S
C808 C809 1.386 . S
C808 C810 1.391 . S
C809 C808 1.386 . S
C809 C813 1.393 . S
C810 H802 0.950 . S
C810 C808 1.391 . S
C810 C811 1.400 . S
C811 C810 1.400 . S
C811 C812 1.398 . S
C811 C817 1.491 . S
C812 H803 0.950 . S
C812 C811 1.398 . S
C812 C813 1.391 . S
C813 H801 0.950 . S
C813 C809 1.393 . S
C813 C812 1.391 . S
C814 H804 0.950 . S
C814 C815 1.386 . S
C814 C816 1.391 1_554 S
C815 C814 1.386 . S
C815 C819 1.393 . S
C816 H805 0.950 . S
C816 C814 1.391 1_556 S
C816 C817 1.400 . S
C817 C811 1.491 . S
C817 C816 1.400 . S
C817 C818 1.398 . S
C818 H806 0.950 . S
C818 C817 1.398 . S
C818 C819 1.391 1_556 S
C819 H807 0.950 . S
C819 C815 1.393 . S
C819 C818 1.391 1_554 S
H820 C828 0.950 . S
H821 C833 0.950 . S
H822 C830 0.950 . S
H823 C832 0.950 . S
H824 C834 0.950 . S
H825 C836 0.950 . S
H826 C838 0.950 . S
H827 C839 0.950 . S
C828 H820 0.950 . S
C828 C829 1.386 . S
C828 C830 1.391 . S
C829 C828 1.386 . S
C829 C833 1.393 . S
C830 H822 0.950 . S
C830 C828 1.391 . S
C830 C831 1.400 . S
C831 C830 1.400 . S
C831 C832 1.398 . S
C831 C837 1.491 . S
C832 H823 0.950 . S
C832 C831 1.398 . S
C832 C833 1.391 . S
C833 H821 0.950 . S
C833 C829 1.393 . S
C833 C832 1.391 . S
C834 H824 0.950 . S
C834 C835 1.386 . S
C834 C836 1.391 1_554 S
C835 C834 1.386 . S
C835 C839 1.393 . S
C836 H825 0.950 . S
C836 C834 1.391 1_556 S
C836 C837 1.400 . S
C837 C831 1.491 . S
C837 C836 1.400 . S
C837 C838 1.398 . S
C838 H826 0.950 . S
C838 C837 1.398 . S
C838 C839 1.391 1_556 S
C839 H827 0.950 . S
C839 C835 1.393 . S
C839 C838 1.391 1_554 S
H840 C848 0.950 . S
H841 C853 0.950 . S
H842 C850 0.950 . S
H843 C852 0.950 . S
H844 C854 0.950 . S
H845 C856 0.950 . S
H846 C858 0.950 . S
H847 C859 0.950 . S
C848 H840 0.950 . S
C848 C849 1.386 . S
C848 C850 1.391 . S
C849 C848 1.386 . S
C849 C853 1.393 . S
C850 H842 0.950 . S
C850 C848 1.391 . S
C850 C851 1.400 . S
C851 C850 1.400 . S
C851 C852 1.398 . S
C851 C857 1.491 . S
C852 H843 0.950 . S
C852 C851 1.398 . S
C852 C853 1.391 . S
C853 H841 0.950 . S
C853 C849 1.393 . S
C853 C852 1.391 . S
C854 H844 0.950 . S
C854 C855 1.386 . S
C854 C856 1.391 1_556 S
C855 C854 1.386 . S
C855 C859 1.393 . S
C856 H845 0.950 . S
C856 C854 1.391 1_554 S
C856 C857 1.400 . S
C857 C851 1.491 . S
C857 C856 1.400 . S
C857 C858 1.398 . S
C858 H846 0.950 . S
C858 C857 1.398 . S
C858 C859 1.391 1_554 S
C859 H847 0.950 . S
C859 C855 1.393 . S
C859 C858 1.391 1_556 S
H860 C868 0.950 . S
H861 C873 0.950 . S
H862 C870 0.950 . S
H863 C872 0.950 . S
H864 C874 0.950 . S
H865 C876 0.950 . S
H866 C878 0.950 . S
H867 C879 0.950 . S
C868 H860 0.950 . S
C868 C869 1.386 . S
C868 C870 1.391 1_556 S
C869 C868 1.386 . S
C869 C873 1.393 . S
C870 H862 0.950 . S
C870 C868 1.391 1_554 S
C870 C871 1.400 . S
C871 C870 1.400 . S
C871 C872 1.398 . S
C871 C877 1.491 . S
C872 H863 0.950 . S
C872 C871 1.398 . S
C872 C873 1.391 1_554 S
C873 H861 0.950 . S
C873 C869 1.393 . S
C873 C872 1.391 1_556 S
C874 H864 0.950 . S
C874 C875 1.386 . S
C874 C876 1.391 . S
C875 C874 1.386 . S
C875 C879 1.393 . S
C876 H865 0.950 . S
C876 C874 1.391 . S
C876 C877 1.400 . S
C877 C871 1.491 . S
C877 C876 1.400 . S
C877 C878 1.398 . S
C878 H866 0.950 . S
C878 C877 1.398 . S
C878 C879 1.391 . S
C879 H867 0.950 . S
C879 C875 1.393 . S
C879 C878 1.391 . S
H880 C888 0.950 . S
H881 C893 0.950 . S
H882 C890 0.950 . S
H883 C892 0.950 . S
H884 C894 0.950 . S
H885 C896 0.950 . S
H886 C898 0.950 . S
H887 C899 0.950 . S
C888 H880 0.950 . S
C888 C889 1.386 . S
C888 C890 1.391 . S
C889 C888 1.386 . S
C889 C893 1.393 . S
C890 H882 0.950 . S
C890 C888 1.391 . S
C890 C891 1.400 . S
C891 C890 1.400 . S
C891 C892 1.398 . S
C891 C897 1.491 . S
C892 H883 0.950 . S
C892 C891 1.398 . S
C892 C893 1.391 . S
C893 H881 0.950 . S
C893 C889 1.393 . S
C893 C892 1.391 . S
C894 H884 0.950 . S
C894 C895 1.386 . S
C894 C896 1.391 1_556 S
C895 C894 1.386 . S
C895 C899 1.393 . S
C896 H885 0.950 . S
C896 C894 1.391 1_554 S
C896 C897 1.400 . S
C897 C891 1.491 . S
C897 C896 1.400 . S
C897 C898 1.398 . S
C898 H886 0.950 . S
C898 C897 1.398 . S
C898 C899 1.391 1_554 S
C899 H887 0.950 . S
C899 C895 1.393 . S
C899 C898 1.391 1_556 S
C369 C26 1.737 . S
C375 C293 1.710 . S
C389 C66 1.738 . S
C395 C333 1.712 . S
C409 C106 1.737 . S
C415 C253 1.711 . S
C429 C186 1.738 . S
C435 C93 1.709 . S
C449 C226 1.738 . S
C455 C13 1.709 . S
C469 C53 1.695 . S
C475 C146 1.727 . S
C489 C306 1.724 . S
C495 C213 1.691 . S
C509 C346 1.733 . S
C515 C133 1.705 . S
C529 C173 1.690 . S
C535 C266 1.723 1_545 S
C549 C97 1.563 . S
C555 C24 1.564 . S
C569 C64 1.563 . S
C575 C17 1.562 . S
C589 C57 1.551 1_455 S
C595 C104 1.564 . S
C609 C144 1.563 . S
C615 C217 1.558 . S
C629 C137 1.556 . S
C635 C184 1.563 . S
C649 C177 1.563 . S
C655 C224 1.563 . S
C669 C337 1.557 . S
C675 C264 1.564 . S
C689 C304 1.564 . S
C695 C257 1.556 . S
C709 C344 1.564 . S
C715 C297 1.560 . S
C729 C23 1.037 . S
C735 C2 1.037 . S
C749 C63 1.001 . S
C755 C42 1.001 . S
C769 C103 1.006 . S
C775 C82 1.006 . S
C789 C122 1.037 . S
C795 C143 1.037 . S
C809 C162 1.028 . S
C815 C183 1.028 . S
C829 C202 1.034 . S
C835 C223 1.034 . S
C849 C263 1.022 . S
C855 C242 1.022 . S
C869 C282 1.006 . S
C875 C303 1.006 . S
C889 C343 1.034 . S
C895 C322 1.034 . S
