# Generated by pormake.
# Topology acs-i, (5)-cn, num edge types: 1
# Building blocks:
#     Node 0, Type 0, BuildingBlock: BEQFEK_clean_sbu_0, # of connection points: 5
#     Node 1, Type 0, BuildingBlock: BEQFEK_clean_sbu_0, # of connection points: 5
#     Node 2, Type 0, BuildingBlock: BEQFEK_clean_sbu_0, # of connection points: 5
#     Node 3, Type 0, BuildingBlock: BEQFEK_clean_sbu_0, # of connection points: 5
#     Node 4, Type 0, BuildingBlock: BEQFEK_clean_sbu_0, # of connection points: 5
#     Node 5, Type 0, BuildingBlock: BEQFEK_clean_sbu_0, # of connection points: 5
#     Node 6, Type 0, BuildingBlock: BEQFEK_clean_sbu_0, # of connection points: 5
#     Node 7, Type 0, BuildingBlock: BEQFEK_clean_sbu_0, # of connection points: 5
#     Node 8, Type 0, BuildingBlock: BEQFEK_clean_sbu_0, # of connection points: 5
#     Node 9, Type 0, BuildingBlock: BEQFEK_clean_sbu_0, # of connection points: 5
#     Node 10, Type 0, BuildingBlock: BEQFEK_clean_sbu_0, # of connection points: 5
#     Node 11, Type 0, BuildingBlock: BEQFEK_clean_sbu_0, # of connection points: 5
#     Edge 12, Type (0, 0), BuildingBlock: KIFKEQ_clean_linker_1, # of connection points: 2
#     Edge 13, Type (0, 0), BuildingBlock: KIFKEQ_clean_linker_1, # of connection points: 2
#     Edge 14, Type (0, 0), BuildingBlock: KIFKEQ_clean_linker_1, # of connection points: 2
#     Edge 15, Type (0, 0), BuildingBlock: KIFKEQ_clean_linker_1, # of connection points: 2
#     Edge 16, Type (0, 0), BuildingBlock: KIFKEQ_clean_linker_1, # of connection points: 2
#     Edge 17, Type (0, 0), BuildingBlock: KIFKEQ_clean_linker_1, # of connection points: 2
#     Edge 18, Type (0, 0), BuildingBlock: KIFKEQ_clean_linker_1, # of connection points: 2
#     Edge 19, Type (0, 0), BuildingBlock: KIFKEQ_clean_linker_1, # of connection points: 2
#     Edge 20, Type (0, 0), BuildingBlock: KIFKEQ_clean_linker_1, # of connection points: 2
#     Edge 21, Type (0, 0), BuildingBlock: KIFKEQ_clean_linker_1, # of connection points: 2
#     Edge 22, Type (0, 0), BuildingBlock: KIFKEQ_clean_linker_1, # of connection points: 2
#     Edge 23, Type (0, 0), BuildingBlock: KIFKEQ_clean_linker_1, # of connection points: 2
#     Edge 24, Type (0, 0), BuildingBlock: KIFKEQ_clean_linker_1, # of connection points: 2
#     Edge 25, Type (0, 0), BuildingBlock: KIFKEQ_clean_linker_1, # of connection points: 2
#     Edge 26, Type (0, 0), BuildingBlock: KIFKEQ_clean_linker_1, # of connection points: 2
#     Edge 27, Type (0, 0), BuildingBlock: KIFKEQ_clean_linker_1, # of connection points: 2
#     Edge 28, Type (0, 0), BuildingBlock: KIFKEQ_clean_linker_1, # of connection points: 2
#     Edge 29, Type (0, 0), BuildingBlock: KIFKEQ_clean_linker_1, # of connection points: 2
#     Edge 30, Type (0, 0), BuildingBlock: KIFKEQ_clean_linker_1, # of connection points: 2
#     Edge 31, Type (0, 0), BuildingBlock: KIFKEQ_clean_linker_1, # of connection points: 2
#     Edge 32, Type (0, 0), BuildingBlock: KIFKEQ_clean_linker_1, # of connection points: 2
#     Edge 33, Type (0, 0), BuildingBlock: KIFKEQ_clean_linker_1, # of connection points: 2
#     Edge 34, Type (0, 0), BuildingBlock: KIFKEQ_clean_linker_1, # of connection points: 2
#     Edge 35, Type (0, 0), BuildingBlock: KIFKEQ_clean_linker_1, # of connection points: 2
#     Edge 36, Type (0, 0), BuildingBlock: KIFKEQ_clean_linker_1, # of connection points: 2
#     Edge 37, Type (0, 0), BuildingBlock: KIFKEQ_clean_linker_1, # of connection points: 2
#     Edge 38, Type (0, 0), BuildingBlock: KIFKEQ_clean_linker_1, # of connection points: 2
#     Edge 39, Type (0, 0), BuildingBlock: KIFKEQ_clean_linker_1, # of connection points: 2
#     Edge 40, Type (0, 0), BuildingBlock: KIFKEQ_clean_linker_1, # of connection points: 2
#     Edge 41, Type (0, 0), BuildingBlock: KIFKEQ_clean_linker_1, # of connection points: 2
# Relax obj value: 1.290
# Max RMSD: 0.217
# Mean RMSD: 0.205
data_MOF--net-acs-i--node1-BEQFEK_clean_sbu_0--edge1-KIFKEQ_clean_linker_1
_symmetry_space_group_name_H-M    P1
_symmetry_Int_Tables_number       1
_symmetry_cell_setting            triclinic
loop_
_symmetry_equiv_pos_as_xyz
'x, y, z'
_cell_length_a     46.497363
_cell_length_b     39.868252
_cell_length_c     32.867193
_cell_angle_alpha  90.27455
_cell_angle_beta   89.781867
_cell_angle_gamma 115.3878
loop_
_atom_site_label
_atom_site_type_symbol
_atom_site_fract_x
_atom_site_fract_y
_atom_site_fract_z
_atom_type_partial_charge
Co0 Co 0.38905 0.3788 0.30319 0.0
Co1 Co 0.33256 0.35575 0.24102 0.0
C2 C 0.39967 0.41071 0.21991 0.0
O3 O 0.4105 0.40988 0.25523 0.0
O4 O 0.37063 0.39078 0.21119 0.0
C5 C 0.44757 0.41924 0.34659 0.0
O6 O 0.46022 0.42567 0.31001 0.0
C7 C 0.2943 0.37362 0.18395 0.0
C8 C 0.25154 0.32075 0.17547 0.0
C9 C 0.26558 0.35762 0.16346 0.0
N10 N 0.29734 0.34748 0.20668 0.0
N11 N 0.27185 0.31579 0.20132 0.0
C12 C 0.31721 0.41386 0.18516 0.0
H13 H 0.33461 0.41975 0.15994 0.0
H14 H 0.33041 0.42074 0.21436 0.0
H15 H 0.30455 0.43176 0.18144 0.0
C16 C 0.34707 0.40572 0.34779 0.0
N17 N 0.35248 0.38674 0.31685 0.0
N18 N 0.32842 0.37603 0.29138 0.0
C19 C 0.30653 0.38678 0.30583 0.0
C20 C 0.31775 0.40642 0.34175 0.0
C21 C 0.37139 0.42682 0.37927 0.0
H22 H 0.39424 0.44441 0.36408 0.0
H23 H 0.36393 0.4448 0.3982 0.0
H24 H 0.37542 0.40688 0.39922 0.0
O25 O 0.37842 0.32544 0.28953 0.0
O26 O 0.33642 0.3094 0.24881 0.0
H27 H 0.2582 0.3811 0.30746 0.0
H28 H 0.27941 0.39893 0.26066 0.0
C29 C 0.27547 0.37876 0.28555 0.0
H30 H 0.26525 0.35036 0.2725 0.0
H31 H 0.2681 0.29099 0.21575 0.0
O32 O 0.41844 0.39663 0.35054 0.0
C33 C 0.35641 0.30136 0.2678 0.0
Co34 Co 0.83311 0.44043 0.52242 0.0
Co35 Co 0.80875 0.42304 0.4328 0.0
C36 C 0.81264 0.49079 0.47911 0.0
O37 O 0.82364 0.48213 0.51049 0.0
O38 O 0.80544 0.47056 0.44725 0.0
C39 C 0.84544 0.46683 0.60421 0.0
O40 O 0.82876 0.48528 0.59511 0.0
C41 C 0.75421 0.40233 0.38136 0.0
C42 C 0.7629 0.3713 0.33078 0.0
C43 C 0.73999 0.38089 0.34753 0.0
N44 N 0.78403 0.40545 0.38449 0.0
N45 N 0.7895 0.38771 0.3535 0.0
C46 C 0.73784 0.41375 0.41437 0.0
H47 H 0.74992 0.41623 0.44396 0.0
H48 H 0.71253 0.39353 0.41747 0.0
H49 H 0.73857 0.44115 0.40655 0.0
C50 C 0.7834 0.36553 0.53649 0.0
N51 N 0.7986 0.39494 0.51222 0.0
N52 N 0.78947 0.38596 0.4743 0.0
C53 C 0.7683 0.34984 0.47329 0.0
C54 C 0.76363 0.3359 0.51265 0.0
C55 C 0.79083 0.36496 0.58069 0.0
H56 H 0.81598 0.36945 0.58389 0.0
H57 H 0.78826 0.38817 0.59653 0.0
H58 H 0.77521 0.33831 0.59533 0.0
O59 O 0.86845 0.4433 0.49 0.0
O60 O 0.85482 0.43233 0.42477 0.0
H61 H 0.77197 0.33478 0.41148 0.0
H62 H 0.74176 0.29824 0.44073 0.0
C63 C 0.75354 0.32859 0.43537 0.0
H64 H 0.73519 0.33713 0.42446 0.0
H65 H 0.81037 0.38428 0.34972 0.0
O66 O 0.84848 0.44489 0.57832 0.0
C67 C 0.87521 0.43978 0.45337 0.0
Co68 Co 0.51138 0.78211 0.97113 0.0
Co69 Co 0.52209 0.70903 0.97518 0.0
C70 C 0.4629 0.71062 0.93876 0.0
O71 O 0.47167 0.74496 0.94637 0.0
O72 O 0.48004 0.6942 0.94868 0.0
C73 C 0.48409 0.83547 0.97019 0.0
O74 O 0.45946 0.8083 0.95338 0.0
C75 C 0.50375 0.63637 0.01045 0.0
C76 C 0.54401 0.62273 -0.00348 0.0
C77 C 0.51507 0.60988 0.01674 0.0
N78 N 0.52503 0.66387 -0.01207 0.0
N79 N 0.5489 0.65538 0.97914 0.0
C80 C 0.47299 0.63563 0.0253 0.0
H81 H 0.4535 0.61718 0.0051 0.0
H82 H 0.47381 0.66384 0.02452 0.0
H83 H 0.46742 0.62434 0.05657 0.0
C84 C 0.51924 0.77942 0.05977 0.0
N85 N 0.51871 0.76578 0.02208 0.0
N86 N 0.52572 0.73716 0.024 0.0
C87 C 0.53218 0.73269 0.06315 0.0
C88 C 0.5278 0.75894 0.08705 0.0
C89 C 0.51213 0.81187 0.06918 0.0
H90 H 0.53004 0.83692 0.05393 0.0
H91 H 0.48837 0.80658 0.05691 0.0
H92 H 0.51274 0.8174 0.10235 0.0
O93 O 0.54721 0.78985 0.93378 0.0
O94 O 0.5547 0.73818 0.93451 0.0
H95 H 0.5548 0.69613 0.0543 0.0
H96 H 0.5559 0.71209 0.10591 0.0
C97 C 0.54124 0.70313 0.07797 0.0
H98 H 0.51932 0.67813 0.08565 0.0
H99 H 0.56896 0.67236 0.96241 0.0
O100 O 0.50858 0.83038 0.97877 0.0
C101 C 0.56173 0.77084 0.92152 0.0
Co102 Co 0.60047 0.59376 0.77942 0.0
Co103 Co 0.65892 0.6172 0.71919 0.0
C104 C 0.59356 0.56298 0.69406 0.0
O105 O 0.58172 0.56535 0.72838 0.0
O106 O 0.62313 0.58121 0.6867 0.0
C107 C 0.541 0.54681 0.8182 0.0
O108 O 0.53079 0.53805 0.7807 0.0
C109 C 0.70271 0.61328 0.65711 0.0
C110 C 0.74546 0.66611 0.66574 0.0
C111 C 0.73279 0.63452 0.64168 0.0
N112 N 0.69737 0.63165 0.68841 0.0
N113 N 0.72302 0.6633 0.69338 0.0
C114 C 0.68015 0.57514 0.64377 0.0
H115 H 0.66601 0.559 0.67004 0.0
H116 H 0.6931 0.56018 0.62981 0.0
H117 H 0.66379 0.57754 0.6207 0.0
C118 C 0.64353 0.57277 0.82889 0.0
N119 N 0.63738 0.58757 0.79508 0.0
N120 N 0.66141 0.59626 0.76961 0.0
C121 C 0.68335 0.58676 0.78612 0.0
C122 C 0.67281 0.57176 0.82434 0.0
C123 C 0.6207 0.55729 0.86353 0.0
H124 H 0.61419 0.5791 0.87573 0.0
H125 H 0.59872 0.53399 0.85225 0.0
H126 H 0.63083 0.54694 0.88834 0.0
O127 O 0.61061 0.64689 0.76955 0.0
O128 O 0.65185 0.6621 0.72749 0.0
H129 H 0.72802 0.62175 0.75915 0.0
H130 H 0.72793 0.58161 0.78445 0.0
C131 C 0.71368 0.59185 0.7655 0.0
H132 H 0.70812 0.57688 0.73594 0.0
H133 H 0.72517 0.68303 0.71559 0.0
O134 O 0.56873 0.57252 0.82414 0.0
C135 C 0.63232 0.67061 0.74733 0.0
Co136 Co 0.13946 0.55428 0.01834 0.0
Co137 Co 0.16852 0.54635 0.93543 0.0
C138 C 0.17924 0.51392 0.0142 0.0
O139 O 0.16521 0.52895 0.03565 0.0
O140 O 0.18101 0.51763 0.97574 0.0
C141 C 0.13796 0.57727 0.09782 0.0
O142 O 0.16862 0.58647 0.09487 0.0
C143 C 0.22655 0.56014 0.89447 0.0
C144 C 0.2169 0.56203 0.82905 0.0
C145 C 0.24084 0.56663 0.85661 0.0
N146 N 0.19553 0.55145 0.88986 0.0
N147 N 0.18964 0.55205 0.85059 0.0
C148 C 0.24308 0.56784 0.9349 0.0
H149 H 0.24472 0.54237 0.94557 0.0
H150 H 0.22968 0.57609 0.95771 0.0
H151 H 0.26756 0.59036 0.9326 0.0
C152 C 0.17094 0.63384 -0.00207 0.0
N153 N 0.16284 0.59791 -0.0108 0.0
N154 N 0.17683 0.59547 0.95515 0.0
C155 C 0.19547 0.63037 0.94222 0.0
C156 C 0.19221 0.65562 0.96891 0.0
C157 C 0.16014 0.64753 0.03479 0.0
H158 H 0.13513 0.62869 0.0421 0.0
H159 H 0.17562 0.64886 0.0609 0.0
H160 H 0.16182 0.67581 0.02994 0.0
O161 O 0.10514 0.5203 -0.01432 0.0
O162 O 0.12193 0.51532 0.92335 0.0
H163 H 0.22499 0.66957 0.89747 0.0
H164 H 0.23812 0.63517 0.91283 0.0
C165 C 0.21688 0.63995 0.90585 0.0
H166 H 0.2042 0.62221 0.87972 0.0
H167 H 0.16748 0.5475 0.8387 0.0
O168 O 0.12015 0.56329 0.06739 0.0
C169 C 0.09987 0.50692 0.95 0.0
Co170 Co 0.46372 0.19287 0.46407 0.0
Co171 Co 0.45645 0.26798 0.46228 0.0
C172 C 0.51266 0.26074 0.42423 0.0
O173 O 0.50194 0.22656 0.43364 0.0
O174 O 0.49785 0.2801 0.43403 0.0
C175 C 0.49062 0.13942 0.46816 0.0
O176 O 0.51598 0.16611 0.45213 0.0
C177 C 0.47577 0.34556 0.48415 0.0
C178 C 0.43027 0.35055 0.48463 0.0
C179 C 0.46244 0.36989 0.49305 0.0
N180 N 0.45265 0.31339 0.471 0.0
N181 N 0.42559 0.31679 0.47045 0.0
C182 C 0.50896 0.35088 0.49346 0.0
H183 H 0.50977 0.32369 0.49749 0.0
H184 H 0.51803 0.36791 0.52137 0.0
H185 H 0.52476 0.36568 0.46774 0.0
C186 C 0.45973 0.20306 0.55233 0.0
N187 N 0.46 0.21442 0.51378 0.0
N188 N 0.45528 0.24471 0.5137 0.0
C189 C 0.45125 0.25314 0.55259 0.0
C190 C 0.45418 0.22716 0.57823 0.0
C191 C 0.46322 0.16869 0.56377 0.0
H192 H 0.44419 0.14432 0.5488 0.0
H193 H 0.48648 0.17082 0.55256 0.0
H194 H 0.46162 0.16418 0.59713 0.0
O195 O 0.42569 0.18198 0.43101 0.0
O196 O 0.42106 0.23513 0.42604 0.0
H197 H 0.42659 0.28748 0.54596 0.0
H198 H 0.43829 0.28418 0.59762 0.0
C199 C 0.44545 0.28583 0.56521 0.0
H200 H 0.46761 0.31156 0.56101 0.0
H201 H 0.40364 0.29539 0.46264 0.0
O202 O 0.46605 0.14496 0.47485 0.0
C203 C 0.41153 0.20079 0.41759 0.0
Co204 Co 0.50952 0.71963 0.50798 0.0
Co205 Co 0.51413 0.80105 0.50904 0.0
C206 C 0.45819 0.73589 0.54512 0.0
O207 O 0.46989 0.71313 0.53641 0.0
O208 O 0.47248 0.7701 0.53562 0.0
C209 C 0.48751 0.63972 0.50937 0.0
O210 O 0.46306 0.64005 0.52922 0.0
C211 C 0.49176 0.85433 0.48077 0.0
C212 C 0.53414 0.90807 0.48542 0.0
C213 C 0.50298 0.89172 0.47163 0.0
N214 N 0.51511 0.84873 0.49898 0.0
N215 N 0.54022 0.88109 0.50256 0.0
C216 C 0.46106 0.82353 0.46706 0.0
H217 H 0.46289 0.7967 0.46641 0.0
H218 H 0.45444 0.82937 0.43638 0.0
H219 H 0.4419 0.82125 0.48864 0.0
C220 C 0.51462 0.73349 0.41955 0.0
N221 N 0.51365 0.7445 0.45812 0.0
N222 N 0.51797 0.77935 0.45832 0.0
C223 C 0.52277 0.79194 0.41965 0.0
C224 C 0.5205 0.76322 0.39377 0.0
C225 C 0.50814 0.69457 0.40783 0.0
H226 H 0.48811 0.67467 0.42625 0.0
H227 H 0.50208 0.68911 0.37512 0.0
H228 H 0.52954 0.68989 0.41434 0.0
O229 O 0.54598 0.74871 0.54319 0.0
O230 O 0.54865 0.80579 0.54746 0.0
H231 H 0.5471 0.85049 0.43139 0.0
H232 H 0.54496 0.83803 0.37838 0.0
C233 C 0.53183 0.83138 0.40771 0.0
H234 H 0.51003 0.83582 0.40411 0.0
H235 H 0.56207 0.88441 0.51442 0.0
O236 O 0.50985 0.67033 0.49813 0.0
C237 C 0.55873 0.78177 0.557 0.0
Co238 Co 0.85189 0.41759 0.95249 0.0
Co239 Co 0.81567 0.37953 0.03167 0.0
C240 C 0.81446 0.33675 0.95447 0.0
O241 O 0.83088 0.36593 0.93441 0.0
O242 O 0.80757 0.33847 -0.00828 0.0
C243 C 0.893 0.43914 0.88559 0.0
O244 O 0.89876 0.41125 0.89767 0.0
C245 C 0.75518 0.33404 0.06699 0.0
C246 C 0.76079 0.34617 0.13283 0.0
C247 C 0.73873 0.326 0.10345 0.0
N248 N 0.78563 0.35736 0.07424 0.0
N249 N 0.78908 0.36426 0.11376 0.0
C250 C 0.74124 0.32409 0.02514 0.0
H251 H 0.74014 0.29668 0.01636 0.0
H252 H 0.75608 0.34506 0.00266 0.0
H253 H 0.71673 0.32218 0.02431 0.0
C254 C 0.81263 0.45762 0.95874 0.0
N255 N 0.82306 0.43371 0.97404 0.0
N256 N 0.80744 0.41871 0.00757 0.0
C257 C 0.78617 0.43299 0.01457 0.0
C258 C 0.78896 0.45816 0.98392 0.0
C259 C 0.82269 0.47603 0.91818 0.0
H260 H 0.84808 0.49631 0.91971 0.0
H261 H 0.82056 0.45487 0.89486 0.0
H262 H 0.80821 0.49062 0.90868 0.0
O263 O 0.88369 0.42199 -0.00831 0.0
O264 O 0.86108 0.39639 0.0504 0.0
H265 H 0.77369 0.41773 0.0769 0.0
H266 H 0.75408 0.44373 0.05433 0.0
C267 C 0.76268 0.42207 0.04879 0.0
H268 H 0.74188 0.39586 0.04081 0.0
H269 H 0.8103 0.38246 0.12743 0.0
O270 O 0.87384 0.44769 0.90586 0.0
C271 C 0.88568 0.41327 0.02822 0.0
Co272 Co 0.36851 0.98067 0.17815 0.0
Co273 Co 0.31104 0.9365 0.23751 0.0
C274 C 0.377 0.94756 0.25726 0.0
O275 O 0.38858 0.96711 0.22562 0.0
O276 O 0.34732 0.93338 0.26455 0.0
C277 C 0.42947 0.00194 0.13886 0.0
O278 O 0.44035 0.00588 0.17625 0.0
C279 C 0.27305 0.8969 0.30778 0.0
C280 C 0.2236 0.87551 0.28576 0.0
C281 C 0.24174 0.87507 0.31899 0.0
N282 N 0.27356 0.90847 0.26928 0.0
N283 N 0.24381 0.89641 0.25669 0.0
C284 C 0.30174 0.9098 0.33465 0.0
H285 H 0.31814 0.93896 0.32743 0.0
H286 H 0.31433 0.89205 0.32938 0.0
H287 H 0.29494 0.90814 0.36724 0.0
C288 C 0.32673 0.92152 0.12203 0.0
N289 N 0.33202 0.93848 0.15865 0.0
N290 N 0.3089 0.91842 0.18367 0.0
C291 C 0.28905 0.88717 0.16427 0.0
C292 C 0.29949 0.88828 0.12436 0.0
C293 C 0.34717 0.93725 0.08533 0.0
H294 H 0.35463 0.96763 0.08393 0.0
H295 H 0.36876 0.93213 0.08758 0.0
H296 H 0.33432 0.92439 0.05688 0.0
O297 O 0.35693 0.02112 0.1955 0.0
O298 O 0.31708 -0.01121 0.23748 0.0
H299 H 0.24044 0.85625 0.18174 0.0
H300 H 0.26108 0.82814 0.17075 0.0
C301 C 0.26351 0.85454 0.18493 0.0
H302 H 0.26902 0.85426 0.21767 0.0
H303 H 0.2373 0.90202 0.22807 0.0
O304 O 0.40058 -0.00423 0.13325 0.0
C305 C 0.33521 0.01928 0.22046 0.0
Co306 Co 0.46091 0.25201 -0.00086 0.0
Co307 Co 0.45155 0.16873 -0.00123 0.0
C308 C 0.51139 0.23169 0.03039 0.0
O309 O 0.50154 0.25623 0.02237 0.0
O310 O 0.49452 0.19748 0.02248 0.0
C311 C 0.48669 0.33249 -0.00146 0.0
O312 O 0.51073 0.33112 0.01814 0.0
C313 C 0.46969 0.11097 0.9725 0.0
C314 C 0.42481 0.05984 0.97602 0.0
C315 C 0.45642 0.07328 0.96424 0.0
N316 N 0.44713 0.11955 -0.01133 0.0
N317 N 0.42046 0.08874 -0.0085 0.0
C318 C 0.50215 0.13923 0.96059 0.0
H319 H 0.50152 0.1661 0.95353 0.0
H320 H 0.51141 0.12974 0.9339 0.0
H321 H 0.51864 0.14363 -0.01352 0.0
C322 C 0.45217 0.23755 0.91108 0.0
N323 N 0.4527 0.22593 0.94935 0.0
N324 N 0.44709 0.19067 0.9488 0.0
C325 C 0.44197 0.17847 0.90988 0.0
C326 C 0.44517 0.20782 0.88464 0.0
C327 C 0.4616 0.27732 0.9001 0.0
H328 H 0.48303 0.29542 0.91763 0.0
H329 H 0.467 0.28251 0.86723 0.0
H330 H 0.44199 0.28494 0.90835 0.0
O331 O 0.42658 0.22611 0.03895 0.0
O332 O 0.42043 0.16755 0.04079 0.0
H333 H 0.41681 0.1198 0.91943 0.0
H334 H 0.42182 0.13332 0.86667 0.0
C335 C 0.43335 0.13927 0.89702 0.0
H336 H 0.4552 0.13465 0.89543 0.0
H337 H 0.3989 0.08778 0.00197 0.0
O338 O 0.46301 0.30233 -0.01086 0.0
C339 C 0.41325 0.1933 0.05323 0.0
Co340 Co 0.13718 0.58233 0.45395 0.0
Co341 Co 0.16285 0.59665 0.54274 0.0
C342 C 0.159 0.65693 0.49048 0.0
O343 O 0.14758 0.6344 0.46119 0.0
O344 O 0.16641 0.64669 0.52396 0.0
C345 C 0.10256 0.58144 0.38589 0.0
O346 O 0.0931 0.60075 0.41057 0.0
C347 C 0.21769 0.63349 0.59307 0.0
C348 C 0.2092 0.59698 0.64629 0.0
C349 C 0.23205 0.62834 0.62776 0.0
N350 N 0.1878 0.60677 0.59114 0.0
N351 N 0.18247 0.58551 0.62365 0.0
C352 C 0.23398 0.65915 0.55852 0.0
H353 H 0.23376 0.68644 0.56454 0.0
H354 H 0.22157 0.64795 0.52941 0.0
H355 H 0.25915 0.66361 0.55558 0.0
C356 C 0.18721 0.55732 0.44263 0.0
N357 N 0.17167 0.57214 0.46568 0.0
N358 N 0.18165 0.57548 0.50353 0.0
C359 C 0.20371 0.56183 0.50577 0.0
C360 C 0.20811 0.55035 0.4672 0.0
C361 C 0.17981 0.54707 0.39877 0.0
H362 H 0.15472 0.52612 0.39607 0.0
H363 H 0.18222 0.57196 0.38143 0.0
H364 H 0.1956 0.53554 0.38535 0.0
O365 O 0.10194 0.55243 0.48765 0.0
O366 O 0.11656 0.56113 0.55269 0.0
H367 H 0.2025 0.54921 0.56923 0.0
H368 H 0.23144 0.53997 0.54026 0.0
C369 C 0.21994 0.55907 0.54396 0.0
H370 H 0.2387 0.58688 0.55179 0.0
H371 H 0.16158 0.56152 0.62865 0.0
O372 O 0.1225 0.56982 0.39822 0.0
C373 C 0.09573 0.54558 0.52504 0.0
Co374 Co 0.59383 0.98371 0.67837 0.0
Co375 Co 0.65187 0.01917 0.73811 0.0
C376 C 0.58522 0.00725 0.76181 0.0
O377 O 0.57339 -0.00667 0.72748 0.0
O378 O 0.61472 0.018 0.76914 0.0
C379 C 0.53454 0.96577 0.63689 0.0
O380 O 0.52275 0.9616 0.67389 0.0
C381 C 0.69491 0.08005 0.78733 0.0
C382 C 0.73318 0.06357 0.80324 0.0
C383 C 0.72336 0.0916 0.80815 0.0
N384 N 0.68831 0.04693 0.77029 0.0
N385 N 0.71116 0.03703 0.77999 0.0
C386 C 0.6731 0.09886 0.7857 0.0
H387 H 0.65484 0.08633 0.76173 0.0
H388 H 0.68645 0.12892 0.77964 0.0
H389 H 0.66117 0.09589 0.81564 0.0
C390 C 0.63417 0.05193 0.63217 0.0
N391 N 0.62982 0.02813 0.66319 0.0
N392 N 0.65492 0.04169 0.687 0.0
C393 C 0.67653 0.07368 0.67104 0.0
C394 C 0.66392 0.08165 0.63626 0.0
C395 C 0.60872 0.04854 0.6025 0.0
H396 H 0.60404 0.02453 0.5821 0.0
H397 H 0.58643 0.04329 0.61921 0.0
H398 H 0.61551 0.07389 0.58382 0.0
O399 O 0.60523 0.94169 0.69122 0.0
O400 O 0.64728 0.96843 0.73174 0.0
H401 H 0.7183 0.07835 0.70319 0.0
H402 H 0.72564 0.11267 0.66394 0.0
C403 C 0.7089 0.09646 0.68829 0.0
H404 H 0.70749 0.1164 0.71088 0.0
H405 H 0.71173 0.01225 0.77073 0.0
O406 O 0.56333 0.97105 0.63219 0.0
C407 C 0.62729 0.94004 0.71302 0.0
H408 H 0.3642 0.21204 0.06367 0.0
H409 H 0.41965 0.16451 0.12525 0.0
H410 H 0.34292 0.22058 0.12879 0.0
H411 H 0.39955 0.17476 0.19089 0.0
H412 H 0.30749 0.23715 0.24263 0.0
H413 H 0.31326 0.19213 0.19675 0.0
H414 H 0.41457 0.24249 0.21814 0.0
H415 H 0.40885 0.28725 0.26432 0.0
C416 C 0.37077 0.20205 0.0911 0.0
C417 C 0.39336 0.18754 0.08966 0.0
C418 C 0.35859 0.20683 0.12839 0.0
C419 C 0.36959 0.19825 0.16492 0.0
C420 C 0.39041 0.18114 0.16322 0.0
C421 C 0.40183 0.17524 0.1257 0.0
C422 C 0.33078 0.23745 0.2391 0.0
C423 C 0.35785 0.26627 0.25621 0.0
C424 C 0.33404 0.21172 0.21277 0.0
C425 C 0.36439 0.21439 0.2033 0.0
C426 C 0.39087 0.23983 0.22491 0.0
C427 C 0.38758 0.26547 0.25149 0.0
H428 H 0.90095 0.39271 0.47065 0.0
H429 H 0.92344 0.50306 0.4276 0.0
H430 H 0.95473 0.41387 0.4977 0.0
H431 H 0.97749 0.52439 0.45394 0.0
H432 H 0.04999 0.56527 0.55073 0.0
H433 H -0.00459 0.53424 0.52569 0.0
H434 H 0.01262 0.44087 0.48656 0.0
H435 H 0.06694 0.47185 0.51226 0.0
C436 C 0.9181 0.42097 0.46468 0.0
C437 C 0.90826 0.44618 0.44658 0.0
C438 C 0.9487 0.4333 0.48094 0.0
C439 C 0.9699 0.47109 0.47936 0.0
C440 C 0.96125 0.49531 0.45685 0.0
C441 C 0.93066 0.48291 0.44055 0.0
C442 C 0.04142 0.53714 0.53918 0.0
C443 C 0.06249 0.52077 0.5338 0.0
C444 C 0.01052 0.51983 0.52361 0.0
C445 C 0.00021 0.4858 0.5026 0.0
C446 C 0.01996 0.46726 0.5021 0.0
C447 C 0.05087 0.48464 0.51763 0.0
H448 H 0.6756 0.92532 0.74184 0.0
H449 H 0.57521 0.87319 0.71364 0.0
H450 H 0.66857 0.87381 0.78681 0.0
H451 H 0.56821 0.82236 0.75918 0.0
H452 H 0.55867 0.73736 0.84877 0.0
H453 H 0.58219 0.76948 0.78528 0.0
H454 H 0.63654 0.8697 0.85318 0.0
H455 H 0.61193 0.83814 0.9161 0.0
C456 C 0.65232 0.90209 0.74381 0.0
C457 C 0.62579 0.90367 0.72499 0.0
C458 C 0.64834 0.87269 0.76962 0.0
C459 C 0.61781 0.84448 0.77689 0.0
C460 C 0.59207 0.84368 0.75397 0.0
C461 C 0.59609 0.87286 0.72778 0.0
C462 C 0.57676 0.76576 0.85012 0.0
C463 C 0.58361 0.78549 0.88704 0.0
C464 C 0.59015 0.78407 0.81384 0.0
C465 C 0.61124 0.82195 0.81432 0.0
C466 C 0.6207 0.84035 0.85191 0.0
C467 C 0.6066 0.82241 0.88794 0.0
H468 H 0.58226 0.68872 0.75643 0.0
H469 H 0.67961 0.73249 0.71418 0.0
H470 H 0.57399 0.73486 0.71662 0.0
H471 H 0.67158 0.77966 0.67525 0.0
H472 H 0.5565 0.80692 0.63303 0.0
H473 H 0.58293 0.79603 0.69217 0.0
H474 H 0.63968 0.7618 0.61283 0.0
H475 H 0.61223 0.77098 0.55417 0.0
C476 C 0.60237 0.70932 0.74026 0.0
C477 C 0.63125 0.70618 0.73733 0.0
C478 C 0.59768 0.73602 0.71745 0.0
C479 C 0.62195 0.76038 0.69195 0.0
C480 C 0.65225 0.76073 0.69394 0.0
C481 C 0.65684 0.73375 0.71633 0.0
C482 C 0.57579 0.79891 0.62831 0.0
C483 C 0.58243 0.78967 0.58929 0.0
C484 C 0.59091 0.7927 0.6622 0.0
C485 C 0.61347 0.77822 0.65739 0.0
C486 C 0.62274 0.77342 0.61778 0.0
C487 C 0.60701 0.7786 0.58406 0.0
H488 H 0.07323 0.43466 0.96985 0.0
H489 H 0.05271 0.52175 0.92003 0.0
H490 H 0.02032 0.40632 0.00059 0.0
H491 H -0.00047 0.49315 0.94976 0.0
H492 H 0.93451 0.47719 0.05119 0.0
H493 H 0.98743 0.49357 0.02332 0.0
H494 H 0.96133 0.37808 -0.00384 0.0
H495 H 0.90863 0.36185 0.02515 0.0
C496 C 0.05654 0.44626 0.96307 0.0
C497 C 0.06696 0.48036 0.94259 0.0
C498 C 0.0265 0.4305 0.98149 0.0
C499 C 0.00645 0.44855 0.9792 0.0
C500 C 0.01507 0.47947 0.9534 0.0
C501 C 0.04512 0.49521 0.93517 0.0
C502 C 0.94083 0.45509 0.0419 0.0
C503 C 0.91751 0.41834 0.04012 0.0
C504 C 0.97075 0.46453 0.02459 0.0
C505 C 0.97783 0.43727 0.00557 0.0
C506 C 0.95632 0.39979 0.00982 0.0
C507 C 0.92638 0.39038 0.0274 0.0
H508 H 0.28821 0.02563 0.26537 0.0
H509 H 0.38021 0.09095 0.21122 0.0
H510 H 0.2946 0.07781 0.30916 0.0
H511 H 0.38674 0.14264 0.25565 0.0
H512 H 0.40212 0.22816 0.34541 0.0
H513 H 0.37161 0.19016 0.28803 0.0
H514 H 0.33388 0.09399 0.3658 0.0
H515 H 0.36437 0.13148 0.4225 0.0
C516 C 0.30932 0.05151 0.26179 0.0
C517 C 0.3342 0.05376 0.23578 0.0
C518 C 0.3129 0.08141 0.28685 0.0
C519 C 0.34142 0.11401 0.28639 0.0
C520 C 0.36438 0.11797 0.25651 0.0
C521 C 0.36075 0.08813 0.23124 0.0
C522 C 0.38615 0.19927 0.35051 0.0
C523 C 0.3858 0.18245 0.38805 0.0
C524 C 0.36887 0.17759 0.31766 0.0
C525 C 0.35074 0.13915 0.32222 0.0
C526 C 0.34743 0.12355 0.3612 0.0
C527 C 0.36504 0.14496 0.39372 0.0
H528 H 0.29488 0.40728 0.10303 0.0
H529 H 0.20461 0.3499 0.1641 0.0
H530 H 0.27342 0.44388 0.06498 0.0
H531 H 0.18283 0.38606 0.12548 0.0
H532 H 0.17415 0.49412 0.09423 0.0
H533 H 0.19362 0.45327 0.12697 0.0
H534 H 0.23274 0.4385 0.01253 0.0
H535 H 0.21328 0.47951 0.97948 0.0
C536 C 0.27039 0.40245 0.10814 0.0
C537 C 0.25154 0.37644 0.13706 0.0
C538 C 0.25803 0.42309 0.08609 0.0
C539 C 0.22659 0.41811 0.09265 0.0
C540 C 0.20731 0.39086 0.12031 0.0
C541 C 0.21964 0.37 0.14213 0.0
C542 C 0.18696 0.4823 0.07596 0.0
C543 C 0.19225 0.49023 0.03422 0.0
C544 C 0.19786 0.45861 0.09469 0.0
C545 C 0.21447 0.4425 0.07222 0.0
C546 C 0.2201 0.45068 0.0306 0.0
C547 C 0.20896 0.47417 0.01173 0.0
H548 H 0.55433 0.33409 0.42367 0.0
H549 H 0.54065 0.22723 0.37598 0.0
H550 H 0.60739 0.36207 0.39427 0.0
H551 H 0.59304 0.25544 0.34427 0.0
H552 H 0.70292 0.30717 0.35301 0.0
H553 H 0.64569 0.27763 0.36361 0.0
H554 H 0.64152 0.38202 0.33899 0.0
H555 H 0.69936 0.41177 0.33101 0.0
C556 C 0.56244 0.31674 0.40607 0.0
C557 C 0.5435 0.27841 0.40259 0.0
C558 C 0.59286 0.33284 0.38879 0.0
C559 C 0.60487 0.3111 0.36686 0.0
C560 C 0.58508 0.27301 0.36167 0.0
C561 C 0.55493 0.25681 0.37969 0.0
C562 C 0.68953 0.32339 0.34854 0.0
C563 C 0.70533 0.36161 0.34117 0.0
C564 C 0.65661 0.30652 0.35467 0.0
C565 C 0.63874 0.32748 0.35291 0.0
C566 C 0.65447 0.36515 0.34178 0.0
C567 C 0.68751 0.38214 0.33648 0.0
H568 H 0.50876 0.61429 0.09801 0.0
H569 H 0.49393 0.53584 0.00057 0.0
H570 H 0.48441 0.56352 0.14613 0.0
H571 H 0.4696 0.48436 0.04901 0.0
H572 H 0.4597 0.4665 0.22979 0.0
H573 H 0.49171 0.51226 0.17945 0.0
H574 H 0.41881 0.45903 0.08915 0.0
H575 H 0.38696 0.41311 0.13913 0.0
C576 C 0.50034 0.58603 0.08704 0.0
C577 C 0.50253 0.57876 0.04566 0.0
C578 C 0.48674 0.55696 0.11463 0.0
C579 C 0.47501 0.51991 0.10138 0.0
C580 C 0.47818 0.51265 0.06001 0.0
C581 C 0.49212 0.54194 0.03238 0.0
C582 C 0.45068 0.46425 0.19908 0.0
C583 C 0.42059 0.43639 0.18866 0.0
C584 C 0.46897 0.49054 0.17028 0.0
C585 C 0.45768 0.48937 0.1304 0.0
C586 C 0.42829 0.46051 0.1195 0.0
C587 C 0.40991 0.43438 0.14832 0.0
H588 H 0.7908 0.63389 0.64223 0.0
H589 H 0.71011 0.61316 0.56513 0.0
H590 H 0.81298 0.60776 0.59073 0.0
H591 H 0.73296 0.58887 0.51204 0.0
H592 H 0.75465 0.49014 0.47013 0.0
H593 H 0.73782 0.53419 0.50139 0.0
H594 H 0.83606 0.60704 0.52881 0.0
H595 H 0.8522 0.56124 0.50008 0.0
C596 C 0.77835 0.62469 0.61359 0.0
C597 C 0.74859 0.62477 0.60776 0.0
C598 C 0.79112 0.60994 0.58375 0.0
C599 C 0.77467 0.59571 0.54702 0.0
C600 C 0.74595 0.5986 0.5402 0.0
C601 C 0.7329 0.61266 0.57046 0.0
C602 C 0.77264 0.51627 0.48143 0.0
C603 C 0.8046 0.52242 0.48296 0.0
C604 C 0.76307 0.54167 0.49951 0.0
C605 C 0.78548 0.57395 0.5188 0.0
C606 C 0.81798 0.58195 0.51564 0.0
C607 C 0.82737 0.55609 0.49856 0.0
H608 H 0.44228 0.6419 0.90383 0.0
H609 H 0.41503 0.73156 0.92403 0.0
H610 H 0.39186 0.60628 0.86962 0.0
H611 H 0.36416 0.69542 0.89124 0.0
H612 H 0.27764 0.63266 0.82073 0.0
H613 H 0.33506 0.66818 0.83049 0.0
H614 H 0.33837 0.57377 0.89095 0.0
H615 H 0.28159 0.53844 0.87979 0.0
C616 C 0.4255 0.65401 0.90104 0.0
C617 C 0.43253 0.68942 0.91711 0.0
C618 C 0.39659 0.63357 0.88137 0.0
C619 C 0.37383 0.64786 0.87768 0.0
C620 C 0.38128 0.68374 0.89279 0.0
C621 C 0.41034 0.70434 0.91209 0.0
C622 C 0.29109 0.61916 0.83434 0.0
C623 C 0.27545 0.58303 0.84971 0.0
C624 C 0.32381 0.63961 0.8406 0.0
C625 C 0.34125 0.62416 0.86238 0.0
C626 C 0.3259 0.58664 0.87393 0.0
C627 C 0.29333 0.56628 0.86755 0.0
H628 H 0.61066 0.53089 0.63094 0.0
H629 H 0.52925 0.53939 0.6848 0.0
H630 H 0.57694 0.48969 0.57894 0.0
H631 H 0.49524 0.49895 0.63156 0.0
H632 H 0.44234 0.38573 0.56495 0.0
H633 H 0.47263 0.43638 0.61135 0.0
H634 H 0.54656 0.48326 0.52035 0.0
H635 H 0.51669 0.43119 0.47501 0.0
C636 C 0.5856 0.52452 0.63119 0.0
C637 C 0.5727 0.53848 0.66197 0.0
C638 C 0.56616 0.50099 0.60109 0.0
C639 C 0.53324 0.49106 0.60062 0.0
C640 C 0.52038 0.50556 0.63114 0.0
C641 C 0.53986 0.52879 0.66165 0.0
C642 C 0.46476 0.40738 0.5547 0.0
C643 C 0.4775 0.40452 0.51681 0.0
C644 C 0.48216 0.43652 0.58122 0.0
C645 C 0.51245 0.46369 0.57005 0.0
C646 C 0.52383 0.46226 0.53056 0.0
C647 C 0.50667 0.43272 0.5044 0.0
H648 H 0.43948 -0.00682 0.27465 0.0
H649 H 0.36204 0.88873 0.30752 0.0
H650 H 0.47185 0.9856 0.32942 0.0
H651 H 0.39414 0.88073 0.36124 0.0
H652 H 0.44331 0.88763 0.47783 0.0
H653 H 0.41463 0.90524 0.42647 0.0
H654 H 0.49919 0.94924 0.35129 0.0
H655 H 0.52801 0.93262 0.40361 0.0
C656 C 0.42953 0.96846 0.2933 0.0
C657 C 0.39807 0.94182 0.28727 0.0
C658 C 0.448 0.96412 0.32469 0.0
C659 C 0.43539 0.93292 0.35037 0.0
C660 C 0.40431 0.90574 0.34309 0.0
C661 C 0.3859 0.9102 0.3121 0.0
C662 C 0.45581 0.90168 0.45061 0.0
C663 C 0.48764 0.90844 0.44433 0.0
C664 C 0.43939 0.9115 0.42101 0.0
C665 C 0.45436 0.92784 0.38421 0.0
C666 C 0.48691 0.93677 0.37921 0.0
C667 C 0.50344 0.9273 0.40915 0.0
H668 H 0.69867 0.34976 0.14154 0.0
H669 H 0.70062 0.25783 0.07387 0.0
H670 H 0.64083 0.32376 0.13299 0.0
H671 H 0.64334 0.23243 0.06398 0.0
H672 H 0.53755 0.1869 0.0598 0.0
H673 H 0.5901 0.20567 0.08963 0.0
H674 H 0.60935 0.32092 0.07372 0.0
H675 H 0.55657 0.30223 0.04508 0.0
C676 C 0.68653 0.32344 0.12588 0.0
C677 C 0.70391 0.30595 0.10785 0.0
C678 C 0.65354 0.3088 0.12048 0.0
C679 C 0.63752 0.27641 0.09707 0.0
C680 C 0.65477 0.25731 0.08227 0.0
C681 C 0.68763 0.27191 0.08773 0.0
C682 C 0.55291 0.21626 0.06293 0.0
C683 C 0.54295 0.24307 0.04965 0.0
C684 C 0.58305 0.22701 0.08005 0.0
C685 C 0.604 0.2648 0.08406 0.0
C686 C 0.59367 0.29157 0.07178 0.0
C687 C 0.56348 0.28084 0.05489 0.0
H688 H 0.21022 0.71907 0.51707 0.0
H689 H 0.12512 0.68285 0.44417 0.0
H690 H 0.22989 0.78074 0.48611 0.0
H691 H 0.14464 0.74374 0.41308 0.0
H692 H 0.18508 0.856 0.35851 0.0
H693 H 0.16291 0.81097 0.4137 0.0
H694 H 0.249 0.79481 0.41554 0.0
H695 H 0.27059 0.8387 0.36063 0.0
C696 C 0.1952 0.72472 0.49568 0.0
C697 C 0.16641 0.69616 0.48254 0.0
C698 C 0.20655 0.75987 0.47766 0.0
C699 C 0.18909 0.76693 0.44658 0.0
C700 C 0.15869 0.73943 0.43695 0.0
C701 C 0.14754 0.70439 0.45464 0.0
C702 C 0.19943 0.84332 0.37138 0.0
C703 C 0.22986 0.85157 0.35569 0.0
C704 C 0.1868 0.81764 0.403 0.0
C705 C 0.20431 0.79956 0.41935 0.0
C706 C 0.2352 0.80896 0.40459 0.0
C707 C 0.24768 0.83437 0.37298 0.0
H708 H 0.52009 0.97287 0.76702 0.0
H709 H 0.60367 0.05149 0.82914 0.0
H710 H 0.48642 0.98105 0.81952 0.0
H711 H 0.57028 0.06125 0.88021 0.0
H712 H 0.50779 0.06057 0.98225 0.0
H713 H 0.53685 0.03791 0.93598 0.0
H714 H 0.46779 0.02381 0.84172 0.0
H715 H 0.43806 0.04431 0.88909 0.0
C716 C 0.53126 -0.00795 0.79177 0.0
C717 C 0.56456 0.01163 0.79381 0.0
C718 C 0.51195 -0.00312 0.82185 0.0
C719 C 0.52548 0.02186 0.85433 0.0
C720 C 0.55886 0.04114 0.85636 0.0
C721 C 0.57811 0.03585 0.82672 0.0
C722 C 0.49858 0.05162 0.95191 0.0
C723 C 0.47082 0.05393 0.93903 0.0
C724 C 0.51535 0.03909 0.92518 0.0
C725 C 0.50509 0.02959 0.88467 0.0
C726 C 0.47633 0.03038 0.87265 0.0
C727 C 0.45926 0.04219 0.8997 0.0
H728 H 0.41532 0.76583 0.5447 0.0
H729 H 0.4312 0.67498 0.5939 0.0
H730 H 0.36272 0.74076 0.57545 0.0
H731 H 0.3793 0.65089 0.62696 0.0
H732 H 0.2726 0.70035 0.64215 0.0
H733 H 0.33022 0.72847 0.6321 0.0
H734 H 0.32615 0.61933 0.61043 0.0
H735 H 0.26919 0.5917 0.62326 0.0
C736 C 0.40775 0.74084 0.5628 0.0
C737 C 0.4272 0.72213 0.56646 0.0
C738 C 0.37763 0.72656 0.58091 0.0
C739 C 0.36645 0.6936 0.60387 0.0
C740 C 0.38664 0.67583 0.60888 0.0
C741 C 0.4165 0.68971 0.59003 0.0
C742 C 0.28448 0.68251 0.63699 0.0
C743 C 0.26674 0.64399 0.63372 0.0
C744 C 0.31737 0.69855 0.63044 0.0
C745 C 0.33299 0.67638 0.61937 0.0
C746 C 0.31531 0.63749 0.6192 0.0
C747 C 0.28255 0.62148 0.62664 0.0
H748 H 0.74176 0.16063 0.77748 0.0
H749 H 0.74448 0.10217 0.88639 0.0
H750 H 0.76533 0.21939 0.81409 0.0
H751 H 0.76967 0.16143 0.92312 0.0
H752 H 0.77357 0.26858 0.98386 0.0
H753 H 0.75452 0.20889 0.94888 0.0
H754 H 0.81336 0.26245 0.84505 0.0
H755 H 0.8315 0.32214 0.87929 0.0
C756 C 0.74742 0.16051 0.8094 0.0
C757 C 0.74052 0.12706 0.82961 0.0
C758 C 0.76141 0.19417 0.83024 0.0
C759 C 0.7692 0.19511 0.87165 0.0
C760 C 0.76343 0.16157 0.89143 0.0
C761 C 0.74932 0.12777 0.87045 0.0
C762 C 0.78238 0.26761 0.95355 0.0
C763 C 0.80366 0.30022 0.93413 0.0
C764 C 0.77171 0.23333 0.93366 0.0
C765 C 0.78228 0.23094 0.89408 0.0
C766 C 0.80427 0.26342 0.87521 0.0
C767 C 0.81473 0.29766 0.89492 0.0
H768 H 0.25801 0.57667 0.41517 0.0
H769 H 0.20303 0.48274 0.4908 0.0
H770 H 0.28804 0.54391 0.38837 0.0
H771 H 0.23231 0.44917 0.46334 0.0
H772 H 0.3058 0.40756 0.42319 0.0
H773 H 0.28288 0.44507 0.45803 0.0
H774 H 0.2761 0.49289 0.3427 0.0
H775 H 0.30005 0.45675 0.30872 0.0
C776 C 0.2527 0.54908 0.42628 0.0
C777 C 0.22844 0.53208 0.45493 0.0
C778 C 0.26964 0.53019 0.4108 0.0
C779 C 0.26235 0.49371 0.42336 0.0
C780 C 0.23877 0.47732 0.45331 0.0
C781 C 0.22196 0.4964 0.46897 0.0
C782 C 0.29963 0.42644 0.40562 0.0
C783 C 0.30445 0.42922 0.36337 0.0
C784 C 0.28633 0.44768 0.4254 0.0
C785 C 0.27771 0.47208 0.40319 0.0
C786 C 0.28291 0.4749 0.36091 0.0
C787 C 0.29622 0.45382 0.3413 0.0
H788 H 0.67385 0.09534 0.55471 0.0
H789 H 0.68103 0.1491 0.67088 0.0
H790 H 0.69495 0.15609 0.52097 0.0
H791 H 0.70284 0.20947 0.63786 0.0
H792 H 0.71452 0.30995 0.5661 0.0
H793 H 0.68728 0.24689 0.593 0.0
H794 H 0.74576 0.21237 0.51678 0.0
H795 H 0.77255 0.27544 0.48967 0.0
C796 C 0.67996 0.1202 0.57288 0.0
C797 C 0.67612 0.11779 0.61526 0.0
C798 C 0.69215 0.15487 0.55373 0.0
C799 C 0.70048 0.18758 0.57675 0.0
C800 C 0.69625 0.18484 0.61916 0.0
C801 C 0.68417 0.15034 0.63816 0.0
C802 C 0.72113 0.28862 0.55488 0.0
C803 C 0.7454 0.29719 0.5259 0.0
C804 C 0.70574 0.25266 0.57033 0.0
C805 C 0.71451 0.22468 0.5572 0.0
C806 C 0.73819 0.23315 0.52716 0.0
C807 C 0.75356 0.26917 0.51171 0.0
H808 H 0.47756 0.74779 0.13583 0.0
H809 H 0.57777 0.77489 0.13863 0.0
H810 H 0.47634 0.74942 0.21011 0.0
H811 H 0.57703 0.77736 0.2131 0.0
H812 H 0.55503 0.73793 0.34565 0.0
H813 H 0.55717 0.73737 0.27135 0.0
H814 H 0.49412 0.79143 0.26661 0.0
H815 H 0.4909 0.79024 0.34073 0.0
C816 C 0.49937 0.75439 0.15256 0.0
C817 C 0.52771 0.76107 0.13188 0.0
C818 C 0.49877 0.75552 0.19502 0.0
C819 C 0.52661 0.76356 0.21766 0.0
C820 C 0.55507 0.77054 0.19669 0.0
C821 C 0.55558 0.76927 0.15415 0.0
C822 C 0.54148 0.74939 0.32858 0.0
C823 C 0.52269 0.76395 0.3488 0.0
C824 C 0.54297 0.74949 0.28607 0.0
C825 C 0.52578 0.76432 0.26293 0.0
C826 C 0.50731 0.77932 0.28339 0.0
C827 C 0.50573 0.77905 0.32585 0.0
H828 H 0.68398 0.51132 0.81072 0.0
H829 H 0.69458 0.59472 0.90083 0.0
H830 H 0.7081 0.48295 0.85737 0.0
H831 H 0.71908 0.56665 0.94765 0.0
H832 H 0.80269 0.53134 0.98063 0.0
H833 H 0.77137 0.55898 0.94637 0.0
H834 H 0.69591 0.44952 0.92625 0.0
H835 H 0.72728 0.4221 0.96097 0.0
C836 C 0.69154 0.52347 0.84059 0.0
C837 C 0.68772 0.55514 0.85236 0.0
C838 C 0.705 0.50713 0.86738 0.0
C839 C 0.7152 0.52246 0.90624 0.0
C840 C 0.7114 0.55429 0.91791 0.0
C841 C 0.69749 0.57032 0.89126 0.0
C842 C 0.7789 0.51346 0.9702 0.0
C843 C 0.76712 0.47479 0.97355 0.0
C844 C 0.76105 0.52916 0.9505 0.0
C845 C 0.73139 0.50632 0.9333 0.0
C846 C 0.71884 0.46769 0.93893 0.0
C847 C 0.73653 0.45205 0.95913 0.0
H848 H 0.33186 0.86066 0.07517 0.0
H849 H 0.23736 0.84927 0.10303 0.0
H850 H 0.30985 0.8105 0.02544 0.0
H851 H 0.215 0.79752 0.05541 0.0
H852 H 0.17866 0.71478 0.95753 0.0
H853 H 0.20784 0.77674 -0.01308 0.0
H854 H 0.28125 0.74527 0.02737 0.0
H855 H 0.25253 0.68425 -0.00352 0.0
C856 C 0.30638 0.84768 0.07028 0.0
C857 C 0.28629 0.85889 0.09287 0.0
C858 C 0.29371 0.81863 0.04211 0.0
C859 C 0.2606 0.7998 0.03628 0.0
C860 C 0.24063 0.81169 0.0584 0.0
C861 C 0.25336 0.84098 0.08623 0.0
C862 C 0.20173 0.72194 0.9712 0.0
C863 C 0.2136 0.69519 0.97467 0.0
C864 C 0.21821 0.75711 -0.01136 0.0
C865 C 0.24661 0.76585 0.01033 0.0
C866 C 0.25964 0.73981 0.01071 0.0
C867 C 0.24328 0.70483 -0.00707 0.0
H868 H 0.50104 0.2334 0.63058 0.0
H869 H 0.40314 0.21642 0.62619 0.0
H870 H 0.49799 0.22823 0.70465 0.0
H871 H 0.39935 0.20983 0.70028 0.0
H872 H 0.41388 0.23692 0.83663 0.0
H873 H 0.41607 0.24266 0.76264 0.0
H874 H 0.47572 0.18416 0.75713 0.0
H875 H 0.47494 0.18056 0.83119 0.0
C876 C 0.47885 0.22849 0.64572 0.0
C877 C 0.45237 0.22547 0.62307 0.0
C878 C 0.47693 0.22517 0.68805 0.0
C879 C 0.44833 0.21831 0.70861 0.0
C880 C 0.42187 0.21557 0.68565 0.0
C881 C 0.42393 0.21923 0.64328 0.0
C882 C 0.42752 0.22544 0.81946 0.0
C883 C 0.44435 0.20846 0.83957 0.0
C884 C 0.42855 0.22838 0.77704 0.0
C885 C 0.44623 0.21407 0.75373 0.0
C886 C 0.46235 0.19615 0.77401 0.0
C887 C 0.46153 0.19354 0.81644 0.0
H888 H 0.43777 0.57091 0.5114 0.0
H889 H 0.53697 0.62777 0.47784 0.0
H890 H 0.43508 0.51413 0.48103 0.0
H891 H 0.53484 0.57025 0.44909 0.0
H892 H 0.49881 0.48652 0.34116 0.0
H893 H 0.51376 0.53705 0.38951 0.0
H894 H 0.44753 0.46307 0.47715 0.0
H895 H 0.43136 0.41267 0.42748 0.0
C896 C 0.45926 0.57105 0.49841 0.0
C897 C 0.48741 0.60404 0.49636 0.0
C898 C 0.45784 0.53824 0.48128 0.0
C899 C 0.48468 0.53743 0.46211 0.0
C900 C 0.51348 0.56992 0.46271 0.0
C901 C 0.51476 0.60292 0.47934 0.0
C902 C 0.48801 0.48067 0.37111 0.0
C903 C 0.46326 0.44581 0.38005 0.0
C904 C 0.49673 0.50979 0.39913 0.0
C905 C 0.48124 0.50459 0.43704 0.0
C906 C 0.45916 0.46849 0.44772 0.0
C907 C 0.4501 0.43945 0.41941 0.0
H908 H 0.8983 0.50563 0.85781 0.0
H909 H 0.90609 0.40586 0.82036 0.0
H910 H 0.89714 0.52222 0.78678 0.0
H911 H 0.90323 0.42117 0.74968 0.0
H912 H 0.89559 0.45194 0.62338 0.0
H913 H 0.91977 0.4564 0.68994 0.0
H914 H 0.85423 0.49635 0.74096 0.0
H915 H 0.8313 0.49361 0.67405 0.0
C916 C 0.90053 0.48774 0.8343 0.0
C917 C 0.90162 0.45414 0.84436 0.0
C918 C 0.89959 0.49703 0.79368 0.0
C919 C 0.89906 0.47247 0.76256 0.0
C920 C 0.90362 0.44084 0.77275 0.0
C921 C 0.90517 0.43191 0.81338 0.0
C922 C 0.88664 0.46206 0.64884 0.0
C923 C 0.86122 0.47185 0.64387 0.0
C924 C 0.90051 0.46465 0.68693 0.0
C925 C 0.88884 0.47645 0.72092 0.0
C926 C 0.86427 0.48775 0.71541 0.0
C927 C 0.85079 0.48576 0.67716 0.0
H928 H 0.43194 0.85027 0.96815 0.0
H929 H 0.53083 0.89806 0.00388 0.0
H930 H 0.42548 0.90136 0.00071 0.0
H931 H 0.52472 0.95019 0.03527 0.0
H932 H 0.48164 0.98774 0.14545 0.0
H933 H 0.49999 0.95608 0.09599 0.0
H934 H 0.43566 0.96497 0.00659 0.0
H935 H 0.41637 -0.00432 0.05701 0.0
C936 C 0.45255 0.87217 0.9821 0.0
C937 C 0.48175 0.86968 0.98402 0.0
C938 C 0.44893 0.90181 0.00052 0.0
C939 C 0.47451 0.9299 0.02108 0.0
C940 C 0.50433 0.92872 0.02045 0.0
C941 C 0.50788 0.89887 0.0023 0.0
C942 C 0.47196 0.98391 0.11495 0.0
C943 C 0.44688 -0.00669 0.10557 0.0
C944 C 0.48264 0.96578 0.08634 0.0
C945 C 0.46876 0.95701 0.04745 0.0
C946 C 0.44618 0.97021 0.03665 0.0
C947 C 0.43528 0.98807 0.06546 0.0
H948 H 0.44061 0.34604 0.96005 0.0
H949 H 0.53855 0.39976 -0.00047 0.0
H950 H 0.4472 0.40241 0.92449 0.0
H951 H 0.54555 0.4554 0.96277 0.0
H952 H 0.49088 0.47854 0.81248 0.0
H953 H 0.47305 0.4303 0.86358 0.0
H954 H 0.53525 0.508 0.95197 0.0
H955 H 0.55409 0.55617 0.89997 0.0
C956 C 0.46346 0.37002 0.96153 0.0
C957 C 0.48918 0.36821 0.98216 0.0
C958 C 0.46729 0.40231 0.94096 0.0
C959 C 0.49704 0.43342 0.94016 0.0
C960 C 0.52217 0.43227 0.96295 0.0
C961 C 0.51824 0.40013 0.98384 0.0
C962 C 0.50026 0.48569 0.84303 0.0
C963 C 0.52446 0.52101 0.85184 0.0
C964 C 0.48986 0.45793 0.87258 0.0
C965 C 0.50314 0.46492 0.91186 0.0
C966 C 0.52514 0.50131 0.92174 0.0
C967 C 0.53578 0.52904 0.892 0.0
H968 H 0.0783 0.53509 0.12596 0.0
H969 H 0.16673 0.62864 0.15656 0.0
H970 H 0.05833 0.53601 0.19488 0.0
H971 H 0.14629 0.63021 0.22483 0.0
H972 H 0.09359 0.6322 0.33937 0.0
H973 H 0.09292 0.63326 0.2648 0.0
H974 H 0.09237 0.52476 0.26126 0.0
H975 H 0.09424 0.5242 0.33552 0.0
C976 C 0.09302 0.55648 0.14705 0.0
C977 C 0.12417 0.5815 0.1365 0.0
C978 C 0.08154 0.55705 0.18618 0.0
C979 C 0.10078 0.58334 0.21455 0.0
C980 C 0.13098 0.61006 0.20301 0.0
C981 C 0.14276 0.6089 0.1643 0.0
C982 C 0.09228 0.60813 0.32258 0.0
C983 C 0.09435 0.57828 0.34273 0.0
C984 C 0.09185 0.60877 0.28016 0.0
C985 C 0.09249 0.57906 0.25783 0.0
C986 C 0.09148 0.54772 0.27813 0.0
C987 C 0.09279 0.54752 0.3204 0.0
H988 H 0.54995 0.97306 0.55575 0.0
H989 H 0.48346 0.98225 0.6422 0.0
H990 H 0.53357 0.00623 0.50546 0.0
H991 H 0.46794 0.01628 0.59284 0.0
H992 H 0.54202 0.12319 0.46947 0.0
H993 H 0.54597 0.07078 0.50195 0.0
H994 H 0.4456 0.02412 0.53097 0.0
H995 H 0.44195 0.07748 0.49964 0.0
C996 C 0.53135 0.98143 0.56374 0.0
C997 C 0.51858 0.97582 0.60331 0.0
C998 C 0.52213 0.00071 0.53502 0.0
C999 C 0.50008 0.01491 0.54539 0.0
C1000 C 0.48496 0.00582 0.58358 0.0
C1001 C 0.49398 0.98631 0.61211 0.0
C1002 C 0.52066 0.10151 0.48223 0.0
C1003 C 0.4918 0.10486 0.48254 0.0
C1004 C 0.52284 0.07114 0.50057 0.0
C1005 C 0.49613 0.0432 0.51943 0.0
C1006 C 0.46677 0.04542 0.5174 0.0
C1007 C 0.46466 0.07598 0.49932 0.0
loop_
_geom_bond_atom_site_label_1
_geom_bond_atom_site_label_2
_geom_bond_distance
_geom_bond_site_symmetry_2
_ccdc_geom_bond_type
Co0 O3 1.970 . S
Co0 N17 1.989 . S
Co0 O25 1.967 . S
Co0 O32 1.920 . S
Co1 O4 1.966 . S
Co1 N10 2.022 . S
Co1 N18 1.993 . S
Co1 O26 1.941 . S
C2 O3 1.258 . S
C2 O4 1.263 . S
O3 Co0 1.970 . S
O3 C2 1.258 . S
O4 Co1 1.966 . S
O4 C2 1.263 . S
C5 O6 1.235 . S
C5 O32 1.289 . S
O6 C5 1.235 . S
C7 C9 1.400 . S
C7 N10 1.351 . S
C7 C12 1.501 . S
C8 C9 1.387 . S
C8 N11 1.341 . S
C9 C7 1.400 . S
C9 C8 1.387 . S
N10 Co1 2.022 . S
N10 C7 1.351 . S
N10 N11 1.365 . S
N11 C8 1.341 . S
N11 N10 1.365 . S
N11 H31 0.862 . S
C12 C7 1.501 . S
C12 H13 0.961 . S
C12 H14 0.961 . S
C12 H15 0.960 . S
H13 C12 0.961 . S
H14 C12 0.961 . S
H15 C12 0.960 . S
C16 N17 1.342 . S
C16 C20 1.401 . S
C16 C21 1.499 . S
N17 Co0 1.989 . S
N17 C16 1.342 . S
N17 N18 1.388 . S
N18 Co1 1.993 . S
N18 N17 1.388 . S
N18 C19 1.346 . S
C19 N18 1.346 . S
C19 C20 1.396 . S
C19 C29 1.510 . S
C20 C16 1.401 . S
C20 C19 1.396 . S
C21 C16 1.499 . S
C21 H22 0.959 . S
C21 H23 0.960 . S
C21 H24 0.961 . S
H22 C21 0.959 . S
H23 C21 0.960 . S
H24 C21 0.961 . S
O25 Co0 1.967 . S
O25 C33 1.258 . S
O26 Co1 1.941 . S
O26 C33 1.266 . S
H27 C29 0.959 . S
H28 C29 0.961 . S
C29 C19 1.510 . S
C29 H27 0.959 . S
C29 H28 0.961 . S
C29 H30 0.960 . S
H30 C29 0.960 . S
H31 N11 0.862 . S
O32 Co0 1.920 . S
O32 C5 1.289 . S
C33 O25 1.258 . S
C33 O26 1.266 . S
Co34 O37 1.970 . S
Co34 N51 1.989 . S
Co34 O59 1.967 . S
Co34 O66 1.920 . S
Co35 O38 1.966 . S
Co35 N44 2.022 . S
Co35 N52 1.993 . S
Co35 O60 1.941 . S
C36 O37 1.258 . S
C36 O38 1.263 . S
O37 Co34 1.970 . S
O37 C36 1.258 . S
O38 Co35 1.966 . S
O38 C36 1.263 . S
C39 O40 1.235 . S
C39 O66 1.289 . S
O40 C39 1.235 . S
C41 C43 1.400 . S
C41 N44 1.351 . S
C41 C46 1.501 . S
C42 C43 1.387 . S
C42 N45 1.341 . S
C43 C41 1.400 . S
C43 C42 1.387 . S
N44 Co35 2.022 . S
N44 C41 1.351 . S
N44 N45 1.365 . S
N45 C42 1.341 . S
N45 N44 1.365 . S
N45 H65 0.862 . S
C46 C41 1.501 . S
C46 H47 0.961 . S
C46 H48 0.961 . S
C46 H49 0.960 . S
H47 C46 0.961 . S
H48 C46 0.961 . S
H49 C46 0.960 . S
C50 N51 1.342 . S
C50 C54 1.401 . S
C50 C55 1.499 . S
N51 Co34 1.989 . S
N51 C50 1.342 . S
N51 N52 1.388 . S
N52 Co35 1.993 . S
N52 N51 1.388 . S
N52 C53 1.346 . S
C53 N52 1.346 . S
C53 C54 1.396 . S
C53 C63 1.510 . S
C54 C50 1.401 . S
C54 C53 1.396 . S
C55 C50 1.499 . S
C55 H56 0.959 . S
C55 H57 0.960 . S
C55 H58 0.961 . S
H56 C55 0.959 . S
H57 C55 0.960 . S
H58 C55 0.961 . S
O59 Co34 1.967 . S
O59 C67 1.258 . S
O60 Co35 1.941 . S
O60 C67 1.266 . S
H61 C63 0.959 . S
H62 C63 0.961 . S
C63 C53 1.510 . S
C63 H61 0.959 . S
C63 H62 0.961 . S
C63 H64 0.960 . S
H64 C63 0.960 . S
H65 N45 0.862 . S
O66 Co34 1.920 . S
O66 C39 1.289 . S
C67 O59 1.258 . S
C67 O60 1.266 . S
Co68 O71 1.970 1_554 S
Co68 N85 1.989 . S
Co68 O93 1.967 1_554 S
Co68 O100 1.920 . S
Co69 O72 1.966 . S
Co69 N78 2.022 . S
Co69 N86 1.993 1_556 S
Co69 O94 1.941 . S
C70 O71 1.258 . S
C70 O72 1.263 . S
O71 Co68 1.970 1_556 S
O71 C70 1.258 . S
O72 Co69 1.966 . S
O72 C70 1.263 . S
C73 O74 1.235 . S
C73 O100 1.289 . S
O74 C73 1.235 . S
C75 C77 1.400 1_556 S
C75 N78 1.351 . S
C75 C80 1.501 . S
C76 C77 1.387 . S
C76 N79 1.341 1_554 S
C77 C75 1.400 1_554 S
C77 C76 1.387 . S
N78 Co69 2.022 . S
N78 C75 1.351 . S
N78 N79 1.365 . S
N79 C76 1.341 1_556 S
N79 N78 1.365 . S
N79 H99 0.862 . S
C80 C75 1.501 . S
C80 H81 0.961 . S
C80 H82 0.961 1_556 S
C80 H83 0.960 . S
H81 C80 0.961 . S
H82 C80 0.961 1_554 S
H83 C80 0.960 . S
C84 N85 1.342 . S
C84 C88 1.401 . S
C84 C89 1.499 . S
N85 Co68 1.989 . S
N85 C84 1.342 . S
N85 N86 1.388 . S
N86 Co69 1.993 1_554 S
N86 N85 1.388 . S
N86 C87 1.346 . S
C87 N86 1.346 . S
C87 C88 1.396 . S
C87 C97 1.510 . S
C88 C84 1.401 . S
C88 C87 1.396 . S
C89 C84 1.499 . S
C89 H90 0.959 . S
C89 H91 0.960 . S
C89 H92 0.961 . S
H90 C89 0.959 . S
H91 C89 0.960 . S
H92 C89 0.961 . S
O93 Co68 1.967 1_556 S
O93 C101 1.258 . S
O94 Co69 1.941 . S
O94 C101 1.266 . S
H95 C97 0.959 . S
H96 C97 0.961 . S
C97 C87 1.510 . S
C97 H95 0.959 . S
C97 H96 0.961 . S
C97 H98 0.960 . S
H98 C97 0.960 . S
H99 N79 0.862 . S
O100 Co68 1.920 . S
O100 C73 1.289 . S
C101 O93 1.258 . S
C101 O94 1.266 . S
Co102 O105 1.970 . S
Co102 N119 1.989 . S
Co102 O127 1.967 . S
Co102 O134 1.920 . S
Co103 O106 1.966 . S
Co103 N112 2.022 . S
Co103 N120 1.993 . S
Co103 O128 1.941 . S
C104 O105 1.258 . S
C104 O106 1.263 . S
O105 Co102 1.970 . S
O105 C104 1.258 . S
O106 Co103 1.966 . S
O106 C104 1.263 . S
C107 O108 1.235 . S
C107 O134 1.289 . S
O108 C107 1.235 . S
C109 C111 1.400 . S
C109 N112 1.351 . S
C109 C114 1.501 . S
C110 C111 1.387 . S
C110 N113 1.341 . S
C111 C109 1.400 . S
C111 C110 1.387 . S
N112 Co103 2.022 . S
N112 C109 1.351 . S
N112 N113 1.365 . S
N113 C110 1.341 . S
N113 N112 1.365 . S
N113 H133 0.862 . S
C114 C109 1.501 . S
C114 H115 0.961 . S
C114 H116 0.961 . S
C114 H117 0.960 . S
H115 C114 0.961 . S
H116 C114 0.961 . S
H117 C114 0.960 . S
C118 N119 1.342 . S
C118 C122 1.401 . S
C118 C123 1.499 . S
N119 Co102 1.989 . S
N119 C118 1.342 . S
N119 N120 1.388 . S
N120 Co103 1.993 . S
N120 N119 1.388 . S
N120 C121 1.346 . S
C121 N120 1.346 . S
C121 C122 1.396 . S
C121 C131 1.510 . S
C122 C118 1.401 . S
C122 C121 1.396 . S
C123 C118 1.499 . S
C123 H124 0.959 . S
C123 H125 0.960 . S
C123 H126 0.961 . S
H124 C123 0.959 . S
H125 C123 0.960 . S
H126 C123 0.961 . S
O127 Co102 1.967 . S
O127 C135 1.258 . S
O128 Co103 1.941 . S
O128 C135 1.266 . S
H129 C131 0.959 . S
H130 C131 0.961 . S
C131 C121 1.510 . S
C131 H129 0.959 . S
C131 H130 0.961 . S
C131 H132 0.960 . S
H132 C131 0.960 . S
H133 N113 0.862 . S
O134 Co102 1.920 . S
O134 C107 1.289 . S
C135 O127 1.258 . S
C135 O128 1.266 . S
Co136 O139 1.970 . S
Co136 N153 1.989 . S
Co136 O161 1.967 1_554 S
Co136 O168 1.920 . S
Co137 O140 1.966 . S
Co137 N146 2.022 . S
Co137 N154 1.993 . S
Co137 O162 1.941 . S
C138 O139 1.258 . S
C138 O140 1.263 1_554 S
O139 Co136 1.970 . S
O139 C138 1.258 . S
O140 Co137 1.966 . S
O140 C138 1.263 1_556 S
C141 O142 1.235 . S
C141 O168 1.289 . S
O142 C141 1.235 . S
C143 C145 1.400 . S
C143 N146 1.351 . S
C143 C148 1.501 . S
C144 C145 1.387 . S
C144 N147 1.341 . S
C145 C143 1.400 . S
C145 C144 1.387 . S
N146 Co137 2.022 . S
N146 C143 1.351 . S
N146 N147 1.365 . S
N147 C144 1.341 . S
N147 N146 1.365 . S
N147 H167 0.862 . S
C148 C143 1.501 . S
C148 H149 0.961 . S
C148 H150 0.961 . S
C148 H151 0.960 . S
H149 C148 0.961 . S
H150 C148 0.961 . S
H151 C148 0.960 . S
C152 N153 1.342 . S
C152 C156 1.401 . S
C152 C157 1.499 . S
N153 Co136 1.989 . S
N153 C152 1.342 . S
N153 N154 1.388 1_554 S
N154 Co137 1.993 . S
N154 N153 1.388 1_556 S
N154 C155 1.346 . S
C155 N154 1.346 . S
C155 C156 1.396 1_556 S
C155 C165 1.510 . S
C156 C152 1.401 . S
C156 C155 1.396 1_554 S
C157 C152 1.499 . S
C157 H158 0.959 . S
C157 H159 0.960 . S
C157 H160 0.961 . S
H158 C157 0.959 . S
H159 C157 0.960 . S
H160 C157 0.961 . S
O161 Co136 1.967 1_556 S
O161 C169 1.258 . S
O162 Co137 1.941 . S
O162 C169 1.266 . S
H163 C165 0.959 . S
H164 C165 0.961 . S
C165 C155 1.510 . S
C165 H163 0.959 . S
C165 H164 0.961 . S
C165 H166 0.960 . S
H166 C165 0.960 . S
H167 N147 0.862 . S
O168 Co136 1.920 . S
O168 C141 1.289 . S
C169 O161 1.258 . S
C169 O162 1.266 . S
Co170 O173 1.970 . S
Co170 N187 1.989 . S
Co170 O195 1.967 . S
Co170 O202 1.920 . S
Co171 O174 1.966 . S
Co171 N180 2.022 . S
Co171 N188 1.993 . S
Co171 O196 1.941 . S
C172 O173 1.258 . S
C172 O174 1.263 . S
O173 Co170 1.970 . S
O173 C172 1.258 . S
O174 Co171 1.966 . S
O174 C172 1.263 . S
C175 O176 1.235 . S
C175 O202 1.289 . S
O176 C175 1.235 . S
C177 C179 1.400 . S
C177 N180 1.351 . S
C177 C182 1.501 . S
C178 C179 1.387 . S
C178 N181 1.341 . S
C179 C177 1.400 . S
C179 C178 1.387 . S
N180 Co171 2.022 . S
N180 C177 1.351 . S
N180 N181 1.365 . S
N181 C178 1.341 . S
N181 N180 1.365 . S
N181 H201 0.862 . S
C182 C177 1.501 . S
C182 H183 0.961 . S
C182 H184 0.961 . S
C182 H185 0.960 . S
H183 C182 0.961 . S
H184 C182 0.961 . S
H185 C182 0.960 . S
C186 N187 1.342 . S
C186 C190 1.401 . S
C186 C191 1.499 . S
N187 Co170 1.989 . S
N187 C186 1.342 . S
N187 N188 1.388 . S
N188 Co171 1.993 . S
N188 N187 1.388 . S
N188 C189 1.346 . S
C189 N188 1.346 . S
C189 C190 1.396 . S
C189 C199 1.510 . S
C190 C186 1.401 . S
C190 C189 1.396 . S
C191 C186 1.499 . S
C191 H192 0.959 . S
C191 H193 0.960 . S
C191 H194 0.961 . S
H192 C191 0.959 . S
H193 C191 0.960 . S
H194 C191 0.961 . S
O195 Co170 1.967 . S
O195 C203 1.258 . S
O196 Co171 1.941 . S
O196 C203 1.266 . S
H197 C199 0.959 . S
H198 C199 0.961 . S
C199 C189 1.510 . S
C199 H197 0.959 . S
C199 H198 0.961 . S
C199 H200 0.960 . S
H200 C199 0.960 . S
H201 N181 0.862 . S
O202 Co170 1.920 . S
O202 C175 1.289 . S
C203 O195 1.258 . S
C203 O196 1.266 . S
Co204 O207 1.970 . S
Co204 N221 1.989 . S
Co204 O229 1.967 . S
Co204 O236 1.920 . S
Co205 O208 1.966 . S
Co205 N214 2.022 . S
Co205 N222 1.993 . S
Co205 O230 1.941 . S
C206 O207 1.258 . S
C206 O208 1.263 . S
O207 Co204 1.970 . S
O207 C206 1.258 . S
O208 Co205 1.966 . S
O208 C206 1.263 . S
C209 O210 1.235 . S
C209 O236 1.289 . S
O210 C209 1.235 . S
C211 C213 1.400 . S
C211 N214 1.351 . S
C211 C216 1.501 . S
C212 C213 1.387 . S
C212 N215 1.341 . S
C213 C211 1.400 . S
C213 C212 1.387 . S
N214 Co205 2.022 . S
N214 C211 1.351 . S
N214 N215 1.365 . S
N215 C212 1.341 . S
N215 N214 1.365 . S
N215 H235 0.862 . S
C216 C211 1.501 . S
C216 H217 0.961 . S
C216 H218 0.961 . S
C216 H219 0.960 . S
H217 C216 0.961 . S
H218 C216 0.961 . S
H219 C216 0.960 . S
C220 N221 1.342 . S
C220 C224 1.401 . S
C220 C225 1.499 . S
N221 Co204 1.989 . S
N221 C220 1.342 . S
N221 N222 1.388 . S
N222 Co205 1.993 . S
N222 N221 1.388 . S
N222 C223 1.346 . S
C223 N222 1.346 . S
C223 C224 1.396 . S
C223 C233 1.510 . S
C224 C220 1.401 . S
C224 C223 1.396 . S
C225 C220 1.499 . S
C225 H226 0.959 . S
C225 H227 0.960 . S
C225 H228 0.961 . S
H226 C225 0.959 . S
H227 C225 0.960 . S
H228 C225 0.961 . S
O229 Co204 1.967 . S
O229 C237 1.258 . S
O230 Co205 1.941 . S
O230 C237 1.266 . S
H231 C233 0.959 . S
H232 C233 0.961 . S
C233 C223 1.510 . S
C233 H231 0.959 . S
C233 H232 0.961 . S
C233 H234 0.960 . S
H234 C233 0.960 . S
H235 N215 0.862 . S
O236 Co204 1.920 . S
O236 C209 1.289 . S
C237 O229 1.258 . S
C237 O230 1.266 . S
Co238 O241 1.970 . S
Co238 N255 1.989 . S
Co238 O263 1.967 1_556 S
Co238 O270 1.920 . S
Co239 O242 1.966 . S
Co239 N248 2.022 . S
Co239 N256 1.993 . S
Co239 O264 1.941 . S
C240 O241 1.258 . S
C240 O242 1.263 1_556 S
O241 Co238 1.970 . S
O241 C240 1.258 . S
O242 Co239 1.966 . S
O242 C240 1.263 1_554 S
C243 O244 1.235 . S
C243 O270 1.289 . S
O244 C243 1.235 . S
C245 C247 1.400 . S
C245 N248 1.351 . S
C245 C250 1.501 . S
C246 C247 1.387 . S
C246 N249 1.341 . S
C247 C245 1.400 . S
C247 C246 1.387 . S
N248 Co239 2.022 . S
N248 C245 1.351 . S
N248 N249 1.365 . S
N249 C246 1.341 . S
N249 N248 1.365 . S
N249 H269 0.862 . S
C250 C245 1.501 . S
C250 H251 0.961 . S
C250 H252 0.961 . S
C250 H253 0.960 . S
H251 C250 0.961 . S
H252 C250 0.961 . S
H253 C250 0.960 . S
C254 N255 1.342 . S
C254 C258 1.401 . S
C254 C259 1.499 . S
N255 Co238 1.989 . S
N255 C254 1.342 . S
N255 N256 1.388 1_556 S
N256 Co239 1.993 . S
N256 N255 1.388 1_554 S
N256 C257 1.346 . S
C257 N256 1.346 . S
C257 C258 1.396 1_554 S
C257 C267 1.510 . S
C258 C254 1.401 . S
C258 C257 1.396 1_556 S
C259 C254 1.499 . S
C259 H260 0.959 . S
C259 H261 0.960 . S
C259 H262 0.961 . S
H260 C259 0.959 . S
H261 C259 0.960 . S
H262 C259 0.961 . S
O263 Co238 1.967 1_554 S
O263 C271 1.258 . S
O264 Co239 1.941 . S
O264 C271 1.266 . S
H265 C267 0.959 . S
H266 C267 0.961 . S
C267 C257 1.510 . S
C267 H265 0.959 . S
C267 H266 0.961 . S
C267 H268 0.960 . S
H268 C267 0.960 . S
H269 N249 0.862 . S
O270 Co238 1.920 . S
O270 C243 1.289 . S
C271 O263 1.258 . S
C271 O264 1.266 . S
Co272 O275 1.970 . S
Co272 N289 1.989 . S
Co272 O297 1.967 1_565 S
Co272 O304 1.920 1_565 S
Co273 O276 1.966 . S
Co273 N282 2.022 . S
Co273 N290 1.993 . S
Co273 O298 1.941 1_565 S
C274 O275 1.258 . S
C274 O276 1.263 . S
O275 Co272 1.970 . S
O275 C274 1.258 . S
O276 Co273 1.966 . S
O276 C274 1.263 . S
C277 O278 1.235 . S
C277 O304 1.289 1_565 S
O278 C277 1.235 . S
C279 C281 1.400 . S
C279 N282 1.351 . S
C279 C284 1.501 . S
C280 C281 1.387 . S
C280 N283 1.341 . S
C281 C279 1.400 . S
C281 C280 1.387 . S
N282 Co273 2.022 . S
N282 C279 1.351 . S
N282 N283 1.365 . S
N283 C280 1.341 . S
N283 N282 1.365 . S
N283 H303 0.862 . S
C284 C279 1.501 . S
C284 H285 0.961 . S
C284 H286 0.961 . S
C284 H287 0.960 . S
H285 C284 0.961 . S
H286 C284 0.961 . S
H287 C284 0.960 . S
C288 N289 1.342 . S
C288 C292 1.401 . S
C288 C293 1.499 . S
N289 Co272 1.989 . S
N289 C288 1.342 . S
N289 N290 1.388 . S
N290 Co273 1.993 . S
N290 N289 1.388 . S
N290 C291 1.346 . S
C291 N290 1.346 . S
C291 C292 1.396 . S
C291 C301 1.510 . S
C292 C288 1.401 . S
C292 C291 1.396 . S
C293 C288 1.499 . S
C293 H294 0.959 . S
C293 H295 0.960 . S
C293 H296 0.961 . S
H294 C293 0.959 . S
H295 C293 0.960 . S
H296 C293 0.961 . S
O297 Co272 1.967 1_545 S
O297 C305 1.258 . S
O298 Co273 1.941 1_545 S
O298 C305 1.266 . S
H299 C301 0.959 . S
H300 C301 0.961 . S
C301 C291 1.510 . S
C301 H299 0.959 . S
C301 H300 0.961 . S
C301 H302 0.960 . S
H302 C301 0.960 . S
H303 N283 0.862 . S
O304 Co272 1.920 1_545 S
O304 C277 1.289 1_545 S
C305 O297 1.258 . S
C305 O298 1.266 . S
Co306 O309 1.970 1_556 S
Co306 N323 1.989 . S
Co306 O331 1.967 1_556 S
Co306 O338 1.920 . S
Co307 O310 1.966 . S
Co307 N316 2.022 . S
Co307 N324 1.993 1_554 S
Co307 O332 1.941 . S
C308 O309 1.258 . S
C308 O310 1.263 . S
O309 Co306 1.970 1_554 S
O309 C308 1.258 . S
O310 Co307 1.966 . S
O310 C308 1.263 . S
C311 O312 1.235 . S
C311 O338 1.289 . S
O312 C311 1.235 . S
C313 C315 1.400 1_554 S
C313 N316 1.351 . S
C313 C318 1.501 . S
C314 C315 1.387 . S
C314 N317 1.341 1_556 S
C315 C313 1.400 1_556 S
C315 C314 1.387 . S
N316 Co307 2.022 . S
N316 C313 1.351 . S
N316 N317 1.365 . S
N317 C314 1.341 1_554 S
N317 N316 1.365 . S
N317 H337 0.862 . S
C318 C313 1.501 . S
C318 H319 0.961 . S
C318 H320 0.961 1_554 S
C318 H321 0.960 . S
H319 C318 0.961 . S
H320 C318 0.961 1_556 S
H321 C318 0.960 . S
C322 N323 1.342 . S
C322 C326 1.401 . S
C322 C327 1.499 . S
N323 Co306 1.989 . S
N323 C322 1.342 . S
N323 N324 1.388 . S
N324 Co307 1.993 1_556 S
N324 N323 1.388 . S
N324 C325 1.346 . S
C325 N324 1.346 . S
C325 C326 1.396 . S
C325 C335 1.510 . S
C326 C322 1.401 . S
C326 C325 1.396 . S
C327 C322 1.499 . S
C327 H328 0.959 . S
C327 H329 0.960 . S
C327 H330 0.961 . S
H328 C327 0.959 . S
H329 C327 0.960 . S
H330 C327 0.961 . S
O331 Co306 1.967 1_554 S
O331 C339 1.258 . S
O332 Co307 1.941 . S
O332 C339 1.266 . S
H333 C335 0.959 . S
H334 C335 0.961 . S
C335 C325 1.510 . S
C335 H333 0.959 . S
C335 H334 0.961 . S
C335 H336 0.960 . S
H336 C335 0.960 . S
H337 N317 0.862 . S
O338 Co306 1.920 . S
O338 C311 1.289 . S
C339 O331 1.258 . S
C339 O332 1.266 . S
Co340 O343 1.970 . S
Co340 N357 1.989 . S
Co340 O365 1.967 . S
Co340 O372 1.920 . S
Co341 O344 1.966 . S
Co341 N350 2.022 . S
Co341 N358 1.993 . S
Co341 O366 1.941 . S
C342 O343 1.258 . S
C342 O344 1.263 . S
O343 Co340 1.970 . S
O343 C342 1.258 . S
O344 Co341 1.966 . S
O344 C342 1.263 . S
C345 O346 1.235 . S
C345 O372 1.289 . S
O346 C345 1.235 . S
C347 C349 1.400 . S
C347 N350 1.351 . S
C347 C352 1.501 . S
C348 C349 1.387 . S
C348 N351 1.341 . S
C349 C347 1.400 . S
C349 C348 1.387 . S
N350 Co341 2.022 . S
N350 C347 1.351 . S
N350 N351 1.365 . S
N351 C348 1.341 . S
N351 N350 1.365 . S
N351 H371 0.862 . S
C352 C347 1.501 . S
C352 H353 0.961 . S
C352 H354 0.961 . S
C352 H355 0.960 . S
H353 C352 0.961 . S
H354 C352 0.961 . S
H355 C352 0.960 . S
C356 N357 1.342 . S
C356 C360 1.401 . S
C356 C361 1.499 . S
N357 Co340 1.989 . S
N357 C356 1.342 . S
N357 N358 1.388 . S
N358 Co341 1.993 . S
N358 N357 1.388 . S
N358 C359 1.346 . S
C359 N358 1.346 . S
C359 C360 1.396 . S
C359 C369 1.510 . S
C360 C356 1.401 . S
C360 C359 1.396 . S
C361 C356 1.499 . S
C361 H362 0.959 . S
C361 H363 0.960 . S
C361 H364 0.961 . S
H362 C361 0.959 . S
H363 C361 0.960 . S
H364 C361 0.961 . S
O365 Co340 1.967 . S
O365 C373 1.258 . S
O366 Co341 1.941 . S
O366 C373 1.266 . S
H367 C369 0.959 . S
H368 C369 0.961 . S
C369 C359 1.510 . S
C369 H367 0.959 . S
C369 H368 0.961 . S
C369 H370 0.960 . S
H370 C369 0.960 . S
H371 N351 0.862 . S
O372 Co340 1.920 . S
O372 C345 1.289 . S
C373 O365 1.258 . S
C373 O366 1.266 . S
Co374 O377 1.970 . S
Co374 N391 1.989 . S
Co374 O399 1.967 1_545 S
Co374 O406 1.920 1_545 S
Co375 O378 1.966 . S
Co375 N384 2.022 . S
Co375 N392 1.993 . S
Co375 O400 1.941 1_545 S
C376 O377 1.258 . S
C376 O378 1.263 . S
O377 Co374 1.970 . S
O377 C376 1.258 . S
O378 Co375 1.966 . S
O378 C376 1.263 . S
C379 O380 1.235 . S
C379 O406 1.289 1_545 S
O380 C379 1.235 . S
C381 C383 1.400 . S
C381 N384 1.351 . S
C381 C386 1.501 . S
C382 C383 1.387 . S
C382 N385 1.341 . S
C383 C381 1.400 . S
C383 C382 1.387 . S
N384 Co375 2.022 . S
N384 C381 1.351 . S
N384 N385 1.365 . S
N385 C382 1.341 . S
N385 N384 1.365 . S
N385 H405 0.862 . S
C386 C381 1.501 . S
C386 H387 0.961 . S
C386 H388 0.961 . S
C386 H389 0.960 . S
H387 C386 0.961 . S
H388 C386 0.961 . S
H389 C386 0.960 . S
C390 N391 1.342 . S
C390 C394 1.401 . S
C390 C395 1.499 . S
N391 Co374 1.989 . S
N391 C390 1.342 . S
N391 N392 1.388 . S
N392 Co375 1.993 . S
N392 N391 1.388 . S
N392 C393 1.346 . S
C393 N392 1.346 . S
C393 C394 1.396 . S
C393 C403 1.510 . S
C394 C390 1.401 . S
C394 C393 1.396 . S
C395 C390 1.499 . S
C395 H396 0.959 . S
C395 H397 0.960 . S
C395 H398 0.961 . S
H396 C395 0.959 . S
H397 C395 0.960 . S
H398 C395 0.961 . S
O399 Co374 1.967 1_565 S
O399 C407 1.258 . S
O400 Co375 1.941 1_565 S
O400 C407 1.266 . S
H401 C403 0.959 . S
H402 C403 0.961 . S
C403 C393 1.510 . S
C403 H401 0.959 . S
C403 H402 0.961 . S
C403 H404 0.960 . S
H404 C403 0.960 . S
H405 N385 0.862 . S
O406 Co374 1.920 1_565 S
O406 C379 1.289 1_565 S
C407 O399 1.258 . S
C407 O400 1.266 . S
H408 C416 0.950 . S
H409 C421 0.950 . S
H410 C418 0.950 . S
H411 C420 0.950 . S
H412 C422 0.950 . S
H413 C424 0.950 . S
H414 C426 0.950 . S
H415 C427 0.950 . S
C416 H408 0.950 . S
C416 C417 1.386 . S
C416 C418 1.391 . S
C417 C416 1.386 . S
C417 C421 1.393 . S
C418 H410 0.950 . S
C418 C416 1.391 . S
C418 C419 1.400 . S
C419 C418 1.400 . S
C419 C420 1.398 . S
C419 C425 1.491 . S
C420 H411 0.950 . S
C420 C419 1.398 . S
C420 C421 1.391 . S
C421 H409 0.950 . S
C421 C417 1.393 . S
C421 C420 1.391 . S
C422 H412 0.950 . S
C422 C423 1.386 . S
C422 C424 1.391 . S
C423 C422 1.386 . S
C423 C427 1.393 . S
C424 H413 0.950 . S
C424 C422 1.391 . S
C424 C425 1.400 . S
C425 C419 1.491 . S
C425 C424 1.400 . S
C425 C426 1.398 . S
C426 H414 0.950 . S
C426 C425 1.398 . S
C426 C427 1.391 . S
C427 H415 0.950 . S
C427 C423 1.393 . S
C427 C426 1.391 . S
H428 C436 0.950 . S
H429 C441 0.950 . S
H430 C438 0.950 . S
H431 C440 0.950 . S
H432 C442 0.950 . S
H433 C444 0.950 . S
H434 C446 0.951 1_655 S
H435 C447 0.950 . S
C436 H428 0.950 . S
C436 C437 1.386 . S
C436 C438 1.391 . S
C437 C436 1.386 . S
C437 C441 1.393 . S
C438 H430 0.950 . S
C438 C436 1.391 . S
C438 C439 1.400 . S
C439 C438 1.400 . S
C439 C440 1.398 . S
C439 C445 1.491 1_655 S
C440 H431 0.950 . S
C440 C439 1.398 . S
C440 C441 1.391 . S
C441 H429 0.950 . S
C441 C437 1.393 . S
C441 C440 1.391 . S
C442 H432 0.950 . S
C442 C443 1.386 . S
C442 C444 1.391 . S
C443 C442 1.386 . S
C443 C447 1.393 . S
C444 H433 0.950 . S
C444 C442 1.391 . S
C444 C445 1.400 . S
C445 C439 1.491 1_455 S
C445 C444 1.400 . S
C445 C446 1.398 . S
C446 H434 0.951 1_455 S
C446 C445 1.398 . S
C446 C447 1.391 . S
C447 H435 0.950 . S
C447 C443 1.393 . S
C447 C446 1.391 . S
H448 C456 0.950 . S
H449 C461 0.950 . S
H450 C458 0.950 . S
H451 C460 0.950 . S
H452 C462 0.950 . S
H453 C464 0.950 . S
H454 C466 0.950 . S
H455 C467 0.950 . S
C456 H448 0.950 . S
C456 C457 1.386 . S
C456 C458 1.391 . S
C457 C456 1.386 . S
C457 C461 1.393 . S
C458 H450 0.950 . S
C458 C456 1.391 . S
C458 C459 1.400 . S
C459 C458 1.400 . S
C459 C460 1.398 . S
C459 C465 1.491 . S
C460 H451 0.950 . S
C460 C459 1.398 . S
C460 C461 1.391 . S
C461 H449 0.950 . S
C461 C457 1.393 . S
C461 C460 1.391 . S
C462 H452 0.950 . S
C462 C463 1.386 . S
C462 C464 1.391 . S
C463 C462 1.386 . S
C463 C467 1.393 . S
C464 H453 0.950 . S
C464 C462 1.391 . S
C464 C465 1.400 . S
C465 C459 1.491 . S
C465 C464 1.400 . S
C465 C466 1.398 . S
C466 H454 0.950 . S
C466 C465 1.398 . S
C466 C467 1.391 . S
C467 H455 0.950 . S
C467 C463 1.393 . S
C467 C466 1.391 . S
H468 C476 0.950 . S
H469 C481 0.950 . S
H470 C478 0.950 . S
H471 C480 0.950 . S
H472 C482 0.950 . S
H473 C484 0.950 . S
H474 C486 0.950 . S
H475 C487 0.950 . S
C476 H468 0.950 . S
C476 C477 1.386 . S
C476 C478 1.391 . S
C477 C476 1.386 . S
C477 C481 1.393 . S
C478 H470 0.950 . S
C478 C476 1.391 . S
C478 C479 1.400 . S
C479 C478 1.400 . S
C479 C480 1.398 . S
C479 C485 1.491 . S
C480 H471 0.950 . S
C480 C479 1.398 . S
C480 C481 1.391 . S
C481 H469 0.950 . S
C481 C477 1.393 . S
C481 C480 1.391 . S
C482 H472 0.950 . S
C482 C483 1.386 . S
C482 C484 1.391 . S
C483 C482 1.386 . S
C483 C487 1.393 . S
C484 H473 0.950 . S
C484 C482 1.391 . S
C484 C485 1.400 . S
C485 C479 1.491 . S
C485 C484 1.400 . S
C485 C486 1.398 . S
C486 H474 0.950 . S
C486 C485 1.398 . S
C486 C487 1.391 . S
C487 H475 0.950 . S
C487 C483 1.393 . S
C487 C486 1.391 . S
H488 C496 0.950 . S
H489 C501 0.950 1_554 S
H490 C498 0.955 . S
H491 C500 0.950 . S
H492 C502 0.950 . S
H493 C504 0.952 . S
H494 C506 0.950 . S
H495 C507 0.950 1_556 S
C496 H488 0.950 . S
C496 C497 1.386 . S
C496 C498 1.391 . S
C497 C496 1.386 . S
C497 C501 1.393 . S
C498 H490 0.955 . S
C498 C496 1.391 . S
C498 C499 1.400 . S
C499 C498 1.400 . S
C499 C500 1.398 1_556 S
C499 C505 1.491 1_456 S
C500 H491 0.950 . S
C500 C499 1.398 1_554 S
C500 C501 1.391 1_554 S
C501 H489 0.950 1_556 S
C501 C497 1.393 . S
C501 C500 1.391 1_556 S
C502 H492 0.950 . S
C502 C503 1.386 . S
C502 C504 1.391 . S
C503 C502 1.386 . S
C503 C507 1.393 . S
C504 H493 0.952 . S
C504 C502 1.391 . S
C504 C505 1.400 . S
C505 C499 1.491 1_654 S
C505 C504 1.400 . S
C505 C506 1.398 1_554 S
C506 H494 0.950 . S
C506 C505 1.398 1_556 S
C506 C507 1.391 1_556 S
C507 H495 0.950 1_554 S
C507 C503 1.393 . S
C507 C506 1.391 1_554 S
H508 C516 0.950 . S
H509 C521 0.950 . S
H510 C518 0.950 . S
H511 C520 0.950 . S
H512 C522 0.950 . S
H513 C524 0.950 . S
H514 C526 0.950 . S
H515 C527 0.950 . S
C516 H508 0.950 . S
C516 C517 1.386 . S
C516 C518 1.391 . S
C517 C516 1.386 . S
C517 C521 1.393 . S
C518 H510 0.950 . S
C518 C516 1.391 . S
C518 C519 1.400 . S
C519 C518 1.400 . S
C519 C520 1.398 . S
C519 C525 1.491 . S
C520 H511 0.950 . S
C520 C519 1.398 . S
C520 C521 1.391 . S
C521 H509 0.950 . S
C521 C517 1.393 . S
C521 C520 1.391 . S
C522 H512 0.950 . S
C522 C523 1.386 . S
C522 C524 1.391 . S
C523 C522 1.386 . S
C523 C527 1.393 . S
C524 H513 0.950 . S
C524 C522 1.391 . S
C524 C525 1.400 . S
C525 C519 1.491 . S
C525 C524 1.400 . S
C525 C526 1.398 . S
C526 H514 0.950 . S
C526 C525 1.398 . S
C526 C527 1.391 . S
C527 H515 0.950 . S
C527 C523 1.393 . S
C527 C526 1.391 . S
H528 C536 0.950 . S
H529 C541 0.950 . S
H530 C538 0.950 . S
H531 C540 0.950 . S
H532 C542 0.950 . S
H533 C544 0.950 . S
H534 C546 0.950 . S
H535 C547 0.950 1_556 S
C536 H528 0.950 . S
C536 C537 1.386 . S
C536 C538 1.391 . S
C537 C536 1.386 . S
C537 C541 1.393 . S
C538 H530 0.950 . S
C538 C536 1.391 . S
C538 C539 1.400 . S
C539 C538 1.400 . S
C539 C540 1.398 . S
C539 C545 1.491 . S
C540 H531 0.950 . S
C540 C539 1.398 . S
C540 C541 1.391 . S
C541 H529 0.950 . S
C541 C537 1.393 . S
C541 C540 1.391 . S
C542 H532 0.950 . S
C542 C543 1.386 . S
C542 C544 1.391 . S
C543 C542 1.386 . S
C543 C547 1.393 . S
C544 H533 0.950 . S
C544 C542 1.391 . S
C544 C545 1.400 . S
C545 C539 1.491 . S
C545 C544 1.400 . S
C545 C546 1.398 . S
C546 H534 0.950 . S
C546 C545 1.398 . S
C546 C547 1.391 . S
C547 H535 0.950 1_554 S
C547 C543 1.393 . S
C547 C546 1.391 . S
H548 C556 0.950 . S
H549 C561 0.950 . S
H550 C558 0.950 . S
H551 C560 0.950 . S
H552 C562 0.950 . S
H553 C564 0.950 . S
H554 C566 0.950 . S
H555 C567 0.950 . S
C556 H548 0.950 . S
C556 C557 1.386 . S
C556 C558 1.391 . S
C557 C556 1.386 . S
C557 C561 1.393 . S
C558 H550 0.950 . S
C558 C556 1.391 . S
C558 C559 1.400 . S
C559 C558 1.400 . S
C559 C560 1.398 . S
C559 C565 1.491 . S
C560 H551 0.950 . S
C560 C559 1.398 . S
C560 C561 1.391 . S
C561 H549 0.950 . S
C561 C557 1.393 . S
C561 C560 1.391 . S
C562 H552 0.950 . S
C562 C563 1.386 . S
C562 C564 1.391 . S
C563 C562 1.386 . S
C563 C567 1.393 . S
C564 H553 0.950 . S
C564 C562 1.391 . S
C564 C565 1.400 . S
C565 C559 1.491 . S
C565 C564 1.400 . S
C565 C566 1.398 . S
C566 H554 0.950 . S
C566 C565 1.398 . S
C566 C567 1.391 . S
C567 H555 0.950 . S
C567 C563 1.393 . S
C567 C566 1.391 . S
H568 C576 0.950 . S
H569 C581 0.950 . S
H570 C578 0.950 . S
H571 C580 0.950 . S
H572 C582 0.950 . S
H573 C584 0.950 . S
H574 C586 0.950 . S
H575 C587 0.950 . S
C576 H568 0.950 . S
C576 C577 1.386 . S
C576 C578 1.391 . S
C577 C576 1.386 . S
C577 C581 1.393 . S
C578 H570 0.950 . S
C578 C576 1.391 . S
C578 C579 1.400 . S
C579 C578 1.400 . S
C579 C580 1.398 . S
C579 C585 1.491 . S
C580 H571 0.950 . S
C580 C579 1.398 . S
C580 C581 1.391 . S
C581 H569 0.950 . S
C581 C577 1.393 . S
C581 C580 1.391 . S
C582 H572 0.950 . S
C582 C583 1.386 . S
C582 C584 1.391 . S
C583 C582 1.386 . S
C583 C587 1.393 . S
C584 H573 0.950 . S
C584 C582 1.391 . S
C584 C585 1.400 . S
C585 C579 1.491 . S
C585 C584 1.400 . S
C585 C586 1.398 . S
C586 H574 0.950 . S
C586 C585 1.398 . S
C586 C587 1.391 . S
C587 H575 0.950 . S
C587 C583 1.393 . S
C587 C586 1.391 . S
H588 C596 0.950 . S
H589 C601 0.950 . S
H590 C598 0.950 . S
H591 C600 0.950 . S
H592 C602 0.950 . S
H593 C604 0.950 . S
H594 C606 0.950 . S
H595 C607 0.950 . S
C596 H588 0.950 . S
C596 C597 1.386 . S
C596 C598 1.391 . S
C597 C596 1.386 . S
C597 C601 1.393 . S
C598 H590 0.950 . S
C598 C596 1.391 . S
C598 C599 1.400 . S
C599 C598 1.400 . S
C599 C600 1.398 . S
C599 C605 1.491 . S
C600 H591 0.950 . S
C600 C599 1.398 . S
C600 C601 1.391 . S
C601 H589 0.950 . S
C601 C597 1.393 . S
C601 C600 1.391 . S
C602 H592 0.950 . S
C602 C603 1.386 . S
C602 C604 1.391 . S
C603 C602 1.386 . S
C603 C607 1.393 . S
C604 H593 0.950 . S
C604 C602 1.391 . S
C604 C605 1.400 . S
C605 C599 1.491 . S
C605 C604 1.400 . S
C605 C606 1.398 . S
C606 H594 0.950 . S
C606 C605 1.398 . S
C606 C607 1.391 . S
C607 H595 0.950 . S
C607 C603 1.393 . S
C607 C606 1.391 . S
H608 C616 0.950 . S
H609 C621 0.950 1_554 S
H610 C618 0.950 . S
H611 C620 0.950 . S
H612 C622 0.950 . S
H613 C624 0.950 . S
H614 C626 0.950 . S
H615 C627 0.950 . S
C616 H608 0.950 . S
C616 C617 1.386 . S
C616 C618 1.391 . S
C617 C616 1.386 . S
C617 C621 1.393 . S
C618 H610 0.950 . S
C618 C616 1.391 . S
C618 C619 1.400 . S
C619 C618 1.400 . S
C619 C620 1.398 . S
C619 C625 1.491 . S
C620 H611 0.950 . S
C620 C619 1.398 . S
C620 C621 1.391 . S
C621 H609 0.950 1_556 S
C621 C617 1.393 . S
C621 C620 1.391 . S
C622 H612 0.950 . S
C622 C623 1.386 . S
C622 C624 1.391 . S
C623 C622 1.386 . S
C623 C627 1.393 . S
C624 H613 0.950 . S
C624 C622 1.391 . S
C624 C625 1.400 . S
C625 C619 1.491 . S
C625 C624 1.400 . S
C625 C626 1.398 . S
C626 H614 0.950 . S
C626 C625 1.398 . S
C626 C627 1.391 . S
C627 H615 0.950 . S
C627 C623 1.393 . S
C627 C626 1.391 . S
H628 C636 0.950 . S
H629 C641 0.950 . S
H630 C638 0.950 . S
H631 C640 0.950 . S
H632 C642 0.950 . S
H633 C644 0.950 . S
H634 C646 0.950 . S
H635 C647 0.950 . S
C636 H628 0.950 . S
C636 C637 1.386 . S
C636 C638 1.391 . S
C637 C636 1.386 . S
C637 C641 1.393 . S
C638 H630 0.950 . S
C638 C636 1.391 . S
C638 C639 1.400 . S
C639 C638 1.400 . S
C639 C640 1.398 . S
C639 C645 1.491 . S
C640 H631 0.950 . S
C640 C639 1.398 . S
C640 C641 1.391 . S
C641 H629 0.950 . S
C641 C637 1.393 . S
C641 C640 1.391 . S
C642 H632 0.950 . S
C642 C643 1.386 . S
C642 C644 1.391 . S
C643 C642 1.386 . S
C643 C647 1.393 . S
C644 H633 0.950 . S
C644 C642 1.391 . S
C644 C645 1.400 . S
C645 C639 1.491 . S
C645 C644 1.400 . S
C645 C646 1.398 . S
C646 H634 0.950 . S
C646 C645 1.398 . S
C646 C647 1.391 . S
C647 H635 0.950 . S
C647 C643 1.393 . S
C647 C646 1.391 . S
H648 C656 0.950 . S
H649 C661 0.950 . S
H650 C658 0.950 . S
H651 C660 0.950 . S
H652 C662 0.950 . S
H653 C664 0.950 . S
H654 C666 0.950 . S
H655 C667 0.950 . S
C656 H648 0.950 . S
C656 C657 1.386 . S
C656 C658 1.391 . S
C657 C656 1.386 . S
C657 C661 1.393 . S
C658 H650 0.950 . S
C658 C656 1.391 . S
C658 C659 1.400 . S
C659 C658 1.400 . S
C659 C660 1.398 . S
C659 C665 1.491 . S
C660 H651 0.950 . S
C660 C659 1.398 . S
C660 C661 1.391 . S
C661 H649 0.950 . S
C661 C657 1.393 . S
C661 C660 1.391 . S
C662 H652 0.950 . S
C662 C663 1.386 . S
C662 C664 1.391 . S
C663 C662 1.386 . S
C663 C667 1.393 . S
C664 H653 0.950 . S
C664 C662 1.391 . S
C664 C665 1.400 . S
C665 C659 1.491 . S
C665 C664 1.400 . S
C665 C666 1.398 . S
C666 H654 0.950 . S
C666 C665 1.398 . S
C666 C667 1.391 . S
C667 H655 0.950 . S
C667 C663 1.393 . S
C667 C666 1.391 . S
H668 C676 0.950 . S
H669 C681 0.950 . S
H670 C678 0.950 . S
H671 C680 0.950 . S
H672 C682 0.950 . S
H673 C684 0.950 . S
H674 C686 0.950 . S
H675 C687 0.950 . S
C676 H668 0.950 . S
C676 C677 1.386 . S
C676 C678 1.391 . S
C677 C676 1.386 . S
C677 C681 1.393 . S
C678 H670 0.950 . S
C678 C676 1.391 . S
C678 C679 1.400 . S
C679 C678 1.400 . S
C679 C680 1.398 . S
C679 C685 1.491 . S
C680 H671 0.950 . S
C680 C679 1.398 . S
C680 C681 1.391 . S
C681 H669 0.950 . S
C681 C677 1.393 . S
C681 C680 1.391 . S
C682 H672 0.950 . S
C682 C683 1.386 . S
C682 C684 1.391 . S
C683 C682 1.386 . S
C683 C687 1.393 . S
C684 H673 0.950 . S
C684 C682 1.391 . S
C684 C685 1.400 . S
C685 C679 1.491 . S
C685 C684 1.400 . S
C685 C686 1.398 . S
C686 H674 0.950 . S
C686 C685 1.398 . S
C686 C687 1.391 . S
C687 H675 0.950 . S
C687 C683 1.393 . S
C687 C686 1.391 . S
H688 C696 0.950 . S
H689 C701 0.950 . S
H690 C698 0.950 . S
H691 C700 0.950 . S
H692 C702 0.950 . S
H693 C704 0.950 . S
H694 C706 0.950 . S
H695 C707 0.950 . S
C696 H688 0.950 . S
C696 C697 1.386 . S
C696 C698 1.391 . S
C697 C696 1.386 . S
C697 C701 1.393 . S
C698 H690 0.950 . S
C698 C696 1.391 . S
C698 C699 1.400 . S
C699 C698 1.400 . S
C699 C700 1.398 . S
C699 C705 1.491 . S
C700 H691 0.950 . S
C700 C699 1.398 . S
C700 C701 1.391 . S
C701 H689 0.950 . S
C701 C697 1.393 . S
C701 C700 1.391 . S
C702 H692 0.950 . S
C702 C703 1.386 . S
C702 C704 1.391 . S
C703 C702 1.386 . S
C703 C707 1.393 . S
C704 H693 0.950 . S
C704 C702 1.391 . S
C704 C705 1.400 . S
C705 C699 1.491 . S
C705 C704 1.400 . S
C705 C706 1.398 . S
C706 H694 0.950 . S
C706 C705 1.398 . S
C706 C707 1.391 . S
C707 H695 0.950 . S
C707 C703 1.393 . S
C707 C706 1.391 . S
H708 C716 0.950 . S
H709 C721 0.950 . S
H710 C718 0.950 . S
H711 C720 0.950 . S
H712 C722 0.950 1_554 S
H713 C724 0.950 . S
H714 C726 0.950 . S
H715 C727 0.950 . S
C716 H708 0.950 . S
C716 C717 1.386 . S
C716 C718 1.391 . S
C717 C716 1.386 . S
C717 C721 1.393 . S
C718 H710 0.950 . S
C718 C716 1.391 . S
C718 C719 1.400 . S
C719 C718 1.400 . S
C719 C720 1.398 . S
C719 C725 1.491 . S
C720 H711 0.950 . S
C720 C719 1.398 . S
C720 C721 1.391 . S
C721 H709 0.950 . S
C721 C717 1.393 . S
C721 C720 1.391 . S
C722 H712 0.950 1_556 S
C722 C723 1.386 . S
C722 C724 1.391 . S
C723 C722 1.386 . S
C723 C727 1.393 . S
C724 H713 0.950 . S
C724 C722 1.391 . S
C724 C725 1.400 . S
C725 C719 1.491 . S
C725 C724 1.400 . S
C725 C726 1.398 . S
C726 H714 0.950 . S
C726 C725 1.398 . S
C726 C727 1.391 . S
C727 H715 0.950 . S
C727 C723 1.393 . S
C727 C726 1.391 . S
H728 C736 0.950 . S
H729 C741 0.950 . S
H730 C738 0.950 . S
H731 C740 0.950 . S
H732 C742 0.950 . S
H733 C744 0.950 . S
H734 C746 0.950 . S
H735 C747 0.950 . S
C736 H728 0.950 . S
C736 C737 1.386 . S
C736 C738 1.391 . S
C737 C736 1.386 . S
C737 C741 1.393 . S
C738 H730 0.950 . S
C738 C736 1.391 . S
C738 C739 1.400 . S
C739 C738 1.400 . S
C739 C740 1.398 . S
C739 C745 1.491 . S
C740 H731 0.950 . S
C740 C739 1.398 . S
C740 C741 1.391 . S
C741 H729 0.950 . S
C741 C737 1.393 . S
C741 C740 1.391 . S
C742 H732 0.950 . S
C742 C743 1.386 . S
C742 C744 1.391 . S
C743 C742 1.386 . S
C743 C747 1.393 . S
C744 H733 0.950 . S
C744 C742 1.391 . S
C744 C745 1.400 . S
C745 C739 1.491 . S
C745 C744 1.400 . S
C745 C746 1.398 . S
C746 H734 0.950 . S
C746 C745 1.398 . S
C746 C747 1.391 . S
C747 H735 0.950 . S
C747 C743 1.393 . S
C747 C746 1.391 . S
H748 C756 0.950 . S
H749 C761 0.950 . S
H750 C758 0.950 . S
H751 C760 0.950 . S
H752 C762 0.950 . S
H753 C764 0.950 . S
H754 C766 0.950 . S
H755 C767 0.950 . S
C756 H748 0.950 . S
C756 C757 1.386 . S
C756 C758 1.391 . S
C757 C756 1.386 . S
C757 C761 1.393 . S
C758 H750 0.950 . S
C758 C756 1.391 . S
C758 C759 1.400 . S
C759 C758 1.400 . S
C759 C760 1.398 . S
C759 C765 1.491 . S
C760 H751 0.950 . S
C760 C759 1.398 . S
C760 C761 1.391 . S
C761 H749 0.950 . S
C761 C757 1.393 . S
C761 C760 1.391 . S
C762 H752 0.950 . S
C762 C763 1.386 . S
C762 C764 1.391 . S
C763 C762 1.386 . S
C763 C767 1.393 . S
C764 H753 0.950 . S
C764 C762 1.391 . S
C764 C765 1.400 . S
C765 C759 1.491 . S
C765 C764 1.400 . S
C765 C766 1.398 . S
C766 H754 0.950 . S
C766 C765 1.398 . S
C766 C767 1.391 . S
C767 H755 0.950 . S
C767 C763 1.393 . S
C767 C766 1.391 . S
H768 C776 0.950 . S
H769 C781 0.950 . S
H770 C778 0.950 . S
H771 C780 0.950 . S
H772 C782 0.950 . S
H773 C784 0.950 . S
H774 C786 0.950 . S
H775 C787 0.950 . S
C776 H768 0.950 . S
C776 C777 1.386 . S
C776 C778 1.391 . S
C777 C776 1.386 . S
C777 C781 1.393 . S
C778 H770 0.950 . S
C778 C776 1.391 . S
C778 C779 1.400 . S
C779 C778 1.400 . S
C779 C780 1.398 . S
C779 C785 1.491 . S
C780 H771 0.950 . S
C780 C779 1.398 . S
C780 C781 1.391 . S
C781 H769 0.950 . S
C781 C777 1.393 . S
C781 C780 1.391 . S
C782 H772 0.950 . S
C782 C783 1.386 . S
C782 C784 1.391 . S
C783 C782 1.386 . S
C783 C787 1.393 . S
C784 H773 0.950 . S
C784 C782 1.391 . S
C784 C785 1.400 . S
C785 C779 1.491 . S
C785 C784 1.400 . S
C785 C786 1.398 . S
C786 H774 0.950 . S
C786 C785 1.398 . S
C786 C787 1.391 . S
C787 H775 0.950 . S
C787 C783 1.393 . S
C787 C786 1.391 . S
H788 C796 0.950 . S
H789 C801 0.950 . S
H790 C798 0.950 . S
H791 C800 0.950 . S
H792 C802 0.950 . S
H793 C804 0.950 . S
H794 C806 0.950 . S
H795 C807 0.950 . S
C796 H788 0.950 . S
C796 C797 1.386 . S
C796 C798 1.391 . S
C797 C796 1.386 . S
C797 C801 1.393 . S
C798 H790 0.950 . S
C798 C796 1.391 . S
C798 C799 1.400 . S
C799 C798 1.400 . S
C799 C800 1.398 . S
C799 C805 1.491 . S
C800 H791 0.950 . S
C800 C799 1.398 . S
C800 C801 1.391 . S
C801 H789 0.950 . S
C801 C797 1.393 . S
C801 C800 1.391 . S
C802 H792 0.950 . S
C802 C803 1.386 . S
C802 C804 1.391 . S
C803 C802 1.386 . S
C803 C807 1.393 . S
C804 H793 0.950 . S
C804 C802 1.391 . S
C804 C805 1.400 . S
C805 C799 1.491 . S
C805 C804 1.400 . S
C805 C806 1.398 . S
C806 H794 0.950 . S
C806 C805 1.398 . S
C806 C807 1.391 . S
C807 H795 0.950 . S
C807 C803 1.393 . S
C807 C806 1.391 . S
H808 C816 0.950 . S
H809 C821 0.950 . S
H810 C818 0.950 . S
H811 C820 0.950 . S
H812 C822 0.950 . S
H813 C824 0.950 . S
H814 C826 0.950 . S
H815 C827 0.950 . S
C816 H808 0.950 . S
C816 C817 1.386 . S
C816 C818 1.391 . S
C817 C816 1.386 . S
C817 C821 1.393 . S
C818 H810 0.950 . S
C818 C816 1.391 . S
C818 C819 1.400 . S
C819 C818 1.400 . S
C819 C820 1.398 . S
C819 C825 1.491 . S
C820 H811 0.950 . S
C820 C819 1.398 . S
C820 C821 1.391 . S
C821 H809 0.950 . S
C821 C817 1.393 . S
C821 C820 1.391 . S
C822 H812 0.950 . S
C822 C823 1.386 . S
C822 C824 1.391 . S
C823 C822 1.386 . S
C823 C827 1.393 . S
C824 H813 0.950 . S
C824 C822 1.391 . S
C824 C825 1.400 . S
C825 C819 1.491 . S
C825 C824 1.400 . S
C825 C826 1.398 . S
C826 H814 0.950 . S
C826 C825 1.398 . S
C826 C827 1.391 . S
C827 H815 0.950 . S
C827 C823 1.393 . S
C827 C826 1.391 . S
H828 C836 0.950 . S
H829 C841 0.950 . S
H830 C838 0.950 . S
H831 C840 0.950 . S
H832 C842 0.950 . S
H833 C844 0.950 . S
H834 C846 0.950 . S
H835 C847 0.950 . S
C836 H828 0.950 . S
C836 C837 1.386 . S
C836 C838 1.391 . S
C837 C836 1.386 . S
C837 C841 1.393 . S
C838 H830 0.950 . S
C838 C836 1.391 . S
C838 C839 1.400 . S
C839 C838 1.400 . S
C839 C840 1.398 . S
C839 C845 1.491 . S
C840 H831 0.950 . S
C840 C839 1.398 . S
C840 C841 1.391 . S
C841 H829 0.950 . S
C841 C837 1.393 . S
C841 C840 1.391 . S
C842 H832 0.950 . S
C842 C843 1.386 . S
C842 C844 1.391 . S
C843 C842 1.386 . S
C843 C847 1.393 . S
C844 H833 0.950 . S
C844 C842 1.391 . S
C844 C845 1.400 . S
C845 C839 1.491 . S
C845 C844 1.400 . S
C845 C846 1.398 . S
C846 H834 0.950 . S
C846 C845 1.398 . S
C846 C847 1.391 . S
C847 H835 0.950 . S
C847 C843 1.393 . S
C847 C846 1.391 . S
H848 C856 0.950 . S
H849 C861 0.950 . S
H850 C858 0.950 . S
H851 C860 0.950 . S
H852 C862 0.950 . S
H853 C864 0.950 . S
H854 C866 0.950 . S
H855 C867 0.950 . S
C856 H848 0.950 . S
C856 C857 1.386 . S
C856 C858 1.391 . S
C857 C856 1.386 . S
C857 C861 1.393 . S
C858 H850 0.950 . S
C858 C856 1.391 . S
C858 C859 1.400 . S
C859 C858 1.400 . S
C859 C860 1.398 . S
C859 C865 1.491 . S
C860 H851 0.950 . S
C860 C859 1.398 . S
C860 C861 1.391 . S
C861 H849 0.950 . S
C861 C857 1.393 . S
C861 C860 1.391 . S
C862 H852 0.950 . S
C862 C863 1.386 . S
C862 C864 1.391 . S
C863 C862 1.386 . S
C863 C867 1.393 . S
C864 H853 0.950 . S
C864 C862 1.391 . S
C864 C865 1.400 . S
C865 C859 1.491 . S
C865 C864 1.400 . S
C865 C866 1.398 . S
C866 H854 0.950 . S
C866 C865 1.398 . S
C866 C867 1.391 . S
C867 H855 0.950 . S
C867 C863 1.393 . S
C867 C866 1.391 . S
H868 C876 0.950 . S
H869 C881 0.950 . S
H870 C878 0.950 . S
H871 C880 0.950 . S
H872 C882 0.950 . S
H873 C884 0.950 . S
H874 C886 0.950 . S
H875 C887 0.950 . S
C876 H868 0.950 . S
C876 C877 1.386 . S
C876 C878 1.391 . S
C877 C876 1.386 . S
C877 C881 1.393 . S
C878 H870 0.950 . S
C878 C876 1.391 . S
C878 C879 1.400 . S
C879 C878 1.400 . S
C879 C880 1.398 . S
C879 C885 1.491 . S
C880 H871 0.950 . S
C880 C879 1.398 . S
C880 C881 1.391 . S
C881 H869 0.950 . S
C881 C877 1.393 . S
C881 C880 1.391 . S
C882 H872 0.950 . S
C882 C883 1.386 . S
C882 C884 1.391 . S
C883 C882 1.386 . S
C883 C887 1.393 . S
C884 H873 0.950 . S
C884 C882 1.391 . S
C884 C885 1.400 . S
C885 C879 1.491 . S
C885 C884 1.400 . S
C885 C886 1.398 . S
C886 H874 0.950 . S
C886 C885 1.398 . S
C886 C887 1.391 . S
C887 H875 0.950 . S
C887 C883 1.393 . S
C887 C886 1.391 . S
H888 C896 0.950 . S
H889 C901 0.950 . S
H890 C898 0.950 . S
H891 C900 0.950 . S
H892 C902 0.950 . S
H893 C904 0.950 . S
H894 C906 0.950 . S
H895 C907 0.950 . S
C896 H888 0.950 . S
C896 C897 1.386 . S
C896 C898 1.391 . S
C897 C896 1.386 . S
C897 C901 1.393 . S
C898 H890 0.950 . S
C898 C896 1.391 . S
C898 C899 1.400 . S
C899 C898 1.400 . S
C899 C900 1.398 . S
C899 C905 1.491 . S
C900 H891 0.950 . S
C900 C899 1.398 . S
C900 C901 1.391 . S
C901 H889 0.950 . S
C901 C897 1.393 . S
C901 C900 1.391 . S
C902 H892 0.950 . S
C902 C903 1.386 . S
C902 C904 1.391 . S
C903 C902 1.386 . S
C903 C907 1.393 . S
C904 H893 0.950 . S
C904 C902 1.391 . S
C904 C905 1.400 . S
C905 C899 1.491 . S
C905 C904 1.400 . S
C905 C906 1.398 . S
C906 H894 0.950 . S
C906 C905 1.398 . S
C906 C907 1.391 . S
C907 H895 0.950 . S
C907 C903 1.393 . S
C907 C906 1.391 . S
H908 C916 0.950 . S
H909 C921 0.950 . S
H910 C918 0.950 . S
H911 C920 0.950 . S
H912 C922 0.950 . S
H913 C924 0.950 . S
H914 C926 0.950 . S
H915 C927 0.950 . S
C916 H908 0.950 . S
C916 C917 1.386 . S
C916 C918 1.391 . S
C917 C916 1.386 . S
C917 C921 1.393 . S
C918 H910 0.950 . S
C918 C916 1.391 . S
C918 C919 1.400 . S
C919 C918 1.400 . S
C919 C920 1.398 . S
C919 C925 1.491 . S
C920 H911 0.950 . S
C920 C919 1.398 . S
C920 C921 1.391 . S
C921 H909 0.950 . S
C921 C917 1.393 . S
C921 C920 1.391 . S
C922 H912 0.950 . S
C922 C923 1.386 . S
C922 C924 1.391 . S
C923 C922 1.386 . S
C923 C927 1.393 . S
C924 H913 0.950 . S
C924 C922 1.391 . S
C924 C925 1.400 . S
C925 C919 1.491 . S
C925 C924 1.400 . S
C925 C926 1.398 . S
C926 H914 0.950 . S
C926 C925 1.398 . S
C926 C927 1.391 . S
C927 H915 0.950 . S
C927 C923 1.393 . S
C927 C926 1.391 . S
H928 C936 0.950 . S
H929 C941 0.950 . S
H930 C938 0.950 . S
H931 C940 0.950 . S
H932 C942 0.950 . S
H933 C944 0.950 1_545 S
H934 C946 0.950 . S
H935 C947 0.950 . S
C936 H928 0.950 . S
C936 C937 1.386 . S
C936 C938 1.391 . S
C937 C936 1.386 . S
C937 C941 1.393 . S
C938 H930 0.950 . S
C938 C936 1.391 . S
C938 C939 1.400 . S
C939 C938 1.400 . S
C939 C940 1.398 . S
C939 C945 1.491 . S
C940 H931 0.950 . S
C940 C939 1.398 . S
C940 C941 1.391 . S
C941 H929 0.950 . S
C941 C937 1.393 . S
C941 C940 1.391 . S
C942 H932 0.950 . S
C942 C943 1.386 1_545 S
C942 C944 1.391 1_545 S
C943 C942 1.386 1_565 S
C943 C947 1.393 . S
C944 H933 0.950 1_565 S
C944 C942 1.391 1_565 S
C944 C945 1.400 . S
C945 C939 1.491 . S
C945 C944 1.400 . S
C945 C946 1.398 . S
C946 H934 0.950 . S
C946 C945 1.398 . S
C946 C947 1.391 . S
C947 H935 0.950 . S
C947 C943 1.393 . S
C947 C946 1.391 . S
H948 C956 0.950 . S
H949 C961 0.950 . S
H950 C958 0.950 . S
H951 C960 0.950 . S
H952 C962 0.950 . S
H953 C964 0.950 . S
H954 C966 0.950 . S
H955 C967 0.950 . S
C956 H948 0.950 . S
C956 C957 1.386 . S
C956 C958 1.391 . S
C957 C956 1.386 . S
C957 C961 1.393 . S
C958 H950 0.950 . S
C958 C956 1.391 . S
C958 C959 1.400 . S
C959 C958 1.400 . S
C959 C960 1.398 . S
C959 C965 1.491 . S
C960 H951 0.950 . S
C960 C959 1.398 . S
C960 C961 1.391 . S
C961 H949 0.950 . S
C961 C957 1.393 . S
C961 C960 1.391 . S
C962 H952 0.950 . S
C962 C963 1.386 . S
C962 C964 1.391 . S
C963 C962 1.386 . S
C963 C967 1.393 . S
C964 H953 0.950 . S
C964 C962 1.391 . S
C964 C965 1.400 . S
C965 C959 1.491 . S
C965 C964 1.400 . S
C965 C966 1.398 . S
C966 H954 0.950 . S
C966 C965 1.398 . S
C966 C967 1.391 . S
C967 H955 0.950 . S
C967 C963 1.393 . S
C967 C966 1.391 . S
H968 C976 0.950 . S
H969 C981 0.950 . S
H970 C978 0.950 . S
H971 C980 0.950 . S
H972 C982 0.950 . S
H973 C984 0.950 . S
H974 C986 0.950 . S
H975 C987 0.950 . S
C976 H968 0.950 . S
C976 C977 1.386 . S
C976 C978 1.391 . S
C977 C976 1.386 . S
C977 C981 1.393 . S
C978 H970 0.950 . S
C978 C976 1.391 . S
C978 C979 1.400 . S
C979 C978 1.400 . S
C979 C980 1.398 . S
C979 C985 1.491 . S
C980 H971 0.950 . S
C980 C979 1.398 . S
C980 C981 1.391 . S
C981 H969 0.950 . S
C981 C977 1.393 . S
C981 C980 1.391 . S
C982 H972 0.950 . S
C982 C983 1.386 . S
C982 C984 1.391 . S
C983 C982 1.386 . S
C983 C987 1.393 . S
C984 H973 0.950 . S
C984 C982 1.391 . S
C984 C985 1.400 . S
C985 C979 1.491 . S
C985 C984 1.400 . S
C985 C986 1.398 . S
C986 H974 0.950 . S
C986 C985 1.398 . S
C986 C987 1.391 . S
C987 H975 0.950 . S
C987 C983 1.393 . S
C987 C986 1.391 . S
H988 C996 0.950 . S
H989 C1001 0.950 1_565 S
H990 C998 0.950 . S
H991 C1000 0.950 . S
H992 C1002 0.950 . S
H993 C1004 0.950 . S
H994 C1006 0.950 . S
H995 C1007 0.950 . S
C996 H988 0.950 . S
C996 C997 1.386 . S
C996 C998 1.391 . S
C997 C996 1.386 . S
C997 C1001 1.393 . S
C998 H990 0.950 . S
C998 C996 1.391 . S
C998 C999 1.400 . S
C999 C998 1.400 . S
C999 C1000 1.398 . S
C999 C1005 1.491 . S
C1000 H991 0.950 . S
C1000 C999 1.398 . S
C1000 C1001 1.391 . S
C1001 H989 0.950 1_545 S
C1001 C997 1.393 . S
C1001 C1000 1.391 . S
C1002 H992 0.950 . S
C1002 C1003 1.386 . S
C1002 C1004 1.391 . S
C1003 C1002 1.386 . S
C1003 C1007 1.393 . S
C1004 H993 0.950 . S
C1004 C1002 1.391 . S
C1004 C1005 1.400 . S
C1005 C999 1.491 . S
C1005 C1004 1.400 . S
C1005 C1006 1.398 . S
C1006 H994 0.950 . S
C1006 C1005 1.398 . S
C1006 C1007 1.391 . S
C1007 H995 0.950 . S
C1007 C1003 1.393 . S
C1007 C1006 1.391 . S
C417 C339 0.484 . S
C423 C33 0.584 . S
C437 C67 1.097 . S
C443 C373 1.100 . S
C457 C407 0.529 . S
C463 C101 0.504 . S
C477 C135 0.568 . S
C483 C237 0.523 . S
C497 C169 0.797 . S
C503 C271 0.790 . S
C517 C305 0.524 . S
C523 C203 0.529 . S
C537 C9 1.361 . S
C543 C138 1.352 . S
C557 C172 1.898 . S
C563 C43 1.817 . S
C577 C77 1.686 . S
C583 C2 1.766 . S
C597 C111 1.423 . S
C603 C36 1.425 . S
C617 C70 1.760 . S
C623 C145 1.680 . S
C637 C104 1.789 . S
C643 C179 1.708 . S
C657 C274 1.789 . S
C663 C213 1.685 . S
C677 C247 1.671 . S
C683 C308 1.757 . S
C697 C342 1.410 . S
C703 C281 1.428 . S
C717 C376 1.767 . S
C723 C315 1.669 . S
C737 C206 1.897 . S
C743 C349 1.809 . S
C757 C383 1.357 . S
C763 C240 1.356 . S
C777 C360 1.361 . S
C783 C20 1.326 . S
C797 C394 1.294 . S
C803 C54 1.373 . S
C817 C88 1.136 . S
C823 C224 1.162 . S
C837 C122 1.254 . S
C843 C258 1.325 . S
C857 C292 1.237 . S
C863 C156 1.331 . S
C877 C190 1.143 . S
C883 C326 1.157 . S
C897 C209 1.082 . S
C903 C5 1.013 . S
C917 C243 0.886 . S
C923 C39 0.829 . S
C937 C73 1.074 . S
C943 C277 0.993 . S
C957 C311 1.070 . S
C963 C107 0.991 . S
C977 C141 0.826 . S
C983 C345 0.886 . S
C997 C379 1.014 . S
C1003 C175 1.079 . S
