# Generated by pormake.
# Topology lcy-e, (6)-cn, num edge types: 1
# Building blocks:
#     Node 0, Type 0, BuildingBlock: FUNLAD_clean_sbu_0, # of connection points: 6
#     Node 1, Type 0, BuildingBlock: FUNLAD_clean_sbu_0, # of connection points: 6
#     Node 2, Type 0, BuildingBlock: FUNLAD_clean_sbu_0, # of connection points: 6
#     Node 3, Type 0, BuildingBlock: FUNLAD_clean_sbu_0, # of connection points: 6
#     Node 4, Type 0, BuildingBlock: FUNLAD_clean_sbu_0, # of connection points: 6
#     Node 5, Type 0, BuildingBlock: FUNLAD_clean_sbu_0, # of connection points: 6
#     Node 6, Type 0, BuildingBlock: FUNLAD_clean_sbu_0, # of connection points: 6
#     Node 7, Type 0, BuildingBlock: FUNLAD_clean_sbu_0, # of connection points: 6
#     Node 8, Type 0, BuildingBlock: FUNLAD_clean_sbu_0, # of connection points: 6
#     Node 9, Type 0, BuildingBlock: FUNLAD_clean_sbu_0, # of connection points: 6
#     Node 10, Type 0, BuildingBlock: FUNLAD_clean_sbu_0, # of connection points: 6
#     Node 11, Type 0, BuildingBlock: FUNLAD_clean_sbu_0, # of connection points: 6
#     Edge 12, Type (0, 0), BuildingBlock: CIFDUS_clean_linker_0, # of connection points: 2
#     Edge 13, Type (0, 0), BuildingBlock: CIFDUS_clean_linker_0, # of connection points: 2
#     Edge 14, Type (0, 0), BuildingBlock: CIFDUS_clean_linker_0, # of connection points: 2
#     Edge 15, Type (0, 0), BuildingBlock: CIFDUS_clean_linker_0, # of connection points: 2
#     Edge 16, Type (0, 0), BuildingBlock: CIFDUS_clean_linker_0, # of connection points: 2
#     Edge 17, Type (0, 0), BuildingBlock: CIFDUS_clean_linker_0, # of connection points: 2
#     Edge 18, Type (0, 0), BuildingBlock: CIFDUS_clean_linker_0, # of connection points: 2
#     Edge 19, Type (0, 0), BuildingBlock: CIFDUS_clean_linker_0, # of connection points: 2
#     Edge 20, Type (0, 0), BuildingBlock: CIFDUS_clean_linker_0, # of connection points: 2
#     Edge 21, Type (0, 0), BuildingBlock: CIFDUS_clean_linker_0, # of connection points: 2
#     Edge 22, Type (0, 0), BuildingBlock: CIFDUS_clean_linker_0, # of connection points: 2
#     Edge 23, Type (0, 0), BuildingBlock: CIFDUS_clean_linker_0, # of connection points: 2
#     Edge 24, Type (0, 0), BuildingBlock: CIFDUS_clean_linker_0, # of connection points: 2
#     Edge 25, Type (0, 0), BuildingBlock: CIFDUS_clean_linker_0, # of connection points: 2
#     Edge 26, Type (0, 0), BuildingBlock: CIFDUS_clean_linker_0, # of connection points: 2
#     Edge 27, Type (0, 0), BuildingBlock: CIFDUS_clean_linker_0, # of connection points: 2
#     Edge 28, Type (0, 0), BuildingBlock: CIFDUS_clean_linker_0, # of connection points: 2
#     Edge 29, Type (0, 0), BuildingBlock: CIFDUS_clean_linker_0, # of connection points: 2
#     Edge 30, Type (0, 0), BuildingBlock: CIFDUS_clean_linker_0, # of connection points: 2
#     Edge 31, Type (0, 0), BuildingBlock: CIFDUS_clean_linker_0, # of connection points: 2
#     Edge 32, Type (0, 0), BuildingBlock: CIFDUS_clean_linker_0, # of connection points: 2
#     Edge 33, Type (0, 0), BuildingBlock: CIFDUS_clean_linker_0, # of connection points: 2
#     Edge 34, Type (0, 0), BuildingBlock: CIFDUS_clean_linker_0, # of connection points: 2
#     Edge 35, Type (0, 0), BuildingBlock: CIFDUS_clean_linker_0, # of connection points: 2
#     Edge 36, Type (0, 0), BuildingBlock: CIFDUS_clean_linker_0, # of connection points: 2
#     Edge 37, Type (0, 0), BuildingBlock: CIFDUS_clean_linker_0, # of connection points: 2
#     Edge 38, Type (0, 0), BuildingBlock: CIFDUS_clean_linker_0, # of connection points: 2
#     Edge 39, Type (0, 0), BuildingBlock: CIFDUS_clean_linker_0, # of connection points: 2
#     Edge 40, Type (0, 0), BuildingBlock: CIFDUS_clean_linker_0, # of connection points: 2
#     Edge 41, Type (0, 0), BuildingBlock: CIFDUS_clean_linker_0, # of connection points: 2
#     Edge 42, Type (0, 0), BuildingBlock: CIFDUS_clean_linker_0, # of connection points: 2
#     Edge 43, Type (0, 0), BuildingBlock: CIFDUS_clean_linker_0, # of connection points: 2
#     Edge 44, Type (0, 0), BuildingBlock: CIFDUS_clean_linker_0, # of connection points: 2
#     Edge 45, Type (0, 0), BuildingBlock: CIFDUS_clean_linker_0, # of connection points: 2
#     Edge 46, Type (0, 0), BuildingBlock: CIFDUS_clean_linker_0, # of connection points: 2
#     Edge 47, Type (0, 0), BuildingBlock: CIFDUS_clean_linker_0, # of connection points: 2
# Relax obj value: 0.630
# Max RMSD: 0.367
# Mean RMSD: 0.291
data_MOF--net-lcy-e--node1-FUNLAD_clean_sbu_0--edge1-CIFDUS_clean_linker_0
_symmetry_space_group_name_H-M    P1
_symmetry_Int_Tables_number       1
_symmetry_cell_setting            triclinic
loop_
_symmetry_equiv_pos_as_xyz
'x, y, z'
_cell_length_a     36.395539
_cell_length_b     33.769842
_cell_length_c     32.923144
_cell_angle_alpha  92.805928
_cell_angle_beta   87.264647
_cell_angle_gamma 96.608657
loop_
_atom_site_label
_atom_site_type_symbol
_atom_site_fract_x
_atom_site_fract_y
_atom_site_fract_z
_atom_type_partial_charge
C0 C 0.11825 0.18601 0.51634 0.0
N1 N 0.05013 0.20382 0.41916 0.0
C2 C 0.04791 0.16538 0.40422 0.0
C3 C 0.01591 0.14818 0.38525 0.0
C4 C 0.98607 0.17072 0.38239 0.0
C5 C 0.98917 0.21015 0.3978 0.0
C6 C 0.02175 0.22634 0.41565 0.0
Zn7 Zn 0.09534 0.23217 0.44751 0.0
C8 C 0.07093 0.28364 0.51863 0.0
N9 N 0.18549 0.29899 0.50768 0.0
C10 C 0.21596 0.28581 0.52257 0.0
C11 C 0.18123 0.33858 0.50926 0.0
C12 C 0.20806 0.36666 0.52554 0.0
C13 C 0.23971 0.35425 0.54117 0.0
C14 C 0.24351 0.31317 0.53996 0.0
Zn15 Zn 0.14271 0.26399 0.48036 0.0
O16 O 0.0965 0.18519 0.48706 0.0
C17 C 0.16781 0.20806 0.41563 0.0
O18 O 0.14053 0.21739 0.52369 0.0
H19 H 0.1567 0.34872 0.49799 0.0
H20 H 0.07079 0.14807 0.40718 0.0
H21 H 0.21886 0.25424 0.52107 0.0
O22 O 0.13363 0.20371 0.40732 0.0
O23 O 0.17913 0.23259 0.44408 0.0
H24 H 0.02422 0.2571 0.42682 0.0
O25 O 0.1449 0.30838 0.43392 0.0
O26 O 0.09541 0.27847 0.40614 0.0
O27 O 0.10557 0.2934 0.51917 0.0
O28 O 0.0583 0.25916 0.49081 0.0
C29 C 0.12153 0.3067 0.40618 0.0
H30 H 0.01411 0.11743 0.37378 0.0
H31 H 0.96667 0.22828 0.39589 0.0
H32 H 0.20352 0.39786 0.52685 0.0
H33 H 0.26749 0.30246 0.55211 0.0
C34 C 0.10317 0.96423 0.77346 0.0
N35 N 0.14082 0.89058 0.67712 0.0
C36 C 0.17647 0.9055 0.68395 0.0
C37 C 0.20495 0.88085 0.67805 0.0
C38 C 0.1964 0.84063 0.66518 0.0
C39 C 0.15964 0.82682 0.65669 0.0
C40 C 0.13226 0.85219 0.66318 0.0
Zn41 Zn 0.09614 0.9211 0.69147 0.0
C42 C 0.03932 0.87167 0.74325 0.0
N43 N 0.00277 0.98059 0.72363 0.0
C44 C 1.00058 0.01892 0.73771 0.0
C45 C 0.97215 0.95622 0.7127 0.0
C46 C 0.93776 0.96964 0.71583 0.0
C47 C 0.9344 0.00857 0.73055 0.0
C48 C 0.96605 0.0338 0.74147 0.0
Zn49 Zn 0.04973 0.95447 0.71216 0.0
O50 O 0.11994 0.94568 0.74503 0.0
C51 C 0.10541 0.00577 0.66459 0.0
O52 O 0.07017 0.97174 0.76949 0.0
H53 H 0.97425 0.92618 0.70077 0.0
H54 H 0.18265 0.93603 0.6953 0.0
H55 H 0.02544 0.03789 0.74565 0.0
O56 O 0.11975 0.97307 0.65853 0.0
O57 O 0.07659 0.00681 0.68771 0.0
H58 H 0.1038 0.8406 0.65838 0.0
O59 O 0.03007 0.93744 0.65369 0.0
O60 O 0.07183 0.89763 0.63659 0.0
O61 O 0.02297 0.90211 0.73837 0.0
O62 O 0.07154 0.87022 0.72682 0.0
C63 C 0.04363 0.91365 0.62772 0.0
H64 H 0.23297 0.89261 0.68515 0.0
H65 H 0.15188 0.79627 0.64608 0.0
H66 H 0.91377 0.94961 0.70684 0.0
H67 H 0.96402 0.06411 0.75293 0.0
C68 C 0.36777 0.78489 0.9544 0.0
N69 N 0.2698 0.84119 0.96102 0.0
C70 C 0.27311 0.84996 0.92111 0.0
C71 C 0.24335 0.8627 0.9024 0.0
C72 C 0.21015 0.86627 0.9251 0.0
C73 C 0.20633 0.85327 0.96494 0.0
C74 C 0.23688 0.84085 0.98254 0.0
Zn75 Zn 0.31577 0.84026 0.99257 0.0
C76 C 0.30657 0.77515 0.05274 0.0
N77 N 0.41091 0.84029 0.06214 0.0
C78 C 0.4455 0.83829 0.0453 0.0
C79 C 0.40557 0.84947 0.10251 0.0
C80 C 0.43554 0.85937 0.1271 0.0
C81 C 0.4718 0.85718 0.11105 0.0
C82 C 0.47634 0.84581 0.06941 0.0
Zn83 Zn 0.36571 0.83722 0.02725 0.0
O84 O 0.33801 0.80013 0.94927 0.0
C85 C 0.3775 0.89681 0.9635 0.0
O86 O 0.38516 0.793 0.9869 0.0
H87 H 0.37793 0.85034 0.11575 0.0
H88 H 0.29955 0.84991 0.90468 0.0
H89 H 0.44923 0.83127 0.01307 0.0
O90 O 0.34315 0.88776 0.95865 0.0
O91 O 0.39349 0.88031 0.99039 0.0
H92 H 0.23509 0.83398 0.01436 0.0
O93 O 0.34653 0.88264 0.06588 0.0
O94 O 0.29496 0.88364 0.03495 0.0
O95 O 0.3381 0.79216 0.0625 0.0
O96 O 0.28956 0.78977 0.02515 0.0
C97 C 0.31642 0.89724 0.06275 0.0
H98 H 0.24687 0.87179 0.87121 0.0
H99 H 0.18103 0.85554 0.98317 0.0
H100 H 0.42978 0.86886 0.15834 0.0
H101 H 0.50326 0.84226 0.05529 0.0
C102 C 0.3427 0.111 0.33264 0.0
N103 N 0.3774 0.19183 0.24232 0.0
C104 C 0.3461 0.18543 0.22076 0.0
C105 C 0.33433 0.21602 0.19932 0.0
C106 C 0.3539 0.2545 0.20119 0.0
C107 C 0.3853 0.26051 0.22524 0.0
C108 C 0.39693 0.22863 0.24488 0.0
Zn109 Zn 0.39702 0.14411 0.26793 0.0
C110 C 0.44326 0.1652 0.34151 0.0
N111 N 0.43634 0.04211 0.3171 0.0
C112 C 0.42161 0.00358 0.30922 0.0
C113 C 0.47224 0.05045 0.32778 0.0
C114 C 0.4952 0.02042 0.32824 0.0
C115 C 0.48173 0.9814 0.31648 0.0
C116 C 0.44422 0.97248 0.30818 0.0
Zn117 Zn 0.41314 0.0904 0.2966 0.0
O118 O 0.35011 0.13639 0.30544 0.0
C119 C 0.36678 0.0649 0.22755 0.0
O120 O 0.36566 0.08625 0.33906 0.0
H121 H 0.48473 0.08077 0.33194 0.0
H122 H 0.33033 0.15634 0.21939 0.0
H123 H 0.39327 0.99714 0.30035 0.0
O124 O 0.36889 0.10224 0.22199 0.0
O125 O 0.38341 0.05311 0.25666 0.0
H126 H 0.42186 0.23335 0.26186 0.0
O127 O 0.45925 0.09642 0.25232 0.0
O128 O 0.44356 0.15166 0.22959 0.0
O129 O 0.44181 0.12769 0.33796 0.0
O130 O 0.42607 0.18316 0.31624 0.0
C131 C 0.46544 0.12506 0.22825 0.0
H132 H 0.31039 0.20894 0.181 0.0
H133 H 0.40099 0.28952 0.22921 0.0
H134 H 0.52422 0.02824 0.33429 0.0
H135 H 0.43315 0.94247 0.29874 0.0
C136 C 0.64985 0.31419 0.5031 0.0
N137 N 0.58082 0.3273 0.60778 0.0
C138 C 0.59022 0.36726 0.60533 0.0
C139 C 0.56674 0.39395 0.62264 0.0
C140 C 0.53363 0.37941 0.64353 0.0
C141 C 0.52499 0.33792 0.6458 0.0
C142 C 0.54873 0.31238 0.62714 0.0
Zn143 Zn 0.61514 0.28806 0.58362 0.0
C144 C 0.57742 0.22904 0.52522 0.0
N145 N 0.68816 0.20605 0.53299 0.0
C146 C 0.72137 0.21588 0.51315 0.0
C147 C 0.67583 0.16732 0.54006 0.0
C148 C 0.69733 0.13692 0.52812 0.0
C149 C 0.73145 0.14572 0.50676 0.0
C150 C 0.74335 0.18605 0.49931 0.0
Zn151 Zn 0.65483 0.24804 0.55554 0.0
O152 O 0.62798 0.32277 0.53264 0.0
C153 C 0.69353 0.30988 0.6104 0.0
O154 O 0.66749 0.28389 0.50425 0.0
H155 H 0.64918 0.15972 0.55528 0.0
H156 H 0.61589 0.37847 0.58981 0.0
H157 H 0.73076 0.24683 0.50782 0.0
O158 O 0.66058 0.31909 0.6154 0.0
O159 O 0.69987 0.28043 0.58652 0.0
H160 H 0.54154 0.28049 0.6284 0.0
O161 O 0.64059 0.21258 0.60746 0.0
O162 O 0.60184 0.25221 0.63475 0.0
O163 O 0.60956 0.21748 0.52357 0.0
O164 O 0.57056 0.25773 0.54981 0.0
C165 C 0.61771 0.22091 0.63606 0.0
H166 H 0.57433 0.42557 0.61911 0.0
H167 H 0.50024 0.32509 0.66202 0.0
H168 H 0.687 0.10677 0.53583 0.0
H169 H 0.76902 0.19463 0.4824 0.0
C170 C 0.87674 0.39746 0.71933 0.0
N171 N 0.88829 0.31785 0.80799 0.0
C172 C 0.85153 0.31518 0.81852 0.0
C173 C 0.83171 0.27815 0.82566 0.0
C174 C 0.84978 0.2436 0.82106 0.0
C175 C 0.88774 0.24707 0.81081 0.0
C176 C 0.90671 0.28484 0.80486 0.0
Zn177 Zn 0.91498 0.37134 0.79108 0.0
C178 C 0.97379 0.3611 0.72505 0.0
N179 N 0.96823 0.48109 0.75234 0.0
C180 C 0.97404 0.50772 0.78445 0.0
C181 C 0.98988 0.4843 0.71753 0.0
C182 C 0.02212 0.51113 0.71668 0.0
C183 C 0.03152 0.53438 0.75195 0.0
C184 C 0.00583 0.53479 0.7849 0.0
Zn185 Zn 0.94036 0.42736 0.76699 0.0
O186 O 0.87407 0.37477 0.74914 0.0
C187 C 0.8823 0.44134 0.82969 0.0
O188 O 0.90495 0.42343 0.71533 0.0
H189 H 0.98486 0.46279 0.69241 0.0
H190 H 0.8373 0.34164 0.82021 0.0
H191 H 0.95702 0.50448 0.81214 0.0
O192 O 0.88392 0.4048 0.83686 0.0
O193 O 0.90138 0.45664 0.8002 0.0
H194 H 0.93598 0.28763 0.79668 0.0
O195 O 0.97487 0.42939 0.82029 0.0
O196 O 0.95539 0.36775 0.83431 0.0
O197 O 0.97938 0.39833 0.73249 0.0
O198 O 0.94701 0.34086 0.74366 0.0
C199 C 0.9763 0.39963 0.84232 0.0
H200 H 0.8023 0.27633 0.83331 0.0
H201 H 0.90244 0.2209 0.80727 0.0
H202 H 0.04157 0.51007 0.69079 0.0
H203 H 0.01238 0.55239 0.81256 0.0
C204 C 0.89757 0.64218 0.95643 0.0
N205 N 0.97762 0.68551 0.04144 0.0
C206 C 0.97204 0.64796 0.05541 0.0
C207 C 0.99739 0.63456 0.08062 0.0
C208 C 0.02872 0.66016 0.09253 0.0
C209 C 0.03456 0.69827 0.07634 0.0
C210 C 0.00863 0.71033 0.05068 0.0
Zn211 Zn 0.93492 0.70635 0.01239 0.0
C212 C 0.95765 0.74624 0.93391 0.0
N213 N 0.84297 0.74943 0.95729 0.0
C214 C 0.80825 0.72998 0.95369 0.0
C215 C 0.85026 0.78877 0.94896 0.0
C216 C 0.82203 0.81052 0.9385 0.0
C217 C 0.78589 0.79161 0.93558 0.0
C218 C 0.77918 0.75057 0.94228 0.0
Zn219 Zn 0.8857 0.72476 0.98267 0.0
O220 O 0.92429 0.65224 0.97964 0.0
C221 C 0.86089 0.68542 0.05894 0.0
O222 O 0.87573 0.66782 0.94912 0.0
H223 H 0.87792 0.80387 0.95181 0.0
H224 H 0.94719 0.62869 0.04813 0.0
H225 H 0.80282 0.69887 0.96085 0.0
O226 O 0.8956 0.68319 0.06054 0.0
O227 O 0.84919 0.70203 0.0291 0.0
H228 H 0.01262 0.74015 0.03947 0.0
O229 O 0.89632 0.77928 0.01925 0.0
O230 O 0.94462 0.75961 0.0459 0.0
O231 O 0.9228 0.74735 0.9354 0.0
O232 O 0.97217 0.73039 0.96284 0.0
C233 C 0.92264 0.7857 0.04364 0.0
H234 H 0.99206 0.60449 0.09116 0.0
H235 H 0.05812 0.71918 0.08457 0.0
H236 H 0.82834 0.84199 0.93296 0.0
H237 H 0.75157 0.735 0.94009 0.0
C238 C 0.60762 0.63521 0.36201 0.0
N239 N 0.66936 0.54721 0.31006 0.0
C240 C 0.68608 0.54548 0.34595 0.0
C241 C 0.69361 0.50914 0.35971 0.0
C242 C 0.68278 0.47397 0.33711 0.0
C243 C 0.66577 0.47617 0.30006 0.0
C244 C 0.65975 0.51355 0.28666 0.0
Zn245 Zn 0.65674 0.60215 0.29542 0.0
C246 C 0.58437 0.5992 0.25276 0.0
N247 N 0.62935 0.71721 0.2712 0.0
C248 C 0.62627 0.74601 0.30124 0.0
C249 C 0.62403 0.72415 0.23174 0.0
C250 C 0.61361 0.76048 0.22137 0.0
C251 C 0.60786 0.78986 0.25195 0.0
C252 C 0.61516 0.78278 0.29225 0.0
Zn253 Zn 0.64061 0.66166 0.2837 0.0
O254 O 0.62688 0.60675 0.35256 0.0
C255 C 0.70907 0.66679 0.32912 0.0
O256 O 0.60695 0.6628 0.33731 0.0
H257 H 0.62628 0.70082 0.20838 0.0
H258 H 0.69237 0.57211 0.36499 0.0
H259 H 0.63102 0.73994 0.33239 0.0
O260 O 0.70623 0.62932 0.32253 0.0
O261 O 0.68515 0.68691 0.31622 0.0
H262 H 0.64628 0.51554 0.25838 0.0
O263 O 0.67521 0.66006 0.23021 0.0
O264 O 0.68826 0.59913 0.23821 0.0
O265 O 0.59463 0.63634 0.25198 0.0
O266 O 0.60485 0.5765 0.2688 0.0
C267 C 0.69214 0.63061 0.21789 0.0
H268 H 0.70571 0.50829 0.38907 0.0
H269 H 0.65636 0.44932 0.28242 0.0
H270 H 0.60731 0.76422 0.19005 0.0
H271 H 0.61064 0.80464 0.31664 0.0
C272 C 0.18321 0.56059 0.18594 0.0
N273 N 0.14738 0.46581 0.10476 0.0
C274 C 0.129 0.49588 0.09256 0.0
C275 C 0.10547 0.48993 0.05991 0.0
C276 C 0.10097 0.45288 0.03829 0.0
C277 C 0.11832 0.42154 0.05303 0.0
C278 C 0.1414 0.42864 0.08639 0.0
Zn279 Zn 0.19328 0.4833 0.14101 0.0
C280 C 0.24416 0.5462 0.09682 0.0
N281 N 0.29391 0.5269 0.20171 0.0
C282 C 0.29993 0.54031 0.24085 0.0
C283 C 0.32317 0.52128 0.17538 0.0
C284 C 0.35946 0.52923 0.18734 0.0
C285 C 0.36684 0.54332 0.22711 0.0
C286 C 0.33642 0.54868 0.2543 0.0
Zn287 Zn 0.24312 0.50893 0.17488 0.0
O288 O 0.16696 0.52922 0.16909 0.0
C289 C 0.19198 0.45249 0.22526 0.0
O290 O 0.2176 0.56235 0.19316 0.0
H291 H 0.31867 0.50969 0.14467 0.0
H292 H 0.1343 0.52561 0.10613 0.0
H293 H 0.27661 0.54412 0.26173 0.0
O294 O 0.17449 0.44577 0.1922 0.0
O295 O 0.22015 0.47874 0.22621 0.0
H296 H 0.15629 0.40495 0.09574 0.0
O297 O 0.26576 0.45657 0.15511 0.0
O298 O 0.22123 0.43534 0.11436 0.0
O299 O 0.26453 0.53878 0.12476 0.0
O300 O 0.21293 0.52531 0.09357 0.0
C301 C 0.25173 0.43052 0.12967 0.0
H302 H 0.09208 0.51489 0.05074 0.0
H303 H 0.11593 0.39239 0.03758 0.0
H304 H 0.38163 0.52345 0.16551 0.0
H305 H 0.34078 0.55942 0.28541 0.0
C306 C 0.55865 0.97949 0.85391 0.0
N307 N 0.60312 0.05338 0.94845 0.0
C308 C 0.58418 0.024 0.97047 0.0
C309 C 0.57313 0.03146 0.01087 0.0
C310 C 0.58196 0.06947 0.02938 0.0
C311 C 0.60144 0.09945 1.00593 0.0
C312 C 0.61179 0.09071 0.96525 0.0
Zn313 Zn 0.62076 0.0365 0.89099 0.0
C314 C 0.65627 0.9586 0.89385 0.0
N315 N 0.65154 0.99109 0.77414 0.0
C316 C 0.66068 0.95338 0.7673 0.0
C317 C 0.66926 0.02193 0.75311 0.0
C318 C 0.70308 0.0177 0.73305 0.0
C319 C 0.71785 0.98126 0.73456 0.0
C320 C 0.69418 0.94761 0.7468 0.0
Zn321 Zn 0.63285 0.00738 0.83108 0.0
O322 O 0.56885 0.00478 0.88205 0.0
C323 C 0.60006 0.08432 0.82496 0.0
O324 O 0.58179 0.97055 0.82574 0.0
H325 H 0.6615 0.05173 0.75831 0.0
H326 H 0.57788 0.99438 0.95682 0.0
H327 H 0.6456 0.92902 0.78341 0.0
O328 O 0.60205 0.08832 0.86359 0.0
O329 O 0.60932 0.05282 0.80699 0.0
H330 H 0.62722 0.11352 0.94732 0.0
O331 O 0.68482 0.04618 0.83744 0.0
O332 O 0.67127 0.06848 0.89922 0.0
O333 O 0.65652 0.96083 0.85559 0.0
O334 O 0.64193 0.98513 0.91627 0.0
C335 C 0.69386 0.068 0.86886 0.0
H336 H 0.55741 0.00763 0.02726 0.0
H337 H 0.60902 0.12915 0.01898 0.0
H338 H 0.71976 0.04441 0.72315 0.0
H339 H 0.70388 0.91846 0.74655 0.0
C340 C 0.85002 0.01511 0.28962 0.0
N341 N 0.91622 0.94416 0.34711 0.0
C342 C 0.92653 0.97946 0.36743 0.0
C343 C 0.9498 0.98083 0.39997 0.0
C344 C 0.96163 0.94534 0.4125 0.0
C345 C 0.955 0.91064 0.38737 0.0
C346 C 0.93234 0.91085 0.35425 0.0
Zn347 Zn 0.86507 0.93832 0.32209 0.0
C348 C 0.80844 0.96364 0.38464 0.0
N349 N 0.75511 0.92966 0.27935 0.0
C350 C 0.74304 0.95509 0.25344 0.0
C351 C 0.73102 0.90055 0.29641 0.0
C352 C 0.69353 0.89666 0.28849 0.0
C353 C 0.67972 0.92424 0.26441 0.0
C354 C 0.70528 0.95315 0.24581 0.0
Zn355 Zn 0.80879 0.93663 0.2991 0.0
O356 O 0.87476 0.99473 0.30024 0.0
C357 C 0.8633 0.91469 0.23467 0.0
O358 O 0.81644 0.99963 0.28858 0.0
H359 H 0.74022 0.88106 0.31786 0.0
H360 H 0.91345 0.00569 0.36173 0.0
H361 H 0.76234 0.97811 0.24012 0.0
O362 O 0.88481 0.91516 0.26433 0.0
O363 O 0.83065 0.92419 0.24116 0.0
H364 H 0.92432 0.88315 0.33743 0.0
O365 O 0.80435 0.87485 0.30998 0.0
O366 O 0.85528 0.88047 0.34361 0.0
O367 O 0.78712 0.94951 0.35694 0.0
O368 O 0.8432 0.96364 0.37857 0.0
C369 C 0.82705 0.85936 0.33062 0.0
H370 H 0.95536 0.00863 0.4176 0.0
H371 H 0.96386 0.88265 0.3955 0.0
H372 H 0.67536 0.87315 0.3027 0.0
H373 H 0.69617 0.97546 0.2273 0.0
C374 C 0.42169 0.55975 0.71071 0.0
N375 N 0.42591 0.64821 0.6245 0.0
C376 C 0.46309 0.65162 0.62937 0.0
C377 C 0.48776 0.65914 0.59608 0.0
C378 C 0.47396 0.66374 0.5577 0.0
C379 C 0.43559 0.6623 0.55408 0.0
C380 C 0.41194 0.65413 0.58795 0.0
Zn381 Zn 0.38982 0.62667 0.66977 0.0
C382 C 0.34187 0.55327 0.63914 0.0
N383 N 0.31607 0.57525 0.76162 0.0
C384 C 0.29985 0.53686 0.7594 0.0
C385 C 0.30001 0.60408 0.78409 0.0
C386 C 0.26405 0.59623 0.80022 0.0
C387 C 0.24493 0.55831 0.79358 0.0
C388 C 0.26381 0.52762 0.77546 0.0
Zn389 Zn 0.35434 0.59561 0.71796 0.0
O390 O 0.42796 0.58725 0.6854 0.0
C391 C 0.40212 0.66636 0.75052 0.0
O392 O 0.39085 0.55502 0.73061 0.0
H393 H 0.313 0.63452 0.78512 0.0
H394 H 0.47362 0.64679 0.65868 0.0
H395 H 0.313 0.51446 0.74128 0.0
O396 O 0.41222 0.6714 0.71337 0.0
O397 O 0.37938 0.63659 0.75983 0.0
H398 H 0.38234 0.65061 0.58451 0.0
O399 O 0.31709 0.6367 0.70401 0.0
O400 O 0.35153 0.66594 0.65542 0.0
O401 O 0.33053 0.5538 0.67607 0.0
O402 O 0.36614 0.58082 0.62689 0.0
C403 C 0.32185 0.66294 0.67739 0.0
H404 H 0.51725 0.66029 0.60002 0.0
H405 H 0.4239 0.66522 0.52487 0.0
H406 H 0.25004 0.62052 0.81392 0.0
H407 H 0.24953 0.49807 0.76966 0.0
H408 H 0.27033 0.42513 0.51193 0.0
H409 H 0.26841 0.35165 0.61572 0.0
H410 H 0.30221 0.40671 0.65433 0.0
H411 H 0.32585 0.47754 0.66095 0.0
H412 H 0.32893 0.55158 0.55755 0.0
H413 H 0.30091 0.49444 0.51617 0.0
C414 C 0.27785 0.42108 0.54282 0.0
C415 C 0.2666 0.38453 0.56116 0.0
C416 C 0.29685 0.45306 0.56495 0.0
C417 C 0.27692 0.37937 0.60092 0.0
C418 C 0.29588 0.41098 0.62312 0.0
C419 C 0.32053 0.4811 0.62925 0.0
C420 C 0.32859 0.51878 0.61239 0.0
C421 C 0.30489 0.44823 0.60584 0.0
C422 C 0.32258 0.52288 0.57113 0.0
C423 C 0.30655 0.49028 0.5476 0.0
H424 H 0.77283 0.02443 0.68986 0.0
H425 H 0.75433 0.94203 0.78732 0.0
H426 H 0.81956 0.95098 0.80042 0.0
H427 H 0.88214 0.97985 0.78326 0.0
H428 H 0.90297 0.05958 0.68469 0.0
H429 H 0.83613 0.05685 0.67527 0.0
C430 C 0.78308 0.00834 0.71386 0.0
C431 C 0.75851 0.98192 0.73682 0.0
C432 C 0.82079 0.0145 0.72228 0.0
C433 C 0.77245 0.96137 0.76789 0.0
C434 C 0.80976 0.96716 0.77622 0.0
C435 C 0.87177 0.99774 0.76074 0.0
C436 C 0.89686 0.02021 0.73501 0.0
C437 C 0.83404 0.99365 0.75374 0.0
C438 C 0.88375 0.04278 0.70532 0.0
C439 C 0.84573 0.04039 0.69935 0.0
H440 H 0.25232 0.71811 0.02363 0.0
H441 H 0.33372 0.74106 0.11584 0.0
H442 H 0.3243 0.67154 0.13303 0.0
H443 H 0.29594 0.60465 0.12078 0.0
H444 H 0.20925 0.57913 0.03513 0.0
H445 H 0.21875 0.64918 0.01545 0.0
C446 C 0.26739 0.70802 0.04806 0.0
C447 C 0.29396 0.735 0.0682 0.0
C448 C 0.26179 0.66743 0.05807 0.0
C449 C 0.31328 0.72123 0.09966 0.0
C450 C 0.30816 0.68129 0.10933 0.0
C451 C 0.27918 0.61382 0.09731 0.0
C452 C 0.25243 0.58606 0.07878 0.0
C453 C 0.2832 0.6541 0.08816 0.0
C454 C 0.23064 0.59945 0.04925 0.0
C455 C 0.23574 0.63966 0.03846 0.0
H456 H 0.51903 0.97032 0.24547 0.0
H457 H 0.50744 0.93256 0.36887 0.0
H458 H 0.56721 0.9057 0.36113 0.0
H459 H 0.62686 0.90617 0.32441 0.0
H460 H 0.64013 0.94602 0.20125 0.0
H461 H 0.57563 0.95976 0.20404 0.0
C462 C 0.52905 0.95465 0.26997 0.0
C463 C 0.50902 0.95289 0.30755 0.0
C464 C 0.5642 0.94125 0.26588 0.0
C465 C 0.5223 0.93352 0.33957 0.0
C466 C 0.55668 0.91881 0.33528 0.0
C467 C 0.61565 0.91656 0.29749 0.0
C468 C 0.63893 0.92574 0.2629 0.0
C469 C 0.57862 0.92445 0.29931 0.0
C470 C 0.62343 0.93986 0.22879 0.0
C471 C 0.5864 0.94747 0.23024 0.0
H472 H 0.70514 0.06941 0.4829 0.0
H473 H 0.80744 0.14708 0.4948 0.0
H474 H 0.84176 0.09469 0.46355 0.0
H475 H 0.84153 0.02933 0.42573 0.0
H476 H 0.73888 0.952 0.41785 0.0
H477 H 0.70628 1.00125 0.45692 0.0
C478 C 0.73503 0.07494 0.48006 0.0
C479 C 0.7533 0.11279 0.49101 0.0
C480 C 0.75472 0.04449 0.46293 0.0
C481 C 0.79218 0.11889 0.48569 0.0
C482 C 0.81199 0.08873 0.46813 0.0
C483 C 0.81233 0.02269 0.43393 0.0
C484 C 0.79257 0.98716 0.41871 0.0
C485 C 0.79342 0.05169 0.45569 0.0
C486 C 0.75464 0.97918 0.42911 0.0
C487 C 0.73589 0.00751 0.45108 0.0
H488 H 0.07315 0.51012 0.80847 0.0
H489 H 0.07722 0.58878 0.70872 0.0
H490 H 0.14408 0.60613 0.71621 0.0
H491 H 0.20151 0.59461 0.74788 0.0
H492 H 0.19818 0.51055 0.84268 0.0
H493 H 0.13032 0.49948 0.84089 0.0
C494 C 0.08866 0.53169 0.78896 0.0
C495 C 0.07059 0.54882 0.75853 0.0
C496 C 0.12693 0.54011 0.7925 0.0
C497 C 0.09079 0.57575 0.73255 0.0
C498 C 0.12884 0.58544 0.73677 0.0
C499 C 0.1857 0.57437 0.76854 0.0
C500 C 0.20425 0.5537 0.79577 0.0
C501 C 0.14721 0.56725 0.76617 0.0
C502 C 0.18407 0.52684 0.82182 0.0
C503 C 0.1455 0.52054 0.82066 0.0
H504 H 0.66973 0.8872 0.85819 0.0
H505 H 0.68719 0.96038 0.96817 0.0
H506 H 0.72766 0.91392 0.99185 0.0
H507 H 0.76239 0.85542 0.97835 0.0
H508 H 0.74267 0.78088 0.86986 0.0
H509 H 0.69864 0.82476 0.84849 0.0
C510 C 0.68197 0.89269 0.88763 0.0
C511 C 0.67567 0.92741 0.91126 0.0
C512 C 0.70502 0.86573 0.9011 0.0
C513 C 0.69146 0.93388 0.94947 0.0
C514 C 0.71482 0.90744 0.96288 0.0
C515 C 0.748 0.84862 0.95032 0.0
C516 C 0.75582 0.8152 0.92549 0.0
C517 C 0.72245 0.87375 0.93854 0.0
C518 C 0.73694 0.80639 0.88941 0.0
C519 C 0.71194 0.83156 0.87716 0.0
H520 H 0.52863 0.55713 0.29598 0.0
H521 H 0.55513 0.61257 0.18152 0.0
H522 H 0.49009 0.60106 0.16409 0.0
H523 H 0.42546 0.57896 0.18286 0.0
H524 H 0.39727 0.52539 0.29812 0.0
H525 H 0.46285 0.53371 0.31448 0.0
C526 C 0.52016 0.5656 0.26678 0.0
C527 C 0.54674 0.58468 0.23949 0.0
C528 C 0.48229 0.56033 0.25769 0.0
C529 C 0.53529 0.59704 0.2025 0.0
C530 C 0.49805 0.59089 0.19277 0.0
C531 C 0.43357 0.56875 0.21149 0.0
C532 C 0.40628 0.55134 0.23911 0.0
C533 C 0.47126 0.57321 0.22041 0.0
C534 C 0.41747 0.53924 0.27644 0.0
C535 C 0.45508 0.54359 0.2856 0.0
H536 H 0.48564 0.13036 0.39081 0.0
H537 H 0.45043 0.24507 0.36956 0.0
H538 H 0.48647 0.2746 0.42734 0.0
H539 H 0.52969 0.26728 0.48303 0.0
H540 H 0.56546 0.15182 0.49919 0.0
H541 H 0.52676 0.12287 0.4444 0.0
C542 C 0.48552 0.16193 0.39847 0.0
C543 C 0.46514 0.1854 0.37551 0.0
C544 C 0.5062 0.1784 0.43121 0.0
C545 C 0.46584 0.22624 0.38641 0.0
C546 C 0.48637 0.24304 0.41958 0.0
C547 C 0.52832 0.23565 0.47496 0.0
C548 C 0.54999 0.21148 0.49559 0.0
C549 C 0.50673 0.21934 0.44223 0.0
C550 C 0.54884 0.17084 0.48411 0.0
C551 C 0.52687 0.15436 0.45263 0.0
H552 H 0.09205 0.32678 0.58693 0.0
H553 H 0.99542 0.26717 0.52953 0.0
H554 H 0.95708 0.28187 0.59039 0.0
H555 H 0.951 0.31269 0.66019 0.0
H556 H 0.04801 0.37354 0.71544 0.0
H557 H 0.08636 0.35634 0.65571 0.0
C558 C 0.06254 0.31723 0.58744 0.0
C559 C 0.04667 0.29615 0.55343 0.0
C560 C 0.04083 0.32526 0.62265 0.0
C561 C 0.00838 0.28377 0.55504 0.0
C562 C 0.98647 0.29187 0.59001 0.0
C563 C 0.98069 0.32118 0.6594 0.0
C564 C 0.9969 0.34358 0.69243 0.0
C565 C 0.00243 0.31238 0.62416 0.0
C566 C 0.03514 0.35569 0.6906 0.0
C567 C 0.05697 0.34623 0.65631 0.0
H568 H 0.07022 0.83388 0.80344 0.0
H569 H 0.96712 0.84288 0.74707 0.0
H570 H 0.93346 0.80318 0.79969 0.0
H571 H 0.93216 0.77086 0.86436 0.0
H572 H 0.03386 0.76263 0.92387 0.0
H573 H 0.06908 0.79674 0.86764 0.0
C574 C 0.04054 0.82609 0.80213 0.0
C575 C 0.02126 0.84089 0.77088 0.0
C576 C 0.02098 0.80398 0.83352 0.0
C577 C 0.98265 0.83157 0.7704 0.0
C578 C 0.96332 0.80908 0.8007 0.0
C579 C 0.96209 0.7762 0.86513 0.0
C580 C 0.98017 0.76428 0.89872 0.0
C581 C 0.98203 0.79597 0.8329 0.0
C582 C 0.01906 0.7714 0.89862 0.0
C583 C 0.03923 0.79102 0.86639 0.0
H584 H 0.62094 0.84004 0.18937 0.0
H585 H 0.54605 0.81185 0.29199 0.0
H586 H 0.4967 0.83894 0.25889 0.0
H587 H 0.47178 0.84957 0.19406 0.0
H588 H 0.5458 0.88028 0.09063 0.0
H589 H 0.59846 0.87171 0.13075 0.0
C590 C 0.59416 0.84132 0.20503 0.0
C591 C 0.58658 0.82257 0.24216 0.0
C592 C 0.56537 0.85515 0.18494 0.0
C593 C 0.55237 0.82551 0.26301 0.0
C594 C 0.5239 0.84035 0.24375 0.0
C595 C 0.49914 0.85613 0.18005 0.0
C596 C 0.50409 0.86322 0.13813 0.0
C597 C 0.52944 0.85203 0.20344 0.0
C598 C 0.54052 0.87201 0.12187 0.0
C599 C 0.57089 0.86773 0.145 0.0
H600 H 0.17672 0.3676 0.39378 0.0
H601 H 0.07863 0.30722 0.34004 0.0
H602 H 0.09086 0.34681 0.27972 0.0
H603 H 0.13135 0.39681 0.24021 0.0
H604 H 0.22911 0.4568 0.29536 0.0
H605 H 0.21504 0.41937 0.35629 0.0
C606 C 0.15773 0.36336 0.36913 0.0
C607 C 0.12682 0.33429 0.37172 0.0
C608 C 0.16505 0.38607 0.33421 0.0
C609 C 0.10266 0.32935 0.33917 0.0
C610 C 0.10972 0.35191 0.30442 0.0
C611 C 0.14947 0.40179 0.2656 0.0
C612 C 0.18137 0.42967 0.26269 0.0
C613 C 0.14116 0.38004 0.30124 0.0
C614 C 0.20436 0.43566 0.29626 0.0
C615 C 0.19638 0.41419 0.3314 0.0
H616 H 0.98834 0.95028 0.60018 0.0
H617 H 0.06884 0.87048 0.56103 0.0
H618 H 0.05121 0.87354 0.49038 0.0
H619 H 0.01475 0.90196 0.4394 0.0
H620 H 0.93514 0.98222 0.48109 0.0
H621 H 0.95166 0.97681 0.55081 0.0
C622 C 0.00188 0.93312 0.57637 0.0
C623 C 0.02985 0.91015 0.58595 0.0
C624 C 0.99241 0.9359 0.53601 0.0
C625 C 0.04705 0.88825 0.55454 0.0
C626 C 0.0372 0.89027 0.5141 0.0
C627 C 0.00107 0.91825 0.46375 0.0
C628 C 0.97429 0.94315 0.4546 0.0
C629 C 0.01029 0.91457 0.50437 0.0
C630 C 0.95676 0.96391 0.48673 0.0
C631 C 0.96575 0.96041 0.52687 0.0
H632 H 0.41665 0.65465 0.82797 0.0
H633 H 0.40349 0.74661 0.7453 0.0
H634 H 0.39374 0.79342 0.80294 0.0
H635 H 0.37822 0.80381 0.87616 0.0
H636 H 0.39276 0.71246 0.95897 0.0
H637 H 0.41244 0.66922 0.90186 0.0
C638 C 0.413 0.68541 0.82271 0.0
C639 C 0.41053 0.6973 0.78269 0.0
C640 C 0.40654 0.71164 0.85588 0.0
C641 C 0.40586 0.73705 0.77592 0.0
C642 C 0.39963 0.76355 0.80885 0.0
C643 C 0.38616 0.77457 0.88155 0.0
C644 C 0.38329 0.76059 0.92119 0.0
C645 C 0.39808 0.75046 0.8488 0.0
C646 C 0.3944 0.7233 0.92842 0.0
C647 C 0.40567 0.69875 0.89588 0.0
H648 H 0.50962 0.06667 0.20684 0.0
H649 H 0.48584 0.18326 0.17464 0.0
H650 H 0.52332 0.17803 0.11183 0.0
H651 H 0.55526 0.13673 0.06182 0.0
H652 H 0.58 0.02045 0.09366 0.0
H653 H 0.54962 0.02922 0.16063 0.0
C654 C 0.51328 0.09128 0.18651 0.0
C655 C 0.49439 0.12496 0.19515 0.0
C656 C 0.53448 0.08789 0.14995 0.0
C657 C 0.49967 0.15671 0.16856 0.0
C658 C 0.52102 0.15374 0.13248 0.0
C659 C 0.55492 0.11369 0.08369 0.0
C660 C 0.5692 0.07765 0.07226 0.0
C661 C 0.53742 0.11889 0.12218 0.0
C662 C 0.56827 0.04808 0.10115 0.0
C663 C 0.55107 0.05312 0.13959 0.0
H664 H 0.61182 0.23602 0.71866 0.0
H665 H 0.60076 0.14189 0.62513 0.0
H666 H 0.58606 0.0924 0.67664 0.0
H667 H 0.58222 0.07515 0.74694 0.0
H668 H 0.60285 0.16598 0.84242 0.0
H669 H 0.60631 0.21779 0.79182 0.0
C670 C 0.60585 0.20466 0.70984 0.0
C671 C 0.60747 0.19237 0.66827 0.0
C672 C 0.59887 0.17599 0.73993 0.0
C673 C 0.59999 0.15181 0.65695 0.0
C674 C 0.59142 0.12359 0.68635 0.0
C675 C 0.58704 0.10632 0.75706 0.0
C676 C 0.59261 0.11661 0.79847 0.0
C677 C 0.59158 0.13526 0.72778 0.0
C678 C 0.59825 0.15719 0.81083 0.0
C679 C 0.60077 0.18674 0.78177 0.0
H680 H 0.05691 0.38723 0.00739 0.0
H681 H 0.09955 0.50808 0.98002 0.0
H682 H 0.06587 0.50238 0.91755 0.0
H683 H 0.02318 0.4637 0.87049 0.0
H684 H 0.98208 0.34217 0.8966 0.0
H685 H 0.01661 0.34747 0.95868 0.0
C686 C 0.05916 0.41227 0.9877 0.0
C687 C 0.08049 0.44828 0.99933 0.0
C688 C 0.03995 0.40871 0.95112 0.0
C689 C 0.08265 0.4803 0.97299 0.0
C690 C 0.0636 0.47699 0.93681 0.0
C691 C 0.02195 0.43825 0.88958 0.0
C692 C 0.99985 0.4026 0.8786 0.0
C693 C 0.04193 0.44145 0.9256 0.0
C694 C 0.99875 0.37003 0.90398 0.0
C695 C 0.01848 0.37304 0.93972 0.0
H696 H 0.92723 0.88409 0.20899 0.0
H697 H 0.82408 0.91473 0.16647 0.0
H698 H 0.83678 0.88327 0.10018 0.0
H699 H 0.87237 0.83877 0.05775 0.0
H700 H 0.97476 0.80626 0.10021 0.0
H701 H 0.96763 0.84761 0.16223 0.0
C702 C 0.90787 0.88445 0.18501 0.0
C703 C 0.87443 0.90093 0.19306 0.0
C704 C 0.9151 0.86586 0.1468 0.0
C705 C 0.8498 0.9016 0.16144 0.0
C706 C 0.857 0.88365 0.12337 0.0
C707 C 0.89363 0.84153 0.08005 0.0
C708 C 0.9236 0.81884 0.07471 0.0
C709 C 0.88889 0.86446 0.11618 0.0
C710 C 0.95109 0.82305 0.10378 0.0
C711 C 0.94695 0.8465 0.13946 0.0
H712 H 0.52685 0.61605 0.53507 0.0
H713 H 0.47597 0.71663 0.49733 0.0
H714 H 0.51359 0.71726 0.43365 0.0
H715 H 0.55922 0.68765 0.38789 0.0
H716 H 0.60844 0.5854 0.42479 0.0
H717 H 0.5732 0.58703 0.4897 0.0
C718 C 0.52448 0.63849 0.51314 0.0
C719 C 0.49894 0.66644 0.52088 0.0
C720 C 0.54562 0.63813 0.47637 0.0
C721 C 0.49549 0.69483 0.49192 0.0
C722 C 0.51693 0.69516 0.45556 0.0
C723 C 0.56234 0.66577 0.41015 0.0
C724 C 0.58639 0.6364 0.40142 0.0
C725 C 0.54176 0.66665 0.44728 0.0
C726 C 0.59002 0.60824 0.43062 0.0
C727 C 0.56994 0.60919 0.46781 0.0
H728 H 0.22513 0.17991 0.44935 0.0
H729 H 0.1685 0.17789 0.337 0.0
H730 H 0.21527 0.13964 0.30278 0.0
H731 H 0.27607 0.11466 0.3033 0.0
H732 H 0.33287 0.1168 0.41535 0.0
H733 H 0.28134 0.14586 0.45197 0.0
C734 C 0.22299 0.17091 0.41738 0.0
C735 C 0.19408 0.18254 0.39528 0.0
C736 C 0.2496 0.14854 0.39825 0.0
C737 C 0.19084 0.16974 0.35433 0.0
C738 C 0.21748 0.14783 0.33489 0.0
C739 C 0.27644 0.12017 0.33605 0.0
C740 C 0.30797 0.1136 0.35681 0.0
C741 C 0.24741 0.13797 0.35634 0.0
C742 C 0.30856 0.12103 0.39903 0.0
C743 C 0.27943 0.13831 0.41971 0.0
H744 H 0.13618 0.17788 0.59567 0.0
H745 H 0.10248 0.11047 0.48635 0.0
H746 H 0.10124 0.04829 0.52101 0.0
H747 H 0.10484 0.01273 0.58366 0.0
H748 H 0.13158 0.07927 0.69517 0.0
H749 H 0.14112 0.1416 0.65875 0.0
C750 C 0.12887 0.14953 0.5795 0.0
C751 C 0.11918 0.14893 0.53857 0.0
C752 C 0.12721 0.11353 0.60004 0.0
C753 C 0.10958 0.11191 0.51802 0.0
C754 C 0.10903 0.0762 0.53774 0.0
C755 C 0.11383 0.04081 0.59961 0.0
C756 C 0.11853 0.0415 0.64167 0.0
C757 C 0.11726 0.0766 0.57887 0.0
C758 C 0.12866 0.07812 0.66253 0.0
C759 C 0.13372 0.11375 0.64178 0.0
H760 H 0.07835 0.92035 0.83564 0.0
H761 H 0.16537 0.00954 0.79677 0.0
H762 H 0.20564 0.98974 0.84775 0.0
H763 H 0.22007 0.93743 0.89105 0.0
H764 H 0.13582 0.84228 0.92303 0.0
H765 H 0.09011 0.87373 0.88713 0.0
C766 C 0.10546 0.9367 0.84001 0.0
C767 C 0.11908 0.96653 0.81326 0.0
C768 C 0.12925 0.92288 0.86688 0.0
C769 C 0.15445 0.98697 0.8178 0.0
C770 C 0.17759 0.9751 0.84632 0.0
C771 C 0.19158 0.92384 0.89038 0.0
C772 C 0.18133 0.88716 0.90836 0.0
C773 C 0.16603 0.94145 0.86895 0.0
C774 C 0.14425 0.87027 0.90869 0.0
C775 C 0.11823 0.88822 0.88825 0.0
H776 H 0.34911 0.06576 0.1466 0.0
H777 H 0.33563 0.99374 0.25227 0.0
H778 H 0.31211 0.93591 0.21096 0.0
H779 H 0.30576 0.90284 0.14373 0.0
H780 H 0.31788 0.97246 0.03703 0.0
H781 H 0.33066 0.03392 0.07941 0.0
C782 C 0.34009 0.03767 0.16057 0.0
C783 C 0.34517 0.03389 0.20225 0.0
C784 C 0.32649 0.00386 0.13637 0.0
C785 C 0.33302 0.9973 0.22003 0.0
C786 C 0.31942 0.96406 0.19649 0.0
C787 C 0.30962 0.9317 0.13004 0.0
C788 C 0.31051 0.93342 0.08766 0.0
C789 C 0.31753 0.96655 0.15446 0.0
C790 C 0.31632 0.97073 0.06985 0.0
C791 C 0.32418 0.00577 0.09405 0.0
H792 H 0.80403 0.39721 0.7364 0.0
H793 H 0.88316 0.38038 0.63745 0.0
H794 H 0.83289 0.35182 0.59388 0.0
H795 H 0.76672 0.32529 0.5868 0.0
H796 H 0.68802 0.3456 0.68565 0.0
H797 H 0.73768 0.37906 0.72648 0.0
C798 C 0.81006 0.38838 0.70486 0.0
C799 C 0.84705 0.3912 0.68989 0.0
C800 C 0.78114 0.37186 0.68034 0.0
C801 C 0.85477 0.37924 0.64926 0.0
C802 C 0.82608 0.36238 0.62462 0.0
C803 C 0.76052 0.33731 0.61719 0.0
C804 C 0.7238 0.33245 0.63345 0.0
C805 C 0.78924 0.35744 0.64026 0.0
C806 C 0.71602 0.34879 0.67254 0.0
C807 C 0.74441 0.36793 0.69591 0.0
H808 H 0.90519 0.46144 0.90432 0.0
H809 H 0.82831 0.48783 0.81698 0.0
H810 H 0.82347 0.55332 0.851 0.0
H811 H 0.84989 0.60738 0.89858 0.0
H812 H 0.93181 0.58099 0.98104 0.0
H813 H 0.92628 0.51213 0.95589 0.0
C814 C 0.88591 0.48076 0.89414 0.0
C815 C 0.86644 0.46959 0.85895 0.0
C816 C 0.88545 0.51934 0.91202 0.0
C817 C 0.84277 0.4955 0.8448 0.0
C818 C 0.84067 0.5333 0.86372 0.0
C819 C 0.86624 0.58645 0.9112 0.0
C820 C 0.89174 0.59986 0.94109 0.0
C821 C 0.86337 0.54635 0.89613 0.0
C822 C 0.91246 0.57205 0.9574 0.0
C823 C 0.90917 0.53233 0.94329 0.0
H824 H 0.78669 0.68876 0.06316 0.0
H825 H 0.87369 0.64504 0.12686 0.0
H826 H 0.82829 0.6197 0.17958 0.0
H827 H 0.76382 0.61342 0.20963 0.0
H828 H 0.67878 0.6613 0.14668 0.0
H829 H 0.72323 0.6808 0.0913 0.0
C830 C 0.7959 0.67355 0.08843 0.0
C831 C 0.83375 0.66906 0.091 0.0
C832 C 0.76976 0.65943 0.11868 0.0
C833 C 0.84486 0.64916 0.12411 0.0
C834 C 0.81884 0.63456 0.15424 0.0
C835 C 0.75498 0.6272 0.18323 0.0
C836 C 0.71792 0.63531 0.18182 0.0
C837 C 0.78119 0.6398 0.15206 0.0
C838 C 0.70701 0.65432 0.14813 0.0
C839 C 0.73249 0.66574 0.11663 0.0
H840 H 0.71005 0.34231 0.45588 0.0
H841 H 0.59111 0.33694 0.46816 0.0
H842 H 0.59058 0.38006 0.41099 0.0
H843 H 0.62418 0.42615 0.36381 0.0
H844 H 0.74328 0.43914 0.35656 0.0
H845 H 0.74385 0.38575 0.40449 0.0
C846 C 0.68414 0.35026 0.44546 0.0
C847 C 0.65073 0.33706 0.4662 0.0
C848 C 0.68415 0.37637 0.41342 0.0
C849 C 0.61719 0.34744 0.45284 0.0
C850 C 0.61683 0.37191 0.42011 0.0
C851 C 0.65013 0.41621 0.37176 0.0
C852 C 0.68358 0.43575 0.3565 0.0
C853 C 0.65017 0.38746 0.40097 0.0
C854 C 0.71724 0.42381 0.36771 0.0
C855 C 0.71752 0.39369 0.39538 0.0
H856 H 0.32356 0.41721 0.12911 0.0
H857 H 0.21257 0.35703 0.12729 0.0
H858 H 0.23476 0.29569 0.14787 0.0
H859 H 0.28358 0.26371 0.1774 0.0
H860 H 0.39607 0.32177 0.17285 0.0
H861 H 0.37491 0.37988 0.14503 0.0
C862 C 0.30451 0.39018 0.13176 0.0
C863 C 0.26652 0.39159 0.12685 0.0
C864 C 0.31739 0.35519 0.14403 0.0
C865 C 0.24201 0.35654 0.13043 0.0
C866 C 0.25462 0.32164 0.14289 0.0
C867 C 0.30402 0.28824 0.16936 0.0
C868 C 0.34146 0.28813 0.17897 0.0
C869 C 0.29201 0.32122 0.15149 0.0
C870 C 0.36682 0.32112 0.16809 0.0
C871 C 0.35486 0.3544 0.15139 0.0
H872 H 0.81145 0.21742 0.88812 0.0
H873 H 0.84027 0.18231 0.76428 0.0
H874 H 0.79703 0.12114 0.76917 0.0
H875 H 0.74565 0.08222 0.80663 0.0
H876 H 0.71837 0.11822 0.93119 0.0
H877 H 0.76676 0.17398 0.92829 0.0
C878 C 0.80856 0.19597 0.86251 0.0
C879 C 0.8284 0.2042 0.82584 0.0
C880 C 0.7838 0.1612 0.8656 0.0
C881 C 0.82503 0.1763 0.7928 0.0
C882 C 0.80024 0.14154 0.79555 0.0
C883 C 0.75079 0.10183 0.83334 0.0
C884 C 0.7279 0.09646 0.86878 0.0
C885 C 0.77867 0.13427 0.83149 0.0
C886 C 0.73519 0.1219 0.9033 0.0
C887 C 0.76283 0.15396 0.90171 0.0
H888 H 0.11357 0.56837 0.21317 0.0
H889 H 0.20814 0.63027 0.15081 0.0
H890 H 0.16772 0.67035 0.11715 0.0
H891 H 0.10466 0.67721 0.09516 0.0
H892 H 0.01037 0.61438 0.15829 0.0
H893 H 0.05137 0.58494 0.20129 0.0
C894 C 0.12542 0.59216 0.1939 0.0
C895 C 0.16373 0.59641 0.18459 0.0
C896 C 0.10185 0.61369 0.17329 0.0
C897 C 0.1788 0.62688 0.15908 0.0
C898 C 0.15553 0.64915 0.13902 0.0
C899 C 0.09296 0.65784 0.11891 0.0
C900 C 0.05429 0.64704 0.12225 0.0
C901 C 0.11684 0.64116 0.14418 0.0
C902 C 0.03994 0.62201 0.15359 0.0
C903 C 0.06338 0.60547 0.1787 0.0
H904 H 0.78898 0.82117 0.39156 0.0
H905 H 0.8524 0.80301 0.27987 0.0
H906 H 0.82847 0.73221 0.27671 0.0
H907 H 0.77726 0.68212 0.29606 0.0
H908 H 0.70912 0.70316 0.40357 0.0
H909 H 0.74807 0.76523 0.41967 0.0
C910 C 0.79855 0.80112 0.3676 0.0
C911 C 0.82191 0.81654 0.33585 0.0
C912 C 0.78368 0.76099 0.36537 0.0
C913 C 0.83425 0.79111 0.30451 0.0
C914 C 0.82048 0.75084 0.30265 0.0
C915 C 0.77248 0.69925 0.32421 0.0
C916 C 0.74072 0.68867 0.34867 0.0
C917 C 0.79345 0.73612 0.33155 0.0
C918 C 0.73384 0.71103 0.38468 0.0
C919 C 0.75568 0.7468 0.39342 0.0
H920 H 0.55088 0.45424 0.678 0.0
H921 H 0.4577 0.36735 0.64994 0.0
H922 H 0.41525 0.41361 0.6766 0.0
H923 H 0.40407 0.48113 0.70028 0.0
H924 H 0.49633 0.57148 0.71716 0.0
H925 H 0.53973 0.5217 0.70232 0.0
C926 C 0.52133 0.44539 0.67731 0.0
C927 C 0.5078 0.40716 0.66176 0.0
C928 C 0.49684 0.47287 0.69081 0.0
C929 C 0.46925 0.39615 0.6623 0.0
C930 C 0.44478 0.42276 0.67724 0.0
C931 C 0.4337 0.48949 0.70184 0.0
C932 C 0.44728 0.52939 0.71049 0.0
C933 C 0.45823 0.4614 0.69079 0.0
C934 C 0.48556 0.54059 0.71112 0.0
C935 C 0.51024 0.51228 0.7023 0.0
H936 H 0.33077 0.7364 0.64463 0.0
H937 H 0.25013 0.65248 0.70481 0.0
H938 H 0.2046 0.70005 0.70603 0.0
H939 H 0.1883 0.76598 0.69273 0.0
H940 H 0.26806 0.85137 0.63372 0.0
H941 H 0.31367 0.80303 0.6301 0.0
C942 C 0.30308 0.72843 0.65751 0.0
C943 C 0.2938 0.6909 0.67443 0.0
C944 C 0.2771 0.75633 0.65886 0.0
C945 C 0.25798 0.68115 0.69157 0.0
C946 C 0.23193 0.70837 0.6924 0.0
C947 C 0.2155 0.77392 0.67855 0.0
C948 C 0.22466 0.81208 0.66315 0.0
C949 C 0.24131 0.74611 0.67654 0.0
C950 C 0.26039 0.82223 0.64594 0.0
C951 C 0.28635 0.79453 0.64366 0.0
H952 H 0.41924 0.8668 0.904 0.0
H953 H 0.38854 0.97743 0.95858 0.0
H954 H 0.43994 0.01458 0.92063 0.0
H955 H 0.49943 0.01344 0.88304 0.0
H956 H 0.53282 0.90228 0.83238 0.0
H957 H 0.47364 0.86707 0.85646 0.0
C958 C 0.42323 0.89918 0.9063 0.0
C959 C 0.40062 0.91977 0.93364 0.0
C960 C 0.45332 0.91985 0.88546 0.0
C961 C 0.40573 0.96143 0.93728 0.0
C962 C 0.43517 0.98245 0.91589 0.0
C963 C 0.49328 0.98163 0.87638 0.0
C964 C 0.52043 0.96014 0.85679 0.0
C965 C 0.46005 0.96172 0.89151 0.0
C966 C 0.51223 0.91922 0.84756 0.0
C967 C 0.47864 0.89914 0.86169 0.0
H968 H 0.83539 0.07141 0.34572 0.0
H969 H 0.89362 0.0519 0.23101 0.0
H970 H 0.94243 0.10463 0.24929 0.0
H971 H 0.97553 0.14258 0.30502 0.0
H972 H 0.91865 0.15943 0.42124 0.0
H973 H 0.86245 0.12128 0.39575 0.0
C974 C 0.85755 0.08062 0.32375 0.0
C975 C 0.86123 0.05787 0.28727 0.0
C976 C 0.88674 0.10893 0.3358 0.0
C977 C 0.89023 0.0694 0.25915 0.0
C978 C 0.91865 0.09877 0.2701 0.0
C979 C 0.95053 0.13837 0.32435 0.0
C980 C 0.95114 0.15268 0.36504 0.0
C981 C 0.91846 0.11643 0.30952 0.0
C982 C 0.91867 0.14799 0.38991 0.0
C983 C 0.88661 0.1263 0.37537 0.0
loop_
_geom_bond_atom_site_label_1
_geom_bond_atom_site_label_2
_geom_bond_distance
_geom_bond_site_symmetry_2
_ccdc_geom_bond_type
C0 O16 1.251 . S
C0 O18 1.254 . S
N1 C2 1.333 . S
N1 C6 1.307 . S
N1 Zn7 2.020 . S
C2 N1 1.333 . S
C2 C3 1.379 . S
C2 H20 0.952 . S
C3 C2 1.379 . S
C3 C4 1.390 . S
C3 H30 0.949 . S
C4 C3 1.390 . S
C4 C5 1.357 . S
C5 C4 1.357 . S
C5 C6 1.370 . S
C5 H31 0.950 1_455 S
C6 N1 1.307 . S
C6 C5 1.370 . S
C6 H24 0.948 . S
Zn7 N1 2.020 . S
Zn7 O16 2.039 . S
Zn7 O22 2.034 . S
Zn7 O26 2.025 . S
Zn7 O28 2.024 . S
C8 O27 1.246 . S
C8 O28 1.249 . S
N9 C10 1.307 . S
N9 C11 1.333 . S
N9 Zn15 2.020 . S
C10 N9 1.307 . S
C10 C14 1.370 . S
C10 H21 0.948 . S
C11 N9 1.333 . S
C11 C12 1.379 . S
C11 H19 0.952 . S
C12 C11 1.379 . S
C12 C13 1.390 . S
C12 H32 0.949 . S
C13 C12 1.390 . S
C13 C14 1.357 . S
C14 C10 1.370 . S
C14 C13 1.357 . S
C14 H33 0.950 . S
Zn15 N9 2.020 . S
Zn15 O18 2.025 . S
Zn15 O23 2.024 . S
Zn15 O25 2.039 . S
Zn15 O27 2.034 . S
O16 C0 1.251 . S
O16 Zn7 2.039 . S
C17 O22 1.246 . S
C17 O23 1.249 . S
O18 C0 1.254 . S
O18 Zn15 2.025 . S
H19 C11 0.952 . S
H20 C2 0.952 . S
H21 C10 0.948 . S
O22 Zn7 2.034 . S
O22 C17 1.246 . S
O23 Zn15 2.024 . S
O23 C17 1.249 . S
H24 C6 0.948 . S
O25 Zn15 2.039 . S
O25 C29 1.251 . S
O26 Zn7 2.025 . S
O26 C29 1.254 . S
O27 C8 1.246 . S
O27 Zn15 2.034 . S
O28 Zn7 2.024 . S
O28 C8 1.249 . S
C29 O25 1.251 . S
C29 O26 1.254 . S
H30 C3 0.949 . S
H31 C5 0.950 1_655 S
H32 C12 0.949 . S
H33 C14 0.950 . S
C34 O50 1.251 . S
C34 O52 1.254 . S
N35 C36 1.333 . S
N35 C40 1.307 . S
N35 Zn41 2.020 . S
C36 N35 1.333 . S
C36 C37 1.379 . S
C36 H54 0.952 . S
C37 C36 1.379 . S
C37 C38 1.390 . S
C37 H64 0.949 . S
C38 C37 1.390 . S
C38 C39 1.357 . S
C39 C38 1.357 . S
C39 C40 1.370 . S
C39 H65 0.950 . S
C40 N35 1.307 . S
C40 C39 1.370 . S
C40 H58 0.948 . S
Zn41 N35 2.020 . S
Zn41 O50 2.039 . S
Zn41 O56 2.034 . S
Zn41 O60 2.025 . S
Zn41 O62 2.024 . S
C42 O61 1.246 . S
C42 O62 1.249 . S
N43 C44 1.307 . S
N43 C45 1.333 1_455 S
N43 Zn49 2.020 . S
C44 N43 1.307 . S
C44 C48 1.370 1_565 S
C44 H55 0.948 1_565 S
C45 N43 1.333 1_655 S
C45 C46 1.379 . S
C45 H53 0.952 . S
C46 C45 1.379 . S
C46 C47 1.390 1_565 S
C46 H66 0.949 . S
C47 C46 1.390 1_545 S
C47 C48 1.357 1_655 S
C48 C44 1.370 1_545 S
C48 C47 1.357 1_455 S
C48 H67 0.950 . S
Zn49 N43 2.020 . S
Zn49 O52 2.025 . S
Zn49 O57 2.024 . S
Zn49 O59 2.039 . S
Zn49 O61 2.034 . S
O50 C34 1.251 . S
O50 Zn41 2.039 . S
C51 O56 1.246 . S
C51 O57 1.249 . S
O52 C34 1.254 . S
O52 Zn49 2.025 . S
H53 C45 0.952 . S
H54 C36 0.952 . S
H55 C44 0.948 1_545 S
O56 Zn41 2.034 . S
O56 C51 1.246 . S
O57 Zn49 2.024 . S
O57 C51 1.249 . S
H58 C40 0.948 . S
O59 Zn49 2.039 . S
O59 C63 1.251 . S
O60 Zn41 2.025 . S
O60 C63 1.254 . S
O61 C42 1.246 . S
O61 Zn49 2.034 . S
O62 Zn41 2.024 . S
O62 C42 1.249 . S
C63 O59 1.251 . S
C63 O60 1.254 . S
H64 C37 0.949 . S
H65 C39 0.950 . S
H66 C46 0.949 . S
H67 C48 0.950 . S
C68 O84 1.251 . S
C68 O86 1.254 . S
N69 C70 1.333 . S
N69 C74 1.307 . S
N69 Zn75 2.020 . S
C70 N69 1.333 . S
C70 C71 1.379 . S
C70 H88 0.952 . S
C71 C70 1.379 . S
C71 C72 1.390 . S
C71 H98 0.949 . S
C72 C71 1.390 . S
C72 C73 1.357 . S
C73 C72 1.357 . S
C73 C74 1.370 . S
C73 H99 0.950 . S
C74 N69 1.307 . S
C74 C73 1.370 . S
C74 H92 0.948 . S
Zn75 N69 2.020 . S
Zn75 O84 2.039 . S
Zn75 O90 2.034 . S
Zn75 O94 2.025 . S
Zn75 O96 2.024 . S
C76 O95 1.246 . S
C76 O96 1.249 . S
N77 C78 1.307 1_554 S
N77 C79 1.333 . S
N77 Zn83 2.020 1_554 S
C78 N77 1.307 1_556 S
C78 C82 1.370 1_556 S
C78 H89 0.948 . S
C79 N77 1.333 . S
C79 C80 1.379 . S
C79 H87 0.952 . S
C80 C79 1.379 . S
C80 C81 1.390 . S
C80 H100 0.949 . S
C81 C80 1.390 . S
C81 C82 1.357 . S
C82 C78 1.370 1_554 S
C82 C81 1.357 . S
C82 H101 0.957 . S
Zn83 N77 2.020 1_556 S
Zn83 O86 2.025 . S
Zn83 O91 2.024 . S
Zn83 O93 2.039 1_556 S
Zn83 O95 2.034 . S
O84 C68 1.251 . S
O84 Zn75 2.039 . S
C85 O90 1.246 . S
C85 O91 1.249 . S
O86 C68 1.254 . S
O86 Zn83 2.025 . S
H87 C79 0.952 . S
H88 C70 0.952 . S
H89 C78 0.948 . S
O90 Zn75 2.034 . S
O90 C85 1.246 . S
O91 Zn83 2.024 . S
O91 C85 1.249 . S
H92 C74 0.948 . S
O93 Zn83 2.039 1_554 S
O93 C97 1.251 . S
O94 Zn75 2.025 . S
O94 C97 1.254 1_556 S
O95 C76 1.246 . S
O95 Zn83 2.034 . S
O96 Zn75 2.024 . S
O96 C76 1.249 . S
C97 O93 1.251 . S
C97 O94 1.254 1_554 S
H98 C71 0.949 . S
H99 C73 0.950 . S
H100 C80 0.949 . S
H101 C82 0.957 . S
C102 O118 1.251 . S
C102 O120 1.254 . S
N103 C104 1.333 . S
N103 C108 1.307 . S
N103 Zn109 2.020 . S
C104 N103 1.333 . S
C104 C105 1.379 . S
C104 H122 0.952 . S
C105 C104 1.379 . S
C105 C106 1.390 . S
C105 H132 0.949 . S
C106 C105 1.390 . S
C106 C107 1.357 . S
C107 C106 1.357 . S
C107 C108 1.370 . S
C107 H133 0.950 . S
C108 N103 1.307 . S
C108 C107 1.370 . S
C108 H126 0.948 . S
Zn109 N103 2.020 . S
Zn109 O118 2.039 . S
Zn109 O124 2.034 . S
Zn109 O128 2.025 . S
Zn109 O130 2.024 . S
C110 O129 1.246 . S
C110 O130 1.249 . S
N111 C112 1.307 . S
N111 C113 1.333 . S
N111 Zn117 2.020 . S
C112 N111 1.307 . S
C112 C116 1.370 . S
C112 H123 0.948 . S
C113 N111 1.333 . S
C113 C114 1.379 . S
C113 H121 0.952 . S
C114 C113 1.379 . S
C114 C115 1.390 . S
C114 H134 0.949 . S
C115 C114 1.390 . S
C115 C116 1.357 . S
C116 C112 1.370 . S
C116 C115 1.357 . S
C116 H135 0.950 1_545 S
Zn117 N111 2.020 . S
Zn117 O120 2.025 . S
Zn117 O125 2.024 . S
Zn117 O127 2.039 . S
Zn117 O129 2.034 . S
O118 C102 1.251 . S
O118 Zn109 2.039 . S
C119 O124 1.246 . S
C119 O125 1.249 . S
O120 C102 1.254 . S
O120 Zn117 2.025 . S
H121 C113 0.952 . S
H122 C104 0.952 . S
H123 C112 0.948 . S
O124 Zn109 2.034 . S
O124 C119 1.246 . S
O125 Zn117 2.024 . S
O125 C119 1.249 . S
H126 C108 0.948 . S
O127 Zn117 2.039 . S
O127 C131 1.251 . S
O128 Zn109 2.025 . S
O128 C131 1.254 . S
O129 C110 1.246 . S
O129 Zn117 2.034 . S
O130 Zn109 2.024 . S
O130 C110 1.249 . S
C131 O127 1.251 . S
C131 O128 1.254 . S
H132 C105 0.949 . S
H133 C107 0.950 . S
H134 C114 0.949 . S
H135 C116 0.950 1_565 S
C136 O152 1.251 . S
C136 O154 1.254 . S
N137 C138 1.333 . S
N137 C142 1.307 . S
N137 Zn143 2.020 . S
C138 N137 1.333 . S
C138 C139 1.379 . S
C138 H156 0.952 . S
C139 C138 1.379 . S
C139 C140 1.390 . S
C139 H166 0.949 . S
C140 C139 1.390 . S
C140 C141 1.357 . S
C141 C140 1.357 . S
C141 C142 1.370 . S
C141 H167 0.950 . S
C142 N137 1.307 . S
C142 C141 1.370 . S
C142 H160 0.948 . S
Zn143 N137 2.020 . S
Zn143 O152 2.039 . S
Zn143 O158 2.034 . S
Zn143 O162 2.025 . S
Zn143 O164 2.024 . S
C144 O163 1.246 . S
C144 O164 1.249 . S
N145 C146 1.307 . S
N145 C147 1.333 . S
N145 Zn151 2.020 . S
C146 N145 1.307 . S
C146 C150 1.370 . S
C146 H157 0.948 . S
C147 N145 1.333 . S
C147 C148 1.379 . S
C147 H155 0.952 . S
C148 C147 1.379 . S
C148 C149 1.390 . S
C148 H168 0.949 . S
C149 C148 1.390 . S
C149 C150 1.357 . S
C150 C146 1.370 . S
C150 C149 1.357 . S
C150 H169 0.950 . S
Zn151 N145 2.020 . S
Zn151 O154 2.025 . S
Zn151 O159 2.024 . S
Zn151 O161 2.039 . S
Zn151 O163 2.034 . S
O152 C136 1.251 . S
O152 Zn143 2.039 . S
C153 O158 1.246 . S
C153 O159 1.249 . S
O154 C136 1.254 . S
O154 Zn151 2.025 . S
H155 C147 0.952 . S
H156 C138 0.952 . S
H157 C146 0.948 . S
O158 Zn143 2.034 . S
O158 C153 1.246 . S
O159 Zn151 2.024 . S
O159 C153 1.249 . S
H160 C142 0.948 . S
O161 Zn151 2.039 . S
O161 C165 1.251 . S
O162 Zn143 2.025 . S
O162 C165 1.254 . S
O163 C144 1.246 . S
O163 Zn151 2.034 . S
O164 Zn143 2.024 . S
O164 C144 1.249 . S
C165 O161 1.251 . S
C165 O162 1.254 . S
H166 C139 0.949 . S
H167 C141 0.950 . S
H168 C148 0.949 . S
H169 C150 0.950 . S
C170 O186 1.251 . S
C170 O188 1.254 . S
N171 C172 1.333 . S
N171 C176 1.307 . S
N171 Zn177 2.020 . S
C172 N171 1.333 . S
C172 C173 1.379 . S
C172 H190 0.952 . S
C173 C172 1.379 . S
C173 C174 1.390 . S
C173 H200 0.949 . S
C174 C173 1.390 . S
C174 C175 1.357 . S
C175 C174 1.357 . S
C175 C176 1.370 . S
C175 H201 0.950 . S
C176 N171 1.307 . S
C176 C175 1.370 . S
C176 H194 0.948 . S
Zn177 N171 2.020 . S
Zn177 O186 2.039 . S
Zn177 O192 2.034 . S
Zn177 O196 2.025 . S
Zn177 O198 2.024 . S
C178 O197 1.246 . S
C178 O198 1.249 . S
N179 C180 1.307 . S
N179 C181 1.333 1_655 S
N179 Zn185 2.020 . S
C180 N179 1.307 . S
C180 C184 1.370 1_655 S
C180 H191 0.948 . S
C181 N179 1.333 1_455 S
C181 C182 1.379 . S
C181 H189 0.952 . S
C182 C181 1.379 . S
C182 C183 1.390 . S
C182 H202 0.949 . S
C183 C182 1.390 . S
C183 C184 1.357 . S
C184 C180 1.370 1_455 S
C184 C183 1.357 . S
C184 H203 0.950 1_455 S
Zn185 N179 2.020 . S
Zn185 O188 2.025 . S
Zn185 O193 2.024 . S
Zn185 O195 2.039 . S
Zn185 O197 2.034 . S
O186 C170 1.251 . S
O186 Zn177 2.039 . S
C187 O192 1.246 . S
C187 O193 1.249 . S
O188 C170 1.254 . S
O188 Zn185 2.025 . S
H189 C181 0.952 . S
H190 C172 0.952 . S
H191 C180 0.948 . S
O192 Zn177 2.034 . S
O192 C187 1.246 . S
O193 Zn185 2.024 . S
O193 C187 1.249 . S
H194 C176 0.948 . S
O195 Zn185 2.039 . S
O195 C199 1.251 . S
O196 Zn177 2.025 . S
O196 C199 1.254 . S
O197 C178 1.246 . S
O197 Zn185 2.034 . S
O198 Zn177 2.024 . S
O198 C178 1.249 . S
C199 O195 1.251 . S
C199 O196 1.254 . S
H200 C173 0.949 . S
H201 C175 0.950 . S
H202 C182 0.949 . S
H203 C184 0.950 1_655 S
C204 O220 1.251 1_556 S
C204 O222 1.254 . S
N205 C206 1.333 . S
N205 C210 1.307 . S
N205 Zn211 2.020 . S
C206 N205 1.333 . S
C206 C207 1.379 . S
C206 H224 0.952 . S
C207 C206 1.379 . S
C207 C208 1.390 1_655 S
C207 H234 0.949 . S
C208 C207 1.390 1_455 S
C208 C209 1.357 . S
C209 C208 1.357 . S
C209 C210 1.370 1_455 S
C209 H235 0.950 . S
C210 N205 1.307 . S
C210 C209 1.370 1_655 S
C210 H228 0.948 . S
Zn211 N205 2.020 . S
Zn211 O220 2.039 . S
Zn211 O226 2.034 . S
Zn211 O230 2.025 . S
Zn211 O232 2.024 . S
C212 O231 1.246 . S
C212 O232 1.249 1_556 S
N213 C214 1.307 . S
N213 C215 1.333 . S
N213 Zn219 2.020 1_556 S
C214 N213 1.307 . S
C214 C218 1.370 . S
C214 H225 0.948 . S
C215 N213 1.333 . S
C215 C216 1.381 . S
C215 H223 0.950 1_556 S
C216 C215 1.381 . S
C216 C217 1.390 . S
C216 H236 0.949 . S
C217 C216 1.390 . S
C217 C218 1.357 . S
C218 C214 1.370 . S
C218 C217 1.357 . S
C218 H237 0.950 . S
Zn219 N213 2.020 1_554 S
Zn219 O222 2.025 1_554 S
Zn219 O227 2.024 . S
Zn219 O229 2.039 . S
Zn219 O231 2.034 1_554 S
O220 C204 1.251 1_554 S
O220 Zn211 2.039 . S
C221 O226 1.246 . S
C221 O227 1.249 . S
O222 C204 1.254 . S
O222 Zn219 2.025 1_556 S
H223 C215 0.950 1_554 S
H224 C206 0.952 . S
H225 C214 0.948 . S
O226 Zn211 2.034 . S
O226 C221 1.246 . S
O227 Zn219 2.024 . S
O227 C221 1.249 . S
H228 C210 0.948 . S
O229 Zn219 2.039 . S
O229 C233 1.251 . S
O230 Zn211 2.025 . S
O230 C233 1.254 . S
O231 C212 1.246 . S
O231 Zn219 2.034 1_556 S
O232 Zn211 2.024 . S
O232 C212 1.249 1_554 S
C233 O229 1.251 . S
C233 O230 1.254 . S
H234 C207 0.949 . S
H235 C209 0.950 . S
H236 C216 0.949 . S
H237 C218 0.950 . S
C238 O254 1.251 . S
C238 O256 1.254 . S
N239 C240 1.333 . S
N239 C244 1.307 . S
N239 Zn245 2.020 . S
C240 N239 1.333 . S
C240 C241 1.379 . S
C240 H258 0.952 . S
C241 C240 1.379 . S
C241 C242 1.390 . S
C241 H268 0.949 . S
C242 C241 1.390 . S
C242 C243 1.357 . S
C243 C242 1.357 . S
C243 C244 1.370 . S
C243 H269 0.950 . S
C244 N239 1.307 . S
C244 C243 1.370 . S
C244 H262 0.948 . S
Zn245 N239 2.020 . S
Zn245 O254 2.039 . S
Zn245 O260 2.034 . S
Zn245 O264 2.025 . S
Zn245 O266 2.024 . S
C246 O265 1.246 . S
C246 O266 1.249 . S
N247 C248 1.307 . S
N247 C249 1.333 . S
N247 Zn253 2.020 . S
C248 N247 1.307 . S
C248 C252 1.370 . S
C248 H259 0.948 . S
C249 N247 1.333 . S
C249 C250 1.379 . S
C249 H257 0.952 . S
C250 C249 1.379 . S
C250 C251 1.390 . S
C250 H270 0.949 . S
C251 C250 1.390 . S
C251 C252 1.357 . S
C252 C248 1.370 . S
C252 C251 1.357 . S
C252 H271 0.950 . S
Zn253 N247 2.020 . S
Zn253 O256 2.025 . S
Zn253 O261 2.024 . S
Zn253 O263 2.039 . S
Zn253 O265 2.034 . S
O254 C238 1.251 . S
O254 Zn245 2.039 . S
C255 O260 1.246 . S
C255 O261 1.249 . S
O256 C238 1.254 . S
O256 Zn253 2.025 . S
H257 C249 0.952 . S
H258 C240 0.952 . S
H259 C248 0.948 . S
O260 Zn245 2.034 . S
O260 C255 1.246 . S
O261 Zn253 2.024 . S
O261 C255 1.249 . S
H262 C244 0.948 . S
O263 Zn253 2.039 . S
O263 C267 1.251 . S
O264 Zn245 2.025 . S
O264 C267 1.254 . S
O265 C246 1.246 . S
O265 Zn253 2.034 . S
O266 Zn245 2.024 . S
O266 C246 1.249 . S
C267 O263 1.251 . S
C267 O264 1.254 . S
H268 C241 0.949 . S
H269 C243 0.950 . S
H270 C250 0.949 . S
H271 C252 0.950 . S
C272 O288 1.251 . S
C272 O290 1.254 . S
N273 C274 1.333 . S
N273 C278 1.307 . S
N273 Zn279 2.020 . S
C274 N273 1.333 . S
C274 C275 1.379 . S
C274 H292 0.952 . S
C275 C274 1.379 . S
C275 C276 1.390 . S
C275 H302 0.949 . S
C276 C275 1.390 . S
C276 C277 1.357 . S
C277 C276 1.357 . S
C277 C278 1.370 . S
C277 H303 0.950 1_554 S
C278 N273 1.307 . S
C278 C277 1.370 . S
C278 H296 0.948 . S
Zn279 N273 2.020 . S
Zn279 O288 2.039 . S
Zn279 O294 2.034 . S
Zn279 O298 2.025 . S
Zn279 O300 2.024 . S
C280 O299 1.246 . S
C280 O300 1.249 . S
N281 C282 1.307 . S
N281 C283 1.333 . S
N281 Zn287 2.020 . S
C282 N281 1.307 . S
C282 C286 1.370 . S
C282 H293 0.948 . S
C283 N281 1.333 . S
C283 C284 1.379 . S
C283 H291 0.952 . S
C284 C283 1.379 . S
C284 C285 1.390 . S
C284 H304 0.949 . S
C285 C284 1.390 . S
C285 C286 1.357 . S
C286 C282 1.370 . S
C286 C285 1.357 . S
C286 H305 0.950 . S
Zn287 N281 2.020 . S
Zn287 O290 2.025 . S
Zn287 O295 2.024 . S
Zn287 O297 2.039 . S
Zn287 O299 2.034 . S
O288 C272 1.251 . S
O288 Zn279 2.039 . S
C289 O294 1.246 . S
C289 O295 1.249 . S
O290 C272 1.254 . S
O290 Zn287 2.025 . S
H291 C283 0.952 . S
H292 C274 0.952 . S
H293 C282 0.948 . S
O294 Zn279 2.034 . S
O294 C289 1.246 . S
O295 Zn287 2.024 . S
O295 C289 1.249 . S
H296 C278 0.948 . S
O297 Zn287 2.039 . S
O297 C301 1.251 . S
O298 Zn279 2.025 . S
O298 C301 1.254 . S
O299 C280 1.246 . S
O299 Zn287 2.034 . S
O300 Zn279 2.024 . S
O300 C280 1.249 . S
C301 O297 1.251 . S
C301 O298 1.254 . S
H302 C275 0.949 . S
H303 C277 0.950 1_556 S
H304 C284 0.949 . S
H305 C286 0.950 . S
C306 O322 1.251 . S
C306 O324 1.254 . S
N307 C308 1.333 . S
N307 C312 1.307 . S
N307 Zn313 2.020 . S
C308 N307 1.333 . S
C308 C309 1.379 . S
C308 H326 0.952 . S
C309 C308 1.379 . S
C309 C310 1.390 1_556 S
C309 H336 0.949 . S
C310 C309 1.390 1_554 S
C310 C311 1.357 . S
C311 C310 1.357 . S
C311 C312 1.370 1_554 S
C311 H337 0.950 . S
C312 N307 1.307 . S
C312 C311 1.370 1_556 S
C312 H330 0.948 . S
Zn313 N307 2.020 . S
Zn313 O322 2.039 . S
Zn313 O328 2.034 . S
Zn313 O332 2.025 . S
Zn313 O334 2.024 . S
C314 O333 1.246 . S
C314 O334 1.249 . S
N315 C316 1.307 1_545 S
N315 C317 1.333 . S
N315 Zn321 2.020 . S
C316 N315 1.307 1_565 S
C316 C320 1.370 . S
C316 H327 0.948 . S
C317 N315 1.333 . S
C317 C318 1.379 . S
C317 H325 0.952 . S
C318 C317 1.379 . S
C318 C319 1.390 1_545 S
C318 H338 0.949 . S
C319 C318 1.390 1_565 S
C319 C320 1.357 . S
C320 C316 1.370 . S
C320 C319 1.357 . S
C320 H339 0.950 . S
Zn321 N315 2.020 . S
Zn321 O324 2.025 . S
Zn321 O329 2.024 . S
Zn321 O331 2.039 . S
Zn321 O333 2.034 . S
O322 C306 1.251 . S
O322 Zn313 2.039 . S
C323 O328 1.246 . S
C323 O329 1.249 . S
O324 C306 1.254 . S
O324 Zn321 2.025 . S
H325 C317 0.952 . S
H326 C308 0.952 . S
H327 C316 0.948 . S
O328 Zn313 2.034 . S
O328 C323 1.246 . S
O329 Zn321 2.024 . S
O329 C323 1.249 . S
H330 C312 0.948 . S
O331 Zn321 2.039 . S
O331 C335 1.251 . S
O332 Zn313 2.025 . S
O332 C335 1.254 . S
O333 C314 1.246 . S
O333 Zn321 2.034 . S
O334 Zn313 2.024 . S
O334 C314 1.249 . S
C335 O331 1.251 . S
C335 O332 1.254 . S
H336 C309 0.949 . S
H337 C311 0.950 . S
H338 C318 0.949 . S
H339 C320 0.950 . S
C340 O356 1.251 . S
C340 O358 1.254 . S
N341 C342 1.333 . S
N341 C346 1.307 . S
N341 Zn347 2.020 . S
C342 N341 1.333 . S
C342 C343 1.379 . S
C342 H360 0.952 . S
C343 C342 1.379 . S
C343 C344 1.390 . S
C343 H370 0.949 . S
C344 C343 1.390 . S
C344 C345 1.357 . S
C345 C344 1.357 . S
C345 C346 1.370 . S
C345 H371 0.950 . S
C346 N341 1.307 . S
C346 C345 1.370 . S
C346 H364 0.948 . S
Zn347 N341 2.020 . S
Zn347 O356 2.039 . S
Zn347 O362 2.034 . S
Zn347 O366 2.025 . S
Zn347 O368 2.024 . S
C348 O367 1.246 . S
C348 O368 1.249 . S
N349 C350 1.307 . S
N349 C351 1.333 . S
N349 Zn355 2.020 . S
C350 N349 1.307 . S
C350 C354 1.370 . S
C350 H361 0.948 . S
C351 N349 1.333 . S
C351 C352 1.379 . S
C351 H359 0.952 . S
C352 C351 1.379 . S
C352 C353 1.390 . S
C352 H372 0.949 . S
C353 C352 1.390 . S
C353 C354 1.357 . S
C354 C350 1.370 . S
C354 C353 1.357 . S
C354 H373 0.950 1_565 S
Zn355 N349 2.020 . S
Zn355 O358 2.025 . S
Zn355 O363 2.024 . S
Zn355 O365 2.039 . S
Zn355 O367 2.034 . S
O356 C340 1.251 . S
O356 Zn347 2.039 . S
C357 O362 1.246 . S
C357 O363 1.249 . S
O358 C340 1.254 . S
O358 Zn355 2.025 . S
H359 C351 0.952 . S
H360 C342 0.952 . S
H361 C350 0.948 . S
O362 Zn347 2.034 . S
O362 C357 1.246 . S
O363 Zn355 2.024 . S
O363 C357 1.249 . S
H364 C346 0.948 . S
O365 Zn355 2.039 . S
O365 C369 1.251 . S
O366 Zn347 2.025 . S
O366 C369 1.254 . S
O367 C348 1.246 . S
O367 Zn355 2.034 . S
O368 Zn347 2.024 . S
O368 C348 1.249 . S
C369 O365 1.251 . S
C369 O366 1.254 . S
H370 C343 0.949 . S
H371 C345 0.950 . S
H372 C352 0.949 . S
H373 C354 0.950 1_545 S
C374 O390 1.251 . S
C374 O392 1.254 . S
N375 C376 1.333 . S
N375 C380 1.307 . S
N375 Zn381 2.020 . S
C376 N375 1.333 . S
C376 C377 1.379 . S
C376 H394 0.952 . S
C377 C376 1.379 . S
C377 C378 1.390 . S
C377 H404 0.949 . S
C378 C377 1.390 . S
C378 C379 1.357 . S
C379 C378 1.357 . S
C379 C380 1.370 . S
C379 H405 0.950 . S
C380 N375 1.307 . S
C380 C379 1.370 . S
C380 H398 0.948 . S
Zn381 N375 2.020 . S
Zn381 O390 2.039 . S
Zn381 O396 2.034 . S
Zn381 O400 2.025 . S
Zn381 O402 2.024 . S
C382 O401 1.246 . S
C382 O402 1.249 . S
N383 C384 1.307 . S
N383 C385 1.333 . S
N383 Zn389 2.020 . S
C384 N383 1.307 . S
C384 C388 1.370 . S
C384 H395 0.948 . S
C385 N383 1.333 . S
C385 C386 1.379 . S
C385 H393 0.952 . S
C386 C385 1.379 . S
C386 C387 1.390 . S
C386 H406 0.949 . S
C387 C386 1.390 . S
C387 C388 1.357 . S
C388 C384 1.370 . S
C388 C387 1.357 . S
C388 H407 0.950 . S
Zn389 N383 2.020 . S
Zn389 O392 2.025 . S
Zn389 O397 2.024 . S
Zn389 O399 2.039 . S
Zn389 O401 2.034 . S
O390 C374 1.251 . S
O390 Zn381 2.039 . S
C391 O396 1.246 . S
C391 O397 1.249 . S
O392 C374 1.254 . S
O392 Zn389 2.025 . S
H393 C385 0.952 . S
H394 C376 0.952 . S
H395 C384 0.948 . S
O396 Zn381 2.034 . S
O396 C391 1.246 . S
O397 Zn389 2.024 . S
O397 C391 1.249 . S
H398 C380 0.948 . S
O399 Zn389 2.039 . S
O399 C403 1.251 . S
O400 Zn381 2.025 . S
O400 C403 1.254 . S
O401 C382 1.246 . S
O401 Zn389 2.034 . S
O402 Zn381 2.024 . S
O402 C382 1.249 . S
C403 O399 1.251 . S
C403 O400 1.254 . S
H404 C377 0.949 . S
H405 C379 0.950 . S
H406 C386 0.949 . S
H407 C388 0.950 . S
H408 C414 0.930 . S
H409 C417 0.930 . S
H410 C418 0.930 . S
H411 C419 0.930 . S
H412 C422 0.930 . S
H413 C423 0.930 . S
C414 H408 0.930 . S
C414 C415 1.355 . S
C414 C416 1.415 . S
C415 C414 1.355 . S
C415 C417 1.419 . S
C416 C414 1.415 . S
C416 C421 1.425 . S
C416 C423 1.409 . S
C417 H409 0.930 . S
C417 C415 1.419 . S
C417 C418 1.362 . S
C418 H410 0.930 . S
C418 C417 1.362 . S
C418 C421 1.409 . S
C419 H411 0.930 . S
C419 C420 1.355 . S
C419 C421 1.415 . S
C420 C419 1.355 . S
C420 C422 1.419 . S
C421 C416 1.425 . S
C421 C418 1.409 . S
C421 C419 1.415 . S
C422 H412 0.930 . S
C422 C420 1.419 . S
C422 C423 1.362 . S
C423 H413 0.930 . S
C423 C416 1.409 . S
C423 C422 1.362 . S
H424 C430 0.930 . S
H425 C433 0.930 . S
H426 C434 0.930 . S
H427 C435 0.930 . S
H428 C438 0.930 . S
H429 C439 0.930 . S
C430 H424 0.930 . S
C430 C431 1.355 . S
C430 C432 1.415 1_565 S
C431 C430 1.355 . S
C431 C433 1.419 . S
C432 C430 1.415 1_545 S
C432 C437 1.425 . S
C432 C439 1.409 . S
C433 H425 0.930 . S
C433 C431 1.419 . S
C433 C434 1.362 . S
C434 H426 0.930 . S
C434 C433 1.362 . S
C434 C437 1.409 1_565 S
C435 H427 0.930 . S
C435 C436 1.355 . S
C435 C437 1.415 . S
C436 C435 1.355 . S
C436 C438 1.419 . S
C437 C432 1.425 . S
C437 C434 1.409 1_545 S
C437 C435 1.415 . S
C438 H428 0.930 . S
C438 C436 1.419 . S
C438 C439 1.362 . S
C439 H429 0.930 . S
C439 C432 1.409 . S
C439 C438 1.362 . S
H440 C446 0.930 . S
H441 C449 0.930 1_556 S
H442 C450 0.930 . S
H443 C451 0.930 . S
H444 C454 0.930 . S
H445 C455 0.930 . S
C446 H440 0.930 . S
C446 C447 1.355 . S
C446 C448 1.415 . S
C447 C446 1.355 . S
C447 C449 1.419 . S
C448 C446 1.415 . S
C448 C453 1.425 . S
C448 C455 1.409 . S
C449 H441 0.930 1_554 S
C449 C447 1.419 . S
C449 C450 1.362 . S
C450 H442 0.930 . S
C450 C449 1.362 . S
C450 C453 1.409 . S
C451 H443 0.930 . S
C451 C452 1.355 . S
C451 C453 1.415 . S
C452 C451 1.355 . S
C452 C454 1.419 . S
C453 C448 1.425 . S
C453 C450 1.409 . S
C453 C451 1.415 . S
C454 H444 0.930 . S
C454 C452 1.419 . S
C454 C455 1.362 . S
C455 H445 0.930 . S
C455 C448 1.409 . S
C455 C454 1.362 . S
H456 C462 0.930 . S
H457 C465 0.930 . S
H458 C466 0.930 . S
H459 C467 0.929 1_545 S
H460 C470 0.930 . S
H461 C471 0.930 . S
C462 H456 0.930 . S
C462 C463 1.355 . S
C462 C464 1.415 . S
C463 C462 1.355 . S
C463 C465 1.419 1_565 S
C464 C462 1.415 . S
C464 C469 1.425 . S
C464 C471 1.409 . S
C465 H457 0.930 . S
C465 C463 1.419 1_545 S
C465 C466 1.362 . S
C466 H458 0.930 . S
C466 C465 1.362 . S
C466 C469 1.409 1_545 S
C467 H459 0.929 1_565 S
C467 C468 1.356 . S
C467 C469 1.415 . S
C468 C467 1.356 . S
C468 C470 1.419 . S
C469 C464 1.425 . S
C469 C466 1.409 1_565 S
C469 C467 1.415 . S
C470 H460 0.930 . S
C470 C468 1.419 . S
C470 C471 1.362 . S
C471 H461 0.930 . S
C471 C464 1.409 . S
C471 C470 1.362 . S
H472 C478 0.930 . S
H473 C481 0.930 . S
H474 C482 0.930 . S
H475 C483 0.930 . S
H476 C486 0.930 . S
H477 C487 0.930 . S
C478 H472 0.930 . S
C478 C479 1.355 . S
C478 C480 1.415 . S
C479 C478 1.355 . S
C479 C481 1.419 . S
C480 C478 1.415 . S
C480 C485 1.425 . S
C480 C487 1.409 . S
C481 H473 0.930 . S
C481 C479 1.419 . S
C481 C482 1.362 . S
C482 H474 0.930 . S
C482 C481 1.362 . S
C482 C485 1.409 . S
C483 H475 0.930 . S
C483 C484 1.355 1_545 S
C483 C485 1.415 . S
C484 C483 1.355 1_565 S
C484 C486 1.419 . S
C485 C480 1.425 . S
C485 C482 1.409 . S
C485 C483 1.415 . S
C486 H476 0.930 . S
C486 C484 1.419 . S
C486 C487 1.362 1_565 S
C487 H477 0.930 . S
C487 C480 1.409 . S
C487 C486 1.362 1_545 S
H488 C494 0.930 . S
H489 C497 0.930 . S
H490 C498 0.930 . S
H491 C499 0.930 . S
H492 C502 0.930 . S
H493 C503 0.930 . S
C494 H488 0.930 . S
C494 C495 1.355 . S
C494 C496 1.415 . S
C495 C494 1.355 . S
C495 C497 1.419 . S
C496 C494 1.415 . S
C496 C501 1.425 . S
C496 C503 1.409 . S
C497 H489 0.930 . S
C497 C495 1.419 . S
C497 C498 1.362 . S
C498 H490 0.930 . S
C498 C497 1.362 . S
C498 C501 1.409 . S
C499 H491 0.930 . S
C499 C500 1.355 . S
C499 C501 1.415 . S
C500 C499 1.355 . S
C500 C502 1.419 . S
C501 C496 1.425 . S
C501 C498 1.409 . S
C501 C499 1.415 . S
C502 H492 0.930 . S
C502 C500 1.419 . S
C502 C503 1.362 . S
C503 H493 0.930 . S
C503 C496 1.409 . S
C503 C502 1.362 . S
H504 C510 0.930 . S
H505 C513 0.930 1_545 S
H506 C514 0.930 . S
H507 C515 0.930 . S
H508 C518 0.930 . S
H509 C519 0.930 . S
C510 H504 0.930 . S
C510 C511 1.355 . S
C510 C512 1.415 . S
C511 C510 1.355 . S
C511 C513 1.419 . S
C512 C510 1.415 . S
C512 C517 1.425 . S
C512 C519 1.409 . S
C513 H505 0.930 1_565 S
C513 C511 1.419 . S
C513 C514 1.362 . S
C514 H506 0.930 . S
C514 C513 1.362 . S
C514 C517 1.409 . S
C515 H507 0.930 . S
C515 C516 1.355 . S
C515 C517 1.415 . S
C516 C515 1.355 . S
C516 C518 1.419 . S
C517 C512 1.425 . S
C517 C514 1.409 . S
C517 C515 1.415 . S
C518 H508 0.930 . S
C518 C516 1.419 . S
C518 C519 1.362 . S
C519 H509 0.930 . S
C519 C512 1.409 . S
C519 C518 1.362 . S
H520 C526 0.930 . S
H521 C529 0.930 . S
H522 C530 0.930 . S
H523 C531 0.930 . S
H524 C534 0.930 . S
H525 C535 0.930 . S
C526 H520 0.930 . S
C526 C527 1.355 . S
C526 C528 1.415 . S
C527 C526 1.355 . S
C527 C529 1.419 . S
C528 C526 1.415 . S
C528 C533 1.425 . S
C528 C535 1.409 . S
C529 H521 0.930 . S
C529 C527 1.419 . S
C529 C530 1.362 . S
C530 H522 0.930 . S
C530 C529 1.362 . S
C530 C533 1.409 . S
C531 H523 0.930 . S
C531 C532 1.355 . S
C531 C533 1.415 . S
C532 C531 1.355 . S
C532 C534 1.419 . S
C533 C528 1.425 . S
C533 C530 1.409 . S
C533 C531 1.415 . S
C534 H524 0.930 . S
C534 C532 1.419 . S
C534 C535 1.362 . S
C535 H525 0.930 . S
C535 C528 1.409 . S
C535 C534 1.362 . S
H536 C542 0.930 . S
H537 C545 0.930 . S
H538 C546 0.930 . S
H539 C547 0.930 . S
H540 C550 0.930 . S
H541 C551 0.930 . S
C542 H536 0.930 . S
C542 C543 1.355 . S
C542 C544 1.415 . S
C543 C542 1.355 . S
C543 C545 1.419 . S
C544 C542 1.415 . S
C544 C549 1.425 . S
C544 C551 1.409 . S
C545 H537 0.930 . S
C545 C543 1.419 . S
C545 C546 1.362 . S
C546 H538 0.930 . S
C546 C545 1.362 . S
C546 C549 1.409 . S
C547 H539 0.930 . S
C547 C548 1.355 . S
C547 C549 1.415 . S
C548 C547 1.355 . S
C548 C550 1.419 . S
C549 C544 1.425 . S
C549 C546 1.409 . S
C549 C547 1.415 . S
C550 H540 0.930 . S
C550 C548 1.419 . S
C550 C551 1.362 . S
C551 H541 0.930 . S
C551 C544 1.409 . S
C551 C550 1.362 . S
H552 C558 0.930 . S
H553 C561 0.930 1_655 S
H554 C562 0.930 . S
H555 C563 0.930 . S
H556 C566 0.930 . S
H557 C567 0.930 . S
C558 H552 0.930 . S
C558 C559 1.355 . S
C558 C560 1.415 . S
C559 C558 1.355 . S
C559 C561 1.419 . S
C560 C558 1.415 . S
C560 C565 1.425 1_455 S
C560 C567 1.409 . S
C561 H553 0.930 1_455 S
C561 C559 1.419 . S
C561 C562 1.362 1_455 S
C562 H554 0.930 . S
C562 C561 1.362 1_655 S
C562 C565 1.409 . S
C563 H555 0.930 . S
C563 C564 1.355 . S
C563 C565 1.415 . S
C564 C563 1.355 . S
C564 C566 1.419 1_655 S
C565 C560 1.425 1_655 S
C565 C562 1.409 . S
C565 C563 1.415 . S
C566 H556 0.930 . S
C566 C564 1.419 1_455 S
C566 C567 1.362 . S
C567 H557 0.930 . S
C567 C560 1.409 . S
C567 C566 1.362 . S
H568 C574 0.930 . S
H569 C577 0.930 . S
H570 C578 0.930 . S
H571 C579 0.930 . S
H572 C582 0.930 1_455 S
H573 C583 0.930 . S
C574 H568 0.930 . S
C574 C575 1.355 . S
C574 C576 1.415 . S
C575 C574 1.355 . S
C575 C577 1.419 1_455 S
C576 C574 1.415 . S
C576 C581 1.425 1_455 S
C576 C583 1.409 . S
C577 H569 0.930 . S
C577 C575 1.419 1_655 S
C577 C578 1.362 . S
C578 H570 0.930 . S
C578 C577 1.362 . S
C578 C581 1.409 . S
C579 H571 0.930 . S
C579 C580 1.355 . S
C579 C581 1.415 . S
C580 C579 1.355 . S
C580 C582 1.419 . S
C581 C576 1.425 1_655 S
C581 C578 1.409 . S
C581 C579 1.415 . S
C582 H572 0.930 1_655 S
C582 C580 1.419 . S
C582 C583 1.362 1_655 S
C583 H573 0.930 . S
C583 C576 1.409 . S
C583 C582 1.362 1_455 S
H584 C590 0.930 . S
H585 C593 0.930 . S
H586 C594 0.930 . S
H587 C595 0.930 . S
H588 C598 0.930 . S
H589 C599 0.930 . S
C590 H584 0.930 . S
C590 C591 1.355 . S
C590 C592 1.415 . S
C591 C590 1.355 . S
C591 C593 1.419 . S
C592 C590 1.415 . S
C592 C597 1.425 . S
C592 C599 1.409 . S
C593 H585 0.930 . S
C593 C591 1.419 . S
C593 C594 1.362 . S
C594 H586 0.930 . S
C594 C593 1.362 . S
C594 C597 1.409 . S
C595 H587 0.930 . S
C595 C596 1.355 . S
C595 C597 1.415 . S
C596 C595 1.355 . S
C596 C598 1.419 . S
C597 C592 1.425 . S
C597 C594 1.409 . S
C597 C595 1.415 . S
C598 H588 0.930 . S
C598 C596 1.419 . S
C598 C599 1.362 . S
C599 H589 0.930 . S
C599 C592 1.409 . S
C599 C598 1.362 . S
H600 C606 0.930 . S
H601 C609 0.930 . S
H602 C610 0.930 . S
H603 C611 0.930 . S
H604 C614 0.930 . S
H605 C615 0.930 . S
C606 H600 0.930 . S
C606 C607 1.355 . S
C606 C608 1.415 . S
C607 C606 1.355 . S
C607 C609 1.419 . S
C608 C606 1.415 . S
C608 C613 1.425 . S
C608 C615 1.409 . S
C609 H601 0.930 . S
C609 C607 1.419 . S
C609 C610 1.362 . S
C610 H602 0.930 . S
C610 C609 1.362 . S
C610 C613 1.409 . S
C611 H603 0.930 . S
C611 C612 1.355 . S
C611 C613 1.415 . S
C612 C611 1.355 . S
C612 C614 1.419 . S
C613 C608 1.425 . S
C613 C610 1.409 . S
C613 C611 1.415 . S
C614 H604 0.930 . S
C614 C612 1.419 . S
C614 C615 1.362 . S
C615 H605 0.930 . S
C615 C608 1.409 . S
C615 C614 1.362 . S
H616 C622 0.930 . S
H617 C625 0.930 . S
H618 C626 0.930 . S
H619 C627 0.930 . S
H620 C630 0.930 . S
H621 C631 0.930 . S
C622 H616 0.930 . S
C622 C623 1.355 1_655 S
C622 C624 1.415 . S
C623 C622 1.355 1_455 S
C623 C625 1.419 . S
C624 C622 1.415 . S
C624 C629 1.425 . S
C624 C631 1.409 . S
C625 H617 0.930 . S
C625 C623 1.419 . S
C625 C626 1.362 . S
C626 H618 0.930 . S
C626 C625 1.362 . S
C626 C629 1.409 1_455 S
C627 H619 0.930 . S
C627 C628 1.355 . S
C627 C629 1.415 . S
C628 C627 1.355 . S
C628 C630 1.419 . S
C629 C624 1.425 . S
C629 C626 1.409 1_655 S
C629 C627 1.415 . S
C630 H620 0.930 . S
C630 C628 1.419 . S
C630 C631 1.362 . S
C631 H621 0.930 . S
C631 C624 1.409 . S
C631 C630 1.362 . S
H632 C638 0.930 . S
H633 C641 0.930 . S
H634 C642 0.930 . S
H635 C643 0.930 . S
H636 C646 0.930 . S
H637 C647 0.930 . S
C638 H632 0.930 . S
C638 C639 1.355 . S
C638 C640 1.415 . S
C639 C638 1.355 . S
C639 C641 1.419 . S
C640 C638 1.415 . S
C640 C645 1.425 . S
C640 C647 1.409 . S
C641 H633 0.930 . S
C641 C639 1.419 . S
C641 C642 1.362 . S
C642 H634 0.930 . S
C642 C641 1.362 . S
C642 C645 1.409 . S
C643 H635 0.930 . S
C643 C644 1.355 . S
C643 C645 1.415 . S
C644 C643 1.355 . S
C644 C646 1.419 . S
C645 C640 1.425 . S
C645 C642 1.409 . S
C645 C643 1.415 . S
C646 H636 0.930 . S
C646 C644 1.419 . S
C646 C647 1.362 . S
C647 H637 0.930 . S
C647 C640 1.409 . S
C647 C646 1.362 . S
H648 C654 0.930 . S
H649 C657 0.930 . S
H650 C658 0.930 . S
H651 C659 0.930 . S
H652 C662 0.930 . S
H653 C663 0.930 . S
C654 H648 0.930 . S
C654 C655 1.355 . S
C654 C656 1.415 . S
C655 C654 1.355 . S
C655 C657 1.419 . S
C656 C654 1.415 . S
C656 C661 1.425 . S
C656 C663 1.409 . S
C657 H649 0.930 . S
C657 C655 1.419 . S
C657 C658 1.362 . S
C658 H650 0.930 . S
C658 C657 1.362 . S
C658 C661 1.409 . S
C659 H651 0.930 . S
C659 C660 1.355 . S
C659 C661 1.415 . S
C660 C659 1.355 . S
C660 C662 1.419 . S
C661 C656 1.425 . S
C661 C658 1.409 . S
C661 C659 1.415 . S
C662 H652 0.930 . S
C662 C660 1.419 . S
C662 C663 1.362 . S
C663 H653 0.930 . S
C663 C656 1.409 . S
C663 C662 1.362 . S
H664 C670 0.930 . S
H665 C673 0.930 . S
H666 C674 0.930 . S
H667 C675 0.930 . S
H668 C678 0.930 . S
H669 C679 0.930 . S
C670 H664 0.930 . S
C670 C671 1.355 . S
C670 C672 1.415 . S
C671 C670 1.355 . S
C671 C673 1.419 . S
C672 C670 1.415 . S
C672 C677 1.425 . S
C672 C679 1.409 . S
C673 H665 0.930 . S
C673 C671 1.419 . S
C673 C674 1.362 . S
C674 H666 0.930 . S
C674 C673 1.362 . S
C674 C677 1.409 . S
C675 H667 0.930 . S
C675 C676 1.355 . S
C675 C677 1.415 . S
C676 C675 1.355 . S
C676 C678 1.419 . S
C677 C672 1.425 . S
C677 C674 1.409 . S
C677 C675 1.415 . S
C678 H668 0.930 . S
C678 C676 1.419 . S
C678 C679 1.362 . S
C679 H669 0.930 . S
C679 C672 1.409 . S
C679 C678 1.362 . S
H680 C686 0.930 . S
H681 C689 0.930 . S
H682 C690 0.930 . S
H683 C691 0.930 . S
H684 C694 0.930 . S
H685 C695 0.930 1_655 S
C686 H680 0.930 . S
C686 C687 1.355 1_556 S
C686 C688 1.415 . S
C687 C686 1.355 1_554 S
C687 C689 1.420 1_554 S
C688 C686 1.415 . S
C688 C693 1.425 . S
C688 C695 1.410 . S
C689 H681 0.930 . S
C689 C687 1.420 1_556 S
C689 C690 1.362 . S
C690 H682 0.930 . S
C690 C689 1.362 . S
C690 C693 1.409 . S
C691 H683 0.930 . S
C691 C692 1.355 1_455 S
C691 C693 1.415 . S
C692 C691 1.355 1_655 S
C692 C694 1.419 . S
C693 C688 1.425 . S
C693 C690 1.409 . S
C693 C691 1.415 . S
C694 H684 0.930 . S
C694 C692 1.419 . S
C694 C695 1.361 1_655 S
C695 H685 0.930 1_455 S
C695 C688 1.410 . S
C695 C694 1.361 1_455 S
H696 C702 0.930 . S
H697 C705 0.930 . S
H698 C706 0.930 . S
H699 C707 0.930 . S
H700 C710 0.930 . S
H701 C711 0.930 . S
C702 H696 0.930 . S
C702 C703 1.355 . S
C702 C704 1.415 . S
C703 C702 1.355 . S
C703 C705 1.419 . S
C704 C702 1.415 . S
C704 C709 1.425 . S
C704 C711 1.409 . S
C705 H697 0.930 . S
C705 C703 1.419 . S
C705 C706 1.362 . S
C706 H698 0.930 . S
C706 C705 1.362 . S
C706 C709 1.409 . S
C707 H699 0.930 . S
C707 C708 1.355 . S
C707 C709 1.415 . S
C708 C707 1.355 . S
C708 C710 1.419 . S
C709 C704 1.425 . S
C709 C706 1.409 . S
C709 C707 1.415 . S
C710 H700 0.930 . S
C710 C708 1.419 . S
C710 C711 1.362 . S
C711 H701 0.930 . S
C711 C704 1.409 . S
C711 C710 1.362 . S
H712 C718 0.930 . S
H713 C721 0.930 . S
H714 C722 0.930 . S
H715 C723 0.930 . S
H716 C726 0.930 . S
H717 C727 0.930 . S
C718 H712 0.930 . S
C718 C719 1.355 . S
C718 C720 1.415 . S
C719 C718 1.355 . S
C719 C721 1.419 . S
C720 C718 1.415 . S
C720 C725 1.425 . S
C720 C727 1.409 . S
C721 H713 0.930 . S
C721 C719 1.419 . S
C721 C722 1.362 . S
C722 H714 0.930 . S
C722 C721 1.362 . S
C722 C725 1.409 . S
C723 H715 0.930 . S
C723 C724 1.355 . S
C723 C725 1.415 . S
C724 C723 1.355 . S
C724 C726 1.419 . S
C725 C720 1.425 . S
C725 C722 1.409 . S
C725 C723 1.415 . S
C726 H716 0.930 . S
C726 C724 1.419 . S
C726 C727 1.362 . S
C727 H717 0.930 . S
C727 C720 1.409 . S
C727 C726 1.362 . S
H728 C734 0.930 . S
H729 C737 0.930 . S
H730 C738 0.930 . S
H731 C739 0.930 . S
H732 C742 0.930 . S
H733 C743 0.930 . S
C734 H728 0.930 . S
C734 C735 1.355 . S
C734 C736 1.415 . S
C735 C734 1.355 . S
C735 C737 1.419 . S
C736 C734 1.415 . S
C736 C741 1.425 . S
C736 C743 1.409 . S
C737 H729 0.930 . S
C737 C735 1.419 . S
C737 C738 1.362 . S
C738 H730 0.930 . S
C738 C737 1.362 . S
C738 C741 1.409 . S
C739 H731 0.930 . S
C739 C740 1.355 . S
C739 C741 1.415 . S
C740 C739 1.355 . S
C740 C742 1.419 . S
C741 C736 1.425 . S
C741 C738 1.409 . S
C741 C739 1.415 . S
C742 H732 0.930 . S
C742 C740 1.419 . S
C742 C743 1.362 . S
C743 H733 0.930 . S
C743 C736 1.409 . S
C743 C742 1.362 . S
H744 C750 0.930 . S
H745 C753 0.930 . S
H746 C754 0.930 . S
H747 C755 0.930 1_565 S
H748 C758 0.930 . S
H749 C759 0.930 . S
C750 H744 0.930 . S
C750 C751 1.355 . S
C750 C752 1.415 . S
C751 C750 1.355 . S
C751 C753 1.419 . S
C752 C750 1.415 . S
C752 C757 1.425 . S
C752 C759 1.409 . S
C753 H745 0.930 . S
C753 C751 1.419 . S
C753 C754 1.362 . S
C754 H746 0.930 . S
C754 C753 1.362 . S
C754 C757 1.409 . S
C755 H747 0.930 1_545 S
C755 C756 1.355 . S
C755 C757 1.415 . S
C756 C755 1.355 . S
C756 C758 1.419 . S
C757 C752 1.425 . S
C757 C754 1.409 . S
C757 C755 1.415 . S
C758 H748 0.930 . S
C758 C756 1.419 . S
C758 C759 1.362 . S
C759 H749 0.930 . S
C759 C752 1.409 . S
C759 C758 1.362 . S
H760 C766 0.930 . S
H761 C769 0.930 . S
H762 C770 0.930 . S
H763 C771 0.930 . S
H764 C774 0.930 . S
H765 C775 0.930 . S
C766 H760 0.930 . S
C766 C767 1.355 . S
C766 C768 1.415 . S
C767 C766 1.355 . S
C767 C769 1.419 . S
C768 C766 1.415 . S
C768 C773 1.425 . S
C768 C775 1.409 . S
C769 H761 0.930 . S
C769 C767 1.419 . S
C769 C770 1.362 . S
C770 H762 0.930 . S
C770 C769 1.362 . S
C770 C773 1.409 . S
C771 H763 0.930 . S
C771 C772 1.355 . S
C771 C773 1.415 . S
C772 C771 1.355 . S
C772 C774 1.419 . S
C773 C768 1.425 . S
C773 C770 1.409 . S
C773 C771 1.415 . S
C774 H764 0.930 . S
C774 C772 1.419 . S
C774 C775 1.362 . S
C775 H765 0.930 . S
C775 C768 1.409 . S
C775 C774 1.362 . S
H776 C782 0.930 . S
H777 C785 0.930 . S
H778 C786 0.930 . S
H779 C787 0.930 . S
H780 C790 0.930 . S
H781 C791 0.930 . S
C782 H776 0.930 . S
C782 C783 1.355 . S
C782 C784 1.415 . S
C783 C782 1.355 . S
C783 C785 1.419 . S
C784 C782 1.415 . S
C784 C789 1.425 1_545 S
C784 C791 1.409 . S
C785 H777 0.930 . S
C785 C783 1.419 . S
C785 C786 1.362 1_545 S
C786 H778 0.930 . S
C786 C785 1.362 1_565 S
C786 C789 1.409 . S
C787 H779 0.930 . S
C787 C788 1.355 . S
C787 C789 1.415 . S
C788 C787 1.355 . S
C788 C790 1.419 . S
C789 C784 1.425 1_565 S
C789 C786 1.409 . S
C789 C787 1.415 . S
C790 H780 0.930 . S
C790 C788 1.419 . S
C790 C791 1.362 1_565 S
C791 H781 0.930 . S
C791 C784 1.409 . S
C791 C790 1.362 1_545 S
H792 C798 0.930 . S
H793 C801 0.930 . S
H794 C802 0.930 . S
H795 C803 0.930 . S
H796 C806 0.930 . S
H797 C807 0.930 . S
C798 H792 0.930 . S
C798 C799 1.355 . S
C798 C800 1.415 . S
C799 C798 1.355 . S
C799 C801 1.419 . S
C800 C798 1.415 . S
C800 C805 1.425 . S
C800 C807 1.409 . S
C801 H793 0.930 . S
C801 C799 1.419 . S
C801 C802 1.362 . S
C802 H794 0.930 . S
C802 C801 1.362 . S
C802 C805 1.409 . S
C803 H795 0.930 . S
C803 C804 1.355 . S
C803 C805 1.415 . S
C804 C803 1.355 . S
C804 C806 1.419 . S
C805 C800 1.425 . S
C805 C802 1.409 . S
C805 C803 1.415 . S
C806 H796 0.930 . S
C806 C804 1.419 . S
C806 C807 1.362 . S
C807 H797 0.930 . S
C807 C800 1.409 . S
C807 C806 1.362 . S
H808 C814 0.930 . S
H809 C817 0.930 . S
H810 C818 0.930 . S
H811 C819 0.930 . S
H812 C822 0.930 . S
H813 C823 0.930 . S
C814 H808 0.930 . S
C814 C815 1.355 . S
C814 C816 1.415 . S
C815 C814 1.355 . S
C815 C817 1.419 . S
C816 C814 1.415 . S
C816 C821 1.425 . S
C816 C823 1.409 . S
C817 H809 0.930 . S
C817 C815 1.419 . S
C817 C818 1.362 . S
C818 H810 0.930 . S
C818 C817 1.362 . S
C818 C821 1.409 . S
C819 H811 0.930 . S
C819 C820 1.355 . S
C819 C821 1.415 . S
C820 C819 1.355 . S
C820 C822 1.419 . S
C821 C816 1.425 . S
C821 C818 1.409 . S
C821 C819 1.415 . S
C822 H812 0.930 . S
C822 C820 1.419 . S
C822 C823 1.362 . S
C823 H813 0.930 . S
C823 C816 1.409 . S
C823 C822 1.362 . S
H824 C830 0.930 . S
H825 C833 0.930 . S
H826 C834 0.930 . S
H827 C835 0.930 . S
H828 C838 0.930 . S
H829 C839 0.930 . S
C830 H824 0.930 . S
C830 C831 1.355 . S
C830 C832 1.415 . S
C831 C830 1.355 . S
C831 C833 1.419 . S
C832 C830 1.415 . S
C832 C837 1.425 . S
C832 C839 1.409 . S
C833 H825 0.930 . S
C833 C831 1.419 . S
C833 C834 1.362 . S
C834 H826 0.930 . S
C834 C833 1.362 . S
C834 C837 1.409 . S
C835 H827 0.930 . S
C835 C836 1.355 . S
C835 C837 1.415 . S
C836 C835 1.355 . S
C836 C838 1.419 . S
C837 C832 1.425 . S
C837 C834 1.409 . S
C837 C835 1.415 . S
C838 H828 0.930 . S
C838 C836 1.419 . S
C838 C839 1.362 . S
C839 H829 0.930 . S
C839 C832 1.409 . S
C839 C838 1.362 . S
H840 C846 0.930 . S
H841 C849 0.930 . S
H842 C850 0.930 . S
H843 C851 0.930 . S
H844 C854 0.930 . S
H845 C855 0.930 . S
C846 H840 0.930 . S
C846 C847 1.355 . S
C846 C848 1.415 . S
C847 C846 1.355 . S
C847 C849 1.419 . S
C848 C846 1.415 . S
C848 C853 1.425 . S
C848 C855 1.409 . S
C849 H841 0.930 . S
C849 C847 1.419 . S
C849 C850 1.362 . S
C850 H842 0.930 . S
C850 C849 1.362 . S
C850 C853 1.409 . S
C851 H843 0.930 . S
C851 C852 1.355 . S
C851 C853 1.415 . S
C852 C851 1.355 . S
C852 C854 1.419 . S
C853 C848 1.425 . S
C853 C850 1.409 . S
C853 C851 1.415 . S
C854 H844 0.930 . S
C854 C852 1.419 . S
C854 C855 1.362 . S
C855 H845 0.930 . S
C855 C848 1.409 . S
C855 C854 1.362 . S
H856 C862 0.930 . S
H857 C865 0.930 . S
H858 C866 0.930 . S
H859 C867 0.930 . S
H860 C870 0.930 . S
H861 C871 0.930 . S
C862 H856 0.930 . S
C862 C863 1.355 . S
C862 C864 1.415 . S
C863 C862 1.355 . S
C863 C865 1.419 . S
C864 C862 1.415 . S
C864 C869 1.425 . S
C864 C871 1.409 . S
C865 H857 0.930 . S
C865 C863 1.419 . S
C865 C866 1.362 . S
C866 H858 0.930 . S
C866 C865 1.362 . S
C866 C869 1.409 . S
C867 H859 0.930 . S
C867 C868 1.355 . S
C867 C869 1.415 . S
C868 C867 1.355 . S
C868 C870 1.419 . S
C869 C864 1.425 . S
C869 C866 1.409 . S
C869 C867 1.415 . S
C870 H860 0.930 . S
C870 C868 1.419 . S
C870 C871 1.362 . S
C871 H861 0.930 . S
C871 C864 1.409 . S
C871 C870 1.362 . S
H872 C878 0.930 . S
H873 C881 0.930 . S
H874 C882 0.930 . S
H875 C883 0.930 . S
H876 C886 0.930 . S
H877 C887 0.930 . S
C878 H872 0.930 . S
C878 C879 1.355 . S
C878 C880 1.415 . S
C879 C878 1.355 . S
C879 C881 1.419 . S
C880 C878 1.415 . S
C880 C885 1.425 . S
C880 C887 1.409 . S
C881 H873 0.930 . S
C881 C879 1.419 . S
C881 C882 1.362 . S
C882 H874 0.930 . S
C882 C881 1.362 . S
C882 C885 1.409 . S
C883 H875 0.930 . S
C883 C884 1.355 . S
C883 C885 1.415 . S
C884 C883 1.355 . S
C884 C886 1.419 . S
C885 C880 1.425 . S
C885 C882 1.409 . S
C885 C883 1.415 . S
C886 H876 0.930 . S
C886 C884 1.419 . S
C886 C887 1.362 . S
C887 H877 0.930 . S
C887 C880 1.409 . S
C887 C886 1.362 . S
H888 C894 0.930 . S
H889 C897 0.930 . S
H890 C898 0.930 . S
H891 C899 0.930 . S
H892 C902 0.930 1_655 S
H893 C903 0.930 . S
C894 H888 0.930 . S
C894 C895 1.355 . S
C894 C896 1.415 . S
C895 C894 1.355 . S
C895 C897 1.419 . S
C896 C894 1.415 . S
C896 C901 1.425 . S
C896 C903 1.409 . S
C897 H889 0.930 . S
C897 C895 1.419 . S
C897 C898 1.362 . S
C898 H890 0.930 . S
C898 C897 1.362 . S
C898 C901 1.409 . S
C899 H891 0.930 . S
C899 C900 1.355 . S
C899 C901 1.415 . S
C900 C899 1.355 . S
C900 C902 1.419 . S
C901 C896 1.425 . S
C901 C898 1.409 . S
C901 C899 1.415 . S
C902 H892 0.930 1_455 S
C902 C900 1.419 . S
C902 C903 1.362 . S
C903 H893 0.930 . S
C903 C896 1.409 . S
C903 C902 1.362 . S
H904 C910 0.930 . S
H905 C913 0.930 . S
H906 C914 0.930 . S
H907 C915 0.930 . S
H908 C918 0.930 . S
H909 C919 0.930 . S
C910 H904 0.930 . S
C910 C911 1.355 . S
C910 C912 1.415 . S
C911 C910 1.355 . S
C911 C913 1.419 . S
C912 C910 1.415 . S
C912 C917 1.425 . S
C912 C919 1.409 . S
C913 H905 0.930 . S
C913 C911 1.419 . S
C913 C914 1.362 . S
C914 H906 0.930 . S
C914 C913 1.362 . S
C914 C917 1.409 . S
C915 H907 0.930 . S
C915 C916 1.355 . S
C915 C917 1.415 . S
C916 C915 1.355 . S
C916 C918 1.419 . S
C917 C912 1.425 . S
C917 C914 1.409 . S
C917 C915 1.415 . S
C918 H908 0.930 . S
C918 C916 1.419 . S
C918 C919 1.362 . S
C919 H909 0.930 . S
C919 C912 1.409 . S
C919 C918 1.362 . S
H920 C926 0.930 . S
H921 C929 0.930 . S
H922 C930 0.930 . S
H923 C931 0.930 . S
H924 C934 0.930 . S
H925 C935 0.930 . S
C926 H920 0.930 . S
C926 C927 1.355 . S
C926 C928 1.415 . S
C927 C926 1.355 . S
C927 C929 1.419 . S
C928 C926 1.415 . S
C928 C933 1.425 . S
C928 C935 1.409 . S
C929 H921 0.930 . S
C929 C927 1.419 . S
C929 C930 1.362 . S
C930 H922 0.930 . S
C930 C929 1.362 . S
C930 C933 1.409 . S
C931 H923 0.930 . S
C931 C932 1.355 . S
C931 C933 1.415 . S
C932 C931 1.355 . S
C932 C934 1.419 . S
C933 C928 1.425 . S
C933 C930 1.409 . S
C933 C931 1.415 . S
C934 H924 0.930 . S
C934 C932 1.419 . S
C934 C935 1.362 . S
C935 H925 0.930 . S
C935 C928 1.409 . S
C935 C934 1.362 . S
H936 C942 0.930 . S
H937 C945 0.930 . S
H938 C946 0.930 . S
H939 C947 0.930 . S
H940 C950 0.930 . S
H941 C951 0.930 . S
C942 H936 0.930 . S
C942 C943 1.355 . S
C942 C944 1.415 . S
C943 C942 1.355 . S
C943 C945 1.419 . S
C944 C942 1.415 . S
C944 C949 1.425 . S
C944 C951 1.409 . S
C945 H937 0.930 . S
C945 C943 1.419 . S
C945 C946 1.362 . S
C946 H938 0.930 . S
C946 C945 1.362 . S
C946 C949 1.409 . S
C947 H939 0.930 . S
C947 C948 1.355 . S
C947 C949 1.415 . S
C948 C947 1.355 . S
C948 C950 1.419 . S
C949 C944 1.425 . S
C949 C946 1.409 . S
C949 C947 1.415 . S
C950 H940 0.930 . S
C950 C948 1.419 . S
C950 C951 1.362 . S
C951 H941 0.930 . S
C951 C944 1.409 . S
C951 C950 1.362 . S
H952 C958 0.930 . S
H953 C961 0.930 . S
H954 C962 0.930 1_545 S
H955 C963 0.930 1_545 S
H956 C966 0.930 . S
H957 C967 0.930 . S
C958 H952 0.930 . S
C958 C959 1.355 . S
C958 C960 1.415 . S
C959 C958 1.355 . S
C959 C961 1.419 . S
C960 C958 1.415 . S
C960 C965 1.425 . S
C960 C967 1.409 . S
C961 H953 0.930 . S
C961 C959 1.419 . S
C961 C962 1.362 . S
C962 H954 0.930 1_565 S
C962 C961 1.362 . S
C962 C965 1.409 . S
C963 H955 0.930 1_565 S
C963 C964 1.355 . S
C963 C965 1.415 . S
C964 C963 1.355 . S
C964 C966 1.419 . S
C965 C960 1.425 . S
C965 C962 1.409 . S
C965 C963 1.415 . S
C966 H956 0.930 . S
C966 C964 1.419 . S
C966 C967 1.362 . S
C967 H957 0.930 . S
C967 C960 1.409 . S
C967 C966 1.362 . S
H968 C974 0.930 1_565 S
H969 C977 0.930 . S
H970 C978 0.930 . S
H971 C979 0.930 . S
H972 C982 0.930 1_455 S
H973 C983 0.930 . S
C974 H968 0.930 1_545 S
C974 C975 1.355 1_545 S
C974 C976 1.415 . S
C975 C974 1.355 1_565 S
C975 C977 1.419 1_565 S
C976 C974 1.415 . S
C976 C981 1.425 . S
C976 C983 1.409 . S
C977 H969 0.930 . S
C977 C975 1.419 1_545 S
C977 C978 1.362 . S
C978 H970 0.930 . S
C978 C977 1.362 . S
C978 C981 1.409 . S
C979 H971 0.930 . S
C979 C980 1.355 1_655 S
C979 C981 1.415 . S
C980 C979 1.355 1_455 S
C980 C982 1.419 1_455 S
C981 C976 1.425 . S
C981 C978 1.409 . S
C981 C979 1.415 . S
C982 H972 0.930 1_655 S
C982 C980 1.419 1_655 S
C982 C983 1.362 . S
C983 H973 0.930 . S
C983 C976 1.409 . S
C983 C982 1.362 . S
C415 C13 1.308 . S
C420 C382 1.315 . S
C431 C319 1.543 . S
C436 C47 1.630 . S
C447 C76 2.500 1_554 S
C452 C280 2.504 . S
C463 C115 1.817 1_565 S
C468 C353 1.816 . S
C479 C149 1.514 . S
C484 C348 1.465 . S
C495 C183 1.467 . S
C500 C387 1.444 . S
C511 C314 1.763 1_565 S
C516 C217 1.785 . S
C527 C246 2.294 . S
C532 C285 2.275 . S
C543 C110 2.523 . S
C548 C144 2.553 . S
C559 C8 2.477 . S
C564 C178 2.417 . S
C575 C42 2.518 . S
C580 C212 2.546 . S
C591 C251 0.534 . S
C596 C81 0.577 . S
C607 C29 1.993 . S
C612 C289 1.962 . S
C623 C63 0.812 . S
C628 C344 0.753 . S
C639 C391 1.375 . S
C644 C68 1.442 . S
C655 C131 0.624 . S
C660 C310 0.622 . S
C671 C165 1.516 . S
C676 C323 1.519 . S
C687 C276 1.153 . S
C692 C199 1.204 . S
C703 C357 1.267 . S
C708 C233 1.276 . S
C719 C378 0.848 . S
C724 C238 0.850 . S
C735 C17 1.489 . S
C740 C102 1.461 . S
C751 C0 1.891 . S
C756 C51 1.868 1_545 S
C767 C34 0.679 . S
C772 C72 0.700 . S
C783 C119 1.594 . S
C788 C97 1.611 . S
C799 C170 1.681 . S
C804 C153 1.727 . S
C815 C187 1.733 . S
C820 C204 1.721 . S
C831 C221 1.344 . S
C836 C267 1.295 . S
C847 C136 1.237 . S
C852 C242 1.233 . S
C863 C301 0.803 . S
C868 C106 0.833 . S
C879 C174 0.484 . S
C884 C335 0.519 . S
C895 C272 1.130 . S
C900 C208 1.189 . S
C911 C369 0.713 . S
C916 C255 0.686 . S
C927 C140 1.190 . S
C932 C374 1.187 . S
C943 C403 0.954 . S
C948 C38 0.938 . S
C959 C85 1.121 . S
C964 C306 1.111 1_565 S
C975 C340 0.862 . S
C980 C4 0.821 . S
