# Generated by pormake.
# Topology smk, (6)-cn, num edge types: 1
# Building blocks:
#     Node 0, Type 0, BuildingBlock: VOLQOD_clean_sbu_1, # of connection points: 6
#     Node 1, Type 0, BuildingBlock: VOLQOD_clean_sbu_1, # of connection points: 6
#     Node 2, Type 0, BuildingBlock: VOLQOD_clean_sbu_1, # of connection points: 6
#     Node 3, Type 0, BuildingBlock: VOLQOD_clean_sbu_1, # of connection points: 6
#     Node 4, Type 0, BuildingBlock: VOLQOD_clean_sbu_1, # of connection points: 6
#     Node 5, Type 0, BuildingBlock: VOLQOD_clean_sbu_1, # of connection points: 6
#     Edge 6, Type (0, 0), BuildingBlock: XIVTED_clean_linker_0, # of connection points: 2
#     Edge 7, Type (0, 0), BuildingBlock: XIVTED_clean_linker_0, # of connection points: 2
#     Edge 8, Type (0, 0), BuildingBlock: XIVTED_clean_linker_0, # of connection points: 2
#     Edge 9, Type (0, 0), BuildingBlock: XIVTED_clean_linker_0, # of connection points: 2
#     Edge 10, Type (0, 0), BuildingBlock: XIVTED_clean_linker_0, # of connection points: 2
#     Edge 11, Type (0, 0), BuildingBlock: XIVTED_clean_linker_0, # of connection points: 2
#     Edge 12, Type (0, 0), BuildingBlock: XIVTED_clean_linker_0, # of connection points: 2
#     Edge 13, Type (0, 0), BuildingBlock: XIVTED_clean_linker_0, # of connection points: 2
#     Edge 14, Type (0, 0), BuildingBlock: XIVTED_clean_linker_0, # of connection points: 2
#     Edge 15, Type (0, 0), BuildingBlock: XIVTED_clean_linker_0, # of connection points: 2
#     Edge 16, Type (0, 0), BuildingBlock: XIVTED_clean_linker_0, # of connection points: 2
#     Edge 17, Type (0, 0), BuildingBlock: XIVTED_clean_linker_0, # of connection points: 2
#     Edge 18, Type (0, 0), BuildingBlock: XIVTED_clean_linker_0, # of connection points: 2
#     Edge 19, Type (0, 0), BuildingBlock: XIVTED_clean_linker_0, # of connection points: 2
#     Edge 20, Type (0, 0), BuildingBlock: XIVTED_clean_linker_0, # of connection points: 2
#     Edge 21, Type (0, 0), BuildingBlock: XIVTED_clean_linker_0, # of connection points: 2
#     Edge 22, Type (0, 0), BuildingBlock: XIVTED_clean_linker_0, # of connection points: 2
#     Edge 23, Type (0, 0), BuildingBlock: XIVTED_clean_linker_0, # of connection points: 2
# Relax obj value: 0.161
# Max RMSD: 0.171
# Mean RMSD: 0.170
data_MOF--net-smk--node1-VOLQOD_clean_sbu_1--edge1-XIVTED_clean_linker_0
_symmetry_space_group_name_H-M    P1
_symmetry_Int_Tables_number       1
_symmetry_cell_setting            triclinic
loop_
_symmetry_equiv_pos_as_xyz
'x, y, z'
_cell_length_a     44.742428
_cell_length_b     44.754213
_cell_length_c     17.202704
_cell_angle_alpha  90.020829
_cell_angle_beta   90.003434
_cell_angle_gamma 119.97442
loop_
_atom_site_label
_atom_site_type_symbol
_atom_site_fract_x
_atom_site_fract_y
_atom_site_fract_z
_atom_type_partial_charge
O0 O 0.44244 0.24466 0.74524 0.0
Zn1 Zn 0.43615 0.25084 0.6304 0.0
O2 O 0.42297 0.2087 0.57364 0.0
Zn3 Zn 0.45985 0.21462 0.50712 0.0
Zn4 Zn 0.41435 0.17385 0.64832 0.0
Zn5 Zn 0.3818 0.19424 0.51231 0.0
O6 O 0.44344 0.20059 0.39748 0.0
O7 O 0.39516 0.20354 0.39989 0.0
O8 O 0.47782 0.29223 0.58106 0.0
O9 O 0.49273 0.26468 0.49613 0.0
O10 O 0.48621 0.19303 0.5529 0.0
O11 O 0.45606 0.16846 0.65978 0.0
O12 O 0.37415 0.12869 0.61658 0.0
O13 O 0.39606 0.25884 0.62694 0.0
O14 O 0.35027 0.14269 0.52059 0.0
O15 O 0.35696 0.21929 0.54768 0.0
C16 C 0.42341 0.21739 0.78441 0.0
C17 C 0.4191 0.20217 0.36262 0.0
C18 C 0.48217 0.17683 0.61658 0.0
C19 C 0.49718 0.29255 0.52618 0.0
C20 C 0.35098 0.1202 0.56473 0.0
C21 C 0.36658 0.2447 0.59418 0.0
O22 O 0.40612 0.18807 0.75183 0.0
O23 O 0.18831 0.44421 0.89009 0.0
Zn24 Zn 0.1765 0.43745 0.77461 0.0
O25 O 0.20655 0.42504 0.71955 0.0
Zn26 Zn 0.23728 0.46201 0.65259 0.0
Zn27 Zn 0.23287 0.41732 0.79573 0.0
Zn28 Zn 0.18105 0.38334 0.65929 0.0
O29 O 0.23487 0.44541 0.5427 0.0
O30 O 0.18467 0.39604 0.54657 0.0
O31 O 0.17625 0.47871 0.72415 0.0
O32 O 0.21947 0.49439 0.64102 0.0
O33 O 0.28525 0.48911 0.69893 0.0
O34 O 0.27944 0.45935 0.80664 0.0
O35 O 0.23919 0.37775 0.76641 0.0
O36 O 0.12873 0.39669 0.76989 0.0
O37 O 0.20237 0.35292 0.66906 0.0
O38 O 0.13127 0.35756 0.69457 0.0
C39 C 0.1974 0.42612 0.93043 0.0
C40 C 0.20931 0.42032 0.50856 0.0
C41 C 0.2972 0.48535 0.76329 0.0
C42 C 0.19553 0.49834 0.66991 0.0
C43 C 0.22553 0.35442 0.71462 0.0
C44 C 0.11445 0.36688 0.73863 0.0
O45 O 0.21031 0.40938 0.89898 0.0
O46 O 0.74432 0.19301 0.07645 0.0
Zn47 Zn 0.73724 0.17943 0.96258 0.0
O48 O 0.77872 0.20851 0.90422 0.0
Zn49 Zn 0.77152 0.23865 0.838 0.0
Zn50 Zn 0.81423 0.23549 0.97715 0.0
Zn51 Zn 0.79302 0.18184 0.84253 0.0
O52 O 0.78562 0.2365 0.72842 0.0
O53 O 0.78292 0.18539 0.73049 0.0
O54 O 0.69489 0.17833 0.91448 0.0
O55 O 0.72118 0.22023 0.82779 0.0
O56 O 0.79237 0.2866 0.88348 0.0
O57 O 0.81884 0.28224 -0.0116 0.0
O58 O 0.85955 0.24134 0.94259 0.0
O59 O 0.73036 0.13176 0.96113 0.0
O60 O 0.84462 0.20255 0.84836 0.0
O61 O 0.76913 0.13225 0.87926 0.0
C62 C 0.77189 0.20164 0.11487 0.0
C63 C 0.78417 0.21067 0.69343 0.0
C64 C 0.80933 0.29932 0.94611 0.0
C65 C 0.69374 0.19665 0.85897 0.0
C66 C 0.86759 0.22644 0.89033 0.0
C67 C 0.74455 0.11659 0.92776 0.0
O68 O 0.80103 0.21351 0.08143 0.0
O69 O 0.54079 0.74328 0.23437 0.0
Zn70 Zn 0.54765 0.73739 0.11962 0.0
O71 O 0.56101 0.77991 0.06392 0.0
Zn72 Zn 0.52516 0.77465 -0.00523 0.0
Zn73 Zn 0.56899 0.81559 0.13593 0.0
Zn74 Zn 0.60192 0.79343 0.00214 0.0
O75 O 0.54357 0.7914 0.88778 0.0
O76 O 0.58805 0.78219 0.88997 0.0
O77 O 0.50624 0.69644 0.06734 0.0
O78 O 0.49329 0.72467 0.97978 0.0
O79 O 0.49739 0.79519 0.03782 0.0
O80 O 0.52907 0.82397 0.1395 0.0
O81 O 0.61149 0.85951 0.10803 0.0
O82 O 0.58766 0.72919 0.11764 0.0
O83 O 0.6337 0.8451 0.00906 0.0
O84 O 0.62696 0.76894 0.03935 0.0
C85 C 0.55518 0.77104 0.2744 0.0
C86 C 0.56592 0.7866 0.85266 0.0
C87 C 0.50235 0.81395 0.09757 0.0
C88 C 0.48816 0.69657 0.00997 0.0
C89 C 0.63423 0.86764 0.05526 0.0
C90 C 0.61731 0.74354 0.08575 0.0
O91 O 0.57102 0.80068 0.24279 0.0
O92 O 0.79378 0.54499 0.40269 0.0
Zn93 Zn 0.80642 0.55221 0.28788 0.0
O94 O 0.7767 0.56461 0.23165 0.0
Zn95 Zn 0.74656 0.52772 0.16413 0.0
Zn96 Zn 0.7498 0.57187 0.30704 0.0
Zn97 Zn 0.80238 0.60638 0.17169 0.0
O98 O 0.74872 0.54452 0.05481 0.0
O99 O 0.79902 0.59378 0.05887 0.0
O100 O 0.80758 0.51136 0.23744 0.0
O101 O 0.76523 0.49612 0.152 0.0
O102 O 0.69867 0.49982 0.20991 0.0
O103 O 0.70351 0.52936 0.31747 0.0
O104 O 0.74308 0.61111 0.27691 0.0
O105 O 0.85384 0.59338 0.28555 0.0
O106 O 0.78067 0.63648 0.18112 0.0
O107 O 0.85214 0.63233 0.20791 0.0
C108 C 0.78477 0.56325 0.44262 0.0
C109 C 0.7743 0.56959 0.02079 0.0
C110 C 0.68629 0.50323 0.27398 0.0
C111 C 0.789 0.49216 0.18183 0.0
C112 C 0.75702 0.63461 0.22561 0.0
C113 C 0.86841 0.62312 0.25402 0.0
O114 O 0.77215 0.58014 0.41068 0.0
O115 O 0.24234 0.79734 0.56111 0.0
Zn116 Zn 0.24832 0.81059 0.44672 0.0
O117 O 0.20626 0.78119 0.38994 0.0
Zn118 Zn 0.21285 0.75182 0.31987 0.0
Zn119 Zn 0.17076 0.75227 0.46091 0.0
Zn120 Zn 0.19186 0.80815 0.329 0.0
O121 O 0.19499 0.75278 0.2138 0.0
O122 O 0.20325 0.80611 0.2165 0.0
O123 O 0.29017 0.81194 0.39437 0.0
O124 O 0.26306 0.77197 0.3037 0.0
O125 O 0.19445 0.70373 0.3625 0.0
O126 O 0.16434 0.7047 0.46365 0.0
O127 O 0.12621 0.74939 0.43242 0.0
O128 O 0.25508 0.85814 0.44646 0.0
O129 O 0.13997 0.78702 0.33582 0.0
O130 O 0.21536 0.85756 0.36768 0.0
C131 C 0.2144 0.78342 0.60051 0.0
C132 C 0.19914 0.77973 0.17893 0.0
C133 C 0.1757 0.68914 0.42179 0.0
C134 C 0.29077 0.79502 0.33514 0.0
C135 C 0.11763 0.76407 0.38075 0.0
C136 C 0.24041 0.87323 0.4151 0.0
O137 O 0.18487 0.76914 0.56819 0.0
H138 H 0.47501 0.22521 0.26683 0.0
H139 H 0.36847 0.17772 0.87627 0.0
H140 H 0.36511 0.18612 0.2647 0.0
H141 H 0.47461 0.25959 0.88541 0.0
H142 H 0.36715 0.17552 0.01816 0.0
H143 H 0.4761 0.23239 0.1255 0.0
C144 C 0.45108 0.21787 0.23653 0.0
C145 C 0.41986 0.20485 0.27726 0.0
C146 C 0.39061 0.19419 -0.01084 0.0
C147 C 0.42104 0.21309 0.11648 0.0
C148 C 0.39142 0.19542 0.90839 0.0
C149 C 0.42173 0.21883 0.86951 0.0
C150 C 0.42057 0.21597 0.0312 0.0
C151 C 0.45073 0.24131 0.91354 0.0
C152 C 0.45182 0.22233 0.15621 0.0
C153 C 0.3897 0.1962 0.23542 0.0
N154 N 0.44961 0.23899 -0.00758 0.0
N155 N 0.39099 0.20021 0.15708 0.0
H156 H 0.17293 0.36524 0.41251 0.0
H157 H 0.20418 0.47722 0.02944 0.0
H158 H 0.23909 0.47589 0.41089 0.0
H159 H 0.18443 0.37249 0.02458 0.0
H160 H 0.20582 0.47595 0.1724 0.0
H161 H 0.16648 0.36643 0.27148 0.0
C162 C 0.18617 0.38975 0.3824 0.0
C163 C 0.20684 0.42047 0.42316 0.0
C164 C 0.20089 0.45325 0.1397 0.0
C165 C 0.19895 0.42205 0.26266 0.0
C166 C 0.19966 0.45386 0.05854 0.0
C167 C 0.19437 0.42498 0.01564 0.0
C168 C 0.19606 0.42333 0.17749 0.0
C169 C 0.18889 0.39539 0.05575 0.0
C170 C 0.18245 0.3904 0.30214 0.0
C171 C 0.22331 0.45157 0.38141 0.0
N172 N 0.18982 0.39529 0.13449 0.0
N173 N 0.21884 0.45162 0.30328 0.0
H174 H 0.81361 0.1893 0.20739 0.0
H175 H 0.76023 0.24269 0.5977 0.0
H176 H 0.72829 0.20856 0.21538 0.0
H177 H 0.8022 0.17429 0.59559 0.0
H178 H 0.75429 0.23747 0.45603 0.0
H179 H 0.81527 0.18984 0.34937 0.0
C180 C 0.79511 0.19346 0.23922 0.0
C181 C 0.77083 0.19899 0.20002 0.0
C182 C 0.76471 0.22359 0.48683 0.0
C183 C 0.773 0.20022 0.36172 0.0
C184 C 0.76844 0.22681 0.56732 0.0
C185 C 0.78191 0.20902 0.6081 0.0
C186 C 0.77517 0.20301 0.44704 0.0
C187 C 0.79171 0.18842 0.56621 0.0
C188 C 0.79602 0.19366 0.32002 0.0
C189 C 0.7473 0.20407 0.24373 0.0
N190 N 0.78843 0.1862 0.4877 0.0
N191 N 0.74926 0.20504 0.32262 0.0
H192 H 0.54645 0.8149 0.36619 0.0
H193 H 0.59264 0.75606 0.75952 0.0
H194 H 0.55868 0.72526 0.37518 0.0
H195 H 0.53495 0.80975 0.75187 0.0
H196 H 0.58679 0.74886 0.61802 0.0
H197 H 0.54769 0.81729 0.50773 0.0
C198 C 0.54921 0.79557 0.39831 0.0
C199 C 0.55259 0.76989 0.35948 0.0
C200 C 0.57538 0.7621 0.64763 0.0
C201 C 0.55457 0.77282 0.52107 0.0
C202 C 0.57899 0.76655 0.72804 0.0
C203 C 0.56441 0.78371 0.76729 0.0
C204 C 0.5576 0.77544 0.60643 0.0
C205 C 0.54663 0.79641 0.72391 0.0
C206 C 0.54982 0.79691 0.47892 0.0
C207 C 0.55586 0.74533 0.40343 0.0
N208 N 0.54393 0.79222 0.64568 0.0
N209 N 0.55725 0.74765 0.48238 0.0
H210 H 0.77871 0.51254 0.54177 0.0
H211 H 0.81036 0.6247 0.92466 0.0
H212 H 0.79699 0.61677 0.53663 0.0
H213 H 0.74455 0.514 0.92333 0.0
H214 H 0.81634 0.62345 0.78342 0.0
H215 H 0.77752 0.51405 0.68469 0.0
C216 C 0.78295 0.53583 0.57079 0.0
C217 C 0.78772 0.56449 0.52782 0.0
C218 C 0.80056 0.59948 0.81422 0.0
C219 C 0.7866 0.56644 0.68964 0.0
C220 C 0.79711 0.60017 0.89457 0.0
C221 C 0.77666 0.56945 0.93542 0.0
C222 C 0.78402 0.5678 0.77482 0.0
C223 C 0.76017 0.53832 0.89375 0.0
C224 C 0.78201 0.53658 0.65193 0.0
C225 C 0.79291 0.59402 0.56785 0.0
N226 N 0.76437 0.53824 0.81557 0.0
N227 N 0.79228 0.59427 0.6466 0.0
H228 H 0.22928 0.83689 0.08555 0.0
H229 H 0.17007 0.73125 0.69262 0.0
H230 H 0.17547 0.72556 0.07833 0.0
H231 H 0.26002 0.83288 0.70124 0.0
H232 H 0.16741 0.73052 0.83411 0.0
H233 H 0.2361 0.83805 0.9439 0.0
C234 C 0.21866 0.81273 0.05413 0.0
C235 C 0.20163 0.78105 0.09352 0.0
C236 C 0.18791 0.75289 0.80522 0.0
C237 C 0.20945 0.7823 0.93257 0.0
C238 C 0.1894 0.75337 0.72462 0.0
C239 C 0.21527 0.78223 0.68568 0.0
C240 C 0.21205 0.78175 0.84724 0.0
C241 C 0.23981 0.81013 0.72955 0.0
C242 C 0.22289 0.81346 0.97364 0.0
C243 C 0.18875 0.75053 0.05024 0.0
N244 N 0.23736 0.80942 0.80847 0.0
N245 N 0.19273 0.75192 0.97198 0.0
H246 H 0.33924 0.0662 0.65807 0.0
H247 H 0.22677 0.92062 0.34485 0.0
H248 H 0.3082 0.08967 0.43931 0.0
H249 H 0.27997 0.90751 0.53985 0.0
H250 H 0.24761 0.98038 0.38684 0.0
H251 H 0.30715 0.00522 0.62542 0.0
C252 C 0.32535 0.05851 0.60345 0.0
C253 C 0.32688 0.08315 0.5508 0.0
C254 C 0.25451 0.96424 0.42032 0.0
C255 C 0.29035 0.01319 0.51252 0.0
C256 C 0.24269 0.93023 0.39643 0.0
C257 C 0.25198 0.90918 0.43837 0.0
C258 C 0.27528 0.9769 0.48704 0.0
C259 C 0.27251 0.92286 0.50497 0.0
C260 C 0.3071 0.02364 0.58469 0.0
C261 C 0.30791 0.07155 0.48136 0.0
N262 N 0.28343 0.95576 0.52707 0.0
N263 N 0.29073 0.03733 0.46369 0.0
H264 H 0.3727 0.28701 0.71402 0.0
H265 H 0.21353 0.30959 0.59334 0.0
H266 H 0.30605 0.23108 0.52152 0.0
H267 H 0.27024 0.34658 0.80837 0.0
H268 H 0.24473 0.27864 0.56642 0.0
H269 H 0.33413 0.30826 0.74834 0.0
C270 C 0.34994 0.27923 0.67867 0.0
C271 C 0.34277 0.25742 0.61431 0.0
C272 C 0.24994 0.2932 0.61989 0.0
C273 C 0.29813 0.28174 0.65379 0.0
C274 C 0.23209 0.31077 0.63546 0.0
C275 C 0.23963 0.33112 0.70274 0.0
C276 C 0.27551 0.29619 0.67185 0.0
C277 C 0.26388 0.33166 0.75525 0.0
C278 C 0.32772 0.29123 0.69872 0.0
C279 C 0.3126 0.24795 0.57144 0.0
N280 N 0.28115 0.31479 0.73826 0.0
N281 N 0.29145 0.26042 0.5916 0.0
H282 H 0.89574 0.20873 0.76918 0.0
H283 H 0.07314 0.30049 0.68512 0.0
H284 H 0.92355 0.27585 0.9691 0.0
H285 H 0.07283 0.37693 0.83802 0.0
H286 H 0.01364 0.26014 0.72349 0.0
H287 H 0.95604 0.23858 0.72895 0.0
C288 C 0.91463 0.22923 0.80561 0.0
C289 C 0.90446 0.23999 0.87232 0.0
C290 C 0.02639 0.28588 0.74776 0.0
C291 C 0.97372 0.27418 0.82692 0.0
C292 C 0.06048 0.30891 0.72609 0.0
C293 C 0.07798 0.34229 0.75782 0.0
C294 C 0.00982 0.29643 0.80152 0.0
C295 C 0.06043 0.35163 0.81143 0.0
C296 C 0.94921 0.24624 0.78264 0.0
C297 C 0.93006 0.26681 0.91693 0.0
N298 N 0.02745 0.32882 0.83158 0.0
N299 N 0.96336 0.2832 0.89287 0.0
H300 H 0.67617 0.89849 0.92875 0.0
H301 H 0.70777 0.08256 0.05573 0.0
H302 H 0.64849 0.92116 0.15264 0.0
H303 H 0.75547 0.06872 0.8511 0.0
H304 H 0.6878 0.02326 0.09238 0.0
H305 H 0.70856 0.96046 0.90065 0.0
C306 C 0.67743 0.91647 0.97256 0.0
C307 C 0.6591 0.9046 0.04265 0.0
C308 C 0.70277 0.03308 0.0396 0.0
C309 C 0.69564 0.9752 0.01051 0.0
C310 C 0.71399 0.06698 0.01824 0.0
C311 C 0.73299 0.08054 0.9497 0.0
C312 C 0.71013 0.01219 -0.00827 0.0
C313 C 0.74072 0.0592 0.90423 0.0
C314 C 0.69581 0.9518 0.95633 0.0
C315 C 0.6617 0.92905 0.09731 0.0
N316 N 0.72892 0.02585 0.92564 0.0
N317 N 0.67922 0.96309 0.07966 0.0
H318 H 0.71206 0.64252 0.31839 0.0
H319 H 0.67898 0.75886 0.01659 0.0
H320 H 0.76882 0.67883 0.10334 0.0
H321 H 0.61059 0.70049 0.20454 0.0
H322 H 0.71789 0.73764 0.05577 0.0
H323 H 0.68151 0.67316 0.28752 0.0
C324 C 0.7184 0.65725 0.26496 0.0
C325 C 0.7427 0.65767 0.21283 0.0
C326 C 0.69437 0.72964 0.08829 0.0
C327 C 0.7074 0.69261 0.17665 0.0
C328 C 0.67216 0.74167 0.06598 0.0
C329 C 0.64133 0.7312 0.10692 0.0
C330 C 0.68577 0.7074 0.15242 0.0
C331 C 0.63385 0.709 0.17064 0.0
C332 C 0.70081 0.67466 0.24721 0.0
C333 C 0.75011 0.67762 0.14496 0.0
N334 N 0.65588 0.69792 0.19132 0.0
N335 N 0.73221 0.69404 0.12832 0.0
H336 H 0.90347 0.61939 0.37891 0.0
H337 H 0.08612 0.7752 0.25543 0.0
H338 H 0.91537 0.68306 0.1796 0.0
H339 H 0.06439 0.72303 0.47691 0.0
H340 H 0.02407 0.74478 0.22733 0.0
H341 H 0.96278 0.65889 0.41516 0.0
C342 C 0.91863 0.64171 0.34248 0.0
C343 C 0.90451 0.64772 0.27557 0.0
C344 C 0.03295 0.74046 0.28249 0.0
C345 C 0.97289 0.69343 0.31719 0.0
C346 C 0.06832 0.75788 0.29872 0.0
C347 C 0.0805 0.75121 0.36812 0.0
C348 C 0.00984 0.71621 0.33596 0.0
C349 C 0.05629 0.72857 0.4221 0.0
C350 C 0.95253 0.66448 0.36364 0.0
C351 C 0.92533 0.67741 0.23146 0.0
N352 N 0.02223 0.71164 0.40446 0.0
N353 N 0.95871 0.69906 0.25263 0.0
H354 H 0.52028 0.35956 0.57525 0.0
H355 H 0.64539 0.43996 0.2072 0.0
H356 H 0.53387 0.3004 0.3943 0.0
H357 H 0.65246 0.50047 0.40934 0.0
H358 H 0.59688 0.3899 0.26715 0.0
H359 H 0.56282 0.41278 0.50923 0.0
C360 C 0.5322 0.35772 0.52204 0.0
C361 C 0.52364 0.32541 0.49077 0.0
C362 C 0.60887 0.41421 0.29819 0.0
C363 C 0.57157 0.38588 0.41456 0.0
C364 C 0.63647 0.4429 0.26369 0.0
C365 C 0.65337 0.47442 0.30357 0.0
C366 C 0.598 0.41695 0.37319 0.0
C367 C 0.64044 0.4766 0.37667 0.0
C368 C 0.55634 0.38804 0.48432 0.0
C369 C 0.53975 0.32459 0.42128 0.0
N370 N 0.61371 0.44815 0.40949 0.0
N371 N 0.56277 0.35427 0.38568 0.0
H372 H 0.15037 0.52032 0.71644 0.0
H373 H 0.20035 0.65003 0.35555 0.0
H374 H 0.22537 0.53587 0.53958 0.0
H375 H 0.14124 0.65236 0.55162 0.0
H376 H 0.20124 0.60083 0.41358 0.0
H377 H 0.13989 0.56298 0.65026 0.0
C378 C 0.16465 0.53268 0.66407 0.0
C379 C 0.189 0.52466 0.63408 0.0
C380 C 0.18781 0.61191 0.44368 0.0
C381 C 0.17673 0.57278 0.55768 0.0
C382 C 0.18711 0.63991 0.41022 0.0
C383 C 0.17108 0.6557 0.4491 0.0
C384 C 0.17245 0.59954 0.51668 0.0
C385 C 0.15418 0.64122 0.5198 0.0
C386 C 0.15858 0.55689 0.62623 0.0
C387 C 0.20658 0.54132 0.56561 0.0
N388 N 0.15561 0.61417 0.55175 0.0
N389 N 0.20006 0.56444 0.52994 0.0
H390 H 0.62744 0.15594 0.91609 0.0
H391 H 0.54303 0.19331 0.54436 0.0
H392 H 0.68413 0.22028 0.72129 0.0
H393 H 0.48602 0.149 0.75611 0.0
H394 H 0.59281 0.19341 0.60176 0.0
H395 H 0.57341 0.14489 0.85305 0.0
C396 C 0.62856 0.1677 0.86036 0.0
C397 C 0.66042 0.18937 0.82448 0.0
C398 C 0.56933 0.1834 0.63555 0.0
C399 C 0.59905 0.17641 0.75181 0.0
C400 C 0.54077 0.18316 0.60255 0.0
C401 C 0.51037 0.17156 0.64572 0.0
C402 C 0.56763 0.17204 0.71243 0.0
C403 C 0.50902 0.15847 0.72083 0.0
C404 C 0.59779 0.16135 0.82441 0.0
C405 C 0.66033 0.20376 0.75193 0.0
N406 N 0.53739 0.15939 0.75218 0.0
N407 N 0.63024 0.197 0.71823 0.0
H408 H 0.45612 0.68977 0.87155 0.0
H409 H 0.33047 0.48694 0.8987 0.0
H410 H 0.46128 0.6292 0.0611 0.0
H411 H 0.33928 0.54864 0.6977 0.0
H412 H 0.37975 0.53715 0.9573 0.0
H413 H 0.41417 0.63737 0.80727 0.0
C414 C 0.44834 0.6654 0.90011 0.0
C415 C 0.46213 0.66403 0.97255 0.0
C416 C 0.37115 0.53954 0.9 0.0
C417 C 0.41369 0.60332 0.89799 0.0
C418 C 0.34304 0.51087 0.86627 0.0
C419 C 0.33039 0.51363 0.79334 0.0
C420 C 0.38659 0.57124 0.86076 0.0
C421 C 0.34789 0.54527 0.75413 0.0
C422 C 0.42443 0.63533 0.86279 0.0
C423 C 0.4512 0.63149 0.0056 0.0
N424 N 0.3748 0.57287 0.78872 0.0
N425 N 0.42737 0.60235 0.96826 0.0
H426 H 0.76511 0.46 0.04317 0.0
H427 H 0.84001 0.33266 0.08242 0.0
H428 H 0.82917 0.46549 0.23676 0.0
H429 H 0.7894 0.34178 0.8774 0.0
H430 H 0.83939 0.38261 0.13843 0.0
H431 H 0.77572 0.41755 -0.0181 0.0
C432 C 0.78137 0.45217 0.07322 0.0
C433 C 0.79597 0.46616 0.14593 0.0
C434 C 0.82885 0.37391 0.08082 0.0
C435 C 0.80843 0.41715 0.07494 0.0
C436 C 0.82924 0.34544 0.04858 0.0
C437 C 0.81435 0.33268 0.97527 0.0
C438 C 0.8133 0.38961 0.03963 0.0
C439 C 0.80091 0.35041 0.93425 0.0
C440 C 0.78763 0.42798 0.03765 0.0
C441 C 0.81724 0.45525 0.18096 0.0
N442 N 0.80039 0.37768 0.96734 0.0
N443 N 0.82263 0.4311 0.14536 0.0
H444 H 0.50081 0.84686 0.23101 0.0
H445 H 0.29906 0.77566 0.19091 0.0
H446 H 0.44009 0.79447 0.02838 0.0
H447 H 0.35753 0.83287 0.39193 0.0
H448 H 0.352 0.78688 0.12788 0.0
H449 H 0.45081 0.84746 0.28644 0.0
C450 C 0.47718 0.836 0.19746 0.0
C451 C 0.47457 0.82018 0.12514 0.0
C452 C 0.35347 0.79714 0.18567 0.0
C453 C 0.41719 0.82052 0.18893 0.0
C454 C 0.3231 0.79055 0.22218 0.0
C455 C 0.32371 0.80291 0.29758 0.0
C456 C 0.38501 0.81604 0.22467 0.0
C457 C 0.35583 0.82262 0.33408 0.0
C458 C 0.44861 0.83626 0.22944 0.0
C459 C 0.44331 0.80667 0.0845 0.0
N460 N 0.38527 0.82832 0.29749 0.0
N461 N 0.4158 0.80683 0.11733 0.0
loop_
_geom_bond_atom_site_label_1
_geom_bond_atom_site_label_2
_geom_bond_distance
_geom_bond_site_symmetry_2
_ccdc_geom_bond_type
O0 Zn1 1.953 . S
O0 C16 1.225 . S
Zn1 O0 1.953 . S
Zn1 O2 1.949 . S
Zn1 O8 1.919 . S
Zn1 O13 1.924 . S
O2 Zn1 1.949 . S
O2 Zn3 1.923 . S
O2 Zn4 1.950 . S
O2 Zn5 1.945 . S
Zn3 O2 1.923 . S
Zn3 O6 1.933 . S
Zn3 O9 1.941 . S
Zn3 O10 1.965 . S
Zn4 O2 1.950 . S
Zn4 O11 1.938 . S
Zn4 O12 1.906 . S
Zn4 O22 1.953 . S
Zn5 O2 1.945 . S
Zn5 O7 1.932 . S
Zn5 O14 1.977 . S
Zn5 O15 1.910 . S
O6 Zn3 1.933 . S
O6 C17 1.226 . S
O7 Zn5 1.932 . S
O7 C17 1.307 . S
O8 Zn1 1.919 . S
O8 C19 1.253 . S
O9 Zn3 1.941 . S
O9 C19 1.283 . S
O10 Zn3 1.965 . S
O10 C18 1.303 . S
O11 Zn4 1.938 . S
O11 C18 1.247 . S
O12 Zn4 1.906 . S
O12 C20 1.304 . S
O13 Zn1 1.924 . S
O13 C21 1.311 . S
O14 Zn5 1.977 . S
O14 C20 1.272 . S
O15 Zn5 1.910 . S
O15 C21 1.231 . S
C16 O0 1.225 . S
C16 O22 1.298 . S
C17 O6 1.226 . S
C17 O7 1.307 . S
C18 O10 1.303 . S
C18 O11 1.247 . S
C19 O8 1.253 . S
C19 O9 1.283 . S
C20 O12 1.304 . S
C20 O14 1.272 . S
C21 O13 1.311 . S
C21 O15 1.231 . S
O22 Zn4 1.953 . S
O22 C16 1.298 . S
O23 Zn24 1.953 . S
O23 C39 1.225 . S
Zn24 O23 1.953 . S
Zn24 O25 1.949 . S
Zn24 O31 1.919 . S
Zn24 O36 1.924 . S
O25 Zn24 1.949 . S
O25 Zn26 1.923 . S
O25 Zn27 1.950 . S
O25 Zn28 1.945 . S
Zn26 O25 1.923 . S
Zn26 O29 1.933 . S
Zn26 O32 1.941 . S
Zn26 O33 1.965 . S
Zn27 O25 1.950 . S
Zn27 O34 1.938 . S
Zn27 O35 1.906 . S
Zn27 O45 1.953 . S
Zn28 O25 1.945 . S
Zn28 O30 1.932 . S
Zn28 O37 1.977 . S
Zn28 O38 1.910 . S
O29 Zn26 1.933 . S
O29 C40 1.226 . S
O30 Zn28 1.932 . S
O30 C40 1.307 . S
O31 Zn24 1.919 . S
O31 C42 1.253 . S
O32 Zn26 1.941 . S
O32 C42 1.283 . S
O33 Zn26 1.965 . S
O33 C41 1.303 . S
O34 Zn27 1.938 . S
O34 C41 1.247 . S
O35 Zn27 1.906 . S
O35 C43 1.304 . S
O36 Zn24 1.924 . S
O36 C44 1.311 . S
O37 Zn28 1.977 . S
O37 C43 1.272 . S
O38 Zn28 1.910 . S
O38 C44 1.231 . S
C39 O23 1.225 . S
C39 O45 1.298 . S
C40 O29 1.226 . S
C40 O30 1.307 . S
C41 O33 1.303 . S
C41 O34 1.247 . S
C42 O31 1.253 . S
C42 O32 1.283 . S
C43 O35 1.304 . S
C43 O37 1.272 . S
C44 O36 1.311 . S
C44 O38 1.231 . S
O45 Zn27 1.953 . S
O45 C39 1.298 . S
O46 Zn47 1.953 1_554 S
O46 C62 1.225 . S
Zn47 O46 1.953 1_556 S
Zn47 O48 1.949 . S
Zn47 O54 1.919 . S
Zn47 O59 1.924 . S
O48 Zn47 1.949 . S
O48 Zn49 1.923 . S
O48 Zn50 1.950 . S
O48 Zn51 1.945 . S
Zn49 O48 1.923 . S
Zn49 O52 1.933 . S
Zn49 O55 1.941 . S
Zn49 O56 1.965 . S
Zn50 O48 1.950 . S
Zn50 O57 1.939 . S
Zn50 O58 1.906 . S
Zn50 O68 1.953 1_556 S
Zn51 O48 1.945 . S
Zn51 O53 1.932 . S
Zn51 O60 1.977 . S
Zn51 O61 1.910 . S
O52 Zn49 1.933 . S
O52 C63 1.226 . S
O53 Zn51 1.932 . S
O53 C63 1.307 . S
O54 Zn47 1.919 . S
O54 C65 1.253 . S
O55 Zn49 1.941 . S
O55 C65 1.283 . S
O56 Zn49 1.965 . S
O56 C64 1.303 . S
O57 Zn50 1.939 . S
O57 C64 1.252 . S
O58 Zn50 1.906 . S
O58 C66 1.304 . S
O59 Zn47 1.924 . S
O59 C67 1.311 . S
O60 Zn51 1.977 . S
O60 C66 1.272 . S
O61 Zn51 1.910 . S
O61 C67 1.231 . S
C62 O46 1.225 . S
C62 O68 1.298 . S
C63 O52 1.226 . S
C63 O53 1.307 . S
C64 O56 1.303 . S
C64 O57 1.252 . S
C65 O54 1.253 . S
C65 O55 1.283 . S
C66 O58 1.304 . S
C66 O60 1.272 . S
C67 O59 1.311 . S
C67 O61 1.231 . S
O68 Zn50 1.953 1_554 S
O68 C62 1.298 . S
O69 Zn70 1.953 . S
O69 C85 1.225 . S
Zn70 O69 1.953 . S
Zn70 O71 1.949 . S
Zn70 O77 1.919 . S
Zn70 O82 1.924 . S
O71 Zn70 1.949 . S
O71 Zn72 1.923 . S
O71 Zn73 1.950 . S
O71 Zn74 1.945 . S
Zn72 O71 1.923 . S
Zn72 O75 1.933 1_554 S
Zn72 O78 1.941 . S
Zn72 O79 1.965 . S
Zn73 O71 1.950 . S
Zn73 O80 1.938 . S
Zn73 O81 1.906 . S
Zn73 O91 1.953 . S
Zn74 O71 1.945 . S
Zn74 O76 1.932 1_554 S
Zn74 O83 1.977 . S
Zn74 O84 1.910 . S
O75 Zn72 1.933 1_556 S
O75 C86 1.226 . S
O76 Zn74 1.932 1_556 S
O76 C86 1.307 . S
O77 Zn70 1.919 . S
O77 C88 1.253 . S
O78 Zn72 1.941 . S
O78 C88 1.283 . S
O79 Zn72 1.965 . S
O79 C87 1.303 . S
O80 Zn73 1.938 . S
O80 C87 1.247 . S
O81 Zn73 1.906 . S
O81 C89 1.304 . S
O82 Zn70 1.924 . S
O82 C90 1.311 . S
O83 Zn74 1.977 . S
O83 C89 1.272 . S
O84 Zn74 1.910 . S
O84 C90 1.231 . S
C85 O69 1.225 . S
C85 O91 1.298 . S
C86 O75 1.226 . S
C86 O76 1.307 . S
C87 O79 1.303 . S
C87 O80 1.247 . S
C88 O77 1.253 . S
C88 O78 1.283 . S
C89 O81 1.304 . S
C89 O83 1.272 . S
C90 O82 1.311 . S
C90 O84 1.231 . S
O91 Zn73 1.953 . S
O91 C85 1.298 . S
O92 Zn93 1.953 . S
O92 C108 1.225 . S
Zn93 O92 1.953 . S
Zn93 O94 1.949 . S
Zn93 O100 1.919 . S
Zn93 O105 1.924 . S
O94 Zn93 1.949 . S
O94 Zn95 1.923 . S
O94 Zn96 1.950 . S
O94 Zn97 1.945 . S
Zn95 O94 1.923 . S
Zn95 O98 1.933 . S
Zn95 O101 1.941 . S
Zn95 O102 1.965 . S
Zn96 O94 1.950 . S
Zn96 O103 1.938 . S
Zn96 O104 1.906 . S
Zn96 O114 1.953 . S
Zn97 O94 1.945 . S
Zn97 O99 1.932 . S
Zn97 O106 1.977 . S
Zn97 O107 1.910 . S
O98 Zn95 1.933 . S
O98 C109 1.226 . S
O99 Zn97 1.932 . S
O99 C109 1.307 . S
O100 Zn93 1.919 . S
O100 C111 1.253 . S
O101 Zn95 1.941 . S
O101 C111 1.283 . S
O102 Zn95 1.965 . S
O102 C110 1.303 . S
O103 Zn96 1.938 . S
O103 C110 1.247 . S
O104 Zn96 1.906 . S
O104 C112 1.304 . S
O105 Zn93 1.924 . S
O105 C113 1.311 . S
O106 Zn97 1.977 . S
O106 C112 1.272 . S
O107 Zn97 1.910 . S
O107 C113 1.231 . S
C108 O92 1.225 . S
C108 O114 1.298 . S
C109 O98 1.226 . S
C109 O99 1.307 . S
C110 O102 1.303 . S
C110 O103 1.247 . S
C111 O100 1.253 . S
C111 O101 1.283 . S
C112 O104 1.304 . S
C112 O106 1.272 . S
C113 O105 1.311 . S
C113 O107 1.231 . S
O114 Zn96 1.953 . S
O114 C108 1.298 . S
O115 Zn116 1.953 . S
O115 C131 1.225 . S
Zn116 O115 1.953 . S
Zn116 O117 1.949 . S
Zn116 O123 1.919 . S
Zn116 O128 1.924 . S
O117 Zn116 1.949 . S
O117 Zn118 1.923 . S
O117 Zn119 1.950 . S
O117 Zn120 1.945 . S
Zn118 O117 1.923 . S
Zn118 O121 1.933 . S
Zn118 O124 1.941 . S
Zn118 O125 1.965 . S
Zn119 O117 1.950 . S
Zn119 O126 1.938 . S
Zn119 O127 1.906 . S
Zn119 O137 1.953 . S
Zn120 O117 1.945 . S
Zn120 O122 1.932 . S
Zn120 O129 1.977 . S
Zn120 O130 1.910 . S
O121 Zn118 1.933 . S
O121 C132 1.226 . S
O122 Zn120 1.932 . S
O122 C132 1.307 . S
O123 Zn116 1.919 . S
O123 C134 1.253 . S
O124 Zn118 1.941 . S
O124 C134 1.283 . S
O125 Zn118 1.965 . S
O125 C133 1.303 . S
O126 Zn119 1.938 . S
O126 C133 1.247 . S
O127 Zn119 1.906 . S
O127 C135 1.304 . S
O128 Zn116 1.924 . S
O128 C136 1.311 . S
O129 Zn120 1.977 . S
O129 C135 1.272 . S
O130 Zn120 1.910 . S
O130 C136 1.231 . S
C131 O115 1.225 . S
C131 O137 1.298 . S
C132 O121 1.226 . S
C132 O122 1.307 . S
C133 O125 1.303 . S
C133 O126 1.247 . S
C134 O123 1.253 . S
C134 O124 1.283 . S
C135 O127 1.304 . S
C135 O129 1.272 . S
C136 O128 1.311 . S
C136 O130 1.231 . S
O137 Zn119 1.953 . S
O137 C131 1.298 . S
H138 C144 0.930 . S
H139 C148 0.930 . S
H140 C153 0.929 . S
H141 C151 0.929 . S
H142 C146 0.929 1_554 S
H143 C152 0.929 . S
C144 H138 0.930 . S
C144 C145 1.367 . S
C144 C152 1.378 . S
C145 C144 1.367 . S
C145 C153 1.433 . S
C146 H142 0.929 1_556 S
C146 C148 1.378 . S
C146 C150 1.350 1_556 S
C147 C150 1.463 . S
C147 C152 1.350 . S
C147 N155 1.427 . S
C148 H139 0.930 . S
C148 C146 1.378 . S
C148 C149 1.367 . S
C149 C148 1.367 . S
C149 C151 1.433 . S
C150 C146 1.350 1_554 S
C150 C147 1.463 . S
C150 N154 1.426 1_554 S
C151 H141 0.929 . S
C151 C149 1.433 . S
C151 N154 1.386 . S
C152 H143 0.929 . S
C152 C144 1.378 . S
C152 C147 1.350 . S
C153 H140 0.929 . S
C153 C145 1.433 . S
C153 N155 1.384 . S
N154 C150 1.426 1_556 S
N154 C151 1.386 . S
N155 C147 1.427 . S
N155 C153 1.384 . S
H156 C162 0.930 . S
H157 C166 0.930 . S
H158 C171 0.929 . S
H159 C169 0.929 . S
H160 C164 0.929 . S
H161 C170 0.929 . S
C162 H156 0.930 . S
C162 C163 1.367 . S
C162 C170 1.378 . S
C163 C162 1.367 . S
C163 C171 1.433 . S
C164 H160 0.929 . S
C164 C166 1.378 . S
C164 C168 1.350 . S
C165 C168 1.463 . S
C165 C170 1.350 . S
C165 N173 1.427 . S
C166 H157 0.930 . S
C166 C164 1.378 . S
C166 C167 1.367 . S
C167 C166 1.367 . S
C167 C169 1.433 . S
C168 C164 1.350 . S
C168 C165 1.463 . S
C168 N172 1.427 . S
C169 H159 0.929 . S
C169 C167 1.433 . S
C169 N172 1.384 . S
C170 H161 0.929 . S
C170 C162 1.378 . S
C170 C165 1.350 . S
C171 H158 0.929 . S
C171 C163 1.433 . S
C171 N173 1.384 . S
N172 C168 1.427 . S
N172 C169 1.384 . S
N173 C165 1.427 . S
N173 C171 1.384 . S
H174 C180 0.930 . S
H175 C184 0.930 . S
H176 C189 0.929 . S
H177 C187 0.929 . S
H178 C182 0.929 . S
H179 C188 0.929 . S
C180 H174 0.930 . S
C180 C181 1.367 . S
C180 C188 1.378 . S
C181 C180 1.367 . S
C181 C189 1.433 . S
C182 H178 0.929 . S
C182 C184 1.378 . S
C182 C186 1.350 . S
C183 C186 1.463 . S
C183 C188 1.350 . S
C183 N191 1.427 . S
C184 H175 0.930 . S
C184 C182 1.378 . S
C184 C185 1.367 . S
C185 C184 1.367 . S
C185 C187 1.433 . S
C186 C182 1.350 . S
C186 C183 1.463 . S
C186 N190 1.427 . S
C187 H177 0.929 . S
C187 C185 1.433 . S
C187 N190 1.384 . S
C188 H179 0.929 . S
C188 C180 1.378 . S
C188 C183 1.350 . S
C189 H176 0.929 . S
C189 C181 1.433 . S
C189 N191 1.384 . S
N190 C186 1.427 . S
N190 C187 1.384 . S
N191 C183 1.427 . S
N191 C189 1.384 . S
H192 C198 0.930 . S
H193 C202 0.930 . S
H194 C207 0.929 . S
H195 C205 0.929 . S
H196 C200 0.929 . S
H197 C206 0.929 . S
C198 H192 0.930 . S
C198 C199 1.367 . S
C198 C206 1.378 . S
C199 C198 1.367 . S
C199 C207 1.433 . S
C200 H196 0.929 . S
C200 C202 1.378 . S
C200 C204 1.350 . S
C201 C204 1.463 . S
C201 C206 1.350 . S
C201 N209 1.427 . S
C202 H193 0.930 . S
C202 C200 1.378 . S
C202 C203 1.367 . S
C203 C202 1.367 . S
C203 C205 1.433 . S
C204 C200 1.350 . S
C204 C201 1.463 . S
C204 N208 1.427 . S
C205 H195 0.929 . S
C205 C203 1.433 . S
C205 N208 1.384 . S
C206 H197 0.929 . S
C206 C198 1.378 . S
C206 C201 1.350 . S
C207 H194 0.929 . S
C207 C199 1.433 . S
C207 N209 1.384 . S
N208 C204 1.427 . S
N208 C205 1.384 . S
N209 C201 1.427 . S
N209 C207 1.384 . S
H210 C216 0.930 . S
H211 C220 0.930 . S
H212 C225 0.929 . S
H213 C223 0.929 . S
H214 C218 0.929 . S
H215 C224 0.929 . S
C216 H210 0.930 . S
C216 C217 1.367 . S
C216 C224 1.378 . S
C217 C216 1.367 . S
C217 C225 1.433 . S
C218 H214 0.929 . S
C218 C220 1.378 . S
C218 C222 1.350 . S
C219 C222 1.463 . S
C219 C224 1.350 . S
C219 N227 1.427 . S
C220 H211 0.930 . S
C220 C218 1.378 . S
C220 C221 1.367 . S
C221 C220 1.367 . S
C221 C223 1.433 . S
C222 C218 1.350 . S
C222 C219 1.463 . S
C222 N226 1.427 . S
C223 H213 0.929 . S
C223 C221 1.433 . S
C223 N226 1.384 . S
C224 H215 0.929 . S
C224 C216 1.378 . S
C224 C219 1.350 . S
C225 H212 0.929 . S
C225 C217 1.433 . S
C225 N227 1.384 . S
N226 C222 1.427 . S
N226 C223 1.384 . S
N227 C219 1.427 . S
N227 C225 1.384 . S
H228 C234 0.930 . S
H229 C238 0.930 . S
H230 C243 0.929 . S
H231 C241 0.929 . S
H232 C236 0.929 . S
H233 C242 0.929 1_556 S
C234 H228 0.930 . S
C234 C235 1.367 . S
C234 C242 1.378 . S
C235 C234 1.367 . S
C235 C243 1.433 . S
C236 H232 0.929 . S
C236 C238 1.378 . S
C236 C240 1.350 . S
C237 C240 1.463 . S
C237 C242 1.350 1_556 S
C237 N245 1.427 . S
C238 H229 0.930 . S
C238 C236 1.378 . S
C238 C239 1.367 . S
C239 C238 1.367 . S
C239 C241 1.433 . S
C240 C236 1.350 . S
C240 C237 1.463 . S
C240 N244 1.427 . S
C241 H231 0.929 . S
C241 C239 1.433 . S
C241 N244 1.384 . S
C242 H233 0.929 1_554 S
C242 C234 1.378 . S
C242 C237 1.350 1_554 S
C243 H230 0.929 . S
C243 C235 1.433 . S
C243 N245 1.384 1_554 S
N244 C240 1.427 . S
N244 C241 1.384 . S
N245 C237 1.427 . S
N245 C243 1.384 1_556 S
H246 C252 0.930 . S
H247 C256 0.930 . S
H248 C261 0.929 . S
H249 C259 0.929 . S
H250 C254 0.929 . S
H251 C260 0.929 . S
C252 H246 0.930 . S
C252 C253 1.367 . S
C252 C260 1.378 . S
C253 C252 1.367 . S
C253 C261 1.433 . S
C254 H250 0.929 . S
C254 C256 1.378 . S
C254 C258 1.350 . S
C255 C258 1.463 1_545 S
C255 C260 1.350 . S
C255 N263 1.427 . S
C256 H247 0.930 . S
C256 C254 1.378 . S
C256 C257 1.367 . S
C257 C256 1.367 . S
C257 C259 1.433 . S
C258 C254 1.350 . S
C258 C255 1.463 1_565 S
C258 N262 1.427 . S
C259 H249 0.929 . S
C259 C257 1.433 . S
C259 N262 1.384 . S
C260 H251 0.929 . S
C260 C252 1.378 . S
C260 C255 1.350 . S
C261 H248 0.929 . S
C261 C253 1.433 . S
C261 N263 1.384 . S
N262 C258 1.427 . S
N262 C259 1.384 . S
N263 C255 1.427 . S
N263 C261 1.384 . S
H264 C270 0.930 . S
H265 C274 0.930 . S
H266 C279 0.929 . S
H267 C277 0.929 . S
H268 C272 0.929 . S
H269 C278 0.929 . S
C270 H264 0.930 . S
C270 C271 1.367 . S
C270 C278 1.378 . S
C271 C270 1.367 . S
C271 C279 1.433 . S
C272 H268 0.929 . S
C272 C274 1.378 . S
C272 C276 1.350 . S
C273 C276 1.463 . S
C273 C278 1.350 . S
C273 N281 1.427 . S
C274 H265 0.930 . S
C274 C272 1.378 . S
C274 C275 1.367 . S
C275 C274 1.367 . S
C275 C277 1.433 . S
C276 C272 1.350 . S
C276 C273 1.463 . S
C276 N280 1.427 . S
C277 H267 0.929 . S
C277 C275 1.433 . S
C277 N280 1.384 . S
C278 H269 0.929 . S
C278 C270 1.378 . S
C278 C273 1.350 . S
C279 H266 0.929 . S
C279 C271 1.433 . S
C279 N281 1.384 . S
N280 C276 1.427 . S
N280 C277 1.384 . S
N281 C273 1.427 . S
N281 C279 1.384 . S
H282 C288 0.930 . S
H283 C292 0.930 . S
H284 C297 0.929 . S
H285 C295 0.929 . S
H286 C290 0.929 . S
H287 C296 0.929 . S
C288 H282 0.930 . S
C288 C289 1.367 . S
C288 C296 1.378 . S
C289 C288 1.367 . S
C289 C297 1.433 . S
C290 H286 0.929 . S
C290 C292 1.378 . S
C290 C294 1.350 . S
C291 C294 1.463 1_655 S
C291 C296 1.350 . S
C291 N299 1.427 . S
C292 H283 0.930 . S
C292 C290 1.378 . S
C292 C293 1.367 . S
C293 C292 1.367 . S
C293 C295 1.433 . S
C294 C290 1.350 . S
C294 C291 1.463 1_455 S
C294 N298 1.427 . S
C295 H285 0.929 . S
C295 C293 1.433 . S
C295 N298 1.384 . S
C296 H287 0.929 . S
C296 C288 1.378 . S
C296 C291 1.350 . S
C297 H284 0.929 . S
C297 C289 1.433 . S
C297 N299 1.384 . S
N298 C294 1.427 . S
N298 C295 1.384 . S
N299 C291 1.427 . S
N299 C297 1.384 . S
H300 C306 0.930 . S
H301 C310 0.930 . S
H302 C315 0.929 . S
H303 C313 0.929 . S
H304 C308 0.929 . S
H305 C314 0.929 . S
C306 H300 0.930 . S
C306 C307 1.367 1_556 S
C306 C314 1.378 . S
C307 C306 1.367 1_554 S
C307 C315 1.433 . S
C308 H304 0.929 . S
C308 C310 1.378 . S
C308 C312 1.350 1_554 S
C309 C312 1.463 1_564 S
C309 C314 1.350 1_554 S
C309 N317 1.427 . S
C310 H301 0.930 . S
C310 C308 1.378 . S
C310 C311 1.367 1_554 S
C311 C310 1.367 1_556 S
C311 C313 1.433 . S
C312 C308 1.350 1_556 S
C312 C309 1.463 1_546 S
C312 N316 1.427 . S
C313 H303 0.929 . S
C313 C311 1.433 . S
C313 N316 1.384 . S
C314 H305 0.929 . S
C314 C306 1.378 . S
C314 C309 1.350 1_556 S
C315 H302 0.929 . S
C315 C307 1.433 . S
C315 N317 1.384 . S
N316 C312 1.427 . S
N316 C313 1.384 . S
N317 C309 1.427 . S
N317 C315 1.384 . S
H318 C324 0.930 . S
H319 C328 0.930 . S
H320 C333 0.929 . S
H321 C331 0.929 . S
H322 C326 0.929 . S
H323 C332 0.929 . S
C324 H318 0.930 . S
C324 C325 1.367 . S
C324 C332 1.378 . S
C325 C324 1.367 . S
C325 C333 1.433 . S
C326 H322 0.929 . S
C326 C328 1.378 . S
C326 C330 1.350 . S
C327 C330 1.463 . S
C327 C332 1.350 . S
C327 N335 1.427 . S
C328 H319 0.930 . S
C328 C326 1.378 . S
C328 C329 1.367 . S
C329 C328 1.367 . S
C329 C331 1.433 . S
C330 C326 1.350 . S
C330 C327 1.463 . S
C330 N334 1.427 . S
C331 H321 0.929 . S
C331 C329 1.433 . S
C331 N334 1.384 . S
C332 H323 0.929 . S
C332 C324 1.378 . S
C332 C327 1.350 . S
C333 H320 0.929 . S
C333 C325 1.433 . S
C333 N335 1.384 . S
N334 C330 1.427 . S
N334 C331 1.384 . S
N335 C327 1.427 . S
N335 C333 1.384 . S
H336 C342 0.930 . S
H337 C346 0.930 . S
H338 C351 0.929 . S
H339 C349 0.929 . S
H340 C344 0.929 . S
H341 C350 0.929 . S
C342 H336 0.930 . S
C342 C343 1.367 . S
C342 C350 1.378 . S
C343 C342 1.367 . S
C343 C351 1.433 . S
C344 H340 0.929 . S
C344 C346 1.378 . S
C344 C348 1.350 . S
C345 C348 1.463 1_655 S
C345 C350 1.350 . S
C345 N353 1.427 . S
C346 H337 0.930 . S
C346 C344 1.378 . S
C346 C347 1.367 . S
C347 C346 1.367 . S
C347 C349 1.433 . S
C348 C344 1.350 . S
C348 C345 1.463 1_455 S
C348 N352 1.427 . S
C349 H339 0.929 . S
C349 C347 1.433 . S
C349 N352 1.384 . S
C350 H341 0.929 . S
C350 C342 1.378 . S
C350 C345 1.350 . S
C351 H338 0.929 . S
C351 C343 1.433 . S
C351 N353 1.384 . S
N352 C348 1.427 . S
N352 C349 1.384 . S
N353 C345 1.427 . S
N353 C351 1.384 . S
H354 C360 0.930 . S
H355 C364 0.930 . S
H356 C369 0.929 . S
H357 C367 0.929 . S
H358 C362 0.929 . S
H359 C368 0.929 . S
C360 H354 0.930 . S
C360 C361 1.367 . S
C360 C368 1.378 . S
C361 C360 1.367 . S
C361 C369 1.433 . S
C362 H358 0.929 . S
C362 C364 1.378 . S
C362 C366 1.350 . S
C363 C366 1.463 . S
C363 C368 1.350 . S
C363 N371 1.427 . S
C364 H355 0.930 . S
C364 C362 1.378 . S
C364 C365 1.367 . S
C365 C364 1.367 . S
C365 C367 1.433 . S
C366 C362 1.350 . S
C366 C363 1.463 . S
C366 N370 1.427 . S
C367 H357 0.929 . S
C367 C365 1.433 . S
C367 N370 1.384 . S
C368 H359 0.929 . S
C368 C360 1.378 . S
C368 C363 1.350 . S
C369 H356 0.929 . S
C369 C361 1.433 . S
C369 N371 1.384 . S
N370 C366 1.427 . S
N370 C367 1.384 . S
N371 C363 1.427 . S
N371 C369 1.384 . S
H372 C378 0.930 . S
H373 C382 0.930 . S
H374 C387 0.929 . S
H375 C385 0.929 . S
H376 C380 0.929 . S
H377 C386 0.929 . S
C378 H372 0.930 . S
C378 C379 1.367 . S
C378 C386 1.378 . S
C379 C378 1.367 . S
C379 C387 1.433 . S
C380 H376 0.929 . S
C380 C382 1.378 . S
C380 C384 1.350 . S
C381 C384 1.463 . S
C381 C386 1.350 . S
C381 N389 1.427 . S
C382 H373 0.930 . S
C382 C380 1.378 . S
C382 C383 1.367 . S
C383 C382 1.367 . S
C383 C385 1.433 . S
C384 C380 1.350 . S
C384 C381 1.463 . S
C384 N388 1.427 . S
C385 H375 0.929 . S
C385 C383 1.433 . S
C385 N388 1.384 . S
C386 H377 0.929 . S
C386 C378 1.378 . S
C386 C381 1.350 . S
C387 H374 0.929 . S
C387 C379 1.433 . S
C387 N389 1.384 . S
N388 C384 1.427 . S
N388 C385 1.384 . S
N389 C381 1.427 . S
N389 C387 1.384 . S
H390 C396 0.930 . S
H391 C400 0.930 . S
H392 C405 0.929 . S
H393 C403 0.929 . S
H394 C398 0.929 . S
H395 C404 0.929 . S
C396 H390 0.930 . S
C396 C397 1.367 . S
C396 C404 1.378 . S
C397 C396 1.367 . S
C397 C405 1.433 . S
C398 H394 0.929 . S
C398 C400 1.378 . S
C398 C402 1.350 . S
C399 C402 1.463 . S
C399 C404 1.350 . S
C399 N407 1.427 . S
C400 H391 0.930 . S
C400 C398 1.378 . S
C400 C401 1.367 . S
C401 C400 1.367 . S
C401 C403 1.433 . S
C402 C398 1.350 . S
C402 C399 1.463 . S
C402 N406 1.427 . S
C403 H393 0.929 . S
C403 C401 1.433 . S
C403 N406 1.384 . S
C404 H395 0.929 . S
C404 C396 1.378 . S
C404 C399 1.350 . S
C405 H392 0.929 . S
C405 C397 1.433 . S
C405 N407 1.384 . S
N406 C402 1.427 . S
N406 C403 1.384 . S
N407 C399 1.427 . S
N407 C405 1.384 . S
H408 C414 0.930 . S
H409 C418 0.930 . S
H410 C423 0.929 . S
H411 C421 0.929 . S
H412 C416 0.929 1_554 S
H413 C422 0.929 . S
C414 H408 0.930 . S
C414 C415 1.354 1_556 S
C414 C422 1.378 . S
C415 C414 1.354 1_554 S
C415 C423 1.441 . S
C416 H412 0.929 1_556 S
C416 C418 1.378 . S
C416 C420 1.350 . S
C417 C420 1.463 . S
C417 C422 1.350 . S
C417 N425 1.427 1_556 S
C418 H409 0.930 . S
C418 C416 1.378 . S
C418 C419 1.367 . S
C419 C418 1.367 . S
C419 C421 1.433 . S
C420 C416 1.350 . S
C420 C417 1.463 . S
C420 N424 1.427 . S
C421 H411 0.929 . S
C421 C419 1.433 . S
C421 N424 1.384 . S
C422 H413 0.929 . S
C422 C414 1.378 . S
C422 C417 1.350 . S
C423 H410 0.929 . S
C423 C415 1.441 . S
C423 N425 1.384 . S
N424 C420 1.427 . S
N424 C421 1.384 . S
N425 C417 1.427 1_554 S
N425 C423 1.384 . S
H426 C432 0.930 . S
H427 C436 0.930 1_556 S
H428 C441 0.929 . S
H429 C439 0.929 . S
H430 C434 0.929 . S
H431 C440 0.929 . S
C432 H426 0.930 . S
C432 C433 1.367 . S
C432 C440 1.378 . S
C433 C432 1.367 . S
C433 C441 1.433 . S
C434 H430 0.929 . S
C434 C436 1.378 . S
C434 C438 1.350 . S
C435 C438 1.463 . S
C435 C440 1.350 . S
C435 N443 1.427 . S
C436 H427 0.930 1_554 S
C436 C434 1.378 . S
C436 C437 1.367 . S
C437 C436 1.367 . S
C437 C439 1.437 . S
C438 C434 1.350 . S
C438 C435 1.463 . S
C438 N442 1.427 . S
C439 H429 0.929 . S
C439 C437 1.437 . S
C439 N442 1.384 . S
C440 H431 0.929 . S
C440 C432 1.378 . S
C440 C435 1.350 . S
C441 H428 0.929 . S
C441 C433 1.433 . S
C441 N443 1.384 . S
N442 C438 1.427 . S
N442 C439 1.384 . S
N443 C435 1.427 . S
N443 C441 1.384 . S
H444 C450 0.930 . S
H445 C454 0.930 . S
H446 C459 0.929 . S
H447 C457 0.929 . S
H448 C452 0.929 . S
H449 C458 0.929 . S
C450 H444 0.930 . S
C450 C451 1.367 . S
C450 C458 1.378 . S
C451 C450 1.367 . S
C451 C459 1.433 . S
C452 H448 0.929 . S
C452 C454 1.378 . S
C452 C456 1.350 . S
C453 C456 1.463 . S
C453 C458 1.350 . S
C453 N461 1.427 . S
C454 H445 0.930 . S
C454 C452 1.378 . S
C454 C455 1.367 . S
C455 C454 1.367 . S
C455 C457 1.433 . S
C456 C452 1.350 . S
C456 C453 1.463 . S
C456 N460 1.427 . S
C457 H447 0.929 . S
C457 C455 1.433 . S
C457 N460 1.384 . S
C458 H449 0.929 . S
C458 C450 1.378 . S
C458 C453 1.350 . S
C459 H446 0.929 . S
C459 C451 1.433 . S
C459 N461 1.384 . S
N460 C456 1.427 . S
N460 C457 1.384 . S
N461 C453 1.427 . S
N461 C459 1.384 . S
C145 C17 1.278 . S
C149 C16 1.277 . S
C163 C40 1.281 . S
C167 C39 1.280 1_554 S
C181 C62 1.278 . S
C185 C63 1.279 . S
C199 C85 1.276 . S
C203 C86 1.278 . S
C217 C108 1.278 . S
C221 C109 1.280 1_556 S
C235 C132 1.277 . S
C239 C131 1.276 . S
C253 C20 1.494 . S
C257 C136 1.463 . S
C271 C21 1.461 . S
C275 C43 1.494 . S
C289 C66 1.495 . S
C293 C44 1.472 . S
C307 C89 1.495 . S
C311 C67 1.471 . S
C325 C112 1.494 . S
C329 C90 1.471 . S
C343 C113 1.464 . S
C347 C135 1.495 . S
C361 C19 1.634 . S
C365 C110 1.660 . S
C379 C42 1.632 . S
C383 C133 1.659 . S
C397 C65 1.638 . S
C401 C18 1.661 . S
C415 C88 1.644 . S
C419 C41 1.660 . S
C433 C111 1.631 . S
C437 C64 1.654 1_554 S
C451 C87 1.660 . S
C455 C134 1.638 . S
