# Generated by pormake.
# Topology dei, (4)-cn, num edge types: 1
# Building blocks:
#     Node 0, Type 0, BuildingBlock: KUFVIS_clean_sbu_0, # of connection points: 4
#     Node 1, Type 0, BuildingBlock: KUFVIS_clean_sbu_0, # of connection points: 4
#     Node 2, Type 0, BuildingBlock: KUFVIS_clean_sbu_0, # of connection points: 4
#     Node 3, Type 0, BuildingBlock: KUFVIS_clean_sbu_0, # of connection points: 4
#     Node 4, Type 0, BuildingBlock: KUFVIS_clean_sbu_0, # of connection points: 4
#     Node 5, Type 0, BuildingBlock: KUFVIS_clean_sbu_0, # of connection points: 4
#     Node 6, Type 0, BuildingBlock: KUFVIS_clean_sbu_0, # of connection points: 4
#     Node 7, Type 0, BuildingBlock: KUFVIS_clean_sbu_0, # of connection points: 4
#     Node 8, Type 0, BuildingBlock: KUFVIS_clean_sbu_0, # of connection points: 4
#     Node 9, Type 0, BuildingBlock: KUFVIS_clean_sbu_0, # of connection points: 4
#     Node 10, Type 0, BuildingBlock: KUFVIS_clean_sbu_0, # of connection points: 4
#     Node 11, Type 0, BuildingBlock: KUFVIS_clean_sbu_0, # of connection points: 4
#     Node 12, Type 0, BuildingBlock: KUFVIS_clean_sbu_0, # of connection points: 4
#     Node 13, Type 0, BuildingBlock: KUFVIS_clean_sbu_0, # of connection points: 4
#     Node 14, Type 0, BuildingBlock: KUFVIS_clean_sbu_0, # of connection points: 4
#     Node 15, Type 0, BuildingBlock: KUFVIS_clean_sbu_0, # of connection points: 4
#     Node 16, Type 0, BuildingBlock: KUFVIS_clean_sbu_0, # of connection points: 4
#     Node 17, Type 0, BuildingBlock: KUFVIS_clean_sbu_0, # of connection points: 4
#     Node 18, Type 0, BuildingBlock: KUFVIS_clean_sbu_0, # of connection points: 4
#     Node 19, Type 0, BuildingBlock: KUFVIS_clean_sbu_0, # of connection points: 4
#     Node 20, Type 0, BuildingBlock: KUFVIS_clean_sbu_0, # of connection points: 4
#     Node 21, Type 0, BuildingBlock: KUFVIS_clean_sbu_0, # of connection points: 4
#     Node 22, Type 0, BuildingBlock: KUFVIS_clean_sbu_0, # of connection points: 4
#     Node 23, Type 0, BuildingBlock: KUFVIS_clean_sbu_0, # of connection points: 4
#     Node 24, Type 0, BuildingBlock: KUFVIS_clean_sbu_0, # of connection points: 4
#     Node 25, Type 0, BuildingBlock: KUFVIS_clean_sbu_0, # of connection points: 4
#     Node 26, Type 0, BuildingBlock: KUFVIS_clean_sbu_0, # of connection points: 4
#     Node 27, Type 0, BuildingBlock: KUFVIS_clean_sbu_0, # of connection points: 4
#     Node 28, Type 0, BuildingBlock: KUFVIS_clean_sbu_0, # of connection points: 4
#     Node 29, Type 0, BuildingBlock: KUFVIS_clean_sbu_0, # of connection points: 4
#     Node 30, Type 0, BuildingBlock: KUFVIS_clean_sbu_0, # of connection points: 4
#     Node 31, Type 0, BuildingBlock: KUFVIS_clean_sbu_0, # of connection points: 4
#     Edge 32, Type (0, 0), BuildingBlock: CIFDUS_clean_linker_0, # of connection points: 2
#     Edge 33, Type (0, 0), BuildingBlock: CIFDUS_clean_linker_0, # of connection points: 2
#     Edge 34, Type (0, 0), BuildingBlock: CIFDUS_clean_linker_0, # of connection points: 2
#     Edge 35, Type (0, 0), BuildingBlock: CIFDUS_clean_linker_0, # of connection points: 2
#     Edge 36, Type (0, 0), BuildingBlock: CIFDUS_clean_linker_0, # of connection points: 2
#     Edge 37, Type (0, 0), BuildingBlock: CIFDUS_clean_linker_0, # of connection points: 2
#     Edge 38, Type (0, 0), BuildingBlock: CIFDUS_clean_linker_0, # of connection points: 2
#     Edge 39, Type (0, 0), BuildingBlock: CIFDUS_clean_linker_0, # of connection points: 2
#     Edge 40, Type (0, 0), BuildingBlock: CIFDUS_clean_linker_0, # of connection points: 2
#     Edge 41, Type (0, 0), BuildingBlock: CIFDUS_clean_linker_0, # of connection points: 2
#     Edge 42, Type (0, 0), BuildingBlock: CIFDUS_clean_linker_0, # of connection points: 2
#     Edge 43, Type (0, 0), BuildingBlock: CIFDUS_clean_linker_0, # of connection points: 2
#     Edge 44, Type (0, 0), BuildingBlock: CIFDUS_clean_linker_0, # of connection points: 2
#     Edge 45, Type (0, 0), BuildingBlock: CIFDUS_clean_linker_0, # of connection points: 2
#     Edge 46, Type (0, 0), BuildingBlock: CIFDUS_clean_linker_0, # of connection points: 2
#     Edge 47, Type (0, 0), BuildingBlock: CIFDUS_clean_linker_0, # of connection points: 2
#     Edge 48, Type (0, 0), BuildingBlock: CIFDUS_clean_linker_0, # of connection points: 2
#     Edge 49, Type (0, 0), BuildingBlock: CIFDUS_clean_linker_0, # of connection points: 2
#     Edge 50, Type (0, 0), BuildingBlock: CIFDUS_clean_linker_0, # of connection points: 2
#     Edge 51, Type (0, 0), BuildingBlock: CIFDUS_clean_linker_0, # of connection points: 2
#     Edge 52, Type (0, 0), BuildingBlock: CIFDUS_clean_linker_0, # of connection points: 2
#     Edge 53, Type (0, 0), BuildingBlock: CIFDUS_clean_linker_0, # of connection points: 2
#     Edge 54, Type (0, 0), BuildingBlock: CIFDUS_clean_linker_0, # of connection points: 2
#     Edge 55, Type (0, 0), BuildingBlock: CIFDUS_clean_linker_0, # of connection points: 2
#     Edge 56, Type (0, 0), BuildingBlock: CIFDUS_clean_linker_0, # of connection points: 2
#     Edge 57, Type (0, 0), BuildingBlock: CIFDUS_clean_linker_0, # of connection points: 2
#     Edge 58, Type (0, 0), BuildingBlock: CIFDUS_clean_linker_0, # of connection points: 2
#     Edge 59, Type (0, 0), BuildingBlock: CIFDUS_clean_linker_0, # of connection points: 2
#     Edge 60, Type (0, 0), BuildingBlock: CIFDUS_clean_linker_0, # of connection points: 2
#     Edge 61, Type (0, 0), BuildingBlock: CIFDUS_clean_linker_0, # of connection points: 2
#     Edge 62, Type (0, 0), BuildingBlock: CIFDUS_clean_linker_0, # of connection points: 2
#     Edge 63, Type (0, 0), BuildingBlock: CIFDUS_clean_linker_0, # of connection points: 2
#     Edge 64, Type (0, 0), BuildingBlock: CIFDUS_clean_linker_0, # of connection points: 2
#     Edge 65, Type (0, 0), BuildingBlock: CIFDUS_clean_linker_0, # of connection points: 2
#     Edge 66, Type (0, 0), BuildingBlock: CIFDUS_clean_linker_0, # of connection points: 2
#     Edge 67, Type (0, 0), BuildingBlock: CIFDUS_clean_linker_0, # of connection points: 2
#     Edge 68, Type (0, 0), BuildingBlock: CIFDUS_clean_linker_0, # of connection points: 2
#     Edge 69, Type (0, 0), BuildingBlock: CIFDUS_clean_linker_0, # of connection points: 2
#     Edge 70, Type (0, 0), BuildingBlock: CIFDUS_clean_linker_0, # of connection points: 2
#     Edge 71, Type (0, 0), BuildingBlock: CIFDUS_clean_linker_0, # of connection points: 2
#     Edge 72, Type (0, 0), BuildingBlock: CIFDUS_clean_linker_0, # of connection points: 2
#     Edge 73, Type (0, 0), BuildingBlock: CIFDUS_clean_linker_0, # of connection points: 2
#     Edge 74, Type (0, 0), BuildingBlock: CIFDUS_clean_linker_0, # of connection points: 2
#     Edge 75, Type (0, 0), BuildingBlock: CIFDUS_clean_linker_0, # of connection points: 2
#     Edge 76, Type (0, 0), BuildingBlock: CIFDUS_clean_linker_0, # of connection points: 2
#     Edge 77, Type (0, 0), BuildingBlock: CIFDUS_clean_linker_0, # of connection points: 2
#     Edge 78, Type (0, 0), BuildingBlock: CIFDUS_clean_linker_0, # of connection points: 2
#     Edge 79, Type (0, 0), BuildingBlock: CIFDUS_clean_linker_0, # of connection points: 2
#     Edge 80, Type (0, 0), BuildingBlock: CIFDUS_clean_linker_0, # of connection points: 2
#     Edge 81, Type (0, 0), BuildingBlock: CIFDUS_clean_linker_0, # of connection points: 2
#     Edge 82, Type (0, 0), BuildingBlock: CIFDUS_clean_linker_0, # of connection points: 2
#     Edge 83, Type (0, 0), BuildingBlock: CIFDUS_clean_linker_0, # of connection points: 2
#     Edge 84, Type (0, 0), BuildingBlock: CIFDUS_clean_linker_0, # of connection points: 2
#     Edge 85, Type (0, 0), BuildingBlock: CIFDUS_clean_linker_0, # of connection points: 2
#     Edge 86, Type (0, 0), BuildingBlock: CIFDUS_clean_linker_0, # of connection points: 2
#     Edge 87, Type (0, 0), BuildingBlock: CIFDUS_clean_linker_0, # of connection points: 2
#     Edge 88, Type (0, 0), BuildingBlock: CIFDUS_clean_linker_0, # of connection points: 2
#     Edge 89, Type (0, 0), BuildingBlock: CIFDUS_clean_linker_0, # of connection points: 2
#     Edge 90, Type (0, 0), BuildingBlock: CIFDUS_clean_linker_0, # of connection points: 2
#     Edge 91, Type (0, 0), BuildingBlock: CIFDUS_clean_linker_0, # of connection points: 2
#     Edge 92, Type (0, 0), BuildingBlock: CIFDUS_clean_linker_0, # of connection points: 2
#     Edge 93, Type (0, 0), BuildingBlock: CIFDUS_clean_linker_0, # of connection points: 2
#     Edge 94, Type (0, 0), BuildingBlock: CIFDUS_clean_linker_0, # of connection points: 2
#     Edge 95, Type (0, 0), BuildingBlock: CIFDUS_clean_linker_0, # of connection points: 2
# Relax obj value: 0.221
# Max RMSD: 0.067
# Mean RMSD: 0.067
data_MOF--net-dei--node1-KUFVIS_clean_sbu_0--edge1-CIFDUS_clean_linker_0
_symmetry_space_group_name_H-M    P1
_symmetry_Int_Tables_number       1
_symmetry_cell_setting            triclinic
loop_
_symmetry_equiv_pos_as_xyz
'x, y, z'
_cell_length_a     50.580714
_cell_length_b     50.673306
_cell_length_c     68.236265
_cell_angle_alpha  90.00445
_cell_angle_beta   89.978044
_cell_angle_gamma 89.965907
loop_
_atom_site_label
_atom_site_type_symbol
_atom_site_fract_x
_atom_site_fract_y
_atom_site_fract_z
_atom_type_partial_charge
Mn0 Mn 0.13468 0.63115 0.03433 0.0
Mn1 Mn 0.09804 0.65815 0.06922 0.0
C2 C 0.09232 0.64723 0.02565 0.0
C3 C 0.14558 0.58871 0.02208 0.0
C4 C 0.14615 0.6847 0.05039 0.0
O5 O 0.15391 0.62355 0.06058 0.0
O6 O 0.11771 0.62715 0.07892 0.0
C7 C 0.06207 0.61273 0.07557 0.0
N8 N 0.06522 0.63898 0.07222 0.0
C9 C 0.01635 0.64573 0.08437 0.0
C10 C 0.01502 0.6174 0.08495 0.0
C11 C 0.03744 0.60198 0.08081 0.0
C12 C 0.04492 0.65568 0.07385 0.0
H13 H 0.07863 0.59946 0.07383 0.0
C14 C 0.1417 0.62032 0.07679 0.0
O15 O 0.16139 0.60867 0.01944 0.0
O16 O 0.12428 0.59356 0.03182 0.0
N17 N 0.07738 0.68953 0.06353 0.0
C18 C 0.0869 0.71392 0.05907 0.0
C19 C 0.0738 0.73724 0.06458 0.0
C20 C 0.05051 0.73739 0.07567 0.0
C21 C 0.03777 0.71403 0.08066 0.0
C22 C 0.05361 0.68685 0.07209 0.0
H23 H 0.1051 0.71595 0.05129 0.0
O24 O 0.10897 0.64026 0.01216 0.0
O25 O 0.10146 0.64465 0.04309 0.0
O26 O 0.14858 0.66927 0.03553 0.0
O27 O 0.13184 0.6789 0.06554 0.0
C28 C 0.0084 0.71537 0.09288 0.0
C29 C 0.99074 0.68741 0.09808 0.0
H30 H 0.99776 0.60639 0.08945 0.0
H31 H 0.03593 0.58077 0.08235 0.0
H32 H 0.08258 0.75598 0.06059 0.0
H33 H 0.04208 0.75609 0.07962 0.0
H34 H 1.00097 0.7341 0.09797 0.0
H35 H 0.97233 0.6896 0.10634 0.0
Mn36 Mn 0.65082 0.87089 0.29728 0.0
Mn37 Mn 0.60747 0.8382 0.32645 0.0
C38 C 0.63557 0.82935 0.28882 0.0
C39 C 0.69501 0.87859 0.28701 0.0
C40 C 0.5906 0.88135 0.29867 0.0
O41 O 0.65529 0.89028 0.32323 0.0
O42 O 0.62312 0.86933 0.34022 0.0
C43 C 0.64113 0.82156 0.35973 0.0
N44 N 0.62484 0.81438 0.34474 0.0
C45 C 0.61612 0.77081 0.36468 0.0
C46 C 0.63295 0.78095 0.37888 0.0
C47 C 0.64552 0.80533 0.37618 0.0
C48 C 0.613 0.79065 0.34473 0.0
H49 H 0.65071 0.84049 0.35953 0.0
C50 C 0.64125 0.88693 0.33857 0.0
O51 O 0.6763 0.89531 0.28287 0.0
O52 O 0.68826 0.85884 0.29786 0.0
N53 N 0.59104 0.8078 0.31425 0.0
C54 C 0.57296 0.80795 0.29948 0.0
C55 C 0.55994 0.78488 0.29336 0.0
C56 C 0.56233 0.76051 0.30296 0.0
C57 C 0.5773 0.75825 0.32078 0.0
C58 C 0.59538 0.7859 0.32471 0.0
H59 H 0.56896 0.82592 0.29153 0.0
O60 O 0.64403 0.84561 0.27557 0.0
O61 O 0.6361 0.83767 0.30692 0.0
O62 O 0.61367 0.8886 0.29291 0.0
O63 O 0.58672 0.86208 0.31018 0.0
C64 C 0.5816 0.72667 0.35157 0.0
C65 C 0.60204 0.74076 0.36853 0.0
H66 H 0.63675 0.7698 0.39212 0.0
H67 H 0.65862 0.8124 0.38757 0.0
H68 H 0.54702 0.78612 0.28075 0.0
H69 H 0.55093 0.74467 0.29658 0.0
H70 H 0.57267 0.70761 0.35519 0.0
H71 H 0.60594 0.73032 0.38206 0.0
Mn72 Mn 0.39326 0.39573 0.54164 0.0
Mn73 Mn 0.42041 0.35406 0.5751 0.0
C74 C 0.4344 0.37771 0.53641 0.0
C75 C 0.38812 0.43907 0.52945 0.0
C76 C 0.37855 0.33704 0.54623 0.0
O77 O 0.37293 0.40488 0.56592 0.0
O78 O 0.38938 0.37389 0.58647 0.0
C79 C 0.43571 0.38446 0.6103 0.0
N80 N 0.44387 0.3702 0.59444 0.0
C81 C 0.48715 0.36136 0.61501 0.0
C82 C 0.47653 0.37753 0.62937 0.0
C83 C 0.45157 0.38884 0.62692 0.0
C84 C 0.46753 0.35806 0.59485 0.0
H85 H 0.41597 0.39168 0.61111 0.0
C86 C 0.37443 0.39389 0.58261 0.0
O87 O 0.37102 0.42076 0.52525 0.0
O88 O 0.40751 0.43226 0.54065 0.0
N89 N 0.45083 0.33531 0.56463 0.0
C90 C 0.45108 0.31711 0.54996 0.0
C91 C 0.47446 0.30431 0.54406 0.0
C92 C 0.49889 0.3075 0.55352 0.0
C93 C 0.5009 0.32287 0.57115 0.0
C94 C 0.47275 0.34039 0.57495 0.0
H95 H 0.43323 0.31288 0.54189 0.0
O96 O 0.41957 0.38492 0.52183 0.0
O97 O 0.42467 0.38065 0.55407 0.0
O98 O 0.3733 0.35961 0.53867 0.0
O99 O 0.39662 0.33353 0.55879 0.0
C100 C 0.5321 0.32777 0.60214 0.0
C101 C 0.51746 0.34786 0.61901 0.0
H102 H 0.48745 0.38123 0.64272 0.0
H103 H 0.44357 0.40064 0.63876 0.0
H104 H 0.4735 0.29117 0.53156 0.0
H105 H 0.51502 0.29635 0.54724 0.0
H106 H 0.55128 0.31914 0.60591 0.0
H107 H 0.52766 0.35183 0.63263 0.0
Mn108 Mn 0.87042 0.13845 0.77463 0.0
Mn109 Mn 0.9139 0.16845 0.80529 0.0
C110 C 0.87786 0.18335 0.77242 0.0
C111 C 0.8264 0.12562 0.76713 0.0
C112 C 0.93125 0.13497 0.77092 0.0
O113 O 0.8729 0.11236 0.79708 0.0
O114 O 0.90259 0.13366 0.81628 0.0
C115 C 0.88904 0.17465 0.84413 0.0
N116 N 0.89947 0.18665 0.828 0.0
C117 C 0.91477 0.2243 0.85212 0.0
C118 C 0.90331 0.20964 0.86707 0.0
C119 C 0.89026 0.18586 0.86301 0.0
C120 C 0.91084 0.21055 0.82957 0.0
H121 H 0.88032 0.15546 0.84285 0.0
C122 C 0.88677 0.1144 0.81262 0.0
O123 O 0.84663 0.11454 0.7587 0.0
O124 O 0.83182 0.14341 0.78009 0.0
N125 N 0.92479 0.20226 0.79501 0.0
C126 C 0.93801 0.20682 0.77797 0.0
C127 C 0.9469 0.2321 0.77279 0.0
C128 C 0.9456 0.25381 0.78545 0.0
C129 C 0.93699 0.25055 0.80538 0.0
C130 C 0.92125 0.22144 0.8082 0.0
H131 H 0.94069 0.19113 0.76749 0.0
O132 O 0.8697 0.17003 0.75736 0.0
O133 O 0.88201 0.17012 0.78859 0.0
O134 O 0.90846 0.12797 0.76451 0.0
O135 O 0.93416 0.15033 0.7853 0.0
C136 C 0.94367 0.27289 0.84012 0.0
C137 C 0.92979 0.25339 0.85782 0.0
H138 H 0.90416 0.21672 0.88202 0.0
H139 H 0.88162 0.17506 0.87511 0.0
H140 H 0.95547 0.23484 0.75839 0.0
H141 H 0.95322 0.27201 0.77947 0.0
H142 H 0.95374 0.29093 0.8448 0.0
H143 H 0.93076 0.25968 0.87295 0.0
Mn144 Mn 0.12795 0.39775 0.96933 0.0
Mn145 Mn 0.09674 0.3591 0.93589 0.0
C146 C 0.0848 0.38478 0.97403 0.0
C147 C 0.13715 0.44052 0.98139 0.0
C148 C 0.13641 0.33761 0.96517 0.0
O149 O 0.1506 0.40305 0.94522 0.0
O150 O 0.12942 0.37523 0.9245 0.0
C151 C 0.08383 0.39475 0.90294 0.0
N152 N 0.07476 0.37832 0.91726 0.0
C153 C 0.03341 0.37051 0.89451 0.0
C154 C 0.04533 0.3875 0.88126 0.0
C155 C 0.06947 0.39973 0.88563 0.0
C156 C 0.05082 0.36691 0.91567 0.0
H157 H 0.10294 0.40385 0.90432 0.0
C158 C 0.14786 0.3918 0.92864 0.0
O159 O 0.15193 0.42052 0.98618 0.0
O160 O 0.11813 0.43577 0.9693 0.0
N161 N 0.06479 0.34302 0.94612 0.0
C162 C 0.06319 0.32459 0.96056 0.0
C163 C 0.03924 0.31214 0.96538 0.0
C164 C 0.01587 0.31538 0.95458 0.0
C165 C 0.01563 0.33084 0.9369 0.0
C166 C 0.04374 0.34877 0.93498 0.0
H167 H 0.08036 0.31989 0.96927 0.0
O168 O 0.0996 0.39111 0.98882 0.0
O169 O 0.09555 0.38596 0.95668 0.0
O170 O 0.14293 0.35945 0.9734 0.0
O171 O 0.11888 0.33602 0.95191 0.0
C172 C 0.98768 0.33579 0.90422 0.0
C173 C 1.00382 0.35659 0.88848 0.0
H174 H 0.03572 0.39158 0.86747 0.0
H175 H 0.07797 0.41293 0.87486 0.0
H176 H 0.03897 0.29893 0.97785 0.0
H177 H 0.99921 0.30416 0.95994 0.0
H178 H 0.96908 0.32697 0.89932 0.0
H179 H 0.99508 0.36078 0.87435 0.0
Mn180 Mn 0.8806 0.88184 0.22334 0.0
Mn181 Mn 0.90738 0.846 0.18763 0.0
C182 C 0.89733 0.83954 0.2311 0.0
C183 C 0.83876 0.89203 0.23723 0.0
C184 C 0.93406 0.89371 0.20675 0.0
O185 O 0.87195 0.9014 0.19737 0.0
O186 O 0.87636 0.86597 0.17825 0.0
C187 C 0.86188 0.81031 0.18068 0.0
N188 N 0.88816 0.8133 0.18417 0.0
C189 C 0.89501 0.76529 0.17043 0.0
C190 C 0.86664 0.76395 0.16978 0.0
C191 C 0.85116 0.78605 0.17463 0.0
C192 C 0.90493 0.79314 0.18196 0.0
H193 H 0.84859 0.82675 0.18286 0.0
C194 C 0.86908 0.88971 0.18089 0.0
O195 O 0.8587 0.90804 0.2392 0.0
O196 O 0.84305 0.87118 0.22687 0.0
N197 N 0.9388 0.82517 0.19303 0.0
C198 C 0.96323 0.83454 0.19764 0.0
C199 C 0.98663 0.82177 0.19177 0.0
C200 C 0.98681 0.79907 0.18006 0.0
C201 C 0.96339 0.78659 0.17479 0.0
C202 C 0.93616 0.80178 0.18396 0.0
H203 H 0.9652 0.8524 0.20583 0.0
O204 O 0.89082 0.85579 0.24495 0.0
O205 O 0.89385 0.84894 0.21383 0.0
O206 O 0.9187 0.89596 0.22167 0.0
O207 O 0.92824 0.87956 0.19156 0.0
C208 C 0.96476 0.75814 0.16152 0.0
C209 C 0.93681 0.7408 0.15577 0.0
H210 H 0.85566 0.74699 0.16469 0.0
H211 H 0.82992 0.78462 0.17298 0.0
H212 H 1.00539 0.8304 0.19594 0.0
H213 H 1.00556 0.79085 0.17578 0.0
H214 H 0.98344 0.75133 0.15587 0.0
H215 H 0.93905 0.72303 0.1468 0.0
Mn216 Mn 0.38605 0.63239 0.48153 0.0
Mn217 Mn 0.41654 0.66103 0.44342 0.0
C218 C 0.42836 0.65108 0.48617 0.0
C219 C 0.37877 0.59044 0.49583 0.0
C220 C 0.37106 0.68654 0.46595 0.0
O221 O 0.36448 0.62032 0.45754 0.0
O222 O 0.39448 0.63145 0.43492 0.0
C223 C 0.44978 0.61448 0.43388 0.0
N224 N 0.448 0.6408 0.43746 0.0
C225 C 0.49496 0.64594 0.42137 0.0
C226 C 0.4952 0.61761 0.42052 0.0
C227 C 0.47305 0.60294 0.42651 0.0
C228 C 0.46851 0.65676 0.43429 0.0
H229 H 0.43321 0.60179 0.4371 0.0
C230 C 0.37406 0.61881 0.44032 0.0
O231 O 0.36251 0.60992 0.499 0.0
O232 O 0.3989 0.59568 0.48491 0.0
N233 N 0.43897 0.69159 0.44748 0.0
C234 C 0.43068 0.71628 0.45244 0.0
C235 C 0.44371 0.7392 0.44595 0.0
C236 C 0.46543 0.73866 0.43319 0.0
C237 C 0.47658 0.7149 0.42718 0.0
C238 C 0.46122 0.6882 0.43695 0.0
H239 H 0.41331 0.71884 0.46123 0.0
O240 O 0.41381 0.64483 0.50111 0.0
O241 O 0.41716 0.64664 0.46959 0.0
O242 O 0.36983 0.66977 0.4801 0.0
O243 O 0.38434 0.6825 0.45007 0.0
C244 C 0.50391 0.71532 0.41256 0.0
C245 C 0.51968 0.68689 0.40583 0.0
H246 H 0.51127 0.60609 0.41452 0.0
H247 H 0.47357 0.5817 0.42479 0.0
H248 H 0.43601 0.7582 0.45047 0.0
H249 H 0.47391 0.75712 0.42859 0.0
H250 H 0.51109 0.73366 0.40667 0.0
H251 H 0.53673 0.6886 0.39603 0.0
Mn252 Mn 0.62993 0.13922 0.7302 0.0
Mn253 Mn 0.59918 0.17445 0.69552 0.0
C254 C 0.61196 0.18085 0.73817 0.0
C255 C 0.67176 0.12951 0.74394 0.0
C256 C 0.57648 0.12421 0.71318 0.0
O257 O 0.64161 0.12222 0.70417 0.0
O258 O 0.62933 0.15535 0.68415 0.0
C259 C 0.64146 0.21168 0.68414 0.0
N260 N 0.61638 0.2078 0.69064 0.0
C261 C 0.60452 0.25482 0.67684 0.0
C262 C 0.63232 0.25707 0.67266 0.0
C263 C 0.64963 0.23593 0.67621 0.0
C264 C 0.59833 0.22703 0.68969 0.0
H265 H 0.65578 0.19596 0.6852 0.0
C266 C 0.64262 0.13451 0.68783 0.0
O267 O 0.65212 0.11311 0.74562 0.0
O268 O 0.66705 0.15119 0.73467 0.0
N269 N 0.56834 0.19384 0.70438 0.0
C270 C 0.54596 0.18397 0.71268 0.0
C271 C 0.52166 0.19746 0.71177 0.0
C272 C 0.5181 0.22065 0.70083 0.0
C273 C 0.53898 0.23235 0.69089 0.0
C274 C 0.56831 0.21765 0.69584 0.0
H275 H 0.54648 0.16541 0.72029 0.0
O276 O 0.61779 0.16419 0.75196 0.0
O277 O 0.61607 0.17192 0.7208 0.0
O278 O 0.59249 0.12233 0.72776 0.0
O279 O 0.58004 0.14057 0.69912 0.0
C280 C 0.53356 0.26065 0.67797 0.0
C281 C 0.55919 0.27836 0.66814 0.0
H282 H 0.64138 0.27409 0.6659 0.0
H283 H 0.67017 0.23809 0.67204 0.0
H284 H 0.50471 0.18902 0.71915 0.0
H285 H 0.499 0.22997 0.70062 0.0
H286 H 0.51361 0.26802 0.67637 0.0
H287 H 0.55444 0.2962 0.65982 0.0
Mn288 Mn 0.88936 0.38129 0.97624 0.0
Mn289 Mn 0.923 0.35182 0.94001 0.0
C290 C 0.9314 0.36333 0.98298 0.0
C291 C 0.8796 0.42278 0.99007 0.0
C292 C 0.87646 0.32657 0.96152 0.0
O293 O 0.86889 0.39104 0.95107 0.0
O294 O 0.90148 0.38123 0.93007 0.0
C295 C 0.95713 0.39832 0.93217 0.0
N296 N 0.955 0.37196 0.93549 0.0
C297 C 1.00364 0.36696 0.92239 0.0
C298 C 1.00405 0.39532 0.92197 0.0
C299 C 0.98125 0.40994 0.9266 0.0
C300 C 0.97595 0.35605 0.93374 0.0
H301 H 0.94014 0.41095 0.93425 0.0
C302 C 0.87954 0.3922 0.93414 0.0
O303 O 0.86411 0.40264 0.99283 0.0
O304 O 0.90034 0.41885 0.97942 0.0
N305 N 0.94514 0.32119 0.94502 0.0
C306 C 0.93631 0.29637 0.94903 0.0
C307 C 0.94954 0.27353 0.9425 0.0
C308 C 0.97211 0.27428 0.93061 0.0
C309 C 0.98392 0.29814 0.92568 0.0
C310 C 0.96815 0.32466 0.93542 0.0
H311 H 0.91831 0.2936 0.95701 0.0
O312 O 0.9159 0.37039 0.99717 0.0
O313 O 0.92159 0.36721 0.96585 0.0
O314 O 0.87444 0.34375 0.97527 0.0
O315 O 0.89025 0.33031 0.94579 0.0
C316 C 0.01236 0.29788 0.91228 0.0
C317 C 0.02906 0.32631 0.90698 0.0
H318 H 0.0208 0.40688 0.91717 0.0
H319 H 0.98199 0.4312 0.92513 0.0
H320 H 0.9413 0.25446 0.94625 0.0
H321 H 0.98078 0.25592 0.92587 0.0
H322 H 0.01944 0.27977 0.90603 0.0
H323 H 0.04677 0.32477 0.89783 0.0
Mn324 Mn 0.37305 0.1313 0.71264 0.0
Mn325 Mn 0.40004 0.16926 0.67797 0.0
C326 C 0.39326 0.17118 0.7225 0.0
C327 C 0.33086 0.1216 0.72634 0.0
C328 C 0.42475 0.11819 0.69405 0.0
O329 O 0.36278 0.11485 0.68603 0.0
O330 O 0.36642 0.15258 0.66975 0.0
C331 C 0.35691 0.20918 0.67593 0.0
N332 N 0.38317 0.20382 0.67749 0.0
C333 C 0.39208 0.2535 0.66769 0.0
C334 C 0.36393 0.25671 0.66887 0.0
C335 C 0.34745 0.23494 0.67263 0.0
C336 C 0.4011 0.22315 0.67593 0.0
H337 H 0.34265 0.19348 0.67759 0.0
C338 C 0.35957 0.12847 0.6705 0.0
O339 O 0.35013 0.1046 0.72708 0.0
O340 O 0.3361 0.14354 0.71754 0.0
N341 N 0.4337 0.1873 0.68187 0.0
C342 C 0.45775 0.1752 0.68235 0.0
C343 C 0.48062 0.18626 0.67402 0.0
C344 C 0.48113 0.21124 0.66533 0.0
C345 C 0.45888 0.22716 0.66545 0.0
C346 C 0.43173 0.21224 0.67511 0.0
H347 H 0.45972 0.15608 0.68861 0.0
O348 O 0.38555 0.1541 0.73544 0.0
O349 O 0.38879 0.16412 0.70474 0.0
O350 O 0.4099 0.11533 0.70919 0.0
O351 O 0.41872 0.13366 0.67951 0.0
C352 C 0.46107 0.25761 0.65514 0.0
C353 C 0.43404 0.27749 0.65281 0.0
H354 H 0.35376 0.27508 0.66598 0.0
H355 H 0.32626 0.23799 0.67243 0.0
H356 H 0.49869 0.17477 0.67418 0.0
H357 H 0.49932 0.21834 0.65886 0.0
H358 H 0.4798 0.2643 0.64933 0.0
H359 H 0.43674 0.2965 0.64546 0.0
Mn360 Mn 0.62089 0.60713 0.46045 0.0
Mn361 Mn 0.58873 0.65094 0.43138 0.0
C362 C 0.57925 0.62231 0.46857 0.0
C363 C 0.62778 0.56261 0.47008 0.0
C364 C 0.63151 0.66726 0.45969 0.0
O365 O 0.64092 0.60314 0.43483 0.0
O366 O 0.62035 0.63569 0.41797 0.0
C367 C 0.57298 0.61806 0.39746 0.0
N368 N 0.56531 0.63387 0.4126 0.0
C369 C 0.52225 0.64324 0.39205 0.0
C370 C 0.53283 0.62677 0.37778 0.0
C371 C 0.55718 0.61411 0.3807 0.0
C372 C 0.54146 0.64564 0.41244 0.0
H373 H 0.59201 0.60859 0.39778 0.0
C374 C 0.63806 0.61766 0.41971 0.0
O375 O 0.64466 0.5809 0.47481 0.0
O376 O 0.6084 0.56999 0.4591 0.0
N377 N 0.55793 0.667 0.44335 0.0
C378 C 0.55778 0.68475 0.45831 0.0
C379 C 0.5346 0.69776 0.46425 0.0
C380 C 0.51049 0.69577 0.45422 0.0
C381 C 0.50865 0.68124 0.43618 0.0
C382 C 0.53621 0.66288 0.43256 0.0
H383 H 0.57559 0.68849 0.46657 0.0
O384 O 0.59518 0.6136 0.48195 0.0
O385 O 0.58795 0.6221 0.45058 0.0
O386 O 0.63873 0.6441 0.46526 0.0
O387 O 0.61223 0.67137 0.44818 0.0
C388 C 0.478 0.67814 0.40474 0.0
C389 C 0.49245 0.65784 0.38779 0.0
H390 H 0.5221 0.62341 0.36429 0.0
H391 H 0.56462 0.60137 0.36921 0.0
H392 H 0.53555 0.71038 0.47703 0.0
H393 H 0.49453 0.70717 0.4605 0.0
H394 H 0.45916 0.68743 0.40091 0.0
H395 H 0.48245 0.65442 0.37401 0.0
Mn396 Mn 0.14664 0.87299 0.21912 0.0
Mn397 Mn 0.10803 0.84108 0.18587 0.0
C398 C 0.13549 0.82926 0.22364 0.0
C399 C 0.18961 0.88499 0.22945 0.0
C400 C 0.08624 0.87991 0.21578 0.0
O401 O 0.14917 0.89693 0.19547 0.0
O402 O 0.12374 0.87369 0.17432 0.0
C403 C 0.14346 0.8282 0.15274 0.0
N404 N 0.12711 0.81919 0.16712 0.0
C405 C 0.11926 0.77787 0.14442 0.0
C406 C 0.13626 0.78973 0.13108 0.0
C407 C 0.14844 0.81388 0.13542 0.0
C408 C 0.11564 0.79534 0.16555 0.0
H409 H 0.15248 0.84724 0.15412 0.0
C410 C 0.13865 0.89334 0.17875 0.0
O411 O 0.16881 0.8976 0.23564 0.0
O412 O 0.18545 0.86586 0.21732 0.0
N413 N 0.09214 0.80921 0.19626 0.0
C414 C 0.07375 0.80761 0.21077 0.0
C415 C 0.0612 0.78373 0.21554 0.0
C416 C 0.0643 0.76043 0.20468 0.0
C417 C 0.07968 0.7602 0.18695 0.0
C418 C 0.09758 0.7883 0.18494 0.0
H419 H 0.06917 0.82473 0.21955 0.0
O420 O 0.14261 0.84386 0.23831 0.0
O421 O 0.13547 0.84032 0.20636 0.0
O422 O 0.10787 0.88593 0.22455 0.0
O423 O 0.08505 0.86321 0.20195 0.0
C424 C 0.0847 0.7322 0.15433 0.0
C425 C 0.10541 0.74828 0.13852 0.0
H426 H 0.14042 0.78015 0.11723 0.0
H427 H 0.16159 0.82239 0.12461 0.0
H428 H 0.04803 0.78346 0.22806 0.0
H429 H 0.05308 0.74379 0.21005 0.0
H430 H 0.07592 0.71358 0.14946 0.0
H431 H 0.10962 0.73946 0.12442 0.0
Mn432 Mn 0.89378 0.61637 0.03349 0.0
Mn433 Mn 0.92477 0.65477 0.06722 0.0
C434 C 0.93774 0.62794 0.02978 0.0
C435 C 0.88222 0.57425 0.0214 0.0
C436 C 0.88624 0.67662 0.03774 0.0
O437 O 0.87 0.61195 0.05697 0.0
O438 O 0.89093 0.63991 0.07775 0.0
C439 C 0.93475 0.61972 0.10104 0.0
N440 N 0.94503 0.63558 0.08685 0.0
C441 C 0.98468 0.64368 0.11116 0.0
C442 C 0.97161 0.62718 0.1242 0.0
C443 C 0.94768 0.6151 0.11902 0.0
C444 C 0.96884 0.64692 0.0893 0.0
H445 H 0.91574 0.61082 0.09896 0.0
C446 C 0.8721 0.6239 0.0733 0.0
O447 O 0.86931 0.59531 0.01619 0.0
O448 O 0.90154 0.57766 0.03356 0.0
N449 N 0.95762 0.66978 0.0578 0.0
C450 C 0.96057 0.68768 0.04311 0.0
C451 C 0.98503 0.69962 0.03905 0.0
C452 C 0.00751 0.69642 0.05085 0.0
C453 C 1.00616 0.68162 0.0688 0.0
C454 C 0.97762 0.66426 0.06996 0.0
H455 H 0.94413 0.69228 0.03362 0.0
O456 O 0.92327 0.62221 0.01466 0.0
O457 O 0.92619 0.62724 0.04686 0.0
O458 O 0.8792 0.6548 0.02982 0.0
O459 O 0.90442 0.67823 0.05043 0.0
C460 C 0.03166 0.67718 0.10258 0.0
C461 C 0.01406 0.65724 0.11804 0.0
H462 H 0.98009 0.62329 0.13848 0.0
H463 H 0.93821 0.60232 0.12962 0.0
H464 H 0.98643 0.71237 0.02636 0.0
H465 H 0.02475 0.70715 0.04597 0.0
H466 H 0.05007 0.6858 0.10806 0.0
H467 H 0.02178 0.65332 0.13253 0.0
Mn468 Mn 0.14182 0.13805 0.78585 0.0
Mn469 Mn 0.10077 0.16831 0.81795 0.0
C470 C 0.12902 0.18132 0.78126 0.0
C471 C 0.18552 0.12965 0.77453 0.0
C472 C 0.08059 0.13293 0.78558 0.0
O473 O 0.14544 0.11441 0.80988 0.0
O474 O 0.11285 0.13305 0.82778 0.0
C475 C 0.13821 0.17395 0.85124 0.0
N476 N 0.12144 0.18579 0.83831 0.0
C477 C 0.12041 0.22553 0.86304 0.0
C478 C 0.13695 0.21071 0.87497 0.0
C479 C 0.14609 0.18594 0.86891 0.0
C480 C 0.11314 0.21061 0.84137 0.0
H481 H 0.14567 0.15461 0.84827 0.0
C482 C 0.13055 0.11523 0.82497 0.0
O483 O 0.16585 0.11484 0.76905 0.0
O484 O 0.17997 0.14771 0.78721 0.0
N485 N 0.08742 0.20282 0.81029 0.0
C486 C 0.0684 0.20795 0.79671 0.0
C487 C 0.0575 0.23331 0.79427 0.0
C488 C 0.0631 0.25471 0.80666 0.0
C489 C 0.07934 0.25133 0.82367 0.0
C490 C 0.09455 0.22144 0.82323 0.0
H491 H 0.06188 0.19258 0.78689 0.0
O492 O 0.13649 0.16693 0.76658 0.0
O493 O 0.12923 0.17016 0.79846 0.0
O494 O 0.10334 0.12406 0.78021 0.0
O495 O 0.07768 0.1506 0.79873 0.0
C496 C 0.09012 0.27518 0.85729 0.0
C497 C 0.1103 0.25562 0.87108 0.0
H498 H 0.1432 0.21847 0.88901 0.0
H499 H 0.15927 0.17517 0.87853 0.0
H500 H 0.04371 0.23635 0.78235 0.0
H501 H 0.05346 0.27299 0.80288 0.0
H502 H 0.084 0.29412 0.86355 0.0
H503 H 0.1166 0.26255 0.88533 0.0
Mn504 Mn 0.62794 0.37458 0.53003 0.0
Mn505 Mn 0.59262 0.34639 0.56605 0.0
C506 C 0.58683 0.35453 0.52276 0.0
C507 C 0.63658 0.41565 0.51453 0.0
C508 C 0.64206 0.32166 0.54837 0.0
O509 O 0.64504 0.38879 0.55556 0.0
O510 O 0.61246 0.37666 0.57591 0.0
C511 C 0.55727 0.39198 0.57234 0.0
N512 N 0.56007 0.36565 0.56927 0.0
C513 C 0.51363 0.35899 0.58533 0.0
C514 C 0.51219 0.38736 0.58577 0.0
C515 C 0.53357 0.4028 0.57941 0.0
C516 C 0.5401 0.34896 0.57225 0.0
H517 H 0.57347 0.40511 0.56909 0.0
C518 C 0.63297 0.3901 0.57199 0.0
O519 O 0.6536 0.3964 0.51375 0.0
O520 O 0.61506 0.41085 0.52405 0.0
N521 N 0.57181 0.31519 0.56039 0.0
C522 C 0.5816 0.29086 0.55605 0.0
C523 C 0.56933 0.26749 0.56248 0.0
C524 C 0.54709 0.26732 0.57477 0.0
C525 C 0.53452 0.29067 0.58013 0.0
C526 C 0.54864 0.31776 0.56991 0.0
H527 H 0.5997 0.28906 0.54792 0.0
O528 O 0.60321 0.36032 0.50878 0.0
O529 O 0.5956 0.36023 0.53987 0.0
O530 O 0.64496 0.33761 0.53385 0.0
O531 O 0.62599 0.32589 0.56266 0.0
C532 C 0.50742 0.28948 0.59505 0.0
C533 C 0.49074 0.31754 0.60169 0.0
H534 H 0.49578 0.3984 0.59175 0.0
H535 H 0.53216 0.42404 0.5808 0.0
H536 H 0.57822 0.24878 0.55854 0.0
H537 H 0.53962 0.24863 0.57977 0.0
H538 H 0.5009 0.2709 0.60099 0.0
H539 H 0.47386 0.31547 0.61162 0.0
Mn540 Mn 0.38493 0.87237 0.26798 0.0
Mn541 Mn 0.411 0.84212 0.30685 0.0
C542 C 0.39975 0.82838 0.26438 0.0
C543 C 0.34345 0.88313 0.25423 0.0
C544 C 0.43937 0.88473 0.28301 0.0
O545 O 0.37701 0.89678 0.29143 0.0
O546 O 0.38151 0.86533 0.31409 0.0
C547 C 0.36324 0.8108 0.31668 0.0
N548 N 0.38972 0.81156 0.3133 0.0
C549 C 0.39299 0.7651 0.33035 0.0
C550 C 0.36459 0.76573 0.33067 0.0
C551 C 0.35077 0.78817 0.32421 0.0
C552 C 0.40501 0.79069 0.3171 0.0
H553 H 0.35111 0.82769 0.31313 0.0
C554 C 0.37324 0.88785 0.30865 0.0
O555 O 0.36452 0.89664 0.24989 0.0
O556 O 0.34659 0.86354 0.26608 0.0
N557 N 0.4412 0.81868 0.30404 0.0
C558 C 0.4664 0.82608 0.29961 0.0
C559 C 0.48872 0.81286 0.30707 0.0
C560 C 0.48705 0.79182 0.32033 0.0
C561 C 0.4627 0.78157 0.32589 0.0
C562 C 0.43677 0.79708 0.31505 0.0
H563 H 0.46989 0.8429 0.29047 0.0
O564 O 0.39361 0.8423 0.24912 0.0
O565 O 0.3971 0.84091 0.28062 0.0
O566 O 0.42354 0.88492 0.26826 0.0
O567 O 0.43377 0.87344 0.29951 0.0
C568 C 0.46183 0.75501 0.34118 0.0
C569 C 0.4327 0.74022 0.34754 0.0
H570 H 0.35239 0.75022 0.3367 0.0
H571 H 0.32945 0.78839 0.32566 0.0
H572 H 0.50814 0.8199 0.30291 0.0
H573 H 0.50506 0.78306 0.32572 0.0
H574 H 0.47979 0.74804 0.34789 0.0
H575 H 0.43356 0.72371 0.35785 0.0
Mn576 Mn 0.62439 0.10937 0.53989 0.0
Mn577 Mn 0.58824 0.14911 0.56988 0.0
C578 C 0.58317 0.12337 0.53044 0.0
C579 C 0.63676 0.0665 0.52991 0.0
C580 C 0.63115 0.17004 0.54322 0.0
O581 O 0.64323 0.10493 0.56586 0.0
O582 O 0.61991 0.13441 0.58359 0.0
C583 C 0.57316 0.11169 0.60117 0.0
N584 N 0.56514 0.12898 0.58709 0.0
C585 C 0.52247 0.13592 0.60851 0.0
C586 C 0.53353 0.11834 0.62176 0.0
C587 C 0.55778 0.10602 0.61785 0.0
C588 C 0.54104 0.1401 0.58796 0.0
H589 H 0.59216 0.10233 0.60004 0.0
C590 C 0.63868 0.11758 0.58159 0.0
O591 O 0.65134 0.08691 0.52582 0.0
O592 O 0.61551 0.07094 0.53991 0.0
N593 N 0.55689 0.16484 0.55833 0.0
C594 C 0.5564 0.18466 0.54488 0.0
C595 C 0.53282 0.1974 0.5395 0.0
C596 C 0.50867 0.19341 0.54912 0.0
C597 C 0.50733 0.17723 0.56639 0.0
C598 C 0.53516 0.15889 0.56874 0.0
H599 H 0.57427 0.19025 0.5373 0.0
O600 O 0.60026 0.11529 0.51763 0.0
O601 O 0.58993 0.12208 0.54896 0.0
O602 O 0.63943 0.14777 0.53657 0.0
O603 O 0.61152 0.17231 0.55476 0.0
C604 C 0.47765 0.17145 0.59815 0.0
C605 C 0.49272 0.14995 0.61393 0.0
H606 H 0.52319 0.11377 0.63515 0.0
H607 H 0.56551 0.09223 0.62853 0.0
H608 H 0.53351 0.21153 0.52761 0.0
H609 H 0.49237 0.20492 0.54348 0.0
H610 H 0.45891 0.18034 0.60272 0.0
H611 H 0.48318 0.14537 0.62771 0.0
Mn612 Mn 0.13563 0.37576 0.78542 0.0
Mn613 Mn 0.11067 0.34092 0.82252 0.0
C614 C 0.11436 0.33545 0.7779 0.0
C615 C 0.17736 0.38464 0.7715 0.0
C616 C 0.08624 0.39183 0.80609 0.0
O617 O 0.14933 0.39321 0.81053 0.0
O618 O 0.14486 0.3572 0.8289 0.0
C619 C 0.1532 0.30063 0.82515 0.0
N620 N 0.12695 0.30628 0.82397 0.0
C621 C 0.1178 0.25797 0.83676 0.0
C622 C 0.14585 0.2542 0.83519 0.0
C623 C 0.16245 0.27518 0.82975 0.0
C624 C 0.10883 0.28761 0.82725 0.0
H625 H 0.16763 0.31582 0.82218 0.0
C626 C 0.15559 0.37935 0.82531 0.0
O627 O 0.15804 0.40148 0.76992 0.0
O628 O 0.17201 0.36257 0.78005 0.0
N629 N 0.07645 0.32346 0.82041 0.0
C630 C 0.05268 0.33614 0.82026 0.0
C631 C 0.02995 0.32592 0.82935 0.0
C632 C 0.02916 0.30119 0.83841 0.0
C633 C 0.0512 0.28497 0.8385 0.0
C634 C 0.0783 0.29892 0.82798 0.0
H635 H 0.05089 0.35517 0.81374 0.0
O636 O 0.12101 0.35169 0.76404 0.0
O637 O 0.12005 0.34383 0.79516 0.0
O638 O 0.09947 0.39307 0.79002 0.0
O639 O 0.09296 0.37675 0.82063 0.0
C640 C 0.04897 0.25536 0.85006 0.0
C641 C 0.07591 0.23549 0.85299 0.0
H642 H 0.1559 0.23604 0.83888 0.0
H643 H 0.18359 0.27181 0.82962 0.0
H644 H 0.01219 0.33787 0.82945 0.0
H645 H 0.01103 0.29468 0.84532 0.0
H646 H 0.03025 0.24923 0.85625 0.0
H647 H 0.07317 0.21706 0.86111 0.0
Mn648 Mn 0.88405 0.88456 0.02883 0.0
Mn649 Mn 0.91743 0.85327 0.06397 0.0
C650 C 0.92769 0.87012 0.02175 0.0
C651 C 0.8741 0.92757 0.01758 0.0
C652 C 0.87216 0.82888 0.04032 0.0
O653 O 0.8622 0.88963 0.05426 0.0
O654 O 0.8964 0.88304 0.07423 0.0
C655 C 0.95211 0.89891 0.07327 0.0
N656 N 0.9497 0.87279 0.06907 0.0
C657 C 0.99887 0.86706 0.08076 0.0
C658 C 0.99965 0.89539 0.08146 0.0
C659 C 0.97663 0.91026 0.07814 0.0
C660 C 0.97062 0.85667 0.06994 0.0
H661 H 0.93513 0.91176 0.07207 0.0
C662 C 0.87293 0.89094 0.07116 0.0
O663 O 0.85871 0.90775 0.01352 0.0
O664 O 0.89421 0.92245 0.02858 0.0
N665 N 0.93923 0.82235 0.05874 0.0
C666 C 0.93014 0.79761 0.05474 0.0
C667 C 0.9432 0.77456 0.06095 0.0
C668 C 0.96602 0.7749 0.07251 0.0
C669 C 0.97817 0.79855 0.07742 0.0
C670 C 0.96241 0.82542 0.06815 0.0
H671 H 0.91209 0.79499 0.04697 0.0
O672 O 0.9122 0.87811 0.00785 0.0
O673 O 0.9162 0.86951 0.03851 0.0
O674 O 0.8706 0.84679 0.02705 0.0
O675 O 0.88435 0.83234 0.0569 0.0
C676 C 0.00707 0.79773 0.09021 0.0
C677 C 0.02434 0.8259 0.09535 0.0
H678 H 0.0168 0.90669 0.08579 0.0
H679 H 0.97757 0.93145 0.08003 0.0
H680 H 0.93468 0.75563 0.05716 0.0
H681 H 0.97465 0.7564 0.07696 0.0
H682 H 0.01399 0.77932 0.09615 0.0
H683 H 0.04237 0.82404 0.10411 0.0
Mn684 Mn 0.35739 0.6359 0.29254 0.0
Mn685 Mn 0.39723 0.67077 0.32333 0.0
C686 C 0.36938 0.67865 0.2851 0.0
C687 C 0.31483 0.62269 0.28212 0.0
C688 C 0.41774 0.62857 0.29545 0.0
O689 O 0.35424 0.61542 0.31815 0.0
O690 O 0.38072 0.64042 0.3374 0.0
C691 C 0.36213 0.68902 0.35529 0.0
N692 N 0.37894 0.69556 0.34045 0.0
C693 C 0.38829 0.73924 0.36021 0.0
C694 C 0.37079 0.72975 0.37422 0.0
C695 C 0.35765 0.70567 0.3715 0.0
C696 C 0.39122 0.71912 0.34036 0.0
H697 H 0.35229 0.67022 0.35517 0.0
C698 C 0.36479 0.62103 0.33463 0.0
O699 O 0.33586 0.60925 0.27762 0.0
O700 O 0.31844 0.64324 0.29308 0.0
N701 N 0.41399 0.70067 0.31066 0.0
C702 C 0.43225 0.69983 0.29603 0.0
C703 C 0.44584 0.72248 0.28975 0.0
C704 C 0.44396 0.74701 0.29917 0.0
C705 C 0.42869 0.74997 0.31681 0.0
C706 C 0.40957 0.72303 0.32062 0.0
H707 H 0.43599 0.68163 0.28831 0.0
O708 O 0.36189 0.66247 0.27146 0.0
O709 O 0.36929 0.66978 0.30307 0.0
O710 O 0.39574 0.62214 0.28753 0.0
O711 O 0.41963 0.64615 0.30864 0.0
C712 C 0.42483 0.78204 0.34738 0.0
C713 C 0.40339 0.76884 0.36414 0.0
H714 H 0.36698 0.74116 0.38734 0.0
H715 H 0.34409 0.6991 0.38277 0.0
H716 H 0.45889 0.72072 0.27724 0.0
H717 H 0.45596 0.76241 0.29278 0.0
H718 H 0.43435 0.80081 0.35098 0.0
H719 H 0.39952 0.77953 0.37757 0.0
Mn720 Mn 0.62394 0.87366 0.48569 0.0
Mn721 Mn 0.5951 0.8464 0.44655 0.0
C722 C 0.57979 0.85882 0.48843 0.0
C723 C 0.63421 0.91456 0.5003 0.0
C724 C 0.63693 0.81875 0.4715 0.0
O725 O 0.64888 0.88214 0.46252 0.0
O726 O 0.61888 0.87512 0.43899 0.0
C727 C 0.56432 0.89386 0.43502 0.0
N728 N 0.56488 0.86759 0.43902 0.0
C729 C 0.5185 0.86386 0.42176 0.0
C730 C 0.51932 0.89217 0.42075 0.0
C731 C 0.5418 0.90611 0.42704 0.0
C732 C 0.54397 0.8523 0.43539 0.0
H733 H 0.58125 0.906 0.43844 0.0
C734 C 0.64062 0.88479 0.44496 0.0
O735 O 0.64766 0.89341 0.50445 0.0
O736 O 0.61504 0.91192 0.48796 0.0
N737 N 0.57134 0.81667 0.44979 0.0
C738 C 0.57832 0.79176 0.45521 0.0
C739 C 0.56506 0.76922 0.44828 0.0
C740 C 0.5444 0.77036 0.43465 0.0
C741 C 0.53452 0.79441 0.4281 0.0
C742 C 0.55013 0.82068 0.43829 0.0
H743 H 0.59476 0.78866 0.46481 0.0
O744 O 0.5933 0.86466 0.50397 0.0
O745 O 0.59278 0.86176 0.47238 0.0
O746 O 0.63677 0.83516 0.48584 0.0
O747 O 0.626 0.82369 0.45479 0.0
C748 C 0.50797 0.79475 0.41271 0.0
C749 C 0.49342 0.82362 0.40553 0.0
H750 H 0.50392 0.90418 0.41434 0.0
H751 H 0.54215 0.92731 0.42509 0.0
H752 H 0.57171 0.75003 0.45323 0.0
H753 H 0.53558 0.75217 0.42991 0.0
H754 H 0.50042 0.77659 0.40677 0.0
H755 H 0.47685 0.8224 0.39525 0.0
Mn756 Mn 0.37025 0.3693 0.72528 0.0
Mn757 Mn 0.40914 0.34226 0.68995 0.0
C758 C 0.38061 0.32523 0.72619 0.0
C759 C 0.32625 0.38026 0.73408 0.0
C760 C 0.4313 0.37349 0.72456 0.0
O761 O 0.36902 0.39695 0.70422 0.0
O762 O 0.39577 0.37798 0.68185 0.0
C763 C 0.37225 0.33884 0.65627 0.0
N764 N 0.38821 0.32586 0.66915 0.0
C765 C 0.38964 0.28792 0.64285 0.0
C766 C 0.37343 0.30362 0.63132 0.0
C767 C 0.36455 0.3281 0.63813 0.0
C768 C 0.39645 0.3012 0.6652 0.0
H769 H 0.3656 0.35831 0.65952 0.0
C770 C 0.38005 0.39644 0.68753 0.0
O771 O 0.34622 0.39148 0.74278 0.0
O772 O 0.33199 0.36285 0.721 0.0
N773 N 0.4227 0.30724 0.69621 0.0
C774 C 0.44165 0.30118 0.70963 0.0
C775 C 0.45213 0.27554 0.71138 0.0
C776 C 0.44629 0.25487 0.69836 0.0
C777 C 0.43025 0.25941 0.68139 0.0
C778 C 0.41495 0.28918 0.68295 0.0
H779 H 0.44832 0.31597 0.71987 0.0
O780 O 0.3727 0.33739 0.74184 0.0
O781 O 0.38149 0.33895 0.71003 0.0
O782 O 0.40918 0.3797 0.73273 0.0
O783 O 0.43297 0.35917 0.70919 0.0
C784 C 0.42021 0.2381 0.64671 0.0
C785 C 0.40009 0.25856 0.6336 0.0
H786 H 0.36747 0.29692 0.61692 0.0
H787 H 0.35192 0.33977 0.62868 0.0
H788 H 0.46578 0.27166 0.72326 0.0
H789 H 0.45552 0.23622 0.70166 0.0
H790 H 0.42658 0.21972 0.63972 0.0
H791 H 0.39408 0.25273 0.61902 0.0
Mn792 Mn 0.8964 0.11547 0.95955 0.0
Mn793 Mn 0.92763 0.15668 0.92802 0.0
C794 C 0.93848 0.13079 0.96608 0.0
C795 C 0.88856 0.07269 0.97196 0.0
C796 C 0.8852 0.17511 0.95566 0.0
O797 O 0.87645 0.1085 0.93443 0.0
O798 O 0.89563 0.14007 0.91567 0.0
C799 C 0.94242 0.12356 0.89398 0.0
N800 N 0.95057 0.1391 0.90911 0.0
C801 C 0.99346 0.14751 0.88807 0.0
C802 C 0.98239 0.13122 0.87395 0.0
C803 C 0.95781 0.11923 0.87708 0.0
C804 C 0.97441 0.15077 0.90851 0.0
H805 H 0.92329 0.11471 0.89437 0.0
C806 C 0.87861 0.12155 0.91855 0.0
O807 O 0.87213 0.09187 0.97544 0.0
O808 O 0.90846 0.07814 0.9608 0.0
N809 N 0.95877 0.17311 0.93921 0.0
C810 C 0.95963 0.19088 0.95414 0.0
C811 C 0.98335 0.20298 0.96001 0.0
C812 C 0.00742 0.19977 0.95007 0.0
C813 C 0.00871 0.18498 0.93212 0.0
C814 C 0.98034 0.16792 0.92852 0.0
H815 H 0.942 0.19528 0.96244 0.0
O816 O 0.9226 0.1243 0.98021 0.0
O817 O 0.9292 0.12903 0.94827 0.0
O818 O 0.87813 0.15247 0.96218 0.0
O819 O 0.90473 0.17837 0.9443 0.0
C820 C 0.03916 0.18037 0.90067 0.0
C821 C 0.02384 0.16075 0.88376 0.0
H822 H 0.99294 0.12742 0.86043 0.0
H823 H 0.94989 0.10667 0.86567 0.0
H824 H 0.98291 0.2157 0.97276 0.0
H825 H 0.02386 0.21048 0.95631 0.0
H826 H 0.05838 0.1888 0.89678 0.0
H827 H 0.0337 0.15681 0.87 0.0
Mn828 Mn 0.12603 0.63367 0.22786 0.0
Mn829 Mn 0.10157 0.66811 0.19053 0.0
C830 C 0.11014 0.67671 0.23395 0.0
C831 C 0.16625 0.62244 0.24327 0.0
C832 C 0.07328 0.62178 0.21022 0.0
O833 O 0.13562 0.61269 0.2027 0.0
O834 O 0.13251 0.64711 0.18238 0.0
C835 C 0.14785 0.70273 0.18336 0.0
N836 N 0.12144 0.70033 0.18657 0.0
C837 C 0.1159 0.74833 0.17242 0.0
C838 C 0.14431 0.74907 0.17213 0.0
C839 C 0.1592 0.72669 0.17726 0.0
C840 C 0.10513 0.72076 0.18391 0.0
H841 H 0.16077 0.68609 0.18585 0.0
C842 C 0.13958 0.62353 0.18602 0.0
O843 O 0.1454 0.60766 0.2452 0.0
O844 O 0.16386 0.64301 0.23227 0.0
N845 N 0.07031 0.68966 0.19483 0.0
C846 C 0.04555 0.68087 0.19916 0.0
C847 C 0.02259 0.694 0.19281 0.0
C848 C 0.02321 0.71648 0.18089 0.0
C849 C 0.04702 0.72837 0.17582 0.0
C850 C 0.07369 0.71275 0.18548 0.0
H851 H 0.04293 0.66319 0.20749 0.0
O852 O 0.11537 0.66098 0.24841 0.0
O853 O 0.1144 0.66644 0.21703 0.0
O854 O 0.08777 0.62038 0.22562 0.0
O855 O 0.07998 0.63509 0.19483 0.0
C856 C 0.04658 0.75672 0.16241 0.0
C857 C 0.07501 0.77347 0.15701 0.0
H858 H 0.15577 0.76576 0.16712 0.0
H859 H 0.1805 0.72766 0.17586 0.0
H860 H 1.00354 0.68585 0.1968 0.0
H861 H 1.00476 0.72506 0.17634 0.0
H862 H 0.02819 0.76389 0.15651 0.0
H863 H 0.07337 0.79119 0.14792 0.0
Mn864 Mn 0.38675 0.89884 0.45741 0.0
Mn865 Mn 0.42387 0.85934 0.42794 0.0
C866 C 0.42955 0.88754 0.46598 0.0
C867 C 0.37319 0.94138 0.46764 0.0
C868 C 0.38009 0.83848 0.45416 0.0
O869 O 0.36734 0.90156 0.43131 0.0
O870 O 0.39349 0.87464 0.41313 0.0
C871 C 0.44234 0.89369 0.39577 0.0
N872 N 0.44885 0.87767 0.41107 0.0
C873 C 0.49276 0.86735 0.39175 0.0
C874 C 0.48336 0.88418 0.37727 0.0
C875 C 0.45919 0.89743 0.37954 0.0
C876 C 0.4725 0.86549 0.41161 0.0
H877 H 0.42338 0.90338 0.39552 0.0
C878 C 0.37366 0.89024 0.41524 0.0
O879 O 0.35941 0.92046 0.47174 0.0
O880 O 0.39415 0.9377 0.45711 0.0
N881 N 0.45359 0.84363 0.44146 0.0
C882 C 0.45247 0.82586 0.45638 0.0
C883 C 0.47509 0.81276 0.46327 0.0
C884 C 0.49984 0.8145 0.45414 0.0
C885 C 0.50303 0.829 0.43617 0.0
C886 C 0.4762 0.84803 0.43179 0.0
H887 H 0.43402 0.82222 0.46386 0.0
O888 O 0.4125 0.89442 0.47923 0.0
O889 O 0.42138 0.88741 0.44785 0.0
O890 O 0.37236 0.86044 0.4615 0.0
O891 O 0.39919 0.83675 0.44219 0.0
C892 C 0.53536 0.83115 0.40561 0.0
C893 C 0.52235 0.85187 0.38828 0.0
H894 H 0.49487 0.88732 0.36409 0.0
H895 H 0.45267 0.91039 0.36789 0.0
H896 H 0.47313 0.80018 0.47602 0.0
H897 H 0.51523 0.80291 0.46097 0.0
H898 H 0.5541 0.8213 0.40231 0.0
H899 H 0.53314 0.85501 0.37478 0.0
Mn900 Mn 0.86109 0.6436 0.21729 0.0
Mn901 Mn 0.90292 0.67304 0.18509 0.0
C902 C 0.87478 0.68652 0.22211 0.0
C903 C 0.81676 0.63582 0.22676 0.0
C904 C 0.92137 0.63413 0.21589 0.0
O905 O 0.85765 0.62002 0.19364 0.0
O906 O 0.88739 0.64007 0.17385 0.0
C907 C 0.86931 0.68494 0.1507 0.0
N908 N 0.88506 0.69433 0.16532 0.0
C909 C 0.89304 0.73549 0.1425 0.0
C910 C 0.87667 0.72325 0.12895 0.0
C911 C 0.86474 0.69896 0.1332 0.0
C912 C 0.89635 0.71825 0.16376 0.0
H913 H 0.86042 0.66584 0.15205 0.0
C914 C 0.87056 0.62178 0.17771 0.0
O915 O 0.83575 0.62073 0.23312 0.0
O916 O 0.82351 0.65432 0.21482 0.0
N917 N 0.91878 0.70517 0.19511 0.0
C918 C 0.93668 0.70721 0.20991 0.0
C919 C 0.94891 0.73129 0.21463 0.0
C920 C 0.94588 0.75441 0.20353 0.0
C921 C 0.93103 0.75422 0.18557 0.0
C922 C 0.91367 0.72578 0.18341 0.0
H923 H 0.9411 0.69031 0.21895 0.0
O924 O 0.86657 0.67227 0.23666 0.0
O925 O 0.87471 0.67544 0.20484 0.0
O926 O 0.89879 0.62806 0.22329 0.0
O927 O 0.92432 0.6514 0.20258 0.0
C928 C 0.92643 0.78186 0.15275 0.0
C929 C 0.9065 0.76528 0.1367 0.0
H930 H 0.8728 0.73263 0.11498 0.0
H931 H 0.85206 0.69014 0.12222 0.0
H932 H 0.96169 0.73189 0.22734 0.0
H933 H 0.95674 0.77125 0.20894 0.0
H934 H 0.93499 0.80059 0.14793 0.0
H935 H 0.90255 0.77392 0.1225 0.0
Mn936 Mn 0.13406 0.13198 0.9733 0.0
Mn937 Mn 0.10001 0.16052 0.9373 0.0
C938 C 0.09182 0.14986 0.98033 0.0
C939 C 0.14333 0.08962 0.98646 0.0
C940 C 0.14779 0.18565 0.95721 0.0
O941 O 0.15378 0.12165 0.94772 0.0
O942 O 0.11997 0.13012 0.92761 0.0
C943 C 0.0645 0.11539 0.92941 0.0
N944 N 0.06745 0.14159 0.93303 0.0
C945 C 0.02077 0.14902 0.91737 0.0
C946 C 0.01912 0.12069 0.91659 0.0
C947 C 0.04059 0.10495 0.92239 0.0
C948 C 0.04763 0.15852 0.93022 0.0
H949 H 0.08068 0.10199 0.93222 0.0
C950 C 0.14199 0.11914 0.93127 0.0
O951 O 0.15933 0.10937 0.98933 0.0
O952 O 0.12237 0.09474 0.9764 0.0
N953 N 0.07924 0.19179 0.9428 0.0
C954 C 0.08883 0.21595 0.94778 0.0
C955 C 0.07688 0.23952 0.94148 0.0
C956 C 0.055 0.24012 0.9289 0.0
C957 C 0.04239 0.217 0.92308 0.0
C958 C 0.05644 0.18957 0.93282 0.0
H959 H 0.10635 0.2175 0.9565 0.0
O960 O 0.1075 0.14302 0.99447 0.0
O961 O 0.10178 0.14611 0.96327 0.0
O962 O 0.14954 0.16976 0.97187 0.0
O963 O 0.13353 0.18079 0.94195 0.0
C964 C 0.01502 0.21877 0.9085 0.0
C965 C 0.99793 0.19107 0.90177 0.0
H966 H 1.00247 0.10994 0.91072 0.0
H967 H 0.03905 0.08376 0.92066 0.0
H968 H 0.08564 0.25808 0.94592 0.0
H969 H 0.0477 0.259 0.92425 0.0
H970 H 0.0085 0.23749 0.90285 0.0
H971 H 0.98089 0.19352 0.89206 0.0
Mn972 Mn 0.64223 0.37746 0.72057 0.0
Mn973 Mn 0.59771 0.34703 0.69135 0.0
C974 C 0.62983 0.33451 0.72664 0.0
C975 C 0.68684 0.38494 0.72971 0.0
C976 C 0.58178 0.38591 0.72273 0.0
O977 O 0.64492 0.39882 0.6955 0.0
O978 O 0.61174 0.37978 0.67823 0.0
C979 C 0.62419 0.33475 0.65373 0.0
N980 N 0.61225 0.32549 0.67029 0.0
C981 C 0.59884 0.2842 0.64902 0.0
C982 C 0.61161 0.29634 0.63344 0.0
C983 C 0.62442 0.32061 0.63595 0.0
C984 C 0.60062 0.30165 0.67028 0.0
H985 H 0.63322 0.35388 0.65365 0.0
C986 C 0.6309 0.3964 0.68002 0.0
O987 O 0.66815 0.40071 0.73557 0.0
O988 O 0.6798 0.36644 0.71783 0.0
N989 N 0.58433 0.31515 0.70339 0.0
C990 C 0.56974 0.31316 0.7201 0.0
C991 C 0.56007 0.28885 0.72687 0.0
C992 C 0.56234 0.2653 0.71625 0.0
C993 C 0.57274 0.26543 0.69666 0.0
C994 C 0.58846 0.29415 0.69196 0.0
H995 H 0.56647 0.33025 0.72917 0.0
O996 O 0.63771 0.3497 0.74077 0.0
O997 O 0.62838 0.34502 0.70915 0.0
O998 O 0.60497 0.39369 0.72775 0.0
O999 O 0.57799 0.36824 0.70999 0.0
C1000 C 0.56949 0.23749 0.66394 0.0
C1001 C 0.58469 0.25416 0.64533 0.0
H1002 H 0.61207 0.28684 0.61923 0.0
H1003 H 0.63422 0.32934 0.62342 0.0
H1004 H 0.55026 0.28833 0.74098 0.0
H1005 H 0.55412 0.24813 0.72338 0.0
H1006 H 0.56005 0.21864 0.66044 0.0
H1007 H 0.58515 0.24541 0.63087 0.0
Mn1008 Mn 0.38466 0.13151 0.51976 0.0
Mn1009 Mn 0.41501 0.15703 0.55858 0.0
C1010 C 0.42988 0.14346 0.51625 0.0
C1011 C 0.37314 0.09037 0.50583 0.0
C1012 C 0.37291 0.18559 0.53408 0.0
O1013 O 0.35945 0.12639 0.54346 0.0
O1014 O 0.39278 0.12609 0.56454 0.0
C1015 C 0.44808 0.11025 0.56832 0.0
N1016 N 0.44648 0.13663 0.56476 0.0
C1017 C 0.49427 0.14075 0.57985 0.0
C1018 C 0.49451 0.11241 0.5797 0.0
C1019 C 0.47175 0.09822 0.57447 0.0
C1020 C 0.46728 0.15238 0.5679 0.0
H1021 H 0.43121 0.09772 0.56563 0.0
C1022 C 0.36853 0.12247 0.56067 0.0
O1023 O 0.36008 0.11172 0.50163 0.0
O1024 O 0.39211 0.09275 0.51836 0.0
N1025 N 0.43752 0.18815 0.55649 0.0
C1026 C 0.42932 0.21331 0.55282 0.0
C1027 C 0.44234 0.23567 0.56031 0.0
C1028 C 0.4642 0.23413 0.5728 0.0
C1029 C 0.47544 0.20993 0.57744 0.0
C1030 C 0.45987 0.18395 0.56671 0.0
H1031 H 0.41206 0.21685 0.54426 0.0
O1032 O 0.41576 0.13747 0.50107 0.0
O1033 O 0.41633 0.144 0.53214 0.0
O1034 O 0.37355 0.17013 0.51917 0.0
O1035 O 0.38293 0.17931 0.551 0.0
C1036 C 0.50316 0.20936 0.59156 0.0
C1037 C 0.51923 0.18058 0.59675 0.0
H1038 H 0.51093 0.10053 0.58471 0.0
H1039 H 0.47215 0.07693 0.57577 0.0
H1040 H 0.43453 0.25499 0.55676 0.0
H1041 H 0.47277 0.25215 0.57827 0.0
H1042 H 0.51035 0.2273 0.59809 0.0
H1043 H 0.53652 0.18161 0.60636 0.0
Mn1044 Mn 0.62259 0.63557 0.27299 0.0
Mn1045 Mn 0.59931 0.66695 0.31196 0.0
C1046 C 0.60646 0.67908 0.26874 0.0
C1047 C 0.66438 0.62668 0.25863 0.0
C1048 C 0.57095 0.62128 0.2914 0.0
O1049 O 0.63295 0.61285 0.29682 0.0
O1050 O 0.63068 0.64577 0.31843 0.0
C1051 C 0.64545 0.70102 0.32046 0.0
N1052 N 0.61904 0.69885 0.31715 0.0
C1053 C 0.61321 0.74462 0.33486 0.0
C1054 C 0.64162 0.74546 0.33523 0.0
C1055 C 0.65665 0.72405 0.32839 0.0
C1056 C 0.60255 0.71857 0.32153 0.0
H1057 H 0.6585 0.68491 0.31672 0.0
C1058 C 0.63829 0.6228 0.31348 0.0
O1059 O 0.64431 0.61118 0.25537 0.0
O1060 O 0.65981 0.64675 0.26966 0.0
N1061 N 0.56782 0.68842 0.30898 0.0
C1062 C 0.54319 0.67984 0.30413 0.0
C1063 C 0.52014 0.69236 0.31093 0.0
C1064 C 0.5206 0.71383 0.32385 0.0
C1065 C 0.5443 0.72539 0.3296 0.0
C1066 C 0.57109 0.71077 0.31929 0.0
H1067 H 0.54078 0.66274 0.29507 0.0
O1068 O 0.6116 0.66447 0.25361 0.0
O1069 O 0.61029 0.66718 0.28509 0.0
O1070 O 0.58447 0.6211 0.27539 0.0
O1071 O 0.57815 0.63413 0.30686 0.0
C1072 C 0.5437 0.75221 0.34466 0.0
C1073 C 0.57211 0.76814 0.35138 0.0
H1074 H 0.65299 0.76142 0.34149 0.0
H1075 H 0.67794 0.72496 0.32985 0.0
H1076 H 0.50115 0.68444 0.30656 0.0
H1077 H 0.50209 0.72173 0.32884 0.0
H1078 H 0.52513 0.75914 0.35053 0.0
H1079 H 0.57034 0.78489 0.36143 0.0
Mn1080 Mn 0.12482 0.89638 0.03321 0.0
Mn1081 Mn 0.09147 0.85767 0.06562 0.0
C1082 C 0.08292 0.88192 0.02615 0.0
C1083 C 0.13523 0.93888 0.02113 0.0
C1084 C 0.13249 0.83596 0.03797 0.0
O1085 O 0.14539 0.90253 0.05803 0.0
O1086 O 0.12471 0.87259 0.07719 0.0
C1087 C 0.07973 0.894 0.09843 0.0
N1088 N 0.07016 0.87757 0.08433 0.0
C1089 C 0.0297 0.86991 0.10802 0.0
C1090 C 0.04222 0.88681 0.12107 0.0
C1091 C 0.06617 0.899 0.1161 0.0
C1092 C 0.04624 0.86634 0.08644 0.0
H1093 H 0.09863 0.90312 0.09651 0.0
C1094 C 0.14296 0.88968 0.07391 0.0
O1095 O 0.15037 0.91873 0.01742 0.0
O1096 O 0.1148 0.93441 0.03198 0.0
N1097 N 0.05897 0.84228 0.05577 0.0
C1098 C 0.0569 0.82302 0.04196 0.0
C1099 C 0.03259 0.81115 0.03738 0.0
C1100 C 0.00936 0.81549 0.0481 0.0
C1101 C 0.00986 0.83097 0.06575 0.0
C1102 C 0.03826 0.8485 0.06718 0.0
H1103 H 0.07396 0.81737 0.03343 0.0
O1104 O 0.09911 0.88864 0.0123 0.0
O1105 O 0.0912 0.88419 0.04429 0.0
O1106 O 0.14063 0.85802 0.03087 0.0
O1107 O 0.11292 0.83407 0.04956 0.0
C1108 C 0.9832 0.83586 0.09904 0.0
C1109 C 1.00018 0.85626 0.11458 0.0
H1110 H 0.03325 0.89098 0.13514 0.0
H1111 H 0.07516 0.91219 0.12665 0.0
H1112 H 0.03193 0.79751 0.02517 0.0
H1113 H 0.99231 0.80473 0.0429 0.0
H1114 H 0.9647 0.82717 0.10428 0.0
H1115 H 0.99198 0.86043 0.12889 0.0
Mn1116 Mn 0.87809 0.37914 0.78342 0.0
Mn1117 Mn 0.91216 0.34111 0.81461 0.0
C1118 C 0.89474 0.33824 0.77254 0.0
C1119 C 0.83525 0.39 0.77184 0.0
C1120 C 0.93329 0.39245 0.7976 0.0
O1121 O 0.86957 0.39417 0.8109 0.0
O1122 O 0.88357 0.35952 0.82884 0.0
C1123 C 0.87081 0.30291 0.82643 0.0
N1124 N 0.8952 0.30739 0.81879 0.0
C1125 C 0.90724 0.25818 0.82755 0.0
C1126 C 0.87989 0.25572 0.83304 0.0
C1127 C 0.86285 0.27763 0.83253 0.0
C1128 C 0.91283 0.28785 0.81703 0.0
H1129 H 0.85684 0.31895 0.82768 0.0
C1130 C 0.87073 0.3811 0.82695 0.0
O1131 O 0.85479 0.40657 0.77026 0.0
O1132 O 0.84062 0.36785 0.78032 0.0
N1133 N 0.94187 0.32239 0.80312 0.0
C1134 C 0.96351 0.33282 0.79415 0.0
C1135 C 0.98764 0.31906 0.79294 0.0
C1136 C 0.99196 0.29471 0.8022 0.0
C1137 C 0.97184 0.282 0.81234 0.0
C1138 C 0.94239 0.29773 0.81019 0.0
H1139 H 0.96252 0.35203 0.78759 0.0
O1140 O 0.88773 0.35612 0.75996 0.0
O1141 O 0.89245 0.34556 0.79053 0.0
O1142 O 0.91567 0.39547 0.78424 0.0
O1143 O 0.93116 0.37525 0.81129 0.0
C1144 C 0.97784 0.25179 0.82239 0.0
C1145 C 0.95278 0.23289 0.8318 0.0
H1146 H 0.87108 0.23781 0.83864 0.0
H1147 H 0.84275 0.27513 0.83767 0.0
H1148 H 1.00394 0.32816 0.78518 0.0
H1149 H 0.01099 0.28535 0.80083 0.0
H1150 H 0.99778 0.24404 0.82242 0.0
H1151 H 0.95793 0.2138 0.83826 0.0
H1152 H 0.17893 0.63651 0.16102 0.0
H1153 H 0.11824 0.5786 0.17134 0.0
H1154 H 0.1178 0.56746 0.13646 0.0
H1155 H 0.12623 0.58305 0.10272 0.0
H1156 H 0.18615 0.64174 0.09237 0.0
H1157 H 0.19597 0.6433 0.12746 0.0
C1158 C 0.16669 0.62042 0.15576 0.0
C1159 C 0.1486 0.6084 0.16872 0.0
C1160 C 0.16602 0.61474 0.13555 0.0
C1161 C 0.13257 0.58785 0.16174 0.0
C1162 C 0.13199 0.58184 0.14169 0.0
C1163 C 0.14239 0.59514 0.10807 0.0
C1164 C 0.15542 0.61232 0.095 0.0
C1165 C 0.14741 0.59637 0.12836 0.0
C1166 C 0.1761 0.62812 0.10207 0.0
C1167 C 0.18139 0.62931 0.12222 0.0
H1168 H 0.62542 0.92516 0.42259 0.0
H1169 H 0.68923 0.8703 0.43139 0.0
H1170 H 0.69998 0.87215 0.39643 0.0
H1171 H 0.68218 0.87857 0.36304 0.0
H1172 H 0.61271 0.92641 0.35482 0.0
H1173 H 0.61316 0.93858 0.38949 0.0
C1174 C 0.64264 0.91484 0.41697 0.0
C1175 C 0.65638 0.89745 0.42943 0.0
C1176 C 0.64695 0.9141 0.39666 0.0
C1177 C 0.67851 0.88398 0.42211 0.0
C1178 C 0.68421 0.88455 0.402 0.0
C1179 C 0.66793 0.8926 0.36876 0.0
C1180 C 0.64749 0.90174 0.35653 0.0
C1181 C 0.66725 0.8979 0.38901 0.0
C1182 C 0.62872 0.91943 0.36401 0.0
C1183 C 0.62886 0.92614 0.38387 0.0
H1184 H 0.40091 0.43263 0.66185 0.0
H1185 H 0.32915 0.39212 0.67762 0.0
H1186 H 0.31589 0.39028 0.64336 0.0
H1187 H 0.33426 0.38672 0.60934 0.0
H1188 H 0.39874 0.438 0.59357 0.0
H1189 H 0.40494 0.45022 0.62779 0.0
C1190 C 0.38153 0.42512 0.65797 0.0
C1191 C 0.36673 0.41115 0.67185 0.0
C1192 C 0.37313 0.42549 0.63837 0.0
C1193 C 0.34116 0.40243 0.66691 0.0
C1194 C 0.33368 0.40097 0.64726 0.0
C1195 C 0.3485 0.40183 0.61325 0.0
C1196 C 0.36703 0.41036 0.5994 0.0
C1197 C 0.35089 0.41027 0.63278 0.0
C1198 C 0.3847 0.43075 0.60431 0.0
C1199 C 0.38849 0.43758 0.6239 0.0
H1200 H 0.89293 0.07959 0.89774 0.0
H1201 H 0.83581 0.14247 0.89984 0.0
H1202 H 0.82596 0.13605 0.865 0.0
H1203 H 0.84353 0.12265 0.83325 0.0
H1204 H 0.91335 0.07423 0.83093 0.0
H1205 H 0.90861 0.06392 0.86587 0.0
C1206 C 0.8777 0.0912 0.89058 0.0
C1207 C 0.86516 0.11152 0.90105 0.0
C1208 C 0.87513 0.09005 0.87015 0.0
C1209 C 0.84555 0.12667 0.89193 0.0
C1210 C 0.84025 0.12319 0.872 0.0
C1211 C 0.85691 0.10884 0.84032 0.0
C1212 C 0.87861 0.09899 0.82974 0.0
C1213 C 0.85633 0.10635 0.86075 0.0
C1214 C 0.89638 0.08172 0.83887 0.0
C1215 C 0.89385 0.07624 0.85887 0.0
H1216 H 0.18555 0.36683 0.90754 0.0
H1217 H 0.14164 0.43933 0.91195 0.0
H1218 H 0.14786 0.44757 0.877 0.0
H1219 H 0.15272 0.42579 0.84484 0.0
H1220 H 0.19719 0.35355 0.84077 0.0
H1221 H 0.20543 0.35431 0.8759 0.0
C1222 C 0.17878 0.38516 0.90101 0.0
C1223 C 0.16272 0.40217 0.91193 0.0
C1224 C 0.18231 0.38964 0.8809 0.0
C1225 C 0.15401 0.42596 0.90359 0.0
C1226 C 0.1573 0.43052 0.88357 0.0
C1227 C 0.16572 0.41127 0.85146 0.0
C1228 C 0.17347 0.38911 0.84058 0.0
C1229 C 0.16956 0.41137 0.87186 0.0
C1230 C 0.19058 0.37052 0.84912 0.0
C1231 C 0.19491 0.37068 0.86928 0.0
H1232 H 0.88645 0.92875 0.09722 0.0
H1233 H 0.8282 0.86882 0.08571 0.0
H1234 H 0.81684 0.86734 0.12056 0.0
H1235 H 0.83195 0.875 0.15454 0.0
H1236 H 0.89075 0.93442 0.16605 0.0
H1237 H 0.89295 0.94487 0.13108 0.0
C1238 C 0.87028 0.91642 0.10224 0.0
C1239 C 0.85813 0.89893 0.08891 0.0
C1240 C 0.86436 0.91526 0.1224 0.0
C1241 C 0.83752 0.88273 0.09559 0.0
C1242 C 0.83136 0.88158 0.11561 0.0
C1243 C 0.84418 0.89121 0.14947 0.0
C1244 C 0.86119 0.90393 0.16286 0.0
C1245 C 0.84578 0.89661 0.12924 0.0
C1246 C 0.87721 0.92464 0.15612 0.0
C1247 C 0.87879 0.93028 0.13604 0.0
H1248 H 0.32919 0.62606 0.41915 0.0
H1249 H 0.39587 0.57425 0.42647 0.0
H1250 H 0.39685 0.56555 0.39138 0.0
H1251 H 0.38726 0.58434 0.3586 0.0
H1252 H 0.31824 0.633 0.35111 0.0
H1253 H 0.30918 0.63096 0.38623 0.0
C1254 C 0.34268 0.61143 0.41325 0.0
C1255 C 0.36292 0.60142 0.4252 0.0
C1256 C 0.34328 0.60673 0.39291 0.0
C1257 C 0.3803 0.58245 0.41742 0.0
C1258 C 0.38119 0.57783 0.39726 0.0
C1259 C 0.36944 0.5932 0.36454 0.0
C1260 C 0.35371 0.60921 0.35252 0.0
C1261 C 0.36412 0.5916 0.38475 0.0
C1262 C 0.33065 0.62064 0.36025 0.0
C1263 C 0.3256 0.61969 0.38037 0.0
H1264 H 0.63854 0.08849 0.66759 0.0
H1265 H 0.68246 0.16109 0.67095 0.0
H1266 H 0.69071 0.15979 0.63581 0.0
H1267 H 0.67308 0.14519 0.60393 0.0
H1268 H 0.63158 0.07127 0.60017 0.0
H1269 H 0.63508 0.06545 0.63564 0.0
C1270 C 0.65132 0.10305 0.66081 0.0
C1271 C 0.65925 0.12524 0.67159 0.0
C1272 C 0.65567 0.10235 0.64043 0.0
C1273 C 0.67581 0.14405 0.66274 0.0
C1274 C 0.68025 0.1435 0.64259 0.0
C1275 C 0.66615 0.12716 0.6108 0.0
C1276 C 0.65161 0.10898 0.59975 0.0
C1277 C 0.66842 0.12389 0.63115 0.0
C1278 C 0.64273 0.08559 0.60859 0.0
C1279 C 0.64449 0.08238 0.62889 0.0
H1280 H 0.883 0.4238 0.84914 0.0
H1281 H 0.83039 0.35727 0.84559 0.0
H1282 H 0.82159 0.3601 0.8807 0.0
H1283 H 0.83883 0.37347 0.91289 0.0
H1284 H 0.89423 0.43761 0.91667 0.0
H1285 H 0.89129 0.44459 0.88133 0.0
C1286 C 0.86852 0.41093 0.85592 0.0
C1287 C 0.85729 0.39041 0.84485 0.0
C1288 C 0.86443 0.41201 0.87637 0.0
C1289 C 0.83907 0.37335 0.85384 0.0
C1290 C 0.83428 0.37478 0.87399 0.0
C1291 C 0.84889 0.39003 0.90611 0.0
C1292 C 0.86659 0.4051 0.91735 0.0
C1293 C 0.84819 0.39291 0.88557 0.0
C1294 C 0.88016 0.42603 0.90833 0.0
C1295 C 0.87889 0.42967 0.88802 0.0
H1296 H 0.32829 0.14936 0.6422 0.0
H1297 H 0.37481 0.08066 0.65629 0.0
H1298 H 0.37607 0.06832 0.62165 0.0
H1299 H 0.37337 0.08353 0.58735 0.0
H1300 H 0.32767 0.15266 0.57325 0.0
H1301 H 0.31582 0.15797 0.60779 0.0
C1302 C 0.33774 0.13108 0.63774 0.0
C1303 C 0.3517 0.11608 0.65173 0.0
C1304 C 0.33874 0.12439 0.61773 0.0
C1305 C 0.36382 0.09245 0.64584 0.0
C1306 C 0.36481 0.08557 0.62597 0.0
C1307 C 0.35961 0.09887 0.59174 0.0
C1308 C 0.35138 0.11769 0.57781 0.0
C1309 C 0.35364 0.10223 0.61173 0.0
C1310 C 0.33389 0.13772 0.58363 0.0
C1311 C 0.32756 0.14104 0.60348 0.0
H1312 H 0.63158 0.57745 0.39453 0.0
H1313 H 0.67774 0.64735 0.40512 0.0
H1314 H 0.69051 0.64894 0.3706 0.0
H1315 H 0.67728 0.6385 0.33715 0.0
H1316 H 0.62444 0.57366 0.3261 0.0
H1317 H 0.62631 0.56107 0.36069 0.0
C1318 C 0.64546 0.5922 0.38934 0.0
C1319 C 0.65382 0.61226 0.40213 0.0
C1320 C 0.65107 0.59403 0.36921 0.0
C1321 C 0.67134 0.63166 0.39543 0.0
C1322 C 0.67837 0.6327 0.37567 0.0
C1323 C 0.66736 0.62076 0.3422 0.0
C1324 C 0.65043 0.60725 0.32931 0.0
C1325 C 0.6668 0.61513 0.36229 0.0
C1326 C 0.63764 0.5843 0.33579 0.0
C1327 C 0.63828 0.57747 0.35568 0.0
H1328 H 0.18134 0.88282 0.15782 0.0
H1329 H 0.11619 0.93707 0.16234 0.0
H1330 H 0.12112 0.94871 0.12768 0.0
H1331 H 0.13387 0.93258 0.09526 0.0
H1332 H 0.18482 0.8648 0.09085 0.0
H1333 H 0.1967 0.8692 0.12549 0.0
C1334 C 0.16888 0.89783 0.15121 0.0
C1335 C 0.14829 0.90891 0.16223 0.0
C1336 C 0.16924 0.90127 0.1309 0.0
C1337 C 0.13222 0.92845 0.15396 0.0
C1338 C 0.13481 0.93472 0.13411 0.0
C1339 C 0.1482 0.91936 0.10189 0.0
C1340 C 0.15828 0.89824 0.0909 0.0
C1341 C 0.15173 0.91963 0.12221 0.0
C1342 C 0.17694 0.88119 0.09922 0.0
C1343 C 0.18338 0.88354 0.11904 0.0
H1344 H 0.88024 0.58132 0.09492 0.0
H1345 H 0.82853 0.64816 0.08837 0.0
H1346 H 0.81475 0.6441 0.12265 0.0
H1347 H 0.82884 0.63151 0.15552 0.0
H1348 H 0.89439 0.57817 0.16235 0.0
H1349 H 0.89131 0.56577 0.12774 0.0
C1350 C 0.86525 0.59431 0.10098 0.0
C1351 C 0.85553 0.61513 0.08954 0.0
C1352 C 0.86058 0.59428 0.12116 0.0
C1353 C 0.83611 0.63198 0.0971 0.0
C1354 C 0.82859 0.62984 0.11673 0.0
C1355 C 0.84171 0.61643 0.14943 0.0
C1356 C 0.86193 0.60587 0.16108 0.0
C1357 C 0.84237 0.61254 0.12917 0.0
C1358 C 0.87866 0.5864 0.15346 0.0
C1359 C 0.87711 0.57968 0.13365 0.0
H1360 H 0.17561 0.1155 0.84617 0.0
H1361 H 0.09822 0.08038 0.84326 0.0
H1362 H 0.1004 0.06951 0.87809 0.0
H1363 H 0.11796 0.08211 0.90999 0.0
H1364 H 0.19021 0.12658 0.91376 0.0
H1365 H 0.19712 0.12118 0.87842 0.0
C1366 C 0.15985 0.1043 0.85303 0.0
C1367 C 0.13676 0.09871 0.84222 0.0
C1368 C 0.1602 0.10049 0.87351 0.0
C1369 C 0.11621 0.0847 0.85127 0.0
C1370 C 0.11733 0.07885 0.87126 0.0
C1371 C 0.13592 0.08942 0.90319 0.0
C1372 C 0.15349 0.10481 0.91442 0.0
C1373 C 0.13833 0.08837 0.88271 0.0
C1374 C 0.17657 0.11441 0.90551 0.0
C1375 C 0.18017 0.11179 0.88519 0.0
H1376 H 0.67496 0.38651 0.597 0.0
H1377 H 0.60626 0.43318 0.58348 0.0
H1378 H 0.59988 0.44306 0.61808 0.0
H1379 H 0.60713 0.42758 0.65221 0.0
H1380 H 0.67934 0.38645 0.66588 0.0
H1381 H 0.69147 0.38573 0.63129 0.0
C1382 C 0.65973 0.40034 0.60147 0.0
C1383 C 0.64067 0.40847 0.58776 0.0
C1384 C 0.6563 0.40622 0.62154 0.0
C1385 C 0.62099 0.42636 0.59382 0.0
C1386 C 0.61704 0.43169 0.61369 0.0
C1387 C 0.62614 0.41973 0.64771 0.0
C1388 C 0.64208 0.40669 0.6615 0.0
C1389 C 0.63348 0.42008 0.62777 0.0
C1390 C 0.66675 0.39668 0.65551 0.0
C1391 C 0.6736 0.39596 0.63566 0.0
H1392 H 0.33325 0.87371 0.33192 0.0
H1393 H 0.38931 0.93603 0.32169 0.0
H1394 H 0.38878 0.94725 0.35657 0.0
H1395 H 0.383 0.93002 0.39014 0.0
H1396 H 0.33289 0.86265 0.3999 0.0
H1397 H 0.32001 0.86267 0.36534 0.0
C1398 C 0.34415 0.89073 0.33724 0.0
C1399 C 0.36155 0.90384 0.32442 0.0
C1400 C 0.34544 0.89542 0.35746 0.0
C1401 C 0.37568 0.92577 0.33128 0.0
C1402 C 0.37584 0.93174 0.35133 0.0
C1403 C 0.3684 0.91612 0.38476 0.0
C1404 C 0.3588 0.89635 0.39734 0.0
C1405 C 0.36244 0.91532 0.36465 0.0
C1406 C 0.34022 0.87814 0.39039 0.0
C1407 C 0.3331 0.87803 0.37062 0.0
H1408 H 0.0597 0.60933 0.0365 0.0
H1409 H 0.06199 0.68234 0.00452 0.0
H1410 H 0.01371 0.6801 0.99962 0.0
H1411 H 0.97033 0.65912 0.00776 0.0
H1412 H 0.96928 0.59221 0.04673 0.0
H1413 H 0.01736 0.58901 0.04477 0.0
C1414 C 0.04942 0.62522 0.02909 0.0
C1415 C 0.0638 0.64669 0.02186 0.0
C1416 C 0.02193 0.62458 0.02751 0.0
C1417 C 0.05093 0.66607 0.01074 0.0
C1418 C 0.02346 0.66471 0.00795 0.0
C1419 C 0.98084 0.64428 0.01615 0.0
C1420 C 0.96663 0.6266 0.02804 0.0
C1421 C 0.00865 0.64447 0.01685 0.0
C1422 C 0.98006 0.60666 0.03816 0.0
C1423 C 0.00746 0.60496 0.03718 0.0
H1424 H 0.64711 0.70689 0.28122 0.0
H1425 H 0.57246 0.71513 0.25178 0.0
H1426 H 0.57753 0.76358 0.25206 0.0
H1427 H 0.60147 0.80352 0.26438 0.0
H1428 H 0.66994 0.79283 0.30106 0.0
H1429 H 0.67044 0.74578 0.29331 0.0
C1430 C 0.63155 0.7194 0.27546 0.0
C1431 C 0.60881 0.70788 0.26754 0.0
C1432 C 0.63376 0.74675 0.27698 0.0
C1433 C 0.58974 0.72386 0.25854 0.0
C1434 C 0.59269 0.75143 0.25872 0.0
C1435 C 0.6159 0.7906 0.27116 0.0
C1436 C 0.63478 0.80113 0.28412 0.0
C1437 C 0.61415 0.76309 0.26861 0.0
C1438 C 0.65446 0.78476 0.29186 0.0
C1439 C 0.65464 0.75794 0.28756 0.0
H1440 H 0.4632 0.3429 0.51449 0.0
H1441 H 0.46869 0.41392 0.54897 0.0
H1442 H 0.51602 0.4164 0.54231 0.0
H1443 H 0.55648 0.39474 0.5318 0.0
H1444 H 0.55378 0.3176 0.50557 0.0
H1445 H 0.50502 0.32002 0.50442 0.0
C1446 C 0.47509 0.35824 0.52118 0.0
C1447 C 0.463 0.37736 0.53315 0.0
C1448 C 0.50277 0.35786 0.51924 0.0
C1449 C 0.47798 0.39829 0.54058 0.0
C1450 C 0.50494 0.39969 0.5368 0.0
C1451 C 0.54512 0.37829 0.52608 0.0
C1452 C 0.55826 0.35571 0.51941 0.0
C1453 C 0.51764 0.37894 0.52707 0.0
C1454 C 0.54378 0.335 0.51107 0.0
C1455 C 0.51605 0.33638 0.51054 0.0
H1456 H 0.861 0.30398 0.78794 0.0
H1457 H 0.92139 0.31032 0.74389 0.0
H1458 H 0.91724 0.26271 0.73696 0.0
H1459 H 0.90003 0.21834 0.74679 0.0
H1460 H 0.84831 0.21273 0.79682 0.0
H1461 H 0.84405 0.26074 0.79755 0.0
C1462 C 0.87411 0.2947 0.77745 0.0
C1463 C 0.89278 0.31005 0.76743 0.0
C1464 C 0.87285 0.26744 0.77462 0.0
C1465 C 0.90763 0.29853 0.75233 0.0
C1466 C 0.90515 0.27142 0.74837 0.0
C1467 C 0.88828 0.22781 0.75808 0.0
C1468 C 0.87541 0.21228 0.77229 0.0
C1469 C 0.88852 0.2555 0.75998 0.0
C1470 C 0.85932 0.22445 0.78633 0.0
C1471 C 0.8571 0.25182 0.78688 0.0
H1472 H 0.96269 0.40164 0.97145 0.0
H1473 H 0.96324 0.32786 0.00254 0.0
H1474 H 0.01178 0.33052 0.00571 0.0
H1475 H 0.05425 0.35235 0.9964 0.0
H1476 H 0.05195 0.42029 0.95844 0.0
H1477 H 1.00401 0.42272 0.96204 0.0
C1478 C 0.9736 0.38573 0.97835 0.0
C1479 C 0.96001 0.36393 0.9858 0.0
C1480 C 1.00108 0.38668 0.97896 0.0
C1481 C 0.97373 0.3444 0.99617 0.0
C1482 C 1.00131 0.346 0.99799 0.0
C1483 C 0.043 0.36722 0.98857 0.0
C1484 C 0.05613 0.38542 0.97647 0.0
C1485 C 0.01524 0.36667 0.98885 0.0
C1486 C 0.04189 0.40545 0.96712 0.0
C1487 C 0.0146 0.40674 0.96907 0.0
H1488 H 0.85825 0.80862 0.22026 0.0
H1489 H 0.9326 0.80752 0.25074 0.0
H1490 H 0.92973 0.75906 0.2538 0.0
H1491 H 0.90763 0.71679 0.24437 0.0
H1492 H 0.83945 0.71964 0.20662 0.0
H1493 H 0.83691 0.76744 0.21078 0.0
C1494 C 0.87418 0.79761 0.22707 0.0
C1495 C 0.89621 0.81104 0.23437 0.0
C1496 C 0.87323 0.77015 0.22746 0.0
C1497 C 0.91585 0.79718 0.24453 0.0
C1498 C 0.91416 0.76964 0.24624 0.0
C1499 C 0.89284 0.72814 0.23654 0.0
C1500 C 0.8746 0.7152 0.22435 0.0
C1501 C 0.89338 0.75586 0.23709 0.0
C1502 C 0.85443 0.72956 0.21525 0.0
C1503 C 0.85307 0.75678 0.21754 0.0
H1504 H 0.45658 0.61131 0.47302 0.0
H1505 H 0.4638 0.68435 0.50461 0.0
H1506 H 0.51233 0.67902 0.50531 0.0
H1507 H 0.55272 0.65541 0.4933 0.0
H1508 H 0.54319 0.58871 0.45478 0.0
H1509 H 0.49574 0.58836 0.46126 0.0
C1510 C 0.4689 0.62652 0.47945 0.0
C1511 C 0.45714 0.6489 0.4877 0.0
C1512 C 0.49628 0.62417 0.47858 0.0
C1513 C 0.47279 0.66742 0.49757 0.0
C1514 C 0.50037 0.6643 0.49797 0.0
C1515 C 0.53998 0.64134 0.48594 0.0
C1516 C 0.55092 0.62294 0.47283 0.0
C1517 C 0.51237 0.64321 0.48785 0.0
C1518 C 0.5348 0.60378 0.46418 0.0
C1519 C 0.50777 0.6037 0.46776 0.0
H1520 H 0.64837 0.21252 0.72341 0.0
H1521 H 0.58165 0.21259 0.76244 0.0
H1522 H 0.58497 0.26103 0.76553 0.0
H1523 H 0.60381 0.30373 0.75332 0.0
H1524 H 0.66225 0.30165 0.70738 0.0
H1525 H 0.66669 0.25399 0.71146 0.0
C1526 C 0.63396 0.22326 0.73205 0.0
C1527 C 0.61381 0.20945 0.74171 0.0
C1528 C 0.63476 0.25077 0.73246 0.0
C1529 C 0.59676 0.22309 0.75435 0.0
C1530 C 0.59872 0.25067 0.75608 0.0
C1531 C 0.61694 0.29259 0.74386 0.0
C1532 C 0.6317 0.30579 0.72936 0.0
C1533 C 0.61698 0.2648 0.74452 0.0
C1534 C 0.64974 0.29161 0.71791 0.0
C1535 C 0.65214 0.26443 0.72013 0.0
H1536 H 0.41348 0.29023 0.74393 0.0
H1537 H 0.34204 0.29703 0.70995 0.0
H1538 H 0.33665 0.24916 0.71053 0.0
H1539 H 0.35595 0.20573 0.71563 0.0
H1540 H 0.43255 0.19776 0.74228 0.0
H1541 H 0.4334 0.24562 0.749 0.0
C1542 C 0.39735 0.28098 0.73603 0.0
C1543 C 0.37897 0.29661 0.72591 0.0
C1544 C 0.39603 0.25343 0.73446 0.0
C1545 C 0.35708 0.28498 0.71689 0.0
C1546 C 0.35407 0.25778 0.71716 0.0
C1547 C 0.37315 0.21471 0.72239 0.0
C1548 C 0.39472 0.19902 0.72757 0.0
C1549 C 0.37413 0.24189 0.72489 0.0
C1550 C 0.41613 0.21001 0.73768 0.0
C1551 C 0.41654 0.23719 0.74148 0.0
H1552 H 0.14972 0.7068 0.22257 0.0
H1553 H 0.07551 0.70979 0.25319 0.0
H1554 H 0.07938 0.7582 0.2559 0.0
H1555 H 0.10222 0.79988 0.2461 0.0
H1556 H 0.17032 0.79529 0.20831 0.0
H1557 H 0.17192 0.74748 0.21279 0.0
C1558 C 0.13396 0.71822 0.2292 0.0
C1559 C 0.11167 0.70532 0.23662 0.0
C1560 C 0.13552 0.74566 0.22945 0.0
C1561 C 0.0924 0.71971 0.2468 0.0
C1562 C 0.09468 0.74723 0.24833 0.0
C1563 C 0.11684 0.78815 0.23838 0.0
C1564 C 0.13532 0.80061 0.2261 0.0
C1565 C 0.11571 0.76047 0.23905 0.0
C1566 C 0.15517 0.78576 0.21703 0.0
C1567 C 0.15597 0.75853 0.21947 0.0
H1568 H 0.09567 0.21441 0.76161 0.0
H1569 H 0.16807 0.21143 0.79478 0.0
H1570 H 0.17266 0.25923 0.79204 0.0
H1571 H 0.15244 0.30191 0.78553 0.0
H1572 H 0.07512 0.30666 0.75966 0.0
H1573 H 0.07504 0.25838 0.75478 0.0
C1574 C 0.11192 0.2245 0.76875 0.0
C1575 C 0.13077 0.20994 0.77933 0.0
C1576 C 0.11284 0.25221 0.76913 0.0
C1577 C 0.15273 0.22264 0.78744 0.0
C1578 C 0.15526 0.24984 0.78599 0.0
C1579 C 0.13523 0.29218 0.77941 0.0
C1580 C 0.11324 0.30716 0.77397 0.0
C1581 C 0.13472 0.26481 0.77794 0.0
C1582 C 0.09186 0.29506 0.76453 0.0
C1583 C 0.0919 0.26762 0.76176 0.0
H1584 H 0.4034 0.70404 0.26066 0.0
H1585 H 0.33592 0.71553 0.29825 0.0
H1586 H 0.33601 0.76266 0.29071 0.0
H1587 H 0.35947 0.8012 0.27811 0.0
H1588 H 0.43316 0.79191 0.24749 0.0
H1589 H 0.42763 0.74353 0.24811 0.0
C1590 C 0.38929 0.71715 0.26763 0.0
C1591 C 0.37047 0.70686 0.28072 0.0
C1592 C 0.39141 0.74459 0.26516 0.0
C1593 C 0.35129 0.72344 0.28887 0.0
C1594 C 0.35146 0.75029 0.28469 0.0
C1595 C 0.37475 0.78847 0.27222 0.0
C1596 C 0.39735 0.79963 0.26382 0.0
C1597 C 0.37225 0.76118 0.27382 0.0
C1598 C 0.41603 0.7834 0.25462 0.0
C1599 C 0.41281 0.7559 0.25497 0.0
H1600 H 0.47408 0.16915 0.50215 0.0
H1601 H 0.44709 0.0973 0.52913 0.0
H1602 H 0.4925 0.08446 0.53656 0.0
H1603 H 0.53907 0.09732 0.53985 0.0
H1604 H 0.56831 0.16073 0.50402 0.0
H1605 H 0.5228 0.1735 0.49544 0.0
C1606 C 0.47833 0.15075 0.50962 0.0
C1607 C 0.45759 0.13527 0.51692 0.0
C1608 C 0.50461 0.14253 0.51267 0.0
C1609 C 0.46304 0.11043 0.52499 0.0
C1610 C 0.48886 0.10299 0.52909 0.0
C1611 C 0.53537 0.11395 0.5302 0.0
C1612 C 0.55639 0.12953 0.52381 0.0
C1613 C 0.50966 0.11968 0.52403 0.0
C1614 C 0.55191 0.14946 0.50988 0.0
C1615 C 0.52603 0.15665 0.50491 0.0
H1616 H 0.96865 0.84294 0.00414 0.0
H1617 H 0.94879 0.91456 0.03472 0.0
H1618 H 0.99548 0.9247 0.0394 0.0
H1619 H 0.04151 0.90962 0.03898 0.0
H1620 H 0.06307 0.8465 0.99997 0.0
H1621 H 0.01611 0.83641 0.9942 0.0
C1622 C 0.97472 0.86071 0.01176 0.0
C1623 C 0.95577 0.87684 0.02078 0.0
C1624 C 1.00167 0.86745 0.01324 0.0
C1625 C 0.96346 0.90089 0.02916 0.0
C1626 C 0.99001 0.90682 0.0317 0.0
C1627 C 0.03583 0.89366 0.02924 0.0
C1628 C 0.05519 0.87742 0.02109 0.0
C1629 C 0.00922 0.88944 0.02476 0.0
C1630 C 0.04804 0.85832 0.00712 0.0
C1631 C 0.02133 0.85264 0.00377 0.0
H1632 H 0.45499 0.85559 0.49206 0.0
H1633 H 0.46656 0.92037 0.45207 0.0
H1634 H 0.51378 0.92063 0.45954 0.0
H1635 H 0.55241 0.89802 0.47298 0.0
H1636 H 0.54304 0.82679 0.50642 0.0
H1637 H 0.49459 0.83237 0.50561 0.0
C1638 C 0.4681 0.8693 0.48469 0.0
C1639 C 0.45776 0.88721 0.47092 0.0
C1640 C 0.49563 0.86728 0.4872 0.0
C1641 C 0.47444 0.90573 0.46207 0.0
C1642 C 0.50137 0.90572 0.46618 0.0
C1643 C 0.53967 0.88316 0.47938 0.0
C1644 C 0.55088 0.86119 0.48863 0.0
C1645 C 0.51229 0.88569 0.47777 0.0
C1646 C 0.53455 0.84334 0.49859 0.0
C1647 C 0.50699 0.84662 0.49815 0.0
H1648 H 0.06052 0.11126 0.96901 0.0
H1649 H 0.05929 0.18603 0.99876 0.0
H1650 H 0.01054 0.18434 1.00017 0.0
H1651 H 0.96822 0.16311 0.98949 0.0
H1652 H 0.97195 0.09441 0.95236 0.0
H1653 H 0.01942 0.0909 0.95816 0.0
C1654 C 0.04947 0.12748 0.97537 0.0
C1655 C 0.06304 0.14924 0.98297 0.0
C1656 C 0.02192 0.1272 0.97479 0.0
C1657 C 0.04896 0.16938 0.99242 0.0
C1658 C 0.02122 0.16838 0.99316 0.0
C1659 C 0.97971 0.14791 0.98223 0.0
C1660 C 0.96705 0.12979 0.96975 0.0
C1661 C 0.00747 0.1478 0.98375 0.0
C1662 C 0.98162 0.10923 0.96129 0.0
C1663 C 0.00868 0.1073 0.96452 0.0
H1664 H 0.17698 0.47824 0.98315 0.0
H1665 H 0.09759 0.46079 0.00219 0.0
H1666 H 0.09377 0.50439 0.0169 0.0
H1667 H 0.1116 0.54788 0.02311 0.0
H1668 H 0.18986 0.56833 0.00324 0.0
H1669 H 0.19558 0.52339 0.99011 0.0
C1670 C 0.15911 0.48397 0.99082 0.0
C1671 C 0.13765 0.4662 0.99181 0.0
C1672 C 0.15674 0.5097 0.9989 0.0
C1673 C 0.11438 0.47403 1.00139 0.0
C1674 C 0.11214 0.49901 0.00974 0.0
C1675 C 0.13006 0.54264 0.016 0.0
C1676 C 0.15027 0.5616 0.0142 0.0
C1677 C 0.13299 0.51709 0.00837 0.0
C1678 C 0.17393 0.55423 0.00482 0.0
C1679 C 0.17718 0.52848 0.99733 0.0
H1680 H 0.80459 0.85372 0.24695 0.0
H1681 H 0.81409 0.93809 0.24983 0.0
H1682 H 0.7699 0.94217 0.26481 0.0
H1683 H 0.72785 0.92098 0.27706 0.0
H1684 H 0.72219 0.83599 0.27566 0.0
H1685 H 0.76522 0.83303 0.26012 0.0
C1686 C 0.79707 0.8731 0.2508 0.0
C1687 C 0.8126 0.89558 0.24707 0.0
C1688 C 0.7721 0.87516 0.25971 0.0
C1689 C 0.80259 0.92043 0.25251 0.0
C1690 C 0.77725 0.92274 0.26103 0.0
C1691 C 0.73612 0.9019 0.27331 0.0
C1692 C 0.72163 0.87871 0.27755 0.0
C1693 C 0.76168 0.90018 0.26468 0.0
C1694 C 0.73282 0.85413 0.27275 0.0
C1695 C 0.75749 0.85237 0.26378 0.0
H1696 H 0.34833 0.47667 0.52927 0.0
H1697 H 0.42843 0.46172 0.51065 0.0
H1698 H 0.43234 0.50683 0.49868 0.0
H1699 H 0.41412 0.55073 0.49446 0.0
H1700 H 0.33501 0.56831 0.51404 0.0
H1701 H 0.32965 0.52229 0.52489 0.0
C1702 C 0.3664 0.48331 0.5223 0.0
C1703 C 0.38799 0.46578 0.52058 0.0
C1704 C 0.36884 0.50985 0.51591 0.0
C1705 C 0.41153 0.47477 0.51198 0.0
C1706 C 0.41383 0.50061 0.50521 0.0
C1707 C 0.39561 0.54464 0.5011 0.0
C1708 C 0.375 0.56308 0.50343 0.0
C1709 C 0.39279 0.51837 0.50731 0.0
C1710 C 0.35127 0.55464 0.51216 0.0
C1711 C 0.34818 0.52825 0.51827 0.0
H1712 H 0.78162 0.14074 0.78629 0.0
H1713 H 0.808 0.09783 0.73532 0.0
H1714 H 0.76207 0.09281 0.72448 0.0
H1715 H 0.71435 0.10413 0.72807 0.0
H1716 H 0.68867 0.14724 0.77902 0.0
H1717 H 0.73411 0.14848 0.79136 0.0
C1718 C 0.77737 0.13002 0.7729 0.0
C1719 C 0.7984 0.11986 0.76158 0.0
C1720 C 0.75088 0.12724 0.76675 0.0
C1721 C 0.79233 0.10589 0.74434 0.0
C1722 C 0.76601 0.10308 0.7381 0.0
C1723 C 0.71871 0.11311 0.74213 0.0
C1724 C 0.69814 0.12513 0.75286 0.0
C1725 C 0.74511 0.11408 0.74899 0.0
C1726 C 0.70409 0.13739 0.77075 0.0
C1727 C 0.73012 0.1383 0.77771 0.0
H1728 H 0.88745 0.52703 0.03986 0.0
H1729 H 0.86385 0.56169 0.98492 0.0
H1730 H 0.85928 0.51762 0.97046 0.0
H1731 H 0.86566 0.46907 0.9728 0.0
H1732 H 0.88603 0.43454 0.02843 0.0
H1733 H 0.888 0.4785 0.04337 0.0
C1734 C 0.88101 0.5249 0.02479 0.0
C1735 C 0.87627 0.54761 0.0134 0.0
C1736 C 0.87787 0.49946 0.01673 0.0
C1737 C 0.86761 0.54455 0.99398 0.0
C1738 C 0.8651 0.51933 0.98569 0.0
C1739 C 0.86987 0.47125 0.9883 0.0
C1740 C 0.87548 0.44868 0.9996 0.0
C1741 C 0.87063 0.49664 0.99682 0.0
C1742 C 0.88125 0.45164 0.01958 0.0
C1743 C 0.88259 0.47678 0.02806 0.0
H1744 H 0.22027 0.08856 0.76503 0.0
H1745 H 0.20979 0.17294 0.76152 0.0
H1746 H 0.25284 0.17763 0.74608 0.0
H1747 H 0.29392 0.15862 0.73417 0.0
H1748 H 0.30775 0.07498 0.73908 0.0
H1749 H 0.26344 0.06917 0.75339 0.0
C1750 C 0.22743 0.10787 0.76073 0.0
C1751 C 0.21166 0.1304 0.76438 0.0
C1752 C 0.25298 0.11063 0.75222 0.0
C1753 C 0.22144 0.15531 0.75896 0.0
C1754 C 0.24613 0.15805 0.75011 0.0
C1755 C 0.28733 0.13902 0.73829 0.0
C1756 C 0.30424 0.11727 0.7354 0.0
C1757 C 0.26215 0.13596 0.74678 0.0
C1758 C 0.29525 0.09212 0.74111 0.0
C1759 C 0.26983 0.0888 0.74927 0.0
H1760 H 0.5992 0.45192 0.50653 0.0
H1761 H 0.68318 0.43914 0.50201 0.0
H1762 H 0.68877 0.48398 0.48869 0.0
H1763 H 0.6691 0.52756 0.47835 0.0
H1764 H 0.58441 0.53708 0.48179 0.0
H1765 H 0.57992 0.4932 0.49561 0.0
C1766 C 0.61881 0.45883 0.50263 0.0
C1767 C 0.64073 0.44212 0.50536 0.0
C1768 C 0.62176 0.48433 0.49483 0.0
C1769 C 0.66591 0.45149 0.50001 0.0
C1770 C 0.6691 0.47722 0.49247 0.0
C1771 C 0.64977 0.51997 0.48222 0.0
C1772 C 0.62711 0.53575 0.47902 0.0
C1773 C 0.64712 0.49398 0.48985 0.0
C1774 C 0.60216 0.52545 0.48394 0.0
C1775 C 0.59952 0.50028 0.4919 0.0
H1776 H 0.23524 0.88543 0.20832 0.0
H1777 H 0.20495 0.89624 0.2668 0.0
H1778 H 0.25018 0.89803 0.27967 0.0
H1779 H 0.29838 0.89236 0.27454 0.0
H1780 H 0.32888 0.88562 0.21583 0.0
H1781 H 0.2837 0.8867 0.20269 0.0
C1782 C 0.23861 0.88864 0.22384 0.0
C1783 C 0.21678 0.89052 0.23664 0.0
C1784 C 0.26472 0.89026 0.23105 0.0
C1785 C 0.22139 0.89487 0.25667 0.0
C1786 C 0.24726 0.89573 0.26403 0.0
C1787 C 0.29508 0.89171 0.25884 0.0
C1788 C 0.31687 0.88889 0.24612 0.0
C1789 C 0.26907 0.89288 0.25142 0.0
C1790 C 0.31243 0.88804 0.22584 0.0
C1791 C 0.28659 0.88845 0.21837 0.0
H1792 H 0.63163 0.01995 0.54932 0.0
H1793 H 0.65418 0.05276 0.49353 0.0
H1794 H 0.6567 0.00831 0.47944 0.0
H1795 H 0.64851 0.96017 0.48236 0.0
H1796 H 0.62994 0.92711 0.53884 0.0
H1797 H 0.63008 0.97139 0.55341 0.0
C1798 C 0.63755 0.01727 0.53417 0.0
C1799 C 0.64256 0.03959 0.52243 0.0
C1800 C 0.63955 0.99159 0.52632 0.0
C1801 C 0.65038 0.0359 0.50287 0.0
C1802 C 0.65165 0.01048 0.49479 0.0
C1803 C 0.64508 0.9627 0.49795 0.0
C1804 C 0.63925 0.94049 0.50957 0.0
C1805 C 0.64575 0.9882 0.50626 0.0
C1806 C 0.63474 0.94392 0.5297 0.0
C1807 C 0.63464 0.96925 0.53798 0.0
H1808 H 0.20152 0.38562 0.73573 0.0
H1809 H 0.21582 0.39614 0.79739 0.0
H1810 H 0.26352 0.39895 0.79144 0.0
H1811 H 0.30179 0.39369 0.7689 0.0
H1812 H 0.28691 0.38019 0.70751 0.0
H1813 H 0.23943 0.3836 0.71299 0.0
C1814 C 0.2151 0.38923 0.74773 0.0
C1815 C 0.20523 0.39114 0.7669 0.0
C1816 C 0.24263 0.39001 0.74424 0.0
C1817 C 0.22304 0.39505 0.78245 0.0
C1818 C 0.25033 0.39647 0.77906 0.0
C1819 C 0.28813 0.39208 0.75672 0.0
C1820 C 0.29795 0.38664 0.73784 0.0
C1821 C 0.2605 0.39334 0.76006 0.0
C1822 C 0.27991 0.38422 0.72223 0.0
C1823 C 0.25267 0.38613 0.72533 0.0
H1824 H 0.91087 0.96585 0.01584 0.0
H1825 H 0.83002 0.94974 0.99995 0.0
H1826 H 0.82623 0.99411 0.98553 0.0
H1827 H 0.84697 0.0375 0.97649 0.0
H1828 H 0.92911 0.05017 0.99059 0.0
H1829 H 0.93125 0.00741 0.00675 0.0
C1830 C 0.89228 0.97201 0.00937 0.0
C1831 C 0.8707 0.95449 0.00913 0.0
C1832 C 0.89052 0.9971 1.00074 0.0
C1833 C 0.84694 0.96281 1.00038 0.0
C1834 C 0.84479 0.98821 0.99214 0.0
C1835 C 0.86517 0.03087 0.98328 0.0
C1836 C 0.88785 0.04705 0.98245 0.0
C1837 C 0.86655 0.00556 0.99211 0.0
C1838 C 0.91144 0.03809 0.99102 0.0
C1839 C 0.9127 0.01362 1.00027 0.0
H1840 H 0.26663 0.63729 0.29642 0.0
H1841 H 0.30325 0.59388 0.24933 0.0
H1842 H 0.26009 0.58779 0.23373 0.0
H1843 H 0.2121 0.59831 0.23201 0.0
H1844 H 0.1756 0.64027 0.27976 0.0
H1845 H 0.21823 0.64319 0.29664 0.0
C1846 C 0.26513 0.62621 0.28286 0.0
C1847 C 0.28824 0.61626 0.27399 0.0
C1848 C 0.24014 0.62251 0.27408 0.0
C1849 C 0.28585 0.60175 0.25651 0.0
C1850 C 0.26113 0.59834 0.24752 0.0
C1851 C 0.21346 0.60739 0.24637 0.0
C1852 C 0.19072 0.61869 0.25483 0.0
C1853 C 0.23817 0.60904 0.25599 0.0
C1854 C 0.19276 0.63098 0.2732 0.0
C1855 C 0.21719 0.63287 0.28275 0.0
H1856 H 0.35168 0.04389 0.51858 0.0
H1857 H 0.38882 0.08066 0.4688 0.0
H1858 H 0.39142 0.03796 0.45208 0.0
H1859 H 0.38626 0.98952 0.4527 0.0
H1860 H 0.34637 0.95281 0.5014 0.0
H1861 H 0.34132 0.99588 0.5173 0.0
C1862 C 0.35975 0.04254 0.50389 0.0
C1863 C 0.36984 0.06538 0.49481 0.0
C1864 C 0.36084 0.01785 0.49424 0.0
C1865 C 0.38057 0.0634 0.4759 0.0
C1866 C 0.38223 0.03894 0.46641 0.0
C1867 C 0.37614 0.991 0.46668 0.0
C1868 C 0.3669 0.96789 0.47591 0.0
C1869 C 0.37291 0.01594 0.47558 0.0
C1870 C 0.35363 0.97023 0.49394 0.0
C1871 C 0.35085 0.99488 0.5031 0.0
H1872 H 0.70253 0.66314 0.25632 0.0
H1873 H 0.68799 0.58102 0.24403 0.0
H1874 H 0.73464 0.57545 0.2343 0.0
H1875 H 0.78019 0.59476 0.2293 0.0
H1876 H 0.7917 0.6776 0.24118 0.0
H1877 H 0.74586 0.6819 0.25136 0.0
C1878 C 0.70941 0.64392 0.2515 0.0
C1879 C 0.69169 0.62253 0.25094 0.0
C1880 C 0.73598 0.64097 0.24606 0.0
C1881 C 0.70109 0.5979 0.24446 0.0
C1882 C 0.72785 0.5947 0.23904 0.0
C1883 C 0.77262 0.61355 0.23443 0.0
C1884 C 0.78945 0.63581 0.23474 0.0
C1885 C 0.74562 0.61613 0.23988 0.0
C1886 C 0.77925 0.66019 0.24096 0.0
C1887 C 0.75298 0.66272 0.2467 0.0
H1888 H 0.17 0.97992 0.02809 0.0
H1889 H 0.10433 0.95585 0.99207 0.0
H1890 H 0.10181 0.99989 0.97773 0.0
H1891 H 0.11607 0.04571 0.97679 0.0
H1892 H 0.18112 0.0717 0.01273 0.0
H1893 H 0.18621 0.02666 0.02566 0.0
C1894 C 0.15558 0.9843 0.01679 0.0
C1895 C 0.13758 0.96457 0.01088 0.0
C1896 C 0.15392 0.0101 0.00879 0.0
C1897 C 0.11858 0.97061 0.99661 0.0
C1898 C 0.11702 0.99584 0.9885 0.0
C1899 C 0.13149 0.04164 0.98741 0.0
C1900 C 0.14803 0.06226 0.99388 0.0
C1901 C 0.13423 0.01584 0.99472 0.0
C1902 C 0.16803 0.05633 0.00752 0.0
C1903 C 0.17092 0.03053 0.01492 0.0
H1904 H 0.79695 0.35394 0.76606 0.0
H1905 H 0.81249 0.43709 0.7597 0.0
H1906 H 0.76737 0.44382 0.74709 0.0
H1907 H 0.72305 0.4253 0.73732 0.0
H1908 H 0.71082 0.34129 0.74229 0.0
H1909 H 0.75473 0.33579 0.75608 0.0
C1910 C 0.79056 0.37364 0.76201 0.0
C1911 C 0.80814 0.39498 0.76396 0.0
C1912 C 0.76494 0.3772 0.7545 0.0
C1913 C 0.79942 0.42026 0.75836 0.0
C1914 C 0.77356 0.42411 0.75118 0.0
C1915 C 0.73005 0.40591 0.74157 0.0
C1916 C 0.71357 0.38371 0.7388 0.0
C1917 C 0.75604 0.40267 0.74913 0.0
C1918 C 0.72306 0.35866 0.74415 0.0
C1919 C 0.74822 0.35546 0.75208 0.0
H1920 H 0.15619 0.80575 0.06487 0.0
H1921 H 0.13657 0.80796 0.00355 0.0
H1922 H 0.14445 0.76019 1.00112 0.0
H1923 H 0.14853 0.71688 0.01811 0.0
H1924 H 0.16405 0.71552 0.08024 0.0
H1925 H 0.16669 0.76359 0.08067 0.0
C1926 C 0.15477 0.79592 0.05077 0.0
C1927 C 0.1463 0.81051 0.03432 0.0
C1928 C 0.15817 0.76835 0.04977 0.0
C1929 C 0.14375 0.79741 0.01629 0.0
C1930 C 0.14785 0.76995 0.01502 0.0
C1931 C 0.15363 0.72705 0.03157 0.0
C1932 C 0.15624 0.71242 0.04915 0.0
C1933 C 0.15396 0.75503 0.03187 0.0
C1934 C 0.1621 0.72611 0.06653 0.0
C1935 C 0.16337 0.7537 0.0668 0.0
H1936 H 0.56063 0.87946 0.26529 0.0
H1937 H 0.56443 0.9136 0.32297 0.0
H1938 H 0.5167 0.92068 0.32281 0.0
H1939 H 0.47311 0.90892 0.3089 0.0
H1940 H 0.46914 0.87744 0.25031 0.0
H1941 H 0.51733 0.87797 0.24804 0.0
C1942 C 0.55121 0.88986 0.2773 0.0
C1943 C 0.56623 0.89636 0.29401 0.0
C1944 C 0.52346 0.89368 0.27718 0.0
C1945 C 0.55347 0.90897 0.30976 0.0
C1946 C 0.52603 0.91259 0.30983 0.0
C1947 C 0.48276 0.90312 0.29537 0.0
C1948 C 0.46741 0.89302 0.27986 0.0
C1949 C 0.51065 0.90382 0.29402 0.0
C1950 C 0.48033 0.88553 0.26244 0.0
C1951 C 0.50801 0.88556 0.26118 0.0
H1952 H 0.34959 0.22084 0.55959 0.0
H1953 H 0.38018 0.21403 0.50082 0.0
H1954 H 0.38001 0.26188 0.49737 0.0
H1955 H 0.37923 0.30581 0.51348 0.0
H1956 H 0.34597 0.31267 0.57132 0.0
H1957 H 0.33837 0.26517 0.57245 0.0
C1958 C 0.35532 0.22979 0.54579 0.0
C1959 C 0.36508 0.21369 0.53059 0.0
C1960 C 0.35482 0.25758 0.54372 0.0
C1961 C 0.3724 0.22576 0.51278 0.0
C1962 C 0.37256 0.25328 0.51082 0.0
C1963 C 0.36889 0.29712 0.52581 0.0
C1964 C 0.36288 0.31293 0.54219 0.0
C1965 C 0.3648 0.26948 0.52647 0.0
C1966 C 0.35027 0.30108 0.55835 0.0
C1967 C 0.34638 0.27376 0.55917 0.0
H1968 H 0.96331 0.09576 0.78357 0.0
H1969 H 0.95798 0.1583 0.74115 0.0
H1970 H 1.00622 0.16114 0.73981 0.0
H1971 H 0.04926 0.1524 0.75631 0.0
H1972 H 0.05432 0.0901 0.79901 0.0
H1973 H 0.00731 0.08034 0.79455 0.0
C1974 C 0.97273 0.10884 0.7731 0.0
C1975 C 0.9568 0.12642 0.76215 0.0
C1976 C 1.00067 0.11093 0.77294 0.0
C1977 C 0.96953 0.14401 0.74929 0.0
C1978 C 0.99725 0.14604 0.74888 0.0
C1979 C 0.04032 0.13587 0.76392 0.0
C1980 C 0.05551 0.12164 0.77772 0.0
C1981 C 0.01298 0.13056 0.76141 0.0
C1982 C 0.04334 0.10091 0.78798 0.0
C1983 C 0.0163 0.09552 0.78558 0.0
H1984 H 0.14753 0.21906 0.9889 0.0
H1985 H 0.17007 0.21447 0.92805 0.0
H1986 H 0.17375 0.26241 0.92656 0.0
H1987 H 0.16218 0.30546 0.9405 0.0
H1988 H 0.13605 0.31111 1.00035 0.0
H1989 H 0.14256 0.26334 0.00449 0.0
C1990 C 0.15442 0.22851 0.97559 0.0
C1991 C 0.15873 0.213 0.95862 0.0
C1992 C 0.15534 0.25646 0.97459 0.0
C1993 C 0.16685 0.22575 0.94134 0.0
C1994 C 0.16868 0.25327 0.94043 0.0
C1995 C 0.15899 0.29639 0.95471 0.0
C1996 C 0.14906 0.31195 0.9702 0.0
C1997 C 0.1618 0.26884 0.95666 0.0
C1998 C 0.14434 0.29979 0.98836 0.0
C1999 C 0.14768 0.27234 0.9906 0.0
H2000 H 0.96725 0.8938 0.23851 0.0
H2001 H 0.96385 0.91383 0.17714 0.0
H2002 H 0.01199 0.91656 0.17595 0.0
H2003 H 0.05467 0.90507 0.19051 0.0
H2004 H 0.05905 0.8808 0.25085 0.0
H2005 H 0.01124 0.88836 0.2545 0.0
C2006 C 0.97702 0.89989 0.22511 0.0
C2007 C 0.96179 0.90379 0.20792 0.0
C2008 C 1.00503 0.90017 0.2243 0.0
C2009 C 0.97493 0.9109 0.19056 0.0
C2010 C 1.00253 0.91221 0.18984 0.0
C2011 C 0.04531 0.90241 0.20469 0.0
C2012 C 0.0605 0.8927 0.22046 0.0
C2013 C 0.01776 0.90572 0.20635 0.0
C2014 C 0.04802 0.88882 0.23862 0.0
C2015 C 0.02056 0.89278 0.24058 0.0
H2016 H 0.35034 0.72171 0.43965 0.0
H2017 H 0.37416 0.71438 0.50002 0.0
H2018 H 0.37532 0.7624 0.50324 0.0
H2019 H 0.37791 0.80637 0.4868 0.0
H2020 H 0.35194 0.81314 0.42691 0.0
H2021 H 0.34281 0.76593 0.42573 0.0
C2022 C 0.3547 0.7306 0.45375 0.0
C2023 C 0.3622 0.71429 0.46953 0.0
C2024 C 0.35531 0.75838 0.45553 0.0
C2025 C 0.36797 0.72629 0.48766 0.0
C2026 C 0.36901 0.75389 0.48945 0.0
C2027 C 0.36897 0.79771 0.47387 0.0
C2028 C 0.36534 0.81341 0.45702 0.0
C2029 C 0.36384 0.77019 0.47323 0.0
C2030 C 0.3545 0.80162 0.44017 0.0
C2031 C 0.34958 0.77449 0.43939 0.0
H2032 H 0.45522 0.10825 0.72645 0.0
H2033 H 0.45699 0.10511 0.66328 0.0
H2034 H 0.50508 0.10133 0.66408 0.0
H2035 H 0.54666 0.10851 0.68204 0.0
H2036 H 0.54545 0.11287 0.74512 0.0
H2037 H 0.49744 0.1065 0.74495 0.0
C2038 C 0.46601 0.10578 0.71284 0.0
C2039 C 0.45226 0.10717 0.69478 0.0
C2040 C 0.49398 0.10464 0.71333 0.0
C2041 C 0.46683 0.10419 0.67736 0.0
C2042 C 0.49447 0.10242 0.67779 0.0
C2043 C 0.53605 0.10715 0.69583 0.0
C2044 C 0.54983 0.11132 0.71359 0.0
C2045 C 0.50831 0.10403 0.69558 0.0
C2046 C 0.5356 0.10947 0.73125 0.0
C2047 C 0.50799 0.1062 0.73112 0.0
H2048 H 0.85492 0.28945 0.9368 0.0
H2049 H 0.8811 0.30122 0.99625 0.0
H2050 H 0.88176 0.25366 1.00164 0.0
H2051 H 0.88344 0.20867 0.98716 0.0
H2052 H 0.85373 0.1969 0.92871 0.0
H2053 H 0.84513 0.24406 0.92545 0.0
C2054 C 0.85973 0.28163 0.95115 0.0
C2055 C 0.8681 0.29899 0.96601 0.0
C2056 C 0.85963 0.25406 0.95434 0.0
C2057 C 0.87433 0.28844 0.98456 0.0
C2058 C 0.87501 0.26111 0.98762 0.0
C2059 C 0.87364 0.21624 0.97419 0.0
C2060 C 0.86898 0.19919 0.95828 0.0
C2061 C 0.86878 0.24365 0.97236 0.0
C2062 C 0.85701 0.20951 0.94131 0.0
C2063 C 0.85253 0.23662 0.93929 0.0
H2064 H 0.66151 0.78338 0.44691 0.0
H2065 H 0.62825 0.79078 0.50481 0.0
H2066 H 0.62782 0.74284 0.50835 0.0
H2067 H 0.62899 0.69879 0.49226 0.0
H2068 H 0.66537 0.69145 0.43549 0.0
H2069 H 0.6732 0.73895 0.43448 0.0
C2070 C 0.65512 0.77453 0.46059 0.0
C2071 C 0.64479 0.79081 0.4755 0.0
C2072 C 0.65534 0.74676 0.46271 0.0
C2073 C 0.63655 0.77889 0.49313 0.0
C2074 C 0.63602 0.75134 0.4951 0.0
C2075 C 0.64005 0.70738 0.48023 0.0
C2076 C 0.64696 0.69141 0.46411 0.0
C2077 C 0.64439 0.735 0.47968 0.0
C2078 C 0.66043 0.70313 0.4483 0.0
C2079 C 0.66447 0.73045 0.44754 0.0
H2080 H 0.88597 0.71409 0.00849 0.0
H2081 H 0.85322 0.69503 0.06498 0.0
H2082 H 0.84289 0.74138 0.07081 0.0
H2083 H 0.85118 0.78824 0.06239 0.0
H2084 H 0.87994 0.80713 0.00459 0.0
H2085 H 0.88321 0.76041 0.99664 0.0
C2086 C 0.87523 0.71991 0.02155 0.0
C2087 C 0.87017 0.70102 0.03618 0.0
C2088 C 0.86916 0.74685 0.02483 0.0
C2089 C 0.85691 0.7091 0.05332 0.0
C2090 C 0.85136 0.73574 0.05683 0.0
C2091 C 0.85714 0.78214 0.04781 0.0
C2092 C 0.86545 0.80134 0.03422 0.0
C2093 C 0.85855 0.75498 0.04309 0.0
C2094 C 0.87319 0.79295 0.01536 0.0
C2095 C 0.87539 0.76608 0.01082 0.0
H2096 H 0.64361 0.2874 0.51735 0.0
H2097 H 0.66389 0.29437 0.57847 0.0
H2098 H 0.66749 0.2465 0.5811 0.0
H2099 H 0.65594 0.20293 0.56794 0.0
H2100 H 0.63243 0.19511 0.50765 0.0
H2101 H 0.63932 0.24262 0.50261 0.0
C2102 C 0.65007 0.27847 0.53098 0.0
C2103 C 0.6537 0.29461 0.54768 0.0
C2104 C 0.65092 0.25059 0.53261 0.0
C2105 C 0.66124 0.28256 0.56538 0.0
C2106 C 0.66298 0.25509 0.56695 0.0
C2107 C 0.65347 0.21147 0.55347 0.0
C2108 C 0.64417 0.19541 0.53809 0.0
C2109 C 0.65661 0.23891 0.55094 0.0
C2110 C 0.64027 0.20685 0.51957 0.0
C2111 C 0.64384 0.23415 0.5168 0.0
H2112 H 0.96735 0.40688 0.8266 0.0
H2113 H 0.96013 0.40354 0.76373 0.0
H2114 H 0.00812 0.4078 0.76042 0.0
H2115 H 0.05242 0.40346 0.77577 0.0
H2116 H 0.05915 0.40732 0.83867 0.0
H2117 H 0.01123 0.41268 0.8415 0.0
C2118 C 0.97616 0.4081 0.81213 0.0
C2119 C 0.96002 0.4047 0.79545 0.0
C2120 C 1.00388 0.4102 0.81035 0.0
C2121 C 0.97188 0.40636 0.77683 0.0
C2122 C 0.99948 0.40841 0.77494 0.0
C2123 C 0.04358 0.40652 0.79007 0.0
C2124 C 0.05949 0.40448 0.80706 0.0
C2125 C 0.01578 0.40909 0.79164 0.0
C2126 C 0.04746 0.40842 0.82542 0.0
C2127 C 0.02 0.41125 0.82705 0.0
H2128 H 0.45452 0.60501 0.31795 0.0
H2129 H 0.43924 0.62922 0.25859 0.0
H2130 H 0.48636 0.62427 0.25064 0.0
H2131 H 0.53289 0.62098 0.26255 0.0
H2132 H 0.54707 0.5982 0.32253 0.0
H2133 H 0.49971 0.594 0.32812 0.0
C2134 C 0.46137 0.60816 0.30306 0.0
C2135 C 0.44333 0.61717 0.28883 0.0
C2136 C 0.48853 0.60583 0.29878 0.0
C2137 C 0.45257 0.62171 0.2697 0.0
C2138 C 0.47964 0.61923 0.26525 0.0
C2139 C 0.52565 0.61394 0.27656 0.0
C2140 C 0.5437 0.60993 0.29211 0.0
C2141 C 0.49801 0.61233 0.2799 0.0
C2142 C 0.53378 0.60139 0.31031 0.0
C2143 C 0.50659 0.59922 0.31358 0.0
H2144 H 0.46447 0.41332 0.71348 0.0
H2145 H 0.4573 0.34854 0.7539 0.0
H2146 H 0.50473 0.35084 0.76091 0.0
H2147 H 0.54923 0.36559 0.75053 0.0
H2148 H 0.55658 0.42955 0.70946 0.0
H2149 H 0.50845 0.43418 0.70838 0.0
C2150 C 0.47311 0.40055 0.7245 0.0
C2151 C 0.45715 0.3811 0.73346 0.0
C2152 C 0.50066 0.40182 0.72828 0.0
C2153 C 0.46889 0.3641 0.7472 0.0
C2154 C 0.49616 0.36523 0.75103 0.0
C2155 C 0.54036 0.38152 0.7422 0.0
C2156 C 0.55677 0.39753 0.73036 0.0
C2157 C 0.51244 0.38331 0.74107 0.0
C2158 C 0.5447 0.41749 0.71918 0.0
C2159 C 0.51701 0.41971 0.7182 0.0
H2160 H 0.9534 0.60728 0.192 0.0
H2161 H 0.94662 0.6341 0.25162 0.0
H2162 H 0.99434 0.62739 0.25633 0.0
H2163 H 0.03889 0.62239 0.24123 0.0
H2164 H 0.04481 0.60051 0.18031 0.0
H2165 H 0.99681 0.59637 0.17838 0.0
C2166 C 0.96221 0.61054 0.2063 0.0
C2167 C 0.94637 0.62074 0.22155 0.0
C2168 C 0.98977 0.60801 0.20848 0.0
C2169 C 0.95815 0.62558 0.23983 0.0
C2170 C 0.98558 0.62218 0.24237 0.0
C2171 C 0.02972 0.61566 0.22777 0.0
C2172 C 0.04558 0.61159 0.21093 0.0
C2173 C 1.00178 0.61456 0.22651 0.0
C2174 C 0.03322 0.60361 0.19347 0.0
C2175 C 1.00569 0.60145 0.19233 0.0
loop_
_geom_bond_atom_site_label_1
_geom_bond_atom_site_label_2
_geom_bond_distance
_geom_bond_site_symmetry_2
_ccdc_geom_bond_type
Mn0 O5 2.095 . S
Mn0 O15 2.162 . S
Mn0 O16 2.297 . S
Mn0 O24 2.385 . S
Mn0 O25 2.209 . S
Mn0 O26 2.094 . S
Mn1 O6 2.121 . S
Mn1 N8 2.257 . S
Mn1 N17 2.282 . S
Mn1 O25 2.215 . S
Mn1 O27 2.117 . S
C2 O24 1.234 . S
C2 O25 1.283 . S
C3 O15 1.281 . S
C3 O16 1.236 . S
C4 O26 1.240 . S
C4 O27 1.264 . S
O5 Mn0 2.095 . S
O5 C14 1.250 . S
O6 Mn1 2.121 . S
O6 C14 1.258 . S
C7 N8 1.326 . S
C7 C11 1.460 . S
C7 H13 0.929 . S
N8 Mn1 2.257 . S
N8 C7 1.326 . S
N8 C12 1.362 . S
C9 C10 1.258 . S
C9 C12 1.431 . S
C9 C29 1.449 1_455 S
C10 C9 1.258 . S
C10 C11 1.477 . S
C10 H30 0.931 1_455 S
C11 C7 1.460 . S
C11 C10 1.477 . S
C11 H31 0.930 . S
C12 N8 1.362 . S
C12 C9 1.431 . S
C12 C22 1.476 . S
H13 C7 0.929 . S
C14 O5 1.250 . S
C14 O6 1.258 . S
O15 Mn0 2.162 . S
O15 C3 1.281 . S
O16 Mn0 2.297 . S
O16 C3 1.236 . S
N17 Mn1 2.282 . S
N17 C18 1.328 . S
N17 C22 1.318 . S
C18 N17 1.328 . S
C18 C19 1.457 . S
C18 H23 0.929 . S
C19 C18 1.457 . S
C19 C20 1.291 . S
C19 H32 0.931 . S
C20 C19 1.291 . S
C20 C21 1.373 . S
C20 H33 0.929 1_455 S
C21 C20 1.373 . S
C21 C22 1.396 . S
C21 C28 1.403 1_455 S
C22 C12 1.476 . S
C22 N17 1.318 . S
C22 C21 1.396 . S
H23 C18 0.929 . S
O24 Mn0 2.385 . S
O24 C2 1.234 . S
O25 Mn0 2.209 . S
O25 Mn1 2.215 . S
O25 C2 1.283 . S
O26 Mn0 2.094 . S
O26 C4 1.240 . S
O27 Mn1 2.117 . S
O27 C4 1.264 . S
C28 C21 1.403 1_655 S
C28 C29 1.399 . S
C28 H34 0.929 . S
C29 C9 1.449 1_655 S
C29 C28 1.399 . S
C29 H35 0.930 . S
H30 C10 0.931 1_655 S
H31 C11 0.930 . S
H32 C19 0.931 . S
H33 C20 0.929 1_655 S
H34 C28 0.929 . S
H35 C29 0.930 . S
Mn36 O41 2.095 . S
Mn36 O51 2.162 . S
Mn36 O52 2.297 . S
Mn36 O60 2.385 . S
Mn36 O61 2.209 . S
Mn36 O62 2.094 . S
Mn37 O42 2.121 . S
Mn37 N44 2.257 . S
Mn37 N53 2.282 . S
Mn37 O61 2.215 . S
Mn37 O63 2.117 . S
C38 O60 1.234 . S
C38 O61 1.283 . S
C39 O51 1.281 . S
C39 O52 1.236 . S
C40 O62 1.240 . S
C40 O63 1.264 . S
O41 Mn36 2.095 . S
O41 C50 1.250 . S
O42 Mn37 2.121 . S
O42 C50 1.258 . S
C43 N44 1.326 . S
C43 C47 1.460 . S
C43 H49 0.929 . S
N44 Mn37 2.257 . S
N44 C43 1.326 . S
N44 C48 1.362 . S
C45 C46 1.258 . S
C45 C48 1.431 . S
C45 C65 1.449 . S
C46 C45 1.258 . S
C46 C47 1.477 . S
C46 H66 0.931 . S
C47 C43 1.460 . S
C47 C46 1.477 . S
C47 H67 0.930 . S
C48 N44 1.362 . S
C48 C45 1.431 . S
C48 C58 1.476 . S
H49 C43 0.929 . S
C50 O41 1.250 . S
C50 O42 1.258 . S
O51 Mn36 2.162 . S
O51 C39 1.281 . S
O52 Mn36 2.297 . S
O52 C39 1.236 . S
N53 Mn37 2.282 . S
N53 C54 1.328 . S
N53 C58 1.318 . S
C54 N53 1.328 . S
C54 C55 1.457 . S
C54 H59 0.929 . S
C55 C54 1.457 . S
C55 C56 1.291 . S
C55 H68 0.931 . S
C56 C55 1.291 . S
C56 C57 1.373 . S
C56 H69 0.929 . S
C57 C56 1.373 . S
C57 C58 1.396 . S
C57 C64 1.403 . S
C58 C48 1.476 . S
C58 N53 1.318 . S
C58 C57 1.396 . S
H59 C54 0.929 . S
O60 Mn36 2.385 . S
O60 C38 1.234 . S
O61 Mn36 2.209 . S
O61 Mn37 2.215 . S
O61 C38 1.283 . S
O62 Mn36 2.094 . S
O62 C40 1.240 . S
O63 Mn37 2.117 . S
O63 C40 1.264 . S
C64 C57 1.403 . S
C64 C65 1.399 . S
C64 H70 0.929 . S
C65 C45 1.449 . S
C65 C64 1.399 . S
C65 H71 0.930 . S
H66 C46 0.931 . S
H67 C47 0.930 . S
H68 C55 0.931 . S
H69 C56 0.929 . S
H70 C64 0.929 . S
H71 C65 0.930 . S
Mn72 O77 2.095 . S
Mn72 O87 2.162 . S
Mn72 O88 2.297 . S
Mn72 O96 2.385 . S
Mn72 O97 2.209 . S
Mn72 O98 2.094 . S
Mn73 O78 2.121 . S
Mn73 N80 2.257 . S
Mn73 N89 2.282 . S
Mn73 O97 2.215 . S
Mn73 O99 2.117 . S
C74 O96 1.234 . S
C74 O97 1.283 . S
C75 O87 1.281 . S
C75 O88 1.236 . S
C76 O98 1.240 . S
C76 O99 1.264 . S
O77 Mn72 2.095 . S
O77 C86 1.250 . S
O78 Mn73 2.121 . S
O78 C86 1.258 . S
C79 N80 1.326 . S
C79 C83 1.460 . S
C79 H85 0.929 . S
N80 Mn73 2.257 . S
N80 C79 1.326 . S
N80 C84 1.362 . S
C81 C82 1.258 . S
C81 C84 1.431 . S
C81 C101 1.449 . S
C82 C81 1.258 . S
C82 C83 1.477 . S
C82 H102 0.931 . S
C83 C79 1.460 . S
C83 C82 1.477 . S
C83 H103 0.930 . S
C84 N80 1.362 . S
C84 C81 1.431 . S
C84 C94 1.476 . S
H85 C79 0.929 . S
C86 O77 1.250 . S
C86 O78 1.258 . S
O87 Mn72 2.162 . S
O87 C75 1.281 . S
O88 Mn72 2.297 . S
O88 C75 1.236 . S
N89 Mn73 2.282 . S
N89 C90 1.328 . S
N89 C94 1.318 . S
C90 N89 1.328 . S
C90 C91 1.457 . S
C90 H95 0.929 . S
C91 C90 1.457 . S
C91 C92 1.291 . S
C91 H104 0.931 . S
C92 C91 1.291 . S
C92 C93 1.373 . S
C92 H105 0.929 . S
C93 C92 1.373 . S
C93 C94 1.396 . S
C93 C100 1.403 . S
C94 C84 1.476 . S
C94 N89 1.318 . S
C94 C93 1.396 . S
H95 C90 0.929 . S
O96 Mn72 2.385 . S
O96 C74 1.234 . S
O97 Mn72 2.209 . S
O97 Mn73 2.215 . S
O97 C74 1.283 . S
O98 Mn72 2.094 . S
O98 C76 1.240 . S
O99 Mn73 2.117 . S
O99 C76 1.264 . S
C100 C93 1.403 . S
C100 C101 1.399 . S
C100 H106 0.929 . S
C101 C81 1.449 . S
C101 C100 1.399 . S
C101 H107 0.930 . S
H102 C82 0.931 . S
H103 C83 0.930 . S
H104 C91 0.931 . S
H105 C92 0.929 . S
H106 C100 0.929 . S
H107 C101 0.930 . S
Mn108 O113 2.095 . S
Mn108 O123 2.162 . S
Mn108 O124 2.297 . S
Mn108 O132 2.385 . S
Mn108 O133 2.209 . S
Mn108 O134 2.094 . S
Mn109 O114 2.121 . S
Mn109 N116 2.257 . S
Mn109 N125 2.282 . S
Mn109 O133 2.215 . S
Mn109 O135 2.117 . S
C110 O132 1.234 . S
C110 O133 1.283 . S
C111 O123 1.281 . S
C111 O124 1.236 . S
C112 O134 1.240 . S
C112 O135 1.264 . S
O113 Mn108 2.095 . S
O113 C122 1.250 . S
O114 Mn109 2.121 . S
O114 C122 1.258 . S
C115 N116 1.326 . S
C115 C119 1.460 . S
C115 H121 0.929 . S
N116 Mn109 2.257 . S
N116 C115 1.326 . S
N116 C120 1.362 . S
C117 C118 1.258 . S
C117 C120 1.431 . S
C117 C137 1.449 . S
C118 C117 1.258 . S
C118 C119 1.477 . S
C118 H138 0.931 . S
C119 C115 1.460 . S
C119 C118 1.477 . S
C119 H139 0.930 . S
C120 N116 1.362 . S
C120 C117 1.431 . S
C120 C130 1.476 . S
H121 C115 0.929 . S
C122 O113 1.250 . S
C122 O114 1.258 . S
O123 Mn108 2.162 . S
O123 C111 1.281 . S
O124 Mn108 2.297 . S
O124 C111 1.236 . S
N125 Mn109 2.282 . S
N125 C126 1.328 . S
N125 C130 1.318 . S
C126 N125 1.328 . S
C126 C127 1.457 . S
C126 H131 0.929 . S
C127 C126 1.457 . S
C127 C128 1.291 . S
C127 H140 0.931 . S
C128 C127 1.291 . S
C128 C129 1.373 . S
C128 H141 0.929 . S
C129 C128 1.373 . S
C129 C130 1.396 . S
C129 C136 1.403 . S
C130 C120 1.476 . S
C130 N125 1.318 . S
C130 C129 1.396 . S
H131 C126 0.929 . S
O132 Mn108 2.385 . S
O132 C110 1.234 . S
O133 Mn108 2.209 . S
O133 Mn109 2.215 . S
O133 C110 1.283 . S
O134 Mn108 2.094 . S
O134 C112 1.240 . S
O135 Mn109 2.117 . S
O135 C112 1.264 . S
C136 C129 1.403 . S
C136 C137 1.399 . S
C136 H142 0.929 . S
C137 C117 1.449 . S
C137 C136 1.399 . S
C137 H143 0.930 . S
H138 C118 0.931 . S
H139 C119 0.930 . S
H140 C127 0.931 . S
H141 C128 0.929 . S
H142 C136 0.929 . S
H143 C137 0.930 . S
Mn144 O149 2.095 . S
Mn144 O159 2.162 . S
Mn144 O160 2.297 . S
Mn144 O168 2.385 . S
Mn144 O169 2.209 . S
Mn144 O170 2.094 . S
Mn145 O150 2.121 . S
Mn145 N152 2.257 . S
Mn145 N161 2.282 . S
Mn145 O169 2.215 . S
Mn145 O171 2.117 . S
C146 O168 1.234 . S
C146 O169 1.283 . S
C147 O159 1.281 . S
C147 O160 1.236 . S
C148 O170 1.240 . S
C148 O171 1.264 . S
O149 Mn144 2.095 . S
O149 C158 1.250 . S
O150 Mn145 2.121 . S
O150 C158 1.258 . S
C151 N152 1.326 . S
C151 C155 1.460 . S
C151 H157 0.929 . S
N152 Mn145 2.257 . S
N152 C151 1.326 . S
N152 C156 1.362 . S
C153 C154 1.258 . S
C153 C156 1.431 . S
C153 C173 1.449 1_455 S
C154 C153 1.258 . S
C154 C155 1.477 . S
C154 H174 0.931 1_455 S
C155 C151 1.460 . S
C155 C154 1.477 . S
C155 H175 0.930 . S
C156 N152 1.362 . S
C156 C153 1.431 . S
C156 C166 1.476 . S
H157 C151 0.929 . S
C158 O149 1.250 . S
C158 O150 1.258 . S
O159 Mn144 2.162 . S
O159 C147 1.281 . S
O160 Mn144 2.297 . S
O160 C147 1.236 . S
N161 Mn145 2.282 . S
N161 C162 1.328 . S
N161 C166 1.318 . S
C162 N161 1.328 . S
C162 C163 1.457 . S
C162 H167 0.929 . S
C163 C162 1.457 . S
C163 C164 1.291 . S
C163 H176 0.931 . S
C164 C163 1.291 . S
C164 C165 1.373 . S
C164 H177 0.929 1_455 S
C165 C164 1.373 . S
C165 C166 1.396 . S
C165 C172 1.403 1_455 S
C166 C156 1.476 . S
C166 N161 1.318 . S
C166 C165 1.396 . S
H167 C162 0.929 . S
O168 Mn144 2.385 . S
O168 C146 1.234 . S
O169 Mn144 2.209 . S
O169 Mn145 2.215 . S
O169 C146 1.283 . S
O170 Mn144 2.094 . S
O170 C148 1.240 . S
O171 Mn145 2.117 . S
O171 C148 1.264 . S
C172 C165 1.403 1_655 S
C172 C173 1.399 . S
C172 H178 0.929 . S
C173 C153 1.449 1_655 S
C173 C172 1.399 . S
C173 H179 0.930 . S
H174 C154 0.931 1_655 S
H175 C155 0.930 . S
H176 C163 0.931 . S
H177 C164 0.929 1_655 S
H178 C172 0.929 . S
H179 C173 0.930 . S
Mn180 O185 2.095 . S
Mn180 O195 2.162 . S
Mn180 O196 2.297 . S
Mn180 O204 2.385 . S
Mn180 O205 2.209 . S
Mn180 O206 2.094 . S
Mn181 O186 2.121 . S
Mn181 N188 2.257 . S
Mn181 N197 2.282 . S
Mn181 O205 2.215 . S
Mn181 O207 2.117 . S
C182 O204 1.234 . S
C182 O205 1.283 . S
C183 O195 1.281 . S
C183 O196 1.236 . S
C184 O206 1.240 . S
C184 O207 1.264 . S
O185 Mn180 2.095 . S
O185 C194 1.250 . S
O186 Mn181 2.121 . S
O186 C194 1.258 . S
C187 N188 1.326 . S
C187 C191 1.460 . S
C187 H193 0.929 . S
N188 Mn181 2.257 . S
N188 C187 1.326 . S
N188 C192 1.362 . S
C189 C190 1.258 . S
C189 C192 1.431 . S
C189 C209 1.449 . S
C190 C189 1.258 . S
C190 C191 1.477 . S
C190 H210 0.931 . S
C191 C187 1.460 . S
C191 C190 1.477 . S
C191 H211 0.930 . S
C192 N188 1.362 . S
C192 C189 1.431 . S
C192 C202 1.476 . S
H193 C187 0.929 . S
C194 O185 1.250 . S
C194 O186 1.258 . S
O195 Mn180 2.162 . S
O195 C183 1.281 . S
O196 Mn180 2.297 . S
O196 C183 1.236 . S
N197 Mn181 2.282 . S
N197 C198 1.328 . S
N197 C202 1.318 . S
C198 N197 1.328 . S
C198 C199 1.457 . S
C198 H203 0.929 . S
C199 C198 1.457 . S
C199 C200 1.291 . S
C199 H212 0.931 . S
C200 C199 1.291 . S
C200 C201 1.373 . S
C200 H213 0.929 . S
C201 C200 1.373 . S
C201 C202 1.396 . S
C201 C208 1.403 . S
C202 C192 1.476 . S
C202 N197 1.318 . S
C202 C201 1.396 . S
H203 C198 0.929 . S
O204 Mn180 2.385 . S
O204 C182 1.234 . S
O205 Mn180 2.209 . S
O205 Mn181 2.215 . S
O205 C182 1.283 . S
O206 Mn180 2.094 . S
O206 C184 1.240 . S
O207 Mn181 2.117 . S
O207 C184 1.264 . S
C208 C201 1.403 . S
C208 C209 1.399 . S
C208 H214 0.929 . S
C209 C189 1.449 . S
C209 C208 1.399 . S
C209 H215 0.930 . S
H210 C190 0.931 . S
H211 C191 0.930 . S
H212 C199 0.931 . S
H213 C200 0.929 . S
H214 C208 0.929 . S
H215 C209 0.930 . S
Mn216 O221 2.095 . S
Mn216 O231 2.162 . S
Mn216 O232 2.297 . S
Mn216 O240 2.385 . S
Mn216 O241 2.209 . S
Mn216 O242 2.094 . S
Mn217 O222 2.121 . S
Mn217 N224 2.257 . S
Mn217 N233 2.282 . S
Mn217 O241 2.215 . S
Mn217 O243 2.117 . S
C218 O240 1.234 . S
C218 O241 1.283 . S
C219 O231 1.281 . S
C219 O232 1.236 . S
C220 O242 1.240 . S
C220 O243 1.264 . S
O221 Mn216 2.095 . S
O221 C230 1.250 . S
O222 Mn217 2.121 . S
O222 C230 1.258 . S
C223 N224 1.326 . S
C223 C227 1.460 . S
C223 H229 0.929 . S
N224 Mn217 2.257 . S
N224 C223 1.326 . S
N224 C228 1.362 . S
C225 C226 1.258 . S
C225 C228 1.431 . S
C225 C245 1.449 . S
C226 C225 1.258 . S
C226 C227 1.477 . S
C226 H246 0.931 . S
C227 C223 1.460 . S
C227 C226 1.477 . S
C227 H247 0.930 . S
C228 N224 1.362 . S
C228 C225 1.431 . S
C228 C238 1.476 . S
H229 C223 0.929 . S
C230 O221 1.250 . S
C230 O222 1.258 . S
O231 Mn216 2.162 . S
O231 C219 1.281 . S
O232 Mn216 2.297 . S
O232 C219 1.236 . S
N233 Mn217 2.282 . S
N233 C234 1.328 . S
N233 C238 1.318 . S
C234 N233 1.328 . S
C234 C235 1.457 . S
C234 H239 0.929 . S
C235 C234 1.457 . S
C235 C236 1.291 . S
C235 H248 0.931 . S
C236 C235 1.291 . S
C236 C237 1.373 . S
C236 H249 0.929 . S
C237 C236 1.373 . S
C237 C238 1.396 . S
C237 C244 1.403 . S
C238 C228 1.476 . S
C238 N233 1.318 . S
C238 C237 1.396 . S
H239 C234 0.929 . S
O240 Mn216 2.385 . S
O240 C218 1.234 . S
O241 Mn216 2.209 . S
O241 Mn217 2.215 . S
O241 C218 1.283 . S
O242 Mn216 2.094 . S
O242 C220 1.240 . S
O243 Mn217 2.117 . S
O243 C220 1.264 . S
C244 C237 1.403 . S
C244 C245 1.399 . S
C244 H250 0.929 . S
C245 C225 1.449 . S
C245 C244 1.399 . S
C245 H251 0.930 . S
H246 C226 0.931 . S
H247 C227 0.930 . S
H248 C235 0.931 . S
H249 C236 0.929 . S
H250 C244 0.929 . S
H251 C245 0.930 . S
Mn252 O257 2.095 . S
Mn252 O267 2.162 . S
Mn252 O268 2.297 . S
Mn252 O276 2.385 . S
Mn252 O277 2.209 . S
Mn252 O278 2.094 . S
Mn253 O258 2.121 . S
Mn253 N260 2.257 . S
Mn253 N269 2.282 . S
Mn253 O277 2.215 . S
Mn253 O279 2.117 . S
C254 O276 1.234 . S
C254 O277 1.283 . S
C255 O267 1.281 . S
C255 O268 1.236 . S
C256 O278 1.240 . S
C256 O279 1.264 . S
O257 Mn252 2.095 . S
O257 C266 1.250 . S
O258 Mn253 2.121 . S
O258 C266 1.258 . S
C259 N260 1.326 . S
C259 C263 1.460 . S
C259 H265 0.929 . S
N260 Mn253 2.257 . S
N260 C259 1.326 . S
N260 C264 1.362 . S
C261 C262 1.258 . S
C261 C264 1.431 . S
C261 C281 1.449 . S
C262 C261 1.258 . S
C262 C263 1.477 . S
C262 H282 0.931 . S
C263 C259 1.460 . S
C263 C262 1.477 . S
C263 H283 0.930 . S
C264 N260 1.362 . S
C264 C261 1.431 . S
C264 C274 1.476 . S
H265 C259 0.929 . S
C266 O257 1.250 . S
C266 O258 1.258 . S
O267 Mn252 2.162 . S
O267 C255 1.281 . S
O268 Mn252 2.297 . S
O268 C255 1.236 . S
N269 Mn253 2.282 . S
N269 C270 1.328 . S
N269 C274 1.318 . S
C270 N269 1.328 . S
C270 C271 1.457 . S
C270 H275 0.929 . S
C271 C270 1.457 . S
C271 C272 1.291 . S
C271 H284 0.931 . S
C272 C271 1.291 . S
C272 C273 1.373 . S
C272 H285 0.929 . S
C273 C272 1.373 . S
C273 C274 1.396 . S
C273 C280 1.403 . S
C274 C264 1.476 . S
C274 N269 1.318 . S
C274 C273 1.396 . S
H275 C270 0.929 . S
O276 Mn252 2.385 . S
O276 C254 1.234 . S
O277 Mn252 2.209 . S
O277 Mn253 2.215 . S
O277 C254 1.283 . S
O278 Mn252 2.094 . S
O278 C256 1.240 . S
O279 Mn253 2.117 . S
O279 C256 1.264 . S
C280 C273 1.403 . S
C280 C281 1.399 . S
C280 H286 0.929 . S
C281 C261 1.449 . S
C281 C280 1.399 . S
C281 H287 0.930 . S
H282 C262 0.931 . S
H283 C263 0.930 . S
H284 C271 0.931 . S
H285 C272 0.929 . S
H286 C280 0.929 . S
H287 C281 0.930 . S
Mn288 O293 2.095 . S
Mn288 O303 2.162 . S
Mn288 O304 2.297 . S
Mn288 O312 2.385 . S
Mn288 O313 2.209 . S
Mn288 O314 2.094 . S
Mn289 O294 2.121 . S
Mn289 N296 2.257 . S
Mn289 N305 2.282 . S
Mn289 O313 2.215 . S
Mn289 O315 2.117 . S
C290 O312 1.234 . S
C290 O313 1.283 . S
C291 O303 1.281 . S
C291 O304 1.236 . S
C292 O314 1.240 . S
C292 O315 1.264 . S
O293 Mn288 2.095 . S
O293 C302 1.250 . S
O294 Mn289 2.121 . S
O294 C302 1.258 . S
C295 N296 1.326 . S
C295 C299 1.460 . S
C295 H301 0.929 . S
N296 Mn289 2.257 . S
N296 C295 1.326 . S
N296 C300 1.362 . S
C297 C298 1.258 . S
C297 C300 1.431 . S
C297 C317 1.449 1_655 S
C298 C297 1.258 . S
C298 C299 1.477 . S
C298 H318 0.931 1_655 S
C299 C295 1.460 . S
C299 C298 1.477 . S
C299 H319 0.930 . S
C300 N296 1.362 . S
C300 C297 1.431 . S
C300 C310 1.476 . S
H301 C295 0.929 . S
C302 O293 1.250 . S
C302 O294 1.258 . S
O303 Mn288 2.162 . S
O303 C291 1.281 . S
O304 Mn288 2.297 . S
O304 C291 1.236 . S
N305 Mn289 2.282 . S
N305 C306 1.328 . S
N305 C310 1.318 . S
C306 N305 1.328 . S
C306 C307 1.457 . S
C306 H311 0.929 . S
C307 C306 1.457 . S
C307 C308 1.291 . S
C307 H320 0.931 . S
C308 C307 1.291 . S
C308 C309 1.373 . S
C308 H321 0.929 1_655 S
C309 C308 1.373 . S
C309 C310 1.396 . S
C309 C316 1.403 1_655 S
C310 C300 1.476 . S
C310 N305 1.318 . S
C310 C309 1.396 . S
H311 C306 0.929 . S
O312 Mn288 2.385 . S
O312 C290 1.234 . S
O313 Mn288 2.209 . S
O313 Mn289 2.215 . S
O313 C290 1.283 . S
O314 Mn288 2.094 . S
O314 C292 1.240 . S
O315 Mn289 2.117 . S
O315 C292 1.264 . S
C316 C309 1.403 1_455 S
C316 C317 1.399 . S
C316 H322 0.929 . S
C317 C297 1.449 1_455 S
C317 C316 1.399 . S
C317 H323 0.930 . S
H318 C298 0.931 1_455 S
H319 C299 0.930 . S
H320 C307 0.931 . S
H321 C308 0.929 1_455 S
H322 C316 0.929 . S
H323 C317 0.930 . S
Mn324 O329 2.095 . S
Mn324 O339 2.162 . S
Mn324 O340 2.297 . S
Mn324 O348 2.385 . S
Mn324 O349 2.209 . S
Mn324 O350 2.094 . S
Mn325 O330 2.121 . S
Mn325 N332 2.257 . S
Mn325 N341 2.282 . S
Mn325 O349 2.215 . S
Mn325 O351 2.117 . S
C326 O348 1.234 . S
C326 O349 1.283 . S
C327 O339 1.281 . S
C327 O340 1.236 . S
C328 O350 1.240 . S
C328 O351 1.264 . S
O329 Mn324 2.095 . S
O329 C338 1.250 . S
O330 Mn325 2.121 . S
O330 C338 1.258 . S
C331 N332 1.326 . S
C331 C335 1.460 . S
C331 H337 0.929 . S
N332 Mn325 2.257 . S
N332 C331 1.326 . S
N332 C336 1.362 . S
C333 C334 1.258 . S
C333 C336 1.431 . S
C333 C353 1.449 . S
C334 C333 1.258 . S
C334 C335 1.477 . S
C334 H354 0.931 . S
C335 C331 1.460 . S
C335 C334 1.477 . S
C335 H355 0.930 . S
C336 N332 1.362 . S
C336 C333 1.431 . S
C336 C346 1.476 . S
H337 C331 0.929 . S
C338 O329 1.250 . S
C338 O330 1.258 . S
O339 Mn324 2.162 . S
O339 C327 1.281 . S
O340 Mn324 2.297 . S
O340 C327 1.236 . S
N341 Mn325 2.282 . S
N341 C342 1.328 . S
N341 C346 1.318 . S
C342 N341 1.328 . S
C342 C343 1.457 . S
C342 H347 0.929 . S
C343 C342 1.457 . S
C343 C344 1.291 . S
C343 H356 0.931 . S
C344 C343 1.291 . S
C344 C345 1.373 . S
C344 H357 0.929 . S
C345 C344 1.373 . S
C345 C346 1.396 . S
C345 C352 1.403 . S
C346 C336 1.476 . S
C346 N341 1.318 . S
C346 C345 1.396 . S
H347 C342 0.929 . S
O348 Mn324 2.385 . S
O348 C326 1.234 . S
O349 Mn324 2.209 . S
O349 Mn325 2.215 . S
O349 C326 1.283 . S
O350 Mn324 2.094 . S
O350 C328 1.240 . S
O351 Mn325 2.117 . S
O351 C328 1.264 . S
C352 C345 1.403 . S
C352 C353 1.399 . S
C352 H358 0.929 . S
C353 C333 1.449 . S
C353 C352 1.399 . S
C353 H359 0.930 . S
H354 C334 0.931 . S
H355 C335 0.930 . S
H356 C343 0.931 . S
H357 C344 0.929 . S
H358 C352 0.929 . S
H359 C353 0.930 . S
Mn360 O365 2.095 . S
Mn360 O375 2.162 . S
Mn360 O376 2.297 . S
Mn360 O384 2.385 . S
Mn360 O385 2.209 . S
Mn360 O386 2.094 . S
Mn361 O366 2.121 . S
Mn361 N368 2.257 . S
Mn361 N377 2.282 . S
Mn361 O385 2.215 . S
Mn361 O387 2.117 . S
C362 O384 1.234 . S
C362 O385 1.283 . S
C363 O375 1.281 . S
C363 O376 1.236 . S
C364 O386 1.240 . S
C364 O387 1.264 . S
O365 Mn360 2.095 . S
O365 C374 1.250 . S
O366 Mn361 2.121 . S
O366 C374 1.258 . S
C367 N368 1.326 . S
C367 C371 1.460 . S
C367 H373 0.929 . S
N368 Mn361 2.257 . S
N368 C367 1.326 . S
N368 C372 1.362 . S
C369 C370 1.258 . S
C369 C372 1.431 . S
C369 C389 1.449 . S
C370 C369 1.258 . S
C370 C371 1.477 . S
C370 H390 0.931 . S
C371 C367 1.460 . S
C371 C370 1.477 . S
C371 H391 0.930 . S
C372 N368 1.362 . S
C372 C369 1.431 . S
C372 C382 1.476 . S
H373 C367 0.929 . S
C374 O365 1.250 . S
C374 O366 1.258 . S
O375 Mn360 2.162 . S
O375 C363 1.281 . S
O376 Mn360 2.297 . S
O376 C363 1.236 . S
N377 Mn361 2.282 . S
N377 C378 1.328 . S
N377 C382 1.318 . S
C378 N377 1.328 . S
C378 C379 1.457 . S
C378 H383 0.929 . S
C379 C378 1.457 . S
C379 C380 1.291 . S
C379 H392 0.931 . S
C380 C379 1.291 . S
C380 C381 1.373 . S
C380 H393 0.929 . S
C381 C380 1.373 . S
C381 C382 1.396 . S
C381 C388 1.403 . S
C382 C372 1.476 . S
C382 N377 1.318 . S
C382 C381 1.396 . S
H383 C378 0.929 . S
O384 Mn360 2.385 . S
O384 C362 1.234 . S
O385 Mn360 2.209 . S
O385 Mn361 2.215 . S
O385 C362 1.283 . S
O386 Mn360 2.094 . S
O386 C364 1.240 . S
O387 Mn361 2.117 . S
O387 C364 1.264 . S
C388 C381 1.403 . S
C388 C389 1.399 . S
C388 H394 0.929 . S
C389 C369 1.449 . S
C389 C388 1.399 . S
C389 H395 0.930 . S
H390 C370 0.931 . S
H391 C371 0.930 . S
H392 C379 0.931 . S
H393 C380 0.929 . S
H394 C388 0.929 . S
H395 C389 0.930 . S
Mn396 O401 2.095 . S
Mn396 O411 2.162 . S
Mn396 O412 2.297 . S
Mn396 O420 2.385 . S
Mn396 O421 2.209 . S
Mn396 O422 2.094 . S
Mn397 O402 2.121 . S
Mn397 N404 2.257 . S
Mn397 N413 2.282 . S
Mn397 O421 2.215 . S
Mn397 O423 2.117 . S
C398 O420 1.234 . S
C398 O421 1.283 . S
C399 O411 1.281 . S
C399 O412 1.236 . S
C400 O422 1.240 . S
C400 O423 1.264 . S
O401 Mn396 2.095 . S
O401 C410 1.250 . S
O402 Mn397 2.121 . S
O402 C410 1.258 . S
C403 N404 1.326 . S
C403 C407 1.460 . S
C403 H409 0.929 . S
N404 Mn397 2.257 . S
N404 C403 1.326 . S
N404 C408 1.362 . S
C405 C406 1.258 . S
C405 C408 1.431 . S
C405 C425 1.449 . S
C406 C405 1.258 . S
C406 C407 1.477 . S
C406 H426 0.931 . S
C407 C403 1.460 . S
C407 C406 1.477 . S
C407 H427 0.930 . S
C408 N404 1.362 . S
C408 C405 1.431 . S
C408 C418 1.476 . S
H409 C403 0.929 . S
C410 O401 1.250 . S
C410 O402 1.258 . S
O411 Mn396 2.162 . S
O411 C399 1.281 . S
O412 Mn396 2.297 . S
O412 C399 1.236 . S
N413 Mn397 2.282 . S
N413 C414 1.328 . S
N413 C418 1.318 . S
C414 N413 1.328 . S
C414 C415 1.457 . S
C414 H419 0.929 . S
C415 C414 1.457 . S
C415 C416 1.291 . S
C415 H428 0.931 . S
C416 C415 1.291 . S
C416 C417 1.373 . S
C416 H429 0.929 . S
C417 C416 1.373 . S
C417 C418 1.396 . S
C417 C424 1.403 . S
C418 C408 1.476 . S
C418 N413 1.318 . S
C418 C417 1.396 . S
H419 C414 0.929 . S
O420 Mn396 2.385 . S
O420 C398 1.234 . S
O421 Mn396 2.209 . S
O421 Mn397 2.215 . S
O421 C398 1.283 . S
O422 Mn396 2.094 . S
O422 C400 1.240 . S
O423 Mn397 2.117 . S
O423 C400 1.264 . S
C424 C417 1.403 . S
C424 C425 1.399 . S
C424 H430 0.929 . S
C425 C405 1.449 . S
C425 C424 1.399 . S
C425 H431 0.930 . S
H426 C406 0.931 . S
H427 C407 0.930 . S
H428 C415 0.931 . S
H429 C416 0.929 . S
H430 C424 0.929 . S
H431 C425 0.930 . S
Mn432 O437 2.095 . S
Mn432 O447 2.162 . S
Mn432 O448 2.297 . S
Mn432 O456 2.385 . S
Mn432 O457 2.209 . S
Mn432 O458 2.094 . S
Mn433 O438 2.121 . S
Mn433 N440 2.257 . S
Mn433 N449 2.282 . S
Mn433 O457 2.215 . S
Mn433 O459 2.117 . S
C434 O456 1.234 . S
C434 O457 1.283 . S
C435 O447 1.281 . S
C435 O448 1.236 . S
C436 O458 1.240 . S
C436 O459 1.264 . S
O437 Mn432 2.095 . S
O437 C446 1.250 . S
O438 Mn433 2.121 . S
O438 C446 1.258 . S
C439 N440 1.326 . S
C439 C443 1.460 . S
C439 H445 0.929 . S
N440 Mn433 2.257 . S
N440 C439 1.326 . S
N440 C444 1.362 . S
C441 C442 1.258 . S
C441 C444 1.431 . S
C441 C461 1.449 1_655 S
C442 C441 1.258 . S
C442 C443 1.477 . S
C442 H462 0.931 1_655 S
C443 C439 1.460 . S
C443 C442 1.477 . S
C443 H463 0.930 . S
C444 N440 1.362 . S
C444 C441 1.431 . S
C444 C454 1.476 . S
H445 C439 0.929 . S
C446 O437 1.250 . S
C446 O438 1.258 . S
O447 Mn432 2.162 . S
O447 C435 1.281 . S
O448 Mn432 2.297 . S
O448 C435 1.236 . S
N449 Mn433 2.282 . S
N449 C450 1.328 . S
N449 C454 1.318 . S
C450 N449 1.328 . S
C450 C451 1.457 . S
C450 H455 0.929 . S
C451 C450 1.457 . S
C451 C452 1.291 . S
C451 H464 0.931 . S
C452 C451 1.291 . S
C452 C453 1.373 . S
C452 H465 0.929 1_655 S
C453 C452 1.373 . S
C453 C454 1.396 . S
C453 C460 1.403 1_655 S
C454 C444 1.476 . S
C454 N449 1.318 . S
C454 C453 1.396 . S
H455 C450 0.929 . S
O456 Mn432 2.385 . S
O456 C434 1.234 . S
O457 Mn432 2.209 . S
O457 Mn433 2.215 . S
O457 C434 1.283 . S
O458 Mn432 2.094 . S
O458 C436 1.240 . S
O459 Mn433 2.117 . S
O459 C436 1.264 . S
C460 C453 1.403 1_455 S
C460 C461 1.399 . S
C460 H466 0.929 . S
C461 C441 1.449 1_455 S
C461 C460 1.399 . S
C461 H467 0.930 . S
H462 C442 0.931 1_455 S
H463 C443 0.930 . S
H464 C451 0.931 . S
H465 C452 0.929 1_455 S
H466 C460 0.929 . S
H467 C461 0.930 . S
Mn468 O473 2.095 . S
Mn468 O483 2.162 . S
Mn468 O484 2.297 . S
Mn468 O492 2.385 . S
Mn468 O493 2.209 . S
Mn468 O494 2.094 . S
Mn469 O474 2.121 . S
Mn469 N476 2.257 . S
Mn469 N485 2.282 . S
Mn469 O493 2.215 . S
Mn469 O495 2.117 . S
C470 O492 1.234 . S
C470 O493 1.283 . S
C471 O483 1.281 . S
C471 O484 1.236 . S
C472 O494 1.240 . S
C472 O495 1.264 . S
O473 Mn468 2.095 . S
O473 C482 1.250 . S
O474 Mn469 2.121 . S
O474 C482 1.258 . S
C475 N476 1.326 . S
C475 C479 1.460 . S
C475 H481 0.929 . S
N476 Mn469 2.257 . S
N476 C475 1.326 . S
N476 C480 1.362 . S
C477 C478 1.258 . S
C477 C480 1.431 . S
C477 C497 1.449 . S
C478 C477 1.258 . S
C478 C479 1.477 . S
C478 H498 0.931 . S
C479 C475 1.460 . S
C479 C478 1.477 . S
C479 H499 0.930 . S
C480 N476 1.362 . S
C480 C477 1.431 . S
C480 C490 1.476 . S
H481 C475 0.929 . S
C482 O473 1.250 . S
C482 O474 1.258 . S
O483 Mn468 2.162 . S
O483 C471 1.281 . S
O484 Mn468 2.297 . S
O484 C471 1.236 . S
N485 Mn469 2.282 . S
N485 C486 1.328 . S
N485 C490 1.318 . S
C486 N485 1.328 . S
C486 C487 1.457 . S
C486 H491 0.929 . S
C487 C486 1.457 . S
C487 C488 1.291 . S
C487 H500 0.931 . S
C488 C487 1.291 . S
C488 C489 1.373 . S
C488 H501 0.929 . S
C489 C488 1.373 . S
C489 C490 1.396 . S
C489 C496 1.403 . S
C490 C480 1.476 . S
C490 N485 1.318 . S
C490 C489 1.396 . S
H491 C486 0.929 . S
O492 Mn468 2.385 . S
O492 C470 1.234 . S
O493 Mn468 2.209 . S
O493 Mn469 2.215 . S
O493 C470 1.283 . S
O494 Mn468 2.094 . S
O494 C472 1.240 . S
O495 Mn469 2.117 . S
O495 C472 1.264 . S
C496 C489 1.403 . S
C496 C497 1.399 . S
C496 H502 0.929 . S
C497 C477 1.449 . S
C497 C496 1.399 . S
C497 H503 0.930 . S
H498 C478 0.931 . S
H499 C479 0.930 . S
H500 C487 0.931 . S
H501 C488 0.929 . S
H502 C496 0.929 . S
H503 C497 0.930 . S
Mn504 O509 2.095 . S
Mn504 O519 2.162 . S
Mn504 O520 2.297 . S
Mn504 O528 2.385 . S
Mn504 O529 2.209 . S
Mn504 O530 2.094 . S
Mn505 O510 2.121 . S
Mn505 N512 2.257 . S
Mn505 N521 2.282 . S
Mn505 O529 2.215 . S
Mn505 O531 2.117 . S
C506 O528 1.234 . S
C506 O529 1.283 . S
C507 O519 1.281 . S
C507 O520 1.236 . S
C508 O530 1.240 . S
C508 O531 1.264 . S
O509 Mn504 2.095 . S
O509 C518 1.250 . S
O510 Mn505 2.121 . S
O510 C518 1.258 . S
C511 N512 1.326 . S
C511 C515 1.460 . S
C511 H517 0.929 . S
N512 Mn505 2.257 . S
N512 C511 1.326 . S
N512 C516 1.362 . S
C513 C514 1.258 . S
C513 C516 1.431 . S
C513 C533 1.449 . S
C514 C513 1.258 . S
C514 C515 1.477 . S
C514 H534 0.931 . S
C515 C511 1.460 . S
C515 C514 1.477 . S
C515 H535 0.930 . S
C516 N512 1.362 . S
C516 C513 1.431 . S
C516 C526 1.476 . S
H517 C511 0.929 . S
C518 O509 1.250 . S
C518 O510 1.258 . S
O519 Mn504 2.162 . S
O519 C507 1.281 . S
O520 Mn504 2.297 . S
O520 C507 1.236 . S
N521 Mn505 2.282 . S
N521 C522 1.328 . S
N521 C526 1.318 . S
C522 N521 1.328 . S
C522 C523 1.457 . S
C522 H527 0.929 . S
C523 C522 1.457 . S
C523 C524 1.291 . S
C523 H536 0.931 . S
C524 C523 1.291 . S
C524 C525 1.373 . S
C524 H537 0.929 . S
C525 C524 1.373 . S
C525 C526 1.396 . S
C525 C532 1.403 . S
C526 C516 1.476 . S
C526 N521 1.318 . S
C526 C525 1.396 . S
H527 C522 0.929 . S
O528 Mn504 2.385 . S
O528 C506 1.234 . S
O529 Mn504 2.209 . S
O529 Mn505 2.215 . S
O529 C506 1.283 . S
O530 Mn504 2.094 . S
O530 C508 1.240 . S
O531 Mn505 2.117 . S
O531 C508 1.264 . S
C532 C525 1.403 . S
C532 C533 1.399 . S
C532 H538 0.929 . S
C533 C513 1.449 . S
C533 C532 1.399 . S
C533 H539 0.930 . S
H534 C514 0.931 . S
H535 C515 0.930 . S
H536 C523 0.931 . S
H537 C524 0.929 . S
H538 C532 0.929 . S
H539 C533 0.930 . S
Mn540 O545 2.095 . S
Mn540 O555 2.162 . S
Mn540 O556 2.297 . S
Mn540 O564 2.385 . S
Mn540 O565 2.209 . S
Mn540 O566 2.094 . S
Mn541 O546 2.121 . S
Mn541 N548 2.257 . S
Mn541 N557 2.282 . S
Mn541 O565 2.215 . S
Mn541 O567 2.117 . S
C542 O564 1.234 . S
C542 O565 1.283 . S
C543 O555 1.281 . S
C543 O556 1.236 . S
C544 O566 1.240 . S
C544 O567 1.264 . S
O545 Mn540 2.095 . S
O545 C554 1.250 . S
O546 Mn541 2.121 . S
O546 C554 1.258 . S
C547 N548 1.326 . S
C547 C551 1.460 . S
C547 H553 0.929 . S
N548 Mn541 2.257 . S
N548 C547 1.326 . S
N548 C552 1.362 . S
C549 C550 1.258 . S
C549 C552 1.431 . S
C549 C569 1.449 . S
C550 C549 1.258 . S
C550 C551 1.477 . S
C550 H570 0.931 . S
C551 C547 1.460 . S
C551 C550 1.477 . S
C551 H571 0.930 . S
C552 N548 1.362 . S
C552 C549 1.431 . S
C552 C562 1.476 . S
H553 C547 0.929 . S
C554 O545 1.250 . S
C554 O546 1.258 . S
O555 Mn540 2.162 . S
O555 C543 1.281 . S
O556 Mn540 2.297 . S
O556 C543 1.236 . S
N557 Mn541 2.282 . S
N557 C558 1.328 . S
N557 C562 1.318 . S
C558 N557 1.328 . S
C558 C559 1.457 . S
C558 H563 0.929 . S
C559 C558 1.457 . S
C559 C560 1.291 . S
C559 H572 0.931 . S
C560 C559 1.291 . S
C560 C561 1.373 . S
C560 H573 0.929 . S
C561 C560 1.373 . S
C561 C562 1.396 . S
C561 C568 1.403 . S
C562 C552 1.476 . S
C562 N557 1.318 . S
C562 C561 1.396 . S
H563 C558 0.929 . S
O564 Mn540 2.385 . S
O564 C542 1.234 . S
O565 Mn540 2.209 . S
O565 Mn541 2.215 . S
O565 C542 1.283 . S
O566 Mn540 2.094 . S
O566 C544 1.240 . S
O567 Mn541 2.117 . S
O567 C544 1.264 . S
C568 C561 1.403 . S
C568 C569 1.399 . S
C568 H574 0.929 . S
C569 C549 1.449 . S
C569 C568 1.399 . S
C569 H575 0.930 . S
H570 C550 0.931 . S
H571 C551 0.930 . S
H572 C559 0.931 . S
H573 C560 0.929 . S
H574 C568 0.929 . S
H575 C569 0.930 . S
Mn576 O581 2.095 . S
Mn576 O591 2.162 . S
Mn576 O592 2.297 . S
Mn576 O600 2.385 . S
Mn576 O601 2.209 . S
Mn576 O602 2.094 . S
Mn577 O582 2.121 . S
Mn577 N584 2.257 . S
Mn577 N593 2.282 . S
Mn577 O601 2.215 . S
Mn577 O603 2.117 . S
C578 O600 1.234 . S
C578 O601 1.283 . S
C579 O591 1.281 . S
C579 O592 1.236 . S
C580 O602 1.240 . S
C580 O603 1.264 . S
O581 Mn576 2.095 . S
O581 C590 1.250 . S
O582 Mn577 2.121 . S
O582 C590 1.258 . S
C583 N584 1.326 . S
C583 C587 1.460 . S
C583 H589 0.929 . S
N584 Mn577 2.257 . S
N584 C583 1.326 . S
N584 C588 1.362 . S
C585 C586 1.258 . S
C585 C588 1.431 . S
C585 C605 1.449 . S
C586 C585 1.258 . S
C586 C587 1.477 . S
C586 H606 0.931 . S
C587 C583 1.460 . S
C587 C586 1.477 . S
C587 H607 0.930 . S
C588 N584 1.362 . S
C588 C585 1.431 . S
C588 C598 1.476 . S
H589 C583 0.929 . S
C590 O581 1.250 . S
C590 O582 1.258 . S
O591 Mn576 2.162 . S
O591 C579 1.281 . S
O592 Mn576 2.297 . S
O592 C579 1.236 . S
N593 Mn577 2.282 . S
N593 C594 1.328 . S
N593 C598 1.318 . S
C594 N593 1.328 . S
C594 C595 1.457 . S
C594 H599 0.929 . S
C595 C594 1.457 . S
C595 C596 1.291 . S
C595 H608 0.931 . S
C596 C595 1.291 . S
C596 C597 1.373 . S
C596 H609 0.929 . S
C597 C596 1.373 . S
C597 C598 1.396 . S
C597 C604 1.403 . S
C598 C588 1.476 . S
C598 N593 1.318 . S
C598 C597 1.396 . S
H599 C594 0.929 . S
O600 Mn576 2.385 . S
O600 C578 1.234 . S
O601 Mn576 2.209 . S
O601 Mn577 2.215 . S
O601 C578 1.283 . S
O602 Mn576 2.094 . S
O602 C580 1.240 . S
O603 Mn577 2.117 . S
O603 C580 1.264 . S
C604 C597 1.403 . S
C604 C605 1.399 . S
C604 H610 0.929 . S
C605 C585 1.449 . S
C605 C604 1.399 . S
C605 H611 0.930 . S
H606 C586 0.931 . S
H607 C587 0.930 . S
H608 C595 0.931 . S
H609 C596 0.929 . S
H610 C604 0.929 . S
H611 C605 0.930 . S
Mn612 O617 2.095 . S
Mn612 O627 2.162 . S
Mn612 O628 2.297 . S
Mn612 O636 2.385 . S
Mn612 O637 2.209 . S
Mn612 O638 2.094 . S
Mn613 O618 2.121 . S
Mn613 N620 2.257 . S
Mn613 N629 2.282 . S
Mn613 O637 2.215 . S
Mn613 O639 2.117 . S
C614 O636 1.234 . S
C614 O637 1.283 . S
C615 O627 1.281 . S
C615 O628 1.236 . S
C616 O638 1.240 . S
C616 O639 1.264 . S
O617 Mn612 2.095 . S
O617 C626 1.250 . S
O618 Mn613 2.121 . S
O618 C626 1.258 . S
C619 N620 1.326 . S
C619 C623 1.460 . S
C619 H625 0.929 . S
N620 Mn613 2.257 . S
N620 C619 1.326 . S
N620 C624 1.362 . S
C621 C622 1.258 . S
C621 C624 1.431 . S
C621 C641 1.449 . S
C622 C621 1.258 . S
C622 C623 1.477 . S
C622 H642 0.931 . S
C623 C619 1.460 . S
C623 C622 1.477 . S
C623 H643 0.930 . S
C624 N620 1.362 . S
C624 C621 1.431 . S
C624 C634 1.476 . S
H625 C619 0.929 . S
C626 O617 1.250 . S
C626 O618 1.258 . S
O627 Mn612 2.162 . S
O627 C615 1.281 . S
O628 Mn612 2.297 . S
O628 C615 1.236 . S
N629 Mn613 2.282 . S
N629 C630 1.328 . S
N629 C634 1.318 . S
C630 N629 1.328 . S
C630 C631 1.457 . S
C630 H635 0.929 . S
C631 C630 1.457 . S
C631 C632 1.291 . S
C631 H644 0.931 . S
C632 C631 1.291 . S
C632 C633 1.373 . S
C632 H645 0.929 . S
C633 C632 1.373 . S
C633 C634 1.396 . S
C633 C640 1.403 . S
C634 C624 1.476 . S
C634 N629 1.318 . S
C634 C633 1.396 . S
H635 C630 0.929 . S
O636 Mn612 2.385 . S
O636 C614 1.234 . S
O637 Mn612 2.209 . S
O637 Mn613 2.215 . S
O637 C614 1.283 . S
O638 Mn612 2.094 . S
O638 C616 1.240 . S
O639 Mn613 2.117 . S
O639 C616 1.264 . S
C640 C633 1.403 . S
C640 C641 1.399 . S
C640 H646 0.929 . S
C641 C621 1.449 . S
C641 C640 1.399 . S
C641 H647 0.930 . S
H642 C622 0.931 . S
H643 C623 0.930 . S
H644 C631 0.931 . S
H645 C632 0.929 . S
H646 C640 0.929 . S
H647 C641 0.930 . S
Mn648 O653 2.095 . S
Mn648 O663 2.162 . S
Mn648 O664 2.297 . S
Mn648 O672 2.385 . S
Mn648 O673 2.209 . S
Mn648 O674 2.094 . S
Mn649 O654 2.121 . S
Mn649 N656 2.257 . S
Mn649 N665 2.282 . S
Mn649 O673 2.215 . S
Mn649 O675 2.117 . S
C650 O672 1.234 . S
C650 O673 1.283 . S
C651 O663 1.281 . S
C651 O664 1.236 . S
C652 O674 1.240 . S
C652 O675 1.264 . S
O653 Mn648 2.095 . S
O653 C662 1.250 . S
O654 Mn649 2.121 . S
O654 C662 1.258 . S
C655 N656 1.326 . S
C655 C659 1.460 . S
C655 H661 0.929 . S
N656 Mn649 2.257 . S
N656 C655 1.326 . S
N656 C660 1.362 . S
C657 C658 1.258 . S
C657 C660 1.431 . S
C657 C677 1.449 1_655 S
C658 C657 1.258 . S
C658 C659 1.477 . S
C658 H678 0.931 1_655 S
C659 C655 1.460 . S
C659 C658 1.477 . S
C659 H679 0.930 . S
C660 N656 1.362 . S
C660 C657 1.431 . S
C660 C670 1.476 . S
H661 C655 0.929 . S
C662 O653 1.250 . S
C662 O654 1.258 . S
O663 Mn648 2.162 . S
O663 C651 1.281 . S
O664 Mn648 2.297 . S
O664 C651 1.236 . S
N665 Mn649 2.282 . S
N665 C666 1.328 . S
N665 C670 1.318 . S
C666 N665 1.328 . S
C666 C667 1.457 . S
C666 H671 0.929 . S
C667 C666 1.457 . S
C667 C668 1.291 . S
C667 H680 0.931 . S
C668 C667 1.291 . S
C668 C669 1.373 . S
C668 H681 0.929 1_655 S
C669 C668 1.373 . S
C669 C670 1.396 . S
C669 C676 1.403 1_655 S
C670 C660 1.476 . S
C670 N665 1.318 . S
C670 C669 1.396 . S
H671 C666 0.929 . S
O672 Mn648 2.385 . S
O672 C650 1.234 . S
O673 Mn648 2.209 . S
O673 Mn649 2.215 . S
O673 C650 1.283 . S
O674 Mn648 2.094 . S
O674 C652 1.240 . S
O675 Mn649 2.117 . S
O675 C652 1.264 . S
C676 C669 1.403 1_455 S
C676 C677 1.399 . S
C676 H682 0.929 . S
C677 C657 1.449 1_455 S
C677 C676 1.399 . S
C677 H683 0.930 . S
H678 C658 0.931 1_455 S
H679 C659 0.930 . S
H680 C667 0.931 . S
H681 C668 0.929 1_455 S
H682 C676 0.929 . S
H683 C677 0.930 . S
Mn684 O689 2.095 . S
Mn684 O699 2.162 . S
Mn684 O700 2.297 . S
Mn684 O708 2.385 . S
Mn684 O709 2.209 . S
Mn684 O710 2.094 . S
Mn685 O690 2.121 . S
Mn685 N692 2.257 . S
Mn685 N701 2.282 . S
Mn685 O709 2.215 . S
Mn685 O711 2.117 . S
C686 O708 1.234 . S
C686 O709 1.283 . S
C687 O699 1.281 . S
C687 O700 1.236 . S
C688 O710 1.240 . S
C688 O711 1.264 . S
O689 Mn684 2.095 . S
O689 C698 1.250 . S
O690 Mn685 2.121 . S
O690 C698 1.258 . S
C691 N692 1.326 . S
C691 C695 1.460 . S
C691 H697 0.929 . S
N692 Mn685 2.257 . S
N692 C691 1.326 . S
N692 C696 1.362 . S
C693 C694 1.258 . S
C693 C696 1.431 . S
C693 C713 1.449 . S
C694 C693 1.258 . S
C694 C695 1.477 . S
C694 H714 0.931 . S
C695 C691 1.460 . S
C695 C694 1.477 . S
C695 H715 0.930 . S
C696 N692 1.362 . S
C696 C693 1.431 . S
C696 C706 1.476 . S
H697 C691 0.929 . S
C698 O689 1.250 . S
C698 O690 1.258 . S
O699 Mn684 2.162 . S
O699 C687 1.281 . S
O700 Mn684 2.297 . S
O700 C687 1.236 . S
N701 Mn685 2.282 . S
N701 C702 1.328 . S
N701 C706 1.318 . S
C702 N701 1.328 . S
C702 C703 1.457 . S
C702 H707 0.929 . S
C703 C702 1.457 . S
C703 C704 1.291 . S
C703 H716 0.931 . S
C704 C703 1.291 . S
C704 C705 1.373 . S
C704 H717 0.929 . S
C705 C704 1.373 . S
C705 C706 1.396 . S
C705 C712 1.403 . S
C706 C696 1.476 . S
C706 N701 1.318 . S
C706 C705 1.396 . S
H707 C702 0.929 . S
O708 Mn684 2.385 . S
O708 C686 1.234 . S
O709 Mn684 2.209 . S
O709 Mn685 2.215 . S
O709 C686 1.283 . S
O710 Mn684 2.094 . S
O710 C688 1.240 . S
O711 Mn685 2.117 . S
O711 C688 1.264 . S
C712 C705 1.403 . S
C712 C713 1.399 . S
C712 H718 0.929 . S
C713 C693 1.449 . S
C713 C712 1.399 . S
C713 H719 0.930 . S
H714 C694 0.931 . S
H715 C695 0.930 . S
H716 C703 0.931 . S
H717 C704 0.929 . S
H718 C712 0.929 . S
H719 C713 0.930 . S
Mn720 O725 2.095 . S
Mn720 O735 2.162 . S
Mn720 O736 2.297 . S
Mn720 O744 2.385 . S
Mn720 O745 2.209 . S
Mn720 O746 2.094 . S
Mn721 O726 2.121 . S
Mn721 N728 2.257 . S
Mn721 N737 2.282 . S
Mn721 O745 2.215 . S
Mn721 O747 2.117 . S
C722 O744 1.234 . S
C722 O745 1.283 . S
C723 O735 1.281 . S
C723 O736 1.236 . S
C724 O746 1.240 . S
C724 O747 1.264 . S
O725 Mn720 2.095 . S
O725 C734 1.250 . S
O726 Mn721 2.121 . S
O726 C734 1.258 . S
C727 N728 1.326 . S
C727 C731 1.460 . S
C727 H733 0.929 . S
N728 Mn721 2.257 . S
N728 C727 1.326 . S
N728 C732 1.362 . S
C729 C730 1.258 . S
C729 C732 1.431 . S
C729 C749 1.449 . S
C730 C729 1.258 . S
C730 C731 1.477 . S
C730 H750 0.931 . S
C731 C727 1.460 . S
C731 C730 1.477 . S
C731 H751 0.930 . S
C732 N728 1.362 . S
C732 C729 1.431 . S
C732 C742 1.476 . S
H733 C727 0.929 . S
C734 O725 1.250 . S
C734 O726 1.258 . S
O735 Mn720 2.162 . S
O735 C723 1.281 . S
O736 Mn720 2.297 . S
O736 C723 1.236 . S
N737 Mn721 2.282 . S
N737 C738 1.328 . S
N737 C742 1.318 . S
C738 N737 1.328 . S
C738 C739 1.457 . S
C738 H743 0.929 . S
C739 C738 1.457 . S
C739 C740 1.291 . S
C739 H752 0.931 . S
C740 C739 1.291 . S
C740 C741 1.373 . S
C740 H753 0.929 . S
C741 C740 1.373 . S
C741 C742 1.396 . S
C741 C748 1.403 . S
C742 C732 1.476 . S
C742 N737 1.318 . S
C742 C741 1.396 . S
H743 C738 0.929 . S
O744 Mn720 2.385 . S
O744 C722 1.234 . S
O745 Mn720 2.209 . S
O745 Mn721 2.215 . S
O745 C722 1.283 . S
O746 Mn720 2.094 . S
O746 C724 1.240 . S
O747 Mn721 2.117 . S
O747 C724 1.264 . S
C748 C741 1.403 . S
C748 C749 1.399 . S
C748 H754 0.929 . S
C749 C729 1.449 . S
C749 C748 1.399 . S
C749 H755 0.930 . S
H750 C730 0.931 . S
H751 C731 0.930 . S
H752 C739 0.931 . S
H753 C740 0.929 . S
H754 C748 0.929 . S
H755 C749 0.930 . S
Mn756 O761 2.095 . S
Mn756 O771 2.162 . S
Mn756 O772 2.297 . S
Mn756 O780 2.385 . S
Mn756 O781 2.209 . S
Mn756 O782 2.094 . S
Mn757 O762 2.121 . S
Mn757 N764 2.257 . S
Mn757 N773 2.282 . S
Mn757 O781 2.215 . S
Mn757 O783 2.117 . S
C758 O780 1.234 . S
C758 O781 1.283 . S
C759 O771 1.281 . S
C759 O772 1.236 . S
C760 O782 1.240 . S
C760 O783 1.264 . S
O761 Mn756 2.095 . S
O761 C770 1.250 . S
O762 Mn757 2.121 . S
O762 C770 1.258 . S
C763 N764 1.326 . S
C763 C767 1.460 . S
C763 H769 0.929 . S
N764 Mn757 2.257 . S
N764 C763 1.326 . S
N764 C768 1.362 . S
C765 C766 1.258 . S
C765 C768 1.431 . S
C765 C785 1.449 . S
C766 C765 1.258 . S
C766 C767 1.477 . S
C766 H786 0.931 . S
C767 C763 1.460 . S
C767 C766 1.477 . S
C767 H787 0.930 . S
C768 N764 1.362 . S
C768 C765 1.431 . S
C768 C778 1.476 . S
H769 C763 0.929 . S
C770 O761 1.250 . S
C770 O762 1.258 . S
O771 Mn756 2.162 . S
O771 C759 1.281 . S
O772 Mn756 2.297 . S
O772 C759 1.236 . S
N773 Mn757 2.282 . S
N773 C774 1.328 . S
N773 C778 1.318 . S
C774 N773 1.328 . S
C774 C775 1.457 . S
C774 H779 0.929 . S
C775 C774 1.457 . S
C775 C776 1.291 . S
C775 H788 0.931 . S
C776 C775 1.291 . S
C776 C777 1.373 . S
C776 H789 0.929 . S
C777 C776 1.373 . S
C777 C778 1.396 . S
C777 C784 1.403 . S
C778 C768 1.476 . S
C778 N773 1.318 . S
C778 C777 1.396 . S
H779 C774 0.929 . S
O780 Mn756 2.385 . S
O780 C758 1.234 . S
O781 Mn756 2.209 . S
O781 Mn757 2.215 . S
O781 C758 1.283 . S
O782 Mn756 2.094 . S
O782 C760 1.240 . S
O783 Mn757 2.117 . S
O783 C760 1.264 . S
C784 C777 1.403 . S
C784 C785 1.399 . S
C784 H790 0.929 . S
C785 C765 1.449 . S
C785 C784 1.399 . S
C785 H791 0.930 . S
H786 C766 0.931 . S
H787 C767 0.930 . S
H788 C775 0.931 . S
H789 C776 0.929 . S
H790 C784 0.929 . S
H791 C785 0.930 . S
Mn792 O797 2.095 . S
Mn792 O807 2.162 . S
Mn792 O808 2.297 . S
Mn792 O816 2.385 . S
Mn792 O817 2.209 . S
Mn792 O818 2.094 . S
Mn793 O798 2.121 . S
Mn793 N800 2.257 . S
Mn793 N809 2.282 . S
Mn793 O817 2.215 . S
Mn793 O819 2.117 . S
C794 O816 1.234 . S
C794 O817 1.283 . S
C795 O807 1.281 . S
C795 O808 1.236 . S
C796 O818 1.240 . S
C796 O819 1.264 . S
O797 Mn792 2.095 . S
O797 C806 1.250 . S
O798 Mn793 2.121 . S
O798 C806 1.258 . S
C799 N800 1.326 . S
C799 C803 1.460 . S
C799 H805 0.929 . S
N800 Mn793 2.257 . S
N800 C799 1.326 . S
N800 C804 1.362 . S
C801 C802 1.258 . S
C801 C804 1.431 . S
C801 C821 1.449 1_655 S
C802 C801 1.258 . S
C802 C803 1.477 . S
C802 H822 0.931 1_655 S
C803 C799 1.460 . S
C803 C802 1.477 . S
C803 H823 0.930 . S
C804 N800 1.362 . S
C804 C801 1.431 . S
C804 C814 1.476 . S
H805 C799 0.929 . S
C806 O797 1.250 . S
C806 O798 1.258 . S
O807 Mn792 2.162 . S
O807 C795 1.281 . S
O808 Mn792 2.297 . S
O808 C795 1.236 . S
N809 Mn793 2.282 . S
N809 C810 1.328 . S
N809 C814 1.318 . S
C810 N809 1.328 . S
C810 C811 1.457 . S
C810 H815 0.929 . S
C811 C810 1.457 . S
C811 C812 1.291 . S
C811 H824 0.931 . S
C812 C811 1.291 . S
C812 C813 1.373 . S
C812 H825 0.929 1_655 S
C813 C812 1.373 . S
C813 C814 1.396 . S
C813 C820 1.403 1_655 S
C814 C804 1.476 . S
C814 N809 1.318 . S
C814 C813 1.396 . S
H815 C810 0.929 . S
O816 Mn792 2.385 . S
O816 C794 1.234 . S
O817 Mn792 2.209 . S
O817 Mn793 2.215 . S
O817 C794 1.283 . S
O818 Mn792 2.094 . S
O818 C796 1.240 . S
O819 Mn793 2.117 . S
O819 C796 1.264 . S
C820 C813 1.403 1_455 S
C820 C821 1.399 . S
C820 H826 0.929 . S
C821 C801 1.449 1_455 S
C821 C820 1.399 . S
C821 H827 0.930 . S
H822 C802 0.931 1_455 S
H823 C803 0.930 . S
H824 C811 0.931 . S
H825 C812 0.929 1_455 S
H826 C820 0.929 . S
H827 C821 0.930 . S
Mn828 O833 2.095 . S
Mn828 O843 2.162 . S
Mn828 O844 2.297 . S
Mn828 O852 2.385 . S
Mn828 O853 2.209 . S
Mn828 O854 2.094 . S
Mn829 O834 2.121 . S
Mn829 N836 2.257 . S
Mn829 N845 2.282 . S
Mn829 O853 2.215 . S
Mn829 O855 2.117 . S
C830 O852 1.234 . S
C830 O853 1.283 . S
C831 O843 1.281 . S
C831 O844 1.236 . S
C832 O854 1.240 . S
C832 O855 1.264 . S
O833 Mn828 2.095 . S
O833 C842 1.250 . S
O834 Mn829 2.121 . S
O834 C842 1.258 . S
C835 N836 1.326 . S
C835 C839 1.460 . S
C835 H841 0.929 . S
N836 Mn829 2.257 . S
N836 C835 1.326 . S
N836 C840 1.362 . S
C837 C838 1.258 . S
C837 C840 1.431 . S
C837 C857 1.449 . S
C838 C837 1.258 . S
C838 C839 1.477 . S
C838 H858 0.931 . S
C839 C835 1.460 . S
C839 C838 1.477 . S
C839 H859 0.930 . S
C840 N836 1.362 . S
C840 C837 1.431 . S
C840 C850 1.476 . S
H841 C835 0.929 . S
C842 O833 1.250 . S
C842 O834 1.258 . S
O843 Mn828 2.162 . S
O843 C831 1.281 . S
O844 Mn828 2.297 . S
O844 C831 1.236 . S
N845 Mn829 2.282 . S
N845 C846 1.328 . S
N845 C850 1.318 . S
C846 N845 1.328 . S
C846 C847 1.457 . S
C846 H851 0.929 . S
C847 C846 1.457 . S
C847 C848 1.291 . S
C847 H860 0.931 . S
C848 C847 1.291 . S
C848 C849 1.373 . S
C848 H861 0.929 . S
C849 C848 1.373 . S
C849 C850 1.396 . S
C849 C856 1.403 . S
C850 C840 1.476 . S
C850 N845 1.318 . S
C850 C849 1.396 . S
H851 C846 0.929 . S
O852 Mn828 2.385 . S
O852 C830 1.234 . S
O853 Mn828 2.209 . S
O853 Mn829 2.215 . S
O853 C830 1.283 . S
O854 Mn828 2.094 . S
O854 C832 1.240 . S
O855 Mn829 2.117 . S
O855 C832 1.264 . S
C856 C849 1.403 . S
C856 C857 1.399 . S
C856 H862 0.929 . S
C857 C837 1.449 . S
C857 C856 1.399 . S
C857 H863 0.930 . S
H858 C838 0.931 . S
H859 C839 0.930 . S
H860 C847 0.931 . S
H861 C848 0.929 . S
H862 C856 0.929 . S
H863 C857 0.930 . S
Mn864 O869 2.095 . S
Mn864 O879 2.162 . S
Mn864 O880 2.297 . S
Mn864 O888 2.385 . S
Mn864 O889 2.209 . S
Mn864 O890 2.094 . S
Mn865 O870 2.121 . S
Mn865 N872 2.257 . S
Mn865 N881 2.282 . S
Mn865 O889 2.215 . S
Mn865 O891 2.117 . S
C866 O888 1.234 . S
C866 O889 1.283 . S
C867 O879 1.281 . S
C867 O880 1.236 . S
C868 O890 1.240 . S
C868 O891 1.264 . S
O869 Mn864 2.095 . S
O869 C878 1.250 . S
O870 Mn865 2.121 . S
O870 C878 1.258 . S
C871 N872 1.326 . S
C871 C875 1.460 . S
C871 H877 0.929 . S
N872 Mn865 2.257 . S
N872 C871 1.326 . S
N872 C876 1.362 . S
C873 C874 1.258 . S
C873 C876 1.431 . S
C873 C893 1.449 . S
C874 C873 1.258 . S
C874 C875 1.477 . S
C874 H894 0.931 . S
C875 C871 1.460 . S
C875 C874 1.477 . S
C875 H895 0.930 . S
C876 N872 1.362 . S
C876 C873 1.431 . S
C876 C886 1.476 . S
H877 C871 0.929 . S
C878 O869 1.250 . S
C878 O870 1.258 . S
O879 Mn864 2.162 . S
O879 C867 1.281 . S
O880 Mn864 2.297 . S
O880 C867 1.236 . S
N881 Mn865 2.282 . S
N881 C882 1.328 . S
N881 C886 1.318 . S
C882 N881 1.328 . S
C882 C883 1.457 . S
C882 H887 0.929 . S
C883 C882 1.457 . S
C883 C884 1.291 . S
C883 H896 0.931 . S
C884 C883 1.291 . S
C884 C885 1.373 . S
C884 H897 0.929 . S
C885 C884 1.373 . S
C885 C886 1.396 . S
C885 C892 1.403 . S
C886 C876 1.476 . S
C886 N881 1.318 . S
C886 C885 1.396 . S
H887 C882 0.929 . S
O888 Mn864 2.385 . S
O888 C866 1.234 . S
O889 Mn864 2.209 . S
O889 Mn865 2.215 . S
O889 C866 1.283 . S
O890 Mn864 2.094 . S
O890 C868 1.240 . S
O891 Mn865 2.117 . S
O891 C868 1.264 . S
C892 C885 1.403 . S
C892 C893 1.399 . S
C892 H898 0.929 . S
C893 C873 1.449 . S
C893 C892 1.399 . S
C893 H899 0.930 . S
H894 C874 0.931 . S
H895 C875 0.930 . S
H896 C883 0.931 . S
H897 C884 0.929 . S
H898 C892 0.929 . S
H899 C893 0.930 . S
Mn900 O905 2.095 . S
Mn900 O915 2.162 . S
Mn900 O916 2.297 . S
Mn900 O924 2.385 . S
Mn900 O925 2.209 . S
Mn900 O926 2.094 . S
Mn901 O906 2.121 . S
Mn901 N908 2.257 . S
Mn901 N917 2.282 . S
Mn901 O925 2.215 . S
Mn901 O927 2.117 . S
C902 O924 1.234 . S
C902 O925 1.283 . S
C903 O915 1.281 . S
C903 O916 1.236 . S
C904 O926 1.240 . S
C904 O927 1.264 . S
O905 Mn900 2.095 . S
O905 C914 1.250 . S
O906 Mn901 2.121 . S
O906 C914 1.258 . S
C907 N908 1.326 . S
C907 C911 1.460 . S
C907 H913 0.929 . S
N908 Mn901 2.257 . S
N908 C907 1.326 . S
N908 C912 1.362 . S
C909 C910 1.258 . S
C909 C912 1.431 . S
C909 C929 1.449 . S
C910 C909 1.258 . S
C910 C911 1.477 . S
C910 H930 0.931 . S
C911 C907 1.460 . S
C911 C910 1.477 . S
C911 H931 0.930 . S
C912 N908 1.362 . S
C912 C909 1.431 . S
C912 C922 1.476 . S
H913 C907 0.929 . S
C914 O905 1.250 . S
C914 O906 1.258 . S
O915 Mn900 2.162 . S
O915 C903 1.281 . S
O916 Mn900 2.297 . S
O916 C903 1.236 . S
N917 Mn901 2.282 . S
N917 C918 1.328 . S
N917 C922 1.318 . S
C918 N917 1.328 . S
C918 C919 1.457 . S
C918 H923 0.929 . S
C919 C918 1.457 . S
C919 C920 1.291 . S
C919 H932 0.931 . S
C920 C919 1.291 . S
C920 C921 1.373 . S
C920 H933 0.929 . S
C921 C920 1.373 . S
C921 C922 1.396 . S
C921 C928 1.403 . S
C922 C912 1.476 . S
C922 N917 1.318 . S
C922 C921 1.396 . S
H923 C918 0.929 . S
O924 Mn900 2.385 . S
O924 C902 1.234 . S
O925 Mn900 2.209 . S
O925 Mn901 2.215 . S
O925 C902 1.283 . S
O926 Mn900 2.094 . S
O926 C904 1.240 . S
O927 Mn901 2.117 . S
O927 C904 1.264 . S
C928 C921 1.403 . S
C928 C929 1.399 . S
C928 H934 0.929 . S
C929 C909 1.449 . S
C929 C928 1.399 . S
C929 H935 0.930 . S
H930 C910 0.931 . S
H931 C911 0.930 . S
H932 C919 0.931 . S
H933 C920 0.929 . S
H934 C928 0.929 . S
H935 C929 0.930 . S
Mn936 O941 2.095 . S
Mn936 O951 2.162 . S
Mn936 O952 2.297 . S
Mn936 O960 2.385 . S
Mn936 O961 2.209 . S
Mn936 O962 2.094 . S
Mn937 O942 2.121 . S
Mn937 N944 2.257 . S
Mn937 N953 2.282 . S
Mn937 O961 2.215 . S
Mn937 O963 2.117 . S
C938 O960 1.234 . S
C938 O961 1.283 . S
C939 O951 1.281 . S
C939 O952 1.236 . S
C940 O962 1.240 . S
C940 O963 1.264 . S
O941 Mn936 2.095 . S
O941 C950 1.250 . S
O942 Mn937 2.121 . S
O942 C950 1.258 . S
C943 N944 1.326 . S
C943 C947 1.460 . S
C943 H949 0.929 . S
N944 Mn937 2.257 . S
N944 C943 1.326 . S
N944 C948 1.362 . S
C945 C946 1.258 . S
C945 C948 1.431 . S
C945 C965 1.449 1_455 S
C946 C945 1.258 . S
C946 C947 1.477 . S
C946 H966 0.931 1_455 S
C947 C943 1.460 . S
C947 C946 1.477 . S
C947 H967 0.930 . S
C948 N944 1.362 . S
C948 C945 1.431 . S
C948 C958 1.476 . S
H949 C943 0.929 . S
C950 O941 1.250 . S
C950 O942 1.258 . S
O951 Mn936 2.162 . S
O951 C939 1.281 . S
O952 Mn936 2.297 . S
O952 C939 1.236 . S
N953 Mn937 2.282 . S
N953 C954 1.328 . S
N953 C958 1.318 . S
C954 N953 1.328 . S
C954 C955 1.457 . S
C954 H959 0.929 . S
C955 C954 1.457 . S
C955 C956 1.291 . S
C955 H968 0.931 . S
C956 C955 1.291 . S
C956 C957 1.373 . S
C956 H969 0.929 1_455 S
C957 C956 1.373 . S
C957 C958 1.396 . S
C957 C964 1.403 1_455 S
C958 C948 1.476 . S
C958 N953 1.318 . S
C958 C957 1.396 . S
H959 C954 0.929 . S
O960 Mn936 2.385 . S
O960 C938 1.234 . S
O961 Mn936 2.209 . S
O961 Mn937 2.215 . S
O961 C938 1.283 . S
O962 Mn936 2.094 . S
O962 C940 1.240 . S
O963 Mn937 2.117 . S
O963 C940 1.264 . S
C964 C957 1.403 1_655 S
C964 C965 1.399 . S
C964 H970 0.929 . S
C965 C945 1.449 1_655 S
C965 C964 1.399 . S
C965 H971 0.930 . S
H966 C946 0.931 1_655 S
H967 C947 0.930 . S
H968 C955 0.931 . S
H969 C956 0.929 1_655 S
H970 C964 0.929 . S
H971 C965 0.930 . S
Mn972 O977 2.095 . S
Mn972 O987 2.162 . S
Mn972 O988 2.297 . S
Mn972 O996 2.385 . S
Mn972 O997 2.209 . S
Mn972 O998 2.094 . S
Mn973 O978 2.121 . S
Mn973 N980 2.257 . S
Mn973 N989 2.282 . S
Mn973 O997 2.215 . S
Mn973 O999 2.117 . S
C974 O996 1.234 . S
C974 O997 1.283 . S
C975 O987 1.281 . S
C975 O988 1.236 . S
C976 O998 1.240 . S
C976 O999 1.264 . S
O977 Mn972 2.095 . S
O977 C986 1.250 . S
O978 Mn973 2.121 . S
O978 C986 1.258 . S
C979 N980 1.326 . S
C979 C983 1.460 . S
C979 H985 0.929 . S
N980 Mn973 2.257 . S
N980 C979 1.326 . S
N980 C984 1.362 . S
C981 C982 1.258 . S
C981 C984 1.431 . S
C981 C1001 1.449 . S
C982 C981 1.258 . S
C982 C983 1.477 . S
C982 H1002 0.931 . S
C983 C979 1.460 . S
C983 C982 1.477 . S
C983 H1003 0.930 . S
C984 N980 1.362 . S
C984 C981 1.431 . S
C984 C994 1.476 . S
H985 C979 0.929 . S
C986 O977 1.250 . S
C986 O978 1.258 . S
O987 Mn972 2.162 . S
O987 C975 1.281 . S
O988 Mn972 2.297 . S
O988 C975 1.236 . S
N989 Mn973 2.282 . S
N989 C990 1.328 . S
N989 C994 1.318 . S
C990 N989 1.328 . S
C990 C991 1.457 . S
C990 H995 0.929 . S
C991 C990 1.457 . S
C991 C992 1.291 . S
C991 H1004 0.931 . S
C992 C991 1.291 . S
C992 C993 1.373 . S
C992 H1005 0.929 . S
C993 C992 1.373 . S
C993 C994 1.396 . S
C993 C1000 1.403 . S
C994 C984 1.476 . S
C994 N989 1.318 . S
C994 C993 1.396 . S
H995 C990 0.929 . S
O996 Mn972 2.385 . S
O996 C974 1.234 . S
O997 Mn972 2.209 . S
O997 Mn973 2.215 . S
O997 C974 1.283 . S
O998 Mn972 2.094 . S
O998 C976 1.240 . S
O999 Mn973 2.117 . S
O999 C976 1.264 . S
C1000 C993 1.403 . S
C1000 C1001 1.399 . S
C1000 H1006 0.929 . S
C1001 C981 1.449 . S
C1001 C1000 1.399 . S
C1001 H1007 0.930 . S
H1002 C982 0.931 . S
H1003 C983 0.930 . S
H1004 C991 0.931 . S
H1005 C992 0.929 . S
H1006 C1000 0.929 . S
H1007 C1001 0.930 . S
Mn1008 O1013 2.095 . S
Mn1008 O1023 2.162 . S
Mn1008 O1024 2.297 . S
Mn1008 O1032 2.385 . S
Mn1008 O1033 2.209 . S
Mn1008 O1034 2.094 . S
Mn1009 O1014 2.121 . S
Mn1009 N1016 2.257 . S
Mn1009 N1025 2.282 . S
Mn1009 O1033 2.215 . S
Mn1009 O1035 2.117 . S
C1010 O1032 1.234 . S
C1010 O1033 1.283 . S
C1011 O1023 1.281 . S
C1011 O1024 1.236 . S
C1012 O1034 1.240 . S
C1012 O1035 1.264 . S
O1013 Mn1008 2.095 . S
O1013 C1022 1.250 . S
O1014 Mn1009 2.121 . S
O1014 C1022 1.258 . S
C1015 N1016 1.326 . S
C1015 C1019 1.460 . S
C1015 H1021 0.929 . S
N1016 Mn1009 2.257 . S
N1016 C1015 1.326 . S
N1016 C1020 1.362 . S
C1017 C1018 1.258 . S
C1017 C1020 1.431 . S
C1017 C1037 1.449 . S
C1018 C1017 1.258 . S
C1018 C1019 1.477 . S
C1018 H1038 0.931 . S
C1019 C1015 1.460 . S
C1019 C1018 1.477 . S
C1019 H1039 0.930 . S
C1020 N1016 1.362 . S
C1020 C1017 1.431 . S
C1020 C1030 1.476 . S
H1021 C1015 0.929 . S
C1022 O1013 1.250 . S
C1022 O1014 1.258 . S
O1023 Mn1008 2.162 . S
O1023 C1011 1.281 . S
O1024 Mn1008 2.297 . S
O1024 C1011 1.236 . S
N1025 Mn1009 2.282 . S
N1025 C1026 1.328 . S
N1025 C1030 1.318 . S
C1026 N1025 1.328 . S
C1026 C1027 1.457 . S
C1026 H1031 0.929 . S
C1027 C1026 1.457 . S
C1027 C1028 1.291 . S
C1027 H1040 0.931 . S
C1028 C1027 1.291 . S
C1028 C1029 1.373 . S
C1028 H1041 0.929 . S
C1029 C1028 1.373 . S
C1029 C1030 1.396 . S
C1029 C1036 1.403 . S
C1030 C1020 1.476 . S
C1030 N1025 1.318 . S
C1030 C1029 1.396 . S
H1031 C1026 0.929 . S
O1032 Mn1008 2.385 . S
O1032 C1010 1.234 . S
O1033 Mn1008 2.209 . S
O1033 Mn1009 2.215 . S
O1033 C1010 1.283 . S
O1034 Mn1008 2.094 . S
O1034 C1012 1.240 . S
O1035 Mn1009 2.117 . S
O1035 C1012 1.264 . S
C1036 C1029 1.403 . S
C1036 C1037 1.399 . S
C1036 H1042 0.929 . S
C1037 C1017 1.449 . S
C1037 C1036 1.399 . S
C1037 H1043 0.930 . S
H1038 C1018 0.931 . S
H1039 C1019 0.930 . S
H1040 C1027 0.931 . S
H1041 C1028 0.929 . S
H1042 C1036 0.929 . S
H1043 C1037 0.930 . S
Mn1044 O1049 2.095 . S
Mn1044 O1059 2.162 . S
Mn1044 O1060 2.297 . S
Mn1044 O1068 2.385 . S
Mn1044 O1069 2.209 . S
Mn1044 O1070 2.094 . S
Mn1045 O1050 2.121 . S
Mn1045 N1052 2.257 . S
Mn1045 N1061 2.282 . S
Mn1045 O1069 2.215 . S
Mn1045 O1071 2.117 . S
C1046 O1068 1.234 . S
C1046 O1069 1.283 . S
C1047 O1059 1.281 . S
C1047 O1060 1.236 . S
C1048 O1070 1.240 . S
C1048 O1071 1.264 . S
O1049 Mn1044 2.095 . S
O1049 C1058 1.250 . S
O1050 Mn1045 2.121 . S
O1050 C1058 1.258 . S
C1051 N1052 1.326 . S
C1051 C1055 1.460 . S
C1051 H1057 0.929 . S
N1052 Mn1045 2.257 . S
N1052 C1051 1.326 . S
N1052 C1056 1.362 . S
C1053 C1054 1.258 . S
C1053 C1056 1.431 . S
C1053 C1073 1.449 . S
C1054 C1053 1.258 . S
C1054 C1055 1.477 . S
C1054 H1074 0.931 . S
C1055 C1051 1.460 . S
C1055 C1054 1.477 . S
C1055 H1075 0.930 . S
C1056 N1052 1.362 . S
C1056 C1053 1.431 . S
C1056 C1066 1.476 . S
H1057 C1051 0.929 . S
C1058 O1049 1.250 . S
C1058 O1050 1.258 . S
O1059 Mn1044 2.162 . S
O1059 C1047 1.281 . S
O1060 Mn1044 2.297 . S
O1060 C1047 1.236 . S
N1061 Mn1045 2.282 . S
N1061 C1062 1.328 . S
N1061 C1066 1.318 . S
C1062 N1061 1.328 . S
C1062 C1063 1.457 . S
C1062 H1067 0.929 . S
C1063 C1062 1.457 . S
C1063 C1064 1.291 . S
C1063 H1076 0.931 . S
C1064 C1063 1.291 . S
C1064 C1065 1.373 . S
C1064 H1077 0.929 . S
C1065 C1064 1.373 . S
C1065 C1066 1.396 . S
C1065 C1072 1.403 . S
C1066 C1056 1.476 . S
C1066 N1061 1.318 . S
C1066 C1065 1.396 . S
H1067 C1062 0.929 . S
O1068 Mn1044 2.385 . S
O1068 C1046 1.234 . S
O1069 Mn1044 2.209 . S
O1069 Mn1045 2.215 . S
O1069 C1046 1.283 . S
O1070 Mn1044 2.094 . S
O1070 C1048 1.240 . S
O1071 Mn1045 2.117 . S
O1071 C1048 1.264 . S
C1072 C1065 1.403 . S
C1072 C1073 1.399 . S
C1072 H1078 0.929 . S
C1073 C1053 1.449 . S
C1073 C1072 1.399 . S
C1073 H1079 0.930 . S
H1074 C1054 0.931 . S
H1075 C1055 0.930 . S
H1076 C1063 0.931 . S
H1077 C1064 0.929 . S
H1078 C1072 0.929 . S
H1079 C1073 0.930 . S
Mn1080 O1085 2.095 . S
Mn1080 O1095 2.162 . S
Mn1080 O1096 2.297 . S
Mn1080 O1104 2.385 . S
Mn1080 O1105 2.209 . S
Mn1080 O1106 2.094 . S
Mn1081 O1086 2.121 . S
Mn1081 N1088 2.257 . S
Mn1081 N1097 2.282 . S
Mn1081 O1105 2.215 . S
Mn1081 O1107 2.117 . S
C1082 O1104 1.234 . S
C1082 O1105 1.283 . S
C1083 O1095 1.281 . S
C1083 O1096 1.236 . S
C1084 O1106 1.240 . S
C1084 O1107 1.264 . S
O1085 Mn1080 2.095 . S
O1085 C1094 1.250 . S
O1086 Mn1081 2.121 . S
O1086 C1094 1.258 . S
C1087 N1088 1.326 . S
C1087 C1091 1.460 . S
C1087 H1093 0.929 . S
N1088 Mn1081 2.257 . S
N1088 C1087 1.326 . S
N1088 C1092 1.362 . S
C1089 C1090 1.258 . S
C1089 C1092 1.431 . S
C1089 C1109 1.449 1_455 S
C1090 C1089 1.258 . S
C1090 C1091 1.477 . S
C1090 H1110 0.931 1_455 S
C1091 C1087 1.460 . S
C1091 C1090 1.477 . S
C1091 H1111 0.930 . S
C1092 N1088 1.362 . S
C1092 C1089 1.431 . S
C1092 C1102 1.476 . S
H1093 C1087 0.929 . S
C1094 O1085 1.250 . S
C1094 O1086 1.258 . S
O1095 Mn1080 2.162 . S
O1095 C1083 1.281 . S
O1096 Mn1080 2.297 . S
O1096 C1083 1.236 . S
N1097 Mn1081 2.282 . S
N1097 C1098 1.328 . S
N1097 C1102 1.318 . S
C1098 N1097 1.328 . S
C1098 C1099 1.457 . S
C1098 H1103 0.929 . S
C1099 C1098 1.457 . S
C1099 C1100 1.291 . S
C1099 H1112 0.931 . S
C1100 C1099 1.291 . S
C1100 C1101 1.373 . S
C1100 H1113 0.929 1_455 S
C1101 C1100 1.373 . S
C1101 C1102 1.396 . S
C1101 C1108 1.403 1_455 S
C1102 C1092 1.476 . S
C1102 N1097 1.318 . S
C1102 C1101 1.396 . S
H1103 C1098 0.929 . S
O1104 Mn1080 2.385 . S
O1104 C1082 1.234 . S
O1105 Mn1080 2.209 . S
O1105 Mn1081 2.215 . S
O1105 C1082 1.283 . S
O1106 Mn1080 2.094 . S
O1106 C1084 1.240 . S
O1107 Mn1081 2.117 . S
O1107 C1084 1.264 . S
C1108 C1101 1.403 1_655 S
C1108 C1109 1.399 . S
C1108 H1114 0.929 . S
C1109 C1089 1.449 1_655 S
C1109 C1108 1.399 . S
C1109 H1115 0.930 . S
H1110 C1090 0.931 1_655 S
H1111 C1091 0.930 . S
H1112 C1099 0.931 . S
H1113 C1100 0.929 1_655 S
H1114 C1108 0.929 . S
H1115 C1109 0.930 . S
Mn1116 O1121 2.095 . S
Mn1116 O1131 2.162 . S
Mn1116 O1132 2.297 . S
Mn1116 O1140 2.385 . S
Mn1116 O1141 2.209 . S
Mn1116 O1142 2.094 . S
Mn1117 O1122 2.121 . S
Mn1117 N1124 2.257 . S
Mn1117 N1133 2.282 . S
Mn1117 O1141 2.215 . S
Mn1117 O1143 2.117 . S
C1118 O1140 1.234 . S
C1118 O1141 1.283 . S
C1119 O1131 1.281 . S
C1119 O1132 1.236 . S
C1120 O1142 1.240 . S
C1120 O1143 1.264 . S
O1121 Mn1116 2.095 . S
O1121 C1130 1.250 . S
O1122 Mn1117 2.121 . S
O1122 C1130 1.258 . S
C1123 N1124 1.326 . S
C1123 C1127 1.460 . S
C1123 H1129 0.929 . S
N1124 Mn1117 2.257 . S
N1124 C1123 1.326 . S
N1124 C1128 1.362 . S
C1125 C1126 1.258 . S
C1125 C1128 1.431 . S
C1125 C1145 1.449 . S
C1126 C1125 1.258 . S
C1126 C1127 1.477 . S
C1126 H1146 0.931 . S
C1127 C1123 1.460 . S
C1127 C1126 1.477 . S
C1127 H1147 0.930 . S
C1128 N1124 1.362 . S
C1128 C1125 1.431 . S
C1128 C1138 1.476 . S
H1129 C1123 0.929 . S
C1130 O1121 1.250 . S
C1130 O1122 1.258 . S
O1131 Mn1116 2.162 . S
O1131 C1119 1.281 . S
O1132 Mn1116 2.297 . S
O1132 C1119 1.236 . S
N1133 Mn1117 2.282 . S
N1133 C1134 1.328 . S
N1133 C1138 1.318 . S
C1134 N1133 1.328 . S
C1134 C1135 1.457 . S
C1134 H1139 0.929 . S
C1135 C1134 1.457 . S
C1135 C1136 1.291 . S
C1135 H1148 0.931 . S
C1136 C1135 1.291 . S
C1136 C1137 1.373 . S
C1136 H1149 0.929 . S
C1137 C1136 1.373 . S
C1137 C1138 1.396 . S
C1137 C1144 1.403 . S
C1138 C1128 1.476 . S
C1138 N1133 1.318 . S
C1138 C1137 1.396 . S
H1139 C1134 0.929 . S
O1140 Mn1116 2.385 . S
O1140 C1118 1.234 . S
O1141 Mn1116 2.209 . S
O1141 Mn1117 2.215 . S
O1141 C1118 1.283 . S
O1142 Mn1116 2.094 . S
O1142 C1120 1.240 . S
O1143 Mn1117 2.117 . S
O1143 C1120 1.264 . S
C1144 C1137 1.403 . S
C1144 C1145 1.399 . S
C1144 H1150 0.929 . S
C1145 C1125 1.449 . S
C1145 C1144 1.399 . S
C1145 H1151 0.930 . S
H1146 C1126 0.931 . S
H1147 C1127 0.930 . S
H1148 C1135 0.931 . S
H1149 C1136 0.929 . S
H1150 C1144 0.929 . S
H1151 C1145 0.930 . S
H1152 C1158 0.930 . S
H1153 C1161 0.930 . S
H1154 C1162 0.930 . S
H1155 C1163 0.930 . S
H1156 C1166 0.930 . S
H1157 C1167 0.930 . S
C1158 H1152 0.930 . S
C1158 C1159 1.355 . S
C1158 C1160 1.415 . S
C1159 C1158 1.355 . S
C1159 C1161 1.419 . S
C1160 C1158 1.415 . S
C1160 C1165 1.425 . S
C1160 C1167 1.409 . S
C1161 H1153 0.930 . S
C1161 C1159 1.419 . S
C1161 C1162 1.362 . S
C1162 H1154 0.930 . S
C1162 C1161 1.362 . S
C1162 C1165 1.409 . S
C1163 H1155 0.930 . S
C1163 C1164 1.355 . S
C1163 C1165 1.415 . S
C1164 C1163 1.355 . S
C1164 C1166 1.419 . S
C1165 C1160 1.425 . S
C1165 C1162 1.409 . S
C1165 C1163 1.415 . S
C1166 H1156 0.930 . S
C1166 C1164 1.419 . S
C1166 C1167 1.362 . S
C1167 H1157 0.930 . S
C1167 C1160 1.409 . S
C1167 C1166 1.362 . S
H1168 C1174 0.930 . S
H1169 C1177 0.930 . S
H1170 C1178 0.930 . S
H1171 C1179 0.930 . S
H1172 C1182 0.930 . S
H1173 C1183 0.930 . S
C1174 H1168 0.930 . S
C1174 C1175 1.355 . S
C1174 C1176 1.415 . S
C1175 C1174 1.355 . S
C1175 C1177 1.419 . S
C1176 C1174 1.415 . S
C1176 C1181 1.425 . S
C1176 C1183 1.409 . S
C1177 H1169 0.930 . S
C1177 C1175 1.419 . S
C1177 C1178 1.362 . S
C1178 H1170 0.930 . S
C1178 C1177 1.362 . S
C1178 C1181 1.409 . S
C1179 H1171 0.930 . S
C1179 C1180 1.355 . S
C1179 C1181 1.415 . S
C1180 C1179 1.355 . S
C1180 C1182 1.419 . S
C1181 C1176 1.425 . S
C1181 C1178 1.409 . S
C1181 C1179 1.415 . S
C1182 H1172 0.930 . S
C1182 C1180 1.419 . S
C1182 C1183 1.362 . S
C1183 H1173 0.930 . S
C1183 C1176 1.409 . S
C1183 C1182 1.362 . S
H1184 C1190 0.930 . S
H1185 C1193 0.930 . S
H1186 C1194 0.930 . S
H1187 C1195 0.930 . S
H1188 C1198 0.930 . S
H1189 C1199 0.930 . S
C1190 H1184 0.930 . S
C1190 C1191 1.355 . S
C1190 C1192 1.415 . S
C1191 C1190 1.355 . S
C1191 C1193 1.419 . S
C1192 C1190 1.415 . S
C1192 C1197 1.425 . S
C1192 C1199 1.409 . S
C1193 H1185 0.930 . S
C1193 C1191 1.419 . S
C1193 C1194 1.362 . S
C1194 H1186 0.930 . S
C1194 C1193 1.362 . S
C1194 C1197 1.409 . S
C1195 H1187 0.930 . S
C1195 C1196 1.355 . S
C1195 C1197 1.415 . S
C1196 C1195 1.355 . S
C1196 C1198 1.419 . S
C1197 C1192 1.425 . S
C1197 C1194 1.409 . S
C1197 C1195 1.415 . S
C1198 H1188 0.930 . S
C1198 C1196 1.419 . S
C1198 C1199 1.362 . S
C1199 H1189 0.930 . S
C1199 C1192 1.409 . S
C1199 C1198 1.362 . S
H1200 C1206 0.930 . S
H1201 C1209 0.930 . S
H1202 C1210 0.930 . S
H1203 C1211 0.930 . S
H1204 C1214 0.930 . S
H1205 C1215 0.930 . S
C1206 H1200 0.930 . S
C1206 C1207 1.355 . S
C1206 C1208 1.415 . S
C1207 C1206 1.355 . S
C1207 C1209 1.419 . S
C1208 C1206 1.415 . S
C1208 C1213 1.425 . S
C1208 C1215 1.409 . S
C1209 H1201 0.930 . S
C1209 C1207 1.419 . S
C1209 C1210 1.362 . S
C1210 H1202 0.930 . S
C1210 C1209 1.362 . S
C1210 C1213 1.409 . S
C1211 H1203 0.930 . S
C1211 C1212 1.355 . S
C1211 C1213 1.415 . S
C1212 C1211 1.355 . S
C1212 C1214 1.419 . S
C1213 C1208 1.425 . S
C1213 C1210 1.409 . S
C1213 C1211 1.415 . S
C1214 H1204 0.930 . S
C1214 C1212 1.419 . S
C1214 C1215 1.362 . S
C1215 H1205 0.930 . S
C1215 C1208 1.409 . S
C1215 C1214 1.362 . S
H1216 C1222 0.930 . S
H1217 C1225 0.930 . S
H1218 C1226 0.930 . S
H1219 C1227 0.930 . S
H1220 C1230 0.930 . S
H1221 C1231 0.930 . S
C1222 H1216 0.930 . S
C1222 C1223 1.355 . S
C1222 C1224 1.415 . S
C1223 C1222 1.355 . S
C1223 C1225 1.419 . S
C1224 C1222 1.415 . S
C1224 C1229 1.425 . S
C1224 C1231 1.409 . S
C1225 H1217 0.930 . S
C1225 C1223 1.419 . S
C1225 C1226 1.362 . S
C1226 H1218 0.930 . S
C1226 C1225 1.362 . S
C1226 C1229 1.409 . S
C1227 H1219 0.930 . S
C1227 C1228 1.355 . S
C1227 C1229 1.415 . S
C1228 C1227 1.355 . S
C1228 C1230 1.419 . S
C1229 C1224 1.425 . S
C1229 C1226 1.409 . S
C1229 C1227 1.415 . S
C1230 H1220 0.930 . S
C1230 C1228 1.419 . S
C1230 C1231 1.362 . S
C1231 H1221 0.930 . S
C1231 C1224 1.409 . S
C1231 C1230 1.362 . S
H1232 C1238 0.930 . S
H1233 C1241 0.930 . S
H1234 C1242 0.930 . S
H1235 C1243 0.930 . S
H1236 C1246 0.930 . S
H1237 C1247 0.930 . S
C1238 H1232 0.930 . S
C1238 C1239 1.355 . S
C1238 C1240 1.415 . S
C1239 C1238 1.355 . S
C1239 C1241 1.419 . S
C1240 C1238 1.415 . S
C1240 C1245 1.425 . S
C1240 C1247 1.409 . S
C1241 H1233 0.930 . S
C1241 C1239 1.419 . S
C1241 C1242 1.362 . S
C1242 H1234 0.930 . S
C1242 C1241 1.362 . S
C1242 C1245 1.409 . S
C1243 H1235 0.930 . S
C1243 C1244 1.355 . S
C1243 C1245 1.415 . S
C1244 C1243 1.355 . S
C1244 C1246 1.419 . S
C1245 C1240 1.425 . S
C1245 C1242 1.409 . S
C1245 C1243 1.415 . S
C1246 H1236 0.930 . S
C1246 C1244 1.419 . S
C1246 C1247 1.362 . S
C1247 H1237 0.930 . S
C1247 C1240 1.409 . S
C1247 C1246 1.362 . S
H1248 C1254 0.930 . S
H1249 C1257 0.930 . S
H1250 C1258 0.930 . S
H1251 C1259 0.930 . S
H1252 C1262 0.930 . S
H1253 C1263 0.930 . S
C1254 H1248 0.930 . S
C1254 C1255 1.355 . S
C1254 C1256 1.415 . S
C1255 C1254 1.355 . S
C1255 C1257 1.419 . S
C1256 C1254 1.415 . S
C1256 C1261 1.425 . S
C1256 C1263 1.409 . S
C1257 H1249 0.930 . S
C1257 C1255 1.419 . S
C1257 C1258 1.362 . S
C1258 H1250 0.930 . S
C1258 C1257 1.362 . S
C1258 C1261 1.409 . S
C1259 H1251 0.930 . S
C1259 C1260 1.355 . S
C1259 C1261 1.415 . S
C1260 C1259 1.355 . S
C1260 C1262 1.419 . S
C1261 C1256 1.425 . S
C1261 C1258 1.409 . S
C1261 C1259 1.415 . S
C1262 H1252 0.930 . S
C1262 C1260 1.419 . S
C1262 C1263 1.362 . S
C1263 H1253 0.930 . S
C1263 C1256 1.409 . S
C1263 C1262 1.362 . S
H1264 C1270 0.930 . S
H1265 C1273 0.930 . S
H1266 C1274 0.930 . S
H1267 C1275 0.930 . S
H1268 C1278 0.930 . S
H1269 C1279 0.930 . S
C1270 H1264 0.930 . S
C1270 C1271 1.355 . S
C1270 C1272 1.415 . S
C1271 C1270 1.355 . S
C1271 C1273 1.419 . S
C1272 C1270 1.415 . S
C1272 C1277 1.425 . S
C1272 C1279 1.409 . S
C1273 H1265 0.930 . S
C1273 C1271 1.419 . S
C1273 C1274 1.362 . S
C1274 H1266 0.930 . S
C1274 C1273 1.362 . S
C1274 C1277 1.409 . S
C1275 H1267 0.930 . S
C1275 C1276 1.355 . S
C1275 C1277 1.415 . S
C1276 C1275 1.355 . S
C1276 C1278 1.419 . S
C1277 C1272 1.425 . S
C1277 C1274 1.409 . S
C1277 C1275 1.415 . S
C1278 H1268 0.930 . S
C1278 C1276 1.419 . S
C1278 C1279 1.362 . S
C1279 H1269 0.930 . S
C1279 C1272 1.409 . S
C1279 C1278 1.362 . S
H1280 C1286 0.930 . S
H1281 C1289 0.930 . S
H1282 C1290 0.930 . S
H1283 C1291 0.930 . S
H1284 C1294 0.930 . S
H1285 C1295 0.930 . S
C1286 H1280 0.930 . S
C1286 C1287 1.355 . S
C1286 C1288 1.415 . S
C1287 C1286 1.355 . S
C1287 C1289 1.419 . S
C1288 C1286 1.415 . S
C1288 C1293 1.425 . S
C1288 C1295 1.409 . S
C1289 H1281 0.930 . S
C1289 C1287 1.419 . S
C1289 C1290 1.362 . S
C1290 H1282 0.930 . S
C1290 C1289 1.362 . S
C1290 C1293 1.409 . S
C1291 H1283 0.930 . S
C1291 C1292 1.355 . S
C1291 C1293 1.415 . S
C1292 C1291 1.355 . S
C1292 C1294 1.419 . S
C1293 C1288 1.425 . S
C1293 C1290 1.409 . S
C1293 C1291 1.415 . S
C1294 H1284 0.930 . S
C1294 C1292 1.419 . S
C1294 C1295 1.362 . S
C1295 H1285 0.930 . S
C1295 C1288 1.409 . S
C1295 C1294 1.362 . S
H1296 C1302 0.930 . S
H1297 C1305 0.930 . S
H1298 C1306 0.930 . S
H1299 C1307 0.930 . S
H1300 C1310 0.930 . S
H1301 C1311 0.930 . S
C1302 H1296 0.930 . S
C1302 C1303 1.355 . S
C1302 C1304 1.415 . S
C1303 C1302 1.355 . S
C1303 C1305 1.419 . S
C1304 C1302 1.415 . S
C1304 C1309 1.425 . S
C1304 C1311 1.409 . S
C1305 H1297 0.930 . S
C1305 C1303 1.419 . S
C1305 C1306 1.362 . S
C1306 H1298 0.930 . S
C1306 C1305 1.362 . S
C1306 C1309 1.409 . S
C1307 H1299 0.930 . S
C1307 C1308 1.355 . S
C1307 C1309 1.415 . S
C1308 C1307 1.355 . S
C1308 C1310 1.419 . S
C1309 C1304 1.425 . S
C1309 C1306 1.409 . S
C1309 C1307 1.415 . S
C1310 H1300 0.930 . S
C1310 C1308 1.419 . S
C1310 C1311 1.362 . S
C1311 H1301 0.930 . S
C1311 C1304 1.409 . S
C1311 C1310 1.362 . S
H1312 C1318 0.930 . S
H1313 C1321 0.930 . S
H1314 C1322 0.930 . S
H1315 C1323 0.930 . S
H1316 C1326 0.930 . S
H1317 C1327 0.930 . S
C1318 H1312 0.930 . S
C1318 C1319 1.355 . S
C1318 C1320 1.415 . S
C1319 C1318 1.355 . S
C1319 C1321 1.419 . S
C1320 C1318 1.415 . S
C1320 C1325 1.425 . S
C1320 C1327 1.409 . S
C1321 H1313 0.930 . S
C1321 C1319 1.419 . S
C1321 C1322 1.362 . S
C1322 H1314 0.930 . S
C1322 C1321 1.362 . S
C1322 C1325 1.409 . S
C1323 H1315 0.930 . S
C1323 C1324 1.355 . S
C1323 C1325 1.415 . S
C1324 C1323 1.355 . S
C1324 C1326 1.419 . S
C1325 C1320 1.425 . S
C1325 C1322 1.409 . S
C1325 C1323 1.415 . S
C1326 H1316 0.930 . S
C1326 C1324 1.419 . S
C1326 C1327 1.362 . S
C1327 H1317 0.930 . S
C1327 C1320 1.409 . S
C1327 C1326 1.362 . S
H1328 C1334 0.930 . S
H1329 C1337 0.930 . S
H1330 C1338 0.930 . S
H1331 C1339 0.930 . S
H1332 C1342 0.930 . S
H1333 C1343 0.930 . S
C1334 H1328 0.930 . S
C1334 C1335 1.355 . S
C1334 C1336 1.415 . S
C1335 C1334 1.355 . S
C1335 C1337 1.419 . S
C1336 C1334 1.415 . S
C1336 C1341 1.425 . S
C1336 C1343 1.409 . S
C1337 H1329 0.930 . S
C1337 C1335 1.419 . S
C1337 C1338 1.362 . S
C1338 H1330 0.930 . S
C1338 C1337 1.362 . S
C1338 C1341 1.409 . S
C1339 H1331 0.930 . S
C1339 C1340 1.355 . S
C1339 C1341 1.415 . S
C1340 C1339 1.355 . S
C1340 C1342 1.419 . S
C1341 C1336 1.425 . S
C1341 C1338 1.409 . S
C1341 C1339 1.415 . S
C1342 H1332 0.930 . S
C1342 C1340 1.419 . S
C1342 C1343 1.362 . S
C1343 H1333 0.930 . S
C1343 C1336 1.409 . S
C1343 C1342 1.362 . S
H1344 C1350 0.930 . S
H1345 C1353 0.930 . S
H1346 C1354 0.930 . S
H1347 C1355 0.930 . S
H1348 C1358 0.930 . S
H1349 C1359 0.930 . S
C1350 H1344 0.930 . S
C1350 C1351 1.355 . S
C1350 C1352 1.415 . S
C1351 C1350 1.355 . S
C1351 C1353 1.419 . S
C1352 C1350 1.415 . S
C1352 C1357 1.425 . S
C1352 C1359 1.409 . S
C1353 H1345 0.930 . S
C1353 C1351 1.419 . S
C1353 C1354 1.362 . S
C1354 H1346 0.930 . S
C1354 C1353 1.362 . S
C1354 C1357 1.409 . S
C1355 H1347 0.930 . S
C1355 C1356 1.355 . S
C1355 C1357 1.415 . S
C1356 C1355 1.355 . S
C1356 C1358 1.419 . S
C1357 C1352 1.425 . S
C1357 C1354 1.409 . S
C1357 C1355 1.415 . S
C1358 H1348 0.930 . S
C1358 C1356 1.419 . S
C1358 C1359 1.362 . S
C1359 H1349 0.930 . S
C1359 C1352 1.409 . S
C1359 C1358 1.362 . S
H1360 C1366 0.930 . S
H1361 C1369 0.930 . S
H1362 C1370 0.930 . S
H1363 C1371 0.930 . S
H1364 C1374 0.930 . S
H1365 C1375 0.930 . S
C1366 H1360 0.930 . S
C1366 C1367 1.355 . S
C1366 C1368 1.415 . S
C1367 C1366 1.355 . S
C1367 C1369 1.419 . S
C1368 C1366 1.415 . S
C1368 C1373 1.425 . S
C1368 C1375 1.409 . S
C1369 H1361 0.930 . S
C1369 C1367 1.419 . S
C1369 C1370 1.362 . S
C1370 H1362 0.930 . S
C1370 C1369 1.362 . S
C1370 C1373 1.409 . S
C1371 H1363 0.930 . S
C1371 C1372 1.355 . S
C1371 C1373 1.415 . S
C1372 C1371 1.355 . S
C1372 C1374 1.419 . S
C1373 C1368 1.425 . S
C1373 C1370 1.409 . S
C1373 C1371 1.415 . S
C1374 H1364 0.930 . S
C1374 C1372 1.419 . S
C1374 C1375 1.362 . S
C1375 H1365 0.930 . S
C1375 C1368 1.409 . S
C1375 C1374 1.362 . S
H1376 C1382 0.930 . S
H1377 C1385 0.930 . S
H1378 C1386 0.930 . S
H1379 C1387 0.930 . S
H1380 C1390 0.930 . S
H1381 C1391 0.930 . S
C1382 H1376 0.930 . S
C1382 C1383 1.355 . S
C1382 C1384 1.415 . S
C1383 C1382 1.355 . S
C1383 C1385 1.419 . S
C1384 C1382 1.415 . S
C1384 C1389 1.425 . S
C1384 C1391 1.409 . S
C1385 H1377 0.930 . S
C1385 C1383 1.419 . S
C1385 C1386 1.362 . S
C1386 H1378 0.930 . S
C1386 C1385 1.362 . S
C1386 C1389 1.409 . S
C1387 H1379 0.930 . S
C1387 C1388 1.355 . S
C1387 C1389 1.415 . S
C1388 C1387 1.355 . S
C1388 C1390 1.419 . S
C1389 C1384 1.425 . S
C1389 C1386 1.409 . S
C1389 C1387 1.415 . S
C1390 H1380 0.930 . S
C1390 C1388 1.419 . S
C1390 C1391 1.362 . S
C1391 H1381 0.930 . S
C1391 C1384 1.409 . S
C1391 C1390 1.362 . S
H1392 C1398 0.930 . S
H1393 C1401 0.930 . S
H1394 C1402 0.930 . S
H1395 C1403 0.930 . S
H1396 C1406 0.930 . S
H1397 C1407 0.930 . S
C1398 H1392 0.930 . S
C1398 C1399 1.355 . S
C1398 C1400 1.415 . S
C1399 C1398 1.355 . S
C1399 C1401 1.419 . S
C1400 C1398 1.415 . S
C1400 C1405 1.425 . S
C1400 C1407 1.409 . S
C1401 H1393 0.930 . S
C1401 C1399 1.419 . S
C1401 C1402 1.362 . S
C1402 H1394 0.930 . S
C1402 C1401 1.362 . S
C1402 C1405 1.409 . S
C1403 H1395 0.930 . S
C1403 C1404 1.355 . S
C1403 C1405 1.415 . S
C1404 C1403 1.355 . S
C1404 C1406 1.419 . S
C1405 C1400 1.425 . S
C1405 C1402 1.409 . S
C1405 C1403 1.415 . S
C1406 H1396 0.930 . S
C1406 C1404 1.419 . S
C1406 C1407 1.362 . S
C1407 H1397 0.930 . S
C1407 C1400 1.409 . S
C1407 C1406 1.362 . S
H1408 C1414 0.930 . S
H1409 C1417 0.930 . S
H1410 C1418 0.930 . S
H1411 C1419 0.930 1_556 S
H1412 C1422 0.930 . S
H1413 C1423 0.930 . S
C1414 H1408 0.930 . S
C1414 C1415 1.355 . S
C1414 C1416 1.415 . S
C1415 C1414 1.355 . S
C1415 C1417 1.419 1_554 S
C1416 C1414 1.415 . S
C1416 C1421 1.425 1_455 S
C1416 C1423 1.409 1_455 S
C1417 H1409 0.930 . S
C1417 C1415 1.419 1_556 S
C1417 C1418 1.362 . S
C1418 H1410 0.930 . S
C1418 C1417 1.362 . S
C1418 C1421 1.409 1_456 S
C1419 H1411 0.930 1_554 S
C1419 C1420 1.355 . S
C1419 C1421 1.415 . S
C1420 C1419 1.355 . S
C1420 C1422 1.419 . S
C1421 C1416 1.425 1_655 S
C1421 C1418 1.409 1_654 S
C1421 C1419 1.415 . S
C1422 H1412 0.930 . S
C1422 C1420 1.419 . S
C1422 C1423 1.362 . S
C1423 H1413 0.930 . S
C1423 C1416 1.409 1_655 S
C1423 C1422 1.362 . S
H1424 C1430 0.930 . S
H1425 C1433 0.930 . S
H1426 C1434 0.930 . S
H1427 C1435 0.930 . S
H1428 C1438 0.930 . S
H1429 C1439 0.930 . S
C1430 H1424 0.930 . S
C1430 C1431 1.355 . S
C1430 C1432 1.415 . S
C1431 C1430 1.355 . S
C1431 C1433 1.419 . S
C1432 C1430 1.415 . S
C1432 C1437 1.425 . S
C1432 C1439 1.409 . S
C1433 H1425 0.930 . S
C1433 C1431 1.419 . S
C1433 C1434 1.362 . S
C1434 H1426 0.930 . S
C1434 C1433 1.362 . S
C1434 C1437 1.409 . S
C1435 H1427 0.930 . S
C1435 C1436 1.355 . S
C1435 C1437 1.415 . S
C1436 C1435 1.355 . S
C1436 C1438 1.419 . S
C1437 C1432 1.425 . S
C1437 C1434 1.409 . S
C1437 C1435 1.415 . S
C1438 H1428 0.930 . S
C1438 C1436 1.419 . S
C1438 C1439 1.362 . S
C1439 H1429 0.930 . S
C1439 C1432 1.409 . S
C1439 C1438 1.362 . S
H1440 C1446 0.930 . S
H1441 C1449 0.930 . S
H1442 C1450 0.930 . S
H1443 C1451 0.930 . S
H1444 C1454 0.930 . S
H1445 C1455 0.930 . S
C1446 H1440 0.930 . S
C1446 C1447 1.355 . S
C1446 C1448 1.415 . S
C1447 C1446 1.355 . S
C1447 C1449 1.419 . S
C1448 C1446 1.415 . S
C1448 C1453 1.425 . S
C1448 C1455 1.409 . S
C1449 H1441 0.930 . S
C1449 C1447 1.419 . S
C1449 C1450 1.362 . S
C1450 H1442 0.930 . S
C1450 C1449 1.362 . S
C1450 C1453 1.409 . S
C1451 H1443 0.930 . S
C1451 C1452 1.355 . S
C1451 C1453 1.415 . S
C1452 C1451 1.355 . S
C1452 C1454 1.419 . S
C1453 C1448 1.425 . S
C1453 C1450 1.409 . S
C1453 C1451 1.415 . S
C1454 H1444 0.930 . S
C1454 C1452 1.419 . S
C1454 C1455 1.362 . S
C1455 H1445 0.930 . S
C1455 C1448 1.409 . S
C1455 C1454 1.362 . S
H1456 C1462 0.930 . S
H1457 C1465 0.930 . S
H1458 C1466 0.930 . S
H1459 C1467 0.930 . S
H1460 C1470 0.930 . S
H1461 C1471 0.930 . S
C1462 H1456 0.930 . S
C1462 C1463 1.355 . S
C1462 C1464 1.415 . S
C1463 C1462 1.355 . S
C1463 C1465 1.419 . S
C1464 C1462 1.415 . S
C1464 C1469 1.425 . S
C1464 C1471 1.409 . S
C1465 H1457 0.930 . S
C1465 C1463 1.419 . S
C1465 C1466 1.362 . S
C1466 H1458 0.930 . S
C1466 C1465 1.362 . S
C1466 C1469 1.409 . S
C1467 H1459 0.930 . S
C1467 C1468 1.355 . S
C1467 C1469 1.415 . S
C1468 C1467 1.355 . S
C1468 C1470 1.419 . S
C1469 C1464 1.425 . S
C1469 C1466 1.409 . S
C1469 C1467 1.415 . S
C1470 H1460 0.930 . S
C1470 C1468 1.419 . S
C1470 C1471 1.362 . S
C1471 H1461 0.930 . S
C1471 C1464 1.409 . S
C1471 C1470 1.362 . S
H1472 C1478 0.930 . S
H1473 C1481 0.930 . S
H1474 C1482 0.930 1_554 S
H1475 C1483 0.930 . S
H1476 C1486 0.930 . S
H1477 C1487 0.930 . S
C1478 H1472 0.930 . S
C1478 C1479 1.355 . S
C1478 C1480 1.415 . S
C1479 C1478 1.355 . S
C1479 C1481 1.419 . S
C1480 C1478 1.415 . S
C1480 C1485 1.425 1_655 S
C1480 C1487 1.409 1_655 S
C1481 H1473 0.930 . S
C1481 C1479 1.419 . S
C1481 C1482 1.362 . S
C1482 H1474 0.930 1_556 S
C1482 C1481 1.362 . S
C1482 C1485 1.409 1_655 S
C1483 H1475 0.930 . S
C1483 C1484 1.355 . S
C1483 C1485 1.415 . S
C1484 C1483 1.355 . S
C1484 C1486 1.419 . S
C1485 C1480 1.425 1_455 S
C1485 C1482 1.409 1_455 S
C1485 C1483 1.415 . S
C1486 H1476 0.930 . S
C1486 C1484 1.419 . S
C1486 C1487 1.362 . S
C1487 H1477 0.930 . S
C1487 C1480 1.409 1_455 S
C1487 C1486 1.362 . S
H1488 C1494 0.930 . S
H1489 C1497 0.930 . S
H1490 C1498 0.930 . S
H1491 C1499 0.930 . S
H1492 C1502 0.930 . S
H1493 C1503 0.930 . S
C1494 H1488 0.930 . S
C1494 C1495 1.355 . S
C1494 C1496 1.415 . S
C1495 C1494 1.355 . S
C1495 C1497 1.419 . S
C1496 C1494 1.415 . S
C1496 C1501 1.425 . S
C1496 C1503 1.409 . S
C1497 H1489 0.930 . S
C1497 C1495 1.419 . S
C1497 C1498 1.362 . S
C1498 H1490 0.930 . S
C1498 C1497 1.362 . S
C1498 C1501 1.409 . S
C1499 H1491 0.930 . S
C1499 C1500 1.355 . S
C1499 C1501 1.415 . S
C1500 C1499 1.355 . S
C1500 C1502 1.419 . S
C1501 C1496 1.425 . S
C1501 C1498 1.409 . S
C1501 C1499 1.415 . S
C1502 H1492 0.930 . S
C1502 C1500 1.419 . S
C1502 C1503 1.362 . S
C1503 H1493 0.930 . S
C1503 C1496 1.409 . S
C1503 C1502 1.362 . S
H1504 C1510 0.930 . S
H1505 C1513 0.930 . S
H1506 C1514 0.930 . S
H1507 C1515 0.930 . S
H1508 C1518 0.930 . S
H1509 C1519 0.930 . S
C1510 H1504 0.930 . S
C1510 C1511 1.355 . S
C1510 C1512 1.415 . S
C1511 C1510 1.355 . S
C1511 C1513 1.419 . S
C1512 C1510 1.415 . S
C1512 C1517 1.425 . S
C1512 C1519 1.409 . S
C1513 H1505 0.930 . S
C1513 C1511 1.419 . S
C1513 C1514 1.362 . S
C1514 H1506 0.930 . S
C1514 C1513 1.362 . S
C1514 C1517 1.409 . S
C1515 H1507 0.930 . S
C1515 C1516 1.355 . S
C1515 C1517 1.415 . S
C1516 C1515 1.355 . S
C1516 C1518 1.419 . S
C1517 C1512 1.425 . S
C1517 C1514 1.409 . S
C1517 C1515 1.415 . S
C1518 H1508 0.930 . S
C1518 C1516 1.419 . S
C1518 C1519 1.362 . S
C1519 H1509 0.930 . S
C1519 C1512 1.409 . S
C1519 C1518 1.362 . S
H1520 C1526 0.930 . S
H1521 C1529 0.930 . S
H1522 C1530 0.930 . S
H1523 C1531 0.930 . S
H1524 C1534 0.930 . S
H1525 C1535 0.930 . S
C1526 H1520 0.930 . S
C1526 C1527 1.355 . S
C1526 C1528 1.415 . S
C1527 C1526 1.355 . S
C1527 C1529 1.419 . S
C1528 C1526 1.415 . S
C1528 C1533 1.425 . S
C1528 C1535 1.409 . S
C1529 H1521 0.930 . S
C1529 C1527 1.419 . S
C1529 C1530 1.362 . S
C1530 H1522 0.930 . S
C1530 C1529 1.362 . S
C1530 C1533 1.409 . S
C1531 H1523 0.930 . S
C1531 C1532 1.355 . S
C1531 C1533 1.415 . S
C1532 C1531 1.355 . S
C1532 C1534 1.419 . S
C1533 C1528 1.425 . S
C1533 C1530 1.409 . S
C1533 C1531 1.415 . S
C1534 H1524 0.930 . S
C1534 C1532 1.419 . S
C1534 C1535 1.362 . S
C1535 H1525 0.930 . S
C1535 C1528 1.409 . S
C1535 C1534 1.362 . S
H1536 C1542 0.930 . S
H1537 C1545 0.930 . S
H1538 C1546 0.930 . S
H1539 C1547 0.930 . S
H1540 C1550 0.930 . S
H1541 C1551 0.930 . S
C1542 H1536 0.930 . S
C1542 C1543 1.355 . S
C1542 C1544 1.415 . S
C1543 C1542 1.355 . S
C1543 C1545 1.419 . S
C1544 C1542 1.415 . S
C1544 C1549 1.425 . S
C1544 C1551 1.409 . S
C1545 H1537 0.930 . S
C1545 C1543 1.419 . S
C1545 C1546 1.362 . S
C1546 H1538 0.930 . S
C1546 C1545 1.362 . S
C1546 C1549 1.409 . S
C1547 H1539 0.930 . S
C1547 C1548 1.355 . S
C1547 C1549 1.415 . S
C1548 C1547 1.355 . S
C1548 C1550 1.419 . S
C1549 C1544 1.425 . S
C1549 C1546 1.409 . S
C1549 C1547 1.415 . S
C1550 H1540 0.930 . S
C1550 C1548 1.419 . S
C1550 C1551 1.362 . S
C1551 H1541 0.930 . S
C1551 C1544 1.409 . S
C1551 C1550 1.362 . S
H1552 C1558 0.930 . S
H1553 C1561 0.930 . S
H1554 C1562 0.930 . S
H1555 C1563 0.930 . S
H1556 C1566 0.930 . S
H1557 C1567 0.930 . S
C1558 H1552 0.930 . S
C1558 C1559 1.355 . S
C1558 C1560 1.415 . S
C1559 C1558 1.355 . S
C1559 C1561 1.419 . S
C1560 C1558 1.415 . S
C1560 C1565 1.425 . S
C1560 C1567 1.409 . S
C1561 H1553 0.930 . S
C1561 C1559 1.419 . S
C1561 C1562 1.362 . S
C1562 H1554 0.930 . S
C1562 C1561 1.362 . S
C1562 C1565 1.409 . S
C1563 H1555 0.930 . S
C1563 C1564 1.355 . S
C1563 C1565 1.415 . S
C1564 C1563 1.355 . S
C1564 C1566 1.419 . S
C1565 C1560 1.425 . S
C1565 C1562 1.409 . S
C1565 C1563 1.415 . S
C1566 H1556 0.930 . S
C1566 C1564 1.419 . S
C1566 C1567 1.362 . S
C1567 H1557 0.930 . S
C1567 C1560 1.409 . S
C1567 C1566 1.362 . S
H1568 C1574 0.930 . S
H1569 C1577 0.930 . S
H1570 C1578 0.930 . S
H1571 C1579 0.930 . S
H1572 C1582 0.930 . S
H1573 C1583 0.930 . S
C1574 H1568 0.930 . S
C1574 C1575 1.355 . S
C1574 C1576 1.415 . S
C1575 C1574 1.355 . S
C1575 C1577 1.419 . S
C1576 C1574 1.415 . S
C1576 C1581 1.425 . S
C1576 C1583 1.409 . S
C1577 H1569 0.930 . S
C1577 C1575 1.419 . S
C1577 C1578 1.362 . S
C1578 H1570 0.930 . S
C1578 C1577 1.362 . S
C1578 C1581 1.409 . S
C1579 H1571 0.930 . S
C1579 C1580 1.355 . S
C1579 C1581 1.415 . S
C1580 C1579 1.355 . S
C1580 C1582 1.419 . S
C1581 C1576 1.425 . S
C1581 C1578 1.409 . S
C1581 C1579 1.415 . S
C1582 H1572 0.930 . S
C1582 C1580 1.419 . S
C1582 C1583 1.362 . S
C1583 H1573 0.930 . S
C1583 C1576 1.409 . S
C1583 C1582 1.362 . S
H1584 C1590 0.930 . S
H1585 C1593 0.930 . S
H1586 C1594 0.930 . S
H1587 C1595 0.930 . S
H1588 C1598 0.930 . S
H1589 C1599 0.930 . S
C1590 H1584 0.930 . S
C1590 C1591 1.355 . S
C1590 C1592 1.415 . S
C1591 C1590 1.355 . S
C1591 C1593 1.419 . S
C1592 C1590 1.415 . S
C1592 C1597 1.425 . S
C1592 C1599 1.409 . S
C1593 H1585 0.930 . S
C1593 C1591 1.419 . S
C1593 C1594 1.362 . S
C1594 H1586 0.930 . S
C1594 C1593 1.362 . S
C1594 C1597 1.409 . S
C1595 H1587 0.930 . S
C1595 C1596 1.355 . S
C1595 C1597 1.415 . S
C1596 C1595 1.355 . S
C1596 C1598 1.419 . S
C1597 C1592 1.425 . S
C1597 C1594 1.409 . S
C1597 C1595 1.415 . S
C1598 H1588 0.930 . S
C1598 C1596 1.419 . S
C1598 C1599 1.362 . S
C1599 H1589 0.930 . S
C1599 C1592 1.409 . S
C1599 C1598 1.362 . S
H1600 C1606 0.930 . S
H1601 C1609 0.930 . S
H1602 C1610 0.930 . S
H1603 C1611 0.930 . S
H1604 C1614 0.930 . S
H1605 C1615 0.930 . S
C1606 H1600 0.930 . S
C1606 C1607 1.355 . S
C1606 C1608 1.415 . S
C1607 C1606 1.355 . S
C1607 C1609 1.419 . S
C1608 C1606 1.415 . S
C1608 C1613 1.425 . S
C1608 C1615 1.409 . S
C1609 H1601 0.930 . S
C1609 C1607 1.419 . S
C1609 C1610 1.362 . S
C1610 H1602 0.930 . S
C1610 C1609 1.362 . S
C1610 C1613 1.409 . S
C1611 H1603 0.930 . S
C1611 C1612 1.355 . S
C1611 C1613 1.415 . S
C1612 C1611 1.355 . S
C1612 C1614 1.419 . S
C1613 C1608 1.425 . S
C1613 C1610 1.409 . S
C1613 C1611 1.415 . S
C1614 H1604 0.930 . S
C1614 C1612 1.419 . S
C1614 C1615 1.362 . S
C1615 H1605 0.930 . S
C1615 C1608 1.409 . S
C1615 C1614 1.362 . S
H1616 C1622 0.925 . S
H1617 C1625 0.930 . S
H1618 C1626 0.930 . S
H1619 C1627 0.930 . S
H1620 C1630 0.930 1_556 S
H1621 C1631 0.930 1_556 S
C1622 H1616 0.925 . S
C1622 C1623 1.355 . S
C1622 C1624 1.415 . S
C1623 C1622 1.355 . S
C1623 C1625 1.419 . S
C1624 C1622 1.415 . S
C1624 C1629 1.425 1_655 S
C1624 C1631 1.409 1_655 S
C1625 H1617 0.930 . S
C1625 C1623 1.419 . S
C1625 C1626 1.362 . S
C1626 H1618 0.930 . S
C1626 C1625 1.362 . S
C1626 C1629 1.409 1_655 S
C1627 H1619 0.930 . S
C1627 C1628 1.355 . S
C1627 C1629 1.415 . S
C1628 C1627 1.355 . S
C1628 C1630 1.419 . S
C1629 C1624 1.425 1_455 S
C1629 C1626 1.409 1_455 S
C1629 C1627 1.415 . S
C1630 H1620 0.930 1_554 S
C1630 C1628 1.419 . S
C1630 C1631 1.362 . S
C1631 H1621 0.930 1_554 S
C1631 C1624 1.409 1_455 S
C1631 C1630 1.362 . S
H1632 C1638 0.930 . S
H1633 C1641 0.930 . S
H1634 C1642 0.930 . S
H1635 C1643 0.930 . S
H1636 C1646 0.930 . S
H1637 C1647 0.930 . S
C1638 H1632 0.930 . S
C1638 C1639 1.355 . S
C1638 C1640 1.415 . S
C1639 C1638 1.355 . S
C1639 C1641 1.419 . S
C1640 C1638 1.415 . S
C1640 C1645 1.425 . S
C1640 C1647 1.409 . S
C1641 H1633 0.930 . S
C1641 C1639 1.419 . S
C1641 C1642 1.362 . S
C1642 H1634 0.930 . S
C1642 C1641 1.362 . S
C1642 C1645 1.409 . S
C1643 H1635 0.930 . S
C1643 C1644 1.355 . S
C1643 C1645 1.415 . S
C1644 C1643 1.355 . S
C1644 C1646 1.419 . S
C1645 C1640 1.425 . S
C1645 C1642 1.409 . S
C1645 C1643 1.415 . S
C1646 H1636 0.930 . S
C1646 C1644 1.419 . S
C1646 C1647 1.362 . S
C1647 H1637 0.930 . S
C1647 C1640 1.409 . S
C1647 C1646 1.362 . S
H1648 C1654 0.930 . S
H1649 C1657 0.930 1_554 S
H1650 C1658 0.930 . S
H1651 C1659 0.930 1_554 S
H1652 C1662 0.930 . S
H1653 C1663 0.930 . S
C1654 H1648 0.930 . S
C1654 C1655 1.355 . S
C1654 C1656 1.415 . S
C1655 C1654 1.355 . S
C1655 C1657 1.419 . S
C1656 C1654 1.415 . S
C1656 C1661 1.425 1_455 S
C1656 C1663 1.409 1_455 S
C1657 H1649 0.930 1_556 S
C1657 C1655 1.419 . S
C1657 C1658 1.362 1_556 S
C1658 H1650 0.930 . S
C1658 C1657 1.362 1_554 S
C1658 C1661 1.409 1_454 S
C1659 H1651 0.930 1_556 S
C1659 C1660 1.355 . S
C1659 C1661 1.415 . S
C1660 C1659 1.355 . S
C1660 C1662 1.419 . S
C1661 C1656 1.425 1_655 S
C1661 C1658 1.409 1_656 S
C1661 C1659 1.415 . S
C1662 H1652 0.930 . S
C1662 C1660 1.419 . S
C1662 C1663 1.362 . S
C1663 H1653 0.930 . S
C1663 C1656 1.409 1_655 S
C1663 C1662 1.362 . S
H1664 C1670 0.930 . S
H1665 C1673 0.930 . S
H1666 C1674 0.930 . S
H1667 C1675 0.930 . S
H1668 C1678 0.930 . S
H1669 C1679 0.930 . S
C1670 H1664 0.930 . S
C1670 C1671 1.355 1_554 S
C1670 C1672 1.415 . S
C1671 C1670 1.355 1_556 S
C1671 C1673 1.419 . S
C1672 C1670 1.415 . S
C1672 C1677 1.425 1_554 S
C1672 C1679 1.409 . S
C1673 H1665 0.930 . S
C1673 C1671 1.419 . S
C1673 C1674 1.362 . S
C1674 H1666 0.930 . S
C1674 C1673 1.362 . S
C1674 C1677 1.409 . S
C1675 H1667 0.930 . S
C1675 C1676 1.355 1_556 S
C1675 C1677 1.415 . S
C1676 C1675 1.355 1_554 S
C1676 C1678 1.419 . S
C1677 C1672 1.425 1_556 S
C1677 C1674 1.409 . S
C1677 C1675 1.415 . S
C1678 H1668 0.930 . S
C1678 C1676 1.419 . S
C1678 C1679 1.362 . S
C1679 H1669 0.930 . S
C1679 C1672 1.409 . S
C1679 C1678 1.362 . S
H1680 C1686 0.930 . S
H1681 C1689 0.930 . S
H1682 C1690 0.930 . S
H1683 C1691 0.930 . S
H1684 C1694 0.930 . S
H1685 C1695 0.930 . S
C1686 H1680 0.930 . S
C1686 C1687 1.355 . S
C1686 C1688 1.415 . S
C1687 C1686 1.355 . S
C1687 C1689 1.419 . S
C1688 C1686 1.415 . S
C1688 C1693 1.425 . S
C1688 C1695 1.409 . S
C1689 H1681 0.930 . S
C1689 C1687 1.419 . S
C1689 C1690 1.362 . S
C1690 H1682 0.930 . S
C1690 C1689 1.362 . S
C1690 C1693 1.409 . S
C1691 H1683 0.930 . S
C1691 C1692 1.355 . S
C1691 C1693 1.415 . S
C1692 C1691 1.355 . S
C1692 C1694 1.419 . S
C1693 C1688 1.425 . S
C1693 C1690 1.409 . S
C1693 C1691 1.415 . S
C1694 H1684 0.930 . S
C1694 C1692 1.419 . S
C1694 C1695 1.362 . S
C1695 H1685 0.930 . S
C1695 C1688 1.409 . S
C1695 C1694 1.362 . S
H1696 C1702 0.930 . S
H1697 C1705 0.930 . S
H1698 C1706 0.930 . S
H1699 C1707 0.930 . S
H1700 C1710 0.930 . S
H1701 C1711 0.930 . S
C1702 H1696 0.930 . S
C1702 C1703 1.355 . S
C1702 C1704 1.415 . S
C1703 C1702 1.355 . S
C1703 C1705 1.419 . S
C1704 C1702 1.415 . S
C1704 C1709 1.425 . S
C1704 C1711 1.409 . S
C1705 H1697 0.930 . S
C1705 C1703 1.419 . S
C1705 C1706 1.362 . S
C1706 H1698 0.930 . S
C1706 C1705 1.362 . S
C1706 C1709 1.409 . S
C1707 H1699 0.930 . S
C1707 C1708 1.355 . S
C1707 C1709 1.415 . S
C1708 C1707 1.355 . S
C1708 C1710 1.419 . S
C1709 C1704 1.425 . S
C1709 C1706 1.409 . S
C1709 C1707 1.415 . S
C1710 H1700 0.930 . S
C1710 C1708 1.419 . S
C1710 C1711 1.362 . S
C1711 H1701 0.930 . S
C1711 C1704 1.409 . S
C1711 C1710 1.362 . S
H1712 C1718 0.930 . S
H1713 C1721 0.930 . S
H1714 C1722 0.930 . S
H1715 C1723 0.930 . S
H1716 C1726 0.930 . S
H1717 C1727 0.930 . S
C1718 H1712 0.930 . S
C1718 C1719 1.355 . S
C1718 C1720 1.415 . S
C1719 C1718 1.355 . S
C1719 C1721 1.419 . S
C1720 C1718 1.415 . S
C1720 C1725 1.425 . S
C1720 C1727 1.409 . S
C1721 H1713 0.930 . S
C1721 C1719 1.419 . S
C1721 C1722 1.362 . S
C1722 H1714 0.930 . S
C1722 C1721 1.362 . S
C1722 C1725 1.409 . S
C1723 H1715 0.930 . S
C1723 C1724 1.355 . S
C1723 C1725 1.415 . S
C1724 C1723 1.355 . S
C1724 C1726 1.419 . S
C1725 C1720 1.425 . S
C1725 C1722 1.409 . S
C1725 C1723 1.415 . S
C1726 H1716 0.930 . S
C1726 C1724 1.419 . S
C1726 C1727 1.362 . S
C1727 H1717 0.930 . S
C1727 C1720 1.409 . S
C1727 C1726 1.362 . S
H1728 C1734 0.930 . S
H1729 C1737 0.930 . S
H1730 C1738 0.930 . S
H1731 C1739 0.930 . S
H1732 C1742 0.930 . S
H1733 C1743 0.930 . S
C1734 H1728 0.930 . S
C1734 C1735 1.355 . S
C1734 C1736 1.415 . S
C1735 C1734 1.355 . S
C1735 C1737 1.431 . S
C1736 C1734 1.415 . S
C1736 C1741 1.425 1_554 S
C1736 C1743 1.409 . S
C1737 H1729 0.930 . S
C1737 C1735 1.431 . S
C1737 C1738 1.353 1_554 S
C1738 H1730 0.930 . S
C1738 C1737 1.353 1_556 S
C1738 C1741 1.409 . S
C1739 H1731 0.930 . S
C1739 C1740 1.355 . S
C1739 C1741 1.415 . S
C1740 C1739 1.355 . S
C1740 C1742 1.431 . S
C1741 C1736 1.425 1_556 S
C1741 C1738 1.409 . S
C1741 C1739 1.415 . S
C1742 H1732 0.930 . S
C1742 C1740 1.431 . S
C1742 C1743 1.353 1_556 S
C1743 H1733 0.930 . S
C1743 C1736 1.409 . S
C1743 C1742 1.353 1_554 S
H1744 C1750 0.930 . S
H1745 C1753 0.930 . S
H1746 C1754 0.930 . S
H1747 C1755 0.930 . S
H1748 C1758 0.930 . S
H1749 C1759 0.930 . S
C1750 H1744 0.930 . S
C1750 C1751 1.355 . S
C1750 C1752 1.415 . S
C1751 C1750 1.355 . S
C1751 C1753 1.419 . S
C1752 C1750 1.415 . S
C1752 C1757 1.425 . S
C1752 C1759 1.409 . S
C1753 H1745 0.930 . S
C1753 C1751 1.419 . S
C1753 C1754 1.362 . S
C1754 H1746 0.930 . S
C1754 C1753 1.362 . S
C1754 C1757 1.409 . S
C1755 H1747 0.930 . S
C1755 C1756 1.355 . S
C1755 C1757 1.415 . S
C1756 C1755 1.355 . S
C1756 C1758 1.419 . S
C1757 C1752 1.425 . S
C1757 C1754 1.409 . S
C1757 C1755 1.415 . S
C1758 H1748 0.930 . S
C1758 C1756 1.419 . S
C1758 C1759 1.362 . S
C1759 H1749 0.930 . S
C1759 C1752 1.409 . S
C1759 C1758 1.362 . S
H1760 C1766 0.930 . S
H1761 C1769 0.930 . S
H1762 C1770 0.930 . S
H1763 C1771 0.930 . S
H1764 C1774 0.930 . S
H1765 C1775 0.930 . S
C1766 H1760 0.930 . S
C1766 C1767 1.355 . S
C1766 C1768 1.415 . S
C1767 C1766 1.355 . S
C1767 C1769 1.419 . S
C1768 C1766 1.415 . S
C1768 C1773 1.425 . S
C1768 C1775 1.409 . S
C1769 H1761 0.930 . S
C1769 C1767 1.419 . S
C1769 C1770 1.362 . S
C1770 H1762 0.930 . S
C1770 C1769 1.362 . S
C1770 C1773 1.409 . S
C1771 H1763 0.930 . S
C1771 C1772 1.355 . S
C1771 C1773 1.415 . S
C1772 C1771 1.355 . S
C1772 C1774 1.419 . S
C1773 C1768 1.425 . S
C1773 C1770 1.409 . S
C1773 C1771 1.415 . S
C1774 H1764 0.930 . S
C1774 C1772 1.419 . S
C1774 C1775 1.362 . S
C1775 H1765 0.930 . S
C1775 C1768 1.409 . S
C1775 C1774 1.362 . S
H1776 C1782 0.930 . S
H1777 C1785 0.930 . S
H1778 C1786 0.930 . S
H1779 C1787 0.930 . S
H1780 C1790 0.930 . S
H1781 C1791 0.930 . S
C1782 H1776 0.930 . S
C1782 C1783 1.355 . S
C1782 C1784 1.415 . S
C1783 C1782 1.355 . S
C1783 C1785 1.419 . S
C1784 C1782 1.415 . S
C1784 C1789 1.425 . S
C1784 C1791 1.409 . S
C1785 H1777 0.930 . S
C1785 C1783 1.419 . S
C1785 C1786 1.362 . S
C1786 H1778 0.930 . S
C1786 C1785 1.362 . S
C1786 C1789 1.409 . S
C1787 H1779 0.930 . S
C1787 C1788 1.355 . S
C1787 C1789 1.415 . S
C1788 C1787 1.355 . S
C1788 C1790 1.419 . S
C1789 C1784 1.425 . S
C1789 C1786 1.409 . S
C1789 C1787 1.415 . S
C1790 H1780 0.930 . S
C1790 C1788 1.419 . S
C1790 C1791 1.362 . S
C1791 H1781 0.930 . S
C1791 C1784 1.409 . S
C1791 C1790 1.362 . S
H1792 C1798 0.930 . S
H1793 C1801 0.930 . S
H1794 C1802 0.930 . S
H1795 C1803 0.930 . S
H1796 C1806 0.930 . S
H1797 C1807 0.930 . S
C1798 H1792 0.930 . S
C1798 C1799 1.355 . S
C1798 C1800 1.415 . S
C1799 C1798 1.355 . S
C1799 C1801 1.419 . S
C1800 C1798 1.415 . S
C1800 C1805 1.425 1_545 S
C1800 C1807 1.409 1_545 S
C1801 H1793 0.930 . S
C1801 C1799 1.419 . S
C1801 C1802 1.362 . S
C1802 H1794 0.930 . S
C1802 C1801 1.362 . S
C1802 C1805 1.409 1_545 S
C1803 H1795 0.930 . S
C1803 C1804 1.355 . S
C1803 C1805 1.415 . S
C1804 C1803 1.355 . S
C1804 C1806 1.419 . S
C1805 C1800 1.425 1_565 S
C1805 C1802 1.409 1_565 S
C1805 C1803 1.415 . S
C1806 H1796 0.930 . S
C1806 C1804 1.419 . S
C1806 C1807 1.362 . S
C1807 H1797 0.930 . S
C1807 C1800 1.409 1_565 S
C1807 C1806 1.362 . S
H1808 C1814 0.930 . S
H1809 C1817 0.930 . S
H1810 C1818 0.930 . S
H1811 C1819 0.930 . S
H1812 C1822 0.930 . S
H1813 C1823 0.930 . S
C1814 H1808 0.930 . S
C1814 C1815 1.355 . S
C1814 C1816 1.415 . S
C1815 C1814 1.355 . S
C1815 C1817 1.419 . S
C1816 C1814 1.415 . S
C1816 C1821 1.425 . S
C1816 C1823 1.409 . S
C1817 H1809 0.930 . S
C1817 C1815 1.419 . S
C1817 C1818 1.362 . S
C1818 H1810 0.930 . S
C1818 C1817 1.362 . S
C1818 C1821 1.409 . S
C1819 H1811 0.930 . S
C1819 C1820 1.355 . S
C1819 C1821 1.415 . S
C1820 C1819 1.355 . S
C1820 C1822 1.419 . S
C1821 C1816 1.425 . S
C1821 C1818 1.409 . S
C1821 C1819 1.415 . S
C1822 H1812 0.930 . S
C1822 C1820 1.419 . S
C1822 C1823 1.362 . S
C1823 H1813 0.930 . S
C1823 C1816 1.409 . S
C1823 C1822 1.362 . S
H1824 C1830 0.930 . S
H1825 C1833 0.930 . S
H1826 C1834 0.930 . S
H1827 C1835 0.930 . S
H1828 C1838 0.930 . S
H1829 C1839 0.930 . S
C1830 H1824 0.930 . S
C1830 C1831 1.355 . S
C1830 C1832 1.414 1_554 S
C1831 C1830 1.355 . S
C1831 C1833 1.419 . S
C1832 C1830 1.414 1_556 S
C1832 C1837 1.425 1_566 S
C1832 C1839 1.410 1_565 S
C1833 H1825 0.930 . S
C1833 C1831 1.419 . S
C1833 C1834 1.362 . S
C1834 H1826 0.930 . S
C1834 C1833 1.362 . S
C1834 C1837 1.410 1_565 S
C1835 H1827 0.930 . S
C1835 C1836 1.355 . S
C1835 C1837 1.414 1_556 S
C1836 C1835 1.355 . S
C1836 C1838 1.419 . S
C1837 C1832 1.425 1_544 S
C1837 C1834 1.410 1_545 S
C1837 C1835 1.414 1_554 S
C1838 H1828 0.930 . S
C1838 C1836 1.419 . S
C1838 C1839 1.362 . S
C1839 H1829 0.930 . S
C1839 C1832 1.410 1_545 S
C1839 C1838 1.362 . S
H1840 C1846 0.930 . S
H1841 C1849 0.930 . S
H1842 C1850 0.930 . S
H1843 C1851 0.930 . S
H1844 C1854 0.930 . S
H1845 C1855 0.930 . S
C1846 H1840 0.930 . S
C1846 C1847 1.355 . S
C1846 C1848 1.415 . S
C1847 C1846 1.355 . S
C1847 C1849 1.419 . S
C1848 C1846 1.415 . S
C1848 C1853 1.425 . S
C1848 C1855 1.409 . S
C1849 H1841 0.930 . S
C1849 C1847 1.419 . S
C1849 C1850 1.362 . S
C1850 H1842 0.930 . S
C1850 C1849 1.362 . S
C1850 C1853 1.409 . S
C1851 H1843 0.930 . S
C1851 C1852 1.355 . S
C1851 C1853 1.415 . S
C1852 C1851 1.355 . S
C1852 C1854 1.419 . S
C1853 C1848 1.425 . S
C1853 C1850 1.409 . S
C1853 C1851 1.415 . S
C1854 H1844 0.930 . S
C1854 C1852 1.419 . S
C1854 C1855 1.362 . S
C1855 H1845 0.930 . S
C1855 C1848 1.409 . S
C1855 C1854 1.362 . S
H1856 C1862 0.930 . S
H1857 C1865 0.930 . S
H1858 C1866 0.930 . S
H1859 C1867 0.930 . S
H1860 C1870 0.930 . S
H1861 C1871 0.930 . S
C1862 H1856 0.930 . S
C1862 C1863 1.355 . S
C1862 C1864 1.415 . S
C1863 C1862 1.355 . S
C1863 C1865 1.419 . S
C1864 C1862 1.415 . S
C1864 C1869 1.425 1_545 S
C1864 C1871 1.409 1_545 S
C1865 H1857 0.930 . S
C1865 C1863 1.419 . S
C1865 C1866 1.362 . S
C1866 H1858 0.930 . S
C1866 C1865 1.362 . S
C1866 C1869 1.409 1_545 S
C1867 H1859 0.930 . S
C1867 C1868 1.355 . S
C1867 C1869 1.415 . S
C1868 C1867 1.355 . S
C1868 C1870 1.419 . S
C1869 C1864 1.425 1_565 S
C1869 C1866 1.409 1_565 S
C1869 C1867 1.415 . S
C1870 H1860 0.930 . S
C1870 C1868 1.419 . S
C1870 C1871 1.362 . S
C1871 H1861 0.930 . S
C1871 C1864 1.409 1_565 S
C1871 C1870 1.362 . S
H1872 C1878 0.930 . S
H1873 C1881 0.930 . S
H1874 C1882 0.930 . S
H1875 C1883 0.930 . S
H1876 C1886 0.930 . S
H1877 C1887 0.930 . S
C1878 H1872 0.930 . S
C1878 C1879 1.355 . S
C1878 C1880 1.415 . S
C1879 C1878 1.355 . S
C1879 C1881 1.419 . S
C1880 C1878 1.415 . S
C1880 C1885 1.425 . S
C1880 C1887 1.409 . S
C1881 H1873 0.930 . S
C1881 C1879 1.419 . S
C1881 C1882 1.362 . S
C1882 H1874 0.930 . S
C1882 C1881 1.362 . S
C1882 C1885 1.409 . S
C1883 H1875 0.930 . S
C1883 C1884 1.355 . S
C1883 C1885 1.415 . S
C1884 C1883 1.355 . S
C1884 C1886 1.419 . S
C1885 C1880 1.425 . S
C1885 C1882 1.409 . S
C1885 C1883 1.415 . S
C1886 H1876 0.930 . S
C1886 C1884 1.419 . S
C1886 C1887 1.362 . S
C1887 H1877 0.930 . S
C1887 C1880 1.409 . S
C1887 C1886 1.362 . S
H1888 C1894 0.930 . S
H1889 C1897 0.930 . S
H1890 C1898 0.930 . S
H1891 C1899 0.930 . S
H1892 C1902 0.930 . S
H1893 C1903 0.930 . S
C1894 H1888 0.930 . S
C1894 C1895 1.355 . S
C1894 C1896 1.415 1_554 S
C1895 C1894 1.355 . S
C1895 C1897 1.419 . S
C1896 C1894 1.415 1_556 S
C1896 C1901 1.425 1_566 S
C1896 C1903 1.409 1_565 S
C1897 H1889 0.930 . S
C1897 C1895 1.419 . S
C1897 C1898 1.362 . S
C1898 H1890 0.930 . S
C1898 C1897 1.362 . S
C1898 C1901 1.409 1_565 S
C1899 H1891 0.930 . S
C1899 C1900 1.355 . S
C1899 C1901 1.415 1_556 S
C1900 C1899 1.355 . S
C1900 C1902 1.419 . S
C1901 C1896 1.425 1_544 S
C1901 C1898 1.409 1_545 S
C1901 C1899 1.415 1_554 S
C1902 H1892 0.930 . S
C1902 C1900 1.419 . S
C1902 C1903 1.362 . S
C1903 H1893 0.930 . S
C1903 C1896 1.409 1_545 S
C1903 C1902 1.362 . S
H1904 C1910 0.930 . S
H1905 C1913 0.930 . S
H1906 C1914 0.930 . S
H1907 C1915 0.930 . S
H1908 C1918 0.930 . S
H1909 C1919 0.930 . S
C1910 H1904 0.930 . S
C1910 C1911 1.355 . S
C1910 C1912 1.415 . S
C1911 C1910 1.355 . S
C1911 C1913 1.419 . S
C1912 C1910 1.415 . S
C1912 C1917 1.425 . S
C1912 C1919 1.409 . S
C1913 H1905 0.930 . S
C1913 C1911 1.419 . S
C1913 C1914 1.362 . S
C1914 H1906 0.930 . S
C1914 C1913 1.362 . S
C1914 C1917 1.409 . S
C1915 H1907 0.930 . S
C1915 C1916 1.355 . S
C1915 C1917 1.415 . S
C1916 C1915 1.355 . S
C1916 C1918 1.419 . S
C1917 C1912 1.425 . S
C1917 C1914 1.409 . S
C1917 C1915 1.415 . S
C1918 H1908 0.930 . S
C1918 C1916 1.419 . S
C1918 C1919 1.362 . S
C1919 H1909 0.930 . S
C1919 C1912 1.409 . S
C1919 C1918 1.362 . S
H1920 C1926 0.930 . S
H1921 C1929 0.930 . S
H1922 C1930 0.930 . S
H1923 C1931 0.930 . S
H1924 C1934 0.930 . S
H1925 C1935 0.930 . S
C1926 H1920 0.930 . S
C1926 C1927 1.355 . S
C1926 C1928 1.415 . S
C1927 C1926 1.355 . S
C1927 C1929 1.419 . S
C1928 C1926 1.415 . S
C1928 C1933 1.425 . S
C1928 C1935 1.409 . S
C1929 H1921 0.930 . S
C1929 C1927 1.419 . S
C1929 C1930 1.362 . S
C1930 H1922 0.930 . S
C1930 C1929 1.362 . S
C1930 C1933 1.409 . S
C1931 H1923 0.930 . S
C1931 C1932 1.355 . S
C1931 C1933 1.415 . S
C1932 C1931 1.355 . S
C1932 C1934 1.419 . S
C1933 C1928 1.425 . S
C1933 C1930 1.409 . S
C1933 C1931 1.415 . S
C1934 H1924 0.930 . S
C1934 C1932 1.419 . S
C1934 C1935 1.362 . S
C1935 H1925 0.930 . S
C1935 C1928 1.409 . S
C1935 C1934 1.362 . S
H1936 C1942 0.930 . S
H1937 C1945 0.930 . S
H1938 C1946 0.930 . S
H1939 C1947 0.930 . S
H1940 C1950 0.930 . S
H1941 C1951 0.930 . S
C1942 H1936 0.930 . S
C1942 C1943 1.355 . S
C1942 C1944 1.415 . S
C1943 C1942 1.355 . S
C1943 C1945 1.419 . S
C1944 C1942 1.415 . S
C1944 C1949 1.425 . S
C1944 C1951 1.409 . S
C1945 H1937 0.930 . S
C1945 C1943 1.419 . S
C1945 C1946 1.362 . S
C1946 H1938 0.930 . S
C1946 C1945 1.362 . S
C1946 C1949 1.409 . S
C1947 H1939 0.930 . S
C1947 C1948 1.355 . S
C1947 C1949 1.415 . S
C1948 C1947 1.355 . S
C1948 C1950 1.419 . S
C1949 C1944 1.425 . S
C1949 C1946 1.409 . S
C1949 C1947 1.415 . S
C1950 H1940 0.930 . S
C1950 C1948 1.419 . S
C1950 C1951 1.362 . S
C1951 H1941 0.930 . S
C1951 C1944 1.409 . S
C1951 C1950 1.362 . S
H1952 C1958 0.930 . S
H1953 C1961 0.930 . S
H1954 C1962 0.930 . S
H1955 C1963 0.930 . S
H1956 C1966 0.930 . S
H1957 C1967 0.930 . S
C1958 H1952 0.930 . S
C1958 C1959 1.355 . S
C1958 C1960 1.415 . S
C1959 C1958 1.355 . S
C1959 C1961 1.419 . S
C1960 C1958 1.415 . S
C1960 C1965 1.425 . S
C1960 C1967 1.409 . S
C1961 H1953 0.930 . S
C1961 C1959 1.419 . S
C1961 C1962 1.362 . S
C1962 H1954 0.930 . S
C1962 C1961 1.362 . S
C1962 C1965 1.409 . S
C1963 H1955 0.930 . S
C1963 C1964 1.355 . S
C1963 C1965 1.415 . S
C1964 C1963 1.355 . S
C1964 C1966 1.419 . S
C1965 C1960 1.425 . S
C1965 C1962 1.409 . S
C1965 C1963 1.415 . S
C1966 H1956 0.930 . S
C1966 C1964 1.419 . S
C1966 C1967 1.362 . S
C1967 H1957 0.930 . S
C1967 C1960 1.409 . S
C1967 C1966 1.362 . S
H1968 C1974 0.930 . S
H1969 C1977 0.930 . S
H1970 C1978 0.930 . S
H1971 C1979 0.930 . S
H1972 C1982 0.930 . S
H1973 C1983 0.930 . S
C1974 H1968 0.930 . S
C1974 C1975 1.355 . S
C1974 C1976 1.415 . S
C1975 C1974 1.355 . S
C1975 C1977 1.419 . S
C1976 C1974 1.415 . S
C1976 C1981 1.425 1_655 S
C1976 C1983 1.409 1_655 S
C1977 H1969 0.930 . S
C1977 C1975 1.419 . S
C1977 C1978 1.362 . S
C1978 H1970 0.930 . S
C1978 C1977 1.362 . S
C1978 C1981 1.409 1_655 S
C1979 H1971 0.930 . S
C1979 C1980 1.355 . S
C1979 C1981 1.415 . S
C1980 C1979 1.355 . S
C1980 C1982 1.419 . S
C1981 C1976 1.425 1_455 S
C1981 C1978 1.409 1_455 S
C1981 C1979 1.415 . S
C1982 H1972 0.930 . S
C1982 C1980 1.419 . S
C1982 C1983 1.362 . S
C1983 H1973 0.930 . S
C1983 C1976 1.409 1_455 S
C1983 C1982 1.362 . S
H1984 C1990 0.930 . S
H1985 C1993 0.930 . S
H1986 C1994 0.930 . S
H1987 C1995 0.930 . S
H1988 C1998 0.954 . S
H1989 C1999 0.930 1_554 S
C1990 H1984 0.930 . S
C1990 C1991 1.355 . S
C1990 C1992 1.415 . S
C1991 C1990 1.355 . S
C1991 C1993 1.419 . S
C1992 C1990 1.415 . S
C1992 C1997 1.425 . S
C1992 C1999 1.409 . S
C1993 H1985 0.930 . S
C1993 C1991 1.419 . S
C1993 C1994 1.362 . S
C1994 H1986 0.930 . S
C1994 C1993 1.362 . S
C1994 C1997 1.409 . S
C1995 H1987 0.930 . S
C1995 C1996 1.355 . S
C1995 C1997 1.415 . S
C1996 C1995 1.355 . S
C1996 C1998 1.419 . S
C1997 C1992 1.425 . S
C1997 C1994 1.409 . S
C1997 C1995 1.415 . S
C1998 H1988 0.954 . S
C1998 C1996 1.419 . S
C1998 C1999 1.362 . S
C1999 H1989 0.930 1_556 S
C1999 C1992 1.409 . S
C1999 C1998 1.362 . S
H2000 C2006 0.930 . S
H2001 C2009 0.930 . S
H2002 C2010 0.930 . S
H2003 C2011 0.930 . S
H2004 C2014 0.930 . S
H2005 C2015 0.930 . S
C2006 H2000 0.930 . S
C2006 C2007 1.355 . S
C2006 C2008 1.415 . S
C2007 C2006 1.355 . S
C2007 C2009 1.419 . S
C2008 C2006 1.415 . S
C2008 C2013 1.425 1_655 S
C2008 C2015 1.409 1_655 S
C2009 H2001 0.930 . S
C2009 C2007 1.419 . S
C2009 C2010 1.362 . S
C2010 H2002 0.930 . S
C2010 C2009 1.362 . S
C2010 C2013 1.409 1_655 S
C2011 H2003 0.930 . S
C2011 C2012 1.355 . S
C2011 C2013 1.415 . S
C2012 C2011 1.355 . S
C2012 C2014 1.419 . S
C2013 C2008 1.425 1_455 S
C2013 C2010 1.409 1_455 S
C2013 C2011 1.415 . S
C2014 H2004 0.930 . S
C2014 C2012 1.419 . S
C2014 C2015 1.362 . S
C2015 H2005 0.930 . S
C2015 C2008 1.409 1_455 S
C2015 C2014 1.362 . S
H2016 C2022 0.930 . S
H2017 C2025 0.930 . S
H2018 C2026 0.930 . S
H2019 C2027 0.930 . S
H2020 C2030 0.930 . S
H2021 C2031 0.930 . S
C2022 H2016 0.930 . S
C2022 C2023 1.355 . S
C2022 C2024 1.415 . S
C2023 C2022 1.355 . S
C2023 C2025 1.419 . S
C2024 C2022 1.415 . S
C2024 C2029 1.425 . S
C2024 C2031 1.409 . S
C2025 H2017 0.930 . S
C2025 C2023 1.419 . S
C2025 C2026 1.362 . S
C2026 H2018 0.930 . S
C2026 C2025 1.362 . S
C2026 C2029 1.409 . S
C2027 H2019 0.930 . S
C2027 C2028 1.355 . S
C2027 C2029 1.415 . S
C2028 C2027 1.355 . S
C2028 C2030 1.419 . S
C2029 C2024 1.425 . S
C2029 C2026 1.409 . S
C2029 C2027 1.415 . S
C2030 H2020 0.930 . S
C2030 C2028 1.419 . S
C2030 C2031 1.362 . S
C2031 H2021 0.930 . S
C2031 C2024 1.409 . S
C2031 C2030 1.362 . S
H2032 C2038 0.930 . S
H2033 C2041 0.930 . S
H2034 C2042 0.930 . S
H2035 C2043 0.930 . S
H2036 C2046 0.930 . S
H2037 C2047 0.930 . S
C2038 H2032 0.930 . S
C2038 C2039 1.355 . S
C2038 C2040 1.415 . S
C2039 C2038 1.355 . S
C2039 C2041 1.419 . S
C2040 C2038 1.415 . S
C2040 C2045 1.425 . S
C2040 C2047 1.409 . S
C2041 H2033 0.930 . S
C2041 C2039 1.419 . S
C2041 C2042 1.362 . S
C2042 H2034 0.930 . S
C2042 C2041 1.362 . S
C2042 C2045 1.409 . S
C2043 H2035 0.930 . S
C2043 C2044 1.355 . S
C2043 C2045 1.415 . S
C2044 C2043 1.355 . S
C2044 C2046 1.419 . S
C2045 C2040 1.425 . S
C2045 C2042 1.409 . S
C2045 C2043 1.415 . S
C2046 H2036 0.930 . S
C2046 C2044 1.419 . S
C2046 C2047 1.362 . S
C2047 H2037 0.930 . S
C2047 C2040 1.409 . S
C2047 C2046 1.362 . S
H2048 C2054 0.930 . S
H2049 C2057 0.933 . S
H2050 C2058 0.930 . S
H2051 C2059 0.930 1_554 S
H2052 C2062 0.930 . S
H2053 C2063 0.930 . S
C2054 H2048 0.930 . S
C2054 C2055 1.355 . S
C2054 C2056 1.415 . S
C2055 C2054 1.355 . S
C2055 C2057 1.415 1_556 S
C2056 C2054 1.415 . S
C2056 C2061 1.425 . S
C2056 C2063 1.409 . S
C2057 H2049 0.933 . S
C2057 C2055 1.415 1_554 S
C2057 C2058 1.363 . S
C2058 H2050 0.930 . S
C2058 C2057 1.363 . S
C2058 C2061 1.409 1_554 S
C2059 H2051 0.930 1_556 S
C2059 C2060 1.355 . S
C2059 C2061 1.415 . S
C2060 C2059 1.355 . S
C2060 C2062 1.419 . S
C2061 C2056 1.425 . S
C2061 C2058 1.409 1_556 S
C2061 C2059 1.415 . S
C2062 H2052 0.930 . S
C2062 C2060 1.419 . S
C2062 C2063 1.362 . S
C2063 H2053 0.930 . S
C2063 C2056 1.409 . S
C2063 C2062 1.362 . S
H2064 C2070 0.930 . S
H2065 C2073 0.930 . S
H2066 C2074 0.930 . S
H2067 C2075 0.930 . S
H2068 C2078 0.930 . S
H2069 C2079 0.930 . S
C2070 H2064 0.930 . S
C2070 C2071 1.355 . S
C2070 C2072 1.415 . S
C2071 C2070 1.355 . S
C2071 C2073 1.419 . S
C2072 C2070 1.415 . S
C2072 C2077 1.425 . S
C2072 C2079 1.409 . S
C2073 H2065 0.930 . S
C2073 C2071 1.419 . S
C2073 C2074 1.362 . S
C2074 H2066 0.930 . S
C2074 C2073 1.362 . S
C2074 C2077 1.409 . S
C2075 H2067 0.930 . S
C2075 C2076 1.355 . S
C2075 C2077 1.415 . S
C2076 C2075 1.355 . S
C2076 C2078 1.419 . S
C2077 C2072 1.425 . S
C2077 C2074 1.409 . S
C2077 C2075 1.415 . S
C2078 H2068 0.930 . S
C2078 C2076 1.419 . S
C2078 C2079 1.362 . S
C2079 H2069 0.930 . S
C2079 C2072 1.409 . S
C2079 C2078 1.362 . S
H2080 C2086 0.930 1_556 S
H2081 C2089 0.930 . S
H2082 C2090 0.930 . S
H2083 C2091 0.930 . S
H2084 C2094 0.930 . S
H2085 C2095 0.930 . S
C2086 H2080 0.930 1_554 S
C2086 C2087 1.355 . S
C2086 C2088 1.415 . S
C2087 C2086 1.355 . S
C2087 C2089 1.419 . S
C2088 C2086 1.415 . S
C2088 C2093 1.425 . S
C2088 C2095 1.409 1_554 S
C2089 H2081 0.930 . S
C2089 C2087 1.419 . S
C2089 C2090 1.362 . S
C2090 H2082 0.930 . S
C2090 C2089 1.362 . S
C2090 C2093 1.409 . S
C2091 H2083 0.930 . S
C2091 C2092 1.355 . S
C2091 C2093 1.415 . S
C2092 C2091 1.355 . S
C2092 C2094 1.419 1_554 S
C2093 C2088 1.425 . S
C2093 C2090 1.409 . S
C2093 C2091 1.415 . S
C2094 H2084 0.930 . S
C2094 C2092 1.419 1_556 S
C2094 C2095 1.362 . S
C2095 H2085 0.930 . S
C2095 C2088 1.409 1_556 S
C2095 C2094 1.362 . S
H2096 C2102 0.930 . S
H2097 C2105 0.930 . S
H2098 C2106 0.930 . S
H2099 C2107 0.930 . S
H2100 C2110 0.930 . S
H2101 C2111 0.930 . S
C2102 H2096 0.930 . S
C2102 C2103 1.355 . S
C2102 C2104 1.415 . S
C2103 C2102 1.355 . S
C2103 C2105 1.419 . S
C2104 C2102 1.415 . S
C2104 C2109 1.425 . S
C2104 C2111 1.409 . S
C2105 H2097 0.930 . S
C2105 C2103 1.419 . S
C2105 C2106 1.362 . S
C2106 H2098 0.930 . S
C2106 C2105 1.362 . S
C2106 C2109 1.409 . S
C2107 H2099 0.930 . S
C2107 C2108 1.355 . S
C2107 C2109 1.415 . S
C2108 C2107 1.355 . S
C2108 C2110 1.419 . S
C2109 C2104 1.425 . S
C2109 C2106 1.409 . S
C2109 C2107 1.415 . S
C2110 H2100 0.930 . S
C2110 C2108 1.419 . S
C2110 C2111 1.362 . S
C2111 H2101 0.930 . S
C2111 C2104 1.409 . S
C2111 C2110 1.362 . S
H2112 C2118 0.930 . S
H2113 C2121 0.930 . S
H2114 C2122 0.930 . S
H2115 C2123 0.930 . S
H2116 C2126 0.930 . S
H2117 C2127 0.930 . S
C2118 H2112 0.930 . S
C2118 C2119 1.355 . S
C2118 C2120 1.415 . S
C2119 C2118 1.355 . S
C2119 C2121 1.419 . S
C2120 C2118 1.415 . S
C2120 C2125 1.425 1_655 S
C2120 C2127 1.409 1_655 S
C2121 H2113 0.930 . S
C2121 C2119 1.419 . S
C2121 C2122 1.362 . S
C2122 H2114 0.930 . S
C2122 C2121 1.362 . S
C2122 C2125 1.409 1_655 S
C2123 H2115 0.930 . S
C2123 C2124 1.355 . S
C2123 C2125 1.415 . S
C2124 C2123 1.355 . S
C2124 C2126 1.419 . S
C2125 C2120 1.425 1_455 S
C2125 C2122 1.409 1_455 S
C2125 C2123 1.415 . S
C2126 H2116 0.930 . S
C2126 C2124 1.419 . S
C2126 C2127 1.362 . S
C2127 H2117 0.930 . S
C2127 C2120 1.409 1_455 S
C2127 C2126 1.362 . S
H2128 C2134 0.930 . S
H2129 C2137 0.930 . S
H2130 C2138 0.930 . S
H2131 C2139 0.930 . S
H2132 C2142 0.930 . S
H2133 C2143 0.930 . S
C2134 H2128 0.930 . S
C2134 C2135 1.355 . S
C2134 C2136 1.415 . S
C2135 C2134 1.355 . S
C2135 C2137 1.419 . S
C2136 C2134 1.415 . S
C2136 C2141 1.425 . S
C2136 C2143 1.409 . S
C2137 H2129 0.930 . S
C2137 C2135 1.419 . S
C2137 C2138 1.362 . S
C2138 H2130 0.930 . S
C2138 C2137 1.362 . S
C2138 C2141 1.409 . S
C2139 H2131 0.930 . S
C2139 C2140 1.355 . S
C2139 C2141 1.415 . S
C2140 C2139 1.355 . S
C2140 C2142 1.419 . S
C2141 C2136 1.425 . S
C2141 C2138 1.409 . S
C2141 C2139 1.415 . S
C2142 H2132 0.930 . S
C2142 C2140 1.419 . S
C2142 C2143 1.362 . S
C2143 H2133 0.930 . S
C2143 C2136 1.409 . S
C2143 C2142 1.362 . S
H2144 C2150 0.930 . S
H2145 C2153 0.930 . S
H2146 C2154 0.930 . S
H2147 C2155 0.930 . S
H2148 C2158 0.930 . S
H2149 C2159 0.930 . S
C2150 H2144 0.930 . S
C2150 C2151 1.355 . S
C2150 C2152 1.415 . S
C2151 C2150 1.355 . S
C2151 C2153 1.419 . S
C2152 C2150 1.415 . S
C2152 C2157 1.425 . S
C2152 C2159 1.409 . S
C2153 H2145 0.930 . S
C2153 C2151 1.419 . S
C2153 C2154 1.362 . S
C2154 H2146 0.930 . S
C2154 C2153 1.362 . S
C2154 C2157 1.409 . S
C2155 H2147 0.930 . S
C2155 C2156 1.355 . S
C2155 C2157 1.415 . S
C2156 C2155 1.355 . S
C2156 C2158 1.419 . S
C2157 C2152 1.425 . S
C2157 C2154 1.409 . S
C2157 C2155 1.415 . S
C2158 H2148 0.930 . S
C2158 C2156 1.419 . S
C2158 C2159 1.362 . S
C2159 H2149 0.930 . S
C2159 C2152 1.409 . S
C2159 C2158 1.362 . S
H2160 C2166 0.930 . S
H2161 C2169 0.930 . S
H2162 C2170 0.930 . S
H2163 C2171 0.930 . S
H2164 C2174 0.930 . S
H2165 C2175 0.930 . S
C2166 H2160 0.930 . S
C2166 C2167 1.355 . S
C2166 C2168 1.415 . S
C2167 C2166 1.355 . S
C2167 C2169 1.419 . S
C2168 C2166 1.415 . S
C2168 C2173 1.425 1_655 S
C2168 C2175 1.409 1_655 S
C2169 H2161 0.930 . S
C2169 C2167 1.419 . S
C2169 C2170 1.362 . S
C2170 H2162 0.930 . S
C2170 C2169 1.362 . S
C2170 C2173 1.409 1_655 S
C2171 H2163 0.930 . S
C2171 C2172 1.355 . S
C2171 C2173 1.415 . S
C2172 C2171 1.355 . S
C2172 C2174 1.419 . S
C2173 C2168 1.425 1_455 S
C2173 C2170 1.409 1_455 S
C2173 C2171 1.415 . S
C2174 H2164 0.930 . S
C2174 C2172 1.419 . S
C2174 C2175 1.362 . S
C2175 H2165 0.930 . S
C2175 C2168 1.409 1_455 S
C2175 C2174 1.362 . S
C1159 C842 1.498 . S
C1164 C14 1.585 . S
C1175 C734 1.586 . S
C1180 C50 1.494 . S
C1191 C770 1.582 . S
C1196 C86 1.493 . S
C1207 C806 1.580 . S
C1212 C122 1.506 . S
C1223 C158 1.510 . S
C1228 C626 1.559 . S
C1239 C662 1.586 . S
C1244 C194 1.494 . S
C1255 C230 1.583 . S
C1260 C698 1.492 . S
C1271 C266 1.565 . S
C1276 C590 1.505 . S
C1287 C1130 1.494 . S
C1292 C302 1.579 . S
C1303 C338 1.505 . S
C1308 C1022 1.581 . S
C1319 C374 1.540 . S
C1324 C1058 1.552 . S
C1335 C410 1.563 . S
C1340 C1094 1.527 . S
C1351 C446 1.500 . S
C1356 C914 1.584 . S
C1367 C482 1.529 . S
C1372 C950 1.561 . S
C1383 C518 1.497 . S
C1388 C986 1.575 . S
C1399 C554 1.586 . S
C1404 C878 1.494 . S
C1415 C2 1.457 . S
C1420 C434 1.455 . S
C1431 C1046 1.453 . S
C1436 C38 1.459 . S
C1447 C74 1.454 . S
C1452 C506 1.458 . S
C1463 C1118 1.458 . S
C1468 C110 1.454 . S
C1479 C290 1.453 . S
C1484 C146 1.459 . S
C1495 C182 1.459 . S
C1500 C902 1.453 . S
C1511 C218 1.459 . S
C1516 C362 1.453 . S
C1527 C254 1.456 . S
C1532 C974 1.456 . S
C1543 C758 1.458 . S
C1548 C326 1.455 . S
C1559 C830 1.452 . S
C1564 C398 1.460 . S
C1575 C470 1.457 . S
C1580 C614 1.455 . S
C1591 C686 1.453 . S
C1596 C542 1.460 . S
C1607 C1010 1.458 . S
C1612 C578 1.454 . S
C1623 C650 1.452 . S
C1628 C1082 1.460 . S
C1639 C866 1.456 . S
C1644 C722 1.456 . S
C1655 C938 1.458 . S
C1660 C794 1.454 . S
C1671 C147 1.239 . S
C1676 C3 1.252 . S
C1687 C183 1.237 . S
C1692 C39 1.262 . S
C1703 C75 1.238 . S
C1708 C219 1.262 . S
C1719 C111 1.282 . S
C1724 C255 1.247 . S
C1735 C435 1.292 . S
C1740 C291 1.261 . S
C1751 C471 1.248 . S
C1756 C327 1.241 . S
C1767 C507 1.283 . S
C1772 C363 1.247 . S
C1783 C399 1.280 . S
C1788 C543 1.293 . S
C1799 C579 1.255 . S
C1804 C723 1.289 . S
C1815 C615 1.237 . S
C1820 C759 1.261 . S
C1831 C651 1.273 . S
C1836 C795 1.241 . S
C1847 C687 1.276 . S
C1852 C831 1.242 . S
C1863 C1011 1.240 . S
C1868 C867 1.272 . S
C1879 C1047 1.241 . S
C1884 C903 1.247 . S
C1895 C1083 1.239 . S
C1900 C939 1.269 . S
C1911 C1119 1.294 . S
C1916 C975 1.277 . S
C1927 C1084 1.420 . S
C1932 C4 1.438 . S
C1943 C40 1.395 . S
C1948 C544 1.462 . S
C1959 C1012 1.452 . S
C1964 C76 1.406 . S
C1975 C112 1.394 . S
C1980 C472 1.463 . S
C1991 C940 1.395 . S
C1996 C148 1.462 . S
C2007 C184 1.462 . S
C2012 C400 1.395 . S
C2023 C220 1.460 . S
C2028 C868 1.398 . S
C2039 C328 1.393 . S
C2044 C256 1.464 . S
C2055 C292 1.466 . S
C2060 C796 1.392 . S
C2071 C724 1.460 . S
C2076 C364 1.397 . S
C2087 C436 1.402 . S
C2092 C652 1.456 . S
C2103 C508 1.449 . S
C2108 C580 1.409 . S
C2119 C1120 1.446 . S
C2124 C616 1.412 . S
C2135 C688 1.465 . S
C2140 C1048 1.392 . S
C2151 C760 1.456 . S
C2156 C976 1.401 . S
C2167 C904 1.451 . S
C2172 C832 1.407 . S
