# Generated by pormake.
# Topology rho, (4)-cn, num edge types: 1
# Building blocks:
#     Node 0, Type 0, BuildingBlock: GALJAG_clean_sbu_0, # of connection points: 4
#     Node 1, Type 0, BuildingBlock: GALJAG_clean_sbu_0, # of connection points: 4
#     Node 2, Type 0, BuildingBlock: GALJAG_clean_sbu_0, # of connection points: 4
#     Node 3, Type 0, BuildingBlock: GALJAG_clean_sbu_0, # of connection points: 4
#     Node 4, Type 0, BuildingBlock: GALJAG_clean_sbu_0, # of connection points: 4
#     Node 5, Type 0, BuildingBlock: GALJAG_clean_sbu_0, # of connection points: 4
#     Node 6, Type 0, BuildingBlock: GALJAG_clean_sbu_0, # of connection points: 4
#     Node 7, Type 0, BuildingBlock: GALJAG_clean_sbu_0, # of connection points: 4
#     Node 8, Type 0, BuildingBlock: GALJAG_clean_sbu_0, # of connection points: 4
#     Node 9, Type 0, BuildingBlock: GALJAG_clean_sbu_0, # of connection points: 4
#     Node 10, Type 0, BuildingBlock: GALJAG_clean_sbu_0, # of connection points: 4
#     Node 11, Type 0, BuildingBlock: GALJAG_clean_sbu_0, # of connection points: 4
#     Node 12, Type 0, BuildingBlock: GALJAG_clean_sbu_0, # of connection points: 4
#     Node 13, Type 0, BuildingBlock: GALJAG_clean_sbu_0, # of connection points: 4
#     Node 14, Type 0, BuildingBlock: GALJAG_clean_sbu_0, # of connection points: 4
#     Node 15, Type 0, BuildingBlock: GALJAG_clean_sbu_0, # of connection points: 4
#     Node 16, Type 0, BuildingBlock: GALJAG_clean_sbu_0, # of connection points: 4
#     Node 17, Type 0, BuildingBlock: GALJAG_clean_sbu_0, # of connection points: 4
#     Node 18, Type 0, BuildingBlock: GALJAG_clean_sbu_0, # of connection points: 4
#     Node 19, Type 0, BuildingBlock: GALJAG_clean_sbu_0, # of connection points: 4
#     Node 20, Type 0, BuildingBlock: GALJAG_clean_sbu_0, # of connection points: 4
#     Node 21, Type 0, BuildingBlock: GALJAG_clean_sbu_0, # of connection points: 4
#     Node 22, Type 0, BuildingBlock: GALJAG_clean_sbu_0, # of connection points: 4
#     Node 23, Type 0, BuildingBlock: GALJAG_clean_sbu_0, # of connection points: 4
#     Node 24, Type 0, BuildingBlock: GALJAG_clean_sbu_0, # of connection points: 4
#     Node 25, Type 0, BuildingBlock: GALJAG_clean_sbu_0, # of connection points: 4
#     Node 26, Type 0, BuildingBlock: GALJAG_clean_sbu_0, # of connection points: 4
#     Node 27, Type 0, BuildingBlock: GALJAG_clean_sbu_0, # of connection points: 4
#     Node 28, Type 0, BuildingBlock: GALJAG_clean_sbu_0, # of connection points: 4
#     Node 29, Type 0, BuildingBlock: GALJAG_clean_sbu_0, # of connection points: 4
#     Node 30, Type 0, BuildingBlock: GALJAG_clean_sbu_0, # of connection points: 4
#     Node 31, Type 0, BuildingBlock: GALJAG_clean_sbu_0, # of connection points: 4
#     Node 32, Type 0, BuildingBlock: GALJAG_clean_sbu_0, # of connection points: 4
#     Node 33, Type 0, BuildingBlock: GALJAG_clean_sbu_0, # of connection points: 4
#     Node 34, Type 0, BuildingBlock: GALJAG_clean_sbu_0, # of connection points: 4
#     Node 35, Type 0, BuildingBlock: GALJAG_clean_sbu_0, # of connection points: 4
#     Node 36, Type 0, BuildingBlock: GALJAG_clean_sbu_0, # of connection points: 4
#     Node 37, Type 0, BuildingBlock: GALJAG_clean_sbu_0, # of connection points: 4
#     Node 38, Type 0, BuildingBlock: GALJAG_clean_sbu_0, # of connection points: 4
#     Node 39, Type 0, BuildingBlock: GALJAG_clean_sbu_0, # of connection points: 4
#     Node 40, Type 0, BuildingBlock: GALJAG_clean_sbu_0, # of connection points: 4
#     Node 41, Type 0, BuildingBlock: GALJAG_clean_sbu_0, # of connection points: 4
#     Node 42, Type 0, BuildingBlock: GALJAG_clean_sbu_0, # of connection points: 4
#     Node 43, Type 0, BuildingBlock: GALJAG_clean_sbu_0, # of connection points: 4
#     Node 44, Type 0, BuildingBlock: GALJAG_clean_sbu_0, # of connection points: 4
#     Node 45, Type 0, BuildingBlock: GALJAG_clean_sbu_0, # of connection points: 4
#     Node 46, Type 0, BuildingBlock: GALJAG_clean_sbu_0, # of connection points: 4
#     Node 47, Type 0, BuildingBlock: GALJAG_clean_sbu_0, # of connection points: 4
#     Edge 48, Type (0, 0), BuildingBlock: EZIPEK_clean_linker_0, # of connection points: 2
#     Edge 49, Type (0, 0), BuildingBlock: EZIPEK_clean_linker_0, # of connection points: 2
#     Edge 50, Type (0, 0), BuildingBlock: EZIPEK_clean_linker_0, # of connection points: 2
#     Edge 51, Type (0, 0), BuildingBlock: EZIPEK_clean_linker_0, # of connection points: 2
#     Edge 52, Type (0, 0), BuildingBlock: EZIPEK_clean_linker_0, # of connection points: 2
#     Edge 53, Type (0, 0), BuildingBlock: EZIPEK_clean_linker_0, # of connection points: 2
#     Edge 54, Type (0, 0), BuildingBlock: EZIPEK_clean_linker_0, # of connection points: 2
#     Edge 55, Type (0, 0), BuildingBlock: EZIPEK_clean_linker_0, # of connection points: 2
#     Edge 56, Type (0, 0), BuildingBlock: EZIPEK_clean_linker_0, # of connection points: 2
#     Edge 57, Type (0, 0), BuildingBlock: EZIPEK_clean_linker_0, # of connection points: 2
#     Edge 58, Type (0, 0), BuildingBlock: EZIPEK_clean_linker_0, # of connection points: 2
#     Edge 59, Type (0, 0), BuildingBlock: EZIPEK_clean_linker_0, # of connection points: 2
#     Edge 60, Type (0, 0), BuildingBlock: EZIPEK_clean_linker_0, # of connection points: 2
#     Edge 61, Type (0, 0), BuildingBlock: EZIPEK_clean_linker_0, # of connection points: 2
#     Edge 62, Type (0, 0), BuildingBlock: EZIPEK_clean_linker_0, # of connection points: 2
#     Edge 63, Type (0, 0), BuildingBlock: EZIPEK_clean_linker_0, # of connection points: 2
#     Edge 64, Type (0, 0), BuildingBlock: EZIPEK_clean_linker_0, # of connection points: 2
#     Edge 65, Type (0, 0), BuildingBlock: EZIPEK_clean_linker_0, # of connection points: 2
#     Edge 66, Type (0, 0), BuildingBlock: EZIPEK_clean_linker_0, # of connection points: 2
#     Edge 67, Type (0, 0), BuildingBlock: EZIPEK_clean_linker_0, # of connection points: 2
#     Edge 68, Type (0, 0), BuildingBlock: EZIPEK_clean_linker_0, # of connection points: 2
#     Edge 69, Type (0, 0), BuildingBlock: EZIPEK_clean_linker_0, # of connection points: 2
#     Edge 70, Type (0, 0), BuildingBlock: EZIPEK_clean_linker_0, # of connection points: 2
#     Edge 71, Type (0, 0), BuildingBlock: EZIPEK_clean_linker_0, # of connection points: 2
#     Edge 72, Type (0, 0), BuildingBlock: EZIPEK_clean_linker_0, # of connection points: 2
#     Edge 73, Type (0, 0), BuildingBlock: EZIPEK_clean_linker_0, # of connection points: 2
#     Edge 74, Type (0, 0), BuildingBlock: EZIPEK_clean_linker_0, # of connection points: 2
#     Edge 75, Type (0, 0), BuildingBlock: EZIPEK_clean_linker_0, # of connection points: 2
#     Edge 76, Type (0, 0), BuildingBlock: EZIPEK_clean_linker_0, # of connection points: 2
#     Edge 77, Type (0, 0), BuildingBlock: EZIPEK_clean_linker_0, # of connection points: 2
#     Edge 78, Type (0, 0), BuildingBlock: EZIPEK_clean_linker_0, # of connection points: 2
#     Edge 79, Type (0, 0), BuildingBlock: EZIPEK_clean_linker_0, # of connection points: 2
#     Edge 80, Type (0, 0), BuildingBlock: EZIPEK_clean_linker_0, # of connection points: 2
#     Edge 81, Type (0, 0), BuildingBlock: EZIPEK_clean_linker_0, # of connection points: 2
#     Edge 82, Type (0, 0), BuildingBlock: EZIPEK_clean_linker_0, # of connection points: 2
#     Edge 83, Type (0, 0), BuildingBlock: EZIPEK_clean_linker_0, # of connection points: 2
#     Edge 84, Type (0, 0), BuildingBlock: EZIPEK_clean_linker_0, # of connection points: 2
#     Edge 85, Type (0, 0), BuildingBlock: EZIPEK_clean_linker_0, # of connection points: 2
#     Edge 86, Type (0, 0), BuildingBlock: EZIPEK_clean_linker_0, # of connection points: 2
#     Edge 87, Type (0, 0), BuildingBlock: EZIPEK_clean_linker_0, # of connection points: 2
#     Edge 88, Type (0, 0), BuildingBlock: EZIPEK_clean_linker_0, # of connection points: 2
#     Edge 89, Type (0, 0), BuildingBlock: EZIPEK_clean_linker_0, # of connection points: 2
#     Edge 90, Type (0, 0), BuildingBlock: EZIPEK_clean_linker_0, # of connection points: 2
#     Edge 91, Type (0, 0), BuildingBlock: EZIPEK_clean_linker_0, # of connection points: 2
#     Edge 92, Type (0, 0), BuildingBlock: EZIPEK_clean_linker_0, # of connection points: 2
#     Edge 93, Type (0, 0), BuildingBlock: EZIPEK_clean_linker_0, # of connection points: 2
#     Edge 94, Type (0, 0), BuildingBlock: EZIPEK_clean_linker_0, # of connection points: 2
#     Edge 95, Type (0, 0), BuildingBlock: EZIPEK_clean_linker_0, # of connection points: 2
#     Edge 96, Type (0, 0), BuildingBlock: EZIPEK_clean_linker_0, # of connection points: 2
#     Edge 97, Type (0, 0), BuildingBlock: EZIPEK_clean_linker_0, # of connection points: 2
#     Edge 98, Type (0, 0), BuildingBlock: EZIPEK_clean_linker_0, # of connection points: 2
#     Edge 99, Type (0, 0), BuildingBlock: EZIPEK_clean_linker_0, # of connection points: 2
#     Edge 100, Type (0, 0), BuildingBlock: EZIPEK_clean_linker_0, # of connection points: 2
#     Edge 101, Type (0, 0), BuildingBlock: EZIPEK_clean_linker_0, # of connection points: 2
#     Edge 102, Type (0, 0), BuildingBlock: EZIPEK_clean_linker_0, # of connection points: 2
#     Edge 103, Type (0, 0), BuildingBlock: EZIPEK_clean_linker_0, # of connection points: 2
#     Edge 104, Type (0, 0), BuildingBlock: EZIPEK_clean_linker_0, # of connection points: 2
#     Edge 105, Type (0, 0), BuildingBlock: EZIPEK_clean_linker_0, # of connection points: 2
#     Edge 106, Type (0, 0), BuildingBlock: EZIPEK_clean_linker_0, # of connection points: 2
#     Edge 107, Type (0, 0), BuildingBlock: EZIPEK_clean_linker_0, # of connection points: 2
#     Edge 108, Type (0, 0), BuildingBlock: EZIPEK_clean_linker_0, # of connection points: 2
#     Edge 109, Type (0, 0), BuildingBlock: EZIPEK_clean_linker_0, # of connection points: 2
#     Edge 110, Type (0, 0), BuildingBlock: EZIPEK_clean_linker_0, # of connection points: 2
#     Edge 111, Type (0, 0), BuildingBlock: EZIPEK_clean_linker_0, # of connection points: 2
#     Edge 112, Type (0, 0), BuildingBlock: EZIPEK_clean_linker_0, # of connection points: 2
#     Edge 113, Type (0, 0), BuildingBlock: EZIPEK_clean_linker_0, # of connection points: 2
#     Edge 114, Type (0, 0), BuildingBlock: EZIPEK_clean_linker_0, # of connection points: 2
#     Edge 115, Type (0, 0), BuildingBlock: EZIPEK_clean_linker_0, # of connection points: 2
#     Edge 116, Type (0, 0), BuildingBlock: EZIPEK_clean_linker_0, # of connection points: 2
#     Edge 117, Type (0, 0), BuildingBlock: EZIPEK_clean_linker_0, # of connection points: 2
#     Edge 118, Type (0, 0), BuildingBlock: EZIPEK_clean_linker_0, # of connection points: 2
#     Edge 119, Type (0, 0), BuildingBlock: EZIPEK_clean_linker_0, # of connection points: 2
#     Edge 120, Type (0, 0), BuildingBlock: EZIPEK_clean_linker_0, # of connection points: 2
#     Edge 121, Type (0, 0), BuildingBlock: EZIPEK_clean_linker_0, # of connection points: 2
#     Edge 122, Type (0, 0), BuildingBlock: EZIPEK_clean_linker_0, # of connection points: 2
#     Edge 123, Type (0, 0), BuildingBlock: EZIPEK_clean_linker_0, # of connection points: 2
#     Edge 124, Type (0, 0), BuildingBlock: EZIPEK_clean_linker_0, # of connection points: 2
#     Edge 125, Type (0, 0), BuildingBlock: EZIPEK_clean_linker_0, # of connection points: 2
#     Edge 126, Type (0, 0), BuildingBlock: EZIPEK_clean_linker_0, # of connection points: 2
#     Edge 127, Type (0, 0), BuildingBlock: EZIPEK_clean_linker_0, # of connection points: 2
#     Edge 128, Type (0, 0), BuildingBlock: EZIPEK_clean_linker_0, # of connection points: 2
#     Edge 129, Type (0, 0), BuildingBlock: EZIPEK_clean_linker_0, # of connection points: 2
#     Edge 130, Type (0, 0), BuildingBlock: EZIPEK_clean_linker_0, # of connection points: 2
#     Edge 131, Type (0, 0), BuildingBlock: EZIPEK_clean_linker_0, # of connection points: 2
#     Edge 132, Type (0, 0), BuildingBlock: EZIPEK_clean_linker_0, # of connection points: 2
#     Edge 133, Type (0, 0), BuildingBlock: EZIPEK_clean_linker_0, # of connection points: 2
#     Edge 134, Type (0, 0), BuildingBlock: EZIPEK_clean_linker_0, # of connection points: 2
#     Edge 135, Type (0, 0), BuildingBlock: EZIPEK_clean_linker_0, # of connection points: 2
#     Edge 136, Type (0, 0), BuildingBlock: EZIPEK_clean_linker_0, # of connection points: 2
#     Edge 137, Type (0, 0), BuildingBlock: EZIPEK_clean_linker_0, # of connection points: 2
#     Edge 138, Type (0, 0), BuildingBlock: EZIPEK_clean_linker_0, # of connection points: 2
#     Edge 139, Type (0, 0), BuildingBlock: EZIPEK_clean_linker_0, # of connection points: 2
#     Edge 140, Type (0, 0), BuildingBlock: EZIPEK_clean_linker_0, # of connection points: 2
#     Edge 141, Type (0, 0), BuildingBlock: EZIPEK_clean_linker_0, # of connection points: 2
#     Edge 142, Type (0, 0), BuildingBlock: EZIPEK_clean_linker_0, # of connection points: 2
#     Edge 143, Type (0, 0), BuildingBlock: EZIPEK_clean_linker_0, # of connection points: 2
# Relax obj value: 0.062
# Max RMSD: 0.056
# Mean RMSD: 0.055
data_MOF--net-rho--node1-GALJAG_clean_sbu_0--edge1-EZIPEK_clean_linker_0
_symmetry_space_group_name_H-M    P1
_symmetry_Int_Tables_number       1
_symmetry_cell_setting            triclinic
loop_
_symmetry_equiv_pos_as_xyz
'x, y, z'
_cell_length_a     53.406381
_cell_length_b     53.392799
_cell_length_c     53.400776
_cell_angle_alpha  90.044445
_cell_angle_beta   90.03973
_cell_angle_gamma 90.146373
loop_
_atom_site_label
_atom_site_type_symbol
_atom_site_fract_x
_atom_site_fract_y
_atom_site_fract_z
_atom_type_partial_charge
In0 In 0.10577 0.24783 0.39222 0.0
O1 O 0.10916 0.2732 0.42679 0.0
O2 O 0.11 0.23376 0.43199 0.0
C3 C 0.11438 0.28027 0.3549 0.0
C4 C 0.13931 0.21207 0.38227 0.0
C5 C 0.05548 0.24372 0.39172 0.0
O6 O 0.12097 0.28482 0.3772 0.0
O7 O 0.10472 0.25895 0.35132 0.0
O8 O 0.06945 0.22469 0.39236 0.0
O9 O 0.06685 0.26434 0.39084 0.0
C10 C 0.11011 0.25511 0.44196 0.0
O11 O 0.1162 0.20915 0.37798 0.0
O12 O 0.14561 0.23331 0.39064 0.0
In13 In 0.75271 0.10174 0.39579 0.0
O14 O 0.77367 0.06704 0.38181 0.0
O15 O 0.73882 0.06182 0.40042 0.0
C16 C 0.78897 0.1356 0.38902 0.0
C17 C 0.71847 0.11154 0.3601 0.0
C18 C 0.74905 0.10658 0.44575 0.0
O19 O 0.79198 0.1127 0.38381 0.0
O20 O 0.76756 0.14152 0.3971 0.0
O21 O 0.73229 0.11479 0.43119 0.0
O22 O 0.76737 0.09622 0.4351 0.0
C23 C 0.75732 0.0519 0.38976 0.0
O24 O 0.71233 0.10565 0.38212 0.0
O25 O 0.74166 0.1136 0.35644 0.0
In26 In 0.89299 0.7466 0.39564 0.0
O27 O 0.88225 0.78441 0.37938 0.0
O28 O 0.85305 0.76092 0.39345 0.0
C29 C 0.94315 0.75229 0.3929 0.0
C30 C 0.88894 0.74205 0.44578 0.0
C31 C 0.88266 0.71102 0.36175 0.0
O32 O 0.92847 0.77076 0.39236 0.0
O33 O 0.93257 0.73128 0.39446 0.0
O34 O 0.87679 0.70868 0.38454 0.0
O35 O 0.89276 0.73157 0.35591 0.0
C36 C 0.8592 0.78169 0.38395 0.0
O37 O 0.89131 0.72326 0.43167 0.0
O38 O 0.88804 0.76277 0.43465 0.0
In39 In 0.24938 0.89391 0.3962 0.0
O40 O 0.22916 0.93062 0.38774 0.0
O41 O 0.26636 0.93243 0.40205 0.0
C42 C 0.21194 0.86174 0.38637 0.0
C43 C 0.28372 0.88632 0.36022 0.0
C44 C 0.2546 0.88653 0.44577 0.0
O45 O 0.20922 0.88515 0.38487 0.0
O46 O 0.23361 0.85448 0.39223 0.0
O47 O 0.26978 0.87745 0.43012 0.0
O48 O 0.23675 0.89879 0.43649 0.0
C49 C 0.24733 0.94417 0.39457 0.0
O50 O 0.28862 0.88369 0.38317 0.0
O51 O 0.26141 0.8922 0.35528 0.0
In52 In 0.10155 0.74818 0.60204 0.0
O53 O 0.06527 0.77055 0.60685 0.0
O54 O 0.06279 0.73104 0.60246 0.0
C55 C 0.13638 0.78316 0.61026 0.0
C56 C 0.11124 0.71542 0.63875 0.0
C57 C 0.1044 0.74378 0.55194 0.0
O58 O 0.11369 0.7864 0.61617 0.0
O59 O 0.14166 0.76198 0.60114 0.0
O60 O 0.10572 0.72493 0.56617 0.0
O61 O 0.10256 0.76451 0.56301 0.0
C62 C 0.05139 0.75144 0.60522 0.0
O63 O 0.11496 0.71013 0.61597 0.0
O64 O 0.10403 0.73752 0.64292 0.0
In65 In 0.24688 0.10154 0.60503 0.0
O66 O 0.20684 0.11411 0.61249 0.0
O67 O 0.23489 0.1422 0.60718 0.0
C68 C 0.24193 0.05158 0.60982 0.0
C69 C 0.25178 0.10653 0.55527 0.0
C70 C 0.28182 0.10859 0.64058 0.0
O71 O 0.22757 0.06658 0.62112 0.0
O72 O 0.2584 0.06175 0.59639 0.0
O73 O 0.28732 0.10689 0.61766 0.0
O74 O 0.25875 0.10786 0.64545 0.0
C75 C 0.21214 0.13714 0.61113 0.0
O76 O 0.26865 0.11389 0.57023 0.0
O77 O 0.23266 0.09706 0.56545 0.0
In78 In 0.89609 0.25122 0.60689 0.0
O79 O 0.87502 0.28692 0.61708 0.0
O80 O 0.8972 0.2694 0.64527 0.0
C81 C 0.89202 0.25402 0.55661 0.0
C82 C 0.94641 0.248 0.60872 0.0
C83 C 0.86492 0.21413 0.62007 0.0
O84 O 0.896 0.27309 0.56997 0.0
O85 O 0.88929 0.23392 0.56858 0.0
O86 O 0.88817 0.21311 0.62444 0.0
O87 O 0.85735 0.23419 0.61017 0.0
C88 C 0.88337 0.28751 0.6392 0.0
O89 O 0.93255 0.22901 0.61149 0.0
O90 O 0.93494 0.26832 0.60561 0.0
In91 In 0.74899 0.89731 0.59961 0.0
O92 O 0.72713 0.88569 0.56441 0.0
O93 O 0.76274 0.9032 0.55999 0.0
C94 C 0.71578 0.8873 0.63587 0.0
C95 C 0.78492 0.8638 0.60926 0.0
C96 C 0.75107 0.94757 0.60367 0.0
O97 O 0.70993 0.88624 0.61293 0.0
O98 O 0.73848 0.89225 0.64035 0.0
O99 O 0.77046 0.93447 0.60051 0.0
O100 O 0.731 0.93529 0.6053 0.0
C101 C 0.74381 0.89366 0.5496 0.0
O102 O 0.78657 0.8863 0.6164 0.0
O103 O 0.765 0.8581 0.59787 0.0
In104 In 0.39849 0.10406 0.25204 0.0
O105 O 0.38567 0.11668 0.29076 0.0
O106 O 0.35781 0.10683 0.26379 0.0
C107 C 0.44871 0.10748 0.25403 0.0
C108 C 0.39513 0.05375 0.24986 0.0
C109 C 0.39024 0.13927 0.2174 0.0
O110 O 0.43521 0.11108 0.27314 0.0
O111 O 0.43686 0.10273 0.2342 0.0
O112 O 0.38502 0.11646 0.21361 0.0
O113 O 0.39861 0.14442 0.23894 0.0
C114 C 0.3627 0.11359 0.28591 0.0
O115 O 0.39081 0.06739 0.23102 0.0
O116 O 0.40053 0.06546 0.26961 0.0
In117 In 0.89305 0.39372 0.25102 0.0
O118 O 0.92858 0.3819 0.23015 0.0
O119 O 0.93193 0.39703 0.26701 0.0
C120 C 0.8565 0.38454 0.21759 0.0
C121 C 0.88574 0.36061 0.28789 0.0
C122 C 0.89066 0.44408 0.25277 0.0
O123 O 0.87934 0.38462 0.21151 0.0
O124 O 0.8523 0.38771 0.24058 0.0
O125 O 0.88121 0.4305 0.26967 0.0
O126 O 0.90102 0.43236 0.23518 0.0
C127 C 0.94287 0.3885 0.2479 0.0
O128 O 0.8813 0.38369 0.29062 0.0
O129 O 0.89306 0.3541 0.26636 0.0
In130 In 0.60159 0.89672 0.24701 0.0
O131 O 0.61418 0.88235 0.28508 0.0
O132 O 0.64201 0.89694 0.26043 0.0
C133 C 0.55183 0.89199 0.25304 0.0
C134 C 0.60654 0.9467 0.2434 0.0
C135 C 0.60952 0.86254 0.21094 0.0
O136 O 0.56707 0.887 0.27038 0.0
O137 O 0.56158 0.89921 0.23281 0.0
O138 O 0.60965 0.88576 0.20661 0.0
O139 O 0.60605 0.85651 0.23349 0.0
C140 C 0.63692 0.88774 0.28156 0.0
O141 O 0.61404 0.93212 0.22639 0.0
O142 O 0.59663 0.93617 0.26205 0.0
In143 In 0.10397 0.60399 0.25016 0.0
O144 O 0.10852 0.56867 0.27391 0.0
O145 O 0.10243 0.56458 0.23469 0.0
C146 C 0.11425 0.63856 0.28509 0.0
C147 C 0.13903 0.61043 0.21476 0.0
C148 C 0.05417 0.60936 0.24554 0.0
O149 O 0.12092 0.61602 0.28734 0.0
O150 O 0.10329 0.6439 0.26487 0.0
O151 O 0.06914 0.61698 0.22889 0.0
O152 O 0.06423 0.59945 0.26442 0.0
C153 C 0.1059 0.55406 0.2555 0.0
O154 O 0.11594 0.61211 0.21006 0.0
O155 O 0.14449 0.60656 0.23741 0.0
In156 In 0.39633 0.89411 0.74822 0.0
O157 O 0.38321 0.88271 0.78702 0.0
O158 O 0.39444 0.85383 0.76166 0.0
C159 C 0.39358 0.94444 0.75096 0.0
C160 C 0.44636 0.8896 0.74343 0.0
C161 C 0.35914 0.8852 0.71568 0.0
O162 O 0.39247 0.93077 0.77022 0.0
O163 O 0.3956 0.93277 0.73059 0.0
O164 O 0.38185 0.88171 0.71 0.0
O165 O 0.35526 0.89195 0.738 0.0
C166 C 0.38676 0.85962 0.78327 0.0
O167 O 0.43176 0.88679 0.72501 0.0
O168 O 0.43573 0.89396 0.76399 0.0
In169 In 0.10494 0.39482 0.74726 0.0
O170 O 0.10974 0.43013 0.7233 0.0
O171 O 0.10407 0.4345 0.76249 0.0
C172 C 0.11766 0.36221 0.71132 0.0
C173 C 0.13796 0.38383 0.78353 0.0
C174 C 0.05458 0.391 0.7507 0.0
O175 O 0.1219 0.38542 0.70934 0.0
O176 O 0.10804 0.35534 0.7318 0.0
O177 O 0.06816 0.39572 0.76945 0.0
O178 O 0.06637 0.38736 0.73065 0.0
C179 C 0.10732 0.4449 0.74159 0.0
O180 O 0.11569 0.37586 0.78402 0.0
O181 O 0.14378 0.39647 0.76447 0.0
In182 In 0.60474 0.10307 0.74687 0.0
O183 O 0.61827 0.06794 0.76721 0.0
O184 O 0.59941 0.06337 0.73233 0.0
C185 C 0.61234 0.13718 0.78329 0.0
C186 C 0.63896 0.11364 0.71152 0.0
C187 C 0.55481 0.10668 0.74141 0.0
O188 O 0.61333 0.11395 0.78734 0.0
O189 O 0.60839 0.14326 0.76085 0.0
O190 O 0.56969 0.11139 0.72369 0.0
O191 O 0.56502 0.10021 0.76166 0.0
C192 C 0.61 0.05309 0.75074 0.0
O193 O 0.61631 0.1199 0.70945 0.0
O194 O 0.64458 0.1027 0.73167 0.0
In195 In 0.8938 0.60545 0.7506 0.0
O196 O 0.92888 0.61696 0.77265 0.0
O197 O 0.93337 0.60315 0.73553 0.0
C198 C 0.85844 0.61024 0.78561 0.0
C199 C 0.88361 0.64242 0.71798 0.0
C200 C 0.89112 0.55548 0.74567 0.0
O201 O 0.88093 0.61654 0.78954 0.0
O202 O 0.85369 0.60194 0.76396 0.0
O203 O 0.88303 0.57004 0.72884 0.0
O204 O 0.90023 0.56614 0.76469 0.0
C205 C 0.94371 0.61122 0.75516 0.0
O206 O 0.8873 0.62014 0.71101 0.0
O207 O 0.88389 0.64577 0.74133 0.0
In208 In 0.24881 0.39704 0.10356 0.0
O209 O 0.28863 0.38173 0.10452 0.0
O210 O 0.25901 0.35752 0.11572 0.0
C211 C 0.25712 0.44648 0.10806 0.0
C212 C 0.24103 0.38914 0.05445 0.0
C213 C 0.21316 0.3932 0.13844 0.0
O214 O 0.27231 0.43054 0.11664 0.0
O215 O 0.23805 0.43752 0.09737 0.0
O216 O 0.20837 0.39139 0.11534 0.0
O217 O 0.23589 0.39675 0.14399 0.0
C218 C 0.28208 0.36017 0.11161 0.0
O219 O 0.22637 0.38055 0.07086 0.0
O220 O 0.25938 0.40144 0.06275 0.0
In221 In 0.24701 0.59984 0.89686 0.0
O222 O 0.26582 0.56447 0.88158 0.0
O223 O 0.23538 0.56019 0.90692 0.0
C224 C 0.28401 0.63314 0.88979 0.0
C225 C 0.2128 0.60624 0.8605 0.0
C226 C 0.23996 0.60907 0.94573 0.0
O227 O 0.28803 0.60987 0.89103 0.0
O228 O 0.26137 0.63959 0.8916 0.0
O229 O 0.2243 0.61598 0.9294 0.0
O230 O 0.259 0.59791 0.93743 0.0
C231 C 0.25156 0.54975 0.89337 0.0
O232 O 0.20678 0.6039 0.88321 0.0
O233 O 0.236 0.60629 0.85622 0.0
In234 In 0.39508 0.24777 0.89654 0.0
O235 O 0.38007 0.22474 0.92946 0.0
O236 O 0.3984 0.25947 0.93707 0.0
C237 C 0.38779 0.21388 0.85983 0.0
C238 C 0.36057 0.28355 0.89109 0.0
C239 C 0.4447 0.25602 0.89213 0.0
O240 O 0.39576 0.20785 0.88119 0.0
O241 O 0.38265 0.23672 0.85724 0.0
O242 O 0.42878 0.27048 0.88239 0.0
O243 O 0.43567 0.23775 0.90399 0.0
C244 C 0.38744 0.24039 0.94564 0.0
O245 O 0.38358 0.28766 0.88729 0.0
O246 O 0.35494 0.26138 0.8971 0.0
In247 In 0.75185 0.39285 0.89578 0.0
O248 O 0.78848 0.37396 0.88483 0.0
O249 O 0.7685 0.39414 0.85675 0.0
C250 C 0.75551 0.38914 0.946 0.0
C251 C 0.74849 0.44317 0.8933 0.0
C252 C 0.71557 0.36023 0.88331 0.0
O253 O 0.77453 0.38874 0.93203 0.0
O254 O 0.7349 0.39087 0.93473 0.0
O255 O 0.71398 0.38331 0.87843 0.0
O256 O 0.73576 0.35346 0.8935 0.0
C257 C 0.78776 0.38179 0.86253 0.0
O258 O 0.72944 0.42917 0.89243 0.0
O259 O 0.76908 0.43185 0.89486 0.0
In260 In 0.60124 0.74861 0.89432 0.0
O261 O 0.61228 0.70954 0.88107 0.0
O262 O 0.64116 0.7337 0.89435 0.0
C263 C 0.5513 0.74481 0.89006 0.0
C264 C 0.60519 0.75244 0.94434 0.0
C265 C 0.60942 0.7845 0.85992 0.0
O266 O 0.56575 0.72723 0.88372 0.0
O267 O 0.56196 0.76419 0.89842 0.0
O268 O 0.61281 0.78817 0.88301 0.0
O269 O 0.60285 0.76258 0.85406 0.0
C270 C 0.63518 0.71239 0.88611 0.0
O271 O 0.61458 0.76854 0.9298 0.0
O272 O 0.59398 0.73453 0.93376 0.0
In273 In 0.74835 0.60118 0.10351 0.0
O274 O 0.77014 0.61313 0.06866 0.0
O275 O 0.73415 0.59655 0.06366 0.0
C276 C 0.78465 0.60888 0.13751 0.0
C277 C 0.71344 0.63656 0.11084 0.0
C278 C 0.74216 0.55155 0.10968 0.0
O279 O 0.78873 0.60941 0.11426 0.0
O280 O 0.76216 0.60521 0.14373 0.0
O281 O 0.72623 0.56714 0.11739 0.0
O282 O 0.76106 0.56086 0.09907 0.0
C283 C 0.75329 0.60606 0.05367 0.0
O284 O 0.70848 0.61348 0.11182 0.0
O285 O 0.73611 0.64192 0.10697 0.0
In286 In 0.39583 0.75037 0.10094 0.0
O287 O 0.38638 0.79065 0.1109 0.0
O288 O 0.39452 0.76527 0.14071 0.0
C289 C 0.39167 0.75381 0.05085 0.0
C290 C 0.44521 0.74505 0.10789 0.0
C291 C 0.35957 0.71635 0.1093 0.0
O292 O 0.38135 0.76933 0.06536 0.0
O293 O 0.40406 0.73686 0.06151 0.0
O294 O 0.38225 0.71025 0.10694 0.0
O295 O 0.35537 0.73953 0.10851 0.0
C296 C 0.38892 0.78727 0.13418 0.0
O297 O 0.42969 0.72894 0.11569 0.0
O298 O 0.43587 0.76376 0.09697 0.0
In299 In 0.59924 0.24916 0.09989 0.0
O300 O 0.56465 0.27231 0.1097 0.0
O301 O 0.55933 0.23478 0.09717 0.0
C302 C 0.63479 0.28389 0.10754 0.0
C303 C 0.6076 0.21366 0.13458 0.0
C304 C 0.60321 0.24535 0.04989 0.0
O305 O 0.6122 0.28751 0.11339 0.0
O306 O 0.63963 0.26258 0.09861 0.0
O307 O 0.6115 0.22863 0.06438 0.0
O308 O 0.59308 0.2638 0.0605 0.0
C309 C 0.54948 0.25491 0.10451 0.0
O310 O 0.60738 0.20892 0.11144 0.0
O311 O 0.6042 0.23632 0.14028 0.0
In312 In 0.89281 0.75021 0.60376 0.0
O313 O 0.88495 0.72608 0.56894 0.0
O314 O 0.89429 0.76449 0.564 0.0
C315 C 0.88258 0.71837 0.64111 0.0
C316 C 0.85959 0.78653 0.61234 0.0
C317 C 0.94313 0.75237 0.60683 0.0
O318 O 0.88018 0.71216 0.61836 0.0
O319 O 0.88877 0.74091 0.64487 0.0
O320 O 0.92995 0.7718 0.60446 0.0
O321 O 0.93095 0.73225 0.60836 0.0
C322 C 0.88902 0.74386 0.55386 0.0
O323 O 0.88251 0.78899 0.61771 0.0
O324 O 0.85326 0.7655 0.60349 0.0
In325 In 0.24886 0.8938 0.60272 0.0
O326 O 0.2278 0.92846 0.6166 0.0
O327 O 0.26187 0.93387 0.5967 0.0
C328 C 0.21273 0.85957 0.60888 0.0
C329 C 0.28218 0.88561 0.63965 0.0
C330 C 0.25506 0.8871 0.55321 0.0
O331 O 0.2085 0.8828 0.61023 0.0
O332 O 0.23523 0.85356 0.60486 0.0
O333 O 0.27122 0.87985 0.56889 0.0
O334 O 0.23602 0.89749 0.56243 0.0
C335 C 0.24363 0.94372 0.60789 0.0
O336 O 0.28878 0.88908 0.61724 0.0
O337 O 0.25889 0.88534 0.64329 0.0
In338 In 0.10491 0.2523 0.60003 0.0
O339 O 0.1102 0.2759 0.56448 0.0
O340 O 0.10196 0.23712 0.56056 0.0
C341 C 0.11724 0.28721 0.63396 0.0
C342 C 0.13889 0.21634 0.60899 0.0
C343 C 0.0547 0.24926 0.60478 0.0
O344 O 0.12343 0.28908 0.6112 0.0
O345 O 0.10592 0.26726 0.63978 0.0
O346 O 0.06829 0.23004 0.60283 0.0
O347 O 0.06643 0.26975 0.60492 0.0
C348 C 0.10653 0.25763 0.54989 0.0
O349 O 0.11652 0.21447 0.61641 0.0
O350 O 0.14422 0.23656 0.59803 0.0
In351 In 0.75269 0.10629 0.60428 0.0
O352 O 0.77346 0.06882 0.60693 0.0
O353 O 0.7337 0.06836 0.60573 0.0
C354 C 0.78927 0.13806 0.6177 0.0
C355 C 0.71632 0.11792 0.63684 0.0
C356 C 0.75038 0.10971 0.55395 0.0
O357 O 0.78918 0.11542 0.62451 0.0
O358 O 0.77052 0.14487 0.60505 0.0
O359 O 0.73131 0.11248 0.56761 0.0
O360 O 0.77053 0.10604 0.56563 0.0
C361 C 0.75363 0.05591 0.60661 0.0
O362 O 0.71503 0.12389 0.61398 0.0
O363 O 0.73632 0.10725 0.64342 0.0
In364 In 0.89711 0.24921 0.39804 0.0
O365 O 0.87967 0.2866 0.38715 0.0
O366 O 0.89663 0.26462 0.35845 0.0
C367 C 0.89387 0.25238 0.44833 0.0
C368 C 0.94731 0.24551 0.39484 0.0
C369 C 0.86381 0.21325 0.38711 0.0
O370 O 0.89332 0.27156 0.43453 0.0
O371 O 0.89555 0.2319 0.43679 0.0
O372 O 0.8866 0.2115 0.38109 0.0
O373 O 0.85763 0.23348 0.39763 0.0
C374 C 0.88572 0.28468 0.36438 0.0
O375 O 0.93315 0.22664 0.39293 0.0
O376 O 0.93618 0.26604 0.39794 0.0
In377 In 0.74962 0.89433 0.3916 0.0
O378 O 0.72689 0.88628 0.42693 0.0
O379 O 0.76497 0.89756 0.43111 0.0
C380 C 0.71388 0.88595 0.35714 0.0
C381 C 0.78398 0.85879 0.38281 0.0
C382 C 0.75606 0.94422 0.38799 0.0
O383 O 0.71008 0.88294 0.38024 0.0
O384 O 0.73582 0.89238 0.35129 0.0
O385 O 0.77359 0.92905 0.38358 0.0
O386 O 0.73551 0.9343 0.39395 0.0
C387 C 0.74475 0.8913 0.4416 0.0
O388 O 0.78666 0.88105 0.37538 0.0
O389 O 0.76363 0.85418 0.39389 0.0
In390 In 0.10158 0.75065 0.39391 0.0
O391 O 0.11793 0.71266 0.38399 0.0
O392 O 0.1046 0.73584 0.35423 0.0
C393 C 0.10491 0.74465 0.44385 0.0
C394 C 0.05129 0.75488 0.39075 0.0
C395 C 0.13502 0.78649 0.38306 0.0
O396 O 0.10484 0.72621 0.42905 0.0
O397 O 0.1035 0.76576 0.4335 0.0
O398 O 0.11255 0.78775 0.37575 0.0
O399 O 0.14077 0.76686 0.39482 0.0
C400 C 0.11387 0.71513 0.3608 0.0
O401 O 0.06518 0.77345 0.39533 0.0
O402 O 0.06271 0.73467 0.38698 0.0
In403 In 0.25096 0.10285 0.397 0.0
O404 O 0.2725 0.10957 0.43354 0.0
O405 O 0.23304 0.10405 0.43543 0.0
C406 C 0.28564 0.11212 0.36178 0.0
C407 C 0.21542 0.13603 0.38492 0.0
C408 C 0.24855 0.05244 0.39603 0.0
O409 O 0.2886 0.11898 0.38426 0.0
O410 O 0.26504 0.10152 0.35705 0.0
O411 O 0.22936 0.06593 0.39318 0.0
O412 O 0.26869 0.06434 0.39912 0.0
C413 C 0.25323 0.10762 0.44712 0.0
O414 O 0.21381 0.11319 0.37889 0.0
O415 O 0.23533 0.14228 0.39607 0.0
In416 In 0.60417 0.89506 0.74722 0.0
O417 O 0.61094 0.8842 0.78784 0.0
O418 O 0.60608 0.85486 0.76103 0.0
C419 C 0.61018 0.94511 0.75122 0.0
C420 C 0.55438 0.89014 0.74205 0.0
C421 C 0.63998 0.88621 0.71301 0.0
O422 O 0.62041 0.93009 0.76634 0.0
O423 O 0.59728 0.93494 0.73429 0.0
O424 O 0.61737 0.88946 0.70699 0.0
O425 O 0.6443 0.88628 0.73621 0.0
C426 C 0.60967 0.86094 0.7836 0.0
O427 O 0.56936 0.88199 0.72564 0.0
O428 O 0.56455 0.90039 0.76076 0.0
In429 In 0.10121 0.60236 0.74855 0.0
O430 O 0.10662 0.61654 0.70861 0.0
O431 O 0.11007 0.6428 0.73843 0.0
C432 C 0.10513 0.55269 0.74196 0.0
C433 C 0.05153 0.60873 0.75427 0.0
C434 C 0.1367 0.60649 0.78374 0.0
O435 O 0.11295 0.56806 0.72572 0.0
O436 O 0.09553 0.56239 0.76123 0.0
O437 O 0.11373 0.60904 0.78874 0.0
O438 O 0.14176 0.60227 0.76104 0.0
C439 C 0.11014 0.63898 0.71515 0.0
O440 O 0.06715 0.61822 0.76932 0.0
O441 O 0.06092 0.59632 0.73659 0.0
In442 In 0.39735 0.10246 0.74819 0.0
O443 O 0.43183 0.11657 0.72681 0.0
O444 O 0.43736 0.09674 0.76096 0.0
C445 C 0.36055 0.10805 0.7147 0.0
C446 C 0.38927 0.13864 0.78218 0.0
C447 C 0.39355 0.05257 0.7522 0.0
O448 O 0.38329 0.11127 0.70897 0.0
O449 O 0.35641 0.10256 0.73733 0.0
O450 O 0.38707 0.06695 0.76987 0.0
O451 O 0.40161 0.06339 0.73282 0.0
C452 C 0.44712 0.10779 0.74258 0.0
O453 O 0.39175 0.11594 0.7883 0.0
O454 O 0.38989 0.14287 0.75897 0.0
In455 In 0.89579 0.39713 0.74996 0.0
O456 O 0.89056 0.43331 0.72753 0.0
O457 O 0.89509 0.43625 0.76696 0.0
C458 C 0.88299 0.36426 0.71418 0.0
C459 C 0.86361 0.38458 0.7865 0.0
C460 C 0.9462 0.39339 0.75167 0.0
O461 O 0.87755 0.38721 0.71267 0.0
O462 O 0.89393 0.35773 0.73408 0.0
O463 O 0.93295 0.39337 0.77122 0.0
O464 O 0.93407 0.39485 0.73151 0.0
C465 C 0.89213 0.44741 0.74642 0.0
O466 O 0.88671 0.37978 0.78792 0.0
O467 O 0.85664 0.39494 0.76646 0.0
In468 In 0.60659 0.10476 0.24886 0.0
O469 O 0.5716 0.11703 0.27029 0.0
O470 O 0.56723 0.09922 0.23473 0.0
C471 C 0.64283 0.11356 0.28277 0.0
C472 C 0.61173 0.13876 0.21231 0.0
C473 C 0.61062 0.05459 0.24515 0.0
O474 O 0.62004 0.11205 0.2888 0.0
O475 O 0.64715 0.11194 0.25963 0.0
O476 O 0.62055 0.06915 0.22937 0.0
O477 O 0.5991 0.06529 0.26269 0.0
C478 C 0.55684 0.10897 0.25356 0.0
O479 O 0.61614 0.11578 0.20886 0.0
O480 O 0.60549 0.14472 0.23432 0.0
In481 In 0.89654 0.60225 0.24875 0.0
O482 O 0.9315 0.61727 0.22912 0.0
O483 O 0.93629 0.59583 0.26243 0.0
C484 C 0.86192 0.60996 0.21298 0.0
C485 C 0.88621 0.63539 0.2852 0.0
C486 C 0.89383 0.55216 0.25225 0.0
O487 O 0.88493 0.61384 0.20929 0.0
O488 O 0.85628 0.60304 0.23481 0.0
O489 O 0.8886 0.56631 0.27045 0.0
O490 O 0.90047 0.56319 0.23246 0.0
C491 C 0.94643 0.60783 0.24481 0.0
O492 O 0.8804 0.61256 0.28689 0.0
O493 O 0.89652 0.64168 0.26494 0.0
In494 In 0.39458 0.89525 0.24844 0.0
O495 O 0.38975 0.9322 0.22741 0.0
O496 O 0.3956 0.93345 0.26685 0.0
C497 C 0.38566 0.86246 0.21131 0.0
C498 C 0.35896 0.88628 0.28271 0.0
C499 C 0.44438 0.89071 0.2543 0.0
O500 O 0.38171 0.88559 0.20882 0.0
O501 O 0.39319 0.85575 0.23262 0.0
O502 O 0.42914 0.88234 0.27029 0.0
O503 O 0.43461 0.90105 0.23553 0.0
C504 C 0.39223 0.94548 0.24683 0.0
O505 O 0.38158 0.88043 0.28615 0.0
O506 O 0.35404 0.89572 0.26161 0.0
In507 In 0.10123 0.39614 0.24941 0.0
O508 O 0.11296 0.38128 0.28751 0.0
O509 O 0.1079 0.35509 0.2576 0.0
C510 C 0.10294 0.44615 0.25458 0.0
C511 C 0.05113 0.3903 0.2483 0.0
C512 C 0.13667 0.39128 0.21451 0.0
O513 O 0.10982 0.43163 0.27197 0.0
O514 O 0.09538 0.43544 0.23495 0.0
O515 O 0.11427 0.38456 0.21055 0.0
O516 O 0.14123 0.39961 0.23617 0.0
C517 C 0.11275 0.35865 0.28048 0.0
O518 O 0.06412 0.39051 0.22852 0.0
O519 O 0.06345 0.39221 0.26832 0.0
In520 In 0.7467 0.60157 0.89663 0.0
O521 O 0.70663 0.612 0.88633 0.0
O522 O 0.73265 0.64159 0.89305 0.0
C523 C 0.74448 0.55133 0.89391 0.0
C524 C 0.75186 0.60745 0.94628 0.0
C525 C 0.78151 0.60917 0.86126 0.0
O526 O 0.72635 0.56492 0.88717 0.0
O527 O 0.7634 0.56305 0.90182 0.0
O528 O 0.78601 0.61207 0.88427 0.0
O529 O 0.75927 0.60315 0.85592 0.0
C530 C 0.71049 0.63528 0.88783 0.0
O531 O 0.76773 0.61602 0.93101 0.0
O532 O 0.73338 0.59638 0.93662 0.0
In533 In 0.74765 0.39446 0.10361 0.0
O534 O 0.72668 0.42847 0.11929 0.0
O535 O 0.76008 0.43477 0.09851 0.0
C536 C 0.71168 0.35981 0.10796 0.0
C537 C 0.78099 0.38527 0.14017 0.0
C538 C 0.75406 0.39027 0.05392 0.0
O539 O 0.70727 0.38294 0.11015 0.0
O540 O 0.73426 0.35407 0.10392 0.0
O541 O 0.77033 0.38248 0.06923 0.0
O542 O 0.73486 0.39983 0.06371 0.0
C543 C 0.74203 0.44411 0.11039 0.0
O544 O 0.78762 0.39046 0.11811 0.0
O545 O 0.7577 0.38365 0.14352 0.0
In546 In 0.6025 0.74847 0.10226 0.0
O547 O 0.61159 0.76996 0.06648 0.0
O548 O 0.59821 0.73243 0.06308 0.0
C549 C 0.6109 0.7851 0.13578 0.0
C550 C 0.63761 0.71335 0.11015 0.0
C551 C 0.55269 0.7436 0.1077 0.0
O552 O 0.61545 0.78784 0.11278 0.0
O553 O 0.60303 0.76375 0.14202 0.0
O554 O 0.56786 0.72829 0.11735 0.0
O555 O 0.56257 0.76123 0.0955 0.0
C556 C 0.60565 0.75204 0.05221 0.0
O557 O 0.6146 0.70918 0.11348 0.0
O558 O 0.64305 0.73539 0.10365 0.0
In559 In 0.24936 0.60314 0.10196 0.0
O560 O 0.20939 0.6116 0.11409 0.0
O561 O 0.23599 0.60144 0.14218 0.0
C562 C 0.24123 0.61018 0.05271 0.0
C563 C 0.2572 0.55374 0.10691 0.0
C564 C 0.2836 0.63938 0.10978 0.0
O565 O 0.22647 0.61863 0.06911 0.0
O566 O 0.25987 0.59849 0.06111 0.0
O567 O 0.28953 0.61773 0.10254 0.0
O568 O 0.26064 0.64252 0.11397 0.0
C569 C 0.21379 0.60758 0.13698 0.0
O570 O 0.27154 0.56973 0.11689 0.0
O571 O 0.23921 0.5626 0.09448 0.0
In572 In 0.39224 0.24765 0.10238 0.0
O573 O 0.37561 0.22657 0.06878 0.0
O574 O 0.39814 0.25876 0.06191 0.0
C575 C 0.3881 0.21289 0.13836 0.0
C576 C 0.3562 0.28177 0.11035 0.0
C577 C 0.44191 0.2547 0.10591 0.0
O578 O 0.38655 0.2074 0.11541 0.0
O579 O 0.39142 0.2358 0.14315 0.0
O580 O 0.42652 0.27043 0.11456 0.0
O581 O 0.43228 0.23568 0.09568 0.0
C582 C 0.38533 0.24111 0.05286 0.0
O583 O 0.37884 0.28784 0.1073 0.0
O584 O 0.35189 0.25855 0.11031 0.0
In585 In 0.24624 0.392 0.89781 0.0
O586 O 0.22338 0.3796 0.93184 0.0
O587 O 0.25927 0.396 0.93802 0.0
C588 C 0.21142 0.38342 0.86246 0.0
C589 C 0.283 0.35841 0.89107 0.0
C590 C 0.25069 0.44195 0.89313 0.0
O591 O 0.20706 0.38058 0.88549 0.0
O592 O 0.23354 0.38979 0.85712 0.0
O593 O 0.26695 0.42711 0.88464 0.0
O594 O 0.23222 0.4317 0.90367 0.0
C595 C 0.23977 0.38656 0.94739 0.0
O596 O 0.28695 0.38168 0.89086 0.0
O597 O 0.26044 0.35196 0.89387 0.0
In598 In 0.60208 0.25126 0.89204 0.0
O599 O 0.61725 0.21295 0.88077 0.0
O600 O 0.60059 0.23545 0.85243 0.0
C601 C 0.60521 0.24696 0.94208 0.0
C602 C 0.55219 0.25736 0.88963 0.0
C603 C 0.63723 0.28605 0.88228 0.0
O604 O 0.60898 0.22863 0.92763 0.0
O605 O 0.60024 0.26739 0.93138 0.0
O606 O 0.61487 0.28832 0.87501 0.0
O607 O 0.64208 0.26595 0.89361 0.0
C608 C 0.61081 0.215 0.85815 0.0
O609 O 0.56722 0.27474 0.88405 0.0
O610 O 0.5622 0.23707 0.89622 0.0
In611 In 0.39351 0.74704 0.89321 0.0
O612 O 0.37862 0.78521 0.88135 0.0
O613 O 0.39418 0.76168 0.8532 0.0
C614 C 0.39001 0.75212 0.94305 0.0
C615 C 0.4435 0.7439 0.88918 0.0
C616 C 0.35983 0.71013 0.8863 0.0
O617 O 0.38314 0.7692 0.92824 0.0
O618 O 0.39841 0.7326 0.93278 0.0
O619 O 0.38297 0.70686 0.88306 0.0
O620 O 0.35354 0.73213 0.89201 0.0
C621 C 0.38466 0.78254 0.85869 0.0
O622 O 0.42908 0.72783 0.87946 0.0
O623 O 0.43279 0.7615 0.90067 0.0
C624 C 0.13648 0.33243 0.31146 0.0
C625 C 0.11389 0.33777 0.29854 0.0
C626 C 0.09158 0.3065 0.32357 0.0
C627 C 0.11454 0.29971 0.33517 0.0
N628 N 0.15946 0.30324 0.33765 0.0
N629 N 0.07064 0.32753 0.28949 0.0
C630 C 0.1372 0.31192 0.3285 0.0
C631 C 0.09174 0.32392 0.30358 0.0
N632 N 0.15718 0.34701 0.30748 0.0
N633 N 0.06933 0.29769 0.33277 0.0
H634 H 0.06892 0.34142 0.27594 0.0
H635 H 0.05523 0.31553 0.29003 0.0
H636 H 0.068 0.28546 0.34785 0.0
H637 H 0.05193 0.30441 0.32713 0.0
H638 H 0.17334 0.34597 0.31834 0.0
H639 H 0.15769 0.36127 0.29414 0.0
H640 H 0.17685 0.30965 0.33161 0.0
H641 H 0.16066 0.28804 0.34985 0.0
C642 C 0.6809 0.13168 0.3403 0.0
C643 C 0.70004 0.1133 0.33949 0.0
C644 C 0.6815 0.09502 0.30165 0.0
C645 C 0.66314 0.11424 0.30162 0.0
N646 N 0.64783 0.15338 0.31794 0.0
N647 N 0.72107 0.07983 0.31731 0.0
C648 C 0.66346 0.13325 0.32019 0.0
C649 C 0.70123 0.09586 0.31942 0.0
N650 N 0.67942 0.14766 0.36027 0.0
N651 N 0.67923 0.07497 0.28581 0.0
H652 H 0.73502 0.07798 0.33079 0.0
H653 H 0.72466 0.06934 0.30126 0.0
H654 H 0.66519 0.07323 0.2724 0.0
H655 H 0.68996 0.05878 0.28736 0.0
H656 H 0.6642 0.15935 0.36356 0.0
H657 H 0.69288 0.14836 0.37441 0.0
H658 H 0.64879 0.16915 0.32937 0.0
H659 H 0.63523 0.15539 0.30314 0.0
C660 C 0.89781 0.66959 0.34637 0.0
C661 C 0.88111 0.69007 0.3438 0.0
C662 C 0.86669 0.67399 0.30328 0.0
C663 C 0.88301 0.65323 0.30609 0.0
N664 N 0.91155 0.62902 0.33148 0.0
N665 N 0.84675 0.71 0.32266 0.0
C666 C 0.89759 0.65021 0.32813 0.0
C667 C 0.86469 0.69176 0.32304 0.0
N668 N 0.91505 0.66948 0.36536 0.0
N669 N 0.85334 0.67679 0.2816 0.0
H670 H 0.84477 0.72309 0.33703 0.0
H671 H 0.83261 0.71107 0.3093 0.0
H672 H 0.85304 0.66329 0.26748 0.0
H673 H 0.84342 0.69289 0.27701 0.0
H674 H 0.92986 0.65691 0.36645 0.0
H675 H 0.91578 0.6831 0.37933 0.0
H676 H 0.91987 0.6242 0.34843 0.0
H677 H 0.91373 0.61527 0.31781 0.0
C678 C 0.31961 0.8685 0.3013 0.0
C679 C 0.34022 0.88523 0.30302 0.0
C680 C 0.32295 0.90343 0.34141 0.0
C681 C 0.30333 0.88549 0.34075 0.0
N682 N 0.28441 0.84881 0.32241 0.0
N683 N 0.36351 0.91658 0.3261 0.0
C684 C 0.30197 0.86746 0.32127 0.0
C685 C 0.34259 0.90194 0.3236 0.0
N686 N 0.31687 0.85372 0.28055 0.0
N687 N 0.32202 0.92289 0.35809 0.0
H688 H 0.3776 0.91762 0.31267 0.0
H689 H 0.36777 0.92654 0.34233 0.0
H690 H 0.30775 0.92507 0.37121 0.0
H691 H 0.33409 0.93823 0.35752 0.0
H692 H 0.30084 0.84325 0.27675 0.0
H693 H 0.33015 0.85296 0.26626 0.0
H694 H 0.28392 0.83359 0.31023 0.0
H695 H 0.27134 0.84744 0.33686 0.0
C696 C 0.1323 0.66126 0.68013 0.0
C697 C 0.11165 0.6596 0.69678 0.0
C698 C 0.09026 0.69303 0.67408 0.0
C699 C 0.11175 0.69629 0.65877 0.0
N700 N 0.15491 0.68658 0.64987 0.0
N701 N 0.07328 0.67742 0.71293 0.0
C702 C 0.13327 0.68119 0.66245 0.0
C703 C 0.09147 0.67672 0.69493 0.0
N704 N 0.15098 0.64383 0.68126 0.0
N705 N 0.06805 0.70411 0.66776 0.0
H706 H 0.07267 0.66528 0.72816 0.0
H707 H 0.05986 0.69152 0.71389 0.0
H708 H 0.06568 0.71515 0.65187 0.0
H709 H 0.05118 0.70008 0.67669 0.0
H710 H 0.16498 0.64227 0.6678 0.0
H711 H 0.1517 0.62995 0.69498 0.0
H712 H 0.17193 0.67788 0.65357 0.0
H713 H 0.15643 0.70137 0.63721 0.0
C714 C 0.30367 0.08855 0.67682 0.0
C715 C 0.30115 0.1093 0.66038 0.0
C716 C 0.33621 0.13047 0.68132 0.0
C717 C 0.34025 0.10865 0.6959 0.0
N718 N 0.33129 0.06501 0.70385 0.0
N719 N 0.31602 0.14921 0.64522 0.0
C720 C 0.32484 0.0872 0.69278 0.0
C721 C 0.31782 0.12999 0.66202 0.0
N722 N 0.28595 0.07001 0.67722 0.0
N723 N 0.34909 0.15198 0.68671 0.0
H724 H 0.30171 0.15043 0.63198 0.0
H725 H 0.32946 0.16326 0.64348 0.0
H726 H 0.36238 0.15316 0.70099 0.0
H727 H 0.34515 0.16923 0.67856 0.0
H728 H 0.28534 0.05614 0.69092 0.0
H729 H 0.27064 0.06939 0.66516 0.0
H730 H 0.32237 0.04808 0.69999 0.0
H731 H 0.34721 0.06284 0.71494 0.0
C732 C 0.89178 0.33189 0.65141 0.0
C733 C 0.87934 0.30889 0.65627 0.0
C734 C 0.86419 0.32522 0.69638 0.0
C735 C 0.87952 0.34665 0.6931 0.0
N736 N 0.90993 0.36971 0.66876 0.0
N737 N 0.85396 0.28294 0.68308 0.0
C738 C 0.89353 0.35007 0.67077 0.0
C739 C 0.8655 0.30539 0.67865 0.0
N740 N 0.90234 0.33622 0.62848 0.0
N741 N 0.84793 0.32424 0.71611 0.0
H742 H 0.85321 0.26866 0.66977 0.0
H743 H 0.84612 0.27801 0.70022 0.0
H744 H 0.84624 0.33884 0.72897 0.0
H745 H 0.8346 0.3102 0.71851 0.0
H746 H 0.90896 0.35369 0.62286 0.0
H747 H 0.90283 0.32293 0.61421 0.0
H748 H 0.92301 0.37141 0.65441 0.0
H749 H 0.91199 0.38349 0.68243 0.0
C750 C 0.68113 0.86498 0.6587 0.0
C751 C 0.69686 0.88626 0.65609 0.0
C752 C 0.67771 0.90546 0.69309 0.0
C753 C 0.66026 0.88539 0.6942 0.0
N754 N 0.64371 0.84689 0.6772 0.0
N755 N 0.70673 0.92899 0.66761 0.0
C756 C 0.66142 0.86542 0.67666 0.0
C757 C 0.6944 0.90703 0.67253 0.0
N758 N 0.68572 0.84398 0.64478 0.0
N759 N 0.67834 0.92327 0.71154 0.0
H760 H 0.71871 0.93146 0.65245 0.0
H761 H 0.7032 0.94567 0.67707 0.0
H762 H 0.6655 0.92418 0.72616 0.0
H763 H 0.69281 0.93626 0.71337 0.0
H764 H 0.67662 0.82695 0.64756 0.0
H765 H 0.70023 0.84291 0.63175 0.0
H766 H 0.6417 0.83349 0.66317 0.0
H767 H 0.63005 0.84566 0.6911 0.0
C768 C 0.33227 0.09055 0.31288 0.0
C769 C 0.34334 0.11365 0.30568 0.0
C770 C 0.31606 0.13622 0.33496 0.0
C771 C 0.30604 0.11297 0.34307 0.0
N772 N 0.30835 0.06781 0.34387 0.0
N773 N 0.34847 0.15812 0.31164 0.0
C774 C 0.31509 0.09008 0.33309 0.0
C775 C 0.33614 0.1364 0.31738 0.0
N776 N 0.33818 0.06892 0.30047 0.0
N777 N 0.3056 0.15808 0.34319 0.0
H778 H 0.36237 0.15912 0.29796 0.0
H779 H 0.34607 0.17481 0.32142 0.0
H780 H 0.29087 0.15859 0.356 0.0
H781 H 0.31018 0.17563 0.33605 0.0
H782 H 0.32809 0.05232 0.3024 0.0
H783 H 0.35225 0.06771 0.28703 0.0
H784 H 0.31653 0.05071 0.33938 0.0
H785 H 0.29631 0.06653 0.35914 0.0
C786 C 0.89975 0.3265 0.34882 0.0
C787 C 0.88332 0.30564 0.34649 0.0
C788 C 0.86666 0.3223 0.30705 0.0
C789 C 0.88389 0.34251 0.30876 0.0
N790 N 0.91492 0.36594 0.33196 0.0
N791 N 0.85204 0.28248 0.32366 0.0
C792 C 0.89973 0.34533 0.32997 0.0
C793 C 0.86692 0.30328 0.32572 0.0
N794 N 0.91664 0.3273 0.36813 0.0
N795 N 0.84934 0.32201 0.28814 0.0
H796 H 0.85067 0.26905 0.33776 0.0
H797 H 0.84178 0.27784 0.30775 0.0
H798 H 0.84837 0.33589 0.27444 0.0
H799 H 0.83473 0.30917 0.28682 0.0
H800 H 0.93117 0.3402 0.36959 0.0
H801 H 0.91717 0.31408 0.38247 0.0
H802 H 0.92447 0.37102 0.34817 0.0
H803 H 0.91739 0.37893 0.31763 0.0
C804 C 0.67487 0.90426 0.33922 0.0
C805 C 0.69342 0.8853 0.33858 0.0
C806 C 0.67516 0.86799 0.30014 0.0
C807 C 0.65579 0.88607 0.30165 0.0
N808 N 0.63504 0.91951 0.3239 0.0
N809 N 0.70981 0.84719 0.32099 0.0
C810 C 0.6549 0.90352 0.32169 0.0
C811 C 0.69322 0.86662 0.3197 0.0
N812 N 0.67714 0.92384 0.35564 0.0
N813 N 0.67635 0.85234 0.2799 0.0
H814 H 0.72323 0.84569 0.33511 0.0
H815 H 0.70917 0.83159 0.3093 0.0
H816 H 0.66267 0.85192 0.26596 0.0
H817 H 0.69149 0.84069 0.27613 0.0
H818 H 0.66609 0.93986 0.35494 0.0
H819 H 0.69145 0.92521 0.36884 0.0
H820 H 0.63173 0.93039 0.33974 0.0
H821 H 0.62081 0.92087 0.31061 0.0
C822 C 0.10099 0.65377 0.3272 0.0
C823 C 0.11638 0.65679 0.30574 0.0
C824 C 0.13349 0.69584 0.32293 0.0
C825 C 0.11626 0.69411 0.34302 0.0
N826 N 0.08146 0.67327 0.36312 0.0
N827 N 0.14636 0.68079 0.28199 0.0
C828 C 0.09965 0.6734 0.34507 0.0
C829 C 0.13242 0.67786 0.30327 0.0
N830 N 0.08733 0.63227 0.33035 0.0
N831 N 0.15131 0.71428 0.32313 0.0
H832 H 0.14712 0.66727 0.26789 0.0
H833 H 0.1562 0.69705 0.27765 0.0
H834 H 0.15266 0.72747 0.33748 0.0
H835 H 0.16597 0.71536 0.31034 0.0
H836 H 0.07844 0.62755 0.34704 0.0
H837 H 0.08606 0.61819 0.31689 0.0
H838 H 0.06673 0.66048 0.36357 0.0
H839 H 0.07977 0.68711 0.37678 0.0
C840 C 0.33538 0.86301 0.68148 0.0
C841 C 0.33879 0.88444 0.69685 0.0
C842 C 0.30199 0.90408 0.67789 0.0
C843 C 0.30051 0.88414 0.66037 0.0
N844 N 0.31667 0.84531 0.64398 0.0
N845 N 0.32881 0.92776 0.70559 0.0
C846 C 0.31755 0.86383 0.66165 0.0
C847 C 0.32294 0.90558 0.69411 0.0
N848 N 0.34834 0.84154 0.68651 0.0
N849 N 0.28355 0.92176 0.67908 0.0
H850 H 0.34471 0.93036 0.7166 0.0
H851 H 0.31944 0.94446 0.70194 0.0
H852 H 0.26817 0.92211 0.66711 0.0
H853 H 0.2824 0.93494 0.69343 0.0
H854 H 0.34488 0.82454 0.67759 0.0
H855 H 0.36106 0.84008 0.70127 0.0
H856 H 0.33043 0.83165 0.64211 0.0
H857 H 0.30282 0.84437 0.63022 0.0
C858 C 0.1365 0.32386 0.69207 0.0
C859 C 0.12028 0.34473 0.69001 0.0
C860 C 0.10629 0.33027 0.64869 0.0
C861 C 0.12032 0.30795 0.65206 0.0
N862 N 0.14813 0.28259 0.67691 0.0
N863 N 0.08727 0.36651 0.66809 0.0
C864 C 0.1353 0.30451 0.67375 0.0
C865 C 0.1048 0.34783 0.66861 0.0
N866 N 0.15351 0.32298 0.7112 0.0
N867 N 0.09393 0.33454 0.62666 0.0
H868 H 0.08527 0.37981 0.68221 0.0
H869 H 0.07322 0.36773 0.65463 0.0
H870 H 0.09256 0.32145 0.61226 0.0
H871 H 0.08632 0.35182 0.62186 0.0
H872 H 0.16751 0.30955 0.71264 0.0
H873 H 0.15495 0.33706 0.72468 0.0
H874 H 0.15693 0.27754 0.69354 0.0
H875 H 0.14904 0.26876 0.66313 0.0
C876 C 0.69635 0.13553 0.6753 0.0
C877 C 0.69475 0.11972 0.65404 0.0
C878 C 0.65436 0.10329 0.66855 0.0
C879 C 0.65729 0.11711 0.6911 0.0
N880 N 0.68086 0.14591 0.71677 0.0
N881 N 0.67375 0.08688 0.63099 0.0
C882 C 0.67823 0.13316 0.69469 0.0
C883 C 0.67397 0.10344 0.65058 0.0
N884 N 0.71485 0.15324 0.67649 0.0
N885 N 0.63299 0.08968 0.66444 0.0
H886 H 0.68738 0.0866 0.61705 0.0
H887 H 0.661 0.07221 0.62928 0.0
H888 H 0.61906 0.08717 0.67785 0.0
H889 H 0.62825 0.082 0.64715 0.0
H890 H 0.71598 0.16696 0.69029 0.0
H891 H 0.7281 0.15554 0.66233 0.0
H892 H 0.697 0.15558 0.72191 0.0
H893 H 0.66714 0.14594 0.73066 0.0
C894 C 0.90243 0.69791 0.67825 0.0
C895 C 0.88171 0.69983 0.66169 0.0
C896 C 0.8617 0.66396 0.68235 0.0
C897 C 0.88161 0.66337 0.69997 0.0
N898 N 0.91797 0.68368 0.71816 0.0
N899 N 0.83952 0.68794 0.65075 0.0
C900 C 0.90088 0.68171 0.69917 0.0
C901 C 0.86072 0.68372 0.66446 0.0
N902 N 0.92441 0.71009 0.6731 0.0
N903 N 0.84371 0.64571 0.68275 0.0
H904 H 0.83797 0.70259 0.63795 0.0
H905 H 0.82274 0.67841 0.65364 0.0
H906 H 0.84276 0.63206 0.69668 0.0
H907 H 0.83049 0.64333 0.6686 0.0
H908 H 0.94094 0.70693 0.68296 0.0
H909 H 0.92716 0.72121 0.65733 0.0
H910 H 0.9304 0.69867 0.71975 0.0
H911 H 0.91852 0.67174 0.73352 0.0
C912 C 0.32035 0.34 0.1298 0.0
C913 C 0.29986 0.33904 0.11288 0.0
C914 C 0.31605 0.3002 0.09457 0.0
C915 C 0.33601 0.3006 0.11217 0.0
N916 N 0.35451 0.31764 0.14968 0.0
N917 N 0.27576 0.31637 0.08181 0.0
C918 C 0.33747 0.31965 0.13065 0.0
C919 C 0.29685 0.31846 0.09626 0.0
N920 N 0.32344 0.36036 0.14505 0.0
N921 N 0.31621 0.28342 0.07518 0.0
H922 H 0.26205 0.33014 0.08063 0.0
H923 H 0.27097 0.30015 0.07208 0.0
H924 H 0.32962 0.26947 0.07308 0.0
H925 H 0.3042 0.2845 0.05985 0.0
H926 H 0.3396 0.36372 0.15545 0.0
H927 H 0.31031 0.37472 0.14639 0.0
H928 H 0.35494 0.3295 0.16515 0.0
H929 H 0.36688 0.30263 0.15126 0.0
C930 C 0.34205 0.67137 0.90562 0.0
C931 C 0.3416 0.6893 0.88599 0.0
C932 C 0.3054 0.66818 0.86708 0.0
C933 C 0.30446 0.65172 0.88791 0.0
N934 N 0.31935 0.63969 0.92886 0.0
N935 N 0.32209 0.70649 0.84911 0.0
C936 C 0.32225 0.65367 0.90758 0.0
C937 C 0.32301 0.68822 0.86703 0.0
N938 N 0.36129 0.67136 0.92255 0.0
N939 N 0.29008 0.66401 0.84696 0.0
H940 H 0.33556 0.72059 0.84759 0.0
H941 H 0.3073 0.70854 0.83658 0.0
H942 H 0.27717 0.64933 0.84627 0.0
H943 H 0.29151 0.6737 0.83011 0.0
H944 H 0.36434 0.65693 0.93529 0.0
H945 H 0.37534 0.68493 0.92294 0.0
H946 H 0.32973 0.64253 0.94513 0.0
H947 H 0.30511 0.62652 0.93121 0.0
C948 C 0.30481 0.32255 0.87029 0.0
C949 C 0.30355 0.34 0.89027 0.0
C950 C 0.34152 0.32228 0.90897 0.0
C951 C 0.3416 0.30356 0.8901 0.0
N952 N 0.32265 0.28409 0.85397 0.0
N953 N 0.31811 0.35451 0.93059 0.0
C954 C 0.323 0.30314 0.87111 0.0
C955 C 0.32134 0.33951 0.91005 0.0
N956 N 0.28925 0.32517 0.85011 0.0
N957 N 0.36064 0.32351 0.926 0.0
H958 H 0.30361 0.36742 0.93224 0.0
H959 H 0.32852 0.35282 0.94699 0.0
H960 H 0.37491 0.31028 0.92706 0.0
H961 H 0.36333 0.33853 0.93816 0.0
H962 H 0.29084 0.31472 0.83373 0.0
H963 H 0.27583 0.33928 0.84885 0.0
H964 H 0.30794 0.28095 0.84155 0.0
H965 H 0.33655 0.27044 0.85298 0.0
C966 C 0.65295 0.32834 0.89486 0.0
C967 C 0.65587 0.30643 0.88008 0.0
C968 C 0.69582 0.32236 0.86387 0.0
C969 C 0.69414 0.34289 0.88062 0.0
N970 N 0.67284 0.36427 0.91427 0.0
N971 N 0.68012 0.2815 0.85137 0.0
C972 C 0.67301 0.34579 0.89647 0.0
C973 C 0.67733 0.30314 0.86477 0.0
N974 N 0.63115 0.33234 0.90769 0.0
N975 N 0.71477 0.3217 0.84667 0.0
H976 H 0.66627 0.26772 0.85044 0.0
H977 H 0.69654 0.27655 0.84216 0.0
H978 H 0.72841 0.33566 0.8455 0.0
H979 H 0.71591 0.30859 0.83229 0.0
H980 H 0.62664 0.34933 0.91611 0.0
H981 H 0.61666 0.31928 0.90867 0.0
H982 H 0.65961 0.3654 0.92852 0.0
H983 H 0.68702 0.37757 0.91614 0.0
C984 C 0.67107 0.65406 0.90456 0.0
C985 C 0.69012 0.65385 0.88604 0.0
C986 C 0.67306 0.69211 0.86731 0.0
C987 C 0.6533 0.69157 0.88506 0.0
N988 N 0.63125 0.67056 0.91853 0.0
N989 N 0.70742 0.66983 0.84759 0.0
C990 C 0.65152 0.67197 0.90292 0.0
C991 C 0.69064 0.67212 0.86679 0.0
N992 N 0.67252 0.63818 0.92463 0.0
N993 N 0.67511 0.71186 0.85114 0.0
H994 H 0.7204 0.65529 0.84659 0.0
H995 H 0.70728 0.68103 0.83165 0.0
H996 H 0.66177 0.72606 0.85001 0.0
H997 H 0.69061 0.71498 0.83976 0.0
H998 H 0.66112 0.63956 0.94036 0.0
H999 H 0.68651 0.62476 0.92668 0.0
H1000 H 0.62731 0.65507 0.92969 0.0
H1001 H 0.61731 0.68416 0.91928 0.0
C1002 C 0.67544 0.6937 0.12979 0.0
C1003 C 0.65655 0.69327 0.11108 0.0
C1004 C 0.67578 0.65645 0.09165 0.0
C1005 C 0.69367 0.65584 0.11131 0.0
N1006 N 0.70912 0.67146 0.15073 0.0
N1007 N 0.63688 0.67316 0.07556 0.0
C1008 C 0.6932 0.67389 0.1308 0.0
C1009 C 0.65608 0.67422 0.09252 0.0
N1010 N 0.67642 0.71312 0.14649 0.0
N1011 N 0.67846 0.64097 0.07137 0.0
H1012 H 0.62309 0.68684 0.07407 0.0
H1013 H 0.63367 0.65791 0.06381 0.0
H1014 H 0.69258 0.62763 0.06988 0.0
H1015 H 0.66805 0.64266 0.05498 0.0
H1016 H 0.6913 0.71619 0.15871 0.0
H1017 H 0.66287 0.72713 0.14727 0.0
H1018 H 0.70813 0.68238 0.16684 0.0
H1019 H 0.72232 0.65714 0.15205 0.0
C1020 C 0.33972 0.67885 0.12944 0.0
C1021 C 0.33919 0.69762 0.11066 0.0
C1022 C 0.29992 0.68039 0.09413 0.0
C1023 C 0.30197 0.66005 0.11112 0.0
N1024 N 0.32436 0.6386 0.14393 0.0
N1025 N 0.32103 0.71415 0.0726 0.0
C1026 C 0.3221 0.65885 0.12844 0.0
C1027 C 0.31976 0.69802 0.09247 0.0
N1028 N 0.35635 0.68079 0.14884 0.0
N1029 N 0.27914 0.68283 0.07933 0.0
H1030 H 0.33517 0.7274 0.07029 0.0
H1031 H 0.3093 0.71299 0.05705 0.0
H1032 H 0.26485 0.66957 0.0784 0.0
H1033 H 0.27515 0.69897 0.06915 0.0
H1034 H 0.35607 0.66917 0.16447 0.0
H1035 H 0.36911 0.69552 0.15048 0.0
H1036 H 0.34021 0.63506 0.15471 0.0
H1037 H 0.31088 0.62447 0.14505 0.0
C1038 C 0.69146 0.32226 0.12751 0.0
C1039 C 0.69158 0.34082 0.10851 0.0
C1040 C 0.65283 0.32364 0.09084 0.0
C1041 C 0.6538 0.30393 0.10862 0.0
N1042 N 0.67486 0.28258 0.14232 0.0
N1043 N 0.67516 0.35701 0.06966 0.0
C1044 C 0.67342 0.30264 0.12648 0.0
C1045 C 0.67291 0.34107 0.0896 0.0
N1046 N 0.70798 0.32399 0.14703 0.0
N1047 N 0.63277 0.32565 0.07501 0.0
H1048 H 0.68978 0.36986 0.06782 0.0
H1049 H 0.66384 0.35613 0.05381 0.0
H1050 H 0.61838 0.31245 0.07414 0.0
H1051 H 0.62947 0.34126 0.06382 0.0
H1052 H 0.70725 0.31262 0.16283 0.0
H1053 H 0.72135 0.3382 0.14844 0.0
H1054 H 0.69024 0.27896 0.15373 0.0
H1055 H 0.6612 0.26861 0.14304 0.0
C1056 C 0.59079 0.84139 0.8217 0.0
C1057 C 0.61045 0.84214 0.80386 0.0
C1058 C 0.62938 0.80474 0.82255 0.0
C1059 C 0.61055 0.80491 0.84129 0.0
N1060 N 0.57494 0.8248 0.86081 0.0
N1061 N 0.65032 0.82727 0.78903 0.0
C1062 C 0.59186 0.82379 0.8416 0.0
C1063 C 0.63026 0.82451 0.80471 0.0
N1064 N 0.57032 0.85649 0.81874 0.0
N1065 N 0.6463 0.78557 0.82175 0.0
H1066 H 0.65158 0.8416 0.77581 0.0
H1067 H 0.6666 0.81668 0.79033 0.0
H1068 H 0.64719 0.77162 0.83539 0.0
H1069 H 0.6586 0.78264 0.80693 0.0
H1070 H 0.55401 0.85478 0.82926 0.0
H1071 H 0.56864 0.86951 0.8043 0.0
H1072 H 0.56299 0.83987 0.86381 0.0
H1073 H 0.57377 0.8113 0.87485 0.0
C1074 C 0.17736 0.62761 0.83841 0.0
C1075 C 0.19398 0.60699 0.84025 0.0
C1076 C 0.17158 0.58536 0.80651 0.0
C1077 C 0.15626 0.60678 0.80329 0.0
N1078 N 0.1469 0.64983 0.81312 0.0
N1079 N 0.20968 0.56792 0.82356 0.0
C1080 C 0.15968 0.62832 0.81849 0.0
C1081 C 0.19205 0.58646 0.82342 0.0
N1082 N 0.17854 0.64653 0.85565 0.0
N1083 N 0.16569 0.56346 0.79452 0.0
H1084 H 0.22437 0.56713 0.83636 0.0
H1085 H 0.21086 0.5542 0.80974 0.0
H1086 H 0.15031 0.56154 0.78262 0.0
H1087 H 0.17446 0.54647 0.79824 0.0
H1088 H 0.16504 0.66048 0.85718 0.0
H1089 H 0.19233 0.64757 0.86945 0.0
H1090 H 0.15048 0.66695 0.82177 0.0
H1091 H 0.13407 0.65117 0.79845 0.0
C1092 C 0.40434 0.17952 0.79995 0.0
C1093 C 0.38739 0.15898 0.80094 0.0
C1094 C 0.37028 0.1747 0.84056 0.0
C1095 C 0.3864 0.19581 0.83888 0.0
N1096 N 0.41547 0.22084 0.81473 0.0
N1097 N 0.35062 0.13986 0.81892 0.0
C1098 C 0.40221 0.19911 0.81777 0.0
C1099 C 0.36936 0.15731 0.82038 0.0
N1100 N 0.42362 0.17963 0.78307 0.0
N1101 N 0.3558 0.17131 0.8614 0.0
H1102 H 0.34884 0.12739 0.80398 0.0
H1103 H 0.33547 0.13925 0.83116 0.0
H1104 H 0.35445 0.18456 0.87568 0.0
H1105 H 0.34613 0.15478 0.86518 0.0
H1106 H 0.43847 0.19229 0.78378 0.0
H1107 H 0.42627 0.16583 0.76958 0.0
H1108 H 0.42455 0.22559 0.79814 0.0
H1109 H 0.41599 0.23514 0.82796 0.0
C1110 C 0.84895 0.39568 0.82959 0.0
C1111 C 0.84624 0.38082 0.8077 0.0
C1112 C 0.80609 0.36458 0.82295 0.0
C1113 C 0.80897 0.37915 0.84499 0.0
N1114 N 0.83491 0.40499 0.8717 0.0
N1115 N 0.82555 0.34737 0.78564 0.0
C1116 C 0.83111 0.39335 0.84917 0.0
C1117 C 0.82575 0.36412 0.80501 0.0
N1118 N 0.86759 0.41328 0.83095 0.0
N1119 N 0.7844 0.35149 0.81907 0.0
H1120 H 0.84004 0.34632 0.7726 0.0
H1121 H 0.81237 0.33311 0.7837 0.0
H1122 H 0.77033 0.35016 0.83254 0.0
H1123 H 0.77977 0.34293 0.80217 0.0
H1124 H 0.86865 0.42688 0.84489 0.0
H1125 H 0.88112 0.41569 0.8171 0.0
H1126 H 0.85193 0.41298 0.87694 0.0
H1127 H 0.82171 0.40518 0.88605 0.0
C1128 C 0.59043 0.17531 0.15528 0.0
C1129 C 0.6095 0.19381 0.15376 0.0
C1130 C 0.62986 0.17655 0.19111 0.0
C1131 C 0.6117 0.15711 0.19163 0.0
N1132 N 0.57649 0.1358 0.17267 0.0
N1133 N 0.64933 0.21014 0.16739 0.0
C1134 C 0.59265 0.15572 0.17311 0.0
C1135 C 0.62975 0.19397 0.17095 0.0
N1136 N 0.56941 0.17734 0.14076 0.0
N1137 N 0.64711 0.17841 0.20997 0.0
H1138 H 0.64995 0.22293 0.15264 0.0
H1139 H 0.66587 0.20959 0.17768 0.0
H1140 H 0.64873 0.16515 0.22421 0.0
H1141 H 0.65892 0.19377 0.21235 0.0
H1142 H 0.55354 0.16622 0.14308 0.0
H1143 H 0.56675 0.19161 0.12773 0.0
H1144 H 0.5644 0.13209 0.15782 0.0
H1145 H 0.57616 0.12192 0.18637 0.0
C1146 C 0.84358 0.59233 0.17369 0.0
C1147 C 0.84314 0.61093 0.1927 0.0
C1148 C 0.80581 0.62984 0.17381 0.0
C1149 C 0.80511 0.61006 0.15609 0.0
N1150 N 0.82073 0.57036 0.14118 0.0
N1151 N 0.82321 0.6462 0.21255 0.0
C1152 C 0.82342 0.59084 0.1564 0.0
C1153 C 0.82402 0.62934 0.19328 0.0
N1154 N 0.86316 0.57591 0.17225 0.0
N1155 N 0.78967 0.64955 0.17142 0.0
H1156 H 0.8371 0.64739 0.22623 0.0
H1157 H 0.80819 0.65815 0.2158 0.0
H1158 H 0.77619 0.65055 0.1573 0.0
H1159 H 0.79078 0.66582 0.1821 0.0
H1160 H 0.86619 0.56412 0.15703 0.0
H1161 H 0.87746 0.57505 0.1855 0.0
H1162 H 0.83157 0.55426 0.14274 0.0
H1163 H 0.80626 0.56839 0.12823 0.0
C1164 C 0.40475 0.82737 0.15256 0.0
C1165 C 0.38668 0.80781 0.15255 0.0
C1166 C 0.36562 0.82662 0.1888 0.0
C1167 C 0.38487 0.84486 0.19004 0.0
N1168 N 0.424 0.86185 0.1751 0.0
N1169 N 0.35047 0.7877 0.17064 0.0
C1170 C 0.40462 0.84525 0.17227 0.0
C1171 C 0.36723 0.80713 0.17068 0.0
N1172 N 0.42222 0.82869 0.13386 0.0
N1173 N 0.34551 0.82843 0.20455 0.0
H1174 H 0.34998 0.77405 0.15666 0.0
H1175 H 0.33769 0.78435 0.18495 0.0
H1176 H 0.34389 0.84253 0.218 0.0
H1177 H 0.32958 0.81725 0.20325 0.0
H1178 H 0.43382 0.84411 0.13095 0.0
H1179 H 0.42437 0.81494 0.12017 0.0
H1180 H 0.44058 0.86106 0.16491 0.0
H1181 H 0.42437 0.87569 0.18888 0.0
C1182 C 0.18684 0.41503 0.1702 0.0
C1183 C 0.19334 0.39257 0.15762 0.0
C1184 C 0.1634 0.36888 0.18313 0.0
C1185 C 0.15581 0.39159 0.1946 0.0
N1186 N 0.15665 0.43679 0.19605 0.0
N1187 N 0.18626 0.34868 0.14947 0.0
C1188 C 0.16661 0.41482 0.18742 0.0
C1189 C 0.18104 0.36966 0.1632 0.0
N1190 N 0.19998 0.43659 0.16566 0.0
N1191 N 0.15466 0.34652 0.19212 0.0
H1192 H 0.20005 0.34818 0.13566 0.0
H1193 H 0.17591 0.33218 0.15062 0.0
H1194 H 0.14186 0.34523 0.20681 0.0
H1195 H 0.16149 0.32918 0.18645 0.0
H1196 H 0.19837 0.45269 0.17656 0.0
H1197 H 0.21369 0.43807 0.15185 0.0
H1198 H 0.16189 0.45438 0.18947 0.0
H1199 H 0.14143 0.43756 0.20824 0.0
C1200 C 0.82087 0.59198 0.84297 0.0
C1201 C 0.80147 0.61008 0.8422 0.0
C1202 C 0.81893 0.62783 0.80365 0.0
C1203 C 0.83925 0.61084 0.80545 0.0
N1204 N 0.86147 0.57859 0.82799 0.0
N1205 N 0.78336 0.64723 0.82424 0.0
C1206 C 0.84088 0.59359 0.82558 0.0
C1207 C 0.80078 0.62853 0.82313 0.0
N1208 N 0.81938 0.57235 0.85938 0.0
N1209 N 0.81696 0.64319 0.78326 0.0
H1210 H 0.76985 0.6483 0.8383 0.0
H1211 H 0.78335 0.66274 0.81245 0.0
H1212 H 0.83066 0.6443 0.76939 0.0
H1213 H 0.80116 0.65386 0.77929 0.0
H1214 H 0.83129 0.55695 0.8589 0.0
H1215 H 0.80486 0.57019 0.87223 0.0
H1216 H 0.86526 0.56805 0.84394 0.0
H1217 H 0.87576 0.57774 0.81473 0.0
C1218 C 0.36679 0.82137 0.80169 0.0
C1219 C 0.38475 0.8409 0.8035 0.0
C1220 C 0.39997 0.82399 0.84334 0.0
C1221 C 0.3835 0.80326 0.84044 0.0
N1222 N 0.35245 0.78079 0.81649 0.0
N1223 N 0.42085 0.8592 0.82376 0.0
C1224 C 0.36725 0.80153 0.81947 0.0
C1225 C 0.40182 0.84197 0.82386 0.0
N1226 N 0.34884 0.82231 0.78343 0.0
N1227 N 0.41414 0.82636 0.86458 0.0
H1228 H 0.42305 0.87269 0.80984 0.0
H1229 H 0.43575 0.85897 0.83633 0.0
H1230 H 0.41507 0.81271 0.87848 0.0
H1231 H 0.4239 0.8426 0.86928 0.0
H1232 H 0.33367 0.81008 0.78246 0.0
H1233 H 0.34798 0.83665 0.77019 0.0
H1234 H 0.34238 0.77689 0.80025 0.0
H1235 H 0.35116 0.76665 0.82989 0.0
C1236 C 0.19386 0.36454 0.82321 0.0
C1237 C 0.19152 0.38178 0.8433 0.0
C1238 C 0.15152 0.39654 0.82638 0.0
C1239 C 0.15526 0.38131 0.80494 0.0
N1240 N 0.18037 0.35206 0.7816 0.0
N1241 N 0.17035 0.41696 0.86224 0.0
C1242 C 0.17656 0.36563 0.80297 0.0
C1243 C 0.17081 0.39835 0.84461 0.0
N1244 N 0.21211 0.34664 0.82395 0.0
N1245 N 0.12966 0.40952 0.82925 0.0
H1246 H 0.18423 0.41937 0.87576 0.0
H1247 H 0.15739 0.4315 0.86218 0.0
H1248 H 0.11555 0.40988 0.81576 0.0
H1249 H 0.12462 0.41846 0.84582 0.0
H1250 H 0.21337 0.33197 0.81117 0.0
H1251 H 0.22489 0.34516 0.83866 0.0
H1252 H 0.19692 0.34257 0.77767 0.0
H1253 H 0.16736 0.35136 0.76703 0.0
C1254 C 0.59441 0.15592 0.82233 0.0
C1255 C 0.6133 0.15597 0.80362 0.0
C1256 C 0.63069 0.19497 0.82067 0.0
C1257 C 0.61269 0.19409 0.84016 0.0
N1258 N 0.57983 0.17207 0.86211 0.0
N1259 N 0.65188 0.17267 0.78722 0.0
C1260 C 0.59542 0.17393 0.84188 0.0
C1261 C 0.63215 0.17473 0.80339 0.0
N1262 N 0.5746 0.1397 0.82055 0.0
N1263 N 0.64616 0.2153 0.81854 0.0
H1264 H 0.65367 0.15786 0.7746 0.0
H1265 H 0.66753 0.18432 0.7877 0.0
H1266 H 0.64639 0.22986 0.83157 0.0
H1267 H 0.6577 0.21851 0.80317 0.0
H1268 H 0.55871 0.14085 0.83177 0.0
H1269 H 0.57286 0.12633 0.80644 0.0
H1270 H 0.56904 0.15626 0.86593 0.0
H1271 H 0.57893 0.18556 0.8762 0.0
C1272 C 0.83531 0.36376 0.18107 0.0
C1273 C 0.83609 0.38352 0.19884 0.0
C1274 C 0.79822 0.40182 0.18049 0.0
C1275 C 0.79912 0.38368 0.16104 0.0
N1276 N 0.81911 0.34822 0.14153 0.0
N1277 N 0.82067 0.42367 0.21314 0.0
C1278 C 0.81791 0.36493 0.16091 0.0
C1279 C 0.81803 0.40302 0.19814 0.0
N1280 N 0.85042 0.34335 0.18416 0.0
N1281 N 0.77859 0.41817 0.18207 0.0
H1282 H 0.83479 0.42576 0.22641 0.0
H1283 H 0.81018 0.43994 0.21095 0.0
H1284 H 0.76457 0.41966 0.16861 0.0
H1285 H 0.77521 0.42928 0.19775 0.0
H1286 H 0.84907 0.32718 0.17335 0.0
H1287 H 0.8629 0.34158 0.19909 0.0
H1288 H 0.83413 0.33616 0.13868 0.0
H1289 H 0.80562 0.34725 0.12742 0.0
C1290 C 0.59193 0.84285 0.17225 0.0
C1291 C 0.61099 0.84369 0.19077 0.0
C1292 C 0.63023 0.80594 0.17315 0.0
C1293 C 0.61203 0.80604 0.15379 0.0
N1294 N 0.57768 0.8263 0.13249 0.0
N1295 N 0.65045 0.82893 0.20685 0.0
C1296 C 0.59366 0.82516 0.15249 0.0
C1297 C 0.63076 0.82599 0.19071 0.0
N1298 N 0.57131 0.85787 0.17443 0.0
N1299 N 0.64684 0.78656 0.17485 0.0
H1300 H 0.65153 0.8436 0.21972 0.0
H1301 H 0.66666 0.81818 0.20617 0.0
H1302 H 0.64794 0.77234 0.16148 0.0
H1303 H 0.6586 0.78376 0.19014 0.0
H1304 H 0.55537 0.85595 0.16336 0.0
H1305 H 0.56901 0.8709 0.18878 0.0
H1306 H 0.56604 0.84152 0.12897 0.0
H1307 H 0.57713 0.81288 0.11832 0.0
C1308 C 0.16337 0.63201 0.18091 0.0
C1309 C 0.15808 0.60996 0.19475 0.0
C1310 C 0.18714 0.58599 0.1686 0.0
C1311 C 0.19407 0.60845 0.15626 0.0
N1312 N 0.19139 0.6533 0.15209 0.0
N1313 N 0.16616 0.5663 0.20363 0.0
C1314 C 0.18277 0.6316 0.16265 0.0
C1315 C 0.17043 0.58707 0.18923 0.0
N1316 N 0.14987 0.65331 0.18523 0.0
N1317 N 0.19555 0.56347 0.15972 0.0
H1318 H 0.15269 0.56554 0.21772 0.0
H1319 H 0.17698 0.55014 0.20265 0.0
H1320 H 0.20731 0.56188 0.14422 0.0
H1321 H 0.18916 0.5462 0.16613 0.0
H1322 H 0.15073 0.66911 0.17387 0.0
H1323 H 0.13655 0.65473 0.19944 0.0
H1324 H 0.18593 0.67108 0.15788 0.0
H1325 H 0.20552 0.6537 0.13862 0.0
C1326 C 0.36618 0.18078 0.16471 0.0
C1327 C 0.3885 0.19366 0.15818 0.0
C1328 C 0.41214 0.1695 0.18916 0.0
C1329 C 0.38945 0.1581 0.19715 0.0
N1330 N 0.3445 0.15473 0.19507 0.0
N1331 N 0.43241 0.20208 0.16494 0.0
C1332 C 0.36635 0.1641 0.1855 0.0
C1333 C 0.41136 0.18863 0.17074 0.0
N1334 N 0.34487 0.18448 0.151 0.0
N1335 N 0.4346 0.16106 0.19813 0.0
H1336 H 0.43334 0.21454 0.14995 0.0
H1337 H 0.44866 0.2019 0.17572 0.0
H1338 H 0.43617 0.14688 0.21141 0.0
H1339 H 0.45188 0.16652 0.19097 0.0
H1340 H 0.32875 0.17367 0.15293 0.0
H1341 H 0.34376 0.19744 0.13644 0.0
H1342 H 0.32681 0.16036 0.1892 0.0
H1343 H 0.34395 0.14262 0.21039 0.0
C1344 C 0.84528 0.82861 0.59786 0.0
C1345 C 0.84181 0.80758 0.61374 0.0
C1346 C 0.80149 0.82416 0.62788 0.0
C1347 C 0.80535 0.84555 0.61258 0.0
N1348 N 0.83237 0.87043 0.58613 0.0
N1349 N 0.81939 0.787 0.64701 0.0
C1350 C 0.82783 0.8486 0.59876 0.0
C1351 C 0.82067 0.80582 0.62968 0.0
N1352 N 0.86427 0.82871 0.58065 0.0
N1353 N 0.77936 0.82131 0.64047 0.0
H1354 H 0.83326 0.7734 0.64887 0.0
H1355 H 0.80575 0.78592 0.66088 0.0
H1356 H 0.76561 0.83515 0.64099 0.0
H1357 H 0.77405 0.80485 0.64945 0.0
H1358 H 0.86593 0.84196 0.56645 0.0
H1359 H 0.87739 0.81439 0.57906 0.0
H1360 H 0.84969 0.87499 0.57843 0.0
H1361 H 0.81942 0.88493 0.58473 0.0
C1362 C 0.84925 0.17132 0.40182 0.0
C1363 C 0.84625 0.19192 0.38526 0.0
C1364 C 0.80685 0.17424 0.36945 0.0
C1365 C 0.80933 0.15421 0.38674 0.0
N1366 N 0.83369 0.13143 0.41719 0.0
N1367 N 0.82256 0.21414 0.35406 0.0
C1368 C 0.83088 0.152 0.40215 0.0
C1369 C 0.82518 0.19363 0.36917 0.0
N1370 N 0.86873 0.1712 0.41853 0.0
N1371 N 0.78751 0.17399 0.35261 0.0
H1372 H 0.83642 0.22781 0.35229 0.0
H1373 H 0.80648 0.21829 0.34391 0.0
H1374 H 0.77402 0.15984 0.35207 0.0
H1375 H 0.78553 0.1867 0.33801 0.0
H1376 H 0.8705 0.15856 0.43322 0.0
H1377 H 0.8828 0.18474 0.41881 0.0
H1378 H 0.85023 0.12683 0.42637 0.0
H1379 H 0.81977 0.11798 0.41977 0.0
C1380 C 0.82618 0.84348 0.3958 0.0
C1381 C 0.80423 0.84009 0.38114 0.0
C1382 C 0.82047 0.80021 0.36519 0.0
C1383 C 0.84116 0.80248 0.38168 0.0
N1384 N 0.86228 0.82431 0.41527 0.0
N1385 N 0.77929 0.81506 0.35295 0.0
C1386 C 0.84383 0.82373 0.39747 0.0
C1387 C 0.80102 0.81837 0.36613 0.0
N1388 N 0.83004 0.86546 0.40845 0.0
N1389 N 0.81991 0.78112 0.34811 0.0
H1390 H 0.76534 0.82866 0.35198 0.0
H1391 H 0.77445 0.79842 0.344 0.0
H1392 H 0.83404 0.76773 0.34685 0.0
H1393 H 0.80665 0.7796 0.33389 0.0
H1394 H 0.84708 0.87035 0.41659 0.0
H1395 H 0.81678 0.8797 0.40959 0.0
H1396 H 0.86326 0.83767 0.42945 0.0
H1397 H 0.87566 0.81029 0.41734 0.0
C1398 C 0.17359 0.80584 0.3647 0.0
C1399 C 0.15272 0.80762 0.38099 0.0
C1400 C 0.17036 0.84531 0.40036 0.0
C1401 C 0.19083 0.84408 0.38347 0.0
N1402 N 0.20988 0.82644 0.34658 0.0
N1403 N 0.12858 0.83122 0.41103 0.0
C1404 C 0.19186 0.82526 0.36473 0.0
C1405 C 0.15017 0.82819 0.39761 0.0
N1406 N 0.17607 0.78537 0.34952 0.0
N1407 N 0.17099 0.86166 0.42011 0.0
H1408 H 0.11375 0.8185 0.41051 0.0
H1409 H 0.12448 0.84735 0.42118 0.0
H1410 H 0.18559 0.87428 0.4232 0.0
H1411 H 0.15815 0.86129 0.43476 0.0
H1412 H 0.19224 0.78135 0.33942 0.0
H1413 H 0.16226 0.7716 0.34798 0.0
H1414 H 0.2103 0.8147 0.33102 0.0
H1415 H 0.22332 0.84064 0.34592 0.0
C1416 C 0.17238 0.15063 0.39587 0.0
C1417 C 0.19456 0.15385 0.38158 0.0
C1418 C 0.17819 0.19312 0.36429 0.0
C1419 C 0.15737 0.19122 0.38064 0.0
N1420 N 0.13606 0.17018 0.41456 0.0
N1421 N 0.2196 0.17821 0.35296 0.0
C1422 C 0.15462 0.17035 0.39687 0.0
C1423 C 0.19775 0.17512 0.36596 0.0
N1424 N 0.16841 0.12893 0.40892 0.0
N1425 N 0.17883 0.21173 0.34671 0.0
H1426 H 0.2336 0.16462 0.35241 0.0
H1427 H 0.22444 0.19464 0.34366 0.0
H1428 H 0.16467 0.22506 0.34495 0.0
H1429 H 0.1922 0.21288 0.33259 0.0
H1430 H 0.15126 0.12418 0.41688 0.0
H1431 H 0.18164 0.11472 0.41048 0.0
H1432 H 0.13502 0.15715 0.42901 0.0
H1433 H 0.12273 0.18428 0.41629 0.0
C1434 C 0.18607 0.16788 0.58773 0.0
C1435 C 0.1927 0.15671 0.61087 0.0
C1436 C 0.16436 0.18504 0.63323 0.0
C1437 C 0.15674 0.19525 0.60992 0.0
N1438 N 0.1559 0.19258 0.56477 0.0
N1439 N 0.18605 0.15168 0.65521 0.0
C1440 C 0.16642 0.18568 0.58709 0.0
C1441 C 0.18109 0.16431 0.63351 0.0
N1442 N 0.1986 0.16156 0.5663 0.0
N1443 N 0.15655 0.19592 0.65505 0.0
H1444 H 0.19895 0.13707 0.65622 0.0
H1445 H 0.17623 0.15448 0.6718 0.0
H1446 H 0.14444 0.21121 0.65553 0.0
H1447 H 0.16349 0.19112 0.67262 0.0
H1448 H 0.19692 0.17144 0.54957 0.0
H1449 H 0.21197 0.1474 0.5655 0.0
H1450 H 0.16029 0.18422 0.54772 0.0
H1451 H 0.1409 0.20495 0.56342 0.0
C1452 C 0.83331 0.15126 0.60893 0.0
C1453 C 0.81064 0.1551 0.62222 0.0
C1454 C 0.82703 0.19451 0.63928 0.0
C1455 C 0.84802 0.1924 0.62321 0.0
N1456 N 0.87045 0.17006 0.59091 0.0
N1457 N 0.78532 0.17991 0.65006 0.0
C1458 C 0.85127 0.17091 0.60788 0.0
C1459 C 0.80739 0.17656 0.63754 0.0
N1460 N 0.83752 0.12905 0.59688 0.0
N1461 N 0.82628 0.2134 0.65655 0.0
H1462 H 0.77127 0.16632 0.6505 0.0
H1463 H 0.78045 0.19646 0.65912 0.0
H1464 H 0.8407 0.22648 0.65845 0.0
H1465 H 0.81264 0.21491 0.67038 0.0
H1466 H 0.85483 0.12402 0.5895 0.0
H1467 H 0.82432 0.11469 0.5958 0.0
H1468 H 0.87188 0.15653 0.57695 0.0
H1469 H 0.88412 0.18392 0.58938 0.0
C1470 C 0.1931 0.82204 0.62909 0.0
C1471 C 0.19252 0.84073 0.61022 0.0
C1472 C 0.15319 0.8236 0.59389 0.0
C1473 C 0.15499 0.80358 0.61127 0.0
N1474 N 0.17743 0.78201 0.64393 0.0
N1475 N 0.17466 0.85705 0.57203 0.0
C1476 C 0.17523 0.80226 0.62842 0.0
C1477 C 0.17316 0.84107 0.59202 0.0
N1478 N 0.21013 0.8238 0.64816 0.0
N1479 N 0.13248 0.82586 0.57897 0.0
H1480 H 0.18915 0.86994 0.56965 0.0
H1481 H 0.16282 0.85608 0.55657 0.0
H1482 H 0.11805 0.81269 0.57846 0.0
H1483 H 0.12869 0.84171 0.56829 0.0
H1484 H 0.20995 0.81228 0.66387 0.0
H1485 H 0.22331 0.83821 0.64938 0.0
H1486 H 0.19325 0.77841 0.65472 0.0
H1487 H 0.16393 0.76788 0.64496 0.0
C1488 C 0.08745 0.24794 0.48228 0.0
C1489 C 0.10838 0.25824 0.46943 0.0
C1490 C 0.12805 0.26918 0.50952 0.0
C1491 C 0.10664 0.25981 0.52226 0.0
N1492 N 0.06375 0.24555 0.52077 0.0
N1493 N 0.14663 0.28237 0.4702 0.0
C1494 C 0.08571 0.25071 0.50862 0.0
C1495 C 0.12793 0.27028 0.48287 0.0
N1496 N 0.0693 0.23514 0.46942 0.0
N1497 N 0.14912 0.27538 0.52273 0.0
H1498 H 0.14809 0.28228 0.45074 0.0
H1499 H 0.15974 0.29395 0.47888 0.0
H1500 H 0.15026 0.27433 0.54218 0.0
H1501 H 0.16624 0.27957 0.51438 0.0
H1502 H 0.05561 0.22428 0.4781 0.0
H1503 H 0.06859 0.234 0.44997 0.0
H1504 H 0.04693 0.24187 0.51159 0.0
H1505 H 0.06163 0.2472 0.54008 0.0
C1506 C 0.74231 0.13093 0.5127 0.0
C1507 C 0.74907 0.10909 0.52626 0.0
C1508 C 0.75072 0.08516 0.48717 0.0
C1509 C 0.74712 0.10755 0.4734 0.0
N1510 N 0.74306 0.15257 0.47278 0.0
N1511 N 0.76375 0.06622 0.52606 0.0
C1512 C 0.7436 0.13068 0.48605 0.0
C1513 C 0.75456 0.08647 0.5134 0.0
N1514 N 0.73506 0.15203 0.52524 0.0
N1515 N 0.74933 0.06245 0.47533 0.0
H1516 H 0.76636 0.06587 0.54537 0.0
H1517 H 0.77077 0.05037 0.51712 0.0
H1518 H 0.74547 0.06059 0.45627 0.0
H1519 H 0.74921 0.04542 0.48483 0.0
H1520 H 0.72711 0.16748 0.51642 0.0
H1521 H 0.73551 0.15357 0.5447 0.0
H1522 H 0.74336 0.1702 0.48112 0.0
H1523 H 0.7445 0.15329 0.45334 0.0
C1524 C 0.90976 0.75181 0.48654 0.0
C1525 C 0.88962 0.74041 0.4734 0.0
C1526 C 0.86885 0.73056 0.51319 0.0
C1527 C 0.88964 0.74082 0.52629 0.0
N1528 N 0.93247 0.75554 0.5255 0.0
N1529 N 0.85194 0.71538 0.47379 0.0
C1530 C 0.91083 0.74983 0.51297 0.0
C1531 C 0.86989 0.72843 0.48661 0.0
N1532 N 0.92782 0.76488 0.47387 0.0
N1533 N 0.84748 0.7244 0.5259 0.0
H1534 H 0.85116 0.71466 0.45429 0.0
H1535 H 0.8388 0.70386 0.48245 0.0
H1536 H 0.84568 0.72622 0.54524 0.0
H1537 H 0.83075 0.7195 0.51713 0.0
H1538 H 0.94092 0.77637 0.48269 0.0
H1539 H 0.92888 0.76571 0.45442 0.0
H1540 H 0.94941 0.75924 0.51658 0.0
H1541 H 0.93429 0.75421 0.54486 0.0
C1542 C 0.23949 0.869 0.48647 0.0
C1543 C 0.25738 0.88345 0.47313 0.0
C1544 C 0.27574 0.89828 0.51258 0.0
C1545 C 0.25785 0.88381 0.52589 0.0
N1546 N 0.22637 0.85146 0.52634 0.0
N1547 N 0.29513 0.90836 0.47273 0.0
C1548 C 0.2408 0.86796 0.51304 0.0
C1549 C 0.2765 0.8968 0.48598 0.0
N1550 N 0.22102 0.85661 0.47368 0.0
N1551 N 0.29094 0.91459 0.52529 0.0
H1552 H 0.29563 0.90883 0.45322 0.0
H1553 H 0.31108 0.91604 0.48093 0.0
H1554 H 0.29115 0.916 0.54476 0.0
H1555 H 0.30223 0.92791 0.51663 0.0
H1556 H 0.20556 0.84836 0.48224 0.0
H1557 H 0.22051 0.85549 0.45418 0.0
H1558 H 0.21513 0.83777 0.51817 0.0
H1559 H 0.22727 0.85 0.54581 0.0
C1560 C 0.0835 0.75284 0.51096 0.0
C1561 C 0.10384 0.74195 0.52426 0.0
C1562 C 0.12416 0.7306 0.4845 0.0
C1563 C 0.10409 0.74206 0.4714 0.0
N1564 N 0.06224 0.75892 0.47136 0.0
N1565 N 0.14475 0.72287 0.52438 0.0
C1566 C 0.08314 0.75183 0.48442 0.0
C1567 C 0.12432 0.73101 0.51122 0.0
N1568 N 0.06477 0.76486 0.52364 0.0
N1569 N 0.14307 0.71945 0.47134 0.0
H1570 H 0.14593 0.72349 0.54384 0.0
H1571 H 0.16139 0.71693 0.51626 0.0
H1572 H 0.1445 0.7203 0.45189 0.0
H1573 H 0.15683 0.70825 0.47932 0.0
H1574 H 0.05163 0.77641 0.51511 0.0
H1575 H 0.06293 0.76464 0.54302 0.0
H1576 H 0.0451 0.76301 0.47965 0.0
H1577 H 0.06114 0.75866 0.45189 0.0
C1578 C 0.26125 0.12942 0.48817 0.0
C1579 C 0.25424 0.10747 0.47482 0.0
C1580 C 0.25085 0.08437 0.51424 0.0
C1581 C 0.25463 0.10694 0.52771 0.0
N1582 N 0.26025 0.1518 0.52773 0.0
N1583 N 0.23829 0.06496 0.47541 0.0
C1584 C 0.25926 0.12972 0.51478 0.0
C1585 C 0.24776 0.08524 0.48792 0.0
N1586 N 0.2694 0.15009 0.47544 0.0
N1587 N 0.25131 0.06188 0.52649 0.0
H1588 H 0.23619 0.06424 0.45605 0.0
H1589 H 0.23055 0.0495 0.48446 0.0
H1590 H 0.25457 0.06031 0.54567 0.0
H1591 H 0.2513 0.04467 0.51728 0.0
H1592 H 0.27745 0.16558 0.48418 0.0
H1593 H 0.2696 0.15117 0.45595 0.0
H1594 H 0.26071 0.16929 0.51914 0.0
H1595 H 0.25855 0.15286 0.54715 0.0
C1596 C 0.87498 0.26864 0.51527 0.0
C1597 C 0.89287 0.25455 0.52893 0.0
C1598 C 0.91289 0.24141 0.48976 0.0
C1599 C 0.89367 0.25362 0.47604 0.0
N1600 N 0.85411 0.27535 0.4755 0.0
N1601 N 0.92763 0.22556 0.52951 0.0
C1602 C 0.87419 0.26652 0.4887 0.0
C1603 C 0.9114 0.2403 0.51627 0.0
N1604 N 0.85851 0.2838 0.52766 0.0
N1605 N 0.9333 0.23188 0.47758 0.0
H1606 H 0.92899 0.22572 0.54896 0.0
H1607 H 0.93894 0.21201 0.52127 0.0
H1608 H 0.93521 0.23181 0.45819 0.0
H1609 H 0.94945 0.22588 0.48667 0.0
H1610 H 0.84718 0.29687 0.51871 0.0
H1611 H 0.85719 0.28451 0.54713 0.0
H1612 H 0.83802 0.28247 0.48384 0.0
H1613 H 0.85239 0.27352 0.45614 0.0
C1614 C 0.7374 0.86949 0.48262 0.0
C1615 C 0.74185 0.89196 0.46913 0.0
C1616 C 0.74307 0.91579 0.50837 0.0
C1617 C 0.74132 0.893 0.52197 0.0
N1618 N 0.73961 0.84785 0.52251 0.0
N1619 N 0.74953 0.93654 0.46854 0.0
C1620 C 0.73886 0.86975 0.50925 0.0
C1621 C 0.74485 0.91512 0.48185 0.0
N1622 N 0.73208 0.84783 0.46997 0.0
N1623 N 0.74206 0.93816 0.52083 0.0
H1624 H 0.74846 0.93747 0.44907 0.0
H1625 H 0.75553 0.95324 0.47665 0.0
H1626 H 0.74088 0.93943 0.54023 0.0
H1627 H 0.74035 0.95546 0.51204 0.0
H1628 H 0.72574 0.83156 0.47865 0.0
H1629 H 0.73238 0.84649 0.4505 0.0
H1630 H 0.74086 0.83024 0.51426 0.0
H1631 H 0.74096 0.8472 0.54197 0.0
C1632 C 0.49019 0.08633 0.24833 0.0
C1633 C 0.47643 0.10815 0.25475 0.0
C1634 C 0.51584 0.13134 0.2604 0.0
C1635 C 0.52929 0.10882 0.25626 0.0
N1636 N 0.52897 0.06373 0.25332 0.0
N1637 N 0.47592 0.15103 0.26925 0.0
C1638 C 0.51636 0.08598 0.25231 0.0
C1639 C 0.4892 0.13047 0.26182 0.0
N1640 N 0.47857 0.066 0.23789 0.0
N1641 N 0.52832 0.15371 0.26139 0.0
H1642 H 0.45645 0.15201 0.26842 0.0
H1643 H 0.48417 0.16669 0.27751 0.0
H1644 H 0.54774 0.15518 0.26003 0.0
H1645 H 0.51939 0.17101 0.26151 0.0
H1646 H 0.48834 0.05088 0.23041 0.0
H1647 H 0.45946 0.06506 0.23437 0.0
H1648 H 0.52001 0.04636 0.25315 0.0
H1649 H 0.54805 0.06254 0.25727 0.0
C1650 C 0.90648 0.5111 0.27124 0.0
C1651 C 0.89186 0.52459 0.25365 0.0
C1652 C 0.8773 0.48533 0.23486 0.0
C1653 C 0.89037 0.47177 0.25362 0.0
N1654 N 0.91541 0.47139 0.29131 0.0
N1655 N 0.85937 0.525 0.22226 0.0
C1656 C 0.90415 0.48457 0.27248 0.0
C1657 C 0.87616 0.51183 0.23642 0.0
N1658 N 0.92373 0.52345 0.28566 0.0
N1659 N 0.8663 0.47297 0.21528 0.0
H1660 H 0.85752 0.54442 0.22331 0.0
H1661 H 0.84559 0.51658 0.2113 0.0
H1662 H 0.86603 0.45354 0.21366 0.0
H1663 H 0.85911 0.48202 0.19958 0.0
H1664 H 0.93698 0.51444 0.29674 0.0
H1665 H 0.92634 0.5428 0.28504 0.0
H1666 H 0.92304 0.47976 0.30721 0.0
H1667 H 0.91592 0.45188 0.2919 0.0
C1668 C 0.51148 0.87177 0.24087 0.0
C1669 C 0.52447 0.88943 0.25591 0.0
C1670 C 0.48483 0.90378 0.27402 0.0
C1671 C 0.47178 0.88831 0.25677 0.0
N1672 N 0.47186 0.85789 0.22338 0.0
N1673 N 0.5241 0.92376 0.2853 0.0
C1674 C 0.48489 0.87231 0.24012 0.0
C1675 C 0.51135 0.90562 0.27239 0.0
N1676 N 0.52463 0.85398 0.22797 0.0
N1677 N 0.47183 0.91688 0.29176 0.0
H1678 H 0.54352 0.92572 0.28464 0.0
H1679 H 0.51544 0.93805 0.2953 0.0
H1680 H 0.45234 0.91681 0.29286 0.0
H1681 H 0.4803 0.92638 0.30655 0.0
H1682 H 0.51635 0.83908 0.21848 0.0
H1683 H 0.54413 0.85284 0.22845 0.0
H1684 H 0.48015 0.84832 0.20857 0.0
H1685 H 0.45239 0.85629 0.22362 0.0
C1686 C 0.12638 0.5129 0.26469 0.0
C1687 C 0.10464 0.52659 0.25808 0.0
C1688 C 0.0811 0.48756 0.25231 0.0
C1689 C 0.10342 0.4738 0.25676 0.0
N1690 N 0.14814 0.47312 0.26331 0.0
N1691 N 0.06142 0.52775 0.24497 0.0
C1692 C 0.12626 0.48636 0.26225 0.0
C1693 C 0.08202 0.51412 0.25176 0.0
N1694 N 0.14725 0.52529 0.27298 0.0
N1695 N 0.05881 0.47523 0.24941 0.0
H1696 H 0.0604 0.54717 0.24679 0.0
H1697 H 0.04558 0.52006 0.23657 0.0
H1698 H 0.05736 0.45584 0.24855 0.0
H1699 H 0.04142 0.48399 0.24941 0.0
H1700 H 0.16264 0.51633 0.28087 0.0
H1701 H 0.14858 0.54476 0.27365 0.0
H1702 H 0.16576 0.48142 0.26439 0.0
H1703 H 0.14904 0.45377 0.26086 0.0
C1704 C 0.4875 0.91201 0.7464 0.0
C1705 C 0.47398 0.88968 0.74106 0.0
C1706 C 0.51356 0.86706 0.73541 0.0
C1707 C 0.52682 0.88984 0.73911 0.0
N1708 N 0.52612 0.93498 0.74077 0.0
N1709 N 0.47375 0.84672 0.72692 0.0
C1710 C 0.51369 0.91261 0.74241 0.0
C1711 C 0.4869 0.86749 0.73415 0.0
N1712 N 0.47556 0.93259 0.75579 0.0
N1713 N 0.52625 0.84486 0.73469 0.0
H1714 H 0.45425 0.84573 0.72734 0.0
H1715 H 0.4821 0.831 0.71898 0.0
H1716 H 0.54569 0.8437 0.73591 0.0
H1717 H 0.51747 0.82743 0.73491 0.0
H1718 H 0.48506 0.94821 0.76269 0.0
H1719 H 0.45634 0.93343 0.75876 0.0
H1720 H 0.51707 0.95224 0.74048 0.0
H1721 H 0.5452 0.93627 0.7368 0.0
C1722 C 0.08374 0.48522 0.74338 0.0
C1723 C 0.10654 0.47242 0.73883 0.0
C1724 C 0.12872 0.5125 0.7349 0.0
C1725 C 0.10568 0.52522 0.73844 0.0
N1726 N 0.06055 0.52391 0.73939 0.0
N1727 N 0.14984 0.47328 0.72602 0.0
C1728 C 0.08296 0.51162 0.74072 0.0
C1729 C 0.12872 0.48589 0.733 0.0
N1730 N 0.06287 0.47224 0.75068 0.0
N1731 N 0.15073 0.52564 0.73492 0.0
H1732 H 0.15092 0.45379 0.72564 0.0
H1733 H 0.16571 0.48209 0.71888 0.0
H1734 H 0.1516 0.54509 0.73641 0.0
H1735 H 0.16829 0.51722 0.73542 0.0
H1736 H 0.04666 0.48085 0.75721 0.0
H1737 H 0.06222 0.45278 0.75192 0.0
H1738 H 0.04332 0.51479 0.73839 0.0
H1739 H 0.05921 0.5432 0.73662 0.0
C1740 C 0.48717 0.09622 0.72109 0.0
C1741 C 0.47459 0.10999 0.74003 0.0
C1742 C 0.51476 0.1256 0.75588 0.0
C1743 C 0.52736 0.10929 0.7392 0.0
N1744 N 0.526 0.07701 0.70758 0.0
N1745 N 0.47616 0.13586 0.77714 0.0
C1746 C 0.51374 0.09428 0.72195 0.0
C1747 C 0.48832 0.12417 0.75789 0.0
N1748 N 0.47375 0.08458 0.70261 0.0
N1749 N 0.52807 0.14303 0.7692 0.0
H1750 H 0.45674 0.13603 0.77889 0.0
H1751 H 0.48535 0.14391 0.79237 0.0
H1752 H 0.54745 0.14504 0.76767 0.0
H1753 H 0.51978 0.15711 0.77981 0.0
H1754 H 0.4819 0.07671 0.68676 0.0
H1755 H 0.45424 0.08424 0.70215 0.0
H1756 H 0.51692 0.06347 0.69685 0.0
H1757 H 0.54539 0.07482 0.70778 0.0
C1758 C 0.91426 0.51506 0.74716 0.0
C1759 C 0.8914 0.52788 0.74314 0.0
C1760 C 0.86974 0.48771 0.73732 0.0
C1761 C 0.89192 0.47504 0.74462 0.0
N1762 N 0.93458 0.47671 0.75979 0.0
N1763 N 0.84654 0.52669 0.73762 0.0
C1764 C 0.91397 0.48873 0.75057 0.0
C1765 C 0.8689 0.51433 0.73878 0.0
N1766 N 0.93644 0.52794 0.74668 0.0
N1767 N 0.84936 0.47434 0.7294 0.0
H1768 H 0.84501 0.54609 0.73907 0.0
H1769 H 0.82925 0.51765 0.73733 0.0
H1770 H 0.84864 0.45482 0.72957 0.0
H1771 H 0.83376 0.48254 0.72108 0.0
H1772 H 0.95388 0.51926 0.74695 0.0
H1773 H 0.93755 0.54714 0.74325 0.0
H1774 H 0.95002 0.4861 0.7672 0.0
H1775 H 0.93563 0.45736 0.76192 0.0
C1776 C 0.26699 0.51328 0.08598 0.0
C1777 C 0.26161 0.52648 0.10835 0.0
C1778 C 0.25994 0.48697 0.13173 0.0
C1779 C 0.26175 0.47376 0.10873 0.0
N1780 N 0.2672 0.4736 0.06389 0.0
N1781 N 0.25221 0.5267 0.1525 0.0
C1782 C 0.26549 0.48673 0.08584 0.0
C1783 C 0.2583 0.51359 0.13135 0.0
N1784 N 0.27426 0.52621 0.06509 0.0
N1785 N 0.25949 0.47406 0.15382 0.0
H1786 H 0.25146 0.5462 0.15307 0.0
H1787 H 0.24648 0.51837 0.16915 0.0
H1788 H 0.25973 0.45456 0.15474 0.0
H1789 H 0.26071 0.48254 0.17133 0.0
H1790 H 0.28077 0.51775 0.0488 0.0
H1791 H 0.27593 0.54569 0.06474 0.0
H1792 H 0.26652 0.48186 0.04626 0.0
H1793 H 0.26828 0.45411 0.0632 0.0
C1794 C 0.23262 0.50907 0.87972 0.0
C1795 C 0.25287 0.52222 0.89096 0.0
C1796 C 0.27253 0.48251 0.90281 0.0
C1797 C 0.25273 0.46944 0.89076 0.0
N1798 N 0.2173 0.46974 0.86281 0.0
N1799 N 0.29405 0.52201 0.90959 0.0
C1800 C 0.23373 0.48258 0.87776 0.0
C1801 C 0.27357 0.50909 0.90115 0.0
N1802 N 0.21214 0.52185 0.87122 0.0
N1803 N 0.28944 0.46968 0.91711 0.0
H1804 H 0.29497 0.54151 0.91006 0.0
H1805 H 0.31084 0.51346 0.91453 0.0
H1806 H 0.28926 0.45024 0.91895 0.0
H1807 H 0.30251 0.47832 0.92875 0.0
H1808 H 0.19557 0.51315 0.86566 0.0
H1809 H 0.21099 0.54133 0.87118 0.0
H1810 H 0.20457 0.47838 0.85086 0.0
H1811 H 0.21803 0.45036 0.86045 0.0
C1812 C 0.48556 0.26338 0.91351 0.0
C1813 C 0.47204 0.26036 0.89084 0.0
C1814 C 0.51131 0.26113 0.86703 0.0
C1815 C 0.52477 0.26069 0.88991 0.0
N1816 N 0.52543 0.26065 0.93508 0.0
N1817 N 0.47152 0.2548 0.84602 0.0
C1818 C 0.51209 0.26169 0.91322 0.0
C1819 C 0.48473 0.25921 0.86751 0.0
N1820 N 0.47298 0.26872 0.93518 0.0
N1821 N 0.52396 0.26314 0.84486 0.0
H1822 H 0.45206 0.2537 0.84556 0.0
H1823 H 0.47978 0.25062 0.82888 0.0
H1824 H 0.54345 0.26354 0.84375 0.0
H1825 H 0.51523 0.26625 0.82771 0.0
H1826 H 0.48178 0.27354 0.9519 0.0
H1827 H 0.45356 0.27065 0.93592 0.0
H1828 H 0.51726 0.25801 0.95257 0.0
H1829 H 0.54494 0.26115 0.93569 0.0
C1830 C 0.75029 0.5106 0.91594 0.0
C1831 C 0.74359 0.52363 0.89381 0.0
C1832 C 0.7373 0.48361 0.87205 0.0
C1833 C 0.74685 0.47084 0.89333 0.0
N1834 N 0.76673 0.47264 0.93406 0.0
N1835 N 0.73457 0.52291 0.84951 0.0
C1836 C 0.75473 0.48446 0.9148 0.0
C1837 C 0.73788 0.51027 0.87152 0.0
N1838 N 0.75132 0.52301 0.93835 0.0
N1839 N 0.7281 0.47033 0.85216 0.0
H1840 H 0.73546 0.54236 0.84814 0.0
H1841 H 0.73314 0.51411 0.83216 0.0
H1842 H 0.72908 0.45087 0.85091 0.0
H1843 H 0.71814 0.47851 0.83753 0.0
H1844 H 0.75357 0.51397 0.95548 0.0
H1845 H 0.74716 0.542 0.94022 0.0
H1846 H 0.77533 0.48221 0.94874 0.0
H1847 H 0.77006 0.45345 0.93446 0.0
C1848 C 0.4842 0.76104 0.87355 0.0
C1849 C 0.47103 0.74249 0.88733 0.0
C1850 C 0.51061 0.72498 0.90252 0.0
C1851 C 0.52378 0.74298 0.88805 0.0
N1852 N 0.52386 0.77493 0.85618 0.0
N1853 N 0.47112 0.70449 0.91179 0.0
C1854 C 0.51078 0.76016 0.87255 0.0
C1855 C 0.48408 0.7236 0.90066 0.0
N1856 N 0.47126 0.7796 0.86158 0.0
N1857 N 0.5233 0.71029 0.91922 0.0
H1858 H 0.45163 0.70357 0.9122 0.0
H1859 H 0.47963 0.68861 0.91918 0.0
H1860 H 0.5427 0.71086 0.92136 0.0
H1861 H 0.51457 0.69893 0.93243 0.0
H1862 H 0.4797 0.79545 0.85396 0.0
H1863 H 0.45177 0.77986 0.86027 0.0
H1864 H 0.51548 0.7861 0.8426 0.0
H1865 H 0.54332 0.77444 0.85463 0.0
C1866 C 0.75644 0.51142 0.12858 0.0
C1867 C 0.73932 0.52424 0.11294 0.0
C1868 C 0.72016 0.48436 0.10046 0.0
C1869 C 0.73946 0.4715 0.11342 0.0
N1870 N 0.77674 0.47225 0.13901 0.0
N1871 N 0.70581 0.52363 0.08269 0.0
C1872 C 0.75778 0.48489 0.12735 0.0
C1873 C 0.72113 0.51095 0.09881 0.0
N1874 N 0.77092 0.52469 0.14509 0.0
N1875 N 0.70118 0.47115 0.08936 0.0
H1876 H 0.70578 0.5431 0.08117 0.0
H1877 H 0.69426 0.51493 0.06959 0.0
H1878 H 0.70051 0.45164 0.08894 0.0
H1879 H 0.68515 0.47943 0.08204 0.0
H1880 H 0.78217 0.51644 0.15869 0.0
H1881 H 0.76991 0.54413 0.14677 0.0
H1882 H 0.79233 0.48098 0.14685 0.0
H1883 H 0.77765 0.45276 0.13968 0.0
C1884 C 0.51244 0.76076 0.12418 0.0
C1885 C 0.52528 0.74169 0.11086 0.0
C1886 C 0.48537 0.72325 0.09748 0.0
C1887 C 0.47255 0.7423 0.11082 0.0
N1888 N 0.47297 0.77601 0.1408 0.0
N1889 N 0.52466 0.70231 0.08867 0.0
C1890 C 0.48585 0.76016 0.12535 0.0
C1891 C 0.51194 0.722 0.09893 0.0
N1892 N 0.52573 0.77957 0.1355 0.0
N1893 N 0.47229 0.70737 0.08214 0.0
H1894 H 0.54414 0.70137 0.08804 0.0
H1895 H 0.51601 0.68601 0.0823 0.0
H1896 H 0.45283 0.70759 0.08059 0.0
H1897 H 0.48067 0.6951 0.06956 0.0
H1898 H 0.51765 0.79575 0.14272 0.0
H1899 H 0.54521 0.77951 0.13688 0.0
H1900 H 0.48144 0.78798 0.15366 0.0
H1901 H 0.45348 0.77578 0.1423 0.0
C1902 C 0.50943 0.26078 0.1283 0.0
C1903 C 0.52204 0.25822 0.10505 0.0
C1904 C 0.48201 0.25958 0.08268 0.0
C1905 C 0.46931 0.25872 0.10596 0.0
N1906 N 0.47023 0.25754 0.15109 0.0
N1907 N 0.52094 0.25457 0.05999 0.0
C1908 C 0.48279 0.25947 0.12887 0.0
C1909 C 0.50849 0.2575 0.08219 0.0
N1910 N 0.52292 0.26419 0.14981 0.0
N1911 N 0.46873 0.26339 0.0611 0.0
H1912 H 0.5404 0.255 0.05851 0.0
H1913 H 0.51207 0.25048 0.0431 0.0
H1914 H 0.44935 0.26571 0.06088 0.0
H1915 H 0.47695 0.26669 0.04375 0.0
H1916 H 0.51494 0.26894 0.16694 0.0
H1917 H 0.54244 0.2639 0.15032 0.0
H1918 H 0.47896 0.25478 0.16829 0.0
H1919 H 0.45075 0.25724 0.15231 0.0
C1920 C 0.62323 0.73722 0.01148 0.0
C1921 C 0.60717 0.75374 0.02464 0.0
C1922 C 0.5933 0.77238 0.98504 0.0
C1923 C 0.60727 0.75404 0.97187 0.0
N1924 N 0.63459 0.71813 0.97185 0.0
N1925 N 0.57467 0.78505 0.02446 0.0
C1926 C 0.62197 0.73618 0.9849 0.0
C1927 C 0.5918 0.77103 0.0116 0.0
N1928 N 0.64037 0.72324 0.02439 0.0
N1929 N 0.58127 0.79093 0.97216 0.0
H1930 H 0.5728 0.78448 0.04388 0.0
H1931 H 0.56091 0.79581 0.01586 0.0
H1932 H 0.58075 0.7918 0.95267 0.0
H1933 H 0.57325 0.80648 0.98073 0.0
H1934 H 0.65431 0.71266 0.01588 0.0
H1935 H 0.64211 0.72387 0.04385 0.0
H1936 H 0.64299 0.70267 0.9802 0.0
H1937 H 0.63566 0.71786 0.95234 0.0
C1938 C 0.25394 0.62915 0.9854 0.0
C1939 C 0.23662 0.61345 0.97282 0.0
C1940 C 0.21787 0.60132 0.01293 0.0
C1941 C 0.23764 0.61394 0.02552 0.0
N1942 N 0.27465 0.63993 0.02436 0.0
N1943 N 0.20255 0.58377 0.97384 0.0
C1944 C 0.25564 0.62805 0.01192 0.0
C1945 C 0.21835 0.59967 0.98633 0.0
N1946 N 0.26835 0.64548 0.97187 0.0
N1947 N 0.19894 0.59051 0.02639 0.0
H1948 H 0.20208 0.58235 0.95437 0.0
H1949 H 0.19094 0.57085 0.98268 0.0
H1950 H 0.19857 0.5902 0.0459 0.0
H1951 H 0.18266 0.58341 0.01833 0.0
H1952 H 0.27986 0.65905 0.97988 0.0
H1953 H 0.26703 0.64699 0.95243 0.0
H1954 H 0.29008 0.64792 0.01551 0.0
H1955 H 0.27568 0.64082 0.04384 0.0
C1956 C 0.37035 0.2579 0.01179 0.0
C1957 C 0.38197 0.23832 0.0255 0.0
C1958 C 0.39468 0.21796 0.98633 0.0
C1959 C 0.38293 0.23751 0.97276 0.0
N1960 N 0.3542 0.27216 0.97182 0.0
N1961 N 0.40111 0.19738 0.0263 0.0
C1962 C 0.36907 0.25627 0.9853 0.0
C1963 C 0.39256 0.21743 0.0129 0.0
N1964 N 0.36108 0.27839 0.02403 0.0
N1965 N 0.40927 0.20092 0.97401 0.0
H1966 H 0.40136 0.19685 0.04579 0.0
H1967 H 0.40637 0.18049 0.01813 0.0
H1968 H 0.4112 0.20059 0.95459 0.0
H1969 H 0.42086 0.18813 0.98302 0.0
H1970 H 0.35528 0.29462 0.01496 0.0
H1971 H 0.3605 0.27985 0.04347 0.0
H1972 H 0.34173 0.28474 0.97991 0.0
H1973 H 0.35248 0.27107 0.95238 0.0
C1974 C 0.76269 0.36741 0.01345 0.0
C1975 C 0.75751 0.39003 0.02644 0.0
C1976 C 0.75027 0.41161 0.98672 0.0
C1977 C 0.7571 0.38953 0.97361 0.0
N1978 N 0.77365 0.34752 0.97409 0.0
N1979 N 0.75353 0.43504 0.02533 0.0
C1980 C 0.76478 0.36784 0.98687 0.0
C1981 C 0.75342 0.41255 0.01303 0.0
N1982 N 0.764 0.34529 0.02626 0.0
N1983 N 0.74032 0.43158 0.97421 0.0
H1984 H 0.75691 0.43664 0.04451 0.0
H1985 H 0.75312 0.45224 0.01615 0.0
H1986 H 0.73796 0.43203 0.95486 0.0
H1987 H 0.73245 0.44695 0.98326 0.0
H1988 H 0.76492 0.32787 0.01753 0.0
H1989 H 0.76204 0.34404 0.04564 0.0
H1990 H 0.7821 0.33229 0.98281 0.0
H1991 H 0.77416 0.34661 0.95458 0.0
C1992 C 0.62384 0.25924 0.98326 0.0
C1993 C 0.60614 0.24479 0.96964 0.0
C1994 C 0.5895 0.22749 0.0088 0.0
C1995 C 0.60543 0.24388 0.02239 0.0
N1996 N 0.6366 0.27665 0.02327 0.0
N1997 N 0.56995 0.21762 0.969 0.0
C1998 C 0.62229 0.26014 0.00981 0.0
C1999 C 0.58854 0.22933 0.98225 0.0
N2000 N 0.64269 0.27134 0.97079 0.0
N2001 N 0.57515 0.21032 0.0213 0.0
H2002 H 0.56843 0.2186 0.94956 0.0
H2003 H 0.55481 0.20855 0.97729 0.0
H2004 H 0.57443 0.20923 0.04078 0.0
H2005 H 0.56531 0.19599 0.01242 0.0
H2006 H 0.65768 0.28012 0.97968 0.0
H2007 H 0.6446 0.27082 0.95135 0.0
H2008 H 0.64686 0.29115 0.0152 0.0
H2009 H 0.63722 0.27675 0.0428 0.0
C2010 C 0.74064 0.62665 0.01378 0.0
C2011 C 0.75556 0.60866 0.02629 0.0
C2012 C 0.77188 0.59356 0.98618 0.0
C2013 C 0.75478 0.60953 0.97365 0.0
N2014 N 0.72226 0.64074 0.97468 0.0
N2015 N 0.78424 0.5739 0.02525 0.0
C2016 C 0.73902 0.62601 0.98722 0.0
C2017 C 0.77115 0.59201 0.01275 0.0
N2018 N 0.72864 0.64475 0.02734 0.0
N2019 N 0.78864 0.57974 0.97263 0.0
H2020 H 0.7845 0.57249 0.04473 0.0
H2021 H 0.79361 0.55928 0.01645 0.0
H2022 H 0.78899 0.57954 0.9531 0.0
H2023 H 0.80334 0.56977 0.98059 0.0
H2024 H 0.71924 0.65982 0.01938 0.0
H2025 H 0.72987 0.64592 0.04681 0.0
H2026 H 0.70811 0.65085 0.98342 0.0
H2027 H 0.72173 0.64198 0.95519 0.0
C2028 C 0.40177 0.77349 0.98328 0.0
C2029 C 0.38825 0.75442 0.97055 0.0
C2030 C 0.37671 0.73516 0.01049 0.0
C2031 C 0.38921 0.75488 0.02331 0.0
N2032 N 0.41038 0.79489 0.02242 0.0
N2033 N 0.35822 0.72067 0.97161 0.0
C2034 C 0.40049 0.77485 0.00985 0.0
C2035 C 0.37437 0.73626 0.98405 0.0
N2036 N 0.41711 0.78928 0.97015 0.0
N2037 N 0.36738 0.71516 0.02352 0.0
H2038 H 0.35554 0.72141 0.95227 0.0
H2039 H 0.34568 0.70871 0.98058 0.0
H2040 H 0.36767 0.71403 0.04299 0.0
H2041 H 0.36084 0.69887 0.01499 0.0
H2042 H 0.4297 0.8016 0.97856 0.0
H2043 H 0.41888 0.78875 0.95072 0.0
H2044 H 0.41612 0.81132 0.01361 0.0
H2045 H 0.41135 0.7959 0.04189 0.0
C2046 C 0.25555 0.37022 0.01425 0.0
C2047 C 0.23768 0.38485 0.02735 0.0
C2048 C 0.21891 0.39835 0.98774 0.0
C2049 C 0.23683 0.38375 0.9747 0.0
N2050 N 0.2678 0.35108 0.97489 0.0
N2051 N 0.19945 0.40882 0.02744 0.0
C2052 C 0.25382 0.36821 0.9878 0.0
C2053 C 0.21825 0.39742 0.01435 0.0
N2054 N 0.27448 0.3587 0.02706 0.0
N2055 N 0.20364 0.41429 0.97479 0.0
H2056 H 0.19896 0.40955 0.04694 0.0
H2057 H 0.18336 0.41597 0.0191 0.0
H2058 H 0.20342 0.41537 0.95529 0.0
H2059 H 0.19232 0.42767 0.98328 0.0
H2060 H 0.28981 0.35035 0.01843 0.0
H2061 H 0.2756 0.35858 0.04655 0.0
H2062 H 0.27895 0.33759 0.98343 0.0
H2063 H 0.26642 0.34879 0.95553 0.0
C2064 C 0.01099 0.62476 0.73718 0.0
C2065 C 0.02414 0.61215 0.75652 0.0
C2066 C 0.98439 0.59975 0.77595 0.0
C2067 C 0.97129 0.61328 0.75718 0.0
N2068 N 0.97193 0.64293 0.72316 0.0
N2069 N 0.02391 0.59116 0.79655 0.0
C2070 C 0.98457 0.62706 0.73875 0.0
C2071 C 0.011 0.60102 0.77678 0.0
N2072 N 0.02367 0.6341 0.71698 0.0
N2073 N 0.97158 0.58422 0.79181 0.0
H2074 H 0.04339 0.59023 0.79721 0.0
H2075 H 0.01539 0.58548 0.81314 0.0
H2076 H 0.95217 0.58225 0.79156 0.0
H2077 H 0.98026 0.5716 0.80384 0.0
H2078 H 0.0149 0.6406 0.70083 0.0
H2079 H 0.04312 0.63396 0.71556 0.0
H2080 H 0.9807 0.65564 0.71125 0.0
H2081 H 0.95256 0.64506 0.72372 0.0
C2082 C 0.37191 0.98496 0.76105 0.0
C2083 C 0.3934 0.97213 0.75209 0.0
C2084 C 0.41583 0.01193 0.74821 0.0
C2085 C 0.39356 0.02496 0.75423 0.0
N2086 N 0.34922 0.02423 0.76286 0.0
N2087 N 0.43416 0.97392 0.73226 0.0
C2088 C 0.37128 0.01161 0.75997 0.0
C2089 C 0.41484 0.98575 0.74415 0.0
N2090 N 0.35193 0.97173 0.77008 0.0
N2091 N 0.43822 0.02442 0.74737 0.0
H2092 H 0.43453 0.95476 0.72879 0.0
H2093 H 0.44886 0.98352 0.72372 0.0
H2094 H 0.43995 0.04349 0.75126 0.0
H2095 H 0.45541 0.0154 0.74562 0.0
H2096 H 0.33706 0.98 0.77958 0.0
H2097 H 0.35079 0.95224 0.76939 0.0
H2098 H 0.33187 0.0154 0.76422 0.0
H2099 H 0.34787 0.04367 0.76183 0.0
C2100 C 0.01392 0.40981 0.73694 0.0
C2101 C 0.02688 0.39174 0.75153 0.0
C2102 C 0.98681 0.37369 0.76514 0.0
C2103 C 0.97395 0.39296 0.75213 0.0
N2104 N 0.97533 0.43222 0.72967 0.0
N2105 N 0.02609 0.35825 0.78185 0.0
C2106 C 0.98751 0.41175 0.73905 0.0
C2107 C 0.01344 0.37436 0.76652 0.0
N2108 N 0.02676 0.42518 0.72093 0.0
N2109 N 0.9737 0.35391 0.77484 0.0
H2110 H 0.04556 0.35681 0.78207 0.0
H2111 H 0.01739 0.34736 0.79548 0.0
H2112 H 0.95428 0.3523 0.77358 0.0
H2113 H 0.98212 0.33793 0.78211 0.0
H2114 H 0.01805 0.43615 0.70738 0.0
H2115 H 0.04621 0.42596 0.71989 0.0
H2116 H 0.98451 0.44805 0.7229 0.0
H2117 H 0.95601 0.4346 0.73066 0.0
C2118 C 0.60217 0.98582 0.77333 0.0
C2119 C 0.61287 0.97268 0.75284 0.0
C2120 C 0.62579 0.01249 0.73377 0.0
C2121 C 0.61249 0.02556 0.75263 0.0
N2122 N 0.58566 0.02513 0.78895 0.0
N2123 N 0.63342 0.97313 0.71256 0.0
C2124 C 0.60033 0.01239 0.77227 0.0
C2125 C 0.62431 0.98592 0.73278 0.0
N2126 N 0.59333 0.97291 0.79361 0.0
N2127 N 0.64053 0.02549 0.71732 0.0
H2128 H 0.63403 0.95365 0.71164 0.0
H2129 H 0.63907 0.98174 0.69601 0.0
H2130 H 0.64232 0.04495 0.71773 0.0
H2131 H 0.65277 0.017 0.70477 0.0
H2132 H 0.58811 0.98146 0.81033 0.0
H2133 H 0.59273 0.95342 0.79449 0.0
H2134 H 0.57389 0.01644 0.80183 0.0
H2135 H 0.58364 0.04455 0.78874 0.0
C2136 C 0.98409 0.36699 0.23909 0.0
C2137 C 0.97053 0.38876 0.24602 0.0
C2138 C 0.00952 0.4098 0.25764 0.0
C2139 C 0.02341 0.38924 0.24812 0.0
N2140 N 0.02413 0.34893 0.2276 0.0
N2141 N 0.97103 0.43316 0.25476 0.0
C2142 C 0.01075 0.36812 0.2379 0.0
C2143 C 0.98345 0.41083 0.25322 0.0
N2144 N 0.97171 0.3449 0.23511 0.0
N2145 N 0.02089 0.42823 0.27133 0.0
H2146 H 0.95213 0.43512 0.25029 0.0
H2147 H 0.98013 0.45024 0.25752 0.0
H2148 H 0.03989 0.42846 0.27554 0.0
H2149 H 0.01091 0.4421 0.28074 0.0
H2150 H 0.98076 0.32782 0.23268 0.0
H2151 H 0.95232 0.34315 0.23638 0.0
H2152 H 0.01595 0.33453 0.21725 0.0
H2153 H 0.04363 0.34805 0.2282 0.0
C2154 C 0.62331 0.01293 0.26256 0.0
C2155 C 0.61165 0.02696 0.24321 0.0
C2156 C 0.59694 0.9881 0.22343 0.0
C2157 C 0.60962 0.97417 0.24213 0.0
N2158 N 0.63922 0.97266 0.27617 0.0
N2159 N 0.58995 0.02828 0.20351 0.0
C2160 C 0.62407 0.98641 0.26076 0.0
C2161 C 0.5995 0.01463 0.22295 0.0
N2162 N 0.63331 0.02487 0.28292 0.0
N2163 N 0.58118 0.97611 0.20711 0.0
H2164 H 0.58957 0.04778 0.20327 0.0
H2165 H 0.5837 0.02031 0.18684 0.0
H2166 H 0.57869 0.95673 0.20691 0.0
H2167 H 0.56906 0.98537 0.195 0.0
H2168 H 0.63924 0.01559 0.299 0.0
H2169 H 0.63421 0.04429 0.28459 0.0
H2170 H 0.6522 0.98057 0.2884 0.0
H2171 H 0.64058 0.9532 0.27509 0.0
C2172 C 0.0138 0.59718 0.22485 0.0
C2173 C 0.02669 0.61144 0.24325 0.0
C2174 C 0.98683 0.62454 0.26179 0.0
C2175 C 0.97391 0.61071 0.24307 0.0
N2176 N 0.97442 0.58725 0.20442 0.0
N2177 N 0.02621 0.64237 0.2761 0.0
C2178 C 0.98721 0.59828 0.22371 0.0
C2179 C 0.01339 0.62619 0.26084 0.0
N2180 N 0.02686 0.58138 0.20951 0.0
N2181 N 0.97368 0.63587 0.28062 0.0
H2182 H 0.04567 0.64421 0.27567 0.0
H2183 H 0.01765 0.65547 0.28767 0.0
H2184 H 0.95416 0.63668 0.28096 0.0
H2185 H 0.98196 0.64349 0.29655 0.0
H2186 H 0.01844 0.56819 0.19784 0.0
H2187 H 0.04633 0.58003 0.20969 0.0
H2188 H 0.98302 0.58049 0.18829 0.0
H2189 H 0.95494 0.5863 0.20362 0.0
C2190 C 0.41598 0.01206 0.25581 0.0
C2191 C 0.39438 0.026 0.24891 0.0
C2192 C 0.37215 0.98711 0.23816 0.0
C2193 C 0.39328 0.97317 0.24621 0.0
N2194 N 0.43521 0.9716 0.26305 0.0
N2195 N 0.35065 0.0271 0.23779 0.0
C2196 C 0.41515 0.98546 0.25517 0.0
C2197 C 0.37218 0.01363 0.24098 0.0
N2198 N 0.43767 0.02427 0.26203 0.0
N2199 N 0.35194 0.97499 0.22804 0.0
H2200 H 0.34969 0.04643 0.24041 0.0
H2201 H 0.33315 0.01906 0.23472 0.0
H2202 H 0.35028 0.95555 0.2274 0.0
H2203 H 0.33737 0.98411 0.21889 0.0
H2204 H 0.45499 0.0156 0.2638 0.0
H2205 H 0.43888 0.04356 0.26434 0.0
H2206 H 0.4501 0.97882 0.27336 0.0
H2207 H 0.43681 0.95239 0.25995 0.0
C2208 C 0.76609 0.01428 0.62465 0.0
C2209 C 0.75347 0.02821 0.6059 0.0
C2210 C 0.73698 0.98942 0.5876 0.0
C2211 C 0.75161 0.97531 0.60478 0.0
N2212 N 0.78131 0.97401 0.63893 0.0
N2213 N 0.73054 0.02905 0.56685 0.0
C2214 C 0.76673 0.98767 0.62294 0.0
C2215 C 0.73983 0.0158 0.58671 0.0
N2216 N 0.7761 0.02636 0.64494 0.0
N2217 N 0.72006 0.97783 0.57218 0.0
H2218 H 0.73179 0.04844 0.56531 0.0
H2219 H 0.72357 0.02066 0.55066 0.0
H2220 H 0.71794 0.95854 0.5708 0.0
H2221 H 0.70659 0.98751 0.56196 0.0
H2222 H 0.7831 0.01717 0.66062 0.0
H2223 H 0.77542 0.04574 0.64725 0.0
H2224 H 0.79522 0.98189 0.65014 0.0
H2225 H 0.78039 0.95456 0.64029 0.0
C2226 C 0.77729 0.01108 0.40119 0.0
C2227 C 0.75933 0.02446 0.38691 0.0
C2228 C 0.74321 0.98509 0.36955 0.0
C2229 C 0.75896 0.97167 0.38616 0.0
N2230 N 0.7891 0.97143 0.41984 0.0
N2231 N 0.72386 0.02464 0.35885 0.0
C2232 C 0.77579 0.9845 0.4023 0.0
C2233 C 0.74192 0.01158 0.37143 0.0
N2234 N 0.79551 0.02378 0.41401 0.0
N2235 N 0.73009 0.97248 0.35147 0.0
H2236 H 0.72301 0.04414 0.35872 0.0
H2237 H 0.70879 0.0162 0.34977 0.0
H2238 H 0.73101 0.95309 0.34924 0.0
H2239 H 0.72017 0.98129 0.3372 0.0
H2240 H 0.81079 0.01506 0.42238 0.0
H2241 H 0.79641 0.04326 0.41487 0.0
H2242 H 0.79932 0.97989 0.43416 0.0
H2243 H 0.78847 0.95199 0.42142 0.0
C2244 C 0.98333 0.76804 0.37378 0.0
C2245 C 0.97078 0.75481 0.39314 0.0
C2246 C 0.01105 0.74154 0.41066 0.0
C2247 C 0.02365 0.75588 0.39212 0.0
N2248 N 0.02222 0.78583 0.35834 0.0
N2249 N 0.97252 0.73375 0.43313 0.0
C2250 C 0.0099 0.77029 0.37455 0.0
C2251 C 0.98459 0.74288 0.41245 0.0
N2252 N 0.97007 0.77704 0.35381 0.0
N2253 N 0.02427 0.72638 0.42651 0.0
H2254 H 0.95317 0.73437 0.43539 0.0
H2255 H 0.98177 0.7277 0.44918 0.0
H2256 H 0.04374 0.72592 0.42727 0.0
H2257 H 0.0159 0.71297 0.43795 0.0
H2258 H 0.97839 0.78436 0.33778 0.0
H2259 H 0.9507 0.77527 0.35218 0.0
H2260 H 0.01318 0.79899 0.34717 0.0
H2261 H 0.04168 0.78683 0.3572 0.0
C2262 C 0.25531 0.01098 0.41708 0.0
C2263 C 0.24771 0.02472 0.3956 0.0
C2264 C 0.24096 0.98536 0.37271 0.0
C2265 C 0.24626 0.97184 0.39494 0.0
N2266 N 0.25277 0.9718 0.43966 0.0
N2267 N 0.23115 0.02525 0.35347 0.0
C2268 C 0.25186 0.98465 0.41752 0.0
C2269 C 0.23962 0.01197 0.37364 0.0
N2270 N 0.26615 0.0229 0.43701 0.0
N2271 N 0.23877 0.97292 0.3504 0.0
H2272 H 0.23198 0.04473 0.35236 0.0
H2273 H 0.22203 0.01703 0.3383 0.0
H2274 H 0.2402 0.95352 0.3488 0.0
H2275 H 0.23773 0.98188 0.33313 0.0
H2276 H 0.27463 0.0134 0.45178 0.0
H2277 H 0.26872 0.04219 0.43799 0.0
H2278 H 0.25407 0.98054 0.45706 0.0
H2279 H 0.24954 0.95257 0.44098 0.0
C2280 C 0.01541 0.25521 0.41308 0.0
C2281 C 0.02784 0.24245 0.3933 0.0
C2282 C 0.98734 0.23234 0.37395 0.0
C2283 C 0.97497 0.24379 0.3945 0.0
N2284 N 0.97693 0.2621 0.43585 0.0
N2285 N 0.02596 0.21622 0.35646 0.0
C2286 C 0.98892 0.25416 0.41465 0.0
C2287 C 0.01389 0.22996 0.37436 0.0
N2288 N 0.02886 0.26863 0.43034 0.0
N2289 N 0.9739 0.22529 0.35327 0.0
H2290 H 0.04538 0.21561 0.35474 0.0
H2291 H 0.01678 0.20414 0.34418 0.0
H2292 H 0.95455 0.22739 0.35186 0.0
H2293 H 0.98204 0.21946 0.33656 0.0
H2294 H 0.02077 0.28122 0.44283 0.0
H2295 H 0.04831 0.26846 0.43145 0.0
H2296 H 0.98616 0.2666 0.45244 0.0
H2297 H 0.95755 0.26225 0.43779 0.0
C2298 C 0.26179 0.01098 0.62191 0.0
C2299 C 0.24061 0.02402 0.61253 0.0
C2300 C 0.22067 0.98419 0.60097 0.0
C2301 C 0.24157 0.97118 0.61097 0.0
N2302 N 0.2795 0.97154 0.63549 0.0
N2303 N 0.1982 0.0234 0.59683 0.0
C2304 C 0.2614 0.98441 0.62277 0.0
C2305 C 0.21939 0.01071 0.6035 0.0
N2306 N 0.28254 0.02397 0.62957 0.0
N2307 N 0.20292 0.97142 0.58754 0.0
H2308 H 0.19698 0.04287 0.5968 0.0
H2309 H 0.18119 0.01464 0.59296 0.0
H2310 H 0.20333 0.95208 0.58491 0.0
H2311 H 0.18885 0.98009 0.57724 0.0
H2312 H 0.29972 0.0156 0.63335 0.0
H2313 H 0.28317 0.04342 0.63088 0.0
H2314 H 0.29275 0.98004 0.64704 0.0
H2315 H 0.2801 0.95206 0.63629 0.0
C2316 C 0.98813 0.23638 0.62741 0.0
C2317 C 0.97408 0.24665 0.60735 0.0
C2318 C 0.01277 0.25989 0.58651 0.0
C2319 C 0.02697 0.24806 0.60565 0.0
N2320 N 0.02848 0.22254 0.64295 0.0
N2321 N 0.97294 0.2629 0.56519 0.0
C2322 C 0.01473 0.23531 0.62555 0.0
C2323 C 0.98637 0.25696 0.58618 0.0
N2324 N 0.97622 0.22906 0.64887 0.0
N2325 N 0.02434 0.27418 0.56866 0.0
H2326 H 0.95359 0.26071 0.56389 0.0
H2327 H 0.98116 0.2676 0.54814 0.0
H2328 H 0.04367 0.27601 0.56709 0.0
H2329 H 0.01466 0.28581 0.55638 0.0
H2330 H 0.98557 0.22407 0.66523 0.0
H2331 H 0.95686 0.22994 0.65116 0.0
H2332 H 0.02061 0.2103 0.65593 0.0
H2333 H 0.04797 0.223 0.64362 0.0
C2334 C 0.01097 0.76441 0.62553 0.0
C2335 C 0.02371 0.75261 0.60542 0.0
C2336 C 0.98365 0.73914 0.5874 0.0
C2337 C 0.97082 0.75277 0.60631 0.0
N2338 N 0.9719 0.78044 0.6421 0.0
N2339 N 0.02224 0.73265 0.56479 0.0
C2340 C 0.98439 0.76625 0.62485 0.0
C2341 C 0.01008 0.74098 0.58574 0.0
N2342 N 0.0241 0.77237 0.64607 0.0
N2343 N 0.97074 0.72416 0.57104 0.0
H2344 H 0.0416 0.73315 0.56268 0.0
H2345 H 0.01305 0.72722 0.54844 0.0
H2346 H 0.95131 0.72326 0.5701 0.0
H2347 H 0.97937 0.71117 0.55935 0.0
H2348 H 0.0157 0.77858 0.66251 0.0
H2349 H 0.04347 0.77064 0.6477 0.0
H2350 H 0.98077 0.79316 0.65396 0.0
H2351 H 0.95246 0.78061 0.64373 0.0
loop_
_geom_bond_atom_site_label_1
_geom_bond_atom_site_label_2
_geom_bond_distance
_geom_bond_site_symmetry_2
_ccdc_geom_bond_type
In0 O1 2.294 . S
In0 O2 2.326 . S
In0 O6 2.266 . S
In0 O7 2.326 . S
In0 O8 2.266 . S
In0 O9 2.326 . S
In0 O11 2.294 . S
In0 O12 2.326 . S
O1 In0 2.294 . S
O1 C10 1.240 . S
O2 In0 2.326 . S
O2 C10 1.252 . S
C3 O6 1.252 . S
C3 O7 1.260 . S
C4 O11 1.240 . S
C4 O12 1.252 . S
C5 O8 1.252 . S
C5 O9 1.260 . S
O6 In0 2.266 . S
O6 C3 1.252 . S
O7 In0 2.326 . S
O7 C3 1.260 . S
O8 In0 2.266 . S
O8 C5 1.252 . S
O9 In0 2.326 . S
O9 C5 1.260 . S
C10 O1 1.240 . S
C10 O2 1.252 . S
O11 In0 2.294 . S
O11 C4 1.240 . S
O12 In0 2.326 . S
O12 C4 1.252 . S
In13 O14 2.294 . S
In13 O15 2.326 . S
In13 O19 2.266 . S
In13 O20 2.326 . S
In13 O21 2.266 . S
In13 O22 2.326 . S
In13 O24 2.294 . S
In13 O25 2.326 . S
O14 In13 2.294 . S
O14 C23 1.240 . S
O15 In13 2.326 . S
O15 C23 1.252 . S
C16 O19 1.252 . S
C16 O20 1.260 . S
C17 O24 1.240 . S
C17 O25 1.252 . S
C18 O21 1.252 . S
C18 O22 1.260 . S
O19 In13 2.266 . S
O19 C16 1.252 . S
O20 In13 2.326 . S
O20 C16 1.260 . S
O21 In13 2.266 . S
O21 C18 1.252 . S
O22 In13 2.326 . S
O22 C18 1.260 . S
C23 O14 1.240 . S
C23 O15 1.252 . S
O24 In13 2.294 . S
O24 C17 1.240 . S
O25 In13 2.326 . S
O25 C17 1.252 . S
In26 O27 2.294 . S
In26 O28 2.326 . S
In26 O32 2.266 . S
In26 O33 2.326 . S
In26 O34 2.266 . S
In26 O35 2.326 . S
In26 O37 2.294 . S
In26 O38 2.326 . S
O27 In26 2.294 . S
O27 C36 1.240 . S
O28 In26 2.326 . S
O28 C36 1.252 . S
C29 O32 1.252 . S
C29 O33 1.260 . S
C30 O37 1.240 . S
C30 O38 1.252 . S
C31 O34 1.252 . S
C31 O35 1.260 . S
O32 In26 2.266 . S
O32 C29 1.252 . S
O33 In26 2.326 . S
O33 C29 1.260 . S
O34 In26 2.266 . S
O34 C31 1.252 . S
O35 In26 2.326 . S
O35 C31 1.260 . S
C36 O27 1.240 . S
C36 O28 1.252 . S
O37 In26 2.294 . S
O37 C30 1.240 . S
O38 In26 2.326 . S
O38 C30 1.252 . S
In39 O40 2.294 . S
In39 O41 2.326 . S
In39 O45 2.266 . S
In39 O46 2.326 . S
In39 O47 2.266 . S
In39 O48 2.326 . S
In39 O50 2.294 . S
In39 O51 2.326 . S
O40 In39 2.294 . S
O40 C49 1.240 . S
O41 In39 2.326 . S
O41 C49 1.252 . S
C42 O45 1.252 . S
C42 O46 1.260 . S
C43 O50 1.240 . S
C43 O51 1.252 . S
C44 O47 1.252 . S
C44 O48 1.260 . S
O45 In39 2.266 . S
O45 C42 1.252 . S
O46 In39 2.326 . S
O46 C42 1.260 . S
O47 In39 2.266 . S
O47 C44 1.252 . S
O48 In39 2.326 . S
O48 C44 1.260 . S
C49 O40 1.240 . S
C49 O41 1.252 . S
O50 In39 2.294 . S
O50 C43 1.240 . S
O51 In39 2.326 . S
O51 C43 1.252 . S
In52 O53 2.294 . S
In52 O54 2.326 . S
In52 O58 2.266 . S
In52 O59 2.326 . S
In52 O60 2.266 . S
In52 O61 2.326 . S
In52 O63 2.294 . S
In52 O64 2.326 . S
O53 In52 2.294 . S
O53 C62 1.240 . S
O54 In52 2.326 . S
O54 C62 1.252 . S
C55 O58 1.252 . S
C55 O59 1.260 . S
C56 O63 1.240 . S
C56 O64 1.252 . S
C57 O60 1.252 . S
C57 O61 1.260 . S
O58 In52 2.266 . S
O58 C55 1.252 . S
O59 In52 2.326 . S
O59 C55 1.260 . S
O60 In52 2.266 . S
O60 C57 1.252 . S
O61 In52 2.326 . S
O61 C57 1.260 . S
C62 O53 1.240 . S
C62 O54 1.252 . S
O63 In52 2.294 . S
O63 C56 1.240 . S
O64 In52 2.326 . S
O64 C56 1.252 . S
In65 O66 2.294 . S
In65 O67 2.326 . S
In65 O71 2.266 . S
In65 O72 2.326 . S
In65 O73 2.266 . S
In65 O74 2.326 . S
In65 O76 2.294 . S
In65 O77 2.326 . S
O66 In65 2.294 . S
O66 C75 1.240 . S
O67 In65 2.326 . S
O67 C75 1.252 . S
C68 O71 1.252 . S
C68 O72 1.260 . S
C69 O76 1.240 . S
C69 O77 1.252 . S
C70 O73 1.252 . S
C70 O74 1.260 . S
O71 In65 2.266 . S
O71 C68 1.252 . S
O72 In65 2.326 . S
O72 C68 1.260 . S
O73 In65 2.266 . S
O73 C70 1.252 . S
O74 In65 2.326 . S
O74 C70 1.260 . S
C75 O66 1.240 . S
C75 O67 1.252 . S
O76 In65 2.294 . S
O76 C69 1.240 . S
O77 In65 2.326 . S
O77 C69 1.252 . S
In78 O79 2.294 . S
In78 O80 2.326 . S
In78 O84 2.266 . S
In78 O85 2.326 . S
In78 O86 2.266 . S
In78 O87 2.326 . S
In78 O89 2.294 . S
In78 O90 2.326 . S
O79 In78 2.294 . S
O79 C88 1.240 . S
O80 In78 2.326 . S
O80 C88 1.252 . S
C81 O84 1.252 . S
C81 O85 1.260 . S
C82 O89 1.240 . S
C82 O90 1.252 . S
C83 O86 1.252 . S
C83 O87 1.260 . S
O84 In78 2.266 . S
O84 C81 1.252 . S
O85 In78 2.326 . S
O85 C81 1.260 . S
O86 In78 2.266 . S
O86 C83 1.252 . S
O87 In78 2.326 . S
O87 C83 1.260 . S
C88 O79 1.240 . S
C88 O80 1.252 . S
O89 In78 2.294 . S
O89 C82 1.240 . S
O90 In78 2.326 . S
O90 C82 1.252 . S
In91 O92 2.294 . S
In91 O93 2.326 . S
In91 O97 2.266 . S
In91 O98 2.326 . S
In91 O99 2.266 . S
In91 O100 2.326 . S
In91 O102 2.294 . S
In91 O103 2.326 . S
O92 In91 2.294 . S
O92 C101 1.240 . S
O93 In91 2.326 . S
O93 C101 1.252 . S
C94 O97 1.252 . S
C94 O98 1.260 . S
C95 O102 1.240 . S
C95 O103 1.252 . S
C96 O99 1.252 . S
C96 O100 1.260 . S
O97 In91 2.266 . S
O97 C94 1.252 . S
O98 In91 2.326 . S
O98 C94 1.260 . S
O99 In91 2.266 . S
O99 C96 1.252 . S
O100 In91 2.326 . S
O100 C96 1.260 . S
C101 O92 1.240 . S
C101 O93 1.252 . S
O102 In91 2.294 . S
O102 C95 1.240 . S
O103 In91 2.326 . S
O103 C95 1.252 . S
In104 O105 2.294 . S
In104 O106 2.326 . S
In104 O110 2.266 . S
In104 O111 2.326 . S
In104 O112 2.266 . S
In104 O113 2.326 . S
In104 O115 2.294 . S
In104 O116 2.326 . S
O105 In104 2.294 . S
O105 C114 1.240 . S
O106 In104 2.326 . S
O106 C114 1.252 . S
C107 O110 1.252 . S
C107 O111 1.260 . S
C108 O115 1.240 . S
C108 O116 1.252 . S
C109 O112 1.252 . S
C109 O113 1.260 . S
O110 In104 2.266 . S
O110 C107 1.252 . S
O111 In104 2.326 . S
O111 C107 1.260 . S
O112 In104 2.266 . S
O112 C109 1.252 . S
O113 In104 2.326 . S
O113 C109 1.260 . S
C114 O105 1.240 . S
C114 O106 1.252 . S
O115 In104 2.294 . S
O115 C108 1.240 . S
O116 In104 2.326 . S
O116 C108 1.252 . S
In117 O118 2.294 . S
In117 O119 2.326 . S
In117 O123 2.266 . S
In117 O124 2.326 . S
In117 O125 2.266 . S
In117 O126 2.326 . S
In117 O128 2.294 . S
In117 O129 2.326 . S
O118 In117 2.294 . S
O118 C127 1.240 . S
O119 In117 2.326 . S
O119 C127 1.252 . S
C120 O123 1.252 . S
C120 O124 1.260 . S
C121 O128 1.240 . S
C121 O129 1.252 . S
C122 O125 1.252 . S
C122 O126 1.260 . S
O123 In117 2.266 . S
O123 C120 1.252 . S
O124 In117 2.326 . S
O124 C120 1.260 . S
O125 In117 2.266 . S
O125 C122 1.252 . S
O126 In117 2.326 . S
O126 C122 1.260 . S
C127 O118 1.240 . S
C127 O119 1.252 . S
O128 In117 2.294 . S
O128 C121 1.240 . S
O129 In117 2.326 . S
O129 C121 1.252 . S
In130 O131 2.294 . S
In130 O132 2.326 . S
In130 O136 2.266 . S
In130 O137 2.326 . S
In130 O138 2.266 . S
In130 O139 2.326 . S
In130 O141 2.294 . S
In130 O142 2.326 . S
O131 In130 2.294 . S
O131 C140 1.240 . S
O132 In130 2.326 . S
O132 C140 1.252 . S
C133 O136 1.252 . S
C133 O137 1.260 . S
C134 O141 1.240 . S
C134 O142 1.252 . S
C135 O138 1.252 . S
C135 O139 1.260 . S
O136 In130 2.266 . S
O136 C133 1.252 . S
O137 In130 2.326 . S
O137 C133 1.260 . S
O138 In130 2.266 . S
O138 C135 1.252 . S
O139 In130 2.326 . S
O139 C135 1.260 . S
C140 O131 1.240 . S
C140 O132 1.252 . S
O141 In130 2.294 . S
O141 C134 1.240 . S
O142 In130 2.326 . S
O142 C134 1.252 . S
In143 O144 2.294 . S
In143 O145 2.326 . S
In143 O149 2.266 . S
In143 O150 2.326 . S
In143 O151 2.266 . S
In143 O152 2.326 . S
In143 O154 2.294 . S
In143 O155 2.326 . S
O144 In143 2.294 . S
O144 C153 1.240 . S
O145 In143 2.326 . S
O145 C153 1.252 . S
C146 O149 1.252 . S
C146 O150 1.260 . S
C147 O154 1.240 . S
C147 O155 1.252 . S
C148 O151 1.252 . S
C148 O152 1.260 . S
O149 In143 2.266 . S
O149 C146 1.252 . S
O150 In143 2.326 . S
O150 C146 1.260 . S
O151 In143 2.266 . S
O151 C148 1.252 . S
O152 In143 2.326 . S
O152 C148 1.260 . S
C153 O144 1.240 . S
C153 O145 1.252 . S
O154 In143 2.294 . S
O154 C147 1.240 . S
O155 In143 2.326 . S
O155 C147 1.252 . S
In156 O157 2.294 . S
In156 O158 2.326 . S
In156 O162 2.266 . S
In156 O163 2.326 . S
In156 O164 2.266 . S
In156 O165 2.326 . S
In156 O167 2.294 . S
In156 O168 2.326 . S
O157 In156 2.294 . S
O157 C166 1.240 . S
O158 In156 2.326 . S
O158 C166 1.252 . S
C159 O162 1.252 . S
C159 O163 1.260 . S
C160 O167 1.240 . S
C160 O168 1.252 . S
C161 O164 1.252 . S
C161 O165 1.260 . S
O162 In156 2.266 . S
O162 C159 1.252 . S
O163 In156 2.326 . S
O163 C159 1.260 . S
O164 In156 2.266 . S
O164 C161 1.252 . S
O165 In156 2.326 . S
O165 C161 1.260 . S
C166 O157 1.240 . S
C166 O158 1.252 . S
O167 In156 2.294 . S
O167 C160 1.240 . S
O168 In156 2.326 . S
O168 C160 1.252 . S
In169 O170 2.294 . S
In169 O171 2.326 . S
In169 O175 2.266 . S
In169 O176 2.326 . S
In169 O177 2.266 . S
In169 O178 2.326 . S
In169 O180 2.294 . S
In169 O181 2.326 . S
O170 In169 2.294 . S
O170 C179 1.240 . S
O171 In169 2.326 . S
O171 C179 1.252 . S
C172 O175 1.252 . S
C172 O176 1.260 . S
C173 O180 1.240 . S
C173 O181 1.252 . S
C174 O177 1.252 . S
C174 O178 1.260 . S
O175 In169 2.266 . S
O175 C172 1.252 . S
O176 In169 2.326 . S
O176 C172 1.260 . S
O177 In169 2.266 . S
O177 C174 1.252 . S
O178 In169 2.326 . S
O178 C174 1.260 . S
C179 O170 1.240 . S
C179 O171 1.252 . S
O180 In169 2.294 . S
O180 C173 1.240 . S
O181 In169 2.326 . S
O181 C173 1.252 . S
In182 O183 2.294 . S
In182 O184 2.326 . S
In182 O188 2.266 . S
In182 O189 2.326 . S
In182 O190 2.266 . S
In182 O191 2.326 . S
In182 O193 2.294 . S
In182 O194 2.326 . S
O183 In182 2.294 . S
O183 C192 1.240 . S
O184 In182 2.326 . S
O184 C192 1.252 . S
C185 O188 1.252 . S
C185 O189 1.260 . S
C186 O193 1.240 . S
C186 O194 1.252 . S
C187 O190 1.252 . S
C187 O191 1.260 . S
O188 In182 2.266 . S
O188 C185 1.252 . S
O189 In182 2.326 . S
O189 C185 1.260 . S
O190 In182 2.266 . S
O190 C187 1.252 . S
O191 In182 2.326 . S
O191 C187 1.260 . S
C192 O183 1.240 . S
C192 O184 1.252 . S
O193 In182 2.294 . S
O193 C186 1.240 . S
O194 In182 2.326 . S
O194 C186 1.252 . S
In195 O196 2.294 . S
In195 O197 2.326 . S
In195 O201 2.266 . S
In195 O202 2.326 . S
In195 O203 2.266 . S
In195 O204 2.326 . S
In195 O206 2.294 . S
In195 O207 2.326 . S
O196 In195 2.294 . S
O196 C205 1.240 . S
O197 In195 2.326 . S
O197 C205 1.252 . S
C198 O201 1.252 . S
C198 O202 1.260 . S
C199 O206 1.240 . S
C199 O207 1.252 . S
C200 O203 1.252 . S
C200 O204 1.260 . S
O201 In195 2.266 . S
O201 C198 1.252 . S
O202 In195 2.326 . S
O202 C198 1.260 . S
O203 In195 2.266 . S
O203 C200 1.252 . S
O204 In195 2.326 . S
O204 C200 1.260 . S
C205 O196 1.240 . S
C205 O197 1.252 . S
O206 In195 2.294 . S
O206 C199 1.240 . S
O207 In195 2.326 . S
O207 C199 1.252 . S
In208 O209 2.294 . S
In208 O210 2.326 . S
In208 O214 2.266 . S
In208 O215 2.326 . S
In208 O216 2.266 . S
In208 O217 2.326 . S
In208 O219 2.294 . S
In208 O220 2.326 . S
O209 In208 2.294 . S
O209 C218 1.240 . S
O210 In208 2.326 . S
O210 C218 1.252 . S
C211 O214 1.252 . S
C211 O215 1.260 . S
C212 O219 1.240 . S
C212 O220 1.252 . S
C213 O216 1.252 . S
C213 O217 1.260 . S
O214 In208 2.266 . S
O214 C211 1.252 . S
O215 In208 2.326 . S
O215 C211 1.260 . S
O216 In208 2.266 . S
O216 C213 1.252 . S
O217 In208 2.326 . S
O217 C213 1.260 . S
C218 O209 1.240 . S
C218 O210 1.252 . S
O219 In208 2.294 . S
O219 C212 1.240 . S
O220 In208 2.326 . S
O220 C212 1.252 . S
In221 O222 2.294 . S
In221 O223 2.326 . S
In221 O227 2.266 . S
In221 O228 2.326 . S
In221 O229 2.266 . S
In221 O230 2.326 . S
In221 O232 2.294 . S
In221 O233 2.326 . S
O222 In221 2.294 . S
O222 C231 1.240 . S
O223 In221 2.326 . S
O223 C231 1.252 . S
C224 O227 1.252 . S
C224 O228 1.260 . S
C225 O232 1.240 . S
C225 O233 1.252 . S
C226 O229 1.252 . S
C226 O230 1.260 . S
O227 In221 2.266 . S
O227 C224 1.252 . S
O228 In221 2.326 . S
O228 C224 1.260 . S
O229 In221 2.266 . S
O229 C226 1.252 . S
O230 In221 2.326 . S
O230 C226 1.260 . S
C231 O222 1.240 . S
C231 O223 1.252 . S
O232 In221 2.294 . S
O232 C225 1.240 . S
O233 In221 2.326 . S
O233 C225 1.252 . S
In234 O235 2.294 . S
In234 O236 2.326 . S
In234 O240 2.266 . S
In234 O241 2.326 . S
In234 O242 2.266 . S
In234 O243 2.326 . S
In234 O245 2.294 . S
In234 O246 2.326 . S
O235 In234 2.294 . S
O235 C244 1.240 . S
O236 In234 2.326 . S
O236 C244 1.252 . S
C237 O240 1.252 . S
C237 O241 1.260 . S
C238 O245 1.240 . S
C238 O246 1.252 . S
C239 O242 1.252 . S
C239 O243 1.260 . S
O240 In234 2.266 . S
O240 C237 1.252 . S
O241 In234 2.326 . S
O241 C237 1.260 . S
O242 In234 2.266 . S
O242 C239 1.252 . S
O243 In234 2.326 . S
O243 C239 1.260 . S
C244 O235 1.240 . S
C244 O236 1.252 . S
O245 In234 2.294 . S
O245 C238 1.240 . S
O246 In234 2.326 . S
O246 C238 1.252 . S
In247 O248 2.294 . S
In247 O249 2.326 . S
In247 O253 2.266 . S
In247 O254 2.326 . S
In247 O255 2.266 . S
In247 O256 2.326 . S
In247 O258 2.294 . S
In247 O259 2.326 . S
O248 In247 2.294 . S
O248 C257 1.240 . S
O249 In247 2.326 . S
O249 C257 1.252 . S
C250 O253 1.252 . S
C250 O254 1.260 . S
C251 O258 1.240 . S
C251 O259 1.252 . S
C252 O255 1.252 . S
C252 O256 1.260 . S
O253 In247 2.266 . S
O253 C250 1.252 . S
O254 In247 2.326 . S
O254 C250 1.260 . S
O255 In247 2.266 . S
O255 C252 1.252 . S
O256 In247 2.326 . S
O256 C252 1.260 . S
C257 O248 1.240 . S
C257 O249 1.252 . S
O258 In247 2.294 . S
O258 C251 1.240 . S
O259 In247 2.326 . S
O259 C251 1.252 . S
In260 O261 2.294 . S
In260 O262 2.326 . S
In260 O266 2.266 . S
In260 O267 2.326 . S
In260 O268 2.266 . S
In260 O269 2.326 . S
In260 O271 2.294 . S
In260 O272 2.326 . S
O261 In260 2.294 . S
O261 C270 1.240 . S
O262 In260 2.326 . S
O262 C270 1.252 . S
C263 O266 1.252 . S
C263 O267 1.260 . S
C264 O271 1.240 . S
C264 O272 1.252 . S
C265 O268 1.252 . S
C265 O269 1.260 . S
O266 In260 2.266 . S
O266 C263 1.252 . S
O267 In260 2.326 . S
O267 C263 1.260 . S
O268 In260 2.266 . S
O268 C265 1.252 . S
O269 In260 2.326 . S
O269 C265 1.260 . S
C270 O261 1.240 . S
C270 O262 1.252 . S
O271 In260 2.294 . S
O271 C264 1.240 . S
O272 In260 2.326 . S
O272 C264 1.252 . S
In273 O274 2.294 . S
In273 O275 2.326 . S
In273 O279 2.266 . S
In273 O280 2.326 . S
In273 O281 2.266 . S
In273 O282 2.326 . S
In273 O284 2.294 . S
In273 O285 2.326 . S
O274 In273 2.294 . S
O274 C283 1.240 . S
O275 In273 2.326 . S
O275 C283 1.252 . S
C276 O279 1.252 . S
C276 O280 1.260 . S
C277 O284 1.240 . S
C277 O285 1.252 . S
C278 O281 1.252 . S
C278 O282 1.260 . S
O279 In273 2.266 . S
O279 C276 1.252 . S
O280 In273 2.326 . S
O280 C276 1.260 . S
O281 In273 2.266 . S
O281 C278 1.252 . S
O282 In273 2.326 . S
O282 C278 1.260 . S
C283 O274 1.240 . S
C283 O275 1.252 . S
O284 In273 2.294 . S
O284 C277 1.240 . S
O285 In273 2.326 . S
O285 C277 1.252 . S
In286 O287 2.294 . S
In286 O288 2.326 . S
In286 O292 2.266 . S
In286 O293 2.326 . S
In286 O294 2.266 . S
In286 O295 2.326 . S
In286 O297 2.294 . S
In286 O298 2.326 . S
O287 In286 2.294 . S
O287 C296 1.240 . S
O288 In286 2.326 . S
O288 C296 1.252 . S
C289 O292 1.252 . S
C289 O293 1.260 . S
C290 O297 1.240 . S
C290 O298 1.252 . S
C291 O294 1.252 . S
C291 O295 1.260 . S
O292 In286 2.266 . S
O292 C289 1.252 . S
O293 In286 2.326 . S
O293 C289 1.260 . S
O294 In286 2.266 . S
O294 C291 1.252 . S
O295 In286 2.326 . S
O295 C291 1.260 . S
C296 O287 1.240 . S
C296 O288 1.252 . S
O297 In286 2.294 . S
O297 C290 1.240 . S
O298 In286 2.326 . S
O298 C290 1.252 . S
In299 O300 2.294 . S
In299 O301 2.326 . S
In299 O305 2.266 . S
In299 O306 2.326 . S
In299 O307 2.266 . S
In299 O308 2.326 . S
In299 O310 2.294 . S
In299 O311 2.326 . S
O300 In299 2.294 . S
O300 C309 1.240 . S
O301 In299 2.326 . S
O301 C309 1.252 . S
C302 O305 1.252 . S
C302 O306 1.260 . S
C303 O310 1.240 . S
C303 O311 1.252 . S
C304 O307 1.252 . S
C304 O308 1.260 . S
O305 In299 2.266 . S
O305 C302 1.252 . S
O306 In299 2.326 . S
O306 C302 1.260 . S
O307 In299 2.266 . S
O307 C304 1.252 . S
O308 In299 2.326 . S
O308 C304 1.260 . S
C309 O300 1.240 . S
C309 O301 1.252 . S
O310 In299 2.294 . S
O310 C303 1.240 . S
O311 In299 2.326 . S
O311 C303 1.252 . S
In312 O313 2.294 . S
In312 O314 2.326 . S
In312 O318 2.266 . S
In312 O319 2.326 . S
In312 O320 2.266 . S
In312 O321 2.326 . S
In312 O323 2.294 . S
In312 O324 2.326 . S
O313 In312 2.294 . S
O313 C322 1.240 . S
O314 In312 2.326 . S
O314 C322 1.252 . S
C315 O318 1.252 . S
C315 O319 1.260 . S
C316 O323 1.240 . S
C316 O324 1.252 . S
C317 O320 1.252 . S
C317 O321 1.260 . S
O318 In312 2.266 . S
O318 C315 1.252 . S
O319 In312 2.326 . S
O319 C315 1.260 . S
O320 In312 2.266 . S
O320 C317 1.252 . S
O321 In312 2.326 . S
O321 C317 1.260 . S
C322 O313 1.240 . S
C322 O314 1.252 . S
O323 In312 2.294 . S
O323 C316 1.240 . S
O324 In312 2.326 . S
O324 C316 1.252 . S
In325 O326 2.294 . S
In325 O327 2.326 . S
In325 O331 2.266 . S
In325 O332 2.326 . S
In325 O333 2.266 . S
In325 O334 2.326 . S
In325 O336 2.294 . S
In325 O337 2.326 . S
O326 In325 2.294 . S
O326 C335 1.240 . S
O327 In325 2.326 . S
O327 C335 1.252 . S
C328 O331 1.252 . S
C328 O332 1.260 . S
C329 O336 1.240 . S
C329 O337 1.252 . S
C330 O333 1.252 . S
C330 O334 1.260 . S
O331 In325 2.266 . S
O331 C328 1.252 . S
O332 In325 2.326 . S
O332 C328 1.260 . S
O333 In325 2.266 . S
O333 C330 1.252 . S
O334 In325 2.326 . S
O334 C330 1.260 . S
C335 O326 1.240 . S
C335 O327 1.252 . S
O336 In325 2.294 . S
O336 C329 1.240 . S
O337 In325 2.326 . S
O337 C329 1.252 . S
In338 O339 2.294 . S
In338 O340 2.326 . S
In338 O344 2.266 . S
In338 O345 2.326 . S
In338 O346 2.266 . S
In338 O347 2.326 . S
In338 O349 2.294 . S
In338 O350 2.326 . S
O339 In338 2.294 . S
O339 C348 1.240 . S
O340 In338 2.326 . S
O340 C348 1.252 . S
C341 O344 1.252 . S
C341 O345 1.260 . S
C342 O349 1.240 . S
C342 O350 1.252 . S
C343 O346 1.252 . S
C343 O347 1.260 . S
O344 In338 2.266 . S
O344 C341 1.252 . S
O345 In338 2.326 . S
O345 C341 1.260 . S
O346 In338 2.266 . S
O346 C343 1.252 . S
O347 In338 2.326 . S
O347 C343 1.260 . S
C348 O339 1.240 . S
C348 O340 1.252 . S
O349 In338 2.294 . S
O349 C342 1.240 . S
O350 In338 2.326 . S
O350 C342 1.252 . S
In351 O352 2.294 . S
In351 O353 2.326 . S
In351 O357 2.266 . S
In351 O358 2.326 . S
In351 O359 2.266 . S
In351 O360 2.326 . S
In351 O362 2.294 . S
In351 O363 2.326 . S
O352 In351 2.294 . S
O352 C361 1.240 . S
O353 In351 2.326 . S
O353 C361 1.252 . S
C354 O357 1.252 . S
C354 O358 1.260 . S
C355 O362 1.240 . S
C355 O363 1.252 . S
C356 O359 1.252 . S
C356 O360 1.260 . S
O357 In351 2.266 . S
O357 C354 1.252 . S
O358 In351 2.326 . S
O358 C354 1.260 . S
O359 In351 2.266 . S
O359 C356 1.252 . S
O360 In351 2.326 . S
O360 C356 1.260 . S
C361 O352 1.240 . S
C361 O353 1.252 . S
O362 In351 2.294 . S
O362 C355 1.240 . S
O363 In351 2.326 . S
O363 C355 1.252 . S
In364 O365 2.294 . S
In364 O366 2.326 . S
In364 O370 2.266 . S
In364 O371 2.326 . S
In364 O372 2.266 . S
In364 O373 2.326 . S
In364 O375 2.294 . S
In364 O376 2.326 . S
O365 In364 2.294 . S
O365 C374 1.240 . S
O366 In364 2.326 . S
O366 C374 1.252 . S
C367 O370 1.252 . S
C367 O371 1.260 . S
C368 O375 1.240 . S
C368 O376 1.252 . S
C369 O372 1.252 . S
C369 O373 1.260 . S
O370 In364 2.266 . S
O370 C367 1.252 . S
O371 In364 2.326 . S
O371 C367 1.260 . S
O372 In364 2.266 . S
O372 C369 1.252 . S
O373 In364 2.326 . S
O373 C369 1.260 . S
C374 O365 1.240 . S
C374 O366 1.252 . S
O375 In364 2.294 . S
O375 C368 1.240 . S
O376 In364 2.326 . S
O376 C368 1.252 . S
In377 O378 2.294 . S
In377 O379 2.326 . S
In377 O383 2.266 . S
In377 O384 2.326 . S
In377 O385 2.266 . S
In377 O386 2.326 . S
In377 O388 2.294 . S
In377 O389 2.326 . S
O378 In377 2.294 . S
O378 C387 1.240 . S
O379 In377 2.326 . S
O379 C387 1.252 . S
C380 O383 1.252 . S
C380 O384 1.260 . S
C381 O388 1.240 . S
C381 O389 1.252 . S
C382 O385 1.252 . S
C382 O386 1.260 . S
O383 In377 2.266 . S
O383 C380 1.252 . S
O384 In377 2.326 . S
O384 C380 1.260 . S
O385 In377 2.266 . S
O385 C382 1.252 . S
O386 In377 2.326 . S
O386 C382 1.260 . S
C387 O378 1.240 . S
C387 O379 1.252 . S
O388 In377 2.294 . S
O388 C381 1.240 . S
O389 In377 2.326 . S
O389 C381 1.252 . S
In390 O391 2.294 . S
In390 O392 2.326 . S
In390 O396 2.266 . S
In390 O397 2.326 . S
In390 O398 2.266 . S
In390 O399 2.326 . S
In390 O401 2.294 . S
In390 O402 2.326 . S
O391 In390 2.294 . S
O391 C400 1.240 . S
O392 In390 2.326 . S
O392 C400 1.252 . S
C393 O396 1.252 . S
C393 O397 1.260 . S
C394 O401 1.240 . S
C394 O402 1.252 . S
C395 O398 1.252 . S
C395 O399 1.260 . S
O396 In390 2.266 . S
O396 C393 1.252 . S
O397 In390 2.326 . S
O397 C393 1.260 . S
O398 In390 2.266 . S
O398 C395 1.252 . S
O399 In390 2.326 . S
O399 C395 1.260 . S
C400 O391 1.240 . S
C400 O392 1.252 . S
O401 In390 2.294 . S
O401 C394 1.240 . S
O402 In390 2.326 . S
O402 C394 1.252 . S
In403 O404 2.294 . S
In403 O405 2.326 . S
In403 O409 2.266 . S
In403 O410 2.326 . S
In403 O411 2.266 . S
In403 O412 2.326 . S
In403 O414 2.294 . S
In403 O415 2.326 . S
O404 In403 2.294 . S
O404 C413 1.240 . S
O405 In403 2.326 . S
O405 C413 1.252 . S
C406 O409 1.252 . S
C406 O410 1.260 . S
C407 O414 1.240 . S
C407 O415 1.252 . S
C408 O411 1.252 . S
C408 O412 1.260 . S
O409 In403 2.266 . S
O409 C406 1.252 . S
O410 In403 2.326 . S
O410 C406 1.260 . S
O411 In403 2.266 . S
O411 C408 1.252 . S
O412 In403 2.326 . S
O412 C408 1.260 . S
C413 O404 1.240 . S
C413 O405 1.252 . S
O414 In403 2.294 . S
O414 C407 1.240 . S
O415 In403 2.326 . S
O415 C407 1.252 . S
In416 O417 2.294 . S
In416 O418 2.326 . S
In416 O422 2.266 . S
In416 O423 2.326 . S
In416 O424 2.266 . S
In416 O425 2.326 . S
In416 O427 2.294 . S
In416 O428 2.326 . S
O417 In416 2.294 . S
O417 C426 1.240 . S
O418 In416 2.326 . S
O418 C426 1.252 . S
C419 O422 1.252 . S
C419 O423 1.260 . S
C420 O427 1.240 . S
C420 O428 1.252 . S
C421 O424 1.252 . S
C421 O425 1.260 . S
O422 In416 2.266 . S
O422 C419 1.252 . S
O423 In416 2.326 . S
O423 C419 1.260 . S
O424 In416 2.266 . S
O424 C421 1.252 . S
O425 In416 2.326 . S
O425 C421 1.260 . S
C426 O417 1.240 . S
C426 O418 1.252 . S
O427 In416 2.294 . S
O427 C420 1.240 . S
O428 In416 2.326 . S
O428 C420 1.252 . S
In429 O430 2.294 . S
In429 O431 2.326 . S
In429 O435 2.266 . S
In429 O436 2.326 . S
In429 O437 2.266 . S
In429 O438 2.326 . S
In429 O440 2.294 . S
In429 O441 2.326 . S
O430 In429 2.294 . S
O430 C439 1.240 . S
O431 In429 2.326 . S
O431 C439 1.252 . S
C432 O435 1.252 . S
C432 O436 1.260 . S
C433 O440 1.240 . S
C433 O441 1.252 . S
C434 O437 1.252 . S
C434 O438 1.260 . S
O435 In429 2.266 . S
O435 C432 1.252 . S
O436 In429 2.326 . S
O436 C432 1.260 . S
O437 In429 2.266 . S
O437 C434 1.252 . S
O438 In429 2.326 . S
O438 C434 1.260 . S
C439 O430 1.240 . S
C439 O431 1.252 . S
O440 In429 2.294 . S
O440 C433 1.240 . S
O441 In429 2.326 . S
O441 C433 1.252 . S
In442 O443 2.294 . S
In442 O444 2.326 . S
In442 O448 2.266 . S
In442 O449 2.326 . S
In442 O450 2.266 . S
In442 O451 2.326 . S
In442 O453 2.294 . S
In442 O454 2.326 . S
O443 In442 2.294 . S
O443 C452 1.240 . S
O444 In442 2.326 . S
O444 C452 1.252 . S
C445 O448 1.252 . S
C445 O449 1.260 . S
C446 O453 1.240 . S
C446 O454 1.252 . S
C447 O450 1.252 . S
C447 O451 1.260 . S
O448 In442 2.266 . S
O448 C445 1.252 . S
O449 In442 2.326 . S
O449 C445 1.260 . S
O450 In442 2.266 . S
O450 C447 1.252 . S
O451 In442 2.326 . S
O451 C447 1.260 . S
C452 O443 1.240 . S
C452 O444 1.252 . S
O453 In442 2.294 . S
O453 C446 1.240 . S
O454 In442 2.326 . S
O454 C446 1.252 . S
In455 O456 2.294 . S
In455 O457 2.326 . S
In455 O461 2.266 . S
In455 O462 2.326 . S
In455 O463 2.266 . S
In455 O464 2.326 . S
In455 O466 2.294 . S
In455 O467 2.326 . S
O456 In455 2.294 . S
O456 C465 1.240 . S
O457 In455 2.326 . S
O457 C465 1.252 . S
C458 O461 1.252 . S
C458 O462 1.260 . S
C459 O466 1.240 . S
C459 O467 1.252 . S
C460 O463 1.252 . S
C460 O464 1.260 . S
O461 In455 2.266 . S
O461 C458 1.252 . S
O462 In455 2.326 . S
O462 C458 1.260 . S
O463 In455 2.266 . S
O463 C460 1.252 . S
O464 In455 2.326 . S
O464 C460 1.260 . S
C465 O456 1.240 . S
C465 O457 1.252 . S
O466 In455 2.294 . S
O466 C459 1.240 . S
O467 In455 2.326 . S
O467 C459 1.252 . S
In468 O469 2.294 . S
In468 O470 2.326 . S
In468 O474 2.266 . S
In468 O475 2.326 . S
In468 O476 2.266 . S
In468 O477 2.326 . S
In468 O479 2.294 . S
In468 O480 2.326 . S
O469 In468 2.294 . S
O469 C478 1.240 . S
O470 In468 2.326 . S
O470 C478 1.252 . S
C471 O474 1.252 . S
C471 O475 1.260 . S
C472 O479 1.240 . S
C472 O480 1.252 . S
C473 O476 1.252 . S
C473 O477 1.260 . S
O474 In468 2.266 . S
O474 C471 1.252 . S
O475 In468 2.326 . S
O475 C471 1.260 . S
O476 In468 2.266 . S
O476 C473 1.252 . S
O477 In468 2.326 . S
O477 C473 1.260 . S
C478 O469 1.240 . S
C478 O470 1.252 . S
O479 In468 2.294 . S
O479 C472 1.240 . S
O480 In468 2.326 . S
O480 C472 1.252 . S
In481 O482 2.294 . S
In481 O483 2.326 . S
In481 O487 2.266 . S
In481 O488 2.326 . S
In481 O489 2.266 . S
In481 O490 2.326 . S
In481 O492 2.294 . S
In481 O493 2.326 . S
O482 In481 2.294 . S
O482 C491 1.240 . S
O483 In481 2.326 . S
O483 C491 1.252 . S
C484 O487 1.252 . S
C484 O488 1.260 . S
C485 O492 1.240 . S
C485 O493 1.252 . S
C486 O489 1.252 . S
C486 O490 1.260 . S
O487 In481 2.266 . S
O487 C484 1.252 . S
O488 In481 2.326 . S
O488 C484 1.260 . S
O489 In481 2.266 . S
O489 C486 1.252 . S
O490 In481 2.326 . S
O490 C486 1.260 . S
C491 O482 1.240 . S
C491 O483 1.252 . S
O492 In481 2.294 . S
O492 C485 1.240 . S
O493 In481 2.326 . S
O493 C485 1.252 . S
In494 O495 2.294 . S
In494 O496 2.326 . S
In494 O500 2.266 . S
In494 O501 2.326 . S
In494 O502 2.266 . S
In494 O503 2.326 . S
In494 O505 2.294 . S
In494 O506 2.326 . S
O495 In494 2.294 . S
O495 C504 1.240 . S
O496 In494 2.326 . S
O496 C504 1.252 . S
C497 O500 1.252 . S
C497 O501 1.260 . S
C498 O505 1.240 . S
C498 O506 1.252 . S
C499 O502 1.252 . S
C499 O503 1.260 . S
O500 In494 2.266 . S
O500 C497 1.252 . S
O501 In494 2.326 . S
O501 C497 1.260 . S
O502 In494 2.266 . S
O502 C499 1.252 . S
O503 In494 2.326 . S
O503 C499 1.260 . S
C504 O495 1.240 . S
C504 O496 1.252 . S
O505 In494 2.294 . S
O505 C498 1.240 . S
O506 In494 2.326 . S
O506 C498 1.252 . S
In507 O508 2.294 . S
In507 O509 2.326 . S
In507 O513 2.266 . S
In507 O514 2.326 . S
In507 O515 2.266 . S
In507 O516 2.326 . S
In507 O518 2.294 . S
In507 O519 2.326 . S
O508 In507 2.294 . S
O508 C517 1.240 . S
O509 In507 2.326 . S
O509 C517 1.252 . S
C510 O513 1.252 . S
C510 O514 1.260 . S
C511 O518 1.240 . S
C511 O519 1.252 . S
C512 O515 1.252 . S
C512 O516 1.260 . S
O513 In507 2.266 . S
O513 C510 1.252 . S
O514 In507 2.326 . S
O514 C510 1.260 . S
O515 In507 2.266 . S
O515 C512 1.252 . S
O516 In507 2.326 . S
O516 C512 1.260 . S
C517 O508 1.240 . S
C517 O509 1.252 . S
O518 In507 2.294 . S
O518 C511 1.240 . S
O519 In507 2.326 . S
O519 C511 1.252 . S
In520 O521 2.294 . S
In520 O522 2.326 . S
In520 O526 2.266 . S
In520 O527 2.326 . S
In520 O528 2.266 . S
In520 O529 2.326 . S
In520 O531 2.294 . S
In520 O532 2.326 . S
O521 In520 2.294 . S
O521 C530 1.240 . S
O522 In520 2.326 . S
O522 C530 1.252 . S
C523 O526 1.252 . S
C523 O527 1.260 . S
C524 O531 1.240 . S
C524 O532 1.252 . S
C525 O528 1.252 . S
C525 O529 1.260 . S
O526 In520 2.266 . S
O526 C523 1.252 . S
O527 In520 2.326 . S
O527 C523 1.260 . S
O528 In520 2.266 . S
O528 C525 1.252 . S
O529 In520 2.326 . S
O529 C525 1.260 . S
C530 O521 1.240 . S
C530 O522 1.252 . S
O531 In520 2.294 . S
O531 C524 1.240 . S
O532 In520 2.326 . S
O532 C524 1.252 . S
In533 O534 2.294 . S
In533 O535 2.326 . S
In533 O539 2.266 . S
In533 O540 2.326 . S
In533 O541 2.266 . S
In533 O542 2.326 . S
In533 O544 2.294 . S
In533 O545 2.326 . S
O534 In533 2.294 . S
O534 C543 1.240 . S
O535 In533 2.326 . S
O535 C543 1.252 . S
C536 O539 1.252 . S
C536 O540 1.260 . S
C537 O544 1.240 . S
C537 O545 1.252 . S
C538 O541 1.252 . S
C538 O542 1.260 . S
O539 In533 2.266 . S
O539 C536 1.252 . S
O540 In533 2.326 . S
O540 C536 1.260 . S
O541 In533 2.266 . S
O541 C538 1.252 . S
O542 In533 2.326 . S
O542 C538 1.260 . S
C543 O534 1.240 . S
C543 O535 1.252 . S
O544 In533 2.294 . S
O544 C537 1.240 . S
O545 In533 2.326 . S
O545 C537 1.252 . S
In546 O547 2.294 . S
In546 O548 2.326 . S
In546 O552 2.266 . S
In546 O553 2.326 . S
In546 O554 2.266 . S
In546 O555 2.326 . S
In546 O557 2.294 . S
In546 O558 2.326 . S
O547 In546 2.294 . S
O547 C556 1.240 . S
O548 In546 2.326 . S
O548 C556 1.252 . S
C549 O552 1.252 . S
C549 O553 1.260 . S
C550 O557 1.240 . S
C550 O558 1.252 . S
C551 O554 1.252 . S
C551 O555 1.260 . S
O552 In546 2.266 . S
O552 C549 1.252 . S
O553 In546 2.326 . S
O553 C549 1.260 . S
O554 In546 2.266 . S
O554 C551 1.252 . S
O555 In546 2.326 . S
O555 C551 1.260 . S
C556 O547 1.240 . S
C556 O548 1.252 . S
O557 In546 2.294 . S
O557 C550 1.240 . S
O558 In546 2.326 . S
O558 C550 1.252 . S
In559 O560 2.294 . S
In559 O561 2.326 . S
In559 O565 2.266 . S
In559 O566 2.326 . S
In559 O567 2.266 . S
In559 O568 2.326 . S
In559 O570 2.294 . S
In559 O571 2.326 . S
O560 In559 2.294 . S
O560 C569 1.240 . S
O561 In559 2.326 . S
O561 C569 1.252 . S
C562 O565 1.252 . S
C562 O566 1.260 . S
C563 O570 1.240 . S
C563 O571 1.252 . S
C564 O567 1.252 . S
C564 O568 1.260 . S
O565 In559 2.266 . S
O565 C562 1.252 . S
O566 In559 2.326 . S
O566 C562 1.260 . S
O567 In559 2.266 . S
O567 C564 1.252 . S
O568 In559 2.326 . S
O568 C564 1.260 . S
C569 O560 1.240 . S
C569 O561 1.252 . S
O570 In559 2.294 . S
O570 C563 1.240 . S
O571 In559 2.326 . S
O571 C563 1.252 . S
In572 O573 2.294 . S
In572 O574 2.326 . S
In572 O578 2.266 . S
In572 O579 2.326 . S
In572 O580 2.266 . S
In572 O581 2.326 . S
In572 O583 2.294 . S
In572 O584 2.326 . S
O573 In572 2.294 . S
O573 C582 1.240 . S
O574 In572 2.326 . S
O574 C582 1.252 . S
C575 O578 1.252 . S
C575 O579 1.260 . S
C576 O583 1.240 . S
C576 O584 1.252 . S
C577 O580 1.252 . S
C577 O581 1.260 . S
O578 In572 2.266 . S
O578 C575 1.252 . S
O579 In572 2.326 . S
O579 C575 1.260 . S
O580 In572 2.266 . S
O580 C577 1.252 . S
O581 In572 2.326 . S
O581 C577 1.260 . S
C582 O573 1.240 . S
C582 O574 1.252 . S
O583 In572 2.294 . S
O583 C576 1.240 . S
O584 In572 2.326 . S
O584 C576 1.252 . S
In585 O586 2.294 . S
In585 O587 2.326 . S
In585 O591 2.266 . S
In585 O592 2.326 . S
In585 O593 2.266 . S
In585 O594 2.326 . S
In585 O596 2.294 . S
In585 O597 2.326 . S
O586 In585 2.294 . S
O586 C595 1.240 . S
O587 In585 2.326 . S
O587 C595 1.252 . S
C588 O591 1.252 . S
C588 O592 1.260 . S
C589 O596 1.240 . S
C589 O597 1.252 . S
C590 O593 1.252 . S
C590 O594 1.260 . S
O591 In585 2.266 . S
O591 C588 1.252 . S
O592 In585 2.326 . S
O592 C588 1.260 . S
O593 In585 2.266 . S
O593 C590 1.252 . S
O594 In585 2.326 . S
O594 C590 1.260 . S
C595 O586 1.240 . S
C595 O587 1.252 . S
O596 In585 2.294 . S
O596 C589 1.240 . S
O597 In585 2.326 . S
O597 C589 1.252 . S
In598 O599 2.294 . S
In598 O600 2.326 . S
In598 O604 2.266 . S
In598 O605 2.326 . S
In598 O606 2.266 . S
In598 O607 2.326 . S
In598 O609 2.294 . S
In598 O610 2.326 . S
O599 In598 2.294 . S
O599 C608 1.240 . S
O600 In598 2.326 . S
O600 C608 1.252 . S
C601 O604 1.252 . S
C601 O605 1.260 . S
C602 O609 1.240 . S
C602 O610 1.252 . S
C603 O606 1.252 . S
C603 O607 1.260 . S
O604 In598 2.266 . S
O604 C601 1.252 . S
O605 In598 2.326 . S
O605 C601 1.260 . S
O606 In598 2.266 . S
O606 C603 1.252 . S
O607 In598 2.326 . S
O607 C603 1.260 . S
C608 O599 1.240 . S
C608 O600 1.252 . S
O609 In598 2.294 . S
O609 C602 1.240 . S
O610 In598 2.326 . S
O610 C602 1.252 . S
In611 O612 2.294 . S
In611 O613 2.326 . S
In611 O617 2.266 . S
In611 O618 2.326 . S
In611 O619 2.266 . S
In611 O620 2.326 . S
In611 O622 2.294 . S
In611 O623 2.326 . S
O612 In611 2.294 . S
O612 C621 1.240 . S
O613 In611 2.326 . S
O613 C621 1.252 . S
C614 O617 1.252 . S
C614 O618 1.260 . S
C615 O622 1.240 . S
C615 O623 1.252 . S
C616 O619 1.252 . S
C616 O620 1.260 . S
O617 In611 2.266 . S
O617 C614 1.252 . S
O618 In611 2.326 . S
O618 C614 1.260 . S
O619 In611 2.266 . S
O619 C616 1.252 . S
O620 In611 2.326 . S
O620 C616 1.260 . S
C621 O612 1.240 . S
C621 O613 1.252 . S
O622 In611 2.294 . S
O622 C615 1.240 . S
O623 In611 2.326 . S
O623 C615 1.252 . S
C624 C625 1.363 . S
C624 C630 1.379 . S
C624 N632 1.356 . S
C625 C624 1.363 . S
C625 C631 1.363 . S
C626 C627 1.363 . S
C626 C631 1.379 . S
C626 N633 1.356 . S
C627 C626 1.363 . S
C627 C630 1.363 . S
N628 C630 1.356 . S
N628 H640 0.984 . S
N628 H641 0.985 . S
N629 C631 1.356 . S
N629 H634 0.984 . S
N629 H635 0.985 . S
C630 C624 1.379 . S
C630 C627 1.363 . S
C630 N628 1.356 . S
C631 C625 1.363 . S
C631 C626 1.379 . S
C631 N629 1.356 . S
N632 C624 1.356 . S
N632 H638 0.984 . S
N632 H639 0.984 . S
N633 C626 1.356 . S
N633 H636 0.984 . S
N633 H637 0.985 . S
H634 N629 0.984 . S
H635 N629 0.985 . S
H636 N633 0.984 . S
H637 N633 0.985 . S
H638 N632 0.984 . S
H639 N632 0.984 . S
H640 N628 0.984 . S
H641 N628 0.985 . S
C642 C643 1.363 . S
C642 C648 1.379 . S
C642 N650 1.356 . S
C643 C642 1.363 . S
C643 C649 1.363 . S
C644 C645 1.363 . S
C644 C649 1.379 . S
C644 N651 1.356 . S
C645 C644 1.363 . S
C645 C648 1.363 . S
N646 C648 1.356 . S
N646 H658 0.984 . S
N646 H659 0.985 . S
N647 C649 1.356 . S
N647 H652 0.984 . S
N647 H653 0.985 . S
C648 C642 1.379 . S
C648 C645 1.363 . S
C648 N646 1.356 . S
C649 C643 1.363 . S
C649 C644 1.379 . S
C649 N647 1.356 . S
N650 C642 1.356 . S
N650 H656 0.984 . S
N650 H657 0.984 . S
N651 C644 1.356 . S
N651 H654 0.984 . S
N651 H655 0.985 . S
H652 N647 0.984 . S
H653 N647 0.985 . S
H654 N651 0.984 . S
H655 N651 0.985 . S
H656 N650 0.984 . S
H657 N650 0.984 . S
H658 N646 0.984 . S
H659 N646 0.985 . S
C660 C661 1.363 . S
C660 C666 1.379 . S
C660 N668 1.356 . S
C661 C660 1.363 . S
C661 C667 1.363 . S
C662 C663 1.363 . S
C662 C667 1.379 . S
C662 N669 1.356 . S
C663 C662 1.363 . S
C663 C666 1.363 . S
N664 C666 1.356 . S
N664 H676 0.984 . S
N664 H677 0.985 . S
N665 C667 1.356 . S
N665 H670 0.984 . S
N665 H671 0.985 . S
C666 C660 1.379 . S
C666 C663 1.363 . S
C666 N664 1.356 . S
C667 C661 1.363 . S
C667 C662 1.379 . S
C667 N665 1.356 . S
N668 C660 1.356 . S
N668 H674 0.984 . S
N668 H675 0.984 . S
N669 C662 1.356 . S
N669 H672 0.984 . S
N669 H673 0.985 . S
H670 N665 0.984 . S
H671 N665 0.985 . S
H672 N669 0.984 . S
H673 N669 0.985 . S
H674 N668 0.984 . S
H675 N668 0.984 . S
H676 N664 0.984 . S
H677 N664 0.985 . S
C678 C679 1.363 . S
C678 C684 1.379 . S
C678 N686 1.356 . S
C679 C678 1.363 . S
C679 C685 1.363 . S
C680 C681 1.363 . S
C680 C685 1.379 . S
C680 N687 1.356 . S
C681 C680 1.363 . S
C681 C684 1.363 . S
N682 C684 1.356 . S
N682 H694 0.984 . S
N682 H695 0.985 . S
N683 C685 1.356 . S
N683 H688 0.984 . S
N683 H689 0.985 . S
C684 C678 1.379 . S
C684 C681 1.363 . S
C684 N682 1.356 . S
C685 C679 1.363 . S
C685 C680 1.379 . S
C685 N683 1.356 . S
N686 C678 1.356 . S
N686 H692 0.984 . S
N686 H693 0.984 . S
N687 C680 1.356 . S
N687 H690 0.984 . S
N687 H691 0.985 . S
H688 N683 0.984 . S
H689 N683 0.985 . S
H690 N687 0.984 . S
H691 N687 0.985 . S
H692 N686 0.984 . S
H693 N686 0.984 . S
H694 N682 0.984 . S
H695 N682 0.985 . S
C696 C697 1.363 . S
C696 C702 1.379 . S
C696 N704 1.356 . S
C697 C696 1.363 . S
C697 C703 1.363 . S
C698 C699 1.363 . S
C698 C703 1.379 . S
C698 N705 1.356 . S
C699 C698 1.363 . S
C699 C702 1.363 . S
N700 C702 1.356 . S
N700 H712 0.984 . S
N700 H713 0.985 . S
N701 C703 1.356 . S
N701 H706 0.984 . S
N701 H707 0.985 . S
C702 C696 1.379 . S
C702 C699 1.363 . S
C702 N700 1.356 . S
C703 C697 1.363 . S
C703 C698 1.379 . S
C703 N701 1.356 . S
N704 C696 1.356 . S
N704 H710 0.984 . S
N704 H711 0.984 . S
N705 C698 1.356 . S
N705 H708 0.984 . S
N705 H709 0.985 . S
H706 N701 0.984 . S
H707 N701 0.985 . S
H708 N705 0.984 . S
H709 N705 0.985 . S
H710 N704 0.984 . S
H711 N704 0.984 . S
H712 N700 0.984 . S
H713 N700 0.985 . S
C714 C715 1.363 . S
C714 C720 1.379 . S
C714 N722 1.356 . S
C715 C714 1.363 . S
C715 C721 1.363 . S
C716 C717 1.363 . S
C716 C721 1.379 . S
C716 N723 1.356 . S
C717 C716 1.363 . S
C717 C720 1.363 . S
N718 C720 1.356 . S
N718 H730 0.984 . S
N718 H731 0.985 . S
N719 C721 1.356 . S
N719 H724 0.984 . S
N719 H725 0.985 . S
C720 C714 1.379 . S
C720 C717 1.363 . S
C720 N718 1.356 . S
C721 C715 1.363 . S
C721 C716 1.379 . S
C721 N719 1.356 . S
N722 C714 1.356 . S
N722 H728 0.984 . S
N722 H729 0.984 . S
N723 C716 1.356 . S
N723 H726 0.984 . S
N723 H727 0.985 . S
H724 N719 0.984 . S
H725 N719 0.985 . S
H726 N723 0.984 . S
H727 N723 0.985 . S
H728 N722 0.984 . S
H729 N722 0.984 . S
H730 N718 0.984 . S
H731 N718 0.985 . S
C732 C733 1.363 . S
C732 C738 1.379 . S
C732 N740 1.356 . S
C733 C732 1.363 . S
C733 C739 1.363 . S
C734 C735 1.363 . S
C734 C739 1.379 . S
C734 N741 1.356 . S
C735 C734 1.363 . S
C735 C738 1.363 . S
N736 C738 1.356 . S
N736 H748 0.984 . S
N736 H749 0.985 . S
N737 C739 1.356 . S
N737 H742 0.984 . S
N737 H743 0.985 . S
C738 C732 1.379 . S
C738 C735 1.363 . S
C738 N736 1.356 . S
C739 C733 1.363 . S
C739 C734 1.379 . S
C739 N737 1.356 . S
N740 C732 1.356 . S
N740 H746 0.984 . S
N740 H747 0.984 . S
N741 C734 1.356 . S
N741 H744 0.984 . S
N741 H745 0.985 . S
H742 N737 0.984 . S
H743 N737 0.985 . S
H744 N741 0.984 . S
H745 N741 0.985 . S
H746 N740 0.984 . S
H747 N740 0.984 . S
H748 N736 0.984 . S
H749 N736 0.985 . S
C750 C751 1.363 . S
C750 C756 1.379 . S
C750 N758 1.356 . S
C751 C750 1.363 . S
C751 C757 1.363 . S
C752 C753 1.363 . S
C752 C757 1.379 . S
C752 N759 1.356 . S
C753 C752 1.363 . S
C753 C756 1.363 . S
N754 C756 1.356 . S
N754 H766 0.984 . S
N754 H767 0.985 . S
N755 C757 1.356 . S
N755 H760 0.984 . S
N755 H761 0.985 . S
C756 C750 1.379 . S
C756 C753 1.363 . S
C756 N754 1.356 . S
C757 C751 1.363 . S
C757 C752 1.379 . S
C757 N755 1.356 . S
N758 C750 1.356 . S
N758 H764 0.984 . S
N758 H765 0.984 . S
N759 C752 1.356 . S
N759 H762 0.984 . S
N759 H763 0.985 . S
H760 N755 0.984 . S
H761 N755 0.985 . S
H762 N759 0.984 . S
H763 N759 0.985 . S
H764 N758 0.984 . S
H765 N758 0.984 . S
H766 N754 0.984 . S
H767 N754 0.985 . S
C768 C769 1.363 . S
C768 C774 1.379 . S
C768 N776 1.356 . S
C769 C768 1.363 . S
C769 C775 1.363 . S
C770 C771 1.363 . S
C770 C775 1.379 . S
C770 N777 1.356 . S
C771 C770 1.363 . S
C771 C774 1.363 . S
N772 C774 1.356 . S
N772 H784 0.984 . S
N772 H785 0.985 . S
N773 C775 1.356 . S
N773 H778 0.984 . S
N773 H779 0.985 . S
C774 C768 1.379 . S
C774 C771 1.363 . S
C774 N772 1.356 . S
C775 C769 1.363 . S
C775 C770 1.379 . S
C775 N773 1.356 . S
N776 C768 1.356 . S
N776 H782 0.984 . S
N776 H783 0.984 . S
N777 C770 1.356 . S
N777 H780 0.984 . S
N777 H781 0.985 . S
H778 N773 0.984 . S
H779 N773 0.985 . S
H780 N777 0.984 . S
H781 N777 0.985 . S
H782 N776 0.984 . S
H783 N776 0.984 . S
H784 N772 0.984 . S
H785 N772 0.985 . S
C786 C787 1.363 . S
C786 C792 1.379 . S
C786 N794 1.356 . S
C787 C786 1.363 . S
C787 C793 1.363 . S
C788 C789 1.363 . S
C788 C793 1.379 . S
C788 N795 1.356 . S
C789 C788 1.363 . S
C789 C792 1.363 . S
N790 C792 1.356 . S
N790 H802 0.984 . S
N790 H803 0.985 . S
N791 C793 1.356 . S
N791 H796 0.984 . S
N791 H797 0.985 . S
C792 C786 1.379 . S
C792 C789 1.363 . S
C792 N790 1.356 . S
C793 C787 1.363 . S
C793 C788 1.379 . S
C793 N791 1.356 . S
N794 C786 1.356 . S
N794 H800 0.984 . S
N794 H801 0.984 . S
N795 C788 1.356 . S
N795 H798 0.984 . S
N795 H799 0.985 . S
H796 N791 0.984 . S
H797 N791 0.985 . S
H798 N795 0.984 . S
H799 N795 0.985 . S
H800 N794 0.984 . S
H801 N794 0.984 . S
H802 N790 0.984 . S
H803 N790 0.985 . S
C804 C805 1.363 . S
C804 C810 1.379 . S
C804 N812 1.356 . S
C805 C804 1.363 . S
C805 C811 1.363 . S
C806 C807 1.363 . S
C806 C811 1.379 . S
C806 N813 1.356 . S
C807 C806 1.363 . S
C807 C810 1.363 . S
N808 C810 1.356 . S
N808 H820 0.984 . S
N808 H821 0.985 . S
N809 C811 1.356 . S
N809 H814 0.984 . S
N809 H815 0.985 . S
C810 C804 1.379 . S
C810 C807 1.363 . S
C810 N808 1.356 . S
C811 C805 1.363 . S
C811 C806 1.379 . S
C811 N809 1.356 . S
N812 C804 1.356 . S
N812 H818 0.984 . S
N812 H819 0.984 . S
N813 C806 1.356 . S
N813 H816 0.984 . S
N813 H817 0.985 . S
H814 N809 0.984 . S
H815 N809 0.985 . S
H816 N813 0.984 . S
H817 N813 0.985 . S
H818 N812 0.984 . S
H819 N812 0.984 . S
H820 N808 0.984 . S
H821 N808 0.985 . S
C822 C823 1.363 . S
C822 C828 1.379 . S
C822 N830 1.356 . S
C823 C822 1.363 . S
C823 C829 1.363 . S
C824 C825 1.363 . S
C824 C829 1.379 . S
C824 N831 1.356 . S
C825 C824 1.363 . S
C825 C828 1.363 . S
N826 C828 1.356 . S
N826 H838 0.984 . S
N826 H839 0.985 . S
N827 C829 1.356 . S
N827 H832 0.984 . S
N827 H833 0.985 . S
C828 C822 1.379 . S
C828 C825 1.363 . S
C828 N826 1.356 . S
C829 C823 1.363 . S
C829 C824 1.379 . S
C829 N827 1.356 . S
N830 C822 1.356 . S
N830 H836 0.984 . S
N830 H837 0.984 . S
N831 C824 1.356 . S
N831 H834 0.984 . S
N831 H835 0.985 . S
H832 N827 0.984 . S
H833 N827 0.985 . S
H834 N831 0.984 . S
H835 N831 0.985 . S
H836 N830 0.984 . S
H837 N830 0.984 . S
H838 N826 0.984 . S
H839 N826 0.985 . S
C840 C841 1.363 . S
C840 C846 1.379 . S
C840 N848 1.356 . S
C841 C840 1.363 . S
C841 C847 1.363 . S
C842 C843 1.363 . S
C842 C847 1.379 . S
C842 N849 1.356 . S
C843 C842 1.363 . S
C843 C846 1.363 . S
N844 C846 1.356 . S
N844 H856 0.984 . S
N844 H857 0.985 . S
N845 C847 1.356 . S
N845 H850 0.984 . S
N845 H851 0.985 . S
C846 C840 1.379 . S
C846 C843 1.363 . S
C846 N844 1.356 . S
C847 C841 1.363 . S
C847 C842 1.379 . S
C847 N845 1.356 . S
N848 C840 1.356 . S
N848 H854 0.984 . S
N848 H855 0.984 . S
N849 C842 1.356 . S
N849 H852 0.984 . S
N849 H853 0.985 . S
H850 N845 0.984 . S
H851 N845 0.985 . S
H852 N849 0.984 . S
H853 N849 0.985 . S
H854 N848 0.984 . S
H855 N848 0.984 . S
H856 N844 0.984 . S
H857 N844 0.985 . S
C858 C859 1.363 . S
C858 C864 1.379 . S
C858 N866 1.356 . S
C859 C858 1.363 . S
C859 C865 1.363 . S
C860 C861 1.363 . S
C860 C865 1.379 . S
C860 N867 1.356 . S
C861 C860 1.363 . S
C861 C864 1.363 . S
N862 C864 1.356 . S
N862 H874 0.984 . S
N862 H875 0.985 . S
N863 C865 1.356 . S
N863 H868 0.984 . S
N863 H869 0.985 . S
C864 C858 1.379 . S
C864 C861 1.363 . S
C864 N862 1.356 . S
C865 C859 1.363 . S
C865 C860 1.379 . S
C865 N863 1.356 . S
N866 C858 1.356 . S
N866 H872 0.984 . S
N866 H873 0.984 . S
N867 C860 1.356 . S
N867 H870 0.984 . S
N867 H871 0.985 . S
H868 N863 0.984 . S
H869 N863 0.985 . S
H870 N867 0.984 . S
H871 N867 0.985 . S
H872 N866 0.984 . S
H873 N866 0.984 . S
H874 N862 0.984 . S
H875 N862 0.985 . S
C876 C877 1.363 . S
C876 C882 1.379 . S
C876 N884 1.356 . S
C877 C876 1.363 . S
C877 C883 1.363 . S
C878 C879 1.363 . S
C878 C883 1.379 . S
C878 N885 1.356 . S
C879 C878 1.363 . S
C879 C882 1.363 . S
N880 C882 1.356 . S
N880 H892 0.984 . S
N880 H893 0.985 . S
N881 C883 1.356 . S
N881 H886 0.984 . S
N881 H887 0.985 . S
C882 C876 1.379 . S
C882 C879 1.363 . S
C882 N880 1.356 . S
C883 C877 1.363 . S
C883 C878 1.379 . S
C883 N881 1.356 . S
N884 C876 1.356 . S
N884 H890 0.984 . S
N884 H891 0.984 . S
N885 C878 1.356 . S
N885 H888 0.984 . S
N885 H889 0.985 . S
H886 N881 0.984 . S
H887 N881 0.985 . S
H888 N885 0.984 . S
H889 N885 0.985 . S
H890 N884 0.984 . S
H891 N884 0.984 . S
H892 N880 0.984 . S
H893 N880 0.985 . S
C894 C895 1.363 . S
C894 C900 1.379 . S
C894 N902 1.356 . S
C895 C894 1.363 . S
C895 C901 1.363 . S
C896 C897 1.363 . S
C896 C901 1.379 . S
C896 N903 1.356 . S
C897 C896 1.363 . S
C897 C900 1.363 . S
N898 C900 1.356 . S
N898 H910 0.984 . S
N898 H911 0.985 . S
N899 C901 1.356 . S
N899 H904 0.984 . S
N899 H905 0.985 . S
C900 C894 1.379 . S
C900 C897 1.363 . S
C900 N898 1.356 . S
C901 C895 1.363 . S
C901 C896 1.379 . S
C901 N899 1.356 . S
N902 C894 1.356 . S
N902 H908 0.984 . S
N902 H909 0.984 . S
N903 C896 1.356 . S
N903 H906 0.984 . S
N903 H907 0.985 . S
H904 N899 0.984 . S
H905 N899 0.985 . S
H906 N903 0.984 . S
H907 N903 0.985 . S
H908 N902 0.984 . S
H909 N902 0.984 . S
H910 N898 0.984 . S
H911 N898 0.985 . S
C912 C913 1.363 . S
C912 C918 1.379 . S
C912 N920 1.356 . S
C913 C912 1.363 . S
C913 C919 1.363 . S
C914 C915 1.363 . S
C914 C919 1.379 . S
C914 N921 1.356 . S
C915 C914 1.363 . S
C915 C918 1.363 . S
N916 C918 1.356 . S
N916 H928 0.984 . S
N916 H929 0.985 . S
N917 C919 1.356 . S
N917 H922 0.984 . S
N917 H923 0.985 . S
C918 C912 1.379 . S
C918 C915 1.363 . S
C918 N916 1.356 . S
C919 C913 1.363 . S
C919 C914 1.379 . S
C919 N917 1.356 . S
N920 C912 1.356 . S
N920 H926 0.984 . S
N920 H927 0.984 . S
N921 C914 1.356 . S
N921 H924 0.984 . S
N921 H925 0.985 . S
H922 N917 0.984 . S
H923 N917 0.985 . S
H924 N921 0.984 . S
H925 N921 0.985 . S
H926 N920 0.984 . S
H927 N920 0.984 . S
H928 N916 0.984 . S
H929 N916 0.985 . S
C930 C931 1.363 . S
C930 C936 1.379 . S
C930 N938 1.356 . S
C931 C930 1.363 . S
C931 C937 1.363 . S
C932 C933 1.363 . S
C932 C937 1.379 . S
C932 N939 1.356 . S
C933 C932 1.363 . S
C933 C936 1.363 . S
N934 C936 1.356 . S
N934 H946 0.984 . S
N934 H947 0.985 . S
N935 C937 1.356 . S
N935 H940 0.984 . S
N935 H941 0.985 . S
C936 C930 1.379 . S
C936 C933 1.363 . S
C936 N934 1.356 . S
C937 C931 1.363 . S
C937 C932 1.379 . S
C937 N935 1.356 . S
N938 C930 1.356 . S
N938 H944 0.984 . S
N938 H945 0.984 . S
N939 C932 1.356 . S
N939 H942 0.984 . S
N939 H943 0.985 . S
H940 N935 0.984 . S
H941 N935 0.985 . S
H942 N939 0.984 . S
H943 N939 0.985 . S
H944 N938 0.984 . S
H945 N938 0.984 . S
H946 N934 0.984 . S
H947 N934 0.985 . S
C948 C949 1.363 . S
C948 C954 1.379 . S
C948 N956 1.356 . S
C949 C948 1.363 . S
C949 C955 1.363 . S
C950 C951 1.363 . S
C950 C955 1.379 . S
C950 N957 1.356 . S
C951 C950 1.363 . S
C951 C954 1.363 . S
N952 C954 1.356 . S
N952 H964 0.984 . S
N952 H965 0.985 . S
N953 C955 1.356 . S
N953 H958 0.984 . S
N953 H959 0.985 . S
C954 C948 1.379 . S
C954 C951 1.363 . S
C954 N952 1.356 . S
C955 C949 1.363 . S
C955 C950 1.379 . S
C955 N953 1.356 . S
N956 C948 1.356 . S
N956 H962 0.984 . S
N956 H963 0.984 . S
N957 C950 1.356 . S
N957 H960 0.984 . S
N957 H961 0.985 . S
H958 N953 0.984 . S
H959 N953 0.985 . S
H960 N957 0.984 . S
H961 N957 0.985 . S
H962 N956 0.984 . S
H963 N956 0.984 . S
H964 N952 0.984 . S
H965 N952 0.985 . S
C966 C967 1.363 . S
C966 C972 1.379 . S
C966 N974 1.356 . S
C967 C966 1.363 . S
C967 C973 1.363 . S
C968 C969 1.363 . S
C968 C973 1.379 . S
C968 N975 1.356 . S
C969 C968 1.363 . S
C969 C972 1.363 . S
N970 C972 1.356 . S
N970 H982 0.984 . S
N970 H983 0.985 . S
N971 C973 1.356 . S
N971 H976 0.984 . S
N971 H977 0.985 . S
C972 C966 1.379 . S
C972 C969 1.363 . S
C972 N970 1.356 . S
C973 C967 1.363 . S
C973 C968 1.379 . S
C973 N971 1.356 . S
N974 C966 1.356 . S
N974 H980 0.984 . S
N974 H981 0.984 . S
N975 C968 1.356 . S
N975 H978 0.984 . S
N975 H979 0.985 . S
H976 N971 0.984 . S
H977 N971 0.985 . S
H978 N975 0.984 . S
H979 N975 0.985 . S
H980 N974 0.984 . S
H981 N974 0.984 . S
H982 N970 0.984 . S
H983 N970 0.985 . S
C984 C985 1.363 . S
C984 C990 1.379 . S
C984 N992 1.356 . S
C985 C984 1.363 . S
C985 C991 1.363 . S
C986 C987 1.363 . S
C986 C991 1.379 . S
C986 N993 1.356 . S
C987 C986 1.363 . S
C987 C990 1.363 . S
N988 C990 1.356 . S
N988 H1000 0.984 . S
N988 H1001 0.985 . S
N989 C991 1.356 . S
N989 H994 0.984 . S
N989 H995 0.985 . S
C990 C984 1.379 . S
C990 C987 1.363 . S
C990 N988 1.356 . S
C991 C985 1.363 . S
C991 C986 1.379 . S
C991 N989 1.356 . S
N992 C984 1.356 . S
N992 H998 0.984 . S
N992 H999 0.984 . S
N993 C986 1.356 . S
N993 H996 0.984 . S
N993 H997 0.985 . S
H994 N989 0.984 . S
H995 N989 0.985 . S
H996 N993 0.984 . S
H997 N993 0.985 . S
H998 N992 0.984 . S
H999 N992 0.984 . S
H1000 N988 0.984 . S
H1001 N988 0.985 . S
C1002 C1003 1.363 . S
C1002 C1008 1.379 . S
C1002 N1010 1.356 . S
C1003 C1002 1.363 . S
C1003 C1009 1.363 . S
C1004 C1005 1.363 . S
C1004 C1009 1.379 . S
C1004 N1011 1.356 . S
C1005 C1004 1.363 . S
C1005 C1008 1.363 . S
N1006 C1008 1.356 . S
N1006 H1018 0.984 . S
N1006 H1019 0.985 . S
N1007 C1009 1.356 . S
N1007 H1012 0.984 . S
N1007 H1013 0.985 . S
C1008 C1002 1.379 . S
C1008 C1005 1.363 . S
C1008 N1006 1.356 . S
C1009 C1003 1.363 . S
C1009 C1004 1.379 . S
C1009 N1007 1.356 . S
N1010 C1002 1.356 . S
N1010 H1016 0.984 . S
N1010 H1017 0.984 . S
N1011 C1004 1.356 . S
N1011 H1014 0.984 . S
N1011 H1015 0.985 . S
H1012 N1007 0.984 . S
H1013 N1007 0.985 . S
H1014 N1011 0.984 . S
H1015 N1011 0.985 . S
H1016 N1010 0.984 . S
H1017 N1010 0.984 . S
H1018 N1006 0.984 . S
H1019 N1006 0.985 . S
C1020 C1021 1.363 . S
C1020 C1026 1.379 . S
C1020 N1028 1.356 . S
C1021 C1020 1.363 . S
C1021 C1027 1.363 . S
C1022 C1023 1.363 . S
C1022 C1027 1.379 . S
C1022 N1029 1.356 . S
C1023 C1022 1.363 . S
C1023 C1026 1.363 . S
N1024 C1026 1.356 . S
N1024 H1036 0.984 . S
N1024 H1037 0.985 . S
N1025 C1027 1.356 . S
N1025 H1030 0.984 . S
N1025 H1031 0.985 . S
C1026 C1020 1.379 . S
C1026 C1023 1.363 . S
C1026 N1024 1.356 . S
C1027 C1021 1.363 . S
C1027 C1022 1.379 . S
C1027 N1025 1.356 . S
N1028 C1020 1.356 . S
N1028 H1034 0.984 . S
N1028 H1035 0.984 . S
N1029 C1022 1.356 . S
N1029 H1032 0.984 . S
N1029 H1033 0.985 . S
H1030 N1025 0.984 . S
H1031 N1025 0.985 . S
H1032 N1029 0.984 . S
H1033 N1029 0.985 . S
H1034 N1028 0.984 . S
H1035 N1028 0.984 . S
H1036 N1024 0.984 . S
H1037 N1024 0.985 . S
C1038 C1039 1.363 . S
C1038 C1044 1.379 . S
C1038 N1046 1.356 . S
C1039 C1038 1.363 . S
C1039 C1045 1.363 . S
C1040 C1041 1.363 . S
C1040 C1045 1.379 . S
C1040 N1047 1.356 . S
C1041 C1040 1.363 . S
C1041 C1044 1.363 . S
N1042 C1044 1.356 . S
N1042 H1054 0.984 . S
N1042 H1055 0.985 . S
N1043 C1045 1.356 . S
N1043 H1048 0.984 . S
N1043 H1049 0.985 . S
C1044 C1038 1.379 . S
C1044 C1041 1.363 . S
C1044 N1042 1.356 . S
C1045 C1039 1.363 . S
C1045 C1040 1.379 . S
C1045 N1043 1.356 . S
N1046 C1038 1.356 . S
N1046 H1052 0.984 . S
N1046 H1053 0.984 . S
N1047 C1040 1.356 . S
N1047 H1050 0.984 . S
N1047 H1051 0.985 . S
H1048 N1043 0.984 . S
H1049 N1043 0.985 . S
H1050 N1047 0.984 . S
H1051 N1047 0.985 . S
H1052 N1046 0.984 . S
H1053 N1046 0.984 . S
H1054 N1042 0.984 . S
H1055 N1042 0.985 . S
C1056 C1057 1.363 . S
C1056 C1062 1.379 . S
C1056 N1064 1.356 . S
C1057 C1056 1.363 . S
C1057 C1063 1.363 . S
C1058 C1059 1.363 . S
C1058 C1063 1.379 . S
C1058 N1065 1.356 . S
C1059 C1058 1.363 . S
C1059 C1062 1.363 . S
N1060 C1062 1.356 . S
N1060 H1072 0.984 . S
N1060 H1073 0.985 . S
N1061 C1063 1.356 . S
N1061 H1066 0.984 . S
N1061 H1067 0.985 . S
C1062 C1056 1.379 . S
C1062 C1059 1.363 . S
C1062 N1060 1.356 . S
C1063 C1057 1.363 . S
C1063 C1058 1.379 . S
C1063 N1061 1.356 . S
N1064 C1056 1.356 . S
N1064 H1070 0.984 . S
N1064 H1071 0.984 . S
N1065 C1058 1.356 . S
N1065 H1068 0.984 . S
N1065 H1069 0.985 . S
H1066 N1061 0.984 . S
H1067 N1061 0.985 . S
H1068 N1065 0.984 . S
H1069 N1065 0.985 . S
H1070 N1064 0.984 . S
H1071 N1064 0.984 . S
H1072 N1060 0.984 . S
H1073 N1060 0.985 . S
C1074 C1075 1.363 . S
C1074 C1080 1.379 . S
C1074 N1082 1.356 . S
C1075 C1074 1.363 . S
C1075 C1081 1.363 . S
C1076 C1077 1.363 . S
C1076 C1081 1.379 . S
C1076 N1083 1.356 . S
C1077 C1076 1.363 . S
C1077 C1080 1.363 . S
N1078 C1080 1.356 . S
N1078 H1090 0.984 . S
N1078 H1091 0.985 . S
N1079 C1081 1.356 . S
N1079 H1084 0.984 . S
N1079 H1085 0.985 . S
C1080 C1074 1.379 . S
C1080 C1077 1.363 . S
C1080 N1078 1.356 . S
C1081 C1075 1.363 . S
C1081 C1076 1.379 . S
C1081 N1079 1.356 . S
N1082 C1074 1.356 . S
N1082 H1088 0.984 . S
N1082 H1089 0.984 . S
N1083 C1076 1.356 . S
N1083 H1086 0.984 . S
N1083 H1087 0.985 . S
H1084 N1079 0.984 . S
H1085 N1079 0.985 . S
H1086 N1083 0.984 . S
H1087 N1083 0.985 . S
H1088 N1082 0.984 . S
H1089 N1082 0.984 . S
H1090 N1078 0.984 . S
H1091 N1078 0.985 . S
C1092 C1093 1.363 . S
C1092 C1098 1.379 . S
C1092 N1100 1.356 . S
C1093 C1092 1.363 . S
C1093 C1099 1.363 . S
C1094 C1095 1.363 . S
C1094 C1099 1.379 . S
C1094 N1101 1.356 . S
C1095 C1094 1.363 . S
C1095 C1098 1.363 . S
N1096 C1098 1.356 . S
N1096 H1108 0.984 . S
N1096 H1109 0.985 . S
N1097 C1099 1.356 . S
N1097 H1102 0.984 . S
N1097 H1103 0.985 . S
C1098 C1092 1.379 . S
C1098 C1095 1.363 . S
C1098 N1096 1.356 . S
C1099 C1093 1.363 . S
C1099 C1094 1.379 . S
C1099 N1097 1.356 . S
N1100 C1092 1.356 . S
N1100 H1106 0.984 . S
N1100 H1107 0.984 . S
N1101 C1094 1.356 . S
N1101 H1104 0.984 . S
N1101 H1105 0.985 . S
H1102 N1097 0.984 . S
H1103 N1097 0.985 . S
H1104 N1101 0.984 . S
H1105 N1101 0.985 . S
H1106 N1100 0.984 . S
H1107 N1100 0.984 . S
H1108 N1096 0.984 . S
H1109 N1096 0.985 . S
C1110 C1111 1.363 . S
C1110 C1116 1.379 . S
C1110 N1118 1.356 . S
C1111 C1110 1.363 . S
C1111 C1117 1.363 . S
C1112 C1113 1.363 . S
C1112 C1117 1.379 . S
C1112 N1119 1.356 . S
C1113 C1112 1.363 . S
C1113 C1116 1.363 . S
N1114 C1116 1.356 . S
N1114 H1126 0.984 . S
N1114 H1127 0.985 . S
N1115 C1117 1.356 . S
N1115 H1120 0.984 . S
N1115 H1121 0.985 . S
C1116 C1110 1.379 . S
C1116 C1113 1.363 . S
C1116 N1114 1.356 . S
C1117 C1111 1.363 . S
C1117 C1112 1.379 . S
C1117 N1115 1.356 . S
N1118 C1110 1.356 . S
N1118 H1124 0.984 . S
N1118 H1125 0.984 . S
N1119 C1112 1.356 . S
N1119 H1122 0.984 . S
N1119 H1123 0.985 . S
H1120 N1115 0.984 . S
H1121 N1115 0.985 . S
H1122 N1119 0.984 . S
H1123 N1119 0.985 . S
H1124 N1118 0.984 . S
H1125 N1118 0.984 . S
H1126 N1114 0.984 . S
H1127 N1114 0.985 . S
C1128 C1129 1.363 . S
C1128 C1134 1.379 . S
C1128 N1136 1.356 . S
C1129 C1128 1.363 . S
C1129 C1135 1.363 . S
C1130 C1131 1.363 . S
C1130 C1135 1.379 . S
C1130 N1137 1.356 . S
C1131 C1130 1.363 . S
C1131 C1134 1.363 . S
N1132 C1134 1.356 . S
N1132 H1144 0.984 . S
N1132 H1145 0.985 . S
N1133 C1135 1.356 . S
N1133 H1138 0.984 . S
N1133 H1139 0.985 . S
C1134 C1128 1.379 . S
C1134 C1131 1.363 . S
C1134 N1132 1.356 . S
C1135 C1129 1.363 . S
C1135 C1130 1.379 . S
C1135 N1133 1.356 . S
N1136 C1128 1.356 . S
N1136 H1142 0.984 . S
N1136 H1143 0.984 . S
N1137 C1130 1.356 . S
N1137 H1140 0.984 . S
N1137 H1141 0.985 . S
H1138 N1133 0.984 . S
H1139 N1133 0.985 . S
H1140 N1137 0.984 . S
H1141 N1137 0.985 . S
H1142 N1136 0.984 . S
H1143 N1136 0.984 . S
H1144 N1132 0.984 . S
H1145 N1132 0.985 . S
C1146 C1147 1.363 . S
C1146 C1152 1.379 . S
C1146 N1154 1.356 . S
C1147 C1146 1.363 . S
C1147 C1153 1.363 . S
C1148 C1149 1.363 . S
C1148 C1153 1.379 . S
C1148 N1155 1.356 . S
C1149 C1148 1.363 . S
C1149 C1152 1.363 . S
N1150 C1152 1.356 . S
N1150 H1162 0.984 . S
N1150 H1163 0.985 . S
N1151 C1153 1.356 . S
N1151 H1156 0.984 . S
N1151 H1157 0.985 . S
C1152 C1146 1.379 . S
C1152 C1149 1.363 . S
C1152 N1150 1.356 . S
C1153 C1147 1.363 . S
C1153 C1148 1.379 . S
C1153 N1151 1.356 . S
N1154 C1146 1.356 . S
N1154 H1160 0.984 . S
N1154 H1161 0.984 . S
N1155 C1148 1.356 . S
N1155 H1158 0.984 . S
N1155 H1159 0.985 . S
H1156 N1151 0.984 . S
H1157 N1151 0.985 . S
H1158 N1155 0.984 . S
H1159 N1155 0.985 . S
H1160 N1154 0.984 . S
H1161 N1154 0.984 . S
H1162 N1150 0.984 . S
H1163 N1150 0.985 . S
C1164 C1165 1.363 . S
C1164 C1170 1.379 . S
C1164 N1172 1.356 . S
C1165 C1164 1.363 . S
C1165 C1171 1.363 . S
C1166 C1167 1.363 . S
C1166 C1171 1.379 . S
C1166 N1173 1.356 . S
C1167 C1166 1.363 . S
C1167 C1170 1.363 . S
N1168 C1170 1.356 . S
N1168 H1180 0.984 . S
N1168 H1181 0.985 . S
N1169 C1171 1.356 . S
N1169 H1174 0.984 . S
N1169 H1175 0.985 . S
C1170 C1164 1.379 . S
C1170 C1167 1.363 . S
C1170 N1168 1.356 . S
C1171 C1165 1.363 . S
C1171 C1166 1.379 . S
C1171 N1169 1.356 . S
N1172 C1164 1.356 . S
N1172 H1178 0.984 . S
N1172 H1179 0.984 . S
N1173 C1166 1.356 . S
N1173 H1176 0.984 . S
N1173 H1177 0.985 . S
H1174 N1169 0.984 . S
H1175 N1169 0.985 . S
H1176 N1173 0.984 . S
H1177 N1173 0.985 . S
H1178 N1172 0.984 . S
H1179 N1172 0.984 . S
H1180 N1168 0.984 . S
H1181 N1168 0.985 . S
C1182 C1183 1.363 . S
C1182 C1188 1.379 . S
C1182 N1190 1.356 . S
C1183 C1182 1.363 . S
C1183 C1189 1.363 . S
C1184 C1185 1.363 . S
C1184 C1189 1.379 . S
C1184 N1191 1.356 . S
C1185 C1184 1.363 . S
C1185 C1188 1.363 . S
N1186 C1188 1.356 . S
N1186 H1198 0.984 . S
N1186 H1199 0.985 . S
N1187 C1189 1.356 . S
N1187 H1192 0.984 . S
N1187 H1193 0.985 . S
C1188 C1182 1.379 . S
C1188 C1185 1.363 . S
C1188 N1186 1.356 . S
C1189 C1183 1.363 . S
C1189 C1184 1.379 . S
C1189 N1187 1.356 . S
N1190 C1182 1.356 . S
N1190 H1196 0.984 . S
N1190 H1197 0.984 . S
N1191 C1184 1.356 . S
N1191 H1194 0.984 . S
N1191 H1195 0.985 . S
H1192 N1187 0.984 . S
H1193 N1187 0.985 . S
H1194 N1191 0.984 . S
H1195 N1191 0.985 . S
H1196 N1190 0.984 . S
H1197 N1190 0.984 . S
H1198 N1186 0.984 . S
H1199 N1186 0.985 . S
C1200 C1201 1.363 . S
C1200 C1206 1.379 . S
C1200 N1208 1.356 . S
C1201 C1200 1.363 . S
C1201 C1207 1.363 . S
C1202 C1203 1.363 . S
C1202 C1207 1.379 . S
C1202 N1209 1.356 . S
C1203 C1202 1.363 . S
C1203 C1206 1.363 . S
N1204 C1206 1.356 . S
N1204 H1216 0.984 . S
N1204 H1217 0.985 . S
N1205 C1207 1.356 . S
N1205 H1210 0.984 . S
N1205 H1211 0.985 . S
C1206 C1200 1.379 . S
C1206 C1203 1.363 . S
C1206 N1204 1.356 . S
C1207 C1201 1.363 . S
C1207 C1202 1.379 . S
C1207 N1205 1.356 . S
N1208 C1200 1.356 . S
N1208 H1214 0.984 . S
N1208 H1215 0.984 . S
N1209 C1202 1.356 . S
N1209 H1212 0.984 . S
N1209 H1213 0.985 . S
H1210 N1205 0.984 . S
H1211 N1205 0.985 . S
H1212 N1209 0.984 . S
H1213 N1209 0.985 . S
H1214 N1208 0.984 . S
H1215 N1208 0.984 . S
H1216 N1204 0.984 . S
H1217 N1204 0.985 . S
C1218 C1219 1.363 . S
C1218 C1224 1.379 . S
C1218 N1226 1.356 . S
C1219 C1218 1.363 . S
C1219 C1225 1.363 . S
C1220 C1221 1.363 . S
C1220 C1225 1.379 . S
C1220 N1227 1.356 . S
C1221 C1220 1.363 . S
C1221 C1224 1.363 . S
N1222 C1224 1.356 . S
N1222 H1234 0.984 . S
N1222 H1235 0.985 . S
N1223 C1225 1.356 . S
N1223 H1228 0.984 . S
N1223 H1229 0.985 . S
C1224 C1218 1.379 . S
C1224 C1221 1.363 . S
C1224 N1222 1.356 . S
C1225 C1219 1.363 . S
C1225 C1220 1.379 . S
C1225 N1223 1.356 . S
N1226 C1218 1.356 . S
N1226 H1232 0.984 . S
N1226 H1233 0.984 . S
N1227 C1220 1.356 . S
N1227 H1230 0.984 . S
N1227 H1231 0.985 . S
H1228 N1223 0.984 . S
H1229 N1223 0.985 . S
H1230 N1227 0.984 . S
H1231 N1227 0.985 . S
H1232 N1226 0.984 . S
H1233 N1226 0.984 . S
H1234 N1222 0.984 . S
H1235 N1222 0.985 . S
C1236 C1237 1.363 . S
C1236 C1242 1.379 . S
C1236 N1244 1.356 . S
C1237 C1236 1.363 . S
C1237 C1243 1.363 . S
C1238 C1239 1.363 . S
C1238 C1243 1.379 . S
C1238 N1245 1.356 . S
C1239 C1238 1.363 . S
C1239 C1242 1.363 . S
N1240 C1242 1.356 . S
N1240 H1252 0.984 . S
N1240 H1253 0.985 . S
N1241 C1243 1.356 . S
N1241 H1246 0.984 . S
N1241 H1247 0.985 . S
C1242 C1236 1.379 . S
C1242 C1239 1.363 . S
C1242 N1240 1.356 . S
C1243 C1237 1.363 . S
C1243 C1238 1.379 . S
C1243 N1241 1.356 . S
N1244 C1236 1.356 . S
N1244 H1250 0.984 . S
N1244 H1251 0.984 . S
N1245 C1238 1.356 . S
N1245 H1248 0.984 . S
N1245 H1249 0.985 . S
H1246 N1241 0.984 . S
H1247 N1241 0.985 . S
H1248 N1245 0.984 . S
H1249 N1245 0.985 . S
H1250 N1244 0.984 . S
H1251 N1244 0.984 . S
H1252 N1240 0.984 . S
H1253 N1240 0.985 . S
C1254 C1255 1.363 . S
C1254 C1260 1.379 . S
C1254 N1262 1.356 . S
C1255 C1254 1.363 . S
C1255 C1261 1.363 . S
C1256 C1257 1.363 . S
C1256 C1261 1.379 . S
C1256 N1263 1.356 . S
C1257 C1256 1.363 . S
C1257 C1260 1.363 . S
N1258 C1260 1.356 . S
N1258 H1270 0.984 . S
N1258 H1271 0.985 . S
N1259 C1261 1.356 . S
N1259 H1264 0.984 . S
N1259 H1265 0.985 . S
C1260 C1254 1.379 . S
C1260 C1257 1.363 . S
C1260 N1258 1.356 . S
C1261 C1255 1.363 . S
C1261 C1256 1.379 . S
C1261 N1259 1.356 . S
N1262 C1254 1.356 . S
N1262 H1268 0.984 . S
N1262 H1269 0.984 . S
N1263 C1256 1.356 . S
N1263 H1266 0.984 . S
N1263 H1267 0.985 . S
H1264 N1259 0.984 . S
H1265 N1259 0.985 . S
H1266 N1263 0.984 . S
H1267 N1263 0.985 . S
H1268 N1262 0.984 . S
H1269 N1262 0.984 . S
H1270 N1258 0.984 . S
H1271 N1258 0.985 . S
C1272 C1273 1.363 . S
C1272 C1278 1.379 . S
C1272 N1280 1.356 . S
C1273 C1272 1.363 . S
C1273 C1279 1.363 . S
C1274 C1275 1.363 . S
C1274 C1279 1.379 . S
C1274 N1281 1.356 . S
C1275 C1274 1.363 . S
C1275 C1278 1.363 . S
N1276 C1278 1.356 . S
N1276 H1288 0.984 . S
N1276 H1289 0.985 . S
N1277 C1279 1.356 . S
N1277 H1282 0.984 . S
N1277 H1283 0.985 . S
C1278 C1272 1.379 . S
C1278 C1275 1.363 . S
C1278 N1276 1.356 . S
C1279 C1273 1.363 . S
C1279 C1274 1.379 . S
C1279 N1277 1.356 . S
N1280 C1272 1.356 . S
N1280 H1286 0.984 . S
N1280 H1287 0.984 . S
N1281 C1274 1.356 . S
N1281 H1284 0.984 . S
N1281 H1285 0.985 . S
H1282 N1277 0.984 . S
H1283 N1277 0.985 . S
H1284 N1281 0.984 . S
H1285 N1281 0.985 . S
H1286 N1280 0.984 . S
H1287 N1280 0.984 . S
H1288 N1276 0.984 . S
H1289 N1276 0.985 . S
C1290 C1291 1.363 . S
C1290 C1296 1.379 . S
C1290 N1298 1.356 . S
C1291 C1290 1.363 . S
C1291 C1297 1.363 . S
C1292 C1293 1.363 . S
C1292 C1297 1.379 . S
C1292 N1299 1.356 . S
C1293 C1292 1.363 . S
C1293 C1296 1.363 . S
N1294 C1296 1.356 . S
N1294 H1306 0.984 . S
N1294 H1307 0.985 . S
N1295 C1297 1.356 . S
N1295 H1300 0.984 . S
N1295 H1301 0.985 . S
C1296 C1290 1.379 . S
C1296 C1293 1.363 . S
C1296 N1294 1.356 . S
C1297 C1291 1.363 . S
C1297 C1292 1.379 . S
C1297 N1295 1.356 . S
N1298 C1290 1.356 . S
N1298 H1304 0.984 . S
N1298 H1305 0.984 . S
N1299 C1292 1.356 . S
N1299 H1302 0.984 . S
N1299 H1303 0.985 . S
H1300 N1295 0.984 . S
H1301 N1295 0.985 . S
H1302 N1299 0.984 . S
H1303 N1299 0.985 . S
H1304 N1298 0.984 . S
H1305 N1298 0.984 . S
H1306 N1294 0.984 . S
H1307 N1294 0.985 . S
C1308 C1309 1.363 . S
C1308 C1314 1.379 . S
C1308 N1316 1.356 . S
C1309 C1308 1.363 . S
C1309 C1315 1.363 . S
C1310 C1311 1.363 . S
C1310 C1315 1.379 . S
C1310 N1317 1.356 . S
C1311 C1310 1.363 . S
C1311 C1314 1.363 . S
N1312 C1314 1.356 . S
N1312 H1324 0.984 . S
N1312 H1325 0.985 . S
N1313 C1315 1.356 . S
N1313 H1318 0.984 . S
N1313 H1319 0.985 . S
C1314 C1308 1.379 . S
C1314 C1311 1.363 . S
C1314 N1312 1.356 . S
C1315 C1309 1.363 . S
C1315 C1310 1.379 . S
C1315 N1313 1.356 . S
N1316 C1308 1.356 . S
N1316 H1322 0.984 . S
N1316 H1323 0.984 . S
N1317 C1310 1.356 . S
N1317 H1320 0.984 . S
N1317 H1321 0.985 . S
H1318 N1313 0.984 . S
H1319 N1313 0.985 . S
H1320 N1317 0.984 . S
H1321 N1317 0.985 . S
H1322 N1316 0.984 . S
H1323 N1316 0.984 . S
H1324 N1312 0.984 . S
H1325 N1312 0.985 . S
C1326 C1327 1.363 . S
C1326 C1332 1.379 . S
C1326 N1334 1.356 . S
C1327 C1326 1.363 . S
C1327 C1333 1.363 . S
C1328 C1329 1.363 . S
C1328 C1333 1.379 . S
C1328 N1335 1.356 . S
C1329 C1328 1.363 . S
C1329 C1332 1.363 . S
N1330 C1332 1.356 . S
N1330 H1342 0.984 . S
N1330 H1343 0.985 . S
N1331 C1333 1.356 . S
N1331 H1336 0.984 . S
N1331 H1337 0.985 . S
C1332 C1326 1.379 . S
C1332 C1329 1.363 . S
C1332 N1330 1.356 . S
C1333 C1327 1.363 . S
C1333 C1328 1.379 . S
C1333 N1331 1.356 . S
N1334 C1326 1.356 . S
N1334 H1340 0.984 . S
N1334 H1341 0.984 . S
N1335 C1328 1.356 . S
N1335 H1338 0.984 . S
N1335 H1339 0.985 . S
H1336 N1331 0.984 . S
H1337 N1331 0.985 . S
H1338 N1335 0.984 . S
H1339 N1335 0.985 . S
H1340 N1334 0.984 . S
H1341 N1334 0.984 . S
H1342 N1330 0.984 . S
H1343 N1330 0.985 . S
C1344 C1345 1.363 . S
C1344 C1350 1.379 . S
C1344 N1352 1.356 . S
C1345 C1344 1.363 . S
C1345 C1351 1.363 . S
C1346 C1347 1.363 . S
C1346 C1351 1.379 . S
C1346 N1353 1.356 . S
C1347 C1346 1.363 . S
C1347 C1350 1.363 . S
N1348 C1350 1.356 . S
N1348 H1360 0.984 . S
N1348 H1361 0.985 . S
N1349 C1351 1.356 . S
N1349 H1354 0.984 . S
N1349 H1355 0.985 . S
C1350 C1344 1.379 . S
C1350 C1347 1.363 . S
C1350 N1348 1.356 . S
C1351 C1345 1.363 . S
C1351 C1346 1.379 . S
C1351 N1349 1.356 . S
N1352 C1344 1.356 . S
N1352 H1358 0.984 . S
N1352 H1359 0.984 . S
N1353 C1346 1.356 . S
N1353 H1356 0.984 . S
N1353 H1357 0.985 . S
H1354 N1349 0.984 . S
H1355 N1349 0.985 . S
H1356 N1353 0.984 . S
H1357 N1353 0.985 . S
H1358 N1352 0.984 . S
H1359 N1352 0.984 . S
H1360 N1348 0.984 . S
H1361 N1348 0.985 . S
C1362 C1363 1.363 . S
C1362 C1368 1.379 . S
C1362 N1370 1.356 . S
C1363 C1362 1.363 . S
C1363 C1369 1.363 . S
C1364 C1365 1.363 . S
C1364 C1369 1.379 . S
C1364 N1371 1.356 . S
C1365 C1364 1.363 . S
C1365 C1368 1.363 . S
N1366 C1368 1.356 . S
N1366 H1378 0.984 . S
N1366 H1379 0.985 . S
N1367 C1369 1.356 . S
N1367 H1372 0.984 . S
N1367 H1373 0.985 . S
C1368 C1362 1.379 . S
C1368 C1365 1.363 . S
C1368 N1366 1.356 . S
C1369 C1363 1.363 . S
C1369 C1364 1.379 . S
C1369 N1367 1.356 . S
N1370 C1362 1.356 . S
N1370 H1376 0.984 . S
N1370 H1377 0.984 . S
N1371 C1364 1.356 . S
N1371 H1374 0.984 . S
N1371 H1375 0.985 . S
H1372 N1367 0.984 . S
H1373 N1367 0.985 . S
H1374 N1371 0.984 . S
H1375 N1371 0.985 . S
H1376 N1370 0.984 . S
H1377 N1370 0.984 . S
H1378 N1366 0.984 . S
H1379 N1366 0.985 . S
C1380 C1381 1.363 . S
C1380 C1386 1.379 . S
C1380 N1388 1.356 . S
C1381 C1380 1.363 . S
C1381 C1387 1.363 . S
C1382 C1383 1.363 . S
C1382 C1387 1.379 . S
C1382 N1389 1.356 . S
C1383 C1382 1.363 . S
C1383 C1386 1.363 . S
N1384 C1386 1.356 . S
N1384 H1396 0.984 . S
N1384 H1397 0.985 . S
N1385 C1387 1.356 . S
N1385 H1390 0.984 . S
N1385 H1391 0.985 . S
C1386 C1380 1.379 . S
C1386 C1383 1.363 . S
C1386 N1384 1.356 . S
C1387 C1381 1.363 . S
C1387 C1382 1.379 . S
C1387 N1385 1.356 . S
N1388 C1380 1.356 . S
N1388 H1394 0.984 . S
N1388 H1395 0.984 . S
N1389 C1382 1.356 . S
N1389 H1392 0.984 . S
N1389 H1393 0.985 . S
H1390 N1385 0.984 . S
H1391 N1385 0.985 . S
H1392 N1389 0.984 . S
H1393 N1389 0.985 . S
H1394 N1388 0.984 . S
H1395 N1388 0.984 . S
H1396 N1384 0.984 . S
H1397 N1384 0.985 . S
C1398 C1399 1.363 . S
C1398 C1404 1.379 . S
C1398 N1406 1.356 . S
C1399 C1398 1.363 . S
C1399 C1405 1.363 . S
C1400 C1401 1.363 . S
C1400 C1405 1.379 . S
C1400 N1407 1.356 . S
C1401 C1400 1.363 . S
C1401 C1404 1.363 . S
N1402 C1404 1.356 . S
N1402 H1414 0.984 . S
N1402 H1415 0.985 . S
N1403 C1405 1.356 . S
N1403 H1408 0.984 . S
N1403 H1409 0.985 . S
C1404 C1398 1.379 . S
C1404 C1401 1.363 . S
C1404 N1402 1.356 . S
C1405 C1399 1.363 . S
C1405 C1400 1.379 . S
C1405 N1403 1.356 . S
N1406 C1398 1.356 . S
N1406 H1412 0.984 . S
N1406 H1413 0.984 . S
N1407 C1400 1.356 . S
N1407 H1410 0.984 . S
N1407 H1411 0.985 . S
H1408 N1403 0.984 . S
H1409 N1403 0.985 . S
H1410 N1407 0.984 . S
H1411 N1407 0.985 . S
H1412 N1406 0.984 . S
H1413 N1406 0.984 . S
H1414 N1402 0.984 . S
H1415 N1402 0.985 . S
C1416 C1417 1.363 . S
C1416 C1422 1.379 . S
C1416 N1424 1.356 . S
C1417 C1416 1.363 . S
C1417 C1423 1.363 . S
C1418 C1419 1.363 . S
C1418 C1423 1.379 . S
C1418 N1425 1.356 . S
C1419 C1418 1.363 . S
C1419 C1422 1.363 . S
N1420 C1422 1.356 . S
N1420 H1432 0.984 . S
N1420 H1433 0.985 . S
N1421 C1423 1.356 . S
N1421 H1426 0.984 . S
N1421 H1427 0.985 . S
C1422 C1416 1.379 . S
C1422 C1419 1.363 . S
C1422 N1420 1.356 . S
C1423 C1417 1.363 . S
C1423 C1418 1.379 . S
C1423 N1421 1.356 . S
N1424 C1416 1.356 . S
N1424 H1430 0.984 . S
N1424 H1431 0.984 . S
N1425 C1418 1.356 . S
N1425 H1428 0.984 . S
N1425 H1429 0.985 . S
H1426 N1421 0.984 . S
H1427 N1421 0.985 . S
H1428 N1425 0.984 . S
H1429 N1425 0.985 . S
H1430 N1424 0.984 . S
H1431 N1424 0.984 . S
H1432 N1420 0.984 . S
H1433 N1420 0.985 . S
C1434 C1435 1.363 . S
C1434 C1440 1.379 . S
C1434 N1442 1.356 . S
C1435 C1434 1.363 . S
C1435 C1441 1.363 . S
C1436 C1437 1.363 . S
C1436 C1441 1.379 . S
C1436 N1443 1.356 . S
C1437 C1436 1.363 . S
C1437 C1440 1.363 . S
N1438 C1440 1.356 . S
N1438 H1450 0.984 . S
N1438 H1451 0.985 . S
N1439 C1441 1.356 . S
N1439 H1444 0.984 . S
N1439 H1445 0.985 . S
C1440 C1434 1.379 . S
C1440 C1437 1.363 . S
C1440 N1438 1.356 . S
C1441 C1435 1.363 . S
C1441 C1436 1.379 . S
C1441 N1439 1.356 . S
N1442 C1434 1.356 . S
N1442 H1448 0.984 . S
N1442 H1449 0.984 . S
N1443 C1436 1.356 . S
N1443 H1446 0.984 . S
N1443 H1447 0.985 . S
H1444 N1439 0.984 . S
H1445 N1439 0.985 . S
H1446 N1443 0.984 . S
H1447 N1443 0.985 . S
H1448 N1442 0.984 . S
H1449 N1442 0.984 . S
H1450 N1438 0.984 . S
H1451 N1438 0.985 . S
C1452 C1453 1.363 . S
C1452 C1458 1.379 . S
C1452 N1460 1.356 . S
C1453 C1452 1.363 . S
C1453 C1459 1.363 . S
C1454 C1455 1.363 . S
C1454 C1459 1.379 . S
C1454 N1461 1.356 . S
C1455 C1454 1.363 . S
C1455 C1458 1.363 . S
N1456 C1458 1.356 . S
N1456 H1468 0.984 . S
N1456 H1469 0.985 . S
N1457 C1459 1.356 . S
N1457 H1462 0.984 . S
N1457 H1463 0.985 . S
C1458 C1452 1.379 . S
C1458 C1455 1.363 . S
C1458 N1456 1.356 . S
C1459 C1453 1.363 . S
C1459 C1454 1.379 . S
C1459 N1457 1.356 . S
N1460 C1452 1.356 . S
N1460 H1466 0.984 . S
N1460 H1467 0.984 . S
N1461 C1454 1.356 . S
N1461 H1464 0.984 . S
N1461 H1465 0.985 . S
H1462 N1457 0.984 . S
H1463 N1457 0.985 . S
H1464 N1461 0.984 . S
H1465 N1461 0.985 . S
H1466 N1460 0.984 . S
H1467 N1460 0.984 . S
H1468 N1456 0.984 . S
H1469 N1456 0.985 . S
C1470 C1471 1.363 . S
C1470 C1476 1.379 . S
C1470 N1478 1.356 . S
C1471 C1470 1.363 . S
C1471 C1477 1.363 . S
C1472 C1473 1.363 . S
C1472 C1477 1.379 . S
C1472 N1479 1.356 . S
C1473 C1472 1.363 . S
C1473 C1476 1.363 . S
N1474 C1476 1.356 . S
N1474 H1486 0.984 . S
N1474 H1487 0.985 . S
N1475 C1477 1.356 . S
N1475 H1480 0.984 . S
N1475 H1481 0.985 . S
C1476 C1470 1.379 . S
C1476 C1473 1.363 . S
C1476 N1474 1.356 . S
C1477 C1471 1.363 . S
C1477 C1472 1.379 . S
C1477 N1475 1.356 . S
N1478 C1470 1.356 . S
N1478 H1484 0.984 . S
N1478 H1485 0.984 . S
N1479 C1472 1.356 . S
N1479 H1482 0.984 . S
N1479 H1483 0.985 . S
H1480 N1475 0.984 . S
H1481 N1475 0.985 . S
H1482 N1479 0.984 . S
H1483 N1479 0.985 . S
H1484 N1478 0.984 . S
H1485 N1478 0.984 . S
H1486 N1474 0.984 . S
H1487 N1474 0.985 . S
C1488 C1489 1.363 . S
C1488 C1494 1.379 . S
C1488 N1496 1.356 . S
C1489 C1488 1.363 . S
C1489 C1495 1.363 . S
C1490 C1491 1.363 . S
C1490 C1495 1.379 . S
C1490 N1497 1.356 . S
C1491 C1490 1.363 . S
C1491 C1494 1.363 . S
N1492 C1494 1.356 . S
N1492 H1504 0.984 . S
N1492 H1505 0.985 . S
N1493 C1495 1.356 . S
N1493 H1498 0.984 . S
N1493 H1499 0.985 . S
C1494 C1488 1.379 . S
C1494 C1491 1.363 . S
C1494 N1492 1.356 . S
C1495 C1489 1.363 . S
C1495 C1490 1.379 . S
C1495 N1493 1.356 . S
N1496 C1488 1.356 . S
N1496 H1502 0.984 . S
N1496 H1503 0.984 . S
N1497 C1490 1.356 . S
N1497 H1500 0.984 . S
N1497 H1501 0.985 . S
H1498 N1493 0.984 . S
H1499 N1493 0.985 . S
H1500 N1497 0.984 . S
H1501 N1497 0.985 . S
H1502 N1496 0.984 . S
H1503 N1496 0.984 . S
H1504 N1492 0.984 . S
H1505 N1492 0.985 . S
C1506 C1507 1.363 . S
C1506 C1512 1.379 . S
C1506 N1514 1.356 . S
C1507 C1506 1.363 . S
C1507 C1513 1.363 . S
C1508 C1509 1.363 . S
C1508 C1513 1.379 . S
C1508 N1515 1.356 . S
C1509 C1508 1.363 . S
C1509 C1512 1.363 . S
N1510 C1512 1.356 . S
N1510 H1522 0.984 . S
N1510 H1523 0.985 . S
N1511 C1513 1.356 . S
N1511 H1516 0.984 . S
N1511 H1517 0.985 . S
C1512 C1506 1.379 . S
C1512 C1509 1.363 . S
C1512 N1510 1.356 . S
C1513 C1507 1.363 . S
C1513 C1508 1.379 . S
C1513 N1511 1.356 . S
N1514 C1506 1.356 . S
N1514 H1520 0.984 . S
N1514 H1521 0.984 . S
N1515 C1508 1.356 . S
N1515 H1518 0.984 . S
N1515 H1519 0.985 . S
H1516 N1511 0.984 . S
H1517 N1511 0.985 . S
H1518 N1515 0.984 . S
H1519 N1515 0.985 . S
H1520 N1514 0.984 . S
H1521 N1514 0.984 . S
H1522 N1510 0.984 . S
H1523 N1510 0.985 . S
C1524 C1525 1.363 . S
C1524 C1530 1.379 . S
C1524 N1532 1.356 . S
C1525 C1524 1.363 . S
C1525 C1531 1.363 . S
C1526 C1527 1.363 . S
C1526 C1531 1.379 . S
C1526 N1533 1.356 . S
C1527 C1526 1.363 . S
C1527 C1530 1.363 . S
N1528 C1530 1.356 . S
N1528 H1540 0.984 . S
N1528 H1541 0.985 . S
N1529 C1531 1.356 . S
N1529 H1534 0.984 . S
N1529 H1535 0.985 . S
C1530 C1524 1.379 . S
C1530 C1527 1.363 . S
C1530 N1528 1.356 . S
C1531 C1525 1.363 . S
C1531 C1526 1.379 . S
C1531 N1529 1.356 . S
N1532 C1524 1.356 . S
N1532 H1538 0.984 . S
N1532 H1539 0.984 . S
N1533 C1526 1.356 . S
N1533 H1536 0.984 . S
N1533 H1537 0.985 . S
H1534 N1529 0.984 . S
H1535 N1529 0.985 . S
H1536 N1533 0.984 . S
H1537 N1533 0.985 . S
H1538 N1532 0.984 . S
H1539 N1532 0.984 . S
H1540 N1528 0.984 . S
H1541 N1528 0.985 . S
C1542 C1543 1.363 . S
C1542 C1548 1.379 . S
C1542 N1550 1.356 . S
C1543 C1542 1.363 . S
C1543 C1549 1.363 . S
C1544 C1545 1.363 . S
C1544 C1549 1.379 . S
C1544 N1551 1.356 . S
C1545 C1544 1.363 . S
C1545 C1548 1.363 . S
N1546 C1548 1.356 . S
N1546 H1558 0.984 . S
N1546 H1559 0.985 . S
N1547 C1549 1.356 . S
N1547 H1552 0.984 . S
N1547 H1553 0.985 . S
C1548 C1542 1.379 . S
C1548 C1545 1.363 . S
C1548 N1546 1.356 . S
C1549 C1543 1.363 . S
C1549 C1544 1.379 . S
C1549 N1547 1.356 . S
N1550 C1542 1.356 . S
N1550 H1556 0.984 . S
N1550 H1557 0.984 . S
N1551 C1544 1.356 . S
N1551 H1554 0.984 . S
N1551 H1555 0.985 . S
H1552 N1547 0.984 . S
H1553 N1547 0.985 . S
H1554 N1551 0.984 . S
H1555 N1551 0.985 . S
H1556 N1550 0.984 . S
H1557 N1550 0.984 . S
H1558 N1546 0.984 . S
H1559 N1546 0.985 . S
C1560 C1561 1.363 . S
C1560 C1566 1.379 . S
C1560 N1568 1.356 . S
C1561 C1560 1.363 . S
C1561 C1567 1.363 . S
C1562 C1563 1.363 . S
C1562 C1567 1.379 . S
C1562 N1569 1.356 . S
C1563 C1562 1.363 . S
C1563 C1566 1.363 . S
N1564 C1566 1.356 . S
N1564 H1576 0.984 . S
N1564 H1577 0.985 . S
N1565 C1567 1.356 . S
N1565 H1570 0.984 . S
N1565 H1571 0.985 . S
C1566 C1560 1.379 . S
C1566 C1563 1.363 . S
C1566 N1564 1.356 . S
C1567 C1561 1.363 . S
C1567 C1562 1.379 . S
C1567 N1565 1.356 . S
N1568 C1560 1.356 . S
N1568 H1574 0.984 . S
N1568 H1575 0.984 . S
N1569 C1562 1.356 . S
N1569 H1572 0.984 . S
N1569 H1573 0.985 . S
H1570 N1565 0.984 . S
H1571 N1565 0.985 . S
H1572 N1569 0.984 . S
H1573 N1569 0.985 . S
H1574 N1568 0.984 . S
H1575 N1568 0.984 . S
H1576 N1564 0.984 . S
H1577 N1564 0.985 . S
C1578 C1579 1.363 . S
C1578 C1584 1.379 . S
C1578 N1586 1.356 . S
C1579 C1578 1.363 . S
C1579 C1585 1.363 . S
C1580 C1581 1.363 . S
C1580 C1585 1.379 . S
C1580 N1587 1.356 . S
C1581 C1580 1.363 . S
C1581 C1584 1.363 . S
N1582 C1584 1.356 . S
N1582 H1594 0.984 . S
N1582 H1595 0.985 . S
N1583 C1585 1.356 . S
N1583 H1588 0.984 . S
N1583 H1589 0.985 . S
C1584 C1578 1.379 . S
C1584 C1581 1.363 . S
C1584 N1582 1.356 . S
C1585 C1579 1.363 . S
C1585 C1580 1.379 . S
C1585 N1583 1.356 . S
N1586 C1578 1.356 . S
N1586 H1592 0.984 . S
N1586 H1593 0.984 . S
N1587 C1580 1.356 . S
N1587 H1590 0.984 . S
N1587 H1591 0.985 . S
H1588 N1583 0.984 . S
H1589 N1583 0.985 . S
H1590 N1587 0.984 . S
H1591 N1587 0.985 . S
H1592 N1586 0.984 . S
H1593 N1586 0.984 . S
H1594 N1582 0.984 . S
H1595 N1582 0.985 . S
C1596 C1597 1.363 . S
C1596 C1602 1.379 . S
C1596 N1604 1.356 . S
C1597 C1596 1.363 . S
C1597 C1603 1.363 . S
C1598 C1599 1.363 . S
C1598 C1603 1.379 . S
C1598 N1605 1.356 . S
C1599 C1598 1.363 . S
C1599 C1602 1.363 . S
N1600 C1602 1.356 . S
N1600 H1612 0.984 . S
N1600 H1613 0.985 . S
N1601 C1603 1.356 . S
N1601 H1606 0.984 . S
N1601 H1607 0.985 . S
C1602 C1596 1.379 . S
C1602 C1599 1.363 . S
C1602 N1600 1.356 . S
C1603 C1597 1.363 . S
C1603 C1598 1.379 . S
C1603 N1601 1.356 . S
N1604 C1596 1.356 . S
N1604 H1610 0.984 . S
N1604 H1611 0.984 . S
N1605 C1598 1.356 . S
N1605 H1608 0.984 . S
N1605 H1609 0.985 . S
H1606 N1601 0.984 . S
H1607 N1601 0.985 . S
H1608 N1605 0.984 . S
H1609 N1605 0.985 . S
H1610 N1604 0.984 . S
H1611 N1604 0.984 . S
H1612 N1600 0.984 . S
H1613 N1600 0.985 . S
C1614 C1615 1.363 . S
C1614 C1620 1.379 . S
C1614 N1622 1.356 . S
C1615 C1614 1.363 . S
C1615 C1621 1.363 . S
C1616 C1617 1.363 . S
C1616 C1621 1.379 . S
C1616 N1623 1.356 . S
C1617 C1616 1.363 . S
C1617 C1620 1.363 . S
N1618 C1620 1.356 . S
N1618 H1630 0.984 . S
N1618 H1631 0.985 . S
N1619 C1621 1.356 . S
N1619 H1624 0.984 . S
N1619 H1625 0.985 . S
C1620 C1614 1.379 . S
C1620 C1617 1.363 . S
C1620 N1618 1.356 . S
C1621 C1615 1.363 . S
C1621 C1616 1.379 . S
C1621 N1619 1.356 . S
N1622 C1614 1.356 . S
N1622 H1628 0.984 . S
N1622 H1629 0.984 . S
N1623 C1616 1.356 . S
N1623 H1626 0.984 . S
N1623 H1627 0.985 . S
H1624 N1619 0.984 . S
H1625 N1619 0.985 . S
H1626 N1623 0.984 . S
H1627 N1623 0.985 . S
H1628 N1622 0.984 . S
H1629 N1622 0.984 . S
H1630 N1618 0.984 . S
H1631 N1618 0.985 . S
C1632 C1633 1.363 . S
C1632 C1638 1.379 . S
C1632 N1640 1.356 . S
C1633 C1632 1.363 . S
C1633 C1639 1.363 . S
C1634 C1635 1.363 . S
C1634 C1639 1.379 . S
C1634 N1641 1.356 . S
C1635 C1634 1.363 . S
C1635 C1638 1.363 . S
N1636 C1638 1.356 . S
N1636 H1648 0.984 . S
N1636 H1649 0.985 . S
N1637 C1639 1.356 . S
N1637 H1642 0.984 . S
N1637 H1643 0.985 . S
C1638 C1632 1.379 . S
C1638 C1635 1.363 . S
C1638 N1636 1.356 . S
C1639 C1633 1.363 . S
C1639 C1634 1.379 . S
C1639 N1637 1.356 . S
N1640 C1632 1.356 . S
N1640 H1646 0.984 . S
N1640 H1647 0.984 . S
N1641 C1634 1.356 . S
N1641 H1644 0.984 . S
N1641 H1645 0.985 . S
H1642 N1637 0.984 . S
H1643 N1637 0.985 . S
H1644 N1641 0.984 . S
H1645 N1641 0.985 . S
H1646 N1640 0.984 . S
H1647 N1640 0.984 . S
H1648 N1636 0.984 . S
H1649 N1636 0.985 . S
C1650 C1651 1.363 . S
C1650 C1656 1.379 . S
C1650 N1658 1.356 . S
C1651 C1650 1.363 . S
C1651 C1657 1.363 . S
C1652 C1653 1.363 . S
C1652 C1657 1.379 . S
C1652 N1659 1.356 . S
C1653 C1652 1.363 . S
C1653 C1656 1.363 . S
N1654 C1656 1.356 . S
N1654 H1666 0.984 . S
N1654 H1667 0.985 . S
N1655 C1657 1.356 . S
N1655 H1660 0.984 . S
N1655 H1661 0.985 . S
C1656 C1650 1.379 . S
C1656 C1653 1.363 . S
C1656 N1654 1.356 . S
C1657 C1651 1.363 . S
C1657 C1652 1.379 . S
C1657 N1655 1.356 . S
N1658 C1650 1.356 . S
N1658 H1664 0.984 . S
N1658 H1665 0.984 . S
N1659 C1652 1.356 . S
N1659 H1662 0.984 . S
N1659 H1663 0.985 . S
H1660 N1655 0.984 . S
H1661 N1655 0.985 . S
H1662 N1659 0.984 . S
H1663 N1659 0.985 . S
H1664 N1658 0.984 . S
H1665 N1658 0.984 . S
H1666 N1654 0.984 . S
H1667 N1654 0.985 . S
C1668 C1669 1.363 . S
C1668 C1674 1.379 . S
C1668 N1676 1.356 . S
C1669 C1668 1.363 . S
C1669 C1675 1.363 . S
C1670 C1671 1.363 . S
C1670 C1675 1.379 . S
C1670 N1677 1.356 . S
C1671 C1670 1.363 . S
C1671 C1674 1.363 . S
N1672 C1674 1.356 . S
N1672 H1684 0.984 . S
N1672 H1685 0.985 . S
N1673 C1675 1.356 . S
N1673 H1678 0.984 . S
N1673 H1679 0.985 . S
C1674 C1668 1.379 . S
C1674 C1671 1.363 . S
C1674 N1672 1.356 . S
C1675 C1669 1.363 . S
C1675 C1670 1.379 . S
C1675 N1673 1.356 . S
N1676 C1668 1.356 . S
N1676 H1682 0.984 . S
N1676 H1683 0.984 . S
N1677 C1670 1.356 . S
N1677 H1680 0.984 . S
N1677 H1681 0.985 . S
H1678 N1673 0.984 . S
H1679 N1673 0.985 . S
H1680 N1677 0.984 . S
H1681 N1677 0.985 . S
H1682 N1676 0.984 . S
H1683 N1676 0.984 . S
H1684 N1672 0.984 . S
H1685 N1672 0.985 . S
C1686 C1687 1.363 . S
C1686 C1692 1.379 . S
C1686 N1694 1.356 . S
C1687 C1686 1.363 . S
C1687 C1693 1.363 . S
C1688 C1689 1.363 . S
C1688 C1693 1.379 . S
C1688 N1695 1.356 . S
C1689 C1688 1.363 . S
C1689 C1692 1.363 . S
N1690 C1692 1.356 . S
N1690 H1702 0.984 . S
N1690 H1703 0.985 . S
N1691 C1693 1.356 . S
N1691 H1696 0.984 . S
N1691 H1697 0.985 . S
C1692 C1686 1.379 . S
C1692 C1689 1.363 . S
C1692 N1690 1.356 . S
C1693 C1687 1.363 . S
C1693 C1688 1.379 . S
C1693 N1691 1.356 . S
N1694 C1686 1.356 . S
N1694 H1700 0.984 . S
N1694 H1701 0.984 . S
N1695 C1688 1.356 . S
N1695 H1698 0.984 . S
N1695 H1699 0.985 . S
H1696 N1691 0.984 . S
H1697 N1691 0.985 . S
H1698 N1695 0.984 . S
H1699 N1695 0.985 . S
H1700 N1694 0.984 . S
H1701 N1694 0.984 . S
H1702 N1690 0.984 . S
H1703 N1690 0.985 . S
C1704 C1705 1.363 . S
C1704 C1710 1.379 . S
C1704 N1712 1.356 . S
C1705 C1704 1.363 . S
C1705 C1711 1.363 . S
C1706 C1707 1.363 . S
C1706 C1711 1.379 . S
C1706 N1713 1.356 . S
C1707 C1706 1.363 . S
C1707 C1710 1.363 . S
N1708 C1710 1.356 . S
N1708 H1720 0.984 . S
N1708 H1721 0.985 . S
N1709 C1711 1.356 . S
N1709 H1714 0.984 . S
N1709 H1715 0.985 . S
C1710 C1704 1.379 . S
C1710 C1707 1.363 . S
C1710 N1708 1.356 . S
C1711 C1705 1.363 . S
C1711 C1706 1.379 . S
C1711 N1709 1.356 . S
N1712 C1704 1.356 . S
N1712 H1718 0.984 . S
N1712 H1719 0.984 . S
N1713 C1706 1.356 . S
N1713 H1716 0.984 . S
N1713 H1717 0.985 . S
H1714 N1709 0.984 . S
H1715 N1709 0.985 . S
H1716 N1713 0.984 . S
H1717 N1713 0.985 . S
H1718 N1712 0.984 . S
H1719 N1712 0.984 . S
H1720 N1708 0.984 . S
H1721 N1708 0.985 . S
C1722 C1723 1.363 . S
C1722 C1728 1.379 . S
C1722 N1730 1.356 . S
C1723 C1722 1.363 . S
C1723 C1729 1.363 . S
C1724 C1725 1.363 . S
C1724 C1729 1.379 . S
C1724 N1731 1.356 . S
C1725 C1724 1.363 . S
C1725 C1728 1.363 . S
N1726 C1728 1.356 . S
N1726 H1738 0.984 . S
N1726 H1739 0.985 . S
N1727 C1729 1.356 . S
N1727 H1732 0.984 . S
N1727 H1733 0.985 . S
C1728 C1722 1.379 . S
C1728 C1725 1.363 . S
C1728 N1726 1.356 . S
C1729 C1723 1.363 . S
C1729 C1724 1.379 . S
C1729 N1727 1.356 . S
N1730 C1722 1.356 . S
N1730 H1736 0.984 . S
N1730 H1737 0.984 . S
N1731 C1724 1.356 . S
N1731 H1734 0.984 . S
N1731 H1735 0.985 . S
H1732 N1727 0.984 . S
H1733 N1727 0.985 . S
H1734 N1731 0.984 . S
H1735 N1731 0.985 . S
H1736 N1730 0.984 . S
H1737 N1730 0.984 . S
H1738 N1726 0.984 . S
H1739 N1726 0.985 . S
C1740 C1741 1.363 . S
C1740 C1746 1.379 . S
C1740 N1748 1.356 . S
C1741 C1740 1.363 . S
C1741 C1747 1.363 . S
C1742 C1743 1.363 . S
C1742 C1747 1.379 . S
C1742 N1749 1.356 . S
C1743 C1742 1.363 . S
C1743 C1746 1.363 . S
N1744 C1746 1.356 . S
N1744 H1756 0.984 . S
N1744 H1757 0.985 . S
N1745 C1747 1.356 . S
N1745 H1750 0.984 . S
N1745 H1751 0.985 . S
C1746 C1740 1.379 . S
C1746 C1743 1.363 . S
C1746 N1744 1.356 . S
C1747 C1741 1.363 . S
C1747 C1742 1.379 . S
C1747 N1745 1.356 . S
N1748 C1740 1.356 . S
N1748 H1754 0.984 . S
N1748 H1755 0.984 . S
N1749 C1742 1.356 . S
N1749 H1752 0.984 . S
N1749 H1753 0.985 . S
H1750 N1745 0.984 . S
H1751 N1745 0.985 . S
H1752 N1749 0.984 . S
H1753 N1749 0.985 . S
H1754 N1748 0.984 . S
H1755 N1748 0.984 . S
H1756 N1744 0.984 . S
H1757 N1744 0.985 . S
C1758 C1759 1.363 . S
C1758 C1764 1.379 . S
C1758 N1766 1.356 . S
C1759 C1758 1.363 . S
C1759 C1765 1.363 . S
C1760 C1761 1.363 . S
C1760 C1765 1.379 . S
C1760 N1767 1.356 . S
C1761 C1760 1.363 . S
C1761 C1764 1.363 . S
N1762 C1764 1.356 . S
N1762 H1774 0.984 . S
N1762 H1775 0.985 . S
N1763 C1765 1.356 . S
N1763 H1768 0.984 . S
N1763 H1769 0.985 . S
C1764 C1758 1.379 . S
C1764 C1761 1.363 . S
C1764 N1762 1.356 . S
C1765 C1759 1.363 . S
C1765 C1760 1.379 . S
C1765 N1763 1.356 . S
N1766 C1758 1.356 . S
N1766 H1772 0.984 . S
N1766 H1773 0.984 . S
N1767 C1760 1.356 . S
N1767 H1770 0.984 . S
N1767 H1771 0.985 . S
H1768 N1763 0.984 . S
H1769 N1763 0.985 . S
H1770 N1767 0.984 . S
H1771 N1767 0.985 . S
H1772 N1766 0.984 . S
H1773 N1766 0.984 . S
H1774 N1762 0.984 . S
H1775 N1762 0.985 . S
C1776 C1777 1.363 . S
C1776 C1782 1.379 . S
C1776 N1784 1.356 . S
C1777 C1776 1.363 . S
C1777 C1783 1.363 . S
C1778 C1779 1.363 . S
C1778 C1783 1.379 . S
C1778 N1785 1.356 . S
C1779 C1778 1.363 . S
C1779 C1782 1.363 . S
N1780 C1782 1.356 . S
N1780 H1792 0.984 . S
N1780 H1793 0.985 . S
N1781 C1783 1.356 . S
N1781 H1786 0.984 . S
N1781 H1787 0.985 . S
C1782 C1776 1.379 . S
C1782 C1779 1.363 . S
C1782 N1780 1.356 . S
C1783 C1777 1.363 . S
C1783 C1778 1.379 . S
C1783 N1781 1.356 . S
N1784 C1776 1.356 . S
N1784 H1790 0.984 . S
N1784 H1791 0.984 . S
N1785 C1778 1.356 . S
N1785 H1788 0.984 . S
N1785 H1789 0.985 . S
H1786 N1781 0.984 . S
H1787 N1781 0.985 . S
H1788 N1785 0.984 . S
H1789 N1785 0.985 . S
H1790 N1784 0.984 . S
H1791 N1784 0.984 . S
H1792 N1780 0.984 . S
H1793 N1780 0.985 . S
C1794 C1795 1.363 . S
C1794 C1800 1.379 . S
C1794 N1802 1.356 . S
C1795 C1794 1.363 . S
C1795 C1801 1.363 . S
C1796 C1797 1.363 . S
C1796 C1801 1.379 . S
C1796 N1803 1.356 . S
C1797 C1796 1.363 . S
C1797 C1800 1.363 . S
N1798 C1800 1.356 . S
N1798 H1810 0.984 . S
N1798 H1811 0.985 . S
N1799 C1801 1.356 . S
N1799 H1804 0.984 . S
N1799 H1805 0.985 . S
C1800 C1794 1.379 . S
C1800 C1797 1.363 . S
C1800 N1798 1.356 . S
C1801 C1795 1.363 . S
C1801 C1796 1.379 . S
C1801 N1799 1.356 . S
N1802 C1794 1.356 . S
N1802 H1808 0.984 . S
N1802 H1809 0.984 . S
N1803 C1796 1.356 . S
N1803 H1806 0.984 . S
N1803 H1807 0.985 . S
H1804 N1799 0.984 . S
H1805 N1799 0.985 . S
H1806 N1803 0.984 . S
H1807 N1803 0.985 . S
H1808 N1802 0.984 . S
H1809 N1802 0.984 . S
H1810 N1798 0.984 . S
H1811 N1798 0.985 . S
C1812 C1813 1.363 . S
C1812 C1818 1.379 . S
C1812 N1820 1.356 . S
C1813 C1812 1.363 . S
C1813 C1819 1.363 . S
C1814 C1815 1.363 . S
C1814 C1819 1.379 . S
C1814 N1821 1.356 . S
C1815 C1814 1.363 . S
C1815 C1818 1.363 . S
N1816 C1818 1.356 . S
N1816 H1828 0.984 . S
N1816 H1829 0.985 . S
N1817 C1819 1.356 . S
N1817 H1822 0.984 . S
N1817 H1823 0.985 . S
C1818 C1812 1.379 . S
C1818 C1815 1.363 . S
C1818 N1816 1.356 . S
C1819 C1813 1.363 . S
C1819 C1814 1.379 . S
C1819 N1817 1.356 . S
N1820 C1812 1.356 . S
N1820 H1826 0.984 . S
N1820 H1827 0.984 . S
N1821 C1814 1.356 . S
N1821 H1824 0.984 . S
N1821 H1825 0.985 . S
H1822 N1817 0.984 . S
H1823 N1817 0.985 . S
H1824 N1821 0.984 . S
H1825 N1821 0.985 . S
H1826 N1820 0.984 . S
H1827 N1820 0.984 . S
H1828 N1816 0.984 . S
H1829 N1816 0.985 . S
C1830 C1831 1.363 . S
C1830 C1836 1.379 . S
C1830 N1838 1.356 . S
C1831 C1830 1.363 . S
C1831 C1837 1.363 . S
C1832 C1833 1.363 . S
C1832 C1837 1.379 . S
C1832 N1839 1.356 . S
C1833 C1832 1.363 . S
C1833 C1836 1.363 . S
N1834 C1836 1.356 . S
N1834 H1846 0.984 . S
N1834 H1847 0.985 . S
N1835 C1837 1.356 . S
N1835 H1840 0.984 . S
N1835 H1841 0.985 . S
C1836 C1830 1.379 . S
C1836 C1833 1.363 . S
C1836 N1834 1.356 . S
C1837 C1831 1.363 . S
C1837 C1832 1.379 . S
C1837 N1835 1.356 . S
N1838 C1830 1.356 . S
N1838 H1844 0.984 . S
N1838 H1845 0.984 . S
N1839 C1832 1.356 . S
N1839 H1842 0.984 . S
N1839 H1843 0.985 . S
H1840 N1835 0.984 . S
H1841 N1835 0.985 . S
H1842 N1839 0.984 . S
H1843 N1839 0.985 . S
H1844 N1838 0.984 . S
H1845 N1838 0.984 . S
H1846 N1834 0.984 . S
H1847 N1834 0.985 . S
C1848 C1849 1.363 . S
C1848 C1854 1.379 . S
C1848 N1856 1.356 . S
C1849 C1848 1.363 . S
C1849 C1855 1.363 . S
C1850 C1851 1.363 . S
C1850 C1855 1.379 . S
C1850 N1857 1.356 . S
C1851 C1850 1.363 . S
C1851 C1854 1.363 . S
N1852 C1854 1.356 . S
N1852 H1864 0.984 . S
N1852 H1865 0.985 . S
N1853 C1855 1.356 . S
N1853 H1858 0.984 . S
N1853 H1859 0.985 . S
C1854 C1848 1.379 . S
C1854 C1851 1.363 . S
C1854 N1852 1.356 . S
C1855 C1849 1.363 . S
C1855 C1850 1.379 . S
C1855 N1853 1.356 . S
N1856 C1848 1.356 . S
N1856 H1862 0.984 . S
N1856 H1863 0.984 . S
N1857 C1850 1.356 . S
N1857 H1860 0.984 . S
N1857 H1861 0.985 . S
H1858 N1853 0.984 . S
H1859 N1853 0.985 . S
H1860 N1857 0.984 . S
H1861 N1857 0.985 . S
H1862 N1856 0.984 . S
H1863 N1856 0.984 . S
H1864 N1852 0.984 . S
H1865 N1852 0.985 . S
C1866 C1867 1.363 . S
C1866 C1872 1.379 . S
C1866 N1874 1.356 . S
C1867 C1866 1.363 . S
C1867 C1873 1.363 . S
C1868 C1869 1.363 . S
C1868 C1873 1.379 . S
C1868 N1875 1.356 . S
C1869 C1868 1.363 . S
C1869 C1872 1.363 . S
N1870 C1872 1.356 . S
N1870 H1882 0.984 . S
N1870 H1883 0.985 . S
N1871 C1873 1.356 . S
N1871 H1876 0.984 . S
N1871 H1877 0.985 . S
C1872 C1866 1.379 . S
C1872 C1869 1.363 . S
C1872 N1870 1.356 . S
C1873 C1867 1.363 . S
C1873 C1868 1.379 . S
C1873 N1871 1.356 . S
N1874 C1866 1.356 . S
N1874 H1880 0.984 . S
N1874 H1881 0.984 . S
N1875 C1868 1.356 . S
N1875 H1878 0.984 . S
N1875 H1879 0.985 . S
H1876 N1871 0.984 . S
H1877 N1871 0.985 . S
H1878 N1875 0.984 . S
H1879 N1875 0.985 . S
H1880 N1874 0.984 . S
H1881 N1874 0.984 . S
H1882 N1870 0.984 . S
H1883 N1870 0.985 . S
C1884 C1885 1.363 . S
C1884 C1890 1.379 . S
C1884 N1892 1.356 . S
C1885 C1884 1.363 . S
C1885 C1891 1.363 . S
C1886 C1887 1.363 . S
C1886 C1891 1.379 . S
C1886 N1893 1.356 . S
C1887 C1886 1.363 . S
C1887 C1890 1.363 . S
N1888 C1890 1.356 . S
N1888 H1900 0.984 . S
N1888 H1901 0.985 . S
N1889 C1891 1.356 . S
N1889 H1894 0.984 . S
N1889 H1895 0.985 . S
C1890 C1884 1.379 . S
C1890 C1887 1.363 . S
C1890 N1888 1.356 . S
C1891 C1885 1.363 . S
C1891 C1886 1.379 . S
C1891 N1889 1.356 . S
N1892 C1884 1.356 . S
N1892 H1898 0.984 . S
N1892 H1899 0.984 . S
N1893 C1886 1.356 . S
N1893 H1896 0.984 . S
N1893 H1897 0.985 . S
H1894 N1889 0.984 . S
H1895 N1889 0.985 . S
H1896 N1893 0.984 . S
H1897 N1893 0.985 . S
H1898 N1892 0.984 . S
H1899 N1892 0.984 . S
H1900 N1888 0.984 . S
H1901 N1888 0.985 . S
C1902 C1903 1.363 . S
C1902 C1908 1.379 . S
C1902 N1910 1.356 . S
C1903 C1902 1.363 . S
C1903 C1909 1.363 . S
C1904 C1905 1.363 . S
C1904 C1909 1.379 . S
C1904 N1911 1.356 . S
C1905 C1904 1.363 . S
C1905 C1908 1.363 . S
N1906 C1908 1.356 . S
N1906 H1918 0.984 . S
N1906 H1919 0.985 . S
N1907 C1909 1.356 . S
N1907 H1912 0.984 . S
N1907 H1913 0.985 . S
C1908 C1902 1.379 . S
C1908 C1905 1.363 . S
C1908 N1906 1.356 . S
C1909 C1903 1.363 . S
C1909 C1904 1.379 . S
C1909 N1907 1.356 . S
N1910 C1902 1.356 . S
N1910 H1916 0.984 . S
N1910 H1917 0.984 . S
N1911 C1904 1.356 . S
N1911 H1914 0.984 . S
N1911 H1915 0.985 . S
H1912 N1907 0.984 . S
H1913 N1907 0.985 . S
H1914 N1911 0.984 . S
H1915 N1911 0.985 . S
H1916 N1910 0.984 . S
H1917 N1910 0.984 . S
H1918 N1906 0.984 . S
H1919 N1906 0.985 . S
C1920 C1921 1.363 . S
C1920 C1926 1.379 1_554 S
C1920 N1928 1.356 . S
C1921 C1920 1.363 . S
C1921 C1927 1.363 . S
C1922 C1923 1.363 . S
C1922 C1927 1.379 1_556 S
C1922 N1929 1.356 . S
C1923 C1922 1.363 . S
C1923 C1926 1.363 . S
N1924 C1926 1.356 . S
N1924 H1936 0.984 . S
N1924 H1937 0.985 . S
N1925 C1927 1.356 . S
N1925 H1930 0.984 . S
N1925 H1931 0.985 . S
C1926 C1920 1.379 1_556 S
C1926 C1923 1.363 . S
C1926 N1924 1.356 . S
C1927 C1921 1.363 . S
C1927 C1922 1.379 1_554 S
C1927 N1925 1.356 . S
N1928 C1920 1.356 . S
N1928 H1934 0.984 . S
N1928 H1935 0.984 . S
N1929 C1922 1.356 . S
N1929 H1932 0.984 . S
N1929 H1933 0.985 . S
H1930 N1925 0.984 . S
H1931 N1925 0.985 . S
H1932 N1929 0.984 . S
H1933 N1929 0.985 . S
H1934 N1928 0.984 . S
H1935 N1928 0.984 . S
H1936 N1924 0.984 . S
H1937 N1924 0.985 . S
C1938 C1939 1.363 . S
C1938 C1944 1.379 1_556 S
C1938 N1946 1.356 . S
C1939 C1938 1.363 . S
C1939 C1945 1.363 . S
C1940 C1941 1.363 . S
C1940 C1945 1.379 1_554 S
C1940 N1947 1.356 . S
C1941 C1940 1.363 . S
C1941 C1944 1.363 . S
N1942 C1944 1.356 . S
N1942 H1954 0.984 . S
N1942 H1955 0.985 . S
N1943 C1945 1.356 . S
N1943 H1948 0.984 . S
N1943 H1949 0.985 . S
C1944 C1938 1.379 1_554 S
C1944 C1941 1.363 . S
C1944 N1942 1.356 . S
C1945 C1939 1.363 . S
C1945 C1940 1.379 1_556 S
C1945 N1943 1.356 . S
N1946 C1938 1.356 . S
N1946 H1952 0.984 . S
N1946 H1953 0.984 . S
N1947 C1940 1.356 . S
N1947 H1950 0.984 . S
N1947 H1951 0.985 . S
H1948 N1943 0.984 . S
H1949 N1943 0.985 . S
H1950 N1947 0.984 . S
H1951 N1947 0.985 . S
H1952 N1946 0.984 . S
H1953 N1946 0.984 . S
H1954 N1942 0.984 . S
H1955 N1942 0.985 . S
C1956 C1957 1.363 . S
C1956 C1962 1.379 1_554 S
C1956 N1964 1.356 . S
C1957 C1956 1.363 . S
C1957 C1963 1.363 . S
C1958 C1959 1.363 . S
C1958 C1963 1.379 1_556 S
C1958 N1965 1.356 . S
C1959 C1958 1.363 . S
C1959 C1962 1.363 . S
N1960 C1962 1.356 . S
N1960 H1972 0.984 . S
N1960 H1973 0.985 . S
N1961 C1963 1.356 . S
N1961 H1966 0.984 . S
N1961 H1967 0.985 . S
C1962 C1956 1.379 1_556 S
C1962 C1959 1.363 . S
C1962 N1960 1.356 . S
C1963 C1957 1.363 . S
C1963 C1958 1.379 1_554 S
C1963 N1961 1.356 . S
N1964 C1956 1.356 . S
N1964 H1970 0.984 . S
N1964 H1971 0.984 . S
N1965 C1958 1.356 . S
N1965 H1968 0.984 . S
N1965 H1969 0.985 . S
H1966 N1961 0.984 . S
H1967 N1961 0.985 . S
H1968 N1965 0.984 . S
H1969 N1965 0.985 . S
H1970 N1964 0.984 . S
H1971 N1964 0.984 . S
H1972 N1960 0.984 . S
H1973 N1960 0.985 . S
C1974 C1975 1.363 . S
C1974 C1980 1.379 1_554 S
C1974 N1982 1.356 . S
C1975 C1974 1.363 . S
C1975 C1981 1.363 . S
C1976 C1977 1.363 . S
C1976 C1981 1.379 1_556 S
C1976 N1983 1.356 . S
C1977 C1976 1.363 . S
C1977 C1980 1.363 . S
N1978 C1980 1.356 . S
N1978 H1990 0.984 . S
N1978 H1991 0.985 . S
N1979 C1981 1.356 . S
N1979 H1984 0.984 . S
N1979 H1985 0.985 . S
C1980 C1974 1.379 1_556 S
C1980 C1977 1.363 . S
C1980 N1978 1.356 . S
C1981 C1975 1.363 . S
C1981 C1976 1.379 1_554 S
C1981 N1979 1.356 . S
N1982 C1974 1.356 . S
N1982 H1988 0.984 . S
N1982 H1989 0.984 . S
N1983 C1976 1.356 . S
N1983 H1986 0.984 . S
N1983 H1987 0.985 . S
H1984 N1979 0.984 . S
H1985 N1979 0.985 . S
H1986 N1983 0.984 . S
H1987 N1983 0.985 . S
H1988 N1982 0.984 . S
H1989 N1982 0.984 . S
H1990 N1978 0.984 . S
H1991 N1978 0.985 . S
C1992 C1993 1.363 . S
C1992 C1998 1.379 1_556 S
C1992 N2000 1.356 . S
C1993 C1992 1.363 . S
C1993 C1999 1.363 . S
C1994 C1995 1.363 . S
C1994 C1999 1.379 1_554 S
C1994 N2001 1.356 . S
C1995 C1994 1.363 . S
C1995 C1998 1.363 . S
N1996 C1998 1.356 . S
N1996 H2008 0.984 . S
N1996 H2009 0.985 . S
N1997 C1999 1.356 . S
N1997 H2002 0.984 . S
N1997 H2003 0.985 . S
C1998 C1992 1.379 1_554 S
C1998 C1995 1.363 . S
C1998 N1996 1.356 . S
C1999 C1993 1.363 . S
C1999 C1994 1.379 1_556 S
C1999 N1997 1.356 . S
N2000 C1992 1.356 . S
N2000 H2006 0.984 . S
N2000 H2007 0.984 . S
N2001 C1994 1.356 . S
N2001 H2004 0.984 . S
N2001 H2005 0.985 . S
H2002 N1997 0.984 . S
H2003 N1997 0.985 . S
H2004 N2001 0.984 . S
H2005 N2001 0.985 . S
H2006 N2000 0.984 . S
H2007 N2000 0.984 . S
H2008 N1996 0.984 . S
H2009 N1996 0.985 . S
C2010 C2011 1.363 . S
C2010 C2016 1.379 1_554 S
C2010 N2018 1.356 . S
C2011 C2010 1.363 . S
C2011 C2017 1.363 . S
C2012 C2013 1.363 . S
C2012 C2017 1.379 1_556 S
C2012 N2019 1.356 . S
C2013 C2012 1.363 . S
C2013 C2016 1.363 . S
N2014 C2016 1.356 . S
N2014 H2026 0.984 . S
N2014 H2027 0.985 . S
N2015 C2017 1.356 . S
N2015 H2020 0.984 . S
N2015 H2021 0.985 . S
C2016 C2010 1.379 1_556 S
C2016 C2013 1.363 . S
C2016 N2014 1.356 . S
C2017 C2011 1.363 . S
C2017 C2012 1.379 1_554 S
C2017 N2015 1.356 . S
N2018 C2010 1.356 . S
N2018 H2024 0.984 . S
N2018 H2025 0.984 . S
N2019 C2012 1.356 . S
N2019 H2022 0.984 . S
N2019 H2023 0.985 . S
H2020 N2015 0.984 . S
H2021 N2015 0.985 . S
H2022 N2019 0.984 . S
H2023 N2019 0.985 . S
H2024 N2018 0.984 . S
H2025 N2018 0.984 . S
H2026 N2014 0.984 . S
H2027 N2014 0.985 . S
C2028 C2029 1.363 . S
C2028 C2034 1.379 1_556 S
C2028 N2036 1.356 . S
C2029 C2028 1.363 . S
C2029 C2035 1.363 . S
C2030 C2031 1.363 . S
C2030 C2035 1.379 1_554 S
C2030 N2037 1.356 . S
C2031 C2030 1.363 . S
C2031 C2034 1.363 . S
N2032 C2034 1.356 . S
N2032 H2044 0.984 . S
N2032 H2045 0.985 . S
N2033 C2035 1.356 . S
N2033 H2038 0.984 . S
N2033 H2039 0.985 . S
C2034 C2028 1.379 1_554 S
C2034 C2031 1.363 . S
C2034 N2032 1.356 . S
C2035 C2029 1.363 . S
C2035 C2030 1.379 1_556 S
C2035 N2033 1.356 . S
N2036 C2028 1.356 . S
N2036 H2042 0.984 . S
N2036 H2043 0.984 . S
N2037 C2030 1.356 . S
N2037 H2040 0.984 . S
N2037 H2041 0.985 . S
H2038 N2033 0.984 . S
H2039 N2033 0.985 . S
H2040 N2037 0.984 . S
H2041 N2037 0.985 . S
H2042 N2036 0.984 . S
H2043 N2036 0.984 . S
H2044 N2032 0.984 . S
H2045 N2032 0.985 . S
C2046 C2047 1.363 . S
C2046 C2052 1.379 1_554 S
C2046 N2054 1.356 . S
C2047 C2046 1.363 . S
C2047 C2053 1.363 . S
C2048 C2049 1.363 . S
C2048 C2053 1.379 1_556 S
C2048 N2055 1.356 . S
C2049 C2048 1.363 . S
C2049 C2052 1.363 . S
N2050 C2052 1.356 . S
N2050 H2062 0.984 . S
N2050 H2063 0.985 . S
N2051 C2053 1.356 . S
N2051 H2056 0.984 . S
N2051 H2057 0.985 . S
C2052 C2046 1.379 1_556 S
C2052 C2049 1.363 . S
C2052 N2050 1.356 . S
C2053 C2047 1.363 . S
C2053 C2048 1.379 1_554 S
C2053 N2051 1.356 . S
N2054 C2046 1.356 . S
N2054 H2060 0.984 . S
N2054 H2061 0.984 . S
N2055 C2048 1.356 . S
N2055 H2058 0.984 . S
N2055 H2059 0.985 . S
H2056 N2051 0.984 . S
H2057 N2051 0.985 . S
H2058 N2055 0.984 . S
H2059 N2055 0.985 . S
H2060 N2054 0.984 . S
H2061 N2054 0.984 . S
H2062 N2050 0.984 . S
H2063 N2050 0.985 . S
C2064 C2065 1.363 . S
C2064 C2070 1.379 1_455 S
C2064 N2072 1.356 . S
C2065 C2064 1.363 . S
C2065 C2071 1.363 . S
C2066 C2067 1.363 . S
C2066 C2071 1.379 1_655 S
C2066 N2073 1.356 . S
C2067 C2066 1.363 . S
C2067 C2070 1.363 . S
N2068 C2070 1.356 . S
N2068 H2080 0.984 . S
N2068 H2081 0.985 . S
N2069 C2071 1.356 . S
N2069 H2074 0.984 . S
N2069 H2075 0.985 . S
C2070 C2064 1.379 1_655 S
C2070 C2067 1.363 . S
C2070 N2068 1.356 . S
C2071 C2065 1.363 . S
C2071 C2066 1.379 1_455 S
C2071 N2069 1.356 . S
N2072 C2064 1.356 . S
N2072 H2078 0.984 . S
N2072 H2079 0.984 . S
N2073 C2066 1.356 . S
N2073 H2076 0.984 . S
N2073 H2077 0.985 . S
H2074 N2069 0.984 . S
H2075 N2069 0.985 . S
H2076 N2073 0.984 . S
H2077 N2073 0.985 . S
H2078 N2072 0.984 . S
H2079 N2072 0.984 . S
H2080 N2068 0.984 . S
H2081 N2068 0.985 . S
C2082 C2083 1.363 . S
C2082 C2088 1.379 1_565 S
C2082 N2090 1.356 . S
C2083 C2082 1.363 . S
C2083 C2089 1.363 . S
C2084 C2085 1.363 . S
C2084 C2089 1.379 1_545 S
C2084 N2091 1.356 . S
C2085 C2084 1.363 . S
C2085 C2088 1.363 . S
N2086 C2088 1.356 . S
N2086 H2098 0.984 . S
N2086 H2099 0.985 . S
N2087 C2089 1.356 . S
N2087 H2092 0.984 . S
N2087 H2093 0.985 . S
C2088 C2082 1.379 1_545 S
C2088 C2085 1.363 . S
C2088 N2086 1.356 . S
C2089 C2083 1.363 . S
C2089 C2084 1.379 1_565 S
C2089 N2087 1.356 . S
N2090 C2082 1.356 . S
N2090 H2096 0.984 . S
N2090 H2097 0.984 . S
N2091 C2084 1.356 . S
N2091 H2094 0.984 . S
N2091 H2095 0.985 . S
H2092 N2087 0.984 . S
H2093 N2087 0.985 . S
H2094 N2091 0.984 . S
H2095 N2091 0.985 . S
H2096 N2090 0.984 . S
H2097 N2090 0.984 . S
H2098 N2086 0.984 . S
H2099 N2086 0.985 . S
C2100 C2101 1.363 . S
C2100 C2106 1.379 1_455 S
C2100 N2108 1.356 . S
C2101 C2100 1.363 . S
C2101 C2107 1.363 . S
C2102 C2103 1.363 . S
C2102 C2107 1.379 1_655 S
C2102 N2109 1.356 . S
C2103 C2102 1.363 . S
C2103 C2106 1.363 . S
N2104 C2106 1.356 . S
N2104 H2116 0.984 . S
N2104 H2117 0.985 . S
N2105 C2107 1.356 . S
N2105 H2110 0.984 . S
N2105 H2111 0.985 . S
C2106 C2100 1.379 1_655 S
C2106 C2103 1.363 . S
C2106 N2104 1.356 . S
C2107 C2101 1.363 . S
C2107 C2102 1.379 1_455 S
C2107 N2105 1.356 . S
N2108 C2100 1.356 . S
N2108 H2114 0.984 . S
N2108 H2115 0.984 . S
N2109 C2102 1.356 . S
N2109 H2112 0.984 . S
N2109 H2113 0.985 . S
H2110 N2105 0.984 . S
H2111 N2105 0.985 . S
H2112 N2109 0.984 . S
H2113 N2109 0.985 . S
H2114 N2108 0.984 . S
H2115 N2108 0.984 . S
H2116 N2104 0.984 . S
H2117 N2104 0.985 . S
C2118 C2119 1.363 . S
C2118 C2124 1.379 1_565 S
C2118 N2126 1.356 . S
C2119 C2118 1.363 . S
C2119 C2125 1.363 . S
C2120 C2121 1.363 . S
C2120 C2125 1.379 1_545 S
C2120 N2127 1.356 . S
C2121 C2120 1.363 . S
C2121 C2124 1.363 . S
N2122 C2124 1.356 . S
N2122 H2134 0.984 . S
N2122 H2135 0.985 . S
N2123 C2125 1.356 . S
N2123 H2128 0.984 . S
N2123 H2129 0.985 . S
C2124 C2118 1.379 1_545 S
C2124 C2121 1.363 . S
C2124 N2122 1.356 . S
C2125 C2119 1.363 . S
C2125 C2120 1.379 1_565 S
C2125 N2123 1.356 . S
N2126 C2118 1.356 . S
N2126 H2132 0.984 . S
N2126 H2133 0.984 . S
N2127 C2120 1.356 . S
N2127 H2130 0.984 . S
N2127 H2131 0.985 . S
H2128 N2123 0.984 . S
H2129 N2123 0.985 . S
H2130 N2127 0.984 . S
H2131 N2127 0.985 . S
H2132 N2126 0.984 . S
H2133 N2126 0.984 . S
H2134 N2122 0.984 . S
H2135 N2122 0.985 . S
C2136 C2137 1.363 . S
C2136 C2142 1.379 1_655 S
C2136 N2144 1.356 . S
C2137 C2136 1.363 . S
C2137 C2143 1.363 . S
C2138 C2139 1.363 . S
C2138 C2143 1.379 1_455 S
C2138 N2145 1.356 . S
C2139 C2138 1.363 . S
C2139 C2142 1.363 . S
N2140 C2142 1.356 . S
N2140 H2152 0.984 . S
N2140 H2153 0.985 . S
N2141 C2143 1.356 . S
N2141 H2146 0.984 . S
N2141 H2147 0.985 . S
C2142 C2136 1.379 1_455 S
C2142 C2139 1.363 . S
C2142 N2140 1.356 . S
C2143 C2137 1.363 . S
C2143 C2138 1.379 1_655 S
C2143 N2141 1.356 . S
N2144 C2136 1.356 . S
N2144 H2150 0.984 . S
N2144 H2151 0.984 . S
N2145 C2138 1.356 . S
N2145 H2148 0.984 . S
N2145 H2149 0.985 . S
H2146 N2141 0.984 . S
H2147 N2141 0.985 . S
H2148 N2145 0.984 . S
H2149 N2145 0.985 . S
H2150 N2144 0.984 . S
H2151 N2144 0.984 . S
H2152 N2140 0.984 . S
H2153 N2140 0.985 . S
C2154 C2155 1.363 . S
C2154 C2160 1.379 1_545 S
C2154 N2162 1.356 . S
C2155 C2154 1.363 . S
C2155 C2161 1.363 . S
C2156 C2157 1.363 . S
C2156 C2161 1.379 1_565 S
C2156 N2163 1.356 . S
C2157 C2156 1.363 . S
C2157 C2160 1.363 . S
N2158 C2160 1.356 . S
N2158 H2170 0.984 . S
N2158 H2171 0.985 . S
N2159 C2161 1.356 . S
N2159 H2164 0.984 . S
N2159 H2165 0.985 . S
C2160 C2154 1.379 1_565 S
C2160 C2157 1.363 . S
C2160 N2158 1.356 . S
C2161 C2155 1.363 . S
C2161 C2156 1.379 1_545 S
C2161 N2159 1.356 . S
N2162 C2154 1.356 . S
N2162 H2168 0.984 . S
N2162 H2169 0.984 . S
N2163 C2156 1.356 . S
N2163 H2166 0.984 . S
N2163 H2167 0.985 . S
H2164 N2159 0.984 . S
H2165 N2159 0.985 . S
H2166 N2163 0.984 . S
H2167 N2163 0.985 . S
H2168 N2162 0.984 . S
H2169 N2162 0.984 . S
H2170 N2158 0.984 . S
H2171 N2158 0.985 . S
C2172 C2173 1.363 . S
C2172 C2178 1.379 1_455 S
C2172 N2180 1.356 . S
C2173 C2172 1.363 . S
C2173 C2179 1.363 . S
C2174 C2175 1.363 . S
C2174 C2179 1.379 1_655 S
C2174 N2181 1.356 . S
C2175 C2174 1.363 . S
C2175 C2178 1.363 . S
N2176 C2178 1.356 . S
N2176 H2188 0.984 . S
N2176 H2189 0.985 . S
N2177 C2179 1.356 . S
N2177 H2182 0.984 . S
N2177 H2183 0.985 . S
C2178 C2172 1.379 1_655 S
C2178 C2175 1.363 . S
C2178 N2176 1.356 . S
C2179 C2173 1.363 . S
C2179 C2174 1.379 1_455 S
C2179 N2177 1.356 . S
N2180 C2172 1.356 . S
N2180 H2186 0.984 . S
N2180 H2187 0.984 . S
N2181 C2174 1.356 . S
N2181 H2184 0.984 . S
N2181 H2185 0.985 . S
H2182 N2177 0.984 . S
H2183 N2177 0.985 . S
H2184 N2181 0.984 . S
H2185 N2181 0.985 . S
H2186 N2180 0.984 . S
H2187 N2180 0.984 . S
H2188 N2176 0.984 . S
H2189 N2176 0.985 . S
C2190 C2191 1.363 . S
C2190 C2196 1.379 1_545 S
C2190 N2198 1.356 . S
C2191 C2190 1.363 . S
C2191 C2197 1.363 . S
C2192 C2193 1.363 . S
C2192 C2197 1.379 1_565 S
C2192 N2199 1.356 . S
C2193 C2192 1.363 . S
C2193 C2196 1.363 . S
N2194 C2196 1.356 . S
N2194 H2206 0.984 . S
N2194 H2207 0.985 . S
N2195 C2197 1.356 . S
N2195 H2200 0.984 . S
N2195 H2201 0.985 . S
C2196 C2190 1.379 1_565 S
C2196 C2193 1.363 . S
C2196 N2194 1.356 . S
C2197 C2191 1.363 . S
C2197 C2192 1.379 1_545 S
C2197 N2195 1.356 . S
N2198 C2190 1.356 . S
N2198 H2204 0.984 . S
N2198 H2205 0.984 . S
N2199 C2192 1.356 . S
N2199 H2202 0.984 . S
N2199 H2203 0.985 . S
H2200 N2195 0.984 . S
H2201 N2195 0.985 . S
H2202 N2199 0.984 . S
H2203 N2199 0.985 . S
H2204 N2198 0.984 . S
H2205 N2198 0.984 . S
H2206 N2194 0.984 . S
H2207 N2194 0.985 . S
C2208 C2209 1.363 . S
C2208 C2214 1.379 1_545 S
C2208 N2216 1.356 . S
C2209 C2208 1.363 . S
C2209 C2215 1.363 . S
C2210 C2211 1.363 . S
C2210 C2215 1.379 1_565 S
C2210 N2217 1.356 . S
C2211 C2210 1.363 . S
C2211 C2214 1.363 . S
N2212 C2214 1.356 . S
N2212 H2224 0.984 . S
N2212 H2225 0.985 . S
N2213 C2215 1.356 . S
N2213 H2218 0.984 . S
N2213 H2219 0.985 . S
C2214 C2208 1.379 1_565 S
C2214 C2211 1.363 . S
C2214 N2212 1.356 . S
C2215 C2209 1.363 . S
C2215 C2210 1.379 1_545 S
C2215 N2213 1.356 . S
N2216 C2208 1.356 . S
N2216 H2222 0.984 . S
N2216 H2223 0.984 . S
N2217 C2210 1.356 . S
N2217 H2220 0.984 . S
N2217 H2221 0.985 . S
H2218 N2213 0.984 . S
H2219 N2213 0.985 . S
H2220 N2217 0.984 . S
H2221 N2217 0.985 . S
H2222 N2216 0.984 . S
H2223 N2216 0.984 . S
H2224 N2212 0.984 . S
H2225 N2212 0.985 . S
C2226 C2227 1.363 . S
C2226 C2232 1.379 1_545 S
C2226 N2234 1.356 . S
C2227 C2226 1.363 . S
C2227 C2233 1.363 . S
C2228 C2229 1.363 . S
C2228 C2233 1.379 1_565 S
C2228 N2235 1.356 . S
C2229 C2228 1.363 . S
C2229 C2232 1.363 . S
N2230 C2232 1.356 . S
N2230 H2242 0.984 . S
N2230 H2243 0.985 . S
N2231 C2233 1.356 . S
N2231 H2236 0.984 . S
N2231 H2237 0.985 . S
C2232 C2226 1.379 1_565 S
C2232 C2229 1.363 . S
C2232 N2230 1.356 . S
C2233 C2227 1.363 . S
C2233 C2228 1.379 1_545 S
C2233 N2231 1.356 . S
N2234 C2226 1.356 . S
N2234 H2240 0.984 . S
N2234 H2241 0.984 . S
N2235 C2228 1.356 . S
N2235 H2238 0.984 . S
N2235 H2239 0.985 . S
H2236 N2231 0.984 . S
H2237 N2231 0.985 . S
H2238 N2235 0.984 . S
H2239 N2235 0.985 . S
H2240 N2234 0.984 . S
H2241 N2234 0.984 . S
H2242 N2230 0.984 . S
H2243 N2230 0.985 . S
C2244 C2245 1.363 . S
C2244 C2250 1.379 1_655 S
C2244 N2252 1.356 . S
C2245 C2244 1.363 . S
C2245 C2251 1.363 . S
C2246 C2247 1.363 . S
C2246 C2251 1.379 1_455 S
C2246 N2253 1.356 . S
C2247 C2246 1.363 . S
C2247 C2250 1.363 . S
N2248 C2250 1.356 . S
N2248 H2260 0.984 . S
N2248 H2261 0.985 . S
N2249 C2251 1.356 . S
N2249 H2254 0.984 . S
N2249 H2255 0.985 . S
C2250 C2244 1.379 1_455 S
C2250 C2247 1.363 . S
C2250 N2248 1.356 . S
C2251 C2245 1.363 . S
C2251 C2246 1.379 1_655 S
C2251 N2249 1.356 . S
N2252 C2244 1.356 . S
N2252 H2258 0.984 . S
N2252 H2259 0.984 . S
N2253 C2246 1.356 . S
N2253 H2256 0.984 . S
N2253 H2257 0.985 . S
H2254 N2249 0.984 . S
H2255 N2249 0.985 . S
H2256 N2253 0.984 . S
H2257 N2253 0.985 . S
H2258 N2252 0.984 . S
H2259 N2252 0.984 . S
H2260 N2248 0.984 . S
H2261 N2248 0.985 . S
C2262 C2263 1.363 . S
C2262 C2268 1.379 1_545 S
C2262 N2270 1.356 . S
C2263 C2262 1.363 . S
C2263 C2269 1.363 . S
C2264 C2265 1.363 . S
C2264 C2269 1.379 1_565 S
C2264 N2271 1.356 . S
C2265 C2264 1.363 . S
C2265 C2268 1.363 . S
N2266 C2268 1.356 . S
N2266 H2278 0.984 . S
N2266 H2279 0.985 . S
N2267 C2269 1.356 . S
N2267 H2272 0.984 . S
N2267 H2273 0.985 . S
C2268 C2262 1.379 1_565 S
C2268 C2265 1.363 . S
C2268 N2266 1.356 . S
C2269 C2263 1.363 . S
C2269 C2264 1.379 1_545 S
C2269 N2267 1.356 . S
N2270 C2262 1.356 . S
N2270 H2276 0.984 . S
N2270 H2277 0.984 . S
N2271 C2264 1.356 . S
N2271 H2274 0.984 . S
N2271 H2275 0.985 . S
H2272 N2267 0.984 . S
H2273 N2267 0.985 . S
H2274 N2271 0.984 . S
H2275 N2271 0.985 . S
H2276 N2270 0.984 . S
H2277 N2270 0.984 . S
H2278 N2266 0.984 . S
H2279 N2266 0.985 . S
C2280 C2281 1.363 . S
C2280 C2286 1.379 1_455 S
C2280 N2288 1.356 . S
C2281 C2280 1.363 . S
C2281 C2287 1.363 . S
C2282 C2283 1.363 . S
C2282 C2287 1.379 1_655 S
C2282 N2289 1.356 . S
C2283 C2282 1.363 . S
C2283 C2286 1.363 . S
N2284 C2286 1.356 . S
N2284 H2296 0.984 . S
N2284 H2297 0.985 . S
N2285 C2287 1.356 . S
N2285 H2290 0.984 . S
N2285 H2291 0.985 . S
C2286 C2280 1.379 1_655 S
C2286 C2283 1.363 . S
C2286 N2284 1.356 . S
C2287 C2281 1.363 . S
C2287 C2282 1.379 1_455 S
C2287 N2285 1.356 . S
N2288 C2280 1.356 . S
N2288 H2294 0.984 . S
N2288 H2295 0.984 . S
N2289 C2282 1.356 . S
N2289 H2292 0.984 . S
N2289 H2293 0.985 . S
H2290 N2285 0.984 . S
H2291 N2285 0.985 . S
H2292 N2289 0.984 . S
H2293 N2289 0.985 . S
H2294 N2288 0.984 . S
H2295 N2288 0.984 . S
H2296 N2284 0.984 . S
H2297 N2284 0.985 . S
C2298 C2299 1.363 . S
C2298 C2304 1.379 1_545 S
C2298 N2306 1.356 . S
C2299 C2298 1.363 . S
C2299 C2305 1.363 . S
C2300 C2301 1.363 . S
C2300 C2305 1.379 1_565 S
C2300 N2307 1.356 . S
C2301 C2300 1.363 . S
C2301 C2304 1.363 . S
N2302 C2304 1.356 . S
N2302 H2314 0.984 . S
N2302 H2315 0.985 . S
N2303 C2305 1.356 . S
N2303 H2308 0.984 . S
N2303 H2309 0.985 . S
C2304 C2298 1.379 1_565 S
C2304 C2301 1.363 . S
C2304 N2302 1.356 . S
C2305 C2299 1.363 . S
C2305 C2300 1.379 1_545 S
C2305 N2303 1.356 . S
N2306 C2298 1.356 . S
N2306 H2312 0.984 . S
N2306 H2313 0.984 . S
N2307 C2300 1.356 . S
N2307 H2310 0.984 . S
N2307 H2311 0.985 . S
H2308 N2303 0.984 . S
H2309 N2303 0.985 . S
H2310 N2307 0.984 . S
H2311 N2307 0.985 . S
H2312 N2306 0.984 . S
H2313 N2306 0.984 . S
H2314 N2302 0.984 . S
H2315 N2302 0.985 . S
C2316 C2317 1.363 . S
C2316 C2322 1.379 1_655 S
C2316 N2324 1.356 . S
C2317 C2316 1.363 . S
C2317 C2323 1.363 . S
C2318 C2319 1.363 . S
C2318 C2323 1.379 1_455 S
C2318 N2325 1.356 . S
C2319 C2318 1.363 . S
C2319 C2322 1.363 . S
N2320 C2322 1.356 . S
N2320 H2332 0.984 . S
N2320 H2333 0.985 . S
N2321 C2323 1.356 . S
N2321 H2326 0.984 . S
N2321 H2327 0.985 . S
C2322 C2316 1.379 1_455 S
C2322 C2319 1.363 . S
C2322 N2320 1.356 . S
C2323 C2317 1.363 . S
C2323 C2318 1.379 1_655 S
C2323 N2321 1.356 . S
N2324 C2316 1.356 . S
N2324 H2330 0.984 . S
N2324 H2331 0.984 . S
N2325 C2318 1.356 . S
N2325 H2328 0.984 . S
N2325 H2329 0.985 . S
H2326 N2321 0.984 . S
H2327 N2321 0.985 . S
H2328 N2325 0.984 . S
H2329 N2325 0.985 . S
H2330 N2324 0.984 . S
H2331 N2324 0.984 . S
H2332 N2320 0.984 . S
H2333 N2320 0.985 . S
C2334 C2335 1.363 . S
C2334 C2340 1.379 1_455 S
C2334 N2342 1.356 . S
C2335 C2334 1.363 . S
C2335 C2341 1.363 . S
C2336 C2337 1.363 . S
C2336 C2341 1.379 1_655 S
C2336 N2343 1.356 . S
C2337 C2336 1.363 . S
C2337 C2340 1.363 . S
N2338 C2340 1.356 . S
N2338 H2350 0.984 . S
N2338 H2351 0.985 . S
N2339 C2341 1.356 . S
N2339 H2344 0.984 . S
N2339 H2345 0.985 . S
C2340 C2334 1.379 1_655 S
C2340 C2337 1.363 . S
C2340 N2338 1.356 . S
C2341 C2335 1.363 . S
C2341 C2336 1.379 1_455 S
C2341 N2339 1.356 . S
N2342 C2334 1.356 . S
N2342 H2348 0.984 . S
N2342 H2349 0.984 . S
N2343 C2336 1.356 . S
N2343 H2346 0.984 . S
N2343 H2347 0.985 . S
H2344 N2339 0.984 . S
H2345 N2339 0.985 . S
H2346 N2343 0.984 . S
H2347 N2343 0.985 . S
H2348 N2342 0.984 . S
H2349 N2342 0.984 . S
H2350 N2338 0.984 . S
H2351 N2338 0.985 . S
C625 C517 1.421 . S
C627 C3 1.424 . S
C643 C17 1.420 . S
C645 C471 1.422 . S
C661 C31 1.420 . S
C663 C485 1.418 . S
C679 C498 1.417 . S
C681 C43 1.417 . S
C697 C439 1.415 . S
C699 C56 1.415 . S
C715 C70 1.425 . S
C717 C445 1.426 . S
C733 C88 1.416 . S
C735 C458 1.418 . S
C751 C94 1.428 . S
C753 C421 1.427 . S
C769 C114 1.421 . S
C771 C406 1.423 . S
C787 C374 1.417 . S
C789 C121 1.416 . S
C805 C380 1.420 . S
C807 C140 1.418 . S
C823 C146 1.422 . S
C825 C400 1.420 . S
C841 C161 1.417 . S
C843 C329 1.415 . S
C859 C172 1.425 . S
C861 C341 1.425 . S
C877 C355 1.411 . S
C879 C186 1.411 . S
C895 C315 1.424 . S
C897 C199 1.421 . S
C913 C218 1.420 . S
C915 C576 1.420 . S
C931 C616 1.422 . S
C933 C224 1.422 . S
C949 C589 1.416 . S
C951 C238 1.416 . S
C967 C603 1.422 . S
C969 C252 1.422 . S
C985 C530 1.419 . S
C987 C270 1.419 . S
C1003 C550 1.420 . S
C1005 C277 1.420 . S
C1021 C291 1.420 . S
C1023 C564 1.420 . S
C1039 C536 1.420 . S
C1041 C302 1.420 . S
C1057 C426 1.422 . S
C1059 C265 1.424 . S
C1075 C225 1.418 . S
C1077 C434 1.420 . S
C1093 C446 1.418 . S
C1095 C237 1.420 . S
C1111 C459 1.413 . S
C1113 C257 1.413 . S
C1129 C303 1.411 . S
C1131 C472 1.411 . S
C1147 C484 1.425 . S
C1149 C276 1.425 . S
C1165 C296 1.415 . S
C1167 C497 1.417 . S
C1183 C213 1.428 . S
C1185 C512 1.428 . S
C1201 C525 1.428 . S
C1203 C198 1.428 . S
C1219 C166 1.417 . S
C1221 C621 1.417 . S
C1237 C588 1.420 . S
C1239 C173 1.418 . S
C1255 C185 1.421 . S
C1257 C608 1.420 . S
C1273 C120 1.417 . S
C1275 C537 1.415 . S
C1291 C135 1.426 . S
C1293 C549 1.425 . S
C1309 C147 1.411 . S
C1311 C569 1.411 . S
C1327 C575 1.428 . S
C1329 C109 1.428 . S
C1345 C316 1.418 . S
C1347 C95 1.418 . S
C1363 C369 1.423 . S
C1365 C16 1.423 . S
C1381 C381 1.416 . S
C1383 C36 1.416 . S
C1399 C395 1.423 . S
C1401 C42 1.423 . S
C1417 C407 1.417 . S
C1419 C4 1.417 . S
C1435 C75 1.420 . S
C1437 C342 1.420 . S
C1453 C354 1.421 . S
C1455 C83 1.421 . S
C1471 C328 1.421 . S
C1473 C55 1.421 . S
C1489 C10 1.557 . S
C1491 C348 1.557 . S
C1507 C356 1.567 . S
C1509 C18 1.567 . S
C1525 C30 1.556 . S
C1527 C322 1.556 . S
C1543 C44 1.567 . S
C1545 C330 1.567 . S
C1561 C57 1.567 . S
C1563 C393 1.567 . S
C1579 C413 1.557 . S
C1581 C69 1.557 . S
C1597 C81 1.567 . S
C1599 C367 1.567 . S
C1615 C387 1.557 . S
C1617 C101 1.557 . S
C1633 C107 1.559 . S
C1635 C478 1.562 . S
C1651 C486 1.568 . S
C1653 C122 1.568 . S
C1669 C133 1.568 . S
C1671 C499 1.568 . S
C1687 C153 1.561 . S
C1689 C510 1.559 . S
C1705 C160 1.556 . S
C1707 C420 1.556 . S
C1723 C179 1.563 . S
C1725 C432 1.560 . S
C1741 C452 1.565 . S
C1743 C187 1.562 . S
C1759 C200 1.561 . S
C1761 C465 1.563 . S
C1777 C563 1.563 . S
C1779 C211 1.560 . S
C1795 C231 1.563 . S
C1797 C590 1.560 . S
C1813 C239 1.560 . S
C1815 C602 1.563 . S
C1831 C523 1.560 . S
C1833 C251 1.563 . S
C1849 C615 1.566 . S
C1851 C263 1.563 . S
C1867 C278 1.557 . S
C1869 C543 1.560 . S
C1885 C551 1.558 . S
C1887 C290 1.561 . S
C1903 C309 1.563 . S
C1905 C577 1.560 . S
C1921 C556 1.557 . S
C1923 C264 1.557 . S
C1939 C226 1.567 . S
C1941 C562 1.567 . S
C1957 C582 1.557 . S
C1959 C244 1.557 . S
C1975 C538 1.567 . S
C1977 C250 1.566 . S
C1993 C601 1.567 . S
C1995 C304 1.566 . S
C2011 C283 1.558 . S
C2013 C524 1.558 . S
C2029 C614 1.567 . S
C2031 C289 1.567 . S
C2047 C212 1.557 . S
C2049 C595 1.557 . S
C2065 C433 1.554 . S
C2067 C205 1.554 . S
C2083 C159 1.568 . S
C2085 C447 1.568 . S
C2101 C174 1.569 . S
C2103 C460 1.570 . S
C2119 C419 1.559 . S
C2121 C192 1.561 . S
C2137 C127 1.556 . S
C2139 C511 1.556 . S
C2155 C473 1.562 . S
C2157 C134 1.565 . S
C2173 C148 1.562 . S
C2175 C491 1.565 . S
C2191 C108 1.556 . S
C2193 C504 1.556 . S
C2209 C361 1.563 . S
C2211 C96 1.560 . S
C2227 C23 1.563 . S
C2229 C382 1.560 . S
C2245 C29 1.561 . S
C2247 C394 1.564 . S
C2263 C408 1.563 . S
C2265 C49 1.566 . S
C2281 C5 1.563 . S
C2283 C368 1.566 . S
C2299 C68 1.558 . S
C2301 C335 1.561 . S
C2317 C82 1.561 . S
C2319 C343 1.558 . S
C2335 C62 1.566 . S
C2337 C317 1.563 . S
