# Generated by pormake.
# Topology wne, (6)-cn, num edge types: 1
# Building blocks:
#     Node 0, Type 0, BuildingBlock: JUFBIX_clean_sbu_0, # of connection points: 6
#     Node 1, Type 0, BuildingBlock: JUFBIX_clean_sbu_0, # of connection points: 6
#     Node 2, Type 0, BuildingBlock: JUFBIX_clean_sbu_0, # of connection points: 6
#     Node 3, Type 0, BuildingBlock: JUFBIX_clean_sbu_0, # of connection points: 6
#     Node 4, Type 0, BuildingBlock: JUFBIX_clean_sbu_0, # of connection points: 6
#     Node 5, Type 0, BuildingBlock: JUFBIX_clean_sbu_0, # of connection points: 6
#     Node 6, Type 0, BuildingBlock: JUFBIX_clean_sbu_0, # of connection points: 6
#     Node 7, Type 0, BuildingBlock: JUFBIX_clean_sbu_0, # of connection points: 6
#     Node 8, Type 0, BuildingBlock: JUFBIX_clean_sbu_0, # of connection points: 6
#     Node 9, Type 0, BuildingBlock: JUFBIX_clean_sbu_0, # of connection points: 6
#     Node 10, Type 0, BuildingBlock: JUFBIX_clean_sbu_0, # of connection points: 6
#     Node 11, Type 0, BuildingBlock: JUFBIX_clean_sbu_0, # of connection points: 6
#     Node 12, Type 0, BuildingBlock: JUFBIX_clean_sbu_0, # of connection points: 6
#     Node 13, Type 0, BuildingBlock: JUFBIX_clean_sbu_0, # of connection points: 6
#     Node 14, Type 0, BuildingBlock: JUFBIX_clean_sbu_0, # of connection points: 6
#     Node 15, Type 0, BuildingBlock: JUFBIX_clean_sbu_0, # of connection points: 6
#     Node 16, Type 0, BuildingBlock: JUFBIX_clean_sbu_0, # of connection points: 6
#     Node 17, Type 0, BuildingBlock: JUFBIX_clean_sbu_0, # of connection points: 6
#     Node 18, Type 0, BuildingBlock: JUFBIX_clean_sbu_0, # of connection points: 6
#     Node 19, Type 0, BuildingBlock: JUFBIX_clean_sbu_0, # of connection points: 6
#     Node 20, Type 0, BuildingBlock: JUFBIX_clean_sbu_0, # of connection points: 6
#     Node 21, Type 0, BuildingBlock: JUFBIX_clean_sbu_0, # of connection points: 6
#     Node 22, Type 0, BuildingBlock: JUFBIX_clean_sbu_0, # of connection points: 6
#     Node 23, Type 0, BuildingBlock: JUFBIX_clean_sbu_0, # of connection points: 6
#     Node 24, Type 0, BuildingBlock: JUFBIX_clean_sbu_0, # of connection points: 6
#     Node 25, Type 0, BuildingBlock: JUFBIX_clean_sbu_0, # of connection points: 6
#     Node 26, Type 0, BuildingBlock: JUFBIX_clean_sbu_0, # of connection points: 6
#     Node 27, Type 0, BuildingBlock: JUFBIX_clean_sbu_0, # of connection points: 6
#     Node 28, Type 0, BuildingBlock: JUFBIX_clean_sbu_0, # of connection points: 6
#     Node 29, Type 0, BuildingBlock: JUFBIX_clean_sbu_0, # of connection points: 6
#     Node 30, Type 0, BuildingBlock: JUFBIX_clean_sbu_0, # of connection points: 6
#     Node 31, Type 0, BuildingBlock: JUFBIX_clean_sbu_0, # of connection points: 6
#     Node 32, Type 0, BuildingBlock: JUFBIX_clean_sbu_0, # of connection points: 6
#     Node 33, Type 0, BuildingBlock: JUFBIX_clean_sbu_0, # of connection points: 6
#     Node 34, Type 0, BuildingBlock: JUFBIX_clean_sbu_0, # of connection points: 6
#     Node 35, Type 0, BuildingBlock: JUFBIX_clean_sbu_0, # of connection points: 6
#     Edge 36, Type (0, 0), BuildingBlock: CIFDUS_clean_linker_0, # of connection points: 2
#     Edge 37, Type (0, 0), BuildingBlock: CIFDUS_clean_linker_0, # of connection points: 2
#     Edge 38, Type (0, 0), BuildingBlock: CIFDUS_clean_linker_0, # of connection points: 2
#     Edge 39, Type (0, 0), BuildingBlock: CIFDUS_clean_linker_0, # of connection points: 2
#     Edge 40, Type (0, 0), BuildingBlock: CIFDUS_clean_linker_0, # of connection points: 2
#     Edge 41, Type (0, 0), BuildingBlock: CIFDUS_clean_linker_0, # of connection points: 2
#     Edge 42, Type (0, 0), BuildingBlock: CIFDUS_clean_linker_0, # of connection points: 2
#     Edge 43, Type (0, 0), BuildingBlock: CIFDUS_clean_linker_0, # of connection points: 2
#     Edge 44, Type (0, 0), BuildingBlock: CIFDUS_clean_linker_0, # of connection points: 2
#     Edge 45, Type (0, 0), BuildingBlock: CIFDUS_clean_linker_0, # of connection points: 2
#     Edge 46, Type (0, 0), BuildingBlock: CIFDUS_clean_linker_0, # of connection points: 2
#     Edge 47, Type (0, 0), BuildingBlock: CIFDUS_clean_linker_0, # of connection points: 2
#     Edge 48, Type (0, 0), BuildingBlock: CIFDUS_clean_linker_0, # of connection points: 2
#     Edge 49, Type (0, 0), BuildingBlock: CIFDUS_clean_linker_0, # of connection points: 2
#     Edge 50, Type (0, 0), BuildingBlock: CIFDUS_clean_linker_0, # of connection points: 2
#     Edge 51, Type (0, 0), BuildingBlock: CIFDUS_clean_linker_0, # of connection points: 2
#     Edge 52, Type (0, 0), BuildingBlock: CIFDUS_clean_linker_0, # of connection points: 2
#     Edge 53, Type (0, 0), BuildingBlock: CIFDUS_clean_linker_0, # of connection points: 2
#     Edge 54, Type (0, 0), BuildingBlock: CIFDUS_clean_linker_0, # of connection points: 2
#     Edge 55, Type (0, 0), BuildingBlock: CIFDUS_clean_linker_0, # of connection points: 2
#     Edge 56, Type (0, 0), BuildingBlock: CIFDUS_clean_linker_0, # of connection points: 2
#     Edge 57, Type (0, 0), BuildingBlock: CIFDUS_clean_linker_0, # of connection points: 2
#     Edge 58, Type (0, 0), BuildingBlock: CIFDUS_clean_linker_0, # of connection points: 2
#     Edge 59, Type (0, 0), BuildingBlock: CIFDUS_clean_linker_0, # of connection points: 2
#     Edge 60, Type (0, 0), BuildingBlock: CIFDUS_clean_linker_0, # of connection points: 2
#     Edge 61, Type (0, 0), BuildingBlock: CIFDUS_clean_linker_0, # of connection points: 2
#     Edge 62, Type (0, 0), BuildingBlock: CIFDUS_clean_linker_0, # of connection points: 2
#     Edge 63, Type (0, 0), BuildingBlock: CIFDUS_clean_linker_0, # of connection points: 2
#     Edge 64, Type (0, 0), BuildingBlock: CIFDUS_clean_linker_0, # of connection points: 2
#     Edge 65, Type (0, 0), BuildingBlock: CIFDUS_clean_linker_0, # of connection points: 2
#     Edge 66, Type (0, 0), BuildingBlock: CIFDUS_clean_linker_0, # of connection points: 2
#     Edge 67, Type (0, 0), BuildingBlock: CIFDUS_clean_linker_0, # of connection points: 2
#     Edge 68, Type (0, 0), BuildingBlock: CIFDUS_clean_linker_0, # of connection points: 2
#     Edge 69, Type (0, 0), BuildingBlock: CIFDUS_clean_linker_0, # of connection points: 2
#     Edge 70, Type (0, 0), BuildingBlock: CIFDUS_clean_linker_0, # of connection points: 2
#     Edge 71, Type (0, 0), BuildingBlock: CIFDUS_clean_linker_0, # of connection points: 2
#     Edge 72, Type (0, 0), BuildingBlock: CIFDUS_clean_linker_0, # of connection points: 2
#     Edge 73, Type (0, 0), BuildingBlock: CIFDUS_clean_linker_0, # of connection points: 2
#     Edge 74, Type (0, 0), BuildingBlock: CIFDUS_clean_linker_0, # of connection points: 2
#     Edge 75, Type (0, 0), BuildingBlock: CIFDUS_clean_linker_0, # of connection points: 2
#     Edge 76, Type (0, 0), BuildingBlock: CIFDUS_clean_linker_0, # of connection points: 2
#     Edge 77, Type (0, 0), BuildingBlock: CIFDUS_clean_linker_0, # of connection points: 2
#     Edge 78, Type (0, 0), BuildingBlock: CIFDUS_clean_linker_0, # of connection points: 2
#     Edge 79, Type (0, 0), BuildingBlock: CIFDUS_clean_linker_0, # of connection points: 2
#     Edge 80, Type (0, 0), BuildingBlock: CIFDUS_clean_linker_0, # of connection points: 2
#     Edge 81, Type (0, 0), BuildingBlock: CIFDUS_clean_linker_0, # of connection points: 2
#     Edge 82, Type (0, 0), BuildingBlock: CIFDUS_clean_linker_0, # of connection points: 2
#     Edge 83, Type (0, 0), BuildingBlock: CIFDUS_clean_linker_0, # of connection points: 2
#     Edge 84, Type (0, 0), BuildingBlock: CIFDUS_clean_linker_0, # of connection points: 2
#     Edge 85, Type (0, 0), BuildingBlock: CIFDUS_clean_linker_0, # of connection points: 2
#     Edge 86, Type (0, 0), BuildingBlock: CIFDUS_clean_linker_0, # of connection points: 2
#     Edge 87, Type (0, 0), BuildingBlock: CIFDUS_clean_linker_0, # of connection points: 2
#     Edge 88, Type (0, 0), BuildingBlock: CIFDUS_clean_linker_0, # of connection points: 2
#     Edge 89, Type (0, 0), BuildingBlock: CIFDUS_clean_linker_0, # of connection points: 2
#     Edge 90, Type (0, 0), BuildingBlock: CIFDUS_clean_linker_0, # of connection points: 2
#     Edge 91, Type (0, 0), BuildingBlock: CIFDUS_clean_linker_0, # of connection points: 2
#     Edge 92, Type (0, 0), BuildingBlock: CIFDUS_clean_linker_0, # of connection points: 2
#     Edge 93, Type (0, 0), BuildingBlock: CIFDUS_clean_linker_0, # of connection points: 2
#     Edge 94, Type (0, 0), BuildingBlock: CIFDUS_clean_linker_0, # of connection points: 2
#     Edge 95, Type (0, 0), BuildingBlock: CIFDUS_clean_linker_0, # of connection points: 2
#     Edge 96, Type (0, 0), BuildingBlock: CIFDUS_clean_linker_0, # of connection points: 2
#     Edge 97, Type (0, 0), BuildingBlock: CIFDUS_clean_linker_0, # of connection points: 2
#     Edge 98, Type (0, 0), BuildingBlock: CIFDUS_clean_linker_0, # of connection points: 2
#     Edge 99, Type (0, 0), BuildingBlock: CIFDUS_clean_linker_0, # of connection points: 2
#     Edge 100, Type (0, 0), BuildingBlock: CIFDUS_clean_linker_0, # of connection points: 2
#     Edge 101, Type (0, 0), BuildingBlock: CIFDUS_clean_linker_0, # of connection points: 2
#     Edge 102, Type (0, 0), BuildingBlock: CIFDUS_clean_linker_0, # of connection points: 2
#     Edge 103, Type (0, 0), BuildingBlock: CIFDUS_clean_linker_0, # of connection points: 2
#     Edge 104, Type (0, 0), BuildingBlock: CIFDUS_clean_linker_0, # of connection points: 2
#     Edge 105, Type (0, 0), BuildingBlock: CIFDUS_clean_linker_0, # of connection points: 2
#     Edge 106, Type (0, 0), BuildingBlock: CIFDUS_clean_linker_0, # of connection points: 2
#     Edge 107, Type (0, 0), BuildingBlock: CIFDUS_clean_linker_0, # of connection points: 2
#     Edge 108, Type (0, 0), BuildingBlock: CIFDUS_clean_linker_0, # of connection points: 2
#     Edge 109, Type (0, 0), BuildingBlock: CIFDUS_clean_linker_0, # of connection points: 2
#     Edge 110, Type (0, 0), BuildingBlock: CIFDUS_clean_linker_0, # of connection points: 2
#     Edge 111, Type (0, 0), BuildingBlock: CIFDUS_clean_linker_0, # of connection points: 2
#     Edge 112, Type (0, 0), BuildingBlock: CIFDUS_clean_linker_0, # of connection points: 2
#     Edge 113, Type (0, 0), BuildingBlock: CIFDUS_clean_linker_0, # of connection points: 2
#     Edge 114, Type (0, 0), BuildingBlock: CIFDUS_clean_linker_0, # of connection points: 2
#     Edge 115, Type (0, 0), BuildingBlock: CIFDUS_clean_linker_0, # of connection points: 2
#     Edge 116, Type (0, 0), BuildingBlock: CIFDUS_clean_linker_0, # of connection points: 2
#     Edge 117, Type (0, 0), BuildingBlock: CIFDUS_clean_linker_0, # of connection points: 2
#     Edge 118, Type (0, 0), BuildingBlock: CIFDUS_clean_linker_0, # of connection points: 2
#     Edge 119, Type (0, 0), BuildingBlock: CIFDUS_clean_linker_0, # of connection points: 2
#     Edge 120, Type (0, 0), BuildingBlock: CIFDUS_clean_linker_0, # of connection points: 2
#     Edge 121, Type (0, 0), BuildingBlock: CIFDUS_clean_linker_0, # of connection points: 2
#     Edge 122, Type (0, 0), BuildingBlock: CIFDUS_clean_linker_0, # of connection points: 2
#     Edge 123, Type (0, 0), BuildingBlock: CIFDUS_clean_linker_0, # of connection points: 2
#     Edge 124, Type (0, 0), BuildingBlock: CIFDUS_clean_linker_0, # of connection points: 2
#     Edge 125, Type (0, 0), BuildingBlock: CIFDUS_clean_linker_0, # of connection points: 2
#     Edge 126, Type (0, 0), BuildingBlock: CIFDUS_clean_linker_0, # of connection points: 2
#     Edge 127, Type (0, 0), BuildingBlock: CIFDUS_clean_linker_0, # of connection points: 2
#     Edge 128, Type (0, 0), BuildingBlock: CIFDUS_clean_linker_0, # of connection points: 2
#     Edge 129, Type (0, 0), BuildingBlock: CIFDUS_clean_linker_0, # of connection points: 2
#     Edge 130, Type (0, 0), BuildingBlock: CIFDUS_clean_linker_0, # of connection points: 2
#     Edge 131, Type (0, 0), BuildingBlock: CIFDUS_clean_linker_0, # of connection points: 2
#     Edge 132, Type (0, 0), BuildingBlock: CIFDUS_clean_linker_0, # of connection points: 2
#     Edge 133, Type (0, 0), BuildingBlock: CIFDUS_clean_linker_0, # of connection points: 2
#     Edge 134, Type (0, 0), BuildingBlock: CIFDUS_clean_linker_0, # of connection points: 2
#     Edge 135, Type (0, 0), BuildingBlock: CIFDUS_clean_linker_0, # of connection points: 2
#     Edge 136, Type (0, 0), BuildingBlock: CIFDUS_clean_linker_0, # of connection points: 2
#     Edge 137, Type (0, 0), BuildingBlock: CIFDUS_clean_linker_0, # of connection points: 2
#     Edge 138, Type (0, 0), BuildingBlock: CIFDUS_clean_linker_0, # of connection points: 2
#     Edge 139, Type (0, 0), BuildingBlock: CIFDUS_clean_linker_0, # of connection points: 2
#     Edge 140, Type (0, 0), BuildingBlock: CIFDUS_clean_linker_0, # of connection points: 2
#     Edge 141, Type (0, 0), BuildingBlock: CIFDUS_clean_linker_0, # of connection points: 2
#     Edge 142, Type (0, 0), BuildingBlock: CIFDUS_clean_linker_0, # of connection points: 2
#     Edge 143, Type (0, 0), BuildingBlock: CIFDUS_clean_linker_0, # of connection points: 2
# Relax obj value: 0.273
# Max RMSD: 0.210
# Mean RMSD: 0.210
data_MOF--net-wne--node1-JUFBIX_clean_sbu_0--edge1-CIFDUS_clean_linker_0
_symmetry_space_group_name_H-M    P1
_symmetry_Int_Tables_number       1
_symmetry_cell_setting            triclinic
loop_
_symmetry_equiv_pos_as_xyz
'x, y, z'
_cell_length_a     63.620672
_cell_length_b     63.555715
_cell_length_c     33.090996
_cell_angle_alpha  90.059167
_cell_angle_beta   89.994585
_cell_angle_gamma 120.06195
loop_
_atom_site_label
_atom_site_type_symbol
_atom_site_fract_x
_atom_site_fract_y
_atom_site_fract_z
_atom_type_partial_charge
Co0 Co 0.252 0.22555 0.08042 0.0
C1 C 0.29394 0.23877 0.03145 0.0
Co2 Co 0.28427 0.23119 0.11492 0.0
C3 C 0.21194 0.23353 0.05309 0.0
C4 C 0.21014 0.20212 1.02611 0.0
N5 N 0.22366 0.22051 0.05183 0.0
N6 N 0.19167 0.22383 1.02957 0.0
C7 C 0.1906 0.20401 1.01272 0.0
H8 H 0.2179 0.24964 0.07146 0.0
H9 H 0.21416 0.18809 1.01746 0.0
C10 C 0.24536 0.22071 0.16685 0.0
N11 N 0.31132 0.23717 0.14311 0.0
C12 C 0.3248 0.22673 0.1364 0.0
C13 C 0.32006 0.24999 0.17759 0.0
N14 N 0.3411 0.23173 0.16595 0.0
C15 C 0.33825 0.24637 0.19207 0.0
C16 C 0.28227 0.2731 0.10272 0.0
O17 O 0.23452 0.21982 0.13352 0.0
O18 O 0.26695 0.22471 0.16479 0.0
O19 O 0.29407 0.26417 0.11894 0.0
O20 O 0.26251 0.25931 0.08449 0.0
O21 O 0.30244 0.23831 0.06592 0.0
H22 H 0.3124 0.25969 0.19279 0.0
H23 H 0.32095 0.21352 0.11268 0.0
O24 O 0.27135 0.23265 1.02923 0.0
O25 O 0.24212 0.19082 0.07567 0.0
O26 O 0.27434 0.19745 0.11009 0.0
C27 C 0.25526 0.18277 0.09073 0.0
H28 H 0.17686 0.19191 0.99154 0.0
H29 H 0.34706 0.2521 0.22123 0.0
Co30 Co 0.80271 0.03133 0.07241 0.0
C31 C 0.78796 0.05948 1.02449 0.0
Co32 Co 0.79867 0.05887 0.10676 0.0
C33 C 0.79453 0.98314 0.04655 0.0
C34 C 0.82432 0.01242 1.01569 0.0
N35 N 0.80697 1.00783 0.04343 0.0
N36 N 0.80361 0.97236 1.02226 0.0
C37 C 0.8224 0.99085 1.00294 0.0
H38 H 0.77932 0.97324 0.0668 0.0
H39 H 0.83765 0.03036 1.00532 0.0
C40 C 0.81019 0.03093 0.15785 0.0
N41 N 0.79406 0.08074 0.13579 0.0
C42 C 0.80546 0.10481 0.1293 0.0
C43 C 0.78271 0.07733 0.17163 0.0
N44 N 0.8026 0.11678 0.16032 0.0
C45 C 0.78818 0.09961 0.18706 0.0
C46 C 0.7568 0.01384 0.10051 0.0
O47 O 0.80902 0.01974 0.1248 0.0
O48 O 0.80802 0.04966 0.15562 0.0
O49 O 0.76609 0.03483 0.11638 0.0
O50 O 0.76974 1.00861 0.07833 0.0
O51 O 0.78863 0.06827 0.05921 0.0
H52 H 0.77295 0.06006 0.18711 0.0
H53 H 0.81789 0.11367 0.10446 0.0
O54 O 0.79479 0.04354 1.02148 0.0
O55 O 0.83684 0.05504 0.0665 0.0
O56 O 0.83194 0.08306 0.09628 0.0
C57 C 0.8457 0.07702 0.078 0.0
H58 H 0.83373 0.98889 0.98057 0.0
H59 H 0.78379 0.10309 0.21704 0.0
Co60 Co 0.99467 0.77806 0.07668 0.0
C61 C 0.96795 0.73471 1.0294 0.0
Co62 Co 0.97036 0.74557 0.11265 0.0
C63 C 0.04007 0.82322 0.05612 0.0
C64 C 1.01339 0.81182 1.00928 0.0
N65 N 0.01679 0.80607 0.04699 0.0
N66 N 0.05132 0.83916 1.0254 0.0
C67 C 0.03444 0.83192 0.99597 0.0
H68 H 0.04892 0.82343 0.08418 0.0
H69 H 0.99682 0.80167 0.99206 0.0
C70 C 0.99674 0.78569 0.1631 0.0
N71 N 0.95015 0.71851 0.1419 0.0
C72 C 0.92615 0.70512 0.13588 0.0
C73 C 0.95421 0.71103 0.17768 0.0
N74 N 0.91467 0.69064 0.16751 0.0
C75 C 0.93226 0.69384 0.19367 0.0
C76 C 1.01583 0.75164 0.10197 0.0
O77 O 1.00612 0.79649 0.12944 0.0
O78 O 0.97984 0.76374 0.16159 0.0
O79 O 0.99557 0.73853 0.11929 0.0
O80 O 0.01919 0.7698 0.08121 0.0
O81 O 0.96043 0.72623 0.06449 0.0
H82 H 0.97159 0.71926 0.19291 0.0
H83 H 0.91696 0.7078 0.11057 0.0
O84 O 0.98283 0.75771 1.02624 0.0
O85 O 0.96888 0.78616 0.07095 0.0
O86 O 0.94496 0.75325 0.10546 0.0
C87 C 0.94792 0.77171 0.08568 0.0
H88 H 0.03713 0.84051 0.96672 0.0
H89 H 0.92927 0.68648 0.22398 0.0
Co90 Co 0.23359 0.2421 0.49052 0.0
C91 C 0.24925 0.28564 0.53775 0.0
Co92 Co 0.23815 0.27352 0.45603 0.0
C93 C 0.23506 0.19748 0.51041 0.0
C94 C 0.22142 0.20967 0.55869 0.0
N95 N 0.22955 0.21494 0.52033 0.0
N96 N 0.23094 0.18181 0.54128 0.0
C97 C 0.22236 0.18955 0.57162 0.0
H98 H 0.24259 0.19668 0.48149 0.0
H99 H 0.21539 0.21997 0.57641 0.0
C100 C 0.22562 0.23364 0.40521 0.0
N101 N 0.24269 0.29968 0.42708 0.0
C102 C 0.2324 0.31288 0.43694 0.0
C103 C 0.25055 0.30589 0.38881 0.0
N104 N 0.23151 0.32566 0.4054 0.0
C105 C 0.24354 0.32188 0.37524 0.0
C106 C 0.27961 0.27011 0.46122 0.0
O107 O 0.22681 0.22363 0.43823 0.0
O108 O 0.22798 0.2546 0.40761 0.0
O109 O 0.27032 0.2817 0.44519 0.0
O110 O 0.26672 0.25217 0.48399 0.0
O111 O 0.249 0.29355 0.50281 0.0
H112 H 0.25825 0.29727 0.37063 0.0
H113 H 0.22326 0.31091 0.46543 0.0
O114 O 0.24199 0.26281 0.54117 0.0
O115 O 0.19938 0.23171 0.49748 0.0
O116 O 0.20502 0.26488 0.46774 0.0
C117 C 0.19097 0.24528 0.48636 0.0
H118 H 0.21696 0.18114 0.60109 0.0
H119 H 0.24447 0.32767 0.34421 0.0
Co120 Co 0.78495 0.99562 0.48104 0.0
C121 C 0.74246 0.96623 0.52939 0.0
Co122 Co 0.75324 0.96774 0.44704 0.0
C123 C 0.82513 0.04389 0.50786 0.0
C124 C 0.82514 0.0142 0.53812 0.0
N125 N 0.81269 0.01915 0.51034 0.0
N126 N 0.84488 0.05434 0.53255 0.0
C127 C 0.84482 0.03556 0.55148 0.0
H128 H 0.82008 0.05406 0.48778 0.0
H129 H 0.82031 0.99614 0.54813 0.0
C130 C 0.79246 0.9968 0.39558 0.0
N131 N 0.72689 0.94599 0.41784 0.0
C132 C 0.71497 0.9218 0.42271 0.0
C133 C 0.71781 0.94989 0.38365 0.0
N134 N 0.69957 0.91025 0.39206 0.0
C135 C 0.70093 0.92782 0.36762 0.0
C136 C 0.75488 0.01198 0.45599 0.0
O137 O 0.80269 1.00773 0.42869 0.0
O138 O 0.77149 0.97811 0.3978 0.0
O139 O 0.74348 0.99105 0.44002 0.0
O140 O 0.77398 0.01811 0.47625 0.0
O141 O 0.73422 0.95721 0.49483 0.0
H142 H 0.72438 0.96748 0.36969 0.0
H143 H 0.71881 0.91273 0.44684 0.0
O144 O 0.76503 0.98283 0.53196 0.0
O145 O 0.79574 0.97194 0.4862 0.0
O146 O 0.76316 0.94396 0.4556 0.0
C147 C 0.78282 0.94996 0.47436 0.0
H148 H 0.8579 0.03718 0.57399 0.0
H149 H 0.69215 0.92488 0.33847 0.0
Co150 Co 0.03421 0.79613 0.48666 0.0
C151 C 0.06042 0.77927 0.5336 0.0
Co152 Co 0.05731 0.78691 0.45058 0.0
C153 C 0.98802 0.79034 0.51523 0.0
C154 C 0.01828 0.82149 0.54166 0.0
N155 N 1.0127 0.80283 0.51611 0.0
N156 N 0.9781 0.80045 0.53895 0.0
C157 C 0.99714 0.82015 0.55549 0.0
H158 H 0.97742 0.7743 0.49693 0.0
H159 H 0.03654 0.83527 0.5498 0.0
C160 C 0.03144 0.80126 0.40045 0.0
N161 N 0.07666 0.77921 0.42119 0.0
C162 C 0.10055 0.78954 0.42749 0.0
C163 C 0.07287 0.77002 0.38344 0.0
N164 N 0.11235 0.78975 0.39379 0.0
C165 C 0.09501 0.77668 0.36631 0.0
C166 C 1.0122 0.74803 0.46279 0.0
O167 O 0.02168 0.80184 0.43417 0.0
O168 O 0.04873 0.79684 0.40178 0.0
O169 O 0.03154 0.75511 0.4428 0.0
O170 O 1.00981 0.76293 0.48491 0.0
O171 O 0.06631 0.7765 0.49822 0.0
H172 H 0.05573 0.76229 0.36754 0.0
H173 H 0.1095 0.80035 0.454 0.0
O174 O 0.04698 0.78903 0.53722 0.0
O175 O 0.05993 0.83023 0.48951 0.0
O176 O 0.0838 0.81964 0.45935 0.0
C177 C 0.08112 0.8359 0.4772 0.0
H178 H 0.99588 0.83249 0.57662 0.0
H179 H 0.09824 0.77544 0.33449 0.0
Co180 Co 0.74438 0.79026 0.94981 0.0
C181 C 0.78193 0.80019 0.89328 0.0
Co182 Co 0.77677 0.79208 0.97805 0.0
C183 C 0.7064 0.79947 0.93083 0.0
C184 C 0.70798 0.7748 0.88853 0.0
N185 N 0.71776 0.78691 0.92326 0.0
N186 N 0.69065 0.7966 0.90142 0.0
C187 C 0.69144 0.781 0.87472 0.0
H188 H 0.7117 0.81279 0.95482 0.0
H189 H 0.71412 0.76404 0.87247 0.0
C190 C 0.73534 0.77949 0.03099 0.0
N191 N 0.80436 0.79496 1.00598 0.0
C192 C 0.82147 0.78879 0.99662 0.0
C193 C 0.81012 0.8038 0.04394 0.0
N194 N 0.83725 0.79313 1.02764 0.0
C195 C 0.82997 0.80258 0.05724 0.0
C196 C 0.77646 0.83685 0.97664 0.0
O197 O 0.72659 0.78205 0.99829 0.0
O198 O 0.75749 0.78403 0.03056 0.0
O199 O 0.78887 0.82681 0.9861 0.0
O200 O 0.75598 0.82399 0.95965 0.0
O201 O 0.79361 0.7987 0.92388 0.0
H202 H 0.8004 0.81068 0.06118 0.0
H203 H 0.82204 0.7808 0.96803 0.0
O204 O 0.76126 0.79797 0.89971 0.0
O205 O 0.73304 0.75725 0.9414 0.0
O206 O 0.76457 0.75827 0.97044 0.0
C207 C 0.74391 0.74634 0.95362 0.0
H208 H 0.68272 0.77657 0.84538 0.0
H209 H 0.8386 0.8085 0.08649 0.0
Co210 Co 0.2361 0.96386 0.94867 0.0
C211 C 0.22455 0.99204 0.89863 0.0
Co212 Co 0.23014 0.98986 0.98455 0.0
C213 C 0.23059 0.91867 0.92541 0.0
C214 C 0.25301 0.94654 0.8834 0.0
N215 N 0.24146 0.94271 0.91913 0.0
N216 N 0.23398 0.90707 0.89438 0.0
C217 C 0.24811 0.92448 0.86775 0.0
H218 H 0.218 0.90949 0.94994 0.0
H219 H 0.26243 0.96389 0.86809 0.0
C220 C 0.24461 0.96113 0.03135 0.0
N221 N 0.22558 0.01285 1.01477 0.0
C222 C 0.23174 0.03621 1.00596 0.0
C223 C 0.21654 1.0094 0.05258 0.0
N224 N 0.22715 0.04743 0.037 0.0
C225 C 0.21757 0.03042 0.06623 0.0
C226 C 0.18777 0.94419 0.97459 0.0
O227 O 0.24419 0.95275 0.9964 0.0
O228 O 0.23799 0.97717 0.03479 0.0
O229 O 0.19572 0.96527 0.99008 0.0
O230 O 0.20244 0.93994 0.95489 0.0
O231 O 0.22384 1.00194 0.93219 0.0
H232 H 0.2099 0.99271 0.0695 0.0
H233 H 0.24011 0.04506 0.97776 0.0
O234 O 0.22869 0.97456 0.9001 0.0
O235 O 0.26906 0.98757 0.94314 0.0
O236 O 0.26351 0.01316 0.97992 0.0
C237 C 0.27746 1.00815 0.96002 0.0
H238 H 0.25247 0.92122 0.8376 0.0
H239 H 0.21156 0.03292 0.09553 0.0
Co240 Co 0.06621 0.28107 0.95502 0.0
C241 C 0.03691 0.24254 0.90231 0.0
Co242 Co 0.03777 0.2495 0.98787 0.0
C243 C 0.11179 0.32102 0.93355 0.0
C244 C 0.08387 0.31685 0.89272 0.0
N245 N 0.08782 0.30785 0.92695 0.0
N246 N 0.12322 0.33736 0.9041 0.0
C247 C 0.10577 0.33491 0.87828 0.0
H248 H 0.12104 0.3169 0.95703 0.0
H249 H 0.0665 0.30948 0.87764 0.0
C250 C 0.0668 0.2912 0.03761 0.0
N251 N 1.01437 0.22168 1.01615 0.0
C252 C 0.98979 0.20896 1.01232 0.0
C253 C 0.01916 0.20937 0.04445 0.0
N254 N 0.97925 0.18916 0.03671 0.0
C255 C 0.99777 0.18942 0.05684 0.0
C256 C 0.08331 0.25086 0.98093 0.0
O257 O 0.07652 0.29959 1.00355 0.0
O258 O 0.05008 0.26868 0.0394 0.0
O259 O 0.06126 0.23838 0.99254 0.0
O260 O 0.08995 0.27091 0.96291 0.0
O261 O 0.02581 0.23227 0.93519 0.0
H262 H 0.03711 0.21449 0.05541 0.0
H263 H 0.97982 0.21385 0.99151 0.0
O264 O 0.0559 0.26331 0.90497 0.0
O265 O 0.04324 0.29115 0.94855 0.0
O266 O 1.01534 0.26069 0.98353 0.0
C267 C 0.02225 0.28022 0.96409 0.0
H268 H 0.10893 0.34379 0.8492 0.0
H269 H 0.99595 0.1763 0.07942 0.0
Co270 Co 0.7951 0.74186 0.6019 0.0
C271 C 0.80488 0.77857 0.65974 0.0
Co272 Co 0.7988 0.77523 0.57406 0.0
C273 C 0.80287 0.70295 0.62087 0.0
C274 C 0.7763 0.7033 0.66004 0.0
N275 N 0.79013 0.71423 0.62731 0.0
N276 N 0.79856 0.68619 0.64935 0.0
C277 C 0.78151 0.686 0.67376 0.0
H278 H 0.81653 0.70828 0.59754 0.0
H279 H 0.76475 0.70891 0.67486 0.0
C280 C 0.78614 0.73452 0.51951 0.0
N281 N 0.80369 0.80413 0.54771 0.0
C282 C 0.7917 0.81686 0.55029 0.0
C283 C 0.82154 0.81683 0.52069 0.0
N284 N 0.80174 0.83704 0.52649 0.0
C285 C 0.82052 0.83692 0.50803 0.0
C286 C 0.84251 0.77325 0.57909 0.0
O287 O 0.78764 0.72514 0.55232 0.0
O288 O 0.79156 0.75702 0.52028 0.0
O289 O 0.83318 0.78614 0.56898 0.0
O290 O 0.82885 0.75252 0.59467 0.0
O291 O 0.80454 0.79099 0.62927 0.0
H292 H 0.83453 0.81178 0.51035 0.0
H293 H 0.77608 0.81158 0.5695 0.0
O294 O 0.80197 0.75764 0.65288 0.0
O295 O 0.76206 0.73156 0.60789 0.0
O296 O 0.76543 0.76428 0.57918 0.0
C297 C 0.75245 0.74363 0.59532 0.0
H298 H 0.77518 0.67594 0.70176 0.0
H299 H 0.83241 0.85018 0.48607 0.0
Co300 Co 0.28278 0.05051 0.61161 0.0
C301 C 0.24212 0.02317 0.66115 0.0
Co302 Co 0.25017 0.02586 0.57572 0.0
C303 C 0.32193 0.09359 0.64352 0.0
C304 C 0.31693 0.06238 0.67605 0.0
N305 N 0.30961 0.06924 0.64278 0.0
N306 N 0.33536 0.1023 0.67725 0.0
C307 C 0.33279 0.08281 0.69749 0.0
H308 H 0.31886 0.10471 0.62229 0.0
H309 H 0.30912 0.04382 0.68645 0.0
C310 C 0.2941 0.05413 0.52906 0.0
N311 N 0.22196 1.00518 0.54483 0.0
C312 C 0.20552 0.98099 0.54858 0.0
C313 C 0.21321 0.01256 0.51422 0.0
N314 N 0.18685 0.97329 0.52186 0.0
C315 C 0.19173 0.99324 0.50042 0.0
C316 C 0.25689 0.07306 0.58833 0.0
O317 O 0.30233 0.06197 0.5642 0.0
O318 O 0.27124 0.03844 0.52567 0.0
O319 O 0.24303 0.05245 0.57192 0.0
O320 O 0.27534 0.07602 0.60796 0.0
O321 O 0.23124 0.01405 0.62746 0.0
H322 H 0.2217 0.031 0.50299 0.0
H323 H 0.2068 0.96943 0.57129 0.0
O324 O 0.26425 0.03955 0.65991 0.0
O325 O 0.28963 0.0253 0.61456 0.0
O326 O 0.25747 1.00032 0.57926 0.0
C327 C 0.27649 1.00467 0.59841 0.0
H328 H 0.33934 0.08315 0.72783 0.0
H329 H 0.18045 0.99382 0.47646 0.0
Co330 Co 0.97307 0.23483 0.61367 0.0
C331 C 1.00116 0.22364 0.66474 0.0
Co332 Co 1.00128 0.23204 0.57948 0.0
C333 C 0.92722 0.2286 0.63506 0.0
C334 C 0.95443 0.25045 0.67852 0.0
N335 N 0.95111 0.23922 0.64252 0.0
N336 N 0.91524 0.23191 0.66555 0.0
C337 C 0.93224 0.24573 0.69301 0.0
H338 H 0.91839 0.21645 0.60983 0.0
H339 H 0.97152 0.25972 0.69461 0.0
C340 C 0.97315 0.24643 0.53134 0.0
N341 N 0.02487 0.22792 0.55054 0.0
C342 C 0.04941 0.23884 0.55515 0.0
C343 C 0.01983 0.21147 0.52086 0.0
N344 N 0.05961 0.22951 0.52998 0.0
C345 C 0.04091 0.21228 0.5085 0.0
C346 C 0.95539 0.18826 0.58313 0.0
O347 O 0.96419 0.24567 0.56597 0.0
O348 O 0.98924 0.23983 0.52865 0.0
O349 O 0.97763 0.19755 0.5729 0.0
O350 O 0.94887 0.20166 0.60143 0.0
O351 O 1.01279 0.22575 0.63184 0.0
H352 H 1.00186 0.19942 0.50901 0.0
H353 H 0.05955 0.25297 0.57715 0.0
O354 O 0.98181 0.22472 0.66239 0.0
O355 O 0.99695 0.26717 0.62542 0.0
O356 O 0.0239 0.26553 0.58616 0.0
C357 C 0.01803 0.27734 0.61008 0.0
H358 H 0.9286 0.25016 0.72284 0.0
H359 H 0.04242 0.20122 0.48505 0.0
Co360 Co 0.9139 0.55982 0.40796 0.0
C361 C 0.95736 0.57484 0.36085 0.0
Co362 Co 0.94578 0.56515 0.44279 0.0
C363 C 0.86919 0.56119 0.38672 0.0
C364 C 0.8812 0.54664 0.3396 0.0
N365 N 0.88647 0.55523 0.37773 0.0
N366 N 0.85366 0.55693 0.35546 0.0
C367 C 0.86131 0.54776 0.32589 0.0
H368 H 0.8685 0.56926 0.41515 0.0
H369 H 0.89143 0.5403 0.32246 0.0
C370 C 0.90603 0.55336 0.4934 0.0
N371 N 0.97211 0.57055 0.47287 0.0
C372 C 0.98419 0.55839 0.46957 0.0
C373 C 0.98079 0.58406 0.50674 0.0
N374 N 0.9993 0.56282 0.5009 0.0
C375 C 0.99759 0.57929 0.52415 0.0
C376 C 0.94217 0.60657 0.43327 0.0
O377 O 0.89574 0.55393 0.46028 0.0
O378 O 0.92714 0.55614 0.4912 0.0
O379 O 0.95404 0.5981 0.45099 0.0
O380 O 0.92388 0.59275 0.41196 0.0
O381 O 0.96555 0.57486 0.39577 0.0
H382 H 0.97393 0.59509 0.51967 0.0
H383 H 0.98066 0.54511 0.44616 0.0
O384 O 0.9345 0.56745 0.35759 0.0
O385 O 0.90365 0.52566 0.40307 0.0
O386 O 0.93681 0.53146 0.43326 0.0
C387 C 0.91701 0.51719 0.41509 0.0
H388 H 0.85305 0.54218 0.29632 0.0
H389 H 1.00603 0.58557 0.55345 0.0
Co390 Co 0.46801 0.36572 0.40804 0.0
C391 C 0.45343 0.3936 0.35815 0.0
Co392 Co 0.46124 0.39229 0.44082 0.0
C393 C 0.461 0.31769 0.38183 0.0
C394 C 0.49225 0.34746 0.35487 0.0
N395 N 0.47365 0.34249 0.38008 0.0
N396 N 0.47112 0.3072 0.35913 0.0
C397 C 0.49084 0.32605 0.34229 0.0
H398 H 0.44488 0.30745 0.40004 0.0
H399 H 0.50613 0.36554 0.34608 0.0
C400 C 0.47293 0.36542 0.49429 0.0
N401 N 0.45469 0.41315 0.46921 0.0
C402 C 0.46815 0.43748 0.46918 0.0
C403 C 0.43849 0.40772 0.49938 0.0
N404 N 0.46177 0.44756 0.49905 0.0
C405 C 0.44288 0.42891 0.51793 0.0
C406 C 0.42047 0.34743 0.42969 0.0
O407 O 0.47483 0.35515 0.46201 0.0
O408 O 0.46761 0.38201 0.49035 0.0
O409 O 0.42844 0.3685 0.44417 0.0
O410 O 0.43486 0.34178 0.413 0.0
O411 O 0.45425 0.40302 0.3923 0.0
H412 H 0.42565 0.38951 0.50938 0.0
H413 H 0.48396 0.4475 0.45024 0.0
O414 O 0.45969 0.37715 0.35625 0.0
O415 O 0.50228 0.3912 0.4023 0.0
O416 O 0.49486 0.41638 0.43632 0.0
C417 C 0.50983 0.41235 0.41718 0.0
H418 H 0.50321 0.32449 0.3217 0.0
H419 H 0.43411 0.4303 0.54501 0.0
Co420 Co 0.66642 0.11316 0.4089 0.0
C421 C 0.63921 0.0702 0.36115 0.0
Co422 Co 0.64175 0.08069 0.44462 0.0
C423 C 0.71168 0.1575 0.38313 0.0
C424 C 0.68021 0.15228 0.35107 0.0
N425 N 0.6873 0.14197 0.37958 0.0
N426 N 0.71981 0.17709 0.35837 0.0
C427 C 0.69994 0.17378 0.33837 0.0
H428 H 0.72313 0.1549 0.40435 0.0
H429 H 0.66174 0.14484 0.34052 0.0
C430 C 0.66834 0.12056 0.49525 0.0
N431 N 0.62311 0.05312 0.47372 0.0
C432 C 0.59948 0.03726 0.46781 0.0
C433 C 0.62914 0.0456 0.50764 0.0
N434 N 0.59018 0.02051 0.49728 0.0
C435 C 0.60874 0.02564 0.52254 0.0
C436 C 0.68803 0.08742 0.43267 0.0
O437 O 0.67787 0.13131 0.46166 0.0
O438 O 0.6514 0.09862 0.49376 0.0
O439 O 0.66748 0.07467 0.44916 0.0
O440 O 0.692 0.10584 0.41199 0.0
O441 O 0.63164 0.06174 0.39622 0.0
H442 H 0.64676 0.05505 0.52208 0.0
H443 H 0.5887 0.03946 0.44466 0.0
O444 O 0.65445 0.09315 0.35802 0.0
O445 O 0.63959 0.12009 0.40544 0.0
O446 O 0.61561 0.08711 0.43982 0.0
C447 C 0.6187 0.10579 0.42063 0.0
H448 H 0.69971 0.18613 0.31609 0.0
H449 H 0.60712 0.01699 0.55146 0.0
Co450 Co 0.8988 0.58057 0.81718 0.0
C451 C 0.91316 0.62393 0.86446 0.0
Co452 Co 0.90631 0.61315 0.78167 0.0
C453 C 0.89887 0.53532 0.83835 0.0
C454 C 0.88445 0.54747 0.88546 0.0
N455 N 0.89325 0.55284 0.84749 0.0
N456 N 0.89418 0.51951 0.86929 0.0
C457 C 0.88509 0.52724 0.89889 0.0
H458 H 0.90704 0.53467 0.81002 0.0
H459 H 0.87834 0.55788 0.90269 0.0
C460 C 0.89436 0.57298 0.73142 0.0
N461 N 0.91282 0.63977 0.7511 0.0
C462 C 0.89944 0.65067 0.75026 0.0
C463 C 0.92773 0.64866 0.71883 0.0
N464 N 0.90431 0.66493 0.71758 0.0
C465 C 0.92247 0.66419 0.69803 0.0
C466 C 0.94678 0.60921 0.79566 0.0
O467 O 0.89252 0.56203 0.76503 0.0
O468 O 0.89975 0.59503 0.7329 0.0
O469 O 0.93918 0.62203 0.77885 0.0
O470 O 0.93205 0.58984 0.8139 0.0
O471 O 0.91342 0.63231 0.82954 0.0
H472 H 0.93983 0.64238 0.70878 0.0
H473 H 0.8847 0.64643 0.77104 0.0
O474 O 0.90646 0.6012 0.86736 0.0
O475 O 0.86462 0.57148 0.82145 0.0
O476 O 0.87269 0.60366 0.78553 0.0
C477 C 0.8574 0.58492 0.80495 0.0
H478 H 0.87927 0.51884 0.92829 0.0
H479 H 0.92946 0.67206 0.66863 0.0
Co480 Co 0.44343 0.32085 0.81037 0.0
C481 C 0.40292 0.2925 0.8643 0.0
Co482 Co 0.41092 0.29031 0.7823 0.0
C483 C 0.4846 0.37036 0.832 0.0
C484 C 0.48432 0.34138 0.86516 0.0
N485 N 0.47183 0.34573 0.83657 0.0
N486 N 0.50464 0.38123 0.85609 0.0
C487 C 0.50436 0.36289 0.87682 0.0
H488 H 0.47951 0.38011 0.81105 0.0
H489 H 0.47921 0.32362 0.87707 0.0
C490 C 0.44764 0.31755 0.72501 0.0
N491 N 0.38378 0.26687 0.7571 0.0
C492 C 0.37236 0.24312 0.76605 0.0
C493 C 0.37286 0.26863 0.72339 0.0
N494 N 0.35546 0.2297 0.73834 0.0
C495 C 0.35538 0.24566 0.71166 0.0
C496 C 0.41066 0.33391 0.78697 0.0
O497 O 0.45942 0.3308 0.75552 0.0
O498 O 0.42703 0.29899 0.73161 0.0
O499 O 0.39977 0.31216 0.77435 0.0
O500 O 0.43129 0.34255 0.80382 0.0
O501 O 0.39391 0.2813 0.83155 0.0
H502 H 0.37846 0.28528 0.70684 0.0
H503 H 0.37762 0.23561 0.79081 0.0
O504 O 0.4252 0.30999 0.86379 0.0
O505 O 0.45533 0.298 0.8171 0.0
O506 O 0.42221 0.26788 0.79147 0.0
C507 C 0.44283 0.27551 0.80784 0.0
H508 H 0.5175 0.36493 0.89953 0.0
H509 H 0.34521 0.24091 0.68366 0.0
Co510 Co 0.70221 0.13057 0.81776 0.0
C511 C 0.73067 0.11533 0.86447 0.0
Co512 Co 0.72952 0.12656 0.78294 0.0
C513 C 0.65588 0.12855 0.83874 0.0
C514 C 0.68191 0.14225 0.88673 0.0
N515 N 0.67902 0.13438 0.84817 0.0
N516 N 0.64427 0.13221 0.87011 0.0
C517 C 0.66074 0.14083 0.90024 0.0
H518 H 0.64746 0.12105 0.80985 0.0
H519 H 0.69831 0.14833 0.90424 0.0
C520 C 0.70153 0.13872 0.73284 0.0
N521 N 0.75088 0.12188 0.75293 0.0
C522 C 0.77485 0.13234 0.75951 0.0
C523 C 0.74699 0.11044 0.71702 0.0
N524 N 0.78632 0.12867 0.7286 0.0
C525 C 0.76892 0.11487 0.70168 0.0
C526 C 0.68431 0.08459 0.78888 0.0
O527 O 0.69044 0.13748 0.76601 0.0
O528 O 0.72008 0.13627 0.73476 0.0
O529 O 0.70526 0.09386 0.77296 0.0
O530 O 0.67923 0.09761 0.81118 0.0
O531 O 0.73933 0.11619 0.82964 0.0
H532 H 0.72967 0.10116 0.70162 0.0
H533 H 0.78407 0.14455 0.78451 0.0
O534 O 0.7147 0.12205 0.86785 0.0
O535 O 0.72597 0.16468 0.8247 0.0
O536 O 0.75392 0.16003 0.79397 0.0
C537 C 0.74793 0.17369 0.81296 0.0
H538 H 0.65772 0.14588 0.93002 0.0
H539 H 0.77212 0.11015 0.67176 0.0
Co540 Co 0.41783 0.12477 0.28493 0.0
C541 C 0.45737 0.13617 0.23324 0.0
Co542 Co 0.44946 0.12851 0.31845 0.0
C543 C 0.37816 0.13054 0.26265 0.0
C544 C 0.38328 0.10797 0.22044 0.0
N545 N 0.39142 0.11987 0.25586 0.0
N546 N 0.36263 0.12663 0.23226 0.0
C547 C 0.36569 0.11238 0.20555 0.0
H548 H 0.38168 0.14318 0.28719 0.0
H549 H 0.39102 0.09844 0.20496 0.0
C550 C 0.40625 0.1135 0.36673 0.0
N551 N 0.4768 0.13259 0.34814 0.0
C552 C 0.49423 0.12695 0.33856 0.0
C553 C 0.48207 0.14088 0.38644 0.0
N554 N 0.50985 0.13114 0.36962 0.0
C555 C 0.50211 0.13991 0.39967 0.0
C556 C 0.44695 0.17204 0.31415 0.0
O557 O 0.39821 0.11489 0.33241 0.0
O558 O 0.42888 0.11983 0.36917 0.0
O559 O 0.4598 0.16284 0.32566 0.0
O560 O 0.42722 0.15843 0.29528 0.0
O561 O 0.46765 0.13537 0.26621 0.0
H562 H 0.47181 0.14703 0.40395 0.0
H563 H 0.49503 0.11928 0.30977 0.0
O564 O 0.43641 0.13383 0.2358 0.0
O565 O 0.409 0.09198 0.27569 0.0
O566 O 0.43949 0.0954 0.31149 0.0
C567 C 0.42075 0.08247 0.29033 0.0
H568 H 0.35749 0.10749 0.17583 0.0
H569 H 0.51046 0.1454 0.4292 0.0
Co570 Co 0.90614 0.30054 0.28287 0.0
C571 C 0.89198 0.32649 0.23251 0.0
Co572 Co 0.8993 0.32598 0.31831 0.0
C573 C 0.90243 0.25579 0.26028 0.0
C574 C 0.92418 0.28397 0.21826 0.0
N575 N 0.91247 0.27978 0.2539 0.0
N576 N 0.90642 0.24454 0.22932 0.0
C577 C 0.92027 0.26219 0.20283 0.0
H578 H 0.89006 0.24631 0.28491 0.0
H579 H 0.93307 0.3013 0.20285 0.0
C580 C 0.91652 0.30009 0.36588 0.0
N581 N 0.89357 0.34863 0.34745 0.0
C582 C 0.90573 0.3734 0.34587 0.0
C583 C 0.8754 0.34317 0.37393 0.0
N584 N 0.89571 0.38341 0.36991 0.0
C585 C 0.87658 0.36429 0.38744 0.0
C586 C 0.85842 0.27866 0.31245 0.0
O587 O 0.91739 0.29234 0.33086 0.0
O588 O 0.90794 0.3146 0.36896 0.0
O589 O 0.86514 0.30026 0.32433 0.0
O590 O 0.87374 0.27496 0.29375 0.0
O591 O 0.89221 0.33696 0.26592 0.0
H592 H 0.86201 0.32494 0.38297 0.0
H593 H 0.92142 0.38396 0.32687 0.0
O594 O 0.89558 0.30861 0.23411 0.0
O595 O 0.93783 0.32586 0.27244 0.0
O596 O 0.93237 0.35029 0.31241 0.0
C597 C 0.94586 0.34646 0.28898 0.0
H598 H 0.92518 0.25925 0.17289 0.0
H599 H 0.86446 0.36549 0.40908 0.0
Co600 Co 0.72615 0.61189 0.27006 0.0
C601 C 0.69883 0.57047 0.22233 0.0
Co602 Co 0.70067 0.58051 0.30726 0.0
C603 C 0.77115 0.65028 0.2436 0.0
C604 C 0.74272 0.64492 0.20303 0.0
N605 N 0.74698 0.63773 0.23895 0.0
N606 N 0.78239 0.66405 0.21116 0.0
C607 C 0.76461 0.66117 0.18573 0.0
H608 H 0.78051 0.64768 0.26872 0.0
H609 H 0.72509 0.63716 0.18874 0.0
C610 C 0.72839 0.62493 0.35219 0.0
N611 N 0.67811 0.55358 0.33876 0.0
C612 C 0.655 0.53575 0.33017 0.0
C613 C 0.68163 0.54908 0.37724 0.0
N614 N 0.64399 0.52059 0.36196 0.0
C615 C 0.66086 0.52908 0.3915 0.0
C616 C 0.74692 0.58502 0.30037 0.0
O617 O 0.73642 0.63275 0.31694 0.0
O618 O 0.7129 0.60213 0.35607 0.0
O619 O 0.72577 0.57148 0.31524 0.0
O620 O 0.75071 0.60347 0.27975 0.0
O621 O 0.68897 0.56075 0.25634 0.0
H622 H 0.6982 0.55987 0.39416 0.0
H623 H 0.64617 0.53433 0.30152 0.0
O624 O 0.71633 0.59218 0.22267 0.0
O625 O 0.70172 0.61952 0.26036 0.0
O626 O 0.67664 0.58965 0.29975 0.0
C627 C 0.68098 0.60723 0.27646 0.0
H628 H 0.76732 0.66819 0.15521 0.0
H629 H 0.65842 0.52129 0.4214 0.0
Co630 Co 0.45996 0.07516 0.94515 0.0
C631 C 0.47164 0.11487 0.99571 0.0
Co632 Co 0.46723 0.10748 0.90916 0.0
C633 C 0.46676 0.03711 0.97458 0.0
C634 C 0.43804 0.03821 1.00615 0.0
N635 N 0.45345 0.04812 0.97475 0.0
N636 N 0.46119 0.02151 1.00559 0.0
C637 C 0.44282 0.02186 1.0253 0.0
H638 H 0.48203 0.04235 0.95459 0.0
H639 H 0.4256 0.04398 1.01655 0.0
C640 C 0.45304 0.06486 0.86134 0.0
N641 N 0.47305 0.1357 0.87986 0.0
C642 C 0.46024 0.1476 0.88045 0.0
C643 C 0.49168 0.14903 0.85449 0.0
N644 N 0.47024 0.16777 0.85683 0.0
C645 C 0.49009 0.16867 0.8406 0.0
C646 C 0.50875 0.10309 0.92086 0.0
O647 O 0.45206 0.05622 0.8964 0.0
O648 O 0.46028 0.08771 0.85848 0.0
O649 O 0.50152 0.11675 0.90542 0.0
O650 O 0.49348 0.08418 0.93989 0.0
O651 O 0.47288 0.12548 0.96193 0.0
H652 H 0.50565 0.14482 0.84645 0.0
H653 H 0.44405 0.14185 0.89841 0.0
O654 O 0.46724 0.09311 0.99444 0.0
O655 O 0.42724 0.06689 0.94994 0.0
O656 O 0.43388 0.09792 0.91228 0.0
C657 C 0.41939 0.07936 0.93259 0.0
H658 H 0.43474 0.01249 0.05329 0.0
H659 H 0.50239 0.18234 0.81955 0.0
Co660 Co 0.95067 0.39251 0.94634 0.0
C661 C 0.91084 0.36392 0.99636 0.0
Co662 Co 0.91888 0.36628 0.91047 0.0
C663 C 0.98841 0.43803 0.9732 0.0
C664 C 0.98565 0.40934 1.0106 0.0
N665 N 0.97714 0.41374 0.97619 0.0
N666 N 1.00253 0.4491 1.00545 0.0
C667 C 1.00132 0.43118 1.02879 0.0
H668 H 0.98456 0.44744 0.94968 0.0
H669 H 0.97907 0.39151 1.02359 0.0
C670 C 0.96178 0.39492 0.86324 0.0
N671 N 0.89109 0.34326 0.88083 0.0
C672 C 0.87869 0.31853 0.8831 0.0
C673 C 0.87853 0.34831 0.85342 0.0
N674 N 0.85888 0.30813 0.85861 0.0
C675 C 0.85881 0.32695 0.84004 0.0
C676 C 0.92228 0.41224 0.92022 0.0
O677 O 0.96992 0.40354 0.89813 0.0
O678 O 0.93913 0.37868 0.86019 0.0
O679 O 0.90916 0.39115 0.90478 0.0
O680 O 0.94108 0.41639 0.94 0.0
O681 O 0.90049 0.35425 0.96258 0.0
H682 H 0.88328 0.36641 0.84375 0.0
H683 H 0.88377 0.3083 0.90297 0.0
O684 O 0.93238 0.38171 0.99525 0.0
O685 O 0.95968 0.36885 0.95243 0.0
O686 O 0.92884 0.34276 0.91595 0.0
C687 C 0.94763 0.34793 0.93659 0.0
H688 H 1.00899 0.43357 0.05879 0.0
H689 H 0.8456 0.32537 0.81782 0.0
Co690 Co 0.63512 0.5608 0.93529 0.0
C691 C 0.6633 0.5491 0.98592 0.0
Co692 Co 0.66318 0.55764 0.90121 0.0
C693 C 0.58933 0.554 0.95872 0.0
C694 C 0.61725 0.57708 1.00026 0.0
N695 N 0.61338 0.56512 0.96488 0.0
N696 N 0.57783 0.5578 0.98944 0.0
C697 C 0.59526 0.57237 1.0157 0.0
H698 H 0.58014 0.54134 0.93425 0.0
H699 H 0.63465 0.58699 1.01527 0.0
C700 C 0.63481 0.57262 0.85398 0.0
N701 N 0.68668 0.55416 0.87135 0.0
C702 C 0.70966 0.55984 0.88155 0.0
C703 C 0.68419 0.54647 0.83274 0.0
N704 N 0.72157 0.55624 0.85061 0.0
C705 C 0.70546 0.54783 0.81995 0.0
C706 C 0.6173 0.51414 0.90437 0.0
O707 O 0.6254 0.57099 0.88842 0.0
O708 O 0.65125 0.56653 0.85103 0.0
O709 O 0.63939 0.52337 0.89304 0.0
O710 O 0.61116 0.52746 0.92398 0.0
O711 O 0.67448 0.55039 0.95288 0.0
H712 H 0.66798 0.54049 0.81474 0.0
H713 H 0.71775 0.56712 0.91072 0.0
O714 O 0.6446 0.55132 0.98381 0.0
O715 O 0.65878 0.59343 0.94535 0.0
O716 O 0.68614 0.59083 0.90898 0.0
C717 C 0.68004 0.60336 0.93061 0.0
H718 H 0.59212 0.5775 0.04533 0.0
H719 H 0.70876 0.54284 0.79031 0.0
Co720 Co 0.58908 0.89501 0.74114 0.0
C721 C 0.63114 0.90878 0.69238 0.0
Co722 Co 0.62183 0.90257 0.77611 0.0
C723 C 0.54738 0.90003 0.71429 0.0
C724 C 0.54656 0.86876 0.68866 0.0
N725 N 0.56008 0.88801 0.71289 0.0
N726 N 0.52654 0.88894 0.69229 0.0
C727 C 0.52605 0.86922 0.67624 0.0
H728 H 0.55302 0.91639 0.73182 0.0
H729 H 0.55117 0.85507 0.68057 0.0
C730 C 0.58293 0.89172 0.82775 0.0
N731 N 0.64944 0.91047 0.80437 0.0
C732 C 0.66354 0.90055 0.79939 0.0
C733 C 0.65807 0.92453 0.83765 0.0
N734 N 0.68007 0.90699 0.82904 0.0
C735 C 0.67679 0.92214 0.85326 0.0
C736 C 0.61765 0.94301 0.76081 0.0
O737 O 0.57181 0.88982 0.79429 0.0
O738 O 0.60476 0.89648 0.82595 0.0
O739 O 0.63021 0.93528 0.77806 0.0
O740 O 0.59817 0.9283 0.74282 0.0
O741 O 0.63978 0.90931 0.72717 0.0
H742 H 0.64993 0.93417 0.85153 0.0
H743 H 0.65986 0.88656 0.77722 0.0
O744 O 0.60833 0.90174 0.68974 0.0
O745 O 0.58052 0.86082 0.73877 0.0
O746 O 0.6132 0.86907 0.77334 0.0
C747 C 0.59416 0.85365 0.75462 0.0
H748 H 0.51205 0.85622 0.65633 0.0
H749 H 0.6855 0.92884 0.88226 0.0
Co750 Co 0.13571 0.7006 0.74632 0.0
C751 C 0.11773 0.72569 0.69693 0.0
Co752 Co 0.12756 0.72601 0.77916 0.0
C753 C 0.136 0.65504 0.72731 0.0
C754 C 0.15085 0.68142 0.67998 0.0
N755 N 0.14182 0.6782 0.71777 0.0
N756 N 0.14075 0.64371 0.69671 0.0
C757 C 0.15012 0.66042 0.66701 0.0
H758 H 0.1275 0.6463 0.75551 0.0
H759 H 0.15699 0.69783 0.66244 0.0
C760 C 0.14322 0.70227 0.83199 0.0
N761 N 0.12036 0.74644 0.80707 0.0
C762 C 0.13009 0.77034 0.80026 0.0
C763 C 0.10814 0.7422 0.8422 0.0
N764 N 0.12545 0.78153 0.8305 0.0
C765 C 0.11155 0.76392 0.85701 0.0
C766 C 0.08846 0.67946 0.77304 0.0
O767 O 0.1445 0.69146 0.79992 0.0
O768 O 0.13701 0.71819 0.82801 0.0
O769 O 0.09556 0.70052 0.78725 0.0
O770 O 0.10322 0.67546 0.75349 0.0
O771 O 0.1176 0.73447 0.73119 0.0
H772 H 0.09938 0.72495 0.85785 0.0
H773 H 0.14289 0.77989 0.77616 0.0
O774 O 0.12561 0.71056 0.69494 0.0
O775 O 0.16921 0.72686 0.73832 0.0
O776 O 0.16035 0.7516 0.77064 0.0
C777 C 0.17578 0.74817 0.7516 0.0
H778 H 0.15593 0.65762 0.63774 0.0
H779 H 0.10652 0.76694 0.8868 0.0
Co780 Co 0.33132 0.44341 0.74317 0.0
C781 C 0.30288 0.39982 0.69593 0.0
Co782 Co 0.30341 0.41215 0.77721 0.0
C783 C 0.37711 0.48823 0.72255 0.0
C784 C 0.35062 0.47611 0.67529 0.0
N785 N 0.3541 0.47062 0.71312 0.0
N786 N 0.38809 0.50427 0.69188 0.0
C787 C 0.37133 0.49656 0.6622 0.0
H788 H 0.38582 0.48895 0.75103 0.0
H789 H 0.33405 0.46581 0.65813 0.0
C790 C 0.33164 0.45218 0.82782 0.0
N791 N 0.28248 0.38586 0.80701 0.0
C792 C 0.25847 0.37213 0.80132 0.0
C793 C 0.28711 0.37781 0.84172 0.0
N794 N 0.24766 0.35635 0.83174 0.0
C795 C 0.26557 0.35975 0.8573 0.0
C796 C 0.34867 0.41501 0.77111 0.0
O797 O 0.34277 0.46212 0.79477 0.0
O798 O 0.3131 0.43111 0.82575 0.0
O799 O 0.32747 0.40363 0.78601 0.0
O800 O 0.35477 0.43378 0.74993 0.0
O801 O 0.29342 0.39215 0.73034 0.0
H802 H 0.30468 0.38582 0.85627 0.0
H803 H 0.24873 0.37542 0.77762 0.0
O804 O 0.31928 0.42242 0.69292 0.0
O805 O 0.30719 0.45341 0.73611 0.0
O806 O 0.27893 0.42115 0.76722 0.0
C807 C 0.2852 0.4408 0.74805 0.0
H808 H 0.37376 0.50523 0.63308 0.0
H809 H 0.26295 0.35149 0.88684 0.0
Co810 Co 0.56825 0.91561 0.15036 0.0
C811 C 0.58104 0.9586 0.1978 0.0
Co812 Co 0.57375 0.9477 0.11516 0.0
C813 C 0.56918 0.87043 0.17092 0.0
C814 C 0.55627 0.88331 0.21924 0.0
N815 N 0.56404 0.88823 0.18065 0.0
N816 N 0.5652 0.85493 0.20212 0.0
C817 C 0.55708 0.86315 0.23245 0.0
H818 H 0.57637 0.86926 0.14189 0.0
H819 H 0.5506 0.89389 0.23698 0.0
C820 C 0.56415 0.90822 0.06464 0.0
N821 N 0.57862 0.97394 0.08487 0.0
C822 C 0.56405 0.98355 0.08445 0.0
C823 C 0.59382 0.98425 0.05333 0.0
N824 N 0.56868 0.99865 0.05298 0.0
C825 C 0.58767 0.99943 0.0335 0.0
C826 C 0.61553 0.94637 0.12864 0.0
O827 O 0.56258 0.89733 0.0982 0.0
O828 O 0.56829 0.92988 0.06621 0.0
O829 O 0.60679 0.95836 0.11247 0.0
O830 O 0.60175 0.92636 0.14615 0.0
O831 O 0.57997 0.96659 0.16316 0.0
H832 H 0.6071 0.97949 0.04337 0.0
H833 H 0.54865 0.97762 0.10443 0.0
O834 O 0.57557 0.93619 0.20051 0.0
O835 O 0.53368 0.90502 0.1555 0.0
O836 O 0.53997 0.93645 0.11901 0.0
C837 C 0.52549 0.91761 0.1389 0.0
H838 H 0.5519 0.85504 0.26217 0.0
H839 H 0.59536 1.0088 1.00535 0.0
Co840 Co 0.11204 0.65866 0.14919 0.0
C841 C 0.06936 0.63244 0.19891 0.0
Co842 Co 0.07824 0.63397 0.11575 0.0
C843 C 0.15454 0.7056 0.17503 0.0
C844 C 0.15448 0.67504 0.20193 0.0
N845 N 0.14136 0.68085 0.177 0.0
N846 N 0.17529 0.71526 0.19731 0.0
C847 C 0.1752 0.69593 0.21414 0.0
H848 H 0.14929 0.7164 0.15695 0.0
H849 H 0.14944 0.65673 0.21074 0.0
C850 C 0.11738 0.65858 0.06277 0.0
N851 N 0.05047 0.61356 0.08791 0.0
C852 C 0.03757 0.58943 0.09338 0.0
C853 C 0.04223 0.61767 0.05296 0.0
N854 N 0.02276 0.57797 0.06201 0.0
C855 C 0.02515 0.59567 0.03681 0.0
C856 C 0.08498 0.67966 0.12672 0.0
O857 O 0.12955 0.66876 0.0951 0.0
O858 O 0.09512 0.64295 0.06652 0.0
O859 O 0.07108 0.65914 0.11075 0.0
O860 O 0.10405 0.68345 0.14501 0.0
O861 O 0.06036 0.62442 0.16433 0.0
H862 H 0.04999 0.63514 0.0381 0.0
H863 H 0.04095 0.58019 0.1178 0.0
O864 O 0.09244 0.64756 0.20115 0.0
O865 O 0.1195 0.63265 0.15414 0.0
O866 O 0.08596 0.60859 0.12132 0.0
C867 C 0.10487 0.61172 0.13964 0.0
H868 H 0.18895 0.69683 0.23449 0.0
H869 H 0.01745 0.59281 1.00676 0.0
Co870 Co 0.36631 0.46223 0.15057 0.0
C871 C 0.39494 0.44789 0.19799 0.0
Co872 Co 0.39361 0.45811 0.11593 0.0
C873 C 0.31884 0.45558 0.17713 0.0
C874 C 0.34884 0.48483 0.20778 0.0
N875 N 0.3435 0.46726 0.18005 0.0
N876 N 0.30881 0.46541 0.20148 0.0
C877 C 0.32775 0.48385 0.22068 0.0
H878 H 0.30843 0.44047 0.15687 0.0
H879 H 0.36699 0.49775 0.21794 0.0
C880 C 0.36536 0.46944 0.0653 0.0
N881 N 0.41452 0.45253 0.08637 0.0
C882 C 0.43855 0.4629 0.09219 0.0
C883 C 0.41 0.43995 0.05153 0.0
N884 N 0.44943 0.45802 0.06177 0.0
C885 C 0.43159 0.44353 0.03603 0.0
C886 C 0.34825 0.41589 0.12374 0.0
O887 O 0.35433 0.46833 0.09845 0.0
O888 O 0.38402 0.46717 0.06726 0.0
O889 O 0.3691 0.4253 0.10749 0.0
O890 O 0.34305 0.42901 0.14561 0.0
O891 O 0.40347 0.44843 0.16315 0.0
H892 H 0.39245 0.43033 0.03689 0.0
H893 H 0.44823 0.4758 0.11616 0.0
O894 O 0.37893 0.45459 0.20126 0.0
O895 O 0.39049 0.4965 0.15556 0.0
O896 O 0.41841 0.49166 0.12539 0.0
C897 C 0.41243 0.50549 0.14377 0.0
H898 H 0.32642 0.49561 0.24297 0.0
H899 H 0.43426 0.43772 1.00665 0.0
Co900 Co 0.08432 0.45993 0.61615 0.0
C901 C 0.12446 0.4732 0.56659 0.0
Co902 Co 0.11614 0.46595 0.65243 0.0
C903 C 0.04545 0.46617 0.58981 0.0
C904 C 0.04923 0.44083 0.55232 0.0
N905 N 0.05774 0.4542 0.58637 0.0
N906 N 0.03042 0.46177 0.55837 0.0
C907 C 0.03235 0.44549 0.53495 0.0
H908 H 0.04887 0.47938 0.61327 0.0
H909 H 0.05631 0.43005 0.53918 0.0
C910 C 0.07293 0.45003 0.69921 0.0
N911 N 0.14417 0.47084 0.68178 0.0
C912 C 0.15605 0.45798 0.67993 0.0
C913 C 0.15749 0.48893 0.70813 0.0
N914 N 0.17618 0.46746 0.70369 0.0
C915 C 0.17706 0.487 0.72132 0.0
C916 C 0.11157 0.50789 0.64472 0.0
O917 O 0.06473 0.44999 0.66415 0.0
O918 O 0.09577 0.45736 0.7026 0.0
O919 O 0.12525 0.50033 0.65914 0.0
O920 O 0.09275 0.49302 0.62501 0.0
O921 O 0.13463 0.47318 0.60018 0.0
H922 H 0.15338 0.50283 0.71722 0.0
H923 H 0.15035 0.4422 0.66084 0.0
O924 O 0.10287 0.46921 0.5678 0.0
O925 O 0.07658 0.42768 0.60718 0.0
O926 O 0.1067 0.43265 0.6459 0.0
C927 C 0.0889 0.41928 0.62317 0.0
H928 H 0.02407 0.43936 0.50551 0.0
H929 H 0.19072 0.4989 0.74278 0.0
Co930 Co 0.56957 0.63376 0.61351 0.0
C931 C 0.55691 0.66209 0.56583 0.0
Co932 Co 0.56411 0.65961 0.65067 0.0
C933 C 0.56113 0.58897 0.58047 0.0
C934 C 0.59009 0.61905 0.54971 0.0
N935 N 0.57492 0.61326 0.58155 0.0
N936 N 0.56629 0.57926 0.54847 0.0
C937 C 0.58478 0.59813 0.52921 0.0
H938 H 0.54594 0.57879 0.60055 0.0
H939 H 0.60284 0.63737 0.54008 0.0
C940 C 0.57947 0.63069 0.6952 0.0
N941 N 0.55995 0.68218 0.6823 0.0
C942 C 0.56561 0.70531 0.67318 0.0
C943 C 0.55271 0.67932 0.7212 0.0
N944 N 0.56246 0.71699 0.70499 0.0
C945 C 0.55433 0.70056 0.73517 0.0
C946 C 0.52195 0.61372 0.64163 0.0
O947 O 0.57852 0.62227 0.66001 0.0
O948 O 0.57315 0.64692 0.69939 0.0
O949 O 0.5299 0.63462 0.65785 0.0
O950 O 0.53641 0.60983 0.62071 0.0
O951 O 0.55649 0.67165 0.59986 0.0
H952 H 0.54708 0.66298 0.73867 0.0
H953 H 0.57277 0.71376 0.64419 0.0
O954 O 0.5613 0.64475 0.56616 0.0
O955 O 0.60189 0.6577 0.60695 0.0
O956 O 0.59727 0.68361 0.64402 0.0
C957 C 0.61074 0.67861 0.62268 0.0
H958 H 0.59271 0.59712 0.50086 0.0
H959 H 0.54986 0.70367 0.76533 0.0
Co960 Co 0.40146 0.94304 0.61241 0.0
C961 C 0.37148 0.90383 0.56067 0.0
Co962 Co 0.3712 0.9128 0.64509 0.0
C963 C 0.44888 0.97985 0.59191 0.0
C964 C 0.42306 0.97654 0.5472 0.0
N965 N 0.42503 0.96824 0.58368 0.0
N966 N 0.46204 0.99442 0.56145 0.0
C967 C 0.44596 0.99253 0.53318 0.0
H968 H 0.45663 0.97575 0.61777 0.0
H969 H 0.40627 0.96991 0.53056 0.0
C970 C 0.40106 0.95541 0.69375 0.0
N971 N 0.3461 0.88664 0.67477 0.0
C972 C 0.32283 0.86969 0.665 0.0
C973 C 0.34837 0.88178 0.71369 0.0
N974 N 0.3106 0.85486 0.69658 0.0
C975 C 0.32678 0.86258 0.72709 0.0
C976 C 0.41553 0.91165 0.64435 0.0
O977 O 0.4118 0.96304 0.66009 0.0
O978 O 0.38336 0.93336 0.69531 0.0
O979 O 0.39319 0.8999 0.65504 0.0
O980 O 0.42302 0.9313 0.62476 0.0
O981 O 0.35962 0.89438 0.59342 0.0
H982 H 0.36474 0.89166 0.73146 0.0
H983 H 0.31485 0.86858 0.63561 0.0
O984 O 0.39119 0.924 0.56337 0.0
O985 O 0.3805 0.95449 0.60091 0.0
O986 O 0.3503 0.92577 0.63518 0.0
C987 C 0.3589 0.9449 0.61371 0.0
H988 H 0.45056 1.00045 0.50326 0.0
H989 H 0.32333 0.85467 0.75703 0.0
Co990 Co 0.12997 0.41639 0.28103 0.0
C991 C 0.14229 0.45715 0.32961 0.0
Co992 Co 0.1325 0.44663 0.2456 0.0
C993 C 0.13927 0.37955 0.30319 0.0
C994 C 0.11957 0.38569 0.34971 0.0
N995 N 0.12742 0.39149 0.31133 0.0
N996 N 0.14092 0.36797 0.33584 0.0
C997 C 0.12799 0.37121 0.36502 0.0
H998 H 0.14873 0.38151 0.27505 0.0
H999 H 0.11079 0.39369 0.36672 0.0
C1000 C 0.11752 0.40269 0.20022 0.0
N1001 N 0.13472 0.47253 0.21445 0.0
C1002 C 0.12905 0.48994 0.22374 0.0
C1003 C 0.14183 0.47686 0.17547 0.0
N1004 N 0.13206 0.50463 0.19187 0.0
C1005 C 0.14009 0.49634 0.16155 0.0
C1006 C 0.17617 0.44553 0.24762 0.0
O1007 O 0.11844 0.39514 0.23524 0.0
O1008 O 0.12401 0.42527 0.19645 0.0
O1009 O 0.16683 0.45833 0.2368 0.0
O1010 O 0.163 0.426 0.267 0.0
O1011 O 0.13967 0.46608 0.29645 0.0
H1012 H 0.14781 0.46642 0.15806 0.0
H1013 H 0.12231 0.49147 0.25299 0.0
O1014 O 0.14091 0.43658 0.32805 0.0
O1015 O 0.09789 0.40731 0.29463 0.0
O1016 O 0.09903 0.43517 0.25412 0.0
C1017 C 0.08752 0.41789 0.27888 0.0
H1018 H 0.12718 0.36609 0.39641 0.0
H1019 H 0.14464 0.50399 0.13146 0.0
Co1020 Co 0.61511 0.72256 0.28113 0.0
C1021 C 0.57453 0.69645 0.33012 0.0
Co1022 Co 0.583 0.69763 0.24454 0.0
C1023 C 0.6548 0.76706 0.30761 0.0
C1024 C 0.64951 0.73776 0.34599 0.0
N1025 N 0.64185 0.74281 0.31122 0.0
N1026 N 0.66929 0.77758 0.33971 0.0
C1027 C 0.66645 0.75924 0.36369 0.0
H1028 H 0.652 0.77701 0.2837 0.0
H1029 H 0.64164 0.71989 0.35946 0.0
C1030 C 0.6264 0.72406 0.19818 0.0
N1031 N 0.55485 0.67516 0.21472 0.0
C1032 C 0.54254 0.65037 0.21581 0.0
C1033 C 0.54202 0.68053 0.18839 0.0
N1034 N 0.52261 0.64026 0.19157 0.0
C1035 C 0.52231 0.65932 0.17443 0.0
C1036 C 0.5892 0.74476 0.25282 0.0
O1037 O 0.63484 0.73185 0.2333 0.0
O1038 O 0.60341 0.70919 0.19473 0.0
O1039 O 0.57491 0.72364 0.23829 0.0
O1040 O 0.60779 0.74799 0.2724 0.0
O1041 O 0.56431 0.68649 0.29641 0.0
H1042 H 0.54661 0.69875 0.17976 0.0
H1043 H 0.5478 0.63986 0.23462 0.0
O1044 O 0.59636 0.71363 0.32923 0.0
O1045 O 0.62179 0.69736 0.28998 0.0
O1046 O 0.59157 0.67305 0.25059 0.0
C1047 C 0.60908 0.67679 0.27349 0.0
H1048 H 0.67398 0.7613 0.39374 0.0
H1049 H 0.50897 0.65804 0.15275 0.0
Co1050 Co 0.3042 0.89535 0.27212 0.0
C1051 C 0.33461 0.88674 0.32313 0.0
Co1052 Co 0.33285 0.89357 0.23794 0.0
C1053 C 0.25758 0.88479 0.29144 0.0
C1054 C 0.28227 0.90629 0.33828 0.0
N1055 N 0.28118 0.89752 0.30078 0.0
N1056 N 0.24359 0.88359 0.32254 0.0
C1057 C 0.25894 0.89757 0.35193 0.0
H1058 H 0.2507 0.87423 0.26397 0.0
H1059 H 0.2987 0.91604 0.35599 0.0
C1060 C 0.30233 0.90554 0.19031 0.0
N1061 N 0.35701 0.89142 0.20799 0.0
C1062 C 0.38009 0.89729 0.2178 0.0
C1063 C 0.35403 0.88282 0.16991 0.0
N1064 N 0.39156 0.89287 0.18709 0.0
C1065 C 0.37505 0.88377 0.15704 0.0
C1066 C 0.28879 0.84848 0.2429 0.0
O1067 O 0.29287 0.90353 0.22475 0.0
O1068 O 0.31962 0.90067 0.18746 0.0
O1069 O 0.31076 0.85851 0.23065 0.0
O1070 O 0.28221 0.86138 0.26247 0.0
O1071 O 0.34557 0.88806 0.2898 0.0
H1072 H 0.33747 0.87604 0.15257 0.0
H1073 H 0.38839 0.90489 0.24671 0.0
O1074 O 0.31534 0.88796 0.32123 0.0
O1075 O 0.32528 0.92838 0.28048 0.0
O1076 O 0.35396 0.92772 0.2445 0.0
C1077 C 0.34617 0.93948 0.26455 0.0
H1078 H 0.25374 0.8989 0.38258 0.0
H1079 H 0.37779 0.87775 0.12791 0.0
H1080 H 0.23892 0.15266 1.02345 0.0
H1081 H 0.25855 0.15453 0.14861 0.0
H1082 H 0.25144 0.11312 0.14334 0.0
H1083 H 0.2405 0.07639 0.10321 0.0
H1084 H 0.22387 0.07481 0.97673 0.0
H1085 H 0.22925 0.11579 0.98215 0.0
C1086 C 0.24132 0.14385 0.04964 0.0
C1087 C 0.24889 0.1567 0.08668 0.0
C1088 C 0.23802 0.12005 0.04599 0.0
C1089 C 0.25254 0.14513 0.11993 0.0
C1090 C 0.24855 0.1214 0.11689 0.0
C1091 C 0.23794 0.08493 0.0768 0.0
C1092 C 0.23159 0.07225 0.0396 0.0
C1093 C 0.24144 0.10869 0.08007 0.0
C1094 C 0.22887 0.08401 1.00565 0.0
C1095 C 0.23181 0.10747 1.00885 0.0
H1096 H 0.95917 0.14069 0.04595 0.0
H1097 H 0.94172 0.19786 0.0388 0.0
H1098 H 0.89883 0.16845 0.05229 0.0
H1099 H 0.86625 0.12627 0.06763 0.0
H1100 H 0.88361 0.06881 0.0694 0.0
H1101 H 0.92636 0.09834 0.0568 0.0
C1102 C 0.94593 0.14667 0.04726 0.0
C1103 C 0.95368 0.1715 0.0416 0.0
C1104 C 0.92124 0.12954 0.05432 0.0
C1105 C 0.93624 0.17889 0.0428 0.0
C1106 C 0.91173 0.16206 0.05076 0.0
C1107 C 0.87942 0.12024 0.06534 0.0
C1108 C 0.87169 0.09531 0.06994 0.0
C1109 C 0.90401 0.13733 0.05687 0.0
C1110 C 0.88898 0.08782 0.06614 0.0
C1111 C 0.91348 0.10473 0.05892 0.0
H1112 H 0.85092 0.77712 0.09239 0.0
H1113 H 0.87024 0.80022 0.96907 0.0
H1114 H 0.90716 0.79722 0.97622 0.0
H1115 H 0.93463 0.78858 1.01869 0.0
H1116 H 0.91272 0.76259 0.14039 0.0
H1117 H 0.87663 0.76646 0.13303 0.0
C1118 C 0.86318 0.78147 0.06701 0.0
C1119 C 0.85779 0.78905 0.03025 0.0
C1120 C 0.8842 0.77943 0.07131 0.0
C1121 C 0.87377 0.7942 0.99756 0.0
C1122 C 0.89502 0.79266 1.00182 0.0
C1123 C 0.92206 0.78403 0.04367 0.0
C1124 C 0.92675 0.77572 0.08042 0.0
C1125 C 0.90061 0.7855 0.03873 0.0
C1126 C 0.90983 0.76926 0.11201 0.0
C1127 C 0.88906 0.77139 0.10776 0.0
H1128 H 0.07774 0.1995 0.51906 0.0
H1129 H 0.09875 0.27502 0.53013 0.0
H1130 H 0.14122 0.28681 0.5164 0.0
H1131 H 0.17244 0.27551 0.49974 0.0
H1132 H 0.15153 0.19973 0.49384 0.0
H1133 H 0.10922 0.18818 0.50698 0.0
C1134 C 0.09166 0.21854 0.51865 0.0
C1135 C 0.08499 0.23637 0.52547 0.0
C1136 C 0.11612 0.22512 0.51146 0.0
C1137 C 0.10334 0.26095 0.5253 0.0
C1138 C 0.12762 0.26767 0.51719 0.0
C1139 C 0.1586 0.25647 0.50119 0.0
C1140 C 0.16523 0.23851 0.49524 0.0
C1141 C 0.13425 0.24992 0.50992 0.0
C1142 C 0.14705 0.21393 0.49814 0.0
C1143 C 0.12279 0.20731 0.50565 0.0
H1144 H 0.75348 0.9006 0.48447 0.0
H1145 H 0.82855 0.95759 0.48689 0.0
H1146 H 0.84092 0.92786 0.5036 0.0
H1147 H 0.83062 0.88553 0.51728 0.0
H1148 H 0.75565 0.82878 0.51997 0.0
H1149 H 0.74302 0.85835 0.50215 0.0
C1150 C 0.77257 0.9065 0.48848 0.0
C1151 C 0.79009 0.93141 0.48386 0.0
C1152 C 0.77955 0.88928 0.49941 0.0
C1153 C 0.81467 0.93865 0.48998 0.0
C1154 C 0.82177 0.92161 0.49963 0.0
C1155 C 0.8115 0.87966 0.51414 0.0
C1156 C 0.79411 0.85486 0.51988 0.0
C1157 C 0.80441 0.89688 0.50445 0.0
C1158 C 0.76939 0.84768 0.51613 0.0
C1159 C 0.7622 0.86461 0.50563 0.0
H1160 H 0.08385 0.88016 0.49171 0.0
H1161 H 0.128 0.8464 0.4848 0.0
H1162 H 0.16427 0.88514 0.50008 0.0
H1163 H 0.18422 0.92943 0.51474 0.0
H1164 H 0.14061 0.9637 0.51798 0.0
H1165 H 0.10385 0.92451 0.50562 0.0
C1166 C 0.1014 0.88129 0.49351 0.0
C1167 C 0.10302 0.86022 0.48636 0.0
C1168 C 0.12251 0.90394 0.50213 0.0
C1169 C 0.12608 0.86225 0.48905 0.0
C1170 C 0.14693 0.88446 0.49824 0.0
C1171 C 0.16661 0.92818 0.51321 0.0
C1172 C 0.16519 0.94951 0.51771 0.0
C1173 C 0.14549 0.90553 0.50478 0.0
C1174 C 0.14223 0.94761 0.51478 0.0
C1175 C 0.12117 0.92516 0.5076 0.0
H1176 H 0.8306 0.95076 1.01099 0.0
H1177 H 0.75683 0.93576 1.02032 0.0
H1178 H 0.74182 0.89265 1.00601 0.0
H1179 H 0.74968 0.85915 0.98939 0.0
H1180 H 0.82352 0.8737 0.98511 0.0
H1181 H 0.83844 0.91681 0.99866 0.0
C1182 C 0.81124 0.93802 1.00995 0.0
C1183 C 0.79486 0.94659 1.01654 0.0
C1184 C 0.80275 0.91311 1.00242 0.0
C1185 C 0.76982 0.92972 1.01565 0.0
C1186 C 0.76125 0.90506 1.00723 0.0
C1187 C 0.76905 0.87176 0.99138 0.0
C1188 C 0.78545 0.8631 0.98578 0.0
C1189 C 0.77752 0.89653 1.0003 0.0
C1190 C 0.81047 0.87974 0.98916 0.0
C1191 C 0.81902 0.90445 0.9969 0.0
H1192 H 0.15701 0.93145 0.04059 0.0
H1193 H 0.16018 0.9119 0.91687 0.0
H1194 H 0.11844 0.87818 0.92127 0.0
H1195 H 0.08094 0.85352 0.96026 0.0
H1196 H 0.07814 0.87021 0.08556 0.0
H1197 H 0.11952 0.90525 0.08089 0.0
C1198 C 0.14843 0.91993 1.01454 0.0
C1199 C 0.16172 0.92453 0.97818 0.0
C1200 C 0.12443 0.89979 1.01772 0.0
C1201 C 0.15044 0.90898 0.94507 0.0
C1202 C 0.12652 0.8896 0.9476 0.0
C1203 C 0.08934 0.86487 0.98653 0.0
C1204 C 0.07624 0.85924 1.02318 0.0
C1205 C 0.11333 0.88472 0.98376 0.0
C1206 C 0.08773 0.87397 0.05708 0.0
C1207 C 0.11139 0.89413 0.0543 0.0
H1208 H 0.14298 0.19704 1.01809 0.0
H1209 H 0.20229 0.27082 1.02464 0.0
H1210 H 0.17449 0.28587 1.00846 0.0
H1211 H 0.13298 0.27802 0.99155 0.0
H1212 H 0.07341 0.2041 0.99016 0.0
H1213 H 0.10142 0.18927 1.00471 0.0
C1214 C 0.14984 0.21642 1.01596 0.0
C1215 C 0.17486 0.23274 1.02244 0.0
C1216 C 0.13359 0.22496 1.00728 0.0
C1217 C 0.18322 0.25782 1.02013 0.0
C1218 C 0.16729 0.26643 1.01061 0.0
C1219 C 0.12614 0.25865 0.99424 0.0
C1220 C 0.10098 0.24221 0.98923 0.0
C1221 C 0.1424 0.25019 1.0039 0.0
C1222 C 0.09255 0.21721 0.99363 0.0
C1223 C 0.10863 0.20869 1.00202 0.0
H1224 H 0.95633 0.82741 0.54723 0.0
H1225 H 0.94226 0.75371 0.54697 0.0
H1226 H 0.89922 0.73867 0.56108 0.0
H1227 H 0.86534 0.7465 0.57327 0.0
H1228 H 0.87904 0.82015 0.56871 0.0
H1229 H 0.9222 0.83514 0.55689 0.0
C1230 C 0.94381 0.80808 0.55034 0.0
C1231 C 0.95255 0.79171 0.54615 0.0
C1232 C 0.91894 0.79954 0.55762 0.0
C1233 C 0.93601 0.76666 0.54973 0.0
C1234 C 0.9114 0.75808 0.55798 0.0
C1235 C 0.87778 0.76584 0.56982 0.0
C1236 C 0.86886 0.78217 0.57218 0.0
C1237 C 0.90261 0.77434 0.56197 0.0
C1238 C 0.88529 0.80715 0.56709 0.0
C1239 C 0.91004 0.81575 0.56033 0.0
H1240 H 0.23887 0.08669 0.52383 0.0
H1241 H 0.2647 0.10636 0.6462 0.0
H1242 H 0.25885 0.14146 0.64263 0.0
H1243 H 0.24692 0.16713 0.60479 0.0
H1244 H 0.22396 0.14997 0.48087 0.0
H1245 H 0.22846 0.11381 0.48461 0.0
C1246 C 0.243 0.09857 0.54976 0.0
C1247 C 0.25194 0.09365 0.58546 0.0
C1248 C 0.24034 0.1194 0.54705 0.0
C1249 C 0.25772 0.10959 0.61846 0.0
C1250 C 0.25442 0.12974 0.61642 0.0
C1251 C 0.24283 0.15544 0.57862 0.0
C1252 C 0.23493 0.16122 0.54266 0.0
C1253 C 0.24584 0.13492 0.58088 0.0
C1254 C 0.23017 0.14606 0.50882 0.0
C1255 C 0.23262 0.12528 0.51108 0.0
H1256 H 0.90615 0.1672 0.57 0.0
H1257 H 0.96409 0.15064 0.57365 0.0
H1258 H 0.93523 0.10801 0.55834 0.0
H1259 H 0.89331 0.07499 0.54448 0.0
H1260 H 0.83571 0.09168 0.53551 0.0
H1261 H 0.86443 0.13443 0.55171 0.0
C1262 C 0.91244 0.15424 0.56754 0.0
C1263 C 0.93737 0.16223 0.5735 0.0
C1264 C 0.89573 0.12968 0.55748 0.0
C1265 C 0.94514 0.14515 0.56942 0.0
C1266 C 0.92858 0.12068 0.56063 0.0
C1267 C 0.88705 0.088 0.54599 0.0
C1268 C 0.86225 0.07999 0.53897 0.0
C1269 C 0.90382 0.11268 0.55466 0.0
C1270 C 0.85462 0.09727 0.54049 0.0
C1271 C 0.87107 0.12173 0.55002 0.0
H1272 H 0.9459 0.49646 0.406 0.0
H1273 H 0.87106 0.47894 0.40615 0.0
H1274 H 0.85791 0.43629 0.39268 0.0
H1275 H 0.86741 0.40359 0.38043 0.0
H1276 H 0.94205 0.42106 0.37496 0.0
H1277 H 0.95549 0.46377 0.39041 0.0
C1278 C 0.92671 0.48328 0.40324 0.0
C1279 C 0.9095 0.49105 0.40749 0.0
C1280 C 0.91921 0.45865 0.3942 0.0
C1281 C 0.88474 0.47365 0.40314 0.0
C1282 C 0.87718 0.44916 0.39539 0.0
C1283 C 0.88662 0.41675 0.38261 0.0
C1284 C 0.90367 0.40897 0.37666 0.0
C1285 C 0.8942 0.44141 0.39076 0.0
C1286 C 0.92852 0.42646 0.37906 0.0
C1287 C 0.9362 0.45091 0.38814 0.0
H1288 H 0.61469 0.50622 0.42752 0.0
H1289 H 0.61768 0.48797 0.30312 0.0
H1290 H 0.57715 0.45179 0.30938 0.0
H1291 H 0.54033 0.42503 0.35082 0.0
H1292 H 0.53699 0.4459 0.47361 0.0
H1293 H 0.57795 0.48082 0.46766 0.0
C1294 C 0.60654 0.4943 0.40177 0.0
C1295 C 0.61945 0.49986 0.36492 0.0
C1296 C 0.58305 0.47372 0.40549 0.0
C1297 C 0.60824 0.48432 0.33174 0.0
C1298 C 0.58506 0.4635 0.33543 0.0
C1299 C 0.54874 0.43709 0.37636 0.0
C1300 C 0.53562 0.43251 0.41292 0.0
C1301 C 0.57225 0.45789 0.37225 0.0
C1302 C 0.54662 0.44876 0.44531 0.0
C1303 C 0.57009 0.46885 0.44188 0.0
H1304 H 0.52408 0.11506 0.43366 0.0
H1305 H 0.54214 0.13811 0.31003 0.0
H1306 H 0.57838 0.13384 0.31499 0.0
H1307 H 0.60541 0.12369 0.35531 0.0
H1308 H 0.58471 0.09758 0.47724 0.0
H1309 H 0.54951 0.10317 0.47241 0.0
C1310 C 0.53596 0.11919 0.40779 0.0
C1311 C 0.5304 0.12708 0.37156 0.0
C1312 C 0.55654 0.1163 0.41076 0.0
C1313 C 0.54584 0.1319 0.33816 0.0
C1314 C 0.56668 0.12959 0.34114 0.0
C1315 C 0.59328 0.11945 0.38088 0.0
C1316 C 0.59798 0.11053 0.41688 0.0
C1317 C 0.57235 0.12192 0.37739 0.0
C1318 C 0.5817 0.10459 0.44933 0.0
C1319 C 0.56148 0.10774 0.44656 0.0
H1320 H 0.82521 0.56563 0.86879 0.0
H1321 H 0.83188 0.59263 0.74721 0.0
H1322 H 0.7907 0.58608 0.7504 0.0
H1323 H 0.7527 0.57319 0.78767 0.0
H1324 H 0.74632 0.54907 0.91091 0.0
H1325 H 0.78722 0.55421 0.90748 0.0
C1326 C 0.8175 0.56981 0.84291 0.0
C1327 C 0.83161 0.5793 0.80753 0.0
C1328 C 0.79383 0.56673 0.84542 0.0
C1329 C 0.82149 0.58518 0.77467 0.0
C1330 C 0.79789 0.58148 0.77649 0.0
C1331 C 0.76022 0.56898 0.81377 0.0
C1332 C 0.74628 0.56057 0.84944 0.0
C1333 C 0.7839 0.57237 0.8117 0.0
C1334 C 0.7566 0.55568 0.88318 0.0
C1335 C 0.77998 0.55849 0.8811 0.0
H1336 H 0.49704 0.21657 0.84719 0.0
H1337 H 0.42344 0.15674 0.84875 0.0
H1338 H 0.40841 0.18449 0.83222 0.0
H1339 H 0.41621 0.22597 0.81683 0.0
H1340 H 0.48973 0.2862 0.82003 0.0
H1341 H 0.5047 0.25829 0.83495 0.0
C1342 C 0.47771 0.20963 0.84392 0.0
C1343 C 0.4614 0.1845 0.84911 0.0
C1344 C 0.46917 0.22585 0.83514 0.0
C1345 C 0.43638 0.17592 0.84527 0.0
C1346 C 0.42779 0.19182 0.8356 0.0
C1347 C 0.43553 0.23301 0.82067 0.0
C1348 C 0.45182 0.25827 0.8169 0.0
C1349 C 0.44401 0.21684 0.83035 0.0
C1350 C 0.47675 0.26696 0.82262 0.0
C1351 C 0.48534 0.25096 0.83118 0.0
H1352 H 0.7974 0.19492 0.82401 0.0
H1353 H 0.73939 0.21139 0.82158 0.0
H1354 H 0.76838 0.2542 0.83514 0.0
H1355 H 0.81039 0.28737 0.84751 0.0
H1356 H 0.86816 0.27089 0.85543 0.0
H1357 H 0.83935 0.22798 0.84049 0.0
C1358 C 0.79113 0.20791 0.82635 0.0
C1359 C 0.76614 0.19983 0.82133 0.0
C1360 C 0.80795 0.2326 0.83542 0.0
C1361 C 0.7584 0.21696 0.82518 0.0
C1362 C 0.77503 0.24152 0.83295 0.0
C1363 C 0.81666 0.27437 0.84599 0.0
C1364 C 0.84152 0.28247 0.85238 0.0
C1365 C 0.79985 0.2496 0.83812 0.0
C1366 C 0.8492 0.26522 0.8509 0.0
C1367 C 0.8327 0.24067 0.84211 0.0
H1368 H 0.41899 0.19388 0.32307 0.0
H1369 H 0.49323 0.20953 0.32533 0.0
H1370 H 0.5072 0.25236 0.33908 0.0
H1371 H 0.49864 0.28586 0.35031 0.0
H1372 H 0.42449 0.27015 0.35325 0.0
H1373 H 0.41028 0.22724 0.33822 0.0
C1374 C 0.43824 0.20667 0.32648 0.0
C1375 C 0.45501 0.19829 0.32271 0.0
C1376 C 0.44621 0.23143 0.33561 0.0
C1377 C 0.47985 0.21525 0.32793 0.0
C1378 C 0.48789 0.23985 0.33581 0.0
C1379 C 0.47936 0.27305 0.34769 0.0
C1380 C 0.46269 0.28145 0.35277 0.0
C1381 C 0.47129 0.24822 0.33971 0.0
C1382 C 0.43774 0.26434 0.34981 0.0
C1383 C 0.42962 0.23976 0.34095 0.0
H1384 H 0.76208 0.1773 0.34627 0.0
H1385 H 0.73198 0.22422 0.36044 0.0
H1386 H 0.77206 0.26005 0.34922 0.0
H1387 H 0.81596 0.27831 0.33301 0.0
H1388 H 0.84508 0.23073 0.31337 0.0
H1389 H 0.80572 0.19545 0.32879 0.0
C1390 C 0.76444 0.19541 0.34737 0.0
C1391 C 0.74406 0.19806 0.35465 0.0
C1392 C 0.78754 0.216 0.33946 0.0
C1393 C 0.74735 0.22168 0.35509 0.0
C1394 C 0.7703 0.24219 0.34857 0.0
C1395 C 0.8137 0.26024 0.33217 0.0
C1396 C 0.83373 0.25744 0.32191 0.0
C1397 C 0.79059 0.23965 0.3403 0.0
C1398 C 0.83018 0.23368 0.32083 0.0
C1399 C 0.80757 0.21334 0.32982 0.0
H1400 H 0.75917 0.56667 0.36687 0.0
H1401 H 0.7811 0.59221 0.24495 0.0
H1402 H 0.8157 0.58583 0.25102 0.0
H1403 H 0.84028 0.57329 0.29068 0.0
H1404 H 0.82118 0.55078 0.41428 0.0
H1405 H 0.78546 0.55589 0.4082 0.0
C1406 C 0.77141 0.57059 0.34157 0.0
C1407 C 0.76718 0.57958 0.3052 0.0
C1408 C 0.79204 0.56761 0.34572 0.0
C1409 C 0.78367 0.58512 0.27313 0.0
C1410 C 0.80358 0.58152 0.2766 0.0
C1411 C 0.82829 0.56945 0.3163 0.0
C1412 C 0.83341 0.56145 0.35284 0.0
C1413 C 0.80803 0.57284 0.3127 0.0
C1414 C 0.81782 0.55704 0.3859 0.0
C1415 C 0.79727 0.55984 0.38229 0.0
H1416 H 0.61374 0.11489 0.93384 0.0
H1417 H 0.61879 0.13937 0.81111 0.0
H1418 H 0.57789 0.13413 0.81619 0.0
H1419 H 0.54031 0.12259 0.85625 0.0
H1420 H 0.53483 0.09501 0.97711 0.0
H1421 H 0.57603 0.10168 0.97232 0.0
C1422 C 0.60592 0.11913 0.90821 0.0
C1423 C 0.6195 0.12771 0.87219 0.0
C1424 C 0.58222 0.11566 0.9112 0.0
C1425 C 0.60879 0.13266 0.83907 0.0
C1426 C 0.58541 0.12978 0.84211 0.0
C1427 C 0.54827 0.11829 0.88162 0.0
C1428 C 0.5345 0.10864 0.91731 0.0
C1429 C 0.57192 0.12139 0.87813 0.0
C1430 C 0.54496 0.1026 0.94947 0.0
C1431 C 0.56857 0.10636 0.94671 0.0
H1432 H 0.90906 0.50466 0.93427 0.0
H1433 H 0.88874 0.4879 0.80926 0.0
H1434 H 0.8938 0.4521 0.81402 0.0
H1435 H 0.90429 0.42526 0.85431 0.0
H1436 H 0.92776 0.44485 0.97775 0.0
H1437 H 0.92097 0.4793 0.97324 0.0
C1438 C 0.90564 0.49313 0.90807 0.0
C1439 C 0.89833 0.49898 0.87148 0.0
C1440 C 0.90902 0.47281 0.91091 0.0
C1441 C 0.89447 0.48399 0.8377 0.0
C1442 C 0.89724 0.46339 0.84054 0.0
C1443 C 0.90761 0.43692 0.8803 0.0
C1444 C 0.91616 0.4321 0.91662 0.0
C1445 C 0.90445 0.45749 0.87706 0.0
C1446 C 0.92098 0.44787 0.9496 0.0
C1447 C 0.91716 0.4677 0.94702 0.0
H1448 H 0.56818 0.49408 0.89161 0.0
H1449 H 0.62504 0.47594 0.89381 0.0
H1450 H 0.59541 0.43351 0.87848 0.0
H1451 H 0.55309 0.40108 0.86565 0.0
H1452 H 0.4965 0.41928 0.85818 0.0
H1453 H 0.52607 0.46195 0.87366 0.0
C1454 C 0.57407 0.48082 0.88879 0.0
C1455 C 0.59891 0.48828 0.89441 0.0
C1456 C 0.55692 0.45639 0.8787 0.0
C1457 C 0.60617 0.47084 0.88985 0.0
C1458 C 0.58918 0.4465 0.88105 0.0
C1459 C 0.54726 0.41443 0.86719 0.0
C1460 C 0.52249 0.40688 0.86092 0.0
C1461 C 0.56449 0.43901 0.87554 0.0
C1462 C 0.51538 0.42454 0.86255 0.0
C1463 C 0.53231 0.44894 0.87171 0.0
H1464 H 0.57322 0.82149 0.6912 0.0
H1465 H 0.60309 0.82784 0.8105 0.0
H1466 H 0.59566 0.78628 0.80607 0.0
H1467 H 0.5811 0.74797 0.76822 0.0
H1468 H 0.55441 0.74222 0.64681 0.0
H1469 H 0.56036 0.78343 0.65178 0.0
C1470 C 0.57789 0.81366 0.71632 0.0
C1471 C 0.58841 0.82779 0.75144 0.0
C1472 C 0.57432 0.78981 0.713 0.0
C1473 C 0.59486 0.81746 0.78327 0.0
C1474 C 0.59064 0.79364 0.78072 0.0
C1475 C 0.57653 0.75571 0.74287 0.0
C1476 C 0.56713 0.74184 0.70724 0.0
C1477 C 0.58046 0.77963 0.74574 0.0
C1478 C 0.56175 0.75244 0.67447 0.0
C1479 C 0.56504 0.776 0.67744 0.0
H1480 H 0.20709 0.7593 0.68655 0.0
H1481 H 0.20136 0.78452 0.80486 0.0
H1482 H 0.24211 0.81961 0.7982 0.0
H1483 H 0.27969 0.84344 0.75923 0.0
H1484 H 0.28526 0.82084 0.63898 0.0
H1485 H 0.24448 0.78493 0.64546 0.0
C1486 C 0.21487 0.77241 0.71092 0.0
C1487 C 0.20116 0.76898 0.74648 0.0
C1488 C 0.23831 0.79325 0.70634 0.0
C1489 C 0.21141 0.78652 0.77732 0.0
C1490 C 0.23478 0.80669 0.77351 0.0
C1491 C 0.27197 0.83068 0.73439 0.0
C1492 C 0.28568 0.83483 0.69872 0.0
C1493 C 0.24841 0.81029 0.73822 0.0
C1494 C 0.27514 0.81823 0.66663 0.0
C1495 C 0.25185 0.79758 0.6705 0.0
H1496 H 0.22495 0.49431 0.71369 0.0
H1497 H 0.16564 0.42051 0.70829 0.0
H1498 H 0.19366 0.4055 0.72302 0.0
H1499 H 0.2354 0.41343 0.73846 0.0
H1500 H 0.29488 0.4874 0.73839 0.0
H1501 H 0.26668 0.50214 0.72517 0.0
C1502 C 0.21815 0.47494 0.71573 0.0
C1503 C 0.19308 0.45859 0.71006 0.0
C1504 C 0.23452 0.46643 0.72346 0.0
C1505 C 0.18476 0.43352 0.71224 0.0
C1506 C 0.20082 0.42494 0.7209 0.0
C1507 C 0.24217 0.43278 0.73565 0.0
C1508 C 0.26737 0.44926 0.73985 0.0
C1509 C 0.22578 0.44121 0.72679 0.0
C1510 C 0.27572 0.47425 0.73542 0.0
C1511 C 0.25953 0.48273 0.72784 0.0
H1512 H 0.42068 0.90467 0.12182 0.0
H1513 H 0.41786 0.88952 0.24915 0.0
H1514 H 0.45841 0.89383 0.2455 0.0
H1515 H 0.49523 0.90233 0.2055 0.0
H1516 H 0.4979 0.91975 0.07903 0.0
H1517 H 0.45691 0.91363 0.0827 0.0
C1518 C 0.42882 0.90213 0.14878 0.0
C1519 C 0.41603 0.8966 0.18568 0.0
C1520 C 0.45217 0.90482 0.14645 0.0
C1521 C 0.42725 0.89393 0.22042 0.0
C1522 C 0.45041 0.89623 0.21824 0.0
C1523 C 0.48661 0.90436 0.1787 0.0
C1524 C 0.49952 0.91109 0.14181 0.0
C1525 C 0.46309 0.90161 0.18134 0.0
C1526 C 0.48834 0.91434 0.10763 0.0
C1527 C 0.4649 0.91096 0.10975 0.0
H1528 H 0.12497 0.60027 0.20352 0.0
H1529 H 0.09415 0.57601 0.08488 0.0
H1530 H 0.09987 0.54088 0.09047 0.0
H1531 H 0.1133 0.51665 0.12903 0.0
H1532 H 0.14126 0.53853 0.24962 0.0
H1533 H 0.13665 0.57455 0.2438 0.0
C1534 C 0.11969 0.58735 0.17885 0.0
C1535 C 0.10942 0.59097 0.14357 0.0
C1536 C 0.12227 0.56656 0.18284 0.0
C1537 C 0.10217 0.57375 0.11224 0.0
C1538 C 0.10539 0.5536 0.11545 0.0
C1539 C 0.1184 0.52933 0.15402 0.0
C1540 C 0.12778 0.52497 0.18963 0.0
C1541 C 0.11535 0.54975 0.1506 0.0
C1542 C 0.13389 0.54136 0.22201 0.0
C1543 C 0.13139 0.56205 0.21854 0.0
H1544 H 0.4741 0.61919 0.17936 0.0
H1545 H 0.53228 0.60328 0.18713 0.0
H1546 H 0.50384 0.56044 0.17129 0.0
H1547 H 0.46203 0.52716 0.15453 0.0
H1548 H 0.4036 0.54302 0.15211 0.0
H1549 H 0.43228 0.58584 0.16608 0.0
C1550 C 0.48057 0.60635 0.17755 0.0
C1551 C 0.50545 0.61462 0.18429 0.0
C1552 C 0.46394 0.58158 0.16913 0.0
C1553 C 0.51332 0.59752 0.1824 0.0
C1554 C 0.49702 0.57299 0.17309 0.0
C1555 C 0.4556 0.54002 0.15687 0.0
C1556 C 0.43056 0.53174 0.15179 0.0
C1557 C 0.47225 0.56475 0.16622 0.0
C1558 C 0.42264 0.54872 0.15571 0.0
C1559 C 0.4391 0.57331 0.16375 0.0
H1560 H 0.12443 0.61352 0.6323 0.0
H1561 H 0.14664 0.61763 0.75626 0.0
H1562 H 0.14125 0.5766 0.75116 0.0
H1563 H 0.13021 0.53908 0.71063 0.0
H1564 H 0.10473 0.53467 0.58845 0.0
H1565 H 0.11157 0.57594 0.59345 0.0
C1566 C 0.12814 0.60546 0.65821 0.0
C1567 C 0.13614 0.61885 0.69457 0.0
C1568 C 0.12454 0.58167 0.65519 0.0
C1569 C 0.14039 0.60782 0.72801 0.0
C1570 C 0.13743 0.58435 0.72496 0.0
C1571 C 0.12641 0.54729 0.68504 0.0
C1572 C 0.1173 0.53375 0.6489 0.0
C1573 C 0.12961 0.57105 0.68859 0.0
C1574 C 0.11191 0.54458 0.61645 0.0
C1575 C 0.11578 0.56825 0.61931 0.0
H1576 H 0.49189 0.59892 0.70872 0.0
H1577 H 0.49435 0.58297 0.5827 0.0
H1578 H 0.45336 0.54805 0.58692 0.0
H1579 H 0.41703 0.52118 0.62631 0.0
H1580 H 0.41451 0.53454 0.75333 0.0
H1581 H 0.4551 0.5708 0.74915 0.0
C1582 C 0.48326 0.58796 0.68216 0.0
C1583 C 0.49612 0.59384 0.64523 0.0
C1584 C 0.4597 0.56716 0.68512 0.0
C1585 C 0.48487 0.57903 0.61136 0.0
C1586 C 0.46141 0.55895 0.61377 0.0
C1587 C 0.42526 0.53208 0.65308 0.0
C1588 C 0.41254 0.52513 0.69005 0.0
C1589 C 0.4487 0.55271 0.65048 0.0
C1590 C 0.42385 0.5393 0.72455 0.0
C1591 C 0.44705 0.56017 0.72207 0.0
H1592 H 0.47751 0.86065 0.68591 0.0
H1593 H 0.53574 0.93509 0.6831 0.0
H1594 H 0.50672 0.9486 0.66744 0.0
H1595 H 0.46478 0.93927 0.65298 0.0
H1596 H 0.40594 0.86519 0.66051 0.0
H1597 H 0.43498 0.85156 0.67576 0.0
C1598 C 0.48382 0.87983 0.68193 0.0
C1599 C 0.50893 0.89683 0.68552 0.0
C1600 C 0.46684 0.88752 0.67363 0.0
C1601 C 0.51665 0.92164 0.68081 0.0
C1602 C 0.50001 0.92935 0.67163 0.0
C1603 C 0.45826 0.92011 0.65795 0.0
C1604 C 0.43308 0.90326 0.65512 0.0
C1605 C 0.47507 0.91247 0.6677 0.0
C1606 C 0.42509 0.87858 0.66236 0.0
C1607 C 0.44176 0.87077 0.67104 0.0
H1608 H 0.1963 0.41656 0.23675 0.0
H1609 H 0.21419 0.49157 0.23561 0.0
H1610 H 0.25669 0.50434 0.22129 0.0
H1611 H 0.2892 0.49433 0.21015 0.0
H1612 H 0.27096 0.41934 0.20615 0.0
H1613 H 0.22838 0.40641 0.22113 0.0
C1614 C 0.20951 0.43571 0.23344 0.0
C1615 C 0.20198 0.4531 0.23775 0.0
C1616 C 0.23393 0.44292 0.22412 0.0
C1617 C 0.21936 0.47779 0.23257 0.0
C1618 C 0.24373 0.48512 0.22441 0.0
C1619 C 0.27586 0.47516 0.21243 0.0
C1620 C 0.28334 0.45781 0.20722 0.0
C1621 C 0.25128 0.46788 0.22026 0.0
C1622 C 0.26572 0.43303 0.20974 0.0
C1623 C 0.24138 0.42566 0.21853 0.0
H1624 H 0.57068 0.75798 0.18763 0.0
H1625 H 0.5983 0.77931 0.30878 0.0
H1626 H 0.59338 0.81489 0.30399 0.0
H1627 H 0.5816 0.84054 0.26567 0.0
H1628 H 0.55699 0.82197 0.14276 0.0
H1629 H 0.5606 0.78529 0.14761 0.0
C1630 C 0.57537 0.77031 0.21306 0.0
C1631 C 0.58453 0.76561 0.24883 0.0
C1632 C 0.57324 0.7915 0.20963 0.0
C1633 C 0.59106 0.78222 0.28105 0.0
C1634 C 0.5883 0.80269 0.27831 0.0
C1635 C 0.57697 0.82846 0.23992 0.0
C1636 C 0.56885 0.83405 0.20394 0.0
C1637 C 0.57948 0.80761 0.24279 0.0
C1638 C 0.56339 0.81829 0.17072 0.0
C1639 C 0.56532 0.79719 0.17362 0.0
H1640 H 0.23966 0.82791 0.23342 0.0
H1641 H 0.29687 0.81037 0.2298 0.0
H1642 H 0.26695 0.76772 0.21559 0.0
H1643 H 0.22414 0.73498 0.205 0.0
H1644 H 0.16743 0.75324 0.20433 0.0
H1645 H 0.1973 0.79576 0.21931 0.0
C1646 C 0.24559 0.81473 0.22981 0.0
C1647 C 0.2706 0.82244 0.23337 0.0
C1648 C 0.22826 0.79026 0.22067 0.0
C1649 C 0.27787 0.8051 0.22746 0.0
C1650 C 0.2607 0.78063 0.21934 0.0
C1651 C 0.21833 0.74829 0.20807 0.0
C1652 C 0.19339 0.74075 0.20364 0.0
C1653 C 0.2358 0.77293 0.216 0.0
C1654 C 0.18637 0.75842 0.20721 0.0
C1655 C 0.20349 0.78277 0.21601 0.0
H1656 H 0.3321 0.20533 0.23247 0.0
H1657 H 0.36882 0.22185 0.11779 0.0
H1658 H 0.37692 0.18822 0.12649 0.0
H1659 H 0.37234 0.15368 0.16629 0.0
H1660 H 0.33542 0.13702 0.28084 0.0
H1661 H 0.32768 0.1709 0.27245 0.0
C1662 C 0.3425 0.20191 0.21011 0.0
C1663 C 0.35046 0.21611 0.17506 0.0
C1664 C 0.34613 0.18215 0.21471 0.0
C1665 C 0.36312 0.21123 0.14532 0.0
C1666 C 0.36736 0.1919 0.15004 0.0
C1667 C 0.36201 0.15715 0.18873 0.0
C1668 C 0.35385 0.14279 0.22361 0.0
C1669 C 0.3585 0.17699 0.18425 0.0
C1670 C 0.34129 0.14775 0.25344 0.0
C1671 C 0.33724 0.16722 0.24889 0.0
H1672 H 0.82837 0.13473 0.22785 0.0
H1673 H 0.81507 0.15416 0.1099 0.0
H1674 H 0.84867 0.19588 0.11913 0.0
H1675 H 0.8816 0.22638 0.16103 0.0
H1676 H 0.89485 0.20704 0.27911 0.0
H1677 H 0.86166 0.16516 0.26948 0.0
C1678 C 0.83251 0.14833 0.20472 0.0
C1679 C 0.81914 0.14182 0.16865 0.0
C1680 C 0.85214 0.17184 0.20986 0.0
C1681 C 0.82504 0.15918 0.13812 0.0
C1682 C 0.84432 0.18279 0.14322 0.0
C1683 C 0.87762 0.21277 0.18407 0.0
C1684 C 0.89075 0.21939 0.22038 0.0
C1685 C 0.85816 0.18919 0.17877 0.0
C1686 C 0.88505 0.20196 0.25073 0.0
C1687 C 0.86597 0.17826 0.24541 0.0
H1688 H 0.80796 0.64235 0.22905 0.0
H1689 H 0.81172 0.70407 0.16797 0.0
H1690 H 0.85369 0.71757 0.14767 0.0
H1691 H 0.8888 0.71194 0.14897 0.0
H1692 H 0.88517 0.65024 0.20994 0.0
H1693 H 0.84308 0.63654 0.22989 0.0
C1694 C 0.81811 0.65901 0.21196 0.0
C1695 C 0.80714 0.67258 0.20055 0.0
C1696 C 0.84187 0.66641 0.20048 0.0
C1697 C 0.82007 0.69359 0.17715 0.0
C1698 C 0.8439 0.70121 0.16564 0.0
C1699 C 0.87867 0.69519 0.16584 0.0
C1700 C 0.88973 0.68173 0.17741 0.0
C1701 C 0.85487 0.6877 0.17714 0.0
C1702 C 0.87676 0.66064 0.20062 0.0
C1703 C 0.85287 0.65291 0.21195 0.0
H1704 H 0.13981 0.33646 0.39009 0.0
H1705 H 0.18426 0.38662 0.29693 0.0
H1706 H 0.21695 0.37885 0.31209 0.0
H1707 H 0.2334 0.35839 0.35276 0.0
H1708 H 0.18872 0.30819 0.44579 0.0
H1709 H 0.15645 0.31655 0.43136 0.0
C1710 C 0.15666 0.34562 0.37318 0.0
C1711 C 0.15936 0.36172 0.34224 0.0
C1712 C 0.17572 0.34167 0.38276 0.0
C1713 C 0.18127 0.37352 0.32025 0.0
C1714 C 0.20024 0.36943 0.32929 0.0
C1715 C 0.21664 0.34942 0.36991 0.0
C1716 C 0.21373 0.33296 0.40037 0.0
C1717 C 0.1977 0.35366 0.36065 0.0
C1718 C 0.19193 0.32149 0.42274 0.0
C1719 C 0.17315 0.3259 0.41411 0.0
H1720 H 0.64817 0.8042 0.32641 0.0
H1721 H 0.71008 0.80556 0.38233 0.0
H1722 H 0.72461 0.8473 0.40565 0.0
H1723 H 0.71995 0.88311 0.40783 0.0
H1724 H 0.65805 0.88168 0.35161 0.0
H1725 H 0.64316 0.83972 0.32954 0.0
C1726 C 0.66511 0.81378 0.34299 0.0
C1727 C 0.67845 0.80222 0.35201 0.0
C1728 C 0.6731 0.83741 0.35616 0.0
C1729 C 0.69979 0.81439 0.3749 0.0
C1730 C 0.70799 0.83809 0.38815 0.0
C1731 C 0.70293 0.87348 0.39151 0.0
C1732 C 0.68985 0.88521 0.38168 0.0
C1733 C 0.69475 0.8497 0.37886 0.0
C1734 C 0.66827 0.87283 0.35941 0.0
C1735 C 0.65985 0.84898 0.34687 0.0
H1736 H 0.20953 0.88622 0.36472 0.0
H1737 H 0.22387 0.83752 0.29483 0.0
H1738 H 0.18378 0.80371 0.31022 0.0
H1739 H 0.14519 0.78747 0.34697 0.0
H1740 H 0.13088 0.83653 0.41575 0.0
H1741 H 0.17045 0.87048 0.39868 0.0
C1742 C 0.20365 0.86821 0.35278 0.0
C1743 C 0.21928 0.86437 0.32847 0.0
C1744 C 0.18083 0.84878 0.36241 0.0
C1745 C 0.21178 0.84103 0.31285 0.0
C1746 C 0.18901 0.82159 0.32206 0.0
C1747 C 0.15098 0.80561 0.35817 0.0
C1748 C 0.13583 0.8094 0.38385 0.0
C1749 C 0.17352 0.8252 0.34731 0.0
C1750 C 0.14293 0.83302 0.39764 0.0
C1751 C 0.16534 0.85252 0.38733 0.0
H1752 H 0.70527 0.82504 0.83691 0.0
H1753 H 0.66517 0.81025 0.948 0.0
H1754 H 0.66152 0.8466 0.93837 0.0
H1755 H 0.66923 0.88178 0.89714 0.0
H1756 H 0.70884 0.89616 0.78558 0.0
H1757 H 0.71431 0.86107 0.79703 0.0
C1758 C 0.69523 0.82957 0.85832 0.0
C1759 C 0.68475 0.8149 0.89235 0.0
C1760 C 0.69402 0.8507 0.85316 0.0
C1761 C 0.67267 0.82119 0.92108 0.0
C1762 C 0.67097 0.84203 0.91587 0.0
C1763 C 0.6798 0.87764 0.87624 0.0
C1764 C 0.68914 0.89154 0.84107 0.0
C1765 C 0.68176 0.85697 0.88217 0.0
C1766 C 0.70207 0.88578 0.8132 0.0
C1767 C 0.70476 0.86559 0.81941 0.0
H1768 H 0.15425 0.79802 0.89461 0.0
H1769 H 0.13406 0.81988 0.78512 0.0
H1770 H 0.16835 0.86141 0.79319 0.0
H1771 H 0.20456 0.89075 0.83086 0.0
H1772 H 0.22482 0.86874 0.94013 0.0
H1773 H 0.19028 0.82734 0.9324 0.0
C1774 C 0.15703 0.81217 0.87335 0.0
C1775 C 0.14156 0.80645 0.83996 0.0
C1776 C 0.17716 0.83542 0.87743 0.0
C1777 C 0.14563 0.82439 0.81149 0.0
C1778 C 0.16534 0.84785 0.81579 0.0
C1779 C 0.20168 0.87661 0.8522 0.0
C1780 C 0.21729 0.88223 0.88538 0.0
C1781 C 0.18146 0.85338 0.84822 0.0
C1782 C 0.21313 0.8643 0.91394 0.0
C1783 C 0.1933 0.84092 0.90982 0.0
H1784 H 0.13908 0.32711 0.83712 0.0
H1785 H 0.16169 0.36449 0.95117 0.0
H1786 H 0.20289 0.37141 0.94081 0.0
H1787 H 0.23175 0.36607 0.89931 0.0
H1788 H 0.20908 0.32862 0.78529 0.0
H1789 H 0.16783 0.32145 0.79591 0.0
C1790 C 0.15331 0.33738 0.85898 0.0
C1791 C 0.14795 0.34594 0.89426 0.0
C1792 C 0.17634 0.34033 0.85345 0.0
C1793 C 0.16597 0.35838 0.92342 0.0
C1794 C 0.18921 0.36193 0.91777 0.0
C1795 C 0.2175 0.3557 0.87753 0.0
C1796 C 0.2229 0.34731 0.84208 0.0
C1797 C 0.19441 0.3526 0.88321 0.0
C1798 C 0.2048 0.33467 0.81311 0.0
C1799 C 0.18152 0.33098 0.81891 0.0
H1800 H 0.84672 0.7093 0.6377 0.0
H1801 H 0.78632 0.64356 0.68524 0.0
H1802 H 0.8144 0.6307 0.71017 0.0
H1803 H 0.85587 0.63929 0.7206 0.0
H1804 H 0.91634 0.7054 0.67459 0.0
H1805 H 0.88811 0.71702 0.64547 0.0
C1806 C 0.83959 0.69186 0.65257 0.0
C1807 C 0.81449 0.6772 0.65945 0.0
C1808 C 0.85576 0.68493 0.6672 0.0
C1809 C 0.8056 0.65501 0.67977 0.0
C1810 C 0.82159 0.64775 0.694 0.0
C1811 C 0.86289 0.65643 0.70474 0.0
C1812 C 0.88807 0.6719 0.7005 0.0
C1813 C 0.84669 0.66283 0.68851 0.0
C1814 C 0.89698 0.69351 0.67845 0.0
C1815 C 0.8809 0.70005 0.66192 0.0
H1816 H 0.30862 0.12376 0.67503 0.0
H1817 H 0.37552 0.13132 0.72064 0.0
H1818 H 0.38664 0.17146 0.74856 0.0
H1819 H 0.37863 0.20514 0.75364 0.0
H1820 H 0.31238 0.198 0.70521 0.0
H1821 H 0.29946 0.15634 0.6838 0.0
C1822 C 0.32578 0.13435 0.69066 0.0
C1823 C 0.34173 0.12525 0.69487 0.0
C1824 C 0.33194 0.15712 0.70588 0.0
C1825 C 0.36334 0.13843 0.71669 0.0
C1826 C 0.36958 0.16119 0.73251 0.0
C1827 C 0.36106 0.19427 0.73941 0.0
C1828 C 0.3463 0.20441 0.73107 0.0
C1829 C 0.35418 0.17082 0.72654 0.0
C1830 C 0.3239 0.19039 0.7117 0.0
C1831 C 0.31662 0.16675 0.69948 0.0
H1832 H 0.8964 0.20497 0.73138 0.0
H1833 H 0.87852 0.2218 0.61488 0.0
H1834 H 0.83638 0.18875 0.62233 0.0
H1835 H 0.80516 0.15505 0.66216 0.0
H1836 H 0.82312 0.13827 0.77864 0.0
H1837 H 0.86531 0.17111 0.77092 0.0
C1838 C 0.88304 0.20172 0.70822 0.0
C1839 C 0.89006 0.21589 0.67309 0.0
C1840 C 0.85934 0.18237 0.71226 0.0
C1841 C 0.87306 0.21119 0.64243 0.0
C1842 C 0.84923 0.19221 0.64649 0.0
C1843 C 0.81856 0.15824 0.68521 0.0
C1844 C 0.81151 0.14421 0.72052 0.0
C1845 C 0.84231 0.1775 0.68103 0.0
C1846 C 0.82858 0.14881 0.751 0.0
C1847 C 0.85245 0.16766 0.74679 0.0
H1848 H 0.9788 0.51496 0.48807 0.0
H1849 H 0.04066 0.57663 0.54235 0.0
H1850 H 0.05566 0.55006 0.56645 0.0
H1851 H 0.05102 0.50966 0.57103 0.0
H1852 H 0.98914 0.44801 0.51677 0.0
H1853 H 0.97422 0.4746 0.4925 0.0
C1854 C 0.99582 0.5227 0.50446 0.0
C1855 C 1.00892 0.54772 0.51301 0.0
C1856 C 1.00407 0.5074 0.51821 0.0
C1857 C 0.03047 0.55739 0.53545 0.0
C1858 C 0.03894 0.54226 0.54916 0.0
C1859 C 0.034 0.50194 0.55464 0.0
C1860 C 0.02086 0.4769 0.54618 0.0
C1861 C 0.02578 0.51725 0.54083 0.0
C1862 C 0.99934 0.46724 0.52366 0.0
C1863 C 0.99091 0.48239 0.50986 0.0
H1864 H 0.53728 0.53961 0.5918 0.0
H1865 H 0.55867 0.56539 0.46969 0.0
H1866 H 0.52605 0.52702 0.44343 0.0
H1867 H 0.4904 0.48707 0.45535 0.0
H1868 H 0.46876 0.46169 0.57749 0.0
H1869 H 0.50132 0.50011 0.60371 0.0
C1870 C 0.53476 0.53688 0.55943 0.0
C1871 C 0.55025 0.55541 0.53284 0.0
C1872 C 0.51538 0.51534 0.54462 0.0
C1873 C 0.54721 0.55136 0.49093 0.0
C1874 C 0.52829 0.5296 0.47586 0.0
C1875 C 0.49278 0.49004 0.4877 0.0
C1876 C 0.47732 0.47157 0.51439 0.0
C1877 C 0.51204 0.51171 0.50248 0.0
C1878 C 0.48021 0.47573 0.55626 0.0
C1879 C 0.4991 0.4975 0.57128 0.0
H1880 H 0.57158 0.02567 0.56578 0.0
H1881 H 0.55325 0.99037 0.44968 0.0
H1882 H 0.51076 0.97962 0.45878 0.0
H1883 H 0.4801 0.98354 0.49761 0.0
H1884 H 0.49866 0.01978 0.61295 0.0
H1885 H 0.54042 0.02768 0.60628 0.0
C1886 C 0.55801 0.01485 0.54328 0.0
C1887 C 0.56508 1.00838 0.50744 0.0
C1888 C 0.53418 1.00989 0.54799 0.0
C1889 C 0.54777 0.99504 0.4777 0.0
C1890 C 0.52375 0.98933 0.48264 0.0
C1891 C 0.49352 0.99359 0.52075 0.0
C1892 C 0.48692 1.00181 0.55511 0.0
C1893 C 0.51701 0.99742 0.51704 0.0
C1894 C 0.50389 0.01392 0.58591 0.0
C1895 C 0.52748 0.0181 0.58229 0.0
H1896 H 0.53884 1.00778 0.09698 0.0
H1897 H 0.55995 1.00392 0.97445 0.0
H1898 H 0.52626 1.008 0.94886 0.0
H1899 H 0.48995 1.01089 0.96148 0.0
H1900 H 0.46908 0.01507 0.08405 0.0
H1901 H 0.50234 1.01029 0.10959 0.0
C1902 C 0.53605 1.00781 0.06467 0.0
C1903 C 0.55181 1.00544 0.03774 0.0
C1904 C 0.51616 1.00918 0.05026 0.0
C1905 C 0.54833 1.00606 0.99591 0.0
C1906 C 0.5288 1.00794 0.98124 0.0
C1907 C 0.49267 1.01072 0.99379 0.0
C1908 C 0.4772 0.01356 1.02072 0.0
C1909 C 0.51242 1.0091 1.0082 0.0
C1910 C 0.48052 0.01267 0.06255 0.0
C1911 C 0.49982 1.0104 0.07721 0.0
H1912 H 0.97852 0.47309 0.99237 0.0
H1913 H 0.04224 0.47882 0.04909 0.0
H1914 H 0.05367 0.5196 0.07365 0.0
H1915 H 0.04587 0.55333 0.07694 0.0
H1916 H 0.98238 0.54792 1.01988 0.0
H1917 H 0.97047 0.50678 0.9963 0.0
C1918 C 0.99517 0.48343 1.00942 0.0
C1919 C 1.00989 0.47332 1.01836 0.0
C1920 C 1.00144 0.50656 1.02331 0.0
C1921 C 0.03087 0.48648 0.04176 0.0
C1922 C 0.03732 0.50965 0.05571 0.0
C1923 C 0.02912 0.54299 0.06016 0.0
C1924 C 1.01467 0.55332 0.05069 0.0
C1925 C 0.0227 0.51977 0.04662 0.0
C1926 C 0.99355 0.54009 1.02762 0.0
C1927 C 0.98685 0.51674 1.01418 0.0
H1928 H 0.46755 0.48162 0.99274 0.0
H1929 H 0.48684 0.46912 0.11137 0.0
H1930 H 0.52907 0.50118 0.1006 0.0
H1931 H 0.55979 0.53326 0.05777 0.0
H1932 H 0.54048 0.5459 0.93925 0.0
H1933 H 0.49837 0.51344 0.94966 0.0
C1934 C 0.48122 0.48553 1.01565 0.0
C1935 C 0.47455 0.47296 0.05243 0.0
C1936 C 0.505 0.50437 1.00967 0.0
C1937 C 0.492 0.47853 0.08265 0.0
C1938 C 0.5159 0.49695 0.07667 0.0
C1939 C 0.54615 0.52924 0.03476 0.0
C1940 C 0.55276 0.54205 0.9982 0.0
C1941 C 0.52243 0.51026 0.04059 0.0
C1942 C 0.53536 0.53632 0.96783 0.0
C1943 C 0.51153 0.51769 0.9736 0.0
H1944 H 0.34402 0.2651 0.03184 0.0
H1945 H 0.28318 0.23291 0.9497 0.0
H1946 H 0.31135 0.24656 0.89224 0.0
H1947 H 0.35319 0.26715 0.86492 0.0
H1948 H 0.41426 0.30131 0.94629 0.0
H1949 H 0.38616 0.28752 1.00412 0.0
C1950 C 0.3368 0.26096 1.00138 0.0
C1951 C 0.31114 0.24758 0.99558 0.0
C1952 C 0.35327 0.26931 0.96818 0.0
C1953 C 0.30253 0.24295 0.95556 0.0
C1954 C 0.31875 0.25079 0.92256 0.0
C1955 C 0.36054 0.27165 0.89528 0.0
C1956 C 0.3862 0.28522 0.90078 0.0
C1957 C 0.34415 0.2639 0.92844 0.0
C1958 C 0.3949 0.29098 0.94066 0.0
C1959 C 0.37871 0.28299 0.97385 0.0
H1960 H 0.76237 0.08386 1.02754 0.0
H1961 H 0.79149 0.05398 0.94178 0.0
H1962 H 0.77671 0.06864 0.88601 0.0
H1963 H 0.75582 0.09043 0.86116 0.0
H1964 H 0.72502 0.11854 0.94705 0.0
H1965 H 0.74005 0.10412 1.00274 0.0
C1966 C 0.76558 0.08048 0.99667 0.0
C1967 C 0.77841 0.06779 0.98939 0.0
C1968 C 0.75664 0.08874 0.96453 0.0
C1969 C 0.78188 0.06357 0.94883 0.0
C1970 C 0.77339 0.07205 0.91679 0.0
C1971 C 0.75232 0.09348 0.89205 0.0
C1972 C 0.73924 0.10591 0.89939 0.0
C1973 C 0.7608 0.08474 0.92418 0.0
C1974 C 0.73489 0.10922 0.93996 0.0
C1975 C 0.74358 0.10094 0.97196 0.0
H1976 H 0.93741 0.67406 0.86348 0.0
H1977 H 0.90903 0.61372 0.94654 0.0
H1978 H 0.92304 0.64229 1.00362 0.0
H1979 H 0.94332 0.68454 0.03046 0.0
H1980 H 0.97319 0.74489 0.94733 0.0
H1981 H 0.95871 0.71631 0.89028 0.0
C1982 C 0.93414 0.667 0.89405 0.0
C1983 C 0.9218 0.64137 0.90018 0.0
C1984 C 0.94263 0.6837 0.92698 0.0
C1985 C 0.91825 0.63305 0.94037 0.0
C1986 C 0.92632 0.6495 0.97318 0.0
C1987 C 0.94672 0.6916 0.99989 0.0
C1988 C 0.95941 0.71724 0.99373 0.0
C1989 C 0.93852 0.6749 0.96695 0.0
C1990 C 0.9636 0.72556 0.95353 0.0
C1991 C 0.95524 0.7091 0.92073 0.0
H1992 H 0.27491 0.33562 0.534 0.0
H1993 H 0.24446 0.27707 0.62057 0.0
H1994 H 0.25796 0.30691 0.67585 0.0
H1995 H 0.27796 0.34978 0.69994 0.0
H1996 H 0.31007 0.40826 0.61339 0.0
H1997 H 0.29643 0.37841 0.55817 0.0
C1998 C 0.27117 0.32921 0.56495 0.0
C1999 C 0.25836 0.30371 0.57261 0.0
C2000 C 0.27932 0.34663 0.59679 0.0
C2001 C 0.25413 0.29625 0.61326 0.0
C2002 C 0.26186 0.31345 0.645 0.0
C2003 C 0.28202 0.35615 0.66901 0.0
C2004 C 0.29503 0.38166 0.66129 0.0
C2005 C 0.27437 0.33871 0.63721 0.0
C2006 C 0.30018 0.38908 0.62072 0.0
C2007 C 0.2923 0.37188 0.589 0.0
H2008 H 0.68107 0.93505 0.69412 0.0
H2009 H 0.62122 0.90358 0.61 0.0
H2010 H 0.65012 0.91823 0.55344 0.0
H2011 H 0.69249 0.93984 0.52751 0.0
H2012 H 0.75225 0.97289 0.61167 0.0
H2013 H 0.72336 0.95784 0.6682 0.0
C2014 C 0.67418 0.93124 0.66344 0.0
C2015 C 0.6486 0.91781 0.65682 0.0
C2016 C 0.69104 0.9401 0.63087 0.0
C2017 C 0.64049 0.91362 0.61651 0.0
C2018 C 0.65714 0.92205 0.58403 0.0
C2019 C 0.69936 0.94379 0.5582 0.0
C2020 C 0.72492 0.95751 0.56485 0.0
C2021 C 0.68247 0.93528 0.59077 0.0
C2022 C 0.73299 0.96249 0.60515 0.0
C2023 C 0.71635 0.95379 0.63762 0.0
H2024 H 0.08356 0.75243 0.53183 0.0
H2025 H 0.05764 0.78637 0.61567 0.0
H2026 H 0.07301 0.77293 0.67218 0.0
H2027 H 0.09409 0.75187 0.69812 0.0
H2028 H 0.11913 0.7169 0.61479 0.0
H2029 H 0.10382 0.73036 0.55806 0.0
C2030 C 0.0812 0.75696 0.56244 0.0
C2031 C 0.06935 0.77068 0.569 0.0
C2032 C 0.08999 0.74893 0.59505 0.0
C2033 C 0.06653 0.776 0.60922 0.0
C2034 C 0.0754 0.76828 0.64167 0.0
C2035 C 0.09631 0.7471 0.66759 0.0
C2036 C 0.10807 0.73329 0.66122 0.0
C2037 C 0.08722 0.75479 0.63501 0.0
C2038 C 0.11034 0.72737 0.6211 0.0
C2039 C 0.10154 0.73515 0.58853 0.0
H2040 H 0.67656 0.74664 0.19861 0.0
H2041 H 0.6158 0.72058 0.11669 0.0
H2042 H 0.64388 0.73538 0.05926 0.0
H2043 H 0.68564 0.75622 0.03181 0.0
H2044 H 0.74667 0.78069 0.11265 0.0
H2045 H 0.71866 0.76601 0.17057 0.0
C2046 C 0.66935 0.74414 0.1682 0.0
C2047 C 0.64373 0.73247 0.16248 0.0
C2048 C 0.68578 0.75249 0.13493 0.0
C2049 C 0.63513 0.72935 0.12252 0.0
C2050 C 0.6513 0.73791 0.08951 0.0
C2051 C 0.693 0.75847 0.06207 0.0
C2052 C 0.71861 0.76997 0.06741 0.0
C2053 C 0.67666 0.74961 0.09527 0.0
C2054 C 0.72733 0.77213 0.10715 0.0
C2055 C 0.71119 0.76371 0.14041 0.0
H2056 H 0.2709 0.93754 1.02776 0.0
H2057 H 0.24001 0.96537 0.11399 0.0
H2058 H 0.25469 0.95047 0.16952 0.0
H2059 H 0.27608 0.92916 0.19396 0.0
H2060 H 0.30884 0.90329 0.10779 0.0
H2061 H 0.29374 0.91777 0.05225 0.0
C2062 C 0.26725 0.94038 0.05869 0.0
C2063 C 0.25396 0.95254 0.06622 0.0
C2064 C 0.27617 0.93203 0.09067 0.0
C2065 C 0.24996 0.95615 0.10681 0.0
C2066 C 0.2584 0.94755 0.1387 0.0
C2067 C 0.27994 0.92656 0.16303 0.0
C2068 C 0.29356 0.91473 0.1555 0.0
C2069 C 0.27146 0.93537 0.13107 0.0
C2070 C 0.29848 0.9121 0.11495 0.0
C2071 C 0.28977 0.92042 0.08306 0.0
H2072 H 0.09349 0.35253 0.20264 0.0
H2073 H 0.12183 0.41219 0.11821 0.0
H2074 H 0.10915 0.3833 0.0618 0.0
H2075 H 0.0904 0.34107 0.03595 0.0
H2076 H 0.06005 0.28113 0.11983 0.0
H2077 H 0.07305 0.31 0.17652 0.0
C2078 C 0.09693 0.35933 0.17191 0.0
C2079 C 0.10889 0.38488 0.16514 0.0
C2080 C 0.08921 0.34242 0.13931 0.0
C2081 C 0.11279 0.39293 0.1248 0.0
C2082 C 0.10554 0.37629 0.09239 0.0
C2083 C 0.08663 0.33416 0.06662 0.0
C2084 C 0.07436 0.3086 0.07318 0.0
C2085 C 0.09383 0.35099 0.09919 0.0
C2086 C 0.06945 0.30042 0.11342 0.0
C2087 C 0.07694 0.31706 0.14597 0.0
H2088 H 0.76082 0.68476 0.51835 0.0
H2089 H 0.78909 0.74602 0.43729 0.0
H2090 H 0.77412 0.7179 0.3793 0.0
H2091 H 0.75332 0.67548 0.35127 0.0
H2092 H 0.72362 0.61479 0.43376 0.0
H2093 H 0.73878 0.64301 0.49101 0.0
C2094 C 0.76386 0.69218 0.48804 0.0
C2095 C 0.77652 0.71789 0.48274 0.0
C2096 C 0.75485 0.6758 0.4548 0.0
C2097 C 0.77964 0.72662 0.44285 0.0
C2098 C 0.77105 0.7104 0.40954 0.0
C2099 C 0.7501 0.66832 0.38176 0.0
C2100 C 0.73726 0.64262 0.38764 0.0
C2101 C 0.75869 0.68489 0.41504 0.0
C2102 C 0.73328 0.63414 0.42774 0.0
C2103 C 0.74205 0.6504 0.46068 0.0
H2104 H 0.34421 0.07837 0.53113 0.0
H2105 H 0.28461 0.05079 0.44662 0.0
H2106 H 0.31365 0.06682 0.39037 0.0
H2107 H 0.35614 0.08908 0.36467 0.0
H2108 H 0.41571 0.11495 0.44898 0.0
H2109 H 0.38668 0.09927 0.50528 0.0
C2110 C 0.33741 0.0758 0.50043 0.0
C2111 C 0.31182 0.06331 0.49369 0.0
C2112 C 0.35439 0.08487 0.46792 0.0
C2113 C 0.30386 0.06016 0.45329 0.0
C2114 C 0.32061 0.06944 0.42095 0.0
C2115 C 0.36294 0.0914 0.39534 0.0
C2116 C 0.38852 0.10358 0.40205 0.0
C2117 C 0.34594 0.08191 0.4278 0.0
C2118 C 0.39647 0.10589 0.44235 0.0
C2119 C 0.37972 0.09686 0.47472 0.0
H2120 H 0.94656 0.26995 0.53215 0.0
H2121 H 0.98065 0.24369 0.44939 0.0
H2122 H 0.96621 0.25762 0.39221 0.0
H2123 H 0.94351 0.277 0.36512 0.0
H2124 H 0.9109 0.30481 0.44794 0.0
H2125 H 0.92513 0.29067 0.50511 0.0
C2126 C 0.95091 0.26719 0.50163 0.0
C2127 C 0.96476 0.25545 0.49562 0.0
C2128 C 0.94273 0.27562 0.46861 0.0
C2129 C 0.97016 0.25249 0.45549 0.0
C2130 C 0.96182 0.2605 0.42261 0.0
C2131 C 0.93944 0.28005 0.39565 0.0
C2132 C 0.92582 0.29204 0.40165 0.0
C2133 C 0.94802 0.27204 0.42869 0.0
C2134 C 0.92117 0.29579 0.44183 0.0
C2135 C 0.92934 0.2876 0.47471 0.0
H2136 H 0.01952 0.60828 0.19716 0.0
H2137 H 0.0792 0.63721 0.28167 0.0
H2138 H 0.05007 0.62184 0.338 0.0
H2139 H 1.00747 0.59967 0.3635 0.0
H2140 H 0.94806 0.57216 0.27856 0.0
H2141 H 0.97722 0.58744 0.2225 0.0
C2142 C 0.02638 0.61132 0.22787 0.0
C2143 C 0.05196 0.62397 0.23463 0.0
C2144 C 1.0094 0.60256 0.26023 0.0
C2145 C 0.05995 0.62769 0.27501 0.0
C2146 C 0.04315 0.61879 0.30736 0.0
C2147 C 1.00075 0.59689 0.33274 0.0
C2148 C 0.97517 0.58438 0.32574 0.0
C2149 C 0.01781 0.60609 0.3004 0.0
C2150 C 0.96729 0.58147 0.28536 0.0
C2151 C 0.9841 0.59027 0.25316 0.0
H2152 H 0.42755 0.41749 0.36086 0.0
H2153 H 0.45671 0.38752 0.27534 0.0
H2154 H 0.44146 0.40172 0.21947 0.0
H2155 H 0.42023 0.42318 0.19465 0.0
H2156 H 0.38957 0.45145 0.28057 0.0
H2157 H 0.40497 0.43738 0.33622 0.0
C2158 C 0.43072 0.41402 0.33002 0.0
C2159 C 0.44371 0.40148 0.3228 0.0
C2160 C 0.42154 0.422 0.29794 0.0
C2161 C 0.44702 0.39704 0.2823 0.0
C2162 C 0.43826 0.40525 0.25024 0.0
C2163 C 0.41685 0.42636 0.22554 0.0
C2164 C 0.4037 0.43873 0.23293 0.0
C2165 C 0.42557 0.41785 0.25762 0.0
C2166 C 0.39949 0.44218 0.27347 0.0
C2167 C 0.4084 0.4341 0.30543 0.0
H2168 H 0.61448 0.02011 0.3627 0.0
H2169 H 0.64327 0.08007 0.27882 0.0
H2170 H 0.62751 0.05119 0.22219 0.0
H2171 H 0.60533 1.00874 0.19603 0.0
H2172 H 0.57829 0.94887 0.27991 0.0
H2173 H 0.59349 0.97776 0.33652 0.0
C2174 C 0.61738 0.02703 0.33206 0.0
C2175 C 0.63014 0.05265 0.32557 0.0
C2176 C 0.60845 1.01016 0.29939 0.0
C2177 C 0.63367 0.06077 0.28527 0.0
C2178 C 0.62456 0.04413 0.25273 0.0
C2179 C 0.60259 1.00186 0.22668 0.0
C2180 C 0.59023 0.97626 0.23322 0.0
C2181 C 0.61185 0.01876 0.25933 0.0
C2182 C 0.58745 0.96816 0.27346 0.0
C2183 C 0.59622 0.9848 0.30599 0.0
H2184 H 0.42859 1.00562 0.69399 0.0
H2185 H 0.39109 0.94478 0.77495 0.0
H2186 H 0.40401 0.9728 0.83267 0.0
H2187 H 0.42609 0.01473 0.86082 0.0
H2188 H 0.46158 0.07576 0.77973 0.0
H2189 H 0.44934 0.04773 0.72202 0.0
C2190 C 0.42323 0.99836 0.72425 0.0
C2191 C 0.40888 0.97273 0.72962 0.0
C2192 C 0.4304 0.01479 0.75758 0.0
C2193 C 0.40205 0.96412 0.76937 0.0
C2194 C 0.4095 0.98027 0.80257 0.0
C2195 C 0.43125 0.02204 0.83056 0.0
C2196 C 0.44507 0.04771 0.8252 0.0
C2197 C 0.42371 1.00566 0.79717 0.0
C2198 C 0.4511 0.05639 0.78532 0.0
C2199 C 0.44407 0.04023 0.75214 0.0
H2200 H 0.02276 0.42472 0.69771 0.0
H2201 H 0.08285 0.45472 0.78138 0.0
H2202 H 0.0542 0.44092 0.83817 0.0
H2203 H 1.01191 0.42044 0.86467 0.0
H2204 H 0.95182 0.38873 0.78108 0.0
H2205 H 0.98047 0.40301 0.72425 0.0
C2206 C 0.02974 0.42833 0.72834 0.0
C2207 C 0.05534 0.44107 0.73471 0.0
C2208 C 1.01298 0.41996 0.76117 0.0
C2209 C 0.06356 0.44512 0.775 0.0
C2210 C 0.04704 0.4372 0.80767 0.0
C2211 C 1.00493 0.41663 0.83404 0.0
C2212 C 0.97933 0.4035 0.8277 0.0
C2213 C 0.02169 0.42464 0.80123 0.0
C2214 C 0.97111 0.3987 0.78743 0.0
C2215 C 0.98762 0.40693 0.75475 0.0
H2216 H 0.6048 0.60599 0.69123 0.0
H2217 H 0.57525 0.6351 0.77764 0.0
H2218 H 0.58938 0.61965 0.83308 0.0
H2219 H 0.60982 0.59751 0.8575 0.0
H2220 H 0.6413 0.57021 0.77144 0.0
H2221 H 0.62684 0.5853 0.71583 0.0
C2222 C 0.60136 0.609 0.72219 0.0
C2223 C 0.58862 0.62172 0.72979 0.0
C2224 C 0.60997 0.60032 0.75419 0.0
C2225 C 0.58483 0.6255 0.77041 0.0
C2226 C 0.59293 0.61658 0.80226 0.0
C2227 C 0.61358 0.59477 0.82659 0.0
C2228 C 0.62666 0.58238 0.81911 0.0
C2229 C 0.60547 0.60389 0.7946 0.0
C2230 C 0.6314 0.57949 0.77857 0.0
C2231 C 0.62303 0.58815 0.74663 0.0
H2232 H 0.20832 0.2414 0.33356 0.0
H2233 H 0.24474 0.20511 0.38157 0.0
H2234 H 0.253 0.19691 0.31267 0.0
H2235 H 0.25337 0.20345 0.23825 0.0
H2236 H 0.21449 0.23716 0.19006 0.0
H2237 H 0.20362 0.24269 0.25886 0.0
C2238 C 0.21755 0.23115 0.32908 0.0
C2239 C 0.22576 0.22383 0.36343 0.0
C2240 C 0.22206 0.22622 0.28894 0.0
C2241 C 0.23783 0.21071 0.35635 0.0
C2242 C 0.2428 0.20623 0.31668 0.0
C2243 C 0.24207 0.21157 0.24264 0.0
C2244 C 0.23481 0.21985 0.20835 0.0
C2245 C 0.2355 0.21435 0.28266 0.0
C2246 C 0.22019 0.23034 0.21526 0.0
C2247 C 0.21412 0.23368 0.25487 0.0
H2248 H 0.82708 0.05577 0.22988 0.0
H2249 H 0.79203 0.98325 0.18046 0.0
H2250 H 0.78463 0.96636 0.24898 0.0
H2251 H 0.78469 0.97199 0.32359 0.0
H2252 H 0.82211 0.04449 0.37305 0.0
H2253 H 0.83212 0.06139 0.30455 0.0
C2254 C 0.81829 0.03625 0.23396 0.0
C2255 C 0.81021 0.02089 0.19938 0.0
C2256 C 0.8143 0.02658 0.27385 0.0
C2257 C 0.79877 0.99564 0.2059 0.0
C2258 C 0.79432 0.98593 0.24535 0.0
C2259 C 0.7955 0.9915 0.31952 0.0
C2260 C 0.80261 1.00686 0.3541 0.0
C2261 C 0.80152 1.00117 0.27966 0.0
C2262 C 0.81655 0.0321 0.34761 0.0
C2263 C 0.82213 0.04181 0.30817 0.0
H2264 H 0.97218 0.77802 0.23516 0.0
H2265 H 0.04442 0.81585 0.18531 0.0
H2266 H 0.06151 0.82518 0.25382 0.0
H2267 H 0.05609 0.81903 0.32853 0.0
H2268 H 0.98383 0.78393 0.37838 0.0
H2269 H 0.96677 0.77743 0.30998 0.0
C2270 C 0.99168 0.78889 0.23917 0.0
C2271 C 1.0069 0.79629 0.20442 0.0
C2272 C 1.00145 0.79451 0.27906 0.0
C2273 C 0.03213 0.81018 0.21084 0.0
C2274 C 0.04195 0.81531 0.2503 0.0
C2275 C 0.0366 0.81047 0.32458 0.0
C2276 C 0.02135 0.80208 0.35927 0.0
C2277 C 0.02684 0.80711 0.28474 0.0
C2278 C 0.99613 0.79092 0.35291 0.0
C2279 C 0.98633 0.78698 0.3135 0.0
H2280 H 0.78891 0.80689 0.7005 0.0
H2281 H 0.82617 0.7668 0.71967 0.0
H2282 H 0.82498 0.7716 0.79253 0.0
H2283 H 0.80972 0.78357 0.85275 0.0
H2284 H 0.77162 0.82283 0.83359 0.0
H2285 H 0.77701 0.82218 0.76081 0.0
C2286 C 0.79735 0.79976 0.72048 0.0
C2287 C 0.80774 0.78655 0.70372 0.0
C2288 C 0.79623 0.8022 0.76335 0.0
C2289 C 0.81804 0.7771 0.73099 0.0
C2290 C 0.8173 0.77974 0.7731 0.0
C2291 C 0.80317 0.79256 0.83282 0.0
C2292 C 0.79033 0.80337 0.84955 0.0
C2293 C 0.80594 0.79176 0.78998 0.0
C2294 C 0.78162 0.81439 0.82231 0.0
C2295 C 0.7846 0.81395 0.78024 0.0
H2296 H 0.20585 0.96659 0.82805 0.0
H2297 H 0.24319 0.03967 0.87507 0.0
H2298 H 0.25044 0.05575 0.80591 0.0
H2299 H 0.25006 0.04901 0.73159 0.0
H2300 H 0.21048 0.97603 0.68452 0.0
H2301 H 0.20002 0.96006 0.75362 0.0
C2302 C 0.21504 0.98608 0.82328 0.0
C2303 C 0.22386 1.00185 0.85732 0.0
C2304 C 0.21894 0.99524 0.7831 0.0
C2305 C 0.23584 0.02702 0.85003 0.0
C2306 C 0.24022 0.03624 0.81024 0.0
C2307 C 0.23861 0.02961 0.73632 0.0
C2308 C 0.23104 0.01379 0.70232 0.0
C2309 C 0.2324 0.02054 0.77646 0.0
C2310 C 0.21632 0.98873 0.70954 0.0
C2311 C 0.21053 0.97957 0.7493 0.0
H2312 H 0.97689 0.20687 0.73735 0.0
H2313 H 0.04901 0.24291 0.68675 0.0
H2314 H 0.06639 0.25096 0.75493 0.0
H2315 H 0.06128 0.25095 0.82965 0.0
H2316 H 0.98923 0.21254 0.88031 0.0
H2317 H 0.97189 0.20216 0.81213 0.0
C2318 C 0.99643 0.21604 0.7411 0.0
C2319 C 1.01151 0.22416 0.70625 0.0
C2320 C 1.00641 0.22041 0.78083 0.0
C2321 C 0.03681 0.2361 0.71238 0.0
C2322 C 0.04681 0.24093 0.75165 0.0
C2323 C 0.04178 0.23989 0.82591 0.0
C2324 C 0.02668 0.23259 0.86075 0.0
C2325 C 0.03184 0.23362 0.78621 0.0
C2326 C 1.00144 0.21828 0.85466 0.0
C2327 C 0.99146 0.21248 0.81541 0.0
H2328 H 0.87673 0.58104 0.66085 0.0
H2329 H 0.90959 0.54112 0.70799 0.0
H2330 H 0.91454 0.53008 0.63892 0.0
H2331 H 0.91327 0.53523 0.56435 0.0
H2332 H 0.87795 0.57287 0.51746 0.0
H2333 H 0.86997 0.58097 0.58663 0.0
C2334 C 0.88449 0.56944 0.65615 0.0
C2335 C 0.89275 0.56194 0.69017 0.0
C2336 C 0.88698 0.56286 0.61605 0.0
C2337 C 0.90279 0.54697 0.68297 0.0
C2338 C 0.90582 0.54083 0.64322 0.0
C2339 C 0.90326 0.54469 0.56915 0.0
C2340 C 0.89617 0.55332 0.53509 0.0
C2341 C 0.89848 0.5491 0.6094 0.0
C2342 C 0.88336 0.56566 0.54249 0.0
C2343 C 0.87901 0.57053 0.58229 0.0
H2344 H 0.4544 0.32022 0.53219 0.0
H2345 H 0.49735 0.39718 0.55452 0.0
H2346 H 0.49575 0.38996 0.62717 0.0
H2347 H 0.47831 0.36201 0.68624 0.0
H2348 H 0.4345 0.28506 0.66352 0.0
H2349 H 0.44045 0.29201 0.59107 0.0
C2350 C 0.4641 0.33535 0.5528 0.0
C2351 C 0.47632 0.35927 0.53715 0.0
C2352 C 0.46262 0.3311 0.59542 0.0
C2353 C 0.48804 0.37855 0.56513 0.0
C2354 C 0.48697 0.37445 0.60706 0.0
C2355 C 0.47056 0.34671 0.66558 0.0
C2356 C 0.45591 0.32296 0.68123 0.0
C2357 C 0.47376 0.35083 0.62292 0.0
C2358 C 0.44581 0.30358 0.65311 0.0
C2359 C 0.44915 0.30752 0.61122 0.0
H2360 H 0.64322 0.11259 0.5666 0.0
H2361 H 0.71569 0.15187 0.51791 0.0
H2362 H 0.73231 0.16231 0.58665 0.0
H2363 H 0.7265 0.15678 0.66131 0.0
H2364 H 0.65387 0.11987 0.70982 0.0
H2365 H 0.63723 0.11236 0.64109 0.0
C2366 C 0.66265 0.12395 0.57089 0.0
C2367 C 0.67811 0.13144 0.5365 0.0
C2368 C 0.67212 0.13018 0.61086 0.0
C2369 C 0.70324 0.14606 0.54322 0.0
C2370 C 0.71278 0.15185 0.58279 0.0
C2371 C 0.707 0.1476 0.65698 0.0
C2372 C 0.69154 0.13899 0.69137 0.0
C2373 C 0.69746 0.14356 0.61696 0.0
C2374 C 0.66632 0.12703 0.68454 0.0
C2375 C 0.65676 0.12251 0.64497 0.0
H2376 H 0.4491 0.15232 0.1605 0.0
H2377 H 0.48633 0.11741 0.21083 0.0
H2378 H 0.49507 0.10888 0.14253 0.0
H2379 H 0.48891 0.10788 0.06794 0.0
H2380 H 0.45447 0.14544 1.01725 0.0
H2381 H 0.44819 0.15649 0.08548 0.0
C2382 C 0.45964 0.14333 0.15665 0.0
C2383 C 0.46706 0.13564 0.19152 0.0
C2384 C 0.46496 0.13873 0.1168 0.0
C2385 C 0.48059 0.1239 0.18522 0.0
C2386 C 0.48541 0.11879 0.14588 0.0
C2387 C 0.48049 0.11896 0.07166 0.0
C2388 C 0.47225 0.1258 0.03681 0.0
C2389 C 0.47727 0.12564 0.11136 0.0
C2390 C 0.46132 0.1401 0.04287 0.0
C2391 C 0.45752 0.14626 0.08218 0.0
H2392 H 0.87554 0.30247 0.15953 0.0
H2393 H 0.90949 0.37425 0.21175 0.0
H2394 H 0.91708 0.3921 0.14397 0.0
H2395 H 0.91764 0.38761 0.06918 0.0
H2396 H 0.88105 0.31588 1.01674 0.0
H2397 H 0.87076 0.29793 0.08455 0.0
C2398 C 0.88409 0.32203 0.1562 0.0
C2399 C 0.89181 0.3369 0.19138 0.0
C2400 C 0.88812 0.33226 0.11669 0.0
C2401 C 0.90298 0.36221 0.18584 0.0
C2402 C 0.90756 0.37248 0.14681 0.0
C2403 C 0.9069 0.36803 0.07246 0.0
C2404 C 0.90012 0.35321 0.03726 0.0
C2405 C 0.90069 0.35775 0.11191 0.0
C2406 C 0.8863 0.32786 0.04269 0.0
C2407 C 0.88059 0.31755 0.08174 0.0
H2408 H 0.72315 0.57658 0.1506 0.0
H2409 H 0.65111 0.53957 0.20138 0.0
H2410 H 0.63374 0.52832 0.13324 0.0
H2411 H 0.63885 0.53258 0.05835 0.0
H2412 H 0.71099 0.56731 1.00789 0.0
H2413 H 0.7283 0.57549 0.07614 0.0
C2414 C 0.70364 0.56552 0.14692 0.0
C2415 C 0.68854 0.55892 0.1817 0.0
C2416 C 0.69372 0.55884 0.10731 0.0
C2417 C 0.6633 0.54468 0.17576 0.0
C2418 C 0.65332 0.53844 0.13652 0.0
C2419 C 0.65838 0.54144 0.06217 0.0
C2420 C 0.67351 0.54925 1.02736 0.0
C2421 C 0.6683 0.54588 0.10193 0.0
C2422 C 0.69877 0.56078 0.03352 0.0
C2423 C 0.70872 0.56568 0.07281 0.0
H2424 H 0.59096 0.87521 0.8998 0.0
H2425 H 0.5522 0.90853 0.84955 0.0
H2426 H 0.54175 0.91524 0.91791 0.0
H2427 H 0.5469 0.91519 0.99262 0.0
H2428 H 0.58297 0.87913 0.04293 0.0
H2429 H 0.59084 0.86973 0.97452 0.0
C2430 C 0.57975 0.88347 0.90369 0.0
C2431 C 0.57239 0.8913 0.86897 0.0
C2432 C 0.57342 0.88693 0.94345 0.0
C2433 C 0.55792 0.90201 0.87514 0.0
C2434 C 0.55211 0.90605 0.91448 0.0
C2435 C 0.55599 0.90475 0.98873 0.0
C2436 C 0.56424 0.89785 1.02347 0.0
C2437 C 0.56017 0.89907 0.94896 0.0
C2438 C 0.57608 0.88443 1.0173 0.0
C2439 C 0.5808 0.87925 0.97794 0.0
H2440 H 0.1489 0.70247 1.0235 0.0
H2441 H 0.10673 0.62508 1.00437 0.0
H2442 H 0.11335 0.63075 0.93174 0.0
H2443 H 0.12652 0.65793 0.87162 0.0
H2444 H 0.16801 0.73534 0.89036 0.0
H2445 H 0.16663 0.72944 0.96336 0.0
C2446 C 0.14185 0.68682 1.00363 0.0
C2447 C 0.12739 0.6633 1.02014 0.0
C2448 C 0.14538 0.69021 0.9609 0.0
C2449 C 0.118 0.64341 0.99309 0.0
C2450 C 0.12166 0.64663 0.95116 0.0
C2451 C 0.13605 0.67346 0.89154 0.0
C2452 C 0.14766 0.6971 0.8748 0.0
C2453 C 0.13472 0.66997 0.93433 0.0
C2454 C 0.15916 0.7169 0.90186 0.0
C2455 C 0.15821 0.71356 0.94397 0.0
H2456 H 0.3902 0.48701 0.99366 0.0
H2457 H 0.31769 0.45108 0.04266 0.0
H2458 H 0.30088 0.44391 0.97406 0.0
H2459 H 0.30664 0.44429 0.89949 0.0
H2460 H 0.37913 0.48248 0.85051 0.0
H2461 H 0.39589 0.49249 0.91912 0.0
C2462 C 0.37069 0.47808 0.98946 0.0
C2463 C 0.35531 0.46966 1.02391 0.0
C2464 C 0.36108 0.47423 0.94956 0.0
C2465 C 0.33009 0.45807 1.0173 0.0
C2466 C 0.32043 0.45375 0.97781 0.0
C2467 C 0.32612 0.45529 0.90369 0.0
C2468 C 0.34152 0.46259 0.86924 0.0
C2469 C 0.3357 0.46126 0.94361 0.0
C2470 C 0.36671 0.47678 0.87587 0.0
C2471 C 0.37635 0.48234 0.91536 0.0
H2472 H 0.11667 0.49033 0.49513 0.0
H2473 H 0.1556 0.45693 0.54437 0.0
H2474 H 0.16604 0.45058 0.47577 0.0
H2475 H 0.16055 0.45069 0.40118 0.0
H2476 H 0.12352 0.48612 0.35209 0.0
H2477 H 0.11625 0.4957 0.42066 0.0
C2478 C 0.12795 0.48217 0.491 0.0
C2479 C 0.13536 0.47422 0.52548 0.0
C2480 C 0.13409 0.47874 0.45113 0.0
C2481 C 0.14987 0.46359 0.51897 0.0
C2482 C 0.15565 0.45972 0.47949 0.0
C2483 C 0.15139 0.46104 0.40533 0.0
C2484 C 0.14268 0.46768 0.37085 0.0
C2485 C 0.14741 0.4667 0.44523 0.0
C2486 C 0.13075 0.48098 0.37745 0.0
C2487 C 0.12637 0.48628 0.41692 0.0
H2488 H 0.58181 0.72139 0.40152 0.0
H2489 H 0.5433 0.64901 0.35171 0.0
H2490 H 0.53275 0.63205 0.42011 0.0
H2491 H 0.53837 0.63754 0.4946 0.0
H2492 H 0.57474 0.70991 0.54455 0.0
H2493 H 0.58184 0.72701 0.47612 0.0
C2494 C 0.57055 0.7019 0.40552 0.0
C2495 C 0.56334 0.68656 0.37096 0.0
C2496 C 0.56431 0.69223 0.44528 0.0
C2497 C 0.54887 0.66136 0.37721 0.0
C2498 C 0.54303 0.65162 0.41656 0.0
C2499 C 0.54729 0.65708 0.49063 0.0
C2500 C 0.55592 0.67236 0.52521 0.0
C2501 C 0.55115 0.66682 0.4509 0.0
C2502 C 0.56756 0.69763 0.51902 0.0
C2503 C 0.57186 0.70743 0.47966 0.0
H2504 H 0.39558 0.91214 0.48745 0.0
H2505 H 0.32365 0.8746 0.53878 0.0
H2506 H 0.30605 0.86506 0.47079 0.0
H2507 H 0.31077 0.87023 0.39608 0.0
H2508 H 0.3826 0.90533 0.34445 0.0
H2509 H 0.40029 0.91263 0.41244 0.0
C2510 C 0.37603 0.90142 0.48391 0.0
C2511 C 0.36108 0.89413 0.51898 0.0
C2512 C 0.3659 0.89566 0.44422 0.0
C2513 C 0.33578 0.88032 0.51303 0.0
C2514 C 0.32564 0.875 0.47386 0.0
C2515 C 0.33031 0.87907 0.39953 0.0
C2516 C 0.34522 0.88716 0.36446 0.0
C2517 C 0.34046 0.88295 0.43912 0.0
C2518 C 0.37052 0.89861 0.37024 0.0
C2519 C 0.3807 0.90298 0.40941 0.0
H2520 H 0.26884 0.30456 0.13276 0.0
H2521 H 0.3233 0.29993 0.06209 0.0
H2522 H 0.34763 0.34416 0.05893 0.0
H2523 H 0.35513 0.38368 0.08117 0.0
H2524 H 0.3024 0.38937 0.15541 0.0
H2525 H 0.27556 0.34526 0.15212 0.0
C2526 C 0.28584 0.31343 0.11623 0.0
C2527 C 0.29448 0.2994 0.0977 0.0
C2528 C 0.3001 0.33892 0.11553 0.0
C2529 C 0.31655 0.31069 0.0766 0.0
C2530 C 0.33043 0.33587 0.07485 0.0
C2531 C 0.33768 0.37536 0.09638 0.0
C2532 C 0.33088 0.38971 0.11883 0.0
C2533 C 0.32267 0.35013 0.09502 0.0
C2534 C 0.30812 0.37864 0.13813 0.0
C2535 C 0.29278 0.35343 0.13631 0.0
H2536 H 0.64627 0.93397 0.09401 0.0
H2537 H 0.64236 0.98555 0.17373 0.0
H2538 H 0.68661 1.01006 0.17562 0.0
H2539 H 0.72568 0.01889 0.14895 0.0
H2540 H 0.73027 0.96892 0.06583 0.0
H2541 H 0.68646 0.94148 0.07106 0.0
C2542 C 0.65533 0.95033 0.11228 0.0
C2543 C 0.64162 0.95823 0.13366 0.0
C2544 C 0.6807 0.96466 0.1122 0.0
C2545 C 0.65301 0.97944 0.15708 0.0
C2546 C 0.67816 0.99341 0.15806 0.0
C2547 C 0.71715 1.00191 0.13221 0.0
C2548 C 0.73101 0.9961 0.10658 0.0
C2549 C 0.6921 0.98656 0.13479 0.0
C2550 C 0.71983 0.97389 0.0855 0.0
C2551 C 0.69482 0.95821 0.08842 0.0
H2552 H 0.02531 0.73038 0.16392 0.0
H2553 H 0.04758 0.75693 0.04261 0.0
H2554 H 0.07351 0.73867 0.04048 0.0
H2555 H 0.08559 0.71069 0.07051 0.0
H2556 H 0.06431 0.68559 0.19261 0.0
H2557 H 0.04231 0.70792 0.19749 0.0
C2558 C 0.03618 0.73245 0.13734 0.0
C2559 C 0.03439 0.7445 0.10328 0.0
C2560 C 0.05104 0.72209 0.13648 0.0
C2561 C 0.04874 0.74757 0.06913 0.0
C2562 C 0.06342 0.73705 0.06781 0.0
C2563 C 0.07659 0.71073 0.09834 0.0
C2564 C 0.07631 0.69676 0.13116 0.0
C2565 C 0.06411 0.72364 0.10087 0.0
C2566 C 0.06467 0.69655 0.16722 0.0
C2567 C 0.05204 0.70912 0.1699 0.0
H2568 H 0.39119 0.30549 0.46934 0.0
H2569 H 0.39218 0.35569 0.3809 0.0
H2570 H 0.34785 0.334 0.37922 0.0
H2571 H 0.30946 0.30392 0.40825 0.0
H2572 H 0.30757 0.25474 0.49995 0.0
H2573 H 0.35164 0.27258 0.49476 0.0
C2574 C 0.38149 0.31119 0.44928 0.0
C2575 C 0.39441 0.3319 0.4253 0.0
C2576 C 0.35604 0.29904 0.44939 0.0
C2577 C 0.38217 0.33964 0.39952 0.0
C2578 C 0.35697 0.32735 0.39866 0.0
C2579 C 0.31863 0.29693 0.42689 0.0
C2580 C 0.30545 0.27839 0.4549 0.0
C2581 C 0.34378 0.30752 0.42434 0.0
C2582 C 0.31746 0.26921 0.47837 0.0
C2583 C 0.34262 0.27942 0.47551 0.0
H2584 H 0.76562 0.05369 0.41622 0.0
H2585 H 0.717 1.00126 0.50289 0.0
H2586 H 0.69355 0.02201 0.50666 0.0
H2587 H 0.68514 0.05266 0.48184 0.0
H2588 H 0.73129 0.10425 0.39177 0.0
H2589 H 0.75789 0.08658 0.39321 0.0
C2590 C 0.75002 0.04716 0.4361 0.0
C2591 C 0.74275 0.02615 0.45921 0.0
C2592 C 0.7363 0.05892 0.4374 0.0
C2593 C 0.72262 0.01746 0.48486 0.0
C2594 C 0.70929 0.02927 0.48701 0.0
C2595 C 0.70109 0.06023 0.4626 0.0
C2596 C 0.70609 0.07949 0.43633 0.0
C2597 C 0.7157 0.04967 0.46286 0.0
C2598 C 0.72703 0.0893 0.41212 0.0
C2599 C 0.74214 0.07914 0.41281 0.0
H2600 H 0.99026 0.71804 0.40021 0.0
H2601 H 0.99598 0.72062 0.53002 0.0
H2602 H 0.97364 0.67612 0.53314 0.0
H2603 H 0.95637 0.63669 0.49776 0.0
H2604 H 0.94779 0.63428 0.36834 0.0
H2605 H 0.96721 0.67858 0.36591 0.0
C2606 C 0.98603 0.70871 0.42909 0.0
C2607 C 0.9946 0.72215 0.46478 0.0
C2608 C 0.97299 0.68332 0.43059 0.0
C2609 C 0.9892 0.7103 0.50227 0.0
C2610 C 0.97668 0.68497 0.50401 0.0
C2611 C 0.95855 0.64599 0.46925 0.0
C2612 C 0.95114 0.63266 0.43325 0.0
C2613 C 0.96912 0.67133 0.46825 0.0
C2614 C 0.95353 0.64449 0.39634 0.0
C2615 C 0.96465 0.66972 0.39493 0.0
H2616 H 0.66803 0.6355 0.95855 0.0
H2617 H 0.72902 0.62993 0.91518 0.0
H2618 H 0.75527 0.67414 0.92116 0.0
H2619 H 0.76001 0.71477 0.93552 0.0
H2620 H 0.69725 0.71881 0.97367 0.0
H2621 H 0.67255 0.67474 0.9732 0.0
C2622 C 0.68712 0.64386 0.95074 0.0
C2623 C 0.6966 0.62956 0.93647 0.0
C2624 C 0.70174 0.66905 0.95314 0.0
C2625 C 0.72132 0.64068 0.92616 0.0
C2626 C 0.7363 0.66591 0.92954 0.0
C2627 C 0.74097 0.70582 0.94388 0.0
C2628 C 0.73029 0.71977 0.95424 0.0
C2629 C 0.7266 0.68034 0.94247 0.0
C2630 C 0.70566 0.70827 0.965 0.0
C2631 C 0.69156 0.68313 0.9649 0.0
H2632 H 0.30828 0.04286 0.90813 0.0
H2633 H 0.30456 1.00649 1.01994 0.0
H2634 H 0.34888 0.02695 1.02305 0.0
H2635 H 0.38816 0.05213 0.99082 0.0
H2636 H 0.39272 0.08934 0.87939 0.0
H2637 H 0.34857 0.07198 0.87937 0.0
C2638 C 0.31738 0.03994 0.9334 0.0
C2639 C 0.30365 0.02346 0.96383 0.0
C2640 C 0.34282 0.05171 0.93485 0.0
C2641 C 0.31515 0.01938 0.99648 0.0
C2642 C 0.34036 0.03092 0.99813 0.0
C2643 C 0.37949 0.05659 0.96672 0.0
C2644 C 0.39345 0.07158 0.93485 0.0
C2645 C 0.35431 0.04665 0.967 0.0
C2646 C 0.38218 0.07768 0.90416 0.0
C2647 C 0.35699 0.0677 0.90405 0.0
H2648 H 0.9867 0.35494 0.97865 0.0
H2649 H 0.9278 0.30167 0.90551 0.0
H2650 H 0.94451 0.27438 0.91054 0.0
H2651 H 0.97789 0.26719 0.93211 0.0
H2652 H 0.03738 0.32239 1.00152 0.0
H2653 H 0.01828 0.34743 1.00195 0.0
C2654 C 0.97736 0.33731 0.96392 0.0
C2655 C 0.9562 0.33042 0.94143 0.0
C2656 C 0.98722 0.3221 0.96632 0.0
C2657 C 0.94425 0.30744 0.92282 0.0
C2658 C 0.95379 0.29186 0.92566 0.0
C2659 C 0.98631 0.28456 0.94765 0.0
C2660 C 1.00883 0.29318 0.96673 0.0
C2661 C 0.97553 0.29919 0.94679 0.0
C2662 C 0.01999 0.31568 0.9866 0.0
C2663 C 1.00914 0.32995 0.98681 0.0
H2664 H 0.7221 0.75741 0.62847 0.0
H2665 H 0.72473 0.70243 0.55572 0.0
H2666 H 0.68052 0.67868 0.5541 0.0
H2667 H 0.64192 0.67194 0.57783 0.0
H2668 H 0.63775 0.72444 0.65528 0.0
H2669 H 0.68192 0.75108 0.6504 0.0
C2670 C 0.71277 0.74037 0.612 0.0
C2671 C 0.72618 0.73137 0.59243 0.0
C2672 C 0.68733 0.72642 0.6123 0.0
C2673 C 0.71439 0.70934 0.5712 0.0
C2674 C 0.68926 0.69584 0.57025 0.0
C2675 C 0.65054 0.68927 0.59352 0.0
C2676 C 0.63671 0.69611 0.61726 0.0
C2677 C 0.67564 0.70394 0.59146 0.0
C2678 C 0.64815 0.71874 0.63701 0.0
C2679 C 0.67334 0.73391 0.6343 0.0
H2680 H 0.31018 0.92806 0.62471 0.0
H2681 H 0.37702 0.98981 0.58251 0.0
H2682 H 0.35644 0.01248 0.57103 0.0
H2683 H 0.32079 0.01631 0.57714 0.0
H2684 H 0.25306 0.956 0.61776 0.0
H2685 H 0.27247 0.93095 0.62503 0.0
C2686 C 0.32009 0.94641 0.61282 0.0
C2687 C 0.34512 0.95727 0.60494 0.0
C2688 C 0.30806 0.95956 0.60592 0.0
C2689 C 0.35776 0.98096 0.58903 0.0
C2690 C 0.34606 0.99404 0.5824 0.0
C2691 C 0.31024 0.99756 0.58721 0.0
C2692 C 0.28584 0.9879 0.59742 0.0
C2693 C 0.32142 0.98369 0.59135 0.0
C2694 C 0.27201 0.96361 0.6098 0.0
C2695 C 0.28314 0.94946 0.61419 0.0
H2696 H 0.07365 0.3835 0.67782 0.0
H2697 H 0.08786 0.39915 0.55097 0.0
H2698 H 0.07026 0.35575 0.53603 0.0
H2699 H 0.04629 0.31325 0.55846 0.0
H2700 H 0.02705 0.29777 0.68414 0.0
H2701 H 0.05128 0.34104 0.70064 0.0
C2702 C 0.07333 0.37727 0.64715 0.0
C2703 C 0.08205 0.39406 0.61548 0.0
C2704 C 0.06206 0.35235 0.63872 0.0
C2705 C 0.08122 0.38619 0.57562 0.0
C2706 C 0.07112 0.36149 0.56714 0.0
C2707 C 0.0479 0.31946 0.58947 0.0
C2708 C 0.03512 0.3027 0.62013 0.0
C2709 C 0.06082 0.34437 0.59831 0.0
C2710 C 0.03681 0.31064 0.6602 0.0
C2711 C 0.05059 0.33528 0.66958 0.0
H2712 H 0.97819 0.6017 0.75114 0.0
H2713 H 0.97288 0.64101 0.85307 0.0
H2714 H 0.01712 0.66486 0.85812 0.0
H2715 H 0.05677 0.67754 0.82869 0.0
H2716 H 0.06288 0.6391 0.72595 0.0
H2717 H 0.01888 0.6115 0.72632 0.0
C2718 C 0.98692 0.61513 0.77486 0.0
C2719 C 0.97278 0.61983 0.80175 0.0
C2720 C 1.01233 0.62897 0.77716 0.0
C2721 C 0.9838 0.63728 0.83229 0.0
C2722 C 1.00897 0.65091 0.83505 0.0
C2723 C 0.04849 0.66293 0.80669 0.0
C2724 C 0.06283 0.66054 0.77695 0.0
C2725 C 0.02336 0.6474 0.8069 0.0
C2726 C 0.05206 0.64131 0.74904 0.0
C2727 C 0.02694 0.62563 0.74911 0.0
H2728 H 0.42758 0.38229 0.77327 0.0
H2729 H 0.36339 0.31434 0.80309 0.0
H2730 H 0.33916 0.33411 0.804 0.0
H2731 H 0.33556 0.36967 0.79352 0.0
H2732 H 0.39797 0.43761 0.75816 0.0
H2733 H 0.42366 0.41897 0.76231 0.0
C2734 C 0.40832 0.37201 0.78005 0.0
C2735 C 0.39715 0.34697 0.78774 0.0
C2736 C 0.39423 0.3834 0.77947 0.0
C2737 C 0.37222 0.33362 0.79646 0.0
C2738 C 0.35837 0.34488 0.79718 0.0
C2739 C 0.35484 0.38055 0.78709 0.0
C2740 C 0.36491 0.40494 0.77573 0.0
C2741 C 0.36912 0.36963 0.78831 0.0
C2742 C 0.38985 0.41871 0.76698 0.0
C2743 C 0.40449 0.40807 0.7693 0.0
H2744 H 0.68774 0.05364 0.73709 0.0
H2745 H 0.64094 0.05752 0.82765 0.0
H2746 H 0.61385 0.01358 0.82333 0.0
H2747 H 0.60607 0.97347 0.79907 0.0
H2748 H 0.65408 0.97015 0.71077 0.0
H2749 H 0.678 0.01451 0.70845 0.0
C2750 C 0.6715 0.04492 0.75563 0.0
C2751 C 0.66655 0.05867 0.78309 0.0
C2752 C 0.65624 0.01975 0.75336 0.0
C2753 C 0.64525 0.04722 0.80649 0.0
C2754 C 0.62976 0.02211 0.80411 0.0
C2755 C 0.62144 0.98266 0.77877 0.0
C2756 C 0.6285 0.96905 0.75502 0.0
C2757 C 0.63542 1.00811 0.7784 0.0
C2758 C 0.64851 0.98067 0.72907 0.0
C2759 C 0.66219 1.0059 0.72791 0.0
H2760 H 0.3776 0.04945 0.25933 0.0
H2761 H 0.44404 0.05709 0.30784 0.0
H2762 H 0.42769 0.0132 0.30098 0.0
H2763 H 0.39313 0.97212 0.28474 0.0
H2764 H 0.32627 0.96564 0.24101 0.0
H2765 H 0.34423 1.00966 0.24201 0.0
C2766 C 0.38864 0.0416 0.26812 0.0
C2767 C 0.41191 0.05641 0.28418 0.0
C2768 C 0.37899 0.01653 0.26499 0.0
C2769 C 0.42595 0.04595 0.29556 0.0
C2770 C 0.41664 0.0209 0.29164 0.0
C2771 C 0.38276 0.98055 0.27514 0.0
C2772 C 0.35852 0.96599 0.26304 0.0
C2773 C 0.39301 1.00593 0.27693 0.0
C2774 C 0.34496 0.97675 0.2508 0.0
C2775 C 0.35518 1.00183 0.25131 0.0
H2776 H 0.98108 0.36622 0.34447 0.0
H2777 H 0.96634 0.36698 0.21767 0.0
H2778 H 1.0098 0.39318 0.20397 0.0
H2779 H 0.05204 0.41124 0.22719 0.0
H2780 H 0.06662 0.40519 0.35254 0.0
H2781 H 0.02329 0.38593 0.3682 0.0
C2782 C 0.98752 0.3727 0.31411 0.0
C2783 C 0.97099 0.36514 0.28208 0.0
C2784 C 1.01245 0.38653 0.30633 0.0
C2785 C 0.97911 0.37292 0.24259 0.0
C2786 C 1.00383 0.38773 0.23482 0.0
C2787 C 0.04564 0.4061 0.25798 0.0
C2788 C 0.06215 0.40947 0.28874 0.0
C2789 C 0.02071 0.39399 0.26627 0.0
C2790 C 0.05394 0.40253 0.3285 0.0
C2791 C 0.02927 0.39155 0.33741 0.0
H2792 H 0.62094 0.65443 0.21666 0.0
H2793 H 0.6129 0.65876 0.3451 0.0
H2794 H 0.63096 0.63316 0.3573 0.0
H2795 H 0.65428 0.6147 0.33157 0.0
H2796 H 0.66775 0.61597 0.20378 0.0
H2797 H 0.64217 0.63389 0.19069 0.0
C2798 C 0.62262 0.64914 0.24713 0.0
C2799 C 0.61559 0.65807 0.27999 0.0
C2800 C 0.63425 0.63568 0.25387 0.0
C2801 C 0.61822 0.65181 0.31953 0.0
C2802 C 0.6286 0.63733 0.32645 0.0
C2803 C 0.65104 0.61841 0.3009 0.0
C2804 C 0.66261 0.6141 0.26861 0.0
C2805 C 0.63745 0.62989 0.29392 0.0
C2806 C 0.65888 0.61928 0.22894 0.0
C2807 C 0.64436 0.62954 0.22151 0.0
loop_
_geom_bond_atom_site_label_1
_geom_bond_atom_site_label_2
_geom_bond_distance
_geom_bond_site_symmetry_2
_ccdc_geom_bond_type
Co0 N5 2.057 . S
Co0 O17 2.021 . S
Co0 O20 2.062 . S
Co0 O24 2.117 . S
Co0 O25 2.020 . S
C1 O21 1.280 . S
C1 O24 1.263 . S
Co2 N11 2.057 . S
Co2 O18 2.117 . S
Co2 O19 2.020 . S
Co2 O21 2.021 . S
Co2 O26 2.062 . S
C3 N5 1.316 . S
C3 N6 1.347 1_554 S
C3 H8 0.931 . S
C4 N5 1.375 1_556 S
C4 C7 1.350 . S
C4 H9 0.930 . S
N5 Co0 2.057 . S
N5 C3 1.316 . S
N5 C4 1.375 1_554 S
N6 C3 1.347 1_556 S
N6 C7 1.373 . S
C7 C4 1.350 . S
C7 N6 1.373 . S
C7 H28 0.931 . S
H8 C3 0.931 . S
H9 C4 0.930 . S
C10 O17 1.259 . S
C10 O18 1.258 . S
N11 Co2 2.057 . S
N11 C12 1.316 . S
N11 C13 1.375 . S
C12 N11 1.316 . S
C12 N14 1.347 . S
C12 H23 0.931 . S
C13 N11 1.375 . S
C13 C15 1.350 . S
C13 H22 0.930 . S
N14 C12 1.347 . S
N14 C15 1.373 . S
C15 C13 1.350 . S
C15 N14 1.373 . S
C15 H29 0.931 . S
C16 O19 1.256 . S
C16 O20 1.255 . S
O17 Co0 2.021 . S
O17 C10 1.259 . S
O18 Co2 2.117 . S
O18 C10 1.258 . S
O19 Co2 2.020 . S
O19 C16 1.256 . S
O20 Co0 2.062 . S
O20 C16 1.255 . S
O21 C1 1.280 . S
O21 Co2 2.021 . S
H22 C13 0.930 . S
H23 C12 0.931 . S
O24 Co0 2.117 . S
O24 C1 1.263 . S
O25 Co0 2.020 . S
O25 C27 1.256 . S
O26 Co2 2.062 . S
O26 C27 1.255 . S
C27 O25 1.256 . S
C27 O26 1.255 . S
H28 C7 0.931 . S
H29 C15 0.931 . S
Co30 N35 2.057 1_545 S
Co30 O47 2.021 . S
Co30 O50 2.062 1_545 S
Co30 O54 2.117 . S
Co30 O55 2.020 . S
C31 O51 1.281 . S
C31 O54 1.263 . S
Co32 N41 2.057 . S
Co32 O48 2.117 . S
Co32 O49 2.020 . S
Co32 O51 2.021 . S
Co32 O56 2.062 . S
C33 N35 1.316 . S
C33 N36 1.347 1_554 S
C33 H38 0.931 . S
C34 N35 1.375 1_556 S
C34 C37 1.350 . S
C34 H39 0.930 . S
N35 Co30 2.057 1_565 S
N35 C33 1.316 . S
N35 C34 1.375 1_554 S
N36 C33 1.347 1_556 S
N36 C37 1.373 . S
C37 C34 1.350 . S
C37 N36 1.373 . S
C37 H58 0.931 . S
H38 C33 0.931 . S
H39 C34 0.930 . S
C40 O47 1.259 . S
C40 O48 1.258 . S
N41 Co32 2.057 . S
N41 C42 1.316 . S
N41 C43 1.375 . S
C42 N41 1.316 . S
C42 N44 1.347 . S
C42 H53 0.931 . S
C43 N41 1.375 . S
C43 C45 1.350 . S
C43 H52 0.930 . S
N44 C42 1.347 . S
N44 C45 1.373 . S
C45 C43 1.350 . S
C45 N44 1.373 . S
C45 H59 0.931 . S
C46 O49 1.256 . S
C46 O50 1.255 1_545 S
O47 Co30 2.021 . S
O47 C40 1.259 . S
O48 Co32 2.117 . S
O48 C40 1.258 . S
O49 Co32 2.020 . S
O49 C46 1.256 . S
O50 Co30 2.062 1_565 S
O50 C46 1.255 1_565 S
O51 C31 1.281 . S
O51 Co32 2.021 . S
H52 C43 0.930 . S
H53 C42 0.931 . S
O54 Co30 2.117 . S
O54 C31 1.263 . S
O55 Co30 2.020 . S
O55 C57 1.256 . S
O56 Co32 2.062 . S
O56 C57 1.255 . S
C57 O55 1.256 . S
C57 O56 1.255 . S
H58 C37 0.931 . S
H59 C45 0.931 . S
Co60 N65 2.057 1_655 S
Co60 O77 2.021 . S
Co60 O80 2.062 1_655 S
Co60 O84 2.117 . S
Co60 O85 2.020 . S
C61 O81 1.280 . S
C61 O84 1.263 . S
Co62 N71 2.057 . S
Co62 O78 2.117 . S
Co62 O79 2.020 . S
Co62 O81 2.021 . S
Co62 O86 2.062 . S
C63 N65 1.316 . S
C63 N66 1.347 1_554 S
C63 H68 0.931 . S
C64 N65 1.375 1_556 S
C64 C67 1.350 . S
C64 H69 0.930 . S
N65 Co60 2.057 1_455 S
N65 C63 1.316 . S
N65 C64 1.375 1_554 S
N66 C63 1.347 1_556 S
N66 C67 1.373 . S
C67 C64 1.350 . S
C67 N66 1.373 . S
C67 H88 0.931 . S
H68 C63 0.931 . S
H69 C64 0.930 . S
C70 O77 1.259 . S
C70 O78 1.258 . S
N71 Co62 2.057 . S
N71 C72 1.316 . S
N71 C73 1.375 . S
C72 N71 1.316 . S
C72 N74 1.347 . S
C72 H83 0.931 . S
C73 N71 1.375 . S
C73 C75 1.350 . S
C73 H82 0.930 . S
N74 C72 1.347 . S
N74 C75 1.373 . S
C75 C73 1.350 . S
C75 N74 1.373 . S
C75 H89 0.931 . S
C76 O79 1.256 . S
C76 O80 1.255 1_655 S
O77 Co60 2.021 . S
O77 C70 1.259 . S
O78 Co62 2.117 . S
O78 C70 1.258 . S
O79 Co62 2.020 . S
O79 C76 1.256 . S
O80 Co60 2.062 1_455 S
O80 C76 1.255 1_455 S
O81 C61 1.280 . S
O81 Co62 2.021 . S
H82 C73 0.930 . S
H83 C72 0.931 . S
O84 Co60 2.117 . S
O84 C61 1.263 . S
O85 Co60 2.020 . S
O85 C87 1.256 . S
O86 Co62 2.062 . S
O86 C87 1.255 . S
C87 O85 1.256 . S
C87 O86 1.255 . S
H88 C67 0.931 . S
H89 C75 0.931 . S
Co90 N95 2.057 . S
Co90 O107 2.021 . S
Co90 O110 2.062 . S
Co90 O114 2.117 . S
Co90 O115 2.020 . S
C91 O111 1.259 . S
C91 O114 1.258 . S
Co92 N101 2.057 . S
Co92 O108 2.117 . S
Co92 O109 2.020 . S
Co92 O111 2.021 . S
Co92 O116 2.062 . S
C93 N95 1.316 . S
C93 N96 1.347 . S
C93 H98 0.931 . S
C94 N95 1.375 . S
C94 C97 1.350 . S
C94 H99 0.930 . S
N95 Co90 2.057 . S
N95 C93 1.316 . S
N95 C94 1.375 . S
N96 C93 1.347 . S
N96 C97 1.373 . S
C97 C94 1.350 . S
C97 N96 1.373 . S
C97 H118 0.931 . S
H98 C93 0.931 . S
H99 C94 0.930 . S
C100 O107 1.259 . S
C100 O108 1.258 . S
N101 Co92 2.057 . S
N101 C102 1.316 . S
N101 C103 1.375 . S
C102 N101 1.316 . S
C102 N104 1.347 . S
C102 H113 0.931 . S
C103 N101 1.375 . S
C103 C105 1.350 . S
C103 H112 0.930 . S
N104 C102 1.347 . S
N104 C105 1.373 . S
C105 C103 1.350 . S
C105 N104 1.373 . S
C105 H119 0.931 . S
C106 O109 1.256 . S
C106 O110 1.255 . S
O107 Co90 2.021 . S
O107 C100 1.259 . S
O108 Co92 2.117 . S
O108 C100 1.258 . S
O109 Co92 2.020 . S
O109 C106 1.256 . S
O110 Co90 2.062 . S
O110 C106 1.255 . S
O111 C91 1.259 . S
O111 Co92 2.021 . S
H112 C103 0.930 . S
H113 C102 0.931 . S
O114 Co90 2.117 . S
O114 C91 1.258 . S
O115 Co90 2.020 . S
O115 C117 1.256 . S
O116 Co92 2.062 . S
O116 C117 1.255 . S
C117 O115 1.256 . S
C117 O116 1.255 . S
H118 C97 0.931 . S
H119 C105 0.931 . S
Co120 N125 2.057 1_565 S
Co120 O137 2.021 . S
Co120 O140 2.062 1_565 S
Co120 O144 2.117 . S
Co120 O145 2.020 . S
C121 O141 1.259 . S
C121 O144 1.258 . S
Co122 N131 2.057 . S
Co122 O138 2.117 . S
Co122 O139 2.020 . S
Co122 O141 2.021 . S
Co122 O146 2.062 . S
C123 N125 1.316 . S
C123 N126 1.347 . S
C123 H128 0.931 . S
C124 N125 1.375 . S
C124 C127 1.350 . S
C124 H129 0.930 . S
N125 Co120 2.057 1_545 S
N125 C123 1.316 . S
N125 C124 1.375 . S
N126 C123 1.347 . S
N126 C127 1.373 . S
C127 C124 1.350 . S
C127 N126 1.373 . S
C127 H148 0.931 . S
H128 C123 0.931 . S
H129 C124 0.930 . S
C130 O137 1.259 . S
C130 O138 1.258 . S
N131 Co122 2.057 . S
N131 C132 1.316 . S
N131 C133 1.375 . S
C132 N131 1.316 . S
C132 N134 1.347 . S
C132 H143 0.931 . S
C133 N131 1.375 . S
C133 C135 1.350 . S
C133 H142 0.930 . S
N134 C132 1.347 . S
N134 C135 1.373 . S
C135 C133 1.350 . S
C135 N134 1.373 . S
C135 H149 0.931 . S
C136 O139 1.256 . S
C136 O140 1.255 1_565 S
O137 Co120 2.021 . S
O137 C130 1.259 . S
O138 Co122 2.117 . S
O138 C130 1.258 . S
O139 Co122 2.020 . S
O139 C136 1.256 . S
O140 Co120 2.062 1_545 S
O140 C136 1.255 1_545 S
O141 C121 1.259 . S
O141 Co122 2.021 . S
H142 C133 0.930 . S
H143 C132 0.931 . S
O144 Co120 2.117 . S
O144 C121 1.258 . S
O145 Co120 2.020 . S
O145 C147 1.256 . S
O146 Co122 2.062 . S
O146 C147 1.255 . S
C147 O145 1.256 . S
C147 O146 1.255 . S
H148 C127 0.931 . S
H149 C135 0.931 . S
Co150 N155 2.057 1_455 S
Co150 O167 2.021 . S
Co150 O170 2.062 1_455 S
Co150 O174 2.117 . S
Co150 O175 2.020 . S
C151 O171 1.259 . S
C151 O174 1.258 . S
Co152 N161 2.057 . S
Co152 O168 2.117 . S
Co152 O169 2.020 . S
Co152 O171 2.021 . S
Co152 O176 2.062 . S
C153 N155 1.316 . S
C153 N156 1.347 . S
C153 H158 0.931 . S
C154 N155 1.375 . S
C154 C157 1.350 . S
C154 H159 0.930 . S
N155 Co150 2.057 1_655 S
N155 C153 1.316 . S
N155 C154 1.375 . S
N156 C153 1.347 . S
N156 C157 1.373 . S
C157 C154 1.350 . S
C157 N156 1.373 . S
C157 H178 0.931 . S
H158 C153 0.931 . S
H159 C154 0.930 . S
C160 O167 1.259 . S
C160 O168 1.258 . S
N161 Co152 2.057 . S
N161 C162 1.316 . S
N161 C163 1.375 . S
C162 N161 1.316 . S
C162 N164 1.347 . S
C162 H173 0.931 . S
C163 N161 1.375 . S
C163 C165 1.350 . S
C163 H172 0.930 . S
N164 C162 1.347 . S
N164 C165 1.373 . S
C165 C163 1.350 . S
C165 N164 1.373 . S
C165 H179 0.931 . S
C166 O169 1.256 . S
C166 O170 1.255 1_455 S
O167 Co150 2.021 . S
O167 C160 1.259 . S
O168 Co152 2.117 . S
O168 C160 1.258 . S
O169 Co152 2.020 . S
O169 C166 1.256 . S
O170 Co150 2.062 1_655 S
O170 C166 1.255 1_655 S
O171 C151 1.259 . S
O171 Co152 2.021 . S
H172 C163 0.930 . S
H173 C162 0.931 . S
O174 Co150 2.117 . S
O174 C151 1.258 . S
O175 Co150 2.020 . S
O175 C177 1.256 . S
O176 Co152 2.062 . S
O176 C177 1.255 . S
C177 O175 1.256 . S
C177 O176 1.255 . S
H178 C157 0.931 . S
H179 C165 0.931 . S
Co180 N185 2.057 . S
Co180 O197 2.021 . S
Co180 O200 2.062 . S
Co180 O204 2.117 . S
Co180 O205 2.020 . S
C181 O201 1.259 . S
C181 O204 1.258 . S
Co182 N191 2.057 . S
Co182 O198 2.117 . S
Co182 O199 2.020 . S
Co182 O201 2.021 . S
Co182 O206 2.062 . S
C183 N185 1.316 . S
C183 N186 1.347 . S
C183 H188 0.931 . S
C184 N185 1.375 . S
C184 C187 1.350 . S
C184 H189 0.930 . S
N185 Co180 2.057 . S
N185 C183 1.316 . S
N185 C184 1.375 . S
N186 C183 1.347 . S
N186 C187 1.373 . S
C187 C184 1.350 . S
C187 N186 1.373 . S
C187 H208 0.931 . S
H188 C183 0.931 . S
H189 C184 0.930 . S
C190 O197 1.280 . S
C190 O198 1.263 . S
N191 Co182 2.057 . S
N191 C192 1.316 . S
N191 C193 1.375 1_556 S
C192 N191 1.316 . S
C192 N194 1.347 1_556 S
C192 H203 0.931 . S
C193 N191 1.375 1_554 S
C193 C195 1.350 . S
C193 H202 0.930 . S
N194 C192 1.347 1_554 S
N194 C195 1.373 . S
C195 C193 1.350 . S
C195 N194 1.373 . S
C195 H209 0.931 . S
C196 O199 1.256 . S
C196 O200 1.255 . S
O197 Co180 2.021 . S
O197 C190 1.280 . S
O198 Co182 2.117 . S
O198 C190 1.263 . S
O199 Co182 2.020 . S
O199 C196 1.256 . S
O200 Co180 2.062 . S
O200 C196 1.255 . S
O201 C181 1.259 . S
O201 Co182 2.021 . S
H202 C193 0.930 . S
H203 C192 0.931 . S
O204 Co180 2.117 . S
O204 C181 1.258 . S
O205 Co180 2.020 . S
O205 C207 1.256 . S
O206 Co182 2.062 . S
O206 C207 1.255 . S
C207 O205 1.256 . S
C207 O206 1.255 . S
H208 C187 0.931 . S
H209 C195 0.931 . S
Co210 N215 2.057 . S
Co210 O227 2.021 . S
Co210 O230 2.062 . S
Co210 O234 2.117 . S
Co210 O235 2.020 . S
C211 O231 1.259 . S
C211 O234 1.258 . S
Co212 N221 2.057 1_565 S
Co212 O228 2.117 . S
Co212 O229 2.020 . S
Co212 O231 2.021 . S
Co212 O236 2.062 1_565 S
C213 N215 1.316 . S
C213 N216 1.347 . S
C213 H218 0.931 . S
C214 N215 1.375 . S
C214 C217 1.350 . S
C214 H219 0.930 . S
N215 Co210 2.057 . S
N215 C213 1.316 . S
N215 C214 1.375 . S
N216 C213 1.347 . S
N216 C217 1.373 . S
C217 C214 1.350 . S
C217 N216 1.373 . S
C217 H238 0.931 . S
H218 C213 0.931 . S
H219 C214 0.930 . S
C220 O227 1.281 . S
C220 O228 1.263 . S
N221 Co212 2.057 1_545 S
N221 C222 1.316 . S
N221 C223 1.375 1_556 S
C222 N221 1.316 . S
C222 N224 1.347 1_556 S
C222 H233 0.931 . S
C223 N221 1.375 1_554 S
C223 C225 1.350 . S
C223 H232 0.930 . S
N224 C222 1.347 1_554 S
N224 C225 1.373 . S
C225 C223 1.350 . S
C225 N224 1.373 . S
C225 H239 0.931 . S
C226 O229 1.256 . S
C226 O230 1.255 . S
O227 Co210 2.021 . S
O227 C220 1.281 . S
O228 Co212 2.117 . S
O228 C220 1.263 . S
O229 Co212 2.020 . S
O229 C226 1.256 . S
O230 Co210 2.062 . S
O230 C226 1.255 . S
O231 C211 1.259 . S
O231 Co212 2.021 . S
H232 C223 0.930 . S
H233 C222 0.931 . S
O234 Co210 2.117 . S
O234 C211 1.258 . S
O235 Co210 2.020 . S
O235 C237 1.256 . S
O236 Co212 2.062 1_545 S
O236 C237 1.255 1_545 S
C237 O235 1.256 . S
C237 O236 1.255 1_565 S
H238 C217 0.931 . S
H239 C225 0.931 . S
Co240 N245 2.057 . S
Co240 O257 2.021 . S
Co240 O260 2.062 . S
Co240 O264 2.117 . S
Co240 O265 2.020 . S
C241 O261 1.259 . S
C241 O264 1.258 . S
Co242 N251 2.057 1_455 S
Co242 O258 2.117 . S
Co242 O259 2.020 . S
Co242 O261 2.021 . S
Co242 O266 2.062 1_455 S
C243 N245 1.316 . S
C243 N246 1.347 . S
C243 H248 0.931 . S
C244 N245 1.375 . S
C244 C247 1.350 . S
C244 H249 0.930 . S
N245 Co240 2.057 . S
N245 C243 1.316 . S
N245 C244 1.375 . S
N246 C243 1.347 . S
N246 C247 1.373 . S
C247 C244 1.350 . S
C247 N246 1.373 . S
C247 H268 0.931 . S
H248 C243 0.931 . S
H249 C244 0.930 . S
C250 O257 1.280 . S
C250 O258 1.263 . S
N251 Co242 2.057 1_655 S
N251 C252 1.316 . S
N251 C253 1.375 1_556 S
C252 N251 1.316 . S
C252 N254 1.347 1_556 S
C252 H263 0.931 . S
C253 N251 1.375 1_554 S
C253 C255 1.350 . S
C253 H262 0.930 . S
N254 C252 1.347 1_554 S
N254 C255 1.373 . S
C255 C253 1.350 . S
C255 N254 1.373 . S
C255 H269 0.931 . S
C256 O259 1.256 . S
C256 O260 1.255 . S
O257 Co240 2.021 . S
O257 C250 1.280 . S
O258 Co242 2.117 . S
O258 C250 1.263 . S
O259 Co242 2.020 . S
O259 C256 1.256 . S
O260 Co240 2.062 . S
O260 C256 1.255 . S
O261 C241 1.259 . S
O261 Co242 2.021 . S
H262 C253 0.930 . S
H263 C252 0.931 . S
O264 Co240 2.117 . S
O264 C241 1.258 . S
O265 Co240 2.020 . S
O265 C267 1.256 . S
O266 Co242 2.062 1_655 S
O266 C267 1.255 1_655 S
C267 O265 1.256 . S
C267 O266 1.255 1_455 S
H268 C247 0.931 . S
H269 C255 0.931 . S
Co270 N275 2.057 . S
Co270 O287 2.021 . S
Co270 O290 2.062 . S
Co270 O294 2.117 . S
Co270 O295 2.020 . S
C271 O291 1.259 . S
C271 O294 1.258 . S
Co272 N281 2.057 . S
Co272 O288 2.117 . S
Co272 O289 2.020 . S
Co272 O291 2.021 . S
Co272 O296 2.062 . S
C273 N275 1.316 . S
C273 N276 1.347 . S
C273 H278 0.931 . S
C274 N275 1.375 . S
C274 C277 1.350 . S
C274 H279 0.930 . S
N275 Co270 2.057 . S
N275 C273 1.316 . S
N275 C274 1.375 . S
N276 C273 1.347 . S
N276 C277 1.373 . S
C277 C274 1.350 . S
C277 N276 1.373 . S
C277 H298 0.931 . S
H278 C273 0.931 . S
H279 C274 0.930 . S
C280 O287 1.259 . S
C280 O288 1.258 . S
N281 Co272 2.057 . S
N281 C282 1.316 . S
N281 C283 1.375 . S
C282 N281 1.316 . S
C282 N284 1.347 . S
C282 H293 0.931 . S
C283 N281 1.375 . S
C283 C285 1.350 . S
C283 H292 0.930 . S
N284 C282 1.347 . S
N284 C285 1.373 . S
C285 C283 1.350 . S
C285 N284 1.373 . S
C285 H299 0.931 . S
C286 O289 1.256 . S
C286 O290 1.255 . S
O287 Co270 2.021 . S
O287 C280 1.259 . S
O288 Co272 2.117 . S
O288 C280 1.258 . S
O289 Co272 2.020 . S
O289 C286 1.256 . S
O290 Co270 2.062 . S
O290 C286 1.255 . S
O291 C271 1.259 . S
O291 Co272 2.021 . S
H292 C283 0.930 . S
H293 C282 0.931 . S
O294 Co270 2.117 . S
O294 C271 1.258 . S
O295 Co270 2.020 . S
O295 C297 1.256 . S
O296 Co272 2.062 . S
O296 C297 1.255 . S
C297 O295 1.256 . S
C297 O296 1.255 . S
H298 C277 0.931 . S
H299 C285 0.931 . S
Co300 N305 2.057 . S
Co300 O317 2.021 . S
Co300 O320 2.062 . S
Co300 O324 2.117 . S
Co300 O325 2.020 . S
C301 O321 1.259 . S
C301 O324 1.258 . S
Co302 N311 2.057 1_545 S
Co302 O318 2.117 . S
Co302 O319 2.020 . S
Co302 O321 2.021 . S
Co302 O326 2.062 1_545 S
C303 N305 1.316 . S
C303 N306 1.347 . S
C303 H308 0.931 . S
C304 N305 1.375 . S
C304 C307 1.350 . S
C304 H309 0.930 . S
N305 Co300 2.057 . S
N305 C303 1.316 . S
N305 C304 1.375 . S
N306 C303 1.347 . S
N306 C307 1.373 . S
C307 C304 1.350 . S
C307 N306 1.373 . S
C307 H328 0.931 . S
H308 C303 0.931 . S
H309 C304 0.930 . S
C310 O317 1.259 . S
C310 O318 1.258 . S
N311 Co302 2.057 1_565 S
N311 C312 1.316 . S
N311 C313 1.375 . S
C312 N311 1.316 . S
C312 N314 1.347 . S
C312 H323 0.931 . S
C313 N311 1.375 . S
C313 C315 1.350 . S
C313 H322 0.930 . S
N314 C312 1.347 . S
N314 C315 1.373 . S
C315 C313 1.350 . S
C315 N314 1.373 . S
C315 H329 0.931 . S
C316 O319 1.256 . S
C316 O320 1.255 . S
O317 Co300 2.021 . S
O317 C310 1.259 . S
O318 Co302 2.117 . S
O318 C310 1.258 . S
O319 Co302 2.020 . S
O319 C316 1.256 . S
O320 Co300 2.062 . S
O320 C316 1.255 . S
O321 C301 1.259 . S
O321 Co302 2.021 . S
H322 C313 0.930 . S
H323 C312 0.931 . S
O324 Co300 2.117 . S
O324 C301 1.258 . S
O325 Co300 2.020 . S
O325 C327 1.256 . S
O326 Co302 2.062 1_565 S
O326 C327 1.255 1_565 S
C327 O325 1.256 . S
C327 O326 1.255 1_545 S
H328 C307 0.931 . S
H329 C315 0.931 . S
Co330 N335 2.057 . S
Co330 O347 2.021 . S
Co330 O350 2.062 . S
Co330 O354 2.117 . S
Co330 O355 2.020 . S
C331 O351 1.259 . S
C331 O354 1.258 . S
Co332 N341 2.057 1_655 S
Co332 O348 2.117 . S
Co332 O349 2.020 . S
Co332 O351 2.021 . S
Co332 O356 2.062 1_655 S
C333 N335 1.316 . S
C333 N336 1.347 . S
C333 H338 0.931 . S
C334 N335 1.375 . S
C334 C337 1.350 . S
C334 H339 0.930 . S
N335 Co330 2.057 . S
N335 C333 1.316 . S
N335 C334 1.375 . S
N336 C333 1.347 . S
N336 C337 1.373 . S
C337 C334 1.350 . S
C337 N336 1.373 . S
C337 H358 0.931 . S
H338 C333 0.931 . S
H339 C334 0.930 . S
C340 O347 1.259 . S
C340 O348 1.258 . S
N341 Co332 2.057 1_455 S
N341 C342 1.316 . S
N341 C343 1.375 . S
C342 N341 1.316 . S
C342 N344 1.347 . S
C342 H353 0.931 . S
C343 N341 1.375 . S
C343 C345 1.350 . S
C343 H352 0.930 . S
N344 C342 1.347 . S
N344 C345 1.373 . S
C345 C343 1.350 . S
C345 N344 1.373 . S
C345 H359 0.931 . S
C346 O349 1.256 . S
C346 O350 1.255 . S
O347 Co330 2.021 . S
O347 C340 1.259 . S
O348 Co332 2.117 . S
O348 C340 1.258 . S
O349 Co332 2.020 . S
O349 C346 1.256 . S
O350 Co330 2.062 . S
O350 C346 1.255 . S
O351 C331 1.259 . S
O351 Co332 2.021 . S
H352 C343 0.930 . S
H353 C342 0.931 . S
O354 Co330 2.117 . S
O354 C331 1.258 . S
O355 Co330 2.020 . S
O355 C357 1.256 . S
O356 Co332 2.062 1_455 S
O356 C357 1.255 1_455 S
C357 O355 1.256 . S
C357 O356 1.255 1_655 S
H358 C337 0.931 . S
H359 C345 0.931 . S
Co360 N365 2.057 . S
Co360 O377 2.021 . S
Co360 O380 2.062 . S
Co360 O384 2.117 . S
Co360 O385 2.020 . S
C361 O381 1.259 . S
C361 O384 1.258 . S
Co362 N371 2.057 . S
Co362 O378 2.117 . S
Co362 O379 2.020 . S
Co362 O381 2.021 . S
Co362 O386 2.062 . S
C363 N365 1.316 . S
C363 N366 1.347 . S
C363 H368 0.931 . S
C364 N365 1.375 . S
C364 C367 1.350 . S
C364 H369 0.930 . S
N365 Co360 2.057 . S
N365 C363 1.316 . S
N365 C364 1.375 . S
N366 C363 1.347 . S
N366 C367 1.373 . S
C367 C364 1.350 . S
C367 N366 1.373 . S
C367 H388 0.931 . S
H368 C363 0.931 . S
H369 C364 0.930 . S
C370 O377 1.259 . S
C370 O378 1.258 . S
N371 Co362 2.057 . S
N371 C372 1.316 . S
N371 C373 1.375 . S
C372 N371 1.316 . S
C372 N374 1.347 . S
C372 H383 0.931 . S
C373 N371 1.375 . S
C373 C375 1.350 . S
C373 H382 0.930 . S
N374 C372 1.347 . S
N374 C375 1.373 . S
C375 C373 1.350 . S
C375 N374 1.373 . S
C375 H389 0.931 . S
C376 O379 1.256 . S
C376 O380 1.255 . S
O377 Co360 2.021 . S
O377 C370 1.259 . S
O378 Co362 2.117 . S
O378 C370 1.258 . S
O379 Co362 2.020 . S
O379 C376 1.256 . S
O380 Co360 2.062 . S
O380 C376 1.255 . S
O381 C361 1.259 . S
O381 Co362 2.021 . S
H382 C373 0.930 . S
H383 C372 0.931 . S
O384 Co360 2.117 . S
O384 C361 1.258 . S
O385 Co360 2.020 . S
O385 C387 1.256 . S
O386 Co362 2.062 . S
O386 C387 1.255 . S
C387 O385 1.256 . S
C387 O386 1.255 . S
H388 C367 0.931 . S
H389 C375 0.931 . S
Co390 N395 2.057 . S
Co390 O407 2.021 . S
Co390 O410 2.062 . S
Co390 O414 2.117 . S
Co390 O415 2.020 . S
C391 O411 1.259 . S
C391 O414 1.258 . S
Co392 N401 2.057 . S
Co392 O408 2.117 . S
Co392 O409 2.020 . S
Co392 O411 2.021 . S
Co392 O416 2.062 . S
C393 N395 1.316 . S
C393 N396 1.347 . S
C393 H398 0.931 . S
C394 N395 1.375 . S
C394 C397 1.350 . S
C394 H399 0.930 . S
N395 Co390 2.057 . S
N395 C393 1.316 . S
N395 C394 1.375 . S
N396 C393 1.347 . S
N396 C397 1.373 . S
C397 C394 1.350 . S
C397 N396 1.373 . S
C397 H418 0.931 . S
H398 C393 0.931 . S
H399 C394 0.930 . S
C400 O407 1.259 . S
C400 O408 1.258 . S
N401 Co392 2.057 . S
N401 C402 1.316 . S
N401 C403 1.375 . S
C402 N401 1.316 . S
C402 N404 1.347 . S
C402 H413 0.931 . S
C403 N401 1.375 . S
C403 C405 1.350 . S
C403 H412 0.930 . S
N404 C402 1.347 . S
N404 C405 1.373 . S
C405 C403 1.350 . S
C405 N404 1.373 . S
C405 H419 0.931 . S
C406 O409 1.256 . S
C406 O410 1.255 . S
O407 Co390 2.021 . S
O407 C400 1.259 . S
O408 Co392 2.117 . S
O408 C400 1.258 . S
O409 Co392 2.020 . S
O409 C406 1.256 . S
O410 Co390 2.062 . S
O410 C406 1.255 . S
O411 C391 1.259 . S
O411 Co392 2.021 . S
H412 C403 0.930 . S
H413 C402 0.931 . S
O414 Co390 2.117 . S
O414 C391 1.258 . S
O415 Co390 2.020 . S
O415 C417 1.256 . S
O416 Co392 2.062 . S
O416 C417 1.255 . S
C417 O415 1.256 . S
C417 O416 1.255 . S
H418 C397 0.931 . S
H419 C405 0.931 . S
Co420 N425 2.057 . S
Co420 O437 2.021 . S
Co420 O440 2.062 . S
Co420 O444 2.117 . S
Co420 O445 2.020 . S
C421 O441 1.259 . S
C421 O444 1.258 . S
Co422 N431 2.057 . S
Co422 O438 2.117 . S
Co422 O439 2.020 . S
Co422 O441 2.021 . S
Co422 O446 2.062 . S
C423 N425 1.316 . S
C423 N426 1.347 . S
C423 H428 0.931 . S
C424 N425 1.375 . S
C424 C427 1.350 . S
C424 H429 0.930 . S
N425 Co420 2.057 . S
N425 C423 1.316 . S
N425 C424 1.375 . S
N426 C423 1.347 . S
N426 C427 1.373 . S
C427 C424 1.350 . S
C427 N426 1.373 . S
C427 H448 0.931 . S
H428 C423 0.931 . S
H429 C424 0.930 . S
C430 O437 1.259 . S
C430 O438 1.258 . S
N431 Co422 2.057 . S
N431 C432 1.316 . S
N431 C433 1.375 . S
C432 N431 1.316 . S
C432 N434 1.347 . S
C432 H443 0.931 . S
C433 N431 1.375 . S
C433 C435 1.350 . S
C433 H442 0.930 . S
N434 C432 1.347 . S
N434 C435 1.373 . S
C435 C433 1.350 . S
C435 N434 1.373 . S
C435 H449 0.931 . S
C436 O439 1.256 . S
C436 O440 1.255 . S
O437 Co420 2.021 . S
O437 C430 1.259 . S
O438 Co422 2.117 . S
O438 C430 1.258 . S
O439 Co422 2.020 . S
O439 C436 1.256 . S
O440 Co420 2.062 . S
O440 C436 1.255 . S
O441 C421 1.259 . S
O441 Co422 2.021 . S
H442 C433 0.930 . S
H443 C432 0.931 . S
O444 Co420 2.117 . S
O444 C421 1.258 . S
O445 Co420 2.020 . S
O445 C447 1.256 . S
O446 Co422 2.062 . S
O446 C447 1.255 . S
C447 O445 1.256 . S
C447 O446 1.255 . S
H448 C427 0.931 . S
H449 C435 0.931 . S
Co450 N455 2.057 . S
Co450 O467 2.021 . S
Co450 O470 2.062 . S
Co450 O474 2.117 . S
Co450 O475 2.020 . S
C451 O471 1.259 . S
C451 O474 1.258 . S
Co452 N461 2.057 . S
Co452 O468 2.117 . S
Co452 O469 2.020 . S
Co452 O471 2.021 . S
Co452 O476 2.062 . S
C453 N455 1.316 . S
C453 N456 1.347 . S
C453 H458 0.931 . S
C454 N455 1.375 . S
C454 C457 1.350 . S
C454 H459 0.930 . S
N455 Co450 2.057 . S
N455 C453 1.316 . S
N455 C454 1.375 . S
N456 C453 1.347 . S
N456 C457 1.373 . S
C457 C454 1.350 . S
C457 N456 1.373 . S
C457 H478 0.931 . S
H458 C453 0.931 . S
H459 C454 0.930 . S
C460 O467 1.259 . S
C460 O468 1.258 . S
N461 Co452 2.057 . S
N461 C462 1.316 . S
N461 C463 1.375 . S
C462 N461 1.316 . S
C462 N464 1.347 . S
C462 H473 0.931 . S
C463 N461 1.375 . S
C463 C465 1.350 . S
C463 H472 0.930 . S
N464 C462 1.347 . S
N464 C465 1.373 . S
C465 C463 1.350 . S
C465 N464 1.373 . S
C465 H479 0.931 . S
C466 O469 1.256 . S
C466 O470 1.255 . S
O467 Co450 2.021 . S
O467 C460 1.259 . S
O468 Co452 2.117 . S
O468 C460 1.258 . S
O469 Co452 2.020 . S
O469 C466 1.256 . S
O470 Co450 2.062 . S
O470 C466 1.255 . S
O471 C451 1.259 . S
O471 Co452 2.021 . S
H472 C463 0.930 . S
H473 C462 0.931 . S
O474 Co450 2.117 . S
O474 C451 1.258 . S
O475 Co450 2.020 . S
O475 C477 1.256 . S
O476 Co452 2.062 . S
O476 C477 1.255 . S
C477 O475 1.256 . S
C477 O476 1.255 . S
H478 C457 0.931 . S
H479 C465 0.931 . S
Co480 N485 2.057 . S
Co480 O497 2.021 . S
Co480 O500 2.062 . S
Co480 O504 2.117 . S
Co480 O505 2.020 . S
C481 O501 1.259 . S
C481 O504 1.258 . S
Co482 N491 2.057 . S
Co482 O498 2.117 . S
Co482 O499 2.020 . S
Co482 O501 2.021 . S
Co482 O506 2.062 . S
C483 N485 1.316 . S
C483 N486 1.347 . S
C483 H488 0.931 . S
C484 N485 1.375 . S
C484 C487 1.350 . S
C484 H489 0.930 . S
N485 Co480 2.057 . S
N485 C483 1.316 . S
N485 C484 1.375 . S
N486 C483 1.347 . S
N486 C487 1.373 . S
C487 C484 1.350 . S
C487 N486 1.373 . S
C487 H508 0.931 . S
H488 C483 0.931 . S
H489 C484 0.930 . S
C490 O497 1.259 . S
C490 O498 1.258 . S
N491 Co482 2.057 . S
N491 C492 1.316 . S
N491 C493 1.375 . S
C492 N491 1.316 . S
C492 N494 1.347 . S
C492 H503 0.931 . S
C493 N491 1.375 . S
C493 C495 1.350 . S
C493 H502 0.930 . S
N494 C492 1.347 . S
N494 C495 1.373 . S
C495 C493 1.350 . S
C495 N494 1.373 . S
C495 H509 0.931 . S
C496 O499 1.256 . S
C496 O500 1.255 . S
O497 Co480 2.021 . S
O497 C490 1.259 . S
O498 Co482 2.117 . S
O498 C490 1.258 . S
O499 Co482 2.020 . S
O499 C496 1.256 . S
O500 Co480 2.062 . S
O500 C496 1.255 . S
O501 C481 1.259 . S
O501 Co482 2.021 . S
H502 C493 0.930 . S
H503 C492 0.931 . S
O504 Co480 2.117 . S
O504 C481 1.258 . S
O505 Co480 2.020 . S
O505 C507 1.256 . S
O506 Co482 2.062 . S
O506 C507 1.255 . S
C507 O505 1.256 . S
C507 O506 1.255 . S
H508 C487 0.931 . S
H509 C495 0.931 . S
Co510 N515 2.057 . S
Co510 O527 2.021 . S
Co510 O530 2.062 . S
Co510 O534 2.117 . S
Co510 O535 2.020 . S
C511 O531 1.259 . S
C511 O534 1.258 . S
Co512 N521 2.057 . S
Co512 O528 2.117 . S
Co512 O529 2.020 . S
Co512 O531 2.021 . S
Co512 O536 2.062 . S
C513 N515 1.316 . S
C513 N516 1.347 . S
C513 H518 0.931 . S
C514 N515 1.375 . S
C514 C517 1.350 . S
C514 H519 0.930 . S
N515 Co510 2.057 . S
N515 C513 1.316 . S
N515 C514 1.375 . S
N516 C513 1.347 . S
N516 C517 1.373 . S
C517 C514 1.350 . S
C517 N516 1.373 . S
C517 H538 0.931 . S
H518 C513 0.931 . S
H519 C514 0.930 . S
C520 O527 1.259 . S
C520 O528 1.258 . S
N521 Co512 2.057 . S
N521 C522 1.316 . S
N521 C523 1.375 . S
C522 N521 1.316 . S
C522 N524 1.347 . S
C522 H533 0.931 . S
C523 N521 1.375 . S
C523 C525 1.350 . S
C523 H532 0.930 . S
N524 C522 1.347 . S
N524 C525 1.373 . S
C525 C523 1.350 . S
C525 N524 1.373 . S
C525 H539 0.931 . S
C526 O529 1.256 . S
C526 O530 1.255 . S
O527 Co510 2.021 . S
O527 C520 1.259 . S
O528 Co512 2.117 . S
O528 C520 1.258 . S
O529 Co512 2.020 . S
O529 C526 1.256 . S
O530 Co510 2.062 . S
O530 C526 1.255 . S
O531 C511 1.259 . S
O531 Co512 2.021 . S
H532 C523 0.930 . S
H533 C522 0.931 . S
O534 Co510 2.117 . S
O534 C511 1.258 . S
O535 Co510 2.020 . S
O535 C537 1.256 . S
O536 Co512 2.062 . S
O536 C537 1.255 . S
C537 O535 1.256 . S
C537 O536 1.255 . S
H538 C517 0.931 . S
H539 C525 0.931 . S
Co540 N545 2.057 . S
Co540 O557 2.021 . S
Co540 O560 2.062 . S
Co540 O564 2.117 . S
Co540 O565 2.020 . S
C541 O561 1.259 . S
C541 O564 1.258 . S
Co542 N551 2.057 . S
Co542 O558 2.117 . S
Co542 O559 2.020 . S
Co542 O561 2.021 . S
Co542 O566 2.062 . S
C543 N545 1.316 . S
C543 N546 1.347 . S
C543 H548 0.931 . S
C544 N545 1.375 . S
C544 C547 1.350 . S
C544 H549 0.930 . S
N545 Co540 2.057 . S
N545 C543 1.316 . S
N545 C544 1.375 . S
N546 C543 1.347 . S
N546 C547 1.373 . S
C547 C544 1.350 . S
C547 N546 1.373 . S
C547 H568 0.931 . S
H548 C543 0.931 . S
H549 C544 0.930 . S
C550 O557 1.259 . S
C550 O558 1.258 . S
N551 Co542 2.057 . S
N551 C552 1.316 . S
N551 C553 1.375 . S
C552 N551 1.316 . S
C552 N554 1.347 . S
C552 H563 0.931 . S
C553 N551 1.375 . S
C553 C555 1.350 . S
C553 H562 0.930 . S
N554 C552 1.347 . S
N554 C555 1.373 . S
C555 C553 1.350 . S
C555 N554 1.373 . S
C555 H569 0.931 . S
C556 O559 1.256 . S
C556 O560 1.255 . S
O557 Co540 2.021 . S
O557 C550 1.259 . S
O558 Co542 2.117 . S
O558 C550 1.258 . S
O559 Co542 2.020 . S
O559 C556 1.256 . S
O560 Co540 2.062 . S
O560 C556 1.255 . S
O561 C541 1.259 . S
O561 Co542 2.021 . S
H562 C553 0.930 . S
H563 C552 0.931 . S
O564 Co540 2.117 . S
O564 C541 1.258 . S
O565 Co540 2.020 . S
O565 C567 1.256 . S
O566 Co542 2.062 . S
O566 C567 1.255 . S
C567 O565 1.256 . S
C567 O566 1.255 . S
H568 C547 0.931 . S
H569 C555 0.931 . S
Co570 N575 2.057 . S
Co570 O587 2.021 . S
Co570 O590 2.062 . S
Co570 O594 2.117 . S
Co570 O595 2.020 . S
C571 O591 1.259 . S
C571 O594 1.258 . S
Co572 N581 2.057 . S
Co572 O588 2.117 . S
Co572 O589 2.020 . S
Co572 O591 2.021 . S
Co572 O596 2.062 . S
C573 N575 1.316 . S
C573 N576 1.347 . S
C573 H578 0.931 . S
C574 N575 1.375 . S
C574 C577 1.350 . S
C574 H579 0.930 . S
N575 Co570 2.057 . S
N575 C573 1.316 . S
N575 C574 1.375 . S
N576 C573 1.347 . S
N576 C577 1.373 . S
C577 C574 1.350 . S
C577 N576 1.373 . S
C577 H598 0.931 . S
H578 C573 0.931 . S
H579 C574 0.930 . S
C580 O587 1.259 . S
C580 O588 1.258 . S
N581 Co572 2.057 . S
N581 C582 1.316 . S
N581 C583 1.375 . S
C582 N581 1.316 . S
C582 N584 1.347 . S
C582 H593 0.931 . S
C583 N581 1.375 . S
C583 C585 1.350 . S
C583 H592 0.930 . S
N584 C582 1.347 . S
N584 C585 1.373 . S
C585 C583 1.350 . S
C585 N584 1.373 . S
C585 H599 0.931 . S
C586 O589 1.256 . S
C586 O590 1.255 . S
O587 Co570 2.021 . S
O587 C580 1.259 . S
O588 Co572 2.117 . S
O588 C580 1.258 . S
O589 Co572 2.020 . S
O589 C586 1.256 . S
O590 Co570 2.062 . S
O590 C586 1.255 . S
O591 C571 1.259 . S
O591 Co572 2.021 . S
H592 C583 0.930 . S
H593 C582 0.931 . S
O594 Co570 2.117 . S
O594 C571 1.258 . S
O595 Co570 2.020 . S
O595 C597 1.256 . S
O596 Co572 2.062 . S
O596 C597 1.255 . S
C597 O595 1.256 . S
C597 O596 1.255 . S
H598 C577 0.931 . S
H599 C585 0.931 . S
Co600 N605 2.057 . S
Co600 O617 2.021 . S
Co600 O620 2.062 . S
Co600 O624 2.117 . S
Co600 O625 2.020 . S
C601 O621 1.259 . S
C601 O624 1.258 . S
Co602 N611 2.057 . S
Co602 O618 2.117 . S
Co602 O619 2.020 . S
Co602 O621 2.021 . S
Co602 O626 2.062 . S
C603 N605 1.316 . S
C603 N606 1.347 . S
C603 H608 0.931 . S
C604 N605 1.375 . S
C604 C607 1.350 . S
C604 H609 0.930 . S
N605 Co600 2.057 . S
N605 C603 1.316 . S
N605 C604 1.375 . S
N606 C603 1.347 . S
N606 C607 1.373 . S
C607 C604 1.350 . S
C607 N606 1.373 . S
C607 H628 0.931 . S
H608 C603 0.931 . S
H609 C604 0.930 . S
C610 O617 1.259 . S
C610 O618 1.258 . S
N611 Co602 2.057 . S
N611 C612 1.316 . S
N611 C613 1.375 . S
C612 N611 1.316 . S
C612 N614 1.347 . S
C612 H623 0.931 . S
C613 N611 1.375 . S
C613 C615 1.350 . S
C613 H622 0.930 . S
N614 C612 1.347 . S
N614 C615 1.373 . S
C615 C613 1.350 . S
C615 N614 1.373 . S
C615 H629 0.931 . S
C616 O619 1.256 . S
C616 O620 1.255 . S
O617 Co600 2.021 . S
O617 C610 1.259 . S
O618 Co602 2.117 . S
O618 C610 1.258 . S
O619 Co602 2.020 . S
O619 C616 1.256 . S
O620 Co600 2.062 . S
O620 C616 1.255 . S
O621 C601 1.259 . S
O621 Co602 2.021 . S
H622 C613 0.930 . S
H623 C612 0.931 . S
O624 Co600 2.117 . S
O624 C601 1.258 . S
O625 Co600 2.020 . S
O625 C627 1.256 . S
O626 Co602 2.062 . S
O626 C627 1.255 . S
C627 O625 1.256 . S
C627 O626 1.255 . S
H628 C607 0.931 . S
H629 C615 0.931 . S
Co630 N635 2.057 . S
Co630 O647 2.021 . S
Co630 O650 2.062 . S
Co630 O654 2.117 . S
Co630 O655 2.020 . S
C631 O651 1.259 . S
C631 O654 1.258 . S
Co632 N641 2.057 . S
Co632 O648 2.117 . S
Co632 O649 2.020 . S
Co632 O651 2.021 . S
Co632 O656 2.062 . S
C633 N635 1.316 . S
C633 N636 1.347 . S
C633 H638 0.931 . S
C634 N635 1.375 . S
C634 C637 1.350 . S
C634 H639 0.930 1_556 S
N635 Co630 2.057 . S
N635 C633 1.316 . S
N635 C634 1.375 . S
N636 C633 1.347 . S
N636 C637 1.373 . S
C637 C634 1.350 . S
C637 N636 1.373 . S
C637 H658 0.931 1_556 S
H638 C633 0.931 . S
H639 C634 0.930 1_554 S
C640 O647 1.259 . S
C640 O648 1.258 . S
N641 Co632 2.057 . S
N641 C642 1.316 . S
N641 C643 1.375 . S
C642 N641 1.316 . S
C642 N644 1.347 . S
C642 H653 0.931 . S
C643 N641 1.375 . S
C643 C645 1.350 . S
C643 H652 0.930 . S
N644 C642 1.347 . S
N644 C645 1.373 . S
C645 C643 1.350 . S
C645 N644 1.373 . S
C645 H659 0.931 . S
C646 O649 1.256 . S
C646 O650 1.255 . S
O647 Co630 2.021 . S
O647 C640 1.259 . S
O648 Co632 2.117 . S
O648 C640 1.258 . S
O649 Co632 2.020 . S
O649 C646 1.256 . S
O650 Co630 2.062 . S
O650 C646 1.255 . S
O651 C631 1.259 . S
O651 Co632 2.021 . S
H652 C643 0.930 . S
H653 C642 0.931 . S
O654 Co630 2.117 . S
O654 C631 1.258 . S
O655 Co630 2.020 . S
O655 C657 1.256 . S
O656 Co632 2.062 . S
O656 C657 1.255 . S
C657 O655 1.256 . S
C657 O656 1.255 . S
H658 C637 0.931 1_554 S
H659 C645 0.931 . S
Co660 N665 2.057 . S
Co660 O677 2.021 . S
Co660 O680 2.062 . S
Co660 O684 2.117 . S
Co660 O685 2.020 . S
C661 O681 1.259 . S
C661 O684 1.258 . S
Co662 N671 2.057 . S
Co662 O678 2.117 . S
Co662 O679 2.020 . S
Co662 O681 2.021 . S
Co662 O686 2.062 . S
C663 N665 1.316 . S
C663 N666 1.347 . S
C663 H668 0.931 . S
C664 N665 1.375 . S
C664 C667 1.350 . S
C664 H669 0.930 1_556 S
N665 Co660 2.057 . S
N665 C663 1.316 . S
N665 C664 1.375 . S
N666 C663 1.347 . S
N666 C667 1.373 . S
C667 C664 1.350 . S
C667 N666 1.373 . S
C667 H688 0.931 1_556 S
H668 C663 0.931 . S
H669 C664 0.930 1_554 S
C670 O677 1.259 . S
C670 O678 1.258 . S
N671 Co662 2.057 . S
N671 C672 1.316 . S
N671 C673 1.375 . S
C672 N671 1.316 . S
C672 N674 1.347 . S
C672 H683 0.931 . S
C673 N671 1.375 . S
C673 C675 1.350 . S
C673 H682 0.930 . S
N674 C672 1.347 . S
N674 C675 1.373 . S
C675 C673 1.350 . S
C675 N674 1.373 . S
C675 H689 0.931 . S
C676 O679 1.256 . S
C676 O680 1.255 . S
O677 Co660 2.021 . S
O677 C670 1.259 . S
O678 Co662 2.117 . S
O678 C670 1.258 . S
O679 Co662 2.020 . S
O679 C676 1.256 . S
O680 Co660 2.062 . S
O680 C676 1.255 . S
O681 C661 1.259 . S
O681 Co662 2.021 . S
H682 C673 0.930 . S
H683 C672 0.931 . S
O684 Co660 2.117 . S
O684 C661 1.258 . S
O685 Co660 2.020 . S
O685 C687 1.256 . S
O686 Co662 2.062 . S
O686 C687 1.255 . S
C687 O685 1.256 . S
C687 O686 1.255 . S
H688 C667 0.931 1_554 S
H689 C675 0.931 . S
Co690 N695 2.057 . S
Co690 O707 2.021 . S
Co690 O710 2.062 . S
Co690 O714 2.117 . S
Co690 O715 2.020 . S
C691 O711 1.259 . S
C691 O714 1.258 . S
Co692 N701 2.057 . S
Co692 O708 2.117 . S
Co692 O709 2.020 . S
Co692 O711 2.021 . S
Co692 O716 2.062 . S
C693 N695 1.316 . S
C693 N696 1.347 . S
C693 H698 0.931 . S
C694 N695 1.375 . S
C694 C697 1.350 . S
C694 H699 0.930 1_556 S
N695 Co690 2.057 . S
N695 C693 1.316 . S
N695 C694 1.375 . S
N696 C693 1.347 . S
N696 C697 1.373 . S
C697 C694 1.350 . S
C697 N696 1.373 . S
C697 H718 0.931 1_556 S
H698 C693 0.931 . S
H699 C694 0.930 1_554 S
C700 O707 1.259 . S
C700 O708 1.258 . S
N701 Co692 2.057 . S
N701 C702 1.316 . S
N701 C703 1.375 . S
C702 N701 1.316 . S
C702 N704 1.347 . S
C702 H713 0.931 . S
C703 N701 1.375 . S
C703 C705 1.350 . S
C703 H712 0.930 . S
N704 C702 1.347 . S
N704 C705 1.373 . S
C705 C703 1.350 . S
C705 N704 1.373 . S
C705 H719 0.931 . S
C706 O709 1.256 . S
C706 O710 1.255 . S
O707 Co690 2.021 . S
O707 C700 1.259 . S
O708 Co692 2.117 . S
O708 C700 1.258 . S
O709 Co692 2.020 . S
O709 C706 1.256 . S
O710 Co690 2.062 . S
O710 C706 1.255 . S
O711 C691 1.259 . S
O711 Co692 2.021 . S
H712 C703 0.930 . S
H713 C702 0.931 . S
O714 Co690 2.117 . S
O714 C691 1.258 . S
O715 Co690 2.020 . S
O715 C717 1.256 . S
O716 Co692 2.062 . S
O716 C717 1.255 . S
C717 O715 1.256 . S
C717 O716 1.255 . S
H718 C697 0.931 1_554 S
H719 C705 0.931 . S
Co720 N725 2.057 . S
Co720 O737 2.021 . S
Co720 O740 2.062 . S
Co720 O744 2.117 . S
Co720 O745 2.020 . S
C721 O741 1.259 . S
C721 O744 1.258 . S
Co722 N731 2.057 . S
Co722 O738 2.117 . S
Co722 O739 2.020 . S
Co722 O741 2.021 . S
Co722 O746 2.062 . S
C723 N725 1.316 . S
C723 N726 1.347 . S
C723 H728 0.931 . S
C724 N725 1.375 . S
C724 C727 1.350 . S
C724 H729 0.930 . S
N725 Co720 2.057 . S
N725 C723 1.316 . S
N725 C724 1.375 . S
N726 C723 1.347 . S
N726 C727 1.373 . S
C727 C724 1.350 . S
C727 N726 1.373 . S
C727 H748 0.931 . S
H728 C723 0.931 . S
H729 C724 0.930 . S
C730 O737 1.259 . S
C730 O738 1.258 . S
N731 Co722 2.057 . S
N731 C732 1.316 . S
N731 C733 1.375 . S
C732 N731 1.316 . S
C732 N734 1.347 . S
C732 H743 0.931 . S
C733 N731 1.375 . S
C733 C735 1.350 . S
C733 H742 0.930 . S
N734 C732 1.347 . S
N734 C735 1.373 . S
C735 C733 1.350 . S
C735 N734 1.373 . S
C735 H749 0.931 . S
C736 O739 1.256 . S
C736 O740 1.255 . S
O737 Co720 2.021 . S
O737 C730 1.259 . S
O738 Co722 2.117 . S
O738 C730 1.258 . S
O739 Co722 2.020 . S
O739 C736 1.256 . S
O740 Co720 2.062 . S
O740 C736 1.255 . S
O741 C721 1.259 . S
O741 Co722 2.021 . S
H742 C733 0.930 . S
H743 C732 0.931 . S
O744 Co720 2.117 . S
O744 C721 1.258 . S
O745 Co720 2.020 . S
O745 C747 1.256 . S
O746 Co722 2.062 . S
O746 C747 1.255 . S
C747 O745 1.256 . S
C747 O746 1.255 . S
H748 C727 0.931 . S
H749 C735 0.931 . S
Co750 N755 2.057 . S
Co750 O767 2.021 . S
Co750 O770 2.062 . S
Co750 O774 2.117 . S
Co750 O775 2.020 . S
C751 O771 1.259 . S
C751 O774 1.258 . S
Co752 N761 2.057 . S
Co752 O768 2.117 . S
Co752 O769 2.020 . S
Co752 O771 2.021 . S
Co752 O776 2.062 . S
C753 N755 1.316 . S
C753 N756 1.347 . S
C753 H758 0.931 . S
C754 N755 1.375 . S
C754 C757 1.350 . S
C754 H759 0.930 . S
N755 Co750 2.057 . S
N755 C753 1.316 . S
N755 C754 1.375 . S
N756 C753 1.347 . S
N756 C757 1.373 . S
C757 C754 1.350 . S
C757 N756 1.373 . S
C757 H778 0.931 . S
H758 C753 0.931 . S
H759 C754 0.930 . S
C760 O767 1.259 . S
C760 O768 1.258 . S
N761 Co752 2.057 . S
N761 C762 1.316 . S
N761 C763 1.375 . S
C762 N761 1.316 . S
C762 N764 1.347 . S
C762 H773 0.931 . S
C763 N761 1.375 . S
C763 C765 1.350 . S
C763 H772 0.930 . S
N764 C762 1.347 . S
N764 C765 1.373 . S
C765 C763 1.350 . S
C765 N764 1.373 . S
C765 H779 0.931 . S
C766 O769 1.256 . S
C766 O770 1.255 . S
O767 Co750 2.021 . S
O767 C760 1.259 . S
O768 Co752 2.117 . S
O768 C760 1.258 . S
O769 Co752 2.020 . S
O769 C766 1.256 . S
O770 Co750 2.062 . S
O770 C766 1.255 . S
O771 C751 1.259 . S
O771 Co752 2.021 . S
H772 C763 0.930 . S
H773 C762 0.931 . S
O774 Co750 2.117 . S
O774 C751 1.258 . S
O775 Co750 2.020 . S
O775 C777 1.256 . S
O776 Co752 2.062 . S
O776 C777 1.255 . S
C777 O775 1.256 . S
C777 O776 1.255 . S
H778 C757 0.931 . S
H779 C765 0.931 . S
Co780 N785 2.057 . S
Co780 O797 2.021 . S
Co780 O800 2.062 . S
Co780 O804 2.117 . S
Co780 O805 2.020 . S
C781 O801 1.259 . S
C781 O804 1.258 . S
Co782 N791 2.057 . S
Co782 O798 2.117 . S
Co782 O799 2.020 . S
Co782 O801 2.021 . S
Co782 O806 2.062 . S
C783 N785 1.316 . S
C783 N786 1.347 . S
C783 H788 0.931 . S
C784 N785 1.375 . S
C784 C787 1.350 . S
C784 H789 0.930 . S
N785 Co780 2.057 . S
N785 C783 1.316 . S
N785 C784 1.375 . S
N786 C783 1.347 . S
N786 C787 1.373 . S
C787 C784 1.350 . S
C787 N786 1.373 . S
C787 H808 0.931 . S
H788 C783 0.931 . S
H789 C784 0.930 . S
C790 O797 1.259 . S
C790 O798 1.258 . S
N791 Co782 2.057 . S
N791 C792 1.316 . S
N791 C793 1.375 . S
C792 N791 1.316 . S
C792 N794 1.347 . S
C792 H803 0.931 . S
C793 N791 1.375 . S
C793 C795 1.350 . S
C793 H802 0.930 . S
N794 C792 1.347 . S
N794 C795 1.373 . S
C795 C793 1.350 . S
C795 N794 1.373 . S
C795 H809 0.931 . S
C796 O799 1.256 . S
C796 O800 1.255 . S
O797 Co780 2.021 . S
O797 C790 1.259 . S
O798 Co782 2.117 . S
O798 C790 1.258 . S
O799 Co782 2.020 . S
O799 C796 1.256 . S
O800 Co780 2.062 . S
O800 C796 1.255 . S
O801 C781 1.259 . S
O801 Co782 2.021 . S
H802 C793 0.930 . S
H803 C792 0.931 . S
O804 Co780 2.117 . S
O804 C781 1.258 . S
O805 Co780 2.020 . S
O805 C807 1.256 . S
O806 Co782 2.062 . S
O806 C807 1.255 . S
C807 O805 1.256 . S
C807 O806 1.255 . S
H808 C787 0.931 . S
H809 C795 0.931 . S
Co810 N815 2.057 . S
Co810 O827 2.021 . S
Co810 O830 2.062 . S
Co810 O834 2.117 . S
Co810 O835 2.020 . S
C811 O831 1.259 . S
C811 O834 1.258 . S
Co812 N821 2.057 . S
Co812 O828 2.117 . S
Co812 O829 2.020 . S
Co812 O831 2.021 . S
Co812 O836 2.062 . S
C813 N815 1.316 . S
C813 N816 1.347 . S
C813 H818 0.931 . S
C814 N815 1.375 . S
C814 C817 1.350 . S
C814 H819 0.930 . S
N815 Co810 2.057 . S
N815 C813 1.316 . S
N815 C814 1.375 . S
N816 C813 1.347 . S
N816 C817 1.373 . S
C817 C814 1.350 . S
C817 N816 1.373 . S
C817 H838 0.931 . S
H818 C813 0.931 . S
H819 C814 0.930 . S
C820 O827 1.259 . S
C820 O828 1.258 . S
N821 Co812 2.057 . S
N821 C822 1.316 . S
N821 C823 1.375 . S
C822 N821 1.316 . S
C822 N824 1.347 . S
C822 H833 0.931 . S
C823 N821 1.375 . S
C823 C825 1.350 . S
C823 H832 0.930 1_554 S
N824 C822 1.347 . S
N824 C825 1.373 . S
C825 C823 1.350 . S
C825 N824 1.373 . S
C825 H839 0.931 1_554 S
C826 O829 1.256 . S
C826 O830 1.255 . S
O827 Co810 2.021 . S
O827 C820 1.259 . S
O828 Co812 2.117 . S
O828 C820 1.258 . S
O829 Co812 2.020 . S
O829 C826 1.256 . S
O830 Co810 2.062 . S
O830 C826 1.255 . S
O831 C811 1.259 . S
O831 Co812 2.021 . S
H832 C823 0.930 1_556 S
H833 C822 0.931 . S
O834 Co810 2.117 . S
O834 C811 1.258 . S
O835 Co810 2.020 . S
O835 C837 1.256 . S
O836 Co812 2.062 . S
O836 C837 1.255 . S
C837 O835 1.256 . S
C837 O836 1.255 . S
H838 C817 0.931 . S
H839 C825 0.931 1_556 S
Co840 N845 2.057 . S
Co840 O857 2.021 . S
Co840 O860 2.062 . S
Co840 O864 2.117 . S
Co840 O865 2.020 . S
C841 O861 1.259 . S
C841 O864 1.258 . S
Co842 N851 2.057 . S
Co842 O858 2.117 . S
Co842 O859 2.020 . S
Co842 O861 2.021 . S
Co842 O866 2.062 . S
C843 N845 1.316 . S
C843 N846 1.347 . S
C843 H848 0.931 . S
C844 N845 1.375 . S
C844 C847 1.350 . S
C844 H849 0.930 . S
N845 Co840 2.057 . S
N845 C843 1.316 . S
N845 C844 1.375 . S
N846 C843 1.347 . S
N846 C847 1.373 . S
C847 C844 1.350 . S
C847 N846 1.373 . S
C847 H868 0.931 . S
H848 C843 0.931 . S
H849 C844 0.930 . S
C850 O857 1.259 . S
C850 O858 1.258 . S
N851 Co842 2.057 . S
N851 C852 1.316 . S
N851 C853 1.375 . S
C852 N851 1.316 . S
C852 N854 1.347 . S
C852 H863 0.931 . S
C853 N851 1.375 . S
C853 C855 1.350 . S
C853 H862 0.930 1_554 S
N854 C852 1.347 . S
N854 C855 1.373 . S
C855 C853 1.350 . S
C855 N854 1.373 . S
C855 H869 0.931 1_554 S
C856 O859 1.256 . S
C856 O860 1.255 . S
O857 Co840 2.021 . S
O857 C850 1.259 . S
O858 Co842 2.117 . S
O858 C850 1.258 . S
O859 Co842 2.020 . S
O859 C856 1.256 . S
O860 Co840 2.062 . S
O860 C856 1.255 . S
O861 C841 1.259 . S
O861 Co842 2.021 . S
H862 C853 0.930 1_556 S
H863 C852 0.931 . S
O864 Co840 2.117 . S
O864 C841 1.258 . S
O865 Co840 2.020 . S
O865 C867 1.256 . S
O866 Co842 2.062 . S
O866 C867 1.255 . S
C867 O865 1.256 . S
C867 O866 1.255 . S
H868 C847 0.931 . S
H869 C855 0.931 1_556 S
Co870 N875 2.057 . S
Co870 O887 2.021 . S
Co870 O890 2.062 . S
Co870 O894 2.117 . S
Co870 O895 2.020 . S
C871 O891 1.259 . S
C871 O894 1.258 . S
Co872 N881 2.057 . S
Co872 O888 2.117 . S
Co872 O889 2.020 . S
Co872 O891 2.021 . S
Co872 O896 2.062 . S
C873 N875 1.316 . S
C873 N876 1.347 . S
C873 H878 0.931 . S
C874 N875 1.375 . S
C874 C877 1.350 . S
C874 H879 0.930 . S
N875 Co870 2.057 . S
N875 C873 1.316 . S
N875 C874 1.375 . S
N876 C873 1.347 . S
N876 C877 1.373 . S
C877 C874 1.350 . S
C877 N876 1.373 . S
C877 H898 0.931 . S
H878 C873 0.931 . S
H879 C874 0.930 . S
C880 O887 1.259 . S
C880 O888 1.258 . S
N881 Co872 2.057 . S
N881 C882 1.316 . S
N881 C883 1.375 . S
C882 N881 1.316 . S
C882 N884 1.347 . S
C882 H893 0.931 . S
C883 N881 1.375 . S
C883 C885 1.350 . S
C883 H892 0.930 1_554 S
N884 C882 1.347 . S
N884 C885 1.373 . S
C885 C883 1.350 . S
C885 N884 1.373 . S
C885 H899 0.931 1_554 S
C886 O889 1.256 . S
C886 O890 1.255 . S
O887 Co870 2.021 . S
O887 C880 1.259 . S
O888 Co872 2.117 . S
O888 C880 1.258 . S
O889 Co872 2.020 . S
O889 C886 1.256 . S
O890 Co870 2.062 . S
O890 C886 1.255 . S
O891 C871 1.259 . S
O891 Co872 2.021 . S
H892 C883 0.930 1_556 S
H893 C882 0.931 . S
O894 Co870 2.117 . S
O894 C871 1.258 . S
O895 Co870 2.020 . S
O895 C897 1.256 . S
O896 Co872 2.062 . S
O896 C897 1.255 . S
C897 O895 1.256 . S
C897 O896 1.255 . S
H898 C877 0.931 . S
H899 C885 0.931 1_556 S
Co900 N905 2.057 . S
Co900 O917 2.021 . S
Co900 O920 2.062 . S
Co900 O924 2.117 . S
Co900 O925 2.020 . S
C901 O921 1.259 . S
C901 O924 1.258 . S
Co902 N911 2.057 . S
Co902 O918 2.117 . S
Co902 O919 2.020 . S
Co902 O921 2.021 . S
Co902 O926 2.062 . S
C903 N905 1.316 . S
C903 N906 1.347 . S
C903 H908 0.931 . S
C904 N905 1.375 . S
C904 C907 1.350 . S
C904 H909 0.930 . S
N905 Co900 2.057 . S
N905 C903 1.316 . S
N905 C904 1.375 . S
N906 C903 1.347 . S
N906 C907 1.373 . S
C907 C904 1.350 . S
C907 N906 1.373 . S
C907 H928 0.931 . S
H908 C903 0.931 . S
H909 C904 0.930 . S
C910 O917 1.259 . S
C910 O918 1.258 . S
N911 Co902 2.057 . S
N911 C912 1.316 . S
N911 C913 1.375 . S
C912 N911 1.316 . S
C912 N914 1.347 . S
C912 H923 0.931 . S
C913 N911 1.375 . S
C913 C915 1.350 . S
C913 H922 0.930 . S
N914 C912 1.347 . S
N914 C915 1.373 . S
C915 C913 1.350 . S
C915 N914 1.373 . S
C915 H929 0.931 . S
C916 O919 1.256 . S
C916 O920 1.255 . S
O917 Co900 2.021 . S
O917 C910 1.259 . S
O918 Co902 2.117 . S
O918 C910 1.258 . S
O919 Co902 2.020 . S
O919 C916 1.256 . S
O920 Co900 2.062 . S
O920 C916 1.255 . S
O921 C901 1.259 . S
O921 Co902 2.021 . S
H922 C913 0.930 . S
H923 C912 0.931 . S
O924 Co900 2.117 . S
O924 C901 1.258 . S
O925 Co900 2.020 . S
O925 C927 1.256 . S
O926 Co902 2.062 . S
O926 C927 1.255 . S
C927 O925 1.256 . S
C927 O926 1.255 . S
H928 C907 0.931 . S
H929 C915 0.931 . S
Co930 N935 2.057 . S
Co930 O947 2.021 . S
Co930 O950 2.062 . S
Co930 O954 2.117 . S
Co930 O955 2.020 . S
C931 O951 1.259 . S
C931 O954 1.258 . S
Co932 N941 2.057 . S
Co932 O948 2.117 . S
Co932 O949 2.020 . S
Co932 O951 2.021 . S
Co932 O956 2.062 . S
C933 N935 1.316 . S
C933 N936 1.347 . S
C933 H938 0.931 . S
C934 N935 1.375 . S
C934 C937 1.350 . S
C934 H939 0.930 . S
N935 Co930 2.057 . S
N935 C933 1.316 . S
N935 C934 1.375 . S
N936 C933 1.347 . S
N936 C937 1.373 . S
C937 C934 1.350 . S
C937 N936 1.373 . S
C937 H958 0.931 . S
H938 C933 0.931 . S
H939 C934 0.930 . S
C940 O947 1.259 . S
C940 O948 1.258 . S
N941 Co932 2.057 . S
N941 C942 1.316 . S
N941 C943 1.375 . S
C942 N941 1.316 . S
C942 N944 1.347 . S
C942 H953 0.931 . S
C943 N941 1.375 . S
C943 C945 1.350 . S
C943 H952 0.930 . S
N944 C942 1.347 . S
N944 C945 1.373 . S
C945 C943 1.350 . S
C945 N944 1.373 . S
C945 H959 0.931 . S
C946 O949 1.256 . S
C946 O950 1.255 . S
O947 Co930 2.021 . S
O947 C940 1.259 . S
O948 Co932 2.117 . S
O948 C940 1.258 . S
O949 Co932 2.020 . S
O949 C946 1.256 . S
O950 Co930 2.062 . S
O950 C946 1.255 . S
O951 C931 1.259 . S
O951 Co932 2.021 . S
H952 C943 0.930 . S
H953 C942 0.931 . S
O954 Co930 2.117 . S
O954 C931 1.258 . S
O955 Co930 2.020 . S
O955 C957 1.256 . S
O956 Co932 2.062 . S
O956 C957 1.255 . S
C957 O955 1.256 . S
C957 O956 1.255 . S
H958 C937 0.931 . S
H959 C945 0.931 . S
Co960 N965 2.057 . S
Co960 O977 2.021 . S
Co960 O980 2.062 . S
Co960 O984 2.117 . S
Co960 O985 2.020 . S
C961 O981 1.259 . S
C961 O984 1.258 . S
Co962 N971 2.057 . S
Co962 O978 2.117 . S
Co962 O979 2.020 . S
Co962 O981 2.021 . S
Co962 O986 2.062 . S
C963 N965 1.316 . S
C963 N966 1.347 . S
C963 H968 0.931 . S
C964 N965 1.375 . S
C964 C967 1.350 . S
C964 H969 0.930 . S
N965 Co960 2.057 . S
N965 C963 1.316 . S
N965 C964 1.375 . S
N966 C963 1.347 . S
N966 C967 1.373 . S
C967 C964 1.350 . S
C967 N966 1.373 . S
C967 H988 0.931 . S
H968 C963 0.931 . S
H969 C964 0.930 . S
C970 O977 1.259 . S
C970 O978 1.258 . S
N971 Co962 2.057 . S
N971 C972 1.316 . S
N971 C973 1.375 . S
C972 N971 1.316 . S
C972 N974 1.347 . S
C972 H983 0.931 . S
C973 N971 1.375 . S
C973 C975 1.350 . S
C973 H982 0.930 . S
N974 C972 1.347 . S
N974 C975 1.373 . S
C975 C973 1.350 . S
C975 N974 1.373 . S
C975 H989 0.931 . S
C976 O979 1.256 . S
C976 O980 1.255 . S
O977 Co960 2.021 . S
O977 C970 1.259 . S
O978 Co962 2.117 . S
O978 C970 1.258 . S
O979 Co962 2.020 . S
O979 C976 1.256 . S
O980 Co960 2.062 . S
O980 C976 1.255 . S
O981 C961 1.259 . S
O981 Co962 2.021 . S
H982 C973 0.930 . S
H983 C972 0.931 . S
O984 Co960 2.117 . S
O984 C961 1.258 . S
O985 Co960 2.020 . S
O985 C987 1.256 . S
O986 Co962 2.062 . S
O986 C987 1.255 . S
C987 O985 1.256 . S
C987 O986 1.255 . S
H988 C967 0.931 . S
H989 C975 0.931 . S
Co990 N995 2.057 . S
Co990 O1007 2.021 . S
Co990 O1010 2.062 . S
Co990 O1014 2.117 . S
Co990 O1015 2.020 . S
C991 O1011 1.259 . S
C991 O1014 1.258 . S
Co992 N1001 2.057 . S
Co992 O1008 2.117 . S
Co992 O1009 2.020 . S
Co992 O1011 2.021 . S
Co992 O1016 2.062 . S
C993 N995 1.316 . S
C993 N996 1.347 . S
C993 H998 0.931 . S
C994 N995 1.375 . S
C994 C997 1.350 . S
C994 H999 0.930 . S
N995 Co990 2.057 . S
N995 C993 1.316 . S
N995 C994 1.375 . S
N996 C993 1.347 . S
N996 C997 1.373 . S
C997 C994 1.350 . S
C997 N996 1.373 . S
C997 H1018 0.931 . S
H998 C993 0.931 . S
H999 C994 0.930 . S
C1000 O1007 1.259 . S
C1000 O1008 1.258 . S
N1001 Co992 2.057 . S
N1001 C1002 1.316 . S
N1001 C1003 1.375 . S
C1002 N1001 1.316 . S
C1002 N1004 1.347 . S
C1002 H1013 0.931 . S
C1003 N1001 1.375 . S
C1003 C1005 1.350 . S
C1003 H1012 0.930 . S
N1004 C1002 1.347 . S
N1004 C1005 1.373 . S
C1005 C1003 1.350 . S
C1005 N1004 1.373 . S
C1005 H1019 0.931 . S
C1006 O1009 1.256 . S
C1006 O1010 1.255 . S
O1007 Co990 2.021 . S
O1007 C1000 1.259 . S
O1008 Co992 2.117 . S
O1008 C1000 1.258 . S
O1009 Co992 2.020 . S
O1009 C1006 1.256 . S
O1010 Co990 2.062 . S
O1010 C1006 1.255 . S
O1011 C991 1.259 . S
O1011 Co992 2.021 . S
H1012 C1003 0.930 . S
H1013 C1002 0.931 . S
O1014 Co990 2.117 . S
O1014 C991 1.258 . S
O1015 Co990 2.020 . S
O1015 C1017 1.256 . S
O1016 Co992 2.062 . S
O1016 C1017 1.255 . S
C1017 O1015 1.256 . S
C1017 O1016 1.255 . S
H1018 C997 0.931 . S
H1019 C1005 0.931 . S
Co1020 N1025 2.057 . S
Co1020 O1037 2.021 . S
Co1020 O1040 2.062 . S
Co1020 O1044 2.117 . S
Co1020 O1045 2.020 . S
C1021 O1041 1.259 . S
C1021 O1044 1.258 . S
Co1022 N1031 2.057 . S
Co1022 O1038 2.117 . S
Co1022 O1039 2.020 . S
Co1022 O1041 2.021 . S
Co1022 O1046 2.062 . S
C1023 N1025 1.316 . S
C1023 N1026 1.347 . S
C1023 H1028 0.931 . S
C1024 N1025 1.375 . S
C1024 C1027 1.350 . S
C1024 H1029 0.930 . S
N1025 Co1020 2.057 . S
N1025 C1023 1.316 . S
N1025 C1024 1.375 . S
N1026 C1023 1.347 . S
N1026 C1027 1.373 . S
C1027 C1024 1.350 . S
C1027 N1026 1.373 . S
C1027 H1048 0.931 . S
H1028 C1023 0.931 . S
H1029 C1024 0.930 . S
C1030 O1037 1.259 . S
C1030 O1038 1.258 . S
N1031 Co1022 2.057 . S
N1031 C1032 1.316 . S
N1031 C1033 1.375 . S
C1032 N1031 1.316 . S
C1032 N1034 1.347 . S
C1032 H1043 0.931 . S
C1033 N1031 1.375 . S
C1033 C1035 1.350 . S
C1033 H1042 0.930 . S
N1034 C1032 1.347 . S
N1034 C1035 1.373 . S
C1035 C1033 1.350 . S
C1035 N1034 1.373 . S
C1035 H1049 0.931 . S
C1036 O1039 1.256 . S
C1036 O1040 1.255 . S
O1037 Co1020 2.021 . S
O1037 C1030 1.259 . S
O1038 Co1022 2.117 . S
O1038 C1030 1.258 . S
O1039 Co1022 2.020 . S
O1039 C1036 1.256 . S
O1040 Co1020 2.062 . S
O1040 C1036 1.255 . S
O1041 C1021 1.259 . S
O1041 Co1022 2.021 . S
H1042 C1033 0.930 . S
H1043 C1032 0.931 . S
O1044 Co1020 2.117 . S
O1044 C1021 1.258 . S
O1045 Co1020 2.020 . S
O1045 C1047 1.256 . S
O1046 Co1022 2.062 . S
O1046 C1047 1.255 . S
C1047 O1045 1.256 . S
C1047 O1046 1.255 . S
H1048 C1027 0.931 . S
H1049 C1035 0.931 . S
Co1050 N1055 2.057 . S
Co1050 O1067 2.021 . S
Co1050 O1070 2.062 . S
Co1050 O1074 2.117 . S
Co1050 O1075 2.020 . S
C1051 O1071 1.259 . S
C1051 O1074 1.258 . S
Co1052 N1061 2.057 . S
Co1052 O1068 2.117 . S
Co1052 O1069 2.020 . S
Co1052 O1071 2.021 . S
Co1052 O1076 2.062 . S
C1053 N1055 1.316 . S
C1053 N1056 1.347 . S
C1053 H1058 0.931 . S
C1054 N1055 1.375 . S
C1054 C1057 1.350 . S
C1054 H1059 0.930 . S
N1055 Co1050 2.057 . S
N1055 C1053 1.316 . S
N1055 C1054 1.375 . S
N1056 C1053 1.347 . S
N1056 C1057 1.373 . S
C1057 C1054 1.350 . S
C1057 N1056 1.373 . S
C1057 H1078 0.931 . S
H1058 C1053 0.931 . S
H1059 C1054 0.930 . S
C1060 O1067 1.259 . S
C1060 O1068 1.258 . S
N1061 Co1052 2.057 . S
N1061 C1062 1.316 . S
N1061 C1063 1.375 . S
C1062 N1061 1.316 . S
C1062 N1064 1.347 . S
C1062 H1073 0.931 . S
C1063 N1061 1.375 . S
C1063 C1065 1.350 . S
C1063 H1072 0.930 . S
N1064 C1062 1.347 . S
N1064 C1065 1.373 . S
C1065 C1063 1.350 . S
C1065 N1064 1.373 . S
C1065 H1079 0.931 . S
C1066 O1069 1.256 . S
C1066 O1070 1.255 . S
O1067 Co1050 2.021 . S
O1067 C1060 1.259 . S
O1068 Co1052 2.117 . S
O1068 C1060 1.258 . S
O1069 Co1052 2.020 . S
O1069 C1066 1.256 . S
O1070 Co1050 2.062 . S
O1070 C1066 1.255 . S
O1071 C1051 1.259 . S
O1071 Co1052 2.021 . S
H1072 C1063 0.930 . S
H1073 C1062 0.931 . S
O1074 Co1050 2.117 . S
O1074 C1051 1.258 . S
O1075 Co1050 2.020 . S
O1075 C1077 1.256 . S
O1076 Co1052 2.062 . S
O1076 C1077 1.255 . S
C1077 O1075 1.256 . S
C1077 O1076 1.255 . S
H1078 C1057 0.931 . S
H1079 C1065 0.931 . S
H1080 C1086 0.930 1_556 S
H1081 C1089 0.930 . S
H1082 C1090 0.930 . S
H1083 C1091 0.930 . S
H1084 C1094 0.930 . S
H1085 C1095 0.930 . S
C1086 H1080 0.930 1_554 S
C1086 C1087 1.355 . S
C1086 C1088 1.415 . S
C1087 C1086 1.355 . S
C1087 C1089 1.419 . S
C1088 C1086 1.415 . S
C1088 C1093 1.425 . S
C1088 C1095 1.409 1_554 S
C1089 H1081 0.930 . S
C1089 C1087 1.419 . S
C1089 C1090 1.362 . S
C1090 H1082 0.930 . S
C1090 C1089 1.362 . S
C1090 C1093 1.409 . S
C1091 H1083 0.930 . S
C1091 C1092 1.355 . S
C1091 C1093 1.415 . S
C1092 C1091 1.355 . S
C1092 C1094 1.419 1_554 S
C1093 C1088 1.425 . S
C1093 C1090 1.409 . S
C1093 C1091 1.415 . S
C1094 H1084 0.930 . S
C1094 C1092 1.419 1_556 S
C1094 C1095 1.362 . S
C1095 H1085 0.930 . S
C1095 C1088 1.409 1_556 S
C1095 C1094 1.362 . S
H1096 C1102 0.930 . S
H1097 C1105 0.930 . S
H1098 C1106 0.930 . S
H1099 C1107 0.930 . S
H1100 C1110 0.930 . S
H1101 C1111 0.930 . S
C1102 H1096 0.930 . S
C1102 C1103 1.355 1_556 S
C1102 C1104 1.415 1_556 S
C1103 C1102 1.355 1_554 S
C1103 C1105 1.419 . S
C1104 C1102 1.415 1_554 S
C1104 C1109 1.425 . S
C1104 C1111 1.409 1_554 S
C1105 H1097 0.930 . S
C1105 C1103 1.419 . S
C1105 C1106 1.362 . S
C1106 H1098 0.930 . S
C1106 C1105 1.362 . S
C1106 C1109 1.409 . S
C1107 H1099 0.930 . S
C1107 C1108 1.355 . S
C1107 C1109 1.415 . S
C1108 C1107 1.355 . S
C1108 C1110 1.419 1_554 S
C1109 C1104 1.425 . S
C1109 C1106 1.409 . S
C1109 C1107 1.415 . S
C1110 H1100 0.930 . S
C1110 C1108 1.419 1_556 S
C1110 C1111 1.362 . S
C1111 H1101 0.930 . S
C1111 C1104 1.409 1_556 S
C1111 C1110 1.362 . S
H1112 C1118 0.930 . S
H1113 C1121 0.930 . S
H1114 C1122 0.930 . S
H1115 C1123 0.930 1_556 S
H1116 C1126 0.930 . S
H1117 C1127 0.930 . S
C1118 H1112 0.930 . S
C1118 C1119 1.355 . S
C1118 C1120 1.415 . S
C1119 C1118 1.355 . S
C1119 C1121 1.419 1_554 S
C1120 C1118 1.415 . S
C1120 C1125 1.425 . S
C1120 C1127 1.409 . S
C1121 H1113 0.930 . S
C1121 C1119 1.419 1_556 S
C1121 C1122 1.362 . S
C1122 H1114 0.930 . S
C1122 C1121 1.362 . S
C1122 C1125 1.409 1_556 S
C1123 H1115 0.930 1_554 S
C1123 C1124 1.355 . S
C1123 C1125 1.415 . S
C1124 C1123 1.355 . S
C1124 C1126 1.419 . S
C1125 C1120 1.425 . S
C1125 C1122 1.409 1_554 S
C1125 C1123 1.415 . S
C1126 H1116 0.930 . S
C1126 C1124 1.419 . S
C1126 C1127 1.362 . S
C1127 H1117 0.930 . S
C1127 C1120 1.409 . S
C1127 C1126 1.362 . S
H1128 C1134 0.930 . S
H1129 C1137 0.930 . S
H1130 C1138 0.930 . S
H1131 C1139 0.930 . S
H1132 C1142 0.930 . S
H1133 C1143 0.930 . S
C1134 H1128 0.930 . S
C1134 C1135 1.355 . S
C1134 C1136 1.415 . S
C1135 C1134 1.355 . S
C1135 C1137 1.419 . S
C1136 C1134 1.415 . S
C1136 C1141 1.425 . S
C1136 C1143 1.409 . S
C1137 H1129 0.930 . S
C1137 C1135 1.419 . S
C1137 C1138 1.362 . S
C1138 H1130 0.930 . S
C1138 C1137 1.362 . S
C1138 C1141 1.409 . S
C1139 H1131 0.930 . S
C1139 C1140 1.355 . S
C1139 C1141 1.415 . S
C1140 C1139 1.355 . S
C1140 C1142 1.419 . S
C1141 C1136 1.425 . S
C1141 C1138 1.409 . S
C1141 C1139 1.415 . S
C1142 H1132 0.930 . S
C1142 C1140 1.419 . S
C1142 C1143 1.362 . S
C1143 H1133 0.930 . S
C1143 C1136 1.409 . S
C1143 C1142 1.362 . S
H1144 C1150 0.930 . S
H1145 C1153 0.930 . S
H1146 C1154 0.930 . S
H1147 C1155 0.930 . S
H1148 C1158 0.930 . S
H1149 C1159 0.930 . S
C1150 H1144 0.930 . S
C1150 C1151 1.355 . S
C1150 C1152 1.415 . S
C1151 C1150 1.355 . S
C1151 C1153 1.419 . S
C1152 C1150 1.415 . S
C1152 C1157 1.425 . S
C1152 C1159 1.409 . S
C1153 H1145 0.930 . S
C1153 C1151 1.419 . S
C1153 C1154 1.362 . S
C1154 H1146 0.930 . S
C1154 C1153 1.362 . S
C1154 C1157 1.409 . S
C1155 H1147 0.930 . S
C1155 C1156 1.355 . S
C1155 C1157 1.415 . S
C1156 C1155 1.355 . S
C1156 C1158 1.419 . S
C1157 C1152 1.425 . S
C1157 C1154 1.409 . S
C1157 C1155 1.415 . S
C1158 H1148 0.930 . S
C1158 C1156 1.419 . S
C1158 C1159 1.362 . S
C1159 H1149 0.930 . S
C1159 C1152 1.409 . S
C1159 C1158 1.362 . S
H1160 C1166 0.930 . S
H1161 C1169 0.930 . S
H1162 C1170 0.930 . S
H1163 C1171 0.930 . S
H1164 C1174 0.930 . S
H1165 C1175 0.930 . S
C1166 H1160 0.930 . S
C1166 C1167 1.355 . S
C1166 C1168 1.415 . S
C1167 C1166 1.355 . S
C1167 C1169 1.419 . S
C1168 C1166 1.415 . S
C1168 C1173 1.425 . S
C1168 C1175 1.409 . S
C1169 H1161 0.930 . S
C1169 C1167 1.419 . S
C1169 C1170 1.362 . S
C1170 H1162 0.930 . S
C1170 C1169 1.362 . S
C1170 C1173 1.409 . S
C1171 H1163 0.930 . S
C1171 C1172 1.355 . S
C1171 C1173 1.415 . S
C1172 C1171 1.355 . S
C1172 C1174 1.419 . S
C1173 C1168 1.425 . S
C1173 C1170 1.409 . S
C1173 C1171 1.415 . S
C1174 H1164 0.930 . S
C1174 C1172 1.419 . S
C1174 C1175 1.362 . S
C1175 H1165 0.930 . S
C1175 C1168 1.409 . S
C1175 C1174 1.362 . S
H1176 C1182 0.930 . S
H1177 C1185 0.930 . S
H1178 C1186 0.930 . S
H1179 C1187 0.930 . S
H1180 C1190 0.930 . S
H1181 C1191 0.930 . S
C1182 H1176 0.930 . S
C1182 C1183 1.355 . S
C1182 C1184 1.415 . S
C1183 C1182 1.355 . S
C1183 C1185 1.419 . S
C1184 C1182 1.415 . S
C1184 C1189 1.425 . S
C1184 C1191 1.409 . S
C1185 H1177 0.930 . S
C1185 C1183 1.419 . S
C1185 C1186 1.362 . S
C1186 H1178 0.930 . S
C1186 C1185 1.362 . S
C1186 C1189 1.409 . S
C1187 H1179 0.930 . S
C1187 C1188 1.355 . S
C1187 C1189 1.415 . S
C1188 C1187 1.355 . S
C1188 C1190 1.419 . S
C1189 C1184 1.425 . S
C1189 C1186 1.409 . S
C1189 C1187 1.415 . S
C1190 H1180 0.930 . S
C1190 C1188 1.419 . S
C1190 C1191 1.362 . S
C1191 H1181 0.930 . S
C1191 C1184 1.409 . S
C1191 C1190 1.362 . S
H1192 C1198 0.930 1_554 S
H1193 C1201 0.930 . S
H1194 C1202 0.930 . S
H1195 C1203 0.930 . S
H1196 C1206 0.930 . S
H1197 C1207 0.930 . S
C1198 H1192 0.930 1_556 S
C1198 C1199 1.355 . S
C1198 C1200 1.415 . S
C1199 C1198 1.355 . S
C1199 C1201 1.419 . S
C1200 C1198 1.415 . S
C1200 C1205 1.425 . S
C1200 C1207 1.409 1_556 S
C1201 H1193 0.930 . S
C1201 C1199 1.419 . S
C1201 C1202 1.362 . S
C1202 H1194 0.930 . S
C1202 C1201 1.362 . S
C1202 C1205 1.409 . S
C1203 H1195 0.930 . S
C1203 C1204 1.355 . S
C1203 C1205 1.415 . S
C1204 C1203 1.355 . S
C1204 C1206 1.419 1_556 S
C1205 C1200 1.425 . S
C1205 C1202 1.409 . S
C1205 C1203 1.415 . S
C1206 H1196 0.930 . S
C1206 C1204 1.419 1_554 S
C1206 C1207 1.362 . S
C1207 H1197 0.930 . S
C1207 C1200 1.409 1_554 S
C1207 C1206 1.362 . S
H1208 C1214 0.930 . S
H1209 C1217 0.930 . S
H1210 C1218 0.930 . S
H1211 C1219 0.930 1_554 S
H1212 C1222 0.930 . S
H1213 C1223 0.930 . S
C1214 H1208 0.930 . S
C1214 C1215 1.355 . S
C1214 C1216 1.415 . S
C1215 C1214 1.355 . S
C1215 C1217 1.419 1_556 S
C1216 C1214 1.415 . S
C1216 C1221 1.425 . S
C1216 C1223 1.409 . S
C1217 H1209 0.930 . S
C1217 C1215 1.419 1_554 S
C1217 C1218 1.362 . S
C1218 H1210 0.930 . S
C1218 C1217 1.362 . S
C1218 C1221 1.409 1_554 S
C1219 H1211 0.930 1_556 S
C1219 C1220 1.355 . S
C1219 C1221 1.415 . S
C1220 C1219 1.355 . S
C1220 C1222 1.419 . S
C1221 C1216 1.425 . S
C1221 C1218 1.409 1_556 S
C1221 C1219 1.415 . S
C1222 H1212 0.930 . S
C1222 C1220 1.419 . S
C1222 C1223 1.362 . S
C1223 H1213 0.930 . S
C1223 C1216 1.409 . S
C1223 C1222 1.362 . S
H1224 C1230 0.930 . S
H1225 C1233 0.930 . S
H1226 C1234 0.930 . S
H1227 C1235 0.930 . S
H1228 C1238 0.930 . S
H1229 C1239 0.930 . S
C1230 H1224 0.930 . S
C1230 C1231 1.355 . S
C1230 C1232 1.415 . S
C1231 C1230 1.355 . S
C1231 C1233 1.419 . S
C1232 C1230 1.415 . S
C1232 C1237 1.425 . S
C1232 C1239 1.409 . S
C1233 H1225 0.930 . S
C1233 C1231 1.419 . S
C1233 C1234 1.362 . S
C1234 H1226 0.930 . S
C1234 C1233 1.362 . S
C1234 C1237 1.409 . S
C1235 H1227 0.930 . S
C1235 C1236 1.355 . S
C1235 C1237 1.415 . S
C1236 C1235 1.355 . S
C1236 C1238 1.419 . S
C1237 C1232 1.425 . S
C1237 C1234 1.409 . S
C1237 C1235 1.415 . S
C1238 H1228 0.930 . S
C1238 C1236 1.419 . S
C1238 C1239 1.362 . S
C1239 H1229 0.930 . S
C1239 C1232 1.409 . S
C1239 C1238 1.362 . S
H1240 C1246 0.930 . S
H1241 C1249 0.930 . S
H1242 C1250 0.930 . S
H1243 C1251 0.930 . S
H1244 C1254 0.930 . S
H1245 C1255 0.930 . S
C1246 H1240 0.930 . S
C1246 C1247 1.355 . S
C1246 C1248 1.415 . S
C1247 C1246 1.355 . S
C1247 C1249 1.419 . S
C1248 C1246 1.415 . S
C1248 C1253 1.425 . S
C1248 C1255 1.409 . S
C1249 H1241 0.930 . S
C1249 C1247 1.419 . S
C1249 C1250 1.362 . S
C1250 H1242 0.930 . S
C1250 C1249 1.362 . S
C1250 C1253 1.409 . S
C1251 H1243 0.930 . S
C1251 C1252 1.355 . S
C1251 C1253 1.415 . S
C1252 C1251 1.355 . S
C1252 C1254 1.419 . S
C1253 C1248 1.425 . S
C1253 C1250 1.409 . S
C1253 C1251 1.415 . S
C1254 H1244 0.930 . S
C1254 C1252 1.419 . S
C1254 C1255 1.362 . S
C1255 H1245 0.930 . S
C1255 C1248 1.409 . S
C1255 C1254 1.362 . S
H1256 C1262 0.930 . S
H1257 C1265 0.930 . S
H1258 C1266 0.930 . S
H1259 C1267 0.930 . S
H1260 C1270 0.930 . S
H1261 C1271 0.930 . S
C1262 H1256 0.930 . S
C1262 C1263 1.355 . S
C1262 C1264 1.415 . S
C1263 C1262 1.355 . S
C1263 C1265 1.419 . S
C1264 C1262 1.415 . S
C1264 C1269 1.425 . S
C1264 C1271 1.409 . S
C1265 H1257 0.930 . S
C1265 C1263 1.419 . S
C1265 C1266 1.362 . S
C1266 H1258 0.930 . S
C1266 C1265 1.362 . S
C1266 C1269 1.409 . S
C1267 H1259 0.930 . S
C1267 C1268 1.355 . S
C1267 C1269 1.415 . S
C1268 C1267 1.355 . S
C1268 C1270 1.419 . S
C1269 C1264 1.425 . S
C1269 C1266 1.409 . S
C1269 C1267 1.415 . S
C1270 H1260 0.930 . S
C1270 C1268 1.419 . S
C1270 C1271 1.362 . S
C1271 H1261 0.930 . S
C1271 C1264 1.409 . S
C1271 C1270 1.362 . S
H1272 C1278 0.930 . S
H1273 C1281 0.930 . S
H1274 C1282 0.930 . S
H1275 C1283 0.930 . S
H1276 C1286 0.930 . S
H1277 C1287 0.930 . S
C1278 H1272 0.930 . S
C1278 C1279 1.355 . S
C1278 C1280 1.415 . S
C1279 C1278 1.355 . S
C1279 C1281 1.419 . S
C1280 C1278 1.415 . S
C1280 C1285 1.425 . S
C1280 C1287 1.409 . S
C1281 H1273 0.930 . S
C1281 C1279 1.419 . S
C1281 C1282 1.362 . S
C1282 H1274 0.930 . S
C1282 C1281 1.362 . S
C1282 C1285 1.409 . S
C1283 H1275 0.930 . S
C1283 C1284 1.355 . S
C1283 C1285 1.415 . S
C1284 C1283 1.355 . S
C1284 C1286 1.419 . S
C1285 C1280 1.425 . S
C1285 C1282 1.409 . S
C1285 C1283 1.415 . S
C1286 H1276 0.930 . S
C1286 C1284 1.419 . S
C1286 C1287 1.362 . S
C1287 H1277 0.930 . S
C1287 C1280 1.409 . S
C1287 C1286 1.362 . S
H1288 C1294 0.930 . S
H1289 C1297 0.930 . S
H1290 C1298 0.930 . S
H1291 C1299 0.930 . S
H1292 C1302 0.930 . S
H1293 C1303 0.930 . S
C1294 H1288 0.930 . S
C1294 C1295 1.355 . S
C1294 C1296 1.415 . S
C1295 C1294 1.355 . S
C1295 C1297 1.419 . S
C1296 C1294 1.415 . S
C1296 C1301 1.425 . S
C1296 C1303 1.409 . S
C1297 H1289 0.930 . S
C1297 C1295 1.419 . S
C1297 C1298 1.362 . S
C1298 H1290 0.930 . S
C1298 C1297 1.362 . S
C1298 C1301 1.409 . S
C1299 H1291 0.930 . S
C1299 C1300 1.355 . S
C1299 C1301 1.415 . S
C1300 C1299 1.355 . S
C1300 C1302 1.419 . S
C1301 C1296 1.425 . S
C1301 C1298 1.409 . S
C1301 C1299 1.415 . S
C1302 H1292 0.930 . S
C1302 C1300 1.419 . S
C1302 C1303 1.362 . S
C1303 H1293 0.930 . S
C1303 C1296 1.409 . S
C1303 C1302 1.362 . S
H1304 C1310 0.930 . S
H1305 C1313 0.930 . S
H1306 C1314 0.930 . S
H1307 C1315 0.930 . S
H1308 C1318 0.930 . S
H1309 C1319 0.930 . S
C1310 H1304 0.930 . S
C1310 C1311 1.355 . S
C1310 C1312 1.415 . S
C1311 C1310 1.355 . S
C1311 C1313 1.419 . S
C1312 C1310 1.415 . S
C1312 C1317 1.425 . S
C1312 C1319 1.409 . S
C1313 H1305 0.930 . S
C1313 C1311 1.419 . S
C1313 C1314 1.362 . S
C1314 H1306 0.930 . S
C1314 C1313 1.362 . S
C1314 C1317 1.409 . S
C1315 H1307 0.930 . S
C1315 C1316 1.355 . S
C1315 C1317 1.415 . S
C1316 C1315 1.355 . S
C1316 C1318 1.419 . S
C1317 C1312 1.425 . S
C1317 C1314 1.409 . S
C1317 C1315 1.415 . S
C1318 H1308 0.930 . S
C1318 C1316 1.419 . S
C1318 C1319 1.362 . S
C1319 H1309 0.930 . S
C1319 C1312 1.409 . S
C1319 C1318 1.362 . S
H1320 C1326 0.930 . S
H1321 C1329 0.930 . S
H1322 C1330 0.930 . S
H1323 C1331 0.930 . S
H1324 C1334 0.930 . S
H1325 C1335 0.930 . S
C1326 H1320 0.930 . S
C1326 C1327 1.355 . S
C1326 C1328 1.415 . S
C1327 C1326 1.355 . S
C1327 C1329 1.419 . S
C1328 C1326 1.415 . S
C1328 C1333 1.425 . S
C1328 C1335 1.409 . S
C1329 H1321 0.930 . S
C1329 C1327 1.419 . S
C1329 C1330 1.362 . S
C1330 H1322 0.930 . S
C1330 C1329 1.362 . S
C1330 C1333 1.409 . S
C1331 H1323 0.930 . S
C1331 C1332 1.355 . S
C1331 C1333 1.415 . S
C1332 C1331 1.355 . S
C1332 C1334 1.419 . S
C1333 C1328 1.425 . S
C1333 C1330 1.409 . S
C1333 C1331 1.415 . S
C1334 H1324 0.930 . S
C1334 C1332 1.419 . S
C1334 C1335 1.362 . S
C1335 H1325 0.930 . S
C1335 C1328 1.409 . S
C1335 C1334 1.362 . S
H1336 C1342 0.930 . S
H1337 C1345 0.930 . S
H1338 C1346 0.930 . S
H1339 C1347 0.930 . S
H1340 C1350 0.930 . S
H1341 C1351 0.930 . S
C1342 H1336 0.930 . S
C1342 C1343 1.355 . S
C1342 C1344 1.415 . S
C1343 C1342 1.355 . S
C1343 C1345 1.419 . S
C1344 C1342 1.415 . S
C1344 C1349 1.425 . S
C1344 C1351 1.409 . S
C1345 H1337 0.930 . S
C1345 C1343 1.419 . S
C1345 C1346 1.362 . S
C1346 H1338 0.930 . S
C1346 C1345 1.362 . S
C1346 C1349 1.409 . S
C1347 H1339 0.930 . S
C1347 C1348 1.355 . S
C1347 C1349 1.415 . S
C1348 C1347 1.355 . S
C1348 C1350 1.419 . S
C1349 C1344 1.425 . S
C1349 C1346 1.409 . S
C1349 C1347 1.415 . S
C1350 H1340 0.930 . S
C1350 C1348 1.419 . S
C1350 C1351 1.362 . S
C1351 H1341 0.930 . S
C1351 C1344 1.409 . S
C1351 C1350 1.362 . S
H1352 C1358 0.930 . S
H1353 C1361 0.930 . S
H1354 C1362 0.930 . S
H1355 C1363 0.930 . S
H1356 C1366 0.930 . S
H1357 C1367 0.930 . S
C1358 H1352 0.930 . S
C1358 C1359 1.355 . S
C1358 C1360 1.415 . S
C1359 C1358 1.355 . S
C1359 C1361 1.419 . S
C1360 C1358 1.415 . S
C1360 C1365 1.425 . S
C1360 C1367 1.409 . S
C1361 H1353 0.930 . S
C1361 C1359 1.419 . S
C1361 C1362 1.362 . S
C1362 H1354 0.930 . S
C1362 C1361 1.362 . S
C1362 C1365 1.409 . S
C1363 H1355 0.930 . S
C1363 C1364 1.355 . S
C1363 C1365 1.415 . S
C1364 C1363 1.355 . S
C1364 C1366 1.419 . S
C1365 C1360 1.425 . S
C1365 C1362 1.409 . S
C1365 C1363 1.415 . S
C1366 H1356 0.930 . S
C1366 C1364 1.419 . S
C1366 C1367 1.362 . S
C1367 H1357 0.930 . S
C1367 C1360 1.409 . S
C1367 C1366 1.362 . S
H1368 C1374 0.930 . S
H1369 C1377 0.930 . S
H1370 C1378 0.930 . S
H1371 C1379 0.930 . S
H1372 C1382 0.930 . S
H1373 C1383 0.930 . S
C1374 H1368 0.930 . S
C1374 C1375 1.355 . S
C1374 C1376 1.415 . S
C1375 C1374 1.355 . S
C1375 C1377 1.419 . S
C1376 C1374 1.415 . S
C1376 C1381 1.425 . S
C1376 C1383 1.409 . S
C1377 H1369 0.930 . S
C1377 C1375 1.419 . S
C1377 C1378 1.362 . S
C1378 H1370 0.930 . S
C1378 C1377 1.362 . S
C1378 C1381 1.409 . S
C1379 H1371 0.930 . S
C1379 C1380 1.355 . S
C1379 C1381 1.415 . S
C1380 C1379 1.355 . S
C1380 C1382 1.419 . S
C1381 C1376 1.425 . S
C1381 C1378 1.409 . S
C1381 C1379 1.415 . S
C1382 H1372 0.930 . S
C1382 C1380 1.419 . S
C1382 C1383 1.362 . S
C1383 H1373 0.930 . S
C1383 C1376 1.409 . S
C1383 C1382 1.362 . S
H1384 C1390 0.930 . S
H1385 C1393 0.930 . S
H1386 C1394 0.930 . S
H1387 C1395 0.930 . S
H1388 C1398 0.930 . S
H1389 C1399 0.930 . S
C1390 H1384 0.930 . S
C1390 C1391 1.355 . S
C1390 C1392 1.415 . S
C1391 C1390 1.355 . S
C1391 C1393 1.419 . S
C1392 C1390 1.415 . S
C1392 C1397 1.425 . S
C1392 C1399 1.409 . S
C1393 H1385 0.930 . S
C1393 C1391 1.419 . S
C1393 C1394 1.362 . S
C1394 H1386 0.930 . S
C1394 C1393 1.362 . S
C1394 C1397 1.409 . S
C1395 H1387 0.930 . S
C1395 C1396 1.355 . S
C1395 C1397 1.415 . S
C1396 C1395 1.355 . S
C1396 C1398 1.419 . S
C1397 C1392 1.425 . S
C1397 C1394 1.409 . S
C1397 C1395 1.415 . S
C1398 H1388 0.930 . S
C1398 C1396 1.419 . S
C1398 C1399 1.362 . S
C1399 H1389 0.930 . S
C1399 C1392 1.409 . S
C1399 C1398 1.362 . S
H1400 C1406 0.930 . S
H1401 C1409 0.930 . S
H1402 C1410 0.930 . S
H1403 C1411 0.930 . S
H1404 C1414 0.930 . S
H1405 C1415 0.930 . S
C1406 H1400 0.930 . S
C1406 C1407 1.355 . S
C1406 C1408 1.415 . S
C1407 C1406 1.355 . S
C1407 C1409 1.419 . S
C1408 C1406 1.415 . S
C1408 C1413 1.425 . S
C1408 C1415 1.409 . S
C1409 H1401 0.930 . S
C1409 C1407 1.419 . S
C1409 C1410 1.362 . S
C1410 H1402 0.930 . S
C1410 C1409 1.362 . S
C1410 C1413 1.409 . S
C1411 H1403 0.930 . S
C1411 C1412 1.355 . S
C1411 C1413 1.415 . S
C1412 C1411 1.355 . S
C1412 C1414 1.419 . S
C1413 C1408 1.425 . S
C1413 C1410 1.409 . S
C1413 C1411 1.415 . S
C1414 H1404 0.930 . S
C1414 C1412 1.419 . S
C1414 C1415 1.362 . S
C1415 H1405 0.930 . S
C1415 C1408 1.409 . S
C1415 C1414 1.362 . S
H1416 C1422 0.930 . S
H1417 C1425 0.930 . S
H1418 C1426 0.930 . S
H1419 C1427 0.930 . S
H1420 C1430 0.930 . S
H1421 C1431 0.930 . S
C1422 H1416 0.930 . S
C1422 C1423 1.355 . S
C1422 C1424 1.415 . S
C1423 C1422 1.355 . S
C1423 C1425 1.419 . S
C1424 C1422 1.415 . S
C1424 C1429 1.425 . S
C1424 C1431 1.409 . S
C1425 H1417 0.930 . S
C1425 C1423 1.419 . S
C1425 C1426 1.362 . S
C1426 H1418 0.930 . S
C1426 C1425 1.362 . S
C1426 C1429 1.409 . S
C1427 H1419 0.930 . S
C1427 C1428 1.355 . S
C1427 C1429 1.415 . S
C1428 C1427 1.355 . S
C1428 C1430 1.419 . S
C1429 C1424 1.425 . S
C1429 C1426 1.409 . S
C1429 C1427 1.415 . S
C1430 H1420 0.930 . S
C1430 C1428 1.419 . S
C1430 C1431 1.362 . S
C1431 H1421 0.930 . S
C1431 C1424 1.409 . S
C1431 C1430 1.362 . S
H1432 C1438 0.930 . S
H1433 C1441 0.930 . S
H1434 C1442 0.930 . S
H1435 C1443 0.930 . S
H1436 C1446 0.930 . S
H1437 C1447 0.930 . S
C1438 H1432 0.930 . S
C1438 C1439 1.355 . S
C1438 C1440 1.415 . S
C1439 C1438 1.355 . S
C1439 C1441 1.419 . S
C1440 C1438 1.415 . S
C1440 C1445 1.425 . S
C1440 C1447 1.409 . S
C1441 H1433 0.930 . S
C1441 C1439 1.419 . S
C1441 C1442 1.362 . S
C1442 H1434 0.930 . S
C1442 C1441 1.362 . S
C1442 C1445 1.409 . S
C1443 H1435 0.930 . S
C1443 C1444 1.355 . S
C1443 C1445 1.415 . S
C1444 C1443 1.355 . S
C1444 C1446 1.419 . S
C1445 C1440 1.425 . S
C1445 C1442 1.409 . S
C1445 C1443 1.415 . S
C1446 H1436 0.930 . S
C1446 C1444 1.419 . S
C1446 C1447 1.362 . S
C1447 H1437 0.930 . S
C1447 C1440 1.409 . S
C1447 C1446 1.362 . S
H1448 C1454 0.930 . S
H1449 C1457 0.930 . S
H1450 C1458 0.930 . S
H1451 C1459 0.930 . S
H1452 C1462 0.930 . S
H1453 C1463 0.930 . S
C1454 H1448 0.930 . S
C1454 C1455 1.355 . S
C1454 C1456 1.415 . S
C1455 C1454 1.355 . S
C1455 C1457 1.419 . S
C1456 C1454 1.415 . S
C1456 C1461 1.425 . S
C1456 C1463 1.409 . S
C1457 H1449 0.930 . S
C1457 C1455 1.419 . S
C1457 C1458 1.362 . S
C1458 H1450 0.930 . S
C1458 C1457 1.362 . S
C1458 C1461 1.409 . S
C1459 H1451 0.930 . S
C1459 C1460 1.355 . S
C1459 C1461 1.415 . S
C1460 C1459 1.355 . S
C1460 C1462 1.419 . S
C1461 C1456 1.425 . S
C1461 C1458 1.409 . S
C1461 C1459 1.415 . S
C1462 H1452 0.930 . S
C1462 C1460 1.419 . S
C1462 C1463 1.362 . S
C1463 H1453 0.930 . S
C1463 C1456 1.409 . S
C1463 C1462 1.362 . S
H1464 C1470 0.930 . S
H1465 C1473 0.930 . S
H1466 C1474 0.930 . S
H1467 C1475 0.930 . S
H1468 C1478 0.930 . S
H1469 C1479 0.930 . S
C1470 H1464 0.930 . S
C1470 C1471 1.355 . S
C1470 C1472 1.415 . S
C1471 C1470 1.355 . S
C1471 C1473 1.419 . S
C1472 C1470 1.415 . S
C1472 C1477 1.425 . S
C1472 C1479 1.409 . S
C1473 H1465 0.930 . S
C1473 C1471 1.419 . S
C1473 C1474 1.362 . S
C1474 H1466 0.930 . S
C1474 C1473 1.362 . S
C1474 C1477 1.409 . S
C1475 H1467 0.930 . S
C1475 C1476 1.355 . S
C1475 C1477 1.415 . S
C1476 C1475 1.355 . S
C1476 C1478 1.419 . S
C1477 C1472 1.425 . S
C1477 C1474 1.409 . S
C1477 C1475 1.415 . S
C1478 H1468 0.930 . S
C1478 C1476 1.419 . S
C1478 C1479 1.362 . S
C1479 H1469 0.930 . S
C1479 C1472 1.409 . S
C1479 C1478 1.362 . S
H1480 C1486 0.930 . S
H1481 C1489 0.930 . S
H1482 C1490 0.930 . S
H1483 C1491 0.930 . S
H1484 C1494 0.930 . S
H1485 C1495 0.930 . S
C1486 H1480 0.930 . S
C1486 C1487 1.355 . S
C1486 C1488 1.415 . S
C1487 C1486 1.355 . S
C1487 C1489 1.419 . S
C1488 C1486 1.415 . S
C1488 C1493 1.425 . S
C1488 C1495 1.409 . S
C1489 H1481 0.930 . S
C1489 C1487 1.419 . S
C1489 C1490 1.362 . S
C1490 H1482 0.930 . S
C1490 C1489 1.362 . S
C1490 C1493 1.409 . S
C1491 H1483 0.930 . S
C1491 C1492 1.355 . S
C1491 C1493 1.415 . S
C1492 C1491 1.355 . S
C1492 C1494 1.419 . S
C1493 C1488 1.425 . S
C1493 C1490 1.409 . S
C1493 C1491 1.415 . S
C1494 H1484 0.930 . S
C1494 C1492 1.419 . S
C1494 C1495 1.362 . S
C1495 H1485 0.930 . S
C1495 C1488 1.409 . S
C1495 C1494 1.362 . S
H1496 C1502 0.930 . S
H1497 C1505 0.930 . S
H1498 C1506 0.930 . S
H1499 C1507 0.930 . S
H1500 C1510 0.930 . S
H1501 C1511 0.930 . S
C1502 H1496 0.930 . S
C1502 C1503 1.355 . S
C1502 C1504 1.415 . S
C1503 C1502 1.355 . S
C1503 C1505 1.419 . S
C1504 C1502 1.415 . S
C1504 C1509 1.425 . S
C1504 C1511 1.409 . S
C1505 H1497 0.930 . S
C1505 C1503 1.419 . S
C1505 C1506 1.362 . S
C1506 H1498 0.930 . S
C1506 C1505 1.362 . S
C1506 C1509 1.409 . S
C1507 H1499 0.930 . S
C1507 C1508 1.355 . S
C1507 C1509 1.415 . S
C1508 C1507 1.355 . S
C1508 C1510 1.419 . S
C1509 C1504 1.425 . S
C1509 C1506 1.409 . S
C1509 C1507 1.415 . S
C1510 H1500 0.930 . S
C1510 C1508 1.419 . S
C1510 C1511 1.362 . S
C1511 H1501 0.930 . S
C1511 C1504 1.409 . S
C1511 C1510 1.362 . S
H1512 C1518 0.930 . S
H1513 C1521 0.930 . S
H1514 C1522 0.930 . S
H1515 C1523 0.930 . S
H1516 C1526 0.930 . S
H1517 C1527 0.930 . S
C1518 H1512 0.930 . S
C1518 C1519 1.355 . S
C1518 C1520 1.415 . S
C1519 C1518 1.355 . S
C1519 C1521 1.419 . S
C1520 C1518 1.415 . S
C1520 C1525 1.425 . S
C1520 C1527 1.409 . S
C1521 H1513 0.930 . S
C1521 C1519 1.419 . S
C1521 C1522 1.362 . S
C1522 H1514 0.930 . S
C1522 C1521 1.362 . S
C1522 C1525 1.409 . S
C1523 H1515 0.930 . S
C1523 C1524 1.355 . S
C1523 C1525 1.415 . S
C1524 C1523 1.355 . S
C1524 C1526 1.419 . S
C1525 C1520 1.425 . S
C1525 C1522 1.409 . S
C1525 C1523 1.415 . S
C1526 H1516 0.930 . S
C1526 C1524 1.419 . S
C1526 C1527 1.362 . S
C1527 H1517 0.930 . S
C1527 C1520 1.409 . S
C1527 C1526 1.362 . S
H1528 C1534 0.930 . S
H1529 C1537 0.930 . S
H1530 C1538 0.930 . S
H1531 C1539 0.930 . S
H1532 C1542 0.930 . S
H1533 C1543 0.930 . S
C1534 H1528 0.930 . S
C1534 C1535 1.355 . S
C1534 C1536 1.415 . S
C1535 C1534 1.355 . S
C1535 C1537 1.419 . S
C1536 C1534 1.415 . S
C1536 C1541 1.425 . S
C1536 C1543 1.409 . S
C1537 H1529 0.930 . S
C1537 C1535 1.419 . S
C1537 C1538 1.362 . S
C1538 H1530 0.930 . S
C1538 C1537 1.362 . S
C1538 C1541 1.409 . S
C1539 H1531 0.930 . S
C1539 C1540 1.355 . S
C1539 C1541 1.415 . S
C1540 C1539 1.355 . S
C1540 C1542 1.419 . S
C1541 C1536 1.425 . S
C1541 C1538 1.409 . S
C1541 C1539 1.415 . S
C1542 H1532 0.930 . S
C1542 C1540 1.419 . S
C1542 C1543 1.362 . S
C1543 H1533 0.930 . S
C1543 C1536 1.409 . S
C1543 C1542 1.362 . S
H1544 C1550 0.930 . S
H1545 C1553 0.930 . S
H1546 C1554 0.930 . S
H1547 C1555 0.930 . S
H1548 C1558 0.930 . S
H1549 C1559 0.930 . S
C1550 H1544 0.930 . S
C1550 C1551 1.355 . S
C1550 C1552 1.415 . S
C1551 C1550 1.355 . S
C1551 C1553 1.419 . S
C1552 C1550 1.415 . S
C1552 C1557 1.425 . S
C1552 C1559 1.409 . S
C1553 H1545 0.930 . S
C1553 C1551 1.419 . S
C1553 C1554 1.362 . S
C1554 H1546 0.930 . S
C1554 C1553 1.362 . S
C1554 C1557 1.409 . S
C1555 H1547 0.930 . S
C1555 C1556 1.355 . S
C1555 C1557 1.415 . S
C1556 C1555 1.355 . S
C1556 C1558 1.419 . S
C1557 C1552 1.425 . S
C1557 C1554 1.409 . S
C1557 C1555 1.415 . S
C1558 H1548 0.930 . S
C1558 C1556 1.419 . S
C1558 C1559 1.362 . S
C1559 H1549 0.930 . S
C1559 C1552 1.409 . S
C1559 C1558 1.362 . S
H1560 C1566 0.930 . S
H1561 C1569 0.930 . S
H1562 C1570 0.930 . S
H1563 C1571 0.930 . S
H1564 C1574 0.930 . S
H1565 C1575 0.930 . S
C1566 H1560 0.930 . S
C1566 C1567 1.355 . S
C1566 C1568 1.415 . S
C1567 C1566 1.355 . S
C1567 C1569 1.419 . S
C1568 C1566 1.415 . S
C1568 C1573 1.425 . S
C1568 C1575 1.409 . S
C1569 H1561 0.930 . S
C1569 C1567 1.419 . S
C1569 C1570 1.362 . S
C1570 H1562 0.930 . S
C1570 C1569 1.362 . S
C1570 C1573 1.409 . S
C1571 H1563 0.930 . S
C1571 C1572 1.355 . S
C1571 C1573 1.415 . S
C1572 C1571 1.355 . S
C1572 C1574 1.419 . S
C1573 C1568 1.425 . S
C1573 C1570 1.409 . S
C1573 C1571 1.415 . S
C1574 H1564 0.930 . S
C1574 C1572 1.419 . S
C1574 C1575 1.362 . S
C1575 H1565 0.930 . S
C1575 C1568 1.409 . S
C1575 C1574 1.362 . S
H1576 C1582 0.930 . S
H1577 C1585 0.930 . S
H1578 C1586 0.930 . S
H1579 C1587 0.930 . S
H1580 C1590 0.930 . S
H1581 C1591 0.930 . S
C1582 H1576 0.930 . S
C1582 C1583 1.355 . S
C1582 C1584 1.415 . S
C1583 C1582 1.355 . S
C1583 C1585 1.419 . S
C1584 C1582 1.415 . S
C1584 C1589 1.425 . S
C1584 C1591 1.409 . S
C1585 H1577 0.930 . S
C1585 C1583 1.419 . S
C1585 C1586 1.362 . S
C1586 H1578 0.930 . S
C1586 C1585 1.362 . S
C1586 C1589 1.409 . S
C1587 H1579 0.930 . S
C1587 C1588 1.355 . S
C1587 C1589 1.415 . S
C1588 C1587 1.355 . S
C1588 C1590 1.419 . S
C1589 C1584 1.425 . S
C1589 C1586 1.409 . S
C1589 C1587 1.415 . S
C1590 H1580 0.930 . S
C1590 C1588 1.419 . S
C1590 C1591 1.362 . S
C1591 H1581 0.930 . S
C1591 C1584 1.409 . S
C1591 C1590 1.362 . S
H1592 C1598 0.930 . S
H1593 C1601 0.930 . S
H1594 C1602 0.930 . S
H1595 C1603 0.930 . S
H1596 C1606 0.930 . S
H1597 C1607 0.930 . S
C1598 H1592 0.930 . S
C1598 C1599 1.355 . S
C1598 C1600 1.415 . S
C1599 C1598 1.355 . S
C1599 C1601 1.419 . S
C1600 C1598 1.415 . S
C1600 C1605 1.425 . S
C1600 C1607 1.409 . S
C1601 H1593 0.930 . S
C1601 C1599 1.419 . S
C1601 C1602 1.362 . S
C1602 H1594 0.930 . S
C1602 C1601 1.362 . S
C1602 C1605 1.409 . S
C1603 H1595 0.930 . S
C1603 C1604 1.355 . S
C1603 C1605 1.415 . S
C1604 C1603 1.355 . S
C1604 C1606 1.419 . S
C1605 C1600 1.425 . S
C1605 C1602 1.409 . S
C1605 C1603 1.415 . S
C1606 H1596 0.930 . S
C1606 C1604 1.419 . S
C1606 C1607 1.362 . S
C1607 H1597 0.930 . S
C1607 C1600 1.409 . S
C1607 C1606 1.362 . S
H1608 C1614 0.930 . S
H1609 C1617 0.930 . S
H1610 C1618 0.930 . S
H1611 C1619 0.930 . S
H1612 C1622 0.930 . S
H1613 C1623 0.930 . S
C1614 H1608 0.930 . S
C1614 C1615 1.355 . S
C1614 C1616 1.415 . S
C1615 C1614 1.355 . S
C1615 C1617 1.419 . S
C1616 C1614 1.415 . S
C1616 C1621 1.425 . S
C1616 C1623 1.409 . S
C1617 H1609 0.930 . S
C1617 C1615 1.419 . S
C1617 C1618 1.362 . S
C1618 H1610 0.930 . S
C1618 C1617 1.362 . S
C1618 C1621 1.409 . S
C1619 H1611 0.930 . S
C1619 C1620 1.355 . S
C1619 C1621 1.415 . S
C1620 C1619 1.355 . S
C1620 C1622 1.419 . S
C1621 C1616 1.425 . S
C1621 C1618 1.409 . S
C1621 C1619 1.415 . S
C1622 H1612 0.930 . S
C1622 C1620 1.419 . S
C1622 C1623 1.362 . S
C1623 H1613 0.930 . S
C1623 C1616 1.409 . S
C1623 C1622 1.362 . S
H1624 C1630 0.930 . S
H1625 C1633 0.930 . S
H1626 C1634 0.930 . S
H1627 C1635 0.930 . S
H1628 C1638 0.930 . S
H1629 C1639 0.930 . S
C1630 H1624 0.930 . S
C1630 C1631 1.355 . S
C1630 C1632 1.415 . S
C1631 C1630 1.355 . S
C1631 C1633 1.419 . S
C1632 C1630 1.415 . S
C1632 C1637 1.425 . S
C1632 C1639 1.409 . S
C1633 H1625 0.930 . S
C1633 C1631 1.419 . S
C1633 C1634 1.362 . S
C1634 H1626 0.930 . S
C1634 C1633 1.362 . S
C1634 C1637 1.409 . S
C1635 H1627 0.930 . S
C1635 C1636 1.355 . S
C1635 C1637 1.415 . S
C1636 C1635 1.355 . S
C1636 C1638 1.419 . S
C1637 C1632 1.425 . S
C1637 C1634 1.409 . S
C1637 C1635 1.415 . S
C1638 H1628 0.930 . S
C1638 C1636 1.419 . S
C1638 C1639 1.362 . S
C1639 H1629 0.930 . S
C1639 C1632 1.409 . S
C1639 C1638 1.362 . S
H1640 C1646 0.930 . S
H1641 C1649 0.930 . S
H1642 C1650 0.930 . S
H1643 C1651 0.930 . S
H1644 C1654 0.930 . S
H1645 C1655 0.930 . S
C1646 H1640 0.930 . S
C1646 C1647 1.355 . S
C1646 C1648 1.415 . S
C1647 C1646 1.355 . S
C1647 C1649 1.419 . S
C1648 C1646 1.415 . S
C1648 C1653 1.425 . S
C1648 C1655 1.409 . S
C1649 H1641 0.930 . S
C1649 C1647 1.419 . S
C1649 C1650 1.362 . S
C1650 H1642 0.930 . S
C1650 C1649 1.362 . S
C1650 C1653 1.409 . S
C1651 H1643 0.930 . S
C1651 C1652 1.355 . S
C1651 C1653 1.415 . S
C1652 C1651 1.355 . S
C1652 C1654 1.419 . S
C1653 C1648 1.425 . S
C1653 C1650 1.409 . S
C1653 C1651 1.415 . S
C1654 H1644 0.930 . S
C1654 C1652 1.419 . S
C1654 C1655 1.362 . S
C1655 H1645 0.930 . S
C1655 C1648 1.409 . S
C1655 C1654 1.362 . S
H1656 C1662 0.930 . S
H1657 C1665 0.930 . S
H1658 C1666 0.930 . S
H1659 C1667 0.930 . S
H1660 C1670 0.930 . S
H1661 C1671 0.930 . S
C1662 H1656 0.930 . S
C1662 C1663 1.355 . S
C1662 C1664 1.415 . S
C1663 C1662 1.355 . S
C1663 C1665 1.419 . S
C1664 C1662 1.415 . S
C1664 C1669 1.425 . S
C1664 C1671 1.409 . S
C1665 H1657 0.930 . S
C1665 C1663 1.419 . S
C1665 C1666 1.362 . S
C1666 H1658 0.930 . S
C1666 C1665 1.362 . S
C1666 C1669 1.409 . S
C1667 H1659 0.930 . S
C1667 C1668 1.355 . S
C1667 C1669 1.415 . S
C1668 C1667 1.355 . S
C1668 C1670 1.419 . S
C1669 C1664 1.425 . S
C1669 C1666 1.409 . S
C1669 C1667 1.415 . S
C1670 H1660 0.930 . S
C1670 C1668 1.419 . S
C1670 C1671 1.362 . S
C1671 H1661 0.930 . S
C1671 C1664 1.409 . S
C1671 C1670 1.362 . S
H1672 C1678 0.930 . S
H1673 C1681 0.930 . S
H1674 C1682 0.930 . S
H1675 C1683 0.930 . S
H1676 C1686 0.930 . S
H1677 C1687 0.930 . S
C1678 H1672 0.930 . S
C1678 C1679 1.355 . S
C1678 C1680 1.415 . S
C1679 C1678 1.355 . S
C1679 C1681 1.419 . S
C1680 C1678 1.415 . S
C1680 C1685 1.425 . S
C1680 C1687 1.409 . S
C1681 H1673 0.930 . S
C1681 C1679 1.419 . S
C1681 C1682 1.362 . S
C1682 H1674 0.930 . S
C1682 C1681 1.362 . S
C1682 C1685 1.409 . S
C1683 H1675 0.930 . S
C1683 C1684 1.355 . S
C1683 C1685 1.415 . S
C1684 C1683 1.355 . S
C1684 C1686 1.419 . S
C1685 C1680 1.425 . S
C1685 C1682 1.409 . S
C1685 C1683 1.415 . S
C1686 H1676 0.930 . S
C1686 C1684 1.419 . S
C1686 C1687 1.362 . S
C1687 H1677 0.930 . S
C1687 C1680 1.409 . S
C1687 C1686 1.362 . S
H1688 C1694 0.930 . S
H1689 C1697 0.930 . S
H1690 C1698 0.930 . S
H1691 C1699 0.930 . S
H1692 C1702 0.930 . S
H1693 C1703 0.930 . S
C1694 H1688 0.930 . S
C1694 C1695 1.355 . S
C1694 C1696 1.415 . S
C1695 C1694 1.355 . S
C1695 C1697 1.419 . S
C1696 C1694 1.415 . S
C1696 C1701 1.425 . S
C1696 C1703 1.409 . S
C1697 H1689 0.930 . S
C1697 C1695 1.419 . S
C1697 C1698 1.362 . S
C1698 H1690 0.930 . S
C1698 C1697 1.362 . S
C1698 C1701 1.409 . S
C1699 H1691 0.930 . S
C1699 C1700 1.355 . S
C1699 C1701 1.415 . S
C1700 C1699 1.355 . S
C1700 C1702 1.419 . S
C1701 C1696 1.425 . S
C1701 C1698 1.409 . S
C1701 C1699 1.415 . S
C1702 H1692 0.930 . S
C1702 C1700 1.419 . S
C1702 C1703 1.362 . S
C1703 H1693 0.930 . S
C1703 C1696 1.409 . S
C1703 C1702 1.362 . S
H1704 C1710 0.930 . S
H1705 C1713 0.930 . S
H1706 C1714 0.930 . S
H1707 C1715 0.930 . S
H1708 C1718 0.930 . S
H1709 C1719 0.930 . S
C1710 H1704 0.930 . S
C1710 C1711 1.355 . S
C1710 C1712 1.415 . S
C1711 C1710 1.355 . S
C1711 C1713 1.419 . S
C1712 C1710 1.415 . S
C1712 C1717 1.425 . S
C1712 C1719 1.409 . S
C1713 H1705 0.930 . S
C1713 C1711 1.419 . S
C1713 C1714 1.362 . S
C1714 H1706 0.930 . S
C1714 C1713 1.362 . S
C1714 C1717 1.409 . S
C1715 H1707 0.930 . S
C1715 C1716 1.355 . S
C1715 C1717 1.415 . S
C1716 C1715 1.355 . S
C1716 C1718 1.419 . S
C1717 C1712 1.425 . S
C1717 C1714 1.409 . S
C1717 C1715 1.415 . S
C1718 H1708 0.930 . S
C1718 C1716 1.419 . S
C1718 C1719 1.362 . S
C1719 H1709 0.930 . S
C1719 C1712 1.409 . S
C1719 C1718 1.362 . S
H1720 C1726 0.930 . S
H1721 C1729 0.930 . S
H1722 C1730 0.930 . S
H1723 C1731 0.930 . S
H1724 C1734 0.930 . S
H1725 C1735 0.930 . S
C1726 H1720 0.930 . S
C1726 C1727 1.355 . S
C1726 C1728 1.415 . S
C1727 C1726 1.355 . S
C1727 C1729 1.419 . S
C1728 C1726 1.415 . S
C1728 C1733 1.425 . S
C1728 C1735 1.409 . S
C1729 H1721 0.930 . S
C1729 C1727 1.419 . S
C1729 C1730 1.362 . S
C1730 H1722 0.930 . S
C1730 C1729 1.362 . S
C1730 C1733 1.409 . S
C1731 H1723 0.930 . S
C1731 C1732 1.355 . S
C1731 C1733 1.415 . S
C1732 C1731 1.355 . S
C1732 C1734 1.419 . S
C1733 C1728 1.425 . S
C1733 C1730 1.409 . S
C1733 C1731 1.415 . S
C1734 H1724 0.930 . S
C1734 C1732 1.419 . S
C1734 C1735 1.362 . S
C1735 H1725 0.930 . S
C1735 C1728 1.409 . S
C1735 C1734 1.362 . S
H1736 C1742 0.930 . S
H1737 C1745 0.930 . S
H1738 C1746 0.930 . S
H1739 C1747 0.930 . S
H1740 C1750 0.930 . S
H1741 C1751 0.930 . S
C1742 H1736 0.930 . S
C1742 C1743 1.355 . S
C1742 C1744 1.415 . S
C1743 C1742 1.355 . S
C1743 C1745 1.419 . S
C1744 C1742 1.415 . S
C1744 C1749 1.425 . S
C1744 C1751 1.409 . S
C1745 H1737 0.930 . S
C1745 C1743 1.419 . S
C1745 C1746 1.362 . S
C1746 H1738 0.930 . S
C1746 C1745 1.362 . S
C1746 C1749 1.409 . S
C1747 H1739 0.930 . S
C1747 C1748 1.355 . S
C1747 C1749 1.415 . S
C1748 C1747 1.355 . S
C1748 C1750 1.419 . S
C1749 C1744 1.425 . S
C1749 C1746 1.409 . S
C1749 C1747 1.415 . S
C1750 H1740 0.930 . S
C1750 C1748 1.419 . S
C1750 C1751 1.362 . S
C1751 H1741 0.930 . S
C1751 C1744 1.409 . S
C1751 C1750 1.362 . S
H1752 C1758 0.930 . S
H1753 C1761 0.930 . S
H1754 C1762 0.930 . S
H1755 C1763 0.930 . S
H1756 C1766 0.930 . S
H1757 C1767 0.930 . S
C1758 H1752 0.930 . S
C1758 C1759 1.355 . S
C1758 C1760 1.415 . S
C1759 C1758 1.355 . S
C1759 C1761 1.419 . S
C1760 C1758 1.415 . S
C1760 C1765 1.425 . S
C1760 C1767 1.409 . S
C1761 H1753 0.930 . S
C1761 C1759 1.419 . S
C1761 C1762 1.362 . S
C1762 H1754 0.930 . S
C1762 C1761 1.362 . S
C1762 C1765 1.409 . S
C1763 H1755 0.930 . S
C1763 C1764 1.355 . S
C1763 C1765 1.415 . S
C1764 C1763 1.355 . S
C1764 C1766 1.419 . S
C1765 C1760 1.425 . S
C1765 C1762 1.409 . S
C1765 C1763 1.415 . S
C1766 H1756 0.930 . S
C1766 C1764 1.419 . S
C1766 C1767 1.362 . S
C1767 H1757 0.930 . S
C1767 C1760 1.409 . S
C1767 C1766 1.362 . S
H1768 C1774 0.930 . S
H1769 C1777 0.930 . S
H1770 C1778 0.930 . S
H1771 C1779 0.930 . S
H1772 C1782 0.930 . S
H1773 C1783 0.930 . S
C1774 H1768 0.930 . S
C1774 C1775 1.355 . S
C1774 C1776 1.415 . S
C1775 C1774 1.355 . S
C1775 C1777 1.419 . S
C1776 C1774 1.415 . S
C1776 C1781 1.425 . S
C1776 C1783 1.409 . S
C1777 H1769 0.930 . S
C1777 C1775 1.419 . S
C1777 C1778 1.362 . S
C1778 H1770 0.930 . S
C1778 C1777 1.362 . S
C1778 C1781 1.409 . S
C1779 H1771 0.930 . S
C1779 C1780 1.355 . S
C1779 C1781 1.415 . S
C1780 C1779 1.355 . S
C1780 C1782 1.419 . S
C1781 C1776 1.425 . S
C1781 C1778 1.409 . S
C1781 C1779 1.415 . S
C1782 H1772 0.930 . S
C1782 C1780 1.419 . S
C1782 C1783 1.362 . S
C1783 H1773 0.930 . S
C1783 C1776 1.409 . S
C1783 C1782 1.362 . S
H1784 C1790 0.930 . S
H1785 C1793 0.930 . S
H1786 C1794 0.930 . S
H1787 C1795 0.930 . S
H1788 C1798 0.930 . S
H1789 C1799 0.930 . S
C1790 H1784 0.930 . S
C1790 C1791 1.355 . S
C1790 C1792 1.415 . S
C1791 C1790 1.355 . S
C1791 C1793 1.419 . S
C1792 C1790 1.415 . S
C1792 C1797 1.425 . S
C1792 C1799 1.409 . S
C1793 H1785 0.930 . S
C1793 C1791 1.419 . S
C1793 C1794 1.362 . S
C1794 H1786 0.930 . S
C1794 C1793 1.362 . S
C1794 C1797 1.409 . S
C1795 H1787 0.930 . S
C1795 C1796 1.355 . S
C1795 C1797 1.415 . S
C1796 C1795 1.355 . S
C1796 C1798 1.419 . S
C1797 C1792 1.425 . S
C1797 C1794 1.409 . S
C1797 C1795 1.415 . S
C1798 H1788 0.930 . S
C1798 C1796 1.419 . S
C1798 C1799 1.362 . S
C1799 H1789 0.930 . S
C1799 C1792 1.409 . S
C1799 C1798 1.362 . S
H1800 C1806 0.930 . S
H1801 C1809 0.930 . S
H1802 C1810 0.930 . S
H1803 C1811 0.930 . S
H1804 C1814 0.930 . S
H1805 C1815 0.930 . S
C1806 H1800 0.930 . S
C1806 C1807 1.355 . S
C1806 C1808 1.415 . S
C1807 C1806 1.355 . S
C1807 C1809 1.419 . S
C1808 C1806 1.415 . S
C1808 C1813 1.425 . S
C1808 C1815 1.409 . S
C1809 H1801 0.930 . S
C1809 C1807 1.419 . S
C1809 C1810 1.362 . S
C1810 H1802 0.930 . S
C1810 C1809 1.362 . S
C1810 C1813 1.409 . S
C1811 H1803 0.930 . S
C1811 C1812 1.355 . S
C1811 C1813 1.415 . S
C1812 C1811 1.355 . S
C1812 C1814 1.419 . S
C1813 C1808 1.425 . S
C1813 C1810 1.409 . S
C1813 C1811 1.415 . S
C1814 H1804 0.930 . S
C1814 C1812 1.419 . S
C1814 C1815 1.362 . S
C1815 H1805 0.930 . S
C1815 C1808 1.409 . S
C1815 C1814 1.362 . S
H1816 C1822 0.930 . S
H1817 C1825 0.930 . S
H1818 C1826 0.930 . S
H1819 C1827 0.930 . S
H1820 C1830 0.930 . S
H1821 C1831 0.930 . S
C1822 H1816 0.930 . S
C1822 C1823 1.355 . S
C1822 C1824 1.415 . S
C1823 C1822 1.355 . S
C1823 C1825 1.419 . S
C1824 C1822 1.415 . S
C1824 C1829 1.425 . S
C1824 C1831 1.409 . S
C1825 H1817 0.930 . S
C1825 C1823 1.419 . S
C1825 C1826 1.362 . S
C1826 H1818 0.930 . S
C1826 C1825 1.362 . S
C1826 C1829 1.409 . S
C1827 H1819 0.930 . S
C1827 C1828 1.355 . S
C1827 C1829 1.415 . S
C1828 C1827 1.355 . S
C1828 C1830 1.419 . S
C1829 C1824 1.425 . S
C1829 C1826 1.409 . S
C1829 C1827 1.415 . S
C1830 H1820 0.930 . S
C1830 C1828 1.419 . S
C1830 C1831 1.362 . S
C1831 H1821 0.930 . S
C1831 C1824 1.409 . S
C1831 C1830 1.362 . S
H1832 C1838 0.930 . S
H1833 C1841 0.930 . S
H1834 C1842 0.930 . S
H1835 C1843 0.930 . S
H1836 C1846 0.930 . S
H1837 C1847 0.930 . S
C1838 H1832 0.930 . S
C1838 C1839 1.355 . S
C1838 C1840 1.415 . S
C1839 C1838 1.355 . S
C1839 C1841 1.419 . S
C1840 C1838 1.415 . S
C1840 C1845 1.425 . S
C1840 C1847 1.409 . S
C1841 H1833 0.930 . S
C1841 C1839 1.419 . S
C1841 C1842 1.362 . S
C1842 H1834 0.930 . S
C1842 C1841 1.362 . S
C1842 C1845 1.409 . S
C1843 H1835 0.930 . S
C1843 C1844 1.355 . S
C1843 C1845 1.415 . S
C1844 C1843 1.355 . S
C1844 C1846 1.419 . S
C1845 C1840 1.425 . S
C1845 C1842 1.409 . S
C1845 C1843 1.415 . S
C1846 H1836 0.930 . S
C1846 C1844 1.419 . S
C1846 C1847 1.362 . S
C1847 H1837 0.930 . S
C1847 C1840 1.409 . S
C1847 C1846 1.362 . S
H1848 C1854 0.930 . S
H1849 C1857 0.930 . S
H1850 C1858 0.930 . S
H1851 C1859 0.930 . S
H1852 C1862 0.930 . S
H1853 C1863 0.930 . S
C1854 H1848 0.930 . S
C1854 C1855 1.355 . S
C1854 C1856 1.415 . S
C1855 C1854 1.355 . S
C1855 C1857 1.419 1_655 S
C1856 C1854 1.415 . S
C1856 C1861 1.425 1_655 S
C1856 C1863 1.409 . S
C1857 H1849 0.930 . S
C1857 C1855 1.419 1_455 S
C1857 C1858 1.362 . S
C1858 H1850 0.930 . S
C1858 C1857 1.362 . S
C1858 C1861 1.409 . S
C1859 H1851 0.930 . S
C1859 C1860 1.355 . S
C1859 C1861 1.415 . S
C1860 C1859 1.355 . S
C1860 C1862 1.419 1_455 S
C1861 C1856 1.425 1_455 S
C1861 C1858 1.409 . S
C1861 C1859 1.415 . S
C1862 H1852 0.930 . S
C1862 C1860 1.419 1_655 S
C1862 C1863 1.362 . S
C1863 H1853 0.930 . S
C1863 C1856 1.409 . S
C1863 C1862 1.362 . S
H1864 C1870 0.930 . S
H1865 C1873 0.930 . S
H1866 C1874 0.930 . S
H1867 C1875 0.930 . S
H1868 C1878 0.930 . S
H1869 C1879 0.930 . S
C1870 H1864 0.930 . S
C1870 C1871 1.355 . S
C1870 C1872 1.415 . S
C1871 C1870 1.355 . S
C1871 C1873 1.419 . S
C1872 C1870 1.415 . S
C1872 C1877 1.425 . S
C1872 C1879 1.409 . S
C1873 H1865 0.930 . S
C1873 C1871 1.419 . S
C1873 C1874 1.362 . S
C1874 H1866 0.930 . S
C1874 C1873 1.362 . S
C1874 C1877 1.409 . S
C1875 H1867 0.930 . S
C1875 C1876 1.355 . S
C1875 C1877 1.415 . S
C1876 C1875 1.355 . S
C1876 C1878 1.419 . S
C1877 C1872 1.425 . S
C1877 C1874 1.409 . S
C1877 C1875 1.415 . S
C1878 H1868 0.930 . S
C1878 C1876 1.419 . S
C1878 C1879 1.362 . S
C1879 H1869 0.930 . S
C1879 C1872 1.409 . S
C1879 C1878 1.362 . S
H1880 C1886 0.930 . S
H1881 C1889 0.930 . S
H1882 C1890 0.930 . S
H1883 C1891 0.930 . S
H1884 C1894 0.930 . S
H1885 C1895 0.930 . S
C1886 H1880 0.930 . S
C1886 C1887 1.355 . S
C1886 C1888 1.415 . S
C1887 C1886 1.355 . S
C1887 C1889 1.419 1_545 S
C1888 C1886 1.415 . S
C1888 C1893 1.425 1_545 S
C1888 C1895 1.409 . S
C1889 H1881 0.930 . S
C1889 C1887 1.419 1_565 S
C1889 C1890 1.362 . S
C1890 H1882 0.930 . S
C1890 C1889 1.362 . S
C1890 C1893 1.409 . S
C1891 H1883 0.930 . S
C1891 C1892 1.355 . S
C1891 C1893 1.415 . S
C1892 C1891 1.355 . S
C1892 C1894 1.419 1_565 S
C1893 C1888 1.425 1_565 S
C1893 C1890 1.409 . S
C1893 C1891 1.415 . S
C1894 H1884 0.930 . S
C1894 C1892 1.419 1_545 S
C1894 C1895 1.362 . S
C1895 H1885 0.930 . S
C1895 C1888 1.409 . S
C1895 C1894 1.362 . S
H1896 C1902 0.930 . S
H1897 C1905 0.930 . S
H1898 C1906 0.930 . S
H1899 C1907 0.930 . S
H1900 C1910 0.930 . S
H1901 C1911 0.930 . S
C1902 H1896 0.930 . S
C1902 C1903 1.355 1_545 S
C1902 C1904 1.415 . S
C1903 C1902 1.355 1_565 S
C1903 C1905 1.419 . S
C1904 C1902 1.415 . S
C1904 C1909 1.425 1_544 S
C1904 C1911 1.409 . S
C1905 H1897 0.930 . S
C1905 C1903 1.419 . S
C1905 C1906 1.362 1_554 S
C1906 H1898 0.930 . S
C1906 C1905 1.362 1_556 S
C1906 C1909 1.409 . S
C1907 H1899 0.930 . S
C1907 C1908 1.355 1_565 S
C1907 C1909 1.415 . S
C1908 C1907 1.355 1_545 S
C1908 C1910 1.419 . S
C1909 C1904 1.425 1_566 S
C1909 C1906 1.409 . S
C1909 C1907 1.415 . S
C1910 H1900 0.930 . S
C1910 C1908 1.419 . S
C1910 C1911 1.362 1_556 S
C1911 H1901 0.930 . S
C1911 C1904 1.409 . S
C1911 C1910 1.362 1_554 S
H1912 C1918 0.930 . S
H1913 C1921 0.930 . S
H1914 C1922 0.930 . S
H1915 C1923 0.930 . S
H1916 C1926 0.930 . S
H1917 C1927 0.930 . S
C1918 H1912 0.930 . S
C1918 C1919 1.355 1_455 S
C1918 C1920 1.415 . S
C1919 C1918 1.355 1_655 S
C1919 C1921 1.419 1_556 S
C1920 C1918 1.415 . S
C1920 C1925 1.425 1_456 S
C1920 C1927 1.409 . S
C1921 H1913 0.930 . S
C1921 C1919 1.419 1_554 S
C1921 C1922 1.362 . S
C1922 H1914 0.930 . S
C1922 C1921 1.362 . S
C1922 C1925 1.409 . S
C1923 H1915 0.930 . S
C1923 C1924 1.355 1_655 S
C1923 C1925 1.415 . S
C1924 C1923 1.355 1_455 S
C1924 C1926 1.419 1_554 S
C1925 C1920 1.425 1_654 S
C1925 C1922 1.409 . S
C1925 C1923 1.415 . S
C1926 H1916 0.930 . S
C1926 C1924 1.419 1_556 S
C1926 C1927 1.362 . S
C1927 H1917 0.930 . S
C1927 C1920 1.409 . S
C1927 C1926 1.362 . S
H1928 C1934 0.930 . S
H1929 C1937 0.930 . S
H1930 C1938 0.930 . S
H1931 C1939 0.930 . S
H1932 C1942 0.930 . S
H1933 C1943 0.930 . S
C1934 H1928 0.930 . S
C1934 C1935 1.355 1_556 S
C1934 C1936 1.415 . S
C1935 C1934 1.355 1_554 S
C1935 C1937 1.419 . S
C1936 C1934 1.415 . S
C1936 C1941 1.425 1_556 S
C1936 C1943 1.409 . S
C1937 H1929 0.930 . S
C1937 C1935 1.419 . S
C1937 C1938 1.362 . S
C1938 H1930 0.930 . S
C1938 C1937 1.362 . S
C1938 C1941 1.409 . S
C1939 H1931 0.930 . S
C1939 C1940 1.355 1_554 S
C1939 C1941 1.415 . S
C1940 C1939 1.355 1_556 S
C1940 C1942 1.419 . S
C1941 C1936 1.425 1_554 S
C1941 C1938 1.409 . S
C1941 C1939 1.415 . S
C1942 H1932 0.930 . S
C1942 C1940 1.419 . S
C1942 C1943 1.362 . S
C1943 H1933 0.930 . S
C1943 C1936 1.409 . S
C1943 C1942 1.362 . S
H1944 C1950 0.930 . S
H1945 C1953 0.930 . S
H1946 C1954 0.930 . S
H1947 C1955 0.930 . S
H1948 C1958 0.930 . S
H1949 C1959 0.930 . S
C1950 H1944 0.930 . S
C1950 C1951 1.355 . S
C1950 C1952 1.415 . S
C1951 C1950 1.355 . S
C1951 C1953 1.419 . S
C1952 C1950 1.415 . S
C1952 C1957 1.425 . S
C1952 C1959 1.409 . S
C1953 H1945 0.930 . S
C1953 C1951 1.419 . S
C1953 C1954 1.362 . S
C1954 H1946 0.930 . S
C1954 C1953 1.362 . S
C1954 C1957 1.409 . S
C1955 H1947 0.930 . S
C1955 C1956 1.355 . S
C1955 C1957 1.415 . S
C1956 C1955 1.355 . S
C1956 C1958 1.419 . S
C1957 C1952 1.425 . S
C1957 C1954 1.409 . S
C1957 C1955 1.415 . S
C1958 H1948 0.930 . S
C1958 C1956 1.419 . S
C1958 C1959 1.362 . S
C1959 H1949 0.930 . S
C1959 C1952 1.409 . S
C1959 C1958 1.362 . S
H1960 C1966 0.930 . S
H1961 C1969 0.930 . S
H1962 C1970 0.930 . S
H1963 C1971 0.930 . S
H1964 C1974 0.930 . S
H1965 C1975 0.930 . S
C1966 H1960 0.930 . S
C1966 C1967 1.355 . S
C1966 C1968 1.415 . S
C1967 C1966 1.355 . S
C1967 C1969 1.419 . S
C1968 C1966 1.415 . S
C1968 C1973 1.425 . S
C1968 C1975 1.409 . S
C1969 H1961 0.930 . S
C1969 C1967 1.419 . S
C1969 C1970 1.362 . S
C1970 H1962 0.930 . S
C1970 C1969 1.362 . S
C1970 C1973 1.409 . S
C1971 H1963 0.930 . S
C1971 C1972 1.355 . S
C1971 C1973 1.415 . S
C1972 C1971 1.355 . S
C1972 C1974 1.419 . S
C1973 C1968 1.425 . S
C1973 C1970 1.409 . S
C1973 C1971 1.415 . S
C1974 H1964 0.930 . S
C1974 C1972 1.419 . S
C1974 C1975 1.362 . S
C1975 H1965 0.930 . S
C1975 C1968 1.409 . S
C1975 C1974 1.362 . S
H1976 C1982 0.930 . S
H1977 C1985 0.930 . S
H1978 C1986 0.930 . S
H1979 C1987 0.930 . S
H1980 C1990 0.930 . S
H1981 C1991 0.930 . S
C1982 H1976 0.930 . S
C1982 C1983 1.355 . S
C1982 C1984 1.415 . S
C1983 C1982 1.355 . S
C1983 C1985 1.419 . S
C1984 C1982 1.415 . S
C1984 C1989 1.425 . S
C1984 C1991 1.409 . S
C1985 H1977 0.930 . S
C1985 C1983 1.419 . S
C1985 C1986 1.362 . S
C1986 H1978 0.930 . S
C1986 C1985 1.362 . S
C1986 C1989 1.409 . S
C1987 H1979 0.930 . S
C1987 C1988 1.355 . S
C1987 C1989 1.415 . S
C1988 C1987 1.355 . S
C1988 C1990 1.419 . S
C1989 C1984 1.425 . S
C1989 C1986 1.409 . S
C1989 C1987 1.415 . S
C1990 H1980 0.930 . S
C1990 C1988 1.419 . S
C1990 C1991 1.362 . S
C1991 H1981 0.930 . S
C1991 C1984 1.409 . S
C1991 C1990 1.362 . S
H1992 C1998 0.930 . S
H1993 C2001 0.930 . S
H1994 C2002 0.930 . S
H1995 C2003 0.930 . S
H1996 C2006 0.930 . S
H1997 C2007 0.930 . S
C1998 H1992 0.930 . S
C1998 C1999 1.355 . S
C1998 C2000 1.415 . S
C1999 C1998 1.355 . S
C1999 C2001 1.419 . S
C2000 C1998 1.415 . S
C2000 C2005 1.425 . S
C2000 C2007 1.409 . S
C2001 H1993 0.930 . S
C2001 C1999 1.419 . S
C2001 C2002 1.362 . S
C2002 H1994 0.930 . S
C2002 C2001 1.362 . S
C2002 C2005 1.409 . S
C2003 H1995 0.930 . S
C2003 C2004 1.355 . S
C2003 C2005 1.415 . S
C2004 C2003 1.355 . S
C2004 C2006 1.419 . S
C2005 C2000 1.425 . S
C2005 C2002 1.409 . S
C2005 C2003 1.415 . S
C2006 H1996 0.930 . S
C2006 C2004 1.419 . S
C2006 C2007 1.362 . S
C2007 H1997 0.930 . S
C2007 C2000 1.409 . S
C2007 C2006 1.362 . S
H2008 C2014 0.930 . S
H2009 C2017 0.930 . S
H2010 C2018 0.930 . S
H2011 C2019 0.930 . S
H2012 C2022 0.930 . S
H2013 C2023 0.930 . S
C2014 H2008 0.930 . S
C2014 C2015 1.355 . S
C2014 C2016 1.415 . S
C2015 C2014 1.355 . S
C2015 C2017 1.419 . S
C2016 C2014 1.415 . S
C2016 C2021 1.425 . S
C2016 C2023 1.409 . S
C2017 H2009 0.930 . S
C2017 C2015 1.419 . S
C2017 C2018 1.362 . S
C2018 H2010 0.930 . S
C2018 C2017 1.362 . S
C2018 C2021 1.409 . S
C2019 H2011 0.930 . S
C2019 C2020 1.355 . S
C2019 C2021 1.415 . S
C2020 C2019 1.355 . S
C2020 C2022 1.419 . S
C2021 C2016 1.425 . S
C2021 C2018 1.409 . S
C2021 C2019 1.415 . S
C2022 H2012 0.930 . S
C2022 C2020 1.419 . S
C2022 C2023 1.362 . S
C2023 H2013 0.930 . S
C2023 C2016 1.409 . S
C2023 C2022 1.362 . S
H2024 C2030 0.930 . S
H2025 C2033 0.930 . S
H2026 C2034 0.930 . S
H2027 C2035 0.930 . S
H2028 C2038 0.930 . S
H2029 C2039 0.930 . S
C2030 H2024 0.930 . S
C2030 C2031 1.355 . S
C2030 C2032 1.415 . S
C2031 C2030 1.355 . S
C2031 C2033 1.419 . S
C2032 C2030 1.415 . S
C2032 C2037 1.425 . S
C2032 C2039 1.409 . S
C2033 H2025 0.930 . S
C2033 C2031 1.419 . S
C2033 C2034 1.362 . S
C2034 H2026 0.930 . S
C2034 C2033 1.362 . S
C2034 C2037 1.409 . S
C2035 H2027 0.930 . S
C2035 C2036 1.355 . S
C2035 C2037 1.415 . S
C2036 C2035 1.355 . S
C2036 C2038 1.419 . S
C2037 C2032 1.425 . S
C2037 C2034 1.409 . S
C2037 C2035 1.415 . S
C2038 H2028 0.930 . S
C2038 C2036 1.419 . S
C2038 C2039 1.362 . S
C2039 H2029 0.930 . S
C2039 C2032 1.409 . S
C2039 C2038 1.362 . S
H2040 C2046 0.930 . S
H2041 C2049 0.930 . S
H2042 C2050 0.930 . S
H2043 C2051 0.930 . S
H2044 C2054 0.930 . S
H2045 C2055 0.930 . S
C2046 H2040 0.930 . S
C2046 C2047 1.355 . S
C2046 C2048 1.415 . S
C2047 C2046 1.355 . S
C2047 C2049 1.419 . S
C2048 C2046 1.415 . S
C2048 C2053 1.425 . S
C2048 C2055 1.409 . S
C2049 H2041 0.930 . S
C2049 C2047 1.419 . S
C2049 C2050 1.362 . S
C2050 H2042 0.930 . S
C2050 C2049 1.362 . S
C2050 C2053 1.409 . S
C2051 H2043 0.930 . S
C2051 C2052 1.355 . S
C2051 C2053 1.415 . S
C2052 C2051 1.355 . S
C2052 C2054 1.419 . S
C2053 C2048 1.425 . S
C2053 C2050 1.409 . S
C2053 C2051 1.415 . S
C2054 H2044 0.930 . S
C2054 C2052 1.419 . S
C2054 C2055 1.362 . S
C2055 H2045 0.930 . S
C2055 C2048 1.409 . S
C2055 C2054 1.362 . S
H2056 C2062 0.930 . S
H2057 C2065 0.930 . S
H2058 C2066 0.930 . S
H2059 C2067 0.930 . S
H2060 C2070 0.930 . S
H2061 C2071 0.930 . S
C2062 H2056 0.930 . S
C2062 C2063 1.355 . S
C2062 C2064 1.415 . S
C2063 C2062 1.355 . S
C2063 C2065 1.419 . S
C2064 C2062 1.415 . S
C2064 C2069 1.425 . S
C2064 C2071 1.409 . S
C2065 H2057 0.930 . S
C2065 C2063 1.419 . S
C2065 C2066 1.362 . S
C2066 H2058 0.930 . S
C2066 C2065 1.362 . S
C2066 C2069 1.409 . S
C2067 H2059 0.930 . S
C2067 C2068 1.355 . S
C2067 C2069 1.415 . S
C2068 C2067 1.355 . S
C2068 C2070 1.419 . S
C2069 C2064 1.425 . S
C2069 C2066 1.409 . S
C2069 C2067 1.415 . S
C2070 H2060 0.930 . S
C2070 C2068 1.419 . S
C2070 C2071 1.362 . S
C2071 H2061 0.930 . S
C2071 C2064 1.409 . S
C2071 C2070 1.362 . S
H2072 C2078 0.930 . S
H2073 C2081 0.930 . S
H2074 C2082 0.930 . S
H2075 C2083 0.930 . S
H2076 C2086 0.930 . S
H2077 C2087 0.930 . S
C2078 H2072 0.930 . S
C2078 C2079 1.355 . S
C2078 C2080 1.415 . S
C2079 C2078 1.355 . S
C2079 C2081 1.419 . S
C2080 C2078 1.415 . S
C2080 C2085 1.425 . S
C2080 C2087 1.409 . S
C2081 H2073 0.930 . S
C2081 C2079 1.419 . S
C2081 C2082 1.362 . S
C2082 H2074 0.930 . S
C2082 C2081 1.362 . S
C2082 C2085 1.409 . S
C2083 H2075 0.930 . S
C2083 C2084 1.355 . S
C2083 C2085 1.415 . S
C2084 C2083 1.355 . S
C2084 C2086 1.419 . S
C2085 C2080 1.425 . S
C2085 C2082 1.409 . S
C2085 C2083 1.415 . S
C2086 H2076 0.930 . S
C2086 C2084 1.419 . S
C2086 C2087 1.362 . S
C2087 H2077 0.930 . S
C2087 C2080 1.409 . S
C2087 C2086 1.362 . S
H2088 C2094 0.930 . S
H2089 C2097 0.930 . S
H2090 C2098 0.930 . S
H2091 C2099 0.930 . S
H2092 C2102 0.930 . S
H2093 C2103 0.930 . S
C2094 H2088 0.930 . S
C2094 C2095 1.355 . S
C2094 C2096 1.415 . S
C2095 C2094 1.355 . S
C2095 C2097 1.419 . S
C2096 C2094 1.415 . S
C2096 C2101 1.425 . S
C2096 C2103 1.409 . S
C2097 H2089 0.930 . S
C2097 C2095 1.419 . S
C2097 C2098 1.362 . S
C2098 H2090 0.930 . S
C2098 C2097 1.362 . S
C2098 C2101 1.409 . S
C2099 H2091 0.930 . S
C2099 C2100 1.355 . S
C2099 C2101 1.415 . S
C2100 C2099 1.355 . S
C2100 C2102 1.419 . S
C2101 C2096 1.425 . S
C2101 C2098 1.409 . S
C2101 C2099 1.415 . S
C2102 H2092 0.930 . S
C2102 C2100 1.419 . S
C2102 C2103 1.362 . S
C2103 H2093 0.930 . S
C2103 C2096 1.409 . S
C2103 C2102 1.362 . S
H2104 C2110 0.930 . S
H2105 C2113 0.930 . S
H2106 C2114 0.930 . S
H2107 C2115 0.930 . S
H2108 C2118 0.930 . S
H2109 C2119 0.930 . S
C2110 H2104 0.930 . S
C2110 C2111 1.355 . S
C2110 C2112 1.415 . S
C2111 C2110 1.355 . S
C2111 C2113 1.419 . S
C2112 C2110 1.415 . S
C2112 C2117 1.425 . S
C2112 C2119 1.409 . S
C2113 H2105 0.930 . S
C2113 C2111 1.419 . S
C2113 C2114 1.362 . S
C2114 H2106 0.930 . S
C2114 C2113 1.362 . S
C2114 C2117 1.409 . S
C2115 H2107 0.930 . S
C2115 C2116 1.355 . S
C2115 C2117 1.415 . S
C2116 C2115 1.355 . S
C2116 C2118 1.419 . S
C2117 C2112 1.425 . S
C2117 C2114 1.409 . S
C2117 C2115 1.415 . S
C2118 H2108 0.930 . S
C2118 C2116 1.419 . S
C2118 C2119 1.362 . S
C2119 H2109 0.930 . S
C2119 C2112 1.409 . S
C2119 C2118 1.362 . S
H2120 C2126 0.930 . S
H2121 C2129 0.930 . S
H2122 C2130 0.930 . S
H2123 C2131 0.930 . S
H2124 C2134 0.930 . S
H2125 C2135 0.930 . S
C2126 H2120 0.930 . S
C2126 C2127 1.355 . S
C2126 C2128 1.415 . S
C2127 C2126 1.355 . S
C2127 C2129 1.419 . S
C2128 C2126 1.415 . S
C2128 C2133 1.425 . S
C2128 C2135 1.409 . S
C2129 H2121 0.930 . S
C2129 C2127 1.419 . S
C2129 C2130 1.362 . S
C2130 H2122 0.930 . S
C2130 C2129 1.362 . S
C2130 C2133 1.409 . S
C2131 H2123 0.930 . S
C2131 C2132 1.355 . S
C2131 C2133 1.415 . S
C2132 C2131 1.355 . S
C2132 C2134 1.419 . S
C2133 C2128 1.425 . S
C2133 C2130 1.409 . S
C2133 C2131 1.415 . S
C2134 H2124 0.930 . S
C2134 C2132 1.419 . S
C2134 C2135 1.362 . S
C2135 H2125 0.930 . S
C2135 C2128 1.409 . S
C2135 C2134 1.362 . S
H2136 C2142 0.930 . S
H2137 C2145 0.930 . S
H2138 C2146 0.930 . S
H2139 C2147 0.930 . S
H2140 C2150 0.930 . S
H2141 C2151 0.930 . S
C2142 H2136 0.930 . S
C2142 C2143 1.355 . S
C2142 C2144 1.410 1_455 S
C2143 C2142 1.355 . S
C2143 C2145 1.419 . S
C2144 C2142 1.410 1_655 S
C2144 C2149 1.419 1_655 S
C2144 C2151 1.417 . S
C2145 H2137 0.930 . S
C2145 C2143 1.419 . S
C2145 C2146 1.362 . S
C2146 H2138 0.930 . S
C2146 C2145 1.362 . S
C2146 C2149 1.418 . S
C2147 H2139 0.930 . S
C2147 C2148 1.355 . S
C2147 C2149 1.409 1_655 S
C2148 C2147 1.355 . S
C2148 C2150 1.419 . S
C2149 C2144 1.419 1_455 S
C2149 C2146 1.418 . S
C2149 C2147 1.409 1_455 S
C2150 H2140 0.930 . S
C2150 C2148 1.419 . S
C2150 C2151 1.362 . S
C2151 H2141 0.930 . S
C2151 C2144 1.417 . S
C2151 C2150 1.362 . S
H2152 C2158 0.930 . S
H2153 C2161 0.930 . S
H2154 C2162 0.930 . S
H2155 C2163 0.930 . S
H2156 C2166 0.930 . S
H2157 C2167 0.930 . S
C2158 H2152 0.930 . S
C2158 C2159 1.355 . S
C2158 C2160 1.415 . S
C2159 C2158 1.355 . S
C2159 C2161 1.419 . S
C2160 C2158 1.415 . S
C2160 C2165 1.425 . S
C2160 C2167 1.409 . S
C2161 H2153 0.930 . S
C2161 C2159 1.419 . S
C2161 C2162 1.362 . S
C2162 H2154 0.930 . S
C2162 C2161 1.362 . S
C2162 C2165 1.409 . S
C2163 H2155 0.930 . S
C2163 C2164 1.355 . S
C2163 C2165 1.415 . S
C2164 C2163 1.355 . S
C2164 C2166 1.419 . S
C2165 C2160 1.425 . S
C2165 C2162 1.409 . S
C2165 C2163 1.415 . S
C2166 H2156 0.930 . S
C2166 C2164 1.419 . S
C2166 C2167 1.362 . S
C2167 H2157 0.930 . S
C2167 C2160 1.409 . S
C2167 C2166 1.362 . S
H2168 C2174 0.930 . S
H2169 C2177 0.930 . S
H2170 C2178 0.954 . S
H2171 C2179 0.930 . S
H2172 C2182 0.930 . S
H2173 C2183 0.955 . S
C2174 H2168 0.930 . S
C2174 C2175 1.355 . S
C2174 C2176 1.415 . S
C2175 C2174 1.355 . S
C2175 C2177 1.419 . S
C2176 C2174 1.415 . S
C2176 C2181 1.425 1_545 S
C2176 C2183 1.409 . S
C2177 H2169 0.930 . S
C2177 C2175 1.419 . S
C2177 C2178 1.340 1_545 S
C2178 H2170 0.954 . S
C2178 C2177 1.340 1_565 S
C2178 C2181 1.409 . S
C2179 H2171 0.930 . S
C2179 C2180 1.355 . S
C2179 C2181 1.415 . S
C2180 C2179 1.355 . S
C2180 C2182 1.419 . S
C2181 C2176 1.425 1_565 S
C2181 C2178 1.409 . S
C2181 C2179 1.415 . S
C2182 H2172 0.930 . S
C2182 C2180 1.419 . S
C2182 C2183 1.339 1_565 S
C2183 H2173 0.955 . S
C2183 C2176 1.409 . S
C2183 C2182 1.339 1_545 S
H2184 C2190 0.930 . S
H2185 C2193 0.930 . S
H2186 C2194 0.930 . S
H2187 C2195 0.930 . S
H2188 C2198 0.930 . S
H2189 C2199 0.930 . S
C2190 H2184 0.930 . S
C2190 C2191 1.355 . S
C2190 C2192 1.415 1_565 S
C2191 C2190 1.355 . S
C2191 C2193 1.419 . S
C2192 C2190 1.415 1_545 S
C2192 C2197 1.425 1_545 S
C2192 C2199 1.409 . S
C2193 H2185 0.930 . S
C2193 C2191 1.419 . S
C2193 C2194 1.362 . S
C2194 H2186 0.930 . S
C2194 C2193 1.362 . S
C2194 C2197 1.409 . S
C2195 H2187 0.930 . S
C2195 C2196 1.355 . S
C2195 C2197 1.415 1_545 S
C2196 C2195 1.355 . S
C2196 C2198 1.419 . S
C2197 C2192 1.425 1_565 S
C2197 C2194 1.409 . S
C2197 C2195 1.415 1_565 S
C2198 H2188 0.930 . S
C2198 C2196 1.419 . S
C2198 C2199 1.362 . S
C2199 H2189 0.930 . S
C2199 C2192 1.409 . S
C2199 C2198 1.362 . S
H2200 C2206 0.930 . S
H2201 C2209 0.930 . S
H2202 C2210 0.930 . S
H2203 C2211 0.930 . S
H2204 C2214 0.930 . S
H2205 C2215 0.930 . S
C2206 H2200 0.930 . S
C2206 C2207 1.355 . S
C2206 C2208 1.415 1_455 S
C2207 C2206 1.355 . S
C2207 C2209 1.419 . S
C2208 C2206 1.415 1_655 S
C2208 C2213 1.425 1_655 S
C2208 C2215 1.409 . S
C2209 H2201 0.930 . S
C2209 C2207 1.419 . S
C2209 C2210 1.362 . S
C2210 H2202 0.930 . S
C2210 C2209 1.362 . S
C2210 C2213 1.409 . S
C2211 H2203 0.930 . S
C2211 C2212 1.355 . S
C2211 C2213 1.415 1_655 S
C2212 C2211 1.355 . S
C2212 C2214 1.419 . S
C2213 C2208 1.425 1_455 S
C2213 C2210 1.409 . S
C2213 C2211 1.415 1_455 S
C2214 H2204 0.930 . S
C2214 C2212 1.419 . S
C2214 C2215 1.362 . S
C2215 H2205 0.930 . S
C2215 C2208 1.409 . S
C2215 C2214 1.362 . S
H2216 C2222 0.930 . S
H2217 C2225 0.930 . S
H2218 C2226 0.930 . S
H2219 C2227 0.930 . S
H2220 C2230 0.930 . S
H2221 C2231 0.930 . S
C2222 H2216 0.930 . S
C2222 C2223 1.355 . S
C2222 C2224 1.415 . S
C2223 C2222 1.355 . S
C2223 C2225 1.419 . S
C2224 C2222 1.415 . S
C2224 C2229 1.425 . S
C2224 C2231 1.409 . S
C2225 H2217 0.930 . S
C2225 C2223 1.419 . S
C2225 C2226 1.362 . S
C2226 H2218 0.930 . S
C2226 C2225 1.362 . S
C2226 C2229 1.409 . S
C2227 H2219 0.930 . S
C2227 C2228 1.355 . S
C2227 C2229 1.415 . S
C2228 C2227 1.355 . S
C2228 C2230 1.419 . S
C2229 C2224 1.425 . S
C2229 C2226 1.409 . S
C2229 C2227 1.415 . S
C2230 H2220 0.930 . S
C2230 C2228 1.419 . S
C2230 C2231 1.362 . S
C2231 H2221 0.930 . S
C2231 C2224 1.409 . S
C2231 C2230 1.362 . S
H2232 C2238 0.930 . S
H2233 C2241 0.930 . S
H2234 C2242 0.930 . S
H2235 C2243 0.930 . S
H2236 C2246 0.930 . S
H2237 C2247 0.930 . S
C2238 H2232 0.930 . S
C2238 C2239 1.355 . S
C2238 C2240 1.415 . S
C2239 C2238 1.355 . S
C2239 C2241 1.419 . S
C2240 C2238 1.415 . S
C2240 C2245 1.425 . S
C2240 C2247 1.409 . S
C2241 H2233 0.930 . S
C2241 C2239 1.419 . S
C2241 C2242 1.362 . S
C2242 H2234 0.930 . S
C2242 C2241 1.362 . S
C2242 C2245 1.409 . S
C2243 H2235 0.930 . S
C2243 C2244 1.355 . S
C2243 C2245 1.415 . S
C2244 C2243 1.355 . S
C2244 C2246 1.419 . S
C2245 C2240 1.425 . S
C2245 C2242 1.409 . S
C2245 C2243 1.415 . S
C2246 H2236 0.930 . S
C2246 C2244 1.419 . S
C2246 C2247 1.362 . S
C2247 H2237 0.930 . S
C2247 C2240 1.409 . S
C2247 C2246 1.362 . S
H2248 C2254 0.930 . S
H2249 C2257 0.930 . S
H2250 C2258 0.930 . S
H2251 C2259 0.930 . S
H2252 C2262 0.930 . S
H2253 C2263 0.930 . S
C2254 H2248 0.930 . S
C2254 C2255 1.355 . S
C2254 C2256 1.415 . S
C2255 C2254 1.355 . S
C2255 C2257 1.419 1_545 S
C2256 C2254 1.415 . S
C2256 C2261 1.425 1_545 S
C2256 C2263 1.409 . S
C2257 H2249 0.930 . S
C2257 C2255 1.419 1_565 S
C2257 C2258 1.362 . S
C2258 H2250 0.930 . S
C2258 C2257 1.362 . S
C2258 C2261 1.409 . S
C2259 H2251 0.930 . S
C2259 C2260 1.355 . S
C2259 C2261 1.415 . S
C2260 C2259 1.355 . S
C2260 C2262 1.419 1_565 S
C2261 C2256 1.425 1_565 S
C2261 C2258 1.409 . S
C2261 C2259 1.415 . S
C2262 H2252 0.930 . S
C2262 C2260 1.419 1_545 S
C2262 C2263 1.362 . S
C2263 H2253 0.930 . S
C2263 C2256 1.409 . S
C2263 C2262 1.362 . S
H2264 C2270 0.930 . S
H2265 C2273 0.930 . S
H2266 C2274 0.930 . S
H2267 C2275 0.930 . S
H2268 C2278 0.930 . S
H2269 C2279 0.930 . S
C2270 H2264 0.930 . S
C2270 C2271 1.355 1_455 S
C2270 C2272 1.415 . S
C2271 C2270 1.355 1_655 S
C2271 C2273 1.419 . S
C2272 C2270 1.415 . S
C2272 C2277 1.425 1_455 S
C2272 C2279 1.409 . S
C2273 H2265 0.930 . S
C2273 C2271 1.419 . S
C2273 C2274 1.362 . S
C2274 H2266 0.930 . S
C2274 C2273 1.362 . S
C2274 C2277 1.409 . S
C2275 H2267 0.930 . S
C2275 C2276 1.355 1_655 S
C2275 C2277 1.415 . S
C2276 C2275 1.355 1_455 S
C2276 C2278 1.419 . S
C2277 C2272 1.425 1_655 S
C2277 C2274 1.409 . S
C2277 C2275 1.415 . S
C2278 H2268 0.930 . S
C2278 C2276 1.419 . S
C2278 C2279 1.362 . S
C2279 H2269 0.930 . S
C2279 C2272 1.409 . S
C2279 C2278 1.362 . S
H2280 C2286 0.930 . S
H2281 C2289 0.930 . S
H2282 C2290 0.930 . S
H2283 C2291 0.930 . S
H2284 C2294 0.930 . S
H2285 C2295 0.930 . S
C2286 H2280 0.930 . S
C2286 C2287 1.355 . S
C2286 C2288 1.415 . S
C2287 C2286 1.355 . S
C2287 C2289 1.419 . S
C2288 C2286 1.415 . S
C2288 C2293 1.425 . S
C2288 C2295 1.409 . S
C2289 H2281 0.930 . S
C2289 C2287 1.419 . S
C2289 C2290 1.362 . S
C2290 H2282 0.930 . S
C2290 C2289 1.362 . S
C2290 C2293 1.409 . S
C2291 H2283 0.930 . S
C2291 C2292 1.355 . S
C2291 C2293 1.415 . S
C2292 C2291 1.355 . S
C2292 C2294 1.419 . S
C2293 C2288 1.425 . S
C2293 C2290 1.409 . S
C2293 C2291 1.415 . S
C2294 H2284 0.930 . S
C2294 C2292 1.419 . S
C2294 C2295 1.362 . S
C2295 H2285 0.930 . S
C2295 C2288 1.409 . S
C2295 C2294 1.362 . S
H2296 C2302 0.930 . S
H2297 C2305 0.930 . S
H2298 C2306 0.930 . S
H2299 C2307 0.930 . S
H2300 C2310 0.930 . S
H2301 C2311 0.930 . S
C2302 H2296 0.930 . S
C2302 C2303 1.355 1_545 S
C2302 C2304 1.415 . S
C2303 C2302 1.355 1_565 S
C2303 C2305 1.419 . S
C2304 C2302 1.415 . S
C2304 C2309 1.425 1_545 S
C2304 C2311 1.409 . S
C2305 H2297 0.930 . S
C2305 C2303 1.419 . S
C2305 C2306 1.362 . S
C2306 H2298 0.930 . S
C2306 C2305 1.362 . S
C2306 C2309 1.409 . S
C2307 H2299 0.930 . S
C2307 C2308 1.355 1_565 S
C2307 C2309 1.415 . S
C2308 C2307 1.355 1_545 S
C2308 C2310 1.419 . S
C2309 C2304 1.425 1_565 S
C2309 C2306 1.409 . S
C2309 C2307 1.415 . S
C2310 H2300 0.930 . S
C2310 C2308 1.419 . S
C2310 C2311 1.362 . S
C2311 H2301 0.930 . S
C2311 C2304 1.409 . S
C2311 C2310 1.362 . S
H2312 C2318 0.930 . S
H2313 C2321 0.930 . S
H2314 C2322 0.930 . S
H2315 C2323 0.930 . S
H2316 C2326 0.930 . S
H2317 C2327 0.930 . S
C2318 H2312 0.930 . S
C2318 C2319 1.355 . S
C2318 C2320 1.408 1_655 S
C2319 C2318 1.355 . S
C2319 C2321 1.419 . S
C2320 C2318 1.408 1_455 S
C2320 C2325 1.456 1_455 S
C2320 C2327 1.402 . S
C2321 H2313 0.930 . S
C2321 C2319 1.419 . S
C2321 C2322 1.362 . S
C2322 H2314 0.930 . S
C2322 C2321 1.362 . S
C2322 C2325 1.402 . S
C2323 H2315 0.930 . S
C2323 C2324 1.355 . S
C2323 C2325 1.408 1_455 S
C2324 C2323 1.355 . S
C2324 C2326 1.419 . S
C2325 C2320 1.456 1_655 S
C2325 C2322 1.402 . S
C2325 C2323 1.408 1_655 S
C2326 H2316 0.930 . S
C2326 C2324 1.419 . S
C2326 C2327 1.362 . S
C2327 H2317 0.930 . S
C2327 C2320 1.402 . S
C2327 C2326 1.362 . S
H2328 C2334 0.930 . S
H2329 C2337 0.930 . S
H2330 C2338 0.930 . S
H2331 C2339 0.930 . S
H2332 C2342 0.930 . S
H2333 C2343 0.930 . S
C2334 H2328 0.930 . S
C2334 C2335 1.355 . S
C2334 C2336 1.415 . S
C2335 C2334 1.355 . S
C2335 C2337 1.419 . S
C2336 C2334 1.415 . S
C2336 C2341 1.425 . S
C2336 C2343 1.409 . S
C2337 H2329 0.930 . S
C2337 C2335 1.419 . S
C2337 C2338 1.362 . S
C2338 H2330 0.930 . S
C2338 C2337 1.362 . S
C2338 C2341 1.409 . S
C2339 H2331 0.930 . S
C2339 C2340 1.355 . S
C2339 C2341 1.415 . S
C2340 C2339 1.355 . S
C2340 C2342 1.419 . S
C2341 C2336 1.425 . S
C2341 C2338 1.409 . S
C2341 C2339 1.415 . S
C2342 H2332 0.930 . S
C2342 C2340 1.419 . S
C2342 C2343 1.362 . S
C2343 H2333 0.930 . S
C2343 C2336 1.409 . S
C2343 C2342 1.362 . S
H2344 C2350 0.930 . S
H2345 C2353 0.930 . S
H2346 C2354 0.930 . S
H2347 C2355 0.930 . S
H2348 C2358 0.930 . S
H2349 C2359 0.930 . S
C2350 H2344 0.930 . S
C2350 C2351 1.355 . S
C2350 C2352 1.415 . S
C2351 C2350 1.355 . S
C2351 C2353 1.419 . S
C2352 C2350 1.415 . S
C2352 C2357 1.425 . S
C2352 C2359 1.409 . S
C2353 H2345 0.930 . S
C2353 C2351 1.419 . S
C2353 C2354 1.362 . S
C2354 H2346 0.930 . S
C2354 C2353 1.362 . S
C2354 C2357 1.409 . S
C2355 H2347 0.930 . S
C2355 C2356 1.355 . S
C2355 C2357 1.415 . S
C2356 C2355 1.355 . S
C2356 C2358 1.419 . S
C2357 C2352 1.425 . S
C2357 C2354 1.409 . S
C2357 C2355 1.415 . S
C2358 H2348 0.930 . S
C2358 C2356 1.419 . S
C2358 C2359 1.362 . S
C2359 H2349 0.930 . S
C2359 C2352 1.409 . S
C2359 C2358 1.362 . S
H2360 C2366 0.930 . S
H2361 C2369 0.930 . S
H2362 C2370 0.930 . S
H2363 C2371 0.930 . S
H2364 C2374 0.930 . S
H2365 C2375 0.930 . S
C2366 H2360 0.930 . S
C2366 C2367 1.355 . S
C2366 C2368 1.415 . S
C2367 C2366 1.355 . S
C2367 C2369 1.419 . S
C2368 C2366 1.415 . S
C2368 C2373 1.425 . S
C2368 C2375 1.409 . S
C2369 H2361 0.930 . S
C2369 C2367 1.419 . S
C2369 C2370 1.362 . S
C2370 H2362 0.930 . S
C2370 C2369 1.362 . S
C2370 C2373 1.409 . S
C2371 H2363 0.930 . S
C2371 C2372 1.355 . S
C2371 C2373 1.415 . S
C2372 C2371 1.355 . S
C2372 C2374 1.419 . S
C2373 C2368 1.425 . S
C2373 C2370 1.409 . S
C2373 C2371 1.415 . S
C2374 H2364 0.930 . S
C2374 C2372 1.419 . S
C2374 C2375 1.362 . S
C2375 H2365 0.930 . S
C2375 C2368 1.409 . S
C2375 C2374 1.362 . S
H2376 C2382 0.930 . S
H2377 C2385 0.930 . S
H2378 C2386 0.930 . S
H2379 C2387 0.930 . S
H2380 C2390 0.930 . S
H2381 C2391 0.930 . S
C2382 H2376 0.930 . S
C2382 C2383 1.355 . S
C2382 C2384 1.415 . S
C2383 C2382 1.355 . S
C2383 C2385 1.419 . S
C2384 C2382 1.415 . S
C2384 C2389 1.425 . S
C2384 C2391 1.409 . S
C2385 H2377 0.930 . S
C2385 C2383 1.419 . S
C2385 C2386 1.362 . S
C2386 H2378 0.930 . S
C2386 C2385 1.362 . S
C2386 C2389 1.409 . S
C2387 H2379 0.930 . S
C2387 C2388 1.355 . S
C2387 C2389 1.415 . S
C2388 C2387 1.355 . S
C2388 C2390 1.419 . S
C2389 C2384 1.425 . S
C2389 C2386 1.409 . S
C2389 C2387 1.415 . S
C2390 H2380 0.930 . S
C2390 C2388 1.419 . S
C2390 C2391 1.362 . S
C2391 H2381 0.930 . S
C2391 C2384 1.409 . S
C2391 C2390 1.362 . S
H2392 C2398 0.930 . S
H2393 C2401 0.930 . S
H2394 C2402 0.930 . S
H2395 C2403 0.930 . S
H2396 C2406 0.930 . S
H2397 C2407 0.930 . S
C2398 H2392 0.930 . S
C2398 C2399 1.355 . S
C2398 C2400 1.415 . S
C2399 C2398 1.355 . S
C2399 C2401 1.419 . S
C2400 C2398 1.415 . S
C2400 C2405 1.425 . S
C2400 C2407 1.409 . S
C2401 H2393 0.930 . S
C2401 C2399 1.419 . S
C2401 C2402 1.362 . S
C2402 H2394 0.930 . S
C2402 C2401 1.362 . S
C2402 C2405 1.409 . S
C2403 H2395 0.930 . S
C2403 C2404 1.355 . S
C2403 C2405 1.415 . S
C2404 C2403 1.355 . S
C2404 C2406 1.419 . S
C2405 C2400 1.425 . S
C2405 C2402 1.409 . S
C2405 C2403 1.415 . S
C2406 H2396 0.930 . S
C2406 C2404 1.419 . S
C2406 C2407 1.362 . S
C2407 H2397 0.930 . S
C2407 C2400 1.409 . S
C2407 C2406 1.362 . S
H2408 C2414 0.930 . S
H2409 C2417 0.930 . S
H2410 C2418 0.930 . S
H2411 C2419 0.930 . S
H2412 C2422 0.930 . S
H2413 C2423 0.930 . S
C2414 H2408 0.930 . S
C2414 C2415 1.355 . S
C2414 C2416 1.415 . S
C2415 C2414 1.355 . S
C2415 C2417 1.419 . S
C2416 C2414 1.415 . S
C2416 C2421 1.425 . S
C2416 C2423 1.409 . S
C2417 H2409 0.930 . S
C2417 C2415 1.419 . S
C2417 C2418 1.362 . S
C2418 H2410 0.930 . S
C2418 C2417 1.362 . S
C2418 C2421 1.409 . S
C2419 H2411 0.930 . S
C2419 C2420 1.355 . S
C2419 C2421 1.415 . S
C2420 C2419 1.355 . S
C2420 C2422 1.419 . S
C2421 C2416 1.425 . S
C2421 C2418 1.409 . S
C2421 C2419 1.415 . S
C2422 H2412 0.930 . S
C2422 C2420 1.419 . S
C2422 C2423 1.362 . S
C2423 H2413 0.930 . S
C2423 C2416 1.409 . S
C2423 C2422 1.362 . S
H2424 C2430 0.930 . S
H2425 C2433 0.930 . S
H2426 C2434 0.930 . S
H2427 C2435 0.930 . S
H2428 C2438 0.919 1_554 S
H2429 C2439 0.930 . S
C2430 H2424 0.930 . S
C2430 C2431 1.355 . S
C2430 C2432 1.415 . S
C2431 C2430 1.355 . S
C2431 C2433 1.419 . S
C2432 C2430 1.415 . S
C2432 C2437 1.425 . S
C2432 C2439 1.409 . S
C2433 H2425 0.930 . S
C2433 C2431 1.419 . S
C2433 C2434 1.362 . S
C2434 H2426 0.930 . S
C2434 C2433 1.362 . S
C2434 C2437 1.409 . S
C2435 H2427 0.930 . S
C2435 C2436 1.355 . S
C2435 C2437 1.415 . S
C2436 C2435 1.355 . S
C2436 C2438 1.419 . S
C2437 C2432 1.425 . S
C2437 C2434 1.409 . S
C2437 C2435 1.415 . S
C2438 H2428 0.919 1_556 S
C2438 C2436 1.419 . S
C2438 C2439 1.362 . S
C2439 H2429 0.930 . S
C2439 C2432 1.409 . S
C2439 C2438 1.362 . S
H2440 C2446 0.930 . S
H2441 C2449 0.930 . S
H2442 C2450 0.930 . S
H2443 C2451 0.930 . S
H2444 C2454 0.930 . S
H2445 C2455 0.930 . S
C2446 H2440 0.930 . S
C2446 C2447 1.355 . S
C2446 C2448 1.415 . S
C2447 C2446 1.355 . S
C2447 C2449 1.419 . S
C2448 C2446 1.415 . S
C2448 C2453 1.425 . S
C2448 C2455 1.409 . S
C2449 H2441 0.930 . S
C2449 C2447 1.419 . S
C2449 C2450 1.362 . S
C2450 H2442 0.930 . S
C2450 C2449 1.362 . S
C2450 C2453 1.409 . S
C2451 H2443 0.930 . S
C2451 C2452 1.355 . S
C2451 C2453 1.415 . S
C2452 C2451 1.355 . S
C2452 C2454 1.419 . S
C2453 C2448 1.425 . S
C2453 C2450 1.409 . S
C2453 C2451 1.415 . S
C2454 H2444 0.930 . S
C2454 C2452 1.419 . S
C2454 C2455 1.362 . S
C2455 H2445 0.930 . S
C2455 C2448 1.409 . S
C2455 C2454 1.362 . S
H2456 C2462 0.930 . S
H2457 C2465 0.930 . S
H2458 C2466 0.930 . S
H2459 C2467 0.930 . S
H2460 C2470 0.930 . S
H2461 C2471 0.930 . S
C2462 H2456 0.930 . S
C2462 C2463 1.355 . S
C2462 C2464 1.415 . S
C2463 C2462 1.355 . S
C2463 C2465 1.419 . S
C2464 C2462 1.415 . S
C2464 C2469 1.425 . S
C2464 C2471 1.409 . S
C2465 H2457 0.930 . S
C2465 C2463 1.419 . S
C2465 C2466 1.362 . S
C2466 H2458 0.930 . S
C2466 C2465 1.362 . S
C2466 C2469 1.409 . S
C2467 H2459 0.930 . S
C2467 C2468 1.355 . S
C2467 C2469 1.415 . S
C2468 C2467 1.355 . S
C2468 C2470 1.419 . S
C2469 C2464 1.425 . S
C2469 C2466 1.409 . S
C2469 C2467 1.415 . S
C2470 H2460 0.930 . S
C2470 C2468 1.419 . S
C2470 C2471 1.362 . S
C2471 H2461 0.930 . S
C2471 C2464 1.409 . S
C2471 C2470 1.362 . S
H2472 C2478 0.930 . S
H2473 C2481 0.930 . S
H2474 C2482 0.930 . S
H2475 C2483 0.930 . S
H2476 C2486 0.930 . S
H2477 C2487 0.930 . S
C2478 H2472 0.930 . S
C2478 C2479 1.355 . S
C2478 C2480 1.415 . S
C2479 C2478 1.355 . S
C2479 C2481 1.419 . S
C2480 C2478 1.415 . S
C2480 C2485 1.425 . S
C2480 C2487 1.409 . S
C2481 H2473 0.930 . S
C2481 C2479 1.419 . S
C2481 C2482 1.362 . S
C2482 H2474 0.930 . S
C2482 C2481 1.362 . S
C2482 C2485 1.409 . S
C2483 H2475 0.930 . S
C2483 C2484 1.355 . S
C2483 C2485 1.415 . S
C2484 C2483 1.355 . S
C2484 C2486 1.419 . S
C2485 C2480 1.425 . S
C2485 C2482 1.409 . S
C2485 C2483 1.415 . S
C2486 H2476 0.930 . S
C2486 C2484 1.419 . S
C2486 C2487 1.362 . S
C2487 H2477 0.930 . S
C2487 C2480 1.409 . S
C2487 C2486 1.362 . S
H2488 C2494 0.930 . S
H2489 C2497 0.930 . S
H2490 C2498 0.930 . S
H2491 C2499 0.930 . S
H2492 C2502 0.930 . S
H2493 C2503 0.930 . S
C2494 H2488 0.930 . S
C2494 C2495 1.355 . S
C2494 C2496 1.415 . S
C2495 C2494 1.355 . S
C2495 C2497 1.419 . S
C2496 C2494 1.415 . S
C2496 C2501 1.425 . S
C2496 C2503 1.409 . S
C2497 H2489 0.930 . S
C2497 C2495 1.419 . S
C2497 C2498 1.362 . S
C2498 H2490 0.930 . S
C2498 C2497 1.362 . S
C2498 C2501 1.409 . S
C2499 H2491 0.930 . S
C2499 C2500 1.355 . S
C2499 C2501 1.415 . S
C2500 C2499 1.355 . S
C2500 C2502 1.419 . S
C2501 C2496 1.425 . S
C2501 C2498 1.409 . S
C2501 C2499 1.415 . S
C2502 H2492 0.930 . S
C2502 C2500 1.419 . S
C2502 C2503 1.362 . S
C2503 H2493 0.930 . S
C2503 C2496 1.409 . S
C2503 C2502 1.362 . S
H2504 C2510 0.930 . S
H2505 C2513 0.930 . S
H2506 C2514 0.930 . S
H2507 C2515 0.930 . S
H2508 C2518 0.930 . S
H2509 C2519 0.930 . S
C2510 H2504 0.930 . S
C2510 C2511 1.355 . S
C2510 C2512 1.415 . S
C2511 C2510 1.355 . S
C2511 C2513 1.419 . S
C2512 C2510 1.415 . S
C2512 C2517 1.425 . S
C2512 C2519 1.409 . S
C2513 H2505 0.930 . S
C2513 C2511 1.419 . S
C2513 C2514 1.362 . S
C2514 H2506 0.930 . S
C2514 C2513 1.362 . S
C2514 C2517 1.409 . S
C2515 H2507 0.930 . S
C2515 C2516 1.355 . S
C2515 C2517 1.415 . S
C2516 C2515 1.355 . S
C2516 C2518 1.419 . S
C2517 C2512 1.425 . S
C2517 C2514 1.409 . S
C2517 C2515 1.415 . S
C2518 H2508 0.930 . S
C2518 C2516 1.419 . S
C2518 C2519 1.362 . S
C2519 H2509 0.930 . S
C2519 C2512 1.409 . S
C2519 C2518 1.362 . S
H2520 C2526 0.930 . S
H2521 C2529 0.930 . S
H2522 C2530 0.930 . S
H2523 C2531 0.930 . S
H2524 C2534 0.930 . S
H2525 C2535 0.930 . S
C2526 H2520 0.930 . S
C2526 C2527 1.355 . S
C2526 C2528 1.415 . S
C2527 C2526 1.355 . S
C2527 C2529 1.419 . S
C2528 C2526 1.415 . S
C2528 C2533 1.425 . S
C2528 C2535 1.409 . S
C2529 H2521 0.930 . S
C2529 C2527 1.419 . S
C2529 C2530 1.362 . S
C2530 H2522 0.930 . S
C2530 C2529 1.362 . S
C2530 C2533 1.409 . S
C2531 H2523 0.930 . S
C2531 C2532 1.355 . S
C2531 C2533 1.415 . S
C2532 C2531 1.355 . S
C2532 C2534 1.419 . S
C2533 C2528 1.425 . S
C2533 C2530 1.409 . S
C2533 C2531 1.415 . S
C2534 H2524 0.930 . S
C2534 C2532 1.419 . S
C2534 C2535 1.362 . S
C2535 H2525 0.930 . S
C2535 C2528 1.409 . S
C2535 C2534 1.362 . S
H2536 C2542 0.930 . S
H2537 C2545 0.930 . S
H2538 C2546 0.939 . S
H2539 C2547 0.930 1_545 S
H2540 C2550 0.930 . S
H2541 C2551 0.930 . S
C2542 H2536 0.930 . S
C2542 C2543 1.355 . S
C2542 C2544 1.415 . S
C2543 C2542 1.355 . S
C2543 C2545 1.419 . S
C2544 C2542 1.415 . S
C2544 C2549 1.425 . S
C2544 C2551 1.409 . S
C2545 H2537 0.930 . S
C2545 C2543 1.419 . S
C2545 C2546 1.362 . S
C2546 H2538 0.939 . S
C2546 C2545 1.362 . S
C2546 C2549 1.409 . S
C2547 H2539 0.930 1_565 S
C2547 C2548 1.355 . S
C2547 C2549 1.415 . S
C2548 C2547 1.355 . S
C2548 C2550 1.419 . S
C2549 C2544 1.425 . S
C2549 C2546 1.409 . S
C2549 C2547 1.415 . S
C2550 H2540 0.930 . S
C2550 C2548 1.419 . S
C2550 C2551 1.362 . S
C2551 H2541 0.930 . S
C2551 C2544 1.409 . S
C2551 C2550 1.362 . S
H2552 C2558 0.930 1_655 S
H2553 C2561 0.930 . S
H2554 C2562 0.930 . S
H2555 C2563 0.930 . S
H2556 C2566 0.930 . S
H2557 C2567 0.930 1_655 S
C2558 H2552 0.930 1_455 S
C2558 C2559 1.355 . S
C2558 C2560 1.415 . S
C2559 C2558 1.355 . S
C2559 C2561 1.419 . S
C2560 C2558 1.415 . S
C2560 C2565 1.425 . S
C2560 C2567 1.409 . S
C2561 H2553 0.930 . S
C2561 C2559 1.419 . S
C2561 C2562 1.362 . S
C2562 H2554 0.930 . S
C2562 C2561 1.362 . S
C2562 C2565 1.409 . S
C2563 H2555 0.930 . S
C2563 C2564 1.355 . S
C2563 C2565 1.415 . S
C2564 C2563 1.355 . S
C2564 C2566 1.419 . S
C2565 C2560 1.425 . S
C2565 C2562 1.409 . S
C2565 C2563 1.415 . S
C2566 H2556 0.930 . S
C2566 C2564 1.419 . S
C2566 C2567 1.362 . S
C2567 H2557 0.930 1_455 S
C2567 C2560 1.409 . S
C2567 C2566 1.362 . S
H2568 C2574 0.930 . S
H2569 C2577 0.930 . S
H2570 C2578 0.930 . S
H2571 C2579 0.930 . S
H2572 C2582 0.930 . S
H2573 C2583 0.930 . S
C2574 H2568 0.930 . S
C2574 C2575 1.355 . S
C2574 C2576 1.415 . S
C2575 C2574 1.355 . S
C2575 C2577 1.419 . S
C2576 C2574 1.415 . S
C2576 C2581 1.425 . S
C2576 C2583 1.409 . S
C2577 H2569 0.930 . S
C2577 C2575 1.419 . S
C2577 C2578 1.362 . S
C2578 H2570 0.930 . S
C2578 C2577 1.362 . S
C2578 C2581 1.409 . S
C2579 H2571 0.930 . S
C2579 C2580 1.355 . S
C2579 C2581 1.415 . S
C2580 C2579 1.355 . S
C2580 C2582 1.419 . S
C2581 C2576 1.425 . S
C2581 C2578 1.409 . S
C2581 C2579 1.415 . S
C2582 H2572 0.930 . S
C2582 C2580 1.419 . S
C2582 C2583 1.362 . S
C2583 H2573 0.930 . S
C2583 C2576 1.409 . S
C2583 C2582 1.362 . S
H2584 C2590 0.930 . S
H2585 C2593 0.930 . S
H2586 C2594 0.930 1_565 S
H2587 C2595 0.930 . S
H2588 C2598 0.930 . S
H2589 C2599 0.930 . S
C2590 H2584 0.930 . S
C2590 C2591 1.355 . S
C2590 C2592 1.415 . S
C2591 C2590 1.355 . S
C2591 C2593 1.419 1_545 S
C2592 C2590 1.415 . S
C2592 C2597 1.425 . S
C2592 C2599 1.409 . S
C2593 H2585 0.930 . S
C2593 C2591 1.419 1_565 S
C2593 C2594 1.362 1_565 S
C2594 H2586 0.930 1_545 S
C2594 C2593 1.362 1_545 S
C2594 C2597 1.409 . S
C2595 H2587 0.930 . S
C2595 C2596 1.355 . S
C2595 C2597 1.415 . S
C2596 C2595 1.355 . S
C2596 C2598 1.419 . S
C2597 C2592 1.425 . S
C2597 C2594 1.409 . S
C2597 C2595 1.415 . S
C2598 H2588 0.930 . S
C2598 C2596 1.419 . S
C2598 C2599 1.362 . S
C2599 H2589 0.930 . S
C2599 C2592 1.409 . S
C2599 C2598 1.362 . S
H2600 C2606 0.930 . S
H2601 C2609 0.930 . S
H2602 C2610 0.930 1_455 S
H2603 C2611 0.930 . S
H2604 C2614 0.930 . S
H2605 C2615 0.930 . S
C2606 H2600 0.930 . S
C2606 C2607 1.355 . S
C2606 C2608 1.415 . S
C2607 C2606 1.355 . S
C2607 C2609 1.419 1_655 S
C2608 C2606 1.415 . S
C2608 C2613 1.425 . S
C2608 C2615 1.409 . S
C2609 H2601 0.930 . S
C2609 C2607 1.419 1_455 S
C2609 C2610 1.362 1_455 S
C2610 H2602 0.930 1_655 S
C2610 C2609 1.362 1_655 S
C2610 C2613 1.409 . S
C2611 H2603 0.930 . S
C2611 C2612 1.355 . S
C2611 C2613 1.415 . S
C2612 C2611 1.355 . S
C2612 C2614 1.419 . S
C2613 C2608 1.425 . S
C2613 C2610 1.409 . S
C2613 C2611 1.415 . S
C2614 H2604 0.930 . S
C2614 C2612 1.419 . S
C2614 C2615 1.362 . S
C2615 H2605 0.930 . S
C2615 C2608 1.409 . S
C2615 C2614 1.362 . S
H2616 C2622 0.930 . S
H2617 C2625 0.930 . S
H2618 C2626 0.930 . S
H2619 C2627 0.930 . S
H2620 C2630 0.930 . S
H2621 C2631 0.930 . S
C2622 H2616 0.930 . S
C2622 C2623 1.355 . S
C2622 C2624 1.415 . S
C2623 C2622 1.355 . S
C2623 C2625 1.419 . S
C2624 C2622 1.415 . S
C2624 C2629 1.425 . S
C2624 C2631 1.409 . S
C2625 H2617 0.930 . S
C2625 C2623 1.419 . S
C2625 C2626 1.362 . S
C2626 H2618 0.930 . S
C2626 C2625 1.362 . S
C2626 C2629 1.409 . S
C2627 H2619 0.930 . S
C2627 C2628 1.355 . S
C2627 C2629 1.415 . S
C2628 C2627 1.355 . S
C2628 C2630 1.419 . S
C2629 C2624 1.425 . S
C2629 C2626 1.409 . S
C2629 C2627 1.415 . S
C2630 H2620 0.930 . S
C2630 C2628 1.419 . S
C2630 C2631 1.362 . S
C2631 H2621 0.930 . S
C2631 C2624 1.409 . S
C2631 C2630 1.362 . S
H2632 C2638 0.930 . S
H2633 C2641 0.905 1_565 S
H2634 C2642 0.930 . S
H2635 C2643 0.930 . S
H2636 C2646 0.930 . S
H2637 C2647 0.930 . S
C2638 H2632 0.930 . S
C2638 C2639 1.355 . S
C2638 C2640 1.415 . S
C2639 C2638 1.355 . S
C2639 C2641 1.452 . S
C2640 C2638 1.415 . S
C2640 C2645 1.425 . S
C2640 C2647 1.409 . S
C2641 H2633 0.905 1_545 S
C2641 C2639 1.452 . S
C2641 C2642 1.357 . S
C2642 H2634 0.930 . S
C2642 C2641 1.357 . S
C2642 C2645 1.409 . S
C2643 H2635 0.930 . S
C2643 C2644 1.355 . S
C2643 C2645 1.415 . S
C2644 C2643 1.355 . S
C2644 C2646 1.419 . S
C2645 C2640 1.425 . S
C2645 C2642 1.409 . S
C2645 C2643 1.415 . S
C2646 H2636 0.930 . S
C2646 C2644 1.419 . S
C2646 C2647 1.362 . S
C2647 H2637 0.930 . S
C2647 C2640 1.409 . S
C2647 C2646 1.362 . S
H2648 C2654 0.930 . S
H2649 C2657 0.930 . S
H2650 C2658 0.930 . S
H2651 C2659 0.930 . S
H2652 C2662 0.930 . S
H2653 C2663 0.930 1_455 S
C2654 H2648 0.930 . S
C2654 C2655 1.355 . S
C2654 C2656 1.415 . S
C2655 C2654 1.355 . S
C2655 C2657 1.419 . S
C2656 C2654 1.415 . S
C2656 C2661 1.425 . S
C2656 C2663 1.409 . S
C2657 H2649 0.930 . S
C2657 C2655 1.419 . S
C2657 C2658 1.362 . S
C2658 H2650 0.930 . S
C2658 C2657 1.362 . S
C2658 C2661 1.409 . S
C2659 H2651 0.930 . S
C2659 C2660 1.355 . S
C2659 C2661 1.415 . S
C2660 C2659 1.355 . S
C2660 C2662 1.419 1_655 S
C2661 C2656 1.425 . S
C2661 C2658 1.409 . S
C2661 C2659 1.415 . S
C2662 H2652 0.930 . S
C2662 C2660 1.419 1_455 S
C2662 C2663 1.362 1_455 S
C2663 H2653 0.930 1_655 S
C2663 C2656 1.409 . S
C2663 C2662 1.362 1_655 S
H2664 C2670 0.930 . S
H2665 C2673 0.930 . S
H2666 C2674 0.930 . S
H2667 C2675 0.930 . S
H2668 C2678 0.930 . S
H2669 C2679 0.930 . S
C2670 H2664 0.930 . S
C2670 C2671 1.355 . S
C2670 C2672 1.415 . S
C2671 C2670 1.355 . S
C2671 C2673 1.419 . S
C2672 C2670 1.415 . S
C2672 C2677 1.425 . S
C2672 C2679 1.409 . S
C2673 H2665 0.930 . S
C2673 C2671 1.419 . S
C2673 C2674 1.362 . S
C2674 H2666 0.930 . S
C2674 C2673 1.362 . S
C2674 C2677 1.409 . S
C2675 H2667 0.930 . S
C2675 C2676 1.355 . S
C2675 C2677 1.415 . S
C2676 C2675 1.355 . S
C2676 C2678 1.419 . S
C2677 C2672 1.425 . S
C2677 C2674 1.409 . S
C2677 C2675 1.415 . S
C2678 H2668 0.930 . S
C2678 C2676 1.419 . S
C2678 C2679 1.362 . S
C2679 H2669 0.930 . S
C2679 C2672 1.409 . S
C2679 C2678 1.362 . S
H2680 C2686 0.930 . S
H2681 C2689 0.930 . S
H2682 C2690 0.930 . S
H2683 C2691 0.930 . S
H2684 C2694 0.930 . S
H2685 C2695 0.930 . S
C2686 H2680 0.930 . S
C2686 C2687 1.355 . S
C2686 C2688 1.415 . S
C2687 C2686 1.355 . S
C2687 C2689 1.419 . S
C2688 C2686 1.415 . S
C2688 C2693 1.425 . S
C2688 C2695 1.409 . S
C2689 H2681 0.930 . S
C2689 C2687 1.419 . S
C2689 C2690 1.362 . S
C2690 H2682 0.930 . S
C2690 C2689 1.362 . S
C2690 C2693 1.409 . S
C2691 H2683 0.930 . S
C2691 C2692 1.355 . S
C2691 C2693 1.415 . S
C2692 C2691 1.355 . S
C2692 C2694 1.419 . S
C2693 C2688 1.425 . S
C2693 C2690 1.409 . S
C2693 C2691 1.415 . S
C2694 H2684 0.930 . S
C2694 C2692 1.419 . S
C2694 C2695 1.362 . S
C2695 H2685 0.930 . S
C2695 C2688 1.409 . S
C2695 C2694 1.362 . S
H2696 C2702 0.930 . S
H2697 C2705 0.930 . S
H2698 C2706 0.930 . S
H2699 C2707 0.930 . S
H2700 C2710 0.930 . S
H2701 C2711 0.930 . S
C2702 H2696 0.930 . S
C2702 C2703 1.355 . S
C2702 C2704 1.415 . S
C2703 C2702 1.355 . S
C2703 C2705 1.419 . S
C2704 C2702 1.415 . S
C2704 C2709 1.425 . S
C2704 C2711 1.409 . S
C2705 H2697 0.930 . S
C2705 C2703 1.419 . S
C2705 C2706 1.362 . S
C2706 H2698 0.930 . S
C2706 C2705 1.362 . S
C2706 C2709 1.409 . S
C2707 H2699 0.930 . S
C2707 C2708 1.355 . S
C2707 C2709 1.415 . S
C2708 C2707 1.355 . S
C2708 C2710 1.419 . S
C2709 C2704 1.425 . S
C2709 C2706 1.409 . S
C2709 C2707 1.415 . S
C2710 H2700 0.930 . S
C2710 C2708 1.419 . S
C2710 C2711 1.362 . S
C2711 H2701 0.930 . S
C2711 C2704 1.409 . S
C2711 C2710 1.362 . S
H2712 C2718 0.930 . S
H2713 C2721 0.930 . S
H2714 C2722 0.930 . S
H2715 C2723 0.930 . S
H2716 C2726 0.930 . S
H2717 C2727 0.930 . S
C2718 H2712 0.930 . S
C2718 C2719 1.355 . S
C2718 C2720 1.415 . S
C2719 C2718 1.355 . S
C2719 C2721 1.419 . S
C2720 C2718 1.415 . S
C2720 C2725 1.425 1_655 S
C2720 C2727 1.409 1_655 S
C2721 H2713 0.930 . S
C2721 C2719 1.419 . S
C2721 C2722 1.362 . S
C2722 H2714 0.930 . S
C2722 C2721 1.362 . S
C2722 C2725 1.409 1_655 S
C2723 H2715 0.930 . S
C2723 C2724 1.355 . S
C2723 C2725 1.415 . S
C2724 C2723 1.355 . S
C2724 C2726 1.419 . S
C2725 C2720 1.425 1_455 S
C2725 C2722 1.409 1_455 S
C2725 C2723 1.415 . S
C2726 H2716 0.930 . S
C2726 C2724 1.419 . S
C2726 C2727 1.362 . S
C2727 H2717 0.930 . S
C2727 C2720 1.409 1_455 S
C2727 C2726 1.362 . S
H2728 C2734 0.930 . S
H2729 C2737 0.930 . S
H2730 C2738 0.930 . S
H2731 C2739 0.930 . S
H2732 C2742 0.930 . S
H2733 C2743 0.930 . S
C2734 H2728 0.930 . S
C2734 C2735 1.355 . S
C2734 C2736 1.415 . S
C2735 C2734 1.355 . S
C2735 C2737 1.419 . S
C2736 C2734 1.415 . S
C2736 C2741 1.425 . S
C2736 C2743 1.409 . S
C2737 H2729 0.930 . S
C2737 C2735 1.419 . S
C2737 C2738 1.362 . S
C2738 H2730 0.930 . S
C2738 C2737 1.362 . S
C2738 C2741 1.409 . S
C2739 H2731 0.930 . S
C2739 C2740 1.355 . S
C2739 C2741 1.415 . S
C2740 C2739 1.355 . S
C2740 C2742 1.419 . S
C2741 C2736 1.425 . S
C2741 C2738 1.409 . S
C2741 C2739 1.415 . S
C2742 H2732 0.930 . S
C2742 C2740 1.419 . S
C2742 C2743 1.362 . S
C2743 H2733 0.930 . S
C2743 C2736 1.409 . S
C2743 C2742 1.362 . S
H2744 C2750 0.930 . S
H2745 C2753 0.930 . S
H2746 C2754 0.930 . S
H2747 C2755 0.930 . S
H2748 C2758 0.930 . S
H2749 C2759 0.930 . S
C2750 H2744 0.930 . S
C2750 C2751 1.355 . S
C2750 C2752 1.415 . S
C2751 C2750 1.355 . S
C2751 C2753 1.419 . S
C2752 C2750 1.415 . S
C2752 C2757 1.425 1_545 S
C2752 C2759 1.409 1_545 S
C2753 H2745 0.930 . S
C2753 C2751 1.419 . S
C2753 C2754 1.362 . S
C2754 H2746 0.930 . S
C2754 C2753 1.362 . S
C2754 C2757 1.409 1_545 S
C2755 H2747 0.930 . S
C2755 C2756 1.355 . S
C2755 C2757 1.415 . S
C2756 C2755 1.355 . S
C2756 C2758 1.419 . S
C2757 C2752 1.425 1_565 S
C2757 C2754 1.409 1_565 S
C2757 C2755 1.415 . S
C2758 H2748 0.930 . S
C2758 C2756 1.419 . S
C2758 C2759 1.362 . S
C2759 H2749 0.930 . S
C2759 C2752 1.409 1_565 S
C2759 C2758 1.362 . S
H2760 C2766 0.930 . S
H2761 C2769 0.930 . S
H2762 C2770 0.930 . S
H2763 C2771 0.930 . S
H2764 C2774 0.930 . S
H2765 C2775 0.930 . S
C2766 H2760 0.930 . S
C2766 C2767 1.355 . S
C2766 C2768 1.415 . S
C2767 C2766 1.355 . S
C2767 C2769 1.419 . S
C2768 C2766 1.415 . S
C2768 C2773 1.425 1_545 S
C2768 C2775 1.409 1_545 S
C2769 H2761 0.930 . S
C2769 C2767 1.419 . S
C2769 C2770 1.362 . S
C2770 H2762 0.930 . S
C2770 C2769 1.362 . S
C2770 C2773 1.409 1_545 S
C2771 H2763 0.930 . S
C2771 C2772 1.355 . S
C2771 C2773 1.415 . S
C2772 C2771 1.355 . S
C2772 C2774 1.419 . S
C2773 C2768 1.425 1_565 S
C2773 C2770 1.409 1_565 S
C2773 C2771 1.415 . S
C2774 H2764 0.930 . S
C2774 C2772 1.419 . S
C2774 C2775 1.362 . S
C2775 H2765 0.930 . S
C2775 C2768 1.409 1_565 S
C2775 C2774 1.362 . S
H2776 C2782 0.930 . S
H2777 C2785 0.930 . S
H2778 C2786 0.930 . S
H2779 C2787 0.930 . S
H2780 C2790 0.930 . S
H2781 C2791 0.930 . S
C2782 H2776 0.930 . S
C2782 C2783 1.355 . S
C2782 C2784 1.415 . S
C2783 C2782 1.355 . S
C2783 C2785 1.419 . S
C2784 C2782 1.415 . S
C2784 C2789 1.425 1_655 S
C2784 C2791 1.409 1_655 S
C2785 H2777 0.930 . S
C2785 C2783 1.419 . S
C2785 C2786 1.362 . S
C2786 H2778 0.930 . S
C2786 C2785 1.362 . S
C2786 C2789 1.409 1_655 S
C2787 H2779 0.930 . S
C2787 C2788 1.355 . S
C2787 C2789 1.415 . S
C2788 C2787 1.355 . S
C2788 C2790 1.419 . S
C2789 C2784 1.425 1_455 S
C2789 C2786 1.409 1_455 S
C2789 C2787 1.415 . S
C2790 H2780 0.930 . S
C2790 C2788 1.419 . S
C2790 C2791 1.362 . S
C2791 H2781 0.930 . S
C2791 C2784 1.409 1_455 S
C2791 C2790 1.362 . S
H2792 C2798 0.930 . S
H2793 C2801 0.930 . S
H2794 C2802 0.930 . S
H2795 C2803 0.930 . S
H2796 C2806 0.930 . S
H2797 C2807 0.930 . S
C2798 H2792 0.930 . S
C2798 C2799 1.355 . S
C2798 C2800 1.415 . S
C2799 C2798 1.355 . S
C2799 C2801 1.419 . S
C2800 C2798 1.415 . S
C2800 C2805 1.425 . S
C2800 C2807 1.409 . S
C2801 H2793 0.930 . S
C2801 C2799 1.419 . S
C2801 C2802 1.362 . S
C2802 H2794 0.930 . S
C2802 C2801 1.362 . S
C2802 C2805 1.409 . S
C2803 H2795 0.930 . S
C2803 C2804 1.355 . S
C2803 C2805 1.415 . S
C2804 C2803 1.355 . S
C2804 C2806 1.419 . S
C2805 C2800 1.425 . S
C2805 C2802 1.409 . S
C2805 C2803 1.415 . S
C2806 H2796 0.930 . S
C2806 C2804 1.419 . S
C2806 C2807 1.362 . S
C2807 H2797 0.930 . S
C2807 C2800 1.409 . S
C2807 C2806 1.362 . S
C1087 C27 1.403 . S
C1092 N224 1.425 . S
C1103 N254 1.395 . S
C1108 C57 1.403 . S
C1119 N194 1.416 . S
C1124 C87 1.390 . S
C1135 N344 1.389 . S
C1140 C117 1.396 . S
C1151 C147 1.425 . S
C1156 N284 1.428 . S
C1167 C177 1.356 . S
C1172 N314 1.375 . S
C1183 N36 1.419 . S
C1188 C196 1.423 . S
C1199 C226 1.363 . S
C1204 N66 1.390 . S
C1215 N6 1.430 . S
C1220 C256 1.415 . S
C1231 N156 1.431 . S
C1236 C286 1.421 . S
C1247 C316 1.368 . S
C1252 N96 1.396 . S
C1263 C346 1.425 . S
C1268 N126 1.426 . S
C1279 C387 1.413 . S
C1284 N584 1.406 . S
C1295 N614 1.376 . S
C1300 C417 1.376 . S
C1311 N554 1.372 . S
C1316 C447 1.357 . S
C1327 C477 1.406 . S
C1332 N704 1.426 . S
C1343 N644 1.419 . S
C1348 C507 1.394 . S
C1359 C537 1.422 . S
C1364 N674 1.431 . S
C1375 C556 1.424 . S
C1380 N396 1.423 . S
C1391 N426 1.373 . S
C1396 C586 1.356 . S
C1407 C616 1.380 . S
C1412 N366 1.408 . S
C1423 N516 1.429 . S
C1428 C646 1.413 . S
C1439 N456 1.393 . S
C1444 C676 1.365 . S
C1455 C706 1.423 . S
C1460 N486 1.420 . S
C1471 C747 1.360 . S
C1476 N944 1.386 . S
C1487 C777 1.364 . S
C1492 N974 1.392 . S
C1503 N914 1.423 . S
C1508 C807 1.399 . S
C1519 N1064 1.407 . S
C1524 C837 1.378 . S
C1535 C867 1.357 . S
C1540 N1004 1.380 . S
C1551 N1034 1.422 . S
C1556 C897 1.398 . S
C1567 N756 1.394 . S
C1572 C916 1.366 . S
C1583 C946 1.356 . S
C1588 N786 1.376 . S
C1599 N726 1.431 . S
C1604 C976 1.417 . S
C1615 C1006 1.424 . S
C1620 N876 1.430 . S
C1631 C1036 1.388 . S
C1636 N816 1.415 . S
C1647 C1066 1.423 . S
C1652 N846 1.430 . S
C1663 N14 0.967 . S
C1668 N546 0.967 . S
C1679 N44 0.823 . S
C1684 N576 0.823 . S
C1695 N606 0.934 . S
C1700 N74 0.934 . S
C1711 N996 0.818 . S
C1716 N104 0.818 . S
C1727 N1026 0.943 . S
C1732 N134 0.943 . S
C1743 N1056 0.814 . S
C1748 N164 0.814 . S
C1759 N186 0.965 . S
C1764 N734 0.965 . S
C1775 N764 0.955 . S
C1780 N216 0.955 . S
C1791 N246 0.926 . S
C1796 N794 0.926 . S
C1807 N276 0.934 . S
C1812 N464 0.934 . S
C1823 N306 0.968 . S
C1828 N494 0.968 . S
C1839 N336 0.887 . S
C1844 N524 0.887 . S
C1855 N374 0.943 . S
C1860 N906 0.943 . S
C1871 N936 0.836 . S
C1876 N404 0.836 . S
C1887 N434 0.965 . S
C1892 N966 0.965 . S
C1903 N824 0.819 . S
C1908 N636 0.819 . S
C1919 N666 0.852 . S
C1924 N854 0.852 . S
C1935 N884 0.943 . S
C1940 N696 0.943 . S
C1951 C1 2.210 1_556 S
C1956 C481 2.226 . S
C1967 C31 2.219 1_556 S
C1972 C511 2.243 . S
C1983 C451 2.234 . S
C1988 C61 2.208 1_556 S
C1999 C91 2.241 . S
C2004 C781 2.243 . S
C2015 C721 2.225 . S
C2020 C121 2.230 . S
C2031 C151 2.190 . S
C2036 C751 2.190 . S
C2047 C1030 2.241 . S
C2052 C190 2.222 1_554 S
C2063 C220 2.211 1_554 S
C2068 C1060 2.236 . S
C2079 C1000 2.221 . S
C2084 C250 2.206 1_554 S
C2095 C280 2.204 . S
C2100 C610 2.209 . S
C2111 C310 2.192 . S
C2116 C550 2.191 . S
C2127 C340 2.244 . S
C2132 C580 2.245 . S
C2143 C841 2.241 . S
C2148 C361 2.238 . S
C2159 C391 2.245 . S
C2164 C871 2.244 . S
C2175 C421 2.193 . S
C2180 C811 2.195 . S
C2191 C970 2.244 . S
C2196 C640 2.242 . S
C2207 C910 2.245 . S
C2212 C670 2.244 . S
C2223 C940 2.228 . S
C2228 C700 2.233 . S
C2239 C100 1.859 . S
C2244 C10 1.830 . S
C2255 C40 1.839 . S
C2260 C130 1.853 . S
C2271 C70 1.849 . S
C2276 C160 1.836 . S
C2287 C271 1.841 . S
C2292 C181 1.844 . S
C2303 C211 1.834 . S
C2308 C301 1.852 . S
C2319 C331 1.859 . S
C2324 C241 1.831 . S
C2335 C460 1.853 . S
C2340 C370 1.833 . S
C2351 C400 1.835 . S
C2356 C490 1.851 . S
C2367 C430 1.851 . S
C2372 C520 1.835 . S
C2383 C541 1.857 . S
C2388 C631 1.830 1_554 S
C2399 C571 1.831 . S
C2404 C661 1.859 1_554 S
C2415 C601 1.857 . S
C2420 C691 1.830 1_554 S
C2431 C730 1.842 . S
C2436 C820 1.850 1_556 S
C2447 C850 1.844 1_556 S
C2452 C760 1.842 . S
C2463 C880 1.853 1_556 S
C2468 C790 1.833 . S
C2479 C901 1.833 . S
C2484 C991 1.853 . S
C2495 C1021 1.848 . S
C2500 C931 1.844 . S
C2511 C961 1.831 . S
C2516 C1051 1.859 . S
C2527 C16 1.657 . S
C2532 C886 1.653 . S
C2543 C826 1.654 . S
C2548 C46 1.663 1_565 S
C2559 C76 1.673 1_455 S
C2564 C856 1.661 . S
C2575 C406 1.655 . S
C2580 C106 1.666 . S
C2591 C136 1.655 1_545 S
C2596 C436 1.667 . S
C2607 C166 1.654 1_655 S
C2612 C376 1.664 . S
C2623 C717 1.671 . S
C2628 C207 1.659 . S
C2639 C237 1.654 1_545 S
C2644 C657 1.665 . S
C2655 C687 1.672 . S
C2660 C267 1.660 1_655 S
C2671 C297 1.660 . S
C2676 C957 1.672 . S
C2687 C987 1.653 . S
C2692 C327 1.658 1_565 S
C2703 C927 1.676 . S
C2708 C357 1.674 1_455 S
C2719 C466 1.653 . S
C2724 C766 1.661 . S
C2735 C496 1.653 . S
C2740 C796 1.657 . S
C2751 C526 1.676 . S
C2756 C736 1.666 . S
C2767 C567 1.655 . S
C2772 C1077 1.654 . S
C2783 C597 1.672 . S
C2788 C1017 1.676 . S
C2799 C1047 1.675 . S
C2804 C627 1.675 . S
