# Generated by pormake.
# Topology umg, (4)-cn, num edge types: 1
# Building blocks:
#     Node 0, Type 0, BuildingBlock: NAWXER_clean_sbu_0, # of connection points: 4
#     Node 1, Type 0, BuildingBlock: NAWXER_clean_sbu_0, # of connection points: 4
#     Node 2, Type 0, BuildingBlock: NAWXER_clean_sbu_0, # of connection points: 4
#     Node 3, Type 0, BuildingBlock: NAWXER_clean_sbu_0, # of connection points: 4
#     Node 4, Type 0, BuildingBlock: NAWXER_clean_sbu_0, # of connection points: 4
#     Node 5, Type 0, BuildingBlock: NAWXER_clean_sbu_0, # of connection points: 4
#     Node 6, Type 0, BuildingBlock: NAWXER_clean_sbu_0, # of connection points: 4
#     Node 7, Type 0, BuildingBlock: NAWXER_clean_sbu_0, # of connection points: 4
#     Node 8, Type 0, BuildingBlock: NAWXER_clean_sbu_0, # of connection points: 4
#     Node 9, Type 0, BuildingBlock: NAWXER_clean_sbu_0, # of connection points: 4
#     Node 10, Type 0, BuildingBlock: NAWXER_clean_sbu_0, # of connection points: 4
#     Node 11, Type 0, BuildingBlock: NAWXER_clean_sbu_0, # of connection points: 4
#     Edge 12, Type (0, 0), BuildingBlock: EZIPEK_clean_linker_0, # of connection points: 2
#     Edge 13, Type (0, 0), BuildingBlock: EZIPEK_clean_linker_0, # of connection points: 2
#     Edge 14, Type (0, 0), BuildingBlock: EZIPEK_clean_linker_0, # of connection points: 2
#     Edge 15, Type (0, 0), BuildingBlock: EZIPEK_clean_linker_0, # of connection points: 2
#     Edge 16, Type (0, 0), BuildingBlock: EZIPEK_clean_linker_0, # of connection points: 2
#     Edge 17, Type (0, 0), BuildingBlock: EZIPEK_clean_linker_0, # of connection points: 2
#     Edge 18, Type (0, 0), BuildingBlock: EZIPEK_clean_linker_0, # of connection points: 2
#     Edge 19, Type (0, 0), BuildingBlock: EZIPEK_clean_linker_0, # of connection points: 2
#     Edge 20, Type (0, 0), BuildingBlock: EZIPEK_clean_linker_0, # of connection points: 2
#     Edge 21, Type (0, 0), BuildingBlock: EZIPEK_clean_linker_0, # of connection points: 2
#     Edge 22, Type (0, 0), BuildingBlock: EZIPEK_clean_linker_0, # of connection points: 2
#     Edge 23, Type (0, 0), BuildingBlock: EZIPEK_clean_linker_0, # of connection points: 2
#     Edge 24, Type (0, 0), BuildingBlock: EZIPEK_clean_linker_0, # of connection points: 2
#     Edge 25, Type (0, 0), BuildingBlock: EZIPEK_clean_linker_0, # of connection points: 2
#     Edge 26, Type (0, 0), BuildingBlock: EZIPEK_clean_linker_0, # of connection points: 2
#     Edge 27, Type (0, 0), BuildingBlock: EZIPEK_clean_linker_0, # of connection points: 2
#     Edge 28, Type (0, 0), BuildingBlock: EZIPEK_clean_linker_0, # of connection points: 2
#     Edge 29, Type (0, 0), BuildingBlock: EZIPEK_clean_linker_0, # of connection points: 2
#     Edge 30, Type (0, 0), BuildingBlock: EZIPEK_clean_linker_0, # of connection points: 2
#     Edge 31, Type (0, 0), BuildingBlock: EZIPEK_clean_linker_0, # of connection points: 2
#     Edge 32, Type (0, 0), BuildingBlock: EZIPEK_clean_linker_0, # of connection points: 2
#     Edge 33, Type (0, 0), BuildingBlock: EZIPEK_clean_linker_0, # of connection points: 2
#     Edge 34, Type (0, 0), BuildingBlock: EZIPEK_clean_linker_0, # of connection points: 2
#     Edge 35, Type (0, 0), BuildingBlock: EZIPEK_clean_linker_0, # of connection points: 2
# Relax obj value: 0.016
# Max RMSD: 0.161
# Mean RMSD: 0.161
data_MOF--net-umg--node1-NAWXER_clean_sbu_0--edge1-EZIPEK_clean_linker_0
_symmetry_space_group_name_H-M    P1
_symmetry_Int_Tables_number       1
_symmetry_cell_setting            triclinic
loop_
_symmetry_equiv_pos_as_xyz
'x, y, z'
_cell_length_a     21.218776
_cell_length_b     21.229715
_cell_length_c     63.775231
_cell_angle_alpha  89.826493
_cell_angle_beta   89.914114
_cell_angle_gamma 119.97626
loop_
_atom_site_label
_atom_site_type_symbol
_atom_site_fract_x
_atom_site_fract_y
_atom_site_fract_z
_atom_type_partial_charge
C0 C 0.15757 0.53091 0.08771 0.0
C1 C 0.38212 0.5218 0.08724 0.0
O2 O 0.16555 0.47553 0.08835 0.0
Zn3 Zn 0.26998 0.527 0.08774 0.0
O4 O 0.21368 0.59496 0.08708 0.0
Zn5 Zn 0.33104 0.64112 0.08666 0.0
O6 O 0.35849 0.69407 0.06068 0.0
O7 O 0.29386 0.57476 0.05664 0.0
O8 O 0.3946 0.58744 0.08658 0.0
O9 O 0.3171 0.46933 0.08795 0.0
O10 O 0.29702 0.57972 0.11797 0.0
O11 O 0.36275 0.69761 0.11183 0.0
C12 C 0.32816 0.63908 0.04877 0.0
C13 C 0.33296 0.64521 0.12478 0.0
C14 C 0.6923 0.32776 0.45888 0.0
C15 C 0.70526 0.32971 0.38226 0.0
O16 O 0.67039 0.35928 0.44629 0.0
Zn17 Zn 0.69778 0.32991 0.42074 0.0
O18 O 0.72215 0.29246 0.45178 0.0
Zn19 Zn 0.75063 0.26789 0.42178 0.0
O20 O 0.8544 0.31298 0.42361 0.0
O21 O 0.81559 0.39221 0.42221 0.0
O22 O 0.73655 0.29818 0.39095 0.0
O23 O 0.67515 0.35626 0.39367 0.0
O24 O 0.6251 0.21379 0.42148 0.0
O25 O 0.69397 0.16329 0.42078 0.0
C26 C 0.86793 0.37842 0.42331 0.0
C27 C 0.63103 0.15662 0.421 0.0
C28 C 0.37273 0.68203 0.79254 0.0
C29 C 0.39492 0.6952 0.71641 0.0
O30 O 0.32171 0.65414 0.77919 0.0
Zn31 Zn 0.38323 0.68982 0.75476 0.0
O32 O 0.43921 0.71935 0.78648 0.0
Zn33 Zn 0.49734 0.75377 0.75693 0.0
O34 O 0.54267 0.85873 0.75766 0.0
O35 O 0.42313 0.80494 0.75706 0.0
O36 O 0.45708 0.72816 0.72542 0.0
O37 O 0.3374 0.66578 0.72749 0.0
O38 O 0.4415 0.62969 0.75617 0.0
O39 O 0.55877 0.7109 0.75829 0.0
C40 C 0.48524 0.86333 0.75759 0.0
C41 C 0.50807 0.64498 0.7575 0.0
C42 C 0.69365 0.36823 0.12431 0.0
C43 C 0.69725 0.37855 0.04828 0.0
O44 O 0.66596 0.31565 0.1115 0.0
Zn45 Zn 0.69449 0.37349 0.08623 0.0
O46 O 0.72681 0.43393 0.1175 0.0
Zn47 Zn 0.75102 0.48811 0.08751 0.0
O48 O 0.69911 0.54106 0.08834 0.0
O49 O 0.62633 0.42208 0.08663 0.0
O50 O 0.72856 0.44229 0.05638 0.0
O51 O 0.66926 0.32256 0.05999 0.0
O52 O 0.81223 0.42488 0.08637 0.0
O53 O 0.85559 0.54361 0.08791 0.0
C54 C 0.63537 0.48644 0.08739 0.0
C55 C 0.86644 0.49001 0.08713 0.0
C56 C 0.33898 0.69003 0.45924 0.0
C57 C 0.33515 0.69369 0.38252 0.0
O58 O 0.37023 0.66745 0.44679 0.0
Zn59 Zn 0.33659 0.68859 0.42087 0.0
O60 O 0.30052 0.71593 0.45186 0.0
Zn61 Zn 0.2746 0.74175 0.42187 0.0
O62 O 0.1695 0.68481 0.42135 0.0
O63 O 0.22072 0.61668 0.4229 0.0
O64 O 0.30307 0.72483 0.39099 0.0
O65 O 0.36086 0.66294 0.39405 0.0
O66 O 0.39967 0.80567 0.42001 0.0
O67 O 0.32329 0.84667 0.42382 0.0
C68 C 0.16324 0.62209 0.42242 0.0
C69 C 0.38829 0.85925 0.4219 0.0
C70 C 0.5323 0.15693 0.75957 0.0
C71 C 0.55224 0.3968 0.75666 0.0
O72 O 0.48151 0.17192 0.76113 0.0
Zn73 Zn 0.54116 0.2757 0.75787 0.0
O74 O 0.5983 0.20823 0.75697 0.0
Zn75 Zn 0.65533 0.3259 0.75444 0.0
O76 O 0.71855 0.35504 0.77854 0.0
O77 O 0.60198 0.30757 0.78658 0.0
O78 O 0.61444 0.40074 0.75565 0.0
O79 O 0.49496 0.33483 0.75784 0.0
O80 O 0.57855 0.28535 0.72615 0.0
O81 O 0.69839 0.34552 0.72676 0.0
C82 C 0.66867 0.33655 0.79222 0.0
C83 C 0.63954 0.31497 0.71638 0.0
C84 C 0.48251 0.86172 0.58748 0.0
C85 C 0.5088 0.64528 0.58521 0.0
O86 O 0.54076 0.85887 0.58575 0.0
Zn87 Zn 0.49772 0.75406 0.58634 0.0
O88 O 0.42138 0.8024 0.58876 0.0
Zn89 Zn 0.3827 0.68734 0.58752 0.0
O90 O 0.33248 0.65461 0.61417 0.0
O91 O 0.45159 0.72579 0.61725 0.0
O92 O 0.44206 0.62951 0.58589 0.0
O93 O 0.55936 0.7114 0.58541 0.0
O94 O 0.44649 0.72481 0.55646 0.0
O95 O 0.32789 0.6601 0.56156 0.0
C96 C 0.38859 0.68766 0.62566 0.0
C97 C 0.38187 0.69071 0.5491 0.0
C98 C 0.70401 0.38449 0.88156 0.0
C99 C 0.70027 0.38058 0.95801 0.0
O100 O 0.67762 0.32924 0.89359 0.0
Zn101 Zn 0.70065 0.3805 0.92004 0.0
O102 O 0.73325 0.44823 0.88948 0.0
Zn103 Zn 0.75008 0.49556 0.91987 0.0
O104 O 0.85469 0.55665 0.92037 0.0
O105 O 0.81777 0.43895 0.92052 0.0
O106 O 0.72706 0.44495 0.9504 0.0
O107 O 0.67833 0.32616 0.9459 0.0
O108 O 0.62518 0.42 0.92122 0.0
O109 O 0.68918 0.53955 0.9191 0.0
C110 C 0.86927 0.50539 0.92058 0.0
C111 C 0.62776 0.48153 0.92032 0.0
C112 C 0.34337 0.70156 0.29152 0.0
C113 C 0.34465 0.6934 0.21476 0.0
O114 O 0.37164 0.67321 0.28007 0.0
Zn115 Zn 0.34763 0.69889 0.25315 0.0
O116 O 0.31233 0.73353 0.28293 0.0
Zn117 Zn 0.28508 0.75101 0.25205 0.0
O118 O 0.18073 0.69571 0.25336 0.0
O119 O 0.2308 0.62641 0.25208 0.0
O120 O 0.30666 0.71989 0.22214 0.0
O121 O 0.38022 0.67627 0.22733 0.0
O122 O 0.4105 0.81577 0.25277 0.0
O123 O 0.33259 0.85538 0.24969 0.0
C124 C 0.17374 0.63264 0.25286 0.0
C125 C 0.39784 0.86856 0.25085 0.0
C126 C 0.64383 0.31885 0.62533 0.0
C127 C 0.65591 0.32114 0.54885 0.0
O128 O 0.70099 0.34492 0.61407 0.0
Zn129 Zn 0.65257 0.32239 0.58697 0.0
O130 O 0.58143 0.29146 0.61659 0.0
Zn131 Zn 0.53747 0.27414 0.58581 0.0
O132 O 0.47557 0.16963 0.58575 0.0
O133 O 0.59275 0.20498 0.5873 0.0
O134 O 0.59081 0.29446 0.55586 0.0
O135 O 0.70907 0.34364 0.5615 0.0
O136 O 0.61456 0.39895 0.58467 0.0
O137 O 0.49491 0.33637 0.58553 0.0
C138 C 0.52604 0.15394 0.58682 0.0
C139 C 0.55348 0.39745 0.58475 0.0
C140 C 0.3329 0.64468 0.88228 0.0
C141 C 0.32899 0.64329 0.95855 0.0
O142 O 0.36297 0.69875 0.89456 0.0
Zn143 Zn 0.33109 0.64476 0.92052 0.0
O144 O 0.29604 0.58017 0.88986 0.0
Zn145 Zn 0.26652 0.53011 0.92034 0.0
O146 O 0.16211 0.48295 0.92 0.0
O147 O 0.21503 0.60289 0.92041 0.0
O148 O 0.29268 0.57914 0.9509 0.0
O149 O 0.36012 0.69817 0.94644 0.0
O150 O 0.39111 0.58727 0.92116 0.0
O151 O 0.31063 0.46977 0.92089 0.0
C152 C 0.15723 0.54017 0.92021 0.0
C153 C 0.37644 0.52086 0.92122 0.0
C154 C 0.70818 0.3357 0.29113 0.0
C155 C 0.70595 0.33825 0.21417 0.0
O156 O 0.67804 0.3619 0.27953 0.0
Zn157 Zn 0.7049 0.33832 0.25265 0.0
O158 O 0.7402 0.3045 0.28271 0.0
Zn159 Zn 0.75941 0.27729 0.25206 0.0
O160 O 0.86434 0.32697 0.25051 0.0
O161 O 0.82178 0.40247 0.2532 0.0
O162 O 0.73364 0.3018 0.22187 0.0
O163 O 0.68268 0.36955 0.22637 0.0
O164 O 0.63414 0.2224 0.25119 0.0
O165 O 0.70314 0.17219 0.25291 0.0
C166 C 0.87591 0.39173 0.25166 0.0
C167 C 0.64008 0.1653 0.252 0.0
C168 C 0.267 0.63511 0.99255 0.0
C169 C 0.33187 0.65217 0.98157 0.0
C170 C 0.39699 0.67012 0.01479 0.0
C171 C 0.33092 0.64877 0.02575 0.0
N172 N 0.20317 0.61058 0.0259 0.0
N173 N 0.46082 0.69608 0.98135 0.0
C174 C 0.26599 0.63154 0.01484 0.0
C175 C 0.39775 0.67319 0.99245 0.0
N176 N 0.20744 0.62542 0.98156 0.0
N177 N 0.45777 0.68336 0.02577 0.0
H178 H 0.46279 0.69626 0.96502 0.0
H179 H 0.51217 0.7184 0.98803 0.0
H180 H 0.45947 0.68266 0.04211 0.0
H181 H 0.50593 0.69174 0.01899 0.0
H182 H 0.15973 0.61826 0.98835 0.0
H183 H 0.20722 0.62966 0.96526 0.0
H184 H 0.1519 0.58879 0.01918 0.0
H185 H 0.20161 0.61262 0.04221 0.0
C186 C 0.73139 0.39996 0.34821 0.0
C187 C 0.70232 0.33204 0.35893 0.0
C188 C 0.67207 0.26775 0.3252 0.0
C189 C 0.70278 0.33541 0.31442 0.0
N190 N 0.75655 0.46577 0.31508 0.0
N191 N 0.65429 0.20179 0.35754 0.0
C192 C 0.73043 0.4015 0.32578 0.0
C193 C 0.67508 0.2662 0.3474 0.0
N194 N 0.76543 0.46315 0.35946 0.0
N195 N 0.63635 0.20414 0.31422 0.0
H196 H 0.64963 0.19529 0.37371 0.0
H197 H 0.64597 0.15481 0.35002 0.0
H198 H 0.63496 0.20178 0.29796 0.0
H199 H 0.60282 0.15357 0.32109 0.0
H200 H 0.79377 0.51485 0.35287 0.0
H201 H 0.7701 0.4645 0.37573 0.0
H202 H 0.7695 0.51505 0.32199 0.0
H203 H 0.7629 0.46993 0.29884 0.0
C204 C 0.41835 0.75754 0.68129 0.0
C205 C 0.39069 0.69207 0.69313 0.0
C206 C 0.35988 0.62182 0.66038 0.0
C207 C 0.38245 0.68687 0.64882 0.0
N208 N 0.41704 0.81359 0.64829 0.0
N209 N 0.32945 0.56078 0.69419 0.0
C210 C 0.40697 0.75382 0.6593 0.0
C211 C 0.359 0.62376 0.68273 0.0
N212 N 0.45693 0.8236 0.69086 0.0
N213 N 0.34336 0.55909 0.65004 0.0
H214 H 0.33368 0.55965 0.71046 0.0
H215 H 0.29757 0.50945 0.6877 0.0
H216 H 0.34323 0.55557 0.63373 0.0
H217 H 0.33487 0.51181 0.65752 0.0
H218 H 0.48548 0.87244 0.68264 0.0
H219 H 0.46625 0.82981 0.70691 0.0
H220 H 0.42746 0.86204 0.65534 0.0
H221 H 0.40747 0.8125 0.63222 0.0
C222 C 0.73628 0.34856 0.01441 0.0
C223 C 0.69234 0.37104 0.02521 0.0
C224 C 0.64394 0.38592 0.99182 0.0
C225 C 0.69332 0.37077 0.98101 0.0
N226 N 0.79081 0.34355 0.9814 0.0
N227 N 0.60628 0.41383 0.02479 0.0
C228 C 0.7401 0.35275 0.99212 0.0
C229 C 0.64657 0.39038 0.01406 0.0
N230 N 0.77467 0.32368 0.02549 0.0
N231 N 0.59312 0.39389 0.98075 0.0
H232 H 0.60247 0.41264 0.04111 0.0
H233 H 0.57923 0.43773 0.01767 0.0
H234 H 0.58924 0.39016 0.96445 0.0
H235 H 0.551 0.39828 0.98762 0.0
H236 H 0.80144 0.29912 0.01861 0.0
H237 H 0.77615 0.32322 0.04182 0.0
H238 H 0.83255 0.33929 0.98857 0.0
H239 H 0.79437 0.34495 0.96507 0.0
C240 C 0.4084 0.72506 0.32622 0.0
C241 C 0.34212 0.69495 0.31479 0.0
C242 C 0.27226 0.66014 0.34777 0.0
C243 C 0.33833 0.69148 0.35925 0.0
N244 N 0.46915 0.74858 0.36 0.0
N245 N 0.21104 0.64058 0.31452 0.0
C246 C 0.40639 0.72191 0.34863 0.0
C247 C 0.27416 0.6641 0.32554 0.0
N248 N 0.47323 0.76191 0.31568 0.0
N249 N 0.20712 0.62318 0.35814 0.0
H250 H 0.20787 0.63625 0.2983 0.0
H251 H 0.16169 0.62897 0.32127 0.0
H252 H 0.20238 0.62159 0.37437 0.0
H253 H 0.15764 0.58945 0.35087 0.0
H254 H 0.52363 0.79165 0.32286 0.0
H255 H 0.47705 0.76733 0.29942 0.0
H256 H 0.51974 0.76315 0.35361 0.0
H257 H 0.47076 0.75378 0.37626 0.0
C258 C 0.68069 0.28795 0.68206 0.0
C259 C 0.64087 0.31527 0.69302 0.0
C260 C 0.612 0.35271 0.65961 0.0
C261 C 0.64739 0.32113 0.64858 0.0
N262 N 0.70442 0.24734 0.64894 0.0
N263 N 0.55627 0.36093 0.6916 0.0
C264 C 0.67949 0.28627 0.65969 0.0
C265 C 0.60277 0.34366 0.68164 0.0
N266 N 0.7182 0.26173 0.69298 0.0
N267 N 0.58923 0.39399 0.64911 0.0
H268 H 0.5492 0.35962 0.70772 0.0
H269 H 0.5196 0.37143 0.68366 0.0
H270 H 0.59262 0.40051 0.63292 0.0
H271 H 0.57283 0.42707 0.65655 0.0
H272 H 0.75633 0.25093 0.68611 0.0
H273 H 0.71348 0.25317 0.70914 0.0
H274 H 0.72033 0.21342 0.65612 0.0
H275 H 0.70361 0.24379 0.63264 0.0
C276 C 0.34677 0.62111 0.18339 0.0
C277 C 0.34564 0.68274 0.19165 0.0
C278 C 0.32697 0.71433 0.15605 0.0
C279 C 0.33897 0.65938 0.1477 0.0
N280 N 0.38199 0.57493 0.15377 0.0
N281 N 0.35601 0.79987 0.18414 0.0
C282 C 0.35546 0.61705 0.16146 0.0
C283 C 0.34214 0.73302 0.1775 0.0
N284 N 0.33528 0.56424 0.19602 0.0
N285 N 0.29798 0.74663 0.14392 0.0
H286 H 0.37234 0.81874 0.19932 0.0
H287 H 0.36002 0.83995 0.17383 0.0
H288 H 0.28169 0.73165 0.12845 0.0
H289 H 0.28225 0.78221 0.15004 0.0
H290 H 0.33 0.51609 0.19011 0.0
H291 H 0.32165 0.56087 0.21184 0.0
H292 H 0.40012 0.54754 0.16343 0.0
H293 H 0.39439 0.57505 0.13795 0.0
C294 C 0.63707 0.26049 0.49223 0.0
C295 C 0.68064 0.32783 0.48178 0.0
C296 C 0.70514 0.39198 0.51535 0.0
C297 C 0.66772 0.32397 0.52591 0.0
N298 N 0.60855 0.19306 0.5249 0.0
N299 N 0.76444 0.45699 0.48338 0.0
C300 C 0.63654 0.25804 0.51448 0.0
C301 C 0.71687 0.39355 0.49332 0.0
N302 N 0.59396 0.19925 0.48087 0.0
N303 N 0.72693 0.45495 0.52621 0.0
H304 H 0.77358 0.46061 0.46724 0.0
H305 H 0.79892 0.50485 0.49131 0.0
H306 H 0.71944 0.45606 0.54234 0.0
H307 H 0.74707 0.50554 0.51901 0.0
H308 H 0.55556 0.15009 0.48762 0.0
H309 H 0.5913 0.19928 0.46455 0.0
H310 H 0.59193 0.14369 0.51742 0.0
H311 H 0.60818 0.1891 0.54121 0.0
C312 C 0.33912 0.7158 0.82677 0.0
C313 C 0.35655 0.66963 0.81519 0.0
C314 C 0.36642 0.61394 0.84764 0.0
C315 C 0.34221 0.65494 0.85922 0.0
N316 N 0.29088 0.73411 0.85921 0.0
N317 N 0.36836 0.56263 0.81402 0.0
C318 C 0.32455 0.70312 0.84865 0.0
C319 C 0.36434 0.6148 0.82545 0.0
N320 N 0.33775 0.77244 0.81698 0.0
N321 N 0.39551 0.57758 0.85776 0.0
H322 H 0.36618 0.56124 0.79767 0.0
H323 H 0.36687 0.51719 0.82081 0.0
H324 H 0.40281 0.57973 0.87395 0.0
H325 H 0.42006 0.55242 0.8499 0.0
H326 H 0.33347 0.81276 0.82504 0.0
H327 H 0.34612 0.78198 0.80088 0.0
H328 H 0.27024 0.76377 0.85182 0.0
H329 H 0.27724 0.7245 0.87507 0.0
C330 C 0.76067 0.36905 0.15639 0.0
C331 C 0.69435 0.35451 0.14702 0.0
C332 C 0.63326 0.31978 0.18127 0.0
C333 C 0.70163 0.34313 0.191 0.0
N334 N 0.83211 0.39479 0.18791 0.0
N335 N 0.56762 0.31856 0.14998 0.0
C336 C 0.76574 0.36862 0.17857 0.0
C337 C 0.63053 0.33031 0.15929 0.0
N338 N 0.81819 0.38049 0.14399 0.0
N339 N 0.57064 0.28394 0.19283 0.0
H340 H 0.56255 0.32128 0.13378 0.0
H341 H 0.52175 0.31007 0.1583 0.0
H342 H 0.57018 0.27315 0.20881 0.0
H343 H 0.5188 0.25893 0.18632 0.0
H344 H 0.86542 0.38324 0.14972 0.0
H345 H 0.81633 0.38058 0.12765 0.0
H346 H 0.88133 0.42378 0.17991 0.0
H347 H 0.83888 0.39192 0.20394 0.0
C348 C 0.33674 0.62277 0.51508 0.0
C349 C 0.37093 0.68986 0.52607 0.0
C350 C 0.38102 0.75612 0.49348 0.0
C351 C 0.34882 0.68945 0.48228 0.0
N352 N 0.28411 0.55846 0.48253 0.0
N353 N 0.44052 0.82154 0.52488 0.0
C354 C 0.32395 0.62245 0.49309 0.0
C355 C 0.39726 0.75674 0.51505 0.0
N356 N 0.32062 0.55993 0.52547 0.0
N357 N 0.39368 0.81908 0.48382 0.0
H358 H 0.45258 0.8265 0.54076 0.0
H359 H 0.4702 0.8708 0.51694 0.0
H360 H 0.38529 0.82331 0.46798 0.0
H361 H 0.40659 0.86658 0.49189 0.0
H362 H 0.30333 0.51025 0.51815 0.0
H363 H 0.32984 0.55813 0.54145 0.0
H364 H 0.25741 0.50757 0.48969 0.0
H365 H 0.2726 0.55617 0.46657 0.0
C366 C 0.72515 0.33214 0.84865 0.0
C367 C 0.70035 0.37603 0.85838 0.0
C368 C 0.67264 0.40677 0.82378 0.0
C369 C 0.68674 0.35449 0.81456 0.0
N370 N 0.72115 0.26266 0.81804 0.0
N371 N 0.64218 0.44913 0.85511 0.0
C372 C 0.71193 0.31603 0.82691 0.0
C373 C 0.67235 0.41223 0.84592 0.0
N374 N 0.76434 0.3087 0.85993 0.0
N375 N 0.66144 0.45277 0.8113 0.0
H376 H 0.64131 0.45625 0.8712 0.0
H377 H 0.61239 0.46782 0.84685 0.0
H378 H 0.66257 0.4512 0.79496 0.0
H379 H 0.65849 0.49713 0.81702 0.0
H380 H 0.78985 0.2826 0.8532 0.0
H381 H 0.77783 0.32187 0.87565 0.0
H382 H 0.73076 0.2267 0.82673 0.0
H383 H 0.7143 0.2511 0.80204 0.0
C384 C 0.98497 0.52919 0.10542 0.0
C385 C 0.94163 0.50232 0.08712 0.0
C386 C 0.03847 0.49075 0.06959 0.0
C387 C 0.08347 0.52161 0.08745 0.0
N388 N 0.10387 0.57788 0.12148 0.0
N389 N 0.92969 0.46793 0.05075 0.0
C390 C 0.05808 0.54348 0.10506 0.0
C391 C 0.96897 0.48562 0.06893 0.0
N392 N 0.95503 0.53772 0.12345 0.0
N393 N 0.06216 0.46621 0.05326 0.0
H394 H 0.8789 0.46422 0.04964 0.0
H395 H 0.94942 0.46259 0.03631 0.0
H396 H 0.11437 0.47323 0.05246 0.0
H397 H 0.02899 0.43526 0.04098 0.0
H398 H 0.9805 0.54867 0.13798 0.0
H399 H 0.9019 0.52827 0.1243 0.0
H400 H 0.09194 0.60322 0.13355 0.0
H401 H 0.1561 0.58507 0.12252 0.0
C402 C 0.56274 0.03279 0.43719 0.0
C403 C 0.56516 0.08278 0.42201 0.0
C404 C 0.44903 0.98718 0.40741 0.0
C405 C 0.45069 0.93556 0.42139 0.0
N406 N 0.51867 0.90793 0.44689 0.0
N407 N 0.51114 0.10824 0.39219 0.0
C408 C 0.51035 0.95782 0.43542 0.0
C409 C 0.50793 0.06046 0.40716 0.0
N410 N 0.60816 0.05765 0.45414 0.0
N411 N 0.39169 0.96586 0.39399 0.0
H412 H 0.54873 0.16352 0.39237 0.0
H413 H 0.47814 0.0931 0.37897 0.0
H414 H 0.35346 0.91158 0.39117 0.0
H415 H 0.38064 1.00188 0.3859 0.0
H416 H 0.60313 0.0252 0.46704 0.0
H417 H 0.64538 0.11258 0.45654 0.0
H418 H 0.56594 0.92105 0.45516 0.0
H419 H 0.4822 0.85241 0.44688 0.0
C420 C 0.52166 0.48154 0.77597 0.0
C421 C 0.54753 0.46447 0.75748 0.0
C422 C 0.54897 0.56712 0.73914 0.0
C423 C 0.52544 0.58543 0.75777 0.0
N424 N 0.50794 0.57266 0.79514 0.0
N425 N 0.60611 0.50424 0.72364 0.0
C426 C 0.51708 0.54622 0.77657 0.0
C427 C 0.5676 0.51139 0.73973 0.0
N428 N 0.50185 0.43628 0.79301 0.0
N429 N 0.55163 0.60156 0.72074 0.0
H430 H 0.6235 0.46631 0.72378 0.0
H431 H 0.62778 0.54103 0.71123 0.0
H432 H 0.53982 0.64366 0.71976 0.0
H433 H 0.55995 0.58462 0.7062 0.0
H434 H 0.47452 0.44105 0.80594 0.0
H435 H 0.50955 0.39151 0.79384 0.0
H436 H 0.50878 0.55085 0.80971 0.0
H437 H 0.50624 0.62085 0.79609 0.0
C438 C 0.46861 0.02778 0.57179 0.0
C439 C 0.50874 0.07701 0.58801 0.0
C440 C 0.52801 0.98351 0.60474 0.0
C441 C 0.48567 0.93343 0.58882 0.0
N442 N 0.39668 0.90246 0.56117 0.0
N443 N 0.5614 0.09688 0.62252 0.0
C444 C 0.44976 0.95364 0.57364 0.0
C445 C 0.53429 0.05353 0.60524 0.0
N446 N 0.45165 0.05235 0.55403 0.0
N447 N 0.56143 0.96387 0.6196 0.0
H448 H 0.56439 0.14727 0.62374 0.0
H449 H 0.57439 0.08033 0.63644 0.0
H450 H 0.55196 0.91096 0.62126 0.0
H451 H 0.60072 1.00066 0.62982 0.0
H452 H 0.43037 0.02066 0.54065 0.0
H453 H 0.46528 0.10639 0.55182 0.0
H454 H 0.36432 0.91379 0.55137 0.0
H455 H 0.379 0.84723 0.56216 0.0
C456 C 0.44609 0.46542 0.9054 0.0
C457 C 0.43673 0.5045 0.92195 0.0
C458 C 0.55055 0.5251 0.93811 0.0
C459 C 0.55944 0.48502 0.92167 0.0
N460 N 0.50509 0.40044 0.8929 0.0
N461 N 0.46966 0.55645 0.95648 0.0
C462 C 0.50384 0.44977 0.90637 0.0
C463 C 0.48621 0.53031 0.93899 0.0
N464 N 0.40201 0.44619 0.88819 0.0
N465 N 0.60311 0.55729 0.9531 0.0
H466 H 0.42183 0.55866 0.95792 0.0
H467 H 0.49943 0.56962 0.97032 0.0
H468 H 0.64675 0.548 0.95454 0.0
H469 H 0.60502 0.59529 0.96374 0.0
H470 H 0.41239 0.42672 0.8744 0.0
H471 H 0.3582 0.4552 0.88689 0.0
H472 H 0.46178 0.36729 0.88315 0.0
H473 H 0.54588 0.38695 0.89271 0.0
C474 C 0.07663 0.50789 0.26588 0.0
C475 C 0.09955 0.56736 0.25168 0.0
C476 C 0.9752 0.51364 0.23789 0.0
C477 C 0.95188 0.45432 0.25218 0.0
N478 N 0.9759 0.40519 0.28331 0.0
N479 N 0.0763 0.61391 0.21992 0.0
C480 C 1.0016 0.4538 0.26699 0.0
C481 C 0.05025 0.56681 0.23659 0.0
N482 N 0.12633 0.50124 0.2779 0.0
N483 N 0.92588 0.52139 0.22601 0.0
H484 H 0.13147 0.6509 0.21766 0.0
H485 H 0.04489 0.61068 0.20699 0.0
H486 H 0.87039 0.48469 0.22599 0.0
H487 H 0.93891 0.56835 0.21752 0.0
H488 H 0.11414 0.45457 0.2864 0.0
H489 H 0.1816 0.53886 0.27802 0.0
H490 H 1.00731 0.4074 0.29611 0.0
H491 H 0.92095 0.36723 0.28542 0.0
C492 C 0.52306 0.47158 0.10502 0.0
C493 C 0.57094 0.49625 0.08749 0.0
C494 C 0.48964 0.52845 0.06891 0.0
C495 C 0.44409 0.50804 0.08691 0.0
N496 N 0.41652 0.46209 0.12234 0.0
N497 N 0.60469 0.5539 0.05347 0.0
C498 C 0.46013 0.47935 0.10497 0.0
C499 C 0.55573 0.52658 0.06966 0.0
N500 N 0.53841 0.44124 0.1218 0.0
N501 N 0.46755 0.54604 0.05076 0.0
H502 H 0.6517 0.54996 0.05287 0.0
H503 H 0.60134 0.58436 0.04116 0.0
H504 H 0.41851 0.54602 0.04953 0.0
H505 H 0.49407 0.55451 0.03642 0.0
H506 H 0.50233 0.41389 0.13401 0.0
H507 H 0.58748 0.44153 0.12331 0.0
H508 H 0.429 0.44913 0.1369 0.0
H509 H 0.36811 0.46343 0.12255 0.0
C510 C 0.96881 0.48919 0.44057 0.0
C511 C 0.94424 0.43899 0.42374 0.0
C512 C 0.06733 0.49895 0.40892 0.0
C513 C 0.08975 0.55574 0.42392 0.0
N514 N 0.06209 0.60446 0.45455 0.0
N515 N 0.96636 0.40363 0.38986 0.0
C516 C 0.04031 0.55088 0.43984 0.0
C517 C 0.9925 0.44575 0.4074 0.0
N518 N 0.92503 0.47588 0.45772 0.0
N519 N 0.11695 0.49409 0.39636 0.0
H520 H 0.91165 0.36475 0.3879 0.0
H521 H 0.99748 0.41232 0.37637 0.0
H522 H 0.17262 0.52975 0.39702 0.0
H523 H 0.10368 0.44948 0.3868 0.0
H524 H 0.94197 0.50608 0.47146 0.0
H525 H 0.87316 0.43038 0.45897 0.0
H526 H 0.02631 0.60958 0.46464 0.0
H527 H 0.11603 0.64555 0.45631 0.0
C528 C 0.4768 0.0338 0.743 0.0
C529 C 0.51532 0.08007 0.75998 0.0
C530 C 0.52738 0.98165 0.77649 0.0
C531 C 0.49034 0.9359 0.75918 0.0
N532 N 0.41267 0.91196 0.72897 0.0
N533 N 0.57808 0.10077 0.79285 0.0
C534 C 0.4597 0.9599 0.74338 0.0
C535 C 0.5407 0.0546 0.77677 0.0
N536 N 0.46059 0.06178 0.72581 0.0
N537 N 0.54545 0.95342 0.79325 0.0
H538 H 0.58391 0.15234 0.79428 0.0
H539 H 0.60526 0.08973 0.80456 0.0
H540 H 0.53267 0.89923 0.79408 0.0
H541 H 0.5683 0.98117 0.80708 0.0
H542 H 0.44159 0.03387 0.71175 0.0
H543 H 0.47204 0.11553 0.72482 0.0
H544 H 0.38206 0.92419 0.71874 0.0
H545 H 0.39829 0.85752 0.72836 0.0
C546 C 0.56732 0.57739 0.60007 0.0
C547 C 0.52613 0.58579 0.584 0.0
C548 C 0.50773 0.47368 0.56731 0.0
C549 C 0.55077 0.46631 0.58318 0.0
N550 N 0.6411 0.52573 0.61047 0.0
N551 N 0.471 0.55207 0.54985 0.0
C552 C 0.58694 0.52271 0.5982 0.0
C553 C 0.50007 0.53666 0.5669 0.0
N554 N 0.58464 0.61908 0.61775 0.0
N555 N 0.47518 0.42108 0.55236 0.0
H556 H 0.46652 0.59871 0.54878 0.0
H557 H 0.45733 0.52253 0.53597 0.0
H558 H 0.48674 0.37916 0.55038 0.0
H559 H 0.43507 0.41771 0.54228 0.0
H560 H 0.60672 0.60913 0.63108 0.0
H561 H 0.57051 0.65912 0.61996 0.0
H562 H 0.67353 0.56984 0.62007 0.0
H563 H 0.65987 0.4891 0.6095 0.0
C564 C 0.06043 0.55646 0.9027 0.0
C565 C 0.08487 0.53476 0.92058 0.0
C566 C 0.97268 0.50607 0.93948 0.0
C567 C 0.94551 0.52113 0.92097 0.0
N568 N 0.95873 0.5533 0.88432 0.0
N569 N 0.06396 0.48482 0.95561 0.0
C570 C 0.98835 0.54505 0.90244 0.0
C571 C 0.04082 0.50831 0.93888 0.0
N572 N 0.10604 0.58772 0.88593 0.0
N573 N 0.93413 0.49195 0.95779 0.0
H574 H 0.11524 0.48951 0.9563 0.0
H575 H 0.03118 0.45703 0.9684 0.0
H576 H 0.88433 0.49051 0.95877 0.0
H577 H 0.95368 0.48751 0.97235 0.0
H578 H 0.09504 0.61274 0.87354 0.0
H579 H 0.15738 0.59267 0.88489 0.0
H580 H 0.98357 0.56209 0.86969 0.0
H581 H 0.90657 0.54648 0.8836 0.0
C582 C 0.51593 0.96819 0.23554 0.0
C583 C 0.45913 0.94492 0.25067 0.0
C584 C 0.51452 0.06899 0.26459 0.0
C585 C 0.57428 0.09143 0.25051 0.0
N586 N 0.6215 0.06865 0.21884 0.0
N587 N 0.41354 0.96873 0.28255 0.0
C588 C 0.57246 0.04245 0.23505 0.0
C589 C 0.46058 0.99424 0.26587 0.0
N590 N 0.51662 0.91906 0.22184 0.0
N591 N 0.507 0.1188 0.27624 0.0
H592 H 0.37471 0.91404 0.28462 0.0
H593 H 0.41805 1.0002 0.29557 0.0
H594 H 0.54316 0.17435 0.27582 0.0
H595 H 0.46014 0.10607 0.28474 0.0
H596 H 0.56086 0.9295 0.21241 0.0
H597 H 0.47435 0.86563 0.22059 0.0
H598 H 0.61954 0.03836 0.20582 0.0
H599 H 0.66059 0.12345 0.21718 0.0
loop_
_geom_bond_atom_site_label_1
_geom_bond_atom_site_label_2
_geom_bond_distance
_geom_bond_site_symmetry_2
_ccdc_geom_bond_type
C0 O2 1.247 . S
C0 O4 1.258 . S
C1 O8 1.247 . S
C1 O9 1.258 . S
O2 C0 1.247 . S
O2 Zn3 2.028 . S
Zn3 O2 2.028 . S
Zn3 O7 2.035 . S
Zn3 O9 2.035 . S
Zn3 O10 2.028 . S
O4 C0 1.258 . S
O4 Zn5 2.035 . S
Zn5 O4 2.035 . S
Zn5 O6 2.028 . S
Zn5 O8 2.028 . S
Zn5 O11 2.035 . S
O6 Zn5 2.028 . S
O6 C12 1.247 . S
O7 Zn3 2.035 . S
O7 C12 1.258 . S
O8 C1 1.247 . S
O8 Zn5 2.028 . S
O9 C1 1.258 . S
O9 Zn3 2.035 . S
O10 Zn3 2.028 . S
O10 C13 1.247 . S
O11 Zn5 2.035 . S
O11 C13 1.258 . S
C12 O6 1.247 . S
C12 O7 1.258 . S
C13 O10 1.247 . S
C13 O11 1.258 . S
C14 O16 1.247 . S
C14 O18 1.258 . S
C15 O22 1.247 . S
C15 O23 1.258 . S
O16 C14 1.247 . S
O16 Zn17 2.028 . S
Zn17 O16 2.028 . S
Zn17 O21 2.035 . S
Zn17 O23 2.035 . S
Zn17 O24 2.028 . S
O18 C14 1.258 . S
O18 Zn19 2.035 . S
Zn19 O18 2.035 . S
Zn19 O20 2.028 . S
Zn19 O22 2.028 . S
Zn19 O25 2.035 . S
O20 Zn19 2.028 . S
O20 C26 1.247 . S
O21 Zn17 2.035 . S
O21 C26 1.258 . S
O22 C15 1.247 . S
O22 Zn19 2.028 . S
O23 C15 1.258 . S
O23 Zn17 2.035 . S
O24 Zn17 2.028 . S
O24 C27 1.247 . S
O25 Zn19 2.035 . S
O25 C27 1.258 . S
C26 O20 1.247 . S
C26 O21 1.258 . S
C27 O24 1.247 . S
C27 O25 1.258 . S
C28 O30 1.247 . S
C28 O32 1.258 . S
C29 O36 1.247 . S
C29 O37 1.258 . S
O30 C28 1.247 . S
O30 Zn31 2.028 . S
Zn31 O30 2.028 . S
Zn31 O35 2.035 . S
Zn31 O37 2.035 . S
Zn31 O38 2.028 . S
O32 C28 1.258 . S
O32 Zn33 2.035 . S
Zn33 O32 2.035 . S
Zn33 O34 2.028 . S
Zn33 O36 2.028 . S
Zn33 O39 2.035 . S
O34 Zn33 2.028 . S
O34 C40 1.247 . S
O35 Zn31 2.035 . S
O35 C40 1.258 . S
O36 C29 1.247 . S
O36 Zn33 2.028 . S
O37 C29 1.258 . S
O37 Zn31 2.035 . S
O38 Zn31 2.028 . S
O38 C41 1.247 . S
O39 Zn33 2.035 . S
O39 C41 1.258 . S
C40 O34 1.247 . S
C40 O35 1.258 . S
C41 O38 1.247 . S
C41 O39 1.258 . S
C42 O44 1.247 . S
C42 O46 1.258 . S
C43 O50 1.247 . S
C43 O51 1.258 . S
O44 C42 1.247 . S
O44 Zn45 2.028 . S
Zn45 O44 2.028 . S
Zn45 O49 2.035 . S
Zn45 O51 2.035 . S
Zn45 O52 2.028 . S
O46 C42 1.258 . S
O46 Zn47 2.035 . S
Zn47 O46 2.035 . S
Zn47 O48 2.028 . S
Zn47 O50 2.028 . S
Zn47 O53 2.035 . S
O48 Zn47 2.028 . S
O48 C54 1.247 . S
O49 Zn45 2.035 . S
O49 C54 1.258 . S
O50 C43 1.247 . S
O50 Zn47 2.028 . S
O51 C43 1.258 . S
O51 Zn45 2.035 . S
O52 Zn45 2.028 . S
O52 C55 1.247 . S
O53 Zn47 2.035 . S
O53 C55 1.258 . S
C54 O48 1.247 . S
C54 O49 1.258 . S
C55 O52 1.247 . S
C55 O53 1.258 . S
C56 O58 1.247 . S
C56 O60 1.258 . S
C57 O64 1.247 . S
C57 O65 1.258 . S
O58 C56 1.247 . S
O58 Zn59 2.028 . S
Zn59 O58 2.028 . S
Zn59 O63 2.035 . S
Zn59 O65 2.035 . S
Zn59 O66 2.028 . S
O60 C56 1.258 . S
O60 Zn61 2.035 . S
Zn61 O60 2.035 . S
Zn61 O62 2.028 . S
Zn61 O64 2.028 . S
Zn61 O67 2.035 . S
O62 Zn61 2.028 . S
O62 C68 1.247 . S
O63 Zn59 2.035 . S
O63 C68 1.258 . S
O64 C57 1.247 . S
O64 Zn61 2.028 . S
O65 C57 1.258 . S
O65 Zn59 2.035 . S
O66 Zn59 2.028 . S
O66 C69 1.247 . S
O67 Zn61 2.035 . S
O67 C69 1.258 . S
C68 O62 1.247 . S
C68 O63 1.258 . S
C69 O66 1.247 . S
C69 O67 1.258 . S
C70 O72 1.247 . S
C70 O74 1.258 . S
C71 O78 1.247 . S
C71 O79 1.258 . S
O72 C70 1.247 . S
O72 Zn73 2.028 . S
Zn73 O72 2.028 . S
Zn73 O77 2.035 . S
Zn73 O79 2.035 . S
Zn73 O80 2.028 . S
O74 C70 1.258 . S
O74 Zn75 2.035 . S
Zn75 O74 2.035 . S
Zn75 O76 2.028 . S
Zn75 O78 2.028 . S
Zn75 O81 2.035 . S
O76 Zn75 2.028 . S
O76 C82 1.247 . S
O77 Zn73 2.035 . S
O77 C82 1.258 . S
O78 C71 1.247 . S
O78 Zn75 2.028 . S
O79 C71 1.258 . S
O79 Zn73 2.035 . S
O80 Zn73 2.028 . S
O80 C83 1.247 . S
O81 Zn75 2.035 . S
O81 C83 1.258 . S
C82 O76 1.247 . S
C82 O77 1.258 . S
C83 O80 1.247 . S
C83 O81 1.258 . S
C84 O86 1.247 . S
C84 O88 1.258 . S
C85 O92 1.247 . S
C85 O93 1.258 . S
O86 C84 1.247 . S
O86 Zn87 2.028 . S
Zn87 O86 2.028 . S
Zn87 O91 2.035 . S
Zn87 O93 2.035 . S
Zn87 O94 2.028 . S
O88 C84 1.258 . S
O88 Zn89 2.035 . S
Zn89 O88 2.035 . S
Zn89 O90 2.028 . S
Zn89 O92 2.028 . S
Zn89 O95 2.035 . S
O90 Zn89 2.028 . S
O90 C96 1.247 . S
O91 Zn87 2.035 . S
O91 C96 1.258 . S
O92 C85 1.247 . S
O92 Zn89 2.028 . S
O93 C85 1.258 . S
O93 Zn87 2.035 . S
O94 Zn87 2.028 . S
O94 C97 1.247 . S
O95 Zn89 2.035 . S
O95 C97 1.258 . S
C96 O90 1.247 . S
C96 O91 1.258 . S
C97 O94 1.247 . S
C97 O95 1.258 . S
C98 O100 1.247 . S
C98 O102 1.258 . S
C99 O106 1.247 . S
C99 O107 1.258 . S
O100 C98 1.247 . S
O100 Zn101 2.028 . S
Zn101 O100 2.028 . S
Zn101 O105 2.035 . S
Zn101 O107 2.035 . S
Zn101 O108 2.028 . S
O102 C98 1.258 . S
O102 Zn103 2.035 . S
Zn103 O102 2.035 . S
Zn103 O104 2.028 . S
Zn103 O106 2.028 . S
Zn103 O109 2.035 . S
O104 Zn103 2.028 . S
O104 C110 1.247 . S
O105 Zn101 2.035 . S
O105 C110 1.258 . S
O106 C99 1.247 . S
O106 Zn103 2.028 . S
O107 C99 1.258 . S
O107 Zn101 2.035 . S
O108 Zn101 2.028 . S
O108 C111 1.247 . S
O109 Zn103 2.035 . S
O109 C111 1.258 . S
C110 O104 1.247 . S
C110 O105 1.258 . S
C111 O108 1.247 . S
C111 O109 1.258 . S
C112 O114 1.247 . S
C112 O116 1.258 . S
C113 O120 1.247 . S
C113 O121 1.258 . S
O114 C112 1.247 . S
O114 Zn115 2.028 . S
Zn115 O114 2.028 . S
Zn115 O119 2.035 . S
Zn115 O121 2.035 . S
Zn115 O122 2.028 . S
O116 C112 1.258 . S
O116 Zn117 2.035 . S
Zn117 O116 2.035 . S
Zn117 O118 2.028 . S
Zn117 O120 2.028 . S
Zn117 O123 2.035 . S
O118 Zn117 2.028 . S
O118 C124 1.247 . S
O119 Zn115 2.035 . S
O119 C124 1.258 . S
O120 C113 1.247 . S
O120 Zn117 2.028 . S
O121 C113 1.258 . S
O121 Zn115 2.035 . S
O122 Zn115 2.028 . S
O122 C125 1.247 . S
O123 Zn117 2.035 . S
O123 C125 1.258 . S
C124 O118 1.247 . S
C124 O119 1.258 . S
C125 O122 1.247 . S
C125 O123 1.258 . S
C126 O128 1.247 . S
C126 O130 1.258 . S
C127 O134 1.247 . S
C127 O135 1.258 . S
O128 C126 1.247 . S
O128 Zn129 2.028 . S
Zn129 O128 2.028 . S
Zn129 O133 2.035 . S
Zn129 O135 2.035 . S
Zn129 O136 2.028 . S
O130 C126 1.258 . S
O130 Zn131 2.035 . S
Zn131 O130 2.035 . S
Zn131 O132 2.028 . S
Zn131 O134 2.028 . S
Zn131 O137 2.035 . S
O132 Zn131 2.028 . S
O132 C138 1.247 . S
O133 Zn129 2.035 . S
O133 C138 1.258 . S
O134 C127 1.247 . S
O134 Zn131 2.028 . S
O135 C127 1.258 . S
O135 Zn129 2.035 . S
O136 Zn129 2.028 . S
O136 C139 1.247 . S
O137 Zn131 2.035 . S
O137 C139 1.258 . S
C138 O132 1.247 . S
C138 O133 1.258 . S
C139 O136 1.247 . S
C139 O137 1.258 . S
C140 O142 1.247 . S
C140 O144 1.258 . S
C141 O148 1.247 . S
C141 O149 1.258 . S
O142 C140 1.247 . S
O142 Zn143 2.028 . S
Zn143 O142 2.028 . S
Zn143 O147 2.035 . S
Zn143 O149 2.035 . S
Zn143 O150 2.028 . S
O144 C140 1.258 . S
O144 Zn145 2.035 . S
Zn145 O144 2.035 . S
Zn145 O146 2.028 . S
Zn145 O148 2.028 . S
Zn145 O151 2.035 . S
O146 Zn145 2.028 . S
O146 C152 1.247 . S
O147 Zn143 2.035 . S
O147 C152 1.258 . S
O148 C141 1.247 . S
O148 Zn145 2.028 . S
O149 C141 1.258 . S
O149 Zn143 2.035 . S
O150 Zn143 2.028 . S
O150 C153 1.247 . S
O151 Zn145 2.035 . S
O151 C153 1.258 . S
C152 O146 1.247 . S
C152 O147 1.258 . S
C153 O150 1.247 . S
C153 O151 1.258 . S
C154 O156 1.247 . S
C154 O158 1.258 . S
C155 O162 1.247 . S
C155 O163 1.258 . S
O156 C154 1.247 . S
O156 Zn157 2.028 . S
Zn157 O156 2.028 . S
Zn157 O161 2.035 . S
Zn157 O163 2.035 . S
Zn157 O164 2.028 . S
O158 C154 1.258 . S
O158 Zn159 2.035 . S
Zn159 O158 2.035 . S
Zn159 O160 2.028 . S
Zn159 O162 2.028 . S
Zn159 O165 2.035 . S
O160 Zn159 2.028 . S
O160 C166 1.247 . S
O161 Zn157 2.035 . S
O161 C166 1.258 . S
O162 C155 1.247 . S
O162 Zn159 2.028 . S
O163 C155 1.258 . S
O163 Zn157 2.035 . S
O164 Zn157 2.028 . S
O164 C167 1.247 . S
O165 Zn159 2.035 . S
O165 C167 1.258 . S
C166 O160 1.247 . S
C166 O161 1.258 . S
C167 O164 1.247 . S
C167 O165 1.258 . S
C168 C169 1.363 . S
C168 C174 1.379 1_556 S
C168 N176 1.356 . S
C169 C168 1.363 . S
C169 C175 1.363 . S
C170 C171 1.363 . S
C170 C175 1.379 1_554 S
C170 N177 1.356 . S
C171 C170 1.363 . S
C171 C174 1.363 . S
N172 C174 1.356 . S
N172 H184 0.984 . S
N172 H185 0.985 . S
N173 C175 1.356 . S
N173 H178 0.984 . S
N173 H179 0.985 . S
C174 C168 1.379 1_554 S
C174 C171 1.363 . S
C174 N172 1.356 . S
C175 C169 1.363 . S
C175 C170 1.379 1_556 S
C175 N173 1.356 . S
N176 C168 1.356 . S
N176 H182 0.984 . S
N176 H183 0.984 . S
N177 C170 1.356 . S
N177 H180 0.984 . S
N177 H181 0.985 . S
H178 N173 0.984 . S
H179 N173 0.985 . S
H180 N177 0.984 . S
H181 N177 0.985 . S
H182 N176 0.984 . S
H183 N176 0.984 . S
H184 N172 0.984 . S
H185 N172 0.985 . S
C186 C187 1.363 . S
C186 C192 1.379 . S
C186 N194 1.356 . S
C187 C186 1.363 . S
C187 C193 1.363 . S
C188 C189 1.363 . S
C188 C193 1.379 . S
C188 N195 1.356 . S
C189 C188 1.363 . S
C189 C192 1.363 . S
N190 C192 1.356 . S
N190 H202 0.984 . S
N190 H203 0.985 . S
N191 C193 1.356 . S
N191 H196 0.984 . S
N191 H197 0.985 . S
C192 C186 1.379 . S
C192 C189 1.363 . S
C192 N190 1.356 . S
C193 C187 1.363 . S
C193 C188 1.379 . S
C193 N191 1.356 . S
N194 C186 1.356 . S
N194 H200 0.984 . S
N194 H201 0.984 . S
N195 C188 1.356 . S
N195 H198 0.984 . S
N195 H199 0.985 . S
H196 N191 0.984 . S
H197 N191 0.985 . S
H198 N195 0.984 . S
H199 N195 0.985 . S
H200 N194 0.984 . S
H201 N194 0.984 . S
H202 N190 0.984 . S
H203 N190 0.985 . S
C204 C205 1.363 . S
C204 C210 1.379 . S
C204 N212 1.356 . S
C205 C204 1.363 . S
C205 C211 1.363 . S
C206 C207 1.363 . S
C206 C211 1.379 . S
C206 N213 1.356 . S
C207 C206 1.363 . S
C207 C210 1.363 . S
N208 C210 1.356 . S
N208 H220 0.984 . S
N208 H221 0.985 . S
N209 C211 1.356 . S
N209 H214 0.984 . S
N209 H215 0.985 . S
C210 C204 1.379 . S
C210 C207 1.363 . S
C210 N208 1.356 . S
C211 C205 1.363 . S
C211 C206 1.379 . S
C211 N209 1.356 . S
N212 C204 1.356 . S
N212 H218 0.984 . S
N212 H219 0.984 . S
N213 C206 1.356 . S
N213 H216 0.984 . S
N213 H217 0.985 . S
H214 N209 0.984 . S
H215 N209 0.985 . S
H216 N213 0.984 . S
H217 N213 0.985 . S
H218 N212 0.984 . S
H219 N212 0.984 . S
H220 N208 0.984 . S
H221 N208 0.985 . S
C222 C223 1.363 . S
C222 C228 1.379 1_554 S
C222 N230 1.356 . S
C223 C222 1.363 . S
C223 C229 1.363 . S
C224 C225 1.363 . S
C224 C229 1.379 1_556 S
C224 N231 1.356 . S
C225 C224 1.363 . S
C225 C228 1.363 . S
N226 C228 1.356 . S
N226 H238 0.984 . S
N226 H239 0.985 . S
N227 C229 1.356 . S
N227 H232 0.984 . S
N227 H233 0.985 . S
C228 C222 1.379 1_556 S
C228 C225 1.363 . S
C228 N226 1.356 . S
C229 C223 1.363 . S
C229 C224 1.379 1_554 S
C229 N227 1.356 . S
N230 C222 1.356 . S
N230 H236 0.984 . S
N230 H237 0.984 . S
N231 C224 1.356 . S
N231 H234 0.984 . S
N231 H235 0.985 . S
H232 N227 0.984 . S
H233 N227 0.985 . S
H234 N231 0.984 . S
H235 N231 0.985 . S
H236 N230 0.984 . S
H237 N230 0.984 . S
H238 N226 0.984 . S
H239 N226 0.985 . S
C240 C241 1.363 . S
C240 C246 1.379 . S
C240 N248 1.356 . S
C241 C240 1.363 . S
C241 C247 1.363 . S
C242 C243 1.363 . S
C242 C247 1.379 . S
C242 N249 1.356 . S
C243 C242 1.363 . S
C243 C246 1.363 . S
N244 C246 1.356 . S
N244 H256 0.984 . S
N244 H257 0.985 . S
N245 C247 1.356 . S
N245 H250 0.984 . S
N245 H251 0.985 . S
C246 C240 1.379 . S
C246 C243 1.363 . S
C246 N244 1.356 . S
C247 C241 1.363 . S
C247 C242 1.379 . S
C247 N245 1.356 . S
N248 C240 1.356 . S
N248 H254 0.984 . S
N248 H255 0.984 . S
N249 C242 1.356 . S
N249 H252 0.984 . S
N249 H253 0.985 . S
H250 N245 0.984 . S
H251 N245 0.985 . S
H252 N249 0.984 . S
H253 N249 0.985 . S
H254 N248 0.984 . S
H255 N248 0.984 . S
H256 N244 0.984 . S
H257 N244 0.985 . S
C258 C259 1.363 . S
C258 C264 1.379 . S
C258 N266 1.356 . S
C259 C258 1.363 . S
C259 C265 1.363 . S
C260 C261 1.363 . S
C260 C265 1.379 . S
C260 N267 1.356 . S
C261 C260 1.363 . S
C261 C264 1.363 . S
N262 C264 1.356 . S
N262 H274 0.984 . S
N262 H275 0.985 . S
N263 C265 1.356 . S
N263 H268 0.984 . S
N263 H269 0.985 . S
C264 C258 1.379 . S
C264 C261 1.363 . S
C264 N262 1.356 . S
C265 C259 1.363 . S
C265 C260 1.379 . S
C265 N263 1.356 . S
N266 C258 1.356 . S
N266 H272 0.984 . S
N266 H273 0.984 . S
N267 C260 1.356 . S
N267 H270 0.984 . S
N267 H271 0.985 . S
H268 N263 0.984 . S
H269 N263 0.985 . S
H270 N267 0.984 . S
H271 N267 0.985 . S
H272 N266 0.984 . S
H273 N266 0.984 . S
H274 N262 0.984 . S
H275 N262 0.985 . S
C276 C277 1.363 . S
C276 C282 1.379 . S
C276 N284 1.356 . S
C277 C276 1.363 . S
C277 C283 1.363 . S
C278 C279 1.363 . S
C278 C283 1.379 . S
C278 N285 1.356 . S
C279 C278 1.363 . S
C279 C282 1.363 . S
N280 C282 1.356 . S
N280 H292 0.984 . S
N280 H293 0.985 . S
N281 C283 1.356 . S
N281 H286 0.984 . S
N281 H287 0.985 . S
C282 C276 1.379 . S
C282 C279 1.363 . S
C282 N280 1.356 . S
C283 C277 1.363 . S
C283 C278 1.379 . S
C283 N281 1.356 . S
N284 C276 1.356 . S
N284 H290 0.984 . S
N284 H291 0.984 . S
N285 C278 1.356 . S
N285 H288 0.984 . S
N285 H289 0.985 . S
H286 N281 0.984 . S
H287 N281 0.985 . S
H288 N285 0.984 . S
H289 N285 0.985 . S
H290 N284 0.984 . S
H291 N284 0.984 . S
H292 N280 0.984 . S
H293 N280 0.985 . S
C294 C295 1.363 . S
C294 C300 1.379 . S
C294 N302 1.356 . S
C295 C294 1.363 . S
C295 C301 1.363 . S
C296 C297 1.363 . S
C296 C301 1.379 . S
C296 N303 1.356 . S
C297 C296 1.363 . S
C297 C300 1.363 . S
N298 C300 1.356 . S
N298 H310 0.984 . S
N298 H311 0.985 . S
N299 C301 1.356 . S
N299 H304 0.984 . S
N299 H305 0.985 . S
C300 C294 1.379 . S
C300 C297 1.363 . S
C300 N298 1.356 . S
C301 C295 1.363 . S
C301 C296 1.379 . S
C301 N299 1.356 . S
N302 C294 1.356 . S
N302 H308 0.984 . S
N302 H309 0.984 . S
N303 C296 1.356 . S
N303 H306 0.984 . S
N303 H307 0.985 . S
H304 N299 0.984 . S
H305 N299 0.985 . S
H306 N303 0.984 . S
H307 N303 0.985 . S
H308 N302 0.984 . S
H309 N302 0.984 . S
H310 N298 0.984 . S
H311 N298 0.985 . S
C312 C313 1.363 . S
C312 C318 1.379 . S
C312 N320 1.356 . S
C313 C312 1.363 . S
C313 C319 1.363 . S
C314 C315 1.363 . S
C314 C319 1.379 . S
C314 N321 1.356 . S
C315 C314 1.363 . S
C315 C318 1.363 . S
N316 C318 1.356 . S
N316 H328 0.984 . S
N316 H329 0.985 . S
N317 C319 1.356 . S
N317 H322 0.984 . S
N317 H323 0.985 . S
C318 C312 1.379 . S
C318 C315 1.363 . S
C318 N316 1.356 . S
C319 C313 1.363 . S
C319 C314 1.379 . S
C319 N317 1.356 . S
N320 C312 1.356 . S
N320 H326 0.984 . S
N320 H327 0.984 . S
N321 C314 1.356 . S
N321 H324 0.984 . S
N321 H325 0.985 . S
H322 N317 0.984 . S
H323 N317 0.985 . S
H324 N321 0.984 . S
H325 N321 0.985 . S
H326 N320 0.984 . S
H327 N320 0.984 . S
H328 N316 0.984 . S
H329 N316 0.985 . S
C330 C331 1.363 . S
C330 C336 1.379 . S
C330 N338 1.356 . S
C331 C330 1.363 . S
C331 C337 1.363 . S
C332 C333 1.363 . S
C332 C337 1.379 . S
C332 N339 1.356 . S
C333 C332 1.363 . S
C333 C336 1.363 . S
N334 C336 1.356 . S
N334 H346 0.984 . S
N334 H347 0.985 . S
N335 C337 1.356 . S
N335 H340 0.984 . S
N335 H341 0.985 . S
C336 C330 1.379 . S
C336 C333 1.363 . S
C336 N334 1.356 . S
C337 C331 1.363 . S
C337 C332 1.379 . S
C337 N335 1.356 . S
N338 C330 1.356 . S
N338 H344 0.984 . S
N338 H345 0.984 . S
N339 C332 1.356 . S
N339 H342 0.984 . S
N339 H343 0.985 . S
H340 N335 0.984 . S
H341 N335 0.985 . S
H342 N339 0.984 . S
H343 N339 0.985 . S
H344 N338 0.984 . S
H345 N338 0.984 . S
H346 N334 0.984 . S
H347 N334 0.985 . S
C348 C349 1.363 . S
C348 C354 1.379 . S
C348 N356 1.356 . S
C349 C348 1.363 . S
C349 C355 1.363 . S
C350 C351 1.363 . S
C350 C355 1.379 . S
C350 N357 1.356 . S
C351 C350 1.363 . S
C351 C354 1.363 . S
N352 C354 1.356 . S
N352 H364 0.984 . S
N352 H365 0.985 . S
N353 C355 1.356 . S
N353 H358 0.984 . S
N353 H359 0.985 . S
C354 C348 1.379 . S
C354 C351 1.363 . S
C354 N352 1.356 . S
C355 C349 1.363 . S
C355 C350 1.379 . S
C355 N353 1.356 . S
N356 C348 1.356 . S
N356 H362 0.984 . S
N356 H363 0.984 . S
N357 C350 1.356 . S
N357 H360 0.984 . S
N357 H361 0.985 . S
H358 N353 0.984 . S
H359 N353 0.985 . S
H360 N357 0.984 . S
H361 N357 0.985 . S
H362 N356 0.984 . S
H363 N356 0.984 . S
H364 N352 0.984 . S
H365 N352 0.985 . S
C366 C367 1.363 . S
C366 C372 1.379 . S
C366 N374 1.356 . S
C367 C366 1.363 . S
C367 C373 1.363 . S
C368 C369 1.363 . S
C368 C373 1.379 . S
C368 N375 1.356 . S
C369 C368 1.363 . S
C369 C372 1.363 . S
N370 C372 1.356 . S
N370 H382 0.984 . S
N370 H383 0.985 . S
N371 C373 1.356 . S
N371 H376 0.984 . S
N371 H377 0.985 . S
C372 C366 1.379 . S
C372 C369 1.363 . S
C372 N370 1.356 . S
C373 C367 1.363 . S
C373 C368 1.379 . S
C373 N371 1.356 . S
N374 C366 1.356 . S
N374 H380 0.984 . S
N374 H381 0.984 . S
N375 C368 1.356 . S
N375 H378 0.984 . S
N375 H379 0.985 . S
H376 N371 0.984 . S
H377 N371 0.985 . S
H378 N375 0.984 . S
H379 N375 0.985 . S
H380 N374 0.984 . S
H381 N374 0.984 . S
H382 N370 0.984 . S
H383 N370 0.985 . S
C384 C385 1.363 . S
C384 C390 1.379 1_655 S
C384 N392 1.356 . S
C385 C384 1.363 . S
C385 C391 1.363 . S
C386 C387 1.363 . S
C386 C391 1.379 1_455 S
C386 N393 1.356 . S
C387 C386 1.363 . S
C387 C390 1.363 . S
N388 C390 1.356 . S
N388 H400 0.984 . S
N388 H401 0.985 . S
N389 C391 1.356 . S
N389 H394 0.984 . S
N389 H395 0.985 . S
C390 C384 1.379 1_455 S
C390 C387 1.363 . S
C390 N388 1.356 . S
C391 C385 1.363 . S
C391 C386 1.379 1_655 S
C391 N389 1.356 . S
N392 C384 1.356 . S
N392 H398 0.984 . S
N392 H399 0.984 . S
N393 C386 1.356 . S
N393 H396 0.984 . S
N393 H397 0.985 . S
H394 N389 0.984 . S
H395 N389 0.985 . S
H396 N393 0.984 . S
H397 N393 0.985 . S
H398 N392 0.984 . S
H399 N392 0.984 . S
H400 N388 0.984 . S
H401 N388 0.985 . S
C402 C403 1.363 . S
C402 C408 1.379 1_545 S
C402 N410 1.356 . S
C403 C402 1.363 . S
C403 C409 1.363 . S
C404 C405 1.363 . S
C404 C409 1.379 1_565 S
C404 N411 1.356 . S
C405 C404 1.363 . S
C405 C408 1.363 . S
N406 C408 1.356 . S
N406 H418 0.984 . S
N406 H419 0.985 . S
N407 C409 1.356 . S
N407 H412 0.984 . S
N407 H413 0.985 . S
C408 C402 1.379 1_565 S
C408 C405 1.363 . S
C408 N406 1.356 . S
C409 C403 1.363 . S
C409 C404 1.379 1_545 S
C409 N407 1.356 . S
N410 C402 1.356 . S
N410 H416 0.984 . S
N410 H417 0.984 . S
N411 C404 1.356 . S
N411 H414 0.984 . S
N411 H415 0.985 . S
H412 N407 0.984 . S
H413 N407 0.985 . S
H414 N411 0.984 . S
H415 N411 0.985 . S
H416 N410 0.984 . S
H417 N410 0.984 . S
H418 N406 0.984 . S
H419 N406 0.985 . S
C420 C421 1.363 . S
C420 C426 1.379 . S
C420 N428 1.356 . S
C421 C420 1.363 . S
C421 C427 1.363 . S
C422 C423 1.363 . S
C422 C427 1.379 . S
C422 N429 1.356 . S
C423 C422 1.363 . S
C423 C426 1.363 . S
N424 C426 1.356 . S
N424 H436 0.984 . S
N424 H437 0.985 . S
N425 C427 1.356 . S
N425 H430 0.984 . S
N425 H431 0.985 . S
C426 C420 1.379 . S
C426 C423 1.363 . S
C426 N424 1.356 . S
C427 C421 1.363 . S
C427 C422 1.379 . S
C427 N425 1.356 . S
N428 C420 1.356 . S
N428 H434 0.984 . S
N428 H435 0.984 . S
N429 C422 1.356 . S
N429 H432 0.984 . S
N429 H433 0.985 . S
H430 N425 0.984 . S
H431 N425 0.985 . S
H432 N429 0.984 . S
H433 N429 0.985 . S
H434 N428 0.984 . S
H435 N428 0.984 . S
H436 N424 0.984 . S
H437 N424 0.985 . S
C438 C439 1.363 . S
C438 C444 1.379 1_545 S
C438 N446 1.356 . S
C439 C438 1.363 . S
C439 C445 1.363 . S
C440 C441 1.363 . S
C440 C445 1.379 1_565 S
C440 N447 1.356 . S
C441 C440 1.363 . S
C441 C444 1.363 . S
N442 C444 1.356 . S
N442 H454 0.984 . S
N442 H455 0.985 . S
N443 C445 1.356 . S
N443 H448 0.984 . S
N443 H449 0.985 . S
C444 C438 1.379 1_565 S
C444 C441 1.363 . S
C444 N442 1.356 . S
C445 C439 1.363 . S
C445 C440 1.379 1_545 S
C445 N443 1.356 . S
N446 C438 1.356 . S
N446 H452 0.984 . S
N446 H453 0.984 . S
N447 C440 1.356 . S
N447 H450 0.984 . S
N447 H451 0.985 . S
H448 N443 0.984 . S
H449 N443 0.985 . S
H450 N447 0.984 . S
H451 N447 0.985 . S
H452 N446 0.984 . S
H453 N446 0.984 . S
H454 N442 0.984 . S
H455 N442 0.985 . S
C456 C457 1.363 . S
C456 C462 1.379 . S
C456 N464 1.356 . S
C457 C456 1.363 . S
C457 C463 1.363 . S
C458 C459 1.363 . S
C458 C463 1.379 . S
C458 N465 1.356 . S
C459 C458 1.363 . S
C459 C462 1.363 . S
N460 C462 1.356 . S
N460 H472 0.984 . S
N460 H473 0.985 . S
N461 C463 1.356 . S
N461 H466 0.984 . S
N461 H467 0.985 . S
C462 C456 1.379 . S
C462 C459 1.363 . S
C462 N460 1.356 . S
C463 C457 1.363 . S
C463 C458 1.379 . S
C463 N461 1.356 . S
N464 C456 1.356 . S
N464 H470 0.984 . S
N464 H471 0.984 . S
N465 C458 1.356 . S
N465 H468 0.984 . S
N465 H469 0.985 . S
H466 N461 0.984 . S
H467 N461 0.985 . S
H468 N465 0.984 . S
H469 N465 0.985 . S
H470 N464 0.984 . S
H471 N464 0.984 . S
H472 N460 0.984 . S
H473 N460 0.985 . S
C474 C475 1.363 . S
C474 C480 1.379 1_455 S
C474 N482 1.356 . S
C475 C474 1.363 . S
C475 C481 1.363 . S
C476 C477 1.363 . S
C476 C481 1.379 1_655 S
C476 N483 1.356 . S
C477 C476 1.363 . S
C477 C480 1.363 . S
N478 C480 1.356 . S
N478 H490 0.984 . S
N478 H491 0.985 . S
N479 C481 1.356 . S
N479 H484 0.984 . S
N479 H485 0.985 . S
C480 C474 1.379 1_655 S
C480 C477 1.363 . S
C480 N478 1.356 . S
C481 C475 1.363 . S
C481 C476 1.379 1_455 S
C481 N479 1.356 . S
N482 C474 1.356 . S
N482 H488 0.984 . S
N482 H489 0.984 . S
N483 C476 1.356 . S
N483 H486 0.984 . S
N483 H487 0.985 . S
H484 N479 0.984 . S
H485 N479 0.985 . S
H486 N483 0.984 . S
H487 N483 0.985 . S
H488 N482 0.984 . S
H489 N482 0.984 . S
H490 N478 0.984 . S
H491 N478 0.985 . S
C492 C493 1.363 . S
C492 C498 1.379 . S
C492 N500 1.356 . S
C493 C492 1.363 . S
C493 C499 1.363 . S
C494 C495 1.363 . S
C494 C499 1.379 . S
C494 N501 1.356 . S
C495 C494 1.363 . S
C495 C498 1.363 . S
N496 C498 1.356 . S
N496 H508 0.984 . S
N496 H509 0.985 . S
N497 C499 1.356 . S
N497 H502 0.984 . S
N497 H503 0.985 . S
C498 C492 1.379 . S
C498 C495 1.363 . S
C498 N496 1.356 . S
C499 C493 1.363 . S
C499 C494 1.379 . S
C499 N497 1.356 . S
N500 C492 1.356 . S
N500 H506 0.984 . S
N500 H507 0.984 . S
N501 C494 1.356 . S
N501 H504 0.984 . S
N501 H505 0.985 . S
H502 N497 0.984 . S
H503 N497 0.985 . S
H504 N501 0.984 . S
H505 N501 0.985 . S
H506 N500 0.984 . S
H507 N500 0.984 . S
H508 N496 0.984 . S
H509 N496 0.985 . S
C510 C511 1.363 . S
C510 C516 1.379 1_655 S
C510 N518 1.356 . S
C511 C510 1.363 . S
C511 C517 1.363 . S
C512 C513 1.363 . S
C512 C517 1.379 1_455 S
C512 N519 1.356 . S
C513 C512 1.363 . S
C513 C516 1.363 . S
N514 C516 1.356 . S
N514 H526 0.984 . S
N514 H527 0.985 . S
N515 C517 1.356 . S
N515 H520 0.984 . S
N515 H521 0.985 . S
C516 C510 1.379 1_455 S
C516 C513 1.363 . S
C516 N514 1.356 . S
C517 C511 1.363 . S
C517 C512 1.379 1_655 S
C517 N515 1.356 . S
N518 C510 1.356 . S
N518 H524 0.984 . S
N518 H525 0.984 . S
N519 C512 1.356 . S
N519 H522 0.984 . S
N519 H523 0.985 . S
H520 N515 0.984 . S
H521 N515 0.985 . S
H522 N519 0.984 . S
H523 N519 0.985 . S
H524 N518 0.984 . S
H525 N518 0.984 . S
H526 N514 0.984 . S
H527 N514 0.985 . S
C528 C529 1.363 . S
C528 C534 1.379 1_545 S
C528 N536 1.356 . S
C529 C528 1.363 . S
C529 C535 1.363 . S
C530 C531 1.363 . S
C530 C535 1.379 1_565 S
C530 N537 1.356 . S
C531 C530 1.363 . S
C531 C534 1.363 . S
N532 C534 1.356 . S
N532 H544 0.984 . S
N532 H545 0.985 . S
N533 C535 1.356 . S
N533 H538 0.984 . S
N533 H539 0.985 . S
C534 C528 1.379 1_565 S
C534 C531 1.363 . S
C534 N532 1.356 . S
C535 C529 1.363 . S
C535 C530 1.379 1_545 S
C535 N533 1.356 . S
N536 C528 1.356 . S
N536 H542 0.984 . S
N536 H543 0.984 . S
N537 C530 1.356 . S
N537 H540 0.984 . S
N537 H541 0.985 . S
H538 N533 0.984 . S
H539 N533 0.985 . S
H540 N537 0.984 . S
H541 N537 0.985 . S
H542 N536 0.984 . S
H543 N536 0.984 . S
H544 N532 0.984 . S
H545 N532 0.985 . S
C546 C547 1.363 . S
C546 C552 1.379 . S
C546 N554 1.356 . S
C547 C546 1.363 . S
C547 C553 1.363 . S
C548 C549 1.363 . S
C548 C553 1.379 . S
C548 N555 1.356 . S
C549 C548 1.363 . S
C549 C552 1.363 . S
N550 C552 1.356 . S
N550 H562 0.984 . S
N550 H563 0.985 . S
N551 C553 1.356 . S
N551 H556 0.984 . S
N551 H557 0.985 . S
C552 C546 1.379 . S
C552 C549 1.363 . S
C552 N550 1.356 . S
C553 C547 1.363 . S
C553 C548 1.379 . S
C553 N551 1.356 . S
N554 C546 1.356 . S
N554 H560 0.984 . S
N554 H561 0.984 . S
N555 C548 1.356 . S
N555 H558 0.984 . S
N555 H559 0.985 . S
H556 N551 0.984 . S
H557 N551 0.985 . S
H558 N555 0.984 . S
H559 N555 0.985 . S
H560 N554 0.984 . S
H561 N554 0.984 . S
H562 N550 0.984 . S
H563 N550 0.985 . S
C564 C565 1.363 . S
C564 C570 1.379 1_455 S
C564 N572 1.356 . S
C565 C564 1.363 . S
C565 C571 1.363 . S
C566 C567 1.363 . S
C566 C571 1.379 1_655 S
C566 N573 1.356 . S
C567 C566 1.363 . S
C567 C570 1.363 . S
N568 C570 1.356 . S
N568 H580 0.984 . S
N568 H581 0.985 . S
N569 C571 1.356 . S
N569 H574 0.984 . S
N569 H575 0.985 . S
C570 C564 1.379 1_655 S
C570 C567 1.363 . S
C570 N568 1.356 . S
C571 C565 1.363 . S
C571 C566 1.379 1_455 S
C571 N569 1.356 . S
N572 C564 1.356 . S
N572 H578 0.984 . S
N572 H579 0.984 . S
N573 C566 1.356 . S
N573 H576 0.984 . S
N573 H577 0.985 . S
H574 N569 0.984 . S
H575 N569 0.985 . S
H576 N573 0.984 . S
H577 N573 0.985 . S
H578 N572 0.984 . S
H579 N572 0.984 . S
H580 N568 0.984 . S
H581 N568 0.985 . S
C582 C583 1.363 . S
C582 C588 1.379 1_565 S
C582 N590 1.356 . S
C583 C582 1.363 . S
C583 C589 1.363 . S
C584 C585 1.363 . S
C584 C589 1.379 1_545 S
C584 N591 1.356 . S
C585 C584 1.363 . S
C585 C588 1.363 . S
N586 C588 1.356 . S
N586 H598 0.984 . S
N586 H599 0.985 . S
N587 C589 1.356 . S
N587 H592 0.984 . S
N587 H593 0.985 . S
C588 C582 1.379 1_545 S
C588 C585 1.363 . S
C588 N586 1.356 . S
C589 C583 1.363 . S
C589 C584 1.379 1_565 S
C589 N587 1.356 . S
N590 C582 1.356 . S
N590 H596 0.984 . S
N590 H597 0.984 . S
N591 C584 1.356 . S
N591 H594 0.984 . S
N591 H595 0.985 . S
H592 N587 0.984 . S
H593 N587 0.985 . S
H594 N591 0.984 . S
H595 N591 0.985 . S
H596 N590 0.984 . S
H597 N590 0.984 . S
H598 N586 0.984 . S
H599 N586 0.985 . S
C169 C141 1.590 . S
C171 C12 1.589 . S
C187 C15 1.590 . S
C189 C154 1.589 . S
C205 C29 1.590 . S
C207 C96 1.589 . S
C223 C43 1.590 . S
C225 C99 1.590 . S
C241 C112 1.589 . S
C243 C57 1.590 . S
C259 C83 1.590 . S
C261 C126 1.589 . S
C277 C113 1.627 . S
C279 C13 1.627 . S
C295 C14 1.625 . S
C297 C127 1.627 . S
C313 C28 1.625 . S
C315 C140 1.625 . S
C331 C42 1.625 . S
C333 C155 1.627 . S
C349 C97 1.627 . S
C351 C56 1.625 . S
C367 C98 1.625 . S
C369 C82 1.625 . S
C385 C55 1.458 . S
C387 C0 1.456 . S
C403 C27 1.459 . S
C405 C69 1.459 . S
C421 C71 1.459 . S
C423 C41 1.459 . S
C439 C138 1.456 . S
C441 C84 1.456 . S
C457 C153 1.459 . S
C459 C111 1.459 . S
C475 C124 1.457 . S
C477 C166 1.457 . S
C493 C54 1.758 . S
C495 C1 1.760 . S
C511 C26 1.758 . S
C513 C68 1.758 . S
C529 C70 1.758 . S
C531 C40 1.758 . S
C547 C85 1.760 . S
C549 C139 1.760 . S
C565 C152 1.758 . S
C567 C110 1.758 . S
C583 C125 1.760 . S
C585 C167 1.760 . S
