# Generated by pormake.
# Topology uki, (4)-cn, num edge types: 1
# Building blocks:
#     Node 0, Type 0, BuildingBlock: ESEHIV_clean_sbu_0, # of connection points: 4
#     Node 1, Type 0, BuildingBlock: ESEHIV_clean_sbu_0, # of connection points: 4
#     Node 2, Type 0, BuildingBlock: ESEHIV_clean_sbu_0, # of connection points: 4
#     Node 3, Type 0, BuildingBlock: ESEHIV_clean_sbu_0, # of connection points: 4
#     Node 4, Type 0, BuildingBlock: ESEHIV_clean_sbu_0, # of connection points: 4
#     Node 5, Type 0, BuildingBlock: ESEHIV_clean_sbu_0, # of connection points: 4
#     Node 6, Type 0, BuildingBlock: ESEHIV_clean_sbu_0, # of connection points: 4
#     Node 7, Type 0, BuildingBlock: ESEHIV_clean_sbu_0, # of connection points: 4
#     Node 8, Type 0, BuildingBlock: ESEHIV_clean_sbu_0, # of connection points: 4
#     Node 9, Type 0, BuildingBlock: ESEHIV_clean_sbu_0, # of connection points: 4
#     Node 10, Type 0, BuildingBlock: ESEHIV_clean_sbu_0, # of connection points: 4
#     Node 11, Type 0, BuildingBlock: ESEHIV_clean_sbu_0, # of connection points: 4
#     Node 12, Type 0, BuildingBlock: ESEHIV_clean_sbu_0, # of connection points: 4
#     Node 13, Type 0, BuildingBlock: ESEHIV_clean_sbu_0, # of connection points: 4
#     Node 14, Type 0, BuildingBlock: ESEHIV_clean_sbu_0, # of connection points: 4
#     Node 15, Type 0, BuildingBlock: ESEHIV_clean_sbu_0, # of connection points: 4
#     Edge 16, Type (0, 0), BuildingBlock: KIFKEQ_clean_linker_1, # of connection points: 2
#     Edge 17, Type (0, 0), BuildingBlock: KIFKEQ_clean_linker_1, # of connection points: 2
#     Edge 18, Type (0, 0), BuildingBlock: KIFKEQ_clean_linker_1, # of connection points: 2
#     Edge 19, Type (0, 0), BuildingBlock: KIFKEQ_clean_linker_1, # of connection points: 2
#     Edge 20, Type (0, 0), BuildingBlock: KIFKEQ_clean_linker_1, # of connection points: 2
#     Edge 21, Type (0, 0), BuildingBlock: KIFKEQ_clean_linker_1, # of connection points: 2
#     Edge 22, Type (0, 0), BuildingBlock: KIFKEQ_clean_linker_1, # of connection points: 2
#     Edge 23, Type (0, 0), BuildingBlock: KIFKEQ_clean_linker_1, # of connection points: 2
#     Edge 24, Type (0, 0), BuildingBlock: KIFKEQ_clean_linker_1, # of connection points: 2
#     Edge 25, Type (0, 0), BuildingBlock: KIFKEQ_clean_linker_1, # of connection points: 2
#     Edge 26, Type (0, 0), BuildingBlock: KIFKEQ_clean_linker_1, # of connection points: 2
#     Edge 27, Type (0, 0), BuildingBlock: KIFKEQ_clean_linker_1, # of connection points: 2
#     Edge 28, Type (0, 0), BuildingBlock: KIFKEQ_clean_linker_1, # of connection points: 2
#     Edge 29, Type (0, 0), BuildingBlock: KIFKEQ_clean_linker_1, # of connection points: 2
#     Edge 30, Type (0, 0), BuildingBlock: KIFKEQ_clean_linker_1, # of connection points: 2
#     Edge 31, Type (0, 0), BuildingBlock: KIFKEQ_clean_linker_1, # of connection points: 2
#     Edge 32, Type (0, 0), BuildingBlock: KIFKEQ_clean_linker_1, # of connection points: 2
#     Edge 33, Type (0, 0), BuildingBlock: KIFKEQ_clean_linker_1, # of connection points: 2
#     Edge 34, Type (0, 0), BuildingBlock: KIFKEQ_clean_linker_1, # of connection points: 2
#     Edge 35, Type (0, 0), BuildingBlock: KIFKEQ_clean_linker_1, # of connection points: 2
#     Edge 36, Type (0, 0), BuildingBlock: KIFKEQ_clean_linker_1, # of connection points: 2
#     Edge 37, Type (0, 0), BuildingBlock: KIFKEQ_clean_linker_1, # of connection points: 2
#     Edge 38, Type (0, 0), BuildingBlock: KIFKEQ_clean_linker_1, # of connection points: 2
#     Edge 39, Type (0, 0), BuildingBlock: KIFKEQ_clean_linker_1, # of connection points: 2
#     Edge 40, Type (0, 0), BuildingBlock: KIFKEQ_clean_linker_1, # of connection points: 2
#     Edge 41, Type (0, 0), BuildingBlock: KIFKEQ_clean_linker_1, # of connection points: 2
#     Edge 42, Type (0, 0), BuildingBlock: KIFKEQ_clean_linker_1, # of connection points: 2
#     Edge 43, Type (0, 0), BuildingBlock: KIFKEQ_clean_linker_1, # of connection points: 2
#     Edge 44, Type (0, 0), BuildingBlock: KIFKEQ_clean_linker_1, # of connection points: 2
#     Edge 45, Type (0, 0), BuildingBlock: KIFKEQ_clean_linker_1, # of connection points: 2
#     Edge 46, Type (0, 0), BuildingBlock: KIFKEQ_clean_linker_1, # of connection points: 2
#     Edge 47, Type (0, 0), BuildingBlock: KIFKEQ_clean_linker_1, # of connection points: 2
# Relax obj value: 0.104
# Max RMSD: 0.190
# Mean RMSD: 0.171
data_MOF--net-uki--node1-ESEHIV_clean_sbu_0--edge1-KIFKEQ_clean_linker_1
_symmetry_space_group_name_H-M    P1
_symmetry_Int_Tables_number       1
_symmetry_cell_setting            triclinic
loop_
_symmetry_equiv_pos_as_xyz
'x, y, z'
_cell_length_a     36.417756
_cell_length_b     28.761199
_cell_length_c     85.449834
_cell_angle_alpha  89.813253
_cell_angle_beta   90.120286
_cell_angle_gamma 90.296302
loop_
_atom_site_label
_atom_site_type_symbol
_atom_site_fract_x
_atom_site_fract_y
_atom_site_fract_z
_atom_type_partial_charge
Cu0 Cu 0.1159 0.28593 0.31965 0.0
N1 N 0.07128 0.3141 0.31455 0.0
N2 N 0.027 0.34879 0.30073 0.0
C3 C 0.06331 0.33993 0.30178 0.0
C4 C 1.01169 0.32805 0.31332 0.0
C5 C 0.03905 0.30677 0.32183 0.0
O6 O 0.15217 0.30858 0.3047 0.0
C7 C 0.08491 0.19898 0.31051 0.0
O8 O 0.06992 0.22347 0.2992 0.0
H9 H 0.08332 0.34973 0.293 0.0
H10 H 0.03558 0.28571 0.33224 0.0
N11 N 0.13047 0.30463 0.33978 0.0
N12 N 0.16293 0.31474 0.36187 0.0
C13 C 0.16111 0.29305 0.34782 0.0
C14 C 0.11231 0.33432 0.34906 0.0
C15 C 0.13215 0.34061 0.36263 0.0
C16 C 0.15607 0.29459 0.29068 0.0
O17 O 0.13712 0.2585 0.28578 0.0
H18 H 0.18202 0.27015 0.3433 0.0
H19 H 0.08653 0.35067 0.3461 0.0
O20 O 0.10745 0.21871 0.31985 0.0
H21 H 0.98264 0.32737 0.31598 0.0
H22 H 0.12436 0.36253 0.37233 0.0
Cu23 Cu 0.23064 0.93912 0.72994 0.0
N24 N 0.18061 0.94159 0.73487 0.0
N25 N 0.12274 0.96621 0.73687 0.0
C26 C 0.15581 0.97323 0.73008 0.0
C27 C 0.12697 0.92866 0.7462 0.0
C28 C 0.16263 0.91363 0.74496 0.0
O29 O 0.23767 0.91699 0.70845 0.0
C30 C 0.24404 1.01596 0.74834 0.0
O31 O 0.2203 0.99257 0.75689 0.0
H32 H 0.16226 1.0016 0.72218 0.0
H33 H 0.17475 0.88481 0.75121 0.0
N34 N 0.25299 0.8953 0.74282 0.0
N35 N 0.293 0.86283 0.75933 0.0
C36 C 0.28188 0.90253 0.75235 0.0
C37 C 0.24558 0.84952 0.7437 0.0
C38 C 0.27016 0.82937 0.75392 0.0
C39 C 0.214 0.88926 0.7025 0.0
O40 O 0.18394 0.87976 0.71035 0.0
H41 H 0.2953 0.93594 0.75365 0.0
H42 H 0.22418 0.83198 0.73716 0.0
O43 O 0.25308 0.99941 0.73505 0.0
H44 H 0.10582 0.91309 0.75342 0.0
H45 H 0.27124 0.79289 0.75701 0.0
Cu46 Cu 0.94826 0.79241 0.32819 0.0
N47 N 0.99481 0.76574 0.32614 0.0
N48 N 0.0479 0.74476 0.31511 0.0
C49 C 1.01339 0.76036 0.31264 0.0
C50 C 0.05099 0.74006 0.33079 0.0
C51 C 0.01834 0.75314 0.33754 0.0
O52 O 0.91685 0.76273 0.31247 0.0
C53 C 0.97987 0.87846 0.33363 0.0
O54 O 0.99476 0.8539 0.34495 0.0
H55 H 1.0023 0.76974 0.30131 0.0
H56 H 1.01273 0.75505 0.34993 0.0
N57 N 0.9292 0.77979 0.34818 0.0
N58 N 0.89261 0.77949 0.36925 0.0
C59 C 0.90278 0.80262 0.35611 0.0
C60 C 0.93583 0.74113 0.35658 0.0
C61 C 0.91364 0.74098 0.36957 0.0
C62 C 0.8828 0.7543 0.31457 0.0
O63 O 0.86651 0.77069 0.32706 0.0
H64 H 0.89016 0.83431 0.35193 0.0
H65 H 0.95405 0.71355 0.35305 0.0
O66 O 0.95573 0.8591 0.32496 0.0
H67 H 0.07527 0.72862 0.33699 0.0
H68 H 0.91148 0.71305 0.37804 0.0
Cu69 Cu 0.77753 0.11981 0.70906 0.0
N70 N 0.82289 0.13432 0.71782 0.0
N71 N 0.88213 0.12817 0.72425 0.0
C72 C 0.85392 0.10982 0.71601 0.0
C73 C 0.86817 0.16575 0.73152 0.0
C74 C 0.83158 0.16951 0.72749 0.0
O75 O 0.78249 0.12999 0.68655 0.0
C76 C 0.73334 1.0403 0.71743 0.0
O77 O 0.70562 0.06361 0.71153 0.0
H78 H 0.85541 0.07837 0.70912 0.0
H79 H 0.81257 0.19571 0.73146 0.0
N80 N 0.74283 0.16119 0.71677 0.0
N81 N 0.69974 0.19316 0.73172 0.0
C82 C 0.72399 0.15811 0.73028 0.0
C83 C 0.73054 0.1998 0.70958 0.0
C84 C 0.70376 0.21945 0.71873 0.0
C85 C 0.75585 0.13482 0.67701 0.0
O86 O 0.72233 0.12531 0.68174 0.0
H87 H 0.72725 0.13007 0.73864 0.0
H88 H 0.74014 0.21251 0.69838 0.0
O89 O 0.76569 0.05692 0.7162 0.0
H90 H 0.88326 0.18888 0.73919 0.0
H91 H 0.68848 0.25071 0.71608 0.0
Cu92 Cu 0.09716 0.29366 0.98351 0.0
N93 N 0.05824 0.252 0.98713 0.0
N94 N 0.01714 0.20773 0.99985 0.0
C95 C 0.04423 0.23981 1.00118 0.0
C96 C 1.01418 0.19931 0.98437 0.0
C97 C 0.03966 0.22637 0.97658 0.0
O98 O 0.13964 0.26584 0.99358 0.0
C99 C 0.05142 0.36974 0.99147 0.0
O100 O 0.02514 0.34031 0.98777 0.0
H101 H 0.05347 0.25461 1.01214 0.0
H102 H 0.0446 0.22671 0.96412 0.0
N103 N 0.10801 0.2982 0.96213 0.0
N104 N 0.14018 0.30296 0.93987 0.0
C105 C 0.14175 0.29899 0.95563 0.0
C106 C 0.08435 0.30246 0.9501 0.0
C107 C 0.10408 0.30496 0.93635 0.0
C108 C 0.14541 0.26583 1.00825 0.0
O109 O 0.12397 0.29029 1.01739 0.0
H110 H 0.16693 0.29616 0.96231 0.0
H111 H 0.05481 0.3039 0.95126 0.0
O112 O 0.08476 0.35623 0.99096 0.0
H113 H 0.99542 0.17467 0.97904 0.0
H114 H 0.09279 0.30868 0.92468 0.0
Cu115 Cu 0.29412 0.97285 0.09033 0.0
N116 N 0.32961 1.00228 0.10288 0.0
N117 N 0.38594 1.02103 0.11136 0.0
C118 C 0.36593 0.99941 0.10021 0.0
C119 C 0.36107 1.03825 0.1215 0.0
C120 C 0.32626 1.02671 0.1162 0.0
O121 O 0.30128 0.90533 0.09204 0.0
C122 C 0.30214 1.04412 0.06839 0.0
O123 O 0.31439 0.06577 0.08086 0.0
H124 H 0.37738 0.98048 0.09046 0.0
H125 H 0.30045 1.03478 0.12179 0.0
N126 N 0.24553 0.98223 0.09637 0.0
N127 N 0.1857 0.97608 0.09044 0.0
C128 C 0.21935 0.9891 0.08547 0.0
C129 C 0.22778 0.96492 0.10891 0.0
C130 C 0.1908 0.9612 0.1053 0.0
C131 C 0.31269 0.88999 0.10522 0.0
O132 O 0.32073 0.9196 0.11636 0.0
H133 H 0.22564 0.99698 0.07339 0.0
H134 H 0.24117 0.95074 0.11917 0.0
O135 O 0.29565 1.00048 0.0693 0.0
H136 H 0.36751 0.05784 0.13195 0.0
H137 H 0.17001 0.9449 0.11253 0.0
Cu138 Cu 0.93622 0.78698 0.98744 0.0
N139 N 0.97615 0.82612 0.99179 0.0
N140 N 0.01753 0.8675 1.0054 0.0
C141 C 0.98974 0.83616 1.00608 0.0
C142 C 0.02132 0.8775 0.99001 0.0
C143 C 0.99575 0.85206 0.98168 0.0
O144 O 0.89407 0.81716 0.99691 0.0
C145 C 0.97935 0.70853 0.99524 0.0
O146 O 1.00636 0.73731 0.99194 0.0
H147 H 0.97948 0.82041 1.01673 0.0
H148 H 0.99138 0.85292 0.96916 0.0
N149 N 0.92749 0.78338 0.96587 0.0
N150 N 0.89731 0.77991 0.94302 0.0
C151 C 0.89576 0.7923 0.95827 0.0
C152 C 0.94988 0.76492 0.95507 0.0
C153 C 0.93137 0.76272 0.94098 0.0
C154 C 0.88675 0.8168 1.01145 0.0
O155 O 0.90571 0.78989 1.02089 0.0
H156 H 0.87145 0.80547 0.96399 0.0
H157 H 0.97732 0.75243 0.95743 0.0
O158 O 0.94635 0.72337 0.99472 0.0
H159 H 0.04063 0.90217 0.98507 0.0
H160 H 0.94199 0.74894 0.93013 0.0
Cu161 Cu 0.75358 0.09053 0.09545 0.0
N162 N 0.71864 0.05435 0.10602 0.0
N163 N 0.66178 1.03333 0.11316 0.0
C164 C 0.68311 0.0667 0.10669 0.0
C165 C 0.68518 0.99886 0.11711 0.0
C166 C 0.72031 1.01191 0.11265 0.0
O167 O 0.75101 0.1526 0.1045 0.0
C168 C 0.72986 0.04947 0.06733 0.0
O169 O 0.70299 1.03086 0.07545 0.0
H170 H 0.67304 0.09907 0.10188 0.0
H171 H 0.74489 0.99118 0.1136 0.0
N172 N 0.80218 0.07139 0.09702 0.0
N173 N 0.85653 0.07733 0.08487 0.0
C174 C 0.828 0.10027 0.09122 0.0
C175 C 0.81531 1.02829 0.09467 0.0
C176 C 0.84906 1.0319 0.08734 0.0
C177 C 0.7587 0.15336 0.11908 0.0
O178 O 0.76769 0.11406 0.12595 0.0
H179 H 0.82305 0.137 0.08946 0.0
H180 H 0.79921 0.99678 0.09581 0.0
O181 O 0.74654 0.0849 0.07287 0.0
H182 H 0.67728 0.96565 0.12209 0.0
H183 H 0.8642 1.0034 0.08225 0.0
Cu184 Cu 0.62422 0.77836 0.82742 0.0
N185 N 0.5775 0.80293 0.83021 0.0
N186 N 0.52031 0.82414 0.82415 0.0
C187 C 0.55411 0.81437 0.81866 0.0
C188 C 0.52279 0.81941 0.83984 0.0
C189 C 0.55811 0.80607 0.84354 0.0
O190 O 0.64134 0.8041 0.80753 0.0
C191 C 0.59412 0.69465 0.81713 0.0
O192 O 0.5832 0.72208 0.80574 0.0
H193 H 0.56149 0.81368 0.8064 0.0
H194 H 0.56843 0.79703 0.85503 0.0
N195 N 0.65356 0.79918 0.8441 0.0
N196 N 0.69312 0.80563 0.86409 0.0
C197 C 0.68131 0.77873 0.85207 0.0
C198 C 0.64825 0.84025 0.85121 0.0
C199 C 0.67234 0.84424 0.86352 0.0
C200 C 0.67445 0.80786 0.80293 0.0
O201 O 0.70091 0.7901 0.8115 0.0
H202 H 0.69192 0.74458 0.8494 0.0
H203 H 0.62775 0.86539 0.84777 0.0
O204 O 0.61618 0.71104 0.82737 0.0
H205 H 0.50022 0.82258 0.84798 0.0
H206 H 0.67454 0.87341 0.87145 0.0
Cu207 Cu 0.77217 0.50718 0.209 0.0
N208 N 0.73978 0.54831 0.19916 0.0
N209 N 0.68414 0.57592 0.19306 0.0
C210 C 0.70359 0.53915 0.19827 0.0
C211 C 0.70943 0.60952 0.1903 0.0
C212 C 0.74381 0.59233 0.19403 0.0
O213 O 0.76343 0.4463 0.19965 0.0
C214 C 0.75075 0.54578 0.23816 0.0
O215 O 0.72608 0.56888 0.23012 0.0
H216 H 0.69161 0.50716 0.20264 0.0
H217 H 0.76946 0.61137 0.19379 0.0
N218 N 0.82211 0.51962 0.20677 0.0
N219 N 0.87728 0.50666 0.21754 0.0
C220 C 0.84555 0.4877 0.21241 0.0
C221 C 0.83998 0.56056 0.20803 0.0
C222 C 0.87423 0.55255 0.21455 0.0
C223 C 0.76947 0.44536 0.18495 0.0
O224 O 0.78057 0.48384 0.17806 0.0
H225 H 0.83704 0.45245 0.21513 0.0
H226 H 0.82724 0.59419 0.20668 0.0
O227 O 0.76719 0.51181 0.23171 0.0
H228 H 0.70349 0.64454 0.18642 0.0
H229 H 0.893 0.57896 0.21882 0.0
Cu230 Cu 0.42281 0.30886 0.83081 0.0
N231 N 0.46851 0.28031 0.82909 0.0
N232 N 0.51934 0.25484 0.81746 0.0
C233 C 0.48537 0.27224 0.8154 0.0
C234 C 0.52416 0.25183 0.83308 0.0
C235 C 0.49284 0.26813 0.84025 0.0
O236 O 0.39195 0.28186 0.81434 0.0
C237 C 0.45278 0.39564 0.83822 0.0
O238 O 0.46069 0.37343 0.85125 0.0
H239 H 0.47316 0.27988 0.80412 0.0
H240 H 0.4888 0.2725 0.85268 0.0
N241 N 0.401 0.29531 0.85029 0.0
N242 N 0.35914 0.28895 0.86937 0.0
C243 C 0.37009 0.3132 0.85658 0.0
C244 C 0.40966 0.25887 0.8595 0.0
C245 C 0.38404 0.2549 0.87121 0.0
C246 C 0.38717 0.23797 0.81528 0.0
O247 O 0.40277 0.21541 0.82689 0.0
H248 H 0.35467 0.34133 0.85134 0.0
H249 H 0.43167 0.23476 0.85729 0.0
O250 O 0.43328 0.37499 0.82793 0.0
H251 H 0.54912 0.24072 0.83886 0.0
H252 H 0.38297 0.22795 0.88008 0.0
Cu253 Cu 0.30623 0.60472 0.20902 0.0
N254 N 0.35453 0.5967 0.21582 0.0
N255 N 0.41566 0.59015 0.2162 0.0
C256 C 0.3858 0.6006 0.20747 0.0
C257 C 0.4026 0.5796 0.23056 0.0
C258 C 0.36495 0.58385 0.23029 0.0
O259 O 0.30622 0.6207 0.18687 0.0
C260 C 0.28972 0.50904 0.21613 0.0
O261 O 0.32378 0.50024 0.21211 0.0
H262 H 0.38654 0.60966 0.19517 0.0
H263 H 0.34632 0.57737 0.23991 0.0
N264 N 0.28541 0.65334 0.22026 0.0
N265 N 0.24755 0.69106 0.23635 0.0
C266 C 0.25617 0.64985 0.22981 0.0
C267 C 0.2958 0.69823 0.22072 0.0
C268 C 0.27252 0.72162 0.23067 0.0
C269 C 0.27851 0.63905 0.18022 0.0
O270 O 0.24789 0.64339 0.18818 0.0
H271 H 0.24189 0.61745 0.23208 0.0
H272 H 0.31864 0.71285 0.21426 0.0
O273 O 0.27717 0.54995 0.21434 0.0
H274 H 0.41909 0.56959 0.24056 0.0
H275 H 0.27368 0.75835 0.23334 0.0
Cu276 Cu 0.59262 0.79944 0.46826 0.0
N277 N 0.54546 0.77353 0.4682 0.0
N278 N 0.49027 0.75235 0.47711 0.0
C279 C 0.52244 0.77342 0.4805 0.0
C280 C 0.49296 0.73855 0.46211 0.0
C281 C 0.52699 0.75211 0.45657 0.0
O282 O 0.6176 0.77197 0.48628 0.0
C283 C 0.57384 0.88698 0.48129 0.0
O284 O 0.57175 0.86322 0.49441 0.0
H285 H 0.52922 0.78815 0.49178 0.0
H286 H 0.53723 0.74718 0.44484 0.0
N287 N 0.61813 0.78095 0.45026 0.0
N288 N 0.66285 0.77296 0.43252 0.0
C289 C 0.64692 0.80164 0.44302 0.0
C290 C 0.61583 0.73814 0.44403 0.0
C291 C 0.64306 0.73322 0.43308 0.0
C292 C 0.65227 0.76651 0.48697 0.0
O293 O 0.67313 0.78629 0.47632 0.0
H294 H 0.65778 0.83535 0.4463 0.0
H295 H 0.59722 0.71115 0.44796 0.0
O296 O 0.58554 0.86677 0.46902 0.0
H297 H 0.47156 0.72103 0.45555 0.0
H298 H 0.64893 0.70194 0.42655 0.0
Cu299 Cu 0.75279 0.46898 0.5875 0.0
N300 N 0.79194 0.49629 0.59839 0.0
N301 N 0.84809 0.52659 0.60207 0.0
C302 C 0.82511 0.50469 0.59205 0.0
C303 C 0.82835 0.53189 0.61534 0.0
C304 C 0.79371 0.51319 0.61301 0.0
O305 O 0.75532 0.40127 0.58946 0.0
C306 C 0.75361 0.5402 0.56602 0.0
O307 O 0.7596 0.56264 0.57915 0.0
H308 H 0.83195 0.49473 0.58022 0.0
H309 H 0.77126 0.51269 0.62128 0.0
N310 N 0.70686 0.48277 0.59574 0.0
N311 N 0.64606 0.47548 0.59264 0.0
C312 C 0.67801 0.48917 0.58612 0.0
C313 C 0.69258 0.46556 0.60908 0.0
C314 C 0.65503 0.46094 0.60718 0.0
C315 C 0.78347 0.37879 0.59403 0.0
O316 O 0.81555 0.3998 0.59438 0.0
H317 H 0.6811 0.49563 0.5737 0.0
H318 H 0.70866 0.45075 0.6185 0.0
O319 O 0.75134 0.49586 0.56641 0.0
H320 H 0.83779 0.54904 0.62586 0.0
H321 H 0.6366 0.44292 0.61509 0.0
Cu322 Cu 0.41332 0.28255 0.48448 0.0
N323 N 0.45599 0.31472 0.49029 0.0
N324 N 0.49703 0.3497 0.50583 0.0
C325 C 0.46168 0.33642 0.50406 0.0
C326 C 0.51422 0.3361 0.49267 0.0
C327 C 0.48885 0.31464 0.48309 0.0
O328 O 0.37649 0.30147 0.49986 0.0
C329 C 0.44667 0.20052 0.47433 0.0
O330 O 0.45498 0.22801 0.46255 0.0
H331 H 0.44089 0.33978 0.51302 0.0
H332 H 0.4944 0.29843 0.47196 0.0
N333 N 0.3987 0.29997 0.46412 0.0
N334 N 0.36572 0.3107 0.4422 0.0
C335 C 0.36752 0.28904 0.45629 0.0
C336 C 0.41719 0.32914 0.45461 0.0
C337 C 0.39707 0.33577 0.44115 0.0
C338 C 0.36036 0.34035 0.49787 0.0
O339 O 0.36614 0.36364 0.48486 0.0
H340 H 0.34609 0.267 0.46106 0.0
H341 H 0.44326 0.34526 0.45739 0.0
O342 O 0.42611 0.21626 0.48516 0.0
H343 H 0.54328 0.34019 0.49035 0.0
H344 H 0.40493 0.35759 0.43137 0.0
Cu345 Cu 0.21463 0.64419 0.58119 0.0
N346 N 0.16455 0.65095 0.57703 0.0
N347 N 0.10341 0.64199 0.57778 0.0
C348 C 0.13628 0.6258 0.58281 0.0
C349 C 0.11168 0.67876 0.56852 0.0
C350 C 0.14921 0.68411 0.56808 0.0
O351 O 0.22212 0.66054 0.60319 0.0
C352 C 0.26206 0.5665 0.57579 0.0
O353 O 0.28741 0.59214 0.58258 0.0
H354 H 0.13993 0.59629 0.59053 0.0
H355 H 0.16427 0.71082 0.56184 0.0
N356 N 0.24027 0.68722 0.5689 0.0
N357 N 0.28092 0.71832 0.55237 0.0
C358 C 0.2647 0.67878 0.55744 0.0
C359 C 0.2407 0.73361 0.57092 0.0
C360 C 0.26598 0.75288 0.56082 0.0
C361 C 0.25027 0.68291 0.60802 0.0
O362 O 0.27842 0.68844 0.5986 0.0
H363 H 0.27171 0.64432 0.55341 0.0
H364 H 0.22472 0.75186 0.57959 0.0
O365 O 0.22928 0.58161 0.57506 0.0
H366 H 0.0921 0.70109 0.5627 0.0
H367 H 0.27335 0.78931 0.55993 0.0
H368 H 0.18334 0.38228 0.29487 0.0
H369 H 0.17803 0.27115 0.26101 0.0
H370 H 0.21458 0.43155 0.27579 0.0
H371 H 0.20982 0.32073 0.24191 0.0
H372 H 0.30481 0.41651 0.22073 0.0
H373 H 0.27308 0.36216 0.2383 0.0
H374 H 0.19493 0.46884 0.24989 0.0
H375 H 0.22613 0.52291 0.23233 0.0
C376 C 0.18918 0.36812 0.28342 0.0
C377 C 0.17809 0.32272 0.27948 0.0
C378 C 0.20683 0.39654 0.27244 0.0
C379 C 0.21431 0.38014 0.25732 0.0
C380 C 0.20441 0.33425 0.2535 0.0
C381 C 0.18619 0.30594 0.26442 0.0
C382 C 0.28055 0.42815 0.22685 0.0
C383 C 0.26813 0.47416 0.22515 0.0
C384 C 0.26239 0.397 0.23689 0.0
C385 C 0.23181 0.41146 0.2456 0.0
C386 C 0.21873 0.45693 0.2435 0.0
C387 C 0.2365 0.4878 0.23333 0.0
H388 H 0.45911 0.87065 0.83289 0.0
H389 H 0.50663 0.79339 0.79475 0.0
H390 H 0.40248 0.87971 0.81778 0.0
H391 H 0.45091 0.80383 0.77954 0.0
H392 H 0.33342 0.78487 0.76351 0.0
H393 H 0.38765 0.77602 0.7799 0.0
H394 H 0.379 0.91943 0.79423 0.0
H395 H 0.32384 0.92784 0.77825 0.0
C396 C 0.45754 0.85578 0.82129 0.0
C397 C 0.48747 0.83143 0.81504 0.0
C398 C 0.42524 0.86128 0.81259 0.0
C399 C 0.42216 0.84229 0.79749 0.0
C400 C 0.45221 0.81834 0.79121 0.0
C401 C 0.48442 0.81295 0.79987 0.0
C402 C 0.34269 0.81434 0.77032 0.0
C403 C 0.3243 0.85711 0.7695 0.0
C404 C 0.37407 0.80943 0.77957 0.0
C405 C 0.38781 0.84715 0.78826 0.0
C406 C 0.369 0.88965 0.78774 0.0
C407 C 0.33762 0.8946 0.77844 0.0
H408 H 0.81761 0.5289 0.25191 0.0
H409 H 0.7214 0.61525 0.25572 0.0
H410 H 0.84905 0.57708 0.27126 0.0
H411 H 0.75298 0.66393 0.27473 0.0
H412 H 0.81136 0.72554 0.31691 0.0
H413 H 0.77869 0.66996 0.30051 0.0
H414 H 0.87519 0.655 0.27169 0.0
H415 H 0.90825 0.70994 0.28835 0.0
C416 C 0.80284 0.55746 0.25713 0.0
C417 C 0.76694 0.56817 0.25223 0.0
C418 C 0.82107 0.58557 0.26806 0.0
C419 C 0.8038 0.6249 0.27441 0.0
C420 C 0.76715 0.63387 0.27018 0.0
C421 C 0.74899 0.6059 0.25924 0.0
C422 C 0.82565 0.71058 0.30705 0.0
C423 C 0.86245 0.72246 0.30393 0.0
C424 C 0.80684 0.67866 0.29762 0.0
C425 C 0.82427 0.65775 0.28478 0.0
C426 C 0.86106 0.66977 0.28162 0.0
C427 C 0.87991 0.70171 0.29108 0.0
H428 H 0.53022 0.30401 0.79099 0.0
H429 H 0.56861 0.18493 0.81692 0.0
H430 H 0.57475 0.28869 0.77052 0.0
H431 H 0.6124 0.16784 0.79609 0.0
H432 H 0.71032 0.17658 0.76255 0.0
H433 H 0.66714 0.19151 0.78378 0.0
H434 H 0.58689 0.23849 0.74992 0.0
H435 H 0.63075 0.22545 0.72898 0.0
C436 C 0.54795 0.2741 0.79217 0.0
C437 C 0.54587 0.24545 0.80545 0.0
C438 C 0.57342 0.2651 0.7804 0.0
C439 C 0.59707 0.22666 0.78149 0.0
C440 C 0.59505 0.1981 0.7949 0.0
C441 C 0.5699 0.20766 0.80681 0.0
C442 C 0.68337 0.18998 0.75974 0.0
C443 C 0.67392 0.20028 0.74418 0.0
C444 C 0.65852 0.19838 0.77187 0.0
C445 C 0.62347 0.21658 0.76864 0.0
C446 C 0.61389 0.2257 0.75296 0.0
C447 C 0.63893 0.21805 0.74091 0.0
H448 H 0.31914 0.13405 0.06193 0.0
H449 H 0.2508 1.02048 0.04591 0.0
H450 H 0.28454 0.18793 0.04567 0.0
H451 H 0.21619 0.0749 0.02944 0.0
H452 H 0.17818 0.1909 0.99446 0.0
H453 H 0.22056 0.1353 1.00647 0.0
H454 H 0.21786 0.2135 0.04947 0.0
H455 H 0.17519 0.26862 0.03761 0.0
C456 C 0.29727 0.12033 0.05465 0.0
C457 C 0.28747 0.07298 0.05539 0.0
C458 C 0.27732 0.15135 0.04541 0.0
C459 C 0.24725 0.1358 0.03653 0.0
C460 C 0.23926 0.08785 0.03619 0.0
C461 C 0.25918 0.05666 0.04558 0.0
C462 C 0.18693 0.19649 1.00643 0.0
C463 C 0.17338 0.23432 1.01509 0.0
C464 C 0.21099 0.16446 1.01331 0.0
C465 C 0.22259 0.17013 0.02887 0.0
C466 C 0.20969 0.2085 0.03739 0.0
C467 C 0.18516 0.24001 0.03062 0.0
H468 H 0.16644 1.02516 0.06472 0.0
H469 H 0.13549 0.90583 0.09256 0.0
H470 H 0.12238 1.00206 0.04462 0.0
H471 H 0.09139 0.88265 0.07247 0.0
H472 H 0.99835 0.8703 0.03624 0.0
H473 H 0.03469 0.90093 0.05793 0.0
H474 H 0.12106 0.93868 1.0257 0.0
H475 H 0.08517 0.90778 1.00411 0.0
C476 C 0.14985 0.99433 0.06664 0.0
C477 C 0.15481 0.96717 0.0802 0.0
C478 C 0.12473 0.98093 0.05509 0.0
C479 C 0.10377 0.94003 0.05679 0.0
C480 C 0.10696 0.91445 0.0708 0.0
C481 C 0.1322 0.92785 0.08237 0.0
C482 C 0.02516 0.88482 0.03375 0.0
C483 C 0.03867 0.88637 1.01831 0.0
C484 C 0.04597 0.90254 0.04622 0.0
C485 C 0.08073 0.92255 0.04358 0.0
C486 C 0.0941 0.92439 0.02816 0.0
C487 C 0.07343 0.90653 1.01572 0.0
H488 H 0.86479 0.89909 0.99843 0.0
H489 H 0.84969 0.81209 0.03923 0.0
H490 H 0.82499 0.95817 1.00999 0.0
H491 H 0.8091 0.87069 0.05053 0.0
H492 H 0.70811 0.96425 0.05671 0.0
H493 H 0.74442 0.90844 0.04207 0.0
H494 H 0.83073 1.01038 0.03665 0.0
H495 H 0.79487 0.06644 0.05173 0.0
C496 C 0.85256 0.89226 1.00976 0.0
C497 C 0.86027 0.85078 1.0179 0.0
C498 C 0.83001 0.92624 1.01639 0.0
C499 C 0.81398 0.91893 0.03112 0.0
C500 C 0.82097 0.87705 0.0391 0.0
C501 C 0.8442 0.84356 0.03265 0.0
C502 C 0.73453 0.97531 0.0522 0.0
C503 C 0.74856 1.01995 0.05552 0.0
C504 C 0.75538 0.94311 0.04388 0.0
C505 C 0.79047 0.95495 0.03838 0.0
C506 C 0.80368 1.00043 0.04075 0.0
C507 C 0.78304 1.03256 0.04933 0.0
H508 H 0.84166 0.14392 0.06338 0.0
H509 H 0.92705 0.05189 0.07952 0.0
H510 H 0.88215 0.17412 0.04319 0.0
H511 H 0.96804 0.08212 0.05892 0.0
H512 H 0.03801 0.19179 0.02996 0.0
H513 H 1.00041 0.15848 0.051 0.0
H514 H 0.90981 0.14312 1.01875 0.0
H515 H 0.94701 0.17677 0.99789 0.0
C516 C 0.86935 0.13059 0.06278 0.0
C517 C 0.88137 0.09599 0.07325 0.0
C518 C 0.89242 0.14749 0.05103 0.0
C519 C 0.92827 0.13046 0.04941 0.0
C520 C 0.94061 0.09615 0.05995 0.0
C521 C 0.91721 0.07874 0.07167 0.0
C522 C 1.01003 0.18143 1.0274 0.0
C523 C 0.99547 0.18716 1.01225 0.0
C524 C 0.98864 0.16192 0.03941 0.0
C525 C 0.9521 0.14834 0.03656 0.0
C526 C 0.93775 0.15363 1.02137 0.0
C527 C 0.95918 0.1726 1.00937 0.0
H528 H 0.73985 0.81438 0.78709 0.0
H529 H 0.62868 0.86575 0.78671 0.0
H530 H 0.75462 0.86424 0.7648 0.0
H531 H 0.64369 0.91713 0.76504 0.0
H532 H 0.67057 0.98776 0.71977 0.0
H533 H 0.65693 0.9265 0.73869 0.0
H534 H 0.76605 0.94143 0.75815 0.0
H535 H 0.78007 1.0008 0.73874 0.0
C536 C 0.71854 0.83631 0.78225 0.0
C537 C 0.68309 0.836 0.78874 0.0
C538 C 0.72707 0.86528 0.76951 0.0
C539 C 0.7005 0.89526 0.76302 0.0
C540 C 0.66485 0.89416 0.7694 0.0
C541 C 0.65624 0.86478 0.78198 0.0
C542 C 0.69182 0.97739 0.72794 0.0
C543 C 0.72639 0.99933 0.72772 0.0
C544 C 0.6839 0.94248 0.73894 0.0
C545 C 0.71014 0.92902 0.75021 0.0
C546 C 0.74515 0.95005 0.74961 0.0
C547 C 0.75322 0.98444 0.73846 0.0
H548 H 0.04841 0.4253 0.28445 0.0
H549 H 0.96247 0.32234 0.28815 0.0
H550 H 1.01357 0.46564 0.26396 0.0
H551 H 0.92854 0.36051 0.26731 0.0
H552 H 0.85516 0.46179 0.24344 0.0
H553 H 0.89301 0.4256 0.26334 0.0
H554 H 0.99058 0.46686 0.23793 0.0
H555 H 0.95174 0.50577 0.21832 0.0
C556 C 0.02225 0.41109 0.28072 0.0
C557 C 1.00779 0.37122 0.28804 0.0
C558 C 1.00232 0.43398 0.26893 0.0
C559 C 0.96777 0.41696 0.26407 0.0
C560 C 0.95432 0.37582 0.27104 0.0
C561 C 0.97383 0.35364 0.28296 0.0
C562 C 0.8847 0.46308 0.24212 0.0
C563 C 0.90058 0.48594 0.22925 0.0
C564 C 0.90654 0.44198 0.25347 0.0
C565 C 0.94506 0.44216 0.25217 0.0
C566 C 0.96108 0.46602 0.23941 0.0
C567 C 0.93898 0.48808 0.22812 0.0
H568 H 0.30746 0.06189 0.73898 0.0
H569 H 0.22127 0.06426 0.77364 0.0
H570 H 0.34083 0.12241 0.7537 0.0
H571 H 0.25444 0.12362 0.78814 0.0
H572 H 0.35363 0.15534 0.82034 0.0
H573 H 0.31789 0.10864 0.80217 0.0
H574 H 0.33344 0.21222 0.76612 0.0
H575 H 0.36933 0.26019 0.78464 0.0
C576 C 0.29527 0.07593 0.74949 0.0
C577 C 0.26198 0.05768 0.75526 0.0
C578 C 0.31431 0.11059 0.75788 0.0
C579 C 0.30035 0.12724 0.77214 0.0
C580 C 0.26603 0.11105 0.77728 0.0
C581 C 0.24708 0.0769 0.76895 0.0
C582 C 0.34943 0.1685 0.80857 0.0
C583 C 0.36422 0.21161 0.80396 0.0
C584 C 0.32885 0.1417 0.79817 0.0
C585 C 0.32282 0.15683 0.78275 0.0
C586 C 0.33778 0.19976 0.77796 0.0
C587 C 0.35801 0.22727 0.78855 0.0
H588 H 0.12162 0.75046 0.31948 0.0
H589 H 0.03871 0.72302 0.28445 0.0
H590 H 0.16945 0.73783 0.30013 0.0
H591 H 0.08666 0.7118 0.26492 0.0
H592 H 0.18357 0.64305 0.23945 0.0
H593 H 0.13503 0.65645 0.25845 0.0
H594 H 0.19544 0.77397 0.27675 0.0
H595 H 0.24458 0.75963 0.25808 0.0
C596 C 0.11354 0.7416 0.30767 0.0
C597 C 0.07623 0.73758 0.30357 0.0
C598 C 0.14102 0.73492 0.29651 0.0
C599 C 0.13194 0.72391 0.28095 0.0
C600 C 0.09464 0.71986 0.27683 0.0
C601 C 0.06712 0.72673 0.288 0.0
C602 C 0.18669 0.67154 0.24759 0.0
C603 C 0.21818 0.70008 0.24726 0.0
C604 C 0.15861 0.67956 0.25837 0.0
C605 C 0.16133 0.71624 0.26915 0.0
C606 C 0.19263 0.74508 0.26873 0.0
C607 C 0.22067 0.73716 0.2579 0.0
H608 H 0.78035 0.62492 0.55819 0.0
H609 H 0.70422 0.51917 0.54268 0.0
H610 H 0.75693 0.67824 0.53841 0.0
H611 H 0.68051 0.5729 0.52271 0.0
H612 H 0.61651 0.70531 0.50647 0.0
H613 H 0.64366 0.64679 0.5237 0.0
H614 H 0.75207 0.69237 0.50998 0.0
H615 H 0.72506 0.75093 0.49282 0.0
C616 C 0.75911 0.61275 0.55028 0.0
C617 C 0.74423 0.56782 0.55193 0.0
C618 C 0.74568 0.64333 0.53893 0.0
C619 C 0.71663 0.63002 0.52905 0.0
C620 C 0.70266 0.58435 0.53026 0.0
C621 C 0.71655 0.55337 0.54153 0.0
C622 C 0.64614 0.70309 0.5072 0.0
C623 C 0.66858 0.73313 0.49832 0.0
C624 C 0.66169 0.66913 0.51693 0.0
C625 C 0.70004 0.66465 0.51814 0.0
C626 C 0.72244 0.695 0.50938 0.0
C627 C 0.70692 0.72865 0.49955 0.0
H628 H 0.61295 0.39128 0.59296 0.0
H629 H 0.61046 0.52627 0.57092 0.0
H630 H 0.57126 0.36098 0.57289 0.0
H631 H 0.56796 0.49618 0.55097 0.0
H632 H 0.47013 0.41723 0.5245 0.0
H633 H 0.49992 0.45046 0.54788 0.0
H634 H 0.59095 0.35681 0.54191 0.0
H635 H 0.56181 0.32475 0.51846 0.0
C636 C 0.60225 0.41493 0.58421 0.0
C637 C 0.61468 0.46123 0.58352 0.0
C638 C 0.57871 0.39749 0.57265 0.0
C639 C 0.56661 0.42626 0.56039 0.0
C640 C 0.57673 0.47344 0.56037 0.0
C641 C 0.60089 0.49064 0.57176 0.0
C642 C 0.49646 0.40387 0.52827 0.0
C643 C 0.51387 0.36874 0.51967 0.0
C644 C 0.51343 0.42281 0.54157 0.0
C645 C 0.54751 0.40586 0.5467 0.0
C646 C 0.5645 0.37015 0.53826 0.0
C647 C 0.54804 0.35212 0.52479 0.0
H648 H 0.21937 0.5146 0.5559 0.0
H649 H 0.3289 0.52298 0.57523 0.0
H650 H 0.239 0.45229 0.53855 0.0
H651 H 0.34847 0.46066 0.55782 0.0
H652 H 0.36808 0.32831 0.52965 0.0
H653 H 0.34113 0.37627 0.55034 0.0
H654 H 0.28033 0.45303 0.51546 0.0
H655 H 0.3072 0.40558 0.49495 0.0
C656 C 0.24749 0.5027 0.55665 0.0
C657 C 0.27262 0.52419 0.5669 0.0
C658 C 0.25877 0.46707 0.54664 0.0
C659 C 0.29538 0.45169 0.5467 0.0
C660 C 0.32001 0.4714 0.55754 0.0
C661 C 0.30881 0.50735 0.56747 0.0
C662 C 0.34829 0.35471 0.52648 0.0
C663 C 0.33974 0.36315 0.51067 0.0
C664 C 0.33313 0.38246 0.5383 0.0
C665 C 0.30864 0.4186 0.53456 0.0
C666 C 0.29876 0.42527 0.5188 0.0
C667 C 0.3143 0.39814 0.50702 0.0
H668 H 0.46288 0.81746 0.49622 0.0
H669 H 0.44782 0.67607 0.48098 0.0
H670 H 0.4108 0.80958 0.51384 0.0
H671 H 0.39707 0.66637 0.49938 0.0
H672 H 0.2874 0.67405 0.52474 0.0
H673 H 0.33704 0.68282 0.50573 0.0
H674 H 0.39229 0.77829 0.53712 0.0
H675 H 0.34143 0.77146 0.55538 0.0
C676 C 0.4485 0.78445 0.49685 0.0
C677 C 0.45924 0.74734 0.48734 0.0
C678 C 0.41879 0.77964 0.50703 0.0
C679 C 0.39965 0.73708 0.50829 0.0
C680 C 0.41052 0.69994 0.49864 0.0
C681 C 0.43973 0.70524 0.48815 0.0
C682 C 0.31025 0.69693 0.52742 0.0
C683 C 0.31057 0.72245 0.54138 0.0
C684 C 0.33887 0.70182 0.51662 0.0
C685 C 0.36891 0.73155 0.51974 0.0
C686 C 0.36934 0.75615 0.53397 0.0
C687 C 0.34032 0.75209 0.54454 0.0
H688 H 0.34648 0.37972 0.42224 0.0
H689 H 0.31749 0.24011 0.43638 0.0
H690 H 0.29785 0.37867 0.40272 0.0
H691 H 0.26794 0.23932 0.41685 0.0
H692 H 0.20943 0.24286 0.36778 0.0
H693 H 0.25839 0.24018 0.38753 0.0
H694 H 0.23059 0.37913 0.40214 0.0
H695 H 0.18255 0.38212 0.38237 0.0
C696 C 0.32981 0.34864 0.42115 0.0
C697 C 0.33608 0.30991 0.43088 0.0
C698 C 0.30162 0.34822 0.41003 0.0
C699 C 0.27886 0.30897 0.40821 0.0
C700 C 0.28513 0.27001 0.41787 0.0
C701 C 0.31327 0.2706 0.42915 0.0
C702 C 0.21396 0.27288 0.37516 0.0
C703 C 0.19197 0.31269 0.37345 0.0
C704 C 0.24175 0.27117 0.38658 0.0
C705 C 0.2485 0.30947 0.39642 0.0
C706 C 0.22645 0.34915 0.39469 0.0
C707 C 0.19859 0.3507 0.38341 0.0
H708 H 0.20008 0.67489 0.63178 0.0
H709 H 0.29604 0.75298 0.61761 0.0
H710 H 0.19341 0.72503 0.6545 0.0
H711 H 0.28848 0.80449 0.63988 0.0
H712 H 0.28052 0.86846 0.68907 0.0
H713 H 0.29151 0.81625 0.66705 0.0
H714 H 0.17432 0.79997 0.66073 0.0
H715 H 0.16368 0.85016 0.68304 0.0
C716 C 0.21986 0.70264 0.63355 0.0
C717 C 0.24854 0.70984 0.62283 0.0
C718 C 0.21582 0.73188 0.64651 0.0
C719 C 0.24002 0.76962 0.64899 0.0
C720 C 0.26943 0.77576 0.63852 0.0
C721 C 0.27374 0.74614 0.62567 0.0
C722 C 0.25719 0.85409 0.68283 0.0
C723 C 0.22124 0.86333 0.68784 0.0
C724 C 0.26343 0.82404 0.67019 0.0
C725 C 0.23383 0.803 0.66216 0.0
C726 C 0.19791 0.8141 0.66685 0.0
C727 C 0.19174 0.84346 0.67956 0.0
H728 H 0.71465 0.70817 0.42747 0.0
H729 H 0.68899 0.85244 0.41921 0.0
H730 H 0.7716 0.71712 0.41298 0.0
H731 H 0.74682 0.86171 0.40456 0.0
H732 H 0.82944 0.82592 0.36241 0.0
H733 H 0.77458 0.83069 0.37886 0.0
H734 H 0.83161 0.75833 0.41587 0.0
H735 H 0.8863 0.75401 0.3996 0.0
C736 C 0.72118 0.74187 0.4225 0.0
C737 C 0.69716 0.77952 0.42436 0.0
C738 C 0.75407 0.74715 0.41433 0.0
C739 C 0.76385 0.79018 0.40767 0.0
C740 C 0.73995 0.82809 0.40953 0.0
C741 C 0.70705 0.82291 0.41796 0.0
C742 C 0.83056 0.81205 0.37419 0.0
C743 C 0.86214 0.78887 0.37959 0.0
C744 C 0.79909 0.81475 0.38361 0.0
C745 C 0.79858 0.79422 0.39857 0.0
C746 C 0.83088 0.77365 0.40428 0.0
C747 C 0.86222 0.7711 0.39494 0.0
H748 H 0.81745 0.18166 0.66745 0.0
H749 H 0.70739 0.14635 0.65266 0.0
H750 H 0.82383 0.2336 0.64522 0.0
H751 H 0.71432 0.19676 0.62983 0.0
H752 H 0.7202 0.3409 0.60584 0.0
H753 H 0.71452 0.27555 0.62374 0.0
H754 H 0.83047 0.24773 0.61868 0.0
H755 H 0.83631 0.31488 0.60138 0.0
C756 C 0.79489 0.184 0.6592 0.0
C757 C 0.76177 0.16 0.66196 0.0
C758 C 0.79861 0.2138 0.64631 0.0
C759 C 0.76951 0.22007 0.63562 0.0
C760 C 0.7371 0.19391 0.63793 0.0
C761 C 0.7332 0.16454 0.65097 0.0
C762 C 0.74437 0.32031 0.6083 0.0
C763 C 0.77879 0.33345 0.60225 0.0
C764 C 0.74112 0.28249 0.61859 0.0
C765 C 0.77211 0.25627 0.62296 0.0
C766 C 0.80609 0.26764 0.61601 0.0
C767 C 0.80943 0.30594 0.60592 0.0
H768 H 0.20702 0.34271 0.94429 0.0
H769 H 0.1421 0.26571 0.91088 0.0
H770 H 0.25898 0.3429 0.92604 0.0
H771 H 0.19406 0.26538 0.89274 0.0
H772 H 0.3134 0.2201 0.87827 0.0
H773 H 0.25881 0.22655 0.89471 0.0
H774 H 0.27505 0.37505 0.8974 0.0
H775 H 0.32964 0.36847 0.88055 0.0
C776 C 0.2039 0.32585 0.93306 0.0
C777 C 0.17054 0.30407 0.92903 0.0
C778 C 0.23347 0.32633 0.92257 0.0
C779 C 0.23052 0.30421 0.90797 0.0
C780 C 0.19711 0.28265 0.90392 0.0
C781 C 0.16736 0.28299 0.91427 0.0
C782 C 0.30514 0.25413 0.88229 0.0
C783 C 0.32571 0.2938 0.8782 0.0
C784 C 0.27384 0.25786 0.89163 0.0
C785 C 0.26274 0.30126 0.89736 0.0
C786 C 0.28312 0.34113 0.89318 0.0
C787 C 0.31409 0.33748 0.8835 0.0
H788 H 0.22731 0.68995 0.16422 0.0
H789 H 0.33896 0.64088 0.16111 0.0
H790 H 0.23732 0.73939 0.14147 0.0
H791 H 0.34871 0.68958 0.13805 0.0
H792 H 0.36413 0.84445 0.12176 0.0
H793 H 0.35583 0.77242 0.1362 0.0
H794 H 0.25049 0.75186 0.1138 0.0
H795 H 0.25902 0.82506 0.09935 0.0
C796 C 0.25374 0.68879 0.15846 0.0
C797 C 0.28253 0.66205 0.1647 0.0
C798 C 0.25941 0.71694 0.14528 0.0
C799 C 0.29399 0.71897 0.13798 0.0
C800 C 0.32192 0.6895 0.14353 0.0
C801 C 0.31629 0.66144 0.15674 0.0
C802 C 0.33985 0.82358 0.11946 0.0
C803 C 0.31227 0.84021 0.10944 0.0
C804 C 0.33504 0.78213 0.12774 0.0
C805 C 0.30225 0.75642 0.12634 0.0
C806 C 0.27588 0.77111 0.11529 0.0
C807 C 0.28094 0.81264 0.10684 0.0
H808 H 0.88431 0.71965 0.91927 0.0
H809 H 0.84392 0.84459 0.94085 0.0
H810 H 0.83419 0.72206 0.90031 0.0
H811 H 0.79465 0.84844 0.9216 0.0
H812 H 0.69044 0.82429 0.89489 0.0
H813 H 0.73933 0.81535 0.91407 0.0
H814 H 0.80971 0.759 0.87817 0.0
H815 H 0.75957 0.76618 0.85918 0.0
C816 C 0.86492 0.74799 0.91983 0.0
C817 C 0.86803 0.78189 0.9316 0.0
C818 C 0.83616 0.7495 0.90891 0.0
C819 C 0.80995 0.78533 0.90934 0.0
C820 C 0.81354 0.81957 0.92104 0.0
C821 C 0.84196 0.81762 0.93208 0.0
C822 C 0.71632 0.8097 0.89116 0.0
C823 C 0.7213 0.79616 0.87554 0.0
C824 C 0.74458 0.80491 0.90213 0.0
C825 C 0.77902 0.78721 0.89773 0.0
C826 C 0.78362 0.7724 0.88212 0.0
C827 C 0.75495 0.77651 0.87118 0.0
H828 H 0.73777 0.24144 0.10994 0.0
H829 H 0.77733 0.16324 0.14974 0.0
H830 H 0.73664 0.31175 0.126 0.0
H831 H 0.77714 0.23309 0.16554 0.0
H832 H 0.74518 0.35869 0.19437 0.0
H833 H 0.73903 0.28875 0.17831 0.0
H834 H 0.77824 0.36547 0.13806 0.0
H835 H 0.78338 0.43503 0.15388 0.0
C836 C 0.7463 0.23925 0.12207 0.0
C837 C 0.75771 0.19669 0.1285 0.0
C838 C 0.74579 0.27956 0.13129 0.0
C839 C 0.75676 0.27822 0.14713 0.0
C840 C 0.76788 0.23547 0.15351 0.0
C841 C 0.76829 0.19535 0.14435 0.0
C842 C 0.75229 0.36057 0.18208 0.0
C843 C 0.76488 0.40248 0.17547 0.0
C844 C 0.74893 0.32046 0.17286 0.0
C845 C 0.75816 0.32133 0.15683 0.0
C846 C 0.77029 0.36348 0.15025 0.0
C847 C 0.77354 0.40342 0.15942 0.0
H848 H 0.9507 0.94628 0.31446 0.0
H849 H 0.04257 0.91756 0.34494 0.0
H850 H 0.97633 1.02332 0.30887 0.0
H851 H 0.06903 0.99279 0.33883 0.0
H852 H 0.09145 0.14768 0.33739 0.0
H853 H 0.06473 0.07183 0.34306 0.0
H854 H 0.02274 0.06445 0.29574 0.0
H855 H 0.04801 0.14148 0.29041 0.0
C856 C 0.97639 0.95633 0.31991 0.0
C857 C 0.99436 0.92584 0.33024 0.0
C858 C 0.99135 1.0004 0.31662 0.0
C859 C 0.02492 1.01475 0.32339 0.0
C860 C 0.04282 0.98384 0.33363 0.0
C861 C 0.02764 0.94031 0.33708 0.0
C862 C 0.0768 0.12967 0.32816 0.0
C863 C 0.07198 0.15065 0.31344 0.0
C864 C 0.06146 0.08594 0.33138 0.0
C865 C 0.04136 0.06154 0.31988 0.0
C866 C 0.0373 0.08227 0.30503 0.0
C867 C 0.05218 0.12634 0.30189 0.0
H868 H 0.92868 0.13667 0.74889 0.0
H869 H 0.91877 0.07779 0.70264 0.0
H870 H 0.98926 0.10175 0.75169 0.0
H871 H 0.97888 1.04182 0.70561 0.0
H872 H 0.10189 1.01546 0.71126 0.0
H873 H 0.04518 0.05965 0.70792 0.0
H874 H 1.01233 1.02209 0.75485 0.0
H875 H 0.06919 0.97914 0.75829 0.0
C876 C 0.93955 0.11666 0.73926 0.0
C877 C 0.91876 0.10977 0.72558 0.0
C878 C 0.97411 0.09629 0.74093 0.0
C879 C 0.98878 0.06879 0.72891 0.0
C880 C 0.96848 0.06306 0.71504 0.0
C881 C 0.93384 0.08322 0.71341 0.0
C882 C 0.08274 1.01715 0.7209 0.0
C883 C 0.08995 0.99355 0.735 0.0
C884 C 0.05014 1.04211 0.71895 0.0
C885 C 0.02425 1.04431 0.73112 0.0
C886 C 0.03185 1.02147 0.74531 0.0
C887 C 0.06425 0.99634 0.74721 0.0
H888 H 0.98543 0.40349 1.00111 0.0
H889 H 0.0953 0.44735 0.98908 0.0
H890 H 0.96739 0.48417 1.00442 0.0
H891 H 0.07697 0.52836 0.99155 0.0
H892 H 0.04341 0.6716 1.00585 0.0
H893 H 0.06074 0.59015 1.00726 0.0
H894 H 0.9528 0.55088 0.99055 0.0
H895 H 0.93507 0.63253 0.99 0.0
C896 C 1.0058 0.43048 0.99917 0.0
C897 C 0.04183 0.41892 0.99482 0.0
C898 C 0.99533 0.47697 1.00093 0.0
C899 C 0.02044 0.51343 0.99811 0.0
C900 C 0.05681 0.50163 0.99409 0.0
C901 C 0.06742 0.45501 0.99259 0.0
C902 C 0.0232 0.64546 1.00271 0.0
C903 C 0.98785 0.65858 0.99781 0.0
C904 C 0.03328 0.59858 1.00334 0.0
C905 C 1.00852 0.56334 0.99881 0.0
C906 C 0.97267 0.57658 0.99435 0.0
C907 C 0.9624 0.62356 0.99399 0.0
H908 H 0.42846 1.02858 0.13747 0.0
H909 H 0.4335 1.01982 0.08709 0.0
H910 H 0.49564 1.03213 0.13863 0.0
H911 H 0.50017 1.02204 0.08826 0.0
H912 H 0.61494 0.07924 0.09392 0.0
H913 H 0.54841 0.07775 0.0944 0.0
H914 H 0.5508 0.98288 0.13365 0.0
H915 H 0.6181 0.98551 0.13349 0.0
C916 C 0.44384 1.02757 0.12666 0.0
C917 C 0.42553 1.02391 0.11219 0.0
C918 C 0.48233 1.02908 0.12733 0.0
C919 C 0.50331 1.02744 0.11354 0.0
C920 C 0.48491 1.0239 0.0991 0.0
C921 C 0.44661 1.02214 0.09844 0.0
C922 C 0.60152 0.05858 0.10284 0.0
C923 C 0.62209 1.03267 0.11373 0.0
C924 C 0.5632 0.05727 0.10298 0.0
C925 C 0.5442 1.02998 0.114 0.0
C926 C 0.5646 1.00449 0.12507 0.0
C927 C 0.60315 1.00565 0.12489 0.0
H928 H 0.48511 0.45487 0.85906 0.0
H929 H 0.46277 0.43841 0.80976 0.0
H930 H 0.51987 0.52553 0.8536 0.0
H931 H 0.49892 0.50804 0.80414 0.0
H932 H 0.53646 0.65918 0.80054 0.0
H933 H 0.50155 0.58876 0.80556 0.0
H934 H 0.57536 0.55418 0.84349 0.0
H935 H 0.60943 0.62629 0.83885 0.0
C936 C 0.48758 0.46641 0.84703 0.0
C937 C 0.47095 0.44103 0.83486 0.0
C938 C 0.50798 0.50677 0.84386 0.0
C939 C 0.51278 0.52267 0.82839 0.0
C940 C 0.4956 0.49752 0.81623 0.0
C941 C 0.47479 0.45743 0.81944 0.0
C942 C 0.54555 0.63643 0.80988 0.0
C943 C 0.57586 0.6486 0.8193 0.0
C944 C 0.52548 0.59568 0.81274 0.0
C945 C 0.53528 0.56541 0.825 0.0
C946 C 0.56634 0.57692 0.83414 0.0
C947 C 0.58623 0.61809 0.83138 0.0
H948 H 0.63463 0.50576 0.19034 0.0
H949 H 0.64327 0.65459 0.1961 0.0
H950 H 0.56864 0.50994 0.19453 0.0
H951 H 0.57684 0.65873 0.19994 0.0
H952 H 0.4492 0.64556 0.19472 0.0
H953 H 0.51403 0.64346 0.18688 0.0
H954 H 0.53218 0.529 0.21873 0.0
H955 H 0.46784 0.53106 0.22646 0.0
C956 C 0.6225 0.53944 0.19241 0.0
C957 C 0.64454 0.57971 0.19316 0.0
C958 C 0.58462 0.5418 0.19477 0.0
C959 C 0.56763 0.58456 0.19778 0.0
C960 C 0.58917 0.62528 0.1976 0.0
C961 C 0.62726 0.62288 0.19536 0.0
C962 C 0.46708 0.61981 0.19993 0.0
C963 C 0.45348 0.58855 0.21124 0.0
C964 C 0.50416 0.61881 0.19553 0.0
C965 C 0.52813 0.58595 0.20214 0.0
C966 C 0.51433 0.55442 0.2133 0.0
C967 C 0.47755 0.55587 0.21784 0.0
H968 H 0.4996 0.16547 0.45533 0.0
H969 H 0.43428 0.1301 0.49581 0.0
H970 H 0.53136 0.09195 0.45734 0.0
H971 H 0.46525 0.0549 0.49748 0.0
H972 H 0.55195 0.94276 0.50545 0.0
H973 H 0.52115 1.01771 0.50393 0.0
H974 H 0.52604 1.01212 0.45344 0.0
H975 H 0.55807 0.93824 0.45503 0.0
C976 C 0.49159 0.14169 0.46458 0.0
C977 C 0.46418 0.15386 0.47539 0.0
C978 C 0.5098 0.09912 0.46568 0.0
C979 C 0.50099 0.06692 0.47754 0.0
C980 C 0.47329 0.0789 0.48831 0.0
C981 C 0.45522 0.12191 0.48729 0.0
C982 C 0.54681 0.95781 0.49402 0.0
C983 C 0.55776 0.93447 0.48036 0.0
C984 C 0.52871 1.00068 0.49314 0.0
C985 C 0.52075 1.02131 0.47856 0.0
C986 C 0.53209 0.99802 0.46491 0.0
C987 C 0.55049 0.9554 0.46581 0.0
H988 H 0.90106 0.55069 0.62325 0.0
H989 H 0.88026 0.53867 0.57359 0.0
H990 H 0.96296 0.57874 0.6177 0.0
H991 H 0.94231 0.5638 0.56816 0.0
H992 H 0.03986 0.65841 0.56198 0.0
H993 H 0.97879 0.6315 0.56854 0.0
H994 H 0.02238 0.55639 0.60824 0.0
H995 H 0.08362 0.58569 0.6022 0.0
C996 C 0.90952 0.55382 0.61117 0.0
C997 C 0.88523 0.54229 0.59891 0.0
C998 C 0.9453 0.5694 0.60798 0.0
C999 C 0.95777 0.57375 0.59246 0.0
C1000 C 0.93362 0.56171 0.58026 0.0
C1001 C 0.89792 0.54652 0.58342 0.0
C1002 C 0.03665 0.63668 0.57223 0.0
C1003 C 0.06708 0.62455 0.58155 0.0
C1004 C 1.00144 0.62061 0.57589 0.0
C1005 C 0.99547 0.59143 0.58888 0.0
C1006 C 0.0258 0.57916 0.59823 0.0
C1007 C 0.06113 0.59554 0.59462 0.0
loop_
_geom_bond_atom_site_label_1
_geom_bond_atom_site_label_2
_geom_bond_distance
_geom_bond_site_symmetry_2
_ccdc_geom_bond_type
Cu0 N1 1.999 . S
Cu0 O6 1.974 . S
Cu0 N11 1.985 . S
Cu0 O20 1.959 . S
N1 Cu0 1.999 . S
N1 C3 1.263 . S
N1 C5 1.389 . S
N2 C3 1.358 . S
N2 C4 1.400 1_455 S
C3 N1 1.263 . S
C3 N2 1.358 . S
C3 H9 0.930 . S
C4 N2 1.400 1_655 S
C4 C5 1.351 1_655 S
C4 H21 0.930 . S
C5 N1 1.389 . S
C5 C4 1.351 1_455 S
C5 H10 0.930 1_455 S
O6 Cu0 1.974 . S
O6 C16 1.282 . S
C7 O8 1.261 . S
C7 O20 1.251 . S
O8 C7 1.261 . S
H9 C3 0.930 . S
H10 C5 0.930 1_655 S
N11 Cu0 1.985 . S
N11 C13 1.335 . S
N11 C14 1.390 . S
N12 C13 1.345 . S
N12 C15 1.336 . S
C13 N11 1.335 . S
C13 N12 1.345 . S
C13 H18 0.930 . S
C14 N11 1.390 . S
C14 C15 1.346 . S
C14 H19 0.930 . S
C15 N12 1.336 . S
C15 C14 1.346 . S
C15 H22 0.929 . S
C16 O6 1.282 . S
C16 O17 1.216 . S
O17 C16 1.216 . S
H18 C13 0.930 . S
H19 C14 0.930 . S
O20 Cu0 1.959 . S
O20 C7 1.251 . S
H21 C4 0.930 . S
H22 C15 0.929 . S
Cu23 N24 1.999 . S
Cu23 O29 1.974 . S
Cu23 N34 1.985 . S
Cu23 O43 1.959 . S
N24 Cu23 1.999 . S
N24 C26 1.263 . S
N24 C28 1.389 . S
N25 C26 1.358 . S
N25 C27 1.400 . S
C26 N24 1.263 . S
C26 N25 1.358 . S
C26 H32 0.930 . S
C27 N25 1.400 . S
C27 C28 1.351 . S
C27 H44 0.930 1_565 S
C28 N24 1.389 . S
C28 C27 1.351 . S
C28 H33 0.930 . S
O29 Cu23 1.974 . S
O29 C39 1.282 . S
C30 O31 1.261 . S
C30 O43 1.251 1_545 S
O31 C30 1.261 . S
H32 C26 0.930 . S
H33 C28 0.930 . S
N34 Cu23 1.985 . S
N34 C36 1.335 . S
N34 C37 1.390 . S
N35 C36 1.345 . S
N35 C38 1.336 . S
C36 N34 1.335 . S
C36 N35 1.345 . S
C36 H41 0.930 . S
C37 N34 1.390 . S
C37 C38 1.346 . S
C37 H42 0.930 . S
C38 N35 1.336 . S
C38 C37 1.346 . S
C38 H45 0.929 . S
C39 O29 1.282 . S
C39 O40 1.216 . S
O40 C39 1.216 . S
H41 C36 0.930 . S
H42 C37 0.930 . S
O43 Cu23 1.959 . S
O43 C30 1.251 1_565 S
H44 C27 0.930 1_545 S
H45 C38 0.929 . S
Cu46 N47 1.999 . S
Cu46 O52 1.974 . S
Cu46 N57 1.985 . S
Cu46 O66 1.959 . S
N47 Cu46 1.999 . S
N47 C49 1.263 . S
N47 C51 1.389 . S
N48 C49 1.358 . S
N48 C50 1.400 1_655 S
C49 N47 1.263 . S
C49 N48 1.358 . S
C49 H55 0.930 . S
C50 N48 1.400 1_455 S
C50 C51 1.351 1_455 S
C50 H67 0.930 . S
C51 N47 1.389 . S
C51 C50 1.351 1_655 S
C51 H56 0.930 1_655 S
O52 Cu46 1.974 . S
O52 C62 1.282 . S
C53 O54 1.261 . S
C53 O66 1.251 . S
O54 C53 1.261 . S
H55 C49 0.930 . S
H56 C51 0.930 1_455 S
N57 Cu46 1.985 . S
N57 C59 1.335 . S
N57 C60 1.390 . S
N58 C59 1.345 . S
N58 C61 1.336 . S
C59 N57 1.335 . S
C59 N58 1.345 . S
C59 H64 0.930 . S
C60 N57 1.390 . S
C60 C61 1.346 . S
C60 H65 0.930 . S
C61 N58 1.336 . S
C61 C60 1.346 . S
C61 H68 0.929 . S
C62 O52 1.282 . S
C62 O63 1.216 . S
O63 C62 1.216 . S
H64 C59 0.930 . S
H65 C60 0.930 . S
O66 Cu46 1.959 . S
O66 C53 1.251 . S
H67 C50 0.930 . S
H68 C61 0.929 . S
Cu69 N70 1.999 . S
Cu69 O75 1.974 . S
Cu69 N80 1.985 . S
Cu69 O89 1.959 . S
N70 Cu69 1.999 . S
N70 C72 1.263 . S
N70 C74 1.389 . S
N71 C72 1.358 . S
N71 C73 1.400 . S
C72 N70 1.263 . S
C72 N71 1.358 . S
C72 H78 0.930 . S
C73 N71 1.400 . S
C73 C74 1.351 . S
C73 H90 0.930 1_545 S
C74 N70 1.389 . S
C74 C73 1.351 . S
C74 H79 0.930 . S
O75 Cu69 1.974 . S
O75 C85 1.282 . S
C76 O77 1.261 . S
C76 O89 1.251 1_565 S
O77 C76 1.261 . S
H78 C72 0.930 . S
H79 C74 0.930 . S
N80 Cu69 1.985 . S
N80 C82 1.335 . S
N80 C83 1.390 . S
N81 C82 1.345 . S
N81 C84 1.336 . S
C82 N80 1.335 . S
C82 N81 1.345 . S
C82 H87 0.930 . S
C83 N80 1.390 . S
C83 C84 1.346 . S
C83 H88 0.930 . S
C84 N81 1.336 . S
C84 C83 1.346 . S
C84 H91 0.929 . S
C85 O75 1.282 . S
C85 O86 1.216 . S
O86 C85 1.216 . S
H87 C82 0.930 . S
H88 C83 0.930 . S
O89 Cu69 1.959 . S
O89 C76 1.251 1_545 S
H90 C73 0.930 1_565 S
H91 C84 0.929 . S
Cu92 N93 1.999 . S
Cu92 O98 1.974 . S
Cu92 N103 1.985 . S
Cu92 O112 1.959 . S
N93 Cu92 1.999 . S
N93 C95 1.263 . S
N93 C97 1.389 . S
N94 C95 1.358 . S
N94 C96 1.400 1_455 S
C95 N93 1.263 . S
C95 N94 1.358 . S
C95 H101 0.930 . S
C96 N94 1.400 1_655 S
C96 C97 1.351 1_655 S
C96 H113 0.930 . S
C97 N93 1.389 . S
C97 C96 1.351 1_455 S
C97 H102 0.930 1_455 S
O98 Cu92 1.974 . S
O98 C108 1.282 . S
C99 O100 1.261 . S
C99 O112 1.251 . S
O100 C99 1.261 . S
H101 C95 0.930 . S
H102 C97 0.930 1_655 S
N103 Cu92 1.985 . S
N103 C105 1.335 . S
N103 C106 1.390 . S
N104 C105 1.345 . S
N104 C107 1.336 . S
C105 N103 1.335 . S
C105 N104 1.345 . S
C105 H110 0.930 . S
C106 N103 1.390 . S
C106 C107 1.346 . S
C106 H111 0.930 . S
C107 N104 1.336 . S
C107 C106 1.346 . S
C107 H114 0.929 . S
C108 O98 1.282 . S
C108 O109 1.216 . S
O109 C108 1.216 . S
H110 C105 0.930 . S
H111 C106 0.930 . S
O112 Cu92 1.959 . S
O112 C99 1.251 . S
H113 C96 0.930 . S
H114 C107 0.929 . S
Cu115 N116 1.999 . S
Cu115 O121 1.974 . S
Cu115 N126 1.985 . S
Cu115 O135 1.959 . S
N116 Cu115 1.999 . S
N116 C118 1.263 . S
N116 C120 1.389 . S
N117 C118 1.358 . S
N117 C119 1.400 . S
C118 N116 1.263 . S
C118 N117 1.358 . S
C118 H124 0.930 . S
C119 N117 1.400 . S
C119 C120 1.351 . S
C119 H136 0.930 1_565 S
C120 N116 1.389 . S
C120 C119 1.351 . S
C120 H125 0.930 . S
O121 Cu115 1.974 . S
O121 C131 1.282 . S
C122 O123 1.261 . S
C122 O135 1.251 1_545 S
O123 C122 1.261 . S
H124 C118 0.930 . S
H125 C120 0.930 . S
N126 Cu115 1.985 . S
N126 C128 1.335 . S
N126 C129 1.390 . S
N127 C128 1.345 . S
N127 C130 1.336 . S
C128 N126 1.335 . S
C128 N127 1.345 . S
C128 H133 0.930 . S
C129 N126 1.390 . S
C129 C130 1.346 . S
C129 H134 0.930 . S
C130 N127 1.336 . S
C130 C129 1.346 . S
C130 H137 0.929 . S
C131 O121 1.282 . S
C131 O132 1.216 . S
O132 C131 1.216 . S
H133 C128 0.930 . S
H134 C129 0.930 . S
O135 Cu115 1.959 . S
O135 C122 1.251 1_565 S
H136 C119 0.930 1_545 S
H137 C130 0.929 . S
Cu138 N139 1.999 . S
Cu138 O144 1.974 . S
Cu138 N149 1.985 . S
Cu138 O158 1.959 . S
N139 Cu138 1.999 . S
N139 C141 1.263 . S
N139 C143 1.389 . S
N140 C141 1.358 . S
N140 C142 1.400 1_655 S
C141 N139 1.263 . S
C141 N140 1.358 . S
C141 H147 0.930 . S
C142 N140 1.400 1_455 S
C142 C143 1.351 1_455 S
C142 H159 0.930 . S
C143 N139 1.389 . S
C143 C142 1.351 1_655 S
C143 H148 0.930 1_655 S
O144 Cu138 1.974 . S
O144 C154 1.282 . S
C145 O146 1.261 . S
C145 O158 1.251 . S
O146 C145 1.261 . S
H147 C141 0.930 . S
H148 C143 0.930 1_455 S
N149 Cu138 1.985 . S
N149 C151 1.335 . S
N149 C152 1.390 . S
N150 C151 1.345 . S
N150 C153 1.336 . S
C151 N149 1.335 . S
C151 N150 1.345 . S
C151 H156 0.930 . S
C152 N149 1.390 . S
C152 C153 1.346 . S
C152 H157 0.930 . S
C153 N150 1.336 . S
C153 C152 1.346 . S
C153 H160 0.929 . S
C154 O144 1.282 . S
C154 O155 1.216 . S
O155 C154 1.216 . S
H156 C151 0.930 . S
H157 C152 0.930 . S
O158 Cu138 1.959 . S
O158 C145 1.251 . S
H159 C142 0.930 . S
H160 C153 0.929 . S
Cu161 N162 1.999 . S
Cu161 O167 1.974 . S
Cu161 N172 1.985 . S
Cu161 O181 1.959 . S
N162 Cu161 1.999 . S
N162 C164 1.263 . S
N162 C166 1.389 . S
N163 C164 1.358 . S
N163 C165 1.400 . S
C164 N162 1.263 . S
C164 N163 1.358 . S
C164 H170 0.930 . S
C165 N163 1.400 . S
C165 C166 1.351 . S
C165 H182 0.930 1_545 S
C166 N162 1.389 . S
C166 C165 1.351 . S
C166 H171 0.930 . S
O167 Cu161 1.974 . S
O167 C177 1.282 . S
C168 O169 1.261 . S
C168 O181 1.251 1_565 S
O169 C168 1.261 . S
H170 C164 0.930 . S
H171 C166 0.930 . S
N172 Cu161 1.985 . S
N172 C174 1.335 . S
N172 C175 1.390 . S
N173 C174 1.345 . S
N173 C176 1.336 . S
C174 N172 1.335 . S
C174 N173 1.345 . S
C174 H179 0.930 . S
C175 N172 1.390 . S
C175 C176 1.346 . S
C175 H180 0.930 . S
C176 N173 1.336 . S
C176 C175 1.346 . S
C176 H183 0.929 . S
C177 O167 1.282 . S
C177 O178 1.216 . S
O178 C177 1.216 . S
H179 C174 0.930 . S
H180 C175 0.930 . S
O181 Cu161 1.959 . S
O181 C168 1.251 1_545 S
H182 C165 0.930 1_565 S
H183 C176 0.929 . S
Cu184 N185 1.999 . S
Cu184 O190 1.974 . S
Cu184 N195 1.985 . S
Cu184 O204 1.959 . S
N185 Cu184 1.999 . S
N185 C187 1.263 . S
N185 C189 1.389 . S
N186 C187 1.358 . S
N186 C188 1.400 . S
C187 N185 1.263 . S
C187 N186 1.358 . S
C187 H193 0.930 . S
C188 N186 1.400 . S
C188 C189 1.351 . S
C188 H205 0.930 . S
C189 N185 1.389 . S
C189 C188 1.351 . S
C189 H194 0.930 . S
O190 Cu184 1.974 . S
O190 C200 1.282 . S
C191 O192 1.261 . S
C191 O204 1.251 . S
O192 C191 1.261 . S
H193 C187 0.930 . S
H194 C189 0.930 . S
N195 Cu184 1.985 . S
N195 C197 1.335 . S
N195 C198 1.390 . S
N196 C197 1.345 . S
N196 C199 1.336 . S
C197 N195 1.335 . S
C197 N196 1.345 . S
C197 H202 0.930 . S
C198 N195 1.390 . S
C198 C199 1.346 . S
C198 H203 0.930 . S
C199 N196 1.336 . S
C199 C198 1.346 . S
C199 H206 0.929 . S
C200 O190 1.282 . S
C200 O201 1.216 . S
O201 C200 1.216 . S
H202 C197 0.930 . S
H203 C198 0.930 . S
O204 Cu184 1.959 . S
O204 C191 1.251 . S
H205 C188 0.930 . S
H206 C199 0.929 . S
Cu207 N208 1.999 . S
Cu207 O213 1.974 . S
Cu207 N218 1.985 . S
Cu207 O227 1.959 . S
N208 Cu207 1.999 . S
N208 C210 1.263 . S
N208 C212 1.389 . S
N209 C210 1.358 . S
N209 C211 1.400 . S
C210 N208 1.263 . S
C210 N209 1.358 . S
C210 H216 0.930 . S
C211 N209 1.400 . S
C211 C212 1.351 . S
C211 H228 0.930 . S
C212 N208 1.389 . S
C212 C211 1.351 . S
C212 H217 0.930 . S
O213 Cu207 1.974 . S
O213 C223 1.282 . S
C214 O215 1.261 . S
C214 O227 1.251 . S
O215 C214 1.261 . S
H216 C210 0.930 . S
H217 C212 0.930 . S
N218 Cu207 1.985 . S
N218 C220 1.335 . S
N218 C221 1.390 . S
N219 C220 1.345 . S
N219 C222 1.336 . S
C220 N218 1.335 . S
C220 N219 1.345 . S
C220 H225 0.930 . S
C221 N218 1.390 . S
C221 C222 1.346 . S
C221 H226 0.930 . S
C222 N219 1.336 . S
C222 C221 1.346 . S
C222 H229 0.929 . S
C223 O213 1.282 . S
C223 O224 1.216 . S
O224 C223 1.216 . S
H225 C220 0.930 . S
H226 C221 0.930 . S
O227 Cu207 1.959 . S
O227 C214 1.251 . S
H228 C211 0.930 . S
H229 C222 0.929 . S
Cu230 N231 1.999 . S
Cu230 O236 1.974 . S
Cu230 N241 1.985 . S
Cu230 O250 1.959 . S
N231 Cu230 1.999 . S
N231 C233 1.263 . S
N231 C235 1.389 . S
N232 C233 1.358 . S
N232 C234 1.400 . S
C233 N231 1.263 . S
C233 N232 1.358 . S
C233 H239 0.930 . S
C234 N232 1.400 . S
C234 C235 1.351 . S
C234 H251 0.930 . S
C235 N231 1.389 . S
C235 C234 1.351 . S
C235 H240 0.930 . S
O236 Cu230 1.974 . S
O236 C246 1.282 . S
C237 O238 1.261 . S
C237 O250 1.251 . S
O238 C237 1.261 . S
H239 C233 0.930 . S
H240 C235 0.930 . S
N241 Cu230 1.985 . S
N241 C243 1.335 . S
N241 C244 1.390 . S
N242 C243 1.345 . S
N242 C245 1.336 . S
C243 N241 1.335 . S
C243 N242 1.345 . S
C243 H248 0.930 . S
C244 N241 1.390 . S
C244 C245 1.346 . S
C244 H249 0.930 . S
C245 N242 1.336 . S
C245 C244 1.346 . S
C245 H252 0.929 . S
C246 O236 1.282 . S
C246 O247 1.216 . S
O247 C246 1.216 . S
H248 C243 0.930 . S
H249 C244 0.930 . S
O250 Cu230 1.959 . S
O250 C237 1.251 . S
H251 C234 0.930 . S
H252 C245 0.929 . S
Cu253 N254 1.999 . S
Cu253 O259 1.974 . S
Cu253 N264 1.985 . S
Cu253 O273 1.959 . S
N254 Cu253 1.999 . S
N254 C256 1.263 . S
N254 C258 1.389 . S
N255 C256 1.358 . S
N255 C257 1.400 . S
C256 N254 1.263 . S
C256 N255 1.358 . S
C256 H262 0.930 . S
C257 N255 1.400 . S
C257 C258 1.351 . S
C257 H274 0.930 . S
C258 N254 1.389 . S
C258 C257 1.351 . S
C258 H263 0.930 . S
O259 Cu253 1.974 . S
O259 C269 1.282 . S
C260 O261 1.261 . S
C260 O273 1.251 . S
O261 C260 1.261 . S
H262 C256 0.930 . S
H263 C258 0.930 . S
N264 Cu253 1.985 . S
N264 C266 1.335 . S
N264 C267 1.390 . S
N265 C266 1.345 . S
N265 C268 1.336 . S
C266 N264 1.335 . S
C266 N265 1.345 . S
C266 H271 0.930 . S
C267 N264 1.390 . S
C267 C268 1.346 . S
C267 H272 0.930 . S
C268 N265 1.336 . S
C268 C267 1.346 . S
C268 H275 0.929 . S
C269 O259 1.282 . S
C269 O270 1.216 . S
O270 C269 1.216 . S
H271 C266 0.930 . S
H272 C267 0.930 . S
O273 Cu253 1.959 . S
O273 C260 1.251 . S
H274 C257 0.930 . S
H275 C268 0.929 . S
Cu276 N277 1.999 . S
Cu276 O282 1.974 . S
Cu276 N287 1.985 . S
Cu276 O296 1.959 . S
N277 Cu276 1.999 . S
N277 C279 1.263 . S
N277 C281 1.389 . S
N278 C279 1.358 . S
N278 C280 1.400 . S
C279 N277 1.263 . S
C279 N278 1.358 . S
C279 H285 0.930 . S
C280 N278 1.400 . S
C280 C281 1.351 . S
C280 H297 0.930 . S
C281 N277 1.389 . S
C281 C280 1.351 . S
C281 H286 0.930 . S
O282 Cu276 1.974 . S
O282 C292 1.282 . S
C283 O284 1.261 . S
C283 O296 1.251 . S
O284 C283 1.261 . S
H285 C279 0.930 . S
H286 C281 0.930 . S
N287 Cu276 1.985 . S
N287 C289 1.335 . S
N287 C290 1.390 . S
N288 C289 1.345 . S
N288 C291 1.336 . S
C289 N287 1.335 . S
C289 N288 1.345 . S
C289 H294 0.930 . S
C290 N287 1.390 . S
C290 C291 1.346 . S
C290 H295 0.930 . S
C291 N288 1.336 . S
C291 C290 1.346 . S
C291 H298 0.929 . S
C292 O282 1.282 . S
C292 O293 1.216 . S
O293 C292 1.216 . S
H294 C289 0.930 . S
H295 C290 0.930 . S
O296 Cu276 1.959 . S
O296 C283 1.251 . S
H297 C280 0.930 . S
H298 C291 0.929 . S
Cu299 N300 1.999 . S
Cu299 O305 1.974 . S
Cu299 N310 1.985 . S
Cu299 O319 1.959 . S
N300 Cu299 1.999 . S
N300 C302 1.263 . S
N300 C304 1.389 . S
N301 C302 1.358 . S
N301 C303 1.400 . S
C302 N300 1.263 . S
C302 N301 1.358 . S
C302 H308 0.930 . S
C303 N301 1.400 . S
C303 C304 1.351 . S
C303 H320 0.930 . S
C304 N300 1.389 . S
C304 C303 1.351 . S
C304 H309 0.930 . S
O305 Cu299 1.974 . S
O305 C315 1.282 . S
C306 O307 1.261 . S
C306 O319 1.251 . S
O307 C306 1.261 . S
H308 C302 0.930 . S
H309 C304 0.930 . S
N310 Cu299 1.985 . S
N310 C312 1.335 . S
N310 C313 1.390 . S
N311 C312 1.345 . S
N311 C314 1.336 . S
C312 N310 1.335 . S
C312 N311 1.345 . S
C312 H317 0.930 . S
C313 N310 1.390 . S
C313 C314 1.346 . S
C313 H318 0.930 . S
C314 N311 1.336 . S
C314 C313 1.346 . S
C314 H321 0.929 . S
C315 O305 1.282 . S
C315 O316 1.216 . S
O316 C315 1.216 . S
H317 C312 0.930 . S
H318 C313 0.930 . S
O319 Cu299 1.959 . S
O319 C306 1.251 . S
H320 C303 0.930 . S
H321 C314 0.929 . S
Cu322 N323 1.999 . S
Cu322 O328 1.974 . S
Cu322 N333 1.985 . S
Cu322 O342 1.959 . S
N323 Cu322 1.999 . S
N323 C325 1.263 . S
N323 C327 1.389 . S
N324 C325 1.358 . S
N324 C326 1.400 . S
C325 N323 1.263 . S
C325 N324 1.358 . S
C325 H331 0.930 . S
C326 N324 1.400 . S
C326 C327 1.351 . S
C326 H343 0.930 . S
C327 N323 1.389 . S
C327 C326 1.351 . S
C327 H332 0.930 . S
O328 Cu322 1.974 . S
O328 C338 1.282 . S
C329 O330 1.261 . S
C329 O342 1.251 . S
O330 C329 1.261 . S
H331 C325 0.930 . S
H332 C327 0.930 . S
N333 Cu322 1.985 . S
N333 C335 1.335 . S
N333 C336 1.390 . S
N334 C335 1.345 . S
N334 C337 1.336 . S
C335 N333 1.335 . S
C335 N334 1.345 . S
C335 H340 0.930 . S
C336 N333 1.390 . S
C336 C337 1.346 . S
C336 H341 0.930 . S
C337 N334 1.336 . S
C337 C336 1.346 . S
C337 H344 0.929 . S
C338 O328 1.282 . S
C338 O339 1.216 . S
O339 C338 1.216 . S
H340 C335 0.930 . S
H341 C336 0.930 . S
O342 Cu322 1.959 . S
O342 C329 1.251 . S
H343 C326 0.930 . S
H344 C337 0.929 . S
Cu345 N346 1.999 . S
Cu345 O351 1.974 . S
Cu345 N356 1.985 . S
Cu345 O365 1.959 . S
N346 Cu345 1.999 . S
N346 C348 1.263 . S
N346 C350 1.389 . S
N347 C348 1.358 . S
N347 C349 1.400 . S
C348 N346 1.263 . S
C348 N347 1.358 . S
C348 H354 0.930 . S
C349 N347 1.400 . S
C349 C350 1.351 . S
C349 H366 0.930 . S
C350 N346 1.389 . S
C350 C349 1.351 . S
C350 H355 0.930 . S
O351 Cu345 1.974 . S
O351 C361 1.282 . S
C352 O353 1.261 . S
C352 O365 1.251 . S
O353 C352 1.261 . S
H354 C348 0.930 . S
H355 C350 0.930 . S
N356 Cu345 1.985 . S
N356 C358 1.335 . S
N356 C359 1.390 . S
N357 C358 1.345 . S
N357 C360 1.336 . S
C358 N356 1.335 . S
C358 N357 1.345 . S
C358 H363 0.930 . S
C359 N356 1.390 . S
C359 C360 1.346 . S
C359 H364 0.930 . S
C360 N357 1.336 . S
C360 C359 1.346 . S
C360 H367 0.929 . S
C361 O351 1.282 . S
C361 O362 1.216 . S
O362 C361 1.216 . S
H363 C358 0.930 . S
H364 C359 0.930 . S
O365 Cu345 1.959 . S
O365 C352 1.251 . S
H366 C349 0.930 . S
H367 C360 0.929 . S
H368 C376 0.950 . S
H369 C381 0.950 . S
H370 C378 0.950 . S
H371 C380 0.950 . S
H372 C382 0.950 . S
H373 C384 0.950 . S
H374 C386 0.950 . S
H375 C387 0.950 . S
C376 H368 0.950 . S
C376 C377 1.386 . S
C376 C378 1.391 . S
C377 C376 1.386 . S
C377 C381 1.393 . S
C378 H370 0.950 . S
C378 C376 1.391 . S
C378 C379 1.400 . S
C379 C378 1.400 . S
C379 C380 1.398 . S
C379 C385 1.491 . S
C380 H371 0.950 . S
C380 C379 1.398 . S
C380 C381 1.391 . S
C381 H369 0.950 . S
C381 C377 1.393 . S
C381 C380 1.391 . S
C382 H372 0.950 . S
C382 C383 1.386 . S
C382 C384 1.391 . S
C383 C382 1.386 . S
C383 C387 1.393 . S
C384 H373 0.950 . S
C384 C382 1.391 . S
C384 C385 1.400 . S
C385 C379 1.491 . S
C385 C384 1.400 . S
C385 C386 1.398 . S
C386 H374 0.950 . S
C386 C385 1.398 . S
C386 C387 1.391 . S
C387 H375 0.950 . S
C387 C383 1.393 . S
C387 C386 1.391 . S
H388 C396 0.950 . S
H389 C401 0.950 . S
H390 C398 0.950 . S
H391 C400 0.950 . S
H392 C402 0.950 . S
H393 C404 0.950 . S
H394 C406 0.950 . S
H395 C407 0.950 . S
C396 H388 0.950 . S
C396 C397 1.386 . S
C396 C398 1.391 . S
C397 C396 1.386 . S
C397 C401 1.393 . S
C398 H390 0.950 . S
C398 C396 1.391 . S
C398 C399 1.400 . S
C399 C398 1.400 . S
C399 C400 1.398 . S
C399 C405 1.491 . S
C400 H391 0.950 . S
C400 C399 1.398 . S
C400 C401 1.391 . S
C401 H389 0.950 . S
C401 C397 1.393 . S
C401 C400 1.391 . S
C402 H392 0.950 . S
C402 C403 1.386 . S
C402 C404 1.391 . S
C403 C402 1.386 . S
C403 C407 1.393 . S
C404 H393 0.950 . S
C404 C402 1.391 . S
C404 C405 1.400 . S
C405 C399 1.491 . S
C405 C404 1.400 . S
C405 C406 1.398 . S
C406 H394 0.950 . S
C406 C405 1.398 . S
C406 C407 1.391 . S
C407 H395 0.950 . S
C407 C403 1.393 . S
C407 C406 1.391 . S
H408 C416 0.950 . S
H409 C421 0.950 . S
H410 C418 0.950 . S
H411 C420 0.950 . S
H412 C422 0.950 . S
H413 C424 0.950 . S
H414 C426 0.950 . S
H415 C427 0.950 . S
C416 H408 0.950 . S
C416 C417 1.386 . S
C416 C418 1.391 . S
C417 C416 1.386 . S
C417 C421 1.393 . S
C418 H410 0.950 . S
C418 C416 1.391 . S
C418 C419 1.400 . S
C419 C418 1.400 . S
C419 C420 1.398 . S
C419 C425 1.491 . S
C420 H411 0.950 . S
C420 C419 1.398 . S
C420 C421 1.391 . S
C421 H409 0.950 . S
C421 C417 1.393 . S
C421 C420 1.391 . S
C422 H412 0.950 . S
C422 C423 1.386 . S
C422 C424 1.391 . S
C423 C422 1.386 . S
C423 C427 1.393 . S
C424 H413 0.950 . S
C424 C422 1.391 . S
C424 C425 1.400 . S
C425 C419 1.491 . S
C425 C424 1.400 . S
C425 C426 1.398 . S
C426 H414 0.950 . S
C426 C425 1.398 . S
C426 C427 1.391 . S
C427 H415 0.950 . S
C427 C423 1.393 . S
C427 C426 1.391 . S
H428 C436 0.950 . S
H429 C441 0.950 . S
H430 C438 0.950 . S
H431 C440 0.950 . S
H432 C442 0.950 . S
H433 C444 0.950 . S
H434 C446 0.950 . S
H435 C447 0.950 . S
C436 H428 0.950 . S
C436 C437 1.386 . S
C436 C438 1.391 . S
C437 C436 1.386 . S
C437 C441 1.393 . S
C438 H430 0.950 . S
C438 C436 1.391 . S
C438 C439 1.400 . S
C439 C438 1.400 . S
C439 C440 1.398 . S
C439 C445 1.491 . S
C440 H431 0.950 . S
C440 C439 1.398 . S
C440 C441 1.391 . S
C441 H429 0.950 . S
C441 C437 1.393 . S
C441 C440 1.391 . S
C442 H432 0.950 . S
C442 C443 1.386 . S
C442 C444 1.391 . S
C443 C442 1.386 . S
C443 C447 1.393 . S
C444 H433 0.950 . S
C444 C442 1.391 . S
C444 C445 1.400 . S
C445 C439 1.491 . S
C445 C444 1.400 . S
C445 C446 1.398 . S
C446 H434 0.950 . S
C446 C445 1.398 . S
C446 C447 1.391 . S
C447 H435 0.950 . S
C447 C443 1.393 . S
C447 C446 1.391 . S
H448 C456 0.950 . S
H449 C461 0.950 1_565 S
H450 C458 0.950 . S
H451 C460 0.950 . S
H452 C462 0.950 . S
H453 C464 0.950 . S
H454 C466 0.950 . S
H455 C467 0.950 . S
C456 H448 0.950 . S
C456 C457 1.386 . S
C456 C458 1.391 . S
C457 C456 1.386 . S
C457 C461 1.393 . S
C458 H450 0.950 . S
C458 C456 1.391 . S
C458 C459 1.400 . S
C459 C458 1.400 . S
C459 C460 1.398 . S
C459 C465 1.491 . S
C460 H451 0.950 . S
C460 C459 1.398 . S
C460 C461 1.391 . S
C461 H449 0.950 1_545 S
C461 C457 1.393 . S
C461 C460 1.391 . S
C462 H452 0.950 . S
C462 C463 1.386 . S
C462 C464 1.391 . S
C463 C462 1.386 . S
C463 C467 1.393 . S
C464 H453 0.950 . S
C464 C462 1.391 . S
C464 C465 1.400 1_556 S
C465 C459 1.491 . S
C465 C464 1.400 1_554 S
C465 C466 1.398 . S
C466 H454 0.950 . S
C466 C465 1.398 . S
C466 C467 1.391 1_554 S
C467 H455 0.950 . S
C467 C463 1.393 . S
C467 C466 1.391 1_556 S
H468 C476 0.950 . S
H469 C481 0.950 . S
H470 C478 0.950 . S
H471 C480 0.950 . S
H472 C482 0.950 . S
H473 C484 0.950 . S
H474 C486 0.950 . S
H475 C487 0.950 . S
C476 H468 0.950 . S
C476 C477 1.386 . S
C476 C478 1.391 . S
C477 C476 1.386 . S
C477 C481 1.393 . S
C478 H470 0.950 . S
C478 C476 1.391 . S
C478 C479 1.400 . S
C479 C478 1.400 . S
C479 C480 1.398 . S
C479 C485 1.491 . S
C480 H471 0.950 . S
C480 C479 1.398 . S
C480 C481 1.391 . S
C481 H469 0.950 . S
C481 C477 1.393 . S
C481 C480 1.391 . S
C482 H472 0.950 . S
C482 C483 1.386 1_554 S
C482 C484 1.391 . S
C483 C482 1.386 1_556 S
C483 C487 1.393 . S
C484 H473 0.950 . S
C484 C482 1.391 . S
C484 C485 1.400 . S
C485 C479 1.491 . S
C485 C484 1.400 . S
C485 C486 1.398 1_554 S
C486 H474 0.950 . S
C486 C485 1.398 1_556 S
C486 C487 1.391 . S
C487 H475 0.950 . S
C487 C483 1.393 . S
C487 C486 1.391 . S
H488 C496 0.950 . S
H489 C501 0.974 . S
H490 C498 0.950 . S
H491 C500 0.950 . S
H492 C502 0.950 . S
H493 C504 0.950 . S
H494 C506 1.025 . S
H495 C507 0.950 . S
C496 H488 0.950 . S
C496 C497 1.386 . S
C496 C498 1.391 . S
C497 C496 1.386 . S
C497 C501 1.393 . S
C498 H490 0.950 . S
C498 C496 1.391 . S
C498 C499 1.400 1_556 S
C499 C498 1.400 1_554 S
C499 C500 1.398 . S
C499 C505 1.491 . S
C500 H491 0.950 . S
C500 C499 1.398 . S
C500 C501 1.391 1_554 S
C501 H489 0.974 . S
C501 C497 1.393 . S
C501 C500 1.391 1_556 S
C502 H492 0.950 . S
C502 C503 1.386 . S
C502 C504 1.391 . S
C503 C502 1.386 . S
C503 C507 1.393 . S
C504 H493 0.950 . S
C504 C502 1.391 . S
C504 C505 1.400 . S
C505 C499 1.491 . S
C505 C504 1.400 . S
C505 C506 1.398 . S
C506 H494 1.025 . S
C506 C505 1.398 . S
C506 C507 1.391 . S
C507 H495 0.950 . S
C507 C503 1.393 . S
C507 C506 1.391 . S
H508 C516 0.950 . S
H509 C521 0.950 . S
H510 C518 0.950 . S
H511 C520 0.950 . S
H512 C522 0.950 . S
H513 C524 0.950 . S
H514 C526 0.950 . S
H515 C527 0.950 . S
C516 H508 0.950 . S
C516 C517 1.386 . S
C516 C518 1.391 . S
C517 C516 1.386 . S
C517 C521 1.393 . S
C518 H510 0.950 . S
C518 C516 1.391 . S
C518 C519 1.400 . S
C519 C518 1.400 . S
C519 C520 1.398 . S
C519 C525 1.491 . S
C520 H511 0.950 . S
C520 C519 1.398 . S
C520 C521 1.391 . S
C521 H509 0.950 . S
C521 C517 1.393 . S
C521 C520 1.391 . S
C522 H512 0.950 . S
C522 C523 1.386 1_554 S
C522 C524 1.391 . S
C523 C522 1.386 1_556 S
C523 C527 1.393 . S
C524 H513 0.950 . S
C524 C522 1.391 . S
C524 C525 1.400 . S
C525 C519 1.491 . S
C525 C524 1.400 . S
C525 C526 1.398 1_554 S
C526 H514 0.950 . S
C526 C525 1.398 1_556 S
C526 C527 1.391 . S
C527 H515 0.950 . S
C527 C523 1.393 . S
C527 C526 1.391 . S
H528 C536 0.950 . S
H529 C541 0.950 . S
H530 C538 0.950 . S
H531 C540 0.950 . S
H532 C542 0.950 . S
H533 C544 0.950 . S
H534 C546 0.950 . S
H535 C547 0.950 . S
C536 H528 0.950 . S
C536 C537 1.386 . S
C536 C538 1.391 . S
C537 C536 1.386 . S
C537 C541 1.393 . S
C538 H530 0.950 . S
C538 C536 1.391 . S
C538 C539 1.400 . S
C539 C538 1.400 . S
C539 C540 1.398 . S
C539 C545 1.491 . S
C540 H531 0.950 . S
C540 C539 1.398 . S
C540 C541 1.391 . S
C541 H529 0.950 . S
C541 C537 1.393 . S
C541 C540 1.391 . S
C542 H532 0.950 . S
C542 C543 1.386 . S
C542 C544 1.391 . S
C543 C542 1.386 . S
C543 C547 1.393 . S
C544 H533 0.950 . S
C544 C542 1.391 . S
C544 C545 1.400 . S
C545 C539 1.491 . S
C545 C544 1.400 . S
C545 C546 1.398 . S
C546 H534 0.950 . S
C546 C545 1.398 . S
C546 C547 1.391 . S
C547 H535 0.950 . S
C547 C543 1.393 . S
C547 C546 1.391 . S
H548 C556 0.950 1_455 S
H549 C561 0.950 . S
H550 C558 0.950 . S
H551 C560 0.950 . S
H552 C562 0.950 . S
H553 C564 0.950 . S
H554 C566 0.950 . S
H555 C567 0.950 . S
C556 H548 0.950 1_655 S
C556 C557 1.386 . S
C556 C558 1.391 . S
C557 C556 1.386 . S
C557 C561 1.393 . S
C558 H550 0.950 . S
C558 C556 1.391 . S
C558 C559 1.400 . S
C559 C558 1.400 . S
C559 C560 1.398 . S
C559 C565 1.491 . S
C560 H551 0.950 . S
C560 C559 1.398 . S
C560 C561 1.391 . S
C561 H549 0.950 . S
C561 C557 1.393 . S
C561 C560 1.391 . S
C562 H552 0.950 . S
C562 C563 1.386 . S
C562 C564 1.391 . S
C563 C562 1.386 . S
C563 C567 1.393 . S
C564 H553 0.950 . S
C564 C562 1.391 . S
C564 C565 1.400 . S
C565 C559 1.491 . S
C565 C564 1.400 . S
C565 C566 1.398 . S
C566 H554 0.950 . S
C566 C565 1.398 . S
C566 C567 1.391 . S
C567 H555 0.950 . S
C567 C563 1.393 . S
C567 C566 1.391 . S
H568 C576 0.950 1_565 S
H569 C581 0.950 . S
H570 C578 0.950 . S
H571 C580 0.950 . S
H572 C582 0.950 . S
H573 C584 0.950 . S
H574 C586 0.950 . S
H575 C587 0.950 . S
C576 H568 0.950 1_545 S
C576 C577 1.386 . S
C576 C578 1.391 . S
C577 C576 1.386 . S
C577 C581 1.393 . S
C578 H570 0.950 . S
C578 C576 1.391 . S
C578 C579 1.400 . S
C579 C578 1.400 . S
C579 C580 1.398 . S
C579 C585 1.491 . S
C580 H571 0.950 . S
C580 C579 1.398 . S
C580 C581 1.391 . S
C581 H569 0.950 . S
C581 C577 1.393 . S
C581 C580 1.391 . S
C582 H572 0.950 . S
C582 C583 1.386 . S
C582 C584 1.391 . S
C583 C582 1.386 . S
C583 C587 1.393 . S
C584 H573 0.950 . S
C584 C582 1.391 . S
C584 C585 1.400 . S
C585 C579 1.491 . S
C585 C584 1.400 . S
C585 C586 1.398 . S
C586 H574 0.950 . S
C586 C585 1.398 . S
C586 C587 1.391 . S
C587 H575 0.950 . S
C587 C583 1.393 . S
C587 C586 1.391 . S
H588 C596 0.950 . S
H589 C601 0.950 1_655 S
H590 C598 0.950 . S
H591 C600 0.950 . S
H592 C602 0.950 . S
H593 C604 0.950 . S
H594 C606 0.950 . S
H595 C607 0.950 . S
C596 H588 0.950 . S
C596 C597 1.386 . S
C596 C598 1.391 . S
C597 C596 1.386 . S
C597 C601 1.393 . S
C598 H590 0.950 . S
C598 C596 1.391 . S
C598 C599 1.400 . S
C599 C598 1.400 . S
C599 C600 1.398 . S
C599 C605 1.491 . S
C600 H591 0.950 . S
C600 C599 1.398 . S
C600 C601 1.391 . S
C601 H589 0.950 1_455 S
C601 C597 1.393 . S
C601 C600 1.391 . S
C602 H592 0.950 . S
C602 C603 1.386 . S
C602 C604 1.391 . S
C603 C602 1.386 . S
C603 C607 1.393 . S
C604 H593 0.950 . S
C604 C602 1.391 . S
C604 C605 1.400 . S
C605 C599 1.491 . S
C605 C604 1.400 . S
C605 C606 1.398 . S
C606 H594 0.950 . S
C606 C605 1.398 . S
C606 C607 1.391 . S
C607 H595 0.950 . S
C607 C603 1.393 . S
C607 C606 1.391 . S
H608 C616 0.950 . S
H609 C621 0.950 . S
H610 C618 0.950 . S
H611 C620 0.950 . S
H612 C622 0.950 . S
H613 C624 0.950 . S
H614 C626 0.950 . S
H615 C627 0.950 . S
C616 H608 0.950 . S
C616 C617 1.386 . S
C616 C618 1.391 . S
C617 C616 1.386 . S
C617 C621 1.393 . S
C618 H610 0.950 . S
C618 C616 1.391 . S
C618 C619 1.400 . S
C619 C618 1.400 . S
C619 C620 1.398 . S
C619 C625 1.491 . S
C620 H611 0.950 . S
C620 C619 1.398 . S
C620 C621 1.391 . S
C621 H609 0.950 . S
C621 C617 1.393 . S
C621 C620 1.391 . S
C622 H612 0.950 . S
C622 C623 1.386 . S
C622 C624 1.391 . S
C623 C622 1.386 . S
C623 C627 1.393 . S
C624 H613 0.950 . S
C624 C622 1.391 . S
C624 C625 1.400 . S
C625 C619 1.491 . S
C625 C624 1.400 . S
C625 C626 1.398 . S
C626 H614 0.950 . S
C626 C625 1.398 . S
C626 C627 1.391 . S
C627 H615 0.950 . S
C627 C623 1.393 . S
C627 C626 1.391 . S
H628 C636 0.950 . S
H629 C641 0.950 . S
H630 C638 0.950 . S
H631 C640 0.950 . S
H632 C642 0.950 . S
H633 C644 0.950 . S
H634 C646 0.950 . S
H635 C647 0.950 . S
C636 H628 0.950 . S
C636 C637 1.386 . S
C636 C638 1.391 . S
C637 C636 1.386 . S
C637 C641 1.393 . S
C638 H630 0.950 . S
C638 C636 1.391 . S
C638 C639 1.400 . S
C639 C638 1.400 . S
C639 C640 1.398 . S
C639 C645 1.491 . S
C640 H631 0.950 . S
C640 C639 1.398 . S
C640 C641 1.391 . S
C641 H629 0.950 . S
C641 C637 1.393 . S
C641 C640 1.391 . S
C642 H632 0.950 . S
C642 C643 1.386 . S
C642 C644 1.391 . S
C643 C642 1.386 . S
C643 C647 1.393 . S
C644 H633 0.950 . S
C644 C642 1.391 . S
C644 C645 1.400 . S
C645 C639 1.491 . S
C645 C644 1.400 . S
C645 C646 1.398 . S
C646 H634 0.950 . S
C646 C645 1.398 . S
C646 C647 1.391 . S
C647 H635 0.950 . S
C647 C643 1.393 . S
C647 C646 1.391 . S
H648 C656 0.950 . S
H649 C661 0.950 . S
H650 C658 0.950 . S
H651 C660 0.950 . S
H652 C662 0.950 . S
H653 C664 0.950 . S
H654 C666 0.950 . S
H655 C667 0.950 . S
C656 H648 0.950 . S
C656 C657 1.386 . S
C656 C658 1.391 . S
C657 C656 1.386 . S
C657 C661 1.393 . S
C658 H650 0.950 . S
C658 C656 1.391 . S
C658 C659 1.400 . S
C659 C658 1.400 . S
C659 C660 1.398 . S
C659 C665 1.491 . S
C660 H651 0.950 . S
C660 C659 1.398 . S
C660 C661 1.391 . S
C661 H649 0.950 . S
C661 C657 1.393 . S
C661 C660 1.391 . S
C662 H652 0.950 . S
C662 C663 1.386 . S
C662 C664 1.391 . S
C663 C662 1.386 . S
C663 C667 1.393 . S
C664 H653 0.950 . S
C664 C662 1.391 . S
C664 C665 1.400 . S
C665 C659 1.491 . S
C665 C664 1.400 . S
C665 C666 1.398 . S
C666 H654 0.950 . S
C666 C665 1.398 . S
C666 C667 1.391 . S
C667 H655 0.950 . S
C667 C663 1.393 . S
C667 C666 1.391 . S
H668 C676 0.950 . S
H669 C681 0.950 . S
H670 C678 0.950 . S
H671 C680 0.950 . S
H672 C682 0.950 . S
H673 C684 0.950 . S
H674 C686 0.950 . S
H675 C687 0.950 . S
C676 H668 0.950 . S
C676 C677 1.386 . S
C676 C678 1.391 . S
C677 C676 1.386 . S
C677 C681 1.393 . S
C678 H670 0.950 . S
C678 C676 1.391 . S
C678 C679 1.400 . S
C679 C678 1.400 . S
C679 C680 1.398 . S
C679 C685 1.491 . S
C680 H671 0.950 . S
C680 C679 1.398 . S
C680 C681 1.391 . S
C681 H669 0.950 . S
C681 C677 1.393 . S
C681 C680 1.391 . S
C682 H672 0.950 . S
C682 C683 1.386 . S
C682 C684 1.391 . S
C683 C682 1.386 . S
C683 C687 1.393 . S
C684 H673 0.950 . S
C684 C682 1.391 . S
C684 C685 1.400 . S
C685 C679 1.491 . S
C685 C684 1.400 . S
C685 C686 1.398 . S
C686 H674 0.950 . S
C686 C685 1.398 . S
C686 C687 1.391 . S
C687 H675 0.950 . S
C687 C683 1.393 . S
C687 C686 1.391 . S
H688 C696 0.950 . S
H689 C701 0.950 . S
H690 C698 0.950 . S
H691 C700 0.950 . S
H692 C702 0.950 . S
H693 C704 0.950 . S
H694 C706 0.950 . S
H695 C707 0.950 . S
C696 H688 0.950 . S
C696 C697 1.386 . S
C696 C698 1.391 . S
C697 C696 1.386 . S
C697 C701 1.393 . S
C698 H690 0.950 . S
C698 C696 1.391 . S
C698 C699 1.400 . S
C699 C698 1.400 . S
C699 C700 1.398 . S
C699 C705 1.491 . S
C700 H691 0.950 . S
C700 C699 1.398 . S
C700 C701 1.391 . S
C701 H689 0.950 . S
C701 C697 1.393 . S
C701 C700 1.391 . S
C702 H692 0.950 . S
C702 C703 1.386 . S
C702 C704 1.391 . S
C703 C702 1.386 . S
C703 C707 1.393 . S
C704 H693 0.950 . S
C704 C702 1.391 . S
C704 C705 1.400 . S
C705 C699 1.491 . S
C705 C704 1.400 . S
C705 C706 1.398 . S
C706 H694 0.950 . S
C706 C705 1.398 . S
C706 C707 1.391 . S
C707 H695 0.950 . S
C707 C703 1.393 . S
C707 C706 1.391 . S
H708 C716 0.950 . S
H709 C721 0.950 . S
H710 C718 0.950 . S
H711 C720 0.950 . S
H712 C722 0.950 . S
H713 C724 0.950 . S
H714 C726 0.950 . S
H715 C727 0.950 . S
C716 H708 0.950 . S
C716 C717 1.386 . S
C716 C718 1.391 . S
C717 C716 1.386 . S
C717 C721 1.393 . S
C718 H710 0.950 . S
C718 C716 1.391 . S
C718 C719 1.400 . S
C719 C718 1.400 . S
C719 C720 1.398 . S
C719 C725 1.491 . S
C720 H711 0.950 . S
C720 C719 1.398 . S
C720 C721 1.391 . S
C721 H709 0.950 . S
C721 C717 1.393 . S
C721 C720 1.391 . S
C722 H712 0.950 . S
C722 C723 1.386 . S
C722 C724 1.391 . S
C723 C722 1.386 . S
C723 C727 1.393 . S
C724 H713 0.950 . S
C724 C722 1.391 . S
C724 C725 1.400 . S
C725 C719 1.491 . S
C725 C724 1.400 . S
C725 C726 1.398 . S
C726 H714 0.950 . S
C726 C725 1.398 . S
C726 C727 1.391 . S
C727 H715 0.950 . S
C727 C723 1.393 . S
C727 C726 1.391 . S
H728 C736 0.950 . S
H729 C741 0.950 . S
H730 C738 0.950 . S
H731 C740 0.950 . S
H732 C742 0.950 . S
H733 C744 0.950 . S
H734 C746 0.950 . S
H735 C747 0.950 . S
C736 H728 0.950 . S
C736 C737 1.386 . S
C736 C738 1.391 . S
C737 C736 1.386 . S
C737 C741 1.393 . S
C738 H730 0.950 . S
C738 C736 1.391 . S
C738 C739 1.400 . S
C739 C738 1.400 . S
C739 C740 1.398 . S
C739 C745 1.491 . S
C740 H731 0.950 . S
C740 C739 1.398 . S
C740 C741 1.391 . S
C741 H729 0.950 . S
C741 C737 1.393 . S
C741 C740 1.391 . S
C742 H732 0.950 . S
C742 C743 1.386 . S
C742 C744 1.391 . S
C743 C742 1.386 . S
C743 C747 1.393 . S
C744 H733 0.950 . S
C744 C742 1.391 . S
C744 C745 1.400 . S
C745 C739 1.491 . S
C745 C744 1.400 . S
C745 C746 1.398 . S
C746 H734 0.950 . S
C746 C745 1.398 . S
C746 C747 1.391 . S
C747 H735 0.950 . S
C747 C743 1.393 . S
C747 C746 1.391 . S
H748 C756 0.950 . S
H749 C761 0.950 . S
H750 C758 0.950 . S
H751 C760 0.950 . S
H752 C762 0.950 . S
H753 C764 0.950 . S
H754 C766 0.950 . S
H755 C767 0.950 . S
C756 H748 0.950 . S
C756 C757 1.386 . S
C756 C758 1.391 . S
C757 C756 1.386 . S
C757 C761 1.393 . S
C758 H750 0.950 . S
C758 C756 1.391 . S
C758 C759 1.400 . S
C759 C758 1.400 . S
C759 C760 1.398 . S
C759 C765 1.491 . S
C760 H751 0.950 . S
C760 C759 1.398 . S
C760 C761 1.391 . S
C761 H749 0.950 . S
C761 C757 1.393 . S
C761 C760 1.391 . S
C762 H752 0.950 . S
C762 C763 1.386 . S
C762 C764 1.391 . S
C763 C762 1.386 . S
C763 C767 1.393 . S
C764 H753 0.950 . S
C764 C762 1.391 . S
C764 C765 1.400 . S
C765 C759 1.491 . S
C765 C764 1.400 . S
C765 C766 1.398 . S
C766 H754 0.950 . S
C766 C765 1.398 . S
C766 C767 1.391 . S
C767 H755 0.950 . S
C767 C763 1.393 . S
C767 C766 1.391 . S
H768 C776 0.950 . S
H769 C781 0.950 . S
H770 C778 0.950 . S
H771 C780 0.950 . S
H772 C782 0.950 . S
H773 C784 0.950 . S
H774 C786 0.950 . S
H775 C787 0.950 . S
C776 H768 0.950 . S
C776 C777 1.386 . S
C776 C778 1.391 . S
C777 C776 1.386 . S
C777 C781 1.393 . S
C778 H770 0.950 . S
C778 C776 1.391 . S
C778 C779 1.400 . S
C779 C778 1.400 . S
C779 C780 1.398 . S
C779 C785 1.491 . S
C780 H771 0.950 . S
C780 C779 1.398 . S
C780 C781 1.391 . S
C781 H769 0.950 . S
C781 C777 1.393 . S
C781 C780 1.391 . S
C782 H772 0.950 . S
C782 C783 1.386 . S
C782 C784 1.391 . S
C783 C782 1.386 . S
C783 C787 1.393 . S
C784 H773 0.950 . S
C784 C782 1.391 . S
C784 C785 1.400 . S
C785 C779 1.491 . S
C785 C784 1.400 . S
C785 C786 1.398 . S
C786 H774 0.950 . S
C786 C785 1.398 . S
C786 C787 1.391 . S
C787 H775 0.950 . S
C787 C783 1.393 . S
C787 C786 1.391 . S
H788 C796 0.950 . S
H789 C801 0.950 . S
H790 C798 0.950 . S
H791 C800 0.950 . S
H792 C802 0.950 . S
H793 C804 0.950 . S
H794 C806 0.950 . S
H795 C807 0.950 . S
C796 H788 0.950 . S
C796 C797 1.386 . S
C796 C798 1.391 . S
C797 C796 1.386 . S
C797 C801 1.393 . S
C798 H790 0.950 . S
C798 C796 1.391 . S
C798 C799 1.400 . S
C799 C798 1.400 . S
C799 C800 1.398 . S
C799 C805 1.491 . S
C800 H791 0.950 . S
C800 C799 1.398 . S
C800 C801 1.391 . S
C801 H789 0.950 . S
C801 C797 1.393 . S
C801 C800 1.391 . S
C802 H792 0.950 . S
C802 C803 1.386 . S
C802 C804 1.391 . S
C803 C802 1.386 . S
C803 C807 1.393 . S
C804 H793 0.950 . S
C804 C802 1.391 . S
C804 C805 1.400 . S
C805 C799 1.491 . S
C805 C804 1.400 . S
C805 C806 1.398 . S
C806 H794 0.950 . S
C806 C805 1.398 . S
C806 C807 1.391 . S
C807 H795 0.950 . S
C807 C803 1.393 . S
C807 C806 1.391 . S
H808 C816 0.950 . S
H809 C821 0.950 . S
H810 C818 0.950 . S
H811 C820 0.950 . S
H812 C822 0.950 . S
H813 C824 0.950 . S
H814 C826 0.950 . S
H815 C827 0.950 . S
C816 H808 0.950 . S
C816 C817 1.386 . S
C816 C818 1.391 . S
C817 C816 1.386 . S
C817 C821 1.393 . S
C818 H810 0.950 . S
C818 C816 1.391 . S
C818 C819 1.400 . S
C819 C818 1.400 . S
C819 C820 1.398 . S
C819 C825 1.491 . S
C820 H811 0.950 . S
C820 C819 1.398 . S
C820 C821 1.391 . S
C821 H809 0.950 . S
C821 C817 1.393 . S
C821 C820 1.391 . S
C822 H812 0.950 . S
C822 C823 1.386 . S
C822 C824 1.391 . S
C823 C822 1.386 . S
C823 C827 1.393 . S
C824 H813 0.950 . S
C824 C822 1.391 . S
C824 C825 1.400 . S
C825 C819 1.491 . S
C825 C824 1.400 . S
C825 C826 1.398 . S
C826 H814 0.950 . S
C826 C825 1.398 . S
C826 C827 1.391 . S
C827 H815 0.950 . S
C827 C823 1.393 . S
C827 C826 1.391 . S
H828 C836 0.950 . S
H829 C841 0.950 . S
H830 C838 0.950 . S
H831 C840 0.950 . S
H832 C842 0.950 . S
H833 C844 0.950 . S
H834 C846 0.950 . S
H835 C847 0.950 . S
C836 H828 0.950 . S
C836 C837 1.386 . S
C836 C838 1.391 . S
C837 C836 1.386 . S
C837 C841 1.393 . S
C838 H830 0.950 . S
C838 C836 1.391 . S
C838 C839 1.400 . S
C839 C838 1.400 . S
C839 C840 1.398 . S
C839 C845 1.491 . S
C840 H831 0.950 . S
C840 C839 1.398 . S
C840 C841 1.391 . S
C841 H829 0.950 . S
C841 C837 1.393 . S
C841 C840 1.391 . S
C842 H832 0.950 . S
C842 C843 1.386 . S
C842 C844 1.391 . S
C843 C842 1.386 . S
C843 C847 1.393 . S
C844 H833 0.950 . S
C844 C842 1.391 . S
C844 C845 1.400 . S
C845 C839 1.491 . S
C845 C844 1.400 . S
C845 C846 1.398 . S
C846 H834 0.950 . S
C846 C845 1.398 . S
C846 C847 1.391 . S
C847 H835 0.950 . S
C847 C843 1.393 . S
C847 C846 1.391 . S
H848 C856 0.950 . S
H849 C861 0.950 . S
H850 C858 0.939 1_455 S
H851 C860 0.950 . S
H852 C862 0.950 . S
H853 C864 0.939 1_655 S
H854 C866 0.950 . S
H855 C867 0.950 . S
C856 H848 0.950 . S
C856 C857 1.386 . S
C856 C858 1.391 . S
C857 C856 1.386 . S
C857 C861 1.393 . S
C858 H850 0.939 1_655 S
C858 C856 1.391 . S
C858 C859 1.400 . S
C859 C858 1.400 . S
C859 C860 1.398 . S
C859 C865 1.491 1_665 S
C860 H851 0.950 . S
C860 C859 1.398 . S
C860 C861 1.391 . S
C861 H849 0.950 . S
C861 C857 1.393 . S
C861 C860 1.391 . S
C862 H852 0.950 . S
C862 C863 1.386 . S
C862 C864 1.391 . S
C863 C862 1.386 . S
C863 C867 1.393 . S
C864 H853 0.939 1_455 S
C864 C862 1.391 . S
C864 C865 1.400 . S
C865 C859 1.491 1_445 S
C865 C864 1.400 . S
C865 C866 1.398 . S
C866 H854 0.950 . S
C866 C865 1.398 . S
C866 C867 1.391 . S
C867 H855 0.950 . S
C867 C863 1.393 . S
C867 C866 1.391 . S
H868 C876 0.950 . S
H869 C881 0.950 . S
H870 C878 0.950 . S
H871 C880 0.950 . S
H872 C882 0.950 . S
H873 C884 0.950 . S
H874 C886 0.950 . S
H875 C887 0.950 . S
C876 H868 0.950 . S
C876 C877 1.386 1_565 S
C876 C878 1.391 . S
C877 C876 1.386 1_545 S
C877 C881 1.393 . S
C878 H870 0.950 . S
C878 C876 1.391 . S
C878 C879 1.400 1_565 S
C879 C878 1.400 1_545 S
C879 C880 1.398 . S
C879 C885 1.491 1_645 S
C880 H871 0.950 . S
C880 C879 1.398 . S
C880 C881 1.391 . S
C881 H869 0.950 . S
C881 C877 1.393 . S
C881 C880 1.391 . S
C882 H872 0.950 . S
C882 C883 1.386 1_545 S
C882 C884 1.391 . S
C883 C882 1.386 1_565 S
C883 C887 1.393 . S
C884 H873 0.950 . S
C884 C882 1.391 . S
C884 C885 1.400 1_545 S
C885 C879 1.491 1_465 S
C885 C884 1.400 1_565 S
C885 C886 1.398 . S
C886 H874 0.950 . S
C886 C885 1.398 . S
C886 C887 1.391 . S
C887 H875 0.950 . S
C887 C883 1.393 . S
C887 C886 1.391 . S
H888 C896 0.950 1_655 S
H889 C901 0.950 . S
H890 C898 0.950 . S
H891 C900 0.950 . S
H892 C902 0.950 1_455 S
H893 C904 0.950 . S
H894 C906 0.950 . S
H895 C907 0.950 . S
C896 H888 0.950 1_455 S
C896 C897 1.386 . S
C896 C898 1.391 1_455 S
C897 C896 1.386 . S
C897 C901 1.393 . S
C898 H890 0.950 . S
C898 C896 1.391 1_655 S
C898 C899 1.400 1_655 S
C899 C898 1.400 1_455 S
C899 C900 1.398 . S
C899 C905 1.491 1_455 S
C900 H891 0.950 . S
C900 C899 1.398 . S
C900 C901 1.391 . S
C901 H889 0.950 . S
C901 C897 1.393 . S
C901 C900 1.391 . S
C902 H892 0.950 1_655 S
C902 C903 1.386 . S
C902 C904 1.391 1_655 S
C903 C902 1.386 . S
C903 C907 1.393 . S
C904 H893 0.950 . S
C904 C902 1.391 1_455 S
C904 C905 1.400 1_455 S
C905 C899 1.491 1_655 S
C905 C904 1.400 1_655 S
C905 C906 1.398 . S
C906 H894 0.950 . S
C906 C905 1.398 . S
C906 C907 1.391 . S
C907 H895 0.950 . S
C907 C903 1.393 . S
C907 C906 1.391 . S
H908 C916 0.950 . S
H909 C921 0.950 1_545 S
H910 C918 0.950 . S
H911 C920 0.950 . S
H912 C922 0.950 . S
H913 C924 0.950 . S
H914 C926 0.950 . S
H915 C927 0.950 1_565 S
C916 H908 0.950 . S
C916 C917 1.386 . S
C916 C918 1.391 . S
C917 C916 1.386 . S
C917 C921 1.393 . S
C918 H910 0.950 . S
C918 C916 1.391 . S
C918 C919 1.400 . S
C919 C918 1.400 . S
C919 C920 1.398 1_565 S
C919 C925 1.491 1_565 S
C920 H911 0.950 . S
C920 C919 1.398 1_545 S
C920 C921 1.391 1_545 S
C921 H909 0.950 1_565 S
C921 C917 1.393 . S
C921 C920 1.391 1_565 S
C922 H912 0.950 . S
C922 C923 1.386 . S
C922 C924 1.391 . S
C923 C922 1.386 . S
C923 C927 1.393 . S
C924 H913 0.950 . S
C924 C922 1.391 . S
C924 C925 1.400 . S
C925 C919 1.491 1_545 S
C925 C924 1.400 . S
C925 C926 1.398 1_545 S
C926 H914 0.950 . S
C926 C925 1.398 1_565 S
C926 C927 1.391 1_565 S
C927 H915 0.950 1_545 S
C927 C923 1.393 . S
C927 C926 1.391 1_545 S
H928 C936 0.950 . S
H929 C941 0.950 . S
H930 C938 0.950 . S
H931 C940 0.950 . S
H932 C942 0.950 . S
H933 C944 0.950 . S
H934 C946 0.950 . S
H935 C947 0.950 . S
C936 H928 0.950 . S
C936 C937 1.386 . S
C936 C938 1.391 . S
C937 C936 1.386 . S
C937 C941 1.393 . S
C938 H930 0.950 . S
C938 C936 1.391 . S
C938 C939 1.400 . S
C939 C938 1.400 . S
C939 C940 1.398 . S
C939 C945 1.491 . S
C940 H931 0.950 . S
C940 C939 1.398 . S
C940 C941 1.391 . S
C941 H929 0.950 . S
C941 C937 1.393 . S
C941 C940 1.391 . S
C942 H932 0.950 . S
C942 C943 1.386 . S
C942 C944 1.391 . S
C943 C942 1.386 . S
C943 C947 1.393 . S
C944 H933 0.950 . S
C944 C942 1.391 . S
C944 C945 1.400 . S
C945 C939 1.491 . S
C945 C944 1.400 . S
C945 C946 1.398 . S
C946 H934 0.950 . S
C946 C945 1.398 . S
C946 C947 1.391 . S
C947 H935 0.950 . S
C947 C943 1.393 . S
C947 C946 1.391 . S
H948 C956 0.950 . S
H949 C961 0.950 . S
H950 C958 0.950 . S
H951 C960 0.950 . S
H952 C962 0.950 . S
H953 C964 0.950 . S
H954 C966 0.950 . S
H955 C967 0.950 . S
C956 H948 0.950 . S
C956 C957 1.386 . S
C956 C958 1.391 . S
C957 C956 1.386 . S
C957 C961 1.393 . S
C958 H950 0.950 . S
C958 C956 1.391 . S
C958 C959 1.400 . S
C959 C958 1.400 . S
C959 C960 1.398 . S
C959 C965 1.491 . S
C960 H951 0.950 . S
C960 C959 1.398 . S
C960 C961 1.391 . S
C961 H949 0.950 . S
C961 C957 1.393 . S
C961 C960 1.391 . S
C962 H952 0.950 . S
C962 C963 1.386 . S
C962 C964 1.391 . S
C963 C962 1.386 . S
C963 C967 1.393 . S
C964 H953 0.950 . S
C964 C962 1.391 . S
C964 C965 1.400 . S
C965 C959 1.491 . S
C965 C964 1.400 . S
C965 C966 1.398 . S
C966 H954 0.950 . S
C966 C965 1.398 . S
C966 C967 1.391 . S
C967 H955 0.950 . S
C967 C963 1.393 . S
C967 C966 1.391 . S
H968 C976 0.950 . S
H969 C981 0.950 . S
H970 C978 0.951 . S
H971 C980 0.950 . S
H972 C982 0.950 . S
H973 C984 0.951 . S
H974 C986 0.950 . S
H975 C987 0.950 . S
C976 H968 0.950 . S
C976 C977 1.386 . S
C976 C978 1.391 . S
C977 C976 1.386 . S
C977 C981 1.393 . S
C978 H970 0.951 . S
C978 C976 1.391 . S
C978 C979 1.400 . S
C979 C978 1.400 . S
C979 C980 1.398 . S
C979 C985 1.491 1_545 S
C980 H971 0.950 . S
C980 C979 1.398 . S
C980 C981 1.391 . S
C981 H969 0.950 . S
C981 C977 1.393 . S
C981 C980 1.391 . S
C982 H972 0.950 . S
C982 C983 1.386 . S
C982 C984 1.391 . S
C983 C982 1.386 . S
C983 C987 1.393 . S
C984 H973 0.951 . S
C984 C982 1.391 . S
C984 C985 1.400 . S
C985 C979 1.491 1_565 S
C985 C984 1.400 . S
C985 C986 1.398 . S
C986 H974 0.950 . S
C986 C985 1.398 . S
C986 C987 1.391 . S
C987 H975 0.950 . S
C987 C983 1.393 . S
C987 C986 1.391 . S
H988 C996 0.950 . S
H989 C1001 0.950 . S
H990 C998 0.950 . S
H991 C1000 0.950 . S
H992 C1002 0.950 . S
H993 C1004 0.950 . S
H994 C1006 0.950 . S
H995 C1007 0.950 . S
C996 H988 0.950 . S
C996 C997 1.386 . S
C996 C998 1.391 . S
C997 C996 1.386 . S
C997 C1001 1.393 . S
C998 H990 0.950 . S
C998 C996 1.391 . S
C998 C999 1.400 . S
C999 C998 1.400 . S
C999 C1000 1.398 . S
C999 C1005 1.491 1_655 S
C1000 H991 0.950 . S
C1000 C999 1.398 . S
C1000 C1001 1.391 . S
C1001 H989 0.950 . S
C1001 C997 1.393 . S
C1001 C1000 1.391 . S
C1002 H992 0.950 . S
C1002 C1003 1.386 . S
C1002 C1004 1.391 . S
C1003 C1002 1.386 . S
C1003 C1007 1.393 . S
C1004 H993 0.950 . S
C1004 C1002 1.391 . S
C1004 C1005 1.400 . S
C1005 C999 1.491 1_455 S
C1005 C1004 1.400 . S
C1005 C1006 1.398 . S
C1006 H994 0.950 . S
C1006 C1005 1.398 . S
C1006 C1007 1.391 . S
C1007 H995 0.950 . S
C1007 C1003 1.393 . S
C1007 C1006 1.391 . S
C377 C16 1.724 . S
C383 C260 1.788 . S
C397 N186 1.324 . S
C403 N35 1.322 . S
C417 C214 1.790 . S
C423 C62 1.735 . S
C437 N232 1.323 . S
C443 N81 1.345 . S
C457 C122 1.793 . S
C463 C108 1.732 . S
C477 N127 1.323 . S
C483 N140 1.334 1_455 S
C497 C154 1.724 . S
C503 C168 1.788 . S
C517 N173 1.325 . S
C523 N94 1.337 1_655 S
C537 C200 1.724 . S
C543 C76 1.791 . S
C557 N2 1.339 1_655 S
C563 N219 1.340 . S
C577 C30 1.791 . S
C583 C246 1.735 . S
C597 N48 1.326 1_455 S
C603 N265 1.321 . S
C617 C306 1.791 . S
C623 C292 1.725 . S
C637 N311 1.338 . S
C643 N324 1.316 . S
C657 C352 1.791 . S
C663 C338 1.724 . S
C677 N278 1.324 . S
C683 N357 1.345 . S
C697 N334 1.769 . S
C703 N12 1.784 . S
C717 C361 1.938 . S
C723 C39 1.923 . S
C737 N288 1.774 . S
C743 N58 1.783 . S
C757 C85 1.930 . S
C763 C315 1.931 . S
C777 N104 1.770 . S
C783 N242 1.784 . S
C797 C269 1.928 . S
C803 C131 1.935 . S
C817 N150 1.775 . S
C823 N196 1.762 . S
C837 C177 1.936 . S
C843 C223 1.926 . S
C857 C53 1.743 . S
C863 C7 1.746 . S
C877 N71 1.692 . S
C883 N25 1.661 . S
C897 C99 1.735 . S
C903 C145 1.752 . S
C917 N117 1.668 . S
C923 N163 1.681 . S
C937 C237 1.747 . S
C943 C191 1.735 . S
C957 N209 1.665 . S
C963 N255 1.691 . S
C977 C329 1.749 . S
C983 C283 1.733 . S
C997 N301 1.690 . S
C1003 N347 1.662 . S
